drugbank_target|P56220 2,3,4,5-tetrahydropyridine-2,6-dicarboxylate N-succinyltransferase (DB01856; DB01992; DB03134; DB03699; DB03905)
 OpenBabel12092119523D

  0  0  0     0  0            999 V3000
M  V30 BEGIN CTAB
M  V30 COUNTS 4208 4242 0 0 0
M  V30 BEGIN ATOM
M  V30 1 H -0.908 1.98254 -0.117106 0
M  V30 2 N 0 1.576 0 0
M  V30 3 C 0.933 2.03868 1.02534 0
M  V30 4 C 1.911 0.928543 1.3348 0
M  V30 5 O 3.095 1.19667 1.45644 0
M  V30 6 C 0.222 2.43627 2.35294 0
M  V30 7 C -0.732 3.65373 2.2001 0
M  V30 8 S 0.101 5.13292 1.52614 0
M  V30 9 C 1.257 5.56322 2.86805 0
M  V30 10 H 1.49 2.90518 0.631377 0
M  V30 11 H -0.977 1.52953 0.210867 0
M  V30 12 H 0.981 2.67203 3.11629 0
M  V30 13 H -0.358 1.57376 2.7183 0
M  V30 14 H -1.165 3.90944 3.18086 0
M  V30 15 H -1.563 3.418 1.51819 0
M  V30 16 H 0.729 5.58782 3.83104 0
M  V30 17 H 1.672 6.56266 2.65933 0
M  V30 18 H 2.08 4.83886 2.90714 0
M  V30 19 N 1.4781 -0.272755 1.55222 0
M  V30 20 C 2.4101 -1.35946 1.8453 0
M  V30 21 C 3.4231 -1.45525 0.729818 0
M  V30 22 O 4.6121 -1.47337 1.00767 0
M  V30 23 C 1.7121 -2.74069 1.99347 0
M  V30 24 C 0.8851 -2.87079 3.30007 0
M  V30 25 C -0.0559 -4.05879 3.34886 0
M  V30 26 O -1.0299 -3.96626 4.08261 0
M  V30 27 N 0.1721 -5.17857 2.62307 0
M  V30 28 H 2.9371 -1.11149 2.78327 0
M  V30 29 H 0.4981 -0.462869 1.55142 0
M  V30 30 H 2.4901 -3.51838 1.99981 0
M  V30 31 H 1.0601 -2.91688 1.12415 0
M  V30 32 H 0.2801 -1.96193 3.41909 0
M  V30 33 H 1.5681 -2.92701 4.16177 0
M  V30 34 H 0.9661 -5.28261 2.02377 0
M  V30 35 H -0.4769 -5.93855 2.68663 0
M  V30 36 N 2.9562 -1.48159 -0.537278 0
M  V30 37 C 3.8882 -1.58218 -1.65831 0
M  V30 38 C 4.9012 -0.466948 -1.5596 0
M  V30 39 O 6.0902 -0.73747 -1.62553 0
M  V30 40 C 3.1902 -1.48906 -3.04434 0
M  V30 41 C 2.3632 -2.75343 -3.3986 0
M  V30 42 C 1.4222 -2.59588 -4.57712 0
M  V30 43 O 0.4482 -3.33457 -4.61297 0
M  V30 44 N 1.6502 -1.68724 -5.55439 0
M  V30 45 H 4.4152 -2.54891 -1.57641 0
M  V30 46 H 1.9762 -1.4479 -0.724386 0
M  V30 47 H 3.9682 -1.36072 -3.81139 0
M  V30 48 H 2.5382 -0.602368 -3.06741 0
M  V30 49 H 1.7582 -3.02795 -2.52406 0
M  V30 50 H 3.0462 -3.5924 -3.60311 0
M  V30 51 H 2.4442 -1.07898 -5.55315 0
M  V30 52 H 1.0012 -1.61832 -6.3139 0
M  V30 53 N 4.4343 0.785586 -1.36625 0
M  V30 54 C 5.3643 1.91259 -1.33949 0
M  V30 55 C 6.3453 1.68795 -0.210325 0
M  V30 56 O 7.5303 1.89854 -0.408561 0
M  V30 57 C 4.6603 3.28339 -1.13186 0
M  V30 58 C 3.6143 3.65335 -2.22967 0
M  V30 59 C 2.9403 5.00806 -1.87342 0
M  V30 60 C 4.2403 3.7352 -3.65075 0
M  V30 61 H 5.9343 1.93755 -2.28253 0
M  V30 62 H 3.4803 0.930788 -1.09874 0
M  V30 63 H 5.4333 4.06804 -1.09948 0
M  V30 64 H 4.1573 3.2624 -0.153332 0
M  V30 65 H 2.8163 2.89169 -2.25337 0
M  V30 66 H 2.4643 4.95233 -0.880545 0
M  V30 67 H 2.1643 5.26529 -2.60846 0
M  V30 68 H 3.6883 5.81687 -1.85667 0
M  V30 69 H 5.1023 4.42168 -3.64911 0
M  V30 70 H 3.4993 4.10731 -4.37516 0
M  V30 71 H 4.5693 2.74527 -3.99703 0
M  V30 72 N 5.9124 1.20967 1.01018 0
M  V30 73 C 6.8444 0.922059 2.09835 0
M  V30 74 C 7.8574 -0.0927106 1.62536 0
M  V30 75 O 9.0464 0.139127 1.77957 0
M  V30 76 C 6.1464 0.362004 3.36961 0
M  V30 77 C 5.3194 1.42986 4.13369 0
M  V30 78 C 4.3784 0.879976 5.1879 0
M  V30 79 O 3.4044 1.56219 5.47343 0
M  V30 80 N 4.6064 -0.307396 5.79686 0
M  V30 81 H 7.3714 1.8588 2.35093 0
M  V30 82 H 4.9324 1.11422 1.1746 0
M  V30 83 H 6.9244 -0.0201474 4.04695 0
M  V30 84 H 5.4944 -0.479437 3.08902 0
M  V30 85 H 4.7144 1.98608 3.40512 0
M  V30 86 H 6.0024 2.14885 4.61196 0
M  V30 87 H 5.4004 -0.878796 5.58832 0
M  V30 88 H 3.9574 -0.631115 6.48737 0
M  V30 89 N 7.3905 -1.2043 1.01659 0
M  V30 90 C 8.3385 -2.25249 0.580143 0
M  V30 91 C 9.3325 -1.65057 -0.381115 0
M  V30 92 O 10.5385 -1.78241 -0.251039 0
M  V30 93 H 6.9135 -0.732695 0.169299 0
M  V30 94 H 8.8845 -2.59389 1.47512 0
M  V30 95 C 7.6335 -3.47638 -0.065788 0
M  V30 96 H 6.9565 -3.94233 0.664874 0
M  V30 97 H 8.3965 -4.2268 -0.334282 0
M  V30 98 C 6.8555 -3.10447 -1.3086 0
M  V30 99 O 7.3855 -3.21981 -2.4019 0
M  V30 100 N 5.5915 -2.64996 -1.1927 0
M  V30 101 H 5.1385 -2.55811 -0.303064 0
M  V30 102 H 5.0965 -2.40482 -2.02523 0
M  V30 103 N 8.8686 -0.792821 -1.36206 0
M  V30 104 C 10.1146 -0.36733 -1.99446 0
M  V30 105 C 10.4476 1.05917 -1.62774 0
M  V30 106 O 9.7226 1.7324 -0.88421 0
M  V30 107 C 10.0056 -0.535044 -3.56103 0
M  V30 108 C 9.8586 -2.00548 -4.02617 0
M  V30 109 C 11.1776 0.0478191 -4.40074 0
M  V30 110 H 8.2966 -0.134941 -0.724541 0
M  V30 111 H 10.9386 -0.999794 -1.61568 0
M  V30 112 H 9.0886 0.00336329 -3.885 0
M  V30 113 H 10.7606 -2.60521 -3.80692 0
M  V30 114 H 9.0036 -2.50686 -3.54032 0
M  V30 115 H 9.6746 -2.07377 -5.11565 0
M  V30 116 H 12.1506 -0.411822 -4.14057 0
M  V30 117 H 11.0266 -0.0995336 -5.4881 0
M  V30 118 H 11.2876 1.14025 -4.27142 0
M  V30 119 N 10.3467 1.47872 -0.545128 0
M  V30 120 C 11.5957 2.01695 -0.0145033 0
M  V30 121 C 11.9087 1.42609 1.33873 0
M  V30 122 O 13.1147 1.88021 1.95858 0
M  V30 123 C 11.5707 3.59892 0.0245068 0
M  V30 124 C 11.1787 4.27966 -1.32475 0
M  V30 125 C 12.9227 4.21507 0.50316 0
M  V30 126 C 10.8297 5.78136 -1.2455 0
M  V30 127 H 9.7597 0.753998 -0.00165172 0
M  V30 128 H 12.4107 1.69985 -0.691175 0
M  V30 129 H 10.7927 3.88509 0.766575 0
M  V30 130 H 11.9667 4.11003 -2.08357 0
M  V30 131 H 10.2817 3.78286 -1.74036 0
M  V30 132 H 12.8787 5.31538 0.580656 0
M  V30 133 H 13.2217 3.87855 1.51243 0
M  V30 134 H 13.7547 3.97376 -0.183681 0
M  V30 135 H 10.4937 6.16388 -2.23039 0
M  V30 136 H 10.0137 5.97469 -0.528282 0
M  V30 137 H 11.6927 6.40099 -0.942488 0
M  V30 138 N 11.8248 0.280983 1.55075 0
M  V30 139 C 12.7348 -0.61388 2.26426 0
M  V30 140 C 13.7508 -1.16521 1.29224 0
M  V30 141 O 14.9268 -1.19426 1.62171 0
M  V30 142 C 11.9918 -1.7788 2.9759 0
M  V30 143 C 11.0528 -1.26355 4.10284 0
M  V30 144 C 10.2858 -2.37295 4.78045 0
M  V30 145 O 10.5088 -3.56777 4.45047 0
M  V30 146 O 9.4428 -2.05119 5.65871 0
M  V30 147 H 13.2688 -0.0356932 3.03679 0
M  V30 148 H 10.8538 0.0481686 1.49322 0
M  V30 149 H 12.7358 -2.45791 3.42293 0
M  V30 150 H 11.4108 -2.34397 2.23249 0
M  V30 151 H 10.3178 -0.550735 3.70024 0
M  V30 152 H 11.6508 -0.744065 4.86543 0
M  V30 153 N 13.3029 -1.57598 0.00835791 0
M  V30 154 C 14.5279 -1.95617 -0.689103 0
M  V30 155 C 14.9529 -0.883753 -1.66046 0
M  V30 156 O 14.3109 0.157352 -1.80616 0
M  V30 157 C 14.3589 -3.32736 -1.38994 0
M  V30 158 O 13.4629 -3.27631 -2.50463 0
M  V30 159 H 12.8039 -0.638379 -0.182668 0
M  V30 160 H 15.3339 -2.045 0.064036 0
M  V30 161 H 15.3439 -3.68494 -1.75147 0
M  V30 162 H 14.0189 -4.1034 -0.677778 0
M  V30 163 H 12.5959 -3.03561 -2.16576 0
M  V30 164 N 14.781 0.264519 -1.55364 0
M  V30 165 C 15.744 1.31046 -1.88042 0
M  V30 166 C 16.744 1.41943 -0.755569 0
M  V30 167 O 17.934 1.40947 -1.02369 0
M  V30 168 C 15.066 2.69067 -2.09323 0
M  V30 169 H 16.259 1.03297 -2.81549 0
M  V30 170 H 13.812 0.502989 -1.47986 0
M  V30 171 H 14.547 3.01982 -1.18226 0
M  V30 172 H 14.332 2.62542 -2.91229 0
M  V30 173 H 15.822 3.44623 -2.35848 0
M  V30 174 N 16.2591 1.48442 0.529413 0
M  V30 175 C 17.5061 1.56488 1.28521 0
M  V30 176 C 17.8341 0.239042 1.93025 0
M  V30 177 O 17.0891 -0.770713 1.79885 0
M  V30 178 C 17.3881 2.6523 2.39558 0
M  V30 179 C 17.0541 4.07648 1.92702 0
M  V30 180 C 15.7161 4.46411 1.79641 0
M  V30 181 C 18.0681 4.96896 1.573 0
M  V30 182 C 15.3961 5.72226 1.29514 0
M  V30 183 C 17.7481 6.23202 1.08636 0
M  V30 184 C 16.4121 6.60821 0.941919 0
M  V30 185 H 15.6821 0.572631 0.470292 0
M  V30 186 H 18.3291 1.82161 0.59072 0
M  V30 187 H 16.6341 2.33419 3.14679 0
M  V30 188 H 18.3311 2.68671 2.97686 0
M  V30 189 H 14.9211 3.77036 2.03819 0
M  V30 190 H 19.1051 4.67626 1.66251 0
M  V30 191 H 14.3611 6.00097 1.17019 0
M  V30 192 H 18.5351 6.91753 0.803136 0
M  V30 193 H 16.1621 7.58198 0.5513 0
M  V30 194 N 17.7372 -0.778329 1.37039 0
M  V30 195 C 18.6472 -1.92253 1.34446 0
M  V30 196 C 19.6632 -1.72267 0.244991 0
M  V30 197 O 20.8392 -1.95615 0.479258 0
M  V30 198 C 17.9042 -3.27282 1.144 0
M  V30 199 C 16.9652 -3.59969 2.33925 0
M  V30 200 C 16.1982 -4.88555 2.14825 0
M  V30 201 O 16.4212 -5.59113 1.12912 0
M  V30 202 O 15.3552 -5.20153 3.02861 0
M  V30 203 H 19.1812 -1.97392 2.30803 0
M  V30 204 H 16.7662 -0.920154 1.17701 0
M  V30 205 H 18.6482 -4.08062 1.05182 0
M  V30 206 H 17.3232 -3.23011 0.211124 0
M  V30 207 H 16.2302 -2.7945 2.48714 0
M  V30 208 H 17.5632 -3.68976 3.25757 0
M  V30 209 N 19.2153 -1.21501 -1.00376 0
M  V30 210 C 20.6313 -0.972629 -1.26539 0
M  V30 211 C 20.8313 0.340257 -1.98606 0
M  V30 212 O 19.8873 1.06561 -2.28913 0
M  V30 213 C 21.2003 -2.16404 -2.08781 0
M  V30 214 C 22.7483 -2.20643 -2.22004 0
M  V30 215 C 23.2233 -3.39306 -3.07629 0
M  V30 216 N 24.7143 -3.39401 -3.15217 0
M  V30 217 C 25.4493 -4.27867 -3.81729 0
M  V30 218 N 24.9453 -5.26533 -4.5026 0
M  V30 219 N 26.7383 -4.15672 -3.78382 0
M  V30 220 H 18.8893 -2.05929 -0.520281 0
M  V30 221 H 21.1523 -0.901803 -0.292328 0
M  V30 222 H 20.8583 -3.11554 -1.63178 0
M  V30 223 H 20.7323 -2.15567 -3.09533 0
M  V30 224 H 23.1193 -1.26048 -2.66825 0
M  V30 225 H 23.2003 -2.25523 -1.20718 0
M  V30 226 H 22.8443 -4.34195 -2.63509 0
M  V30 227 H 22.7743 -3.31665 -4.09031 0
M  V30 228 H 25.2653 -2.67997 -2.66432 0
M  V30 229 H 25.5783 -5.90337 -4.98721 0
M  V30 230 H 23.9233 -5.30457 -4.49044 0
M  V30 231 H 27.1143 -3.3785 -3.23998 0
M  V30 232 H 27.2873 -4.84825 -4.2994 0
M  V30 233 N 20.6934 1.19889 -1.02296 0
M  V30 234 C 22.1094 1.41462 -0.738954 0
M  V30 235 C 22.3094 1.89721 0.678846 0
M  V30 236 O 21.3654 2.07016 1.4457 0
M  V30 237 C 22.6784 2.43083 -1.77005 0
M  V30 238 C 24.2264 2.5684 -1.78892 0
M  V30 239 C 24.7014 3.61709 -2.80945 0
M  V30 240 N 26.1924 3.69199 -2.79725 0
M  V30 241 C 26.9274 4.50019 -3.55345 0
M  V30 242 N 26.4234 5.34592 -4.40662 0
M  V30 243 N 28.2164 4.44612 -3.43914 0
M  V30 244 H 20.3674 0.868827 -1.93817 0
M  V30 245 H 22.6304 0.44399 -0.837602 0
M  V30 246 H 22.3364 2.14636 -2.78612 0
M  V30 247 H 22.2104 3.4217 -1.58744 0
M  V30 248 H 24.5974 2.84614 -0.779674 0
M  V30 249 H 24.6784 1.57927 -2.01228 0
M  V30 250 H 24.3224 3.34678 -3.82038 0
M  V30 251 H 24.2524 4.60259 -2.5587 0
M  V30 252 H 26.7434 3.08794 -2.17842 0
M  V30 253 H 27.0564 5.93363 -4.95116 0
M  V30 254 H 25.4014 5.34073 -4.44737 0
M  V30 255 H 28.5924 3.7758 -2.76679 0
M  V30 256 H 28.7654 5.0736 -4.031 0
M  V30 257 N 22.1715 0.800033 1.35784 0
M  V30 258 C 23.1345 0.211565 2.28221 0
M  V30 259 C 24.1345 -0.59728 1.49296 0
M  V30 260 O 25.3245 -0.416721 1.69142 0
M  V30 261 C 22.4565 -0.705846 3.33513 0
M  V30 262 H 23.6495 1.02677 2.81776 0
M  V30 263 H 21.2025 0.570211 1.45528 0
M  V30 264 H 21.9375 -1.54498 2.85133 0
M  V30 265 H 21.7225 -0.127655 3.91892 0
M  V30 266 H 23.2125 -1.11211 4.02519 0
M  V30 267 N 23.6496 -1.47581 0.552962 0
M  V30 268 C 24.9266 -1.95563 -0.0381515 0
M  V30 269 C 25.3066 -1.49552 -1.48988 0
M  V30 270 O 24.6546 -0.732414 -2.16444 0
M  V30 271 C 24.8646 -3.48848 0.102919 0
M  V30 272 C 26.2126 -4.24577 -0.0446082 0
M  V30 273 O 27.2366 -3.56187 0.0302548 0
M  V30 274 O 26.0956 -5.46116 -0.204923 0
M  V30 275 H 23.1896 -0.824321 -0.0665067 0
M  V30 276 H 25.7356 -1.58001 0.619186 0
M  V30 277 H 24.5076 -3.75129 1.11328 0
M  V30 278 H 24.1306 -3.93165 -0.592224 0
M  V30 279 N 25.1277 -0.289203 -1.54924 0
M  V30 280 C 26.3767 0.324231 -1.99077 0
M  V30 281 C 26.6897 1.5591 -1.18117 0
M  V30 282 O 27.8957 2.24637 -1.52481 0
M  V30 283 C 26.3517 0.628209 -3.54375 0
M  V30 284 C 25.9597 -0.587647 -4.44129 0
M  V30 285 C 27.7037 1.20349 -4.07083 0
M  V30 286 C 25.6107 -0.257475 -5.90839 0
M  V30 287 H 24.5407 0.124924 -0.743579 0
M  V30 288 H 27.1917 -0.396063 -1.79175 0
M  V30 289 H 25.5737 1.40778 -3.70132 0
M  V30 290 H 26.7477 -1.36418 -4.40144 0
M  V30 291 H 25.0627 -1.08074 -4.0213 0
M  V30 292 H 27.6597 1.46456 -5.14252 0
M  V30 293 H 28.0027 2.14195 -3.56968 0
M  V30 294 H 28.5357 0.485889 -3.94821 0
M  V30 295 H 25.2747 -1.16419 -6.45079 0
M  V30 296 H 24.7947 0.482018 -5.9786 0
M  V30 297 H 26.4737 0.145238 -6.46837 0
M  V30 298 N 26.6058 1.57591 -0.0167156 0
M  V30 299 C 27.8338 1.95575 0.675128 0
M  V30 300 C 28.2488 0.892542 1.6637 0
M  V30 301 O 27.6058 -0.126912 1.82058 0
M  V30 302 C 27.6568 3.33608 1.39239 0
M  V30 303 O 27.3778 4.3585 0.443444 0
M  V30 304 C 28.8788 3.86151 2.17721 0
M  V30 305 H 26.0988 0.644423 0.186978 0
M  V30 306 H 28.6428 2.0437 -0.0728 0
M  V30 307 H 26.7978 3.2607 2.09182 0
M  V30 308 H 27.2118 5.158 0.951358 0
M  V30 309 H 28.6858 4.85114 2.63379 0
M  V30 310 H 29.1628 3.19738 3.01105 0
M  V30 311 H 29.7688 3.96918 1.52761 0
M  V30 312 N 28.0839 -0.256276 1.55502 0
M  V30 313 C 29.4949 -0.826068 1.67431 0
M  V30 314 C 29.8459 -1.86396 0.612446 0
M  V30 315 O 28.9709 -2.15031 -0.243025 0
M  V30 316 C 29.5659 -1.50512 3.03532 0
M  V30 317 C 28.1249 -2.02273 3.17431 0
M  V30 318 C 27.2719 -0.870548 2.63281 0
M  V30 319 H 30.2229 -0.0322728 1.58667 0
M  V30 320 H 30.2439 -2.37279 2.97454 0
M  V30 321 H 29.7559 -0.749484 3.80794 0
M  V30 322 H 27.8569 -2.80746 2.44974 0
M  V30 323 H 27.9699 -2.22655 4.24219 0
M  V30 324 H 26.3339 -1.26851 2.20864 0
M  V30 325 H 27.1169 -0.128149 3.43061 0
M  V30 326 N 29.562 -1.4872 -0.521534 0
M  V30 327 C 30.525 -1.63379 -1.60748 0
M  V30 328 C 31.525 -0.50661 -1.52611 0
M  V30 329 O 32.715 -0.772601 -1.5613 0
M  V30 330 C 29.847 -1.61192 -3.00383 0
M  V30 331 H 31.04 -2.60217 -1.49087 0
M  V30 332 H 28.593 -1.37444 -0.744235 0
M  V30 333 H 29.328 -0.65863 -3.17541 0
M  V30 334 H 29.113 -2.43032 -3.07698 0
M  V30 335 H 30.603 -1.7466 -3.7932 0
M  V30 336 N 31.0401 0.771051 -1.3745 0
M  V30 337 C 31.9881 1.90574 -1.33358 0
M  V30 338 C 32.9821 1.67936 -0.22224 0
M  V30 339 O 34.1881 1.75717 -0.390304 0
M  V30 340 H 30.5631 0.626714 -0.415612 0
M  V30 341 H 32.5341 1.91142 -2.29144 0
M  V30 342 C 31.2831 3.27845 -1.15813 0
M  V30 343 H 30.6061 3.45842 -2.00583 0
M  V30 344 H 32.0461 4.07538 -1.17 0
M  V30 345 C 30.5051 3.36625 0.136165 0
M  V30 346 O 31.0351 3.85785 1.11949 0
M  V30 347 N 29.2411 2.89997 0.187099 0
M  V30 348 H 28.7881 2.50182 -0.613753 0
M  V30 349 H 28.7461 2.96252 1.05272 0
M  V30 350 N 32.5182 1.22032 0.997298 0
M  V30 351 C 33.7642 1.04376 1.73878 0
M  V30 352 C 34.0972 -0.420716 1.89588 0
M  V30 353 O 33.3722 -1.31202 1.43583 0
M  V30 354 C 33.6552 1.75047 3.14691 0
M  V30 355 C 33.5082 3.29062 3.06656 0
M  V30 356 C 34.8272 1.49928 4.13775 0
M  V30 357 H 31.9462 0.380578 0.631133 0
M  V30 358 H 34.5882 1.50312 1.16217 0
M  V30 359 H 32.7382 1.35996 3.63919 0
M  V30 360 H 34.4102 3.7753 2.65083 0
M  V30 361 H 32.6532 3.58967 2.43568 0
M  V30 362 H 33.3242 3.73683 4.06282 0
M  V30 363 H 35.8002 1.83842 3.73285 0
M  V30 364 H 34.6762 2.01878 5.10428 0
M  V30 365 H 34.9372 0.430929 4.39995 0
M  V30 366 N 33.9963 -1.19345 1.0293 0
M  V30 367 C 35.2733 -1.84811 0.640642 0
M  V30 368 C 35.6533 -1.91855 -0.88062 0
M  V30 369 O 35.0013 -1.43587 -1.7775 0
M  V30 370 C 35.2113 -3.23755 1.30321 0
M  V30 371 C 36.5593 -3.99912 1.42673 0
M  V30 372 O 37.5833 -3.33155 1.26041 0
M  V30 373 O 36.4423 -5.19494 1.6967 0
M  V30 374 H 33.5363 -0.796443 0.222726 0
M  V30 375 H 36.0823 -1.26831 1.12748 0
M  V30 376 H 34.8543 -3.13466 2.34211 0
M  V30 377 H 34.4773 -3.89381 0.804261 0
M  V30 378 N 35.4744 -0.807222 -1.35358 0
M  V30 379 C 36.7024 -0.400377 -2.02989 0
M  V30 380 C 37.1174 0.988859 -1.60832 0
M  V30 381 O 36.4744 1.63729 -0.806175 0
M  V30 382 C 36.5254 -0.474867 -3.58368 0
M  V30 383 O 36.2464 -1.80933 -3.98992 0
M  V30 384 C 37.7474 -0.0609112 -4.43258 0
M  V30 385 H 34.9674 -0.162587 -0.651004 0
M  V30 386 H 37.5114 -1.09102 -1.72965 0
M  V30 387 H 35.6664 0.167534 -3.87038 0
M  V30 388 H 36.0804 -1.77256 -4.9364 0
M  V30 389 H 37.5544 -0.164145 -5.51756 0
M  V30 390 H 38.0314 0.993831 -4.27808 0
M  V30 391 H 38.6374 -0.676492 -4.19885 0
M  V30 392 N 36.9525 1.47285 -0.560781 0
M  V30 393 C 38.1985 2.02764 -0.0381184 0
M  V30 394 C 38.5315 1.43384 1.30976 0
M  V30 395 O 37.8065 0.590733 1.85312 0
M  V30 396 C 38.0895 3.60064 0.0511427 0
M  V30 397 C 37.9425 4.2987 -1.32408 0
M  V30 398 C 39.2615 4.33439 0.762795 0
M  V30 399 H 36.3805 0.736841 -0.0153264 0
M  V30 400 H 39.0225 1.75675 -0.723759 0
M  V30 401 H 37.1725 3.83274 0.635065 0
M  V30 402 H 38.8445 4.17989 -1.95148 0
M  V30 403 H 37.0875 3.90085 -1.8978 0
M  V30 404 H 37.7585 5.38478 -1.21431 0
M  V30 405 H 40.2345 4.15243 0.266965 0
M  V30 406 H 39.1105 5.43124 0.794221 0
M  V30 407 H 39.3715 4.02915 1.81966 0
M  V30 408 N 38.4306 0.297415 1.54768 0
M  V30 409 C 39.6586 -0.315623 2.04478 0
M  V30 410 C 40.0736 -1.47792 1.17486 0
M  V30 411 O 39.4306 -1.81404 0.19971 0
M  V30 412 C 39.4816 -0.7753 3.53088 0
M  V30 413 O 39.2026 0.340732 4.36773 0
M  V30 414 C 40.7036 -1.45386 4.18781 0
M  V30 415 H 37.9236 -0.0690887 0.667434 0
M  V30 416 H 40.4676 0.436003 1.99798 0
M  V30 417 H 38.6226 -1.47696 3.58141 0
M  V30 418 H 39.0366 -0.0165035 5.24497 0
M  V30 419 H 40.5106 -1.72669 5.24299 0
M  V30 420 H 40.9876 -2.39275 3.68299 0
M  V30 421 H 41.5936 -0.795475 4.17795 0
M  V30 422 N 39.9087 -1.5758 0.0250728 0
M  V30 423 C 41.3247 -1.56124 -0.331282 0
M  V30 424 C 41.5247 -1.03029 -1.73169 0
M  V30 425 O 40.5807 -0.675215 -2.43305 0
M  V30 426 C 41.8937 -3.00139 -0.183584 0
M  V30 427 C 43.4417 -3.11946 -0.256654 0
M  V30 428 C 43.9167 -4.57793 -0.137792 0
M  V30 429 N 45.4077 -4.6279 -0.194904 0
M  V30 430 C 46.1427 -5.7326 -0.126655 0
M  V30 431 N 45.6387 -6.928 -0.00755288 0
M  V30 432 N 47.4317 -5.61811 -0.180348 0
M  V30 433 H 39.5827 -1.90424 0.94087 0
M  V30 434 H 41.8457 -0.875761 0.362968 0
M  V30 435 H 41.5517 -3.4292 0.780927 0
M  V30 436 H 41.4257 -3.64899 -0.955448 0
M  V30 437 H 43.8127 -2.69079 -1.21162 0
M  V30 438 H 43.8937 -2.49915 0.545517 0
M  V30 439 H 43.5377 -5.01339 0.813739 0
M  V30 440 H 43.4677 -5.17798 -0.958775 0
M  V30 441 H 45.9587 -3.76807 -0.287267 0
M  V30 442 H 46.2717 -7.72791 0.0379428 0
M  V30 443 H 44.6167 -6.94995 0.0271731 0
M  V30 444 H 47.8077 -4.6731 -0.271767 0
M  V30 445 H 47.9807 -6.47882 -0.123697 0
M  V30 446 N 41.3868 0.248026 -1.55636 0
M  V30 447 C 42.2968 1.32859 -1.93354 0
M  V30 448 C 43.3128 1.52719 -0.833838 0
M  V30 449 O 44.4888 1.66363 -1.13513 0
M  V30 450 C 41.5538 2.66337 -2.21958 0
M  V30 451 C 40.6148 2.55008 -3.45354 0
M  V30 452 C 39.8478 3.82121 -3.72584 0
M  V30 453 O 40.0708 4.83951 -3.01907 0
M  V30 454 O 39.0048 3.80822 -4.6611 0
M  V30 455 H 42.8308 1.03862 -2.85388 0
M  V30 456 H 40.4158 0.448686 -1.42503 0
M  V30 457 H 42.2978 3.45216 -2.4167 0
M  V30 458 H 40.9728 2.95068 -1.33103 0
M  V30 459 H 39.8798 1.7442 -3.30951 0
M  V30 460 H 41.2128 2.31222 -4.34508 0
M  V30 461 N 42.8649 1.48995 0.513639 0
M  V30 462 C 43.8279 1.64229 1.59879 0
M  V30 463 C 44.8279 0.514696 1.5234 0
M  V30 464 O 46.0179 0.78087 1.55718 0
M  V30 465 C 43.1499 1.62783 2.99524 0
M  V30 466 H 44.3429 2.61004 1.47705 0
M  V30 467 H 41.8959 1.37837 0.736936 0
M  V30 468 H 42.6309 0.675461 3.17188 0
M  V30 469 H 42.4159 2.4466 3.06404 0
M  V30 470 H 43.9059 1.76669 3.78388 0
M  V30 471 N 44.343 -0.763751 1.37857 0
M  V30 472 C 45.589 -1.52483 1.33704 0
M  V30 473 C 45.922 -1.94051 -0.0759612 0
M  V30 474 O 45.197 -1.64675 -1.03501 0
M  V30 475 C 45.48 -2.78441 2.28348 0
M  V30 476 C 45.333 -2.43075 3.78463 0
M  V30 477 C 46.652 -3.80415 2.21298 0
M  V30 478 H 43.771 -0.553169 0.487005 0
M  V30 479 H 46.413 -0.875562 1.68624 0
M  V30 480 H 44.563 -3.33842 1.987 0
M  V30 481 H 46.235 -1.93527 4.18742 0
M  V30 482 H 44.478 -1.75666 3.96641 0
M  V30 483 H 45.149 -3.33149 4.40132 0
M  V30 484 H 47.625 -3.34527 2.47449 0
M  V30 485 H 46.501 -4.66257 2.89647 0
M  V30 486 H 46.762 -4.25262 1.20849 0
M  V30 487 N 45.8211 -1.22559 -0.990812 0
M  V30 488 C 46.7691 -0.994798 -2.10253 0
M  V30 489 C 47.7631 0.0627798 -1.69284 0
M  V30 490 O 48.9691 -0.0898392 -1.79776 0
M  V30 491 H 45.3441 -0.304527 -0.687581 0
M  V30 492 H 47.3151 -1.93812 -2.26891 0
M  V30 493 C 46.0641 -0.591439 -3.42633 0
M  V30 494 H 45.3871 -1.3969 -3.74602 0
M  V30 495 H 46.8271 -0.469385 -4.21394 0
M  V30 496 C 45.2861 0.699232 -3.29564 0
M  V30 497 O 45.8161 1.75112 -3.61523 0
M  V30 498 N 44.0221 0.671182 -2.82743 0
M  V30 499 H 43.5691 -0.185136 -2.56934 0
M  V30 500 H 43.5271 1.53502 -2.7438 0
M  V30 501 N 47.2992 1.18797 -1.03562 0
M  V30 502 C 48.2312 2.21731 -0.580337 0
M  V30 503 C 49.2442 1.59051 0.347349 0
M  V30 504 O 50.4332 1.77929 0.142669 0
M  V30 505 C 47.5332 3.38459 0.172805 0
M  V30 506 C 46.7062 4.3072 -0.761496 0
M  V30 507 C 45.7652 5.26174 -0.0525547 0
M  V30 508 O 44.7912 5.65108 -0.681333 0
M  V30 509 N 45.9932 5.67624 1.21586 0
M  V30 510 H 48.7582 2.61417 -1.46565 0
M  V30 511 H 46.3192 1.33531 -0.915476 0
M  V30 512 H 48.3112 3.99335 0.656793 0
M  V30 513 H 46.8812 2.97507 0.959602 0
M  V30 514 H 46.1012 3.67525 -1.42544 0
M  V30 515 H 47.3892 4.89267 -1.39626 0
M  V30 516 H 46.7872 5.38038 1.74732 0
M  V30 517 H 45.3442 6.30721 1.64421 0
M  V30 518 N 48.7773 0.814389 1.34928 0
M  V30 519 C 50.0233 0.399013 1.98836 0
M  V30 520 C 50.3563 -1.03314 1.64438 0
M  V30 521 O 49.6313 -1.71811 0.911659 0
M  V30 522 C 49.9143 0.591629 3.55207 0
M  V30 523 C 49.7673 2.06928 3.99376 0
M  V30 524 C 51.0863 0.022199 4.40094 0
M  V30 525 H 48.2053 0.146451 0.722303 0
M  V30 526 H 50.8473 1.02537 1.59957 0
M  V30 527 H 48.9973 0.0584441 3.88456 0
M  V30 528 H 50.6693 2.66544 3.76499 0
M  V30 529 H 48.9123 2.56287 3.49999 0
M  V30 530 H 49.5833 2.1549 5.08201 0
M  V30 531 H 52.0593 0.477643 4.13349 0
M  V30 532 H 50.9353 0.186832 5.48582 0
M  V30 533 H 51.1963 -1.07215 4.28902 0
M  V30 534 N 50.2554 -1.46986 0.568584 0
M  V30 535 C 51.5044 -2.01646 0.0465894 0
M  V30 536 C 51.8174 -1.44721 -1.31587 0
M  V30 537 O 53.0234 -1.91113 -1.92842 0
M  V30 538 C 51.4794 -3.59885 0.032752 0
M  V30 539 C 51.0874 -4.25804 1.39266 0
M  V30 540 C 52.8314 -4.22255 -0.436038 0
M  V30 541 C 50.7384 -5.76081 1.33732 0
M  V30 542 H 49.6684 -0.753876 0.013647 0
M  V30 543 H 52.3194 -1.68864 0.718131 0
M  V30 544 H 50.7014 -3.8968 -0.704669 0
M  V30 545 H 51.8754 -4.07637 2.1487 0
M  V30 546 H 50.1904 -3.7547 1.80032 0
M  V30 547 H 52.7874 -5.32394 -0.49602 0
M  V30 548 H 53.1304 -3.90212 -1.45053 0
M  V30 549 H 53.6634 -3.97033 0.246877 0
M  V30 550 H 50.4024 -6.12761 2.32817 0
M  V30 551 H 49.9224 -5.96553 0.623267 0
M  V30 552 H 51.6014 -6.38518 1.0442 0
M  V30 553 N 51.7335 -0.305618 -1.54608 0
M  V30 554 C 52.9815 0.301701 -1.99835 0
M  V30 555 C 53.3025 1.54054 -1.19551 0
M  V30 556 O 52.5725 1.93702 -0.292658 0
M  V30 557 H 51.1525 0.114468 -0.738178 0
M  V30 558 H 53.8145 -0.418016 -1.90364 0
M  V30 559 H 52.9105 0.570548 -3.06841 0
M  V30 560 N 53.2116 1.57565 -0.0334293 0
M  V30 561 C 54.1416 2.13511 0.945265 0
M  V30 562 C 55.1226 1.05231 1.33643 0
M  V30 563 O 56.3076 1.33084 1.41429 0
M  V30 564 C 53.4376 2.6657 2.22616 0
M  V30 565 C 52.3916 3.79676 1.97561 0
M  V30 566 C 51.7176 4.1918 3.31952 0
M  V30 567 C 53.0176 5.0557 1.31135 0
M  V30 568 H 54.7116 2.95538 0.479325 0
M  V30 569 H 52.2576 1.42166 0.229115 0
M  V30 570 H 54.2106 3.04344 2.91466 0
M  V30 571 H 52.9346 1.8171 2.71384 0
M  V30 572 H 51.5936 3.42347 1.31127 0
M  V30 573 H 51.2416 3.31296 3.78487 0
M  V30 574 H 50.9416 4.95402 3.15992 0
M  V30 575 H 52.4656 4.59541 4.02063 0
M  V30 576 H 53.8796 5.40903 1.89992 0
M  V30 577 H 52.2766 5.86818 1.25559 0
M  V30 578 H 53.3466 4.84062 0.284894 0
M  V30 579 N 54.6897 -0.239769 1.55765 0
M  V30 580 C 55.6197 -1.30052 1.9393 0
M  V30 581 C 56.6007 -1.49839 0.805132 0
M  V30 582 O 57.7857 -1.62328 1.06599 0
M  V30 583 C 54.9157 -2.65391 2.2402 0
M  V30 584 C 53.8697 -2.60289 3.39755 0
M  V30 585 C 53.1957 -3.99489 3.55405 0
M  V30 586 C 54.4957 -2.16654 4.75246 0
M  V30 587 H 56.1897 -0.983573 2.82783 0
M  V30 588 H 53.7357 -0.471701 1.36055 0
M  V30 589 H 55.6887 -3.3974 2.49308 0
M  V30 590 H 54.4127 -2.98736 1.32 0
M  V30 591 H 53.0717 -1.88398 3.14487 0
M  V30 592 H 52.7197 -4.30112 2.60793 0
M  V30 593 H 52.4197 -3.96962 4.33238 0
M  V30 594 H 53.9437 -4.75528 3.83022 0
M  V30 595 H 55.3577 -2.80737 4.99859 0
M  V30 596 H 53.7547 -2.25223 5.56232 0
M  V30 597 H 54.8247 -1.11835 4.71827 0
M  V30 598 N 56.1678 -1.49265 -0.50573 0
M  V30 599 C 57.4448 -1.49012 -1.26707 0
M  V30 600 C 57.8248 -0.215205 -2.1 0
M  V30 601 O 57.1728 0.802547 -2.13943 0
M  V30 602 C 57.3828 -2.7663 -2.12783 0
M  V30 603 C 58.7308 -3.25932 -2.72127 0
M  V30 604 O 59.7548 -2.77715 -2.23054 0
M  V30 605 O 58.6138 -4.09897 -3.61451 0
M  V30 606 H 55.7078 -0.596197 -0.57313 0
M  V30 607 H 58.2538 -1.61524 -0.52039 0
M  V30 608 H 57.0258 -3.60916 -1.5118 0
M  V30 609 H 56.6488 -2.66956 -2.94653 0
M  V30 610 N 57.6459 0.756429 -1.3826 0
M  V30 611 C 58.8709 1.55077 -1.37717 0
M  V30 612 C 59.2959 1.88073 0.03164 0
M  V30 613 O 58.6539 1.50364 1.01293 0
M  V30 614 C 58.7019 2.8283 -2.23695 0
M  V30 615 O 57.8059 3.77862 -1.6521 0
M  V30 616 H 57.1469 0.469152 -0.469885 0
M  V30 617 H 59.6769 0.935019 -1.81985 0
M  V30 618 H 59.6869 3.31783 -2.37453 0
M  V30 619 H 58.3619 2.58144 -3.2609 0
M  V30 620 H 56.9389 3.36555 -1.60578 0
M  V30 621 N 59.124 1.23083 0.984299 0
M  V30 622 C 60.372 1.05848 1.72165 0
M  V30 623 C 60.693 -0.406049 1.90726 0
M  V30 624 O 59.963 -1.29139 1.47309 0
M  V30 625 H 58.543 0.388685 0.637913 0
M  V30 626 H 61.205 1.54736 1.18503 0
M  V30 627 H 60.301 1.54327 2.71274 0
M  V30 628 N 60.6021 -1.18246 1.0419 0
M  V30 629 C 61.5651 -2.20128 0.638452 0
M  V30 630 C 62.5651 -1.57885 -0.304805 0
M  V30 631 O 63.7551 -1.73967 -0.0900369 0
M  V30 632 C 60.8871 -3.4084 -0.0637751 0
M  V30 633 H 62.0801 -2.57336 1.54007 0
M  V30 634 H 59.6331 -1.32152 0.834598 0
M  V30 635 H 60.3681 -3.09166 -0.979136 0
M  V30 636 H 60.1531 -3.8726 0.614198 0
M  V30 637 H 61.6431 -4.16274 -0.332512 0
M  V30 638 N 62.0802 -0.821533 -1.34494 0
M  V30 639 C 63.0102 -0.257138 -2.3208 0
M  V30 640 C 63.9912 0.625645 -1.58176 0
M  V30 641 O 65.1762 0.552811 -1.86166 0
M  V30 642 C 62.3062 0.582958 -3.42372 0
M  V30 643 C 61.2602 -0.202571 -4.2752 0
M  V30 644 C 60.5862 0.760179 -5.29269 0
M  V30 645 C 61.8862 -1.40998 -5.02908 0
M  V30 646 H 63.5802 -1.07247 -2.79532 0
M  V30 647 H 61.1262 -0.517163 -1.34393 0
M  V30 648 H 63.0792 0.987972 -4.09655 0
M  V30 649 H 61.8032 1.43133 -2.93565 0
M  V30 650 H 60.4622 -0.588936 -3.61838 0
M  V30 651 H 60.1102 1.60447 -4.76724 0
M  V30 652 H 59.8102 0.238809 -5.87115 0
M  V30 653 H 61.3342 1.16308 -5.9942 0
M  V30 654 H 62.7482 -1.07905 -5.63054 0
M  V30 655 H 61.1452 -1.86689 -5.70322 0
M  V30 656 H 62.2152 -2.1889 -4.32684 0
M  V30 657 N 63.5583 1.46682 -0.576371 0
M  V30 658 C 64.9743 1.57822 -0.237562 0
M  V30 659 C 65.1743 1.57237 1.26011 0
M  V30 660 O 64.2303 1.48596 2.04146 0
M  V30 661 C 65.5433 2.87499 -0.881168 0
M  V30 662 C 67.0913 3.01119 -0.85417 0
M  V30 663 C 67.5663 4.33524 -1.4772 0
M  V30 664 N 69.0573 4.40207 -1.44125 0
M  V30 665 C 69.7923 5.4126 -1.89276 0
M  V30 666 N 69.2883 6.49021 -2.42371 0
M  V30 667 N 71.0813 5.32422 -1.80231 0
M  V30 668 H 63.2323 1.45306 -1.54919 0
M  V30 669 H 65.4953 0.692733 -0.647167 0
M  V30 670 H 65.2013 2.9372 -1.93447 0
M  V30 671 H 65.0753 3.75224 -0.385592 0
M  V30 672 H 67.4623 2.94485 0.190491 0
M  V30 673 H 67.5433 2.14887 -1.3877 0
M  V30 674 H 67.1873 4.40916 -2.52103 0
M  V30 675 H 67.1173 5.1852 -0.918947 0
M  V30 676 H 69.6083 3.62931 -1.05307 0
M  V30 677 H 69.9213 7.2233 -2.74698 0
M  V30 678 H 68.2663 6.49858 -2.46393 0
M  V30 679 H 71.4573 4.47137 -1.38514 0
M  V30 680 H 71.6303 6.11034 -2.15735 0
M  V30 681 N 65.0364 0.313813 1.54444 0
M  V30 682 C 66.2824 -0.292108 2.00685 0
M  V30 683 C 66.6154 -1.52548 1.20177 0
M  V30 684 O 65.8904 -1.92452 0.281531 0
M  V30 685 C 66.1734 -0.635968 3.5444 0
M  V30 686 C 66.0264 0.607437 4.4568 0
M  V30 687 C 67.3454 -1.45747 4.15266 0
M  V30 688 H 64.4644 -0.104697 0.729526 0
M  V30 689 H 67.1064 0.428457 1.85106 0
M  V30 690 H 65.2564 -1.24986 3.67846 0
M  V30 691 H 66.9284 1.24581 4.44159 0
M  V30 692 H 65.1714 1.23822 4.15753 0
M  V30 693 H 65.8424 0.322515 5.51057 0
M  V30 694 H 68.3184 -0.938645 4.05375 0
M  V30 695 H 67.1944 -1.66683 5.2298 0
M  V30 696 H 67.4554 -2.45063 3.67963 0
M  V30 697 N 66.5145 -1.57545 0.0417849 0
M  V30 698 C 67.4775 -2.09885 -0.92093 0
M  V30 699 C 68.4775 -1.01648 -1.24596 0
M  V30 700 O 69.6675 -1.27759 -1.1842 0
M  V30 701 C 66.7995 -2.57527 -2.23367 0
M  V30 702 H 67.9925 -2.96236 -0.467382 0
M  V30 703 H 65.5455 -1.5493 -0.206467 0
M  V30 704 H 66.2805 -1.74542 -2.73323 0
M  V30 705 H 66.0655 -3.36613 -2.01083 0
M  V30 706 H 67.5555 -2.98201 -2.92346 0
M  V30 707 N 67.9926 0.231505 -1.5589 0
M  V30 708 C 68.9026 1.308 -1.94752 0
M  V30 709 C 69.9186 1.51826 -0.849989 0
M  V30 710 O 71.0946 1.6515 -1.15271 0
M  V30 711 C 68.1596 2.63968 -2.24771 0
M  V30 712 C 67.2206 2.51331 -3.48039 0
M  V30 713 C 66.4536 3.78148 -3.76616 0
M  V30 714 O 66.6766 4.80722 -3.07022 0
M  V30 715 O 65.6106 3.75857 -4.70123 0
M  V30 716 H 69.4366 1.0083 -2.86474 0
M  V30 717 H 67.0216 0.433547 -1.42971 0
M  V30 718 H 68.9036 3.42633 -2.45318 0
M  V30 719 H 67.5786 2.9364 -1.36225 0
M  V30 720 H 66.4856 1.709 -3.32782 0
M  V30 721 H 67.8186 2.26601 -4.36936 0
M  V30 722 N 69.4707 1.49531 0.497807 0
M  V30 723 C 70.4177 1.66436 1.59899 0
M  V30 724 C 71.3877 0.505793 1.58212 0
M  V30 725 O 72.5727 0.733202 1.7615 0
M  V30 726 C 69.7127 1.7399 2.98029 0
M  V30 727 C 68.8257 3.01172 3.09708 0
M  V30 728 C 67.9607 2.99686 4.38591 0
M  V30 729 C 66.9997 4.21434 4.43914 0
M  V30 730 N 66.1367 4.1784 5.64229 0
M  V30 731 H 70.9767 2.60459 1.44793 0
M  V30 732 H 68.5137 1.29137 0.704423 0
M  V30 733 H 70.4717 1.76352 3.78095 0
M  V30 734 H 69.1017 0.834301 3.11832 0
M  V30 735 H 68.1537 3.08408 2.22685 0
M  V30 736 H 69.4657 3.91165 3.09502 0
M  V30 737 H 68.6197 3.00628 5.2698 0
M  V30 738 H 67.3587 2.07477 4.41367 0
M  V30 739 H 66.3637 4.20733 3.53926 0
M  V30 740 H 67.5887 5.14839 4.42851 0
M  V30 741 H 65.5347 3.28469 5.67841 0
M  V30 742 H 65.4517 5.01571 5.65652 0
M  V30 743 H 66.7197 4.22889 6.54817 0
M  V30 744 N 70.9488 -0.749086 1.3866 0
M  V30 745 C 72.1978 -1.50371 1.3443 0
M  V30 746 C 72.5108 -1.95503 -0.0616397 0
M  V30 747 O 73.7168 -2.70554 -0.226489 0
M  V30 748 C 72.1728 -2.71644 2.36088 0
M  V30 749 C 71.7808 -2.3352 3.82325 0
M  V30 750 C 73.5248 -3.49518 2.40909 0
M  V30 751 C 71.4318 -3.51431 4.75658 0
M  V30 752 H 70.3618 -0.564628 0.499712 0
M  V30 753 H 73.0128 -0.818449 1.64237 0
M  V30 754 H 71.3948 -3.42175 1.9933 0
M  V30 755 H 72.5688 -1.70627 4.28046 0
M  V30 756 H 70.8838 -1.6877 3.80665 0
M  V30 757 H 73.4808 -4.37197 3.07836 0
M  V30 758 H 73.8238 -3.90992 1.42937 0
M  V30 759 H 74.3568 -2.86005 2.76489 0
M  V30 760 H 71.0958 -3.15019 5.74842 0
M  V30 761 H 70.6158 -4.13352 4.34627 0
M  V30 762 H 72.2948 -4.17953 4.93887 0
M  V30 763 N 72.4269 -1.23603 -0.977757 0
M  V30 764 C 73.7039 -0.977897 -1.69401 0
M  V30 765 C 74.0839 0.502738 -2.05026 0
M  V30 766 O 73.4319 1.47459 -1.74551 0
M  V30 767 C 73.6419 -1.89077 -2.93345 0
M  V30 768 C 74.9899 -2.15579 -3.65802 0
M  V30 769 O 76.0139 -1.86648 -3.03383 0
M  V30 770 O 74.8729 -2.64658 -4.78141 0
M  V30 771 H 71.9669 -0.369025 -0.740101 0
M  V30 772 H 74.5129 -1.34657 -1.03274 0
M  V30 773 H 73.2849 -2.89158 -2.63634 0
M  V30 774 H 72.9079 -1.52463 -3.67207 0
M  V30 775 N 73.905 1.17692 -1.04816 0
M  V30 776 C 75.153 1.87488 -0.754497 0
M  V30 777 C 75.474 1.81205 0.720407 0
M  V30 778 O 74.744 1.23544 1.52032 0
M  V30 779 H 73.324 0.694101 -0.276102 0
M  V30 780 H 75.986 1.42793 -1.32651 0
M  V30 781 H 75.082 2.93328 -1.06606 0
M  V30 782 N 75.3831 0.828654 1.34056 0
M  V30 783 C 76.3151 0.212052 2.28217 0
M  V30 784 C 77.3281 -0.601362 1.51286 0
M  V30 785 O 78.5171 -0.430104 1.73241 0
M  V30 786 C 75.6171 -0.72088 3.31144 0
M  V30 787 C 74.7901 0.0509587 4.3737 0
M  V30 788 C 73.8491 -0.803766 5.20025 0
M  V30 789 O 72.8751 -0.246667 5.68665 0
M  V30 790 N 74.0771 -2.1227 5.40298 0
M  V30 791 H 76.8421 1.02105 2.81771 0
M  V30 792 H 74.4031 0.686153 1.46641 0
M  V30 793 H 76.3951 -1.29742 3.8334 0
M  V30 794 H 74.9651 -1.43061 2.77943 0
M  V30 795 H 74.1851 0.808831 3.85813 0
M  V30 796 H 75.4731 0.582065 5.0546 0
M  V30 797 H 74.8711 -2.59898 5.02464 0
M  V30 798 H 73.4281 -2.64796 5.95589 0
M  V30 799 N 76.8612 -1.46375 0.584142 0
M  V30 800 C 78.1072 -2.03248 0.0787103 0
M  V30 801 C 78.4622 -1.44737 -1.26763 0
M  V30 802 O 77.7552 -0.603625 -1.81843 0
M  V30 803 C 77.9492 -3.57373 -0.0439342 0
M  V30 804 C 77.7782 -4.30831 1.28897 0
M  V30 805 C 76.5482 -4.69683 1.8635 0
M  V30 806 C 78.7462 -4.64278 2.21248 0
M  V30 807 N 76.7282 -5.27898 3.13365 0
M  V30 808 C 78.0992 -5.23078 3.32851 0
M  V30 809 C 80.1542 -4.46209 2.20911 0
M  V30 810 C 78.8572 -5.65715 4.44251 0
M  V30 811 C 80.8832 -4.89864 3.31341 0
M  V30 812 C 80.2452 -5.48736 4.41665 0
M  V30 813 H 76.3442 -0.778714 0.0716144 0
M  V30 814 H 78.9282 -1.78509 0.777355 0
M  V30 815 H 77.0992 -3.81823 -0.711749 0
M  V30 816 H 78.8312 -4.00892 -0.553881 0
M  V30 817 H 75.5862 -4.52488 1.39826 0
M  V30 818 H 76.0102 -5.61525 3.78178 0
M  V30 819 H 80.6522 -4.00027 1.36888 0
M  V30 820 H 78.3702 -6.10875 5.29015 0
M  V30 821 H 81.9562 -4.77634 3.322 0
M  V30 822 H 80.8362 -5.81898 5.25704 0
M  V30 823 N 78.3393 -0.321999 -1.54275 0
M  V30 824 C 79.5853 0.281461 -2.00837 0
M  V30 825 C 79.9183 1.51909 -1.20985 0
M  V30 826 O 79.1933 1.923 -0.291733 0
M  V30 827 C 79.4763 0.617162 -3.54772 0
M  V30 828 C 79.3293 -0.631064 -4.45351 0
M  V30 829 C 80.6483 1.43542 -4.16033 0
M  V30 830 H 77.7673 0.100826 -0.730071 0
M  V30 831 H 80.4093 -0.438268 -1.84876 0
M  V30 832 H 78.5593 1.23034 -3.68504 0
M  V30 833 H 80.2313 -1.26934 -4.43492 0
M  V30 834 H 78.4743 -1.26025 -4.15091 0
M  V30 835 H 79.1453 -0.351735 -5.50878 0
M  V30 836 H 81.6213 0.917134 -4.05867 0
M  V30 837 H 80.4973 1.63907 -5.23856 0
M  V30 838 H 80.7583 2.43108 -3.69257 0
M  V30 839 N 79.8174 1.5752 -0.0501392 0
M  V30 840 C 81.0454 1.96963 0.633492 0
M  V30 841 C 81.4604 0.927631 1.6444 0
M  V30 842 O 80.8174 -0.0882665 1.82286 0
M  V30 843 C 80.8684 3.36487 1.32132 0
M  V30 844 O 80.5894 4.36693 0.350894 0
M  V30 845 C 82.0904 3.90682 2.09481 0
M  V30 846 H 79.3104 0.648244 0.173266 0
M  V30 847 H 81.8544 2.0417 -0.116134 0
M  V30 848 H 80.0094 3.30434 2.02218 0
M  V30 849 H 80.4234 5.17702 0.841735 0
M  V30 850 H 81.8974 4.90591 2.5303 0
M  V30 851 H 82.3744 3.26053 2.94255 0
M  V30 852 H 82.9804 4.00069 1.44307 0
M  V30 853 N 81.2955 -0.223234 1.56011 0
M  V30 854 C 82.2455 -1.28008 1.88674 0
M  V30 855 C 83.2295 -1.42369 0.749663 0
M  V30 856 O 84.4215 -1.45212 1.01205 0
M  V30 857 C 81.5505 -2.63084 2.20548 0
M  V30 858 C 80.6365 -2.52632 3.40643 0
M  V30 859 N 81.0275 -2.11829 4.59306 0
M  V30 860 C 79.3255 -2.83594 3.44224 0
M  V30 861 C 80.0265 -2.12587 5.41463 0
M  V30 862 N 79.0025 -2.5301 4.81131 0
M  V30 863 H 82.8045 -0.955487 2.77935 0
M  V30 864 H 80.3185 -0.431801 1.56554 0
M  V30 865 H 82.3155 -3.39385 2.42122 0
M  V30 866 H 80.9755 -2.96391 1.32599 0
M  V30 867 H 81.9865 -1.82988 4.84496 0
M  V30 868 H 78.6635 -3.21284 2.66614 0
M  V30 869 H 80.0535 -1.83179 6.46448 0
M  V30 870 N 82.7736 -1.49793 -0.48987 0
M  V30 871 C 83.7056 -1.63413 -1.60713 0
M  V30 872 C 84.7186 -0.516329 -1.54395 0
M  V30 873 O 85.9076 -0.788812 -1.60125 0
M  V30 874 C 83.0076 -1.58516 -2.99543 0
M  V30 875 C 82.1806 -2.86016 -3.30928 0
M  V30 876 C 81.2396 -2.74018 -4.49222 0
M  V30 877 O 80.2656 -3.47964 -4.50455 0
M  V30 878 N 81.4676 -1.86309 -5.4979 0
M  V30 879 H 84.2326 -2.59777 -1.49452 0
M  V30 880 H 81.7936 -1.47022 -0.677955 0
M  V30 881 H 83.7856 -1.48128 -3.76617 0
M  V30 882 H 82.3556 -0.69965 -3.0467 0
M  V30 883 H 81.5756 -3.10672 -2.42645 0
M  V30 884 H 82.8636 -3.70521 -3.487 0
M  V30 885 H 82.2616 -1.2551 -5.51601 0
M  V30 886 H 80.8186 -1.81837 -6.25922 0
M  V30 887 N 84.2517 0.741722 -1.39055 0
M  V30 888 C 85.4977 1.50234 -1.37118 0
M  V30 889 C 85.8527 1.92368 0.0350439 0
M  V30 890 O 85.1457 1.63422 1.00019 0
M  V30 891 C 85.3397 2.7592 -2.27163 0
M  V30 892 C 85.1687 2.46074 -3.76401 0
M  V30 893 C 83.9387 2.38704 -4.45364 0
M  V30 894 C 86.1367 2.12062 -4.68545 0
M  V30 895 N 84.1187 2.01258 -5.79973 0
M  V30 896 C 85.4897 1.85005 -5.91754 0
M  V30 897 C 87.5447 1.98473 -4.56632 0
M  V30 898 C 86.2477 1.4573 -7.04383 0
M  V30 899 C 88.2737 1.60599 -5.69176 0
M  V30 900 C 87.6357 1.34423 -6.91455 0
M  V30 901 H 83.7347 0.548858 -0.557027 0
M  V30 902 H 86.3187 0.862642 -1.74547 0
M  V30 903 H 84.4897 3.3768 -1.91904 0
M  V30 904 H 86.2217 3.42068 -2.16267 0
M  V30 905 H 82.9767 2.55574 -3.98721 0
M  V30 906 H 83.4007 1.85147 -6.51191 0
M  V30 907 H 88.0427 2.17381 -3.62637 0
M  V30 908 H 85.7607 1.25562 -7.98286 0
M  V30 909 H 89.3467 1.507 -5.61944 0
M  V30 910 H 88.2267 1.05555 -7.77064 0
M  V30 911 N 85.7298 1.2412 0.971189 0
M  V30 912 C 86.6598 1.05508 2.08304 0
M  V30 913 C 87.6408 -0.0308864 1.70072 0
M  V30 914 O 88.8258 0.135521 1.93727 0
M  V30 915 C 85.9558 0.655365 3.4106 0
M  V30 916 C 84.9098 1.68971 3.93234 0
M  V30 917 C 84.2358 1.14516 5.22293 0
M  V30 918 C 85.5358 3.08487 4.21465 0
M  V30 919 H 87.2298 1.98507 2.24132 0
M  V30 920 H 84.7758 0.955821 1.07704 0
M  V30 921 H 86.7288 0.51217 4.18276 0
M  V30 922 H 85.4528 -0.31032 3.25122 0
M  V30 923 H 84.1118 1.82106 3.18171 0
M  V30 924 H 83.7598 0.170189 5.02712 0
M  V30 925 H 83.4598 1.83635 5.58168 0
M  V30 926 H 84.9838 1.01401 6.02121 0
M  V30 927 H 86.3978 2.98601 4.89398 0
M  V30 928 H 84.7948 3.74926 4.68562 0
M  V30 929 H 85.8648 3.56787 3.28376 0
M  V30 930 N 87.2079 -1.17134 1.05439 0
M  V30 931 C 88.1549 -2.21235 0.657539 0
M  V30 932 C 89.1249 -1.62551 -0.341543 0
M  V30 933 O 90.3099 -1.89379 -0.232393 0
M  V30 934 C 87.4499 -3.45076 0.0410575 0
M  V30 935 C 86.5629 -4.18042 1.08927 0
M  V30 936 C 85.6979 -5.29376 0.439848 0
M  V30 937 C 84.7369 -5.94132 1.4722 0
M  V30 938 N 83.8739 -6.96975 0.846756 0
M  V30 939 H 88.7139 -2.54534 1.54972 0
M  V30 940 H 86.2509 -1.25028 0.775006 0
M  V30 941 H 88.2089 -4.15862 -0.33383 0
M  V30 942 H 86.8389 -3.12353 -0.814568 0
M  V30 943 H 85.8909 -3.45945 1.58196 0
M  V30 944 H 87.2029 -4.62306 1.87282 0
M  V30 945 H 86.3569 -6.06699 0.0115125 0
M  V30 946 H 85.0959 -4.86251 -0.375656 0
M  V30 947 H 84.1009 -5.15538 1.91052 0
M  V30 948 H 85.3259 -6.39337 2.28965 0
M  V30 949 H 83.2719 -6.5598 0.0518075 0
M  V30 950 H 83.1889 -7.39565 1.5678 0
M  V30 951 H 84.4569 -7.78239 0.443277 0
M  V30 952 N 88.686 -0.835752 -1.33615 0
M  V30 953 C 89.633 -0.26473 -2.29277 0
M  V30 954 C 90.603 0.617712 -1.54187 0
M  V30 955 O 91.788 0.556641 -1.825 0
M  V30 956 C 88.928 0.556777 -3.40579 0
M  V30 957 C 88.041 -0.349339 -4.30585 0
M  V30 958 C 87.176 0.482969 -5.29 0
M  V30 959 C 86.215 -0.421732 -6.10645 0
M  V30 960 N 85.352 0.372262 -7.01112 0
M  V30 961 H 90.192 -1.08582 -2.77514 0
M  V30 962 H 87.729 -0.546927 -1.36554 0
M  V30 963 H 89.687 1.04852 -4.03809 0
M  V30 964 H 88.317 1.34286 -2.93542 0
M  V30 965 H 87.369 -0.959372 -3.68104 0
M  V30 966 H 88.681 -1.04445 -4.87742 0
M  V30 967 H 87.835 1.03866 -5.97743 0
M  V30 968 H 86.574 1.21153 -4.72412 0
M  V30 969 H 85.579 -0.989464 -5.40823 0
M  V30 970 H 86.804 -1.14861 -6.69316 0
M  V30 971 H 84.75 1.08426 -6.46977 0
M  V30 972 H 84.667 -0.264198 -7.55538 0
M  V30 973 H 85.935 0.910293 -7.74167 0
M  V30 974 N 90.1641 1.46063 -0.591896 0
M  V30 975 C 91.1271 2.28854 0.125973 0
M  V30 976 C 92.1271 1.38903 0.810107 0
M  V30 977 O 93.3171 1.61186 0.66066 0
M  V30 978 C 90.4491 3.19526 1.1881 0
M  V30 979 H 91.6421 2.93802 -0.601717 0
M  V30 980 H 89.1951 1.52325 -0.350254 0
M  V30 981 H 89.9301 2.59345 1.94707 0
M  V30 982 H 89.7151 3.85766 0.701936 0
M  V30 983 H 91.2051 3.81817 1.69132 0
M  V30 984 N 91.6422 0.330177 1.54103 0
M  V30 985 C 92.8882 -0.270806 2.00984 0
M  V30 986 C 93.2212 -1.51265 1.21789 0
M  V30 987 O 92.4962 -1.92142 0.301927 0
M  V30 988 C 92.7792 -0.598339 3.55094 0
M  V30 989 C 92.6322 0.654674 4.4501 0
M  V30 990 C 93.9512 -1.41334 4.16789 0
M  V30 991 H 91.0702 -0.0969531 0.730595 0
M  V30 992 H 93.7122 0.448066 1.84641 0
M  V30 993 H 91.8622 -1.21078 3.69151 0
M  V30 994 H 93.5342 1.29285 4.42813 0
M  V30 995 H 91.7772 1.28224 4.14416 0
M  V30 996 H 92.4482 0.380944 5.50684 0
M  V30 997 H 94.9242 -0.895597 4.06347 0
M  V30 998 H 93.8002 -1.61127 5.24718 0
M  V30 999 H 94.0612 -2.41146 3.70541 0
M  V30 1000 N 93.1203 -1.57491 0.0584922 0
M  V30 1001 C 94.0503 -2.14988 -0.911178 0
M  V30 1002 C 95.0313 -1.07343 -1.31952 0
M  V30 1003 O 96.2163 -1.35318 -1.39294 0
M  V30 1004 C 93.3463 -2.70078 -2.18347 0
M  V30 1005 C 92.3003 -3.82771 -1.91495 0
M  V30 1006 C 91.6263 -4.24408 -3.25241 0
M  V30 1007 C 92.9263 -5.07592 -1.23075 0
M  V30 1008 H 94.6203 -2.96263 -0.432246 0
M  V30 1009 H 92.1663 -1.42512 -0.206469 0
M  V30 1010 H 94.1193 -3.08943 -2.86587 0
M  V30 1011 H 92.8433 -1.86005 -2.68458 0
M  V30 1012 H 91.5023 -3.44389 -1.25664 0
M  V30 1013 H 91.1503 -3.37275 -3.73168 0
M  V30 1014 H 90.8503 -5.00366 -3.08071 0
M  V30 1015 H 92.3743 -4.65879 -3.94701 0
M  V30 1016 H 93.7883 -5.43857 -1.81362 0
M  V30 1017 H 92.1853 -5.88741 -1.16207 0
M  V30 1018 H 93.2553 -4.84454 -0.207847 0
M  V30 1019 N 94.5984 0.214957 -1.56127 0
M  V30 1020 C 95.5284 1.2695 -1.95974 0
M  V30 1021 C 96.5094 1.48539 -0.828868 0
M  V30 1022 O 97.6944 1.60611 -1.09168 0
M  V30 1023 C 94.8244 2.61794 -2.28214 0
M  V30 1024 C 93.7784 2.54851 -3.43853 0
M  V30 1025 C 93.1044 3.93785 -3.61715 0
M  V30 1026 C 94.4044 2.09065 -4.78632 0
M  V30 1027 H 96.0984 0.93846 -2.84312 0
M  V30 1028 H 93.6444 0.449996 -1.36788 0
M  V30 1029 H 95.5974 3.35731 -2.54682 0
M  V30 1030 H 94.3214 2.96599 -1.36736 0
M  V30 1031 H 92.9804 1.8337 -3.17444 0
M  V30 1032 H 92.6284 4.25908 -2.67602 0
M  V30 1033 H 92.3284 3.90019 -4.39498 0
M  V30 1034 H 93.8524 4.69374 -3.90539 0
M  V30 1035 H 95.2664 2.7275 -5.04262 0
M  V30 1036 H 93.6634 2.16346 -5.59745 0
M  V30 1037 H 94.7334 1.04315 -4.73547 0
M  V30 1038 N 96.0765 1.50051 0.48192 0
M  V30 1039 C 97.3015 1.64508 1.26301 0
M  V30 1040 C 97.7265 0.323851 1.85291 0
M  V30 1041 O 97.0845 -0.710969 1.66778 0
M  V30 1042 C 97.1325 2.7305 2.35533 0
M  V30 1043 O 96.2365 2.3355 3.39895 0
M  V30 1044 H 95.5775 0.549978 0.372048 0
M  V30 1045 H 98.1075 1.9636 0.574786 0
M  V30 1046 H 98.1175 2.95799 2.8101 0
M  V30 1047 H 96.7925 3.68946 1.91967 0
M  V30 1048 H 95.3695 2.21205 3.00204 0
M  V30 1049 N 97.5546 -0.734337 1.39446 0
M  V30 1050 C 98.8016 -1.49391 1.36706 0
M  V30 1051 C 99.1296 -1.94465 -0.0367813 0
M  V30 1052 O 98.3846 -1.67154 -1.01774 0
M  V30 1053 C 98.6836 -2.74711 2.28623 0
M  V30 1054 C 98.3496 -2.48501 3.76242 0
M  V30 1055 C 97.0116 -2.41062 4.16464 0
M  V30 1056 C 99.3636 -2.26098 4.69606 0
M  V30 1057 C 96.6916 -2.09262 5.48112 0
M  V30 1058 C 99.0436 -1.95814 6.01531 0
M  V30 1059 C 97.7076 -1.86845 6.40816 0
M  V30 1060 H 96.9776 -0.546661 0.500243 0
M  V30 1061 H 99.6246 -0.842788 1.71957 0
M  V30 1062 H 97.9296 -3.44569 1.86492 0
M  V30 1063 H 99.6266 -3.32741 2.23796 0
M  V30 1064 H 96.2166 -2.55169 3.44364 0
M  V30 1065 H 100.401 -2.30812 4.39363 0
M  V30 1066 H 95.6566 -2.00841 5.77471 0
M  V30 1067 H 99.8306 -1.77488 6.73403 0
M  V30 1068 H 97.4576 -1.6197 7.42745 0
M  V30 1069 N 99.0327 -1.24633 -0.964593 0
M  V30 1070 C 100.449 -1.01239 -1.2338 0
M  V30 1071 C 100.649 0.2769 -1.99588 0
M  V30 1072 O 99.7047 0.992241 -2.32187 0
M  V30 1073 C 101.018 -2.22937 -2.01791 0
M  V30 1074 C 102.566 -2.27594 -2.14872 0
M  V30 1075 C 103.041 -3.48921 -2.96678 0
M  V30 1076 N 104.532 -3.49257 -3.04259 0
M  V30 1077 C 105.267 -4.39795 -3.67924 0
M  V30 1078 N 104.763 -5.40591 -4.33281 0
M  V30 1079 N 106.556 -4.275 -3.64966 0
M  V30 1080 H 98.7067 -2.0748 -0.454502 0
M  V30 1081 H 100.97 -0.910647 -0.26349 0
M  V30 1082 H 100.676 -3.16587 -1.53184 0
M  V30 1083 H 100.55 -2.25306 -3.02518 0
M  V30 1084 H 102.937 -1.34473 -2.6268 0
M  V30 1085 H 103.018 -2.2925 -1.13482 0
M  V30 1086 H 102.662 -4.42359 -2.49562 0
M  V30 1087 H 102.592 -3.4451 -3.98272 0
M  V30 1088 H 105.083 -2.76337 -2.57771 0
M  V30 1089 H 105.396 -6.05904 -4.79687 0
M  V30 1090 H 103.741 -5.44475 -4.3194 0
M  V30 1091 H 106.932 -3.47987 -3.13086 0
M  V30 1092 H 107.105 -4.98258 -4.14298 0
M  V30 1093 N 100.511 1.16574 -1.06058 0
M  V30 1094 C 101.76 1.86385 -0.770944 0
M  V30 1095 C 102.073 1.82448 0.705129 0
M  V30 1096 O 103.279 2.47815 1.10905 0
M  V30 1097 C 101.735 3.34466 -1.32893 0
M  V30 1098 C 101.343 3.46883 -2.83507 0
M  V30 1099 C 103.087 4.09548 -1.11672 0
M  V30 1100 C 100.994 4.89036 -3.32562 0
M  V30 1101 H 99.9238 0.698181 -0.284709 0
M  V30 1102 H 102.575 1.31583 -1.27899 0
M  V30 1103 H 100.957 3.88859 -0.748662 0
M  V30 1104 H 102.131 3.02663 -3.47465 0
M  V30 1105 H 100.446 2.85232 -3.03368 0
M  V30 1106 H 103.043 5.14434 -1.45814 0
M  V30 1107 H 103.386 4.16264 -0.0549535 0
M  V30 1108 H 103.919 3.61387 -1.66265 0
M  V30 1109 H 100.658 4.87499 -4.38207 0
M  V30 1110 H 100.178 5.3389 -2.73351 0
M  V30 1111 H 101.857 5.57843 -3.2775 0
M  V30 1112 N 101.989 0.842826 1.3317 0
M  V30 1113 C 102.937 0.267495 2.31057 0
M  V30 1114 C 103.931 -0.602682 1.58316 0
M  V30 1115 O 105.137 -0.491803 1.73151 0
M  V30 1116 H 101.512 0.0677813 0.748939 0
M  V30 1117 H 103.483 1.10754 2.77085 0
M  V30 1118 C 102.232 -0.539331 3.43492 0
M  V30 1119 H 101.555 0.12095 3.99617 0
M  V30 1120 H 102.995 -0.90767 4.14171 0
M  V30 1121 C 101.454 -1.71981 2.89697 0
M  V30 1122 O 101.984 -2.81862 2.86211 0
M  V30 1123 N 100.19 -1.54299 2.46252 0
M  V30 1124 H 99.7369 -0.649143 2.49287 0
M  V30 1125 H 99.6949 -2.33431 2.10612 0
M  V30 1126 N 103.467 -1.45747 0.599634 0
M  V30 1127 C 104.744 -1.95585 0.0240846 0
M  V30 1128 C 105.124 -1.54217 -1.44154 0
M  V30 1129 O 104.472 -0.800903 -2.14004 0
M  V30 1130 C 104.682 -3.48344 0.21385 0
M  V30 1131 C 106.03 -4.24504 0.0904902 0
M  V30 1132 O 107.054 -3.55911 0.143558 0
M  V30 1133 O 105.913 -5.46491 -0.0310766 0
M  V30 1134 H 103.007 -0.82602 -0.0402478 0
M  V30 1135 H 105.553 -1.55951 0.669139 0
M  V30 1136 H 104.325 -3.71397 1.23206 0
M  V30 1137 H 103.948 -3.9485 -0.466842 0
M  V30 1138 N 104.945 -0.338344 -1.53925 0
M  V30 1139 C 105.893 0.536231 -2.26335 0
M  V30 1140 C 106.887 1.1063 -1.28286 0
M  V30 1141 O 108.093 1.05264 -1.46012 0
M  V30 1142 H 104.468 0.191602 -0.727181 0
M  V30 1143 H 106.439 -0.0965747 -2.98244 0
M  V30 1144 C 105.188 1.67803 -3.04528 0
M  V30 1145 H 104.511 1.24864 -3.79801 0
M  V30 1146 H 105.951 2.26526 -3.58416 0
M  V30 1147 C 104.41 2.60439 -2.13712 0
M  V30 1148 O 104.94 3.6255 -1.72975 0
M  V30 1149 N 103.146 2.29006 -1.78898 0
M  V30 1150 H 102.693 1.46011 -2.12223 0
M  V30 1151 H 102.651 2.91248 -1.18416 0
M  V30 1152 N 106.423 1.57458 -0.0668435 0
M  V30 1153 C 107.37 2.12439 0.902122 0
M  V30 1154 C 108.34 1.03565 1.2986 0
M  V30 1155 O 109.525 1.312 1.38532 0
M  V30 1156 C 106.665 2.6865 2.16614 0
M  V30 1157 C 105.778 3.91663 1.82274 0
M  V30 1158 C 104.913 4.36134 3.0325 0
M  V30 1159 C 103.952 5.51808 2.64904 0
M  V30 1160 N 103.089 5.9126 3.78624 0
M  V30 1161 H 107.929 2.94934 0.426382 0
M  V30 1162 H 105.466 1.4575 0.198819 0
M  V30 1163 H 107.424 2.99346 2.90599 0
M  V30 1164 H 106.054 1.88928 2.61737 0
M  V30 1165 H 105.106 3.6746 0.983719 0
M  V30 1166 H 106.418 4.75693 1.50059 0
M  V30 1167 H 105.572 4.68465 3.85519 0
M  V30 1168 H 104.311 3.50948 3.38655 0
M  V30 1169 H 103.316 5.19133 1.81055 0
M  V30 1170 H 104.541 6.38722 2.30675 0
M  V30 1171 H 102.487 5.09024 4.138 0
M  V30 1172 H 102.404 6.70018 3.5016 0
M  V30 1173 H 103.672 6.28212 4.61486 0
M  V30 1174 N 107.901 -0.206675 1.56239 0
M  V30 1175 C 109.147 -0.930218 1.80208 0
M  V30 1176 C 109.48 -1.83387 0.638981 0
M  V30 1177 O 108.755 -1.91119 -0.361066 0
M  V30 1178 C 109.038 -1.75641 3.1436 0
M  V30 1179 C 108.891 -0.878257 4.41142 0
M  V30 1180 C 110.21 -2.73129 3.45092 0
M  V30 1181 H 107.329 -0.336742 0.655571 0
M  V30 1182 H 109.971 -0.198222 1.88963 0
M  V30 1183 H 108.121 -2.38048 3.07027 0
M  V30 1184 H 109.793 -0.269787 4.6051 0
M  V30 1185 H 108.036 -0.184385 4.33408 0
M  V30 1186 H 108.707 -1.49106 5.3148 0
M  V30 1187 H 111.183 -2.20856 3.52649 0
M  V30 1188 H 110.059 -3.28028 4.40101 0
M  V30 1189 H 110.32 -3.51606 2.68003 0
M  V30 1190 N 109.379 -1.50304 -0.473955 0
M  V30 1191 C 110.312 -1.63595 -1.59097 0
M  V30 1192 C 111.29 -0.484142 -1.55225 0
M  V30 1193 O 112.474 -0.703271 -1.7489 0
M  V30 1194 C 109.601 -1.61589 -2.97669 0
M  V30 1195 C 108.647 -2.82295 -3.19705 0
M  V30 1196 S 109.48 -4.43635 -2.99913 0
M  V30 1197 C 110.636 -4.44317 -4.40832 0
M  V30 1198 H 110.869 -2.58082 -1.47583 0
M  V30 1199 H 108.402 -1.39531 -0.661087 0
M  V30 1200 H 110.36 -1.61116 -3.7756 0
M  V30 1201 H 109.021 -0.683421 -3.06575 0
M  V30 1202 H 108.214 -2.77188 -4.20931 0
M  V30 1203 H 107.816 -2.8032 -2.47582 0
M  V30 1204 H 110.108 -4.17703 -5.33414 0
M  V30 1205 H 111.051 -5.45911 -4.50984 0
M  V30 1206 H 111.459 -3.74059 -4.22777 0
M  V30 1207 N 110.857 0.726932 -1.39834 0
M  V30 1208 C 112.134 1.47902 -1.28001 0
M  V30 1209 C 112.514 2.1083 0.106789 0
M  V30 1210 O 111.862 1.99242 1.11869 0
M  V30 1211 C 112.072 2.52392 -2.41038 0
M  V30 1212 C 113.42 3.18546 -2.80737 0
M  V30 1213 O 114.444 2.62708 -2.40547 0
M  V30 1214 O 113.303 4.19604 -3.50135 0
M  V30 1215 H 110.397 0.657163 -0.502062 0
M  V30 1216 H 112.943 0.760071 -1.51727 0
M  V30 1217 H 111.715 2.04329 -3.33715 0
M  V30 1218 H 111.338 3.31837 -2.19021 0
M  V30 1219 N 112.336 1.25143 0.95797 0
M  V30 1220 C 113.584 1.09476 1.69881 0
M  V30 1221 C 113.905 -0.365502 1.91544 0
M  V30 1222 O 113.175 -1.25985 1.50015 0
M  V30 1223 H 111.755 0.402128 0.629525 0
M  V30 1224 H 114.417 1.57214 1.15194 0
M  V30 1225 H 113.513 1.60046 2.6794 0
M  V30 1226 N 113.814 -1.1601 1.06675 0
M  V30 1227 C 114.777 -2.18724 0.685001 0
M  V30 1228 C 115.777 -1.58496 -0.271246 0
M  V30 1229 O 116.967 -1.74119 -0.0531156 0
M  V30 1230 C 114.099 -3.40899 0.00853648 0
M  V30 1231 H 115.292 -2.54011 1.59431 0
M  V30 1232 H 112.845 -1.30352 0.862441 0
M  V30 1233 H 113.58 -3.11173 -0.913337 0
M  V30 1234 H 113.365 -3.8587 0.696204 0
M  V30 1235 H 114.855 -4.16886 -0.24414 0
M  V30 1236 N 115.292 -0.849877 -1.32721 0
M  V30 1237 C 116.202 -0.293791 -2.32753 0
M  V30 1238 C 117.218 0.585906 -1.63839 0
M  V30 1239 O 118.394 0.487413 -1.95413 0
M  V30 1240 C 115.459 0.512752 -3.42887 0
M  V30 1241 C 114.52 -0.39252 -4.27502 0
M  V30 1242 C 113.753 0.375625 -5.32377 0
M  V30 1243 O 113.976 1.60613 -5.4732 0
M  V30 1244 O 112.91 -0.256094 -6.01355 0
M  V30 1245 H 116.736 -1.12242 -2.82197 0
M  V30 1246 H 114.321 -0.612685 -1.36259 0
M  V30 1247 H 116.203 0.970704 -4.10067 0
M  V30 1248 H 114.878 1.31826 -2.95641 0
M  V30 1249 H 113.785 -0.898547 -3.63149 0
M  V30 1250 H 115.118 -1.16309 -4.7826 0
M  V30 1251 N 116.77 1.45427 -0.607355 0
M  V30 1252 C 117.998 2.06614 -0.108814 0
M  V30 1253 C 118.413 1.45204 1.2067 0
M  V30 1254 O 117.77 0.566132 1.73497 0
M  V30 1255 C 117.821 3.61481 0.0375347 0
M  V30 1256 O 117.542 4.20598 -1.22593 0
M  V30 1257 C 119.043 4.39652 0.567561 0
M  V30 1258 H 116.263 0.66747 -0.0687351 0
M  V30 1259 H 118.807 1.86675 -0.835022 0
M  V30 1260 H 116.962 3.80762 0.714068 0
M  V30 1261 H 117.376 5.1377 -1.05547 0
M  V30 1262 H 118.85 5.48518 0.61905 0
M  V30 1263 H 119.327 4.09417 1.58978 0
M  V30 1264 H 119.933 4.25234 -0.0749202 0
M  V30 1265 N 118.248 0.346503 1.53744 0
M  V30 1266 C 119.664 -0.00530975 1.59599 0
M  V30 1267 C 119.864 -1.48465 1.36236 0
M  V30 1268 O 118.92 -2.24376 1.15808 0
M  V30 1269 C 120.233 0.433516 2.97559 0
M  V30 1270 C 121.781 0.386111 3.10609 0
M  V30 1271 C 122.256 0.800451 4.50951 0
M  V30 1272 N 123.747 0.754753 4.5701 0
M  V30 1273 C 124.482 1.04727 5.63755 0
M  V30 1274 N 123.978 1.4081 6.7834 0
M  V30 1275 N 125.771 0.971316 5.53644 0
M  V30 1276 H 117.922 1.31009 1.67184 0
M  V30 1277 H 120.185 0.534242 0.783128 0
M  V30 1278 H 119.891 1.46509 3.19731 0
M  V30 1279 H 119.765 -0.189753 3.76722 0
M  V30 1280 H 122.152 -0.636295 2.88158 0
M  V30 1281 H 122.233 1.04462 2.33498 0
M  V30 1282 H 121.877 1.82088 4.74137 0
M  V30 1283 H 121.807 0.119386 5.26465 0
M  V30 1284 H 124.298 0.488662 3.74727 0
M  V30 1285 H 124.611 1.61607 7.55714 0
M  V30 1286 H 122.956 1.44657 6.79779 0
M  V30 1287 H 126.147 0.688748 4.63005 0
M  V30 1288 H 126.32 1.20263 6.36742 0
M  V30 1289 N 119.726 -1.57421 0.075193 0
M  V30 1290 C 120.956 -1.97659 -0.601203 0
M  V30 1291 C 121.364 -0.952427 -1.63479 0
M  V30 1292 O 120.707 0.0688241 -1.83571 0
M  V30 1293 C 120.769 -3.34218 -1.32434 0
M  V30 1294 C 120.433 -4.5484 -0.443826 0
M  V30 1295 C 121.43 -5.19034 0.299969 0
M  V30 1296 C 119.115 -5.00952 -0.367709 0
M  V30 1297 C 121.109 -6.27695 1.10807 0
M  V30 1298 C 118.796 -6.09484 0.444058 0
M  V30 1299 C 119.794 -6.72719 1.18061 0
M  V30 1300 O 119.482 -7.79161 1.97898 0
M  V30 1301 H 119.214 -0.65494 -0.167422 0
M  V30 1302 H 121.768 -2.04886 0.145157 0
M  V30 1303 H 119.998 -3.23615 -2.11685 0
M  V30 1304 H 121.687 -3.59038 -1.89331 0
M  V30 1305 H 122.453 -4.84351 0.250776 0
M  V30 1306 H 118.332 -4.51509 -0.930638 0
M  V30 1307 H 121.876 -6.76982 1.68347 0
M  V30 1308 H 117.773 -6.43601 0.494803 0
M  V30 1309 H 118.541 -7.96055 1.90367 0
M  V30 1310 N 121.204 0.198386 -1.56346 0
M  V30 1311 C 122.434 0.934215 -1.84271 0
M  V30 1312 C 122.842 1.77496 -0.655125 0
M  V30 1313 O 122.185 1.7961 0.385488 0
M  V30 1314 C 122.247 1.88278 -3.06254 0
M  V30 1315 C 121.911 1.22431 -4.40295 0
M  V30 1316 C 122.908 0.602839 -5.16393 0
M  V30 1317 C 120.593 1.22915 -4.87029 0
M  V30 1318 C 122.587 -0.0050083 -6.374 0
M  V30 1319 C 120.274 0.617465 -6.07973 0
M  V30 1320 C 121.272 0.00146341 -6.83 0
M  V30 1321 O 120.96 -0.600642 -8.01653 0
M  V30 1322 H 120.692 0.278245 -0.616081 0
M  V30 1323 H 123.246 0.211626 -2.04307 0
M  V30 1324 H 121.476 2.64498 -2.82095 0
M  V30 1325 H 123.165 2.48612 -3.20853 0
M  V30 1326 H 123.931 0.591265 -4.81382 0
M  V30 1327 H 119.81 1.69801 -4.28589 0
M  V30 1328 H 123.354 -0.48643 -6.95902 0
M  V30 1329 H 119.251 0.62653 -6.42452 0
M  V30 1330 H 120.019 -0.497225 -8.16988 0
M  V30 1331 N 122.682 1.50554 0.465978 0
M  V30 1332 C 123.959 1.5232 1.22712 0
M  V30 1333 C 124.339 0.270807 2.09356 0
M  V30 1334 O 123.687 -0.745541 2.15995 0
M  V30 1335 C 123.897 2.82175 2.05374 0
M  V30 1336 C 125.245 3.33033 2.6339 0
M  V30 1337 O 126.269 2.83531 2.15612 0
M  V30 1338 O 125.128 4.19336 3.50456 0
M  V30 1339 H 122.222 0.611183 0.557122 0
M  V30 1340 H 124.768 1.62847 0.477381 0
M  V30 1341 H 123.54 3.64797 1.41558 0
M  V30 1342 H 123.163 2.74675 2.87471 0
M  V30 1343 N 124.16 -0.719506 1.40217 0
M  V30 1344 C 125.107 -1.83359 1.40172 0
M  V30 1345 C 126.077 -1.64065 0.259206 0
M  V30 1346 O 127.262 -1.85254 0.456677 0
M  V30 1347 C 124.402 -3.2103 1.26624 0
M  V30 1348 C 123.515 -3.51923 2.50548 0
M  V30 1349 C 122.65 -4.79079 2.29471 0
M  V30 1350 C 121.689 -5.02863 3.48992 0
M  V30 1351 N 120.826 -6.2123 3.27135 0
M  V30 1352 H 125.666 -1.82733 2.35399 0
M  V30 1353 H 123.203 -0.892688 1.16917 0
M  V30 1354 H 125.161 -4.00524 1.16776 0
M  V30 1355 H 123.791 -3.20895 0.350176 0
M  V30 1356 H 122.843 -2.67014 2.70939 0
M  V30 1357 H 124.155 -3.6541 3.39525 0
M  V30 1358 H 123.309 -5.66582 2.16955 0
M  V30 1359 H 122.048 -4.67794 1.37913 0
M  V30 1360 H 121.053 -4.13816 3.6199 0
M  V30 1361 H 122.278 -5.16023 4.41472 0
M  V30 1362 H 120.224 -6.11204 2.38256 0
M  V30 1363 H 120.141 -6.35375 4.09675 0
M  V30 1364 H 121.409 -7.11532 3.18344 0
M  V30 1365 N 125.638 -1.25649 -0.95132 0
M  V30 1366 C 126.884 -1.10757 -1.69884 0
M  V30 1367 C 127.217 0.350061 -1.91019 0
M  V30 1368 O 126.492 1.25783 -1.48354 0
M  V30 1369 C 126.775 -1.86606 -3.07978 0
M  V30 1370 C 126.628 -3.40217 -2.94232 0
M  V30 1371 C 127.947 -1.65182 -4.07925 0
M  V30 1372 H 125.066 -0.40374 -0.616574 0
M  V30 1373 H 127.708 -1.54521 -1.10558 0
M  V30 1374 H 125.858 -1.49409 -3.58621 0
M  V30 1375 H 127.53 -3.87108 -2.50889 0
M  V30 1376 H 125.773 -3.67759 -2.30078 0
M  V30 1377 H 126.444 -3.88505 -3.92133 0
M  V30 1378 H 128.92 -1.9757 -3.66204 0
M  V30 1379 H 127.796 -2.20683 -5.02583 0
M  V30 1380 H 128.057 -0.593933 -4.38092 0
M  V30 1381 N 127.117 1.15442 -1.07289 0
M  V30 1382 C 128.528 1.67803 -0.818475 0
M  V30 1383 C 128.879 1.8489 0.656507 0
M  V30 1384 O 128.004 1.55176 1.50829 0
M  V30 1385 C 128.599 3.04805 -1.47917 0
M  V30 1386 C 127.158 3.54245 -1.27229 0
M  V30 1387 C 126.305 2.29986 -1.54925 0
M  V30 1388 H 129.256 0.996646 -1.23502 0
M  V30 1389 H 129.277 3.69702 -0.90005 0
M  V30 1390 H 128.789 2.92336 -2.55267 0
M  V30 1391 H 126.89 3.71956 -0.21899 0
M  V30 1392 H 127.003 4.35723 -1.99203 0
M  V30 1393 H 125.367 2.35496 -0.970242 0
M  V30 1394 H 126.15 2.20105 -2.63455 0
M  V30 1395 N 128.595 0.856903 1.32268 0
M  V30 1396 C 129.528 0.247937 2.26849 0
M  V30 1397 C 130.506 -0.615382 1.50505 0
M  V30 1398 O 131.69 -0.571689 1.79622 0
M  V30 1399 C 128.817 -0.650093 3.32403 0
M  V30 1400 C 127.863 0.140138 4.2627 0
M  V30 1401 S 128.696 1.51004 5.13769 0
M  V30 1402 C 129.852 0.61778 6.22844 0
M  V30 1403 H 130.085 1.04971 2.78152 0
M  V30 1404 H 127.618 0.654665 1.39834 0
M  V30 1405 H 129.576 -1.16256 3.93694 0
M  V30 1406 H 128.237 -1.4257 2.7988 0
M  V30 1407 H 127.43 -0.543945 5.01056 0
M  V30 1408 H 127.032 0.584267 3.69408 0
M  V30 1409 H 129.324 -0.177053 6.77269 0
M  V30 1410 H 130.267 1.33636 6.95375 0
M  V30 1411 H 130.675 0.191124 5.64176 0
M  V30 1412 N 130.073 -1.45103 0.615059 0
M  V30 1413 C 131.02 -2.30586 -0.0993978 0
M  V30 1414 C 131.99 -1.42544 -0.852669 0
M  V30 1415 O 133.175 -1.71465 -0.836917 0
M  V30 1416 C 130.315 -3.27572 -1.08583 0
M  V30 1417 C 129.428 -4.30717 -0.332656 0
M  V30 1418 C 128.563 -5.14807 -1.30947 0
M  V30 1419 C 127.602 -6.09673 -0.544538 0
M  V30 1420 N 126.739 -6.86517 -1.47101 0
M  V30 1421 H 131.579 -2.91144 0.635542 0
M  V30 1422 H 129.116 -1.4346 0.325206 0
M  V30 1423 H 131.074 -3.82276 -1.67095 0
M  V30 1424 H 129.704 -2.68751 -1.78809 0
M  V30 1425 H 128.756 -3.78615 0.368107 0
M  V30 1426 H 130.068 -4.98102 0.263842 0
M  V30 1427 H 129.222 -5.73948 -1.96643 0
M  V30 1428 H 127.961 -4.47458 -1.9399 0
M  V30 1429 H 126.966 -5.49656 0.126003 0
M  V30 1430 H 128.191 -6.79052 0.080947 0
M  V30 1431 H 126.137 -6.21851 -2.08895 0
M  V30 1432 H 126.054 -7.50281 -0.928137 0
M  V30 1433 H 127.322 -7.50194 -2.11731 0
M  V30 1434 N 131.551 -0.354651 -1.53558 0
M  V30 1435 C 132.798 0.238443 -2.01091 0
M  V30 1436 C 133.126 1.49663 -1.24222 0
M  V30 1437 O 132.381 1.93049 -0.321003 0
M  V30 1438 C 132.68 0.587121 -3.52545 0
M  V30 1439 C 132.346 -0.575472 -4.47213 0
M  V30 1440 C 131.008 -0.894497 -4.72813 0
M  V30 1441 C 133.36 -1.35489 -5.03281 0
M  V30 1442 C 130.688 -1.99511 -5.51736 0
M  V30 1443 C 133.04 -2.44583 -5.83405 0
M  V30 1444 C 131.704 -2.77033 -6.07296 0
M  V30 1445 H 130.974 0.0872526 -0.735845 0
M  V30 1446 H 133.621 -0.484859 -1.8526 0
M  V30 1447 H 131.926 1.39129 -3.66265 0
M  V30 1448 H 133.623 1.05809 -3.86789 0
M  V30 1449 H 130.213 -0.316774 -4.27428 0
M  V30 1450 H 134.397 -1.12167 -4.83459 0
M  V30 1451 H 129.653 -2.25063 -5.68469 0
M  V30 1452 H 133.827 -3.05401 -6.25862 0
M  V30 1453 H 131.454 -3.6244 -6.68237 0
M  V30 1454 N 133.029 1.57378 -0.0835403 0
M  V30 1455 C 133.992 2.12252 0.864959 0
M  V30 1456 C 134.992 1.04916 1.21858 0
M  V30 1457 O 136.182 1.30853 1.14991 0
M  V30 1458 C 133.314 2.63358 2.16461 0
M  V30 1459 H 134.507 2.97371 0.388676 0
M  V30 1460 H 132.06 1.55423 0.165317 0
M  V30 1461 H 132.795 1.81727 2.686 0
M  V30 1462 H 132.58 3.41826 1.92087 0
M  V30 1463 H 134.07 3.05847 2.84337 0
M  V30 1464 N 134.507 -0.190092 1.56449 0
M  V30 1465 C 135.784 -0.935886 1.71757 0
M  V30 1466 C 136.164 -2.01173 0.639726 0
M  V30 1467 O 135.512 -2.25827 -0.348502 0
M  V30 1468 C 135.722 -1.51775 3.1427 0
M  V30 1469 C 137.07 -1.99794 3.74656 0
M  V30 1470 O 138.094 -1.61607 3.1743 0
M  V30 1471 O 136.953 -2.70079 4.751 0
M  V30 1472 H 134.047 -0.439229 0.700719 0
M  V30 1473 H 136.593 -0.179395 1.68749 0
M  V30 1474 H 135.365 -0.742505 3.84191 0
M  V30 1475 H 134.988 -2.33894 3.21527 0
M  V30 1476 N 135.985 -1.50799 -0.457987 0
M  V30 1477 C 137.215 -1.65977 -1.23025 0
M  V30 1478 C 137.623 -0.347918 -1.85974 0
M  V30 1479 O 136.966 0.68148 -1.70592 0
M  V30 1480 C 137.028 -2.70309 -2.3701 0
M  V30 1481 C 136.692 -4.135 -1.94594 0
M  V30 1482 C 137.689 -4.98949 -1.46101 0
M  V30 1483 C 135.374 -4.5949 -2.02915 0
M  V30 1484 C 137.368 -6.28442 -1.06489 0
M  V30 1485 C 135.055 -5.88984 -1.62914 0
M  V30 1486 C 136.053 -6.73286 -1.1478 0
M  V30 1487 O 135.741 -8.00362 -0.75339 0
M  V30 1488 H 135.473 -0.56064 -0.377702 0
M  V30 1489 H 138.027 -1.97857 -0.551537 0
M  V30 1490 H 136.257 -2.337 -3.08093 0
M  V30 1491 H 137.946 -2.74574 -2.98938 0
M  V30 1492 H 138.712 -4.6463 -1.39084 0
M  V30 1493 H 134.591 -3.94009 -2.39328 0
M  V30 1494 H 138.135 -6.94194 -0.688488 0
M  V30 1495 H 134.032 -6.22822 -1.69595 0
M  V30 1496 H 134.8 -8.13744 -0.88108 0
M  V30 1497 N 137.463 0.71206 -1.40597 0
M  V30 1498 C 138.74 1.46536 -1.29563 0
M  V30 1499 C 139.12 2.10931 0.0844217 0
M  V30 1500 O 138.468 2.00418 1.0975 0
M  V30 1501 C 138.678 2.49821 -2.43701 0
M  V30 1502 C 140.026 3.15551 -2.841 0
M  V30 1503 O 141.05 2.60142 -2.4332 0
M  V30 1504 O 139.909 4.15867 -3.54566 0
M  V30 1505 H 137.003 0.651801 -0.509004 0
M  V30 1506 H 139.549 0.743935 -1.52524 0
M  V30 1507 H 138.321 2.00778 -3.35863 0
M  V30 1508 H 137.944 3.29495 -2.22528 0
M  V30 1509 N 138.941 1.26152 0.944643 0
M  V30 1510 C 139.851 1.09176 2.07648 0
M  V30 1511 C 140.867 0.0261935 1.7398 0
M  V30 1512 O 142.043 0.229208 2.00091 0
M  V30 1513 C 139.108 0.722915 3.39079 0
M  V30 1514 C 138.169 1.86752 3.86552 0
M  V30 1515 C 137.402 1.51617 5.11711 0
M  V30 1516 O 137.625 0.416331 5.68879 0
M  V30 1517 O 136.559 2.34975 5.54139 0
M  V30 1518 H 140.385 2.0412 2.24875 0
M  V30 1519 H 137.97 1.05182 1.061 0
M  V30 1520 H 139.852 0.529787 4.18056 0
M  V30 1521 H 138.527 -0.197159 3.23099 0
M  V30 1522 H 137.434 2.11558 3.08535 0
M  V30 1523 H 138.767 2.76719 4.07047 0
M  V30 1524 N 140.419 -1.14872 1.07899 0
M  V30 1525 C 141.382 -2.17986 0.708161 0
M  V30 1526 C 142.382 -1.58775 -0.25442 0
M  V30 1527 O 143.572 -1.74166 -0.034645 0
M  V30 1528 C 140.704 -3.40871 0.0446929 0
M  V30 1529 H 141.897 -2.52306 1.62116 0
M  V30 1530 H 139.45 -1.2943 0.876218 0
M  V30 1531 H 140.185 -3.12124 -0.880281 0
M  V30 1532 H 139.97 -3.8511 0.737091 0
M  V30 1533 H 141.46 -4.17121 -0.19991 0
M  V30 1534 N 141.898 -0.863906 -1.31812 0
M  V30 1535 C 143.314 -0.555004 -1.49639 0
M  V30 1536 C 143.514 0.912266 -1.79666 0
M  V30 1537 O 142.57 1.69479 -1.87171 0
M  V30 1538 C 143.883 -1.44998 -2.63431 0
M  V30 1539 C 145.431 -1.45138 -2.77316 0
M  V30 1540 C 145.906 -2.33179 -3.94197 0
M  V30 1541 N 147.397 -2.31025 -4.01474 0
M  V30 1542 C 148.132 -2.95871 -4.9117 0
M  V30 1543 N 147.628 -3.69863 -5.8581 0
M  V30 1544 N 149.421 -2.85211 -4.84367 0
M  V30 1545 H 141.572 -1.81339 -1.10589 0
M  V30 1546 H 143.835 -0.77505 -0.545895 0
M  V30 1547 H 143.541 -2.49377 -2.48 0
M  V30 1548 H 143.415 -1.14409 -3.59431 0
M  V30 1549 H 145.802 -0.415201 -2.92164 0
M  V30 1550 H 145.883 -1.79747 -1.82001 0
M  V30 1551 H 145.527 -3.3687 -3.80107 0
M  V30 1552 H 145.457 -1.95897 -4.88807 0
M  V30 1553 H 147.948 -1.77238 -3.33759 0
M  V30 1554 H 148.261 -4.16486 -6.50968 0
M  V30 1555 H 146.606 -3.73971 -5.85808 0
M  V30 1556 H 149.797 -2.26948 -4.09405 0
M  V30 1557 H 149.97 -3.36027 -5.54066 0
M  V30 1558 N 143.376 1.44774 -0.622745 0
M  V30 1559 C 144.623 2.02121 -0.1239 0
M  V30 1560 C 144.951 1.48915 1.25118 0
M  V30 1561 O 144.206 0.660045 1.84233 0
M  V30 1562 C 144.505 3.57364 -0.0508323 0
M  V30 1563 C 144.171 4.29787 -1.36358 0
M  V30 1564 C 142.833 4.4929 -1.72314 0
M  V30 1565 C 145.185 4.71062 -2.23048 0
M  V30 1566 C 142.513 5.07325 -2.94682 0
M  V30 1567 C 144.865 5.30452 -3.44679 0
M  V30 1568 C 143.529 5.48175 -3.80868 0
M  V30 1569 H 142.799 0.739612 -0.0453381 0
M  V30 1570 H 145.446 1.73648 -0.807389 0
M  V30 1571 H 143.751 3.85202 0.715991 0
M  V30 1572 H 145.448 3.99456 0.351533 0
M  V30 1573 H 142.038 4.14932 -1.07375 0
M  V30 1574 H 146.222 4.55715 -1.96565 0
M  V30 1575 H 141.478 5.19235 -3.22809 0
M  V30 1576 H 145.652 5.61385 -4.12092 0
M  V30 1577 H 143.279 5.92912 -4.75773 0
M  V30 1578 N 144.854 0.36279 1.53368 0
M  V30 1579 C 145.786 -0.519668 2.23231 0
M  V30 1580 C 146.799 -1.04844 1.24546 0
M  V30 1581 O 147.988 -0.955296 1.50786 0
M  V30 1582 C 145.088 -1.72995 2.9142 0
M  V30 1583 C 144.261 -1.33316 4.16588 0
M  V30 1584 C 143.32 -2.40521 4.68013 0
M  V30 1585 O 142.346 -2.03027 5.3176 0
M  V30 1586 N 143.548 -3.72065 4.45587 0
M  V30 1587 H 146.313 0.078751 2.99597 0
M  V30 1588 H 143.874 0.187833 1.60807 0
M  V30 1589 H 145.866 -2.44184 3.22733 0
M  V30 1590 H 144.436 -2.2353 2.18525 0
M  V30 1591 H 143.656 -0.451236 3.91609 0
M  V30 1592 H 144.944 -1.04432 4.97967 0
M  V30 1593 H 144.342 -4.05304 3.94646 0
M  V30 1594 H 142.899 -4.39366 4.81457 0
M  V30 1595 N 146.332 -1.57332 0.0918853 0
M  V30 1596 C 147.279 -2.13847 -0.868211 0
M  V30 1597 C 148.249 -1.05618 -1.28196 0
M  V30 1598 O 149.434 -1.33387 -1.36427 0
M  V30 1599 C 146.574 -2.72062 -2.12312 0
M  V30 1600 C 145.687 -3.94514 -1.7602 0
M  V30 1601 C 144.822 -4.40903 -2.96273 0
M  V30 1602 C 143.861 -5.55953 -2.56092 0
M  V30 1603 N 142.998 -5.97209 -3.69169 0
M  V30 1604 H 147.838 -2.95575 -0.379406 0
M  V30 1605 H 145.375 -1.46048 -0.175606 0
M  V30 1606 H 147.333 -3.03931 -2.858 0
M  V30 1607 H 145.963 -1.93068 -2.58698 0
M  V30 1608 H 145.015 -3.68979 -0.925135 0
M  V30 1609 H 146.327 -4.7802 -1.42472 0
M  V30 1610 H 145.481 -4.74539 -3.78018 0
M  V30 1611 H 144.22 -3.56291 -3.33029 0
M  V30 1612 H 143.225 -5.21948 -1.72773 0
M  V30 1613 H 144.45 -6.42311 -2.20484 0
M  V30 1614 H 142.396 -5.15543 -4.05649 0
M  V30 1615 H 142.313 -6.75504 -3.39456 0
M  V30 1616 H 143.581 -6.35475 -4.51434 0
M  V30 1617 N 147.81 0.181792 -1.56548 0
M  V30 1618 C 148.72 1.24538 -1.98815 0
M  V30 1619 C 149.736 1.49045 -0.897861 0
M  V30 1620 O 150.912 1.61399 -1.20467 0
M  V30 1621 C 147.977 2.56683 -2.33055 0
M  V30 1622 C 147.038 2.40131 -3.55859 0
M  V30 1623 C 146.271 3.65975 -3.88456 0
M  V30 1624 O 146.494 4.70711 -3.22161 0
M  V30 1625 O 145.428 3.6071 -4.81842 0
M  V30 1626 H 149.254 0.916647 -2.89536 0
M  V30 1627 H 146.839 0.387842 -1.44278 0
M  V30 1628 H 148.721 3.34655 -2.56094 0
M  V30 1629 H 147.396 2.89157 -1.45498 0
M  V30 1630 H 146.303 1.60226 -3.38051 0
M  V30 1631 H 147.636 2.12585 -4.43924 0
M  V30 1632 N 149.288 1.51039 0.449983 0
M  V30 1633 C 150.536 1.62759 1.19808 0
M  V30 1634 C 150.857 0.339981 1.92013 0
M  V30 1635 O 150.127 -0.643606 1.85026 0
M  V30 1636 H 148.707 0.599811 0.445237 0
M  V30 1637 H 151.369 1.87914 0.517138 0
M  V30 1638 H 150.465 2.44911 1.93455 0
M  V30 1639 N 150.766 -0.704594 1.40972 0
M  V30 1640 C 152.013 -1.46458 1.39844 0
M  V30 1641 C 152.341 -1.94499 0.00447594 0
M  V30 1642 O 151.596 -1.69275 -0.982057 0
M  V30 1643 C 151.895 -2.698 2.34399 0
M  V30 1644 C 151.561 -2.40464 3.81429 0
M  V30 1645 C 150.223 -2.32174 4.21484 0
M  V30 1646 C 152.575 -2.16086 4.74296 0
M  V30 1647 C 149.903 -1.97589 5.52427 0
M  V30 1648 C 152.255 -1.83011 6.05549 0
M  V30 1649 C 150.919 -1.7321 6.44635 0
M  V30 1650 H 150.189 -0.535927 0.511725 0
M  V30 1651 H 152.836 -0.806124 1.73706 0
M  V30 1652 H 151.141 -3.40536 1.93759 0
M  V30 1653 H 152.838 -3.27919 2.30804 0
M  V30 1654 H 149.428 -2.47808 3.49699 0
M  V30 1655 H 153.612 -2.2144 4.4416 0
M  V30 1656 H 148.868 -1.88547 5.81601 0
M  V30 1657 H 153.042 -1.63164 6.77016 0
M  V30 1658 H 150.669 -1.46179 7.46013 0
M  V30 1659 N 152.244 -1.26651 -0.937939 0
M  V30 1660 C 153.66 -1.03834 -1.21205 0
M  V30 1661 C 153.86 0.234502 -2.00131 0
M  V30 1662 O 152.916 0.942767 -2.3424 0
M  V30 1663 C 154.229 -2.27167 -1.97017 0
M  V30 1664 C 155.777 -2.32101 -2.09996 0
M  V30 1665 C 156.252 -3.55136 -2.8921 0
M  V30 1666 N 157.743 -3.55632 -2.96783 0
M  V30 1667 C 158.478 -4.475 -3.58512 0
M  V30 1668 N 157.974 -5.4966 -4.21717 0
M  V30 1669 N 159.767 -4.35145 -3.55816 0
M  V30 1670 H 151.918 -2.08398 -0.410391 0
M  V30 1671 H 154.181 -0.916031 -0.244114 0
M  V30 1672 H 153.887 -3.19765 -1.46434 0
M  V30 1673 H 153.761 -2.31672 -2.97671 0
M  V30 1674 H 156.148 -1.40015 -2.59769 0
M  V30 1675 H 156.229 -2.31605 -1.08594 0
M  V30 1676 H 155.873 -4.47553 -2.40123 0
M  V30 1677 H 155.803 -3.5288 -3.90875 0
M  V30 1678 H 158.294 -2.81743 -2.51852 0
M  V30 1679 H 158.607 -6.15943 -4.66727 0
M  V30 1680 H 156.952 -5.53514 -4.20294 0
M  V30 1681 H 160.143 -3.5455 -3.05634 0
M  V30 1682 H 160.316 -5.06934 -4.03636 0
M  V30 1683 N 153.722 1.14298 -1.08507 0
M  V30 1684 C 154.968 1.85633 -0.816581 0
M  V30 1685 C 155.301 1.82784 0.656021 0
M  V30 1686 O 154.576 1.25926 1.48233 0
M  V30 1687 C 154.859 3.34223 -1.34041 0
M  V30 1688 C 154.712 3.45639 -2.87843 0
M  V30 1689 C 156.031 4.29356 -0.9665 0
M  V30 1690 H 153.15 0.67402 -0.298104 0
M  V30 1691 H 155.792 1.34214 -1.34487 0
M  V30 1692 H 153.942 3.78144 -0.89104 0
M  V30 1693 H 155.614 3.10498 -3.41158 0
M  V30 1694 H 153.857 2.86817 -3.25451 0
M  V30 1695 H 154.528 4.50089 -3.19569 0
M  V30 1696 H 157.004 3.93457 -1.35391 0
M  V30 1697 H 155.88 5.3178 -1.3602 0
M  V30 1698 H 156.141 4.41919 0.126362 0
M  V30 1699 N 155.201 0.870884 1.31352 0
M  V30 1700 C 156.447 0.482987 1.96965 0
M  V30 1701 C 156.78 -0.962462 1.68672 0
M  V30 1702 O 156.055 -1.6779 0.98371 0
M  V30 1703 C 156.338 0.741752 3.52378 0
M  V30 1704 C 156.191 2.2368 3.9024 0
M  V30 1705 C 157.51 0.208838 4.39604 0
M  V30 1706 H 154.629 0.176955 0.715441 0
M  V30 1707 H 157.271 1.09229 1.55464 0
M  V30 1708 H 155.421 0.223149 3.87859 0
M  V30 1709 H 157.093 2.82273 3.64856 0
M  V30 1710 H 155.336 2.70901 3.38814 0
M  V30 1711 H 156.007 2.3685 4.98604 0
M  V30 1712 H 158.483 0.652529 4.10952 0
M  V30 1713 H 157.359 0.419336 5.47296 0
M  V30 1714 H 157.62 -0.889275 4.33064 0
M  V30 1715 N 156.679 -1.44442 0.630414 0
M  V30 1716 C 158.09 -1.85434 0.217063 0
M  V30 1717 C 158.441 -1.52748 -1.23136 0
M  V30 1718 O 157.566 -0.965205 -1.93682 0
M  V30 1719 C 158.161 -3.36581 0.387168 0
M  V30 1720 C 156.72 -3.76389 0.0283297 0
M  V30 1721 C 155.867 -2.68296 0.700889 0
M  V30 1722 H 158.818 -1.34919 0.83562 0
M  V30 1723 H 158.839 -3.78657 -0.374086 0
M  V30 1724 H 158.351 -3.60339 1.44144 0
M  V30 1725 H 156.452 -3.58246 -1.02423 0
M  V30 1726 H 156.565 -4.77095 0.437892 0
M  V30 1727 H 154.929 -2.54335 0.136267 0
M  V30 1728 H 155.712 -2.94887 1.75774 0
M  V30 1729 N 158.157 -0.370918 -1.53173 0
M  V30 1730 C 159.568 0.107139 -1.86392 0
M  V30 1731 C 159.919 1.47714 -1.29132 0
M  V30 1732 O 159.044 2.07464 -0.615439 0
M  V30 1733 C 159.639 0.201187 -3.38202 0
M  V30 1734 C 158.198 0.623507 -3.712 0
M  V30 1735 C 157.345 -0.225978 -2.76378 0
M  V30 1736 H 160.296 -0.58951 -1.47345 0
M  V30 1737 H 160.317 1.02377 -3.66468 0
M  V30 1738 H 159.829 -0.796058 -3.79848 0
M  V30 1739 H 157.93 1.62879 -3.35114 0
M  V30 1740 H 158.043 0.394414 -4.77474 0
M  V30 1741 H 156.407 0.305962 -2.52856 0
M  V30 1742 H 157.19 -1.22086 -3.20858 0
M  V30 1743 N 159.635 1.57281 -0.100228 0
M  V30 1744 C 160.598 2.13158 0.842398 0
M  V30 1745 C 161.598 1.06202 1.20738 0
M  V30 1746 O 162.788 1.32066 1.13597 0
M  V30 1747 C 159.92 2.65639 2.13655 0
M  V30 1748 H 161.113 2.97766 0.357114 0
M  V30 1749 H 158.666 1.5559 0.148823 0
M  V30 1750 H 159.401 1.84566 2.66657 0
M  V30 1751 H 159.186 3.43844 1.88451 0
M  V30 1752 H 160.676 3.08846 2.81077 0
M  V30 1753 N 161.113 -0.173488 1.56642 0
M  V30 1754 C 162.341 -0.906095 1.86004 0
M  V30 1755 C 162.756 -1.75921 0.685355 0
M  V30 1756 O 162.113 -1.79198 -0.345578 0
M  V30 1757 C 162.164 -1.78462 3.14378 0
M  V30 1758 O 161.885 -0.965914 4.27319 0
M  V30 1759 C 163.386 -2.62707 3.57071 0
M  V30 1760 H 160.606 -0.263341 0.617165 0
M  V30 1761 H 163.15 -0.174236 2.03756 0
M  V30 1762 H 161.305 -2.46984 2.98459 0
M  V30 1763 H 161.719 -1.56655 5.00559 0
M  V30 1764 H 163.193 -3.19969 4.49804 0
M  V30 1765 H 163.67 -3.37472 2.81086 0
M  V30 1766 H 164.276 -1.99521 3.75595 0
M  V30 1767 N 162.591 -1.51276 -0.441967 0
M  V30 1768 C 163.837 -1.63958 -1.19355 0
M  V30 1769 C 164.17 -0.352543 -1.90973 0
M  V30 1770 O 163.445 0.647627 -1.83401 0
M  V30 1771 C 163.728 -2.83979 -2.21422 0
M  V30 1772 C 163.581 -4.22646 -1.53918 0
M  V30 1773 C 164.9 -2.99521 -3.22451 0
M  V30 1774 H 162.019 -0.596709 -0.432559 0
M  V30 1775 H 164.661 -1.83748 -0.483398 0
M  V30 1776 H 162.811 -2.67237 -2.81987 0
M  V30 1777 H 164.483 -4.51045 -0.967256 0
M  V30 1778 H 162.726 -4.25558 -0.841615 0
M  V30 1779 H 163.397 -5.02609 -2.28229 0
M  V30 1780 H 165.873 -3.14944 -2.71937 0
M  V30 1781 H 164.749 -3.85072 -3.91166 0
M  V30 1782 H 165.01 -2.11391 -3.88287 0
M  V30 1783 N 164.069 0.697108 -1.41344 0
M  V30 1784 C 165.485 1.00751 -1.2378 0
M  V30 1785 C 165.685 2.01105 -0.126066 0
M  V30 1786 O 164.741 2.47295 0.51004 0
M  V30 1787 C 166.054 1.53359 -2.58653 0
M  V30 1788 C 167.602 1.6525 -2.65822 0
M  V30 1789 C 168.077 2.2126 -4.01009 0
M  V30 1790 N 169.568 2.28622 -4.02847 0
M  V30 1791 C 170.303 2.72984 -5.04249 0
M  V30 1792 N 169.799 3.16962 -6.16041 0
M  V30 1793 N 171.592 2.72534 -4.91611 0
M  V30 1794 H 163.743 0.0322662 -2.12375 0
M  V30 1795 H 166.006 0.0768853 -0.944877 0
M  V30 1796 H 165.712 0.870773 -3.4075 0
M  V30 1797 H 165.586 2.51597 -2.81032 0
M  V30 1798 H 167.973 2.30644 -1.84086 0
M  V30 1799 H 168.054 0.655614 -2.47256 0
M  V30 1800 H 167.698 1.56482 -4.83193 0
M  V30 1801 H 167.628 3.21698 -4.16915 0
M  V30 1802 H 170.119 1.97585 -3.22131 0
M  V30 1803 H 170.432 3.49434 -6.89287 0
M  V30 1804 H 168.777 3.14875 -6.1958 0
M  V30 1805 H 171.968 2.37525 -4.0336 0
M  V30 1806 H 172.141 3.06789 -5.70775 0
M  V30 1807 N 165.547 1.27147 0.931209 0
M  V30 1808 C 166.479 1.05364 2.03546 0
M  V30 1809 C 167.492 0.0108438 1.62796 0
M  V30 1810 O 168.681 0.25202 1.76712 0
M  V30 1811 C 165.781 0.575566 3.33977 0
M  V30 1812 C 164.954 1.68985 4.03439 0
M  V30 1813 C 164.013 1.20813 5.12143 0
M  V30 1814 O 163.039 1.90712 5.363 0
M  V30 1815 N 164.241 0.0618851 5.80467 0
M  V30 1816 H 167.006 2.00454 2.22796 0
M  V30 1817 H 164.567 1.18666 1.10136 0
M  V30 1818 H 166.559 0.237264 4.04004 0
M  V30 1819 H 165.129 -0.282016 3.11325 0
M  V30 1820 H 164.349 2.19861 3.27192 0
M  V30 1821 H 165.637 2.4378 4.46597 0
M  V30 1822 H 165.035 -0.521621 5.6329 0
M  V30 1823 H 163.592 -0.217264 6.51438 0
M  V30 1824 N 167.025 -1.13721 1.09112 0
M  V30 1825 C 168.273 -1.84559 0.823562 0
M  V30 1826 C 168.594 -1.83754 -0.652658 0
M  V30 1827 O 167.864 -1.29102 -1.47342 0
M  V30 1828 H 166.444 -0.683376 0.301673 0
M  V30 1829 H 169.106 -1.37771 1.37859 0
M  V30 1830 H 168.202 -2.8917 1.17419 0
M  V30 1831 N 168.503 -0.877838 -1.30888 0
M  V30 1832 C 169.466 -0.344265 -2.266 0
M  V30 1833 C 170.466 0.50922 -1.52524 0
M  V30 1834 O 171.656 0.317398 -1.71284 0
M  V30 1835 C 168.788 0.510198 -3.37061 0
M  V30 1836 H 169.981 -1.1893 -2.7531 0
M  V30 1837 H 167.534 -0.654088 -1.41956 0
M  V30 1838 H 168.269 1.37612 -2.93655 0
M  V30 1839 H 168.054 -0.101047 -3.9197 0
M  V30 1840 H 169.544 0.875537 -4.08319 0
M  V30 1841 N 169.982 1.44106 -0.638065 0
M  V30 1842 C 171.229 2.01978 -0.14533 0
M  V30 1843 C 171.557 1.50234 1.23532 0
M  V30 1844 O 170.812 0.679548 1.83523 0
M  V30 1845 C 171.111 3.5729 -0.0887327 0
M  V30 1846 C 170.777 4.28317 -1.40909 0
M  V30 1847 C 169.439 4.47437 -1.77069 0
M  V30 1848 C 171.791 4.6867 -2.28031 0
M  V30 1849 C 169.119 5.04171 -3.00047 0
M  V30 1850 C 171.471 5.26766 -3.50286 0
M  V30 1851 C 170.135 5.44104 -3.86661 0
M  V30 1852 H 169.405 0.739089 -0.0531801 0
M  V30 1853 H 172.052 1.72781 -0.825761 0
M  V30 1854 H 170.357 3.8594 0.675095 0
M  V30 1855 H 172.054 3.99807 0.309145 0
M  V30 1856 H 168.644 4.1377 -1.1177 0
M  V30 1857 H 172.828 4.53604 -2.01388 0
M  V30 1858 H 168.084 5.15782 -3.28298 0
M  V30 1859 H 172.258 5.56983 -4.18023 0
M  V30 1860 H 169.885 5.87832 -4.82034 0
M  V30 1861 N 171.46 0.379036 1.52974 0
M  V30 1862 C 172.709 -0.207612 2.00629 0
M  V30 1863 C 173.022 -1.48758 1.27006 0
M  V30 1864 O 174.228 -2.15365 1.65318 0
M  V30 1865 C 172.684 -0.42053 3.57435 0
M  V30 1866 C 172.292 0.845587 4.39948 0
M  V30 1867 C 174.036 -0.964102 4.13407 0
M  V30 1868 C 171.943 0.601513 5.88333 0
M  V30 1869 H 170.873 -0.0813591 0.749598 0
M  V30 1870 H 173.524 0.499853 1.76561 0
M  V30 1871 H 171.906 -1.18959 3.7771 0
M  V30 1872 H 173.08 1.61848 4.31442 0
M  V30 1873 H 171.395 1.31336 3.95145 0
M  V30 1874 H 173.992 -1.16225 5.21916 0
M  V30 1875 H 174.335 -1.93019 3.68849 0
M  V30 1876 H 174.868 -0.25487 3.96983 0
M  V30 1877 H 171.607 1.53831 6.37194 0
M  V30 1878 H 171.127 -0.132628 5.99653 0
M  V30 1879 H 172.806 0.232134 6.46583 0
M  V30 1880 N 172.938 -1.57226 0.108567 0
M  V30 1881 C 173.901 -2.13602 -0.831082 0
M  V30 1882 C 174.901 -1.06841 -1.20173 0
M  V30 1883 O 176.091 -1.32666 -1.12895 0
M  V30 1884 C 173.223 -2.66769 -2.12243 0
M  V30 1885 H 174.416 -2.97951 -0.341317 0
M  V30 1886 H 171.969 -1.55667 -0.14057 0
M  V30 1887 H 172.704 -1.85977 -2.65675 0
M  V30 1888 H 172.489 -3.44839 -1.86625 0
M  V30 1889 H 173.979 -3.10332 -2.79435 0
M  V30 1890 N 174.416 0.165178 -1.56732 0
M  V30 1891 C 175.832 0.517174 -1.50988 0
M  V30 1892 C 176.032 1.84331 -0.813894 0
M  V30 1893 O 175.088 2.49672 -0.37682 0
M  V30 1894 C 176.401 0.544261 -2.95733 0
M  V30 1895 C 177.949 0.631039 -3.06573 0
M  V30 1896 C 178.424 0.68896 -4.52788 0
M  V30 1897 N 179.915 0.751683 -4.5706 0
M  V30 1898 C 180.65 0.817177 -5.67547 0
M  V30 1899 N 180.146 0.843129 -6.8765 0
M  V30 1900 N 181.939 0.856668 -5.55534 0
M  V30 1901 H 174.09 -0.704318 -2.00382 0
M  V30 1902 H 176.353 -0.254687 -0.913148 0
M  V30 1903 H 176.059 -0.361607 -3.49836 0
M  V30 1904 H 175.933 1.3886 -3.5071 0
M  V30 1905 H 178.32 1.52733 -2.52501 0
M  V30 1906 H 178.401 -0.240095 -2.54671 0
M  V30 1907 H 178.045 -0.2031 -5.07494 0
M  V30 1908 H 177.975 1.57633 -5.02454 0
M  V30 1909 H 180.466 0.739661 -3.70591 0
M  V30 1910 H 180.779 0.894448 -7.67606 0
M  V30 1911 H 179.124 0.811304 -6.90248 0
M  V30 1912 H 182.315 0.833437 -4.60621 0
M  V30 1913 H 182.488 0.904247 -6.4166 0
M  V30 1914 N 175.894 1.51508 0.433938 0
M  V30 1915 C 176.842 1.73646 1.54757 0
M  V30 1916 C 177.836 0.602854 1.5831 0
M  V30 1917 O 179.042 0.784318 1.62014 0
M  V30 1918 H 175.417 0.548718 0.51421 0
M  V30 1919 H 177.388 2.66991 1.33261 0
M  V30 1920 C 176.137 1.88172 2.92381 0
M  V30 1921 H 175.46 2.74808 2.90381 0
M  V30 1922 H 176.9 2.07672 3.6966 0
M  V30 1923 C 175.359 0.64239 3.30719 0
M  V30 1924 O 175.889 -0.201362 4.01195 0
M  V30 1925 N 174.095 0.485489 2.86516 0
M  V30 1926 H 173.642 1.17318 2.29334 0
M  V30 1927 H 173.6 -0.342482 3.12529 0
M  V30 1928 N 177.372 -0.689602 1.41712 0
M  V30 1929 C 178.6 -1.47827 1.44758 0
M  V30 1930 C 179.015 -1.88721 0.0545703 0
M  V30 1931 O 178.372 -1.57176 -0.927463 0
M  V30 1932 C 178.423 -2.73698 2.3616 0
M  V30 1933 O 178.144 -2.34524 3.7004 0
M  V30 1934 C 179.645 -3.67389 2.48072 0
M  V30 1935 H 176.865 -0.455357 0.49284 0
M  V30 1936 H 179.409 -0.848574 1.86063 0
M  V30 1937 H 177.564 -3.32891 1.98148 0
M  V30 1938 H 177.978 -3.15701 4.18847 0
M  V30 1939 H 179.452 -4.52475 3.16181 0
M  V30 1940 H 179.929 -4.12284 1.51388 0
M  V30 1941 H 180.535 -3.14097 2.86746 0
M  V30 1942 N 178.85 -1.27639 -0.924453 0
M  V30 1943 C 180.096 -1.14336 -1.67497 0
M  V30 1944 C 180.429 0.309465 -1.91718 0
M  V30 1945 O 179.704 1.22608 -1.50989 0
M  V30 1946 C 179.987 -1.93096 -3.0395 0
M  V30 1947 C 179.84 -3.46381 -2.8695 0
M  V30 1948 C 181.159 -1.73798 -4.0433 0
M  V30 1949 H 178.278 -0.416728 -0.607871 0
M  V30 1950 H 180.92 -1.56832 -1.07256 0
M  V30 1951 H 179.07 -1.56982 -3.55372 0
M  V30 1952 H 180.742 -3.92343 -2.42621 0
M  V30 1953 H 178.985 -3.72557 -2.22225 0
M  V30 1954 H 179.656 -3.96735 -3.83804 0
M  V30 1955 H 182.132 -2.05293 -3.61931 0
M  V30 1956 H 181.008 -2.31294 -4.97789 0
M  V30 1957 H 181.269 -0.686725 -4.36734 0
M  V30 1958 N 180.328 1.1314 -1.09713 0
M  V30 1959 C 181.258 2.20748 -0.761102 0
M  V30 1960 C 182.239 1.68061 0.262566 0
M  V30 1961 O 183.424 1.93765 0.129977 0
M  V30 1962 C 180.554 3.46812 -0.184054 0
M  V30 1963 C 179.508 4.12606 -1.13757 0
M  V30 1964 C 178.834 5.33031 -0.422083 0
M  V30 1965 C 180.134 4.59603 -2.48118 0
M  V30 1966 H 181.828 2.49113 -1.66082 0
M  V30 1967 H 179.374 1.19734 -0.799987 0
M  V30 1968 H 181.327 4.21353 0.0631215 0
M  V30 1969 H 180.051 3.17851 0.750868 0
M  V30 1970 H 178.71 3.40036 -1.37007 0
M  V30 1971 H 178.358 5.00335 0.517072 0
M  V30 1972 H 178.058 5.77999 -1.05788 0
M  V30 1973 H 179.582 6.10325 -0.183277 0
M  V30 1974 H 180.996 5.25552 -2.29059 0
M  V30 1975 H 179.393 5.15321 -3.07514 0
M  V30 1976 H 180.463 3.73971 -3.08665 0
M  V30 1977 N 181.806 0.884767 1.30421 0
M  V30 1978 C 182.739 0.295999 2.26272 0
M  V30 1979 C 183.717 -0.58332 1.51777 0
M  V30 1980 O 184.901 -0.53346 1.80794 0
M  V30 1981 C 182.028 -0.57944 3.33707 0
M  V30 1982 C 181.074 0.230525 4.25877 0
M  V30 1983 S 181.907 1.61867 5.1045 0
M  V30 1984 C 183.063 0.749756 6.21393 0
M  V30 1985 H 183.296 1.10848 2.75862 0
M  V30 1986 H 180.829 0.684178 1.38414 0
M  V30 1987 H 182.787 -1.07879 3.96071 0
M  V30 1988 H 181.448 -1.36601 2.82841 0
M  V30 1989 H 180.641 -0.437542 5.02097 0
M  V30 1990 H 180.243 0.662493 3.68086 0
M  V30 1991 H 182.535 -0.0333547 6.77492 0
M  V30 1992 H 183.478 1.48356 6.92384 0
M  V30 1993 H 183.886 0.310751 5.63644 0
M  V30 1994 N 183.284 -1.43765 0.645699 0
M  V30 1995 C 184.695 -1.85193 0.236719 0
M  V30 1996 C 185.046 -1.54045 -1.21509 0
M  V30 1997 O 184.171 -0.985694 -1.92647 0
M  V30 1998 C 184.766 -3.36151 0.422845 0
M  V30 1999 C 183.325 -3.76338 0.0682492 0
M  V30 2000 C 182.472 -2.67538 0.729306 0
M  V30 2001 H 185.423 -1.34025 0.849883 0
M  V30 2002 H 185.444 -3.79032 -0.333904 0
M  V30 2003 H 184.956 -3.5879 1.47958 0
M  V30 2004 H 183.057 -3.59312 -0.986179 0
M  V30 2005 H 183.17 -4.76603 0.488469 0
M  V30 2006 H 181.534 -2.54176 0.163235 0
M  V30 2007 H 182.317 -2.93006 1.78892 0
M  V30 2008 N 184.763 -0.387143 -1.52771 0
M  V30 2009 C 185.988 0.198407 -2.06449 0
M  V30 2010 C 186.413 1.39918 -1.25716 0
M  V30 2011 O 185.771 1.79099 -0.281657 0
M  V30 2012 C 185.819 0.548893 -3.56398 0
M  V30 2013 O 184.923 1.64315 -3.78252 0
M  V30 2014 H 184.264 0.0237731 -0.663574 0
M  V30 2015 H 186.794 -0.553989 -1.96957 0
M  V30 2016 H 186.804 0.813812 -3.99801 0
M  V30 2017 H 185.479 -0.329005 -4.14597 0
M  V30 2018 H 184.056 1.37211 -3.46738 0
M  V30 2019 N 186.241 1.57166 -0.116904 0
M  V30 2020 C 187.471 1.99184 0.548586 0
M  V30 2021 C 187.879 0.995436 1.60897 0
M  V30 2022 O 187.222 -0.0201293 1.83689 0
M  V30 2023 C 187.284 3.37611 1.23526 0
M  V30 2024 C 186.948 4.55857 0.323077 0
M  V30 2025 C 187.945 5.18056 -0.437476 0
M  V30 2026 C 185.63 5.01751 0.234761 0
M  V30 2027 C 187.624 6.24536 -1.2741 0
M  V30 2028 C 185.311 6.08093 -0.605496 0
M  V30 2029 C 186.309 6.69352 -1.35856 0
M  V30 2030 O 185.997 7.7364 -2.18487 0
M  V30 2031 H 185.729 0.659148 0.149999 0
M  V30 2032 H 188.283 2.0443 -0.199428 0
M  V30 2033 H 186.513 3.29113 2.0303 0
M  V30 2034 H 188.202 3.63932 1.79745 0
M  V30 2035 H 188.968 4.83516 -0.379105 0
M  V30 2036 H 184.847 4.53817 0.810601 0
M  V30 2037 H 188.391 6.72281 -1.86237 0
M  V30 2038 H 184.288 6.42063 -0.665268 0
M  V30 2039 H 185.056 7.90727 -2.11406 0
M  V30 2040 N 187.719 -0.156864 1.56817 0
M  V30 2041 C 188.965 -0.872416 1.83076 0
M  V30 2042 C 189.298 -1.81261 0.697001 0
M  V30 2043 O 188.573 -1.92171 -0.30008 0
M  V30 2044 C 188.856 -1.65551 3.19789 0
M  V30 2045 C 188.709 -0.737467 4.43713 0
M  V30 2046 C 190.028 -2.62012 3.53606 0
M  V30 2047 H 187.147 -0.315715 0.665953 0
M  V30 2048 H 189.789 -0.138004 1.89498 0
M  V30 2049 H 187.939 -2.28159 3.14445 0
M  V30 2050 H 189.611 -0.123143 4.61136 0
M  V30 2051 H 187.854 -0.0464067 4.33775 0
M  V30 2052 H 188.525 -1.32122 5.35955 0
M  V30 2053 H 191.001 -2.09525 3.59497 0
M  V30 2054 H 189.877 -3.13861 4.50314 0
M  V30 2055 H 190.138 -3.42902 2.79053 0
M  V30 2056 N 189.197 -1.51736 -0.425897 0
M  V30 2057 C 190.145 -1.74464 -1.53834 0
M  V30 2058 C 191.139 -0.611241 -1.57988 0
M  V30 2059 O 192.345 -0.792899 -1.61596 0
M  V30 2060 H 188.72 -0.551437 -0.511293 0
M  V30 2061 H 190.691 -2.67694 -1.31843 0
M  V30 2062 C 189.44 -1.8972 -2.91379 0
M  V30 2063 H 188.763 -2.76344 -2.88919 0
M  V30 2064 H 190.203 -2.09629 -3.68553 0
M  V30 2065 C 188.662 -0.65992 -3.30374 0
M  V30 2066 O 189.192 0.180083 -4.01296 0
M  V30 2067 N 187.398 -0.500677 -2.86254 0
M  V30 2068 H 186.945 -1.18532 -2.28709 0
M  V30 2069 H 186.903 0.325903 -3.12706 0
M  V30 2070 N 190.675 0.682077 -1.42076 0
M  V30 2071 C 191.924 1.43786 -1.41451 0
M  V30 2072 C 192.237 1.95574 -0.0317074 0
M  V30 2073 O 193.443 2.71326 0.0971462 0
M  V30 2074 C 191.899 2.60071 -2.48779 0
M  V30 2075 C 191.507 2.15013 -3.93031 0
M  V30 2076 C 193.251 3.37626 -2.57311 0
M  V30 2077 C 191.158 3.28336 -4.91883 0
M  V30 2078 H 190.088 0.540143 -0.526082 0
M  V30 2079 H 192.739 0.739157 -1.67955 0
M  V30 2080 H 191.121 3.32275 -2.15429 0
M  V30 2081 H 192.295 1.5001 -4.35699 0
M  V30 2082 H 190.61 1.50416 -3.88284 0
M  V30 2083 H 193.207 4.22012 -3.28345 0
M  V30 2084 H 193.55 3.83727 -1.61429 0
M  V30 2085 H 194.083 2.72488 -2.89819 0
M  V30 2086 H 190.822 2.87234 -5.89217 0
M  V30 2087 H 190.342 3.92145 -4.53853 0
M  V30 2088 H 192.021 3.93913 -5.13265 0
M  V30 2089 N 192.153 1.28127 0.917671 0
M  V30 2090 C 193.401 1.14825 1.66312 0
M  V30 2091 C 193.722 -0.304379 1.9261 0
M  V30 2092 O 192.992 -1.21149 1.53947 0
M  V30 2093 H 191.572 0.421953 0.616413 0
M  V30 2094 H 194.234 1.608 1.10134 0
M  V30 2095 H 193.33 1.68489 2.62712 0
M  V30 2096 N 193.631 -1.12557 1.10312 0
M  V30 2097 C 194.594 -2.16434 0.75424 0
M  V30 2098 C 195.594 -1.59278 -0.220685 0
M  V30 2099 O 196.784 -1.742 0.00230591 0
M  V30 2100 C 193.916 -3.40699 0.116987 0
M  V30 2101 H 195.109 -2.48811 1.67431 0
M  V30 2102 H 192.662 -1.27542 0.903475 0
M  V30 2103 H 193.397 -3.13921 -0.813877 0
M  V30 2104 H 193.182 -3.83459 0.818613 0
M  V30 2105 H 194.672 -4.17451 -0.111387 0
M  V30 2106 N 195.109 -0.891671 -1.2995 0
M  V30 2107 C 196.339 -0.527893 -1.99742 0
M  V30 2108 C 196.747 0.88979 -1.66971 0
M  V30 2109 O 196.09 1.59766 -0.906667 0
M  V30 2110 C 196.152 -0.630804 -3.53922 0
M  V30 2111 C 195.816 -2.01401 -4.10228 0
M  V30 2112 C 196.813 -2.98422 -4.25724 0
M  V30 2113 C 194.498 -2.32121 -4.45449 0
M  V30 2114 C 196.492 -4.24293 -4.75662 0
M  V30 2115 C 194.179 -3.58237 -4.95086 0
M  V30 2116 C 195.177 -4.54137 -5.10146 0
M  V30 2117 O 194.865 -5.78014 -5.58708 0
M  V30 2118 H 194.597 -0.201953 -0.645129 0
M  V30 2119 H 197.151 -1.20076 -1.66646 0
M  V30 2120 H 195.381 0.0990616 -3.86573 0
M  V30 2121 H 197.07 -0.277338 -4.04951 0
M  V30 2122 H 197.836 -2.76001 -3.98809 0
M  V30 2123 H 193.715 -1.5824 -4.32991 0
M  V30 2124 H 197.259 -4.99153 -4.87332 0
M  V30 2125 H 193.156 -3.80491 -5.21437 0
M  V30 2126 H 193.924 -5.8049 -5.77039 0
M  V30 2127 N 196.587 1.43421 -0.653314 0
M  V30 2128 C 197.833 2.02111 -0.166992 0
M  V30 2129 C 198.166 1.51423 1.21592 0
M  V30 2130 O 197.441 0.707389 1.8118 0
M  V30 2131 C 197.724 3.5966 -0.177948 0
M  V30 2132 C 197.577 4.20579 -1.59478 0
M  V30 2133 C 198.896 4.37413 0.4856 0
M  V30 2134 H 196.015 0.734374 -0.0621557 0
M  V30 2135 H 198.657 1.70717 -0.834016 0
M  V30 2136 H 196.807 3.86537 0.390032 0
M  V30 2137 H 198.479 4.04732 -2.21336 0
M  V30 2138 H 196.722 3.77226 -2.14204 0
M  V30 2139 H 197.393 5.29665 -1.5543 0
M  V30 2140 H 199.869 4.161 0.00234528 0
M  V30 2141 H 198.745 5.47075 0.447207 0
M  V30 2142 H 199.006 4.13672 1.55974 0
M  V30 2143 N 198.065 0.39524 1.52563 0
M  V30 2144 C 199.342 -0.242908 1.94086 0
M  V30 2145 C 199.722 -1.63841 1.33114 0
M  V30 2146 O 199.07 -2.22928 0.501529 0
M  V30 2147 C 199.28 -0.26327 3.48006 0
M  V30 2148 C 200.628 -0.489354 4.21771 0
M  V30 2149 O 201.652 -0.343226 3.54543 0
M  V30 2150 O 200.511 -0.776169 5.4096 0
M  V30 2151 H 197.605 -0.152536 0.812811 0
M  V30 2152 H 200.151 0.450178 1.6362 0
M  V30 2153 H 198.923 0.713985 3.84731 0
M  V30 2154 H 198.546 -1.00103 3.84792 0
M  V30 2155 N 199.544 -1.57102 0.125237 0
M  V30 2156 C 200.454 -2.19191 -0.8362 0
M  V30 2157 C 201.47 -1.16985 -1.28805 0
M  V30 2158 O 202.646 -1.49479 -1.34974 0
M  V30 2159 C 199.711 -2.78407 -2.06617 0
M  V30 2160 C 198.772 -3.9567 -1.66565 0
M  V30 2161 C 198.005 -4.52052 -2.83698 0
M  V30 2162 O 198.228 -4.07326 -3.99302 0
M  V30 2163 O 197.162 -5.42645 -2.60423 0
M  V30 2164 H 200.988 -3.01816 -0.337776 0
M  V30 2165 H 198.573 -1.4906 -0.100695 0
M  V30 2166 H 200.455 -3.16129 -2.7864 0
M  V30 2167 H 199.13 -1.9881 -2.55453 0
M  V30 2168 H 198.037 -3.62705 -0.916296 0
M  V30 2169 H 199.37 -4.76722 -1.22464 0
M  V30 2170 N 201.022 0.148545 -1.56898 0
M  V30 2171 C 202.27 0.859717 -1.82902 0
M  V30 2172 C 202.591 1.81775 -0.70588 0
M  V30 2173 O 201.861 1.93994 0.272586 0
M  V30 2174 H 200.441 0.320469 -0.674766 0
M  V30 2175 H 203.103 0.142918 -1.94375 0
M  V30 2176 H 202.199 1.4229 -2.77777 0
M  V30 2177 N 202.5 1.5196 0.417844 0
M  V30 2178 C 203.728 1.69426 1.18753 0
M  V30 2179 C 204.143 0.399955 1.84515 0
M  V30 2180 O 203.5 -0.623288 1.71527 0
M  V30 2181 C 203.551 2.82375 2.25714 0
M  V30 2182 O 203.272 4.06793 1.62638 0
M  V30 2183 C 204.773 3.11277 3.15628 0
M  V30 2184 H 201.993 0.568031 0.357186 0
M  V30 2185 H 204.537 1.98475 0.49273 0
M  V30 2186 H 202.692 2.5587 2.90877 0
M  V30 2187 H 203.106 4.69667 2.3348 0
M  V30 2188 H 204.58 3.93843 3.86771 0
M  V30 2189 H 205.057 2.24473 3.77503 0
M  V30 2190 H 205.663 3.39515 2.56144 0
M  V30 2191 N 203.978 -0.674533 1.42435 0
M  V30 2192 C 204.911 -1.79924 1.40366 0
M  V30 2193 C 205.889 -1.60378 0.267899 0
M  V30 2194 O 207.073 -1.82847 0.458159 0
M  V30 2195 C 204.2 -3.16927 1.19478 0
M  V30 2196 C 203.246 -3.55221 2.36051 0
M  V30 2197 S 204.079 -3.5762 3.98583 0
M  V30 2198 C 205.235 -4.97315 3.80038 0
M  V30 2199 H 205.468 -1.81405 2.35541 0
M  V30 2200 H 203.001 -0.845221 1.29211 0
M  V30 2201 H 204.959 -3.96007 1.08114 0
M  V30 2202 H 203.62 -3.13031 0.258883 0
M  V30 2203 H 202.813 -4.54804 2.17185 0
M  V30 2204 H 202.415 -2.83502 2.43932 0
M  V30 2205 H 204.707 -5.85401 3.41045 0
M  V30 2206 H 205.65 -5.21228 4.79298 0
M  V30 2207 H 206.058 -4.69845 3.12899 0
M  V30 2208 N 205.456 -1.28612 -0.910864 0
M  V30 2209 C 206.702 -1.16106 -1.66274 0
M  V30 2210 C 207.035 0.289113 -1.92036 0
M  V30 2211 O 206.31 1.21 -1.52281 0
M  V30 2212 C 206.593 -1.96309 -3.01885 0
M  V30 2213 C 206.446 -3.49405 -2.8326 0
M  V30 2214 C 207.765 -1.78076 -4.02463 0
M  V30 2215 H 204.884 -0.423152 -0.603417 0
M  V30 2216 H 207.526 -1.57961 -1.05586 0
M  V30 2217 H 205.676 -1.60742 -3.53687 0
M  V30 2218 H 207.348 -3.94894 -2.38446 0
M  V30 2219 H 205.591 -3.74893 -2.18261 0
M  V30 2220 H 206.262 -4.00784 -3.79574 0
M  V30 2221 H 208.738 -2.0912 -3.59733 0
M  V30 2222 H 207.614 -2.36561 -4.95308 0
M  V30 2223 H 207.875 -0.733008 -4.35981 0
M  V30 2224 N 206.934 1.1197 -1.10907 0
M  V30 2225 C 208.211 1.79959 -0.766432 0
M  V30 2226 C 208.591 1.97466 0.746363 0
M  V30 2227 O 207.939 1.55491 1.67436 0
M  V30 2228 C 208.149 3.14009 -1.52314 0
M  V30 2229 C 209.497 3.89134 -1.69883 0
M  V30 2230 O 210.521 3.2368 -1.48692 0
M  V30 2231 O 209.38 5.06572 -2.05054 0
M  V30 2232 H 206.474 0.779208 -0.277062 0
M  V30 2233 H 209.02 1.18762 -1.21217 0
M  V30 2234 H 207.792 2.96587 -2.55249 0
M  V30 2235 H 207.415 3.82915 -1.07059 0
M  V30 2236 N 208.412 0.89855 1.29475 0
M  V30 2237 C 209.64 0.539261 1.99749 0
M  V30 2238 C 210.055 -0.875716 1.67262 0
M  V30 2239 O 209.412 -1.57786 0.917049 0
M  V30 2240 C 209.463 0.72061 3.54245 0
M  V30 2241 O 209.184 2.07989 3.8558 0
M  V30 2242 C 210.685 0.366118 4.41786 0
M  V30 2243 H 207.905 0.207047 0.638258 0
M  V30 2244 H 210.449 1.20758 1.65039 0
M  V30 2245 H 208.604 0.0994862 3.87272 0
M  V30 2246 H 209.018 2.10841 4.80257 0
M  V30 2247 H 210.492 0.543848 5.49314 0
M  V30 2248 H 210.969 -0.696763 4.33638 0
M  V30 2249 H 211.575 0.964135 4.14228 0
M  V30 2250 N 209.89 -1.43072 0.660911 0
M  V30 2251 C 211.136 -2.02545 0.186337 0
M  V30 2252 C 211.491 -1.51253 -1.18913 0
M  V30 2253 O 210.784 -0.699167 -1.78388 0
M  V30 2254 C 210.978 -3.57103 0.145563 0
M  V30 2255 C 210.807 -4.23393 1.51554 0
M  V30 2256 C 209.577 -4.59144 2.10984 0
M  V30 2257 C 211.775 -4.51897 2.45548 0
M  V30 2258 N 209.757 -5.10545 3.40907 0
M  V30 2259 C 211.128 -5.04698 3.6011 0
M  V30 2260 C 213.183 -4.33872 2.44253 0
M  V30 2261 C 211.886 -5.41371 4.73613 0
M  V30 2262 C 213.912 -4.71612 3.56842 0
M  V30 2263 C 213.274 -5.24553 4.70131 0
M  V30 2264 H 209.373 -0.773823 0.112792 0
M  V30 2265 H 211.957 -1.74137 0.870885 0
M  V30 2266 H 210.128 -3.85059 -0.508353 0
M  V30 2267 H 211.86 -4.03264 -0.340598 0
M  V30 2268 H 208.615 -4.4444 1.63615 0
M  V30 2269 H 209.039 -5.40689 4.07411 0
M  V30 2270 H 213.681 -3.92208 1.579 0
M  V30 2271 H 211.399 -5.81975 5.60652 0
M  V30 2272 H 214.985 -4.59354 3.57051 0
M  V30 2273 H 213.865 -5.53213 5.5581 0
M  V30 2274 N 211.368 -0.403325 -1.52352 0
M  V30 2275 C 212.331 0.413051 -2.25447 0
M  V30 2276 C 213.331 0.978513 -1.276 0
M  V30 2277 O 214.521 0.858305 -1.51587 0
M  V30 2278 C 211.653 1.58087 -3.02029 0
M  V30 2279 H 212.846 -0.227094 -2.99039 0
M  V30 2280 H 210.399 -0.155722 -1.55522 0
M  V30 2281 H 211.134 2.25804 -2.32772 0
M  V30 2282 H 210.919 1.18195 -3.73861 0
M  V30 2283 H 212.409 2.1585 -3.57489 0
M  V30 2284 N 212.846 1.57033 -0.133567 0
M  V30 2285 C 214.074 2.00044 0.528195 0
M  V30 2286 C 214.489 1.01349 1.59291 0
M  V30 2287 O 213.846 0.00848369 1.82498 0
M  V30 2288 C 213.897 3.43018 1.1411 0
M  V30 2289 O 213.618 4.37939 0.11892 0
M  V30 2290 C 215.119 4.01237 1.88477 0
M  V30 2291 H 212.339 0.656517 0.138661 0
M  V30 2292 H 214.883 2.03267 -0.224196 0
M  V30 2293 H 213.038 3.40688 1.84418 0
M  V30 2294 H 213.452 5.21436 0.56613 0
M  V30 2295 H 214.926 5.03314 2.26669 0
M  V30 2296 H 215.403 3.41193 2.76558 0
M  V30 2297 H 216.009 4.07156 1.22898 0
M  V30 2298 N 214.325 -0.140222 1.56975 0
M  V30 2299 C 215.571 -0.852949 1.83991 0
M  V30 2300 C 215.904 -1.80512 0.716187 0
M  V30 2301 O 215.179 -1.92479 -0.279681 0
M  V30 2302 C 215.462 -1.6215 3.21527 0
M  V30 2303 C 215.315 -0.690363 4.4447 0
M  V30 2304 C 216.634 -2.58247 3.56366 0
M  V30 2305 H 213.753 -0.308634 0.669264 0
M  V30 2306 H 216.395 -0.117898 1.89634 0
M  V30 2307 H 214.545 -2.24812 3.16847 0
M  V30 2308 H 216.217 -0.0742264 4.6124 0
M  V30 2309 H 214.46 -0.000396433 4.338 0
M  V30 2310 H 215.131 -1.2643 5.37326 0
M  V30 2311 H 217.607 -2.05701 3.61699 0
M  V30 2312 H 216.483 -3.09067 4.53617 0
M  V30 2313 H 216.744 -3.39923 2.82674 0
M  V30 2314 N 215.803 -1.52179 -0.40978 0
M  V30 2315 C 217.051 -1.65878 -1.15451 0
M  V30 2316 C 217.372 -0.390771 -1.91044 0
M  V30 2317 O 216.642 0.594323 -1.86667 0
M  V30 2318 H 215.222 -0.611405 -0.429177 0
M  V30 2319 H 217.884 -1.89219 -0.467134 0
M  V30 2320 H 216.98 -2.49954 -1.86894 0
M  V30 2321 N 217.281 0.66697 -1.42791 0
M  V30 2322 C 218.506 1.46004 -1.47301 0
M  V30 2323 C 218.931 1.87894 -0.0880317 0
M  V30 2324 O 218.289 1.56502 0.915253 0
M  V30 2325 C 218.337 2.68031 -2.41229 0
M  V30 2326 O 217.441 3.6659 -1.88906 0
M  V30 2327 H 216.782 0.43832 -0.49877 0
M  V30 2328 H 219.312 0.817391 -1.87563 0
M  V30 2329 H 219.322 3.1601 -2.58073 0
M  V30 2330 H 217.997 2.36883 -3.41847 0
M  V30 2331 H 216.574 3.25661 -1.81656 0
M  V30 2332 N 218.759 1.29093 0.90403 0
M  V30 2333 C 219.999 1.18076 1.66845 0
M  V30 2334 C 220.363 -0.26436 1.90171 0
M  V30 2335 O 221.564 -0.497423 2.64157 0
M  V30 2336 C 219.835 1.96722 2.98388 0
M  V30 2337 S 221.394 2.0219 3.89441 0
M  V30 2338 H 218.212 0.421104 0.572881 0
M  V30 2339 H 220.814 1.63322 1.07453 0
M  V30 2340 H 219.518 3.00866 2.7912 0
M  V30 2341 H 219.049 1.52064 3.62823 0
M  V30 2342 H 221.064 1.13545 4.83034 0
M  V30 2343 N 220.237 -1.11381 1.11499 0
M  V30 2344 C 221.2 -2.15622 0.777153 0
M  V30 2345 C 222.2 -1.59504 -0.203779 0
M  V30 2346 O 223.39 -1.74188 0.020782 0
M  V30 2347 C 220.522 -3.40556 0.153116 0
M  V30 2348 H 221.715 -2.47021 1.70061 0
M  V30 2349 H 219.268 -1.26577 0.916952 0
M  V30 2350 H 220.003 -3.14767 -0.780536 0
M  V30 2351 H 219.788 -3.8257 0.859238 0
M  V30 2352 H 221.278 -4.17546 -0.0671044 0
M  V30 2353 N 221.715 -0.905404 -1.28997 0
M  V30 2354 C 222.647 -0.344748 -2.26592 0
M  V30 2355 C 223.66 0.512135 -1.54535 0
M  V30 2356 O 224.849 0.328368 -1.75454 0
M  V30 2357 C 221.949 0.526587 -3.34784 0
M  V30 2358 C 221.122 -0.305871 -4.36329 0
M  V30 2359 C 220.181 0.499209 -5.23827 0
M  V30 2360 O 219.207 -0.0853004 -5.69136 0
M  V30 2361 N 220.409 1.80408 -5.51755 0
M  V30 2362 H 223.174 -1.18359 -2.75338 0
M  V30 2363 H 220.735 -0.770481 -1.42391 0
M  V30 2364 H 222.727 1.07171 -3.90252 0
M  V30 2365 H 221.297 1.26613 -2.85811 0
M  V30 2366 H 220.517 -1.0324 -3.80441 0
M  V30 2367 H 221.805 -0.875773 -5.01206 0
M  V30 2368 H 221.203 2.3016 -5.16762 0
M  V30 2369 H 219.76 2.29621 -6.10014 0
M  V30 2370 N 223.193 1.4272 -0.668489 0
M  V30 2371 C 224.442 2.00846 -0.185389 0
M  V30 2372 C 224.755 1.53442 1.21305 0
M  V30 2373 O 225.961 2.03944 1.79218 0
M  V30 2374 C 224.417 3.58805 -0.280591 0
M  V30 2375 C 224.025 4.15198 -1.68268 0
M  V30 2376 C 225.769 4.24255 0.14412 0
M  V30 2377 C 223.676 5.655 -1.73099 0
M  V30 2378 H 222.606 0.751145 -0.0655475 0
M  V30 2379 H 225.257 1.63516 -0.832752 0
M  V30 2380 H 223.639 3.93608 0.434553 0
M  V30 2381 H 224.813 3.91866 -2.42441 0
M  V30 2382 H 223.128 3.62176 -2.05469 0
M  V30 2383 H 225.725 5.34547 0.128086 0
M  V30 2384 H 226.068 3.99277 1.17827 0
M  V30 2385 H 226.601 3.94389 -0.519798 0
M  V30 2386 H 223.34 5.95268 -2.74475 0
M  V30 2387 H 222.86 5.90842 -1.03274 0
M  V30 2388 H 224.539 6.29808 -1.48158 0
M  V30 2389 N 224.671 0.411399 1.52136 0
M  V30 2390 C 225.919 -0.163322 2.01439 0
M  V30 2391 C 226.24 -1.45453 1.29879 0
M  V30 2392 O 225.51 -1.91225 0.4254 0
M  V30 2393 H 224.09 -0.0633447 0.744309 0
M  V30 2394 H 226.752 0.548161 1.87033 0
M  V30 2395 H 225.848 -0.357817 3.10042 0
M  V30 2396 N 226.149 -1.5696 0.141893 0
M  V30 2397 C 227.096 -2.16501 -0.799737 0
M  V30 2398 C 228.066 -1.09643 -1.24771 0
M  V30 2399 O 229.251 -1.3766 -1.32115 0
M  V30 2400 C 226.391 -2.78679 -2.03549 0
M  V30 2401 C 225.504 -3.99914 -1.6338 0
M  V30 2402 C 224.639 -4.50106 -2.82096 0
M  V30 2403 C 223.678 -5.63819 -2.38275 0
M  V30 2404 N 222.815 -6.08651 -3.49983 0
M  V30 2405 H 227.655 -2.96632 -0.285179 0
M  V30 2406 H 225.192 -1.46533 -0.129053 0
M  V30 2407 H 227.15 -3.1287 -2.75986 0
M  V30 2408 H 225.78 -2.012 -2.52425 0
M  V30 2409 H 224.832 -3.71735 -0.807279 0
M  V30 2410 H 226.144 -4.82311 -1.27192 0
M  V30 2411 H 225.298 -4.86325 -3.62729 0
M  V30 2412 H 224.037 -3.66706 -3.21525 0
M  V30 2413 H 223.042 -5.2718 -1.56081 0
M  V30 2414 H 224.267 -6.49 -1.99938 0
M  V30 2415 H 222.213 -5.28188 -3.89042 0
M  V30 2416 H 222.13 -6.85961 -3.17794 0
M  V30 2417 H 223.398 -6.49515 -4.30988 0
M  V30 2418 N 227.627 0.131896 -1.57047 0
M  V30 2419 C 228.575 1.18146 -2.0036 0
M  V30 2420 C 229.569 1.43614 -0.898406 0
M  V30 2421 O 230.775 1.43729 -1.08361 0
M  V30 2422 H 227.15 0.398042 -0.638018 0
M  V30 2423 H 229.121 0.789564 -2.87765 0
M  V30 2424 C 227.87 2.50341 -2.41298 0
M  V30 2425 H 227.193 2.31578 -3.25902 0
M  V30 2426 H 228.633 3.22371 -2.75414 0
M  V30 2427 C 227.092 3.11984 -1.27153 0
M  V30 2428 O 227.622 3.97484 -0.580459 0
M  V30 2429 N 225.828 2.71662 -1.03189 0
M  V30 2430 H 225.375 2.02231 -1.59564 0
M  V30 2431 H 225.333 3.13238 -0.270077 0
M  V30 2432 N 229.106 1.52395 0.401703 0
M  V30 2433 C 230.352 1.67065 1.14966 0
M  V30 2434 C 230.685 0.403052 1.89971 0
M  V30 2435 O 229.96 -0.598774 1.85054 0
M  V30 2436 C 230.243 2.8975 2.13815 0
M  V30 2437 C 230.096 4.26578 1.42658 0
M  V30 2438 C 231.415 3.07965 3.14397 0
M  V30 2439 H 228.534 0.607968 0.416587 0
M  V30 2440 H 231.176 1.84965 0.434511 0
M  V30 2441 H 229.326 2.74619 2.74803 0
M  V30 2442 H 230.998 4.53451 0.847329 0
M  V30 2443 H 229.241 4.27639 0.72849 0
M  V30 2444 H 229.912 5.08483 2.14823 0
M  V30 2445 H 232.388 3.22043 2.63491 0
M  V30 2446 H 231.264 3.95308 3.80819 0
M  V30 2447 H 231.525 2.21611 3.82545 0
M  V30 2448 N 230.584 -0.659388 1.43143 0
M  V30 2449 C 231.534 -1.7655 1.44271 0
M  V30 2450 C 232.518 -1.57847 0.311961 0
M  V30 2451 O 233.71 -1.68064 0.555306 0
M  V30 2452 C 230.839 -3.15104 1.36251 0
M  V30 2453 C 229.925 -3.39377 2.54331 0
M  V30 2454 N 230.316 -3.34153 3.79704 0
M  V30 2455 C 228.614 -3.70072 2.48922 0
M  V30 2456 C 229.315 -3.58337 4.58225 0
M  V30 2457 N 228.291 -3.79851 3.88863 0
M  V30 2458 H 232.093 -1.70928 2.39083 0
M  V30 2459 H 229.607 -0.860823 1.37708 0
M  V30 2460 H 231.604 -3.94389 1.35141 0
M  V30 2461 H 230.264 -3.21913 0.424531 0
M  V30 2462 H 231.275 -3.13704 4.1208 0
M  V30 2463 H 227.952 -3.84034 1.63781 0
M  V30 2464 H 229.342 -3.60129 5.67236 0
M  V30 2465 N 232.062 -1.29571 -0.897171 0
M  V30 2466 C 232.992 -1.17473 -2.01798 0
M  V30 2467 C 233.973 -0.068323 -1.69963 0
M  V30 2468 O 235.158 -0.248239 -1.92607 0
M  V30 2469 C 232.288 -0.853099 -3.36659 0
M  V30 2470 C 231.242 -1.9161 -3.82713 0
M  V30 2471 C 230.568 -1.44773 -5.14728 0
M  V30 2472 C 231.868 -3.32535 -4.02763 0
M  V30 2473 H 233.562 -2.11237 -2.12177 0
M  V30 2474 H 231.108 -1.01699 -1.01948 0
M  V30 2475 H 233.061 -0.755165 -4.14578 0
M  V30 2476 H 231.785 0.120236 -3.26379 0
M  V30 2477 H 230.444 -2.00346 -3.07013 0
M  V30 2478 H 230.092 -0.462995 -5.00865 0
M  V30 2479 H 229.792 -2.15865 -5.46513 0
M  V30 2480 H 231.316 -1.36334 -5.95185 0
M  V30 2481 H 232.73 -3.26626 -4.71156 0
M  V30 2482 H 231.127 -4.01607 -4.45905 0
M  V30 2483 H 232.197 -3.75326 -3.07016 0
M  V30 2484 N 233.54 1.10788 -1.12088 0
M  V30 2485 C 234.765 1.87002 -0.896949 0
M  V30 2486 C 235.19 1.79933 0.548261 0
M  V30 2487 O 234.548 1.16662 1.38779 0
M  V30 2488 C 234.596 3.3349 -1.37174 0
M  V30 2489 O 233.7 4.08745 -0.547831 0
M  V30 2490 H 233.041 0.580397 -0.322545 0
M  V30 2491 H 235.571 1.39996 -1.49206 0
M  V30 2492 H 235.581 3.84339 -1.36922 0
M  V30 2493 H 234.256 3.37951 -2.42408 0
M  V30 2494 H 232.833 3.6776 -0.617034 0
M  V30 2495 N 235.018 0.912232 1.28515 0
M  V30 2496 C 236.266 0.543523 1.94654 0
M  V30 2497 C 236.587 -0.9155 1.72173 0
M  V30 2498 O 235.857 -1.64708 1.06058 0
M  V30 2499 H 234.437 0.198017 0.720277 0
M  V30 2500 H 237.099 1.16126 1.56527 0
M  V30 2501 H 236.195 0.736684 3.03281 0
M  V30 2502 N 236.496 -1.42363 0.676048 0
M  V30 2503 C 237.744 -2.01123 0.198437 0
M  V30 2504 C 238.065 -1.53731 -1.19966 0
M  V30 2505 O 237.335 -0.759518 -1.80577 0
M  V30 2506 H 235.915 -0.743678 0.0703721 0
M  V30 2507 H 238.577 -1.74263 0.872837 0
M  V30 2508 H 237.673 -3.11454 0.200686 0
M  V30 2509 N 237.974 -0.419461 -1.51915 0
M  V30 2510 C 239.22 0.153166 -2.02221 0
M  V30 2511 C 239.553 1.43907 -1.30401 0
M  V30 2512 O 238.828 1.90055 -0.413438 0
M  V30 2513 C 239.111 0.390291 -3.57979 0
M  V30 2514 C 238.964 -0.913014 -4.40436 0
M  V30 2515 C 240.283 1.16794 -4.2432 0
M  V30 2516 H 237.402 0.0541924 -0.735005 0
M  V30 2517 H 240.044 -0.554955 -1.81715 0
M  V30 2518 H 238.194 0.993491 -3.75582 0
M  V30 2519 H 239.866 -1.54882 -4.34522 0
M  V30 2520 H 238.109 -1.52168 -4.06236 0
M  V30 2521 H 238.78 -0.701361 -5.47526 0
M  V30 2522 H 241.256 0.657161 -4.10878 0
M  V30 2523 H 240.132 1.3026 -5.3322 0
M  V30 2524 H 240.393 2.19132 -3.83971 0
M  V30 2525 N 239.452 1.56882 -0.150215 0
M  V30 2526 C 240.7 1.9584 0.499105 0
M  V30 2527 C 241.021 1.03623 1.65188 0
M  V30 2528 O 240.291 0.0984084 1.95653 0
M  V30 2529 H 238.871 0.723119 0.187373 0
M  V30 2530 H 241.533 1.9358 -0.226466 0
M  V30 2531 H 240.629 2.99638 0.873122 0
M  V30 2532 N 240.93 -0.123565 1.57115 0
M  V30 2533 C 242.179 -0.830704 1.83799 0
M  V30 2534 C 242.492 -1.81259 0.735158 0
M  V30 2535 O 243.698 -2.56558 0.888278 0
M  V30 2536 C 242.154 -1.52802 3.25852 0
M  V30 2537 C 241.762 -0.587356 4.44133 0
M  V30 2538 C 243.506 -2.22056 3.61789 0
M  V30 2539 C 241.413 -1.28764 5.77212 0
M  V30 2540 H 240.343 -0.313967 0.685522 0
M  V30 2541 H 242.994 -0.0834359 1.8331 0
M  V30 2542 H 241.376 -2.32175 3.20797 0
M  V30 2543 H 242.55 0.172829 4.60476 0
M  V30 2544 H 240.865 -0.00201892 4.164 0
M  V30 2545 H 243.462 -2.75131 4.58483 0
M  V30 2546 H 243.805 -2.99644 2.88997 0
M  V30 2547 H 244.338 -1.49576 3.68608 0
M  V30 2548 H 241.077 -0.55314 6.53162 0
M  V30 2549 H 240.597 -2.01995 5.64764 0
M  V30 2550 H 242.276 -1.8221 6.20813 0
M  V30 2551 N 242.408 -1.52605 -0.393616 0
M  V30 2552 C 243.656 -1.67093 -1.13685 0
M  V30 2553 C 243.977 -0.411011 -1.90619 0
M  V30 2554 O 243.247 0.574491 -1.87287 0
M  V30 2555 H 241.827 -0.615923 -0.422668 0
M  V30 2556 H 244.489 -1.89704 -0.447039 0
M  V30 2557 H 243.585 -2.51922 -1.84232 0
M  V30 2558 N 243.887 0.651787 -1.4349 0
M  V30 2559 C 245.135 1.40888 -1.44897 0
M  V30 2560 C 245.456 1.94856 -0.0749086 0
M  V30 2561 O 244.726 1.74518 0.889956 0
M  V30 2562 H 243.306 0.522887 -0.533478 0
M  V30 2563 H 245.968 0.768609 -1.79104 0
M  V30 2564 H 245.064 2.25052 -2.16236 0
M  V30 2565 N 245.365 1.30045 0.890287 0
M  V30 2566 C 246.611 1.18737 1.64406 0
M  V30 2567 C 246.944 -0.258525 1.92472 0
M  V30 2568 O 246.219 -1.18562 1.54186 0
M  V30 2569 C 246.502 2.01087 2.98724 0
M  V30 2570 C 246.355 3.53867 2.77665 0
M  V30 2571 C 247.674 1.84457 3.9958 0
M  V30 2572 H 244.793 0.432698 0.596608 0
M  V30 2573 H 247.435 1.5962 1.0306 0
M  V30 2574 H 245.585 1.66349 3.51084 0
M  V30 2575 H 247.257 3.98637 2.32133 0
M  V30 2576 H 245.5 3.78318 2.12269 0
M  V30 2577 H 246.171 4.06772 3.7315 0
M  V30 2578 H 248.647 2.14817 3.56361 0
M  V30 2579 H 247.523 2.44411 4.91482 0
M  V30 2580 H 247.784 0.802276 4.3476 0
M  V30 2581 N 246.843 -1.10192 1.12674 0
M  V30 2582 C 247.773 -2.18652 0.819362 0
M  V30 2583 C 248.754 -1.68698 -0.217915 0
M  V30 2584 O 249.939 -1.94041 -0.0785581 0
M  V30 2585 C 247.069 -3.46202 0.27594 0
M  V30 2586 C 246.023 -4.09444 1.24656 0
M  V30 2587 C 245.349 -5.31725 0.563258 0
M  V30 2588 C 246.649 -4.52863 2.60217 0
M  V30 2589 H 248.343 -2.44622 1.72628 0
M  V30 2590 H 245.889 -1.17571 0.831451 0
M  V30 2591 H 247.842 -4.21372 0.0486149 0
M  V30 2592 H 246.566 -3.1973 -0.666331 0
M  V30 2593 H 245.225 -3.36284 1.45974 0
M  V30 2594 H 244.873 -5.0153 -0.384235 0
M  V30 2595 H 244.573 -5.74991 1.21075 0
M  V30 2596 H 246.097 -6.09624 0.34503 0
M  V30 2597 H 247.511 -5.19294 2.42913 0
M  V30 2598 H 245.908 -5.06986 3.21068 0
M  V30 2599 H 246.978 -3.65656 3.18471 0
M  V30 2600 N 248.321 -0.919034 -1.28029 0
M  V30 2601 C 249.231 -0.416756 -2.30869 0
M  V30 2602 C 250.247 0.498235 -1.66714 0
M  V30 2603 O 251.423 0.383144 -1.97722 0
M  V30 2604 C 248.488 0.330274 -3.45123 0
M  V30 2605 C 247.549 -0.618578 -4.2482 0
M  V30 2606 C 246.782 0.0928959 -5.33619 0
M  V30 2607 O 247.005 1.31375 -5.55065 0
M  V30 2608 O 245.939 -0.574499 -5.99152 0
M  V30 2609 H 249.765 -1.27043 -2.75851 0
M  V30 2610 H 247.35 -0.684052 -1.3282 0
M  V30 2611 H 249.232 0.751972 -4.14636 0
M  V30 2612 H 247.907 1.1597 -3.02213 0
M  V30 2613 H 246.814 -1.08978 -3.57875 0
M  V30 2614 H 248.147 -1.41497 -4.71423 0
M  V30 2615 N 249.799 1.42003 -0.683588 0
M  V30 2616 C 251.21 1.84501 -0.285736 0
M  V30 2617 C 251.561 1.57213 1.17382 0
M  V30 2618 O 250.686 1.03642 1.89966 0
M  V30 2619 C 251.281 3.34912 -0.511821 0
M  V30 2620 C 249.84 3.76025 -0.168005 0
M  V30 2621 C 248.987 2.6551 -0.799983 0
M  V30 2622 H 251.938 1.31724 -0.885119 0
M  V30 2623 H 251.959 3.79784 0.233292 0
M  V30 2624 H 251.471 3.54741 -1.57418 0
M  V30 2625 H 249.572 3.61801 0.890567 0
M  V30 2626 H 249.685 4.75141 -0.614661 0
M  V30 2627 H 248.049 2.53654 -0.230568 0
M  V30 2628 H 248.832 2.8816 -1.86597 0
M  V30 2629 N 251.277 0.427512 1.51691 0
M  V30 2630 C 252.207 -0.3796 2.30394 0
M  V30 2631 C 253.188 -1.02982 1.35384 0
M  V30 2632 O 254.373 -1.03534 1.643 0
M  V30 2633 C 251.503 -1.48649 3.1388 0
M  V30 2634 C 250.457 -0.960294 4.17088 0
M  V30 2635 C 249.783 -2.16219 4.89033 0
M  V30 2636 C 251.083 -0.00153679 5.223 0
M  V30 2637 H 252.777 0.277164 2.98114 0
M  V30 2638 H 250.323 0.134739 1.43368 0
M  V30 2639 H 252.276 -2.05826 3.67714 0
M  V30 2640 H 251 -2.1714 2.43962 0
M  V30 2641 H 249.659 -0.410806 3.64291 0
M  V30 2642 H 249.307 -2.83307 4.15628 0
M  V30 2643 H 249.007 -1.81654 5.58816 0
M  V30 2644 H 250.531 -2.73968 5.45687 0
M  V30 2645 H 251.945 -0.482687 5.71264 0
M  V30 2646 H 250.342 0.256199 5.99553 0
M  V30 2647 H 251.412 0.938174 4.75738 0
M  V30 2648 N 252.755 -1.56801 0.158532 0
M  V30 2649 C 253.687 -2.14488 -0.807923 0
M  V30 2650 C 254.7 -1.09721 -1.20271 0
M  V30 2651 O 255.889 -1.36956 -1.14478 0
M  V30 2652 C 252.989 -2.66217 -2.09718 0
M  V30 2653 C 252.162 -3.95507 -1.86796 0
M  V30 2654 C 251.221 -4.3243 -2.99818 0
M  V30 2655 O 250.247 -5.00543 -2.71008 0
M  V30 2656 N 251.449 -3.92947 -4.27285 0
M  V30 2657 H 254.214 -2.98042 -0.314816 0
M  V30 2658 H 251.775 -1.61881 -0.0246692 0
M  V30 2659 H 253.767 -2.87924 -2.84398 0
M  V30 2660 H 252.337 -1.87324 -2.50257 0
M  V30 2661 H 251.557 -3.82309 -0.96089 0
M  V30 2662 H 252.845 -4.79972 -1.68833 0
M  V30 2663 H 252.243 -3.38087 -4.53557 0
M  V30 2664 H 250.8 -4.19681 -4.9871 0
M  V30 2665 N 254.233 0.115231 -1.57178 0
M  V30 2666 C 255.196 1.12526 -1.99676 0
M  V30 2667 C 256.196 1.34095 -0.88742 0
M  V30 2668 O 257.386 1.30548 -1.15337 0
M  V30 2669 C 254.518 2.4789 -2.34015 0
M  V30 2670 H 255.711 0.759912 -2.90113 0
M  V30 2671 H 253.264 0.359648 -1.52106 0
M  V30 2672 H 253.999 2.89339 -1.4647 0
M  V30 2673 H 253.784 2.33588 -3.14927 0
M  V30 2674 H 255.274 3.20575 -2.67622 0
M  V30 2675 N 255.711 1.52812 0.385517 0
M  V30 2676 C 256.659 1.78482 1.49155 0
M  V30 2677 C 257.653 0.652914 1.56312 0
M  V30 2678 O 258.859 0.835464 1.59436 0
M  V30 2679 H 255.234 0.5648 0.496493 0
M  V30 2680 H 257.205 2.71095 1.24699 0
M  V30 2681 C 255.954 1.97378 2.86247 0
M  V30 2682 H 255.277 2.83907 2.81491 0
M  V30 2683 H 256.717 2.19327 3.62866 0
M  V30 2684 C 255.176 0.74728 3.28508 0
M  V30 2685 O 255.706 -0.0736232 4.01633 0
M  V30 2686 N 253.912 0.576396 2.84826 0
M  V30 2687 H 253.459 1.24555 2.25486 0
M  V30 2688 H 253.417 -0.24288 3.1346 0
M  V30 2689 N 257.189 -0.644168 1.43834 0
M  V30 2690 C 258.6 -1.22554 1.40845 0
M  V30 2691 C 258.951 -1.9585 0.117115 0
M  V30 2692 O 258.076 -2.01734 -0.783086 0
M  V30 2693 C 258.671 -2.22907 2.55143 0
M  V30 2694 C 257.23 -2.76501 2.5539 0
M  V30 2695 C 256.377 -1.51287 2.32396 0
M  V30 2696 H 259.328 -0.43563 1.52604 0
M  V30 2697 H 259.349 -3.05259 2.2715 0
M  V30 2698 H 258.861 -1.69533 3.49114 0
M  V30 2699 H 256.962 -3.33914 1.65324 0
M  V30 2700 H 257.075 -3.23429 3.53455 0
M  V30 2701 H 255.439 -1.78957 1.81236 0
M  V30 2702 H 256.222 -0.998336 3.28463 0
M  V30 2703 N 258.668 -1.30515 -0.883378 0
M  V30 2704 C 259.896 -1.22359 -1.66841 0
M  V30 2705 C 260.311 0.213296 -1.87591 0
M  V30 2706 O 259.668 1.14075 -1.42454 0
M  V30 2707 C 259.719 -1.95011 -3.04389 0
M  V30 2708 O 259.44 -3.3309 -2.84575 0
M  V30 2709 C 260.941 -1.93532 -3.98824 0
M  V30 2710 H 258.161 -0.423371 -0.520575 0
M  V30 2711 H 260.705 -1.72167 -1.10357 0
M  V30 2712 H 258.86 -1.48997 -3.57601 0
M  V30 2713 H 259.274 -3.69907 -3.71846 0
M  V30 2714 H 260.748 -2.48902 -4.92699 0
M  V30 2715 H 261.225 -0.914627 -4.29571 0
M  V30 2716 H 261.831 -2.39364 -3.51547 0
M  V30 2717 N 260.146 1.09593 -1.13257 0
M  V30 2718 C 261.395 1.81105 -0.887917 0
M  V30 2719 C 261.708 1.86563 0.587672 0
M  V30 2720 O 262.914 2.54367 0.949204 0
M  V30 2721 C 261.37 3.25338 -1.53895 0
M  V30 2722 C 260.978 3.28151 -3.04994 0
M  V30 2723 C 262.722 4.01617 -1.37492 0
M  V30 2724 C 260.629 4.66897 -3.6299 0
M  V30 2725 H 259.559 0.678661 -0.328534 0
M  V30 2726 H 262.21 1.23183 -1.36008 0
M  V30 2727 H 260.592 3.8331 -0.994446 0
M  V30 2728 H 261.766 2.79953 -3.66009 0
M  V30 2729 H 260.081 2.65361 -3.20893 0
M  V30 2730 H 262.678 5.04119 -1.78235 0
M  V30 2731 H 263.021 4.15072 -0.31957 0
M  V30 2732 H 263.554 3.50082 -1.88912 0
M  V30 2733 H 260.293 4.58643 -4.68323 0
M  V30 2734 H 259.813 5.15426 -3.06752 0
M  V30 2735 H 261.492 5.3587 -3.62563 0
M  V30 2736 N 261.624 0.925811 1.2754 0
M  V30 2737 C 262.873 0.561084 1.93739 0
M  V30 2738 C 263.186 -0.901685 1.73577 0
M  V30 2739 O 264.392 -1.37511 2.34101 0
M  V30 2740 C 262.848 0.952668 3.47062 0
M  V30 2741 C 262.456 2.43599 3.75983 0
M  V30 2742 C 264.2 0.659103 4.19352 0
M  V30 2743 C 262.107 2.76707 5.22673 0
M  V30 2744 H 261.037 0.206122 0.725279 0
M  V30 2745 H 263.688 1.12637 1.44863 0
M  V30 2746 H 262.07 0.316053 3.94737 0
M  V30 2747 H 263.244 3.12035 3.39073 0
M  V30 2748 H 261.559 2.70125 3.16893 0
M  V30 2749 H 264.156 0.882985 5.27359 0
M  V30 2750 H 264.499 -0.403607 4.14339 0
M  V30 2751 H 265.032 1.25473 3.77494 0
M  V30 2752 H 261.771 3.8188 5.32774 0
M  V30 2753 H 261.291 2.12919 5.60737 0
M  V30 2754 H 262.97 2.6435 5.90532 0
M  V30 2755 N 263.102 -1.41638 0.69111 0
M  V30 2756 C 264.012 -2.34588 0.0233487 0
M  V30 2757 C 265.028 -1.55987 -0.770984 0
M  V30 2758 O 266.204 -1.88486 -0.709569 0
M  V30 2759 C 263.269 -3.34684 -0.904851 0
M  V30 2760 C 262.33 -4.29176 -0.103225 0
M  V30 2761 C 261.563 -5.2449 -0.987216 0
M  V30 2762 O 261.786 -5.2514 -2.22674 0
M  V30 2763 O 260.72 -6.00295 -0.439281 0
M  V30 2764 H 264.546 -2.93261 0.789416 0
M  V30 2765 H 262.131 -1.42417 0.45142 0
M  V30 2766 H 264.013 -3.96133 -1.43724 0
M  V30 2767 H 262.688 -2.78461 -1.65049 0
M  V30 2768 H 261.595 -3.71089 0.473655 0
M  V30 2769 H 262.928 -4.88484 0.60365 0
M  V30 2770 N 264.58 -0.43555 -1.51462 0
M  V30 2771 C 265.857 0.191364 -1.94662 0
M  V30 2772 C 266.237 1.60254 -1.37411 0
M  V30 2773 O 265.585 2.2152 -0.560458 0
M  V30 2774 C 265.795 0.17091 -3.48581 0
M  V30 2775 C 267.143 0.377357 -4.2292 0
M  V30 2776 O 268.167 0.249104 -3.55328 0
M  V30 2777 O 267.026 0.63247 -5.42828 0
M  V30 2778 H 264.12 0.130932 -0.816569 0
M  V30 2779 H 266.666 -0.4934 -1.62369 0
M  V30 2780 H 265.438 -0.815738 -3.82703 0
M  V30 2781 H 265.061 0.898659 -3.87311 0
M  V30 2782 N 266.058 1.56714 -0.166846 0
M  V30 2783 C 267.006 2.19056 0.782123 0
M  V30 2784 C 268 1.15328 1.24079 0
M  V30 2785 O 269.206 1.33537 1.20697 0
M  V30 2786 H 265.581 0.70167 0.270486 0
M  V30 2787 H 267.552 2.97494 0.232322 0
M  V30 2788 C 266.301 2.84206 2.00306 0
M  V30 2789 H 265.624 3.63748 1.65914 0
M  V30 2790 H 267.064 3.31302 2.64604 0
M  V30 2791 C 265.523 1.83744 2.82382 0
M  V30 2792 O 266.053 1.32014 3.79388 0
M  V30 2793 N 264.259 1.52601 2.47308 0
M  V30 2794 H 263.806 1.9486 1.68485 0
M  V30 2795 H 263.764 0.856351 3.02513 0
M  V30 2796 N 267.536 -0.106894 1.57237 0
M  V30 2797 C 268.776 -0.818277 1.87306 0
M  V30 2798 C 269.14 -1.76474 0.756371 0
M  V30 2799 O 270.341 -2.5186 0.939155 0
M  V30 2800 C 268.612 -1.53806 3.22612 0
M  V30 2801 S 270.171 -2.28935 3.74345 0
M  V30 2802 H 266.989 -0.272862 0.656557 0
M  V30 2803 H 269.591 -0.075988 1.95352 0
M  V30 2804 H 268.295 -0.834951 4.01817 0
M  V30 2805 H 267.826 -2.32049 3.17674 0
M  V30 2806 H 269.841 -3.54871 3.46815 0
M  V30 2807 N 269.014 -1.53014 -0.377408 0
M  V30 2808 C 270.261 -1.68623 -1.12128 0
M  V30 2809 C 270.589 -0.431997 -1.89642 0
M  V30 2810 O 269.844 0.585855 -1.86725 0
M  V30 2811 C 270.143 -2.87982 -2.11663 0
M  V30 2812 C 269.809 -4.24964 -1.50719 0
M  V30 2813 C 268.471 -4.62217 -1.33825 0
M  V30 2814 C 270.823 -5.10199 -1.06519 0
M  V30 2815 C 268.151 -5.82352 -0.712963 0
M  V30 2816 C 270.503 -6.30969 -0.453955 0
M  V30 2817 C 269.167 -6.66944 -0.272411 0
M  V30 2818 H 268.437 -0.617034 -0.410305 0
M  V30 2819 H 271.084 -1.8718 -0.404484 0
M  V30 2820 H 269.389 -2.63889 -2.89603 0
M  V30 2821 H 271.086 -2.97253 -2.6915 0
M  V30 2822 H 267.676 -3.95626 -1.64858 0
M  V30 2823 H 271.86 -4.81978 -1.18368 0
M  V30 2824 H 267.116 -6.08824 -0.560611 0
M  V30 2825 H 271.29 -6.96324 -0.103217 0
M  V30 2826 H 268.917 -7.59898 0.214181 0
M  V30 2827 N 270.492 0.636531 -1.44174 0
M  V30 2828 C 271.741 1.39213 -1.45954 0
M  V30 2829 C 272.054 1.95374 -0.0939119 0
M  V30 2830 O 273.26 2.71498 0.0107767 0
M  V30 2831 C 271.716 2.52025 -2.56927 0
M  V30 2832 C 271.324 2.024 -3.99673 0
M  V30 2833 C 273.068 3.29269 -2.67922 0
M  V30 2834 C 270.975 3.12521 -5.0208 0
M  V30 2835 H 269.905 0.523132 -0.542999 0
M  V30 2836 H 272.556 0.685349 -1.70221 0
M  V30 2837 H 270.938 3.25253 -2.25891 0
M  V30 2838 H 272.112 1.36073 -4.40251 0
M  V30 2839 H 270.427 1.37987 -3.92872 0
M  V30 2840 H 273.024 4.11352 -3.41605 0
M  V30 2841 H 273.367 3.78397 -1.73555 0
M  V30 2842 H 273.9 2.63129 -2.98342 0
M  V30 2843 H 270.639 2.68343 -5.98057 0
M  V30 2844 H 270.159 3.77507 -4.66099 0
M  V30 2845 H 271.838 3.77385 -5.25538 0
M  V30 2846 N 271.97 1.30982 0.876444 0
M  V30 2847 C 273.218 1.20058 1.62575 0
M  V30 2848 C 273.539 -0.242947 1.93481 0
M  V30 2849 O 272.809 -1.1619 1.57724 0
M  V30 2850 H 271.389 0.44135 0.602677 0
M  V30 2851 H 274.051 1.64222 1.04962 0
M  V30 2852 H 273.147 1.76762 2.57219 0
M  V30 2853 N 273.449 -1.08991 1.13837 0
M  V30 2854 C 274.412 -2.13925 0.822715 0
M  V30 2855 C 275.412 -1.599 -0.1699 0
M  V30 2856 O 276.602 -1.74104 0.0577251 0
M  V30 2857 C 273.734 -3.40155 0.225318 0
M  V30 2858 H 274.927 -2.43358 1.75262 0
M  V30 2859 H 272.48 -1.24603 0.943594 0
M  V30 2860 H 273.215 -3.16352 -0.713594 0
M  V30 2861 H 273 -3.80661 0.940193 0
M  V30 2862 H 274.49 -4.17594 0.0214784 0
M  V30 2863 N 274.927 -0.932562 -1.27047 0
M  V30 2864 C 276.343 -0.633544 -1.46487 0
M  V30 2865 C 276.543 0.815746 -1.84249 0
M  V30 2866 O 275.599 1.59319 -1.95892 0
M  V30 2867 C 276.912 -1.58758 -2.55375 0
M  V30 2868 C 278.46 -1.59634 -2.69232 0
M  V30 2869 C 278.935 -2.53747 -3.81283 0
M  V30 2870 N 280.426 -2.51982 -3.88664 0
M  V30 2871 C 281.161 -3.21491 -4.74796 0
M  V30 2872 N 280.657 -4.00395 -5.65381 0
M  V30 2873 N 282.45 -3.10485 -4.68568 0
M  V30 2874 H 274.601 -1.86946 -1.00821 0
M  V30 2875 H 276.864 -0.802897 -0.504044 0
M  V30 2876 H 276.57 -2.62172 -2.34432 0
M  V30 2877 H 276.444 -1.33301 -3.52861 0
M  V30 2878 H 278.831 -0.569488 -2.89553 0
M  V30 2879 H 278.912 -1.89142 -1.72218 0
M  V30 2880 H 278.556 -3.56545 -3.61715 0
M  V30 2881 H 278.486 -2.21532 -4.77735 0
M  V30 2882 H 280.977 -1.94681 -3.23895 0
M  V30 2883 H 281.29 -4.50406 -6.27976 0
M  V30 2884 H 279.635 -4.04498 -5.65161 0
M  V30 2885 H 282.826 -2.48331 -3.96799 0
M  V30 2886 H 282.999 -3.64925 -5.35475 0
M  V30 2887 N 276.405 1.4127 -0.698611 0
M  V30 2888 C 277.63 2.06024 -0.238512 0
M  V30 2889 C 278.055 1.5224 1.10475 0
M  V30 2890 O 277.413 0.650623 1.69223 0
M  V30 2891 C 277.461 3.59988 -0.209952 0
M  V30 2892 O 276.565 4.04282 0.814235 0
M  V30 2893 H 275.906 0.653829 -0.115775 0
M  V30 2894 H 278.436 1.8098 -0.954326 0
M  V30 2895 H 278.446 4.07979 -0.0418436 0
M  V30 2896 H 277.121 3.98503 -1.1903 0
M  V30 2897 H 275.698 3.6779 0.615234 0
M  V30 2898 N 277.883 0.443576 1.51229 0
M  V30 2899 C 278.793 -0.370721 2.31652 0
M  V30 2900 C 279.809 -1.02186 1.40833 0
M  V30 2901 O 280.985 -1.01586 1.73903 0
M  V30 2902 C 278.05 -1.45376 3.14749 0
M  V30 2903 C 277.111 -0.822099 4.21355 0
M  V30 2904 C 276.344 -1.85353 5.0048 0
M  V30 2905 O 276.567 -3.07656 4.80316 0
M  V30 2906 O 275.501 -1.4406 5.84406 0
M  V30 2907 H 279.327 0.286002 3.0235 0
M  V30 2908 H 276.912 0.20598 1.47973 0
M  V30 2909 H 278.794 -2.08173 3.66391 0
M  V30 2910 H 277.469 -2.09445 2.46809 0
M  V30 2911 H 276.376 -0.155909 3.73775 0
M  V30 2912 H 277.709 -0.224797 4.91686 0
M  V30 2913 N 279.361 -1.56624 0.175154 0
M  V30 2914 C 280.607 -1.9729 -0.469506 0
M  V30 2915 C 280.94 -1.06128 -1.62636 0
M  V30 2916 O 280.215 -0.109183 -1.94193 0
M  V30 2917 C 280.498 -3.47375 -0.948804 0
M  V30 2918 C 280.351 -4.49317 0.208491 0
M  V30 2919 C 281.67 -4.00652 -1.82116 0
M  V30 2920 H 278.789 -0.717317 -0.16919 0
M  V30 2921 H 281.431 -1.88184 0.262062 0
M  V30 2922 H 279.581 -3.55267 -1.57219 0
M  V30 2923 H 281.253 -4.53482 0.845682 0
M  V30 2924 H 279.496 -4.25121 0.863395 0
M  V30 2925 H 280.167 -5.51741 -0.169059 0
M  V30 2926 H 282.643 -3.95416 -1.2956 0
M  V30 2927 H 281.519 -5.06075 -2.12554 0
M  V30 2928 H 281.78 -3.44699 -2.7683 0
M  V30 2929 N 280.839 0.0985539 -1.57292 0
M  V30 2930 C 282.085 0.803867 -1.86188 0
M  V30 2931 C 282.418 1.78549 -0.763794 0
M  V30 2932 O 281.693 1.93153 0.22855 0
M  V30 2933 C 281.976 1.53568 -3.25713 0
M  V30 2934 C 281.829 0.572277 -4.46145 0
M  V30 2935 C 283.148 2.48708 -3.63087 0
M  V30 2936 H 280.267 0.290781 -0.677211 0
M  V30 2937 H 282.909 0.0675783 -1.8988 0
M  V30 2938 H 281.059 2.16332 -3.22696 0
M  V30 2939 H 282.731 -0.0480894 -4.61275 0
M  V30 2940 H 280.974 -0.114618 -4.33649 0
M  V30 2941 H 281.645 1.12139 -5.40489 0
M  V30 2942 H 284.121 1.96039 -3.67026 0
M  V30 2943 H 282.997 2.96932 -4.61652 0
M  V30 2944 H 283.258 3.32309 -2.91588 0
M  V30 2945 N 282.317 1.53212 0.369288 0
M  V30 2946 C 283.227 1.82342 1.47609 0
M  V30 2947 C 284.243 0.711532 1.58787 0
M  V30 2948 O 285.419 1.0012 1.74751 0
M  V30 2949 C 282.484 2.00393 2.8292 0
M  V30 2950 C 281.545 3.24297 2.81301 0
M  V30 2951 C 280.778 3.41478 4.10157 0
M  V30 2952 O 281.001 2.63033 5.06132 0
M  V30 2953 O 279.935 4.34817 4.16194 0
M  V30 2954 H 283.761 2.76366 1.25918 0
M  V30 2955 H 281.346 1.38547 0.559034 0
M  V30 2956 H 283.228 2.13859 3.63101 0
M  V30 2957 H 281.903 1.09559 3.04596 0
M  V30 2958 H 280.81 3.16257 1.99831 0
M  V30 2959 H 282.143 4.15041 2.64578 0
M  V30 2960 N 283.795 -0.628877 1.44509 0
M  V30 2961 C 285.043 -1.38565 1.4712 0
M  V30 2962 C 285.364 -1.94712 0.105899 0
M  V30 2963 O 284.634 -1.75912 -0.862079 0
M  V30 2964 H 283.214 -0.514333 0.541729 0
M  V30 2965 H 285.876 -0.740018 1.80305 0
M  V30 2966 H 284.972 -2.21583 2.19789 0
M  V30 2967 N 285.273 -1.31445 -0.869486 0
M  V30 2968 C 286.519 -1.21337 -1.62496 0
M  V30 2969 C 286.852 0.227872 -1.92858 0
M  V30 2970 O 286.127 1.16094 -1.56053 0
M  V30 2971 C 286.41 -2.05814 -2.95487 0
M  V30 2972 C 286.263 -3.5824 -2.72 0
M  V30 2973 C 287.582 -1.9079 -3.96594 0
M  V30 2974 H 284.701 -0.442135 -0.589649 0
M  V30 2975 H 287.343 -1.6124 -1.00507 0
M  V30 2976 H 285.493 -1.71913 -3.48394 0
M  V30 2977 H 287.165 -4.0228 -2.25762 0
M  V30 2978 H 285.408 -3.81647 -2.06224 0
M  V30 2979 H 286.079 -4.12657 -3.66631 0
M  V30 2980 H 288.555 -2.20459 -3.52898 0
M  V30 2981 H 287.431 -2.52199 -4.87531 0
M  V30 2982 H 287.692 -0.871341 -4.33428 0
M  V30 2983 N 286.751 1.08385 -1.14413 0
M  V30 2984 C 288 1.80153 -0.907076 0
M  V30 2985 C 288.313 1.87176 0.567851 0
M  V30 2986 O 289.519 2.55359 0.922172 0
M  V30 2987 C 287.975 3.23687 -1.57336 0
M  V30 2988 C 287.583 3.24897 -3.08457 0
M  V30 2989 C 289.327 4.00136 -1.41744 0
M  V30 2990 C 287.234 4.6302 -3.67921 0
M  V30 2991 H 286.164 0.675139 -0.335714 0
M  V30 2992 H 288.815 1.21733 -1.37307 0
M  V30 2993 H 287.197 3.82234 -1.03505 0
M  V30 2994 H 288.371 2.76055 -3.68958 0
M  V30 2995 H 286.686 2.61943 -3.2369 0
M  V30 2996 H 289.283 5.02201 -1.83572 0
M  V30 2997 H 289.626 4.14709 -0.363576 0
M  V30 2998 H 290.159 3.48058 -1.92614 0
M  V30 2999 H 286.898 4.5365 -4.73161 0
M  V30 3000 H 286.418 5.12143 -3.12201 0
M  V30 3001 H 288.097 5.31994 -3.68227 0
M  V30 3002 N 288.23 0.939286 1.26551 0
M  V30 3003 C 289.476 0.586715 1.94128 0
M  V30 3004 C 289.809 -0.8717 1.73537 0
M  V30 3005 O 289.084 -1.62339 1.07127 0
M  V30 3006 C 289.367 0.927497 3.4795 0
M  V30 3007 C 289.22 2.44052 3.77834 0
M  V30 3008 C 290.539 0.441569 4.37879 0
M  V30 3009 H 287.658 0.21463 0.705055 0
M  V30 3010 H 290.3 1.17316 1.49455 0
M  V30 3011 H 288.45 0.428431 3.8613 0
M  V30 3012 H 290.122 3.01216 3.4938 0
M  V30 3013 H 288.365 2.8848 3.23978 0
M  V30 3014 H 289.036 2.62947 4.85348 0
M  V30 3015 H 291.512 0.869448 4.06915 0
M  V30 3016 H 290.388 0.708856 5.44304 0
M  V30 3017 H 290.649 -0.658467 4.37169 0
M  V30 3018 N 289.708 -1.40897 0.706093 0
M  V30 3019 C 290.618 -2.3455 0.0482286 0
M  V30 3020 C 291.634 -1.56796 -0.754396 0
M  V30 3021 O 292.81 -1.89228 -0.689538 0
M  V30 3022 C 289.875 -3.35625 -0.869303 0
M  V30 3023 C 288.936 -4.29261 -0.0576994 0
M  V30 3024 C 288.169 -5.25508 -0.931531 0
M  V30 3025 O 288.392 -5.27472 -2.17092 0
M  V30 3026 O 287.326 -6.00727 -0.375587 0
M  V30 3027 H 291.152 -2.92407 0.820476 0
M  V30 3028 H 288.737 -1.4193 0.4665 0
M  V30 3029 H 290.619 -3.97635 -1.39514 0
M  V30 3030 H 289.294 -2.80196 -1.62086 0
M  V30 3031 H 288.201 -3.70566 0.512988 0
M  V30 3032 H 289.534 -4.87817 0.655426 0
M  V30 3033 N 291.186 -0.45159 -1.50991 0
M  V30 3034 C 292.096 0.358431 -2.31846 0
M  V30 3035 C 293.112 1.01438 -1.41373 0
M  V30 3036 O 294.288 1.00663 -1.74439 0
M  V30 3037 C 291.353 1.43704 -3.15515 0
M  V30 3038 C 290.414 0.799742 -4.21785 0
M  V30 3039 C 289.647 1.82696 -5.01456 0
M  V30 3040 O 289.87 3.05105 -4.81941 0
M  V30 3041 O 288.804 1.40958 -5.85162 0
M  V30 3042 H 292.63 -0.302032 -3.02194 0
M  V30 3043 H 290.215 -0.213825 -1.47862 0
M  V30 3044 H 292.097 2.06227 -3.67489 0
M  V30 3045 H 290.772 2.08133 -2.47916 0
M  V30 3046 H 289.679 0.136084 -3.73852 0
M  V30 3047 H 291.012 0.198718 -4.91799 0
M  V30 3048 N 292.664 1.56529 -0.183458 0
M  V30 3049 C 293.912 1.96855 0.457452 0
M  V30 3050 C 294.233 1.07104 1.62953 0
M  V30 3051 O 293.503 0.139887 1.954 0
M  V30 3052 H 292.083 0.72693 0.171992 0
M  V30 3053 H 294.745 1.93056 -0.267476 0
M  V30 3054 H 293.841 3.01423 0.809368 0
M  V30 3055 N 294.142 -0.090211 1.57342 0
M  V30 3056 C 295.367 -0.810082 1.90925 0
M  V30 3057 C 295.792 -1.71248 0.778187 0
M  V30 3058 O 295.15 -1.79278 -0.269991 0
M  V30 3059 C 295.198 -1.59529 3.23393 0
M  V30 3060 O 294.302 -2.70461 3.11327 0
M  V30 3061 H 293.643 -0.222231 0.625707 0
M  V30 3062 H 296.173 -0.0639716 2.045 0
M  V30 3063 H 296.183 -1.97847 3.5682 0
M  V30 3064 H 294.858 -0.933055 4.05299 0
M  V30 3065 H 293.435 -2.35135 2.89423 0
M  V30 3066 N 295.62 -1.53406 -0.361157 0
M  V30 3067 C 296.866 -1.70054 -1.10496 0
M  V30 3068 C 297.199 -0.453278 -1.88836 0
M  V30 3069 O 296.474 0.5495 -1.86576 0
M  V30 3070 C 296.757 -2.95317 -2.06058 0
M  V30 3071 C 296.61 -4.3021 -1.31298 0
M  V30 3072 C 297.929 -3.16193 -3.06121 0
M  V30 3073 H 295.048 -0.618799 -0.400321 0
M  V30 3074 H 297.69 -1.86052 -0.385318 0
M  V30 3075 H 295.84 -2.81809 -2.67425 0
M  V30 3076 H 297.512 -4.55538 -0.726807 0
M  V30 3077 H 295.755 -4.29421 -0.614853 0
M  V30 3078 H 296.426 -5.14 -2.01265 0
M  V30 3079 H 298.902 -3.28916 -2.5486 0
M  V30 3080 H 297.778 -4.05266 -3.70204 0
M  V30 3081 H 298.039 -2.31676 -3.76535 0
M  V30 3082 N 297.098 0.621204 -1.44841 0
M  V30 3083 C 298.347 1.37658 -1.47422 0
M  V30 3084 C 298.66 1.95264 -0.114629 0
M  V30 3085 O 299.866 2.71494 -0.0180199 0
M  V30 3086 C 298.322 2.49285 -2.59586 0
M  V30 3087 C 297.93 1.98149 -4.01797 0
M  V30 3088 C 299.674 3.26409 -2.71399 0
M  V30 3089 C 297.581 3.07178 -5.05367 0
M  V30 3090 H 296.511 0.517344 -0.548517 0
M  V30 3091 H 299.162 0.667257 -1.70938 0
M  V30 3092 H 297.544 3.22839 -2.29328 0
M  V30 3093 H 298.718 1.31395 -4.41669 0
M  V30 3094 H 297.033 1.33812 -3.94314 0
M  V30 3095 H 299.63 4.07706 -3.45948 0
M  V30 3096 H 299.973 3.76535 -1.77559 0
M  V30 3097 H 300.506 2.5995 -3.01116 0
M  V30 3098 H 297.245 2.61985 -6.00869 0
M  V30 3099 H 296.765 3.72542 -4.70077 0
M  V30 3100 H 298.444 3.71789 -5.29511 0
M  V30 3101 N 298.576 1.31904 0.862503 0
M  V30 3102 C 299.801 1.25135 1.65397 0
M  V30 3103 C 300.226 -0.179 1.87246 0
M  V30 3104 O 299.584 -1.1277 1.4196 0
M  V30 3105 C 299.632 2.00832 2.99498 0
M  V30 3106 O 298.736 1.35075 3.89652 0
M  V30 3107 H 298.077 0.431655 0.504549 0
M  V30 3108 H 300.607 1.74094 1.07483 0
M  V30 3109 H 300.617 2.10709 3.49379 0
M  V30 3110 H 299.292 3.04847 2.82916 0
M  V30 3111 H 297.869 1.33696 3.48109 0
M  V30 3112 N 300.054 -1.07777 1.14986 0
M  V30 3113 C 300.987 -2.14228 0.786243 0
M  V30 3114 C 301.965 -1.60888 -0.235347 0
M  V30 3115 O 303.149 -1.88099 -0.122909 0
M  V30 3116 C 300.276 -3.38281 0.168433 0
M  V30 3117 C 299.322 -4.10387 1.16123 0
M  V30 3118 S 300.155 -4.62371 2.70135 0
M  V30 3119 C 301.311 -5.89704 2.09762 0
M  V30 3120 H 301.544 -2.44741 1.68787 0
M  V30 3121 H 299.077 -1.19984 0.971756 0
M  V30 3122 H 301.035 -4.10098 -0.181588 0
M  V30 3123 H 299.696 -3.05953 -0.710725 0
M  V30 3124 H 298.889 -4.99431 0.677086 0
M  V30 3125 H 298.491 -3.44513 1.45556 0
M  V30 3126 H 300.783 -6.61648 1.45701 0
M  V30 3127 H 301.726 -6.42824 2.96955 0
M  V30 3128 H 302.134 -5.4302 1.54239 0
M  V30 3129 N 301.532 -0.945985 -1.26051 0
M  V30 3130 C 302.78 -0.594941 -1.93145 0
M  V30 3131 C 303.101 0.86953 -1.7454 0
M  V30 3132 O 302.371 1.61838 -1.10387 0
M  V30 3133 H 300.951 -0.217044 -0.714773 0
M  V30 3134 H 303.613 -1.20235 -1.53393 0
M  V30 3135 H 302.709 -0.816835 -3.01221 0
M  V30 3136 N 303.011 1.40521 -0.713556 0
M  V30 3137 C 304.257 2.01221 -0.252564 0
M  V30 3138 C 304.59 1.56444 1.1506 0
M  V30 3139 O 303.865 0.783597 1.78017 0
M  V30 3140 C 304.148 3.58582 -0.330332 0
M  V30 3141 C 304.001 4.13437 -1.77173 0
M  V30 3142 C 305.32 4.39079 0.299641 0
M  V30 3143 H 302.439 0.731077 -0.0932471 0
M  V30 3144 H 305.081 1.67026 -0.905673 0
M  V30 3145 H 303.231 3.87844 0.225737 0
M  V30 3146 H 304.903 3.9498 -2.38303 0
M  V30 3147 H 303.146 3.67801 -2.3001 0
M  V30 3148 H 303.817 5.22597 -1.77755 0
M  V30 3149 H 306.293 4.15735 -0.174139 0
M  V30 3150 H 305.169 5.4848 0.214771 0
M  V30 3151 H 305.43 4.19915 1.38288 0
M  V30 3152 N 304.489 0.459591 1.5075 0
M  V30 3153 C 305.719 -0.0972338 2.06371 0
M  V30 3154 C 306.127 -1.35074 1.32483 0
M  V30 3155 O 305.47 -1.79637 0.384226 0
M  V30 3156 C 305.532 -0.462759 3.56509 0
M  V30 3157 C 305.196 0.687084 4.51805 0
M  V30 3158 C 306.193 1.56578 4.95761 0
M  V30 3159 C 303.878 0.874144 4.94635 0
M  V30 3160 C 305.872 2.61604 5.81242 0
M  V30 3161 C 303.559 1.92765 5.79901 0
M  V30 3162 C 304.557 2.79697 6.23104 0
M  V30 3163 O 304.245 3.83235 7.06673 0
M  V30 3164 H 303.977 -0.00140687 0.675999 0
M  V30 3165 H 306.531 0.644011 1.95043 0
M  V30 3166 H 304.761 -1.25703 3.65699 0
M  V30 3167 H 306.45 -0.953323 3.94546 0
M  V30 3168 H 307.216 1.4329 4.6335 0
M  V30 3169 H 303.095 0.207006 4.60535 0
M  V30 3170 H 306.639 3.29489 6.14884 0
M  V30 3171 H 302.536 2.06064 6.11725 0
M  V30 3172 H 303.304 3.80084 7.24899 0
M  V30 3173 N 305.967 -1.56429 0.191757 0
M  V30 3174 C 306.897 -2.21937 -0.725696 0
M  V30 3175 C 307.878 -1.1814 -1.2238 0
M  V30 3176 O 309.063 -1.46636 -1.27325 0
M  V30 3177 C 306.193 -2.87611 -1.94672 0
M  V30 3178 C 305.147 -3.97623 -1.58366 0
M  V30 3179 C 304.473 -4.50446 -2.88102 0
M  V30 3180 C 305.773 -5.16197 -0.796133 0
M  V30 3181 H 307.467 -2.98861 -0.179606 0
M  V30 3182 H 305.013 -1.43749 -0.0849464 0
M  V30 3183 H 306.966 -3.3212 -2.59373 0
M  V30 3184 H 305.69 -2.08087 -2.51728 0
M  V30 3185 H 304.349 -3.53801 -0.960247 0
M  V30 3186 H 303.997 -3.67688 -3.43241 0
M  V30 3187 H 303.697 -5.24675 -2.64556 0
M  V30 3188 H 305.221 -4.97654 -3.53798 0
M  V30 3189 H 306.635 -5.57271 -1.34618 0
M  V30 3190 H 305.032 -5.96471 -0.658928 0
M  V30 3191 H 306.102 -4.84473 0.203478 0
M  V30 3192 N 307.445 0.0818655 -1.57387 0
M  V30 3193 C 308.693 0.781368 -1.86384 0
M  V30 3194 C 309.014 1.78618 -0.782342 0
M  V30 3195 O 308.284 1.94976 0.190061 0
M  V30 3196 H 306.864 0.291562 -0.687751 0
M  V30 3197 H 309.526 0.060348 -1.94807 0
M  V30 3198 H 308.622 1.3038 -2.83562 0
M  V30 3199 N 308.923 1.53595 0.353017 0
M  V30 3200 C 309.855 1.77219 1.45348 0
M  V30 3201 C 310.868 0.65324 1.49119 0
M  V30 3202 O 312.057 0.929775 1.52373 0
M  V30 3203 C 309.157 1.84841 2.84055 0
M  V30 3204 C 308.33 3.14649 3.03833 0
M  V30 3205 C 307.389 3.13351 4.22727 0
M  V30 3206 O 306.415 3.87107 4.17297 0
M  V30 3207 N 307.617 2.35052 5.30783 0
M  V30 3208 H 310.382 2.72178 1.25457 0
M  V30 3209 H 307.943 1.52528 0.542833 0
M  V30 3210 H 309.935 1.81435 3.61751 0
M  V30 3211 H 308.505 0.971114 2.97133 0
M  V30 3212 H 307.725 3.31256 2.13689 0
M  V30 3213 H 309.013 4.00411 3.13925 0
M  V30 3214 H 308.411 1.74663 5.38061 0
M  V30 3215 H 306.968 2.37453 6.07009 0
M  V30 3216 N 310.401 -0.613514 1.45168 0
M  V30 3217 C 311.626 -1.40437 1.52618 0
M  V30 3218 C 312.051 -1.87438 0.157707 0
M  V30 3219 O 311.409 -1.59791 -0.856537 0
M  V30 3220 C 311.457 -2.58894 2.51011 0
M  V30 3221 O 310.561 -3.59326 2.02382 0
M  V30 3222 H 309.902 -0.419506 0.514695 0
M  V30 3223 H 312.432 -0.747215 1.90467 0
M  V30 3224 H 312.442 -3.06214 2.69624 0
M  V30 3225 H 311.117 -2.24032 3.50403 0
M  V30 3226 H 309.694 -3.18695 1.93618 0
M  V30 3227 N 311.879 -1.3236 -0.855495 0
M  V30 3228 C 313.107 -1.2587 -1.64208 0
M  V30 3229 C 313.522 0.173457 -1.88002 0
M  V30 3230 O 312.879 1.11027 -1.44842 0
M  V30 3231 C 312.93 -2.01424 -3.00184 0
M  V30 3232 O 312.651 -3.39051 -2.77445 0
M  V30 3233 C 314.152 -2.01948 -3.94629 0
M  V30 3234 H 311.372 -0.434318 -0.511477 0
M  V30 3235 H 313.916 -1.74469 -1.0668 0
M  V30 3236 H 312.071 -1.56549 -3.5436 0
M  V30 3237 H 312.485 -3.77711 -3.63916 0
M  V30 3238 H 313.959 -2.59297 -4.87308 0
M  V30 3239 H 314.436 -1.00554 -4.27534 0
M  V30 3240 H 315.042 -2.46767 -3.4639 0
M  V30 3241 N 313.357 1.07166 -1.15556 0
M  V30 3242 C 314.773 1.31899 -0.898603 0
M  V30 3243 C 314.973 1.96333 0.453383 0
M  V30 3244 O 314.029 2.22438 1.19489 0
M  V30 3245 C 315.342 2.20826 -2.04099 0
M  V30 3246 C 316.89 2.34269 -2.07574 0
M  V30 3247 C 317.365 3.26546 -3.21141 0
M  V30 3248 N 318.856 3.34127 -3.20801 0
M  V30 3249 C 319.591 4.05595 -4.05315 0
M  V30 3250 N 319.087 4.79661 -4.99897 0
M  V30 3251 N 320.88 4.01555 -3.93332 0
M  V30 3252 H 313.031 0.637302 -2.02613 0
M  V30 3253 H 315.294 0.343468 -0.883591 0
M  V30 3254 H 315 1.80744 -3.01703 0
M  V30 3255 H 314.874 3.21364 -1.97496 0
M  V30 3256 H 317.261 2.73603 -1.10568 0
M  V30 3257 H 317.342 1.33429 -2.18244 0
M  V30 3258 H 316.986 2.87931 -4.184 0
M  V30 3259 H 316.916 4.27345 -3.07708 0
M  V30 3260 H 319.407 2.81336 -2.52306 0
M  V30 3261 H 319.72 5.31694 -5.60822 0
M  V30 3262 H 318.065 4.78671 -5.03884 0
M  V30 3263 H 321.256 3.42806 -3.18751 0
M  V30 3264 H 321.429 4.56987 -4.5942 0
M  V30 3265 N 314.835 0.952656 1.25548 0
M  V30 3266 C 316.084 0.602053 1.92505 0
M  V30 3267 C 316.397 -0.864663 1.75451 0
M  V30 3268 O 317.603 -1.32514 2.36965 0
M  V30 3269 C 316.059 1.02607 3.44963 0
M  V30 3270 C 315.667 2.51519 3.70732 0
M  V30 3271 C 317.411 0.747905 4.1786 0
M  V30 3272 C 315.318 2.87732 5.16686 0
M  V30 3273 H 314.248 0.22146 0.720744 0
M  V30 3274 H 316.899 1.15684 1.42441 0
M  V30 3275 H 315.281 0.399712 3.93978 0
M  V30 3276 H 316.455 3.19157 3.32378 0
M  V30 3277 H 314.77 2.76786 3.11092 0
M  V30 3278 H 317.367 0.994647 5.25367 0
M  V30 3279 H 317.71 -0.315629 4.15102 0
M  V30 3280 H 318.243 1.33452 3.74747 0
M  V30 3281 H 314.982 3.93095 5.24554 0
M  V30 3282 H 314.502 2.24765 5.56094 0
M  V30 3283 H 316.181 2.76817 5.84792 0
M  V30 3284 N 316.313 -1.40141 0.720998 0
M  V30 3285 C 317.543 -2.04798 0.27226 0
M  V30 3286 C 317.951 -1.54442 -1.09289 0
M  V30 3287 O 317.294 -0.698342 -1.69908 0
M  V30 3288 C 317.356 -3.59048 0.18027 0
M  V30 3289 C 317.02 -4.32317 1.48159 0
M  V30 3290 C 318.017 -4.59902 2.42458 0
M  V30 3291 C 315.702 -4.71125 1.74202 0
M  V30 3292 C 317.696 -5.25288 3.61042 0
M  V30 3293 C 315.383 -5.36242 2.93066 0
M  V30 3294 C 316.381 -5.63254 3.86308 0
M  V30 3295 O 316.069 -6.27024 5.03086 0
M  V30 3296 H 315.801 -0.665419 0.119139 0
M  V30 3297 H 318.355 -1.80436 0.981432 0
M  V30 3298 H 316.585 -3.82251 -0.58489 0
M  V30 3299 H 318.274 -4.05221 -0.234618 0
M  V30 3300 H 319.04 -4.30379 2.23604 0
M  V30 3301 H 314.919 -4.49466 1.02477 0
M  V30 3302 H 318.463 -5.46289 4.33837 0
M  V30 3303 H 314.36 -5.65185 3.11826 0
M  V30 3304 H 315.128 -6.4552 5.03235 0
M  V30 3305 N 317.792 -0.46758 -1.50504 0
M  V30 3306 C 319.069 0.15003 -1.95024 0
M  V30 3307 C 319.449 1.57304 -1.40779 0
M  V30 3308 O 318.797 2.20281 -0.607319 0
M  V30 3309 C 319.007 0.0969324 -3.48865 0
M  V30 3310 C 320.355 0.287565 -4.23625 0
M  V30 3311 O 321.379 0.173678 -3.55776 0
M  V30 3312 O 320.238 0.517186 -5.44047 0
M  V30 3313 H 317.332 0.113582 -0.819163 0
M  V30 3314 H 319.878 -0.52773 -1.61286 0
M  V30 3315 H 318.65 -0.896732 -3.80886 0
M  V30 3316 H 318.273 0.816303 -3.8913 0
M  V30 3317 N 319.27 1.56325 -0.20005 0
M  V30 3318 C 320.686 1.58839 0.155716 0
M  V30 3319 C 320.886 1.21636 1.60645 0
M  V30 3320 O 319.942 0.941437 2.34293 0
M  V30 3321 C 321.255 3.0032 -0.151124 0
M  V30 3322 C 322.803 3.12866 -0.0916284 0
M  V30 3323 C 323.278 4.56488 -0.371845 0
M  V30 3324 N 324.769 4.62089 -0.320641 0
M  V30 3325 C 325.504 5.71116 -0.511243 0
M  V30 3326 N 325 6.88592 -0.762461 0
M  V30 3327 N 326.793 5.60335 -0.445157 0
M  V30 3328 H 318.944 1.78788 -1.14668 0
M  V30 3329 H 321.207 0.829996 -0.458051 0
M  V30 3330 H 320.913 3.32117 -1.15721 0
M  V30 3331 H 320.787 3.73257 0.543986 0
M  V30 3332 H 323.174 2.80878 0.905065 0
M  V30 3333 H 323.255 2.42304 -0.81989 0
M  V30 3334 H 322.899 4.89189 -1.36588 0
M  V30 3335 H 322.829 5.25246 0.377362 0
M  V30 3336 H 325.32 3.77665 -0.13329 0
M  V30 3337 H 325.633 7.67581 -0.896576 0
M  V30 3338 H 323.978 6.90387 -0.799412 0
M  V30 3339 H 327.169 4.67436 -0.249278 0
M  V30 3340 H 327.342 6.45243 -0.597116 0
M  V30 3341 N 320.748 -0.0735177 1.57428 0
M  V30 3342 C 321.658 -1.10547 2.06922 0
M  V30 3343 C 322.674 -1.42506 0.998402 0
M  V30 3344 O 323.85 -1.52717 1.31299 0
M  V30 3345 C 320.915 -2.40019 2.50184 0
M  V30 3346 C 319.976 -2.15046 3.71556 0
M  V30 3347 C 319.209 -3.38345 4.12745 0
M  V30 3348 O 319.432 -4.47399 3.53822 0
M  V30 3349 O 318.366 -3.2666 5.05546 0
M  V30 3350 H 322.192 -0.715013 2.95163 0
M  V30 3351 H 319.777 -0.287531 1.46607 0
M  V30 3352 H 321.659 -3.16218 2.78539 0
M  V30 3353 H 320.334 -2.78447 1.65072 0
M  V30 3354 H 319.241 -1.36558 3.48285 0
M  V30 3355 H 320.574 -1.81499 4.57514 0
M  V30 3356 N 322.226 -1.5378 -0.344866 0
M  V30 3357 C 323.454 -1.74899 -1.10534 0
M  V30 3358 C 323.869 -0.487534 -1.82397 0
M  V30 3359 O 323.226 0.540741 -1.74305 0
M  V30 3360 C 323.277 -2.92822 -2.11984 0
M  V30 3361 O 322.998 -4.14089 -1.43044 0
M  V30 3362 C 324.499 -3.25982 -3.00417 0
M  V30 3363 H 321.719 -0.584426 -0.329678 0
M  V30 3364 H 324.263 -2.006 -0.397474 0
M  V30 3365 H 322.418 -2.69457 -2.78338 0
M  V30 3366 H 322.832 -4.80272 -2.10805 0
M  V30 3367 H 324.306 -4.11848 -3.67539 0
M  V30 3368 H 324.783 -2.42228 -3.66363 0
M  V30 3369 H 325.389 -3.51349 -2.39654 0
M  V30 3370 N 323.704 0.605807 -1.45491 0
M  V30 3371 C 324.952 1.36207 -1.49305 0
M  V30 3372 C 325.273 1.94519 -0.136863 0
M  V30 3373 O 324.543 1.77261 0.833983 0
M  V30 3374 H 323.123 0.50565 -0.549843 0
M  V30 3375 H 325.785 0.711239 -1.81459 0
M  V30 3376 H 324.881 2.18058 -2.23287 0
M  V30 3377 N 325.182 1.32811 0.848464 0
M  V30 3378 C 326.092 1.24278 1.98978 0
M  V30 3379 C 327.108 0.155176 1.73307 0
M  V30 3380 O 328.284 0.376999 1.9784 0
M  V30 3381 C 325.349 0.972444 3.32783 0
M  V30 3382 C 324.41 2.14911 3.71634 0
M  V30 3383 C 323.643 1.89157 4.99054 0
M  V30 3384 O 323.866 0.837165 5.64223 0
M  V30 3385 O 322.8 2.75433 5.35183 0
M  V30 3386 H 326.626 2.20238 2.09115 0
M  V30 3387 H 324.211 1.12762 0.980052 0
M  V30 3388 H 326.093 0.838432 4.12975 0
M  V30 3389 H 324.768 0.043051 3.23671 0
M  V30 3390 H 323.675 2.33862 2.91992 0
M  V30 3391 H 325.008 3.06151 3.85399 0
M  V30 3392 N 326.66 -1.06551 1.16123 0
M  V30 3393 C 327.909 -1.78687 0.935622 0
M  V30 3394 C 328.222 -1.88056 -0.538001 0
M  V30 3395 O 329.428 -2.56794 -0.88143 0
M  V30 3396 C 327.884 -3.21143 1.62466 0
M  V30 3397 C 327.492 -3.19949 3.13587 0
M  V30 3398 C 329.236 -3.9783 1.48092 0
M  V30 3399 C 327.143 -4.57108 3.75241 0
M  V30 3400 H 326.073 -0.669712 0.346412 0
M  V30 3401 H 328.724 -1.19534 1.39226 0
M  V30 3402 H 327.106 -3.80539 1.09572 0
M  V30 3403 H 328.28 -2.70151 3.73303 0
M  V30 3404 H 326.595 -2.5676 3.27816 0
M  V30 3405 H 329.192 -4.99217 1.91538 0
M  V30 3406 H 329.535 -4.14078 0.429507 0
M  V30 3407 H 330.068 -3.4495 1.98127 0
M  V30 3408 H 326.807 -4.46065 4.80319 0
M  V30 3409 H 326.327 -5.07111 3.20309 0
M  V30 3410 H 328.006 -5.26069 3.76644 0
M  V30 3411 N 328.138 -0.959301 -1.25041 0
M  V30 3412 C 329.088 -0.453888 -2.23436 0
M  V30 3413 C 330.072 0.459461 -1.542 0
M  V30 3414 O 331.264 0.291752 -1.74579 0
M  V30 3415 C 328.393 0.262667 -3.42294 0
M  V30 3416 C 327.479 -0.669022 -4.1879 0
M  V30 3417 N 327.87 -1.80267 -4.72586 0
M  V30 3418 C 326.168 -0.47814 -4.4343 0
M  V30 3419 C 326.869 -2.38475 -5.3057 0
M  V30 3420 N 325.845 -1.67078 -5.17287 0
M  V30 3421 H 329.647 -1.319 -2.6264 0
M  V30 3422 H 327.161 -0.817358 -1.40332 0
M  V30 3423 H 329.158 0.641911 -4.11929 0
M  V30 3424 H 327.818 1.12432 -3.04613 0
M  V30 3425 H 328.829 -2.18442 -4.69578 0
M  V30 3426 H 325.506 0.340249 -4.16111 0
M  V30 3427 H 326.896 -3.34094 -5.8295 0
M  V30 3428 N 329.616 1.39756 -0.72842 0
M  V30 3429 C 330.846 2.04651 -0.283117 0
M  V30 3430 C 331.254 1.5502 1.08469 0
M  V30 3431 O 330.597 0.707343 1.69536 0
M  V30 3432 C 330.659 3.58947 -0.199309 0
M  V30 3433 C 330.323 4.31525 -1.5045 0
M  V30 3434 C 331.32 4.5861 -2.44894 0
M  V30 3435 C 329.005 4.70195 -1.76698 0
M  V30 3436 C 330.999 5.23366 -3.63822 0
M  V30 3437 C 328.686 5.3468 -2.95906 0
M  V30 3438 C 329.684 5.61198 -3.89289 0
M  V30 3439 O 329.372 6.24347 -5.06404 0
M  V30 3440 H 329.104 0.664777 -0.122666 0
M  V30 3441 H 331.658 1.79913 -0.990987 0
M  V30 3442 H 329.888 3.82556 0.56461 0
M  V30 3443 H 331.577 4.0534 0.213125 0
M  V30 3444 H 332.343 4.29187 -2.25883 0
M  V30 3445 H 328.222 4.48916 -1.04859 0
M  V30 3446 H 331.766 5.4398 -4.36728 0
M  V30 3447 H 327.663 5.63524 -3.14819 0
M  V30 3448 H 328.431 6.42842 -5.06652 0
M  V30 3449 N 331.094 0.475555 1.50254 0
M  V30 3450 C 332.342 -0.077738 2.0195 0
M  V30 3451 C 332.663 -1.39813 1.35931 0
M  V30 3452 O 331.933 -1.89249 0.506123 0
M  V30 3453 H 330.513 -0.031719 0.746326 0
M  V30 3454 H 333.175 0.626995 1.84539 0
M  V30 3455 H 332.271 -0.225995 3.11281 0
M  V30 3456 N 332.573 -1.56217 0.208337 0
M  V30 3457 C 333.989 -1.58919 -0.14729 0
M  V30 3458 C 334.189 -1.22486 -1.59998 0
M  V30 3459 O 333.245 -0.953849 -2.3379 0
M  V30 3460 C 334.558 -3.00236 0.167048 0
M  V30 3461 C 336.106 -3.12813 0.108219 0
M  V30 3462 C 336.581 -4.56284 0.396049 0
M  V30 3463 N 338.072 -4.61912 0.345142 0
M  V30 3464 C 338.807 -5.70837 0.541523 0
M  V30 3465 N 338.303 -6.88178 0.798968 0
M  V30 3466 N 340.096 -5.60091 0.474867 0
M  V30 3467 H 332.247 -1.78177 1.15614 0
M  V30 3468 H 334.51 -0.827555 0.462446 0
M  V30 3469 H 334.216 -3.31499 1.1748 0
M  V30 3470 H 334.09 -3.7354 -0.524184 0
M  V30 3471 H 336.477 -2.81354 -0.890157 0
M  V30 3472 H 336.558 -2.41866 0.832729 0
M  V30 3473 H 336.202 -4.88458 1.3918 0
M  V30 3474 H 336.132 -5.25439 -0.349502 0
M  V30 3475 H 338.623 -3.77589 0.153316 0
M  V30 3476 H 338.936 -7.67095 0.93727 0
M  V30 3477 H 337.281 -6.89953 0.836013 0
M  V30 3478 H 340.472 -4.67297 0.274064 0
M  V30 3479 H 340.645 -6.44917 0.631326 0
M  V30 3480 N 334.051 0.0651679 -1.57465 0
M  V30 3481 C 335.297 0.764193 -1.87851 0
M  V30 3482 C 335.63 1.76889 -0.801495 0
M  V30 3483 O 334.905 1.93594 0.187528 0
M  V30 3484 C 335.188 1.46625 -3.28897 0
M  V30 3485 C 335.041 0.477515 -4.47258 0
M  V30 3486 C 336.36 2.4095 -3.68281 0
M  V30 3487 H 333.479 0.276351 -0.683227 0
M  V30 3488 H 336.121 0.0272868 -1.8998 0
M  V30 3489 H 334.271 2.09438 -3.27212 0
M  V30 3490 H 335.943 -0.145922 -4.61069 0
M  V30 3491 H 334.186 -0.206576 -4.33308 0
M  V30 3492 H 334.857 1.0065 -5.42746 0
M  V30 3493 H 337.333 1.88209 -3.71102 0
M  V30 3494 H 336.209 2.87072 -4.67847 0
M  V30 3495 H 336.47 3.26049 -2.98571 0
M  V30 3496 N 335.529 1.53961 0.336706 0
M  V30 3497 C 336.94 1.62914 0.911925 0
M  V30 3498 C 337.291 0.514795 1.89326 0
M  V30 3499 O 336.416 -0.354395 2.13478 0
M  V30 3500 C 337.011 2.95304 1.66076 0
M  V30 3501 C 335.57 3.06496 2.18489 0
M  V30 3502 C 334.717 2.58403 1.00613 0
M  V30 3503 H 337.668 1.58285 0.114649 0
M  V30 3504 H 337.689 2.84727 2.5241 0
M  V30 3505 H 337.201 3.76387 0.946276 0
M  V30 3506 H 335.302 2.3006 2.93092 0
M  V30 3507 H 335.415 4.1208 2.44391 0
M  V30 3508 H 333.779 2.13977 1.38152 0
M  V30 3509 H 334.562 3.41932 0.306179 0
M  V30 3510 N 337.007 -0.598083 1.45811 0
M  V30 3511 C 337.97 -1.69018 1.54808 0
M  V30 3512 C 338.97 -1.55037 0.426652 0
M  V30 3513 O 340.16 -1.59932 0.690456 0
M  V30 3514 C 337.292 -3.0835 1.45371 0
M  V30 3515 H 338.485 -1.62403 2.52121 0
M  V30 3516 H 336.038 -0.814626 1.33392 0
M  V30 3517 H 336.773 -3.20534 0.492793 0
M  V30 3518 H 336.558 -3.19907 2.26721 0
M  V30 3519 H 338.048 -3.8788 1.54721 0
M  V30 3520 N 338.485 -1.33259 -0.841409 0
M  V30 3521 C 339.733 -1.24326 -1.59334 0
M  V30 3522 C 340.054 0.191564 -1.94057 0
M  V30 3523 O 339.324 1.11967 -1.60749 0
M  V30 3524 H 337.904 -0.457174 -0.590763 0
M  V30 3525 H 340.566 -1.66947 -1.00571 0
M  V30 3526 H 339.662 -1.8352 -2.52442 0
M  V30 3527 N 339.963 1.05934 -1.16686 0
M  V30 3528 C 341.188 1.83029 -0.975455 0
M  V30 3529 C 341.613 1.82096 0.471452 0
M  V30 3530 O 340.971 1.22443 1.33706 0
M  V30 3531 C 341.019 3.27372 -1.51195 0
M  V30 3532 O 340.123 4.06054 -0.720701 0
M  V30 3533 H 339.464 0.566194 -0.346872 0
M  V30 3534 H 341.994 1.33541 -1.55009 0
M  V30 3535 H 342.004 3.78186 -1.53099 0
M  V30 3536 H 340.679 3.27366 -2.56523 0
M  V30 3537 H 339.256 3.64812 -0.772458 0
M  V30 3538 N 341.441 0.965919 1.2453 0
M  V30 3539 C 342.687 0.62776 1.92839 0
M  V30 3540 C 343.02 -0.834694 1.75347 0
M  V30 3541 O 342.295 -1.60031 1.10546 0
M  V30 3542 C 342.578 1.00109 3.45905 0
M  V30 3543 C 342.431 2.52011 3.72573 0
M  V30 3544 C 343.75 0.53435 4.36844 0
M  V30 3545 H 340.869 0.229537 0.700344 0
M  V30 3546 H 343.511 1.2046 1.46933 0
M  V30 3547 H 341.661 0.510238 3.85135 0
M  V30 3548 H 343.333 3.08559 3.42912 0
M  V30 3549 H 341.576 2.95287 3.17786 0
M  V30 3550 H 342.247 2.73183 4.79661 0
M  V30 3551 H 344.723 0.955565 4.04979 0
M  V30 3552 H 343.599 0.824152 5.42678 0
M  V30 3553 H 343.86 -0.565589 4.38467 0
M  V30 3554 N 342.919 -1.39368 0.735821 0
M  V30 3555 C 344.165 -2.00794 0.284544 0
M  V30 3556 C 344.498 -1.58255 -1.12557 0
M  V30 3557 O 343.773 -0.811819 -1.76748 0
M  V30 3558 C 344.056 -3.58011 0.387337 0
M  V30 3559 C 343.909 -4.10566 1.83728 0
M  V30 3560 C 345.228 -4.395 -0.22975 0
M  V30 3561 H 342.347 -0.729501 0.104866 0
M  V30 3562 H 344.989 -1.65564 0.93213 0
M  V30 3563 H 343.139 -3.88154 -0.164006 0
M  V30 3564 H 344.811 -3.91139 2.44556 0
M  V30 3565 H 343.054 -3.64095 2.35833 0
M  V30 3566 H 343.725 -5.19702 1.86047 0
M  V30 3567 H 346.201 -4.15406 0.240257 0
M  V30 3568 H 345.077 -5.48752 -0.127485 0
M  V30 3569 H 345.338 -4.22062 -1.3159 0
M  V30 3570 N 344.397 -0.483516 -1.5 0
M  V30 3571 C 345.643 0.0672592 -2.02688 0
M  V30 3572 C 345.976 1.38247 -1.36387 0
M  V30 3573 O 345.251 1.88131 -0.493675 0
M  V30 3574 C 345.534 0.238109 -3.59312 0
M  V30 3575 C 345.387 -1.099 -4.36168 0
M  V30 3576 C 346.706 0.986916 -4.28892 0
M  V30 3577 H 343.825 0.0229696 -0.736642 0
M  V30 3578 H 346.467 -0.631527 -1.79197 0
M  V30 3579 H 344.617 0.8333 -3.79458 0
M  V30 3580 H 346.289 -1.73172 -4.27562 0
M  V30 3581 H 344.532 -1.69261 -3.99416 0
M  V30 3582 H 345.203 -0.932954 -5.44059 0
M  V30 3583 H 347.679 0.482302 -4.13295 0
M  V30 3584 H 346.555 1.07527 -5.38265 0
M  V30 3585 H 346.816 2.0265 -3.92919 0
M  V30 3586 N 345.875 1.56104 -0.216619 0
M  V30 3587 C 347.1 2.0301 0.424462 0
M  V30 3588 C 347.525 1.0955 1.52907 0
M  V30 3589 O 346.883 0.0827914 1.81111 0
M  V30 3590 C 346.931 3.4819 0.937883 0
M  V30 3591 O 346.035 3.57865 2.04955 0
M  V30 3592 H 345.376 0.656925 0.0966755 0
M  V30 3593 H 347.906 2.01859 -0.33381 0
M  V30 3594 H 347.916 3.88413 1.24897 0
M  V30 3595 H 346.591 4.15699 0.129387 0
M  V30 3596 H 345.168 3.29527 1.74546 0
M  V30 3597 N 347.353 -0.0568162 1.57498 0
M  V30 3598 C 348.601 -0.751617 1.87604 0
M  V30 3599 C 348.922 -1.77351 0.81066 0
M  V30 3600 O 348.192 -1.95254 -0.159018 0
M  V30 3601 H 346.772 -0.280583 0.692302 0
M  V30 3602 H 349.434 -0.0293483 1.94878 0
M  V30 3603 H 348.53 -1.25852 2.856 0
M  V30 3604 N 348.832 -1.54138 -0.328536 0
M  V30 3605 C 349.78 -1.83894 -1.42428 0
M  V30 3606 C 350.774 -0.710478 -1.53781 0
M  V30 3607 O 351.98 -0.894062 -1.56226 0
M  V30 3608 H 348.355 -0.582837 -0.475189 0
M  V30 3609 H 350.326 -2.75537 -1.14552 0
M  V30 3610 C 349.075 -2.07866 -2.78724 0
M  V30 3611 H 348.398 -2.94158 -2.7076 0
M  V30 3612 H 349.838 -2.32644 -3.54476 0
M  V30 3613 C 348.297 -0.868689 -3.25508 0
M  V30 3614 O 348.827 -0.0754908 -4.01629 0
M  V30 3615 N 347.033 -0.681711 -2.82491 0
M  V30 3616 H 346.58 -1.32838 -2.20708 0
M  V30 3617 H 346.538 0.126374 -3.14146 0
M  V30 3618 N 350.31 0.590341 -1.46126 0
M  V30 3619 C 351.24 1.71032 -1.58966 0
M  V30 3620 C 352.221 1.64302 -0.440335 0
M  V30 3621 O 353.406 1.82436 -0.665634 0
M  V30 3622 C 350.536 3.09665 -1.57241 0
M  V30 3623 C 349.49 3.31221 -2.71066 0
M  V30 3624 C 348.816 4.70303 -2.54399 0
M  V30 3625 C 350.116 3.19796 -4.1295 0
M  V30 3626 H 351.81 1.60543 -2.52718 0
M  V30 3627 H 349.356 0.770933 -1.21625 0
M  V30 3628 H 351.309 3.87831 -1.64819 0
M  V30 3629 H 350.033 3.21036 -0.600289 0
M  V30 3630 H 348.692 2.55452 -2.62944 0
M  V30 3631 H 348.34 4.78429 -1.55288 0
M  V30 3632 H 348.04 4.85679 -3.30741 0
M  V30 3633 H 349.564 5.50647 -2.63857 0
M  V30 3634 H 350.978 3.87815 -4.22223 0
M  V30 3635 H 349.375 3.46696 -4.89818 0
M  V30 3636 H 350.445 2.16983 -4.33643 0
M  V30 3637 N 351.788 1.33704 0.83433 0
M  V30 3638 C 353.199 1.22813 1.4062 0
M  V30 3639 C 353.55 -0.151107 1.95617 0
M  V30 3640 O 352.675 -1.05092 1.89168 0
M  V30 3641 C 353.27 2.22355 2.55624 0
M  V30 3642 C 351.829 2.1529 3.08751 0
M  V30 3643 C 350.976 2.09589 1.8157 0
M  V30 3644 H 353.927 1.45236 0.639702 0
M  V30 3645 H 353.948 1.83391 3.33389 0
M  V30 3646 H 353.46 3.22728 2.15566 0
M  V30 3647 H 351.561 1.18235 3.53343 0
M  V30 3648 H 351.674 3.06038 3.68616 0
M  V30 3649 H 350.038 1.55134 2.02004 0
M  V30 3650 H 350.821 3.11777 1.43701 0
M  V30 3651 N 353.266 -1.05314 1.17247 0
M  V30 3652 C 354.491 -1.82509 0.985148 0
M  V30 3653 C 354.916 -1.82343 -0.461788 0
M  V30 3654 O 354.274 -1.23151 -1.33055 0
M  V30 3655 C 354.322 -3.26566 1.52929 0
M  V30 3656 O 353.426 -4.05666 0.742225 0
M  V30 3657 H 352.767 -0.564347 0.349869 0
M  V30 3658 H 355.297 -1.32718 1.55715 0
M  V30 3659 H 355.307 -3.77369 1.55103 0
M  V30 3660 H 353.982 -3.26001 2.58256 0
M  V30 3661 H 352.559 -3.64397 0.791794 0
M  V30 3662 N 354.744 -0.972509 -1.24016 0
M  V30 3663 C 355.691 -0.505969 -2.25186 0
M  V30 3664 C 356.661 0.451009 -1.5986 0
M  V30 3665 O 357.846 0.360307 -1.87367 0
M  V30 3666 C 354.986 0.193089 -3.44559 0
M  V30 3667 C 354.099 -0.803222 -4.24467 0
M  V30 3668 C 353.234 -0.0797793 -5.3114 0
M  V30 3669 C 352.273 -1.06583 -6.02749 0
M  V30 3670 N 351.41 -0.372074 -7.01113 0
M  V30 3671 H 356.25 -1.37351 -2.64459 0
M  V30 3672 H 353.787 -0.688419 -1.29997 0
M  V30 3673 H 355.745 0.615125 -4.1264 0
M  V30 3674 H 354.375 1.02455 -3.06109 0
M  V30 3675 H 353.427 -1.34368 -3.55878 0
M  V30 3676 H 354.739 -1.55494 -4.73944 0
M  V30 3677 H 353.893 0.400015 -6.0538 0
M  V30 3678 H 352.632 0.704597 -4.82583 0
M  V30 3679 H 351.637 -1.55645 -5.27309 0
M  V30 3680 H 352.862 -1.85074 -6.53395 0
M  V30 3681 H 350.808 0.393238 -6.5482 0
M  V30 3682 H 350.725 -1.06258 -7.48495 0
M  V30 3683 H 351.993 0.0855932 -7.79453 0
M  V30 3684 N 356.222 1.38976 -0.743202 0
M  V30 3685 C 357.499 1.94351 -0.220705 0
M  V30 3686 C 357.879 1.67935 1.2791 0
M  V30 3687 O 357.227 1.01211 2.04862 0
M  V30 3688 C 357.437 3.44426 -0.563171 0
M  V30 3689 C 358.785 4.2144 -0.517046 0
M  V30 3690 O 359.809 3.52661 -0.500846 0
M  V30 3691 O 358.668 5.44032 -0.518806 0
M  V30 3692 H 355.762 0.825879 -0.043047 0
M  V30 3693 H 358.308 1.48429 -0.822618 0
M  V30 3694 H 357.08 3.5712 -1.59941 0
M  V30 3695 H 356.703 3.97543 0.0672883 0
M  V30 3696 N 357.7 0.491464 1.49741 0
M  V30 3697 C 358.948 -0.0563141 2.02022 0
M  V30 3698 C 359.269 -1.38363 1.37407 0
M  V30 3699 O 358.539 -1.88702 0.526166 0
M  V30 3700 H 357.119 -0.0238014 0.746621 0
M  V30 3701 H 359.781 0.646533 1.83864 0
M  V30 3702 H 358.877 -0.192967 3.11503 0
M  V30 3703 N 359.178 -1.55987 0.224894 0
M  V30 3704 C 360.403 -2.03232 -0.41369 0
M  V30 3705 C 360.828 -1.10359 -1.52323 0
M  V30 3706 O 360.186 -0.092395 -1.81064 0
M  V30 3707 C 360.234 -3.48682 -0.919405 0
M  V30 3708 O 359.338 -3.58947 -2.03054 0
M  V30 3709 H 358.679 -0.657428 -0.0931903 0
M  V30 3710 H 361.209 -2.01679 0.34451 0
M  V30 3711 H 361.219 -3.8907 -1.22835 0
M  V30 3712 H 359.894 -4.15761 -0.107339 0
M  V30 3713 H 358.471 -3.30448 -1.72796 0
M  V30 3714 N 360.656 0.0484629 -1.57525 0
M  V30 3715 C 361.886 0.754326 -1.92337 0
M  V30 3716 C 362.294 1.70443 -0.82132 0
M  V30 3717 O 361.637 1.82466 0.21254 0
M  V30 3718 C 361.699 1.58231 -3.22805 0
M  V30 3719 C 361.363 0.799074 -4.4996 0
M  V30 3720 C 362.36 0.1079 -5.19788 0
M  V30 3721 C 360.045 0.759345 -4.96527 0
M  V30 3722 C 362.039 -0.612516 -6.3445 0
M  V30 3723 C 359.726 0.0351713 -6.1109 0
M  V30 3724 C 360.724 -0.649537 -6.79904 0
M  V30 3725 O 360.412 -1.36199 -7.92278 0
M  V30 3726 H 360.144 0.218257 -0.639797 0
M  V30 3727 H 362.698 0.0159295 -2.05394 0
M  V30 3728 H 360.928 2.36406 -3.06021 0
M  V30 3729 H 362.617 2.16898 -3.43089 0
M  V30 3730 H 363.383 0.129748 -4.84826 0
M  V30 3731 H 359.262 1.28177 -4.42822 0
M  V30 3732 H 362.806 -1.14751 -6.88097 0
M  V30 3733 H 358.703 0.0113314 -6.45499 0
M  V30 3734 H 359.471 -1.27366 -8.0853 0
M  V30 3735 N 362.134 1.5431 0.320358 0
M  V30 3736 C 363.359 1.76954 1.08175 0
M  V30 3737 C 363.784 0.518193 1.80821 0
M  V30 3738 O 363.142 -0.530411 1.73368 0
M  V30 3739 C 363.19 2.96451 2.05303 0
M  V30 3740 O 362.294 2.68221 3.13259 0
M  V30 3741 H 361.635 0.586275 0.311733 0
M  V30 3742 H 364.165 2.01342 0.363676 0
M  V30 3743 H 364.175 3.23887 2.48116 0
M  V30 3744 H 362.85 3.87196 1.51829 0
M  V30 3745 H 361.427 2.51744 2.75099 0
M  V30 3746 N 363.613 -0.582584 1.46437 0
M  V30 3747 C 364.543 -1.70187 1.59871 0
M  V30 3748 C 365.524 -1.64066 0.449042 0
M  V30 3749 O 366.709 -1.82081 0.6753 0
M  V30 3750 C 363.839 -3.08827 1.58881 0
M  V30 3751 C 362.793 -3.29779 2.72819 0
M  V30 3752 C 362.119 -4.68947 2.5689 0
M  V30 3753 C 363.419 -3.17601 4.1464 0
M  V30 3754 H 365.113 -1.592 2.53566 0
M  V30 3755 H 362.659 -0.764472 1.22032 0
M  V30 3756 H 364.612 -3.86951 1.66873 0
M  V30 3757 H 363.336 -3.20713 0.617306 0
M  V30 3758 H 361.995 -2.54054 2.64296 0
M  V30 3759 H 361.643 -4.77599 1.57823 0
M  V30 3760 H 361.343 -4.83919 3.33312 0
M  V30 3761 H 362.867 -5.4924 2.66773 0
M  V30 3762 H 364.281 -3.8557 4.24274 0
M  V30 3763 H 362.678 -3.44094 4.9165 0
M  V30 3764 H 363.748 -2.14681 4.34788 0
M  V30 3765 N 365.091 -1.34144 -0.827227 0
M  V30 3766 C 366.321 -1.29138 -1.61267 0
M  V30 3767 C 366.729 0.137597 -1.88699 0
M  V30 3768 O 366.072 1.09379 -1.47587 0
M  V30 3769 C 366.134 -2.0097 -2.9808 0
M  V30 3770 C 365.798 -3.50242 -2.93563 0
M  V30 3771 C 366.795 -4.4523 -2.68452 0
M  V30 3772 C 364.48 -3.92592 -3.13331 0
M  V30 3773 C 366.474 -5.80542 -2.63154 0
M  V30 3774 C 364.161 -5.28005 -3.07658 0
M  V30 3775 C 365.159 -6.21792 -2.82602 0
M  V30 3776 O 364.847 -7.54723 -2.76853 0
M  V30 3777 H 364.579 -0.445851 -0.508127 0
M  V30 3778 H 367.133 -1.77263 -1.03763 0
M  V30 3779 H 365.363 -1.47451 -3.57484 0
M  V30 3780 H 367.052 -1.89309 -3.5905 0
M  V30 3781 H 367.818 -4.13832 -2.52919 0
M  V30 3782 H 363.697 -3.19994 -3.31851 0
M  V30 3783 H 367.241 -6.53717 -2.43516 0
M  V30 3784 H 363.138 -5.59023 -3.22743 0
M  V30 3785 H 363.906 -7.64409 -2.92611 0
M  V30 3786 N 366.569 1.04691 -1.17803 0
M  V30 3787 C 367.809 1.79352 -0.980423 0
M  V30 3788 C 368.173 1.85853 0.481958 0
M  V30 3789 O 369.374 2.56656 0.798809 0
M  V30 3790 C 367.645 3.19088 -1.6099 0
M  V30 3791 S 369.204 4.10164 -1.55918 0
M  V30 3792 H 366.022 0.617631 -0.352211 0
M  V30 3793 H 368.624 1.25575 -1.49837 0
M  V30 3794 H 367.328 3.11962 -2.66661 0
M  V30 3795 H 366.859 3.77941 -1.09197 0
M  V30 3796 H 368.874 4.92907 -0.570685 0
M  V30 3797 N 368.047 0.979072 1.23499 0
M  V30 3798 C 369.01 0.523244 2.23147 0
M  V30 3799 C 370.01 -0.386406 1.56088 0
M  V30 3800 O 371.2 -0.180283 1.73265 0
M  V30 3801 C 368.332 -0.240739 3.40049 0
M  V30 3802 H 369.525 1.40432 2.64989 0
M  V30 3803 H 367.078 0.764824 1.36309 0
M  V30 3804 H 367.813 -1.13841 3.03662 0
M  V30 3805 H 367.598 0.412207 3.89927 0
M  V30 3806 H 369.088 -0.548297 4.13985 0
M  V30 3807 N 369.525 -1.3858 0.750561 0
M  V30 3808 C 370.771 -2.00481 0.305825 0
M  V30 3809 C 371.104 -1.5944 -1.10872 0
M  V30 3810 O 370.379 -0.83052 -1.75877 0
M  V30 3811 C 370.662 -3.5758 0.425287 0
M  V30 3812 C 370.515 -4.08594 1.88072 0
M  V30 3813 C 371.834 -4.39719 -0.183122 0
M  V30 3814 H 368.953 -0.728348 0.112598 0
M  V30 3815 H 371.595 -1.64566 0.949638 0
M  V30 3816 H 369.745 -3.88306 -0.122828 0
M  V30 3817 H 371.417 -3.88523 2.48691 0
M  V30 3818 H 369.66 -3.61574 2.39681 0
M  V30 3819 H 370.331 -5.177 1.91548 0
M  V30 3820 H 372.807 -4.15128 0.284303 0
M  V30 3821 H 371.683 -5.48856 -0.0692757 0
M  V30 3822 H 371.944 -4.23434 -1.27106 0
M  V30 3823 N 371.003 -0.499398 -1.49478 0
M  V30 3824 C 372.252 0.0475259 -2.01644 0
M  V30 3825 C 372.565 1.38195 -1.38425 0
M  V30 3826 O 373.771 2.01547 -1.8191 0
M  V30 3827 C 372.227 0.135164 -3.59646 0
M  V30 3828 C 371.835 -1.19252 -4.31837 0
M  V30 3829 C 373.579 0.632538 -4.19761 0
M  V30 3830 C 371.486 -1.06713 -5.81693 0
M  V30 3831 H 370.416 0.0215349 -0.753692 0
M  V30 3832 H 373.067 -0.638577 -1.7203 0
M  V30 3833 H 371.449 0.885681 -3.85969 0
M  V30 3834 H 372.623 -1.9562 -4.17216 0
M  V30 3835 H 370.938 -1.62321 -3.83459 0
M  V30 3836 H 373.535 0.743833 -5.29501 0
M  V30 3837 H 373.878 1.63098 -3.83021 0
M  V30 3838 H 374.411 -0.0613987 -3.97753 0
M  V30 3839 H 371.15 -2.03979 -6.22955 0
M  V30 3840 H 370.67 -0.344307 -5.98811 0
M  V30 3841 H 372.349 -0.745208 -6.42694 0
M  V30 3842 N 372.481 1.55866 -0.233164 0
M  V30 3843 C 373.727 1.98897 0.395959 0
M  V30 3844 C 374.06 1.12091 1.58585 0
M  V30 3845 O 373.335 0.181182 1.93654 0
M  V30 3846 C 373.618 3.50658 0.819224 0
M  V30 3847 C 373.471 4.48233 -0.375109 0
M  V30 3848 C 374.79 4.07135 1.67121 0
M  V30 3849 H 371.909 0.723102 0.142451 0
M  V30 3850 H 374.551 1.87082 -0.331725 0
M  V30 3851 H 372.701 3.60857 1.43925 0
M  V30 3852 H 374.373 4.50031 -1.01341 0
M  V30 3853 H 372.616 4.21624 -1.02058 0
M  V30 3854 H 373.287 5.51988 -0.0358328 0
M  V30 3855 H 375.763 3.99952 1.14795 0
M  V30 3856 H 374.639 5.13615 1.93625 0
M  V30 3857 H 374.9 3.54736 2.63846 0
M  V30 3858 N 373.959 -0.0401083 1.57549 0
M  V30 3859 C 374.906 -1.04413 2.05831 0
M  V30 3860 C 375.876 -1.36585 0.945184 0
M  V30 3861 O 377.061 -1.47112 1.21502 0
M  V30 3862 C 374.201 -2.34336 2.53339 0
M  V30 3863 C 373.314 -2.08419 3.78398 0
M  V30 3864 C 372.449 -3.32133 4.14561 0
M  V30 3865 C 371.488 -3.01721 5.3257 0
M  V30 3866 N 370.625 -4.17855 5.64218 0
M  V30 3867 H 375.465 -0.625442 2.91363 0
M  V30 3868 H 373.002 -0.297218 1.44066 0
M  V30 3869 H 374.96 -3.10234 2.78946 0
M  V30 3870 H 373.59 -2.73948 1.7074 0
M  V30 3871 H 372.642 -1.23069 3.59942 0
M  V30 3872 H 373.954 -1.81978 4.64419 0
M  V30 3873 H 373.108 -4.16406 4.41238 0
M  V30 3874 H 371.847 -3.61678 3.2717 0
M  V30 3875 H 370.852 -2.15849 5.05657 0
M  V30 3876 H 372.077 -2.73466 6.21605 0
M  V30 3877 H 370.023 -4.47372 4.79786 0
M  V30 3878 H 369.94 -3.94798 6.44725 0
M  V30 3879 H 371.208 -5.03033 5.95465 0
M  V30 3880 N 375.437 -1.54477 -0.31217 0
M  V30 3881 C 376.384 -1.84655 -1.38461 0
M  V30 3882 C 377.354 -0.694536 -1.50882 0
M  V30 3883 O 378.539 -0.942081 -1.6592 0
M  V30 3884 C 375.679 -2.0896 -2.74645 0
M  V30 3885 C 374.792 -3.36618 -2.70763 0
M  V30 3886 C 373.927 -3.50824 -3.98868 0
M  V30 3887 C 372.966 -4.72315 -3.89339 0
M  V30 3888 N 372.103 -4.83387 -5.09197 0
M  V30 3889 H 376.943 -2.76142 -1.12026 0
M  V30 3890 H 374.48 -1.36748 -0.542065 0
M  V30 3891 H 376.438 -2.21045 -3.53829 0
M  V30 3892 H 375.068 -1.20752 -2.99364 0
M  V30 3893 H 374.12 -3.33211 -1.83506 0
M  V30 3894 H 375.432 -4.25917 -2.59608 0
M  V30 3895 H 374.586 -3.62513 -4.86486 0
M  V30 3896 H 373.325 -2.59638 -4.12843 0
M  V30 3897 H 372.33 -4.6067 -3.00105 0
M  V30 3898 H 373.555 -5.64897 -3.76919 0
M  V30 3899 H 371.501 -3.9512 -5.23657 0
M  V30 3900 H 371.418 -5.66669 -5.00422 0
M  V30 3901 H 372.686 -4.9942 -5.98498 0
M  V30 3902 N 376.915 0.57481 -1.46744 0
M  V30 3903 C 378.161 1.3347 -1.52688 0
M  V30 3904 C 378.494 1.93353 -0.181229 0
M  V30 3905 O 377.769 1.76912 0.808237 0
M  V30 3906 C 378.052 2.45811 -2.63152 0
M  V30 3907 C 377.905 1.90912 -4.07275 0
M  V30 3908 C 379.224 3.47822 -2.69644 0
M  V30 3909 H 376.343 0.483935 -0.555856 0
M  V30 3910 H 378.985 0.644968 -1.78718 0
M  V30 3911 H 377.135 3.04646 -2.41088 0
M  V30 3912 H 378.807 1.36473 -4.4065 0
M  V30 3913 H 377.05 1.21691 -4.16382 0
M  V30 3914 H 377.721 2.72042 -4.80309 0
M  V30 3915 H 380.197 2.9888 -2.895 0
M  V30 3916 H 379.073 4.23876 -3.48742 0
M  V30 3917 H 379.334 4.05555 -1.76005 0
M  V30 3918 N 378.394 1.34581 0.820102 0
M  V30 3919 C 379.671 1.17675 1.56244 0
M  V30 3920 C 380.051 -0.249541 2.0962 0
M  V30 3921 O 379.399 -1.25125 1.91196 0
M  V30 3922 C 379.609 2.23364 2.6816 0
M  V30 3923 C 380.957 2.58485 3.36854 0
M  V30 3924 O 381.981 2.22175 2.78418 0
M  V30 3925 O 380.84 3.20868 4.42386 0
M  V30 3926 H 377.934 0.456333 0.689702 0
M  V30 3927 H 380.48 1.46222 0.861231 0
M  V30 3928 H 379.252 3.19087 2.26493 0
M  V30 3929 H 378.875 1.96009 3.45928 0
M  V30 3930 N 379.872 -1.04064 1.18357 0
M  V30 3931 C 380.835 -2.10243 0.912707 0
M  V30 3932 C 381.835 -1.60477 -0.101928 0
M  V30 3933 O 383.025 -1.73703 0.131517 0
M  V30 3934 C 380.157 -3.38893 0.369387 0
M  V30 3935 H 381.35 -2.35706 1.85426 0
M  V30 3936 H 378.903 -1.20489 0.995594 0
M  V30 3937 H 379.638 -3.19094 -0.578776 0
M  V30 3938 H 379.423 -3.76331 1.1008 0
M  V30 3939 H 380.913 -4.17128 0.198575 0
M  V30 3940 N 381.35 -0.985608 -1.22978 0
M  V30 3941 C 382.297 -0.529825 -2.24636 0
M  V30 3942 C 383.267 0.434028 -1.60329 0
M  V30 3943 O 384.452 0.340414 -1.87739 0
M  V30 3944 C 381.592 0.156533 -3.44745 0
M  V30 3945 C 380.705 -0.848197 -4.23591 0
M  V30 3946 C 379.84 -0.136109 -5.31026 0
M  V30 3947 C 378.879 -1.1297 -6.01585 0
M  V30 3948 N 378.016 -0.446415 -7.00679 0
M  V30 3949 H 382.856 -1.40148 -2.62988 0
M  V30 3950 H 380.393 -0.702168 -1.29259 0
M  V30 3951 H 382.351 0.571324 -4.1327 0
M  V30 3952 H 380.981 0.992025 -3.07179 0
M  V30 3953 H 380.033 -1.38135 -3.54433 0
M  V30 3954 H 381.345 -1.60512 -4.72268 0
M  V30 3955 H 380.499 0.335784 -6.0577 0
M  V30 3956 H 379.238 0.653373 -4.83304 0
M  V30 3957 H 378.243 -1.6123 -5.25628 0
M  V30 3958 H 379.468 -1.91993 -6.51395 0
M  V30 3959 H 377.414 0.323763 -6.55201 0
M  V30 3960 H 377.331 -1.1419 -7.47326 0
M  V30 3961 H 378.599 0.00291697 -7.795 0
M  V30 3962 N 382.828 1.3818 -0.7579 0
M  V30 3963 C 384.056 2.04301 -0.326937 0
M  V30 3964 C 384.471 1.57163 1.0462 0
M  V30 3965 O 383.828 0.746626 1.66529 0
M  V30 3966 C 383.879 3.59846 -0.345363 0
M  V30 3967 O 383.6 4.05256 -1.66432 0
M  V30 3968 C 385.101 4.4319 0.098927 0
M  V30 3969 H 382.321 0.656443 -0.139012 0
M  V30 3970 H 384.865 1.76786 -1.02796 0
M  V30 3971 H 383.02 3.86182 0.306955 0
M  V30 3972 H 383.434 4.99709 -1.59345 0
M  V30 3973 H 384.908 5.51989 0.0348745 0
M  V30 3974 H 385.385 4.23947 1.14741 0
M  V30 3975 H 385.991 4.22051 -0.52468 0
M  V30 3976 N 384.306 0.507319 1.49211 0
M  V30 3977 C 385.722 0.163682 1.58758 0
M  V30 3978 C 385.922 -1.33208 1.51188 0
M  V30 3979 O 384.978 -2.10855 1.38911 0
M  V30 3980 C 386.291 0.746095 2.91297 0
M  V30 3981 C 387.839 0.712773 3.04776 0
M  V30 3982 C 388.314 1.27336 4.39943 0
M  V30 3983 N 389.805 1.23433 4.46451 0
M  V30 3984 C 390.54 1.63821 5.495 0
M  V30 3985 N 390.036 2.11832 6.5962 0
M  V30 3986 N 391.829 1.55198 5.4025 0
M  V30 3987 H 383.98 1.47972 1.52375 0
M  V30 3988 H 386.243 0.614147 0.722168 0
M  V30 3989 H 385.949 1.79534 3.02424 0
M  V30 3990 H 385.823 0.210137 3.76614 0
M  V30 3991 H 388.21 -0.327656 2.93275 0
M  V30 3992 H 388.291 1.28595 2.21127 0
M  V30 3993 H 387.935 2.3126 4.52196 0
M  V30 3994 H 387.865 0.676066 5.22242 0
M  V30 3995 H 390.356 0.882627 3.67448 0
M  V30 3996 H 390.669 2.40703 7.34358 0
M  V30 3997 H 389.014 2.1581 6.60644 0
M  V30 3998 H 392.205 1.17505 4.53112 0
M  V30 3999 H 392.378 1.86997 6.20432 0
M  V30 4000 N 385.784 -1.5574 0.241426 0
M  V30 4001 C 387.032 -1.98417 -0.384075 0
M  V30 4002 C 387.353 -1.13078 -1.58866 0
M  V30 4003 O 386.623 -0.212312 -1.94746 0
M  V30 4004 H 385.203 -0.732813 -0.144894 0
M  V30 4005 H 387.865 -1.9193 0.338943 0
M  V30 4006 H 386.961 -3.04219 -0.696939 0
M  V30 4007 N 387.262 0.0317525 -1.57568 0
M  V30 4008 C 388.209 1.0332 -2.06382 0
M  V30 4009 C 389.179 1.36082 -0.952414 0
M  V30 4010 O 390.364 1.46466 -1.2228 0
M  V30 4011 C 387.504 2.32989 -2.54578 0
M  V30 4012 C 386.617 2.0641 -3.79498 0
M  V30 4013 C 385.752 3.2993 -4.16317 0
M  V30 4014 C 384.791 2.98893 -5.34162 0
M  V30 4015 N 383.928 4.14857 -5.66426 0
M  V30 4016 H 388.768 0.609982 -2.9169 0
M  V30 4017 H 386.305 0.289573 -1.44222 0
M  V30 4018 H 388.263 3.0875 -2.80587 0
M  V30 4019 H 386.893 2.73039 -1.7219 0
M  V30 4020 H 385.945 1.21158 -3.6059 0
M  V30 4021 H 387.257 1.79513 -4.65378 0
M  V30 4022 H 386.411 4.1406 -4.4344 0
M  V30 4023 H 385.15 3.59938 -3.29083 0
M  V30 4024 H 384.155 2.13164 -5.06795 0
M  V30 4025 H 385.38 2.70165 -6.23047 0
M  V30 4026 H 383.326 4.44821 -4.82151 0
M  V30 4027 H 383.243 3.91374 -6.4681 0
M  V30 4028 H 384.511 4.99868 -5.98124 0
M  V30 4029 N 388.74 1.54641 0.303973 0
M  V30 4030 C 389.986 1.74038 1.04109 0
M  V30 4031 C 390.319 0.523051 1.87024 0
M  V30 4032 O 389.594 -0.479874 1.88487 0
M  V30 4033 C 389.877 3.02761 1.94955 0
M  V30 4034 C 389.73 4.34787 1.1524 0
M  V30 4035 C 391.049 3.27336 2.94175 0
M  V30 4036 H 388.168 0.63323 0.377079 0
M  V30 4037 H 390.81 1.87354 0.316001 0
M  V30 4038 H 388.96 2.9154 2.56782 0
M  V30 4039 H 390.632 4.57922 0.557236 0
M  V30 4040 H 388.875 4.31407 0.455053 0
M  V30 4041 H 389.546 5.21116 1.8205 0
M  V30 4042 H 392.022 3.38148 2.42477 0
M  V30 4043 H 390.898 4.18726 3.54908 0
M  V30 4044 H 391.159 2.45491 3.67677 0
M  V30 4045 N 390.218 -0.567019 1.47046 0
M  V30 4046 C 391.466 -1.322 1.52864 0
M  V30 4047 C 391.787 -1.94088 0.188388 0
M  V30 4048 O 391.057 -1.7941 -0.786693 0
M  V30 4049 H 389.637 -0.490894 0.563056 0
M  V30 4050 H 392.299 -0.662879 1.83281 0
M  V30 4051 H 391.395 -2.12062 2.2899 0
M  V30 4052 N 391.696 -1.35014 -0.812953 0
M  V30 4053 C 392.945 -1.27269 -1.56479 0
M  V30 4054 C 393.258 0.152771 -1.95002 0
M  V30 4055 O 394.464 0.352451 -2.69203 0
M  V30 4056 C 392.92 -2.23159 -2.82362 0
M  V30 4057 C 392.528 -3.71016 -2.511 0
M  V30 4058 C 394.272 -2.24342 -3.60376 0
M  V30 4059 C 392.179 -4.58746 -3.73237 0
M  V30 4060 H 391.109 -0.472829 -0.587324 0
M  V30 4061 H 393.76 -1.6024 -0.894171 0
M  V30 4062 H 392.142 -1.83151 -3.51101 0
M  V30 4063 H 393.316 -4.1962 -1.90409 0
M  V30 4064 H 391.631 -3.72378 -1.86343 0
M  V30 4065 H 394.228 -2.87107 -4.51081 0
M  V30 4066 H 394.571 -1.24542 -3.97234 0
M  V30 4067 H 395.104 -2.62846 -2.98591 0
M  V30 4068 H 391.843 -5.59521 -3.41492 0
M  V30 4069 H 391.363 -4.14871 -4.33176 0
M  V30 4070 H 393.042 -4.73852 -4.40537 0
M  V30 4071 N 393.175 1.03435 -1.18907 0
M  V30 4072 C 394.123 2.13703 -0.918353 0
M  V30 4073 C 395.117 1.68947 0.123767 0
M  V30 4074 O 396.323 1.79983 -0.0249701 0
M  V30 4075 H 392.698 0.698112 -0.279542 0
M  V30 4076 H 394.669 2.33731 -1.85506 0
M  V30 4077 C 393.418 3.44542 -0.467532 0
M  V30 4078 H 392.741 3.79394 -1.26095 0
M  V30 4079 H 394.181 4.22812 -0.317164 0
M  V30 4080 C 392.64 3.26829 0.817588 0
M  V30 4081 O 393.17 3.54975 1.88031 0
M  V30 4082 N 391.376 2.80139 0.772677 0
M  V30 4083 H 390.923 2.57434 -0.0923883 0
M  V30 4084 H 390.881 2.68668 1.63294 0
M  V30 4085 N 394.653 0.992116 1.22453 0
M  V30 4086 C 395.563 0.55065 2.28046 0
M  V30 4087 C 396.579 -0.400189 1.69335 0
M  V30 4088 O 397.755 -0.267215 1.99619 0
M  V30 4089 C 394.82 -0.128496 3.46462 0
M  V30 4090 C 393.881 0.865208 4.20491 0
M  V30 4091 C 393.114 0.218377 5.33253 0
M  V30 4092 O 393.337 -0.987894 5.6178 0
M  V30 4093 O 392.271 0.922845 5.94783 0
M  V30 4094 H 396.097 1.4291 2.67975 0
M  V30 4095 H 393.682 0.760326 1.28606 0
M  V30 4096 H 395.564 -0.508947 4.18315 0
M  V30 4097 H 394.239 -0.981526 3.0846 0
M  V30 4098 H 393.146 1.29658 3.50913 0
M  V30 4099 H 394.479 1.68741 4.62371 0
M  V30 4100 N 396.131 -1.37776 0.765217 0
M  V30 4101 C 397.061 -2.32945 0.160953 0
M  V30 4102 C 398.042 -1.55454 -0.690516 0
M  V30 4103 O 399.227 -1.83721 -0.629318 0
M  V30 4104 C 396.357 -3.39669 -0.724031 0
M  V30 4105 C 395.311 -4.27992 0.0256173 0
M  V30 4106 C 394.637 -5.25673 -0.978383 0
M  V30 4107 C 395.937 -5.08309 1.20082 0
M  V30 4108 H 397.631 -2.83728 0.955969 0
M  V30 4109 H 395.177 -1.36416 0.461149 0
M  V30 4110 H 397.13 -4.05219 -1.15652 0
M  V30 4111 H 395.854 -2.87396 -1.5515 0
M  V30 4112 H 394.513 -3.63964 0.438812 0
M  V30 4113 H 394.161 -4.69682 -1.80022 0
M  V30 4114 H 393.861 -5.85625 -0.481378 0
M  V30 4115 H 395.385 -5.94098 -1.40995 0
M  V30 4116 H 396.799 -5.67034 0.845307 0
M  V30 4117 H 395.196 -5.77554 1.62947 0
M  V30 4118 H 396.266 -4.41365 2.00811 0
M  V30 4119 N 397.609 -0.515225 -1.4894 0
M  V30 4120 C 398.539 0.244628 -2.32215 0
M  V30 4121 C 399.52 0.949136 -1.41157 0
M  V30 4122 O 400.705 0.937783 -1.70057 0
M  V30 4123 C 397.835 1.30096 -3.22013 0
M  V30 4124 C 396.789 0.715486 -4.21977 0
M  V30 4125 C 396.115 1.87339 -5.00808 0
M  V30 4126 C 397.415 -0.302982 -5.2142 0
M  V30 4127 H 399.109 -0.450501 -2.95991 0
M  V30 4128 H 396.655 -0.218098 -1.42339 0
M  V30 4129 H 398.608 1.84037 -3.79089 0
M  V30 4130 H 397.332 2.02547 -2.56207 0
M  V30 4131 H 395.991 0.197715 -3.66066 0
M  V30 4132 H 395.639 2.58592 -4.31438 0
M  V30 4133 H 395.339 1.48764 -5.68457 0
M  V30 4134 H 396.863 2.41686 -5.60732 0
M  V30 4135 H 398.277 0.148802 -5.73107 0
M  V30 4136 H 396.674 -0.60532 -5.97039 0
M  V30 4137 H 397.744 -1.21395 -4.69459 0
M  V30 4138 N 399.087 1.5561 -0.249682 0
M  V30 4139 C 400.503 1.59254 0.105103 0
M  V30 4140 C 400.703 1.26685 1.56694 0
M  V30 4141 O 399.759 1.0155 2.31179 0
M  V30 4142 C 401.072 2.99687 -0.246592 0
M  V30 4143 C 402.62 3.12416 -0.191118 0
M  V30 4144 C 403.095 4.55074 -0.516885 0
M  V30 4145 N 404.586 4.60835 -0.467489 0
M  V30 4146 C 405.321 5.69201 -0.69268 0
M  V30 4147 N 404.817 6.85817 -0.981146 0
M  V30 4148 N 406.61 5.58635 -0.623198 0
M  V30 4149 H 398.761 1.75049 -1.20298 0
M  V30 4150 H 401.024 0.815003 -0.484225 0
M  V30 4151 H 400.73 3.28267 -1.26228 0
M  V30 4152 H 400.604 3.74798 0.424962 0
M  V30 4153 H 402.991 2.83615 0.815247 0
M  V30 4154 H 403.072 2.39573 -0.896563 0
M  V30 4155 H 402.716 4.84596 -1.52082 0
M  V30 4156 H 402.646 5.26181 0.210068 0
M  V30 4157 H 405.137 3.7705 -0.253373 0
M  V30 4158 H 405.45 7.64341 -1.14032 0
M  V30 4159 H 403.795 6.87494 -1.01865 0
M  V30 4160 H 406.986 4.66406 -0.397863 0
M  V30 4161 H 407.159 6.43017 -0.802093 0
M  V30 4162 N 400.565 -0.0233959 1.57583 0
M  V30 4163 C 401.793 -0.724682 1.93794 0
M  V30 4164 C 402.208 -1.68588 0.849912 0
M  V30 4165 O 401.565 -1.81676 -0.173204 0
M  V30 4166 C 401.616 -1.47684 3.29957 0
M  V30 4167 O 401.337 -0.554222 4.3458 0
M  V30 4168 C 402.838 -2.27477 3.80485 0
M  V30 4169 H 400.058 -0.203317 0.639455 0
M  V30 4170 H 402.602 0.0207653 2.04489 0
M  V30 4171 H 400.757 -2.17412 3.20641 0
M  V30 4172 H 401.171 -1.08232 5.13212 0
M  V30 4173 H 402.645 -2.7564 4.78254 0
M  V30 4174 H 403.122 -3.09144 3.11972 0
M  V30 4175 H 403.728 -1.62813 3.92902 0
M  V30 4176 N 402.043 -1.548 -0.295768 0
M  V30 4177 C 403.292 -1.73538 -1.02798 0
M  V30 4178 C 403.605 -0.531159 -1.8825 0
M  V30 4179 O 404.811 -0.600458 -2.64777 0
M  V30 4180 C 403.267 -3.07051 -1.87744 0
M  V30 4181 C 402.875 -4.34968 -1.07269 0
M  V30 4182 C 404.619 -3.35146 -2.60533 0
M  V30 4183 C 402.526 -5.5953 -1.91521 0
M  V30 4184 H 401.456 -0.646794 -0.387522 0
M  V30 4185 H 404.107 -1.81278 -0.284718 0
M  V30 4186 H 402.489 -2.93289 -2.66078 0
M  V30 4187 H 403.663 -4.5958 -0.335117 0
M  V30 4188 H 401.978 -4.13847 -0.460384 0
M  V30 4189 H 404.575 -4.2541 -3.23929 0
M  V30 4190 H 404.918 -2.54255 -3.29636 0
M  V30 4191 H 405.451 -3.49902 -1.89244 0
M  V30 4192 H 402.19 -6.43103 -1.26878 0
M  V30 4193 H 401.71 -5.39096 -2.62937 0
M  V30 4194 H 403.389 -5.96982 -2.49442 0
M  V30 4195 N 403.521 0.559213 -1.47345 0
M  V30 4196 C 404.798 1.31997 -1.44348 0
M  V30 4197 C 405.178 2.1064 -0.139358 0
M  V30 4198 O 404.526 2.1091 0.879153 0
M  V30 4199 C 404.736 2.22618 -2.68779 0
M  V30 4200 C 406.084 2.83701 -3.1591 0
M  V30 4201 O 407.108 2.32921 -2.69493 0
M  V30 4202 O 405.967 3.75993 -3.966 0
M  V30 4203 H 403.061 0.594251 -0.575147 0
M  V30 4204 H 405.607 0.578282 -1.59543 0
M  V30 4205 H 404.379 1.64093 -3.55231 0
M  V30 4206 H 404.002 3.04085 -2.5616 0
M  V30 4207 O 405.038 1.45356 0.703831 0
M  V30 4208 H 405.729 1.38392 1.35526 0
M  V30 END ATOM
M  V30 BEGIN BOND
M  V30 END BOND
M  V30 END CTAB
M  END
$$$$
