drugbank_target|P56537 Eukaryotic translation initiation factor 6 (DB09130)
 OpenBabel12092121053D

  0  0  0     0  0            999 V3000
M  V30 BEGIN CTAB
M  V30 COUNTS 3695 3720 0 0 0
M  V30 BEGIN ATOM
M  V30 1 H -0.908 1.98254 -0.117106 0
M  V30 2 N 0 1.576 0 0
M  V30 3 C 0.933 2.03868 1.02534 0
M  V30 4 C 1.911 0.928543 1.3348 0
M  V30 5 O 3.095 1.19667 1.45644 0
M  V30 6 C 0.222 2.43627 2.35294 0
M  V30 7 C -0.732 3.65373 2.2001 0
M  V30 8 S 0.101 5.13292 1.52614 0
M  V30 9 C 1.257 5.56322 2.86805 0
M  V30 10 H 1.49 2.90518 0.631377 0
M  V30 11 H -0.977 1.52953 0.210867 0
M  V30 12 H 0.981 2.67203 3.11629 0
M  V30 13 H -0.358 1.57376 2.7183 0
M  V30 14 H -1.165 3.90944 3.18086 0
M  V30 15 H -1.563 3.418 1.51819 0
M  V30 16 H 0.729 5.58782 3.83104 0
M  V30 17 H 1.672 6.56266 2.65933 0
M  V30 18 H 2.08 4.83886 2.90714 0
M  V30 19 N 1.4781 -0.272755 1.55222 0
M  V30 20 C 2.4411 -1.32041 1.87344 0
M  V30 21 C 3.4411 -1.42342 0.74803 0
M  V30 22 O 4.6311 -1.41488 1.0162 0
M  V30 23 C 1.7631 -2.70173 2.07893 0
M  V30 24 H 2.9561 -1.04789 2.80997 0
M  V30 25 H 0.5091 -0.51083 1.47717 0
M  V30 26 H 1.2441 -3.02605 1.16622 0
M  V30 27 H 1.0291 -2.64082 2.89833 0
M  V30 28 H 2.5191 -3.45869 2.34017 0
M  V30 29 N 2.9562 -1.48159 -0.537278 0
M  V30 30 C 4.2022 -1.56035 -1.29541 0
M  V30 31 C 4.5352 -0.230377 -1.92829 0
M  V30 32 O 3.8102 0.762952 -1.78911 0
M  V30 33 C 4.0932 -2.69323 -2.39034 0
M  V30 34 C 3.9462 -4.12002 -1.80485 0
M  V30 35 C 5.2652 -2.78408 -3.40847 0
M  V30 36 H 2.3842 -0.567992 -0.469632 0
M  V30 37 H 5.0262 -1.80302 -0.599277 0
M  V30 38 H 3.1762 -2.48763 -2.98412 0
M  V30 39 H 4.8482 -4.43981 -1.25215 0
M  V30 40 H 3.0912 -4.19344 -1.11055 0
M  V30 41 H 3.7622 -4.87077 -2.59731 0
M  V30 42 H 6.2382 -2.97012 -2.91416 0
M  V30 43 H 5.1142 -3.59416 -4.14863 0
M  V30 44 H 5.3752 -1.86269 -4.00944 0
M  V30 45 N 4.4343 0.785586 -1.36625 0
M  V30 46 C 5.8503 1.08419 -1.17122 0
M  V30 47 C 6.0503 2.015 0.00208491 0
M  V30 48 O 5.1063 2.43551 0.666278 0
M  V30 49 C 6.4193 1.69498 -2.48377 0
M  V30 50 C 7.9673 1.81821 -2.54775 0
M  V30 51 C 8.4423 2.46315 -3.86126 0
M  V30 52 N 9.9333 2.53779 -3.87492 0
M  V30 53 C 10.6683 3.045 -4.85868 0
M  V30 54 N 10.1643 3.55499 -5.94637 0
M  V30 55 N 11.9573 3.03247 -4.73284 0
M  V30 56 H 4.1083 0.167264 -2.1174 0
M  V30 57 H 6.3713 0.13682 -0.938075 0
M  V30 58 H 6.0773 1.08571 -3.34522 0
M  V30 59 H 5.9513 2.6896 -2.64462 0
M  V30 60 H 8.3383 2.41884 -1.69045 0
M  V30 61 H 8.4193 0.811532 -2.42586 0
M  V30 62 H 8.0633 1.86895 -4.72263 0
M  V30 63 H 7.9933 3.47561 -3.95612 0
M  V30 64 H 10.4843 2.17672 -3.08913 0
M  V30 65 H 10.7973 3.92562 -6.65669 0
M  V30 66 H 9.1423 3.5364 -5.98301 0
M  V30 67 H 12.3333 2.62696 -3.87438 0
M  V30 68 H 12.5063 3.42467 -5.50109 0
M  V30 69 N 5.9124 1.20967 1.01018 0
M  V30 70 C 6.8754 0.965918 2.07853 0
M  V30 71 C 7.8754 -0.0610545 1.60684 0
M  V30 72 O 9.0654 0.175681 1.73312 0
M  V30 73 C 6.1974 0.455513 3.37843 0
M  V30 74 H 7.3904 1.91365 2.3091 0
M  V30 75 H 4.9434 1.02594 1.17916 0
M  V30 76 H 5.6784 -0.497381 3.20463 0
M  V30 77 H 5.4634 1.19622 3.73407 0
M  V30 78 H 6.9534 0.304667 4.16487 0
M  V30 79 N 7.3905 -1.2043 1.01659 0
M  V30 80 C 8.6155 -1.94318 0.724942 0
M  V30 81 C 9.0405 -1.74266 -0.708034 0
M  V30 82 O 8.3985 -1.03694 -1.48719 0
M  V30 83 C 8.4465 -3.44486 1.06591 0
M  V30 84 O 7.5505 -4.12017 0.177599 0
M  V30 85 H 6.8915 -0.60708 0.26898 0
M  V30 86 H 9.4215 -1.52861 1.35995 0
M  V30 87 H 9.4315 -3.95106 1.01762 0
M  V30 88 H 8.1065 -3.58404 2.10997 0
M  V30 89 H 6.6835 -3.71821 0.283421 0
M  V30 90 N 8.8686 -0.792821 -1.36206 0
M  V30 91 C 10.1156 -0.366786 -1.99151 0
M  V30 92 C 10.4436 1.06243 -1.62919 0
M  V30 93 O 9.6986 1.74927 -0.877442 0
M  V30 94 C 9.9976 -0.481501 -3.54142 0
M  V30 95 C 9.6636 -1.87202 -4.10203 0
M  V30 96 C 8.3256 -2.25248 -4.25226 0
M  V30 97 C 10.6776 -2.78237 -4.40719 0
M  V30 98 C 8.0056 -3.53723 -4.68078 0
M  V30 99 C 10.3576 -4.06144 -4.85005 0
M  V30 100 C 9.0216 -4.44207 -4.98234 0
M  V30 101 H 8.2916 -0.134217 -0.728743 0
M  V30 102 H 10.9386 -1.01094 -1.62641 0
M  V30 103 H 9.2436 0.246146 -3.91026 0
M  V30 104 H 10.9406 -0.132844 -4.0078 0
M  V30 105 H 7.5306 -1.56639 -3.98951 0
M  V30 106 H 11.7146 -2.50097 -4.28679 0
M  V30 107 H 6.9706 -3.8308 -4.76508 0
M  V30 108 H 11.1446 -4.76796 -5.07581 0
M  V30 109 H 8.7716 -5.43814 -5.31197 0
M  V30 110 N 10.3467 1.47872 -0.545128 0
M  V30 111 C 11.2567 2.33633 0.212746 0
M  V30 112 C 12.2727 1.4744 0.923983 0
M  V30 113 O 13.4487 1.80393 0.895572 0
M  V30 114 C 10.5137 3.23884 1.23693 0
M  V30 115 C 9.5747 4.25961 0.534417 0
M  V30 116 C 8.8077 5.11899 1.5098 0
M  V30 117 O 9.0307 5.00077 2.7437 0
M  V30 118 O 7.9647 5.92831 1.0409 0
M  V30 119 H 11.7907 2.99714 -0.490416 0
M  V30 120 H 9.3757 1.46235 -0.305871 0
M  V30 121 H 11.2577 3.79666 1.82843 0
M  V30 122 H 9.9327 2.60446 1.92222 0
M  V30 123 H 8.8397 3.73972 -0.0979679 0
M  V30 124 H 10.1727 4.92079 -0.109213 0
M  V30 125 N 11.8248 0.280983 1.55075 0
M  V30 126 C 12.7728 -0.619864 2.24188 0
M  V30 127 C 13.7668 -1.15315 1.24092 0
M  V30 128 O 14.9728 -1.1061 1.42005 0
M  V30 129 H 11.3478 -0.218459 0.719569 0
M  V30 130 H 13.3188 -0.0141831 2.98397 0
M  V30 131 C 12.0678 -1.7899 2.98091 0
M  V30 132 H 11.3908 -1.38874 3.74905 0
M  V30 133 H 12.8308 -2.39672 3.49762 0
M  V30 134 C 11.2898 -2.68192 2.03899 0
M  V30 135 O 11.8198 -3.6872 1.594 0
M  V30 136 N 10.0258 -2.35488 1.70275 0
M  V30 137 H 9.5728 -1.53787 2.06658 0
M  V30 138 H 9.5308 -2.95442 1.07524 0
M  V30 139 N 13.3029 -1.57598 0.00835791 0
M  V30 140 C 14.2509 -2.10078 -0.998508 0
M  V30 141 C 15.2449 -1.02262 -1.35051 0
M  V30 142 O 16.4509 -1.20719 -1.33518 0
M  V30 143 H 12.8259 -0.670903 -0.339696 0
M  V30 144 H 14.7969 -2.93648 -0.530398 0
M  V30 145 C 13.5459 -2.62615 -2.27879 0
M  V30 146 H 12.8689 -3.45213 -2.01662 0
M  V30 147 H 14.3089 -3.03004 -2.96588 0
M  V30 148 C 12.7679 -1.54407 -2.99433 0
M  V30 149 O 13.2979 -0.931812 -3.90743 0
M  V30 150 N 11.5039 -1.2695 -2.61404 0
M  V30 151 H 11.0509 -1.76924 -1.87232 0
M  V30 152 H 11.0089 -0.547704 -3.09593 0
M  V30 153 N 14.781 0.264519 -1.55364 0
M  V30 154 C 16.021 1.00254 -1.78125 0
M  V30 155 C 16.385 1.83187 -0.575017 0
M  V30 156 O 17.586 2.60029 -0.681042 0
M  V30 157 C 15.857 1.85478 -3.05504 0
M  V30 158 S 17.416 2.6543 -3.49417 0
M  V30 159 H 14.234 0.337522 -0.625779 0
M  V30 160 H 16.836 0.272111 -1.93597 0
M  V30 161 H 15.54 1.23491 -3.9138 0
M  V30 162 H 15.071 2.62827 -2.92721 0
M  V30 163 H 17.086 3.87958 -3.09359 0
M  V30 164 N 16.2591 1.48442 0.529413 0
M  V30 165 C 17.1691 1.6569 1.66084 0
M  V30 166 C 18.1851 0.539432 1.65427 0
M  V30 167 O 19.3611 0.810572 1.84368 0
M  V30 168 C 16.4261 1.69315 3.02545 0
M  V30 169 C 15.4871 2.92694 3.14052 0
M  V30 170 C 14.7201 2.96137 4.44003 0
M  V30 171 O 14.9431 2.07973 5.31134 0
M  V30 172 O 13.8771 3.88312 4.59888 0
M  V30 173 H 17.7031 2.61483 1.54469 0
M  V30 174 H 15.2881 1.3185 0.702567 0
M  V30 175 H 17.1701 1.74217 3.83701 0
M  V30 176 H 15.8451 0.766966 3.14483 0
M  V30 177 H 14.7521 2.93324 2.32189 0
M  V30 178 H 16.0851 3.84699 3.0703 0
M  V30 179 N 17.7372 -0.778329 1.37039 0
M  V30 180 C 18.9862 -1.53189 1.3121 0
M  V30 181 C 19.2992 -1.95328 -0.103095 0
M  V30 182 O 20.5052 -2.70012 -0.283826 0
M  V30 183 C 18.9612 -2.76591 2.30272 0
M  V30 184 C 18.5692 -2.41577 3.77286 0
M  V30 185 C 20.3132 -3.5455 2.33441 0
M  V30 186 C 18.2202 -3.61441 4.68096 0
M  V30 187 H 17.1502 -0.5751 0.487622 0
M  V30 188 H 19.8012 -0.853101 1.62464 0
M  V30 189 H 18.1832 -3.46326 1.92027 0
M  V30 190 H 19.3572 -1.79668 4.2433 0
M  V30 191 H 17.6722 -1.76806 3.76999 0
M  V30 192 H 20.2692 -4.43628 2.98493 0
M  V30 193 H 20.6122 -3.93936 1.34611 0
M  V30 194 H 21.1452 -2.91805 2.7036 0
M  V30 195 H 17.8842 -3.27142 5.6803 0
M  V30 196 H 17.4042 -4.22478 4.25761 0
M  V30 197 H 19.0832 -4.28335 4.8491 0
M  V30 198 N 19.2153 -1.21501 -1.00376 0
M  V30 199 C 20.4633 -1.03095 -1.73827 0
M  V30 200 C 20.7843 0.436341 -1.90055 0
M  V30 201 O 20.0543 1.31466 -1.45236 0
M  V30 202 H 18.6343 -0.378487 -0.644016 0
M  V30 203 H 21.2963 -1.52831 -1.20949 0
M  V30 204 H 20.3923 -1.49991 -2.73695 0
M  V30 205 N 20.6934 1.19889 -1.02296 0
M  V30 206 C 21.9334 1.91125 -0.724602 0
M  V30 207 C 22.2974 1.77464 0.732835 0
M  V30 208 O 23.4984 2.43241 1.144 0
M  V30 209 C 21.7694 3.38187 -1.15604 0
M  V30 210 S 23.3284 4.27702 -0.980621 0
M  V30 211 H 20.1464 0.66018 -0.263976 0
M  V30 212 H 22.7484 1.44978 -1.31155 0
M  V30 213 H 21.4524 3.45653 -2.21251 0
M  V30 214 H 20.9834 3.89363 -0.562131 0
M  V30 215 H 22.9984 4.96073 0.112225 0
M  V30 216 N 22.1715 0.800033 1.35784 0
M  V30 217 C 23.4185 0.377342 1.98953 0
M  V30 218 C 23.7465 -1.05378 1.6348 0
M  V30 219 O 23.0015 -1.74459 0.886707 0
M  V30 220 C 23.3005 0.500276 3.53881 0
M  V30 221 C 22.9665 1.89375 4.09204 0
M  V30 222 C 21.6285 2.27499 4.24025 0
M  V30 223 C 23.9805 2.8057 4.39238 0
M  V30 224 C 21.3085 3.562 4.66195 0
M  V30 225 C 23.6605 4.0871 4.82844 0
M  V30 226 C 22.3245 4.46843 4.95871 0
M  V30 227 H 21.5945 0.138079 0.728021 0
M  V30 228 H 24.2415 1.01955 1.62103 0
M  V30 229 H 22.5465 -0.225405 3.91151 0
M  V30 230 H 24.2435 0.154097 4.00704 0
M  V30 231 H 20.8335 1.58753 3.98115 0
M  V30 232 H 25.0175 2.52367 4.27346 0
M  V30 233 H 20.2735 3.85602 4.74469 0
M  V30 234 H 24.4475 4.79481 5.05046 0
M  V30 235 H 22.0745 5.46623 5.28306 0
M  V30 236 N 23.6496 -1.47581 0.552962 0
M  V30 237 C 24.6126 -2.28439 -0.186605 0
M  V30 238 C 25.6126 -1.36706 -0.84665 0
M  V30 239 O 26.8026 -1.59378 -0.703164 0
M  V30 240 C 23.9346 -3.16264 -1.2724 0
M  V30 241 H 25.1276 -2.95294 0.523609 0
M  V30 242 H 22.6806 -1.532 0.309745 0
M  V30 243 H 23.4156 -2.54091 -2.01514 0
M  V30 244 H 23.2006 -3.83769 -0.803968 0
M  V30 245 H 24.6906 -3.77198 -1.79196 0
M  V30 246 N 25.1277 -0.289203 -1.54924 0
M  V30 247 C 26.0747 0.592115 -2.23075 0
M  V30 248 C 27.0447 1.13881 -1.20915 0
M  V30 249 O 28.2297 1.18551 -1.495 0
M  V30 250 C 25.3697 1.76376 -2.96623 0
M  V30 251 C 24.4827 1.24959 -4.13533 0
M  V30 252 C 23.6177 2.38416 -4.74691 0
M  V30 253 C 22.6567 1.84072 -5.83767 0
M  V30 254 N 21.7937 2.91057 -6.38929 0
M  V30 255 H 26.6337 0.00432038 -2.98 0
M  V30 256 H 24.1707 -0.00963529 -1.47097 0
M  V30 257 H 26.1287 2.45268 -3.3749 0
M  V30 258 H 24.7587 2.32337 -2.24097 0
M  V30 259 H 23.8107 0.453307 -3.77689 0
M  V30 260 H 25.1227 0.811662 -4.92152 0
M  V30 261 H 24.2767 3.15276 -5.18349 0
M  V30 262 H 23.0157 2.8553 -3.95378 0
M  V30 263 H 22.0207 1.05697 -5.39545 0
M  V30 264 H 23.2457 1.37877 -6.64956 0
M  V30 265 H 21.1917 3.37526 -5.62505 0
M  V30 266 H 21.1087 2.51724 -7.12861 0
M  V30 267 H 22.3767 3.6785 -6.87246 0
M  V30 268 N 26.6058 1.57591 -0.0167156 0
M  V30 269 C 27.5358 2.12496 0.967858 0
M  V30 270 C 28.5168 1.03807 1.34752 0
M  V30 271 O 29.7018 1.31577 1.42833 0
M  V30 272 C 26.8318 2.64194 2.25431 0
M  V30 273 C 25.7858 3.77559 2.01576 0
M  V30 274 C 25.1118 4.15636 3.36379 0
M  V30 275 C 26.4118 5.04151 1.36489 0
M  V30 276 H 28.1058 2.95013 0.510643 0
M  V30 277 H 25.6518 1.41915 0.244181 0
M  V30 278 H 27.6048 3.01236 2.94678 0
M  V30 279 H 26.3288 1.78821 2.73296 0
M  V30 280 H 24.9878 3.40937 1.34751 0
M  V30 281 H 24.6358 3.27263 3.81979 0
M  V30 282 H 24.3358 4.92022 3.21229 0
M  V30 283 H 25.8598 4.5525 4.06915 0
M  V30 284 H 27.2738 5.38857 1.95718 0
M  V30 285 H 25.6708 5.85453 1.31776 0
M  V30 286 H 26.7408 4.83733 0.336219 0
M  V30 287 N 28.0839 -0.256276 1.55502 0
M  V30 288 C 29.3119 -1.00342 1.8094 0
M  V30 289 C 29.7269 -1.79307 0.59114 0
M  V30 290 O 29.0839 -1.77114 -0.440081 0
M  V30 291 C 29.1349 -1.94875 3.04476 0
M  V30 292 O 28.8559 -1.19107 4.21598 0
M  V30 293 C 30.3569 -2.81266 3.42644 0
M  V30 294 H 27.5769 -0.295685 0.602338 0
M  V30 295 H 30.1209 -0.281998 2.02546 0
M  V30 296 H 28.2759 -2.62457 2.84947 0
M  V30 297 H 28.6899 -1.82969 4.91551 0
M  V30 298 H 30.1639 -3.43362 4.32211 0
M  V30 299 H 30.6409 -3.51897 2.62802 0
M  V30 300 H 31.2469 -2.1915 3.64491 0
M  V30 301 N 29.562 -1.4872 -0.521534 0
M  V30 302 C 30.51 -1.64328 -1.64618 0
M  V30 303 C 31.504 -0.50953 -1.61555 0
M  V30 304 O 32.71 -0.688525 -1.66311 0
M  V30 305 H 29.085 -0.517805 -0.545328 0
M  V30 306 H 31.056 -2.58767 -1.48601 0
M  V30 307 C 29.805 -1.70805 -3.02855 0
M  V30 308 H 29.128 -2.5741 -3.05909 0
M  V30 309 H 30.568 -1.85766 -3.81139 0
M  V30 310 C 29.027 -0.448479 -3.33902 0
M  V30 311 O 29.557 0.434928 -3.99339 0
M  V30 312 N 27.763 -0.317616 -2.88859 0
M  V30 313 H 27.31 -1.03748 -2.35784 0
M  V30 314 H 27.268 0.524113 -3.10001 0
M  V30 315 N 31.0401 0.771051 -1.3745 0
M  V30 316 C 32.2681 1.56015 -1.35893 0
M  V30 317 C 32.6831 1.88718 0.0555523 0
M  V30 318 O 32.0401 1.51502 1.01752 0
M  V30 319 C 32.0911 2.87001 -2.19801 0
M  V30 320 O 31.8121 2.557 -3.55738 0
M  V30 321 C 33.3131 3.81228 -2.26231 0
M  V30 322 H 30.5331 0.483317 -0.465453 0
M  V30 323 H 33.0771 0.955611 -1.80799 0
M  V30 324 H 31.2321 3.43877 -1.78402 0
M  V30 325 H 31.6461 3.39584 -3.99729 0
M  V30 326 H 33.1201 4.70139 -2.89263 0
M  V30 327 H 33.5971 4.20409 -1.27093 0
M  V30 328 H 34.2031 3.30281 -2.67945 0
M  V30 329 N 32.5182 1.22032 0.997298 0
M  V30 330 C 33.7482 1.06686 1.76923 0
M  V30 331 C 34.1562 -0.385838 1.85224 0
M  V30 332 O 33.4992 -1.27929 1.31833 0
M  V30 333 C 33.5612 1.59802 3.22031 0
M  V30 334 C 33.2252 3.08362 3.37286 0
M  V30 335 C 34.2222 4.05835 3.24952 0
M  V30 336 C 31.9072 3.47727 3.6248 0
M  V30 337 C 33.9012 5.4066 3.37588 0
M  V30 338 C 31.5882 4.82701 3.74757 0
M  V30 339 C 32.5862 5.78977 3.62319 0
M  V30 340 O 32.2742 7.11502 3.74193 0
M  V30 341 H 32.0062 0.374767 0.562606 0
M  V30 342 H 34.5602 1.61991 1.26286 0
M  V30 343 H 32.7902 0.989003 3.73839 0
M  V30 344 H 34.4792 1.40184 3.80924 0
M  V30 345 H 35.2452 3.76766 3.05405 0
M  V30 346 H 31.1242 2.73317 3.7124 0
M  V30 347 H 34.6682 6.15788 3.27796 0
M  V30 348 H 30.5652 5.11453 3.9381 0
M  V30 349 H 31.3332 7.19019 3.91093 0
M  V30 350 N 33.9963 -1.19345 1.0293 0
M  V30 351 C 35.2363 -1.90738 0.734727 0
M  V30 352 C 35.6003 -1.7785 -0.723414 0
M  V30 353 O 36.8013 -2.43844 -1.13108 0
M  V30 354 C 35.0723 -3.37569 1.17396 0
M  V30 355 S 36.6313 -4.27176 1.00329 0
M  V30 356 H 33.4493 -0.658771 0.267474 0
M  V30 357 H 36.0513 -1.4428 1.31922 0
M  V30 358 H 34.7553 -3.44475 2.23081 0
M  V30 359 H 34.2863 -3.8906 0.582772 0
M  V30 360 H 36.3013 -4.96126 -0.0859152 0
M  V30 361 N 35.4744 -0.807222 -1.35358 0
M  V30 362 C 36.4044 -0.232509 -2.3234 0
M  V30 363 C 37.3854 0.642386 -1.57504 0
M  V30 364 O 38.5704 0.572526 -1.85569 0
M  V30 365 C 35.7004 0.619238 -3.41735 0
M  V30 366 C 34.6544 -0.157215 -4.27711 0
M  V30 367 C 33.9804 0.816273 -5.28433 0
M  V30 368 C 35.2804 -1.35656 -5.04376 0
M  V30 369 H 36.9744 -1.04276 -2.80654 0
M  V30 370 H 34.5204 -0.50288 -1.34934 0
M  V30 371 H 36.4734 1.03137 -4.08584 0
M  V30 372 H 35.1974 1.46239 -2.92031 0
M  V30 373 H 33.8564 -0.550525 -3.62443 0
M  V30 374 H 33.5044 1.65494 -4.74996 0
M  V30 375 H 33.2044 0.301067 -5.86828 0
M  V30 376 H 34.7284 1.22659 -5.98153 0
M  V30 377 H 36.1424 -1.01927 -5.64166 0
M  V30 378 H 34.5394 -1.8063 -5.7227 0
M  V30 379 H 35.6094 -2.14288 -4.34981 0
M  V30 380 N 36.9525 1.47285 -0.560781 0
M  V30 381 C 38.1985 2.02764 -0.0381184 0
M  V30 382 C 38.5315 1.43384 1.30976 0
M  V30 383 O 37.8065 0.590733 1.85312 0
M  V30 384 C 38.0895 3.60064 0.0511427 0
M  V30 385 C 37.9425 4.2987 -1.32408 0
M  V30 386 C 39.2615 4.33439 0.762795 0
M  V30 387 H 36.3805 0.736841 -0.0153264 0
M  V30 388 H 39.0225 1.75675 -0.723759 0
M  V30 389 H 37.1725 3.83274 0.635065 0
M  V30 390 H 38.8445 4.17989 -1.95148 0
M  V30 391 H 37.0875 3.90085 -1.8978 0
M  V30 392 H 37.7585 5.38478 -1.21431 0
M  V30 393 H 40.2345 4.15243 0.266965 0
M  V30 394 H 39.1105 5.43124 0.794221 0
M  V30 395 H 39.3715 4.02915 1.81966 0
M  V30 396 N 38.4306 0.297415 1.54768 0
M  V30 397 C 39.3936 -0.567375 2.22066 0
M  V30 398 C 40.3936 -1.06409 1.20556 0
M  V30 399 O 41.5836 -0.960691 1.45315 0
M  V30 400 C 38.7156 -1.78517 2.90421 0
M  V30 401 H 39.9086 0.0205534 2.99893 0
M  V30 402 H 37.4616 0.0482163 1.56226 0
M  V30 403 H 38.1966 -2.41303 2.16664 0
M  V30 404 H 37.9816 -1.43669 3.64831 0
M  V30 405 H 39.4716 -2.39964 3.41771 0
M  V30 406 N 39.9087 -1.5758 0.0250728 0
M  V30 407 C 41.1577 -1.90811 -0.653767 0
M  V30 408 C 41.4707 -0.90273 -1.73523 0
M  V30 409 O 42.6767 -1.12614 -2.47043 0
M  V30 410 C 41.1327 -3.38804 -1.21409 0
M  V30 411 C 40.7407 -4.47692 -0.166126 0
M  V30 412 C 42.4847 -3.81108 -1.86967 0
M  V30 413 C 40.3917 -5.86779 -0.737856 0
M  V30 414 H 39.3217 -0.712063 -0.247956 0
M  V30 415 H 41.9727 -1.83281 0.0897137 0
M  V30 416 H 40.3547 -3.41252 -2.00905 0
M  V30 417 H 41.5287 -4.56797 0.606079 0
M  V30 418 H 39.8437 -4.14565 0.390466 0
M  V30 419 H 42.4407 -4.82375 -2.30692 0
M  V30 420 H 42.7837 -3.15953 -2.71071 0
M  V30 421 H 43.3167 -3.81065 -1.14167 0
M  V30 422 H 40.0557 -6.55468 0.0649577 0
M  V30 423 H 39.5757 -5.81288 -1.47864 0
M  V30 424 H 41.2547 -6.35223 -1.22884 0
M  V30 425 N 41.3868 0.248026 -1.55636 0
M  V30 426 C 42.6348 0.974295 -1.77065 0
M  V30 427 C 42.9558 1.85897 -0.588849 0
M  V30 428 O 42.2258 1.91868 0.395407 0
M  V30 429 H 40.8058 0.362733 -0.653019 0
M  V30 430 H 43.4678 0.266244 -1.93073 0
M  V30 431 H 42.5638 1.59667 -2.68166 0
M  V30 432 N 42.8649 1.48995 0.513639 0
M  V30 433 C 44.1129 1.57531 1.26604 0
M  V30 434 C 44.4339 0.258236 1.93283 0
M  V30 435 O 43.7039 -0.721502 1.8213 0
M  V30 436 H 42.2839 0.580387 0.470276 0
M  V30 437 H 44.9459 1.85552 0.596373 0
M  V30 438 H 44.0419 2.36486 2.03669 0
M  V30 439 N 44.343 -0.763751 1.37857 0
M  V30 440 C 45.568 -1.55805 1.36893 0
M  V30 441 C 45.993 -1.88054 -0.0416135 0
M  V30 442 O 45.351 -1.49825 -1.02089 0
M  V30 443 C 45.399 -2.84012 2.22192 0
M  V30 444 O 44.503 -3.78732 1.63204 0
M  V30 445 H 43.844 -0.471638 0.46739 0
M  V30 446 H 46.374 -0.944657 1.81487 0
M  V30 447 H 46.384 -3.33037 2.35691 0
M  V30 448 H 45.059 -2.59869 3.24716 0
M  V30 449 H 43.636 -3.37402 1.58791 0
M  V30 450 N 45.8211 -1.22559 -0.990812 0
M  V30 451 C 46.7311 -1.01394 -2.11557 0
M  V30 452 C 47.7471 0.0383962 -1.73958 0
M  V30 453 O 48.9231 -0.154787 -2.00804 0
M  V30 454 C 45.9881 -0.596569 -3.41529 0
M  V30 455 C 45.0491 -1.72276 -3.93217 0
M  V30 456 C 44.2821 -1.32521 -5.16985 0
M  V30 457 O 44.5051 -0.204909 -5.70032 0
M  V30 458 O 43.4391 -2.14247 -5.62478 0
M  V30 459 H 47.2651 -1.95633 -2.32296 0
M  V30 460 H 44.8501 -1.01172 -1.0993 0
M  V30 461 H 46.7321 -0.374263 -4.19735 0
M  V30 462 H 45.4071 0.316939 -3.22145 0
M  V30 463 H 44.3141 -1.99961 -3.16174 0
M  V30 464 H 45.6471 -2.61421 -4.17037 0
M  V30 465 N 47.2992 1.18797 -1.03562 0
M  V30 466 C 48.2472 2.24297 -0.615905 0
M  V30 467 C 49.2412 1.65643 0.354808 0
M  V30 468 O 50.4472 1.78618 0.22265 0
M  V30 469 H 46.8222 0.729909 -0.180934 0
M  V30 470 H 48.7932 2.5701 -1.5162 0
M  V30 471 C 47.5422 3.47698 0.0104735 0
M  V30 472 H 46.8652 3.93125 -0.727509 0
M  V30 473 H 48.3052 4.23159 0.266995 0
M  V30 474 C 46.7642 3.12489 1.25905 0
M  V30 475 O 47.2942 3.25761 2.35038 0
M  V30 476 N 45.5002 2.6686 1.15039 0
M  V30 477 H 45.0472 2.56261 0.262328 0
M  V30 478 H 45.0052 2.43674 1.98672 0
M  V30 479 N 48.7773 0.814389 1.34928 0
M  V30 480 C 50.0243 0.398423 1.98542 0
M  V30 481 C 50.3523 -1.03638 1.64589 0
M  V30 482 O 49.6073 -1.73509 0.90516 0
M  V30 483 C 49.9063 0.537781 3.53331 0
M  V30 484 C 49.5723 1.93704 4.07172 0
M  V30 485 C 48.2343 2.31984 4.21589 0
M  V30 486 C 50.5863 2.85213 4.36237 0
M  V30 487 C 47.9143 3.61125 4.62391 0
M  V30 488 C 50.2663 4.13809 4.78482 0
M  V30 489 C 48.9303 4.52077 4.91104 0
M  V30 490 H 48.2003 0.145793 0.726516 0
M  V30 491 H 50.8473 1.03669 1.61012 0
M  V30 492 H 49.1523 -0.183906 3.91368 0
M  V30 493 H 50.8493 0.196588 4.00518 0
M  V30 494 H 47.4393 1.62966 3.96409 0
M  V30 495 H 51.6233 2.56885 4.24645 0
M  V30 496 H 46.8793 3.90612 4.70353 0
M  V30 497 H 51.0533 4.84811 4.99932 0
M  V30 498 H 48.6803 5.52196 5.22478 0
M  V30 499 N 50.2554 -1.46986 0.568584 0
M  V30 500 C 51.4854 -2.0653 0.0539173 0
M  V30 501 C 51.8934 -1.42004 -1.25026 0
M  V30 502 O 51.2364 -0.514541 -1.76347 0
M  V30 503 C 51.2984 -3.58938 -0.200854 0
M  V30 504 C 50.9624 -4.45572 1.01559 0
M  V30 505 C 51.9594 -4.82986 1.92407 0
M  V30 506 C 49.6444 -4.8692 1.23346 0
M  V30 507 C 51.6384 -5.60559 3.03402 0
M  V30 508 C 49.3254 -5.64255 2.34649 0
M  V30 509 C 50.3234 -6.00986 3.24507 0
M  V30 510 O 50.0114 -6.76761 4.33878 0
M  V30 511 H 49.7434 -0.674292 0.0480234 0
M  V30 512 H 52.2974 -1.89812 0.784896 0
M  V30 513 H 50.5274 -3.73911 -0.986279 0
M  V30 514 H 52.2164 -4.0046 -0.662294 0
M  V30 515 H 52.9824 -4.51633 1.76785 0
M  V30 516 H 48.8614 -4.57789 0.543178 0
M  V30 517 H 52.4054 -5.89147 3.73565 0
M  V30 518 H 48.3024 -5.95021 2.5024 0
M  V30 519 H 49.0704 -6.95168 4.32068 0
M  V30 520 N 51.7335 -0.305618 -1.54608 0
M  V30 521 C 52.9585 0.307562 -2.05107 0
M  V30 522 C 53.3835 1.46385 -1.18123 0
M  V30 523 O 52.7415 1.8034 -0.186324 0
M  V30 524 C 52.7895 0.73704 -3.52987 0
M  V30 525 O 51.8935 1.84134 -3.6901 0
M  V30 526 H 51.2345 0.0589143 -0.661381 0
M  V30 527 H 53.7645 -0.448807 -1.99617 0
M  V30 528 H 53.7745 1.02459 -3.94925 0
M  V30 529 H 52.4495 -0.108773 -4.15758 0
M  V30 530 H 51.0265 1.55398 -3.38978 0
M  V30 531 N 53.2116 1.57565 -0.0334293 0
M  V30 532 C 54.4576 1.92262 0.645226 0
M  V30 533 C 54.7906 0.910543 1.71531 0
M  V30 534 O 54.0656 -0.066099 1.94388 0
M  V30 535 C 54.3486 3.37422 1.2577 0
M  V30 536 C 54.2016 4.49369 0.196891 0
M  V30 537 C 55.5206 3.82628 2.17449 0
M  V30 538 H 52.6396 0.699171 0.233085 0
M  V30 539 H 55.2816 1.89779 -0.0915694 0
M  V30 540 H 53.4316 3.39669 1.88566 0
M  V30 541 H 55.1036 4.59254 -0.433962 0
M  V30 542 H 53.3466 4.31168 -0.477137 0
M  V30 543 H 54.0176 5.47978 0.665124 0
M  V30 544 H 56.4936 3.82145 1.64634 0
M  V30 545 H 55.3696 4.84883 2.57254 0
M  V30 546 H 55.6306 3.18376 3.0674 0
M  V30 547 N 54.6897 -0.239769 1.55765 0
M  V30 548 C 55.9367 -0.966801 1.7793 0
M  V30 549 C 56.2647 -1.85046 0.599015 0
M  V30 550 O 55.5197 -1.91197 -0.417395 0
M  V30 551 C 55.8187 -1.852 3.05672 0
M  V30 552 C 55.4847 -1.1231 4.36689 0
M  V30 553 C 54.1467 -0.921689 4.72291 0
M  V30 554 C 56.4987 -0.607019 5.17653 0
M  V30 555 C 53.8267 -0.191996 5.86386 0
M  V30 556 C 56.1787 0.109241 6.32506 0
M  V30 557 C 54.8427 0.322073 6.66723 0
M  V30 558 H 54.1127 -0.353778 0.651093 0
M  V30 559 H 56.7597 -0.23634 1.90036 0
M  V30 560 H 55.0647 -2.64975 2.8861 0
M  V30 561 H 56.7617 -2.41635 3.20021 0
M  V30 562 H 53.3517 -1.29004 4.08725 0
M  V30 563 H 57.5357 -0.750153 4.90598 0
M  V30 564 H 52.7917 -0.0166949 6.11398 0
M  V30 565 H 56.9657 0.516737 6.9448 0
M  V30 566 H 54.5927 0.88944 7.54979 0
M  V30 567 N 56.1678 -1.49265 -0.50573 0
M  V30 568 C 57.0778 -1.68312 -1.63427 0
M  V30 569 C 58.0938 -0.565682 -1.64548 0
M  V30 570 O 59.2698 -0.839801 -1.83055 0
M  V30 571 C 56.3348 -1.74107 -2.99813 0
M  V30 572 C 55.3958 -2.97653 -3.09356 0
M  V30 573 C 54.6288 -3.03163 -4.39236 0
M  V30 574 O 54.8518 -2.16396 -5.27758 0
M  V30 575 O 53.7858 -3.9558 -4.53652 0
M  V30 576 H 57.6118 -2.63907 -1.50289 0
M  V30 577 H 55.1968 -1.32951 -0.681502 0
M  V30 578 H 57.0788 -1.803 -3.80881 0
M  V30 579 H 55.7538 -0.816901 -3.13223 0
M  V30 580 H 54.6608 -2.96981 -2.27493 0
M  V30 581 H 55.9938 -3.89535 -3.00871 0
M  V30 582 N 57.6459 0.756429 -1.3826 0
M  V30 583 C 58.8939 1.51248 -1.34047 0
M  V30 584 C 59.2149 1.94875 0.0698372 0
M  V30 585 O 58.4849 1.67436 1.01696 0
M  V30 586 H 57.0649 0.561018 -0.493222 0
M  V30 587 H 59.7269 0.899347 -1.7291 0
M  V30 588 H 58.8229 2.40472 -1.98947 0
M  V30 589 N 59.124 1.23083 0.984299 0
M  V30 590 C 60.034 1.02515 2.11016 0
M  V30 591 C 61.05 -0.0291702 1.73976 0
M  V30 592 O 62.226 0.165434 2.00719 0
M  V30 593 C 59.291 0.614673 3.41208 0
M  V30 594 C 58.352 1.74359 3.92297 0
M  V30 595 C 57.585 1.35261 5.16275 0
M  V30 596 O 57.808 0.235136 5.69915 0
M  V30 597 O 56.742 2.17227 5.61334 0
M  V30 598 H 60.568 1.96862 2.31255 0
M  V30 599 H 58.153 1.01753 1.09392 0
M  V30 600 H 60.035 0.396518 4.1953 0
M  V30 601 H 58.71 -0.299851 3.22308 0
M  V30 602 H 57.617 2.01635 3.1511 0
M  V30 603 H 58.95 2.63629 4.15645 0
M  V30 604 N 60.6021 -1.18246 1.0419 0
M  V30 605 C 61.5321 -2.24127 0.654914 0
M  V30 606 C 62.5131 -1.66617 -0.342451 0
M  V30 607 O 63.6981 -1.92924 -0.222277 0
M  V30 608 C 60.8281 -3.47295 0.0183757 0
M  V30 609 C 59.7821 -4.17563 0.939414 0
M  V30 610 C 59.1081 -5.34438 0.167286 0
M  V30 611 C 60.4081 -4.70917 2.25908 0
M  V30 612 H 62.1021 -2.56753 1.54007 0
M  V30 613 H 59.6481 -1.23414 0.74195 0
M  V30 614 H 61.6011 -4.20572 -0.264082 0
M  V30 615 H 60.3251 -3.13907 -0.901664 0
M  V30 616 H 58.9841 -3.46186 1.20628 0
M  V30 617 H 58.6321 -4.97298 -0.7552 0
M  V30 618 H 58.3321 -5.82388 0.780901 0
M  V30 619 H 59.8561 -6.10504 -0.108125 0
M  V30 620 H 61.2701 -5.35882 2.03724 0
M  V30 621 H 59.6671 -5.29406 2.82577 0
M  V30 622 H 60.7371 -3.88272 2.9047 0
M  V30 623 N 62.0802 -0.821533 -1.34494 0
M  V30 624 C 63.3052 -0.420873 -2.03085 0
M  V30 625 C 63.7302 0.964915 -1.61465 0
M  V30 626 O 63.0882 1.62763 -0.798607 0
M  V30 627 C 63.1362 -0.529414 -3.56693 0
M  V30 628 O 62.2402 0.451302 -4.09923 0
M  V30 629 H 61.5812 -0.173489 -0.640935 0
M  V30 630 H 64.1112 -1.11157 -1.71771 0
M  V30 631 H 64.1212 -0.404671 -4.05988 0
M  V30 632 H 62.7962 -1.54014 -3.86332 0
M  V30 633 H 61.3732 0.285558 -3.71805 0
M  V30 634 N 63.5583 1.46682 -0.576371 0
M  V30 635 C 64.8353 1.95599 0.00703437 0
M  V30 636 C 65.2153 1.51904 1.46589 0
M  V30 637 O 64.5633 0.766755 2.15251 0
M  V30 638 C 64.7733 3.4864 -0.158404 0
M  V30 639 C 66.1213 4.24594 -0.0229439 0
M  V30 640 O 67.1453 3.56094 -0.0869173 0
M  V30 641 O 66.0043 5.46373 0.118015 0
M  V30 642 H 63.0983 0.825275 0.053384 0
M  V30 643 H 65.6443 1.56996 -0.644244 0
M  V30 644 H 64.4163 3.7331 -1.17282 0
M  V30 645 H 64.0393 3.94057 0.5296 0
M  V30 646 N 65.0364 0.313813 1.54444 0
M  V30 647 C 66.2644 -0.293918 2.04802 0
M  V30 648 C 66.6794 -1.46537 1.19047 0
M  V30 649 O 66.0364 -1.81182 0.218939 0
M  V30 650 C 66.0874 -0.737806 3.53891 0
M  V30 651 O 65.8084 0.387038 4.36387 0
M  V30 652 C 67.3094 -1.40936 4.203 0
M  V30 653 H 64.5294 -0.0620057 0.668129 0
M  V30 654 H 67.0734 0.457169 1.99324 0
M  V30 655 H 65.2284 -1.43889 3.59687 0
M  V30 656 H 65.6424 0.0391274 5.24485 0
M  V30 657 H 67.1164 -1.67099 5.26101 0
M  V30 658 H 67.5934 -2.35355 3.70816 0
M  V30 659 H 68.1994 -0.751117 4.18615 0
M  V30 660 N 66.5145 -1.57545 0.0417849 0
M  V30 661 C 67.7635 -1.91494 -0.633492 0
M  V30 662 C 68.0765 -0.921084 -1.72556 0
M  V30 663 O 69.2825 -1.15228 -2.45835 0
M  V30 664 C 67.7385 -3.40072 -1.17808 0
M  V30 665 C 67.3465 -4.47843 -0.118633 0
M  V30 666 C 69.0905 -3.8307 -1.82915 0
M  V30 667 C 66.9975 -5.87529 -0.675578 0
M  V30 668 H 65.9275 -0.714653 -0.24039 0
M  V30 669 H 68.5785 -1.83175 0.109148 0
M  V30 670 H 66.9605 -3.43364 -1.97274 0
M  V30 671 H 68.1345 -4.56128 0.654494 0
M  V30 672 H 66.4495 -4.14128 0.434414 0
M  V30 673 H 69.0465 -4.84794 -2.25563 0
M  V30 674 H 69.3895 -3.1881 -2.67705 0
M  V30 675 H 69.9225 -3.82255 -1.10119 0
M  V30 676 H 66.6615 -6.55362 0.134475 0
M  V30 677 H 66.1815 -5.82824 -1.4169 0
M  V30 678 H 67.8605 -6.36491 -1.1614 0
M  V30 679 N 67.9926 0.231505 -1.5589 0
M  V30 680 C 69.4036 0.799327 -1.68724 0
M  V30 681 C 69.7546 1.85398 -0.642022 0
M  V30 682 O 68.8796 2.1539 0.208784 0
M  V30 683 C 69.4746 1.45664 -3.05888 0
M  V30 684 C 68.0336 1.97197 -3.20609 0
M  V30 685 C 67.1806 0.828552 -2.64632 0
M  V30 686 H 70.1316 0.00702616 -1.58698 0
M  V30 687 H 70.1526 2.32517 -3.01191 0
M  V30 688 H 69.6646 0.688808 -3.81939 0
M  V30 689 H 67.7656 2.76813 -2.4941 0
M  V30 690 H 67.8786 2.15878 -4.27707 0
M  V30 691 H 66.2426 1.23321 -2.22854 0
M  V30 692 H 67.0256 0.0735544 -3.43221 0
M  V30 693 N 69.4707 1.49531 0.497807 0
M  V30 694 C 70.7167 1.59415 1.25358 0
M  V30 695 C 71.0497 0.281422 1.9215 0
M  V30 696 O 70.3247 -0.715249 1.80871 0
M  V30 697 C 70.6077 2.75566 2.3181 0
M  V30 698 C 70.4607 4.16642 1.69498 0
M  V30 699 C 71.7797 2.87347 3.33346 0
M  V30 700 H 68.8987 0.580244 0.454408 0
M  V30 701 H 71.5407 1.81827 0.551262 0
M  V30 702 H 69.6907 2.56587 2.91711 0
M  V30 703 H 71.3627 4.47145 1.13399 0
M  V30 704 H 69.6057 4.22141 0.998978 0
M  V30 705 H 70.2767 4.93792 2.46725 0
M  V30 706 H 72.7527 3.04634 2.83438 0
M  V30 707 H 71.6287 3.70289 4.05188 0
M  V30 708 H 71.8897 1.96834 3.95865 0
M  V30 709 N 70.9488 -0.749086 1.3866 0
M  V30 710 C 72.1948 -1.51056 1.35314 0
M  V30 711 C 72.5278 -1.94121 -0.0553751 0
M  V30 712 O 71.8028 -1.65763 -1.01749 0
M  V30 713 C 72.0858 -2.76003 2.31288 0
M  V30 714 C 71.9388 -2.39047 3.8102 0
M  V30 715 C 73.2578 -3.78046 2.2532 0
M  V30 716 H 70.3768 -0.547972 0.492844 0
M  V30 717 H 73.0188 -0.857628 1.69543 0
M  V30 718 H 71.1688 -3.31716 2.02229 0
M  V30 719 H 72.8408 -1.89074 4.20771 0
M  V30 720 H 71.0838 -1.71449 3.98482 0
M  V30 721 H 71.7548 -3.28462 4.4364 0
M  V30 722 H 74.2308 -3.31884 2.50983 0
M  V30 723 H 73.1068 -4.63159 2.94576 0
M  V30 724 H 73.3678 -4.23957 1.25352 0
M  V30 725 N 72.4269 -1.23603 -0.977757 0
M  V30 726 C 73.3769 -0.986664 -2.05545 0
M  V30 727 C 74.3609 0.0683009 -1.60755 0
M  V30 728 O 75.5529 -0.144162 -1.76412 0
M  V30 729 C 72.6819 -0.582623 -3.3832 0
M  V30 730 C 71.7679 -1.67313 -3.89701 0
M  V30 731 N 72.1589 -2.90394 -4.14132 0
M  V30 732 C 70.4569 -1.54832 -4.18262 0
M  V30 733 C 71.1579 -3.61017 -4.56116 0
M  V30 734 N 70.1339 -2.8854 -4.60701 0
M  V30 735 H 73.9359 -1.92139 -2.22396 0
M  V30 736 H 71.4499 -1.1358 -1.16074 0
M  V30 737 H 73.4469 -0.38524 -4.15116 0
M  V30 738 H 72.1069 0.34503 -3.22862 0
M  V30 739 H 73.1179 -3.26673 -4.01877 0
M  V30 740 H 69.7949 -0.687969 -4.11793 0
M  V30 741 H 71.1849 -4.66544 -4.83514 0
M  V30 742 N 73.905 1.17692 -1.04816 0
M  V30 743 C 74.868 2.19787 -0.650117 0
M  V30 744 C 75.868 1.58044 0.296427 0
M  V30 745 O 77.058 1.74012 0.0808097 0
M  V30 746 C 74.19 3.40869 0.0456987 0
M  V30 747 H 75.383 2.56516 -1.5537 0
M  V30 748 H 72.936 1.31708 -0.841594 0
M  V30 749 H 73.671 3.09681 0.962726 0
M  V30 750 H 73.456 3.86928 -0.634727 0
M  V30 751 H 74.946 4.16445 0.310432 0
M  V30 752 N 75.3831 0.828654 1.34056 0
M  V30 753 C 76.6081 0.431637 2.02859 0
M  V30 754 C 77.0331 -0.956339 1.61975 0
M  V30 755 O 76.3911 -1.62338 0.807228 0
M  V30 756 C 76.4391 0.548323 3.56407 0
M  V30 757 O 75.5431 -0.429556 4.10157 0
M  V30 758 H 74.8841 0.176886 0.640006 0
M  V30 759 H 77.4141 1.12066 1.71179 0
M  V30 760 H 77.4241 0.426196 4.05768 0
M  V30 761 H 76.0991 1.5606 3.8551 0
M  V30 762 H 74.6761 -0.265836 3.71951 0
M  V30 763 N 76.8612 -1.46375 0.584142 0
M  V30 764 C 78.1102 -2.01585 0.0679741 0
M  V30 765 C 78.4232 -1.46109 -1.30045 0
M  V30 766 O 79.6292 -1.93148 -1.90804 0
M  V30 767 C 78.0852 -3.5983 0.0709207 0
M  V30 768 C 77.6932 -4.24303 1.43775 0
M  V30 769 C 79.4372 -4.22693 -0.391228 0
M  V30 770 C 77.3442 -5.74631 1.39834 0
M  V30 771 H 76.2742 -0.753689 0.0216421 0
M  V30 772 H 78.9252 -1.68093 0.736001 0
M  V30 773 H 77.3072 -3.90405 -0.663299 0
M  V30 774 H 78.4812 -4.05335 2.19181 0
M  V30 775 H 76.7962 -3.73539 1.84004 0
M  V30 776 H 79.3932 -5.3289 -0.439524 0
M  V30 777 H 79.7362 -3.91728 -1.40906 0
M  V30 778 H 80.2692 -3.96749 0.288974 0
M  V30 779 H 77.0082 -6.10258 2.39303 0
M  V30 780 H 76.5282 -5.95858 0.686505 0
M  V30 781 H 78.2072 -6.37375 1.11187 0
M  V30 782 N 78.3393 -0.321999 -1.54275 0
M  V30 783 C 79.3023 0.531975 -2.22941 0
M  V30 784 C 80.3023 1.04478 -1.22234 0
M  V30 785 O 81.4923 0.937452 -1.46825 0
M  V30 786 C 78.6243 1.73874 -2.93224 0
M  V30 787 H 79.8173 -0.0682612 -2.99822 0
M  V30 788 H 77.3703 -0.0730644 -1.56129 0
M  V30 789 H 78.1053 2.37825 -2.20476 0
M  V30 790 H 77.8903 1.37847 -3.6707 0
M  V30 791 H 79.3803 2.34496 -3.45545 0
M  V30 792 N 79.8174 1.5752 -0.0501392 0
M  V30 793 C 81.0654 1.9227 0.622642 0
M  V30 794 C 81.3864 0.929083 1.71444 0
M  V30 795 O 80.6564 -0.0262186 1.95882 0
M  V30 796 H 79.2364 0.709739 0.232981 0
M  V30 797 H 81.8984 1.94628 -0.102898 0
M  V30 798 H 80.9944 2.93479 1.06191 0
M  V30 799 N 81.2955 -0.223234 1.56011 0
M  V30 800 C 82.5355 -0.954962 1.8072 0
M  V30 801 C 82.8995 -1.81598 0.623384 0
M  V30 802 O 84.1005 -2.58132 0.749745 0
M  V30 803 C 82.3715 -1.77313 3.10314 0
M  V30 804 S 83.9305 -2.56073 3.56332 0
M  V30 805 H 80.7485 -0.320812 0.634508 0
M  V30 806 H 83.3505 -0.220686 1.9425 0
M  V30 807 H 82.0545 -1.13071 3.94516 0
M  V30 808 H 81.5855 -2.54974 2.99586 0
M  V30 809 H 83.6005 -3.79619 3.19536 0
M  V30 810 N 82.7736 -1.49793 -0.48987 0
M  V30 811 C 84.1896 -1.36803 -0.822022 0
M  V30 812 C 84.3896 -0.409652 -1.97292 0
M  V30 813 O 83.4456 0.154614 -2.52026 0
M  V30 814 C 84.7586 -2.77768 -1.15175 0
M  V30 815 C 86.3066 -2.86549 -1.25931 0
M  V30 816 C 86.7816 -4.28306 -1.62228 0
M  V30 817 N 88.2726 -4.31169 -1.69256 0
M  V30 818 C 89.0076 -5.37832 -1.98807 0
M  V30 819 N 88.5036 -6.54726 -2.26507 0
M  V30 820 N 90.2966 -5.25258 -2.00152 0
M  V30 821 H 82.4476 -2.10691 0.268881 0
M  V30 822 H 84.7106 -0.946241 0.057728 0
M  V30 823 H 84.4166 -3.49648 -0.379335 0
M  V30 824 H 84.2906 -3.13836 -2.09253 0
M  V30 825 H 86.6776 -2.14899 -2.02243 0
M  V30 826 H 86.7586 -2.54049 -0.298776 0
M  V30 827 H 86.4026 -5.00486 -0.864622 0
M  V30 828 H 86.3326 -4.58279 -2.594 0
M  V30 829 H 88.8236 -3.4687 -1.49965 0
M  V30 830 H 89.1366 -7.31833 -2.48276 0
M  V30 831 H 87.4816 -6.57933 -2.23939 0
M  V30 832 H 90.6726 -4.32938 -1.77996 0
M  V30 833 H 90.8456 -6.08476 -2.22848 0
M  V30 834 N 84.2517 0.741722 -1.39055 0
M  V30 835 C 85.5007 1.49656 -1.35225 0
M  V30 836 C 85.8137 1.95533 0.0512708 0
M  V30 837 O 87.0197 2.7067 0.212138 0
M  V30 838 C 85.4757 2.70389 -2.37525 0
M  V30 839 C 85.0837 2.31489 -3.83558 0
M  V30 840 C 86.8277 3.48236 -2.42759 0
M  V30 841 C 84.7347 3.48903 -4.77515 0
M  V30 842 H 83.6647 0.56197 -0.502699 0
M  V30 843 H 86.3157 0.809727 -1.64668 0
M  V30 844 H 84.6977 3.41113 -2.01142 0
M  V30 845 H 85.8717 1.68354 -4.28945 0
M  V30 846 H 84.1867 1.66749 -3.81554 0
M  V30 847 H 86.7837 4.35558 -3.1015 0
M  V30 848 H 87.1267 3.90229 -1.45008 0
M  V30 849 H 87.6597 2.84535 -2.78002 0
M  V30 850 H 84.3987 3.11966 -5.76504 0
M  V30 851 H 83.9187 4.11041 -4.36813 0
M  V30 852 H 85.5977 4.15328 -4.96096 0
M  V30 853 N 85.7298 1.2412 0.971189 0
M  V30 854 C 86.9788 1.07284 1.70801 0
M  V30 855 C 87.2918 -0.388902 1.91695 0
M  V30 856 O 88.4978 -0.677379 2.62914 0
M  V30 857 C 86.9538 1.87145 3.07416 0
M  V30 858 C 86.5618 3.37707 2.94377 0
M  V30 859 C 88.3058 1.78828 3.84995 0
M  V30 860 C 86.2128 4.09925 4.26281 0
M  V30 861 H 85.1428 0.397854 0.64049 0
M  V30 862 H 87.7938 1.4817 1.0825 0
M  V30 863 H 86.1758 1.39071 3.70777 0
M  V30 864 H 87.3498 3.93335 2.4005 0
M  V30 865 H 85.6648 3.46938 2.30267 0
M  V30 866 H 88.2618 2.30089 4.82662 0
M  V30 867 H 88.6048 0.75284 4.09436 0
M  V30 868 H 89.1378 2.24563 3.28354 0
M  V30 869 H 85.8768 5.13813 4.07033 0
M  V30 870 H 85.3968 3.59083 4.80437 0
M  V30 871 H 87.0758 4.1673 4.94919 0
M  V30 872 N 87.2079 -1.17134 1.05439 0
M  V30 873 C 88.4559 -1.87085 0.764429 0
M  V30 874 C 88.7769 -1.81584 -0.710787 0
M  V30 875 O 88.0469 -1.24349 -1.51374 0
M  V30 876 H 86.6269 -0.692627 0.279779 0
M  V30 877 H 89.2889 -1.42087 1.33406 0
M  V30 878 H 88.3849 -2.92759 1.0816 0
M  V30 879 N 88.686 -0.835752 -1.33615 0
M  V30 880 C 90.102 -0.523139 -1.50783 0
M  V30 881 C 90.302 0.950171 -1.77691 0
M  V30 882 O 89.358 1.73411 -1.83534 0
M  V30 883 C 90.671 -1.39378 -2.66448 0
M  V30 884 C 92.219 -1.39223 -2.80332 0
M  V30 885 C 92.694 -2.24765 -3.99055 0
M  V30 886 N 94.185 -2.22458 -4.06284 0
M  V30 887 C 94.92 -2.85386 -4.97336 0
M  V30 888 N 94.416 -3.57354 -5.93523 0
M  V30 889 N 96.209 -2.74872 -4.90308 0
M  V30 890 H 88.36 -1.78952 -1.14411 0
M  V30 891 H 90.623 -0.763297 -0.562212 0
M  V30 892 H 90.329 -2.44061 -2.53234 0
M  V30 893 H 90.203 -1.0676 -3.61776 0
M  V30 894 H 92.59 -0.353136 -2.92979 0
M  V30 895 H 92.671 -1.75846 -1.85773 0
M  V30 896 H 92.315 -3.28732 -3.87167 0
M  V30 897 H 92.245 -1.85485 -4.92852 0
M  V30 898 H 94.736 -1.70119 -3.37443 0
M  V30 899 H 95.049 -4.02584 -6.59656 0
M  V30 900 H 93.394 -3.61461 -5.93608 0
M  V30 901 H 96.585 -2.18213 -4.14126 0
M  V30 902 H 96.758 -3.24199 -5.61069 0
M  V30 903 N 90.1641 1.46063 -0.591896 0
M  V30 904 C 91.0971 2.27452 0.184617 0
M  V30 905 C 92.0751 1.36188 0.888351 0
M  V30 906 O 93.2591 1.65606 0.90039 0
M  V30 907 C 90.3861 3.14162 1.26571 0
M  V30 908 C 89.4321 4.21255 0.666814 0
M  V30 909 S 90.2651 5.33034 -0.513345 0
M  V30 910 C 91.4211 6.23311 0.56872 0
M  V30 911 H 91.6541 2.92963 -0.505939 0
M  V30 912 H 89.1871 1.49676 -0.379014 0
M  V30 913 H 91.1451 3.6468 1.88463 0
M  V30 914 H 89.8061 2.47946 1.92826 0
M  V30 915 H 88.9991 4.81788 1.47974 0
M  V30 916 H 88.6011 3.73797 0.123359 0
M  V30 917 H 90.8931 6.61758 1.45198 0
M  V30 918 H 91.8361 7.081 -7.23824e-05 0
M  V30 919 H 92.2441 5.57646 0.876996 0
M  V30 920 N 91.6422 0.330177 1.54103 0
M  V30 921 C 92.8822 -0.270916 2.02597 0
M  V30 922 C 93.2462 -1.48826 1.21304 0
M  V30 923 O 94.4472 -2.16266 1.59633 0
M  V30 924 C 92.7182 -0.590328 3.52491 0
M  V30 925 S 94.2772 -1.17014 4.2291 0
M  V30 926 H 91.0952 -0.0815379 0.706309 0
M  V30 927 H 93.6972 0.464835 1.89893 0
M  V30 928 H 92.4012 0.303691 4.09275 0
M  V30 929 H 91.9322 -1.3561 3.69288 0
M  V30 930 H 93.9472 -2.45662 4.3112 0
M  V30 931 N 93.1203 -1.57491 0.0584922 0
M  V30 932 C 94.3663 -1.93264 -0.614558 0
M  V30 933 C 94.6993 -0.937717 -1.7006 0
M  V30 934 O 93.9743 0.0351652 -1.94468 0
M  V30 935 C 94.2573 -3.3938 -1.20386 0
M  V30 936 C 94.1103 -4.49625 -0.125375 0
M  V30 937 C 95.4293 -3.86039 -2.11334 0
M  V30 938 H 92.5483 -0.702791 -0.221933 0
M  V30 939 H 95.1903 -1.8961 0.12175 0
M  V30 940 H 93.3403 -3.42626 -1.83139 0
M  V30 941 H 95.0123 -4.58506 0.506971 0
M  V30 942 H 93.2553 -4.30354 0.545672 0
M  V30 943 H 93.9263 -5.48967 -0.577861 0
M  V30 944 H 96.4023 -3.84716 -1.58534 0
M  V30 945 H 95.2783 -4.88914 -2.49507 0
M  V30 946 H 95.5393 -3.23215 -3.01636 0
M  V30 947 N 94.5984 0.214957 -1.56127 0
M  V30 948 C 95.8464 0.936518 -1.79091 0
M  V30 949 C 96.1674 1.84606 -0.628148 0
M  V30 950 O 95.4374 1.92664 0.35462 0
M  V30 951 H 94.0174 0.3488 -0.660566 0
M  V30 952 H 96.6794 0.22523 -1.93594 0
M  V30 953 H 95.7754 1.53943 -2.71492 0
M  V30 954 N 96.0765 1.50051 0.48192 0
M  V30 955 C 97.0245 1.68635 1.60203 0
M  V30 956 C 98.0185 0.552184 1.60148 0
M  V30 957 O 99.2245 0.732377 1.64427 0
M  V30 958 H 95.5995 0.532081 0.531407 0
M  V30 959 H 97.5705 2.62616 1.41688 0
M  V30 960 C 96.3195 1.78775 2.9822 0
M  V30 961 H 95.6425 2.6543 2.98976 0
M  V30 962 H 97.0825 1.95806 3.7608 0
M  V30 963 C 95.5415 0.536849 3.32595 0
M  V30 964 O 96.0715 -0.328897 4.00351 0
M  V30 965 N 94.2775 0.394091 2.87915 0
M  V30 966 H 93.8245 1.09962 2.32951 0
M  V30 967 H 93.7825 -0.441737 3.11281 0
M  V30 968 N 97.5546 -0.734337 1.39446 0
M  V30 969 C 98.9706 -1.03997 1.21065 0
M  V30 970 C 99.1706 -2.01369 0.0727019 0
M  V30 971 O 98.2266 -2.45856 -0.575426 0
M  V30 972 C 99.5396 -1.60163 2.54496 0
M  V30 973 C 101.088 -1.7224 2.61347 0
M  V30 974 C 101.563 -2.31814 3.95002 0
M  V30 975 N 103.054 -2.39223 3.96644 0
M  V30 976 C 103.789 -2.86258 4.96834 0
M  V30 977 N 103.285 -3.33184 6.07421 0
M  V30 978 N 105.078 -2.85473 4.84213 0
M  V30 979 H 97.2286 -0.0885624 2.12215 0
M  V30 980 H 99.4916 -0.10191 0.942506 0
M  V30 981 H 99.1976 -0.960811 3.38321 0
M  V30 982 H 99.0716 -2.5896 2.74262 0
M  V30 983 H 101.459 -2.35443 1.77906 0
M  V30 984 H 101.54 -0.720939 2.4543 0
M  V30 985 H 101.184 -1.69238 4.78875 0
M  V30 986 H 101.114 -3.32638 4.08239 0
M  V30 987 H 103.605 -2.06057 3.16779 0
M  V30 988 H 103.918 -3.67586 6.7978 0
M  V30 989 H 102.263 -3.31191 6.11013 0
M  V30 990 H 105.454 -2.48136 3.96921 0
M  V30 991 H 105.627 -3.21814 5.62441 0
M  V30 992 N 99.0327 -1.24633 -0.964593 0
M  V30 993 C 99.9827 -1.00841 -2.04487 0
M  V30 994 C 100.967 0.0512468 -1.60818 0
M  V30 995 O 102.159 -0.162865 -1.76249 0
M  V30 996 C 99.2877 -0.618474 -3.37683 0
M  V30 997 C 98.3737 -1.71437 -3.87905 0
M  V30 998 N 98.7647 -2.9477 -4.11029 0
M  V30 999 C 97.0627 -1.5926 -4.16596 0
M  V30 1000 C 97.7637 -3.65834 -4.52261 0
M  V30 1001 N 96.7397 -2.9341 -4.57615 0
M  V30 1002 H 100.542 -1.94487 -2.20345 0
M  V30 1003 H 98.0557 -1.14805 -1.14863 0
M  V30 1004 H 100.053 -0.429247 -4.14684 0
M  V30 1005 H 98.7127 0.310766 -3.23209 0
M  V30 1006 H 99.7237 -3.30917 -3.9839 0
M  V30 1007 H 96.4007 -0.731606 -4.1104 0
M  V30 1008 H 97.7907 -4.71646 -4.78539 0
M  V30 1009 N 100.511 1.16574 -1.06058 0
M  V30 1010 C 101.759 1.86677 -0.77434 0
M  V30 1011 C 102.08 1.81959 0.701147 0
M  V30 1012 O 101.35 1.2515 1.50713 0
M  V30 1013 H 99.9298 0.691134 -0.283449 0
M  V30 1014 H 102.592 1.41378 -1.34158 0
M  V30 1015 H 101.688 2.92181 -1.09711 0
M  V30 1016 N 101.989 0.842826 1.3317 0
M  V30 1017 C 102.919 0.294028 2.31641 0
M  V30 1018 C 103.9 -0.600401 1.59151 0
M  V30 1019 O 105.085 -0.523124 1.87022 0
M  V30 1020 C 102.215 -0.528416 3.43257 0
M  V30 1021 C 101.169 0.27056 4.27144 0
M  V30 1022 C 100.495 -0.675881 5.30411 0
M  V30 1023 C 101.795 1.48981 5.00602 0
M  V30 1024 H 103.489 1.11681 2.77791 0
M  V30 1025 H 101.035 0.538478 1.33553 0
M  V30 1026 H 102.988 -0.922674 4.11175 0
M  V30 1027 H 101.712 -1.38445 2.95805 0
M  V30 1028 H 100.371 0.646427 3.60856 0
M  V30 1029 H 100.019 -1.52842 4.79216 0
M  V30 1030 H 99.7189 -0.145374 5.8742 0
M  V30 1031 H 101.243 -1.06757 6.01195 0
M  V30 1032 H 102.657 1.16849 5.61266 0
M  V30 1033 H 101.054 1.95739 5.6728 0
M  V30 1034 H 102.124 2.25746 4.29147 0
M  V30 1035 N 103.467 -1.45747 0.599634 0
M  V30 1036 C 104.397 -2.33235 -0.111306 0
M  V30 1037 C 105.378 -1.46359 -0.866781 0
M  V30 1038 O 106.563 -1.75146 -0.838904 0
M  V30 1039 C 103.693 -3.28932 -1.11451 0
M  V30 1040 C 102.647 -4.25381 -0.472772 0
M  V30 1041 C 101.973 -5.1071 -1.58365 0
M  V30 1042 C 103.273 -5.18831 0.600948 0
M  V30 1043 H 104.967 -2.92927 0.61919 0
M  V30 1044 H 102.513 -1.40857 0.299215 0
M  V30 1045 H 104.466 -3.89002 -1.62036 0
M  V30 1046 H 103.19 -2.67381 -1.8755 0
M  V30 1047 H 101.849 -3.66598 0.0121472 0
M  V30 1048 H 101.497 -4.45533 -2.33473 0
M  V30 1049 H 101.197 -5.7604 -1.15982 0
M  V30 1050 H 102.721 -5.73647 -2.09194 0
M  V30 1051 H 104.135 -5.73019 0.179491 0
M  V30 1052 H 102.532 -5.92595 0.946076 0
M  V30 1053 H 103.602 -4.6174 1.48068 0
M  V30 1054 N 104.945 -0.338344 -1.53925 0
M  V30 1055 C 106.191 0.260143 -2.01125 0
M  V30 1056 C 106.524 1.50617 -1.22589 0
M  V30 1057 O 105.799 1.91979 -0.312113 0
M  V30 1058 C 106.082 0.579499 -3.55407 0
M  V30 1059 C 105.935 -0.678264 -4.44657 0
M  V30 1060 C 107.254 1.39122 -4.17532 0
M  V30 1061 H 104.373 0.0930772 -0.731099 0
M  V30 1062 H 107.015 -0.457852 -1.84401 0
M  V30 1063 H 105.165 1.19118 -3.69788 0
M  V30 1064 H 106.837 -1.31631 -4.42121 0
M  V30 1065 H 105.08 -1.3042 -4.13731 0
M  V30 1066 H 105.751 -0.410143 -5.50474 0
M  V30 1067 H 108.227 0.874035 -4.06817 0
M  V30 1068 H 107.103 1.58342 -5.25565 0
M  V30 1069 H 107.364 2.39178 -3.71815 0
M  V30 1070 N 106.423 1.57458 -0.0668435 0
M  V30 1071 C 107.834 1.80776 0.466558 0
M  V30 1072 C 108.185 0.980361 1.69951 0
M  V30 1073 O 107.31 0.201441 2.1546 0
M  V30 1074 C 107.905 3.27881 0.85321 0
M  V30 1075 C 106.464 3.52062 1.3315 0
M  V30 1076 C 105.611 2.75513 0.314264 0
M  V30 1077 H 108.562 1.5598 -0.292588 0
M  V30 1078 H 108.583 3.39659 1.715 0
M  V30 1079 H 108.095 3.88075 -0.0443439 0
M  V30 1080 H 106.196 2.97167 2.24772 0
M  V30 1081 H 106.309 4.60762 1.31285 0
M  V30 1082 H 104.673 2.42123 0.790492 0
M  V30 1083 H 105.456 3.38442 -0.575477 0
M  V30 1084 N 107.901 -0.206675 1.56239 0
M  V30 1085 C 108.849 -1.27571 1.94495 0
M  V30 1086 C 109.843 -1.47737 0.828862 0
M  V30 1087 O 111.049 -1.48735 1.0138 0
M  V30 1088 H 107.424 -0.428029 0.6183 0
M  V30 1089 H 109.395 -0.925961 2.8367 0
M  V30 1090 C 108.144 -2.61568 2.29079 0
M  V30 1091 H 107.467 -2.46863 3.14482 0
M  V30 1092 H 108.907 -3.35144 2.5972 0
M  V30 1093 C 107.366 -3.17695 1.12123 0
M  V30 1094 O 107.896 -3.99801 0.390153 0
M  V30 1095 N 106.102 -2.76276 0.901097 0
M  V30 1096 H 105.649 -2.09613 1.49733 0
M  V30 1097 H 105.607 -3.1417 0.120319 0
M  V30 1098 N 109.379 -1.50304 -0.473955 0
M  V30 1099 C 110.327 -1.69482 -1.59307 0
M  V30 1100 C 111.321 -0.560669 -1.59853 0
M  V30 1101 O 112.527 -0.741087 -1.64036 0
M  V30 1102 H 108.902 -0.534892 -0.528578 0
M  V30 1103 H 110.873 -2.63364 -1.40293 0
M  V30 1104 C 109.622 -1.80354 -2.97267 0
M  V30 1105 H 108.945 -2.67012 -2.97564 0
M  V30 1106 H 110.385 -1.97798 -3.75036 0
M  V30 1107 C 108.844 -0.55448 -3.32306 0
M  V30 1108 O 109.374 0.307661 -4.0052 0
M  V30 1109 N 107.58 -0.409354 -2.87702 0
M  V30 1110 H 107.127 -1.11196 -2.32364 0
M  V30 1111 H 107.085 0.425223 -3.11511 0
M  V30 1112 N 110.857 0.726932 -1.39834 0
M  V30 1113 C 112.085 1.51613 -1.40787 0
M  V30 1114 C 112.5 1.88799 -0.00451505 0
M  V30 1115 O 111.857 1.54662 0.968809 0
M  V30 1116 C 111.908 2.79863 -2.28821 0
M  V30 1117 O 111.629 2.44253 -3.63692 0
M  V30 1118 C 113.13 3.73837 -2.38245 0
M  V30 1119 H 110.35 0.468264 -0.480593 0
M  V30 1120 H 112.894 0.897607 -1.83748 0
M  V30 1121 H 111.049 3.38027 -1.89252 0
M  V30 1122 H 111.463 3.26695 -4.1033 0
M  V30 1123 H 112.937 4.60699 -3.04073 0
M  V30 1124 H 113.414 4.16153 -1.40403 0
M  V30 1125 H 114.02 3.21589 -2.78317 0
M  V30 1126 N 112.336 1.25143 0.95797 0
M  V30 1127 C 113.564 1.12424 1.73691 0
M  V30 1128 C 113.979 -0.322304 1.86029 0
M  V30 1129 O 113.336 -1.22186 1.35561 0
M  V30 1130 C 113.387 1.76933 3.15241 0
M  V30 1131 O 113.108 3.15932 3.03511 0
M  V30 1132 C 114.609 1.6995 4.09429 0
M  V30 1133 H 111.829 0.3923 0.544373 0
M  V30 1134 H 114.373 1.6544 1.20207 0
M  V30 1135 H 112.528 1.27895 3.6568 0
M  V30 1136 H 112.942 3.47598 3.9278 0
M  V30 1137 H 114.416 2.19753 5.06372 0
M  V30 1138 H 114.893 0.662619 4.34173 0
M  V30 1139 H 115.499 2.18461 3.64904 0
M  V30 1140 N 113.814 -1.1601 1.06675 0
M  V30 1141 C 115.091 -1.82679 0.699114 0
M  V30 1142 C 115.471 -1.94559 -0.819137 0
M  V30 1143 O 114.819 -1.49169 -1.73092 0
M  V30 1144 C 115.029 -3.19445 1.40555 0
M  V30 1145 C 116.377 -3.95171 1.55323 0
M  V30 1146 O 117.401 -3.28976 1.36577 0
M  V30 1147 O 116.26 -5.13833 1.86112 0
M  V30 1148 H 113.354 -0.788954 0.247951 0
M  V30 1149 H 115.9 -1.23179 1.16726 0
M  V30 1150 H 114.672 -3.05856 2.44065 0
M  V30 1151 H 114.295 -3.86625 0.927733 0
M  V30 1152 N 115.292 -0.849877 -1.32721 0
M  V30 1153 C 116.224 -0.248332 -2.27851 0
M  V30 1154 C 117.237 0.577218 -1.52224 0
M  V30 1155 O 118.426 0.402489 -1.73903 0
M  V30 1156 C 115.526 0.668107 -3.32249 0
M  V30 1157 C 114.699 -0.120534 -4.37234 0
M  V30 1158 C 113.758 0.720932 -5.21238 0
M  V30 1159 O 112.784 0.156166 -5.68986 0
M  V30 1160 N 113.986 2.03647 -5.43607 0
M  V30 1161 H 116.751 -1.06575 -2.80111 0
M  V30 1162 H 114.312 -0.709395 -1.45531 0
M  V30 1163 H 116.304 1.23627 -3.85355 0
M  V30 1164 H 114.874 1.38621 -2.80184 0
M  V30 1165 H 114.094 -0.870108 -3.84477 0
M  V30 1166 H 115.382 -0.662406 -5.0447 0
M  V30 1167 H 114.78 2.51871 -5.06535 0
M  V30 1168 H 113.337 2.55287 -5.99727 0
M  V30 1169 N 116.77 1.45427 -0.607355 0
M  V30 1170 C 117.68 2.34325 0.113463 0
M  V30 1171 C 118.696 1.51226 0.860617 0
M  V30 1172 O 119.872 1.84029 0.818255 0
M  V30 1173 C 116.937 3.28839 1.09844 0
M  V30 1174 C 115.998 4.27844 0.353271 0
M  V30 1175 C 115.231 5.17842 1.29133 0
M  V30 1176 O 115.454 5.11264 2.52913 0
M  V30 1177 O 114.388 5.96713 0.788523 0
M  V30 1178 H 118.214 2.97364 -0.617094 0
M  V30 1179 H 115.799 1.44807 -0.367619 0
M  V30 1180 H 117.681 3.8708 1.66575 0
M  V30 1181 H 116.356 2.68365 1.81003 0
M  V30 1182 H 115.263 3.7322 -0.256494 0
M  V30 1183 H 116.596 4.91173 -0.317822 0
M  V30 1184 N 118.248 0.346503 1.53744 0
M  V30 1185 C 119.178 -0.501193 2.28058 0
M  V30 1186 C 120.159 -1.10014 1.29734 0
M  V30 1187 O 121.344 -1.12097 1.58581 0
M  V30 1188 C 118.474 -1.65078 3.05559 0
M  V30 1189 C 117.428 -1.18003 4.11411 0
M  V30 1190 C 116.754 -2.41837 4.76884 0
M  V30 1191 C 118.054 -0.278394 5.21558 0
M  V30 1192 H 119.748 0.11875 2.99164 0
M  V30 1193 H 117.294 0.0585531 1.43881 0
M  V30 1194 H 119.247 -2.25028 3.56287 0
M  V30 1195 H 117.971 -2.29767 2.32109 0
M  V30 1196 H 116.63 -0.603331 3.61601 0
M  V30 1197 H 116.278 -3.0494 4.00026 0
M  V30 1198 H 115.978 -2.1102 5.48402 0
M  V30 1199 H 117.502 -3.02508 5.30397 0
M  V30 1200 H 118.916 -0.784823 5.67903 0
M  V30 1201 H 117.313 -0.0619707 6.00068 0
M  V30 1202 H 118.383 0.684677 4.80042 0
M  V30 1203 N 119.726 -1.57421 0.075193 0
M  V30 1204 C 120.658 -2.09904 -0.920483 0
M  V30 1205 C 121.671 -1.03191 -1.25918 0
M  V30 1206 O 122.86 -1.30695 -1.21577 0
M  V30 1207 C 119.96 -2.54726 -2.23534 0
M  V30 1208 C 119.133 -3.8505 -2.07498 0
M  V30 1209 C 118.192 -4.15929 -3.22319 0
M  V30 1210 O 117.218 -4.85474 -2.9716 0
M  V30 1211 N 118.42 -3.69745 -4.47514 0
M  V30 1212 H 121.185 -2.95954 -0.472359 0
M  V30 1213 H 118.746 -1.61523 -0.110444 0
M  V30 1214 H 120.738 -2.72443 -2.9926 0
M  V30 1215 H 119.308 -1.73795 -2.59835 0
M  V30 1216 H 118.528 -3.76679 -1.16219 0
M  V30 1217 H 119.816 -4.70348 -1.94038 0
M  V30 1218 H 119.214 -3.13569 -4.7084 0
M  V30 1219 H 117.771 -3.92655 -5.20255 0
M  V30 1220 N 121.204 0.198386 -1.56346 0
M  V30 1221 C 122.154 1.2499 -1.90687 0
M  V30 1222 C 123.138 1.41158 -0.772217 0
M  V30 1223 O 124.33 1.43584 -1.03502 0
M  V30 1224 C 121.459 2.59542 -2.24706 0
M  V30 1225 C 120.545 2.47181 -3.44619 0
M  V30 1226 N 120.936 2.04495 -4.62618 0
M  V30 1227 C 119.234 2.78082 -3.48692 0
M  V30 1228 C 119.935 2.03945 -5.44776 0
M  V30 1229 N 118.911 2.45323 -4.85095 0
M  V30 1230 H 122.713 0.911149 -2.7942 0
M  V30 1231 H 120.227 0.40684 -1.57221 0
M  V30 1232 H 122.224 3.3549 -2.47491 0
M  V30 1233 H 120.884 2.94244 -1.37298 0
M  V30 1234 H 121.895 1.75256 -4.87345 0
M  V30 1235 H 118.572 3.17002 -2.71691 0
M  V30 1236 H 119.962 1.72872 -6.4928 0
M  V30 1237 N 122.682 1.50554 0.465978 0
M  V30 1238 C 123.931 1.61038 1.21448 0
M  V30 1239 C 124.244 0.31865 1.92987 0
M  V30 1240 O 125.45 0.302469 2.6981 0
M  V30 1241 C 123.906 2.84283 2.20706 0
M  V30 1242 C 123.514 4.20352 1.54946 0
M  V30 1243 C 125.258 3.04115 2.96166 0
M  V30 1244 C 123.165 5.34778 2.5252 0
M  V30 1245 H 122.095 0.599718 0.457005 0
M  V30 1246 H 124.746 1.7699 0.484424 0
M  V30 1247 H 123.128 2.61901 2.97025 0
M  V30 1248 H 124.302 4.53008 0.843811 0
M  V30 1249 H 122.617 4.06167 0.917475 0
M  V30 1250 H 125.214 3.86774 3.69202 0
M  V30 1251 H 125.557 2.16045 3.55852 0
M  V30 1252 H 126.09 3.26702 2.26959 0
M  V30 1253 H 122.829 6.25018 1.97566 0
M  V30 1254 H 122.349 5.06534 3.21222 0
M  V30 1255 H 124.028 5.65561 3.14245 0
M  V30 1256 N 124.16 -0.719506 1.40217 0
M  V30 1257 C 125.576 -1.02707 1.22161 0
M  V30 1258 C 125.776 -2.0128 0.0940557 0
M  V30 1259 O 124.832 -2.46452 -0.549318 0
M  V30 1260 C 126.145 -1.57454 2.56181 0
M  V30 1261 C 127.693 -1.69458 2.63159 0
M  V30 1262 C 128.168 -2.27611 3.97438 0
M  V30 1263 N 129.659 -2.35002 3.99159 0
M  V30 1264 C 130.394 -2.80972 4.99842 0
M  V30 1265 N 129.89 -3.26723 6.10921 0
M  V30 1266 N 131.683 -2.80321 4.87213 0
M  V30 1267 H 123.834 -0.0660492 2.12297 0
M  V30 1268 H 126.097 -0.0919077 0.943534 0
M  V30 1269 H 125.803 -0.924873 3.39321 0
M  V30 1270 H 125.677 -2.56036 2.76993 0
M  V30 1271 H 128.064 -2.33543 1.80393 0
M  V30 1272 H 128.145 -0.694867 2.46181 0
M  V30 1273 H 127.789 -1.6415 4.80643 0
M  V30 1274 H 127.719 -3.2829 4.11744 0
M  V30 1275 H 130.21 -2.02685 3.18947 0
M  V30 1276 H 130.523 -3.60355 6.8364 0
M  V30 1277 H 128.868 -3.24692 6.14492 0
M  V30 1278 H 132.059 -2.43912 3.9953 0
M  V30 1279 H 132.232 -3.15831 5.65822 0
M  V30 1280 N 125.638 -1.25649 -0.95132 0
M  V30 1281 C 126.586 -1.06118 -2.06982 0
M  V30 1282 C 127.58 0.00889169 -1.69398 0
M  V30 1283 O 128.786 -0.146988 -1.79399 0
M  V30 1284 H 125.161 -0.326248 -0.677544 0
M  V30 1285 H 127.132 -2.00932 -2.2061 0
M  V30 1286 C 125.881 -0.700145 -3.40578 0
M  V30 1287 H 125.204 -1.51537 -3.69968 0
M  V30 1288 H 126.644 -0.603211 -4.19687 0
M  V30 1289 C 125.103 0.59403 -3.31622 0
M  V30 1290 O 125.633 1.63522 -3.66911 0
M  V30 1291 N 123.839 0.58089 -2.84735 0
M  V30 1292 H 123.386 -0.266783 -2.56215 0
M  V30 1293 H 123.344 1.44695 -2.79125 0
M  V30 1294 N 127.117 1.15442 -1.07289 0
M  V30 1295 C 128.342 1.90638 -0.816828 0
M  V30 1296 C 128.767 1.77445 0.624083 0
M  V30 1297 O 128.125 1.10671 1.43602 0
M  V30 1298 C 128.173 3.39008 -1.22906 0
M  V30 1299 O 127.277 4.10701 -0.373975 0
M  V30 1300 H 126.618 0.593555 -0.297638 0
M  V30 1301 H 129.148 1.46198 -1.43134 0
M  V30 1302 H 129.158 3.89801 -1.20497 0
M  V30 1303 H 127.833 3.47929 -2.27856 0
M  V30 1304 H 126.41 3.70046 -0.460499 0
M  V30 1305 N 128.595 0.856903 1.32268 0
M  V30 1306 C 129.525 0.31858 2.31316 0
M  V30 1307 C 130.506 -0.583487 1.59779 0
M  V30 1308 O 131.691 -0.503259 1.87566 0
M  V30 1309 C 128.821 -0.491979 3.43798 0
M  V30 1310 C 127.775 0.315849 4.26833 0
M  V30 1311 C 127.101 -0.619586 5.31098 0
M  V30 1312 C 128.401 1.54282 4.98993 0
M  V30 1313 H 130.095 1.14621 2.76591 0
M  V30 1314 H 127.641 0.552613 1.32974 0
M  V30 1315 H 129.594 -0.879012 4.1213 0
M  V30 1316 H 128.318 -1.35299 2.97257 0
M  V30 1317 H 126.977 0.684664 3.6015 0
M  V30 1318 H 126.625 -1.47751 4.8081 0
M  V30 1319 H 126.325 -0.0830621 5.87541 0
M  V30 1320 H 127.849 -1.00375 6.02293 0
M  V30 1321 H 129.263 1.22796 5.59995 0
M  V30 1322 H 127.66 2.01745 5.65172 0
M  V30 1323 H 128.73 2.30285 4.26728 0
M  V30 1324 N 130.073 -1.45103 0.615059 0
M  V30 1325 C 131.484 -1.85654 0.197383 0
M  V30 1326 C 131.835 -1.51433 -1.24749 0
M  V30 1327 O 130.96 -0.944608 -1.94695 0
M  V30 1328 C 131.555 -3.36972 0.351448 0
M  V30 1329 C 130.114 -3.76398 -0.011593 0
M  V30 1330 C 129.261 -2.69024 0.672394 0
M  V30 1331 H 132.212 -1.35797 0.821263 0
M  V30 1332 H 132.233 -3.78239 -0.414227 0
M  V30 1333 H 131.745 -3.61847 1.40314 0
M  V30 1334 H 129.846 -3.5714 -1.06217 0
M  V30 1335 H 129.959 -4.77532 0.387265 0
M  V30 1336 H 128.323 -2.54465 0.109284 0
M  V30 1337 H 129.106 -2.96735 1.72636 0
M  V30 1338 N 131.551 -0.354651 -1.53558 0
M  V30 1339 C 132.828 0.294281 -1.93374 0
M  V30 1340 C 133.208 1.67313 -1.28723 0
M  V30 1341 O 132.556 2.24179 -0.442247 0
M  V30 1342 C 132.766 0.355445 -3.47185 0
M  V30 1343 C 134.114 0.601007 -4.20325 0
M  V30 1344 O 135.138 0.437106 -3.53508 0
M  V30 1345 O 133.997 0.919322 -5.38712 0
M  V30 1346 H 131.091 0.174033 -0.808481 0
M  V30 1347 H 133.637 -0.406638 -1.64756 0
M  V30 1348 H 132.409 -0.611729 -3.86489 0
M  V30 1349 H 132.032 1.1027 -3.82003 0
M  V30 1350 N 133.029 1.57378 -0.0835403 0
M  V30 1351 C 134.257 1.98263 0.59157 0
M  V30 1352 C 134.672 0.962302 1.62435 0
M  V30 1353 O 134.029 -0.049581 1.82433 0
M  V30 1354 C 134.08 3.39214 1.24965 0
M  V30 1355 O 133.801 4.37339 0.258186 0
M  V30 1356 C 135.302 3.95038 2.01147 0
M  V30 1357 H 132.522 0.651773 0.159477 0
M  V30 1358 H 135.066 2.03878 -0.159415 0
M  V30 1359 H 133.221 3.34649 1.95164 0
M  V30 1360 H 133.635 5.19371 0.731734 0
M  V30 1361 H 135.109 4.95848 2.42567 0
M  V30 1362 H 135.586 3.32222 2.87272 0
M  V30 1363 H 136.192 4.0304 1.35789 0
M  V30 1364 N 134.507 -0.190092 1.56449 0
M  V30 1365 C 135.753 -0.911052 1.81184 0
M  V30 1366 C 136.086 -1.82699 0.658396 0
M  V30 1367 O 135.361 -1.91491 -0.340775 0
M  V30 1368 C 135.644 -1.72297 3.16205 0
M  V30 1369 C 135.497 -0.831419 4.42049 0
M  V30 1370 C 136.816 -2.69454 3.47969 0
M  V30 1371 H 133.935 -0.32977 0.659106 0
M  V30 1372 H 136.577 -0.178169 1.89163 0
M  V30 1373 H 134.727 -2.34778 3.09534 0
M  V30 1374 H 136.399 -0.220929 4.60771 0
M  V30 1375 H 134.642 -0.138406 4.33579 0
M  V30 1376 H 135.313 -1.43461 5.33032 0
M  V30 1377 H 137.789 -2.17104 3.54972 0
M  V30 1378 H 136.665 -3.23342 4.43555 0
M  V30 1379 H 136.926 -3.48744 2.71717 0
M  V30 1380 N 135.985 -1.50799 -0.457987 0
M  V30 1381 C 136.917 -1.66786 -1.57211 0
M  V30 1382 C 137.93 -0.548962 -1.53265 0
M  V30 1383 O 139.119 -0.8226 -1.58416 0
M  V30 1384 C 136.219 -1.64834 -2.96113 0
M  V30 1385 C 135.392 -2.92971 -3.24787 0
M  V30 1386 C 134.451 -2.83485 -4.43309 0
M  V30 1387 O 133.477 -3.5744 -4.42973 0
M  V30 1388 N 134.679 -1.97929 -5.45714 0
M  V30 1389 H 137.444 -2.62889 -1.43909 0
M  V30 1390 H 135.005 -1.48427 -0.646617 0
M  V30 1391 H 136.997 -1.56084 -3.7339 0
M  V30 1392 H 135.567 -0.764118 -3.03117 0
M  V30 1393 H 134.787 -3.15749 -2.36 0
M  V30 1394 H 136.075 -3.77834 -3.40762 0
M  V30 1395 H 135.473 -1.37182 -5.48815 0
M  V30 1396 H 134.03 -1.95073 -6.21924 0
M  V30 1397 N 137.463 0.71206 -1.40597 0
M  V30 1398 C 138.712 1.46754 -1.38369 0
M  V30 1399 C 139.025 1.95598 0.0097839 0
M  V30 1400 O 140.231 2.71059 0.154677 0
M  V30 1401 C 138.687 2.65289 -2.43207 0
M  V30 1402 C 138.295 2.23301 -3.88382 0
M  V30 1403 C 140.039 3.43008 -2.50091 0
M  V30 1404 C 137.946 3.38696 -4.84808 0
M  V30 1405 H 136.876 0.55118 -0.514506 0
M  V30 1406 H 139.527 0.774616 -1.66349 0
M  V30 1407 H 137.909 3.36769 -2.08332 0
M  V30 1408 H 139.083 1.59218 -4.32419 0
M  V30 1409 H 137.398 1.58618 -3.85006 0
M  V30 1410 H 139.995 4.28881 -3.1932 0
M  V30 1411 H 140.338 3.87065 -1.53253 0
M  V30 1412 H 140.871 2.78574 -2.83974 0
M  V30 1413 H 137.61 2.99668 -5.82992 0
M  V30 1414 H 137.13 4.01683 -4.45433 0
M  V30 1415 H 138.809 4.04712 -5.04794 0
M  V30 1416 N 138.941 1.26152 0.944643 0
M  V30 1417 C 140.357 1.03189 1.21754 0
M  V30 1418 C 140.557 -0.245112 2.00004 0
M  V30 1419 O 139.613 -0.955176 2.33736 0
M  V30 1420 C 140.926 2.26119 1.98219 0
M  V30 1421 C 142.474 2.30984 2.11224 0
M  V30 1422 C 142.949 3.53597 2.91089 0
M  V30 1423 N 144.44 3.54053 2.98664 0
M  V30 1424 C 145.175 4.45593 3.60881 0
M  V30 1425 N 144.671 5.47416 4.24626 0
M  V30 1426 N 146.464 4.33252 3.58119 0
M  V30 1427 H 138.615 2.08177 0.421437 0
M  V30 1428 H 140.878 0.914723 0.248969 0
M  V30 1429 H 140.584 3.18984 1.48128 0
M  V30 1430 H 140.458 2.3009 2.98895 0
M  V30 1431 H 142.845 1.38635 2.60508 0
M  V30 1432 H 142.926 2.31026 1.09821 0
M  V30 1433 H 142.57 4.46273 2.42493 0
M  V30 1434 H 142.5 3.50802 3.92741 0
M  V30 1435 H 144.991 2.80403 2.53343 0
M  V30 1436 H 145.304 6.13459 4.69987 0
M  V30 1437 H 143.649 5.51278 4.23223 0
M  V30 1438 H 146.84 3.52924 3.0751 0
M  V30 1439 H 147.013 5.04786 4.06319 0
M  V30 1440 N 140.419 -1.14872 1.07899 0
M  V30 1441 C 141.835 -1.37776 0.805606 0
M  V30 1442 C 142.035 -1.92743 -0.587555 0
M  V30 1443 O 141.091 -2.13678 -1.34528 0
M  V30 1444 C 142.404 -2.34361 1.88402 0
M  V30 1445 C 143.952 -2.48012 1.90942 0
M  V30 1446 C 144.427 -3.47893 2.97883 0
M  V30 1447 N 145.918 -3.55433 2.97021 0
M  V30 1448 C 146.653 -4.32553 3.76412 0
M  V30 1449 N 146.149 -5.12959 4.65666 0
M  V30 1450 N 147.942 -4.27697 3.64735 0
M  V30 1451 H 140.093 -0.775365 1.97742 0
M  V30 1452 H 142.356 -0.403521 0.857831 0
M  V30 1453 H 142.062 -2.01098 2.88535 0
M  V30 1454 H 141.936 -3.34206 1.74889 0
M  V30 1455 H 144.323 -2.8057 0.914579 0
M  V30 1456 H 144.404 -1.48147 2.08534 0
M  V30 1457 H 144.048 -3.16069 3.97571 0
M  V30 1458 H 143.978 -4.47527 2.77538 0
M  V30 1459 H 146.469 -2.98048 2.32326 0
M  V30 1460 H 146.782 -5.69065 5.22862 0
M  V30 1461 H 145.127 -5.12245 4.69712 0
M  V30 1462 H 148.318 -3.63949 2.94378 0
M  V30 1463 H 148.491 -4.8755 4.26848 0
M  V30 1464 N 141.898 -0.863906 -1.31812 0
M  V30 1465 C 143.144 -0.472535 -1.97218 0
M  V30 1466 C 143.477 0.971394 -1.68159 0
M  V30 1467 O 142.752 1.68309 -0.974798 0
M  V30 1468 C 143.035 -0.723054 -3.52766 0
M  V30 1469 C 142.888 -2.21608 -3.91421 0
M  V30 1470 C 144.207 -0.185522 -4.39709 0
M  V30 1471 H 141.326 -0.173158 -0.71637 0
M  V30 1472 H 143.968 -1.08403 -1.56041 0
M  V30 1473 H 142.118 -0.202577 -3.87971 0
M  V30 1474 H 143.79 -2.80334 -3.66347 0
M  V30 1475 H 142.033 -2.691 -3.40246 0
M  V30 1476 H 142.704 -2.34203 -4.99853 0
M  V30 1477 H 145.18 -0.630726 -4.11292 0
M  V30 1478 H 144.056 -0.390306 -5.47511 0
M  V30 1479 H 144.317 0.912229 -4.32586 0
M  V30 1480 N 143.376 1.44774 -0.622745 0
M  V30 1481 C 144.286 2.34433 0.0886031 0
M  V30 1482 C 145.302 1.52131 0.844529 0
M  V30 1483 O 146.478 1.84886 0.798691 0
M  V30 1484 C 143.543 3.29986 1.0635 0
M  V30 1485 C 142.604 4.28195 0.307873 0
M  V30 1486 C 141.837 5.19183 1.23633 0
M  V30 1487 O 142.06 5.13918 2.47476 0
M  V30 1488 O 140.994 5.97515 0.725189 0
M  V30 1489 H 144.82 2.96693 -0.648599 0
M  V30 1490 H 142.405 1.44408 -0.382957 0
M  V30 1491 H 144.287 3.88825 1.6246 0
M  V30 1492 H 142.962 2.70269 1.78146 0
M  V30 1493 H 141.869 3.72927 -0.296064 0
M  V30 1494 H 143.202 4.90808 -0.3699 0
M  V30 1495 N 144.854 0.36279 1.53368 0
M  V30 1496 C 145.764 -0.492994 2.29362 0
M  V30 1497 C 146.78 -1.09507 1.35219 0
M  V30 1498 O 147.956 -1.10662 1.68273 0
M  V30 1499 C 145.021 -1.61855 3.066 0
M  V30 1500 C 144.082 -1.04429 4.16405 0
M  V30 1501 C 143.315 -2.11621 4.89951 0
M  V30 1502 O 143.538 -3.32684 4.63333 0
M  V30 1503 O 142.472 -1.74835 5.75948 0
M  V30 1504 H 146.298 0.125331 3.03441 0
M  V30 1505 H 143.883 0.127253 1.48857 0
M  V30 1506 H 145.765 -2.27302 3.54841 0
M  V30 1507 H 144.44 -2.22233 2.3536 0
M  V30 1508 H 143.347 -0.353819 3.72423 0
M  V30 1509 H 144.68 -0.485113 4.89804 0
M  V30 1510 N 146.332 -1.57332 0.0918853 0
M  V30 1511 C 147.748 -1.57389 -0.264766 0
M  V30 1512 C 147.948 -1.10281 -1.68643 0
M  V30 1513 O 147.004 -0.777801 -2.40222 0
M  V30 1514 C 148.317 -3.00648 -0.0561195 0
M  V30 1515 C 149.865 -3.12754 -0.124116 0
M  V30 1516 C 150.34 -4.57965 0.0564972 0
M  V30 1517 N 151.831 -4.632 0.00155611 0
M  V30 1518 C 152.566 -5.73281 0.116598 0
M  V30 1519 N 152.062 -6.92208 0.286294 0
M  V30 1520 N 153.855 -5.6207 0.0580973 0
M  V30 1521 H 146.006 -1.86262 1.02079 0
M  V30 1522 H 148.269 -0.859579 0.399786 0
M  V30 1523 H 147.975 -3.393 0.925669 0
M  V30 1524 H 147.849 -3.68623 -0.799823 0
M  V30 1525 H 150.236 -2.73976 -1.09641 0
M  V30 1526 H 150.317 -2.47377 0.651024 0
M  V30 1527 H 149.961 -4.97436 1.02564 0
M  V30 1528 H 149.891 -5.21399 -0.738297 0
M  V30 1529 H 152.382 -3.77686 -0.127192 0
M  V30 1530 H 152.695 -7.71934 0.365676 0
M  V30 1531 H 151.04 -6.94254 0.32192 0
M  V30 1532 H 154.231 -4.68043 -0.0733204 0
M  V30 1533 H 154.404 -6.47824 0.151203 0
M  V30 1534 N 147.81 0.181792 -1.56548 0
M  V30 1535 C 148.74 1.22765 -1.98623 0
M  V30 1536 C 149.721 1.46747 -0.860189 0
M  V30 1537 O 150.906 1.58259 -1.12551 0
M  V30 1538 C 148.036 2.56894 -2.33715 0
M  V30 1539 C 146.99 2.475 -3.49182 0
M  V30 1540 C 146.316 3.86023 -3.69986 0
M  V30 1541 C 147.616 1.98866 -4.82959 0
M  V30 1542 H 149.31 0.877942 -2.86239 0
M  V30 1543 H 146.856 0.42088 -1.37712 0
M  V30 1544 H 148.809 3.30253 -2.61746 0
M  V30 1545 H 147.533 2.93632 -1.42997 0
M  V30 1546 H 146.192 1.76596 -3.21262 0
M  V30 1547 H 145.84 4.20136 -2.76576 0
M  V30 1548 H 145.54 3.80609 -4.47672 0
M  V30 1549 H 147.064 4.60984 -4.00407 0
M  V30 1550 H 148.478 2.61992 -5.09934 0
M  V30 1551 H 146.875 2.04424 -5.64208 0
M  V30 1552 H 147.945 0.942465 -4.75653 0
M  V30 1553 N 149.288 1.51039 0.449983 0
M  V30 1554 C 150.513 1.6715 1.22783 0
M  V30 1555 C 150.938 0.363081 1.84563 0
M  V30 1556 O 150.296 -0.675433 1.68249 0
M  V30 1557 C 150.344 2.77985 2.29689 0
M  V30 1558 O 149.448 2.40707 3.34864 0
M  V30 1559 H 148.789 0.557746 0.360299 0
M  V30 1560 H 151.319 1.97535 0.533005 0
M  V30 1561 H 151.329 3.01693 2.74673 0
M  V30 1562 H 150.004 3.72935 1.84098 0
M  V30 1563 H 148.581 2.27523 2.95445 0
M  V30 1564 N 150.766 -0.704594 1.40972 0
M  V30 1565 C 151.729 -1.80035 1.41845 0
M  V30 1566 C 152.729 -1.57774 0.310474 0
M  V30 1567 O 153.919 -1.64613 0.56992 0
M  V30 1568 C 151.051 -3.18284 1.22098 0
M  V30 1569 H 152.244 -1.80658 2.3938 0
M  V30 1570 H 149.797 -0.911329 1.26982 0
M  V30 1571 H 150.532 -3.23306 0.253672 0
M  V30 1572 H 150.317 -3.35843 2.02366 0
M  V30 1573 H 151.807 -3.98289 1.25522 0
M  V30 1574 N 152.244 -1.26651 -0.937939 0
M  V30 1575 C 153.174 -1.10993 -2.05433 0
M  V30 1576 C 154.155 -0.0142161 -1.70094 0
M  V30 1577 O 155.34 -0.186837 -1.93299 0
M  V30 1578 C 152.47 -0.745561 -3.39203 0
M  V30 1579 C 151.424 -1.79337 -3.88616 0
M  V30 1580 C 150.75 -1.28324 -5.19073 0
M  V30 1581 C 152.05 -3.19553 -4.13138 0
M  V30 1582 H 153.744 -2.0438 -2.1879 0
M  V30 1583 H 151.29 -0.984041 -1.05131 0
M  V30 1584 H 153.243 -0.622888 -4.16771 0
M  V30 1585 H 151.967 0.22401 -3.25831 0
M  V30 1586 H 150.626 -1.90477 -3.13231 0
M  V30 1587 H 150.274 -0.303414 -5.02084 0
M  V30 1588 H 149.974 -1.98369 -5.53103 0
M  V30 1589 H 151.498 -1.1733 -5.99221 0
M  V30 1590 H 152.912 -3.11471 -4.81309 0
M  V30 1591 H 151.309 -3.87218 -4.58457 0
M  V30 1592 H 152.379 -3.65368 -3.18801 0
M  V30 1593 N 153.722 1.14298 -1.08507 0
M  V30 1594 C 154.97 1.84993 -0.813763 0
M  V30 1595 C 155.291 1.83405 0.662393 0
M  V30 1596 O 154.561 1.28319 1.48024 0
M  V30 1597 H 153.141 0.684966 -0.298045 0
M  V30 1598 H 155.803 1.385 -1.37126 0
M  V30 1599 H 154.899 2.89788 -1.15884 0
M  V30 1600 N 155.201 0.870884 1.31352 0
M  V30 1601 C 156.149 0.316445 2.30437 0
M  V30 1602 C 157.143 -0.568965 1.59559 0
M  V30 1603 O 158.349 -0.454964 1.74155 0
M  V30 1604 H 154.724 0.0836521 0.747333 0
M  V30 1605 H 156.695 1.16606 2.74673 0
M  V30 1606 C 155.444 -0.46635 3.44558 0
M  V30 1607 H 154.767 0.205687 3.99271 0
M  V30 1608 H 156.207 -0.819614 4.16003 0
M  V30 1609 C 154.666 -1.65797 2.9328 0
M  V30 1610 O 155.196 -2.75728 2.92125 0
M  V30 1611 N 153.402 -1.49041 2.4947 0
M  V30 1612 H 152.949 -0.59612 2.50608 0
M  V30 1613 H 152.907 -2.28911 2.15516 0
M  V30 1614 N 156.679 -1.44442 0.630414 0
M  V30 1615 C 157.925 -2.02351 0.134816 0
M  V30 1616 C 158.258 -1.4947 -1.23986 0
M  V30 1617 O 157.533 -0.678475 -1.82283 0
M  V30 1618 C 157.816 -3.59898 0.120707 0
M  V30 1619 C 157.669 -4.23063 1.52767 0
M  V30 1620 C 158.988 -4.36585 -0.555127 0
M  V30 1621 H 156.107 -0.73527 0.0504646 0
M  V30 1622 H 158.749 -1.72022 0.806751 0
M  V30 1623 H 156.899 -3.85868 -0.451477 0
M  V30 1624 H 158.571 -4.08202 2.14869 0
M  V30 1625 H 156.814 -3.80586 2.08175 0
M  V30 1626 H 157.485 -5.32071 1.46984 0
M  V30 1627 H 159.961 -4.16044 -0.0685429 0
M  V30 1628 H 158.837 -5.46294 -0.534185 0
M  V30 1629 H 159.098 -4.11138 -1.62535 0
M  V30 1630 N 158.157 -0.370918 -1.53173 0
M  V30 1631 C 159.385 0.217704 -2.05751 0
M  V30 1632 C 159.8 1.42018 -1.24404 0
M  V30 1633 O 159.157 1.80245 -0.286033 0
M  V30 1634 C 159.208 0.605954 -3.56385 0
M  V30 1635 O 158.929 -0.548734 -4.3465 0
M  V30 1636 C 160.43 1.2524 -4.25241 0
M  V30 1637 H 157.65 0.0371659 -0.66997 0
M  V30 1638 H 160.194 -0.530832 -1.9749 0
M  V30 1639 H 158.349 1.3044 -3.6478 0
M  V30 1640 H 158.763 -0.23376 -5.23979 0
M  V30 1641 H 160.237 1.47458 -5.3194 0
M  V30 1642 H 160.714 2.2143 -3.79296 0
M  V30 1643 H 161.32 0.595233 -4.21114 0
M  V30 1644 N 159.635 1.57281 -0.100228 0
M  V30 1645 C 160.863 1.98879 0.570509 0
M  V30 1646 C 161.278 0.979476 1.61405 0
M  V30 1647 O 160.635 -0.0302288 1.82475 0
M  V30 1648 C 160.686 3.4052 1.2136 0
M  V30 1649 O 160.407 4.37588 0.211786 0
M  V30 1650 C 161.908 3.97149 1.96945 0
M  V30 1651 H 159.128 0.653428 0.152555 0
M  V30 1652 H 161.672 2.03697 -0.18103 0
M  V30 1653 H 159.827 3.367 1.91603 0
M  V30 1654 H 160.241 5.20118 0.676607 0
M  V30 1655 H 161.715 4.98393 2.37294 0
M  V30 1656 H 162.192 3.3525 2.83733 0
M  V30 1657 H 162.798 4.04458 1.31506 0
M  V30 1658 N 161.113 -0.173488 1.56642 0
M  V30 1659 C 162.353 -0.896984 1.83667 0
M  V30 1660 C 162.717 -1.79523 0.680842 0
M  V30 1661 O 163.918 -2.55616 0.831488 0
M  V30 1662 C 162.189 -1.67351 3.15798 0
M  V30 1663 S 163.748 -2.44607 3.64298 0
M  V30 1664 H 160.566 -0.300464 0.644393 0
M  V30 1665 H 163.168 -0.158775 1.94854 0
M  V30 1666 H 161.872 -1.00462 3.97914 0
M  V30 1667 H 161.403 -2.45313 3.07546 0
M  V30 1668 H 163.418 -3.69261 3.31452 0
M  V30 1669 N 162.591 -1.51276 -0.441967 0
M  V30 1670 C 163.539 -1.72823 -1.55676 0
M  V30 1671 C 164.533 -0.59445 -1.58627 0
M  V30 1672 O 165.739 -0.775715 -1.62427 0
M  V30 1673 H 162.114 -0.545983 -0.517113 0
M  V30 1674 H 164.085 -2.6628 -1.34675 0
M  V30 1675 C 162.834 -1.86619 -2.93375 0
M  V30 1676 H 162.157 -2.73264 -2.91834 0
M  V30 1677 H 163.597 -2.05709 -3.70756 0
M  V30 1678 C 162.056 -0.624842 -3.31055 0
M  V30 1679 O 162.586 0.222636 -4.01083 0
M  V30 1680 N 160.792 -0.470288 -2.86769 0
M  V30 1681 H 160.339 -1.161 -2.29953 0
M  V30 1682 H 160.297 0.359051 -3.12343 0
M  V30 1683 N 164.069 0.697108 -1.41344 0
M  V30 1684 C 165.346 1.45154 -1.31109 0
M  V30 1685 C 165.726 2.11009 0.0620449 0
M  V30 1686 O 165.074 2.01571 1.07618 0
M  V30 1687 C 165.284 2.47223 -2.46337 0
M  V30 1688 C 166.632 3.1252 -2.87431 0
M  V30 1689 O 167.656 2.57547 -2.46065 0
M  V30 1690 O 166.515 4.12083 -3.58957 0
M  V30 1691 H 163.609 0.646365 -0.515889 0
M  V30 1692 H 166.155 0.727716 -1.53305 0
M  V30 1693 H 164.927 1.97204 -3.37974 0
M  V30 1694 H 164.55 3.27116 -2.2601 0
M  V30 1695 N 165.547 1.27147 0.931209 0
M  V30 1696 C 166.777 1.15914 1.71019 0
M  V30 1697 C 167.185 -0.287112 1.87009 0
M  V30 1698 O 166.528 -1.20761 1.38429 0
M  V30 1699 C 166.59 1.76647 3.13107 0
M  V30 1700 C 166.254 3.25807 3.20467 0
M  V30 1701 C 167.251 4.22489 3.02983 0
M  V30 1702 C 164.936 3.66452 3.43538 0
M  V30 1703 C 166.93 5.57794 3.08454 0
M  V30 1704 C 164.617 5.01888 3.48643 0
M  V30 1705 C 165.615 5.97369 3.31119 0
M  V30 1706 O 165.303 7.30337 3.35952 0
M  V30 1707 H 165.035 0.404062 0.54195 0
M  V30 1708 H 167.589 1.68457 1.17521 0
M  V30 1709 H 165.819 1.18578 3.68071 0
M  V30 1710 H 167.508 1.60179 3.72958 0
M  V30 1711 H 168.274 3.92425 2.85004 0
M  V30 1712 H 164.153 2.92611 3.5623 0
M  V30 1713 H 167.697 6.32298 2.94694 0
M  V30 1714 H 163.594 5.31609 3.66145 0
M  V30 1715 H 164.362 7.38739 3.5243 0
M  V30 1716 N 167.025 -1.13721 1.09112 0
M  V30 1717 C 168.271 -1.85198 0.826414 0
M  V30 1718 C 168.604 -1.83129 -0.646319 0
M  V30 1719 O 167.879 -1.2671 -1.47563 0
M  V30 1720 C 168.162 -3.33507 1.35812 0
M  V30 1721 C 168.015 -3.44108 2.89672 0
M  V30 1722 C 169.334 -4.28838 0.989256 0
M  V30 1723 H 166.453 -0.67243 0.301675 0
M  V30 1724 H 169.095 -1.33499 1.35197 0
M  V30 1725 H 167.245 -3.77666 0.911082 0
M  V30 1726 H 168.917 -3.08684 3.428 0
M  V30 1727 H 167.16 -2.85087 3.26967 0
M  V30 1728 H 167.831 -4.48388 3.21951 0
M  V30 1729 H 170.307 -3.92734 1.37475 0
M  V30 1730 H 169.183 -5.31051 1.38838 0
M  V30 1731 H 169.444 -4.4198 -0.102924 0
M  V30 1732 N 168.503 -0.877838 -1.30888 0
M  V30 1733 C 169.466 -0.344265 -2.266 0
M  V30 1734 C 170.466 0.50922 -1.52524 0
M  V30 1735 O 171.656 0.317398 -1.71284 0
M  V30 1736 C 168.788 0.510198 -3.37061 0
M  V30 1737 H 169.981 -1.1893 -2.7531 0
M  V30 1738 H 167.534 -0.654088 -1.41956 0
M  V30 1739 H 168.269 1.37612 -2.93655 0
M  V30 1740 H 168.054 -0.101047 -3.9197 0
M  V30 1741 H 169.544 0.875537 -4.08319 0
M  V30 1742 N 169.982 1.44106 -0.638065 0
M  V30 1743 C 170.912 2.33448 0.0494287 0
M  V30 1744 C 171.893 1.48606 0.827672 0
M  V30 1745 O 173.078 1.77308 0.792173 0
M  V30 1746 C 170.208 3.31771 1.02691 0
M  V30 1747 C 169.162 4.26485 0.359823 0
M  V30 1748 C 168.488 5.14729 1.44769 0
M  V30 1749 C 169.788 5.17056 -0.738296 0
M  V30 1750 H 171.482 2.91183 -0.696636 0
M  V30 1751 H 169.028 1.40014 -0.336456 0
M  V30 1752 H 170.981 3.93161 1.51666 0
M  V30 1753 H 169.705 2.7226 1.80395 0
M  V30 1754 H 168.364 3.66437 -0.10934 0
M  V30 1755 H 168.012 4.51566 2.21578 0
M  V30 1756 H 167.712 5.78913 1.00668 0
M  V30 1757 H 169.236 5.78991 1.93911 0
M  V30 1758 H 170.65 5.72342 -0.331354 0
M  V30 1759 H 169.047 5.89879 -1.10286 0
M  V30 1760 H 170.117 4.57652 -1.60258 0
M  V30 1761 N 171.46 0.379036 1.52974 0
M  V30 1762 C 172.706 -0.206727 2.01744 0
M  V30 1763 C 173.039 -1.47314 1.26539 0
M  V30 1764 O 172.314 -1.91084 0.362903 0
M  V30 1765 C 172.597 -0.485066 3.56818 0
M  V30 1766 C 172.45 0.795919 4.42702 0
M  V30 1767 C 173.769 -1.28003 4.21074 0
M  V30 1768 H 170.888 -0.0736607 0.73331 0
M  V30 1769 H 173.53 0.506581 1.83122 0
M  V30 1770 H 171.68 -1.09272 3.72816 0
M  V30 1771 H 173.352 1.43307 4.38476 0
M  V30 1772 H 171.595 1.41344 4.10127 0
M  V30 1773 H 172.266 0.555947 5.49193 0
M  V30 1774 H 174.742 -0.765867 4.08991 0
M  V30 1775 H 173.618 -1.44352 5.29579 0
M  V30 1776 H 173.879 -2.29236 3.78026 0
M  V30 1777 N 172.938 -1.57226 0.108567 0
M  V30 1778 C 173.888 -2.11305 -0.856396 0
M  V30 1779 C 174.872 -1.03129 -1.23504 0
M  V30 1780 O 176.064 -1.29381 -1.20787 0
M  V30 1781 C 173.193 -2.70771 -2.11041 0
M  V30 1782 C 172.279 -3.86011 -1.7566 0
M  V30 1783 N 172.67 -4.93492 -1.10902 0
M  V30 1784 C 170.968 -3.95999 -2.05185 0
M  V30 1785 C 171.669 -5.73984 -0.944308 0
M  V30 1786 N 170.645 -5.2346 -1.46596 0
M  V30 1787 H 174.447 -2.91784 -0.352002 0
M  V30 1788 H 171.961 -1.62126 -0.0942324 0
M  V30 1789 H 173.958 -3.07851 -2.81128 0
M  V30 1790 H 172.618 -1.91751 -2.62034 0
M  V30 1791 H 173.629 -5.1208 -0.774235 0
M  V30 1792 H 170.306 -3.28007 -2.58298 0
M  V30 1793 H 171.696 -6.70479 -0.436813 0
M  V30 1794 N 174.416 0.165178 -1.56732 0
M  V30 1795 C 175.827 0.727046 -1.71962 0
M  V30 1796 C 176.178 1.82508 -0.720078 0
M  V30 1797 O 175.303 2.16082 0.117242 0
M  V30 1798 C 175.898 1.32559 -3.11791 0
M  V30 1799 C 174.457 1.83422 -3.28684 0
M  V30 1800 C 173.604 0.715567 -2.67908 0
M  V30 1801 H 176.555 -0.0602896 -1.58585 0
M  V30 1802 H 176.576 2.19533 -3.10782 0
M  V30 1803 H 176.088 0.526195 -3.84516 0
M  V30 1804 H 174.189 2.65986 -2.60926 0
M  V30 1805 H 174.302 1.97543 -4.36478 0
M  V30 1806 H 172.666 1.13758 -2.27884 0
M  V30 1807 H 173.449 -0.0720836 -3.43224 0
M  V30 1808 N 175.894 1.51508 0.433938 0
M  V30 1809 C 177.171 1.54888 1.19453 0
M  V30 1810 C 177.551 0.315154 2.08734 0
M  V30 1811 O 176.899 -0.699558 2.17528 0
M  V30 1812 C 177.109 2.86467 1.99342 0
M  V30 1813 C 178.457 3.38545 2.56267 0
M  V30 1814 O 179.481 2.88041 2.0955 0
M  V30 1815 O 178.34 4.26675 3.41483 0
M  V30 1816 H 175.434 0.622863 0.544032 0
M  V30 1817 H 177.98 1.63823 0.442732 0
M  V30 1818 H 176.752 3.67718 1.33788 0
M  V30 1819 H 176.375 2.8071 2.8158 0
M  V30 1820 N 177.372 -0.689602 1.41712 0
M  V30 1821 C 178.302 -1.81577 1.46806 0
M  V30 1822 C 179.283 -1.66945 0.326105 0
M  V30 1823 O 180.468 -1.86588 0.538377 0
M  V30 1824 C 177.598 -3.19762 1.35535 0
M  V30 1825 C 176.552 -3.49107 2.47605 0
M  V30 1826 C 175.878 -4.86711 2.21397 0
M  V30 1827 C 177.178 -3.47483 3.89939 0
M  V30 1828 H 178.872 -1.7757 2.41058 0
M  V30 1829 H 176.418 -0.852887 1.16025 0
M  V30 1830 H 178.371 -3.98263 1.3771 0
M  V30 1831 H 177.095 -3.24409 0.377708 0
M  V30 1832 H 175.754 -2.72959 2.44722 0
M  V30 1833 H 175.402 -4.8799 1.21961 0
M  V30 1834 H 175.102 -5.0731 2.96497 0
M  V30 1835 H 176.626 -5.67515 2.25297 0
M  V30 1836 H 178.04 -4.1598 3.94505 0
M  V30 1837 H 176.437 -3.79615 4.64771 0
M  V30 1838 H 177.507 -2.46341 4.17665 0
M  V30 1839 N 178.85 -1.27639 -0.924453 0
M  V30 1840 C 180.127 -1.04887 -1.651 0
M  V30 1841 C 180.507 0.415327 -2.06974 0
M  V30 1842 O 179.855 1.39923 -1.80648 0
M  V30 1843 C 180.065 -2.01348 -2.85061 0
M  V30 1844 C 181.413 -2.30899 -3.56329 0
M  V30 1845 O 182.437 -1.99348 -2.95193 0
M  V30 1846 O 181.296 -2.84699 -4.66485 0
M  V30 1847 H 178.39 -0.400083 -0.723784 0
M  V30 1848 H 180.936 -1.38916 -0.974703 0
M  V30 1849 H 179.708 -3.0008 -2.51133 0
M  V30 1850 H 179.331 -1.679 -3.6041 0
M  V30 1851 N 180.328 1.1314 -1.09713 0
M  V30 1852 C 181.744 1.36477 -0.827423 0
M  V30 1853 C 181.944 1.93654 0.556817 0
M  V30 1854 O 181 2.15791 1.31112 0
M  V30 1855 C 182.313 2.31334 -1.92106 0
M  V30 1856 C 183.861 2.44943 -1.94864 0
M  V30 1857 C 184.336 3.4311 -3.0338 0
M  V30 1858 N 185.827 3.50662 -3.02639 0
M  V30 1859 C 186.562 4.2651 -3.83246 0
M  V30 1860 N 186.058 5.05485 -4.73768 0
M  V30 1861 N 187.851 4.2184 -3.71493 0
M  V30 1862 H 180.002 0.743807 -1.9895 0
M  V30 1863 H 182.265 0.389823 -0.864143 0
M  V30 1864 H 181.971 1.96483 -2.91698 0
M  V30 1865 H 181.845 3.31381 -1.80184 0
M  V30 1866 H 184.232 2.79079 -0.959099 0
M  V30 1867 H 184.313 1.4481 -2.10864 0
M  V30 1868 H 183.957 3.09704 -4.02549 0
M  V30 1869 H 183.887 4.43055 -2.84622 0
M  V30 1870 H 186.378 2.94315 -2.37039 0
M  V30 1871 H 186.691 5.60675 -5.3185 0
M  V30 1872 H 185.036 5.04708 -4.77802 0
M  V30 1873 H 188.227 3.5922 -3.00131 0
M  V30 1874 H 188.4 4.80697 -4.3455 0
M  V30 1875 N 181.806 0.884767 1.30421 0
M  V30 1876 C 182.716 0.355398 2.31892 0
M  V30 1877 C 183.732 -0.542261 1.65335 0
M  V30 1878 O 184.908 -0.435432 1.96637 0
M  V30 1879 C 181.973 -0.421661 3.44126 0
M  V30 1880 C 181.034 0.505727 4.26311 0
M  V30 1881 C 180.267 -0.234343 5.33185 0
M  V30 1882 O 180.49 -1.46045 5.51386 0
M  V30 1883 O 179.424 0.415443 6.00465 0
M  V30 1884 H 183.25 1.19685 2.79122 0
M  V30 1885 H 180.835 0.648596 1.34587 0
M  V30 1886 H 182.717 -0.861641 4.12497 0
M  V30 1887 H 181.392 -1.23942 2.99032 0
M  V30 1888 H 180.299 0.994513 3.60639 0
M  V30 1889 H 181.632 1.28948 4.75009 0
M  V30 1890 N 183.284 -1.43765 0.645699 0
M  V30 1891 C 184.512 -2.06253 0.163556 0
M  V30 1892 C 184.927 -1.48352 -1.16778 0
M  V30 1893 O 184.284 -0.611932 -1.71935 0
M  V30 1894 C 184.335 -3.61453 0.0583186 0
M  V30 1895 O 184.056 -4.172 1.33702 0
M  V30 1896 C 185.557 -4.41002 -0.450795 0
M  V30 1897 H 182.777 -0.665413 0.0864077 0
M  V30 1898 H 185.321 -1.84396 0.884222 0
M  V30 1899 H 183.476 -3.82522 -0.612865 0
M  V30 1900 H 183.89 -5.10791 1.19131 0
M  V30 1901 H 185.364 -5.49966 -0.473403 0
M  V30 1902 H 185.841 -4.13488 -1.48068 0
M  V30 1903 H 186.447 -4.24886 0.187637 0
M  V30 1904 N 184.763 -0.387143 -1.52771 0
M  V30 1905 C 185.673 0.456442 -2.30117 0
M  V30 1906 C 186.689 1.07342 -1.36944 0
M  V30 1907 O 187.865 1.07971 -1.70013 0
M  V30 1908 C 184.93 1.56957 -3.09136 0
M  V30 1909 C 183.991 0.977916 -4.18014 0
M  V30 1910 C 183.224 2.038 -4.93256 0
M  V30 1911 O 183.447 3.25271 -4.68567 0
M  V30 1912 O 182.381 1.6565 -5.78657 0
M  V30 1913 H 186.207 -0.17359 -3.03203 0
M  V30 1914 H 183.792 -0.150919 -1.48636 0
M  V30 1915 H 185.674 2.21628 -3.58412 0
M  V30 1916 H 184.349 2.18461 -2.38865 0
M  V30 1917 H 183.256 0.294525 -3.72939 0
M  V30 1918 H 184.589 0.407128 -4.90513 0
M  V30 1919 N 186.241 1.57166 -0.116904 0
M  V30 1920 C 187.151 2.18745 0.847812 0
M  V30 1921 C 188.167 1.163 1.29423 0
M  V30 1922 O 189.343 1.48761 1.35765 0
M  V30 1923 C 186.408 2.77307 2.0809 0
M  V30 1924 C 185.469 3.94781 1.68661 0
M  V30 1925 C 184.702 4.50541 2.86091 0
M  V30 1926 O 184.925 4.05202 4.01456 0
M  V30 1927 O 183.859 5.41256 2.63298 0
M  V30 1928 H 187.685 3.01632 0.353778 0
M  V30 1929 H 185.27 1.49005 0.108599 0
M  V30 1930 H 187.152 3.14647 2.80313 0
M  V30 1931 H 185.827 1.97452 2.56504 0
M  V30 1932 H 184.734 3.62214 0.935518 0
M  V30 1933 H 186.067 4.76065 1.24991 0
M  V30 1934 N 187.719 -0.156864 1.56817 0
M  V30 1935 C 188.968 -0.869504 1.81996 0
M  V30 1936 C 189.281 -1.82777 0.696545 0
M  V30 1937 O 190.487 -2.58384 0.833658 0
M  V30 1938 C 188.943 -1.59679 3.22538 0
M  V30 1939 C 188.551 -0.681431 4.42787 0
M  V30 1940 C 190.295 -2.2968 3.56997 0
M  V30 1941 C 188.202 -1.40978 5.74351 0
M  V30 1942 H 187.132 -0.328438 0.678708 0
M  V30 1943 H 189.783 -0.1223 1.83092 0
M  V30 1944 H 188.165 -2.38927 3.158 0
M  V30 1945 H 189.339 0.0751166 4.60739 0
M  V30 1946 H 187.654 -0.0903431 4.16302 0
M  V30 1947 H 190.251 -2.84794 4.52544 0
M  V30 1948 H 190.594 -3.05707 2.82576 0
M  V30 1949 H 191.127 -1.57361 3.65352 0
M  V30 1950 H 187.866 -0.691561 6.51842 0
M  V30 1951 H 187.386 -2.13929 5.60352 0
M  V30 1952 H 189.065 -1.95337 6.16808 0
M  V30 1953 N 189.197 -1.51736 -0.425897 0
M  V30 1954 C 190.127 -1.76827 -1.52494 0
M  V30 1955 C 191.108 -0.618524 -1.58456 0
M  V30 1956 O 192.293 -0.862416 -1.74 0
M  V30 1957 C 189.423 -1.90374 -2.90474 0
M  V30 1958 C 188.377 -3.0588 -2.99369 0
M  V30 1959 C 187.703 -3.04625 -4.3944 0
M  V30 1960 C 189.003 -4.45644 -2.72394 0
M  V30 1961 H 190.697 -2.68855 -1.31748 0
M  V30 1962 H 188.243 -1.29372 -0.632362 0
M  V30 1963 H 190.196 -2.0651 -3.6733 0
M  V30 1964 H 188.92 -0.95004 -3.12477 0
M  V30 1965 H 187.579 -2.89467 -2.24954 0
M  V30 1966 H 187.227 -2.0701 -4.58428 0
M  V30 1967 H 186.927 -3.82195 -4.46319 0
M  V30 1968 H 188.451 -3.22869 -5.18255 0
M  V30 1969 H 189.865 -4.62348 -3.38979 0
M  V30 1970 H 188.262 -5.25006 -2.9067 0
M  V30 1971 H 189.332 -4.54893 -1.67929 0
M  V30 1972 N 190.675 0.682077 -1.42076 0
M  V30 1973 C 191.638 1.77756 -1.44691 0
M  V30 1974 C 192.638 1.5726 -0.335535 0
M  V30 1975 O 193.828 1.63686 -0.596037 0
M  V30 1976 C 190.96 3.16301 -1.27146 0
M  V30 1977 H 192.153 1.76826 -2.42224 0
M  V30 1978 H 189.706 0.891012 -1.28416 0
M  V30 1979 H 190.441 3.22862 -0.305075 0
M  V30 1980 H 190.226 3.32581 -2.07683 0
M  V30 1981 H 191.716 3.96241 -1.31843 0
M  V30 1982 N 192.153 1.28127 0.917671 0
M  V30 1983 C 193.43 1.05761 1.64542 0
M  V30 1984 C 193.81 -0.404344 2.07191 0
M  V30 1985 O 193.158 -1.38963 1.81388 0
M  V30 1986 C 193.368 2.02857 2.83989 0
M  V30 1987 C 194.716 2.32786 3.551 0
M  V30 1988 O 195.74 2.0091 2.94132 0
M  V30 1989 O 194.599 2.87169 4.64969 0
M  V30 1990 H 191.693 0.403916 0.721652 0
M  V30 1991 H 194.239 1.39431 0.967322 0
M  V30 1992 H 193.011 3.01407 2.49538 0
M  V30 1993 H 192.634 1.69809 3.59514 0
M  V30 1994 N 193.631 -1.12557 1.10312 0
M  V30 1995 C 194.877 -1.84311 0.846011 0
M  V30 1996 C 195.21 -1.83805 -0.626859 0
M  V30 1997 O 194.485 -1.28268 -1.46211 0
M  V30 1998 C 194.768 -3.32048 1.39341 0
M  V30 1999 C 194.621 -3.41016 2.93305 0
M  V30 2000 C 195.94 -4.27764 1.03468 0
M  V30 2001 H 193.059 -0.669192 0.30879 0
M  V30 2002 H 195.701 -1.32057 1.36605 0
M  V30 2003 H 193.851 -3.76678 0.951087 0
M  V30 2004 H 195.523 -3.05031 3.46055 0
M  V30 2005 H 193.766 -2.81603 3.29973 0
M  V30 2006 H 194.437 -4.44948 3.26689 0
M  V30 2007 H 196.913 -3.91253 1.41633 0
M  V30 2008 H 195.789 -5.29549 1.44463 0
M  V30 2009 H 196.05 -4.42064 -0.0560404 0
M  V30 2010 N 195.109 -0.891671 -1.2995 0
M  V30 2011 C 196.039 -0.379797 -2.30391 0
M  V30 2012 C 197.02 0.540919 -1.6127 0
M  V30 2013 O 198.205 0.453352 -1.88834 0
M  V30 2014 C 195.335 0.400654 -3.44981 0
M  V30 2015 C 194.289 -0.428905 -4.25846 0
M  V30 2016 C 193.615 0.478557 -5.32554 0
M  V30 2017 C 194.915 -1.67458 -4.94727 0
M  V30 2018 H 196.609 -1.21914 -2.73454 0
M  V30 2019 H 194.155 -0.587675 -1.31462 0
M  V30 2020 H 196.108 0.769434 -4.14316 0
M  V30 2021 H 194.832 1.27371 -3.0074 0
M  V30 2022 H 193.491 -0.779911 -3.58208 0
M  V30 2023 H 193.139 1.34951 -4.84559 0
M  V30 2024 H 192.839 -0.0727433 -5.87555 0
M  V30 2025 H 194.363 0.843705 -6.04743 0
M  V30 2026 H 195.777 -1.376 -5.56542 0
M  V30 2027 H 194.174 -2.16659 -5.59624 0
M  V30 2028 H 195.244 -2.41518 -4.20473 0
M  V30 2029 N 196.587 1.43421 -0.653314 0
M  V30 2030 C 197.534 2.30768 0.0382271 0
M  V30 2031 C 198.504 1.44755 0.814576 0
M  V30 2032 O 199.689 1.73624 0.791162 0
M  V30 2033 C 196.829 3.30336 0.998599 0
M  V30 2034 C 195.942 4.31448 0.218342 0
M  V30 2035 C 195.077 5.18098 1.17252 0
M  V30 2036 C 194.116 6.10902 0.382702 0
M  V30 2037 N 193.253 6.90176 1.28848 0
M  V30 2038 H 198.093 2.89357 -0.712511 0
M  V30 2039 H 195.63 1.42548 -0.363128 0
M  V30 2040 H 197.588 3.86572 1.56901 0
M  V30 2041 H 196.218 2.73397 1.71621 0
M  V30 2042 H 195.27 3.77506 -0.46836 0
M  V30 2043 H 196.582 4.97227 -0.395812 0
M  V30 2044 H 195.736 5.7896 1.81356 0
M  V30 2045 H 194.475 4.52444 1.82058 0
M  V30 2046 H 193.48 5.49128 -0.27169 0
M  V30 2047 H 194.705 6.78598 -0.260957 0
M  V30 2048 H 192.651 6.27171 1.92334 0
M  V30 2049 H 192.568 7.52478 0.728887 0
M  V30 2050 H 193.836 7.55543 1.91766 0
M  V30 2051 N 198.065 0.39524 1.52563 0
M  V30 2052 C 199.311 -0.185318 2.01952 0
M  V30 2053 C 199.644 -1.45964 1.28095 0
M  V30 2054 O 198.919 -1.90689 0.38315 0
M  V30 2055 C 199.202 -0.447193 3.57312 0
M  V30 2056 C 199.055 0.842828 4.41833 0
M  V30 2057 C 200.374 -1.23529 4.22408 0
M  V30 2058 H 197.493 -0.0658788 0.73405 0
M  V30 2059 H 200.135 0.525975 1.82575 0
M  V30 2060 H 198.285 -1.05312 3.73954 0
M  V30 2061 H 199.957 1.4795 4.36931 0
M  V30 2062 H 198.2 1.45686 4.08605 0
M  V30 2063 H 198.871 0.614165 5.48573 0
M  V30 2064 H 201.347 -0.722445 4.0978 0
M  V30 2065 H 200.223 -1.38727 5.3108 0
M  V30 2066 H 200.484 -2.25213 3.80436 0
M  V30 2067 N 199.544 -1.57102 0.125237 0
M  V30 2068 C 200.454 -2.19191 -0.8362 0
M  V30 2069 C 201.47 -1.16985 -1.28805 0
M  V30 2070 O 202.646 -1.49479 -1.34974 0
M  V30 2071 C 199.711 -2.78407 -2.06617 0
M  V30 2072 C 198.772 -3.9567 -1.66565 0
M  V30 2073 C 198.005 -4.52052 -2.83698 0
M  V30 2074 O 198.228 -4.07326 -3.99302 0
M  V30 2075 O 197.162 -5.42645 -2.60423 0
M  V30 2076 H 200.988 -3.01816 -0.337776 0
M  V30 2077 H 198.573 -1.4906 -0.100695 0
M  V30 2078 H 200.455 -3.16129 -2.7864 0
M  V30 2079 H 199.13 -1.9881 -2.55453 0
M  V30 2080 H 198.037 -3.62705 -0.916296 0
M  V30 2081 H 199.37 -4.76722 -1.22464 0
M  V30 2082 N 201.022 0.148545 -1.56898 0
M  V30 2083 C 202.268 0.862694 -1.83536 0
M  V30 2084 C 202.601 1.80889 -0.706604 0
M  V30 2085 O 201.876 1.92328 0.289885 0
M  V30 2086 C 202.159 1.63853 -3.20662 0
M  V30 2087 C 202.012 0.713925 -4.44098 0
M  V30 2088 C 203.331 2.60133 -3.54991 0
M  V30 2089 H 200.45 0.312179 -0.667618 0
M  V30 2090 H 203.092 0.127953 -1.89569 0
M  V30 2091 H 201.242 2.26489 -3.1565 0
M  V30 2092 H 202.914 0.098686 -4.61194 0
M  V30 2093 H 201.157 0.0234019 -4.33794 0
M  V30 2094 H 201.828 1.29278 -5.36648 0
M  V30 2095 H 204.304 2.07616 -3.60603 0
M  V30 2096 H 203.18 3.11468 -4.51972 0
M  V30 2097 H 203.441 3.41417 -2.80868 0
M  V30 2098 N 202.5 1.5196 0.417844 0
M  V30 2099 C 203.747 1.65591 1.16559 0
M  V30 2100 C 204.075 0.381565 1.90721 0
M  V30 2101 O 203.33 -0.635156 1.85106 0
M  V30 2102 C 203.629 2.82269 2.19223 0
M  V30 2103 C 203.295 4.20819 1.61933 0
M  V30 2104 C 201.957 4.58506 1.46033 0
M  V30 2105 C 204.309 5.07196 1.20008 0
M  V30 2106 C 201.637 5.80257 0.867113 0
M  V30 2107 C 203.989 6.29544 0.621086 0
M  V30 2108 C 202.653 6.65987 0.449144 0
M  V30 2109 H 201.923 0.605939 0.42652 0
M  V30 2110 H 204.57 1.86041 0.45397 0
M  V30 2111 H 202.875 2.56118 2.96498 0
M  V30 2112 H 204.572 2.90012 2.76936 0
M  V30 2113 H 201.162 3.91116 1.7529 0
M  V30 2114 H 205.346 4.7867 1.31105 0
M  V30 2115 H 200.602 6.07124 0.721833 0
M  V30 2116 H 204.776 6.95805 0.287798 0
M  V30 2117 H 202.403 7.60199 -0.012632 0
M  V30 2118 N 203.978 -0.674533 1.42435 0
M  V30 2119 C 205.394 -0.98769 1.25367 0
M  V30 2120 C 205.594 -2.00879 0.158044 0
M  V30 2121 O 204.65 -2.48075 -0.470633 0
M  V30 2122 C 205.963 -1.49224 2.6106 0
M  V30 2123 C 207.511 -1.61 2.68417 0
M  V30 2124 C 207.986 -2.14852 4.04478 0
M  V30 2125 N 209.477 -2.22185 4.06434 0
M  V30 2126 C 210.212 -2.64928 5.08528 0
M  V30 2127 N 209.708 -3.07121 6.21006 0
M  V30 2128 N 211.501 -2.64679 4.95885 0
M  V30 2129 H 203.652 0.00152503 2.124 0
M  V30 2130 H 205.915 -0.0618434 0.945981 0
M  V30 2131 H 205.621 -0.816453 3.42092 0
M  V30 2132 H 205.495 -2.47094 2.84999 0
M  V30 2133 H 207.882 -2.27686 1.87732 0
M  V30 2134 H 207.963 -0.616195 2.48267 0
M  V30 2135 H 207.607 -1.48775 4.85622 0
M  V30 2136 H 207.537 -3.15024 4.2198 0
M  V30 2137 H 210.028 -1.92435 3.25234 0
M  V30 2138 H 210.341 -3.38423 6.94759 0
M  V30 2139 H 208.686 -3.04978 6.24511 0
M  V30 2140 H 211.877 -2.31078 4.07088 0
M  V30 2141 H 212.05 -2.9767 5.75584 0
M  V30 2142 N 205.456 -1.28612 -0.910864 0
M  V30 2143 C 206.388 -1.08589 -2.01844 0
M  V30 2144 C 207.401 -0.0367419 -1.62759 0
M  V30 2145 O 208.59 -0.280101 -1.76289 0
M  V30 2146 C 205.69 -0.628626 -3.33019 0
M  V30 2147 C 204.863 -1.75382 -4.00699 0
M  V30 2148 C 203.922 -1.28945 -5.10156 0
M  V30 2149 O 202.948 -1.9922 -5.33198 0
M  V30 2150 N 204.15 -0.154224 -5.80295 0
M  V30 2151 H 206.915 -2.03973 -2.19579 0
M  V30 2152 H 204.476 -1.20403 -1.08234 0
M  V30 2153 H 206.468 -0.301508 -4.03575 0
M  V30 2154 H 205.038 0.232451 -3.11735 0
M  V30 2155 H 204.258 -2.25039 -3.23653 0
M  V30 2156 H 205.546 -2.50854 -4.42662 0
M  V30 2157 H 204.944 0.43194 -5.64049 0
M  V30 2158 H 203.501 0.113599 -6.51701 0
M  V30 2159 N 206.934 1.1197 -1.10907 0
M  V30 2160 C 208.162 1.87402 -0.876824 0
M  V30 2161 C 208.577 1.79894 0.573025 0
M  V30 2162 O 207.934 1.17629 1.39534 0
M  V30 2163 C 207.985 3.36428 -1.32282 0
M  V30 2164 O 207.706 3.43765 -2.71582 0
M  V30 2165 C 209.207 4.28783 -1.12518 0
M  V30 2166 H 206.427 0.592793 -0.314384 0
M  V30 2167 H 208.971 1.41649 -1.47499 0
M  V30 2168 H 207.126 3.79706 -0.768229 0
M  V30 2169 H 207.54 4.3652 -2.90776 0
M  V30 2170 H 209.014 5.31613 -1.48633 0
M  V30 2171 H 209.491 4.39153 -0.0642394 0
M  V30 2172 H 210.097 3.91291 -1.66648 0
M  V30 2173 N 208.412 0.89855 1.29475 0
M  V30 2174 C 209.658 0.524658 1.95896 0
M  V30 2175 C 209.991 -0.926468 1.70676 0
M  V30 2176 O 209.266 -1.65665 1.01908 0
M  V30 2177 C 209.549 0.81633 3.50725 0
M  V30 2178 C 209.402 2.31907 3.85408 0
M  V30 2179 C 210.721 0.302038 4.39062 0
M  V30 2180 H 207.84 0.19209 0.711527 0
M  V30 2181 H 210.482 1.12502 1.53112 0
M  V30 2182 H 208.632 0.305369 3.87298 0
M  V30 2183 H 210.304 2.89949 3.58786 0
M  V30 2184 H 208.547 2.78027 3.32992 0
M  V30 2185 H 209.218 2.47373 4.93468 0
M  V30 2186 H 211.694 0.739551 4.09475 0
M  V30 2187 H 210.57 0.535331 5.46283 0
M  V30 2188 H 210.831 -0.797216 4.34853 0
M  V30 2189 N 209.89 -1.43072 0.660911 0
M  V30 2190 C 210.853 -2.29194 -0.0166406 0
M  V30 2191 C 211.853 -1.42609 -0.742912 0
M  V30 2192 O 213.043 -1.64155 -0.583004 0
M  V30 2193 C 210.175 -3.24831 -1.0343 0
M  V30 2194 H 211.368 -2.90596 0.741208 0
M  V30 2195 H 208.921 -1.5048 0.422532 0
M  V30 2196 H 209.656 -2.68339 -1.82111 0
M  V30 2197 H 209.441 -3.88676 -0.517082 0
M  V30 2198 H 210.931 -3.89451 -1.50723 0
M  V30 2199 N 211.368 -0.403325 -1.52352 0
M  V30 2200 C 212.645 0.232611 -1.94212 0
M  V30 2201 C 213.025 1.63133 -1.33981 0
M  V30 2202 O 212.373 2.22659 -0.513344 0
M  V30 2203 C 212.583 0.244811 -3.4814 0
M  V30 2204 C 213.931 0.46698 -4.22024 0
M  V30 2205 O 214.955 0.324419 -3.5472 0
M  V30 2206 O 213.814 0.74747 -5.41364 0
M  V30 2207 H 210.908 0.148223 -0.813609 0
M  V30 2208 H 213.454 -0.458848 -1.63379 0
M  V30 2209 H 212.226 -0.734378 -3.84347 0
M  V30 2210 H 211.849 0.980611 -3.85318 0
M  V30 2211 N 212.846 1.57033 -0.133567 0
M  V30 2212 C 213.778 2.13176 0.841944 0
M  V30 2213 C 214.791 1.07794 1.22001 0
M  V30 2214 O 215.98 1.35117 1.16643 0
M  V30 2215 C 213.08 2.62847 2.13926 0
M  V30 2216 C 212.253 3.92486 1.93064 0
M  V30 2217 C 211.312 4.27605 3.0666 0
M  V30 2218 O 210.338 4.96168 2.78937 0
M  V30 2219 N 211.54 3.861 4.33483 0
M  V30 2220 H 214.305 2.97503 0.362192 0
M  V30 2221 H 211.866 1.61821 0.05042 0
M  V30 2222 H 213.858 2.83363 2.88942 0
M  V30 2223 H 212.428 1.83319 2.53205 0
M  V30 2224 H 211.648 3.80732 1.02159 0
M  V30 2225 H 212.936 4.77225 1.76447 0
M  V30 2226 H 212.334 3.30828 4.58878 0
M  V30 2227 H 210.891 4.11694 5.05323 0
M  V30 2228 N 214.325 -0.140222 1.56975 0
M  V30 2229 C 215.571 -0.852949 1.83991 0
M  V30 2230 C 215.904 -1.80512 0.716187 0
M  V30 2231 O 215.179 -1.92479 -0.279681 0
M  V30 2232 C 215.462 -1.6215 3.21527 0
M  V30 2233 C 215.315 -0.690363 4.4447 0
M  V30 2234 C 216.634 -2.58247 3.56366 0
M  V30 2235 H 213.753 -0.308634 0.669264 0
M  V30 2236 H 216.395 -0.117898 1.89634 0
M  V30 2237 H 214.545 -2.24812 3.16847 0
M  V30 2238 H 216.217 -0.0742264 4.6124 0
M  V30 2239 H 214.46 -0.000396433 4.338 0
M  V30 2240 H 215.131 -1.2643 5.37326 0
M  V30 2241 H 217.607 -2.05701 3.61699 0
M  V30 2242 H 216.483 -3.09067 4.53617 0
M  V30 2243 H 216.744 -3.39923 2.82674 0
M  V30 2244 N 215.803 -1.52179 -0.40978 0
M  V30 2245 C 216.733 -1.78435 -1.5061 0
M  V30 2246 C 217.714 -0.635295 -1.57791 0
M  V30 2247 O 218.899 -0.880823 -1.73076 0
M  V30 2248 C 216.029 -1.93444 -2.88439 0
M  V30 2249 C 214.983 -3.09038 -2.96108 0
M  V30 2250 C 214.309 -3.09268 -4.36185 0
M  V30 2251 C 215.609 -4.48508 -2.67652 0
M  V30 2252 H 217.303 -2.70237 -1.28889 0
M  V30 2253 H 214.849 -1.30036 -0.618605 0
M  V30 2254 H 216.802 -2.10394 -3.65119 0
M  V30 2255 H 215.526 -0.983129 -3.11452 0
M  V30 2256 H 214.185 -2.91837 -2.21872 0
M  V30 2257 H 213.833 -2.11861 -4.56206 0
M  V30 2258 H 213.533 -3.86907 -4.42241 0
M  V30 2259 H 215.057 -3.28348 -5.14801 0
M  V30 2260 H 216.471 -4.65918 -3.34056 0
M  V30 2261 H 214.868 -5.28059 -2.85085 0
M  V30 2262 H 215.938 -4.56649 -1.63095 0
M  V30 2263 N 217.281 0.66697 -1.42791 0
M  V30 2264 C 218.527 1.4291 -1.43891 0
M  V30 2265 C 218.86 1.94114 -0.0578972 0
M  V30 2266 O 218.135 1.71414 0.91911 0
M  V30 2267 C 218.418 2.62049 -2.46987 0
M  V30 2268 C 218.271 2.16426 -3.94309 0
M  V30 2269 C 219.59 3.64266 -2.46978 0
M  V30 2270 H 216.709 0.518306 -0.523954 0
M  V30 2271 H 219.351 0.757321 -1.74255 0
M  V30 2272 H 217.501 3.19361 -2.21225 0
M  V30 2273 H 219.173 1.64221 -4.31079 0
M  V30 2274 H 217.416 1.47925 -4.078 0
M  V30 2275 H 218.087 3.02038 -4.62036 0
M  V30 2276 H 220.563 3.16686 -2.69906 0
M  V30 2277 H 219.439 4.45196 -3.21079 0
M  V30 2278 H 219.7 4.15927 -1.49857 0
M  V30 2279 N 218.759 1.29093 0.90403 0
M  V30 2280 C 220.007 1.16583 1.65085 0
M  V30 2281 C 220.328 -0.283933 1.92922 0
M  V30 2282 O 219.598 -1.19509 1.55224 0
M  V30 2283 H 218.178 0.428467 0.611903 0
M  V30 2284 H 220.84 1.61959 1.08422 0
M  V30 2285 H 219.936 1.71266 2.6091 0
M  V30 2286 N 220.237 -1.11381 1.11499 0
M  V30 2287 C 221.462 -1.87475 0.887019 0
M  V30 2288 C 221.887 -1.79639 -0.557796 0
M  V30 2289 O 221.245 -1.15924 -1.39396 0
M  V30 2290 C 221.293 -3.34213 1.35403 0
M  V30 2291 O 220.397 -4.0903 0.526146 0
M  V30 2292 H 219.738 -0.582099 0.319463 0
M  V30 2293 H 222.268 -1.40785 1.48461 0
M  V30 2294 H 222.278 -3.8506 1.34881 0
M  V30 2295 H 220.953 -3.39232 2.40612 0
M  V30 2296 H 219.53 -3.68082 0.597522 0
M  V30 2297 N 221.715 -0.905404 -1.28997 0
M  V30 2298 C 222.945 -0.549049 -1.99171 0
M  V30 2299 C 223.353 0.87203 -1.67906 0
M  V30 2300 O 222.696 1.58796 -0.923561 0
M  V30 2301 C 222.758 -0.668306 -3.53234 0
M  V30 2302 C 222.422 -2.0574 -4.08069 0
M  V30 2303 C 223.419 -3.0292 -4.22534 0
M  V30 2304 C 221.104 -2.36833 -4.42962 0
M  V30 2305 C 223.098 -4.29314 -4.71135 0
M  V30 2306 C 220.785 -3.63467 -4.91258 0
M  V30 2307 C 221.783 -4.59522 -5.053 0
M  V30 2308 O 221.471 -5.83907 -5.52546 0
M  V30 2309 H 221.203 -0.208784 -0.64295 0
M  V30 2310 H 223.757 -1.21836 -1.65363 0
M  V30 2311 H 221.987 0.0580547 -3.86656 0
M  V30 2312 H 223.676 -0.320273 -4.04634 0
M  V30 2313 H 224.442 -2.80216 -3.95859 0
M  V30 2314 H 220.321 -1.62824 -4.31288 0
M  V30 2315 H 223.865 -5.04293 -4.8201 0
M  V30 2316 H 219.762 -3.86 -5.17372 0
M  V30 2317 H 220.53 -5.86578 -5.70849 0
M  V30 2318 N 223.193 1.4272 -0.668489 0
M  V30 2319 C 224.433 2.03497 -0.19194 0
M  V30 2320 C 224.797 1.51684 1.17712 0
M  V30 2321 O 225.998 2.04205 1.74796 0
M  V30 2322 C 224.269 3.56734 -0.218032 0
M  V30 2323 S 225.828 4.38395 0.188438 0
M  V30 2324 H 222.646 0.706542 -0.0794959 0
M  V30 2325 H 225.248 1.74563 -0.880235 0
M  V30 2326 H 223.952 3.91943 -1.2169 0
M  V30 2327 H 223.483 3.90333 0.490303 0
M  V30 2328 H 225.498 4.75345 1.42345 0
M  V30 2329 N 224.671 0.411399 1.52136 0
M  V30 2330 C 225.917 -0.163888 2.02137 0
M  V30 2331 C 226.25 -1.44597 1.29636 0
M  V30 2332 O 225.525 -1.90272 0.403353 0
M  V30 2333 C 225.808 -0.40927 3.57767 0
M  V30 2334 C 225.661 0.889643 4.40914 0
M  V30 2335 C 226.98 -1.19042 4.23694 0
M  V30 2336 H 224.099 -0.0580896 0.734707 0
M  V30 2337 H 226.741 0.54531 1.82007 0
M  V30 2338 H 224.891 -1.0134 3.7505 0
M  V30 2339 H 226.563 1.52575 4.35337 0
M  V30 2340 H 224.806 1.50011 4.07037 0
M  V30 2341 H 225.477 0.672314 5.4789 0
M  V30 2342 H 227.953 -0.678942 4.10524 0
M  V30 2343 H 226.829 -1.33086 5.32522 0
M  V30 2344 H 227.09 -2.21166 3.82803 0
M  V30 2345 N 226.149 -1.5696 0.141893 0
M  V30 2346 C 227.396 -1.9596 -0.510492 0
M  V30 2347 C 227.724 -1.02648 -1.65208 0
M  V30 2348 O 226.979 -0.0546947 -1.95624 0
M  V30 2349 C 227.278 -3.41242 -1.06249 0
M  V30 2350 C 226.944 -4.50882 -0.0398791 0
M  V30 2351 C 225.606 -4.80595 0.241247 0
M  V30 2352 C 227.958 -5.17058 0.65578 0
M  V30 2353 C 225.286 -5.73792 1.22393 0
M  V30 2354 C 227.638 -6.11313 1.62724 0
M  V30 2355 C 226.302 -6.39407 1.91612 0
M  V30 2356 H 225.572 -0.717068 -0.186802 0
M  V30 2357 H 228.219 -1.90142 0.227643 0
M  V30 2358 H 226.524 -3.43866 -1.87785 0
M  V30 2359 H 228.221 -3.68742 -1.57576 0
M  V30 2360 H 224.811 -4.27754 -0.269174 0
M  V30 2361 H 228.995 -4.94239 0.451779 0
M  V30 2362 H 224.251 -5.93853 1.45424 0
M  V30 2363 H 228.425 -6.61668 2.17183 0
M  V30 2364 H 226.052 -7.11427 2.6791 0
M  V30 2365 N 227.627 0.131896 -1.57047 0
M  V30 2366 C 228.852 0.860418 -1.8871 0
M  V30 2367 C 229.277 1.73251 -0.73251 0
M  V30 2368 O 228.635 1.785 0.317429 0
M  V30 2369 C 228.683 1.68047 -3.19049 0
M  V30 2370 O 227.787 2.7862 -3.04047 0
M  V30 2371 H 227.128 0.238743 -0.619595 0
M  V30 2372 H 229.658 0.118169 -2.04258 0
M  V30 2373 H 229.668 2.07238 -3.51449 0
M  V30 2374 H 228.343 1.04018 -4.02682 0
M  V30 2375 H 226.92 2.42726 -2.83088 0
M  V30 2376 N 229.106 1.52395 0.401703 0
M  V30 2377 C 230.054 1.7689 1.51039 0
M  V30 2378 C 231.048 0.636298 1.56996 0
M  V30 2379 O 232.254 0.818507 1.60314 0
M  V30 2380 H 228.629 0.559502 0.502456 0
M  V30 2381 H 230.6 2.69757 1.27568 0
M  V30 2382 C 229.349 1.94331 2.88324 0
M  V30 2383 H 228.672 2.80905 2.84486 0
M  V30 2384 H 230.112 2.15466 3.65172 0
M  V30 2385 C 228.571 0.712396 3.29282 0
M  V30 2386 O 229.101 -0.116218 4.01532 0
M  V30 2387 N 227.307 0.546154 2.85422 0
M  V30 2388 H 226.854 1.22156 2.26794 0
M  V30 2389 H 226.812 -0.276113 3.13185 0
M  V30 2390 N 230.584 -0.659388 1.43143 0
M  V30 2391 C 231.516 -1.7849 1.43784 0
M  V30 2392 C 232.529 -1.5932 0.334787 0
M  V30 2393 O 233.718 -1.68155 0.598842 0
M  V30 2394 C 230.818 -3.15828 1.22906 0
M  V30 2395 C 229.991 -3.61711 2.45934 0
M  V30 2396 C 229.05 -4.77831 2.20371 0
M  V30 2397 O 228.076 -4.87586 2.93681 0
M  V30 2398 N 229.278 -5.67611 1.21647 0
M  V30 2399 H 232.043 -1.7842 2.40803 0
M  V30 2400 H 229.604 -0.84302 1.3822 0
M  V30 2401 H 231.596 -3.91189 1.03697 0
M  V30 2402 H 230.166 -3.10707 0.343542 0
M  V30 2403 H 229.386 -2.76861 2.80609 0
M  V30 2404 H 230.674 -3.89112 3.27825 0
M  V30 2405 H 230.072 -5.62397 0.610449 0
M  V30 2406 H 228.629 -6.42719 1.08423 0
M  V30 2407 N 232.062 -1.29571 -0.897171 0
M  V30 2408 C 233.31 -1.17456 -1.64464 0
M  V30 2409 C 233.631 0.273698 -1.9307 0
M  V30 2410 O 232.901 1.18684 -1.55855 0
M  V30 2411 H 231.481 -0.431706 -0.609622 0
M  V30 2412 H 234.143 -1.62531 -1.07562 0
M  V30 2413 H 233.239 -1.72648 -2.59998 0
M  V30 2414 N 233.54 1.10788 -1.12088 0
M  V30 2415 C 234.788 1.8231 -0.872205 0
M  V30 2416 C 235.109 1.85419 0.603709 0
M  V30 2417 O 234.379 1.32963 1.43867 0
M  V30 2418 H 232.959 0.675137 -0.319686 0
M  V30 2419 H 235.621 1.34068 -1.41463 0
M  V30 2420 H 234.717 2.85955 -1.25045 0
M  V30 2421 N 235.018 0.912232 1.28515 0
M  V30 2422 C 235.948 0.416403 2.29757 0
M  V30 2423 C 236.929 -0.515194 1.6211 0
M  V30 2424 O 238.114 -0.423253 1.89532 0
M  V30 2425 C 235.244 -0.34572 3.45575 0
M  V30 2426 C 234.198 0.496599 4.25109 0
M  V30 2427 C 233.524 -0.393771 5.33248 0
M  V30 2428 C 234.824 1.75307 4.92001 0
M  V30 2429 H 236.518 1.26249 2.7148 0
M  V30 2430 H 234.064 0.608515 1.30511 0
M  V30 2431 H 236.017 -0.703422 4.15488 0
M  V30 2432 H 234.741 -1.2257 3.02728 0
M  V30 2433 H 233.4 0.8368 3.56922 0
M  V30 2434 H 233.048 -1.27225 4.86644 0
M  V30 2435 H 232.748 0.166209 5.87365 0
M  V30 2436 H 234.272 -0.747389 6.06009 0
M  V30 2437 H 235.686 1.46437 5.54283 0
M  V30 2438 H 234.083 2.25534 5.56106 0
M  V30 2439 H 235.153 2.48176 4.16577 0
M  V30 2440 N 236.496 -1.42363 0.676048 0
M  V30 2441 C 237.742 -2.0182 0.199125 0
M  V30 2442 C 238.075 -1.53339 -1.19168 0
M  V30 2443 O 237.35 -0.736124 -1.80032 0
M  V30 2444 C 237.633 -3.59331 0.235144 0
M  V30 2445 C 237.486 -4.17989 1.66149 0
M  V30 2446 C 238.805 -4.3813 -0.41595 0
M  V30 2447 H 235.924 -0.733293 0.0738311 0
M  V30 2448 H 238.566 -1.69368 0.86107 0
M  V30 2449 H 236.716 -3.87109 -0.328487 0
M  V30 2450 H 238.388 -4.0116 2.27747 0
M  V30 2451 H 236.631 -3.7377 2.20178 0
M  V30 2452 H 237.302 -5.27126 1.63837 0
M  V30 2453 H 239.778 -4.16051 0.0638529 0
M  V30 2454 H 238.654 -5.47717 -0.360115 0
M  V30 2455 H 238.915 -4.16101 -1.49373 0
M  V30 2456 N 237.974 -0.419461 -1.51915 0
M  V30 2457 C 238.924 0.418496 -2.24126 0
M  V30 2458 C 239.908 1.00495 -1.25656 0
M  V30 2459 O 241.1 0.926058 -1.50842 0
M  V30 2460 C 238.229 1.52899 -3.07371 0
M  V30 2461 C 237.315 0.952797 -4.13258 0
M  V30 2462 N 237.706 0.104175 -5.05693 0
M  V30 2463 C 236.004 1.22224 -4.28926 0
M  V30 2464 C 236.705 -0.21752 -5.81293 0
M  V30 2465 N 235.681 0.394293 -5.42168 0
M  V30 2466 H 239.483 -0.236048 -2.92951 0
M  V30 2467 H 236.997 -0.230481 -1.60756 0
M  V30 2468 H 238.994 2.14199 -3.57665 0
M  V30 2469 H 237.654 2.18605 -2.40088 0
M  V30 2470 H 238.665 -0.260924 -5.17242 0
M  V30 2471 H 235.342 1.87812 -3.72871 0
M  V30 2472 H 236.732 -0.906992 -6.6575 0
M  V30 2473 N 239.452 1.56882 -0.150215 0
M  V30 2474 C 240.863 1.82995 0.370076 0
M  V30 2475 C 241.214 1.06907 1.64515 0
M  V30 2476 O 240.339 0.315369 2.1409 0
M  V30 2477 C 240.934 3.31942 0.678208 0
M  V30 2478 C 239.493 3.58625 1.14301 0
M  V30 2479 C 238.64 2.76792 0.167778 0
M  V30 2480 H 241.591 1.54209 -0.374858 0
M  V30 2481 H 241.612 3.48272 1.53254 0
M  V30 2482 H 241.124 3.87294 -0.249991 0
M  V30 2483 H 239.225 3.08664 2.08704 0
M  V30 2484 H 239.338 4.67073 1.06676 0
M  V30 2485 H 237.702 2.45972 0.661037 0
M  V30 2486 H 238.485 3.34916 -0.754069 0
M  V30 2487 N 240.93 -0.123565 1.57115 0
M  V30 2488 C 241.877 -1.15177 2.00007 0
M  V30 2489 C 242.847 -1.41403 0.871454 0
M  V30 2490 O 244.032 -1.53346 1.13533 0
M  V30 2491 C 241.172 -2.47436 2.40561 0
M  V30 2492 C 240.285 -2.28184 3.66819 0
M  V30 2493 C 239.42 -3.53641 3.96373 0
M  V30 2494 C 238.459 -3.29528 5.15827 0
M  V30 2495 N 237.596 -4.47175 5.41275 0
M  V30 2496 H 242.436 -0.779008 2.87638 0
M  V30 2497 H 239.973 -0.373166 1.42288 0
M  V30 2498 H 241.931 -3.24584 2.62109 0
M  V30 2499 H 240.561 -2.82614 1.55978 0
M  V30 2500 H 239.613 -1.41976 3.52912 0
M  V30 2501 H 240.925 -2.0634 4.5412 0
M  V30 2502 H 240.079 -4.39209 4.18545 0
M  V30 2503 H 238.818 -3.78512 3.07538 0
M  V30 2504 H 237.823 -2.42349 4.93505 0
M  V30 2505 H 239.048 -3.06031 6.06236 0
M  V30 2506 H 236.994 -4.72175 4.55397 0
M  V30 2507 H 236.911 -4.28419 6.22891 0
M  V30 2508 H 238.179 -5.3389 5.67963 0
M  V30 2509 N 242.408 -1.52605 -0.393616 0
M  V30 2510 C 243.636 -1.71294 -1.16043 0
M  V30 2511 C 244.051 -0.429259 -1.83855 0
M  V30 2512 O 243.408 0.595921 -1.72496 0
M  V30 2513 C 243.459 -2.8593 -2.21193 0
M  V30 2514 O 243.18 -4.09329 -1.56146 0
M  V30 2515 C 244.681 -3.16259 -3.10636 0
M  V30 2516 H 241.901 -0.573641 -0.348104 0
M  V30 2517 H 244.445 -1.99234 -0.461092 0
M  V30 2518 H 242.6 -2.60465 -2.86769 0
M  V30 2519 H 243.014 -4.73323 -2.25978 0
M  V30 2520 H 244.488 -3.99946 -3.80456 0
M  V30 2521 H 244.965 -2.3045 -3.73884 0
M  V30 2522 H 245.571 -3.43547 -2.50711 0
M  V30 2523 N 243.887 0.651787 -1.4349 0
M  V30 2524 C 245.112 1.44434 -1.48841 0
M  V30 2525 C 245.537 1.8779 -0.107955 0
M  V30 2526 O 244.895 1.57464 0.898602 0
M  V30 2527 C 244.943 2.65458 -2.44059 0
M  V30 2528 O 244.047 3.64566 -1.92784 0
M  V30 2529 H 243.388 0.433005 -0.503391 0
M  V30 2530 H 245.918 0.797451 -1.88419 0
M  V30 2531 H 245.928 3.13255 -2.6141 0
M  V30 2532 H 244.603 2.33244 -3.4434 0
M  V30 2533 H 243.18 3.23716 -1.851 0
M  V30 2534 N 245.365 1.30045 0.890287 0
M  V30 2535 C 246.614 1.17929 1.63633 0
M  V30 2536 C 246.927 -0.266204 1.9378 0
M  V30 2537 O 248.133 -0.508804 2.6669 0
M  V30 2538 C 246.589 2.06317 2.94892 0
M  V30 2539 C 246.197 3.55745 2.72305 0
M  V30 2540 C 247.941 2.0295 3.72843 0
M  V30 2541 C 245.848 4.36205 3.99348 0
M  V30 2542 H 244.778 0.437782 0.613892 0
M  V30 2543 H 247.429 1.54754 0.986075 0
M  V30 2544 H 245.811 1.6237 3.61182 0
M  V30 2545 H 246.985 4.07805 2.1455 0
M  V30 2546 H 245.3 3.6088 2.07737 0
M  V30 2547 H 247.897 2.60319 4.67053 0
M  V30 2548 H 248.24 1.0117 4.0382 0
M  V30 2549 H 248.773 2.4499 3.13408 0
M  V30 2550 H 245.512 5.38659 3.73533 0
M  V30 2551 H 245.032 3.8891 4.56628 0
M  V30 2552 H 246.711 4.47362 4.67415 0
M  V30 2553 N 246.843 -1.10192 1.12674 0
M  V30 2554 C 247.753 -2.20172 0.810026 0
M  V30 2555 C 248.769 -1.72821 -0.202188 0
M  V30 2556 O 249.945 -2.01369 -0.0351691 0
M  V30 2557 C 247.01 -3.45631 0.272007 0
M  V30 2558 C 246.071 -4.07704 1.34447 0
M  V30 2559 C 245.304 -5.27175 0.832029 0
M  V30 2560 O 245.527 -5.69425 -0.333284 0
M  V30 2561 O 244.461 -5.80168 1.60277 0
M  V30 2562 H 248.287 -2.49701 1.72867 0
M  V30 2563 H 245.872 -1.18977 0.903597 0
M  V30 2564 H 247.754 -4.21394 -0.0230219 0
M  V30 2565 H 246.429 -3.17723 -0.619164 0
M  V30 2566 H 245.336 -3.33614 1.6927 0
M  V30 2567 H 246.669 -4.3982 2.2095 0
M  V30 2568 N 248.321 -0.919034 -1.28029 0
M  V30 2569 C 249.598 -0.473668 -1.89778 0
M  V30 2570 C 249.978 1.04783 -1.83259 0
M  V30 2571 O 249.326 1.8982 -1.27202 0
M  V30 2572 C 249.536 -1.00998 -3.34066 0
M  V30 2573 C 250.884 -1.06525 -4.1102 0
M  V30 2574 O 251.908 -0.958996 -3.43048 0
M  V30 2575 O 250.767 -1.22776 -5.3253 0
M  V30 2576 H 247.861 -0.15098 -0.813101 0
M  V30 2577 H 250.407 -1.01016 -1.36359 0
M  V30 2578 H 249.179 -2.05392 -3.33061 0
M  V30 2579 H 248.802 -0.454626 -3.94992 0
M  V30 2580 N 249.799 1.42003 -0.683588 0
M  V30 2581 C 250.731 2.29183 0.0283068 0
M  V30 2582 C 251.744 1.4415 0.756611 0
M  V30 2583 O 252.933 1.67779 0.609306 0
M  V30 2584 C 250.033 3.21765 1.06398 0
M  V30 2585 C 249.206 4.35496 0.407723 0
M  V30 2586 C 248.265 5.08737 1.34437 0
M  V30 2587 O 247.291 5.62948 0.841318 0
M  V30 2588 N 248.493 5.15075 2.67728 0
M  V30 2589 H 251.258 2.9092 -0.720105 0
M  V30 2590 H 248.819 1.53025 -0.528682 0
M  V30 2591 H 250.811 3.6763 1.69204 0
M  V30 2592 H 249.381 2.61418 1.71404 0
M  V30 2593 H 248.601 3.92165 -0.400012 0
M  V30 2594 H 249.889 5.08776 -0.0490956 0
M  V30 2595 H 249.287 4.72457 3.11129 0
M  V30 2596 H 247.844 5.64556 3.2576 0
M  V30 2597 N 251.277 0.427512 1.51691 0
M  V30 2598 C 252.554 -0.201684 1.94557 0
M  V30 2599 C 252.934 -1.60981 1.36559 0
M  V30 2600 O 252.282 -2.21814 0.548702 0
M  V30 2601 C 252.492 -0.189394 3.48486 0
M  V30 2602 C 253.84 -0.39978 4.22714 0
M  V30 2603 O 254.864 -0.267945 3.55191 0
M  V30 2604 O 253.723 -0.661249 5.42485 0
M  V30 2605 H 250.817 -0.135261 0.815864 0
M  V30 2606 H 253.363 0.484782 1.62628 0
M  V30 2607 H 252.135 0.795431 3.8313 0
M  V30 2608 H 251.758 -0.919187 3.86829 0
M  V30 2609 N 252.755 -1.56801 0.158532 0
M  V30 2610 C 253.665 -2.20916 -0.789518 0
M  V30 2611 C 254.681 -1.1969 -1.26294 0
M  V30 2612 O 255.857 -1.52308 -1.31773 0
M  V30 2613 C 252.922 -2.82727 -2.00665 0
M  V30 2614 C 251.983 -3.99114 -1.58134 0
M  V30 2615 C 251.216 -4.57968 -2.74045 0
M  V30 2616 O 251.439 -4.15704 -3.90572 0
M  V30 2617 O 250.373 -5.48047 -2.48855 0
M  V30 2618 H 254.199 -3.02464 -0.273681 0
M  V30 2619 H 251.784 -1.4924 -0.0690548 0
M  V30 2620 H 253.666 -3.21968 -2.71872 0
M  V30 2621 H 252.341 -2.04184 -2.51179 0
M  V30 2622 H 251.248 -3.64567 -0.839155 0
M  V30 2623 H 252.581 -4.79212 -1.12325 0
M  V30 2624 N 254.233 0.115231 -1.57178 0
M  V30 2625 C 255.163 1.1423 -2.03651 0
M  V30 2626 C 256.144 1.42967 -0.921655 0
M  V30 2627 O 257.329 1.53343 -1.19162 0
M  V30 2628 C 254.459 2.4675 -2.44401 0
M  V30 2629 C 253.413 2.32467 -3.59365 0
M  V30 2630 C 252.739 3.69984 -3.86026 0
M  V30 2631 C 254.039 1.78203 -4.90959 0
M  V30 2632 H 255.733 0.755749 -2.89705 0
M  V30 2633 H 253.279 0.362093 -1.39373 0
M  V30 2634 H 255.232 3.18854 -2.75517 0
M  V30 2635 H 253.956 2.87302 -1.55322 0
M  V30 2636 H 252.615 1.62811 -3.28463 0
M  V30 2637 H 252.263 4.08028 -2.94147 0
M  V30 2638 H 251.963 3.61279 -4.63412 0
M  V30 2639 H 253.487 4.43587 -4.19599 0
M  V30 2640 H 254.901 2.40128 -5.20587 0
M  V30 2641 H 253.298 1.8031 -5.72371 0
M  V30 2642 H 254.368 0.739876 -4.79222 0
M  V30 2643 N 255.711 1.52812 0.385517 0
M  V30 2644 C 256.936 1.72207 1.15583 0
M  V30 2645 C 257.361 0.441034 1.82857 0
M  V30 2646 O 256.719 -0.603465 1.70962 0
M  V30 2647 C 256.767 2.87476 2.17692 0
M  V30 2648 O 255.871 2.54693 3.24354 0
M  V30 2649 H 255.212 0.572526 0.336319 0
M  V30 2650 H 257.742 1.99618 0.448744 0
M  V30 2651 H 257.752 3.13072 2.6163 0
M  V30 2652 H 256.427 3.80408 1.68115 0
M  V30 2653 H 255.004 2.3985 2.85529 0
M  V30 2654 N 257.189 -0.644168 1.43834 0
M  V30 2655 C 258.414 -1.43642 1.49605 0
M  V30 2656 C 258.839 -1.8773 0.117913 0
M  V30 2657 O 258.197 -1.57938 -0.890239 0
M  V30 2658 C 258.245 -2.6416 2.45463 0
M  V30 2659 O 257.349 -3.63538 1.94714 0
M  V30 2660 H 256.69 -0.430329 0.50568 0
M  V30 2661 H 259.22 -0.787448 1.8884 0
M  V30 2662 H 259.23 -3.11864 2.63068 0
M  V30 2663 H 257.905 -2.31414 3.45572 0
M  V30 2664 H 256.482 -3.2273 1.86814 0
M  V30 2665 N 258.668 -1.30515 -0.883378 0
M  V30 2666 C 259.598 -1.19607 -2.00541 0
M  V30 2667 C 260.579 -0.086346 -1.69881 0
M  V30 2668 O 261.764 -0.268654 -1.92333 0
M  V30 2669 C 258.894 -0.888758 -3.35736 0
M  V30 2670 C 257.848 -1.95659 -3.8066 0
M  V30 2671 C 257.174 -1.50224 -5.13164 0
M  V30 2672 C 258.474 -3.36788 -3.99213 0
M  V30 2673 H 260.168 -2.13476 -2.09925 0
M  V30 2674 H 257.714 -1.02775 -1.00863 0
M  V30 2675 H 259.667 -0.799094 -4.13754 0
M  V30 2676 H 258.391 0.0856125 -3.26488 0
M  V30 2677 H 257.05 -2.03591 -3.04871 0
M  V30 2678 H 256.698 -0.516092 -5.00345 0
M  V30 2679 H 256.398 -2.2165 -5.44192 0
M  V30 2680 H 257.922 -1.42639 -5.93706 0
M  V30 2681 H 259.336 -3.31605 -4.67665 0
M  V30 2682 H 257.733 -4.06314 -4.41621 0
M  V30 2683 H 258.803 -3.78561 -3.03017 0
M  V30 2684 N 260.146 1.09593 -1.13257 0
M  V30 2685 C 261.076 2.18214 -0.830946 0
M  V30 2686 C 262.057 1.68812 0.208966 0
M  V30 2687 O 263.242 1.9408 0.0682666 0
M  V30 2688 C 260.372 3.46051 -0.294296 0
M  V30 2689 C 259.326 4.08778 -1.26826 0
M  V30 2690 C 258.652 5.31419 -0.591449 0
M  V30 2691 C 259.952 4.51476 -2.62615 0
M  V30 2692 H 261.646 2.43703 -1.73923 0
M  V30 2693 H 259.192 1.17128 -0.837675 0
M  V30 2694 H 261.145 4.2134 -0.0709606 0
M  V30 2695 H 259.869 3.20079 0.649366 0
M  V30 2696 H 258.528 3.35505 -1.47756 0
M  V30 2697 H 258.176 5.01727 0.357633 0
M  V30 2698 H 257.876 5.74341 -1.24123 0
M  V30 2699 H 259.4 6.09433 -0.377355 0
M  V30 2700 H 260.814 5.17999 -2.45663 0
M  V30 2701 H 259.211 5.05277 -3.23752 0
M  V30 2702 H 260.281 3.63962 -3.20406 0
M  V30 2703 N 261.624 0.925811 1.2754 0
M  V30 2704 C 262.556 0.380753 2.26015 0
M  V30 2705 C 263.569 -0.487485 1.5533 0
M  V30 2706 O 264.758 -0.300413 1.75954 0
M  V30 2707 C 261.858 -0.473259 3.35579 0
M  V30 2708 C 261.031 0.375249 4.35787 0
M  V30 2709 C 260.09 -0.415809 5.24555 0
M  V30 2710 O 259.116 0.175834 5.68928 0
M  V30 2711 N 260.318 -1.71607 5.54555 0
M  V30 2712 H 263.083 1.22725 2.73421 0
M  V30 2713 H 260.644 0.793037 1.41147 0
M  V30 2714 H 262.636 -1.00949 3.91907 0
M  V30 2715 H 261.206 -1.2205 2.87789 0
M  V30 2716 H 260.426 1.09279 3.7875 0
M  V30 2717 H 261.714 0.955399 4.99749 0
M  V30 2718 H 261.112 -2.2191 5.20358 0
M  V30 2719 H 259.669 -2.19887 6.1359 0
M  V30 2720 N 263.102 -1.41638 0.69111 0
M  V30 2721 C 264.348 -2.01598 0.220519 0
M  V30 2722 C 264.681 -1.54594 -1.17535 0
M  V30 2723 O 263.956 -0.755177 -1.79241 0
M  V30 2724 C 264.239 -3.59062 0.273243 0
M  V30 2725 C 264.092 -4.16203 1.70573 0
M  V30 2726 C 265.411 -4.38546 -0.369457 0
M  V30 2727 H 262.53 -0.732468 0.0816045 0
M  V30 2728 H 265.172 -1.68445 0.878986 0
M  V30 2729 H 263.322 -3.87435 -0.287411 0
M  V30 2730 H 264.994 -3.98722 2.31989 0
M  V30 2731 H 263.237 -3.71414 2.2413 0
M  V30 2732 H 263.908 -5.25358 1.69419 0
M  V30 2733 H 266.384 -4.1596 0.107977 0
M  V30 2734 H 265.26 -5.48069 -0.302002 0
M  V30 2735 H 265.521 -4.17662 -1.44951 0
M  V30 2736 N 264.58 -0.43555 -1.51462 0
M  V30 2737 C 265.991 0.0279871 -1.86679 0
M  V30 2738 C 266.342 1.42104 -1.35281 0
M  V30 2739 O 265.467 2.04667 -0.702878 0
M  V30 2740 C 266.062 0.0575626 -3.38751 0
M  V30 2741 C 264.621 0.465507 -3.7351 0
M  V30 2742 C 263.768 -0.342996 -2.75171 0
M  V30 2743 H 266.719 -0.651473 -1.44712 0
M  V30 2744 H 266.74 0.867421 -3.70481 0
M  V30 2745 H 266.252 -0.956448 -3.7613 0
M  V30 2746 H 264.353 1.48519 -3.41721 0
M  V30 2747 H 264.466 0.191546 -4.78717 0
M  V30 2748 H 262.83 0.198442 -2.53926 0
M  V30 2749 H 263.613 -1.35585 -3.15391 0
M  V30 2750 N 266.058 1.56714 -0.166846 0
M  V30 2751 C 266.988 2.20754 0.760913 0
M  V30 2752 C 267.969 1.16178 1.24244 0
M  V30 2753 O 269.154 1.44592 1.29641 0
M  V30 2754 C 266.284 2.84478 1.99223 0
M  V30 2755 C 265.238 3.95053 1.64672 0
M  V30 2756 C 264.564 4.45805 2.95232 0
M  V30 2757 C 265.864 5.14865 0.878155 0
M  V30 2758 H 267.558 2.98537 0.22713 0
M  V30 2759 H 265.104 1.43596 0.107805 0
M  V30 2760 H 267.057 3.27951 2.64624 0
M  V30 2761 H 265.781 2.04056 2.55007 0
M  V30 2762 H 264.44 3.52228 1.01641 0
M  V30 2763 H 264.088 3.62181 3.49047 0
M  V30 2764 H 263.788 5.204 2.7287 0
M  V30 2765 H 265.312 4.91962 3.6167 0
M  V30 2766 H 266.726 5.55059 1.43466 0
M  V30 2767 H 265.123 5.95348 0.753738 0
M  V30 2768 H 266.193 4.84735 -0.126377 0
M  V30 2769 N 267.536 -0.106894 1.57237 0
M  V30 2770 C 268.782 -0.81373 1.85759 0
M  V30 2771 C 269.115 -1.78952 0.754315 0
M  V30 2772 O 268.39 -1.93029 -0.23879 0
M  V30 2773 C 268.673 -1.55293 3.24894 0
M  V30 2774 C 268.526 -0.595929 4.45835 0
M  V30 2775 C 269.845 -2.5063 3.61763 0
M  V30 2776 H 266.964 -0.294369 0.67566 0
M  V30 2777 H 269.606 -0.0776472 1.89841 0
M  V30 2778 H 267.756 -2.1804 3.21544 0
M  V30 2779 H 269.428 0.0236262 4.61294 0
M  V30 2780 H 267.671 0.0916191 4.33703 0
M  V30 2781 H 268.342 -1.15004 5.39887 0
M  V30 2782 H 270.818 -1.97982 3.65981 0
M  V30 2783 H 269.694 -2.99376 4.60071 0
M  V30 2784 H 269.955 -3.3385 2.89821 0
M  V30 2785 N 269.014 -1.53014 -0.377408 0
M  V30 2786 C 269.977 -1.77957 -1.44444 0
M  V30 2787 C 270.977 -0.649763 -1.47087 0
M  V30 2788 O 272.167 -0.917897 -1.48055 0
M  V30 2789 C 269.299 -1.89089 -2.83651 0
M  V30 2790 H 270.492 -2.73243 -1.23606 0
M  V30 2791 H 268.045 -1.43912 -0.609844 0
M  V30 2792 H 268.78 -0.958293 -3.09818 0
M  V30 2793 H 268.565 -2.71254 -2.83132 0
M  V30 2794 H 270.055 -2.1002 -3.60945 0
M  V30 2795 N 270.492 0.636531 -1.44174 0
M  V30 2796 C 271.74 1.39343 -1.46383 0
M  V30 2797 C 272.061 1.94766 -0.0955715 0
M  V30 2798 O 271.331 1.75452 0.871395 0
M  V30 2799 H 269.911 0.517199 -0.538994 0
M  V30 2800 H 272.573 0.74957 -1.7991 0
M  V30 2801 H 271.669 2.22746 -2.18611 0
M  V30 2802 N 271.97 1.30982 0.876444 0
M  V30 2803 C 273.198 1.23242 1.6619 0
M  V30 2804 C 273.613 -0.203345 1.87702 0
M  V30 2805 O 272.97 -1.13317 1.43057 0
M  V30 2806 C 273.021 1.96623 3.03351 0
M  V30 2807 O 272.742 3.34594 2.82804 0
M  V30 2808 C 274.243 1.95644 3.97792 0
M  V30 2809 H 271.463 0.426126 0.518322 0
M  V30 2810 H 274.007 1.7275 1.09442 0
M  V30 2811 H 272.162 1.50892 3.56806 0
M  V30 2812 H 272.576 3.71873 3.69879 0
M  V30 2813 H 274.05 2.51511 4.91372 0
M  V30 2814 H 274.527 0.937395 4.2908 0
M  V30 2815 H 275.133 2.41225 3.50272 0
M  V30 2816 N 273.449 -1.08991 1.13837 0
M  V30 2817 C 274.695 -1.81526 0.90422 0
M  V30 2818 C 275.028 -1.85706 -0.568066 0
M  V30 2819 O 274.303 -1.32855 -1.42056 0
M  V30 2820 C 274.586 -3.27447 1.49835 0
M  V30 2821 C 274.439 -3.31512 3.04006 0
M  V30 2822 C 275.758 -4.24256 1.17025 0
M  V30 2823 H 272.877 -0.659029 0.329923 0
M  V30 2824 H 275.519 -1.27644 1.40737 0
M  V30 2825 H 273.669 -3.73462 1.07044 0
M  V30 2826 H 275.341 -2.93867 3.55584 0
M  V30 2827 H 273.584 -2.70963 3.38765 0
M  V30 2828 H 274.255 -4.34329 3.40679 0
M  V30 2829 H 276.731 -3.86549 1.54009 0
M  V30 2830 H 275.607 -5.24684 1.61237 0
M  V30 2831 H 275.868 -4.42019 0.0846274 0
M  V30 2832 N 274.927 -0.932562 -1.27047 0
M  V30 2833 C 275.875 -0.42603 -2.28665 0
M  V30 2834 C 276.869 0.49219 -1.62092 0
M  V30 2835 O 278.075 0.371355 -1.76128 0
M  V30 2836 H 274.45 -0.119213 -0.742491 0
M  V30 2837 H 276.421 -1.29579 -2.68797 0
M  V30 2838 C 275.17 0.301426 -3.46391 0
M  V30 2839 H 274.493 -0.39595 -3.97834 0
M  V30 2840 H 275.933 0.6202 -4.1944 0
M  V30 2841 C 274.392 1.51616 -3.00856 0
M  V30 2842 O 274.922 2.61476 -3.04948 0
M  V30 2843 N 273.128 1.36969 -2.56296 0
M  V30 2844 H 272.675 0.475873 -2.53166 0
M  V30 2845 H 272.633 2.18368 -2.26192 0
M  V30 2846 N 276.405 1.4127 -0.698611 0
M  V30 2847 C 277.821 1.55241 -0.370462 0
M  V30 2848 C 278.021 1.67351 1.12231 0
M  V30 2849 O 277.077 1.65363 1.90818 0
M  V30 2850 C 278.39 2.78997 -1.12165 0
M  V30 2851 C 279.938 2.92797 -1.1063 0
M  V30 2852 C 280.413 4.19445 -1.8393 0
M  V30 2853 N 281.904 4.26409 -1.80914 0
M  V30 2854 C 282.639 5.23271 -2.34467 0
M  V30 2855 N 282.135 6.26145 -2.96504 0
M  V30 2856 N 283.928 5.15232 -2.24706 0
M  V30 2857 H 276.079 1.31654 -1.66676 0
M  V30 2858 H 278.342 0.635393 -0.703548 0
M  V30 2859 H 278.048 2.76268 -2.17644 0
M  V30 2860 H 277.922 3.70606 -0.702209 0
M  V30 2861 H 280.309 2.95039 -0.0597713 0
M  V30 2862 H 280.39 2.02353 -1.56483 0
M  V30 2863 H 280.034 4.17964 -2.88563 0
M  V30 2864 H 279.964 5.08866 -1.35509 0
M  V30 2865 H 282.455 3.527 -1.35687 0
M  V30 2866 H 282.768 6.96451 -3.34927 0
M  V30 2867 H 281.113 6.26638 -3.00583 0
M  V30 2868 H 284.304 4.33789 -1.7591 0
M  V30 2869 H 284.477 5.90552 -2.66745 0
M  V30 2870 N 277.883 0.443576 1.51229 0
M  V30 2871 C 279.131 -0.120557 2.0174 0
M  V30 2872 C 279.452 -1.42665 1.32935 0
M  V30 2873 O 278.722 -1.9028 0.465866 0
M  V30 2874 H 277.302 -0.0475426 0.745486 0
M  V30 2875 H 279.964 0.587711 1.85828 0
M  V30 2876 H 279.06 -0.291972 3.10731 0
M  V30 2877 N 279.361 -1.56624 0.175154 0
M  V30 2878 C 280.586 -2.01813 -0.478137 0
M  V30 2879 C 281.011 -1.05457 -1.55757 0
M  V30 2880 O 280.369 -0.0347439 -1.81267 0
M  V30 2881 C 280.417 -3.45581 -1.02987 0
M  V30 2882 O 279.521 -3.52305 -2.14371 0
M  V30 2883 H 278.862 -0.65413 -0.114059 0
M  V30 2884 H 281.392 -2.02673 0.280173 0
M  V30 2885 H 281.402 -3.84965 -1.35151 0
M  V30 2886 H 280.077 -4.1521 -0.239556 0
M  V30 2887 H 278.654 -3.24783 -1.83222 0
M  V30 2888 N 280.839 0.0985539 -1.57292 0
M  V30 2889 C 281.749 1.13824 -2.05137 0
M  V30 2890 C 282.765 1.44076 -0.975604 0
M  V30 2891 O 283.941 1.54786 -1.28853 0
M  V30 2892 C 281.006 2.43969 -2.46333 0
M  V30 2893 C 280.067 2.2093 -3.68087 0
M  V30 2894 C 279.3 3.44869 -4.0731 0
M  V30 2895 O 279.523 4.52972 -3.46659 0
M  V30 2896 O 278.457 3.34661 -5.00285 0
M  V30 2897 H 282.283 0.761881 -2.93988 0
M  V30 2898 H 279.868 0.310818 -1.46131 0
M  V30 2899 H 281.75 3.20609 -2.73473 0
M  V30 2900 H 280.425 2.81038 -1.60621 0
M  V30 2901 H 279.332 1.42081 -3.46069 0
M  V30 2902 H 280.665 1.88755 -4.54568 0
M  V30 2903 N 282.317 1.53212 0.369288 0
M  V30 2904 C 283.563 1.69466 1.11397 0
M  V30 2905 C 283.896 0.443257 1.89074 0
M  V30 2906 O 283.171 -0.559386 1.86282 0
M  V30 2907 C 283.454 2.9422 2.07621 0
M  V30 2908 C 283.307 4.29508 1.33577 0
M  V30 2909 C 284.626 3.14565 3.07794 0
M  V30 2910 H 281.745 0.616667 0.403597 0
M  V30 2911 H 284.387 1.85845 0.395179 0
M  V30 2912 H 282.537 2.80387 2.68916 0
M  V30 2913 H 284.209 4.55147 0.750955 0
M  V30 2914 H 282.452 4.29088 0.637618 0
M  V30 2915 H 283.123 5.12926 2.03989 0
M  V30 2916 H 285.599 3.2756 2.56601 0
M  V30 2917 H 284.475 4.03297 3.72348 0
M  V30 2918 H 284.736 2.29675 3.77759 0
M  V30 2919 N 283.795 -0.628877 1.44509 0
M  V30 2920 C 285.044 -1.38437 1.4669 0
M  V30 2921 C 285.357 -1.95322 0.104272 0
M  V30 2922 O 286.563 -2.715 0.00362163 0
M  V30 2923 C 285.019 -2.50659 2.5826 0
M  V30 2924 C 284.627 -2.00277 4.0074 0
M  V30 2925 C 286.371 -3.27844 2.69664 0
M  V30 2926 C 284.278 -3.09854 5.0373 0
M  V30 2927 H 283.208 -0.520245 0.545766 0
M  V30 2928 H 285.859 -0.676313 1.70582 0
M  V30 2929 H 284.241 -3.2405 2.27612 0
M  V30 2930 H 285.415 -1.33736 4.40966 0
M  V30 2931 H 283.73 -1.35901 3.93599 0
M  V30 2932 H 286.327 -4.09534 3.43781 0
M  V30 2933 H 286.67 -3.77471 1.75559 0
M  V30 2934 H 287.203 -2.61543 2.99733 0
M  V30 2935 H 283.942 -2.65168 5.99472 0
M  V30 2936 H 283.462 -3.7503 4.68095 0
M  V30 2937 H 285.141 -3.74592 5.27532 0
M  V30 2938 N 285.273 -1.31445 -0.869486 0
M  V30 2939 C 286.236 -1.19094 -1.9583 0
M  V30 2940 C 287.236 -0.117906 -1.60367 0
M  V30 2941 O 288.426 -0.367208 -1.70286 0
M  V30 2942 C 285.558 -0.828165 -3.30688 0
M  V30 2943 H 286.751 -2.15842 -2.08212 0
M  V30 2944 H 284.304 -1.15063 -1.05784 0
M  V30 2945 H 285.039 0.138142 -3.24006 0
M  V30 2946 H 284.824 -1.6038 -3.578 0
M  V30 2947 H 286.314 -0.765658 -4.10521 0
M  V30 2948 N 286.751 1.08385 -1.14413 0
M  V30 2949 C 287.714 2.13486 -0.834048 0
M  V30 2950 C 288.714 1.59988 0.161418 0
M  V30 2951 O 289.904 1.74071 -0.0669575 0
M  V30 2952 C 287.036 3.4003 -0.243354 0
M  V30 2953 H 288.229 2.42425 -1.7655 0
M  V30 2954 H 285.782 1.24101 -0.950189 0
M  V30 2955 H 286.517 3.16726 0.696807 0
M  V30 2956 H 286.302 3.80157 -0.960367 0
M  V30 2957 H 287.792 4.17577 -0.0436242 0
M  V30 2958 N 288.23 0.939286 1.26551 0
M  V30 2959 C 289.478 0.58469 1.93457 0
M  V30 2960 C 289.799 -0.878774 1.74076 0
M  V30 2961 O 289.069 -1.62421 1.09528 0
M  V30 2962 H 287.649 0.21325 0.715914 0
M  V30 2963 H 290.311 1.1942 1.54029 0
M  V30 2964 H 289.407 0.800849 3.0165 0
M  V30 2965 N 289.708 -1.40897 0.706093 0
M  V30 2966 C 290.641 -2.282 -0.00328781 0
M  V30 2967 C 291.619 -1.42816 -0.77732 0
M  V30 2968 O 292.803 -1.72237 -0.765944 0
M  V30 2969 C 289.93 -3.23226 -1.01205 0
M  V30 2970 C 288.976 -4.25222 -0.329955 0
M  V30 2971 S 289.809 -5.27269 0.935298 0
M  V30 2972 C 290.965 -6.25859 -0.0716061 0
M  V30 2973 H 291.198 -2.88016 0.737143 0
M  V30 2974 H 288.731 -1.46191 0.496756 0
M  V30 2975 H 290.689 -3.78503 -1.58888 0
M  V30 2976 H 289.35 -2.62485 -1.72513 0
M  V30 2977 H 288.543 -4.92023 -1.09221 0
M  V30 2978 H 288.145 -3.73595 0.174069 0
M  V30 2979 H 290.437 -6.71204 -0.921521 0
M  V30 2980 H 291.38 -7.0586 0.562765 0
M  V30 2981 H 291.788 -5.62852 -0.431088 0
M  V30 2982 N 291.186 -0.45159 -1.50991 0
M  V30 2983 C 292.432 0.110237 -2.025 0
M  V30 2984 C 292.765 1.41109 -1.33424 0
M  V30 2985 O 292.04 1.89135 -0.453659 0
M  V30 2986 C 292.323 0.314271 -3.58726 0
M  V30 2987 C 292.176 -1.00623 -4.38401 0
M  V30 2988 C 293.495 1.07767 -4.26702 0
M  V30 2989 H 290.614 0.0385897 -0.735989 0
M  V30 2990 H 293.256 -0.593374 -1.80497 0
M  V30 2991 H 291.406 0.913601 -3.77605 0
M  V30 2992 H 293.078 -1.64064 -4.31139 0
M  V30 2993 H 291.321 -1.6075 -4.02917 0
M  V30 2994 H 291.992 -0.817341 -5.45915 0
M  V30 2995 H 294.468 0.56986 -4.12179 0
M  V30 2996 H 293.344 1.18921 -5.35863 0
M  V30 2997 H 293.605 2.10939 -3.88532 0
M  V30 2998 N 292.664 1.56529 -0.183458 0
M  V30 2999 C 293.91 1.97537 0.459036 0
M  V30 3000 C 294.243 1.06989 1.62071 0
M  V30 3001 O 293.518 0.11948 1.94133 0
M  V30 3002 C 293.801 3.47874 0.930368 0
M  V30 3003 C 293.654 4.492 -0.232317 0
M  V30 3004 C 294.973 4.01612 1.79989 0
M  V30 3005 H 292.092 0.718204 0.165383 0
M  V30 3006 H 294.734 1.88042 -0.272038 0
M  V30 3007 H 292.884 3.56095 1.55333 0
M  V30 3008 H 294.556 4.53027 -0.86972 0
M  V30 3009 H 292.799 4.24657 -0.885928 0
M  V30 3010 H 293.47 5.51823 0.139796 0
M  V30 3011 H 295.946 3.96097 1.27461 0
M  V30 3012 H 294.822 5.07195 2.09867 0
M  V30 3013 H 295.083 3.46163 2.74998 0
M  V30 3014 N 294.142 -0.090211 1.57342 0
M  V30 3015 C 295.09 -1.12792 2.03422 0
M  V30 3016 C 296.084 -1.41182 0.936166 0
M  V30 3017 O 297.29 -1.40805 1.12133 0
M  V30 3018 H 293.665 -0.380986 0.648347 0
M  V30 3019 H 295.636 -0.71299 2.89757 0
M  V30 3020 C 294.385 -2.43855 2.47851 0
M  V30 3021 H 293.708 -2.22855 3.31927 0
M  V30 3022 H 295.148 -3.14955 2.83865 0
M  V30 3023 C 293.607 -3.08503 1.3538 0
M  V30 3024 O 294.137 -3.95805 0.685641 0
M  V30 3025 N 292.343 -2.68831 1.10355 0
M  V30 3026 H 291.89 -1.97929 1.64869 0
M  V30 3027 H 291.848 -3.12412 0.353031 0
M  V30 3028 N 295.62 -1.53406 -0.361157 0
M  V30 3029 C 296.897 -1.60411 -1.11927 0
M  V30 3030 C 297.277 -0.414385 -2.06993 0
M  V30 3031 O 296.625 0.594976 -2.20618 0
M  V30 3032 C 296.835 -2.95652 -1.85448 0
M  V30 3033 C 298.183 -3.50386 -2.39823 0
M  V30 3034 O 299.207 -2.97711 -1.95568 0
M  V30 3035 O 298.066 -4.42482 -3.20737 0
M  V30 3036 H 295.16 -0.64811 -0.513695 0
M  V30 3037 H 297.706 -1.65749 -0.364065 0
M  V30 3038 H 296.478 -3.73682 -1.16091 0
M  V30 3039 H 296.101 -2.93825 -2.67866 0
M  V30 3040 N 297.098 0.621204 -1.44841 0
M  V30 3041 C 298.344 1.38073 -1.49357 0
M  V30 3042 C 298.699 1.91973 -0.128115 0
M  V30 3043 O 297.992 1.71311 0.858087 0
M  V30 3044 C 298.186 2.55675 -2.4973 0
M  V30 3045 C 298.015 2.13289 -3.95901 0
M  V30 3046 C 296.785 2.001 -4.63991 0
M  V30 3047 C 298.983 1.7159 -4.84831 0
M  V30 3048 N 296.965 1.51381 -5.94943 0
M  V30 3049 C 298.336 1.34188 -6.05304 0
M  V30 3050 C 300.391 1.59059 -4.7181 0
M  V30 3051 C 299.094 0.855085 -7.14199 0
M  V30 3052 C 301.12 1.11784 -5.8074 0
M  V30 3053 C 300.482 0.753385 -7.0036 0
M  V30 3054 H 296.581 0.499675 -0.601539 0
M  V30 3055 H 299.165 0.711609 -1.8123 0
M  V30 3056 H 297.336 3.20201 -2.19832 0
M  V30 3057 H 299.068 3.22509 -2.4448 0
M  V30 3058 H 295.823 2.20863 -4.18947 0
M  V30 3059 H 296.247 1.29293 -6.64539 0
M  V30 3060 H 300.889 1.85865 -3.79755 0
M  V30 3061 H 298.607 0.574552 -8.06055 0
M  V30 3062 H 302.193 1.02533 -5.72694 0
M  V30 3063 H 301.073 0.393183 -7.83214 0
M  V30 3064 N 298.576 1.31904 0.862503 0
M  V30 3065 C 299.816 1.23324 1.63004 0
M  V30 3066 C 300.18 -0.203724 1.90916 0
M  V30 3067 O 301.381 -0.413132 2.65606 0
M  V30 3068 C 299.652 2.06116 2.91978 0
M  V30 3069 S 301.211 2.14478 3.82812 0
M  V30 3070 H 298.029 0.439117 0.559193 0
M  V30 3071 H 300.631 1.66658 1.02202 0
M  V30 3072 H 299.335 3.09593 2.69407 0
M  V30 3073 H 298.866 1.6353 3.57801 0
M  V30 3074 H 300.881 1.28855 4.79177 0
M  V30 3075 N 300.054 -1.07777 1.14986 0
M  V30 3076 C 301.017 -2.13041 0.845358 0
M  V30 3077 C 302.017 -1.60071 -0.152931 0
M  V30 3078 O 303.207 -1.74033 0.0761879 0
M  V30 3079 C 300.339 -3.39896 0.261383 0
M  V30 3080 H 301.532 -2.41485 1.77834 0
M  V30 3081 H 299.085 -1.23595 0.956757 0
M  V30 3082 H 299.82 -3.17091 -0.68 0
M  V30 3083 H 299.605 -3.79642 0.980514 0
M  V30 3084 H 301.095 -4.17548 0.0657687 0
M  V30 3085 N 301.532 -0.945985 -1.26051 0
M  V30 3086 C 302.779 -0.596118 -1.93527 0
M  V30 3087 C 303.107 0.865559 -1.74179 0
M  V30 3088 O 302.362 1.63524 -1.0751 0
M  V30 3089 C 302.661 -0.890475 -3.46129 0
M  V30 3090 C 302.327 -2.3368 -3.85622 0
M  V30 3091 C 300.989 -2.73216 -3.96114 0
M  V30 3092 C 303.341 -3.27648 -4.05334 0
M  V30 3093 C 300.669 -4.05806 -4.2372 0
M  V30 3094 C 303.021 -4.59841 -4.3443 0
M  V30 3095 C 301.685 -4.99185 -4.43137 0
M  V30 3096 H 300.955 -0.218135 -0.708165 0
M  V30 3097 H 303.602 -1.1934 -1.49768 0
M  V30 3098 H 301.907 -0.210711 -3.91233 0
M  V30 3099 H 303.604 -0.598478 -3.96509 0
M  V30 3100 H 300.194 -2.02015 -3.78005 0
M  V30 3101 H 304.378 -2.98298 -3.96651 0
M  V30 3102 H 299.634 -4.35945 -4.28675 0
M  V30 3103 H 303.808 -5.32641 -4.48628 0
M  V30 3104 H 301.435 -6.01952 -4.64282 0
M  V30 3105 N 303.011 1.40521 -0.713556 0
M  V30 3106 C 304.251 2.02783 -0.256584 0
M  V30 3107 C 304.615 1.55352 1.12827 0
M  V30 3108 O 305.816 2.09663 1.68211 0
M  V30 3109 C 304.087 3.5586 -0.331414 0
M  V30 3110 S 305.646 4.38773 0.0488703 0
M  V30 3111 H 302.464 0.703655 -0.101934 0
M  V30 3112 H 305.066 1.71674 -0.935325 0
M  V30 3113 H 303.77 3.87874 -1.34098 0
M  V30 3114 H 303.301 3.91695 0.365873 0
M  V30 3115 H 305.316 4.79633 1.2715 0
M  V30 3116 N 304.489 0.459591 1.5075 0
M  V30 3117 C 305.737 -0.0991532 2.01857 0
M  V30 3118 C 306.058 -1.41247 1.34441 0
M  V30 3119 O 305.328 -1.89775 0.486022 0
M  V30 3120 H 303.908 -0.039633 0.745948 0
M  V30 3121 H 306.57 0.607387 1.85194 0
M  V30 3122 H 305.666 -0.258998 3.11023 0
M  V30 3123 N 305.967 -1.56429 0.191757 0
M  V30 3124 C 306.897 -2.21937 -0.725696 0
M  V30 3125 C 307.878 -1.1814 -1.2238 0
M  V30 3126 O 309.063 -1.46636 -1.27325 0
M  V30 3127 C 306.193 -2.87611 -1.94672 0
M  V30 3128 C 305.147 -3.97623 -1.58366 0
M  V30 3129 C 304.473 -4.50446 -2.88102 0
M  V30 3130 C 305.773 -5.16197 -0.796133 0
M  V30 3131 H 307.467 -2.98861 -0.179606 0
M  V30 3132 H 305.013 -1.43749 -0.0849464 0
M  V30 3133 H 306.966 -3.3212 -2.59373 0
M  V30 3134 H 305.69 -2.08087 -2.51728 0
M  V30 3135 H 304.349 -3.53801 -0.960247 0
M  V30 3136 H 303.997 -3.67688 -3.43241 0
M  V30 3137 H 303.697 -5.24675 -2.64556 0
M  V30 3138 H 305.221 -4.97654 -3.53798 0
M  V30 3139 H 306.635 -5.57271 -1.34618 0
M  V30 3140 H 305.032 -5.96471 -0.658928 0
M  V30 3141 H 306.102 -4.84473 0.203478 0
M  V30 3142 N 307.445 0.0818655 -1.57387 0
M  V30 3143 C 308.722 0.815343 -1.77796 0
M  V30 3144 C 309.102 1.96289 -0.77679 0
M  V30 3145 O 308.45 2.27691 0.192106 0
M  V30 3146 C 308.66 1.29765 -3.23978 0
M  V30 3147 C 310.008 1.7351 -3.8753 0
M  V30 3148 O 311.032 1.39356 -3.27808 0
M  V30 3149 O 309.891 2.36708 -4.92576 0
M  V30 3150 H 306.985 0.389914 -0.729312 0
M  V30 3151 H 309.531 0.0627213 -1.69584 0
M  V30 3152 H 308.303 0.47608 -3.88393 0
M  V30 3153 H 307.926 2.11189 -3.36875 0
M  V30 3154 N 308.923 1.53595 0.353017 0
M  V30 3155 C 310.151 1.74311 1.1146 0
M  V30 3156 C 310.566 0.477854 1.82653 0
M  V30 3157 O 309.923 -0.549977 1.74016 0
M  V30 3158 C 309.974 2.91694 2.13534 0
M  V30 3159 O 309.695 4.13325 1.45238 0
M  V30 3160 C 311.196 3.24384 3.02142 0
M  V30 3161 H 308.416 0.582669 0.332773 0
M  V30 3162 H 310.96 2.00386 0.408107 0
M  V30 3163 H 309.115 2.67977 2.79763 0
M  V30 3164 H 309.529 4.79148 2.13349 0
M  V30 3165 H 311.003 4.09893 3.69718 0
M  V30 3166 H 311.48 2.40282 3.67643 0
M  V30 3167 H 312.086 3.50073 2.41514 0
M  V30 3168 N 310.401 -0.613514 1.45168 0
M  V30 3169 C 311.629 -1.39946 1.5239 0
M  V30 3170 C 312.044 -1.88167 0.154531 0
M  V30 3171 O 311.401 -1.61872 -0.842843 0
M  V30 3172 C 311.452 -2.60795 2.50337 0
M  V30 3173 O 311.173 -2.1458 3.81952 0
M  V30 3174 C 312.674 -3.53723 2.67198 0
M  V30 3175 H 309.894 -0.428593 0.516284 0
M  V30 3176 H 312.438 -0.748753 1.903 0
M  V30 3177 H 310.593 -3.21919 2.15515 0
M  V30 3178 H 311.007 -2.93055 4.34993 0
M  V30 3179 H 312.481 -4.35079 3.39721 0
M  V30 3180 H 312.958 -4.0368 1.73029 0
M  V30 3181 H 313.564 -2.98456 3.02992 0
M  V30 3182 N 311.879 -1.3236 -0.855495 0
M  V30 3183 C 313.104 -1.2601 -1.64731 0
M  V30 3184 C 313.529 0.169068 -1.87339 0
M  V30 3185 O 312.887 1.12016 -1.42556 0
M  V30 3186 C 312.935 -2.02417 -2.98429 0
M  V30 3187 O 312.039 -1.3714 -3.8893 0
M  V30 3188 H 311.38 -0.434325 -0.502253 0
M  V30 3189 H 313.91 -1.74661 -1.06558 0
M  V30 3190 H 313.92 -2.12559 -3.48257 0
M  V30 3191 H 312.595 -3.06343 -2.81295 0
M  V30 3192 H 311.172 -1.3554 -3.47395 0
M  V30 3193 N 313.357 1.07166 -1.15556 0
M  V30 3194 C 314.585 1.83514 -0.955519 0
M  V30 3195 C 315 1.82163 0.49621 0
M  V30 3196 O 314.357 1.23441 1.34419 0
M  V30 3197 C 314.408 3.30515 -1.46432 0
M  V30 3198 O 314.129 3.31937 -2.85918 0
M  V30 3199 C 315.63 4.23625 -1.30603 0
M  V30 3200 H 312.85 0.578926 -0.339244 0
M  V30 3201 H 315.394 1.35265 -1.53374 0
M  V30 3202 H 313.549 3.76106 -0.928584 0
M  V30 3203 H 313.963 4.23794 -3.09029 0
M  V30 3204 H 315.437 5.24831 -1.71047 0
M  V30 3205 H 315.914 4.38485 -0.250441 0
M  V30 3206 H 316.52 3.83871 -1.83094 0
M  V30 3207 N 314.835 0.952656 1.25548 0
M  V30 3208 C 315.745 0.47782 2.29682 0
M  V30 3209 C 316.761 -0.453859 1.67977 0
M  V30 3210 O 317.937 -0.330587 1.98668 0
M  V30 3211 C 315.002 -0.238655 3.45878 0
M  V30 3212 C 314.063 0.730994 4.23031 0
M  V30 3213 C 313.296 0.0486165 5.33678 0
M  V30 3214 O 313.519 -1.16612 5.58353 0
M  V30 3215 O 312.453 0.733152 5.97418 0
M  V30 3216 H 316.279 1.34312 2.72386 0
M  V30 3217 H 313.864 0.719026 1.30959 0
M  V30 3218 H 315.746 -0.641774 4.16484 0
M  V30 3219 H 314.421 -1.07916 3.05181 0
M  V30 3220 H 313.328 1.18428 3.5486 0
M  V30 3221 H 314.661 1.53946 4.67506 0
M  V30 3222 N 316.313 -1.40141 0.720998 0
M  V30 3223 C 317.243 -2.33339 0.0867621 0
M  V30 3224 C 318.224 -1.53178 -0.739622 0
M  V30 3225 O 319.409 -1.81625 -0.687449 0
M  V30 3226 C 316.539 -3.37194 -0.831728 0
M  V30 3227 C 315.493 -4.27857 -0.110558 0
M  V30 3228 C 314.819 -5.22294 -1.14513 0
M  V30 3229 C 316.119 -5.11872 1.0385 0
M  V30 3230 H 317.813 -2.86626 0.865219 0
M  V30 3231 H 315.359 -1.37814 0.417516 0
M  V30 3232 H 317.312 -4.01335 -1.28485 0
M  V30 3233 H 316.036 -2.82314 -1.64214 0
M  V30 3234 H 314.695 -3.65176 0.322797 0
M  V30 3235 H 314.343 -4.63717 -1.94874 0
M  V30 3236 H 314.043 -5.83797 -0.667446 0
M  V30 3237 H 315.567 -5.89312 -1.59824 0
M  V30 3238 H 316.981 -5.69436 0.664482 0
M  V30 3239 H 315.378 -5.82445 1.4449 0
M  V30 3240 H 316.448 -4.4753 1.86668 0
M  V30 3241 N 317.792 -0.46758 -1.50504 0
M  V30 3242 C 319.017 0.0886943 -2.0721 0
M  V30 3243 C 319.442 1.33057 -1.32956 0
M  V30 3244 O 318.8 1.77354 -0.376197 0
M  V30 3245 C 318.848 0.359202 -3.58806 0
M  V30 3246 O 317.952 1.44034 -3.8643 0
M  V30 3247 H 317.293 -0.0114349 -0.663902 0
M  V30 3248 H 319.823 -0.657613 -1.93744 0
M  V30 3249 H 319.833 0.600742 -4.03553 0
M  V30 3250 H 318.508 -0.548311 -4.1227 0
M  V30 3251 H 317.085 1.18638 -3.53524 0
M  V30 3252 N 319.27 1.56325 -0.20005 0
M  V30 3253 C 320.516 1.98012 0.438059 0
M  V30 3254 C 320.849 1.08702 1.60927 0
M  V30 3255 O 320.124 0.140064 1.93995 0
M  V30 3256 C 320.407 3.48841 0.893419 0
M  V30 3257 C 320.26 4.48928 -0.279947 0
M  V30 3258 C 321.579 4.03498 1.75719 0
M  V30 3259 H 318.698 0.719918 0.157757 0
M  V30 3260 H 321.34 1.87743 -0.291968 0
M  V30 3261 H 319.49 3.57723 1.51547 0
M  V30 3262 H 321.162 4.52079 -0.91772 0
M  V30 3263 H 319.405 4.23694 -0.930919 0
M  V30 3264 H 320.076 5.5194 0.0812601 0
M  V30 3265 H 322.552 3.97427 1.23253 0
M  V30 3266 H 321.428 5.09393 2.04476 0
M  V30 3267 H 321.689 3.4906 2.71311 0
M  V30 3268 N 320.748 -0.0735177 1.57428 0
M  V30 3269 C 321.994 -0.774145 1.87443 0
M  V30 3270 C 322.327 -1.77311 0.792103 0
M  V30 3271 O 321.602 -1.93492 -0.197793 0
M  V30 3272 C 321.885 -1.48367 3.28115 0
M  V30 3273 C 321.738 -0.501227 4.46999 0
M  V30 3274 C 323.057 -2.429 3.66998 0
M  V30 3275 H 320.176 -0.279971 0.681752 0
M  V30 3276 H 322.818 -0.0373616 1.89963 0
M  V30 3277 H 320.968 -2.11171 3.26097 0
M  V30 3278 H 322.64 0.121468 4.6114 0
M  V30 3279 H 320.883 0.183593 4.33411 0
M  V30 3280 H 321.554 -1.03526 5.42205 0
M  V30 3281 H 324.03 -1.90175 3.70098 0
M  V30 3282 H 322.906 -2.89549 4.66318 0
M  V30 3283 H 323.167 -3.27628 2.96837 0
M  V30 3284 N 322.226 -1.5378 -0.344866 0
M  V30 3285 C 323.136 -1.84667 -1.4469 0
M  V30 3286 C 324.152 -0.736704 -1.57635 0
M  V30 3287 O 325.328 -1.02888 -1.73136 0
M  V30 3288 C 322.393 -2.04869 -2.79696 0
M  V30 3289 C 321.454 -3.28731 -2.76106 0
M  V30 3290 C 320.687 -3.4796 -4.04673 0
M  V30 3291 O 320.91 -2.71052 -5.01883 0
M  V30 3292 O 319.844 -4.41383 -4.09224 0
M  V30 3293 H 323.67 -2.78334 -1.21506 0
M  V30 3294 H 321.255 -1.39418 -0.536921 0
M  V30 3295 H 323.137 -2.19609 -3.59652 0
M  V30 3296 H 321.812 -1.14391 -3.02814 0
M  V30 3297 H 320.719 -3.19396 -1.94774 0
M  V30 3298 H 322.052 -4.19198 -2.57941 0
M  V30 3299 N 323.704 0.605807 -1.45491 0
M  V30 3300 C 324.929 1.39625 -1.53361 0
M  V30 3301 C 325.354 1.87351 -0.167645 0
M  V30 3302 O 324.712 1.60243 0.848051 0
M  V30 3303 C 324.76 2.57559 -2.5238 0
M  V30 3304 O 323.864 3.58248 -2.04285 0
M  V30 3305 H 323.205 0.416771 -0.516912 0
M  V30 3306 H 325.735 0.737103 -1.90861 0
M  V30 3307 H 325.745 3.0478 -2.71244 0
M  V30 3308 H 324.42 2.22171 -3.51586 0
M  V30 3309 H 322.997 3.17664 -1.95305 0
M  V30 3310 N 325.182 1.32811 0.848464 0
M  V30 3311 C 326.428 1.23907 1.60546 0
M  V30 3312 C 326.761 -0.197161 1.93197 0
M  V30 3313 O 326.036 -1.13596 1.5788 0
M  V30 3314 C 326.319 2.10489 2.92175 0
M  V30 3315 C 326.172 3.62522 2.66266 0
M  V30 3316 C 327.491 1.97075 3.93509 0
M  V30 3317 H 324.61 0.451459 0.58254 0
M  V30 3318 H 327.252 1.62818 0.979296 0
M  V30 3319 H 325.402 1.77434 3.45614 0
M  V30 3320 H 327.074 4.05821 2.19334 0
M  V30 3321 H 325.317 3.84879 2.00126 0
M  V30 3322 H 325.988 4.18437 3.6002 0
M  V30 3323 H 328.464 2.26045 3.49346 0
M  V30 3324 H 327.34 2.59923 4.83457 0
M  V30 3325 H 327.601 0.940186 4.31987 0
M  V30 3326 N 326.66 -1.06551 1.16123 0
M  V30 3327 C 327.907 -1.79302 0.941126 0
M  V30 3328 C 328.235 -1.87105 -0.531235 0
M  V30 3329 O 327.49 -1.35692 -1.41018 0
M  V30 3330 C 327.789 -3.23911 1.51052 0
M  V30 3331 C 327.455 -3.36193 3.00475 0
M  V30 3332 C 326.117 -3.39252 3.41265 0
M  V30 3333 C 328.469 -3.38326 3.96465 0
M  V30 3334 C 325.797 -3.42057 4.76669 0
M  V30 3335 C 328.149 -3.4267 5.31752 0
M  V30 3336 C 326.813 -3.4401 5.72026 0
M  V30 3337 H 326.083 -0.656111 0.344382 0
M  V30 3338 H 328.73 -1.25325 1.44796 0
M  V30 3339 H 327.035 -3.80723 0.925063 0
M  V30 3340 H 328.732 -3.78793 1.31593 0
M  V30 3341 H 325.322 -3.34516 2.6795 0
M  V30 3342 H 329.506 -3.35176 3.6602 0
M  V30 3343 H 324.762 -3.41398 5.07206 0
M  V30 3344 H 328.936 -3.43268 6.05921 0
M  V30 3345 H 326.563 -3.45937 6.76928 0
M  V30 3346 N 328.138 -0.959301 -1.25041 0
M  V30 3347 C 329.085 -0.482057 -2.2571 0
M  V30 3348 C 330.055 0.467939 -1.59372 0
M  V30 3349 O 331.24 0.380159 -1.86974 0
M  V30 3350 C 328.38 0.229623 -3.44335 0
M  V30 3351 C 327.493 -0.758156 -4.25295 0
M  V30 3352 C 326.628 -0.0234403 -5.31195 0
M  V30 3353 C 325.667 -1.00184 -6.03846 0
M  V30 3354 N 324.804 -0.29769 -7.01469 0
M  V30 3355 H 329.644 -1.34538 -2.65901 0
M  V30 3356 H 327.181 -0.674592 -1.3072 0
M  V30 3357 H 329.139 0.658856 -4.11965 0
M  V30 3358 H 327.769 1.05696 -3.05005 0
M  V30 3359 H 326.821 -1.30586 -3.57284 0
M  V30 3360 H 328.133 -1.50458 -4.75567 0
M  V30 3361 H 327.287 0.464201 -6.04922 0
M  V30 3362 H 326.026 0.755741 -4.81809 0
M  V30 3363 H 325.031 -1.50044 -5.2893 0
M  V30 3364 H 326.256 -1.78133 -6.55321 0
M  V30 3365 H 324.202 0.462668 -6.54366 0
M  V30 3366 H 324.119 -0.983128 -7.4958 0
M  V30 3367 H 325.387 0.16826 -7.79318 0
M  V30 3368 N 329.616 1.39756 -0.72842 0
M  V30 3369 C 330.546 2.33289 -0.0991354 0
M  V30 3370 C 331.527 1.53568 0.731489 0
M  V30 3371 O 332.712 1.81987 0.677807 0
M  V30 3372 C 329.842 3.3763 0.813834 0
M  V30 3373 C 328.796 4.2791 0.0878663 0
M  V30 3374 C 328.122 5.22894 1.11741 0
M  V30 3375 C 329.422 5.11314 -1.06563 0
M  V30 3376 H 331.116 2.86163 -0.880408 0
M  V30 3377 H 328.662 1.37591 -0.424819 0
M  V30 3378 H 330.615 4.0201 1.26355 0
M  V30 3379 H 329.339 2.83181 1.62715 0
M  V30 3380 H 327.998 3.65 -0.342159 0
M  V30 3381 H 327.646 4.64744 1.92412 0
M  V30 3382 H 327.346 5.84143 0.636477 0
M  V30 3383 H 328.87 5.90151 1.56697 0
M  V30 3384 H 330.284 5.69076 -0.694671 0
M  V30 3385 H 328.681 5.81671 -1.47577 0
M  V30 3386 H 329.751 4.46534 -1.89038 0
M  V30 3387 N 331.094 0.475555 1.50254 0
M  V30 3388 C 332.042 -0.330276 2.30243 0
M  V30 3389 C 333.036 -0.986306 1.37726 0
M  V30 3390 O 334.242 -0.9169 1.54897 0
M  V30 3391 H 330.617 -0.125353 0.741479 0
M  V30 3392 H 332.588 0.364702 2.96163 0
M  V30 3393 C 331.337 -1.39704 3.18399 0
M  V30 3394 H 330.66 -0.901621 3.89501 0
M  V30 3395 H 332.1 -1.93336 3.77355 0
M  V30 3396 C 330.559 -2.4014 2.36293 0
M  V30 3397 O 331.089 -3.45504 2.04914 0
M  V30 3398 N 329.295 -2.1197 1.98789 0
M  V30 3399 H 328.842 -1.2631 2.24507 0
M  V30 3400 H 328.8 -2.79403 1.44157 0
M  V30 3401 N 332.573 -1.56217 0.208337 0
M  V30 3402 C 333.483 -2.23316 -0.718836 0
M  V30 3403 C 334.499 -1.23648 -1.22422 0
M  V30 3404 O 335.675 -1.56423 -1.26861 0
M  V30 3405 C 332.74 -2.88968 -1.91568 0
M  V30 3406 C 331.801 -4.03943 -1.45357 0
M  V30 3407 C 331.034 -4.66455 -2.59337 0
M  V30 3408 O 331.257 -4.27919 -3.77149 0
M  V30 3409 O 330.191 -5.55686 -2.31293 0
M  V30 3410 H 334.017 -3.03182 -0.177315 0
M  V30 3411 H 331.602 -1.49384 -0.0215402 0
M  V30 3412 H 333.484 -3.30455 -2.61491 0
M  V30 3413 H 332.159 -2.12071 -2.44556 0
M  V30 3414 H 331.066 -3.67052 -0.722746 0
M  V30 3415 H 332.399 -4.82543 -0.970219 0
M  V30 3416 N 334.051 0.0651679 -1.57465 0
M  V30 3417 C 335.014 1.06117 -2.03155 0
M  V30 3418 C 336.014 1.31204 -0.929632 0
M  V30 3419 O 337.204 1.26813 -1.19432 0
M  V30 3420 C 334.336 2.4032 -2.41783 0
M  V30 3421 H 335.529 0.667231 -2.92383 0
M  V30 3422 H 333.082 0.311075 -1.53173 0
M  V30 3423 H 333.817 2.84532 -1.55601 0
M  V30 3424 H 333.602 2.23451 -3.22199 0
M  V30 3425 H 335.092 3.11898 -2.77685 0
M  V30 3426 N 335.529 1.53961 0.336706 0
M  V30 3427 C 336.461 1.78751 1.4346 0
M  V30 3428 C 337.474 0.669019 1.48418 0
M  V30 3429 O 338.663 0.945884 1.51378 0
M  V30 3430 C 335.763 1.87844 2.82078 0
M  V30 3431 C 334.936 3.17854 3.00479 0
M  V30 3432 C 333.995 3.17816 4.19379 0
M  V30 3433 O 333.021 3.91511 4.13168 0
M  V30 3434 N 334.223 2.40669 5.2826 0
M  V30 3435 H 336.988 2.73493 1.22563 0
M  V30 3436 H 334.549 1.53096 0.526625 0
M  V30 3437 H 336.541 1.85261 3.59806 0
M  V30 3438 H 335.111 1.00257 2.96086 0
M  V30 3439 H 334.331 3.33504 2.10163 0
M  V30 3440 H 335.619 4.03718 3.0966 0
M  V30 3441 H 335.017 1.8036 5.36178 0
M  V30 3442 H 333.574 2.43877 6.04456 0
M  V30 3443 N 337.007 -0.598083 1.45811 0
M  V30 3444 C 338.418 -1.18011 1.44673 0
M  V30 3445 C 338.769 -1.95378 0.179364 0
M  V30 3446 O 337.894 -2.04124 -0.718509 0
M  V30 3447 C 338.489 -2.14677 2.62105 0
M  V30 3448 C 337.048 -2.68236 2.64057 0
M  V30 3449 C 336.195 -1.43816 2.37091 0
M  V30 3450 H 339.146 -0.38686 1.53913 0
M  V30 3451 H 339.167 -2.97878 2.36746 0
M  V30 3452 H 338.679 -1.5834 3.5433 0
M  V30 3453 H 336.78 -3.28486 1.75864 0
M  V30 3454 H 336.893 -3.12021 3.63566 0
M  V30 3455 H 335.257 -1.731 1.86838 0
M  V30 3456 H 336.04 -0.893333 3.31473 0
M  V30 3457 N 338.485 -1.33259 -0.841409 0
M  V30 3458 C 339.71 -1.2775 -1.63385 0
M  V30 3459 C 340.135 0.149188 -1.87507 0
M  V30 3460 O 339.493 1.10498 -1.43736 0
M  V30 3461 C 339.541 -2.05571 -2.96265 0
M  V30 3462 O 338.645 -1.41257 -3.87453 0
M  V30 3463 H 337.986 -0.439627 -0.497618 0
M  V30 3464 H 340.516 -1.75782 -1.04699 0
M  V30 3465 H 340.526 -2.16241 -3.45982 0
M  V30 3466 H 339.201 -3.09309 -2.7803 0
M  V30 3467 H 337.778 -1.39217 -3.45938 0
M  V30 3468 N 339.963 1.05934 -1.16686 0
M  V30 3469 C 341.191 1.8249 -0.974929 0
M  V30 3470 C 341.606 1.82679 0.476861 0
M  V30 3471 O 340.963 1.2486 1.33103 0
M  V30 3472 C 341.014 3.28943 -1.49929 0
M  V30 3473 O 340.735 3.28886 -2.89423 0
M  V30 3474 C 342.236 4.22215 -1.35089 0
M  V30 3475 H 339.456 0.575295 -0.345365 0
M  V30 3476 H 342 1.33631 -1.548 0
M  V30 3477 H 340.155 3.751 -0.968423 0
M  V30 3478 H 340.569 4.20493 -3.13506 0
M  V30 3479 H 342.043 5.22987 -1.76603 0
M  V30 3480 H 342.52 4.38195 -0.296935 0
M  V30 3481 H 343.126 3.81907 -1.87155 0
M  V30 3482 N 341.441 0.965919 1.2453 0
M  V30 3483 C 342.69 0.622437 1.91856 0
M  V30 3484 C 343.003 -0.846006 1.76358 0
M  V30 3485 O 344.209 -1.29993 2.38357 0
M  V30 3486 C 342.665 1.0626 3.43856 0
M  V30 3487 C 342.273 2.55437 3.68043 0
M  V30 3488 C 344.017 0.792183 4.17043 0
M  V30 3489 C 341.924 2.93196 5.13605 0
M  V30 3490 H 340.854 0.229092 0.718354 0
M  V30 3491 H 343.505 1.17189 1.41206 0
M  V30 3492 H 341.887 0.441476 3.93531 0
M  V30 3493 H 343.061 3.22665 3.28974 0
M  V30 3494 H 341.376 2.8007 3.08139 0
M  V30 3495 H 343.973 1.05031 5.24283 0
M  V30 3496 H 344.316 -0.271584 4.15413 0
M  V30 3497 H 344.849 1.37419 3.73311 0
M  V30 3498 H 341.588 3.98636 5.20355 0
M  V30 3499 H 341.108 2.30651 5.53679 0
M  V30 3500 H 342.787 2.83004 5.81823 0
M  V30 3501 N 342.919 -1.39368 0.735821 0
M  V30 3502 C 343.882 -2.2896 0.104874 0
M  V30 3503 C 344.882 -1.46347 -0.666274 0
M  V30 3504 O 346.072 -1.67014 -0.49517 0
M  V30 3505 C 343.204 -3.29857 -0.860656 0
M  V30 3506 H 344.397 -2.86259 0.894205 0
M  V30 3507 H 341.95 -1.48029 0.501704 0
M  V30 3508 H 342.685 -2.77615 -1.67631 0
M  V30 3509 H 342.47 -3.9087 -0.310327 0
M  V30 3510 H 343.96 -3.96893 -1.29867 0
M  V30 3511 N 344.397 -0.483516 -1.5 0
M  V30 3512 C 345.625 0.0644831 -2.06799 0
M  V30 3513 C 346.04 1.32399 -1.34596 0
M  V30 3514 O 345.397 1.77626 -0.418946 0
M  V30 3515 C 345.448 0.339927 -3.59898 0
M  V30 3516 O 345.169 -0.869635 -4.29382 0
M  V30 3517 C 346.67 0.933515 -4.33359 0
M  V30 3518 H 343.89 -0.0126333 -0.670881 0
M  V30 3519 H 346.434 -0.675864 -1.93009 0
M  V30 3520 H 344.589 1.03022 -3.7345 0
M  V30 3521 H 345.003 -0.62179 -5.20801 0
M  V30 3522 H 346.477 1.07593 -5.41413 0
M  V30 3523 H 346.954 1.92685 -3.94676 0
M  V30 3524 H 347.56 0.281221 -4.24369 0
M  V30 3525 N 345.875 1.56104 -0.216619 0
M  V30 3526 C 347.1 2.0301 0.424462 0
M  V30 3527 C 347.525 1.0955 1.52907 0
M  V30 3528 O 346.883 0.0827914 1.81111 0
M  V30 3529 C 346.931 3.4819 0.937883 0
M  V30 3530 O 346.035 3.57865 2.04955 0
M  V30 3531 H 345.376 0.656925 0.0966755 0
M  V30 3532 H 347.906 2.01859 -0.33381 0
M  V30 3533 H 347.916 3.88413 1.24897 0
M  V30 3534 H 346.591 4.15699 0.129387 0
M  V30 3535 H 345.168 3.29527 1.74546 0
M  V30 3536 N 347.353 -0.0568162 1.57498 0
M  V30 3537 C 348.286 -1.09817 2.00039 0
M  V30 3538 C 349.264 -1.3674 0.879819 0
M  V30 3539 O 350.448 -1.49863 1.14338 0
M  V30 3540 C 347.575 -2.43924 2.34986 0
M  V30 3541 C 346.621 -2.33039 3.57204 0
M  V30 3542 S 347.454 -1.7102 5.07457 0
M  V30 3543 C 348.61 -3.06674 5.45621 0
M  V30 3544 H 348.843 -0.735701 2.88053 0
M  V30 3545 H 346.376 -0.265871 1.52094 0
M  V30 3546 H 348.334 -3.2106 2.55795 0
M  V30 3547 H 346.995 -2.77327 1.47474 0
M  V30 3548 H 346.188 -3.31973 3.79223 0
M  V30 3549 H 345.79 -1.64043 3.36104 0
M  V30 3550 H 348.082 -4.03 5.44608 0
M  V30 3551 H 349.025 -2.8942 6.46252 0
M  V30 3552 H 349.433 -3.07969 4.73091 0
M  V30 3553 N 348.832 -1.54138 -0.328536 0
M  V30 3554 C 350.248 -1.44736 -0.672574 0
M  V30 3555 C 350.448 -0.616217 -1.91846 0
M  V30 3556 O 349.504 -0.113067 -2.52247 0
M  V30 3557 C 350.817 -2.884 -0.851217 0
M  V30 3558 C 352.365 -2.98271 -0.948877 0
M  V30 3559 C 352.84 -4.43074 -1.15973 0
M  V30 3560 N 354.331 -4.46665 -1.22658 0
M  V30 3561 C 355.066 -5.55857 -1.40751 0
M  V30 3562 N 354.562 -6.75026 -1.5592 0
M  V30 3563 N 356.355 -5.43495 -1.4342 0
M  V30 3564 H 348.506 -2.06661 0.490421 0
M  V30 3565 H 350.769 -0.934812 0.157579 0
M  V30 3566 H 350.475 -3.51699 -0.00704236 0
M  V30 3567 H 350.349 -3.34225 -1.74853 0
M  V30 3568 H 352.736 -2.35102 -1.78356 0
M  V30 3569 H 352.817 -2.55785 -0.0281435 0
M  V30 3570 H 352.461 -5.06827 -0.329915 0
M  V30 3571 H 352.391 -4.83165 -2.09426 0
M  V30 3572 H 354.882 -3.60797 -1.124 0
M  V30 3573 H 355.195 -7.54004 -1.69404 0
M  V30 3574 H 353.54 -6.77944 -1.53027 0
M  V30 3575 H 356.731 -4.49349 -1.31162 0
M  V30 3576 H 356.904 -6.28649 -1.57178 0
M  V30 3577 N 350.31 0.590341 -1.46126 0
M  V30 3578 C 351.587 1.35029 -1.41515 0
M  V30 3579 C 351.967 2.10888 -0.0946472 0
M  V30 3580 O 351.315 2.08998 0.923693 0
M  V30 3581 C 351.525 2.28269 -2.63997 0
M  V30 3582 C 352.873 2.90338 -3.09821 0
M  V30 3583 O 353.897 2.38585 -2.64492 0
M  V30 3584 O 352.756 3.84321 -3.88535 0
M  V30 3585 H 349.85 0.606317 -0.562413 0
M  V30 3586 H 352.396 0.611994 -1.58281 0
M  V30 3587 H 351.168 1.71591 -3.51671 0
M  V30 3588 H 350.791 3.0945 -2.49652 0
M  V30 3589 N 351.788 1.33704 0.83433 0
M  V30 3590 C 353.013 1.28615 1.62705 0
M  V30 3591 C 353.438 -0.139242 1.87584 0
M  V30 3592 O 352.796 -1.09734 1.4432 0
M  V30 3593 C 352.844 2.07139 2.95171 0
M  V30 3594 O 351.948 1.4331 3.86699 0
M  V30 3595 H 351.289 0.44226 0.49528 0
M  V30 3596 H 353.819 1.76335 1.03766 0
M  V30 3597 H 353.829 2.18073 3.44831 0
M  V30 3598 H 352.504 3.10779 2.76386 0
M  V30 3599 H 351.081 1.4105 3.45195 0
M  V30 3600 N 353.266 -1.05314 1.17247 0
M  V30 3601 C 354.196 -2.1498 0.911362 0
M  V30 3602 C 355.177 -1.69471 -0.146169 0
M  V30 3603 O 356.362 -1.942 0.003812 0
M  V30 3604 C 353.492 -3.4472 0.422528 0
M  V30 3605 C 352.446 -4.03789 1.4191 0
M  V30 3606 C 351.772 -5.28858 0.788274 0
M  V30 3607 C 353.072 -4.41418 2.7919 0
M  V30 3608 H 354.766 -2.3708 1.82848 0
M  V30 3609 H 352.312 -1.13938 0.880569 0
M  V30 3610 H 354.265 -4.20787 0.227289 0
M  V30 3611 H 352.989 -3.22269 -0.530123 0
M  V30 3612 H 351.648 -3.2979 1.60106 0
M  V30 3613 H 351.296 -5.02709 -0.171173 0
M  V30 3614 H 350.996 -5.69338 1.45353 0
M  V30 3615 H 352.52 -6.07612 0.603282 0
M  V30 3616 H 353.934 -5.08524 2.64719 0
M  V30 3617 H 352.331 -4.92913 3.42282 0
M  V30 3618 H 353.401 -3.51819 3.33693 0
M  V30 3619 N 354.744 -0.972509 -1.24016 0
M  V30 3620 C 355.993 -0.632603 -1.91523 0
M  V30 3621 C 356.306 0.836641 -1.76804 0
M  V30 3622 O 357.512 1.28728 -2.39043 0
M  V30 3623 C 355.968 -1.08082 -3.43287 0
M  V30 3624 C 355.576 -2.57386 -3.66683 0
M  V30 3625 C 357.32 -0.814288 -4.16617 0
M  V30 3626 C 355.227 -2.95915 -5.12043 0
M  V30 3627 H 354.157 -0.232898 -0.717129 0
M  V30 3628 H 356.808 -1.17936 -1.40582 0
M  V30 3629 H 355.19 -0.462339 -3.93292 0
M  V30 3630 H 356.364 -3.24405 -3.27258 0
M  V30 3631 H 354.679 -2.81701 -3.06649 0
M  V30 3632 H 357.276 -1.0781 -5.23718 0
M  V30 3633 H 357.619 0.24955 -4.15551 0
M  V30 3634 H 358.152 -1.39397 -3.72577 0
M  V30 3635 H 354.891 -4.0139 -5.18234 0
M  V30 3636 H 354.411 -2.33584 -5.52448 0
M  V30 3637 H 356.09 -2.86086 -5.80314 0
M  V30 3638 N 356.222 1.38976 -0.743202 0
M  V30 3639 C 357.499 1.94351 -0.220705 0
M  V30 3640 C 357.879 1.67935 1.2791 0
M  V30 3641 O 357.227 1.01211 2.04862 0
M  V30 3642 C 357.437 3.44426 -0.563171 0
M  V30 3643 C 358.785 4.2144 -0.517046 0
M  V30 3644 O 359.809 3.52661 -0.500846 0
M  V30 3645 O 358.668 5.44032 -0.518806 0
M  V30 3646 H 355.762 0.825879 -0.043047 0
M  V30 3647 H 358.308 1.48429 -0.822618 0
M  V30 3648 H 357.08 3.5712 -1.59941 0
M  V30 3649 H 356.703 3.97543 0.0672883 0
M  V30 3650 N 357.7 0.491464 1.49741 0
M  V30 3651 C 358.925 -0.0557177 2.07325 0
M  V30 3652 C 359.35 -1.30925 1.35056 0
M  V30 3653 O 358.708 -1.76733 0.404365 0
M  V30 3654 C 358.756 -0.302074 3.59333 0
M  V30 3655 O 357.86 -1.37868 3.88672 0
M  V30 3656 H 357.201 0.0219956 0.663636 0
M  V30 3657 H 359.731 0.688352 1.92673 0
M  V30 3658 H 359.741 -0.536464 4.04458 0
M  V30 3659 H 358.416 0.61383 4.11345 0
M  V30 3660 H 356.993 -1.12999 3.55367 0
M  V30 3661 N 359.178 -1.55987 0.224894 0
M  V30 3662 C 360.108 -2.23426 -0.678457 0
M  V30 3663 C 361.089 -1.20709 -1.19847 0
M  V30 3664 O 362.274 -1.49304 -1.24186 0
M  V30 3665 C 359.404 -2.91676 -1.88527 0
M  V30 3666 C 358.358 -4.00893 -1.49896 0
M  V30 3667 C 357.684 -4.56455 -2.78483 0
M  V30 3668 C 358.984 -5.17769 -0.686461 0
M  V30 3669 H 360.678 -2.99175 -0.116173 0
M  V30 3670 H 358.224 -1.43897 -0.054436 0
M  V30 3671 H 360.177 -3.37547 -2.5227 0
M  V30 3672 H 358.901 -2.1338 -2.47258 0
M  V30 3673 H 357.56 -3.55758 -0.884985 0
M  V30 3674 H 357.208 -3.74886 -3.35365 0
M  V30 3675 H 356.908 -5.30169 -2.53368 0
M  V30 3676 H 358.432 -5.05047 -3.43162 0
M  V30 3677 H 359.846 -5.60001 -1.22767 0
M  V30 3678 H 358.243 -5.97735 -0.532259 0
M  V30 3679 H 359.313 -4.83932 0.306196 0
M  V30 3680 N 360.656 0.0484629 -1.57525 0
M  V30 3681 C 361.884 0.755421 -1.92616 0
M  V30 3682 C 362.299 1.69919 -0.822984 0
M  V30 3683 O 361.656 1.81378 0.202085 0
M  V30 3684 C 361.707 1.52915 -3.27566 0
M  V30 3685 O 361.428 0.62329 -4.33644 0
M  V30 3686 C 362.929 2.33502 -3.76818 0
M  V30 3687 H 360.149 0.213465 -0.63614 0
M  V30 3688 H 362.693 0.0117698 -2.04497 0
M  V30 3689 H 360.848 2.22486 -3.17142 0
M  V30 3690 H 361.262 1.16383 -5.11425 0
M  V30 3691 H 362.736 2.83214 -4.73808 0
M  V30 3692 H 363.213 3.14068 -3.07014 0
M  V30 3693 H 363.819 1.69043 -3.90262 0
M  V30 3694 O 362.173 1.60359 0.191666 0
M  V30 3695 H 362.864 1.75005 0.830227 0
M  V30 END ATOM
M  V30 BEGIN BOND
M  V30 END BOND
M  V30 END CTAB
M  END
$$$$
