drugbank_target|P56524 Histone deacetylase 4 (DB01593; DB06176; DB07879; DB08613; DB14487; DB14533; DB14548)
 OpenBabel12092120333D

  0  0  0     0  0            999 V3000
M  V30 BEGIN CTAB
M  V30 COUNTS 16680 16862 0 0 0
M  V30 BEGIN ATOM
M  V30 1 H -0.908 1.98254 -0.117106 0
M  V30 2 N 0 1.576 0 0
M  V30 3 C 0.933 2.03868 1.02534 0
M  V30 4 C 1.911 0.928543 1.3348 0
M  V30 5 O 3.095 1.19667 1.45644 0
M  V30 6 C 0.222 2.43627 2.35294 0
M  V30 7 C -0.732 3.65373 2.2001 0
M  V30 8 S 0.101 5.13292 1.52614 0
M  V30 9 C 1.257 5.56322 2.86805 0
M  V30 10 H 1.49 2.90518 0.631377 0
M  V30 11 H -0.977 1.52953 0.210867 0
M  V30 12 H 0.981 2.67203 3.11629 0
M  V30 13 H -0.358 1.57376 2.7183 0
M  V30 14 H -1.165 3.90944 3.18086 0
M  V30 15 H -1.563 3.418 1.51819 0
M  V30 16 H 0.729 5.58782 3.83104 0
M  V30 17 H 1.672 6.56266 2.65933 0
M  V30 18 H 2.08 4.83886 2.90714 0
M  V30 19 N 1.4781 -0.272755 1.55222 0
M  V30 20 C 2.7031 -1.02683 1.80197 0
M  V30 21 C 3.1281 -1.79142 0.573551 0
M  V30 22 O 2.4861 -1.74917 -0.476849 0
M  V30 23 C 2.5341 -1.9609 3.02624 0
M  V30 24 O 1.6381 -3.04863 2.77727 0
M  V30 25 H 0.9791 -0.293557 0.595584 0
M  V30 26 H 3.5091 -0.30159 2.02365 0
M  V30 27 H 3.5191 -2.38039 3.31363 0
M  V30 28 H 2.1941 -1.39851 3.91682 0
M  V30 29 H 0.7711 -2.67228 2.60084 0
M  V30 30 N 2.9562 -1.48159 -0.537278 0
M  V30 31 C 4.1812 -1.59707 -1.32319 0
M  V30 32 C 4.6062 -0.254859 -1.86365 0
M  V30 33 O 3.9642 0.772378 -1.64024 0
M  V30 34 C 4.0122 -2.6412 -2.45505 0
M  V30 35 O 3.1162 -2.20774 -3.48328 0
M  V30 36 H 2.4572 -0.535791 -0.392204 0
M  V30 37 H 4.9872 -1.94092 -0.647268 0
M  V30 38 H 4.9972 -2.85166 -2.91795 0
M  V30 39 H 3.6722 -3.61567 -2.05528 0
M  V30 40 H 2.2492 -2.09911 -3.08207 0
M  V30 41 N 4.4343 0.785586 -1.36625 0
M  V30 42 C 5.3663 1.90711 -1.2713 0
M  V30 43 C 6.3793 1.61688 -0.189986 0
M  V30 44 O 7.5683 1.72864 -0.445014 0
M  V30 45 C 4.6683 3.25611 -0.939713 0
M  V30 46 C 3.8413 3.82385 -2.12369 0
M  V30 47 C 2.9003 4.95732 -1.76456 0
M  V30 48 O 1.9263 5.12047 -2.48589 0
M  V30 49 N 3.1283 5.76258 -0.700492 0
M  V30 50 H 5.8933 1.99376 -2.23762 0
M  V30 51 H 3.4543 0.964041 -1.30069 0
M  V30 52 H 5.4463 3.98937 -0.680554 0
M  V30 53 H 4.0163 3.12538 -0.0624074 0
M  V30 54 H 3.2363 3.01001 -2.54543 0
M  V30 55 H 4.5243 4.17047 -2.9146 0
M  V30 56 H 3.9223 5.65609 -0.101624 0
M  V30 57 H 2.4793 6.4987 -0.501165 0
M  V30 58 N 5.9124 1.20967 1.01018 0
M  V30 59 C 7.1374 1.0503 1.78839 0
M  V30 60 C 7.5624 -0.395752 1.8389 0
M  V30 61 O 6.9204 -1.28529 1.27867 0
M  V30 62 C 6.9684 1.64602 3.2084 0
M  V30 63 O 6.0724 0.887988 4.02726 0
M  V30 64 H 5.4134 0.369987 0.551367 0
M  V30 65 H 7.9434 1.60399 1.27018 0
M  V30 66 H 7.9534 1.68607 3.71532 0
M  V30 67 H 6.6284 2.69841 3.16479 0
M  V30 68 H 5.2054 0.922648 3.61305 0
M  V30 69 N 7.3905 -1.2043 1.01659 0
M  V30 70 C 8.3405 -2.21076 0.557623 0
M  V30 71 C 9.3245 -1.56176 -0.387029 0
M  V30 72 O 10.5165 -1.7575 -0.209996 0
M  V30 73 C 7.6455 -3.43146 -0.102707 0
M  V30 74 C 6.7315 -4.15213 0.863652 0
M  V30 75 N 7.1225 -4.63662 2.02117 0
M  V30 76 C 5.4205 -4.40716 0.684472 0
M  V30 77 C 6.1215 -5.18868 2.62966 0
M  V30 78 N 5.0975 -5.0893 1.91027 0
M  V30 79 H 8.8995 -2.56201 1.44008 0
M  V30 80 H 6.4135 -1.36366 0.881931 0
M  V30 81 H 8.4105 -4.14475 -0.449054 0
M  V30 82 H 7.0705 -3.09526 -0.981003 0
M  V30 83 H 8.0815 -4.58877 2.40109 0
M  V30 84 H 4.7585 -4.17245 -0.14577 0
M  V30 85 H 6.1485 -5.6673 3.60924 0
M  V30 86 N 8.8686 -0.792821 -1.36206 0
M  V30 87 C 10.2796 -0.429513 -1.81692 0
M  V30 88 C 10.6306 1.04695 -1.65932 0
M  V30 89 O 9.7556 1.81256 -1.18218 0
M  V30 90 C 10.3506 -0.772831 -3.29868 0
M  V30 91 C 8.9096 -0.462307 -3.7355 0
M  V30 92 C 8.0566 -1.00569 -2.5842 0
M  V30 93 H 11.0076 -0.985672 -1.24379 0
M  V30 94 H 11.0286 -0.0651928 -3.80444 0
M  V30 95 H 10.5406 -1.84747 -3.41307 0
M  V30 96 H 8.6416 0.604158 -3.67669 0
M  V30 97 H 8.7546 -0.985299 -4.68859 0
M  V30 98 H 7.1186 -0.428734 -2.51066 0
M  V30 99 H 7.9016 -2.08616 -2.72643 0
M  V30 100 N 10.3467 1.47872 -0.545128 0
M  V30 101 C 11.6237 1.9554 0.0485222 0
M  V30 102 C 12.0037 1.4876 1.49779 0
M  V30 103 O 11.3517 0.720925 2.16829 0
M  V30 104 C 11.5617 3.48898 -0.084417 0
M  V30 105 C 12.9097 4.24547 0.0671239 0
M  V30 106 O 13.9337 3.56198 -0.0113649 0
M  V30 107 O 12.7927 5.45999 0.233882 0
M  V30 108 H 9.8867 0.823957 0.0708773 0
M  V30 109 H 12.4327 1.58327 -0.610798 0
M  V30 110 H 11.2047 3.75714 -1.09337 0
M  V30 111 H 10.8277 3.92845 0.613066 0
M  V30 112 N 11.8248 0.280983 1.55075 0
M  V30 113 C 13.0728 -0.333455 1.9933 0
M  V30 114 C 13.3938 -1.55937 1.17085 0
M  V30 115 O 12.6638 -1.94143 0.261805 0
M  V30 116 H 11.2438 -0.126197 0.736263 0
M  V30 117 H 13.9058 0.387678 1.91005 0
M  V30 118 H 13.0018 -0.619292 3.05894 0
M  V30 119 N 13.3029 -1.57598 0.00835791 0
M  V30 120 C 14.2329 -2.1198 -0.979113 0
M  V30 121 C 15.2139 -1.03091 -1.35301 0
M  V30 122 O 16.3989 -1.30818 -1.43528 0
M  V30 123 C 13.5289 -2.62995 -2.26828 0
M  V30 124 C 12.4829 -3.76485 -2.03576 0
M  V30 125 C 11.8089 -4.13846 -3.38579 0
M  V30 126 C 13.1089 -5.0342 -1.39161 0
M  V30 127 H 14.8029 -2.94738 -0.526281 0
M  V30 128 H 12.3489 -1.41783 -0.251704 0
M  V30 129 H 14.3019 -2.99669 -2.96271 0
M  V30 130 H 13.0259 -1.7737 -2.7424 0
M  V30 131 H 11.6849 -3.40217 -1.36557 0
M  V30 132 H 11.3329 -3.25232 -3.83709 0
M  V30 133 H 11.0329 -4.90312 -3.23834 0
M  V30 134 H 12.5569 -4.53086 -4.09323 0
M  V30 135 H 13.9709 -5.37812 -1.98573 0
M  V30 136 H 12.3679 -5.84746 -1.34878 0
M  V30 137 H 13.4379 -4.83548 -0.361868 0
M  V30 138 N 14.781 0.264519 -1.55364 0
M  V30 139 C 16.006 1.01726 -1.80739 0
M  V30 140 C 16.431 1.78836 -0.583044 0
M  V30 141 O 15.789 1.75167 0.467566 0
M  V30 142 C 15.837 1.94482 -3.03659 0
M  V30 143 O 14.941 3.03386 -2.7934 0
M  V30 144 H 14.282 0.290395 -0.597132 0
M  V30 145 H 16.812 0.290854 -2.02522 0
M  V30 146 H 16.822 2.36278 -3.32621 0
M  V30 147 H 15.497 1.37772 -3.92418 0
M  V30 148 H 14.074 2.65844 -2.61498 0
M  V30 149 N 16.2591 1.48442 0.529413 0
M  V30 150 C 17.5071 1.56179 1.28267 0
M  V30 151 C 17.8281 0.237721 1.93546 0
M  V30 152 O 17.0981 -0.740779 1.81354 0
M  V30 153 H 15.6781 0.575367 0.476405 0
M  V30 154 H 18.3401 1.84909 0.61602 0
M  V30 155 H 17.4361 2.34312 2.06165 0
M  V30 156 N 17.7372 -0.778329 1.37039 0
M  V30 157 C 19.1532 -1.07796 1.17695 0
M  V30 158 C 19.3532 -2.01498 0.00860115 0
M  V30 159 O 18.4092 -2.43901 -0.653352 0
M  V30 160 C 19.7222 -1.68178 2.49272 0
M  V30 161 C 21.2702 -1.80467 2.55735 0
M  V30 162 C 21.7452 -2.44263 3.87427 0
M  V30 163 N 23.2362 -2.51721 3.88833 0
M  V30 164 C 23.9712 -3.01919 4.87476 0
M  V30 165 N 23.4672 -3.5234 5.96513 0
M  V30 166 N 25.2602 -3.00733 4.74885 0
M  V30 167 H 17.4112 -0.156032 2.11826 0
M  V30 168 H 19.6742 -0.131844 0.938787 0
M  V30 169 H 19.3802 -1.06796 3.35093 0
M  V30 170 H 19.2542 -2.67554 2.65885 0
M  V30 171 H 21.6412 -2.40984 1.70325 0
M  V30 172 H 21.7222 -0.798656 2.43013 0
M  V30 173 H 21.3662 -1.84388 4.73248 0
M  V30 174 H 21.2962 -3.45458 3.9745 0
M  V30 175 H 23.7872 -2.1603 3.10063 0
M  V30 176 H 24.1002 -3.89027 6.67741 0
M  V30 177 H 22.4452 -3.50462 6.00168 0
M  V30 178 H 25.6362 -2.60638 3.88826 0
M  V30 179 H 25.8092 -3.39545 5.51918 0
M  V30 180 N 19.2153 -1.21501 -1.00376 0
M  V30 181 C 20.4923 -0.941745 -1.71437 0
M  V30 182 C 20.8723 0.546114 -2.03914 0
M  V30 183 O 20.2203 1.51128 -1.71384 0
M  V30 184 C 20.4303 -1.82812 -2.97289 0
M  V30 185 C 21.7783 -2.07771 -3.70292 0
M  V30 186 O 22.8023 -1.80171 -3.07273 0
M  V30 187 O 21.6613 -2.54456 -4.83647 0
M  V30 188 H 18.7553 -0.353243 -0.747762 0
M  V30 189 H 21.3013 -1.32436 -1.06108 0
M  V30 190 H 20.0733 -2.83501 -2.69709 0
M  V30 191 H 19.6963 -1.4464 -3.70358 0
M  V30 192 N 20.6934 1.19889 -1.02296 0
M  V30 193 C 21.6254 2.22334 -0.556787 0
M  V30 194 C 22.6384 1.58674 0.364199 0
M  V30 195 O 23.8274 1.77768 0.161533 0
M  V30 196 C 20.9274 3.38257 0.208694 0
M  V30 197 C 20.1004 4.31504 -0.71577 0
M  V30 198 C 19.1594 5.262 0.00325597 0
M  V30 199 O 18.1854 5.65798 -0.621357 0
M  V30 200 N 19.3874 5.66303 1.27599 0
M  V30 201 H 22.1524 2.62957 -1.43784 0
M  V30 202 H 19.7134 1.34495 -0.901261 0
M  V30 203 H 21.7054 3.98616 0.699111 0
M  V30 204 H 20.2754 2.96472 0.991102 0
M  V30 205 H 19.4954 3.69016 -1.38638 0
M  V30 206 H 20.7834 4.9072 -1.34428 0
M  V30 207 H 20.1814 5.36155 1.80429 0
M  V30 208 H 18.7384 6.28942 1.71102 0
M  V30 209 N 22.1715 0.800033 1.35784 0
M  V30 210 C 23.5825 0.439142 1.81462 0
M  V30 211 C 23.9335 -1.03813 1.66485 0
M  V30 212 O 23.0585 -1.80626 1.19177 0
M  V30 213 C 23.6535 0.790314 3.29453 0
M  V30 214 C 22.2125 0.482111 3.733 0
M  V30 215 C 21.3595 1.01938 2.57883 0
M  V30 216 H 24.3105 0.992254 1.23855 0
M  V30 217 H 24.3315 0.0853677 3.80404 0
M  V30 218 H 23.8435 1.86554 3.40322 0
M  V30 219 H 21.9445 -0.584652 3.67984 0
M  V30 220 H 22.0575 1.01015 4.6833 0
M  V30 221 H 20.4215 0.442043 2.50835 0
M  V30 222 H 21.2045 2.10059 2.71533 0
M  V30 223 N 23.6496 -1.47581 0.552962 0
M  V30 224 C 24.8956 -2.02782 0.0273648 0
M  V30 225 C 25.2286 -1.42687 -1.31734 0
M  V30 226 O 24.5036 -0.580897 -1.85623 0
M  V30 227 C 24.7866 -3.60031 -0.0702371 0
M  V30 228 C 24.6396 -4.30566 1.30126 0
M  V30 229 C 25.9586 -4.33028 -0.785771 0
M  V30 230 H 23.0776 -0.736912 0.0114185 0
M  V30 231 H 25.7196 -1.76056 0.714432 0
M  V30 232 H 23.8696 -3.82932 -0.655382 0
M  V30 233 H 25.5416 -4.19018 1.92929 0
M  V30 234 H 23.7846 -3.91086 1.87709 0
M  V30 235 H 24.4556 -5.39114 1.18573 0
M  V30 236 H 26.9316 -4.15095 -0.288982 0
M  V30 237 H 25.8076 -5.42695 -0.823013 0
M  V30 238 H 26.0686 -4.01945 -1.841 0
M  V30 239 N 25.1277 -0.289203 -1.54924 0
M  V30 240 C 26.0377 0.601863 -2.26748 0
M  V30 241 C 27.0537 1.15834 -1.2984 0
M  V30 242 O 28.2297 1.18564 -1.62802 0
M  V30 243 C 25.2947 1.76299 -2.98529 0
M  V30 244 C 24.3557 1.24178 -4.10948 0
M  V30 245 C 23.5887 2.34757 -4.79296 0
M  V30 246 O 23.8117 3.54411 -4.46933 0
M  V30 247 O 22.7457 2.02115 -5.66951 0
M  V30 248 H 26.5717 0.0195879 -3.03694 0
M  V30 249 H 24.1567 -0.0560868 -1.49295 0
M  V30 250 H 26.0387 2.43973 -3.43592 0
M  V30 251 H 24.7137 2.33209 -2.24488 0
M  V30 252 H 23.6207 0.531104 -3.70311 0
M  V30 253 H 24.9537 0.718252 -4.86931 0
M  V30 254 N 26.6058 1.57591 -0.0167156 0
M  V30 255 C 27.5358 2.12496 0.967858 0
M  V30 256 C 28.5168 1.03807 1.34752 0
M  V30 257 O 29.7018 1.31577 1.42833 0
M  V30 258 C 26.8318 2.64194 2.25431 0
M  V30 259 C 25.7858 3.77559 2.01576 0
M  V30 260 C 25.1118 4.15636 3.36379 0
M  V30 261 C 26.4118 5.04151 1.36489 0
M  V30 262 H 28.1058 2.95013 0.510643 0
M  V30 263 H 25.6518 1.41915 0.244181 0
M  V30 264 H 27.6048 3.01236 2.94678 0
M  V30 265 H 26.3288 1.78821 2.73296 0
M  V30 266 H 24.9878 3.40937 1.34751 0
M  V30 267 H 24.6358 3.27263 3.81979 0
M  V30 268 H 24.3358 4.92022 3.21229 0
M  V30 269 H 25.8598 4.5525 4.06915 0
M  V30 270 H 27.2738 5.38857 1.95718 0
M  V30 271 H 25.6708 5.85453 1.31776 0
M  V30 272 H 26.7408 4.83733 0.336219 0
M  V30 273 N 28.0839 -0.256276 1.55502 0
M  V30 274 C 29.0139 -1.32102 1.92539 0
M  V30 275 C 29.9949 -1.50684 0.789194 0
M  V30 276 O 31.1799 -1.63449 1.04872 0
M  V30 277 C 28.3099 -2.67752 2.21192 0
M  V30 278 C 27.2639 -2.63878 3.36975 0
M  V30 279 C 26.5899 -4.03236 3.51147 0
M  V30 280 C 27.8899 -2.21682 4.72921 0
M  V30 281 H 29.5839 -1.01351 2.81724 0
M  V30 282 H 27.1299 -0.486105 1.35547 0
M  V30 283 H 29.0829 -3.42365 2.45691 0
M  V30 284 H 27.8069 -3.0012 1.28824 0
M  V30 285 H 26.4659 -1.91722 3.12471 0
M  V30 286 H 26.1139 -4.32854 2.56216 0
M  V30 287 H 25.8139 -4.01535 4.29003 0
M  V30 288 H 27.3379 -4.79563 3.77957 0
M  V30 289 H 28.7519 -2.86023 4.96854 0
M  V30 290 H 27.1489 -2.3111 5.53812 0
M  V30 291 H 28.2189 -1.16833 4.70615 0
M  V30 292 N 29.562 -1.4872 -0.521534 0
M  V30 293 C 30.51 -1.64328 -1.64618 0
M  V30 294 C 31.504 -0.50953 -1.61555 0
M  V30 295 O 32.71 -0.688525 -1.66311 0
M  V30 296 H 29.085 -0.517805 -0.545328 0
M  V30 297 H 31.056 -2.58767 -1.48601 0
M  V30 298 C 29.805 -1.70805 -3.02855 0
M  V30 299 H 29.128 -2.5741 -3.05909 0
M  V30 300 H 30.568 -1.85766 -3.81139 0
M  V30 301 C 29.027 -0.448479 -3.33902 0
M  V30 302 O 29.557 0.434928 -3.99339 0
M  V30 303 N 27.763 -0.317616 -2.88859 0
M  V30 304 H 27.31 -1.03748 -2.35784 0
M  V30 305 H 27.268 0.524113 -3.10001 0
M  V30 306 N 31.0401 0.771051 -1.3745 0
M  V30 307 C 32.4511 1.34737 -1.29239 0
M  V30 308 C 32.8021 1.96109 0.0596908 0
M  V30 309 O 31.9271 1.93865 0.961534 0
M  V30 310 C 32.5221 2.44973 -2.34037 0
M  V30 311 C 31.0811 2.98372 -2.29458 0
M  V30 312 C 30.2281 1.71595 -2.17831 0
M  V30 313 H 33.1791 0.571256 -1.48062 0
M  V30 314 H 33.2001 3.24471 -1.98744 0
M  V30 315 H 32.7121 2.00276 -3.32432 0
M  V30 316 H 30.8131 3.47443 -1.34589 0
M  V30 317 H 30.9261 3.53939 -3.229 0
M  V30 318 H 29.2901 1.94547 -1.64388 0
M  V30 319 H 30.0731 1.29001 -3.18141 0
M  V30 320 N 32.5182 1.22032 0.997298 0
M  V30 321 C 33.4812 0.987909 2.06816 0
M  V30 322 C 34.4812 -0.0440084 1.6074 0
M  V30 323 O 35.6712 0.194053 1.73116 0
M  V30 324 C 32.8032 0.49132 3.37341 0
M  V30 325 H 33.9962 1.93803 2.28868 0
M  V30 326 H 31.5492 1.03838 1.16822 0
M  V30 327 H 32.2842 -0.463364 3.20973 0
M  V30 328 H 32.0692 1.23575 3.72118 0
M  V30 329 H 33.5592 0.348824 4.16141 0
M  V30 330 N 33.9963 -1.19345 1.0293 0
M  V30 331 C 35.4123 -1.41069 0.746446 0
M  V30 332 C 35.6123 -1.90078 -0.668776 0
M  V30 333 O 34.6683 -2.0778 -1.4347 0
M  V30 334 C 35.9813 -2.42141 1.78292 0
M  V30 335 C 37.5293 -2.55887 1.80252 0
M  V30 336 C 38.0043 -3.60214 2.8286 0
M  V30 337 N 39.4953 -3.67711 2.81679 0
M  V30 338 C 40.2303 -4.48128 3.57727 0
M  V30 339 N 39.7263 -5.32248 4.43491 0
M  V30 340 N 41.5193 -4.42782 3.46267 0
M  V30 341 H 33.6703 -0.858536 1.94275 0
M  V30 342 H 35.9333 -0.439541 0.839945 0
M  V30 343 H 35.6393 -2.13155 2.79746 0
M  V30 344 H 35.5133 -3.41323 1.60557 0
M  V30 345 H 37.9003 -2.84196 0.794757 0
M  V30 346 H 37.9813 -1.56858 2.02062 0
M  V30 347 H 37.6253 -3.32647 3.83807 0
M  V30 348 H 37.5553 -4.58895 2.58307 0
M  V30 349 H 40.0463 -3.07634 2.19476 0
M  V30 350 H 40.3593 -5.90729 4.98256 0
M  V30 351 H 38.7043 -5.31707 4.47564 0
M  V30 352 H 41.8953 -3.76107 2.78677 0
M  V30 353 H 42.0683 -5.05215 4.05785 0
M  V30 354 N 35.4744 -0.807222 -1.35358 0
M  V30 355 C 36.7204 -0.388463 -1.99045 0
M  V30 356 C 37.0534 1.04184 -1.63888 0
M  V30 357 O 36.3284 1.72292 -0.902535 0
M  V30 358 C 36.6114 -0.572783 -3.55515 0
M  V30 359 C 36.4644 -2.04807 -4.00468 0
M  V30 360 C 37.7834 0.00114064 -4.401 0
M  V30 361 H 34.9024 -0.142619 -0.723069 0
M  V30 362 H 37.5444 -1.01687 -1.60498 0
M  V30 363 H 35.6944 -0.0378425 -3.88482 0
M  V30 364 H 37.3664 -2.64544 -3.77908 0
M  V30 365 H 35.6094 -2.54427 -3.51353 0
M  V30 366 H 36.2804 -2.12792 -5.09337 0
M  V30 367 H 38.7564 -0.455716 -4.13597 0
M  V30 368 H 37.6324 -0.157737 -5.48673 0
M  V30 369 H 37.8934 1.09488 -4.28328 0
M  V30 370 N 36.9525 1.47285 -0.560781 0
M  V30 371 C 37.9005 2.31756 0.197942 0
M  V30 372 C 38.8945 1.43146 0.905854 0
M  V30 373 O 40.1005 1.59891 0.826733 0
M  V30 374 H 36.4755 0.747438 0.0827049 0
M  V30 375 H 38.4465 2.9359 -0.533629 0
M  V30 376 C 37.1955 3.25874 1.21249 0
M  V30 377 H 36.5185 3.94023 0.67719 0
M  V30 378 H 37.9585 3.87803 1.71419 0
M  V30 379 C 36.4175 2.49651 2.26221 0
M  V30 380 O 36.9475 2.24355 3.33208 0
M  V30 381 N 35.1535 2.10597 2.00243 0
M  V30 382 H 34.7005 2.31369 1.13252 0
M  V30 383 H 34.6585 1.59913 2.70694 0
M  V30 384 N 38.4306 0.297415 1.54768 0
M  V30 385 C 39.3806 -0.595275 2.20092 0
M  V30 386 C 40.3646 -1.10163 1.17273 0
M  V30 387 O 41.5566 -1.043 1.43006 0
M  V30 388 C 38.6856 -1.7684 2.94249 0
M  V30 389 C 37.7716 -1.27818 4.0438 0
M  V30 390 N 38.1626 -0.505695 5.03266 0
M  V30 391 C 36.4606 -1.55923 4.17857 0
M  V30 392 C 37.1616 -0.245094 5.81183 0
M  V30 393 N 36.1376 -0.823881 5.3732 0
M  V30 394 H 39.9396 0.00250837 2.939 0
M  V30 395 H 37.4536 0.102007 1.62079 0
M  V30 396 H 39.4506 -2.41944 3.39513 0
M  V30 397 H 38.1106 -2.36992 2.21957 0
M  V30 398 H 39.1216 -0.150928 5.1768 0
M  V30 399 H 35.7986 -2.16849 3.56767 0
M  V30 400 H 37.1886 0.375084 6.70852 0
M  V30 401 N 39.9087 -1.5758 0.0250728 0
M  V30 402 C 40.8417 -2.05473 -0.992777 0
M  V30 403 C 41.8197 -0.949661 -1.31986 0
M  V30 404 O 43.0037 -1.21969 -1.43722 0
M  V30 405 C 40.1307 -2.4734 -2.31389 0
M  V30 406 C 39.1767 -3.68827 -2.1417 0
M  V30 407 S 40.0097 -5.15655 -1.44429 0
M  V30 408 C 41.1657 -5.60814 -2.77918 0
M  V30 409 H 41.3987 -2.91486 -0.585078 0
M  V30 410 H 38.9317 -1.53269 -0.186507 0
M  V30 411 H 40.8897 -2.72127 -3.07339 0
M  V30 412 H 39.5507 -1.6168 -2.69292 0
M  V30 413 H 38.7437 -3.95955 -3.11826 0
M  V30 414 H 38.3457 -3.44172 -1.46362 0
M  V30 415 H 40.6377 -5.64806 -3.74166 0
M  V30 416 H 41.5807 -6.60414 -2.55459 0
M  V30 417 H 41.9887 -4.8845 -2.82979 0
M  V30 418 N 41.3868 0.248026 -1.55636 0
M  V30 419 C 42.7978 0.817177 -1.67866 0
M  V30 420 C 43.1488 1.86069 -0.622322 0
M  V30 421 O 42.2738 2.15157 0.231618 0
M  V30 422 C 42.8688 1.489 -3.04326 0
M  V30 423 C 41.4278 2.00587 -3.185 0
M  V30 424 C 40.5748 0.856573 -2.63739 0
M  V30 425 H 43.5258 0.0238579 -1.58682 0
M  V30 426 H 43.5468 2.35698 -2.98708 0
M  V30 427 H 43.0588 0.729279 -3.81186 0
M  V30 428 H 41.1598 2.79443 -2.4646 0
M  V30 429 H 41.2728 2.20402 -4.25393 0
M  V30 430 H 39.6368 1.25678 -2.21534 0
M  V30 431 H 40.4198 0.109953 -3.43124 0
M  V30 432 N 42.8649 1.48995 0.513639 0
M  V30 433 C 44.0899 1.61792 1.29762 0
M  V30 434 C 44.5149 0.284475 1.85936 0
M  V30 435 O 43.8729 -0.746185 1.65232 0
M  V30 436 C 43.9209 2.67993 2.41272 0
M  V30 437 O 43.0249 2.26287 3.44772 0
M  V30 438 H 42.3659 0.541963 0.38363 0
M  V30 439 H 44.8959 1.95097 0.616307 0
M  V30 440 H 44.9059 2.89772 2.87221 0
M  V30 441 H 43.5809 3.64791 1.9975 0
M  V30 442 H 42.1579 2.14788 3.04829 0
M  V30 443 N 44.343 -0.763751 1.37857 0
M  V30 444 C 45.571 -1.55293 1.36718 0
M  V30 445 C 45.986 -1.88745 -0.0455434 0
M  V30 446 O 45.343 -1.52039 -1.00947 0
M  V30 447 C 45.394 -2.85831 2.2132 0
M  V30 448 O 45.115 -2.5381 3.57089 0
M  V30 449 C 46.616 -3.80023 2.28249 0
M  V30 450 H 43.836 -0.480841 0.468009 0
M  V30 451 H 46.38 -0.946009 1.81303 0
M  V30 452 H 44.535 -3.42926 1.80223 0
M  V30 453 H 44.949 -3.37459 4.01524 0
M  V30 454 H 46.423 -4.68599 2.91752 0
M  V30 455 H 46.9 -4.1973 1.2932 0
M  V30 456 H 47.506 -3.28855 2.69693 0
M  V30 457 N 45.8211 -1.22559 -0.990812 0
M  V30 458 C 47.0671 -1.05297 -1.73322 0
M  V30 459 C 47.4001 0.410655 -1.89808 0
M  V30 460 O 46.6751 1.30439 -1.44277 0
M  V30 461 C 46.9581 -1.76713 -3.13759 0
M  V30 462 C 46.8111 -3.30684 -3.04907 0
M  V30 463 C 48.1301 -1.52121 -4.12974 0
M  V30 464 H 45.2491 -0.38392 -0.629106 0
M  V30 465 H 47.8911 -1.50926 -1.15418 0
M  V30 466 H 46.0411 -1.37924 -3.63193 0
M  V30 467 H 47.7131 -3.7893 -2.63077 0
M  V30 468 H 45.9561 -3.60253 -2.41661 0
M  V30 469 H 46.6271 -3.75833 -4.04294 0
M  V30 470 H 49.1031 -1.85819 -3.72304 0
M  V30 471 H 47.9791 -2.04582 -5.0935 0
M  V30 472 H 48.2401 -0.454257 -4.3976 0
M  V30 473 N 47.2992 1.18797 -1.03562 0
M  V30 474 C 48.5762 1.84469 -0.650434 0
M  V30 475 C 48.9562 1.92319 0.870433 0
M  V30 476 O 48.3042 1.44528 1.76986 0
M  V30 477 C 48.5142 3.2306 -1.32036 0
M  V30 478 C 49.8622 3.9915 -1.44792 0
M  V30 479 O 50.8862 3.32481 -1.27806 0
M  V30 480 O 49.7452 5.18587 -1.72423 0
M  V30 481 H 46.8392 0.795251 -0.226946 0
M  V30 482 H 49.3852 1.26231 -1.13419 0
M  V30 483 H 48.1572 3.1222 -2.3587 0
M  V30 484 H 47.7802 3.88949 -0.8249 0
M  V30 485 N 48.7773 0.814389 1.34928 0
M  V30 486 C 50.0233 0.399013 1.98836 0
M  V30 487 C 50.3563 -1.03314 1.64438 0
M  V30 488 O 49.6313 -1.71811 0.911659 0
M  V30 489 C 49.9143 0.591629 3.55207 0
M  V30 490 C 49.7673 2.06928 3.99376 0
M  V30 491 C 51.0863 0.022199 4.40094 0
M  V30 492 H 48.2053 0.146451 0.722303 0
M  V30 493 H 50.8473 1.02537 1.59957 0
M  V30 494 H 48.9973 0.0584441 3.88456 0
M  V30 495 H 50.6693 2.66544 3.76499 0
M  V30 496 H 48.9123 2.56287 3.49999 0
M  V30 497 H 49.5833 2.1549 5.08201 0
M  V30 498 H 52.0593 0.477643 4.13349 0
M  V30 499 H 50.9353 0.186832 5.48582 0
M  V30 500 H 51.1963 -1.07215 4.28902 0
M  V30 501 N 50.2554 -1.46986 0.568584 0
M  V30 502 C 51.2184 -2.28624 -0.162366 0
M  V30 503 C 52.2184 -1.37596 -0.832103 0
M  V30 504 O 53.4084 -1.60115 -0.68622 0
M  V30 505 C 50.5404 -3.17596 -1.23878 0
M  V30 506 H 51.7334 -2.94722 0.554899 0
M  V30 507 H 49.2864 -1.52863 0.325976 0
M  V30 508 H 50.0214 -2.56214 -1.98808 0
M  V30 509 H 49.8064 -3.846 -0.763219 0
M  V30 510 H 51.2964 -3.79078 -1.75185 0
M  V30 511 N 51.7335 -0.305618 -1.54608 0
M  V30 512 C 52.9615 0.304775 -2.04643 0
M  V30 513 C 53.3765 1.47167 -1.18268 0
M  V30 514 O 52.7335 1.81296 -0.209328 0
M  V30 515 C 52.7845 0.756564 -3.53495 0
M  V30 516 O 52.5055 -0.36389 -4.36586 0
M  V30 517 C 54.0065 1.43163 -4.19546 0
M  V30 518 H 51.2265 0.0655481 -0.667791 0
M  V30 519 H 53.7705 -0.446592 -1.99564 0
M  V30 520 H 51.9255 1.45794 -3.58919 0
M  V30 521 H 52.3395 -0.0113121 -5.24499 0
M  V30 522 H 53.8135 1.69886 -5.25207 0
M  V30 523 H 54.2905 2.37318 -3.69563 0
M  V30 524 H 54.8965 0.773307 -4.18211 0
M  V30 525 N 53.2116 1.57565 -0.0334293 0
M  V30 526 C 54.1746 2.09393 0.932048 0
M  V30 527 C 55.1746 1.00986 1.25134 0
M  V30 528 O 56.3646 1.27129 1.19096 0
M  V30 529 C 53.4966 2.56338 2.2473 0
M  V30 530 H 54.6896 2.95984 0.483085 0
M  V30 531 H 52.2426 1.54819 0.21468 0
M  V30 532 H 52.9776 1.7309 2.74245 0
M  V30 533 H 52.7626 3.35542 2.02865 0
M  V30 534 H 54.2526 2.96646 2.93923 0
M  V30 535 N 54.6897 -0.239769 1.55765 0
M  V30 536 C 55.6197 -1.30052 1.9393 0
M  V30 537 C 56.6007 -1.49839 0.805132 0
M  V30 538 O 57.7857 -1.62328 1.06599 0
M  V30 539 C 54.9157 -2.65391 2.2402 0
M  V30 540 C 53.8697 -2.60289 3.39755 0
M  V30 541 C 53.1957 -3.99489 3.55405 0
M  V30 542 C 54.4957 -2.16654 4.75246 0
M  V30 543 H 56.1897 -0.983573 2.82783 0
M  V30 544 H 53.7357 -0.471701 1.36055 0
M  V30 545 H 55.6887 -3.3974 2.49308 0
M  V30 546 H 54.4127 -2.98736 1.32 0
M  V30 547 H 53.0717 -1.88398 3.14487 0
M  V30 548 H 52.7197 -4.30112 2.60793 0
M  V30 549 H 52.4197 -3.96962 4.33238 0
M  V30 550 H 53.9437 -4.75528 3.83022 0
M  V30 551 H 55.3577 -2.80737 4.99859 0
M  V30 552 H 53.7547 -2.25223 5.56232 0
M  V30 553 H 54.8247 -1.11835 4.71827 0
M  V30 554 N 56.1678 -1.49265 -0.50573 0
M  V30 555 C 57.5788 -1.51769 -1.08734 0
M  V30 556 C 57.9298 -0.301192 -1.93874 0
M  V30 557 O 57.0548 0.589456 -2.08217 0
M  V30 558 C 57.6498 -2.75017 -1.97867 0
M  V30 559 C 56.2088 -2.80314 -2.51199 0
M  V30 560 C 55.3558 -2.4562 -1.28709 0
M  V30 561 H 58.3068 -1.56031 -0.289855 0
M  V30 562 H 58.3278 -2.5491 -2.82491 0
M  V30 563 H 57.8398 -3.63539 -1.35873 0
M  V30 564 H 55.9408 -1.96061 -3.16845 0
M  V30 565 H 56.0538 -3.82366 -2.88675 0
M  V30 566 H 54.4178 -1.97297 -1.61078 0
M  V30 567 H 55.2008 -3.36411 -0.6843 0
M  V30 568 N 57.6459 0.756429 -1.3826 0
M  V30 569 C 58.5759 1.88374 -1.37976 0
M  V30 570 C 59.5569 1.68311 -0.246082 0
M  V30 571 O 60.7419 1.88944 -0.44874 0
M  V30 572 C 57.8719 3.25864 -1.20125 0
M  V30 573 C 56.8259 3.60523 -2.30666 0
M  V30 574 C 56.1519 4.9672 -1.97923 0
M  V30 575 C 57.4519 3.65692 -3.72916 0
M  V30 576 H 59.1459 1.88869 -2.32312 0
M  V30 577 H 56.6919 0.907272 -1.11824 0
M  V30 578 H 58.6449 4.0438 -1.18552 0
M  V30 579 H 57.3689 3.25841 -0.222498 0
M  V30 580 H 56.0279 2.84324 -2.3142 0
M  V30 581 H 55.6759 4.93253 -0.985393 0
M  V30 582 H 55.3759 5.20878 -2.71955 0
M  V30 583 H 56.8999 5.77618 -1.97964 0
M  V30 584 H 58.3139 4.34328 -3.74208 0
M  V30 585 H 56.7109 4.01358 -4.4613 0
M  V30 586 H 57.7809 2.65987 -4.05436 0
M  V30 587 N 59.124 1.23083 0.984299 0
M  V30 588 C 60.056 0.96636 2.07832 0
M  V30 589 C 61.069 -0.0582135 1.62696 0
M  V30 590 O 62.258 0.176843 1.77622 0
M  V30 591 C 59.358 0.433397 3.36117 0
M  V30 592 C 58.531 1.51722 4.10243 0
M  V30 593 C 57.59 0.989821 5.16807 0
M  V30 594 O 56.616 1.67794 5.43906 0
M  V30 595 N 57.818 -0.184367 5.80207 0
M  V30 596 H 60.583 1.90824 2.31098 0
M  V30 597 H 58.144 1.13888 1.1507 0
M  V30 598 H 60.136 0.065699 4.04647 0
M  V30 599 H 58.706 -0.413806 3.09849 0
M  V30 600 H 57.926 2.05786 3.36223 0
M  V30 601 H 59.214 2.24619 4.56534 0
M  V30 602 H 58.612 -0.760062 5.60571 0
M  V30 603 H 57.169 -0.493366 6.4993 0
M  V30 604 N 60.6021 -1.18246 1.0419 0
M  V30 605 C 61.8481 -1.88536 0.747122 0
M  V30 606 C 62.1811 -1.80223 -0.723409 0
M  V30 607 O 61.4561 -1.20337 -1.52804 0
M  V30 608 C 61.7391 -3.38968 1.21544 0
M  V30 609 C 61.5921 -3.56084 2.74816 0
M  V30 610 C 62.9111 -4.32648 0.806482 0
M  V30 611 H 60.0301 -0.684619 0.272883 0
M  V30 612 H 62.6721 -1.39113 1.29413 0
M  V30 613 H 60.8221 -3.8119 0.750081 0
M  V30 614 H 62.4941 -3.22946 3.29399 0
M  V30 615 H 60.7371 -2.98699 3.14582 0
M  V30 616 H 61.4081 -4.61639 3.02644 0
M  V30 617 H 63.8841 -3.98211 1.20695 0
M  V30 618 H 62.7601 -5.36462 1.1619 0
M  V30 619 H 63.0211 -4.41146 -0.29029 0
M  V30 620 N 62.0802 -0.821533 -1.34494 0
M  V30 621 C 63.0432 -0.247847 -2.27856 0
M  V30 622 C 64.0432 0.573453 -1.50227 0
M  V30 623 O 65.2332 0.389759 -1.69784 0
M  V30 624 C 62.3652 0.652698 -3.34593 0
M  V30 625 H 63.5582 -1.07146 -2.80107 0
M  V30 626 H 61.1112 -0.593291 -1.44602 0
M  V30 627 H 61.8462 1.49943 -2.87555 0
M  V30 628 H 61.6312 0.065292 -3.92046 0
M  V30 629 H 63.1212 1.04793 -4.04238 0
M  V30 630 N 63.5583 1.46682 -0.576371 0
M  V30 631 C 64.9693 1.86112 -0.148091 0
M  V30 632 C 65.3203 1.48073 1.2872 0
M  V30 633 O 64.4453 0.892656 1.97131 0
M  V30 634 C 65.0403 3.37786 -0.261982 0
M  V30 635 C 63.5993 3.76235 0.111384 0
M  V30 636 C 62.7463 2.70713 -0.60083 0
M  V30 637 H 65.6973 1.37927 -0.78497 0
M  V30 638 H 65.7183 3.77007 0.514364 0
M  V30 639 H 65.2303 3.6544 -1.30671 0
M  V30 640 H 63.3313 3.54198 1.15649 0
M  V30 641 H 63.4443 4.78391 -0.26052 0
M  V30 642 H 61.8083 2.54666 -0.0417783 0
M  V30 643 H 62.5913 3.01208 -1.64708 0
M  V30 644 N 65.0364 0.313813 1.54444 0
M  V30 645 C 66.2614 -0.296681 2.05267 0
M  V30 646 C 66.6864 -1.45757 1.18897 0
M  V30 647 O 66.0444 -1.80239 0.195886 0
M  V30 648 C 66.0924 -0.71831 3.53373 0
M  V30 649 O 65.1964 -1.82175 3.69981 0
M  V30 650 H 64.5374 -0.0554061 0.661684 0
M  V30 651 H 67.0674 0.459387 1.99376 0
M  V30 652 H 67.0774 -1.00364 3.95463 0
M  V30 653 H 65.7524 0.130821 4.15694 0
M  V30 654 H 64.3294 -1.53598 3.39797 0
M  V30 655 N 66.5145 -1.57545 0.0417849 0
M  V30 656 C 67.4775 -2.09885 -0.92093 0
M  V30 657 C 68.4775 -1.01648 -1.24596 0
M  V30 658 O 69.6675 -1.27759 -1.1842 0
M  V30 659 C 66.7995 -2.57527 -2.23367 0
M  V30 660 H 67.9925 -2.96236 -0.467382 0
M  V30 661 H 65.5455 -1.5493 -0.206467 0
M  V30 662 H 66.2805 -1.74542 -2.73323 0
M  V30 663 H 66.0655 -3.36613 -2.01083 0
M  V30 664 H 67.5555 -2.98201 -2.92346 0
M  V30 665 N 67.9926 0.231505 -1.5589 0
M  V30 666 C 69.2386 0.95877 -1.78705 0
M  V30 667 C 69.5716 1.8438 -0.609725 0
M  V30 668 O 68.8466 1.90521 0.391426 0
M  V30 669 C 69.1296 1.8062 -3.11526 0
M  V30 670 C 68.9826 0.948328 -4.39689 0
M  V30 671 C 70.3016 2.78585 -3.40703 0
M  V30 672 H 67.4206 0.347129 -0.650131 0
M  V30 673 H 70.0626 0.228259 -1.88624 0
M  V30 674 H 68.2126 2.42902 -3.03201 0
M  V30 675 H 69.8846 0.343016 -4.60023 0
M  V30 676 H 68.1276 0.253314 -4.3306 0
M  V30 677 H 68.7986 1.57543 -5.29041 0
M  V30 678 H 71.2746 2.26439 -3.49091 0
M  V30 679 H 70.1506 3.34988 -4.34826 0
M  V30 680 H 70.4116 3.55825 -2.62375 0
M  V30 681 N 69.4707 1.49531 0.497807 0
M  V30 682 C 70.8817 1.52344 1.07927 0
M  V30 683 C 71.2327 0.311469 1.93712 0
M  V30 684 O 70.3577 -0.578405 2.08527 0
M  V30 685 C 70.9527 2.76062 1.96405 0
M  V30 686 C 69.5117 2.81643 2.49709 0
M  V30 687 C 68.6587 2.46299 1.27404 0
M  V30 688 H 71.6097 1.56182 0.281576 0
M  V30 689 H 71.6307 2.56405 2.81135 0
M  V30 690 H 71.1427 3.64254 1.33943 0
M  V30 691 H 69.2437 1.97739 3.15801 0
M  V30 692 H 69.3567 3.83891 2.86643 0
M  V30 693 H 67.7207 1.98148 1.60029 0
M  V30 694 H 68.5037 3.36769 0.66645 0
M  V30 695 N 70.9488 -0.749086 1.3866 0
M  V30 696 C 71.8818 -1.87111 1.30631 0
M  V30 697 C 72.8598 -1.61572 0.18251 0
M  V30 698 O 74.0438 -1.85019 0.360592 0
M  V30 699 C 71.1708 -3.22815 1.02511 0
M  V30 700 C 70.2168 -3.67234 2.1689 0
M  V30 701 S 71.0498 -3.78245 3.79066 0
M  V30 702 C 72.2058 -5.16761 3.53142 0
M  V30 703 H 72.4388 -1.93636 2.25594 0
M  V30 704 H 69.9718 -0.912525 1.24549 0
M  V30 705 H 71.9298 -4.01181 0.869701 0
M  V30 706 H 70.5908 -3.13964 0.0925884 0
M  V30 707 H 69.7838 -4.65677 1.92771 0
M  V30 708 H 69.3858 -2.96034 2.28561 0
M  V30 709 H 71.6778 -6.02656 3.09534 0
M  V30 710 H 72.6208 -5.45902 4.50995 0
M  V30 711 H 73.0288 -4.85771 2.87554 0
M  V30 712 N 72.4269 -1.23603 -0.977757 0
M  V30 713 C 73.7039 -0.977897 -1.69401 0
M  V30 714 C 74.0839 0.502738 -2.05026 0
M  V30 715 O 73.4319 1.47459 -1.74551 0
M  V30 716 C 73.6419 -1.89077 -2.93345 0
M  V30 717 C 74.9899 -2.15579 -3.65802 0
M  V30 718 O 76.0139 -1.86648 -3.03383 0
M  V30 719 O 74.8729 -2.64658 -4.78141 0
M  V30 720 H 71.9669 -0.369025 -0.740101 0
M  V30 721 H 74.5129 -1.34657 -1.03274 0
M  V30 722 H 73.2849 -2.89158 -2.63634 0
M  V30 723 H 72.9079 -1.52463 -3.67207 0
M  V30 724 N 73.905 1.17692 -1.04816 0
M  V30 725 C 74.835 2.23777 -0.666791 0
M  V30 726 C 75.816 1.66796 0.33361 0
M  V30 727 O 77.001 1.93039 0.212042 0
M  V30 728 C 74.131 3.47281 -0.0367933 0
M  V30 729 C 73.085 4.17059 -0.961546 0
M  V30 730 C 72.411 5.34342 -0.195626 0
M  V30 731 C 73.711 4.69713 -2.28402 0
M  V30 732 H 75.405 2.55933 -1.55367 0
M  V30 733 H 72.951 1.23019 -0.748484 0
M  V30 734 H 74.904 4.20706 0.241775 0
M  V30 735 H 73.628 3.14381 0.885004 0
M  V30 736 H 72.287 3.45541 -1.22462 0
M  V30 737 H 71.935 4.97692 0.728816 0
M  V30 738 H 71.635 5.81966 -0.811775 0
M  V30 739 H 73.159 6.10553 0.0757473 0
M  V30 740 H 74.573 5.34794 -2.06563 0
M  V30 741 H 72.97 5.279 -2.8538 0
M  V30 742 H 74.04 3.86726 -2.92525 0
M  V30 743 N 75.3831 0.828654 1.34056 0
M  V30 744 C 76.7991 0.515135 1.51058 0
M  V30 745 C 76.9991 -0.959581 1.77184 0
M  V30 746 O 76.0551 -1.74382 1.82612 0
M  V30 747 C 77.3681 1.37963 2.67183 0
M  V30 748 C 78.9161 1.37735 2.81066 0
M  V30 749 C 79.3911 2.22645 4.00241 0
M  V30 750 N 80.8821 2.203 4.07458 0
M  V30 751 C 81.6171 2.82744 4.98842 0
M  V30 752 N 81.1131 3.54201 5.9541 0
M  V30 753 N 82.9061 2.72268 4.91759 0
M  V30 754 H 75.0571 1.78343 1.15358 0
M  V30 755 H 77.3201 0.760304 0.566252 0
M  V30 756 H 77.0261 2.42714 2.54525 0
M  V30 757 H 76.9001 1.0484 3.62338 0
M  V30 758 H 79.2871 0.337593 2.93163 0
M  V30 759 H 79.3681 1.74859 1.86703 0
M  V30 760 H 79.0121 3.26674 3.88905 0
M  V30 761 H 78.9421 1.82869 4.93829 0
M  V30 762 H 81.4331 1.68327 3.38341 0
M  V30 763 H 81.7461 3.9908 6.61782 0
M  V30 764 H 80.0911 3.58308 5.95517 0
M  V30 765 H 83.2821 2.16014 4.15278 0
M  V30 766 H 83.4551 3.21219 5.62781 0
M  V30 767 N 76.8612 -1.46375 0.584142 0
M  V30 768 C 77.7912 -2.33103 -0.136037 0
M  V30 769 C 78.7722 -1.45431 -0.882255 0
M  V30 770 O 79.9572 -1.74246 -0.857434 0
M  V30 771 C 77.0872 -3.27731 -1.14933 0
M  V30 772 C 76.0412 -4.24855 -0.517862 0
M  V30 773 C 75.3672 -5.09001 -1.63773 0
M  V30 774 C 76.6672 -5.19439 0.545886 0
M  V30 775 H 78.3612 -2.93568 0.588086 0
M  V30 776 H 75.9072 -1.41166 0.284259 0
M  V30 777 H 77.8602 -3.87261 -1.66153 0
M  V30 778 H 76.5842 -2.65377 -1.90375 0
M  V30 779 H 75.2432 -3.6659 -0.0267361 0
M  V30 780 H 74.8912 -4.43031 -2.38185 0
M  V30 781 H 74.5912 -5.74777 -1.22085 0
M  V30 782 H 76.1152 -5.71396 -2.15266 0
M  V30 783 H 77.5292 -5.73177 0.118704 0
M  V30 784 H 75.9262 -5.93566 0.88317 0
M  V30 785 H 76.9962 -4.63285 1.43162 0
M  V30 786 N 78.3393 -0.321999 -1.54275 0
M  V30 787 C 79.6163 0.335232 -1.92706 0
M  V30 788 C 79.9963 1.70006 -1.25145 0
M  V30 789 O 79.3443 2.25067 -0.394596 0
M  V30 790 C 79.5543 0.429008 -3.46353 0
M  V30 791 C 80.9023 0.690029 -4.18956 0
M  V30 792 O 81.9263 0.511992 -3.52501 0
M  V30 793 O 80.7853 1.03338 -5.36641 0
M  V30 794 H 77.8793 0.191143 -0.804608 0
M  V30 795 H 80.4253 -0.3716 -1.65581 0
M  V30 796 H 79.1973 -0.529611 -3.87699 0
M  V30 797 H 78.8203 1.18348 -3.79578 0
M  V30 798 N 79.8174 1.5752 -0.0501392 0
M  V30 799 C 80.7674 2.07981 0.934231 0
M  V30 800 C 81.7514 0.984745 1.27246 0
M  V30 801 O 82.9434 1.24809 1.25506 0
M  V30 802 C 80.0724 2.62751 2.20945 0
M  V30 803 C 79.1584 3.79225 1.89865 0
M  V30 804 N 79.5494 4.89036 1.29142 0
M  V30 805 C 77.8474 3.88111 2.19741 0
M  V30 806 C 78.5484 5.70084 1.15669 0
M  V30 807 N 77.5244 5.17659 1.65923 0
M  V30 808 H 81.3264 2.90277 0.460053 0
M  V30 809 H 78.8404 1.61665 0.15434 0
M  V30 810 H 80.8374 2.97205 2.9236 0
M  V30 811 H 79.4974 1.81894 2.6897 0
M  V30 812 H 80.5084 5.08854 0.963756 0
M  V30 813 H 77.1854 3.18194 2.70293 0
M  V30 814 H 78.5754 6.68395 0.685356 0
M  V30 815 N 81.2955 -0.223234 1.56011 0
M  V30 816 C 82.2275 -1.30006 1.88762 0
M  V30 817 C 83.2405 -1.43129 0.775746 0
M  V30 818 O 84.4295 -1.44057 1.05403 0
M  V30 819 C 81.5295 -2.67589 2.07965 0
M  V30 820 C 80.7025 -2.76434 3.38973 0
M  V30 821 C 79.7615 -3.95019 3.47629 0
M  V30 822 O 78.7875 -3.83436 4.20672 0
M  V30 823 N 79.9895 -5.09249 2.78649 0
M  V30 824 H 82.7545 -1.02238 2.81722 0
M  V30 825 H 80.3155 -0.413278 1.56536 0
M  V30 826 H 82.3075 -3.45297 2.11073 0
M  V30 827 H 80.8775 -2.87964 1.21638 0
M  V30 828 H 80.0975 -1.85216 3.47978 0
M  V30 829 H 81.3855 -2.79313 4.25278 0
M  V30 830 H 80.7835 -5.21556 2.19081 0
M  V30 831 H 79.3405 -5.85007 2.8742 0
M  V30 832 N 82.7736 -1.49793 -0.48987 0
M  V30 833 C 84.0206 -1.59841 -1.24327 0
M  V30 834 C 84.3486 -0.290135 -1.92324 0
M  V30 835 O 83.6036 0.722749 -1.81865 0
M  V30 836 C 83.9026 -2.71488 -2.32441 0
M  V30 837 C 83.5686 -4.12614 -1.81826 0
M  V30 838 C 82.2306 -4.51017 -1.67742 0
M  V30 839 C 84.5826 -5.00892 -1.4407 0
M  V30 840 C 81.9106 -5.75459 -1.14297 0
M  V30 841 C 84.2626 -6.25863 -0.920742 0
M  V30 842 C 82.9266 -6.63086 -0.766383 0
M  V30 843 H 82.1966 -0.584899 -0.454944 0
M  V30 844 H 84.8436 -1.83663 -0.542215 0
M  V30 845 H 83.1486 -2.4168 -3.0838 0
M  V30 846 H 84.8456 -2.76469 -2.90458 0
M  V30 847 H 81.4356 -3.82307 -1.93751 0
M  V30 848 H 85.6196 -4.7187 -1.53794 0
M  V30 849 H 80.8756 -6.02989 -1.01068 0
M  V30 850 H 85.0496 -6.9364 -0.619448 0
M  V30 851 H 82.6766 -7.59393 -0.350083 0
M  V30 852 N 84.2517 0.741722 -1.39055 0
M  V30 853 C 85.4767 1.53607 -1.39354 0
M  V30 854 C 85.9017 1.88096 0.0116905 0
M  V30 855 O 85.2597 1.5143 0.996924 0
M  V30 856 C 85.3077 2.80441 -2.26682 0
M  V30 857 O 84.4117 3.76088 -1.69208 0
M  V30 858 H 83.7527 0.464142 -0.474835 0
M  V30 859 H 86.2827 0.915665 -1.82967 0
M  V30 860 H 86.2927 3.29246 -2.40959 0
M  V30 861 H 84.9677 2.5467 -3.2881 0
M  V30 862 H 83.5447 3.34833 -1.64138 0
M  V30 863 N 85.7298 1.2412 0.971189 0
M  V30 864 C 86.6598 1.05508 2.08304 0
M  V30 865 C 87.6408 -0.0308864 1.70072 0
M  V30 866 O 88.8258 0.135521 1.93727 0
M  V30 867 C 85.9558 0.655365 3.4106 0
M  V30 868 C 84.9098 1.68971 3.93234 0
M  V30 869 C 84.2358 1.14516 5.22293 0
M  V30 870 C 85.5358 3.08487 4.21465 0
M  V30 871 H 87.2298 1.98507 2.24132 0
M  V30 872 H 84.7758 0.955821 1.07704 0
M  V30 873 H 86.7288 0.51217 4.18276 0
M  V30 874 H 85.4528 -0.31032 3.25122 0
M  V30 875 H 84.1118 1.82106 3.18171 0
M  V30 876 H 83.7598 0.170189 5.02712 0
M  V30 877 H 83.4598 1.83635 5.58168 0
M  V30 878 H 84.9838 1.01401 6.02121 0
M  V30 879 H 86.3978 2.98601 4.89398 0
M  V30 880 H 84.7948 3.74926 4.68562 0
M  V30 881 H 85.8648 3.56787 3.28376 0
M  V30 882 N 87.2079 -1.17134 1.05439 0
M  V30 883 C 88.6189 -1.69084 0.791676 0
M  V30 884 C 88.9699 -1.83822 -0.685839 0
M  V30 885 O 88.0949 -1.52757 -1.53278 0
M  V30 886 C 88.6899 -3.07119 1.4305 0
M  V30 887 C 87.2489 -3.56225 1.21577 0
M  V30 888 C 86.3959 -2.32421 1.51247 0
M  V30 889 H 89.3469 -1.01617 1.219 0
M  V30 890 H 89.3679 -3.71087 0.84112 0
M  V30 891 H 88.8799 -2.9636 2.50584 0
M  V30 892 H 86.9809 -3.72257 0.159787 0
M  V30 893 H 87.0939 -4.38837 1.92246 0
M  V30 894 H 85.4579 -2.3701 0.932653 0
M  V30 895 H 86.2409 -2.24268 2.5992 0
M  V30 896 N 88.686 -0.835752 -1.33615 0
M  V30 897 C 89.932 -0.430596 -1.98176 0
M  V30 898 C 90.265 1.00684 -1.66061 0
M  V30 899 O 89.54 1.70339 -0.938877 0
M  V30 900 C 89.823 -0.648065 -3.5422 0
M  V30 901 C 89.676 -2.13255 -3.96033 0
M  V30 902 C 90.995 -0.0922113 -4.40003 0
M  V30 903 H 88.114 -0.157924 -0.719881 0
M  V30 904 H 90.756 -1.05069 -1.58305 0
M  V30 905 H 88.906 -0.120237 -3.88314 0
M  V30 906 H 90.578 -2.725 -3.72211 0
M  V30 907 H 88.821 -2.61823 -3.45878 0
M  V30 908 H 89.492 -2.23547 -5.04708 0
M  V30 909 H 91.968 -0.543343 -4.12537 0
M  V30 910 H 90.844 -0.274083 -5.48215 0
M  V30 911 H 91.105 1.00378 -4.30554 0
M  V30 912 N 90.1641 1.46063 -0.591896 0
M  V30 913 C 91.1271 2.28854 0.125973 0
M  V30 914 C 92.1271 1.38903 0.810107 0
M  V30 915 O 93.3171 1.61186 0.66066 0
M  V30 916 C 90.4491 3.19526 1.1881 0
M  V30 917 H 91.6421 2.93802 -0.601717 0
M  V30 918 H 89.1951 1.52325 -0.350254 0
M  V30 919 H 89.9301 2.59345 1.94707 0
M  V30 920 H 89.7151 3.85766 0.701936 0
M  V30 921 H 91.2051 3.81817 1.69132 0
M  V30 922 N 91.6422 0.330177 1.54103 0
M  V30 923 C 92.5522 -0.541534 2.28264 0
M  V30 924 C 93.5682 -1.12351 1.32866 0
M  V30 925 O 94.7442 -1.14206 1.65888 0
M  V30 926 C 91.8092 -1.68322 3.03098 0
M  V30 927 C 90.8702 -1.13238 4.14096 0
M  V30 928 C 90.1032 -2.21966 4.85352 0
M  V30 929 O 90.3262 -3.42437 4.56172 0
M  V30 930 O 89.2602 -1.87013 5.7211 0
M  V30 931 H 93.0862 0.060938 3.03639 0
M  V30 932 H 90.6712 0.09565 1.49093 0
M  V30 933 H 92.5532 -2.34777 3.49939 0
M  V30 934 H 91.2282 -2.27176 2.30593 0
M  V30 935 H 90.1352 -0.432736 3.71589 0
M  V30 936 H 91.4682 -0.588898 4.88664 0
M  V30 937 N 93.1203 -1.57491 0.0584922 0
M  V30 938 C 94.5313 -1.80526 -0.476138 0
M  V30 939 C 94.8823 -0.971334 -1.70469 0
M  V30 940 O 94.0073 -0.190012 -2.15564 0
M  V30 941 C 94.6023 -3.27424 -0.870587 0
M  V30 942 C 93.1613 -3.51351 -1.35015 0
M  V30 943 C 92.3083 -2.75343 -0.32887 0
M  V30 944 H 95.2593 -1.56133 0.284312 0
M  V30 945 H 95.2803 -3.38745 -1.73299 0
M  V30 946 H 94.7923 -3.88093 0.0237627 0
M  V30 947 H 92.8933 -2.95971 -2.26345 0
M  V30 948 H 93.0063 -4.60059 -1.33726 0
M  V30 949 H 91.3703 -2.417 -0.803321 0
M  V30 950 H 92.1533 -3.38743 0.557521 0
M  V30 951 N 94.5984 0.214957 -1.56127 0
M  V30 952 C 95.5614 1.24997 -1.92116 0
M  V30 953 C 96.5614 1.39467 -0.800344 0
M  V30 954 O 97.7514 1.37619 -1.06802 0
M  V30 955 C 94.8834 2.62271 -2.17777 0
M  V30 956 H 96.0764 0.942875 -2.84693 0
M  V30 957 H 93.6294 0.455654 -1.49511 0
M  V30 958 H 94.3644 2.98068 -1.27773 0
M  V30 959 H 94.1494 2.53143 -2.99434 0
M  V30 960 H 95.6394 3.36946 -2.46693 0
M  V30 961 N 96.0765 1.50051 0.48192 0
M  V30 962 C 97.0065 1.71046 1.58951 0
M  V30 963 C 97.9875 0.559288 1.60642 0
M  V30 964 O 99.1725 0.797243 1.77081 0
M  V30 965 C 96.3025 1.79462 2.97339 0
M  V30 966 C 95.2565 2.94558 3.10515 0
M  V30 967 C 94.5825 2.88105 4.50444 0
M  V30 968 C 95.8825 4.35227 2.88747 0
M  V30 969 H 97.5765 2.6378 1.41635 0
M  V30 970 H 95.1225 1.26936 0.679942 0
M  V30 971 H 97.0755 1.92734 3.74742 0
M  V30 972 H 95.7995 0.833412 3.15788 0
M  V30 973 H 94.4585 2.80918 2.35543 0
M  V30 974 H 94.1065 1.89853 4.65795 0
M  V30 975 H 93.8065 3.65366 4.60197 0
M  V30 976 H 95.3305 3.03412 5.29881 0
M  V30 977 H 96.7445 4.49449 3.55905 0
M  V30 978 H 95.1415 5.13856 3.09955 0
M  V30 979 H 96.2115 4.48347 1.84696 0
M  V30 980 N 97.5546 -0.734337 1.39446 0
M  V30 981 C 98.9706 -1.03997 1.21065 0
M  V30 982 C 99.1706 -2.01369 0.0727019 0
M  V30 983 O 98.2266 -2.45856 -0.575426 0
M  V30 984 C 99.5396 -1.60163 2.54496 0
M  V30 985 C 101.088 -1.7224 2.61347 0
M  V30 986 C 101.563 -2.31814 3.95002 0
M  V30 987 N 103.054 -2.39223 3.96644 0
M  V30 988 C 103.789 -2.86258 4.96834 0
M  V30 989 N 103.285 -3.33184 6.07421 0
M  V30 990 N 105.078 -2.85473 4.84213 0
M  V30 991 H 97.2286 -0.0885624 2.12215 0
M  V30 992 H 99.4916 -0.10191 0.942506 0
M  V30 993 H 99.1976 -0.960811 3.38321 0
M  V30 994 H 99.0716 -2.5896 2.74262 0
M  V30 995 H 101.459 -2.35443 1.77906 0
M  V30 996 H 101.54 -0.720939 2.4543 0
M  V30 997 H 101.184 -1.69238 4.78875 0
M  V30 998 H 101.114 -3.32638 4.08239 0
M  V30 999 H 103.605 -2.06057 3.16779 0
M  V30 1000 H 103.918 -3.67586 6.7978 0
M  V30 1001 H 102.263 -3.31191 6.11013 0
M  V30 1002 H 105.454 -2.48136 3.96921 0
M  V30 1003 H 105.627 -3.21814 5.62441 0
M  V30 1004 N 99.0327 -1.24633 -0.964593 0
M  V30 1005 C 99.9427 -1.05859 -2.09359 0
M  V30 1006 C 100.959 0.00148855 -1.74 0
M  V30 1007 O 102.135 -0.197346 -2.00431 0
M  V30 1008 C 99.1997 -0.668879 -3.40187 0
M  V30 1009 C 98.2607 -1.80578 -3.89474 0
M  V30 1010 C 97.4937 -1.43457 -5.14058 0
M  V30 1011 O 97.7167 -0.325775 -5.69469 0
M  V30 1012 O 96.6507 -2.2613 -5.57807 0
M  V30 1013 H 100.477 -2.00516 -2.28094 0
M  V30 1014 H 98.0617 -1.03481 -1.0776 0
M  V30 1015 H 99.9437 -0.463211 -4.18846 0
M  V30 1016 H 98.6187 0.248536 -3.22744 0
M  V30 1017 H 97.5257 -2.06623 -3.11862 0
M  V30 1018 H 98.8587 -2.70208 -4.11398 0
M  V30 1019 N 100.511 1.16574 -1.06058 0
M  V30 1020 C 101.443 2.2045 -0.627239 0
M  V30 1021 C 102.456 1.59752 0.313534 0
M  V30 1022 O 103.645 1.78192 0.104896 0
M  V30 1023 C 100.745 3.3875 0.100974 0
M  V30 1024 C 99.9178 4.29008 -0.852687 0
M  V30 1025 C 98.9768 5.25944 -0.164152 0
M  V30 1026 O 98.0028 5.63535 -0.801047 0
M  V30 1027 N 99.2048 5.70075 1.09518 0
M  V30 1028 H 101.97 2.58249 -1.52077 0
M  V30 1029 H 99.5308 1.3156 -0.943594 0
M  V30 1030 H 101.523 4.00638 0.57194 0
M  V30 1031 H 100.093 2.99476 0.89628 0
M  V30 1032 H 99.3128 3.64419 -1.50308 0
M  V30 1033 H 100.601 4.86195 -1.49972 0
M  V30 1034 H 99.9988 5.41624 1.6328 0
M  V30 1035 H 98.5558 6.34067 1.51006 0
M  V30 1036 N 101.989 0.842826 1.3317 0
M  V30 1037 C 102.921 0.236245 2.27979 0
M  V30 1038 C 103.934 -0.585282 1.51915 0
M  V30 1039 O 105.123 -0.411705 1.73687 0
M  V30 1040 C 102.223 -0.685717 3.3189 0
M  V30 1041 C 101.396 0.0973448 4.37292 0
M  V30 1042 C 100.455 -0.748565 5.20848 0
M  V30 1043 O 99.4809 -0.186339 5.68895 0
M  V30 1044 N 100.683 -2.06527 5.42519 0
M  V30 1045 H 103.448 1.05088 2.80672 0
M  V30 1046 H 101.009 0.701667 1.45905 0
M  V30 1047 H 103.001 -1.25669 3.84694 0
M  V30 1048 H 101.571 -1.40105 2.79445 0
M  V30 1049 H 100.791 0.849706 3.84933 0
M  V30 1050 H 102.079 0.635643 5.04814 0
M  V30 1051 H 101.477 -2.54554 5.05192 0
M  V30 1052 H 100.034 -2.58464 5.98364 0
M  V30 1053 N 103.467 -1.45747 0.599634 0
M  V30 1054 C 104.397 -2.33235 -0.111306 0
M  V30 1055 C 105.378 -1.46359 -0.866781 0
M  V30 1056 O 106.563 -1.75146 -0.838904 0
M  V30 1057 C 103.693 -3.28932 -1.11451 0
M  V30 1058 C 102.647 -4.25381 -0.472772 0
M  V30 1059 C 101.973 -5.1071 -1.58365 0
M  V30 1060 C 103.273 -5.18831 0.600948 0
M  V30 1061 H 104.967 -2.92927 0.61919 0
M  V30 1062 H 102.513 -1.40857 0.299215 0
M  V30 1063 H 104.466 -3.89002 -1.62036 0
M  V30 1064 H 103.19 -2.67381 -1.8755 0
M  V30 1065 H 101.849 -3.66598 0.0121472 0
M  V30 1066 H 101.497 -4.45533 -2.33473 0
M  V30 1067 H 101.197 -5.7604 -1.15982 0
M  V30 1068 H 102.721 -5.73647 -2.09194 0
M  V30 1069 H 104.135 -5.73019 0.179491 0
M  V30 1070 H 102.532 -5.92595 0.946076 0
M  V30 1071 H 103.602 -4.6174 1.48068 0
M  V30 1072 N 104.945 -0.338344 -1.53925 0
M  V30 1073 C 105.877 0.555117 -2.22376 0
M  V30 1074 C 106.89 1.06812 -1.22862 0
M  V30 1075 O 108.079 0.979163 -1.49247 0
M  V30 1076 C 105.179 1.77609 -2.88631 0
M  V30 1077 C 104.352 1.39927 -4.14414 0
M  V30 1078 C 103.411 2.47936 -4.64127 0
M  V30 1079 O 102.437 2.11461 -5.28463 0
M  V30 1080 N 103.639 3.79107 -4.39612 0
M  V30 1081 H 106.404 -0.0310778 -2.99684 0
M  V30 1082 H 103.965 -0.162226 -1.61085 0
M  V30 1083 H 105.957 2.49287 -3.18807 0
M  V30 1084 H 104.527 2.26978 -2.14941 0
M  V30 1085 H 103.747 0.513481 -3.90841 0
M  V30 1086 H 105.035 1.12341 -4.96243 0
M  V30 1087 H 104.433 4.11531 -3.88148 0
M  V30 1088 H 102.99 4.4697 -4.74406 0
M  V30 1089 N 106.423 1.57458 -0.0668435 0
M  V30 1090 C 107.355 2.09413 0.931601 0
M  V30 1091 C 108.368 1.02522 1.26464 0
M  V30 1092 O 109.557 1.30049 1.22269 0
M  V30 1093 C 106.657 2.53537 2.24882 0
M  V30 1094 C 105.83 3.83944 2.09537 0
M  V30 1095 C 104.889 4.14214 3.2452 0
M  V30 1096 O 103.915 4.83891 2.9973 0
M  V30 1097 N 105.117 3.67367 4.49469 0
M  V30 1098 H 107.882 2.95699 0.488048 0
M  V30 1099 H 105.443 1.61462 0.119009 0
M  V30 1100 H 107.435 2.70853 3.00701 0
M  V30 1101 H 106.005 1.72415 2.60753 0
M  V30 1102 H 105.225 3.76057 1.18215 0
M  V30 1103 H 106.513 4.69312 1.96529 0
M  V30 1104 H 105.911 3.11068 4.72497 0
M  V30 1105 H 104.468 3.89891 5.2233 0
M  V30 1106 N 107.901 -0.206675 1.56239 0
M  V30 1107 C 108.811 -1.27686 1.96808 0
M  V30 1108 C 109.827 -1.50455 0.874035 0
M  V30 1109 O 111.003 -1.63295 1.17884 0
M  V30 1110 C 108.068 -2.60358 2.28942 0
M  V30 1111 C 107.129 -2.45762 3.51994 0
M  V30 1112 C 106.362 -3.72108 3.82585 0
M  V30 1113 O 106.585 -4.75776 3.14631 0
M  V30 1114 O 105.519 -3.6833 4.76043 0
M  V30 1115 H 109.345 -0.962593 2.88041 0
M  V30 1116 H 106.93 -0.410746 1.43643 0
M  V30 1117 H 108.812 -3.38687 2.50737 0
M  V30 1118 H 107.487 -2.91435 1.4088 0
M  V30 1119 H 106.394 -1.65584 3.35459 0
M  V30 1120 H 107.727 -2.19621 4.40486 0
M  V30 1121 N 109.379 -1.50304 -0.473955 0
M  V30 1122 C 110.309 -1.71886 -1.58042 0
M  V30 1123 C 111.29 -0.567799 -1.60344 0
M  V30 1124 O 112.475 -0.806623 -1.76656 0
M  V30 1125 C 109.605 -1.81036 -2.96384 0
M  V30 1126 C 108.559 -2.962 -3.08949 0
M  V30 1127 C 107.885 -2.9049 -4.48909 0
M  V30 1128 C 109.185 -4.36752 -2.86434 0
M  V30 1129 H 110.879 -2.64527 -1.40234 0
M  V30 1130 H 108.425 -1.27295 -0.673201 0
M  V30 1131 H 110.378 -1.94719 -3.73714 0
M  V30 1132 H 109.102 -0.850147 -3.15341 0
M  V30 1133 H 107.761 -2.82164 -2.3405 0
M  V30 1134 H 107.409 -1.92321 -4.64781 0
M  V30 1135 H 107.109 -3.67802 -4.58253 0
M  V30 1136 H 108.633 -3.06218 -5.28264 0
M  V30 1137 H 110.047 -4.5133 -3.53517 0
M  V30 1138 H 108.444 -5.15493 -3.07225 0
M  V30 1139 H 109.514 -4.49321 -1.82316 0
M  V30 1140 N 110.857 0.726932 -1.39834 0
M  V30 1141 C 111.787 1.85405 -1.41941 0
M  V30 1142 C 112.768 1.67751 -0.281728 0
M  V30 1143 O 113.953 1.8795 -0.488717 0
M  V30 1144 C 111.083 3.23243 -1.2701 0
M  V30 1145 C 110.037 3.55549 -2.38262 0
M  V30 1146 C 109.363 4.9241 -2.08415 0
M  V30 1147 C 110.663 3.577 -3.80589 0
M  V30 1148 H 112.357 1.83899 -2.36266 0
M  V30 1149 H 109.903 0.883349 -1.13723 0
M  V30 1150 H 111.856 4.01775 -1.27103 0
M  V30 1151 H 110.58 3.25296 -0.291564 0
M  V30 1152 H 109.239 2.79351 -2.37399 0
M  V30 1153 H 108.887 4.91052 -1.0898 0
M  V30 1154 H 108.587 5.14992 -2.82943 0
M  V30 1155 H 110.111 5.73289 -2.10171 0
M  V30 1156 H 111.525 4.26293 -3.83337 0
M  V30 1157 H 109.922 3.91804 -4.54543 0
M  V30 1158 H 110.992 2.57328 -4.10987 0
M  V30 1159 N 112.336 1.25143 0.95797 0
M  V30 1160 C 113.299 1.05321 2.03569 0
M  V30 1161 C 114.299 0.007152 1.60798 0
M  V30 1162 O 115.489 0.24903 1.72411 0
M  V30 1163 C 112.621 0.598394 3.35607 0
M  V30 1164 H 113.814 2.00986 2.22586 0
M  V30 1165 H 111.367 1.07502 1.13459 0
M  V30 1166 H 112.102 -0.361014 3.22284 0
M  V30 1167 H 111.887 1.35351 3.67998 0
M  V30 1168 H 113.377 0.48104 4.1482 0
M  V30 1169 N 113.814 -1.1601 1.06675 0
M  V30 1170 C 114.744 -2.22688 0.702307 0
M  V30 1171 C 115.725 -1.67306 -0.307032 0
M  V30 1172 O 116.91 -1.93352 -0.181305 0
M  V30 1173 C 114.04 -3.47178 0.092038 0
M  V30 1174 C 112.994 -4.15477 1.02777 0
M  V30 1175 C 112.32 -5.33963 0.28061 0
M  V30 1176 C 113.62 -4.66019 2.35846 0
M  V30 1177 H 115.314 -2.53429 1.59419 0
M  V30 1178 H 112.86 -1.21813 0.767961 0
M  V30 1179 H 114.813 -4.21037 -0.174814 0
M  V30 1180 H 113.537 -3.15749 -0.834877 0
M  V30 1181 H 112.196 -3.43549 1.27944 0
M  V30 1182 H 111.844 -4.98788 -0.649545 0
M  V30 1183 H 111.544 -5.806 0.904258 0
M  V30 1184 H 113.068 -6.10596 0.021396 0
M  V30 1185 H 114.482 -5.3144 2.15045 0
M  V30 1186 H 112.879 -5.23293 2.93743 0
M  V30 1187 H 113.949 -3.82023 2.98641 0
M  V30 1188 N 115.292 -0.849877 -1.32721 0
M  V30 1189 C 116.239 -0.289033 -2.28983 0
M  V30 1190 C 117.209 0.601324 -1.54833 0
M  V30 1191 O 118.394 0.537253 -1.8308 0
M  V30 1192 C 115.534 0.520623 -3.4115 0
M  V30 1193 C 114.647 -0.394989 -4.3019 0
M  V30 1194 C 113.782 0.426834 -5.29482 0
M  V30 1195 C 112.821 -0.486476 -6.10164 0
M  V30 1196 N 111.958 0.297879 -7.01468 0
M  V30 1197 H 116.798 -1.11519 -2.76347 0
M  V30 1198 H 114.335 -0.56138 -1.35967 0
M  V30 1199 H 116.293 1.00563 -4.04899 0
M  V30 1200 H 114.923 1.31165 -2.9495 0
M  V30 1201 H 113.975 -0.99836 -3.67065 0
M  V30 1202 H 115.287 -1.09612 -4.86607 0
M  V30 1203 H 114.441 0.975205 -5.98811 0
M  V30 1204 H 113.18 1.16136 -4.73671 0
M  V30 1205 H 112.185 -1.04677 -5.39743 0
M  V30 1206 H 113.41 -1.21953 -6.6806 0
M  V30 1207 H 111.356 1.01558 -6.48091 0
M  V30 1208 H 111.273 -0.344318 -7.55216 0
M  V30 1209 H 112.541 0.828131 -7.75089 0
M  V30 1210 N 116.77 1.45427 -0.607355 0
M  V30 1211 C 117.702 2.2871 0.149752 0
M  V30 1212 C 118.715 1.39937 0.831958 0
M  V30 1213 O 119.904 1.64313 0.697385 0
M  V30 1214 C 117.004 3.15673 1.23304 0
M  V30 1215 C 116.177 4.32722 0.637996 0
M  V30 1216 C 115.236 5.00895 1.61215 0
M  V30 1217 O 114.262 5.57697 1.13854 0
M  V30 1218 N 115.464 5.00159 2.94655 0
M  V30 1219 H 118.229 2.94328 -0.564882 0
M  V30 1220 H 115.79 1.55612 -0.446823 0
M  V30 1221 H 117.782 3.58144 1.88454 0
M  V30 1222 H 116.352 2.51965 1.8502 0
M  V30 1223 H 115.572 3.93734 -0.191572 0
M  V30 1224 H 116.86 5.08321 0.220665 0
M  V30 1225 H 116.258 4.553 3.35735 0
M  V30 1226 H 114.815 5.46495 3.55228 0
M  V30 1227 N 118.248 0.346503 1.53744 0
M  V30 1228 C 119.195 -0.508914 2.25119 0
M  V30 1229 C 120.165 -1.09315 1.25058 0
M  V30 1230 O 121.35 -1.12921 1.53797 0
M  V30 1231 C 118.49 -1.65246 3.02965 0
M  V30 1232 C 117.603 -1.09525 4.17886 0
M  V30 1233 C 116.738 -2.20634 4.83212 0
M  V30 1234 C 115.777 -1.62279 5.90196 0
M  V30 1235 N 114.914 -2.67143 6.49291 0
M  V30 1236 H 119.754 0.106283 2.9781 0
M  V30 1237 H 117.291 0.0642227 1.4696 0
M  V30 1238 H 119.249 -2.32574 3.4636 0
M  V30 1239 H 117.879 -2.2386 2.32565 0
M  V30 1240 H 116.931 -0.312818 3.79112 0
M  V30 1241 H 118.243 -0.628444 4.94825 0
M  V30 1242 H 117.397 -2.95821 5.29693 0
M  V30 1243 H 116.136 -2.70659 4.05703 0
M  V30 1244 H 115.141 -0.855989 5.43096 0
M  V30 1245 H 116.366 -1.13102 6.69615 0
M  V30 1246 H 114.312 -3.16417 5.74645 0
M  V30 1247 H 114.229 -2.25093 7.21713 0
M  V30 1248 H 115.497 -3.4209 7.00425 0
M  V30 1249 N 119.726 -1.57421 0.075193 0
M  V30 1250 C 120.658 -2.09904 -0.920483 0
M  V30 1251 C 121.671 -1.03191 -1.25918 0
M  V30 1252 O 122.86 -1.30695 -1.21577 0
M  V30 1253 C 119.96 -2.54726 -2.23534 0
M  V30 1254 C 119.133 -3.8505 -2.07498 0
M  V30 1255 C 118.192 -4.15929 -3.22319 0
M  V30 1256 O 117.218 -4.85474 -2.9716 0
M  V30 1257 N 118.42 -3.69745 -4.47514 0
M  V30 1258 H 121.185 -2.95954 -0.472359 0
M  V30 1259 H 118.746 -1.61523 -0.110444 0
M  V30 1260 H 120.738 -2.72443 -2.9926 0
M  V30 1261 H 119.308 -1.73795 -2.59835 0
M  V30 1262 H 118.528 -3.76679 -1.16219 0
M  V30 1263 H 119.816 -4.70348 -1.94038 0
M  V30 1264 H 119.214 -3.13569 -4.7084 0
M  V30 1265 H 117.771 -3.92655 -5.20255 0
M  V30 1266 N 121.204 0.198386 -1.56346 0
M  V30 1267 C 122.136 1.26987 -1.90806 0
M  V30 1268 C 123.149 1.41877 -0.798419 0
M  V30 1269 O 124.338 1.42362 -1.07682 0
M  V30 1270 C 121.438 2.64246 -2.12196 0
M  V30 1271 C 120.611 2.71007 -3.43328 0
M  V30 1272 C 119.67 3.89439 -3.5387 0
M  V30 1273 O 118.696 3.76695 -4.26719 0
M  V30 1274 N 119.898 5.04752 -2.86715 0
M  V30 1275 H 122.663 0.977433 -2.83313 0
M  V30 1276 H 120.224 0.388322 -1.57174 0
M  V30 1277 H 122.216 3.41896 -2.1654 0
M  V30 1278 H 120.786 2.85992 -1.26204 0
M  V30 1279 H 120.006 1.79657 -3.50881 0
M  V30 1280 H 121.294 2.72512 -4.29668 0
M  V30 1281 H 120.692 5.18004 -2.2735 0
M  V30 1282 H 119.249 5.8036 -2.96691 0
M  V30 1283 N 122.682 1.50554 0.465978 0
M  V30 1284 C 123.931 1.61038 1.21448 0
M  V30 1285 C 124.244 0.31865 1.92987 0
M  V30 1286 O 125.45 0.302469 2.6981 0
M  V30 1287 C 123.906 2.84283 2.20706 0
M  V30 1288 C 123.514 4.20352 1.54946 0
M  V30 1289 C 125.258 3.04115 2.96166 0
M  V30 1290 C 123.165 5.34778 2.5252 0
M  V30 1291 H 122.095 0.599718 0.457005 0
M  V30 1292 H 124.746 1.7699 0.484424 0
M  V30 1293 H 123.128 2.61901 2.97025 0
M  V30 1294 H 124.302 4.53008 0.843811 0
M  V30 1295 H 122.617 4.06167 0.917475 0
M  V30 1296 H 125.214 3.86774 3.69202 0
M  V30 1297 H 125.557 2.16045 3.55852 0
M  V30 1298 H 126.09 3.26702 2.26959 0
M  V30 1299 H 122.829 6.25018 1.97566 0
M  V30 1300 H 122.349 5.06534 3.21222 0
M  V30 1301 H 124.028 5.65561 3.14245 0
M  V30 1302 N 124.16 -0.719506 1.40217 0
M  V30 1303 C 125.092 -1.84428 1.36084 0
M  V30 1304 C 126.105 -1.60597 0.266913 0
M  V30 1305 O 127.294 -1.70544 0.526983 0
M  V30 1306 C 124.394 -3.20757 1.094 0
M  V30 1307 C 123.567 -3.71817 2.30372 0
M  V30 1308 C 122.626 -4.86748 1.99907 0
M  V30 1309 O 121.652 -4.99603 2.72737 0
M  V30 1310 N 122.854 -5.7226 0.974635 0
M  V30 1311 H 125.619 -1.88473 2.33019 0
M  V30 1312 H 123.18 -0.900885 1.3452 0
M  V30 1313 H 125.172 -3.95235 0.870116 0
M  V30 1314 H 123.742 -3.11884 0.211452 0
M  V30 1315 H 122.962 -2.88514 2.68614 0
M  V30 1316 H 124.25 -4.02666 3.11026 0
M  V30 1317 H 123.648 -5.6448 0.371368 0
M  V30 1318 H 122.205 -6.46739 0.810656 0
M  V30 1319 N 125.638 -1.25649 -0.95132 0
M  V30 1320 C 127.054 -1.02542 -1.223 0
M  V30 1321 C 127.254 0.255715 -1.99871 0
M  V30 1322 O 126.31 0.967558 -2.33226 0
M  V30 1323 C 127.623 -2.25065 -1.99415 0
M  V30 1324 C 129.171 -2.29861 -2.12446 0
M  V30 1325 C 129.646 -3.52048 -2.92961 0
M  V30 1326 N 131.137 -3.52465 -3.00538 0
M  V30 1327 C 131.872 -4.43672 -3.63239 0
M  V30 1328 N 131.368 -5.45157 -4.27523 0
M  V30 1329 N 133.161 -4.31346 -3.60412 0
M  V30 1330 H 125.312 -2.07951 -0.432471 0
M  V30 1331 H 127.575 -0.91339 -0.253816 0
M  V30 1332 H 127.281 -3.18194 -1.49817 0
M  V30 1333 H 127.155 -2.28502 -3.00111 0
M  V30 1334 H 129.542 -1.37252 -2.61239 0
M  V30 1335 H 129.623 -2.3044 -1.11044 0
M  V30 1336 H 129.267 -4.44981 -2.44856 0
M  V30 1337 H 129.197 -3.48715 -3.94596 0
M  V30 1338 H 131.688 -2.79056 -2.54826 0
M  V30 1339 H 132.001 -6.10958 -4.73234 0
M  V30 1340 H 130.346 -5.49025 -4.26141 0
M  V30 1341 H 133.537 -3.51288 -3.09377 0
M  V30 1342 H 133.71 -5.02624 -4.0899 0
M  V30 1343 N 127.117 1.15442 -1.07289 0
M  V30 1344 C 128.049 2.19773 -0.650585 0
M  V30 1345 C 129.062 1.60076 0.296572 0
M  V30 1346 O 130.251 1.78293 0.0859905 0
M  V30 1347 C 127.351 3.38838 0.0650398 0
M  V30 1348 C 126.524 4.2808 -0.898141 0
M  V30 1349 C 125.583 5.2574 -0.219926 0
M  V30 1350 O 124.609 5.62654 -0.860773 0
M  V30 1351 N 125.811 5.71205 1.03466 0
M  V30 1352 H 128.576 2.56622 -1.54808 0
M  V30 1353 H 126.137 1.30551 -0.957494 0
M  V30 1354 H 128.129 4.01222 0.529415 0
M  V30 1355 H 126.699 3.00409 0.864466 0
M  V30 1356 H 125.919 3.62804 -1.54165 0
M  V30 1357 H 127.207 4.84577 -1.5512 0
M  V30 1358 H 126.605 5.43325 1.57526 0
M  V30 1359 H 125.162 6.35633 1.44272 0
M  V30 1360 N 128.595 0.856903 1.32268 0
M  V30 1361 C 129.844 0.457599 1.96441 0
M  V30 1362 C 130.157 -0.992426 1.68553 0
M  V30 1363 O 131.363 -1.49727 2.26482 0
M  V30 1364 C 129.819 0.767358 3.51624 0
M  V30 1365 C 129.427 2.23326 3.88367 0
M  V30 1366 C 131.171 0.435887 4.22256 0
M  V30 1367 C 129.078 2.48613 5.36606 0
M  V30 1368 H 128.008 0.167387 0.735185 0
M  V30 1369 H 130.659 1.048 1.5063 0
M  V30 1370 H 129.041 0.106367 3.95857 0
M  V30 1371 H 130.215 2.93623 3.55137 0
M  V30 1372 H 128.53 2.52948 3.30766 0
M  V30 1373 H 131.127 0.602202 5.31298 0
M  V30 1374 H 131.47 -0.622672 4.11617 0
M  V30 1375 H 132.003 1.05286 3.83614 0
M  V30 1376 H 128.742 3.53101 5.52268 0
M  V30 1377 H 128.262 1.82896 5.71235 0
M  V30 1378 H 129.941 2.32676 6.03714 0
M  V30 1379 N 130.073 -1.45103 0.615059 0
M  V30 1380 C 131.003 -2.33339 -0.0865619 0
M  V30 1381 C 131.984 -1.4727 -0.851209 0
M  V30 1382 O 133.169 -1.76026 -0.820281 0
M  V30 1383 C 130.299 -3.30095 -1.07956 0
M  V30 1384 C 129.253 -4.25858 -0.427628 0
M  V30 1385 C 128.579 -5.12361 -1.5294 0
M  V30 1386 C 129.879 -5.18165 0.655944 0
M  V30 1387 H 131.573 -2.92254 0.650224 0
M  V30 1388 H 129.119 -1.40532 0.314138 0
M  V30 1389 H 131.072 -3.90698 -1.57901 0
M  V30 1390 H 129.796 -2.69355 -1.84703 0
M  V30 1391 H 128.455 -3.66564 0.0510292 0
M  V30 1392 H 128.103 -4.47984 -2.28734 0
M  V30 1393 H 127.803 -5.77238 -1.09865 0
M  V30 1394 H 129.327 -5.75833 -2.03098 0
M  V30 1395 H 130.741 -5.72796 0.240257 0
M  V30 1396 H 129.138 -5.91559 1.00888 0
M  V30 1397 H 130.208 -4.60144 1.52957 0
M  V30 1398 N 131.551 -0.354651 -1.53558 0
M  V30 1399 C 132.8 0.239504 -2.00273 0
M  V30 1400 C 133.113 1.50759 -1.24623 0
M  V30 1401 O 134.319 2.17968 -1.61871 0
M  V30 1402 C 132.775 0.477341 -3.5672 0
M  V30 1403 C 132.383 -0.775488 -4.41237 0
M  V30 1404 C 134.127 1.02975 -4.11821 0
M  V30 1405 C 132.034 -0.507838 -5.89216 0
M  V30 1406 H 130.964 0.0932743 -0.748208 0
M  V30 1407 H 133.615 -0.471701 -1.77334 0
M  V30 1408 H 131.997 1.24953 -3.7577 0
M  V30 1409 H 133.171 -1.54963 -4.33962 0
M  V30 1410 H 131.486 -1.25033 -3.97185 0
M  V30 1411 H 134.083 1.24513 -5.2 0
M  V30 1412 H 134.426 1.98862 -3.65731 0
M  V30 1413 H 134.959 0.317994 -3.96527 0
M  V30 1414 H 131.698 -1.43674 -6.39561 0
M  V30 1415 H 131.218 0.228011 -5.99366 0
M  V30 1416 H 132.897 -0.129238 -6.46871 0
M  V30 1417 N 133.029 1.57378 -0.0835403 0
M  V30 1418 C 133.992 2.12252 0.864959 0
M  V30 1419 C 134.992 1.04916 1.21858 0
M  V30 1420 O 136.182 1.30853 1.14991 0
M  V30 1421 C 133.314 2.63358 2.16461 0
M  V30 1422 H 134.507 2.97371 0.388676 0
M  V30 1423 H 132.06 1.55423 0.165317 0
M  V30 1424 H 132.795 1.81727 2.686 0
M  V30 1425 H 132.58 3.41826 1.92087 0
M  V30 1426 H 134.07 3.05847 2.84337 0
M  V30 1427 N 134.507 -0.190092 1.56449 0
M  V30 1428 C 135.417 -1.25591 1.98152 0
M  V30 1429 C 136.433 -1.49519 0.889944 0
M  V30 1430 O 137.609 -1.62036 1.19609 0
M  V30 1431 C 134.674 -2.57916 2.3169 0
M  V30 1432 C 133.735 -2.42015 3.5458 0
M  V30 1433 C 132.968 -3.6803 3.8651 0
M  V30 1434 O 133.191 -4.72413 3.1966 0
M  V30 1435 O 132.125 -3.6326 4.79923 0
M  V30 1436 H 135.951 -0.931988 2.89046 0
M  V30 1437 H 133.536 -0.395488 1.4407 0
M  V30 1438 H 135.418 -3.36008 2.54316 0
M  V30 1439 H 134.093 -2.89925 1.43963 0
M  V30 1440 H 133 -1.62017 3.37196 0
M  V30 1441 H 134.333 -2.14937 4.4279 0
M  V30 1442 N 135.985 -1.50799 -0.457987 0
M  V30 1443 C 137.232 -1.62442 -1.20908 0
M  V30 1444 C 137.56 -0.330865 -1.91665 0
M  V30 1445 O 136.815 0.68401 -1.83357 0
M  V30 1446 C 137.114 -2.76358 -2.2663 0
M  V30 1447 C 136.78 -4.16378 -1.73033 0
M  V30 1448 C 135.442 -4.54473 -1.58138 0
M  V30 1449 C 137.794 -5.03836 -1.33413 0
M  V30 1450 C 135.122 -5.77754 -1.02065 0
M  V30 1451 C 137.474 -6.27676 -0.78778 0
M  V30 1452 C 136.138 -6.64562 -0.625561 0
M  V30 1453 H 135.408 -0.594417 -0.442435 0
M  V30 1454 H 138.055 -1.84772 -0.503136 0
M  V30 1455 H 136.36 -2.48167 -3.03184 0
M  V30 1456 H 138.057 -2.82568 -2.84528 0
M  V30 1457 H 134.647 -3.86331 -1.85598 0
M  V30 1458 H 138.831 -4.75026 -1.4375 0
M  V30 1459 H 134.087 -6.04997 -0.882547 0
M  V30 1460 H 138.261 -6.94797 -0.472177 0
M  V30 1461 H 135.888 -7.59965 -0.188926 0
M  V30 1462 N 137.463 0.71206 -1.40597 0
M  V30 1463 C 138.395 1.83704 -1.37061 0
M  V30 1464 C 139.408 1.60453 -0.275426 0
M  V30 1465 O 140.597 1.70262 -0.53602 0
M  V30 1466 C 137.697 3.20172 -1.11099 0
M  V30 1467 C 136.87 3.7059 -2.3234 0
M  V30 1468 C 135.929 4.85681 -2.02485 0
M  V30 1469 O 134.955 4.9815 -2.75382 0
M  V30 1470 N 136.157 5.71735 -1.00497 0
M  V30 1471 H 138.922 1.87235 -2.34016 0
M  V30 1472 H 136.483 0.893739 -1.34996 0
M  V30 1473 H 138.475 3.94768 -0.891064 0
M  V30 1474 H 137.045 3.11767 -0.227989 0
M  V30 1475 H 136.265 2.87085 -2.7014 0
M  V30 1476 H 137.553 4.01011 -3.13157 0
M  V30 1477 H 136.951 5.64275 -0.401298 0
M  V30 1478 H 135.508 6.463 -0.844942 0
M  V30 1479 N 138.941 1.26152 0.944643 0
M  V30 1480 C 140.357 1.03189 1.21754 0
M  V30 1481 C 140.557 -0.245112 2.00004 0
M  V30 1482 O 139.613 -0.955176 2.33736 0
M  V30 1483 C 140.926 2.26119 1.98219 0
M  V30 1484 C 142.474 2.30984 2.11224 0
M  V30 1485 C 142.949 3.53597 2.91089 0
M  V30 1486 N 144.44 3.54053 2.98664 0
M  V30 1487 C 145.175 4.45593 3.60881 0
M  V30 1488 N 144.671 5.47416 4.24626 0
M  V30 1489 N 146.464 4.33252 3.58119 0
M  V30 1490 H 138.615 2.08177 0.421437 0
M  V30 1491 H 140.878 0.914723 0.248969 0
M  V30 1492 H 140.584 3.18984 1.48128 0
M  V30 1493 H 140.458 2.3009 2.98895 0
M  V30 1494 H 142.845 1.38635 2.60508 0
M  V30 1495 H 142.926 2.31026 1.09821 0
M  V30 1496 H 142.57 4.46273 2.42493 0
M  V30 1497 H 142.5 3.50802 3.92741 0
M  V30 1498 H 144.991 2.80403 2.53343 0
M  V30 1499 H 145.304 6.13459 4.69987 0
M  V30 1500 H 143.649 5.51278 4.23223 0
M  V30 1501 H 146.84 3.52924 3.0751 0
M  V30 1502 H 147.013 5.04786 4.06319 0
M  V30 1503 N 140.419 -1.14872 1.07899 0
M  V30 1504 C 141.351 -2.19425 0.662231 0
M  V30 1505 C 142.364 -1.60231 -0.288079 0
M  V30 1506 O 143.553 -1.78336 -0.076534 0
M  V30 1507 C 140.653 -3.38867 -0.0470695 0
M  V30 1508 C 139.826 -4.27597 0.920831 0
M  V30 1509 C 138.885 -5.25616 0.247805 0
M  V30 1510 O 137.911 -5.62189 0.890599 0
M  V30 1511 N 139.113 -5.71746 -1.00435 0
M  V30 1512 H 141.878 -2.55797 1.56166 0
M  V30 1513 H 139.439 -1.30042 0.964404 0
M  V30 1514 H 141.431 -4.01497 -0.50813 0
M  V30 1515 H 140.001 -3.00864 -0.848523 0
M  V30 1516 H 139.221 -3.61982 1.56087 0
M  V30 1517 H 140.509 -4.83748 1.57688 0
M  V30 1518 H 139.907 -5.44153 -1.54642 0
M  V30 1519 H 138.464 -6.36389 -1.40899 0
M  V30 1520 N 141.898 -0.863906 -1.31812 0
M  V30 1521 C 142.848 -0.286898 -2.26188 0
M  V30 1522 C 143.832 0.572577 -1.50367 0
M  V30 1523 O 145.024 0.420447 -1.71934 0
M  V30 1524 C 142.153 0.515849 -3.39402 0
M  V30 1525 C 141.239 -0.356531 -4.22599 0
M  V30 1526 N 141.63 -1.44716 -4.84656 0
M  V30 1527 C 139.928 -0.147898 -4.45755 0
M  V30 1528 C 140.629 -1.98462 -5.46798 0
M  V30 1529 N 139.605 -1.28247 -5.28255 0
M  V30 1530 H 143.407 -1.12055 -2.717 0
M  V30 1531 H 140.921 -0.711012 -1.46008 0
M  V30 1532 H 142.918 0.945701 -4.06032 0
M  V30 1533 H 141.578 1.34718 -2.95434 0
M  V30 1534 H 142.589 -1.83008 -4.84488 0
M  V30 1535 H 139.266 0.647973 -4.12441 0
M  V30 1536 H 140.656 -2.89932 -6.06126 0
M  V30 1537 N 143.376 1.44774 -0.622745 0
M  V30 1538 C 144.286 2.34433 0.0886031 0
M  V30 1539 C 145.302 1.52131 0.844529 0
M  V30 1540 O 146.478 1.84886 0.798691 0
M  V30 1541 C 143.543 3.29986 1.0635 0
M  V30 1542 C 142.604 4.28195 0.307873 0
M  V30 1543 C 141.837 5.19183 1.23633 0
M  V30 1544 O 142.06 5.13918 2.47476 0
M  V30 1545 O 140.994 5.97515 0.725189 0
M  V30 1546 H 144.82 2.96693 -0.648599 0
M  V30 1547 H 142.405 1.44408 -0.382957 0
M  V30 1548 H 144.287 3.88825 1.6246 0
M  V30 1549 H 142.962 2.70269 1.78146 0
M  V30 1550 H 141.869 3.72927 -0.296064 0
M  V30 1551 H 143.202 4.90808 -0.3699 0
M  V30 1552 N 144.854 0.36279 1.53368 0
M  V30 1553 C 145.786 -0.519668 2.23231 0
M  V30 1554 C 146.799 -1.04844 1.24546 0
M  V30 1555 O 147.988 -0.955296 1.50786 0
M  V30 1556 C 145.088 -1.72995 2.9142 0
M  V30 1557 C 144.261 -1.33316 4.16588 0
M  V30 1558 C 143.32 -2.40521 4.68013 0
M  V30 1559 O 142.346 -2.03027 5.3176 0
M  V30 1560 N 143.548 -3.72065 4.45587 0
M  V30 1561 H 146.313 0.078751 2.99597 0
M  V30 1562 H 143.874 0.187833 1.60807 0
M  V30 1563 H 145.866 -2.44184 3.22733 0
M  V30 1564 H 144.436 -2.2353 2.18525 0
M  V30 1565 H 143.656 -0.451236 3.91609 0
M  V30 1566 H 144.944 -1.04432 4.97967 0
M  V30 1567 H 144.342 -4.05304 3.94646 0
M  V30 1568 H 142.899 -4.39366 4.81457 0
M  V30 1569 N 146.332 -1.57332 0.0918853 0
M  V30 1570 C 147.262 -2.16872 -0.865371 0
M  V30 1571 C 148.243 -1.10118 -1.29646 0
M  V30 1572 O 149.428 -1.38242 -1.36392 0
M  V30 1573 C 146.558 -2.74649 -2.12569 0
M  V30 1574 C 145.512 -3.86747 -1.83333 0
M  V30 1575 C 144.838 -4.31212 -3.16166 0
M  V30 1576 C 146.138 -5.10089 -1.1228 0
M  V30 1577 H 147.832 -2.97114 -0.369307 0
M  V30 1578 H 145.378 -1.42918 -0.176194 0
M  V30 1579 H 147.331 -3.14952 -2.7997 0
M  V30 1580 H 146.055 -1.91657 -2.64452 0
M  V30 1581 H 144.714 -3.46978 -1.18331 0
M  V30 1582 H 144.362 -3.45115 -3.6593 0
M  V30 1583 H 144.062 -5.06788 -2.97388 0
M  V30 1584 H 145.586 -4.74146 -3.84731 0
M  V30 1585 H 147 -5.47582 -1.69785 0
M  V30 1586 H 145.397 -5.91073 -1.03693 0
M  V30 1587 H 146.467 -4.84786 -0.105041 0
M  V30 1588 N 147.81 0.181792 -1.56548 0
M  V30 1589 C 149.035 0.920019 -1.85877 0
M  V30 1590 C 149.46 1.75494 -0.677021 0
M  V30 1591 O 148.818 1.77399 0.374056 0
M  V30 1592 C 148.866 1.78112 -3.13542 0
M  V30 1593 O 147.97 2.88152 -2.95029 0
M  V30 1594 H 147.311 0.258334 -0.611686 0
M  V30 1595 H 149.841 0.183092 -2.03779 0
M  V30 1596 H 149.851 2.18314 -3.44678 0
M  V30 1597 H 148.526 1.16777 -3.99169 0
M  V30 1598 H 147.103 2.51609 -2.75222 0
M  V30 1599 N 149.288 1.51039 0.449983 0
M  V30 1600 C 150.704 1.38934 0.785462 0
M  V30 1601 C 150.904 0.461817 1.96136 0
M  V30 1602 O 149.96 -0.0877389 2.52348 0
M  V30 1603 C 151.273 2.80724 1.0777 0
M  V30 1604 C 152.821 2.89787 1.1829 0
M  V30 1605 C 153.296 4.32457 1.50815 0
M  V30 1606 N 154.787 4.35505 1.57764 0
M  V30 1607 C 155.522 5.42914 1.84477 0
M  V30 1608 N 155.018 6.60502 2.09068 0
M  V30 1609 N 156.811 5.3038 1.86155 0
M  V30 1610 H 148.962 2.09904 -0.324647 0
M  V30 1611 H 151.225 0.944378 -0.0827957 0
M  V30 1612 H 150.931 3.50531 0.286498 0
M  V30 1613 H 150.805 3.19273 2.00859 0
M  V30 1614 H 153.192 2.20186 1.96474 0
M  V30 1615 H 153.273 2.54752 0.231314 0
M  V30 1616 H 152.917 5.02603 0.731622 0
M  V30 1617 H 152.847 4.64995 2.47158 0
M  V30 1618 H 155.338 3.50724 1.40715 0
M  V30 1619 H 155.651 7.38158 2.28785 0
M  V30 1620 H 153.996 6.63639 2.06416 0
M  V30 1621 H 157.187 4.37505 1.66454 0
M  V30 1622 H 157.36 6.1417 2.06637 0
M  V30 1623 N 150.766 -0.704594 1.40972 0
M  V30 1624 C 151.698 -1.82974 1.38033 0
M  V30 1625 C 152.711 -1.60305 0.283931 0
M  V30 1626 O 153.9 -1.69975 0.545042 0
M  V30 1627 C 151 -3.19578 1.12795 0
M  V30 1628 C 150.173 -3.69352 2.34302 0
M  V30 1629 C 149.232 -4.84601 2.05058 0
M  V30 1630 O 148.258 -4.96682 2.7802 0
M  V30 1631 N 149.46 -5.71194 1.03528 0
M  V30 1632 H 152.225 -1.85991 2.35005 0
M  V30 1633 H 149.786 -0.886567 1.35468 0
M  V30 1634 H 151.778 -3.9429 0.911987 0
M  V30 1635 H 150.348 -3.11642 0.24452 0
M  V30 1636 H 149.568 -2.85649 2.71659 0
M  V30 1637 H 150.856 -3.99345 3.1528 0
M  V30 1638 H 150.254 -5.64054 0.431217 0
M  V30 1639 H 148.811 -6.45843 0.879205 0
M  V30 1640 N 152.244 -1.26651 -0.937939 0
M  V30 1641 C 153.194 -1.05156 -2.02302 0
M  V30 1642 C 154.178 0.0171233 -1.60891 0
M  V30 1643 O 155.37 -0.200213 -1.75864 0
M  V30 1644 C 152.499 -0.689962 -3.36295 0
M  V30 1645 C 151.585 -1.79626 -3.84181 0
M  V30 1646 N 151.976 -3.03422 -4.04684 0
M  V30 1647 C 150.274 -1.6806 -4.13124 0
M  V30 1648 C 150.975 -3.75345 -4.444 0
M  V30 1649 N 149.951 -3.03051 -4.51288 0
M  V30 1650 H 153.753 -1.99117 -2.1617 0
M  V30 1651 H 151.267 -1.17216 -1.12402 0
M  V30 1652 H 153.264 -0.517112 -4.13681 0
M  V30 1653 H 151.924 0.242139 -3.23796 0
M  V30 1654 H 152.935 -3.39293 -3.91281 0
M  V30 1655 H 149.612 -0.818629 -4.09396 0
M  V30 1656 H 151.002 -4.81691 -4.68427 0
M  V30 1657 N 153.722 1.14298 -1.08507 0
M  V30 1658 C 154.632 2.23027 -0.727753 0
M  V30 1659 C 155.648 1.71952 0.26619 0
M  V30 1660 O 156.824 2.011 0.109882 0
M  V30 1661 C 153.889 3.46403 -0.143541 0
M  V30 1662 C 152.95 4.12413 -1.19223 0
M  V30 1663 C 152.183 5.29899 -0.635798 0
M  V30 1664 O 152.406 5.67796 0.544393 0
M  V30 1665 O 151.34 5.85717 -1.38634 0
M  V30 1666 H 155.166 2.55945 -1.63481 0
M  V30 1667 H 152.751 1.22248 -0.858817 0
M  V30 1668 H 154.633 4.21018 0.179404 0
M  V30 1669 H 153.308 3.15206 0.736659 0
M  V30 1670 H 152.215 3.39667 -1.56772 0
M  V30 1671 H 153.548 4.47718 -2.04474 0
M  V30 1672 N 155.201 0.870884 1.31352 0
M  V30 1673 C 156.164 0.332243 2.26779 0
M  V30 1674 C 157.164 -0.517302 1.52252 0
M  V30 1675 O 158.354 -0.326477 1.71113 0
M  V30 1676 C 155.486 -0.528066 3.36785 0
M  V30 1677 H 156.679 1.17469 2.75937 0
M  V30 1678 H 154.232 0.64655 1.423 0
M  V30 1679 H 154.967 -1.39167 2.92922 0
M  V30 1680 H 154.752 0.0802582 3.92018 0
M  V30 1681 H 156.242 -0.897179 4.07849 0
M  V30 1682 N 156.679 -1.44442 0.630414 0
M  V30 1683 C 157.611 -2.2892 -0.113347 0
M  V30 1684 C 158.624 -1.41243 -0.80959 0
M  V30 1685 O 159.813 -1.65402 -0.671156 0
M  V30 1686 C 156.913 -3.17594 -1.18266 0
M  V30 1687 C 156.086 -4.33682 -0.569073 0
M  V30 1688 C 155.145 -5.03397 -1.53226 0
M  V30 1689 O 154.171 -5.59438 -1.04967 0
M  V30 1690 N 155.373 -5.04783 -2.86661 0
M  V30 1691 H 158.138 -2.93392 0.611636 0
M  V30 1692 H 155.699 -1.54881 0.471523 0
M  V30 1693 H 157.691 -3.61097 -1.82732 0
M  V30 1694 H 156.261 -2.54876 -1.80988 0
M  V30 1695 H 155.481 -3.9338 0.254187 0
M  V30 1696 H 156.769 -5.08608 -0.139767 0
M  V30 1697 H 156.167 -4.60584 -3.28449 0
M  V30 1698 H 154.724 -5.52077 -3.46489 0
M  V30 1699 N 158.157 -0.370918 -1.53173 0
M  V30 1700 C 159.087 0.464847 -2.28826 0
M  V30 1701 C 160.068 1.07936 -1.31468 0
M  V30 1702 O 161.253 1.0956 -1.60344 0
M  V30 1703 C 158.383 1.60196 -3.08147 0
M  V30 1704 C 157.337 1.11443 -4.13237 0
M  V30 1705 C 156.663 2.3422 -4.80672 0
M  V30 1706 C 157.963 0.195384 -5.21934 0
M  V30 1707 H 159.657 -0.166329 -2.98938 0
M  V30 1708 H 157.203 -0.0814359 -1.4377 0
M  V30 1709 H 159.156 2.19332 -3.59822 0
M  V30 1710 H 157.88 2.26045 -2.35735 0
M  V30 1711 H 156.539 0.545727 -3.62515 0
M  V30 1712 H 156.187 2.98537 -4.04827 0
M  V30 1713 H 155.887 2.02269 -5.51689 0
M  V30 1714 H 157.411 2.94032 -5.35143 0
M  V30 1715 H 158.825 0.694375 -5.69079 0
M  V30 1716 H 157.222 -0.0335027 -6.00091 0
M  V30 1717 H 158.292 -0.760961 -4.78892 0
M  V30 1718 N 159.635 1.57281 -0.100228 0
M  V30 1719 C 160.585 2.10848 0.86759 0
M  V30 1720 C 161.569 1.02473 1.24049 0
M  V30 1721 O 162.761 1.28739 1.21471 0
M  V30 1722 C 159.89 2.69648 2.12474 0
M  V30 1723 C 158.976 3.85074 1.77704 0
M  V30 1724 N 159.367 4.92897 1.13518 0
M  V30 1725 C 157.665 3.94905 2.07282 0
M  V30 1726 C 158.366 5.73475 0.974735 0
M  V30 1727 N 157.342 5.22675 1.4937 0
M  V30 1728 H 161.144 2.91594 0.367471 0
M  V30 1729 H 158.658 1.62074 0.102829 0
M  V30 1730 H 160.655 3.06356 2.82757 0
M  V30 1731 H 159.315 1.90359 2.63047 0
M  V30 1732 H 160.326 5.11662 0.801381 0
M  V30 1733 H 157.003 3.26633 2.60033 0
M  V30 1734 H 158.393 6.70238 0.472364 0
M  V30 1735 N 161.113 -0.173488 1.56642 0
M  V30 1736 C 162.023 -1.23482 1.99473 0
M  V30 1737 C 163.039 -1.48567 0.905752 0
M  V30 1738 O 164.215 -1.60758 1.21321 0
M  V30 1739 C 161.28 -2.55444 2.34413 0
M  V30 1740 C 160.341 -2.38241 3.57127 0
M  V30 1741 C 159.574 -3.63909 3.90392 0
M  V30 1742 O 159.797 -4.68996 3.24653 0
M  V30 1743 O 158.731 -3.58149 4.83749 0
M  V30 1744 H 162.557 -0.901279 2.90018 0
M  V30 1745 H 160.142 -0.380185 1.44482 0
M  V30 1746 H 162.024 -3.33292 2.57865 0
M  V30 1747 H 160.699 -2.88382 1.4703 0
M  V30 1748 H 159.606 -1.58431 3.38896 0
M  V30 1749 H 160.939 -2.10228 4.45045 0
M  V30 1750 N 162.591 -1.51276 -0.441967 0
M  V30 1751 C 163.541 -1.6864 -1.53442 0
M  V30 1752 C 164.525 -0.540444 -1.51552 0
M  V30 1753 O 165.717 -0.796157 -1.58083 0
M  V30 1754 C 162.846 -1.8106 -2.91672 0
M  V30 1755 C 161.932 -3.01424 -2.98336 0
M  V30 1756 N 162.323 -4.2467 -2.74752 0
M  V30 1757 C 160.621 -3.00584 -3.29493 0
M  V30 1758 C 161.322 -5.05891 -2.87139 0
M  V30 1759 N 160.298 -4.40442 -3.18609 0
M  V30 1760 H 164.1 -2.61598 -1.33954 0
M  V30 1761 H 161.614 -1.4886 -0.6492 0
M  V30 1762 H 163.611 -1.91609 -3.70259 0
M  V30 1763 H 162.271 -0.892795 -3.12185 0
M  V30 1764 H 163.282 -4.53691 -2.49769 0
M  V30 1765 H 159.959 -2.18417 -3.55809 0
M  V30 1766 H 161.349 -6.13983 -2.72899 0
M  V30 1767 N 164.069 0.697108 -1.41344 0
M  V30 1768 C 165.318 1.45279 -1.39918 0
M  V30 1769 C 165.631 1.95597 -0.0109624 0
M  V30 1770 O 166.837 2.71208 0.125919 0
M  V30 1771 C 165.293 2.62695 -2.46007 0
M  V30 1772 C 164.901 2.19169 -3.90729 0
M  V30 1773 C 166.645 3.40336 -2.53715 0
M  V30 1774 C 164.552 3.33535 -4.88373 0
M  V30 1775 H 163.482 0.545692 -0.520323 0
M  V30 1776 H 166.133 0.756929 -1.67161 0
M  V30 1777 H 164.515 3.34541 -2.11892 0
M  V30 1778 H 165.689 1.54623 -4.34083 0
M  V30 1779 H 164.004 1.54525 -3.86666 0
M  V30 1780 H 166.601 4.2547 -3.2385 0
M  V30 1781 H 166.944 3.85418 -1.5735 0
M  V30 1782 H 167.477 2.75546 -2.86913 0
M  V30 1783 H 164.216 2.93468 -5.86137 0
M  V30 1784 H 163.736 3.96936 -4.49668 0
M  V30 1785 H 165.415 3.99335 -5.09059 0
M  V30 1786 N 165.547 1.27147 0.931209 0
M  V30 1787 C 166.494 1.09568 2.03134 0
M  V30 1788 C 167.464 -0.00222433 1.661 0
M  V30 1789 O 168.649 0.159439 1.90133 0
M  V30 1790 C 165.789 0.745231 3.36957 0
M  V30 1791 C 164.902 1.92041 3.86968 0
M  V30 1792 C 164.037 1.51216 5.09222 0
M  V30 1793 C 163.076 2.65504 5.5152 0
M  V30 1794 N 162.213 2.25291 6.64972 0
M  V30 1795 H 167.053 2.03708 2.17502 0
M  V30 1796 H 164.59 1.01411 1.06556 0
M  V30 1797 H 166.548 0.522878 4.1391 0
M  V30 1798 H 165.178 -0.159202 3.22407 0
M  V30 1799 H 164.23 2.25541 3.06326 0
M  V30 1800 H 165.542 2.77787 4.1429 0
M  V30 1801 H 164.696 1.25084 5.93666 0
M  V30 1802 H 163.435 0.625749 4.83669 0
M  V30 1803 H 162.44 2.92354 4.65628 0
M  V30 1804 H 163.665 3.54761 5.7907 0
M  V30 1805 H 161.611 1.39098 6.41083 0
M  V30 1806 H 161.528 3.04577 6.91931 0
M  V30 1807 H 162.796 2.02398 7.52765 0
M  V30 1808 N 167.025 -1.13721 1.09112 0
M  V30 1809 C 167.957 -2.1871 0.685467 0
M  V30 1810 C 168.97 -1.60527 -0.271068 0
M  V30 1811 O 170.159 -1.78407 -0.0576148 0
M  V30 1812 C 167.259 -3.38898 -0.0111255 0
M  V30 1813 C 166.432 -4.26597 0.966131 0
M  V30 1814 C 165.491 -5.25324 0.303539 0
M  V30 1815 O 164.517 -5.61213 0.950177 0
M  V30 1816 N 165.719 -5.72779 -0.943651 0
M  V30 1817 H 168.484 -2.54126 1.58871 0
M  V30 1818 H 166.045 -1.29012 0.978143 0
M  V30 1819 H 168.037 -4.02014 -0.465517 0
M  V30 1820 H 166.607 -3.01747 -0.816565 0
M  V30 1821 H 165.827 -3.60306 1.59917 0
M  V30 1822 H 167.115 -4.82048 1.6281 0
M  V30 1823 H 166.513 -5.45762 -1.48862 0
M  V30 1824 H 165.07 -6.37847 -1.34142 0
M  V30 1825 N 168.503 -0.877838 -1.30888 0
M  V30 1826 C 169.435 -0.296607 -2.27273 0
M  V30 1827 C 170.448 0.544799 -1.53414 0
M  V30 1828 O 171.637 0.365511 -1.74718 0
M  V30 1829 C 168.737 0.597481 -3.33592 0
M  V30 1830 C 167.91 -0.213251 -4.3688 0
M  V30 1831 C 166.969 0.610208 -5.2265 0
M  V30 1832 O 165.995 0.035441 -5.69189 0
M  V30 1833 N 167.197 1.92071 -5.47804 0
M  V30 1834 H 169.962 -1.12492 -2.77787 0
M  V30 1835 H 167.523 -0.740105 -1.43993 0
M  V30 1836 H 169.515 1.15425 -3.87891 0
M  V30 1837 H 168.085 1.32647 -2.83061 0
M  V30 1838 H 167.305 -0.951466 -3.82545 0
M  V30 1839 H 168.593 -0.769262 -5.02951 0
M  V30 1840 H 167.991 2.4107 -5.11763 0
M  V30 1841 H 166.548 2.42508 -6.05007 0
M  V30 1842 N 169.982 1.44106 -0.638065 0
M  V30 1843 C 170.914 2.28976 0.101205 0
M  V30 1844 C 171.927 1.4167 0.802088 0
M  V30 1845 O 173.116 1.65755 0.662375 0
M  V30 1846 C 170.216 3.18217 1.16581 0
M  V30 1847 C 169.389 4.33978 0.546066 0
M  V30 1848 C 168.448 5.04202 1.50554 0
M  V30 1849 O 167.474 5.59986 1.01999 0
M  V30 1850 N 168.676 5.06296 2.8398 0
M  V30 1851 H 171.441 2.93064 -0.627186 0
M  V30 1852 H 169.002 1.54629 -0.479731 0
M  V30 1853 H 170.994 3.62061 1.80815 0
M  V30 1854 H 169.564 2.55833 1.79634 0
M  V30 1855 H 168.784 3.93239 -0.275046 0
M  V30 1856 H 170.072 5.08675 0.112793 0
M  V30 1857 H 169.47 4.62319 3.26002 0
M  V30 1858 H 168.027 5.53907 3.43556 0
M  V30 1859 N 171.46 0.379036 1.52974 0
M  V30 1860 C 172.37 -0.468639 2.29872 0
M  V30 1861 C 173.386 -1.08067 1.36373 0
M  V30 1862 O 174.562 -1.08871 1.69438 0
M  V30 1863 C 171.627 -1.58594 3.083 0
M  V30 1864 C 170.688 -1.00007 4.17489 0
M  V30 1865 C 169.921 -2.06413 4.92168 0
M  V30 1866 O 170.144 -3.27751 4.66835 0
M  V30 1867 O 169.078 -1.68717 5.7777 0
M  V30 1868 H 172.904 0.157508 3.03291 0
M  V30 1869 H 170.489 0.143035 1.48714 0
M  V30 1870 H 172.371 -2.23525 3.57232 0
M  V30 1871 H 171.046 -2.19724 2.37703 0
M  V30 1872 H 169.953 -0.314299 3.72777 0
M  V30 1873 H 171.286 -0.433135 4.90291 0
M  V30 1874 N 172.938 -1.57226 0.108567 0
M  V30 1875 C 173.871 -2.10447 -0.882464 0
M  V30 1876 C 174.849 -1.01829 -1.26766 0
M  V30 1877 O 176.033 -1.29415 -1.37054 0
M  V30 1878 C 173.16 -2.59258 -2.17952 0
M  V30 1879 C 172.206 -3.79662 -1.94318 0
M  V30 1880 S 173.039 -5.22586 -1.16892 0
M  V30 1881 C 174.195 -5.74758 -2.47799 0
M  V30 1882 H 174.428 -2.94178 -0.429745 0
M  V30 1883 H 171.961 -1.54043 -0.105 0
M  V30 1884 H 173.919 -2.88036 -2.92482 0
M  V30 1885 H 172.58 -1.75728 -2.60343 0
M  V30 1886 H 171.773 -4.11928 -2.90399 0
M  V30 1887 H 171.375 -3.51446 -1.27913 0
M  V30 1888 H 173.667 -5.83846 -3.43701 0
M  V30 1889 H 174.61 -6.73027 -2.20093 0
M  V30 1890 H 175.018 -5.02763 -2.56689 0
M  V30 1891 N 174.416 0.165178 -1.56732 0
M  V30 1892 C 175.346 1.20651 -1.99914 0
M  V30 1893 C 176.327 1.45827 -0.875705 0
M  V30 1894 O 177.512 1.57057 -1.14223 0
M  V30 1895 C 174.642 2.54401 -2.36427 0
M  V30 1896 C 173.596 2.43782 -3.51787 0
M  V30 1897 C 172.922 3.82078 -3.7406 0
M  V30 1898 C 174.222 1.93732 -4.85041 0
M  V30 1899 H 175.916 0.847534 -2.87154 0
M  V30 1900 H 173.462 0.40625 -1.38151 0
M  V30 1901 H 175.415 3.27458 -2.65234 0
M  V30 1902 H 174.139 2.92098 -1.46103 0
M  V30 1903 H 172.798 1.73178 -3.23117 0
M  V30 1904 H 172.446 4.17179 -2.81017 0
M  V30 1905 H 172.146 3.7584 -4.51684 0
M  V30 1906 H 173.67 4.56712 -4.05274 0
M  V30 1907 H 175.084 2.56569 -5.12684 0
M  V30 1908 H 173.481 1.98428 -5.66345 0
M  V30 1909 H 174.551 0.891962 -4.76626 0
M  V30 1910 N 175.894 1.51508 0.433938 0
M  V30 1911 C 176.857 1.72473 1.50949 0
M  V30 1912 C 177.857 0.594725 1.49398 0
M  V30 1913 O 179.047 0.862315 1.5136 0
M  V30 1914 C 176.179 1.78431 2.90474 0
M  V30 1915 H 177.372 2.68467 1.33662 0
M  V30 1916 H 174.925 1.41549 0.662836 0
M  V30 1917 H 175.66 0.842645 3.13161 0
M  V30 1918 H 175.445 2.60558 2.93005 0
M  V30 1919 H 176.935 1.96479 3.68491 0
M  V30 1920 N 177.372 -0.689602 1.41712 0
M  V30 1921 C 178.305 -1.81403 1.3845 0
M  V30 1922 C 179.283 -1.60653 0.250874 0
M  V30 1923 O 180.467 -1.83323 0.43874 0
M  V30 1924 C 177.594 -3.18176 1.1611 0
M  V30 1925 C 176.64 -3.57705 2.3227 0
M  V30 1926 S 177.473 -3.61827 3.94767 0
M  V30 1927 C 178.629 -5.01318 3.74742 0
M  V30 1928 H 178.862 -1.83893 2.33603 0
M  V30 1929 H 176.395 -0.858878 1.28307 0
M  V30 1930 H 178.353 -3.97132 1.03907 0
M  V30 1931 H 177.014 -3.13288 0.225668 0
M  V30 1932 H 176.207 -4.57082 2.12349 0
M  V30 1933 H 175.809 -2.86073 2.40911 0
M  V30 1934 H 178.101 -5.88986 3.34817 0
M  V30 1935 H 179.044 -5.26283 4.73743 0
M  V30 1936 H 179.452 -4.73138 3.07898 0
M  V30 1937 N 178.85 -1.27639 -0.924453 0
M  V30 1938 C 179.797 -1.10644 -2.0255 0
M  V30 1939 C 180.767 -0.00658438 -1.66099 0
M  V30 1940 O 181.952 -0.16952 -1.90045 0
M  V30 1941 C 179.092 -0.76309 -3.36557 0
M  V30 1942 C 178.205 -1.94091 -3.85944 0
M  V30 1943 C 177.34 -1.53914 -5.08413 0
M  V30 1944 C 176.379 -2.68425 -5.50104 0
M  V30 1945 N 175.516 -2.28815 -6.63768 0
M  V30 1946 H 180.356 -2.04858 -2.16419 0
M  V30 1947 H 177.893 -1.01974 -1.06017 0
M  V30 1948 H 179.851 -0.544822 -4.13627 0
M  V30 1949 H 178.481 0.142102 -3.22487 0
M  V30 1950 H 177.533 -2.27162 -3.05125 0
M  V30 1951 H 178.845 -2.7998 -4.12811 0
M  V30 1952 H 177.999 -1.28231 -5.92994 0
M  V30 1953 H 176.738 -0.651391 -4.8333 0
M  V30 1954 H 175.743 -2.94819 -4.64071 0
M  V30 1955 H 176.968 -3.57826 -5.7718 0
M  V30 1956 H 174.914 -1.42495 -6.40337 0
M  V30 1957 H 174.831 -3.08242 -6.90306 0
M  V30 1958 H 176.099 -2.06387 -7.51681 0
M  V30 1959 N 180.328 1.1314 -1.09713 0
M  V30 1960 C 181.278 2.16709 -0.708593 0
M  V30 1961 C 182.262 1.58471 0.278523 0
M  V30 1962 O 183.454 1.76779 0.088427 0
M  V30 1963 C 180.583 3.43039 -0.133923 0
M  V30 1964 C 179.669 4.08277 -1.14763 0
M  V30 1965 N 180.06 4.48637 -2.33577 0
M  V30 1966 C 178.358 4.34954 -0.986446 0
M  V30 1967 C 179.059 4.9952 -2.98085 0
M  V30 1968 N 178.035 4.94561 -2.25632 0
M  V30 1969 H 181.837 2.45672 -1.61315 0
M  V30 1970 H 179.351 1.29967 -0.973775 0
M  V30 1971 H 181.348 4.16583 0.162465 0
M  V30 1972 H 180.008 3.15549 0.765447 0
M  V30 1973 H 181.019 4.41246 -2.7115 0
M  V30 1974 H 177.696 4.17258 -0.142008 0
M  V30 1975 H 179.086 5.40521 -3.99108 0
M  V30 1976 N 181.806 0.884767 1.30421 0
M  V30 1977 C 182.738 0.308655 2.27112 0
M  V30 1978 C 183.751 -0.536655 1.53701 0
M  V30 1979 O 184.94 -0.35624 1.74909 0
M  V30 1980 C 182.04 -0.579782 3.33904 0
M  V30 1981 C 181.213 0.236417 4.36761 0
M  V30 1982 C 180.272 -0.582482 5.22966 0
M  V30 1983 O 179.298 -0.00525502 5.692 0
M  V30 1984 N 180.5 -1.89163 5.48815 0
M  V30 1985 H 183.265 1.13964 2.77186 0
M  V30 1986 H 180.826 0.747731 1.43599 0
M  V30 1987 H 182.818 -1.13366 3.88497 0
M  V30 1988 H 181.388 -1.31144 2.83761 0
M  V30 1989 H 180.608 0.97174 3.82035 0
M  V30 1990 H 181.896 0.795924 5.02536 0
M  V30 1991 H 181.294 -2.38352 5.13035 0
M  V30 1992 H 179.851 -2.39296 6.06284 0
M  V30 1993 N 183.284 -1.43765 0.645699 0
M  V30 1994 C 184.216 -2.29027 -0.0890605 0
M  V30 1995 C 185.229 -1.42093 -0.794563 0
M  V30 1996 O 186.418 -1.66104 -0.653575 0
M  V30 1997 C 183.518 -3.18831 -1.14891 0
M  V30 1998 C 182.691 -4.34261 -0.523043 0
M  V30 1999 C 181.75 -5.04994 -1.47878 0
M  V30 2000 O 180.776 -5.6052 -0.990277 0
M  V30 2001 N 181.978 -5.07795 -2.81291 0
M  V30 2002 H 184.743 -2.92727 0.64272 0
M  V30 2003 H 182.304 -1.54373 0.487924 0
M  V30 2004 H 184.296 -3.63015 -1.78892 0
M  V30 2005 H 182.866 -2.56782 -1.78275 0
M  V30 2006 H 182.086 -3.93088 0.295896 0
M  V30 2007 H 183.374 -5.08728 -0.0858147 0
M  V30 2008 H 182.772 -4.64042 -3.23546 0
M  V30 2009 H 181.329 -5.55721 -3.40614 0
M  V30 2010 N 184.763 -0.387143 -1.52771 0
M  V30 2011 C 185.673 0.456442 -2.30117 0
M  V30 2012 C 186.689 1.07342 -1.36944 0
M  V30 2013 O 187.865 1.07971 -1.70013 0
M  V30 2014 C 184.93 1.56957 -3.09136 0
M  V30 2015 C 183.991 0.977916 -4.18014 0
M  V30 2016 C 183.224 2.038 -4.93256 0
M  V30 2017 O 183.447 3.25271 -4.68567 0
M  V30 2018 O 182.381 1.6565 -5.78657 0
M  V30 2019 H 186.207 -0.17359 -3.03203 0
M  V30 2020 H 183.792 -0.150919 -1.48636 0
M  V30 2021 H 185.674 2.21628 -3.58412 0
M  V30 2022 H 184.349 2.18461 -2.38865 0
M  V30 2023 H 183.256 0.294525 -3.72939 0
M  V30 2024 H 184.589 0.407128 -4.90513 0
M  V30 2025 N 186.241 1.57166 -0.116904 0
M  V30 2026 C 187.171 2.18222 0.830759 0
M  V30 2027 C 188.152 1.12167 1.27877 0
M  V30 2028 O 189.337 1.40394 1.34176 0
M  V30 2029 C 186.467 2.77996 2.08172 0
M  V30 2030 C 185.421 3.89614 1.77157 0
M  V30 2031 C 184.747 4.36187 3.09265 0
M  V30 2032 C 186.047 5.1181 1.04151 0
M  V30 2033 H 187.741 2.97664 0.321992 0
M  V30 2034 H 185.287 1.4318 0.153434 0
M  V30 2035 H 187.24 3.19366 2.74924 0
M  V30 2036 H 185.964 1.9584 2.6137 0
M  V30 2037 H 184.623 3.48816 1.12796 0
M  V30 2038 H 184.271 3.50893 3.60393 0
M  V30 2039 H 183.971 5.11455 2.89288 0
M  V30 2040 H 185.495 4.80207 3.77139 0
M  V30 2041 H 186.909 5.50214 1.61052 0
M  V30 2042 H 185.306 5.92648 0.942762 0
M  V30 2043 H 186.376 4.84892 0.0279022 0
M  V30 2044 N 187.719 -0.156864 1.56817 0
M  V30 2045 C 188.649 -1.19589 2.00551 0
M  V30 2046 C 189.63 -1.4536 0.883426 0
M  V30 2047 O 190.815 -1.56449 1.15054 0
M  V30 2048 C 187.945 -2.53143 2.37773 0
M  V30 2049 C 186.899 -2.41913 3.53075 0
M  V30 2050 C 186.225 -3.80088 3.76081 0
M  V30 2051 C 187.525 -1.91157 4.86062 0
M  V30 2052 H 189.219 -0.832293 2.87599 0
M  V30 2053 H 186.765 -0.398918 1.38364 0
M  V30 2054 H 188.718 -3.26047 2.66967 0
M  V30 2055 H 187.442 -2.91319 1.4765 0
M  V30 2056 H 186.101 -1.71462 3.24031 0
M  V30 2057 H 185.749 -4.15683 2.83225 0
M  V30 2058 H 185.449 -3.73439 4.53671 0
M  V30 2059 H 186.973 -4.54556 4.0769 0
M  V30 2060 H 188.387 -2.53846 5.14038 0
M  V30 2061 H 186.784 -1.95422 5.67389 0
M  V30 2062 H 187.854 -0.866673 4.77092 0
M  V30 2063 N 189.197 -1.51736 -0.425897 0
M  V30 2064 C 190.107 -1.76738 -1.54275 0
M  V30 2065 C 191.123 -0.65211 -1.61318 0
M  V30 2066 O 192.299 -0.935654 -1.78346 0
M  V30 2067 C 189.364 -1.89755 -2.90162 0
M  V30 2068 C 188.425 -3.13633 -2.93143 0
M  V30 2069 C 187.658 -3.2602 -4.22548 0
M  V30 2070 O 187.881 -2.44067 -5.15546 0
M  V30 2071 O 186.815 -4.19071 -4.32046 0
M  V30 2072 H 190.641 -2.71502 -1.36089 0
M  V30 2073 H 188.226 -1.36376 -0.610069 0
M  V30 2074 H 190.108 -2.00236 -3.70788 0
M  V30 2075 H 188.783 -0.981785 -3.08452 0
M  V30 2076 H 187.69 -3.08622 -2.11431 0
M  V30 2077 H 189.023 -4.04936 -2.798 0
M  V30 2078 N 190.675 0.682077 -1.42076 0
M  V30 2079 C 191.625 1.78823 -1.41444 0
M  V30 2080 C 192.609 1.58323 -0.28681 0
M  V30 2081 O 193.801 1.68926 -0.528498 0
M  V30 2082 C 190.93 3.17232 -1.3122 0
M  V30 2083 C 190.016 3.4338 -2.489 0
M  V30 2084 N 190.407 3.40152 -3.7434 0
M  V30 2085 C 188.705 3.73986 -2.43003 0
M  V30 2086 C 189.406 3.65581 -4.52466 0
M  V30 2087 N 188.382 3.85989 -3.8277 0
M  V30 2088 H 192.184 1.7471 -2.36334 0
M  V30 2089 H 189.698 0.882622 -1.36321 0
M  V30 2090 H 191.695 3.96489 -1.2885 0
M  V30 2091 H 190.355 3.22547 -0.373263 0
M  V30 2092 H 191.366 3.20221 -4.07037 0
M  V30 2093 H 188.043 3.86591 -1.57651 0
M  V30 2094 H 189.433 3.69108 -5.61435 0
M  V30 2095 N 192.153 1.28127 0.917671 0
M  V30 2096 C 193.085 1.07517 2.02417 0
M  V30 2097 C 194.098 0.0281099 1.62776 0
M  V30 2098 O 195.287 0.270748 1.76435 0
M  V30 2099 C 192.387 0.610957 3.33347 0
M  V30 2100 C 191.56 1.73255 4.01624 0
M  V30 2101 C 190.619 1.26238 5.10833 0
M  V30 2102 O 189.645 1.96389 5.34247 0
M  V30 2103 N 190.847 0.123448 5.80369 0
M  V30 2104 H 193.612 2.02806 2.20658 0
M  V30 2105 H 191.173 1.19827 1.08871 0
M  V30 2106 H 193.165 0.280101 4.0373 0
M  V30 2107 H 191.735 -0.24898 3.11607 0
M  V30 2108 H 190.955 2.23319 3.24842 0
M  V30 2109 H 192.243 2.48503 4.43986 0
M  V30 2110 H 191.641 -0.461847 5.63812 0
M  V30 2111 H 190.198 -0.148158 6.51632 0
M  V30 2112 N 193.631 -1.12557 1.10312 0
M  V30 2113 C 195.047 -1.36036 0.834649 0
M  V30 2114 C 195.247 -1.93946 -0.546539 0
M  V30 2115 O 194.303 -2.16484 -1.29966 0
M  V30 2116 C 195.616 -2.30312 1.9333 0
M  V30 2117 C 197.164 -2.43906 1.9616 0
M  V30 2118 C 197.639 -3.41496 3.05195 0
M  V30 2119 N 199.13 -3.49053 3.04494 0
M  V30 2120 C 199.865 -4.24471 3.85502 0
M  V30 2121 N 199.361 -5.02966 4.76442 0
M  V30 2122 N 201.154 -4.19864 3.73725 0
M  V30 2123 H 193.305 -0.733246 1.99342 0
M  V30 2124 H 195.568 -0.385234 0.866198 0
M  V30 2125 H 195.274 -1.94933 2.92735 0
M  V30 2126 H 195.148 -3.30421 1.81939 0
M  V30 2127 H 197.535 -2.78567 0.973886 0
M  V30 2128 H 197.616 -1.4369 2.11629 0
M  V30 2129 H 197.26 -3.07565 4.04186 0
M  V30 2130 H 197.19 -4.41539 2.86968 0
M  V30 2131 H 199.681 -2.93053 2.38596 0
M  V30 2132 H 199.994 -5.57846 5.34815 0
M  V30 2133 H 198.339 -5.02167 4.80472 0
M  V30 2134 H 201.53 -3.57623 3.02032 0
M  V30 2135 H 201.703 -4.78386 4.37093 0
M  V30 2136 N 195.109 -0.891671 -1.2995 0
M  V30 2137 C 196.056 -0.361736 -2.27948 0
M  V30 2138 C 197.026 0.551761 -1.56668 0
M  V30 2139 O 198.211 0.478736 -1.84696 0
M  V30 2140 C 195.351 0.411825 -3.42634 0
M  V30 2141 C 194.464 -0.531651 -4.28716 0
M  V30 2142 C 193.599 0.258167 -5.30572 0
M  V30 2143 C 192.638 -0.680349 -6.08307 0
M  V30 2144 N 191.775 0.0745613 -7.0206 0
M  V30 2145 H 196.615 -1.20254 -2.72659 0
M  V30 2146 H 194.152 -0.604352 -1.34112 0
M  V30 2147 H 196.11 0.876304 -4.07893 0
M  V30 2148 H 194.74 1.21715 -2.98974 0
M  V30 2149 H 193.792 -1.11463 -3.63703 0
M  V30 2150 H 195.104 -1.25038 -4.82874 0
M  V30 2151 H 194.258 0.784204 -6.0161 0
M  V30 2152 H 192.997 1.01008 -4.77126 0
M  V30 2153 H 192.002 -1.21796 -5.3614 0
M  V30 2154 H 193.227 -1.43145 -6.63842 0
M  V30 2155 H 191.173 0.808883 -6.50994 0
M  V30 2156 H 191.09 -0.584409 -7.53738 0
M  V30 2157 H 192.358 0.581123 -7.77331 0
M  V30 2158 N 196.587 1.43421 -0.653314 0
M  V30 2159 C 197.517 2.33487 0.0246656 0
M  V30 2160 C 198.498 1.49475 0.811863 0
M  V30 2161 O 199.683 1.78139 0.773322 0
M  V30 2162 C 196.813 3.32841 0.99166 0
M  V30 2163 C 195.767 4.26842 0.314568 0
M  V30 2164 C 195.093 5.16236 1.39302 0
M  V30 2165 C 196.393 5.16243 -0.793095 0
M  V30 2166 H 198.087 2.90427 -0.727481 0
M  V30 2167 H 195.633 1.39649 -0.351287 0
M  V30 2168 H 197.586 3.94747 1.47487 0
M  V30 2169 H 196.31 2.74158 1.77497 0
M  V30 2170 H 194.969 3.663 -0.148199 0
M  V30 2171 H 194.617 4.53891 2.16776 0
M  V30 2172 H 194.317 5.79948 0.945223 0
M  V30 2173 H 195.841 5.81015 1.87759 0
M  V30 2174 H 197.255 5.71958 -0.392039 0
M  V30 2175 H 195.652 5.88676 -1.16536 0
M  V30 2176 H 196.722 4.55927 -1.65103 0
M  V30 2177 N 198.065 0.39524 1.52563 0
M  V30 2178 C 198.975 -0.444232 2.30356 0
M  V30 2179 C 199.991 -1.06615 1.37511 0
M  V30 2180 O 201.167 -1.07067 1.70583 0
M  V30 2181 C 198.232 -1.55315 3.09964 0
M  V30 2182 C 197.293 -0.955734 4.18526 0
M  V30 2183 C 196.526 -2.01181 4.9433 0
M  V30 2184 O 196.749 -3.22781 4.70285 0
M  V30 2185 O 195.683 -1.62579 5.79527 0
M  V30 2186 H 199.509 0.189667 3.03107 0
M  V30 2187 H 197.094 0.1588 1.48554 0
M  V30 2188 H 198.976 -2.19724 3.59582 0
M  V30 2189 H 197.651 -2.17191 2.4002 0
M  V30 2190 H 196.558 -0.274743 3.7309 0
M  V30 2191 H 197.891 -0.381109 4.90722 0
M  V30 2192 N 199.544 -1.57102 0.125237 0
M  V30 2193 C 200.96 -1.57915 -0.231322 0
M  V30 2194 C 201.16 -1.13833 -1.66266 0
M  V30 2195 O 200.216 -0.828581 -2.38518 0
M  V30 2196 C 201.529 -3.00699 0.00766489 0
M  V30 2197 C 203.077 -3.12947 -0.0577483 0
M  V30 2198 C 203.552 -4.57742 0.153626 0
M  V30 2199 N 205.043 -4.63092 0.0998073 0
M  V30 2200 C 205.778 -5.72905 0.238174 0
M  V30 2201 N 205.274 -6.91445 0.433057 0
M  V30 2202 N 207.067 -5.6182 0.177308 0
M  V30 2203 H 199.218 -1.84055 1.06007 0
M  V30 2204 H 201.481 -0.850905 0.417929 0
M  V30 2205 H 201.187 -3.3726 0.997431 0
M  V30 2206 H 201.061 -3.70236 -0.721452 0
M  V30 2207 H 203.448 -2.7624 -1.03804 0
M  V30 2208 H 203.529 -2.4594 0.70335 0
M  V30 2209 H 203.173 -4.95149 1.13092 0
M  V30 2210 H 203.103 -5.22848 -0.627534 0
M  V30 2211 H 205.594 -3.77871 -0.047051 0
M  V30 2212 H 205.907 -7.70985 0.529332 0
M  V30 2213 H 204.252 -6.93415 0.469109 0
M  V30 2214 H 207.443 -4.68093 0.0259748 0
M  V30 2215 H 207.616 -6.47357 0.288582 0
M  V30 2216 N 201.022 0.148545 -1.56898 0
M  V30 2217 C 201.972 1.1886 -1.94567 0
M  V30 2218 C 202.956 1.3863 -0.816735 0
M  V30 2219 O 204.148 1.40218 -1.08018 0
M  V30 2220 C 201.277 2.52262 -2.32849 0
M  V30 2221 C 200.363 2.36092 -3.52309 0
M  V30 2222 N 200.754 1.89674 -4.6889 0
M  V30 2223 C 199.052 2.66848 -3.57363 0
M  V30 2224 C 199.753 1.86511 -5.50989 0
M  V30 2225 N 198.729 2.29766 -4.92655 0
M  V30 2226 H 202.531 0.821793 -2.82177 0
M  V30 2227 H 200.045 0.356615 -1.58436 0
M  V30 2228 H 202.042 3.27447 -2.58039 0
M  V30 2229 H 200.702 2.89727 -1.46589 0
M  V30 2230 H 201.713 1.59663 -4.92674 0
M  V30 2231 H 198.39 3.08198 -2.81639 0
M  V30 2232 H 199.78 1.52128 -6.54452 0
M  V30 2233 N 202.5 1.5196 0.417844 0
M  V30 2234 C 203.916 1.40569 0.755816 0
M  V30 2235 C 204.116 0.503316 1.95113 0
M  V30 2236 O 203.172 -0.0341925 2.52477 0
M  V30 2237 C 204.485 2.82947 1.01791 0
M  V30 2238 C 206.033 2.92231 1.12116 0
M  V30 2239 C 206.508 4.35559 1.41608 0
M  V30 2240 N 207.999 4.38753 1.48491 0
M  V30 2241 C 208.734 5.46705 1.7292 0
M  V30 2242 N 208.23 6.64788 1.95011 0
M  V30 2243 N 210.023 5.34209 1.74863 0
M  V30 2244 H 202.174 2.09168 -0.369098 0
M  V30 2245 H 204.437 0.942409 -0.102809 0
M  V30 2246 H 204.143 3.5106 0.212081 0
M  V30 2247 H 204.017 3.23462 1.94042 0
M  V30 2248 H 206.404 2.24304 1.9176 0
M  V30 2249 H 206.485 2.55185 0.177225 0
M  V30 2250 H 206.129 5.04042 0.624848 0
M  V30 2251 H 206.059 4.70133 2.37239 0
M  V30 2252 H 208.55 3.5363 1.33244 0
M  V30 2253 H 208.863 7.42845 2.13076 0
M  V30 2254 H 207.208 6.67869 1.92293 0
M  V30 2255 H 210.399 4.40937 1.57137 0
M  V30 2256 H 210.572 6.18415 1.93563 0
M  V30 2257 N 203.978 -0.674533 1.42435 0
M  V30 2258 C 204.91 -1.80005 1.41883 0
M  V30 2259 C 205.923 -1.59667 0.31787 0
M  V30 2260 O 207.112 -1.68781 0.580973 0
M  V30 2261 C 204.212 -3.17114 1.19549 0
M  V30 2262 C 203.385 -3.64299 2.42084 0
M  V30 2263 C 202.444 -4.80142 2.15291 0
M  V30 2264 O 201.47 -4.90673 2.88493 0
M  V30 2265 N 202.672 -5.68869 1.1562 0
M  V30 2266 H 205.437 -1.80964 2.38898 0
M  V30 2267 H 202.998 -0.857633 1.37318 0
M  V30 2268 H 204.99 -3.92267 0.995417 0
M  V30 2269 H 203.56 -3.11053 0.310569 0
M  V30 2270 H 202.78 -2.79822 2.77657 0
M  V30 2271 H 204.068 -3.92567 3.23679 0
M  V30 2272 H 203.466 -5.63012 0.550765 0
M  V30 2273 H 202.023 -6.43833 1.016 0
M  V30 2274 N 205.456 -1.28612 -0.910864 0
M  V30 2275 C 206.366 -1.14643 -2.0468 0
M  V30 2276 C 207.382 -0.0723121 -1.7385 0
M  V30 2277 O 208.558 -0.282178 -1.99413 0
M  V30 2278 C 205.623 -0.812561 -3.37044 0
M  V30 2279 C 204.684 -1.96935 -3.81465 0
M  V30 2280 C 203.917 -1.65131 -5.07511 0
M  V30 2281 O 204.14 -0.567013 -5.67575 0
M  V30 2282 O 203.074 -2.49585 -5.47714 0
M  V30 2283 H 206.9 -2.1001 -2.19384 0
M  V30 2284 H 204.485 -1.07958 -1.03274 0
M  V30 2285 H 206.367 -0.640441 -4.16505 0
M  V30 2286 H 205.042 0.111426 -3.23508 0
M  V30 2287 H 203.949 -2.19664 -3.02818 0
M  V30 2288 H 205.282 -2.87414 -3.99567 0
M  V30 2289 N 206.934 1.1197 -1.10907 0
M  V30 2290 C 207.866 2.17592 -0.720175 0
M  V30 2291 C 208.879 1.60938 0.245495 0
M  V30 2292 O 210.068 1.78476 0.0292245 0
M  V30 2293 C 207.168 3.38873 -0.0427917 0
M  V30 2294 C 206.341 4.25006 -1.03388 0
M  V30 2295 C 205.4 5.24774 -0.387075 0
M  V30 2296 O 204.426 5.59631 -1.03934 0
M  V30 2297 N 205.628 5.74208 0.852407 0
M  V30 2298 H 208.393 2.51567 -1.62893 0
M  V30 2299 H 205.954 1.27439 -0.998543 0
M  V30 2300 H 207.946 4.02703 0.401501 0
M  V30 2301 H 206.516 3.03007 0.768456 0
M  V30 2302 H 205.736 3.57716 -1.65629 0
M  V30 2303 H 207.024 4.79397 -1.70458 0
M  V30 2304 H 206.422 5.48062 1.40161 0
M  V30 2305 H 204.979 6.39901 1.23977 0
M  V30 2306 N 208.412 0.89855 1.29475 0
M  V30 2307 C 209.322 0.379974 2.31502 0
M  V30 2308 C 210.338 -0.524695 1.659 0
M  V30 2309 O 211.514 -0.414551 1.97087 0
M  V30 2310 C 208.579 -0.385138 3.44554 0
M  V30 2311 C 207.64 0.550914 4.2575 0
M  V30 2312 C 206.873 -0.177778 5.33404 0
M  V30 2313 O 207.096 -1.40189 5.52904 0
M  V30 2314 O 206.03 0.479106 5.9999 0
M  V30 2315 H 209.856 1.22639 2.77837 0
M  V30 2316 H 207.441 0.662834 1.33891 0
M  V30 2317 H 209.323 -0.817841 4.13388 0
M  V30 2318 H 207.998 -1.20763 3.0033 0
M  V30 2319 H 206.905 1.03271 3.59564 0
M  V30 2320 H 208.238 1.33979 4.73614 0
M  V30 2321 N 209.89 -1.43072 0.660911 0
M  V30 2322 C 210.82 -2.33497 -0.0122829 0
M  V30 2323 C 211.801 -1.49903 -0.803925 0
M  V30 2324 O 212.986 -1.78546 -0.763864 0
M  V30 2325 C 210.116 -3.33363 -0.973994 0
M  V30 2326 C 209.07 -4.27003 -0.291928 0
M  V30 2327 C 208.396 -5.16967 -1.36562 0
M  V30 2328 C 209.696 -5.15816 0.820462 0
M  V30 2329 H 211.39 -2.90038 0.742873 0
M  V30 2330 H 208.936 -1.39461 0.358688 0
M  V30 2331 H 210.889 -3.95524 -1.45392 0
M  V30 2332 H 209.613 -2.75095 -1.7604 0
M  V30 2333 H 208.272 -3.66217 0.167623 0
M  V30 2334 H 207.92 -4.55034 -2.14366 0
M  V30 2335 H 207.62 -5.80441 -0.914454 0
M  V30 2336 H 209.144 -5.82003 -1.84675 0
M  V30 2337 H 210.558 -5.71742 0.422366 0
M  V30 2338 H 208.955 -5.8805 1.19656 0
M  V30 2339 H 210.025 -4.55045 1.67518 0
M  V30 2340 N 211.368 -0.403325 -1.52352 0
M  V30 2341 C 212.278 0.432009 -2.30588 0
M  V30 2342 C 213.294 1.05884 -1.38075 0
M  V30 2343 O 214.47 1.06161 -1.71148 0
M  V30 2344 C 211.535 1.53669 -3.10784 0
M  V30 2345 C 210.596 0.933525 -4.19027 0
M  V30 2346 C 209.829 1.98557 -4.9539 0
M  V30 2347 O 210.052 3.20283 -4.71991 0
M  V30 2348 O 208.986 1.59504 -5.80381 0
M  V30 2349 H 212.812 -0.205739 -3.03002 0
M  V30 2350 H 210.397 -0.166675 -1.48467 0
M  V30 2351 H 212.279 2.17814 -3.60742 0
M  V30 2352 H 210.954 2.15915 -2.41169 0
M  V30 2353 H 209.861 0.254954 -3.7323 0
M  V30 2354 H 211.194 0.35508 -4.90918 0
M  V30 2355 N 212.846 1.57033 -0.133567 0
M  V30 2356 C 213.793 2.16074 0.811208 0
M  V30 2357 C 214.763 1.08979 1.2535 0
M  V30 2358 O 215.948 1.36958 1.32843 0
M  V30 2359 C 213.088 2.77595 2.05024 0
M  V30 2360 C 212.201 3.99042 1.65498 0
M  V30 2361 C 211.336 4.48603 2.84479 0
M  V30 2362 C 210.375 5.62547 2.41262 0
M  V30 2363 N 209.512 6.06787 3.53206 0
M  V30 2364 H 214.352 2.96477 0.300906 0
M  V30 2365 H 211.889 1.46462 0.136822 0
M  V30 2366 H 213.847 3.11402 2.77642 0
M  V30 2367 H 212.477 1.99859 2.53488 0
M  V30 2368 H 211.529 3.71302 0.826981 0
M  V30 2369 H 212.841 4.81629 1.29748 0
M  V30 2370 H 211.995 4.84395 3.65303 0
M  V30 2371 H 210.734 3.64995 3.23465 0
M  V30 2372 H 209.739 5.26345 1.58874 0
M  V30 2373 H 210.964 6.47931 2.03377 0
M  V30 2374 H 208.91 5.26117 3.91838 0
M  V30 2375 H 208.827 6.84266 3.21427 0
M  V30 2376 H 210.095 6.4722 4.34427 0
M  V30 2377 N 214.325 -0.140222 1.56975 0
M  V30 2378 C 215.257 -1.19818 1.95388 0
M  V30 2379 C 216.27 -1.38816 0.850525 0
M  V30 2380 O 217.459 -1.38267 1.12891 0
M  V30 2381 C 214.559 -2.56189 2.21857 0
M  V30 2382 C 213.732 -2.58077 3.5315 0
M  V30 2383 C 212.791 -3.76037 3.6808 0
M  V30 2384 O 211.817 -3.60598 4.40406 0
M  V30 2385 N 213.019 -4.93763 3.05251 0
M  V30 2386 H 215.784 -0.871609 2.86746 0
M  V30 2387 H 213.345 -0.32972 1.58507 0
M  V30 2388 H 215.337 -3.33623 2.2908 0
M  V30 2389 H 213.907 -2.81111 1.36731 0
M  V30 2390 H 213.127 -1.6651 3.57307 0
M  V30 2391 H 214.415 -2.56377 4.39486 0
M  V30 2392 H 213.813 -5.09209 2.46419 0
M  V30 2393 H 212.37 -5.68949 3.18026 0
M  V30 2394 N 215.803 -1.52179 -0.40978 0
M  V30 2395 C 216.753 -1.71857 -1.49831 0
M  V30 2396 C 217.737 -0.572469 -1.50372 0
M  V30 2397 O 218.929 -0.829509 -1.56359 0
M  V30 2398 C 216.058 -1.87206 -2.87765 0
M  V30 2399 C 215.144 -3.07685 -2.91875 0
M  V30 2400 N 215.535 -4.30403 -2.65683 0
M  V30 2401 C 213.833 -3.07505 -3.23043 0
M  V30 2402 C 214.534 -5.11868 -2.76344 0
M  V30 2403 N 213.51 -4.47101 -3.09195 0
M  V30 2404 H 217.312 -2.64381 -1.28375 0
M  V30 2405 H 214.826 -1.50203 -0.617479 0
M  V30 2406 H 216.823 -1.99419 -3.66111 0
M  V30 2407 H 215.483 -0.958814 -3.10221 0
M  V30 2408 H 216.494 -4.58887 -2.4009 0
M  V30 2409 H 213.171 -2.25915 -3.51096 0
M  V30 2410 H 214.561 -6.19634 -2.59814 0
M  V30 2411 N 217.281 0.66697 -1.42791 0
M  V30 2412 C 218.697 0.981027 -1.25889 0
M  V30 2413 C 218.897 2.00793 -0.168695 0
M  V30 2414 O 217.953 2.48321 0.45747 0
M  V30 2415 C 219.266 1.47838 -2.61848 0
M  V30 2416 C 220.814 1.59575 -2.69267 0
M  V30 2417 C 221.289 2.12704 -4.05612 0
M  V30 2418 N 222.78 2.20026 -4.07606 0
M  V30 2419 C 223.515 2.62227 -5.09926 0
M  V30 2420 N 223.011 3.03824 -6.22626 0
M  V30 2421 N 224.804 2.62045 -4.97281 0
M  V30 2422 H 216.955 -0.0127891 -2.12396 0
M  V30 2423 H 219.218 0.0568258 -0.946295 0
M  V30 2424 H 218.924 0.798299 -3.4252 0
M  V30 2425 H 218.798 2.45579 -2.86305 0
M  V30 2426 H 221.185 2.26687 -1.88936 0
M  V30 2427 H 221.266 0.60302 -2.48591 0
M  V30 2428 H 220.91 1.46198 -4.86404 0
M  V30 2429 H 220.84 3.12782 -4.23645 0
M  V30 2430 H 223.331 1.90708 -3.2625 0
M  V30 2431 H 223.644 3.34734 -6.96544 0
M  V30 2432 H 221.989 3.01662 -6.26119 0
M  V30 2433 H 225.18 2.28916 -4.08308 0
M  V30 2434 H 225.353 2.94613 -5.77154 0
M  V30 2435 N 218.759 1.29093 0.90403 0
M  V30 2436 C 219.669 1.15727 2.0407 0
M  V30 2437 C 220.685 0.0815308 1.73809 0
M  V30 2438 O 221.861 0.292749 1.99261 0
M  V30 2439 C 218.926 0.830424 3.36608 0
M  V30 2440 C 217.987 1.98955 3.80415 0
M  V30 2441 C 217.22 1.6782 5.06628 0
M  V30 2442 O 217.443 0.597105 5.67266 0
M  V30 2443 O 216.377 2.52486 5.46383 0
M  V30 2444 H 220.203 2.11171 2.18267 0
M  V30 2445 H 217.788 1.08504 1.027 0
M  V30 2446 H 219.67 0.662521 4.16159 0
M  V30 2447 H 218.345 -0.0942678 3.23563 0
M  V30 2448 H 217.252 2.21267 3.01648 0
M  V30 2449 H 218.585 2.89529 3.98037 0
M  V30 2450 N 220.237 -1.11381 1.11499 0
M  V30 2451 C 221.169 -2.17207 0.731704 0
M  V30 2452 C 222.182 -1.61066 -0.236957 0
M  V30 2453 O 223.371 -1.78489 -0.0197591 0
M  V30 2454 C 220.471 -3.38846 0.0607624 0
M  V30 2455 C 219.644 -4.24451 1.0564 0
M  V30 2456 C 218.703 -5.24562 0.4149 0
M  V30 2457 O 217.729 -5.59071 1.069 0
M  V30 2458 N 218.931 -5.74651 -0.821943 0
M  V30 2459 H 221.696 -2.50699 1.64225 0
M  V30 2460 H 219.257 -1.26908 1.00529 0
M  V30 2461 H 221.249 -4.02911 -0.380139 0
M  V30 2462 H 219.819 -3.03411 -0.752376 0
M  V30 2463 H 219.039 -3.56833 1.67524 0
M  V30 2464 H 220.327 -4.78486 1.72998 0
M  V30 2465 H 219.725 -5.48797 -1.37252 0
M  V30 2466 H 218.282 -6.40549 -1.20582 0
M  V30 2467 N 221.715 -0.905404 -1.28997 0
M  V30 2468 C 222.662 -0.385892 -2.27551 0
M  V30 2469 C 223.632 0.535113 -1.57244 0
M  V30 2470 O 224.817 0.459119 -1.85194 0
M  V30 2471 C 221.957 0.375461 -3.43051 0
M  V30 2472 C 221.07 -0.577092 -4.28128 0
M  V30 2473 C 220.205 0.201879 -5.30816 0
M  V30 2474 C 219.244 -0.744829 -6.07551 0
M  V30 2475 N 218.381 9.42587e-05 -7.021 0
M  V30 2476 H 223.221 -1.23139 -2.71368 0
M  V30 2477 H 220.758 -0.618542 -1.33463 0
M  V30 2478 H 222.716 0.832992 -4.088 0
M  V30 2479 H 221.346 1.18537 -3.00248 0
M  V30 2480 H 220.398 -1.15315 -3.62501 0
M  V30 2481 H 221.71 -1.30152 -4.8152 0
M  V30 2482 H 220.864 0.720351 -6.02408 0
M  V30 2483 H 219.603 0.959413 -4.7817 0
M  V30 2484 H 218.608 -1.27475 -5.34818 0
M  V30 2485 H 219.833 -1.50178 -6.62286 0
M  V30 2486 H 217.779 0.739791 -6.51815 0
M  V30 2487 H 217.696 -0.664321 -7.53076 0
M  V30 2488 H 218.964 0.498644 -7.77903 0
M  V30 2489 N 223.193 1.4272 -0.668489 0
M  V30 2490 C 224.123 2.335 -0.000100175 0
M  V30 2491 C 225.104 1.50328 0.795964 0
M  V30 2492 O 226.289 1.78949 0.754385 0
M  V30 2493 C 223.419 3.33874 0.956302 0
M  V30 2494 C 222.373 4.27152 0.269278 0
M  V30 2495 C 221.699 5.17684 1.33818 0
M  V30 2496 C 222.999 5.15373 -0.847805 0
M  V30 2497 H 224.693 2.89639 -0.758244 0
M  V30 2498 H 222.239 1.39269 -0.366079 0
M  V30 2499 H 224.192 3.9629 1.43292 0
M  V30 2500 H 222.916 2.76025 1.74579 0
M  V30 2501 H 221.575 3.66123 -0.187042 0
M  V30 2502 H 221.223 4.56165 2.1195 0
M  V30 2503 H 220.923 5.80918 0.883659 0
M  V30 2504 H 222.447 5.82974 1.81586 0
M  V30 2505 H 223.861 5.7151 -0.452681 0
M  V30 2506 H 222.258 5.87407 -1.22773 0
M  V30 2507 H 223.328 4.5415 -1.69929 0
M  V30 2508 N 224.671 0.411399 1.52136 0
M  V30 2509 C 225.603 -0.448386 2.24771 0
M  V30 2510 C 226.616 -1.00828 1.27818 0
M  V30 2511 O 227.805 -0.906841 1.53749 0
M  V30 2512 C 224.905 -1.63636 2.96777 0
M  V30 2513 C 224.078 -1.19995 4.20618 0
M  V30 2514 C 223.137 -2.25509 4.75428 0
M  V30 2515 O 222.163 -1.86007 5.3795 0
M  V30 2516 N 223.365 -3.577 4.57199 0
M  V30 2517 H 226.13 0.174025 2.99194 0
M  V30 2518 H 223.691 0.238897 1.60128 0
M  V30 2519 H 225.683 -2.33793 3.30338 0
M  V30 2520 H 224.253 -2.16465 2.25526 0
M  V30 2521 H 223.473 -0.326421 3.92846 0
M  V30 2522 H 224.761 -0.885365 5.01038 0
M  V30 2523 H 224.159 -3.92543 4.07341 0
M  V30 2524 H 222.716 -4.23827 4.95191 0
M  V30 2525 N 226.149 -1.5696 0.141893 0
M  V30 2526 C 227.081 -2.13619 -0.830627 0
M  V30 2527 C 228.094 -1.08439 -1.21428 0
M  V30 2528 O 229.283 -1.35734 -1.15925 0
M  V30 2529 C 226.383 -2.63978 -2.12529 0
M  V30 2530 C 225.556 -3.93504 -1.9098 0
M  V30 2531 C 224.615 -4.29225 -3.04388 0
M  V30 2532 O 223.641 -4.97641 -2.76302 0
M  V30 2533 N 224.843 -3.88393 -4.31429 0
M  V30 2534 H 227.608 -2.97691 -0.34641 0
M  V30 2535 H 225.169 -1.61846 -0.0418375 0
M  V30 2536 H 227.161 -2.84891 -2.87436 0
M  V30 2537 H 225.731 -1.84659 -2.52229 0
M  V30 2538 H 224.951 -3.81269 -1.00139 0
M  V30 2539 H 226.239 -4.78154 -1.73914 0
M  V30 2540 H 225.637 -3.33257 -4.57117 0
M  V30 2541 H 224.194 -4.14368 -5.03133 0
M  V30 2542 N 227.627 0.131896 -1.57047 0
M  V30 2543 C 228.557 1.16384 -2.02428 0
M  V30 2544 C 229.538 1.43936 -0.90644 0
M  V30 2545 O 230.723 1.54599 -1.17528 0
M  V30 2546 C 227.853 2.49328 -2.4177 0
M  V30 2547 C 226.807 2.36266 -3.56879 0
M  V30 2548 C 226.133 3.74057 -3.8208 0
M  V30 2549 C 227.433 1.834 -4.89042 0
M  V30 2550 H 229.127 0.786433 -2.88887 0
M  V30 2551 H 226.673 0.376855 -1.38981 0
M  V30 2552 H 228.626 3.21759 -2.7212 0
M  V30 2553 H 227.35 2.88934 -1.52266 0
M  V30 2554 H 226.009 1.66286 -3.26718 0
M  V30 2555 H 225.657 4.11125 -2.89803 0
M  V30 2556 H 225.357 3.66174 -4.59554 0
M  V30 2557 H 226.881 4.48012 -4.1487 0
M  V30 2558 H 228.295 2.45636 -5.18011 0
M  V30 2559 H 226.692 1.8637 -5.70426 0
M  V30 2560 H 227.762 0.790662 -4.7841 0
M  V30 2561 N 229.106 1.52395 0.401703 0
M  V30 2562 C 230.053 1.76268 1.48991 0
M  V30 2563 C 231.023 0.605386 1.54675 0
M  V30 2564 O 232.208 0.843742 1.7113 0
M  V30 2565 C 229.348 1.92592 2.86361 0
M  V30 2566 C 228.461 3.20259 2.89928 0
M  V30 2567 C 227.596 3.26972 4.18644 0
M  V30 2568 C 226.635 4.48812 4.16214 0
M  V30 2569 N 225.772 4.52877 5.36514 0
M  V30 2570 H 230.612 2.6914 1.27935 0
M  V30 2571 H 228.149 1.33355 0.620871 0
M  V30 2572 H 230.107 2.0004 3.66115 0
M  V30 2573 H 228.737 1.03093 3.05895 0
M  V30 2574 H 227.789 3.21945 2.02621 0
M  V30 2575 H 229.101 4.10056 2.83999 0
M  V30 2576 H 228.255 3.33533 5.06794 0
M  V30 2577 H 226.994 2.35126 4.27278 0
M  V30 2578 H 225.999 4.4239 3.26453 0
M  V30 2579 H 227.224 5.41961 4.09213 0
M  V30 2580 H 225.17 3.63917 5.45802 0
M  V30 2581 H 225.087 5.36529 5.32609 0
M  V30 2582 H 226.355 4.63676 6.26597 0
M  V30 2583 N 230.584 -0.659388 1.43143 0
M  V30 2584 C 231.532 -1.79374 1.4808 0
M  V30 2585 C 232.526 -1.65639 0.354988 0
M  V30 2586 O 233.732 -1.7206 0.528704 0
M  V30 2587 H 230.107 -0.591705 0.4641 0
M  V30 2588 H 232.078 -1.72329 2.43609 0
M  V30 2589 C 230.827 -3.17606 1.41499 0
M  V30 2590 H 230.15 -3.28809 2.27431 0
M  V30 2591 H 231.59 -3.96951 1.49015 0
M  V30 2592 C 230.049 -3.36642 0.131765 0
M  V30 2593 O 230.579 -3.93461 -0.809386 0
M  V30 2594 N 228.785 -2.90567 0.0439396 0
M  V30 2595 H 228.332 -2.44513 0.810619 0
M  V30 2596 H 228.29 -3.03681 -0.813969 0
M  V30 2597 N 232.062 -1.29571 -0.897171 0
M  V30 2598 C 233.009 -1.14916 -2.00158 0
M  V30 2599 C 233.979 -0.0418149 -1.66047 0
M  V30 2600 O 235.164 -0.209793 -1.89643 0
M  V30 2601 C 232.304 -0.834307 -3.34863 0
M  V30 2602 C 231.417 -2.02234 -3.8174 0
M  V30 2603 C 230.552 -1.64664 -5.05034 0
M  V30 2604 C 229.591 -2.80033 -5.44286 0
M  V30 2605 N 228.728 -2.42843 -6.58765 0
M  V30 2606 H 233.568 -2.09403 -2.12025 0
M  V30 2607 H 231.105 -1.042 -1.0383 0
M  V30 2608 H 233.063 -0.632436 -4.12379 0
M  V30 2609 H 231.693 0.0736656 -3.22716 0
M  V30 2610 H 230.745 -2.33583 -3.00238 0
M  V30 2611 H 232.057 -2.88673 -4.06779 0
M  V30 2612 H 231.211 -1.4078 -5.9014 0
M  V30 2613 H 229.95 -0.753766 -4.8184 0
M  V30 2614 H 228.955 -3.04596 -4.57713 0
M  V30 2615 H 230.18 -3.69989 -5.6946 0
M  V30 2616 H 228.126 -1.56046 -6.3717 0
M  V30 2617 H 228.043 -3.22815 -6.83613 0
M  V30 2618 H 229.311 -2.22285 -7.47134 0
M  V30 2619 N 233.54 1.10788 -1.12088 0
M  V30 2620 C 234.45 2.20599 -0.798338 0
M  V30 2621 C 235.466 1.72712 0.21135 0
M  V30 2622 O 236.642 2.01348 0.0458477 0
M  V30 2623 C 233.707 3.45771 -0.253674 0
M  V30 2624 C 232.768 4.08411 -1.32283 0
M  V30 2625 C 232.001 5.27608 -0.80406 0
M  V30 2626 O 232.224 5.69241 0.363478 0
M  V30 2627 O 231.158 5.8101 -1.57198 0
M  V30 2628 H 234.984 2.50614 -1.7154 0
M  V30 2629 H 232.569 1.19454 -0.897275 0
M  V30 2630 H 234.451 4.21376 0.0453691 0
M  V30 2631 H 233.126 3.1739 0.636005 0
M  V30 2632 H 232.033 3.34507 -1.67499 0
M  V30 2633 H 233.366 4.40986 -2.18614 0
M  V30 2634 N 235.018 0.912232 1.28515 0
M  V30 2635 C 235.965 0.397954 2.27343 0
M  V30 2636 C 236.935 -0.526766 1.57526 0
M  V30 2637 O 238.12 -0.449292 1.85435 0
M  V30 2638 C 235.26 -0.357263 3.43246 0
M  V30 2639 C 234.373 0.599788 4.27816 0
M  V30 2640 C 233.508 -0.173725 5.30916 0
M  V30 2641 C 232.547 0.777039 6.07148 0
M  V30 2642 N 231.684 0.0371398 7.0209 0
M  V30 2643 H 236.524 1.24577 2.70711 0
M  V30 2644 H 234.061 0.625612 1.33133 0
M  V30 2645 H 236.019 -0.8113 4.09236 0
M  V30 2646 H 234.649 -1.16943 3.00872 0
M  V30 2647 H 233.701 1.17235 3.61884 0
M  V30 2648 H 235.013 1.32704 4.80823 0
M  V30 2649 H 234.167 -0.688394 6.02782 0
M  V30 2650 H 232.906 -0.934041 4.78672 0
M  V30 2651 H 231.911 1.3031 5.34134 0
M  V30 2652 H 233.136 1.53689 6.61481 0
M  V30 2653 H 231.082 -0.705213 6.52198 0
M  V30 2654 H 230.999 0.704249 7.52713 0
M  V30 2655 H 232.267 -0.457383 7.78157 0
M  V30 2656 N 236.496 -1.42363 0.676048 0
M  V30 2657 C 237.744 -2.01123 0.198437 0
M  V30 2658 C 238.065 -1.53731 -1.19966 0
M  V30 2659 O 237.335 -0.759518 -1.80577 0
M  V30 2660 H 235.915 -0.743678 0.0703721 0
M  V30 2661 H 238.577 -1.74263 0.872837 0
M  V30 2662 H 237.673 -3.11454 0.200686 0
M  V30 2663 N 237.974 -0.419461 -1.51915 0
M  V30 2664 C 238.921 0.400927 -2.27291 0
M  V30 2665 C 239.891 1.03224 -1.30131 0
M  V30 2666 O 241.076 1.05455 -1.59009 0
M  V30 2667 C 238.216 1.50603 -3.10504 0
M  V30 2668 C 237.329 0.89462 -4.22635 0
M  V30 2669 C 236.464 1.97328 -4.93189 0
M  V30 2670 C 235.503 1.33935 -5.97267 0
M  V30 2671 N 234.64 2.3586 -6.61298 0
M  V30 2672 H 239.48 -0.248251 -2.96964 0
M  V30 2673 H 237.017 -0.134266 -1.46486 0
M  V30 2674 H 238.975 2.15783 -3.57062 0
M  V30 2675 H 237.605 2.12509 -2.42981 0
M  V30 2676 H 236.657 0.131583 -3.80172 0
M  V30 2677 H 237.969 0.391641 -4.9726 0
M  V30 2678 H 237.123 2.70211 -5.43204 0
M  V30 2679 H 235.862 2.50994 -4.18155 0
M  V30 2680 H 234.867 0.595896 -5.46561 0
M  V30 2681 H 236.092 0.810252 -6.74249 0
M  V30 2682 H 234.038 2.88639 -5.89087 0
M  V30 2683 H 233.955 1.90403 -7.3163 0
M  V30 2684 H 235.223 3.08282 -7.15949 0
M  V30 2685 N 239.452 1.56882 -0.150215 0
M  V30 2686 C 240.362 2.20494 0.801222 0
M  V30 2687 C 241.378 1.19019 1.26927 0
M  V30 2688 O 242.554 1.51607 1.32579 0
M  V30 2689 C 239.619 2.81659 2.02161 0
M  V30 2690 C 238.68 3.9827 1.60249 0
M  V30 2691 C 237.913 4.56508 2.7647 0
M  V30 2692 O 238.136 4.13627 3.92771 0
M  V30 2693 O 237.07 5.46719 2.51757 0
M  V30 2694 H 240.896 3.02315 0.289717 0
M  V30 2695 H 238.481 1.49202 0.0769684 0
M  V30 2696 H 240.363 3.20522 2.73576 0
M  V30 2697 H 239.038 2.02849 2.52258 0
M  V30 2698 H 237.945 3.64117 0.858477 0
M  V30 2699 H 239.278 4.78609 1.14864 0
M  V30 2700 N 240.93 -0.123565 1.57115 0
M  V30 2701 C 242.155 -0.850398 1.89164 0
M  V30 2702 C 242.58 -1.7286 0.741688 0
M  V30 2703 O 241.938 -1.78665 -0.307958 0
M  V30 2704 C 241.986 -1.66353 3.19936 0
M  V30 2705 O 241.09 -2.77004 3.0552 0
M  V30 2706 H 240.431 -0.235454 0.620852 0
M  V30 2707 H 242.961 -0.107335 2.04318 0
M  V30 2708 H 242.971 -2.05372 3.52543 0
M  V30 2709 H 241.646 -1.01881 4.03228 0
M  V30 2710 H 240.223 -2.41221 2.84371 0
M  V30 2711 N 242.408 -1.52605 -0.393616 0
M  V30 2712 C 243.371 -1.76415 -1.46323 0
M  V30 2713 C 244.371 -0.634126 -1.47768 0
M  V30 2714 O 245.561 -0.902142 -1.4902 0
M  V30 2715 C 242.693 -1.8607 -2.85641 0
M  V30 2716 H 243.886 -2.71916 -1.26498 0
M  V30 2717 H 241.439 -1.43257 -0.625073 0
M  V30 2718 H 242.174 -0.925378 -3.10817 0
M  V30 2719 H 241.959 -2.68235 -2.85993 0
M  V30 2720 H 243.449 -2.06179 -3.63153 0
M  V30 2721 N 243.887 0.651787 -1.4349 0
M  V30 2722 C 245.133 1.41376 -1.45398 0
M  V30 2723 C 245.466 1.94041 -0.0784823 0
M  V30 2724 O 244.741 1.72379 0.900878 0
M  V30 2725 C 245.024 2.59414 -2.49752 0
M  V30 2726 C 244.877 2.12232 -3.96582 0
M  V30 2727 C 246.196 3.61626 -2.50827 0
M  V30 2728 H 243.315 0.512719 -0.529422 0
M  V30 2729 H 245.957 0.738796 -1.75048 0
M  V30 2730 H 244.107 3.16997 -2.246 0
M  V30 2731 H 245.779 1.59639 -4.32797 0
M  V30 2732 H 244.022 1.43592 -4.09346 0
M  V30 2733 H 244.693 2.9712 -4.65214 0
M  V30 2734 H 247.169 3.13805 -2.7325 0
M  V30 2735 H 246.045 4.41766 -3.25783 0
M  V30 2736 H 246.306 4.14314 -1.5426 0
M  V30 2737 N 245.365 1.30045 0.890287 0
M  V30 2738 C 246.328 1.15963 1.977 0
M  V30 2739 C 247.328 0.0923777 1.60534 0
M  V30 2740 O 248.518 0.340071 1.70848 0
M  V30 2741 C 245.65 0.775451 3.31963 0
M  V30 2742 H 246.843 2.12502 2.11619 0
M  V30 2743 H 244.396 1.13366 1.07601 0
M  V30 2744 H 245.131 -0.189671 3.23745 0
M  V30 2745 H 244.916 1.54668 3.60306 0
M  V30 2746 H 246.406 0.700251 4.11687 0
M  V30 2747 N 246.843 -1.10192 1.12674 0
M  V30 2748 C 248.068 -1.86523 0.906853 0
M  V30 2749 C 248.493 -1.80221 -0.538711 0
M  V30 2750 O 247.851 -1.17396 -1.38158 0
M  V30 2751 C 247.899 -3.32758 1.3894 0
M  V30 2752 O 247.003 -4.08449 0.5695 0
M  V30 2753 H 246.344 -0.578678 0.325619 0
M  V30 2754 H 248.874 -1.39203 1.49946 0
M  V30 2755 H 248.884 -3.83608 1.38958 0
M  V30 2756 H 247.559 -3.36661 2.44197 0
M  V30 2757 H 246.136 -3.67427 0.636528 0
M  V30 2758 N 248.321 -0.919034 -1.28029 0
M  V30 2759 C 249.549 -0.570971 -1.98866 0
M  V30 2760 C 249.964 0.848996 -1.68634 0
M  V30 2761 O 249.321 1.56307 -0.942036 0
M  V30 2762 C 249.372 -0.776876 -3.53054 0
M  V30 2763 O 249.093 -2.14097 -3.82222 0
M  V30 2764 C 250.594 -0.436356 -4.41147 0
M  V30 2765 H 247.814 -0.217175 -0.634883 0
M  V30 2766 H 250.358 -1.23368 -1.63097 0
M  V30 2767 H 248.513 -0.161085 -3.87065 0
M  V30 2768 H 248.927 -2.18455 -4.76841 0
M  V30 2769 H 250.401 -0.63117 -5.4838 0
M  V30 2770 H 250.878 0.627686 -4.34692 0
M  V30 2771 H 251.484 -1.02991 -4.12641 0
M  V30 2772 N 249.799 1.42003 -0.683588 0
M  V30 2773 C 250.709 2.34597 -0.0109075 0
M  V30 2774 C 251.725 1.55576 0.779245 0
M  V30 2775 O 252.901 1.88107 0.719555 0
M  V30 2776 C 249.966 3.34199 0.922588 0
M  V30 2777 C 249.027 4.29115 0.125984 0
M  V30 2778 C 248.26 5.23959 1.01502 0
M  V30 2779 O 248.483 5.23952 2.25456 0
M  V30 2780 O 247.417 6.00053 0.47111 0
M  V30 2781 H 251.243 2.93675 -0.773853 0
M  V30 2782 H 248.828 1.42654 -0.443861 0
M  V30 2783 H 250.71 3.95365 1.45823 0
M  V30 2784 H 249.385 2.77582 1.66523 0
M  V30 2785 H 248.292 3.71335 -0.453969 0
M  V30 2786 H 249.625 4.88798 -0.577736 0
M  V30 2787 N 251.277 0.427512 1.51691 0
M  V30 2788 C 252.523 -0.142439 2.02299 0
M  V30 2789 C 252.856 -1.43214 1.31162 0
M  V30 2790 O 252.131 -1.89833 0.423511 0
M  V30 2791 C 252.414 -0.371301 3.58181 0
M  V30 2792 C 252.267 0.936358 4.39946 0
M  V30 2793 C 253.586 -1.14542 4.24933 0
M  V30 2794 H 250.705 -0.0502937 0.735282 0
M  V30 2795 H 253.347 0.564584 1.81418 0
M  V30 2796 H 251.497 -0.973559 3.76104 0
M  V30 2797 H 253.169 1.57184 4.33694 0
M  V30 2798 H 251.412 1.5432 4.05423 0
M  V30 2799 H 252.083 0.730388 5.47147 0
M  V30 2800 H 254.559 -0.635362 4.11221 0
M  V30 2801 H 253.435 -1.27431 5.33903 0
M  V30 2802 H 253.696 -2.17093 3.85127 0
M  V30 2803 N 252.755 -1.56801 0.158532 0
M  V30 2804 C 253.702 -2.17337 -0.776729 0
M  V30 2805 C 254.672 -1.1096 -1.23601 0
M  V30 2806 O 255.857 -1.39054 -1.30647 0
M  V30 2807 C 252.997 -2.80822 -2.00582 0
M  V30 2808 C 252.11 -4.01624 -1.59129 0
M  V30 2809 C 251.245 -4.53072 -2.77306 0
M  V30 2810 C 250.284 -5.66314 -2.32282 0
M  V30 2811 N 249.421 -6.12329 -3.43508 0
M  V30 2812 H 254.261 -2.96918 -0.253701 0
M  V30 2813 H 251.798 -1.46661 -0.113504 0
M  V30 2814 H 253.756 -3.15779 -2.72652 0
M  V30 2815 H 252.386 -2.03866 -2.50277 0
M  V30 2816 H 251.438 -3.72571 -0.767806 0
M  V30 2817 H 252.75 -4.83633 -1.2207 0
M  V30 2818 H 251.904 -4.90145 -3.57551 0
M  V30 2819 H 250.643 -3.70095 -3.17617 0
M  V30 2820 H 249.648 -5.28806 -1.5048 0
M  V30 2821 H 250.873 -6.51085 -1.93043 0
M  V30 2822 H 248.819 -5.32284 -3.83418 0
M  V30 2823 H 248.736 -6.89293 -3.105 0
M  V30 2824 H 250.004 -6.5405 -4.24075 0
M  V30 2825 N 254.233 0.115231 -1.57178 0
M  V30 2826 C 255.166 1.17166 -1.95825 0
M  V30 2827 C 256.144 1.39912 -0.828463 0
M  V30 2828 O 257.328 1.54004 -1.08697 0
M  V30 2829 C 254.455 2.52478 -2.25771 0
M  V30 2830 C 253.501 2.46136 -3.48309 0
M  V30 2831 S 254.334 1.89736 -5.0076 0
M  V30 2832 C 255.49 3.26713 -5.33863 0
M  V30 2833 H 255.723 0.842103 -2.85124 0
M  V30 2834 H 253.256 0.322136 -1.51002 0
M  V30 2835 H 255.214 3.30332 -2.43702 0
M  V30 2836 H 253.875 2.82609 -1.37079 0
M  V30 2837 H 253.068 3.45819 -3.66641 0
M  V30 2838 H 252.67 1.76404 -3.29784 0
M  V30 2839 H 254.962 4.22935 -5.29275 0
M  V30 2840 H 255.905 3.13205 -6.35065 0
M  V30 2841 H 256.313 3.25316 -4.61335 0
M  V30 2842 N 255.711 1.52812 0.385517 0
M  V30 2843 C 256.658 1.77838 1.47113 0
M  V30 2844 C 257.628 0.621757 1.54024 0
M  V30 2845 O 258.813 0.861846 1.70226 0
M  V30 2846 C 255.953 1.95618 2.84302 0
M  V30 2847 C 255.066 3.23316 2.86515 0
M  V30 2848 C 254.201 3.31394 4.15152 0
M  V30 2849 C 253.24 4.53201 4.1143 0
M  V30 2850 N 252.377 4.58542 5.3168 0
M  V30 2851 H 257.217 2.70482 1.25073 0
M  V30 2852 H 254.754 1.34006 0.606692 0
M  V30 2853 H 256.712 2.03912 3.63972 0
M  V30 2854 H 255.342 1.06331 3.04784 0
M  V30 2855 H 254.394 3.24076 1.99195 0
M  V30 2856 H 255.706 4.13045 2.79634 0
M  V30 2857 H 254.86 3.3889 5.03228 0
M  V30 2858 H 253.599 2.39645 4.24761 0
M  V30 2859 H 252.604 4.45827 3.21742 0
M  V30 2860 H 253.829 5.46271 4.03442 0
M  V30 2861 H 251.775 3.69686 5.41912 0
M  V30 2862 H 251.692 5.42148 5.26889 0
M  V30 2863 H 252.96 4.70296 6.21644 0
M  V30 2864 N 257.189 -0.644168 1.43834 0
M  V30 2865 C 258.119 -1.76814 1.52509 0
M  V30 2866 C 259.1 -1.65823 0.379052 0
M  V30 2867 O 260.285 -1.84781 0.597466 0
M  V30 2868 C 257.415 -3.15288 1.4564 0
M  V30 2869 C 256.369 -3.41053 2.58586 0
M  V30 2870 C 255.695 -4.79421 2.36769 0
M  V30 2871 C 256.995 -3.34902 4.00797 0
M  V30 2872 H 258.689 -1.69812 2.46586 0
M  V30 2873 H 256.235 -0.815542 1.1868 0
M  V30 2874 H 258.188 -3.93681 1.50311 0
M  V30 2875 H 256.912 -3.23043 0.480725 0
M  V30 2876 H 255.571 -2.65035 2.53282 0
M  V30 2877 H 255.219 -4.83863 1.37424 0
M  V30 2878 H 254.919 -4.9762 3.12487 0
M  V30 2879 H 256.443 -5.6006 2.43238 0
M  V30 2880 H 257.857 -4.03218 4.07539 0
M  V30 2881 H 256.254 -3.64637 4.76613 0
M  V30 2882 H 257.324 -2.32928 4.25291 0
M  V30 2883 N 258.668 -1.30515 -0.883378 0
M  V30 2884 C 259.6 -1.12846 -1.99496 0
M  V30 2885 C 260.613 -0.0712571 -1.62644 0
M  V30 2886 O 261.802 -0.317432 -1.75655 0
M  V30 2887 C 258.902 -0.699123 -3.3161 0
M  V30 2888 C 258.075 -1.83842 -3.96889 0
M  V30 2889 C 257.134 -1.39737 -5.07307 0
M  V30 2890 O 256.16 -2.10485 -5.28852 0
M  V30 2891 N 257.362 -0.277279 -5.79837 0
M  V30 2892 H 260.127 -2.08585 -2.15203 0
M  V30 2893 H 257.688 -1.22672 -1.05656 0
M  V30 2894 H 259.68 -0.387044 -4.02845 0
M  V30 2895 H 258.25 0.166276 -3.12157 0
M  V30 2896 H 257.47 -2.31853 -3.18807 0
M  V30 2897 H 258.758 -2.60187 -4.37241 0
M  V30 2898 H 258.156 0.3122 -5.64838 0
M  V30 2899 H 256.713 -0.0246623 -6.51795 0
M  V30 2900 N 260.146 1.09593 -1.13257 0
M  V30 2901 C 261.056 2.19739 -0.821691 0
M  V30 2902 C 262.072 1.72926 0.19302 0
M  V30 2903 O 263.248 2.01385 0.0244895 0
M  V30 2904 C 260.313 3.45482 -0.290333 0
M  V30 2905 C 259.374 4.06985 -1.36607 0
M  V30 2906 C 258.607 5.26726 -0.859975 0
M  V30 2907 O 258.83 5.69594 0.303082 0
M  V30 2908 O 257.764 5.7931 -1.63351 0
M  V30 2909 H 261.59 2.48781 -1.74189 0
M  V30 2910 H 259.175 1.18496 -0.909894 0
M  V30 2911 H 261.057 4.214 0.000674022 0
M  V30 2912 H 259.732 3.18047 0.602306 0
M  V30 2913 H 258.639 3.32712 -1.71037 0
M  V30 2914 H 259.972 4.38643 -2.23279 0
M  V30 2915 N 261.624 0.925811 1.2754 0
M  V30 2916 C 262.871 0.565255 1.94451 0
M  V30 2917 C 263.199 -0.89316 1.7278 0
M  V30 2918 O 262.454 -1.65213 1.04895 0
M  V30 2919 C 262.753 0.835296 3.47502 0
M  V30 2920 C 262.419 2.27515 3.89291 0
M  V30 2921 C 261.081 2.66879 4.00411 0
M  V30 2922 C 263.433 3.21158 4.10496 0
M  V30 2923 C 260.761 3.99014 4.30122 0
M  V30 2924 C 263.113 4.52871 4.4169 0
M  V30 2925 C 261.777 4.92072 4.51023 0
M  V30 2926 H 261.047 0.206841 0.711546 0
M  V30 2927 H 263.694 1.16942 1.51647 0
M  V30 2928 H 261.999 0.148442 3.91519 0
M  V30 2929 H 263.696 0.535322 3.97411 0
M  V30 2930 H 260.286 1.95976 3.81171 0
M  V30 2931 H 264.47 2.9195 4.01346 0
M  V30 2932 H 259.726 4.2907 4.35556 0
M  V30 2933 H 263.9 5.25436 4.57045 0
M  V30 2934 H 261.527 5.9449 4.738 0
M  V30 2935 N 263.102 -1.41638 0.69111 0
M  V30 2936 C 264.348 -2.01598 0.220519 0
M  V30 2937 C 264.681 -1.54594 -1.17535 0
M  V30 2938 O 263.956 -0.755177 -1.79241 0
M  V30 2939 C 264.239 -3.59062 0.273243 0
M  V30 2940 C 264.092 -4.16203 1.70573 0
M  V30 2941 C 265.411 -4.38546 -0.369457 0
M  V30 2942 H 262.53 -0.732468 0.0816045 0
M  V30 2943 H 265.172 -1.68445 0.878986 0
M  V30 2944 H 263.322 -3.87435 -0.287411 0
M  V30 2945 H 264.994 -3.98722 2.31989 0
M  V30 2946 H 263.237 -3.71414 2.2413 0
M  V30 2947 H 263.908 -5.25358 1.69419 0
M  V30 2948 H 266.384 -4.1596 0.107977 0
M  V30 2949 H 265.26 -5.48069 -0.302002 0
M  V30 2950 H 265.521 -4.17662 -1.44951 0
M  V30 2951 N 264.58 -0.43555 -1.51462 0
M  V30 2952 C 265.51 0.367376 -2.30592 0
M  V30 2953 C 266.491 1.02263 -1.35928 0
M  V30 2954 O 267.676 1.02661 -1.64847 0
M  V30 2955 C 264.806 1.46983 -3.14664 0
M  V30 2956 C 263.76 0.938161 -4.17591 0
M  V30 2957 C 263.086 2.13622 -4.90173 0
M  V30 2958 C 264.386 -0.0261621 -5.22293 0
M  V30 2959 H 266.08 -0.292969 -2.97963 0
M  V30 2960 H 263.626 -0.14234 -1.43295 0
M  V30 2961 H 265.579 2.03873 -3.688 0
M  V30 2962 H 264.303 2.15843 -2.4511 0
M  V30 2963 H 262.962 0.391481 -3.64504 0
M  V30 2964 H 262.61 2.81098 -4.17124 0
M  V30 2965 H 262.31 1.78688 -5.59772 0
M  V30 2966 H 263.834 2.7107 -5.47132 0
M  V30 2967 H 265.248 0.452384 -5.71512 0
M  V30 2968 H 263.645 -0.287992 -5.99409 0
M  V30 2969 H 264.715 -0.963391 -4.75233 0
M  V30 2970 N 266.058 1.56714 -0.166846 0
M  V30 2971 C 267.006 2.19056 0.782123 0
M  V30 2972 C 268 1.15328 1.24079 0
M  V30 2973 O 269.206 1.33537 1.20697 0
M  V30 2974 H 265.581 0.70167 0.270486 0
M  V30 2975 H 267.552 2.97494 0.232322 0
M  V30 2976 C 266.301 2.84206 2.00306 0
M  V30 2977 H 265.624 3.63748 1.65914 0
M  V30 2978 H 267.064 3.31302 2.64604 0
M  V30 2979 C 265.523 1.83744 2.82382 0
M  V30 2980 O 266.053 1.32014 3.79388 0
M  V30 2981 N 264.259 1.52601 2.47308 0
M  V30 2982 H 263.806 1.9486 1.68485 0
M  V30 2983 H 263.764 0.856351 3.02513 0
M  V30 2984 N 267.536 -0.106894 1.57237 0
M  V30 2985 C 268.483 -1.13049 2.01217 0
M  V30 2986 C 269.453 -1.40471 0.886403 0
M  V30 2987 O 270.638 -1.52133 1.15153 0
M  V30 2988 C 267.778 -2.4487 2.43172 0
M  V30 2989 C 266.891 -2.24281 3.69218 0
M  V30 2990 C 266.026 -3.49417 4.00101 0
M  V30 2991 C 265.065 -3.24038 5.19294 0
M  V30 2992 N 264.202 -4.41409 5.45988 0
M  V30 2993 H 269.042 -0.748456 2.88448 0
M  V30 2994 H 266.579 -0.358054 1.42676 0
M  V30 2995 H 268.537 -3.21786 2.65537 0
M  V30 2996 H 267.167 -2.80944 1.58967 0
M  V30 2997 H 266.219 -1.38224 3.54398 0
M  V30 2998 H 267.531 -2.01512 4.56283 0
M  V30 2999 H 266.685 -4.34746 4.2318 0
M  V30 3000 H 265.424 -3.75229 3.11535 0
M  V30 3001 H 264.429 -2.37102 4.96047 0
M  V30 3002 H 265.654 -2.99584 6.09447 0
M  V30 3003 H 263.6 -4.67319 4.60379 0
M  V30 3004 H 263.517 -4.21788 6.274 0
M  V30 3005 H 264.785 -5.27836 5.73593 0
M  V30 3006 N 269.014 -1.53014 -0.377408 0
M  V30 3007 C 269.961 -1.78616 -1.46168 0
M  V30 3008 C 270.931 -0.629917 -1.53692 0
M  V30 3009 O 272.116 -0.870861 -1.69766 0
M  V30 3010 C 269.256 -1.97123 -2.8326 0
M  V30 3011 C 268.369 -3.24831 -2.84796 0
M  V30 3012 C 267.504 -3.33591 -4.13389 0
M  V30 3013 C 266.543 -4.55377 -4.09021 0
M  V30 3014 N 265.68 -4.61355 -5.29241 0
M  V30 3015 H 270.52 -2.71142 -1.23637 0
M  V30 3016 H 268.057 -1.34326 -0.599577 0
M  V30 3017 H 270.015 -2.05839 -3.62886 0
M  V30 3018 H 268.645 -1.07946 -3.04216 0
M  V30 3019 H 267.697 -3.25128 -1.97474 0
M  V30 3020 H 269.009 -4.14523 -2.77439 0
M  V30 3021 H 268.163 -3.41554 -5.01424 0
M  V30 3022 H 266.902 -2.41894 -4.23484 0
M  V30 3023 H 265.907 -4.47527 -3.19373 0
M  V30 3024 H 267.132 -5.48402 -4.00539 0
M  V30 3025 H 265.078 -3.72554 -5.39944 0
M  V30 3026 H 264.995 -5.44935 -5.24006 0
M  V30 3027 H 266.263 -4.73586 -6.19141 0
M  V30 3028 N 270.492 0.636531 -1.44174 0
M  V30 3029 C 271.439 1.74875 -1.50624 0
M  V30 3030 C 272.409 1.62275 -0.35442 0
M  V30 3031 O 273.594 1.82276 -0.563908 0
M  V30 3032 C 270.734 3.13102 -1.45125 0
M  V30 3033 C 269.847 3.36717 -2.7064 0
M  V30 3034 C 268.982 4.64885 -2.57013 0
M  V30 3035 C 268.021 4.8166 -3.77717 0
M  V30 3036 N 267.158 6.01101 -3.62798 0
M  V30 3037 H 271.998 1.68697 -2.45653 0
M  V30 3038 H 269.535 0.823004 -1.21922 0
M  V30 3039 H 271.493 3.93034 -1.39929 0
M  V30 3040 H 270.123 3.18308 -0.536671 0
M  V30 3041 H 269.175 2.50763 -2.86046 0
M  V30 3042 H 270.487 3.44993 -3.60252 0
M  V30 3043 H 269.641 5.52969 -2.49619 0
M  V30 3044 H 268.38 4.58957 -1.64953 0
M  V30 3045 H 267.385 3.92007 -3.85501 0
M  V30 3046 H 268.61 4.89406 -4.70807 0
M  V30 3047 H 266.556 5.96273 -2.73486 0
M  V30 3048 H 266.473 6.10409 -4.46023 0
M  V30 3049 H 267.741 6.91761 -3.59286 0
M  V30 3050 N 271.97 1.30982 0.876444 0
M  V30 3051 C 272.933 1.18054 1.96459 0
M  V30 3052 C 273.933 0.109399 1.60427 0
M  V30 3053 O 275.123 0.358173 1.70478 0
M  V30 3054 C 272.255 0.810616 3.31122 0
M  V30 3055 H 273.448 2.14735 2.09354 0
M  V30 3056 H 271.001 1.145 1.06392 0
M  V30 3057 H 271.736 -0.155322 3.23928 0
M  V30 3058 H 271.521 1.58481 3.58645 0
M  V30 3059 H 273.011 0.743876 4.10921 0
M  V30 3060 N 273.449 -1.08991 1.13837 0
M  V30 3061 C 274.379 -2.17771 0.842507 0
M  V30 3062 C 275.36 -1.6892 -0.20001 0
M  V30 3063 O 276.545 -1.94113 -0.0579731 0
M  V30 3064 C 273.675 -3.4589 0.312644 0
M  V30 3065 C 272.629 -4.08099 1.28992 0
M  V30 3066 C 271.955 -5.31098 0.619623 0
M  V30 3067 C 273.255 -4.50077 2.65005 0
M  V30 3068 H 274.949 -2.42777 1.75213 0
M  V30 3069 H 272.495 -1.16682 0.843875 0
M  V30 3070 H 274.448 -4.21297 0.0933043 0
M  V30 3071 H 273.172 -3.20419 -0.632382 0
M  V30 3072 H 271.831 -3.34717 1.49533 0
M  V30 3073 H 271.479 -5.0191 -0.33102 0
M  V30 3074 H 271.179 -5.73674 1.27167 0
M  V30 3075 H 272.703 -6.09224 0.409669 0
M  V30 3076 H 274.117 -5.16688 2.48407 0
M  V30 3077 H 272.514 -5.03553 3.26427 0
M  V30 3078 H 273.584 -3.62257 3.22332 0
M  V30 3079 N 274.927 -0.932562 -1.27047 0
M  V30 3080 C 275.89 -0.440064 -2.24936 0
M  V30 3081 C 276.89 0.444071 -1.54547 0
M  V30 3082 O 278.08 0.244465 -1.72476 0
M  V30 3083 C 275.212 0.36678 -3.38921 0
M  V30 3084 H 276.405 -1.305 -2.70018 0
M  V30 3085 H 273.958 -0.713707 -1.39054 0
M  V30 3086 H 274.693 1.25033 -2.99228 0
M  V30 3087 H 274.478 -0.267204 -3.91188 0
M  V30 3088 H 275.968 0.701567 -4.11665 0
M  V30 3089 N 276.405 1.4127 -0.698611 0
M  V30 3090 C 277.355 2.27997 -0.0119836 0
M  V30 3091 C 278.339 1.42363 0.749765 0
M  V30 3092 O 279.531 1.65607 0.624758 0
M  V30 3093 C 276.66 3.30702 0.921458 0
M  V30 3094 C 275.746 4.23814 0.155796 0
M  V30 3095 N 276.137 4.98572 -0.852015 0
M  V30 3096 C 274.435 4.44284 0.390836 0
M  V30 3097 C 275.136 5.66744 -1.3106 0
M  V30 3098 N 274.112 5.39867 -0.635944 0
M  V30 3099 H 277.914 2.83232 -0.784649 0
M  V30 3100 H 275.428 1.53518 -0.529711 0
M  V30 3101 H 277.425 3.91661 1.42854 0
M  V30 3102 H 276.085 2.77028 1.69369 0
M  V30 3103 H 277.096 5.03024 -1.23235 0
M  V30 3104 H 273.773 4.01614 1.14071 0
M  V30 3105 H 275.163 6.36672 -2.14707 0
M  V30 3106 N 277.883 0.443576 1.51229 0
M  V30 3107 C 279.299 0.0962001 1.5931 0
M  V30 3108 C 279.499 -1.39501 1.45402 0
M  V30 3109 O 278.555 -2.16557 1.29843 0
M  V30 3110 C 279.868 0.621875 2.94199 0
M  V30 3111 C 281.416 0.582865 3.07525 0
M  V30 3112 C 281.891 1.08562 4.44948 0
M  V30 3113 N 283.382 1.04387 4.51284 0
M  V30 3114 C 284.117 1.40368 5.55954 0
M  V30 3115 N 283.613 1.83664 6.68011 0
M  V30 3116 N 285.406 1.32145 5.46346 0
M  V30 3117 H 277.557 1.41376 1.58514 0
M  V30 3118 H 279.82 0.582965 0.747567 0
M  V30 3119 H 279.526 1.66546 3.09767 0
M  V30 3120 H 279.4 0.0502125 3.77167 0
M  V30 3121 H 281.787 -0.451749 2.91622 0
M  V30 3122 H 281.868 1.191 2.26382 0
M  V30 3123 H 281.512 2.11873 4.61598 0
M  V30 3124 H 281.442 0.453956 5.2464 0
M  V30 3125 H 283.933 0.725986 3.70861 0
M  V30 3126 H 284.246 2.0934 7.43906 0
M  V30 3127 H 282.591 1.87596 6.69203 0
M  V30 3128 H 285.782 0.981808 4.57688 0
M  V30 3129 H 285.955 1.60514 6.27805 0
M  V30 3130 N 279.361 -1.56624 0.175154 0
M  V30 3131 C 280.309 -2.19468 -0.770495 0
M  V30 3132 C 281.303 -1.15985 -1.23466 0
M  V30 3133 O 282.509 -1.34176 -1.19987 0
M  V30 3134 H 278.884 -0.703095 -0.266761 0
M  V30 3135 H 280.855 -2.97613 -0.216542 0
M  V30 3136 C 279.604 -2.85264 -1.98796 0
M  V30 3137 H 278.927 -3.64623 -1.63983 0
M  V30 3138 H 280.367 -3.327 -2.62843 0
M  V30 3139 C 278.826 -1.85239 -2.81404 0
M  V30 3140 O 279.356 -1.34024 -3.78682 0
M  V30 3141 N 277.562 -1.53911 -2.46495 0
M  V30 3142 H 277.109 -1.95751 -1.67449 0
M  V30 3143 H 277.067 -0.872382 -3.02054 0
M  V30 3144 N 280.839 0.0985539 -1.57292 0
M  V30 3145 C 281.769 1.12064 -2.04851 0
M  V30 3146 C 282.75 1.41981 -0.936767 0
M  V30 3147 O 283.935 1.52071 -1.20781 0
M  V30 3148 C 281.065 2.44144 -2.47004 0
M  V30 3149 C 280.019 2.28643 -3.6181 0
M  V30 3150 C 279.345 3.65869 -3.89929 0
M  V30 3151 C 280.645 1.72986 -4.92822 0
M  V30 3152 H 282.339 0.724979 -2.9049 0
M  V30 3153 H 279.885 0.34729 -1.39749 0
M  V30 3154 H 281.838 3.15914 -2.78884 0
M  V30 3155 H 280.562 2.85639 -1.5836 0
M  V30 3156 H 279.221 1.59318 -3.30172 0
M  V30 3157 H 278.869 4.04885 -2.98458 0
M  V30 3158 H 278.569 3.56344 -4.67218 0
M  V30 3159 H 280.093 4.39112 -4.2428 0
M  V30 3160 H 281.507 2.34593 -5.23105 0
M  V30 3161 H 279.904 1.74229 -5.74251 0
M  V30 3162 H 280.974 0.689007 -4.7998 0
M  V30 3163 N 282.317 1.53212 0.369288 0
M  V30 3164 C 283.265 1.80054 1.47253 0
M  V30 3165 C 284.259 0.669456 1.55611 0
M  V30 3166 O 285.465 0.852328 1.58541 0
M  V30 3167 H 281.84 0.570034 0.490475 0
M  V30 3168 H 283.811 2.72403 1.21817 0
M  V30 3169 C 282.56 2.00403 2.84137 0
M  V30 3170 H 281.883 2.86876 2.78464 0
M  V30 3171 H 283.323 2.23164 3.60519 0
M  V30 3172 C 281.782 0.782081 3.27697 0
M  V30 3173 O 282.312 -0.0310205 4.01688 0
M  V30 3174 N 280.518 0.606573 2.84199 0
M  V30 3175 H 280.065 1.26939 2.24152 0
M  V30 3176 H 280.023 -0.20962 3.137 0
M  V30 3177 N 283.795 -0.628877 1.44509 0
M  V30 3178 C 284.745 -1.7345 1.47983 0
M  V30 3179 C 285.729 -1.5715 0.345373 0
M  V30 3180 O 286.921 -1.66848 0.590829 0
M  V30 3181 C 284.05 -3.12143 1.42904 0
M  V30 3182 C 283.136 -3.33906 2.61472 0
M  V30 3183 N 283.527 -3.26024 3.86706 0
M  V30 3184 C 281.825 -3.64709 2.56716 0
M  V30 3185 C 282.526 -3.48536 4.65722 0
M  V30 3186 N 281.502 -3.71517 3.96832 0
M  V30 3187 H 285.304 -1.65818 2.42655 0
M  V30 3188 H 282.818 -0.831419 1.39503 0
M  V30 3189 H 284.815 -3.91433 1.43476 0
M  V30 3190 H 283.475 -3.2094 0.492717 0
M  V30 3191 H 284.486 -3.04893 4.18641 0
M  V30 3192 H 281.163 -3.80473 1.71891 0
M  V30 3193 H 282.553 -3.48016 5.74747 0
M  V30 3194 N 285.273 -1.31445 -0.869486 0
M  V30 3195 C 286.513 -1.22458 -1.63656 0
M  V30 3196 C 286.877 0.213846 -1.90805 0
M  V30 3197 O 288.078 0.427212 -2.65383 0
M  V30 3198 C 286.349 -2.04564 -2.93067 0
M  V30 3199 S 287.908 -2.12445 -3.83944 0
M  V30 3200 H 284.726 -0.436145 -0.561514 0
M  V30 3201 H 287.328 -1.66114 -1.03085 0
M  V30 3202 H 286.032 -3.0816 -2.71045 0
M  V30 3203 H 285.563 -1.6163 -3.58663 0
M  V30 3204 H 287.578 -1.26312 -4.79854 0
M  V30 3205 N 286.751 1.08385 -1.14413 0
M  V30 3206 C 288 1.80153 -0.907076 0
M  V30 3207 C 288.313 1.87176 0.567851 0
M  V30 3208 O 289.519 2.55359 0.922172 0
M  V30 3209 C 287.975 3.23687 -1.57336 0
M  V30 3210 C 287.583 3.24897 -3.08457 0
M  V30 3211 C 289.327 4.00136 -1.41744 0
M  V30 3212 C 287.234 4.6302 -3.67921 0
M  V30 3213 H 286.164 0.675139 -0.335714 0
M  V30 3214 H 288.815 1.21733 -1.37307 0
M  V30 3215 H 287.197 3.82234 -1.03505 0
M  V30 3216 H 288.371 2.76055 -3.68958 0
M  V30 3217 H 286.686 2.61943 -3.2369 0
M  V30 3218 H 289.283 5.02201 -1.83572 0
M  V30 3219 H 289.626 4.14709 -0.363576 0
M  V30 3220 H 290.159 3.48058 -1.92614 0
M  V30 3221 H 286.898 4.5365 -4.73161 0
M  V30 3222 H 286.418 5.12143 -3.12201 0
M  V30 3223 H 288.097 5.31994 -3.68227 0
M  V30 3224 N 288.23 0.939286 1.26551 0
M  V30 3225 C 289.455 0.602008 1.98471 0
M  V30 3226 C 289.88 -0.815624 1.69497 0
M  V30 3227 O 289.238 -1.54912 0.941905 0
M  V30 3228 C 289.286 0.848407 3.50477 0
M  V30 3229 O 288.39 -0.0804009 4.12322 0
M  V30 3230 H 287.731 0.23049 0.622712 0
M  V30 3231 H 290.261 1.2617 1.61066 0
M  V30 3232 H 290.271 0.768553 4.00696 0
M  V30 3233 H 288.946 1.88171 3.70897 0
M  V30 3234 H 287.523 0.0503508 3.72866 0
M  V30 3235 N 289.708 -1.40897 0.706093 0
M  V30 3236 C 290.933 -2.05895 0.249435 0
M  V30 3237 C 291.358 -1.52823 -1.09666 0
M  V30 3238 O 290.716 -0.659589 -1.68876 0
M  V30 3239 C 290.764 -3.59872 0.22904 0
M  V30 3240 O 289.868 -4.04708 -0.792784 0
M  V30 3241 H 289.209 -0.653206 0.119241 0
M  V30 3242 H 291.739 -1.80471 0.96391 0
M  V30 3243 H 291.749 -4.07951 0.0634791 0
M  V30 3244 H 290.424 -3.97866 1.21141 0
M  V30 3245 H 289.001 -3.68111 -0.59572 0
M  V30 3246 N 291.186 -0.45159 -1.50991 0
M  V30 3247 C 292.463 0.170707 -1.94854 0
M  V30 3248 C 292.843 1.58788 -1.39103 0
M  V30 3249 O 292.191 2.20913 -0.583921 0
M  V30 3250 C 292.401 0.133929 -3.48743 0
M  V30 3251 C 293.749 0.33248 -4.23296 0
M  V30 3252 O 294.773 0.211403 -3.55572 0
M  V30 3253 O 293.632 0.57486 -5.43468 0
M  V30 3254 H 290.726 0.122264 -0.817912 0
M  V30 3255 H 293.272 -0.510594 -1.61836 0
M  V30 3256 H 292.044 -0.856283 -3.81816 0
M  V30 3257 H 291.667 0.857529 -3.88242 0
M  V30 3258 N 292.664 1.56529 -0.183458 0
M  V30 3259 C 294.075 1.83739 0.331177 0
M  V30 3260 C 294.426 1.10373 1.62211 0
M  V30 3261 O 293.551 0.36071 2.13373 0
M  V30 3262 C 294.146 3.33306 0.607646 0
M  V30 3263 C 292.705 3.60969 1.06668 0
M  V30 3264 C 291.852 2.77086 0.109029 0
M  V30 3265 H 294.803 1.53379 -0.407484 0
M  V30 3266 H 294.824 3.51444 1.45832 0
M  V30 3267 H 294.336 3.86677 -0.332086 0
M  V30 3268 H 292.437 3.13021 2.0211 0
M  V30 3269 H 292.55 4.69231 0.967447 0
M  V30 3270 H 290.914 2.47319 0.608714 0
M  V30 3271 H 291.697 3.33241 -0.82494 0
M  V30 3272 N 294.142 -0.090211 1.57342 0
M  V30 3273 C 295.558 -0.444547 1.53284 0
M  V30 3274 C 295.758 -1.80238 0.900914 0
M  V30 3275 O 294.814 -2.4759 0.495513 0
M  V30 3276 C 296.127 -0.402543 2.97993 0
M  V30 3277 C 297.675 -0.48405 3.09234 0
M  V30 3278 C 298.15 -0.472144 4.5556 0
M  V30 3279 N 299.641 -0.532757 4.60126 0
M  V30 3280 C 300.376 -0.545462 5.708 0
M  V30 3281 N 299.872 -0.514082 6.9089 0
M  V30 3282 N 301.665 -0.59064 5.58988 0
M  V30 3283 H 293.816 0.799121 1.96794 0
M  V30 3284 H 296.079 0.297965 0.899956 0
M  V30 3285 H 295.785 0.528106 3.47712 0
M  V30 3286 H 295.659 -1.21969 3.56936 0
M  V30 3287 H 298.046 -1.40512 2.595 0
M  V30 3288 H 298.127 0.361328 2.53235 0
M  V30 3289 H 297.771 0.445 5.05947 0
M  V30 3290 H 297.701 -1.3348 5.09402 0
M  V30 3291 H 300.192 -0.562006 3.73698 0
M  V30 3292 H 300.505 -0.527195 7.71 0
M  V30 3293 H 298.85 -0.481054 6.93333 0
M  V30 3294 H 302.041 -0.61272 4.64073 0
M  V30 3295 H 302.214 -0.597073 6.45243 0
M  V30 3296 N 295.62 -1.53406 -0.361157 0
M  V30 3297 C 296.85 -1.73465 -1.1222 0
M  V30 3298 C 297.258 -0.465486 -1.83384 0
M  V30 3299 O 296.601 0.571611 -1.7458 0
M  V30 3300 C 296.663 -2.84834 -2.19339 0
M  V30 3301 C 296.327 -4.25038 -1.67903 0
M  V30 3302 C 297.324 -5.07231 -1.14074 0
M  V30 3303 C 295.009 -4.71464 -1.73282 0
M  V30 3304 C 297.003 -6.33942 -0.663068 0
M  V30 3305 C 294.69 -5.98153 -1.25127 0
M  V30 3306 C 295.688 -6.79223 -0.717296 0
M  V30 3307 O 295.376 -8.03533 -0.242865 0
M  V30 3308 H 295.108 -0.583526 -0.341283 0
M  V30 3309 H 297.662 -2.00964 -0.424591 0
M  V30 3310 H 295.892 -2.5282 -2.92607 0
M  V30 3311 H 297.581 -2.9303 -2.80871 0
M  V30 3312 H 298.347 -4.72534 -1.09254 0
M  V30 3313 H 294.226 -4.08432 -2.13786 0
M  V30 3314 H 297.77 -6.97167 -0.245612 0
M  V30 3315 H 293.667 -6.32347 -1.29642 0
M  V30 3316 H 294.435 -8.177 -0.361786 0
M  V30 3317 N 297.098 0.621204 -1.44841 0
M  V30 3318 C 298.344 1.38073 -1.49357 0
M  V30 3319 C 298.699 1.91973 -0.128115 0
M  V30 3320 O 297.992 1.71311 0.858087 0
M  V30 3321 C 298.186 2.55675 -2.4973 0
M  V30 3322 C 298.015 2.13289 -3.95901 0
M  V30 3323 C 296.785 2.001 -4.63991 0
M  V30 3324 C 298.983 1.7159 -4.84831 0
M  V30 3325 N 296.965 1.51381 -5.94943 0
M  V30 3326 C 298.336 1.34188 -6.05304 0
M  V30 3327 C 300.391 1.59059 -4.7181 0
M  V30 3328 C 299.094 0.855085 -7.14199 0
M  V30 3329 C 301.12 1.11784 -5.8074 0
M  V30 3330 C 300.482 0.753385 -7.0036 0
M  V30 3331 H 296.581 0.499675 -0.601539 0
M  V30 3332 H 299.165 0.711609 -1.8123 0
M  V30 3333 H 297.336 3.20201 -2.19832 0
M  V30 3334 H 299.068 3.22509 -2.4448 0
M  V30 3335 H 295.823 2.20863 -4.18947 0
M  V30 3336 H 296.247 1.29293 -6.64539 0
M  V30 3337 H 300.889 1.85865 -3.79755 0
M  V30 3338 H 298.607 0.574552 -8.06055 0
M  V30 3339 H 302.193 1.02533 -5.72694 0
M  V30 3340 H 301.073 0.393183 -7.83214 0
M  V30 3341 N 298.576 1.31904 0.862503 0
M  V30 3342 C 299.806 1.24817 1.64634 0
M  V30 3343 C 300.214 -0.187579 1.88268 0
M  V30 3344 O 299.557 -1.13253 1.44635 0
M  V30 3345 C 299.619 1.92996 3.03303 0
M  V30 3346 C 299.283 3.42336 3.02746 0
M  V30 3347 C 300.28 4.37956 2.80162 0
M  V30 3348 C 297.965 3.84147 3.2363 0
M  V30 3349 C 299.959 5.73361 2.78453 0
M  V30 3350 C 297.646 5.19663 3.21549 0
M  V30 3351 C 298.644 6.14081 2.98988 0
M  V30 3352 O 298.332 7.47118 2.96766 0
M  V30 3353 H 298.064 0.432222 0.519769 0
M  V30 3354 H 300.618 1.7445 1.08427 0
M  V30 3355 H 298.848 1.37922 3.61268 0
M  V30 3356 H 300.537 1.79723 3.63943 0
M  V30 3357 H 301.303 4.06981 2.63802 0
M  V30 3358 H 297.182 3.11083 3.40218 0
M  V30 3359 H 300.726 6.4703 2.60763 0
M  V30 3360 H 296.623 5.5027 3.37451 0
M  V30 3361 H 297.391 7.56382 3.12775 0
M  V30 3362 N 300.054 -1.07777 1.14986 0
M  V30 3363 C 301.302 -1.79934 0.920235 0
M  V30 3364 C 301.623 -1.86955 -0.554336 0
M  V30 3365 O 300.893 -1.36731 -1.40291 0
M  V30 3366 H 299.473 -0.666424 0.337473 0
M  V30 3367 H 302.135 -1.3027 1.44968 0
M  V30 3368 H 301.231 -2.82539 1.32583 0
M  V30 3369 N 301.532 -0.945985 -1.26051 0
M  V30 3370 C 302.479 -0.45809 -2.26208 0
M  V30 3371 C 303.449 0.484816 -1.58867 0
M  V30 3372 O 304.634 0.399969 -1.86561 0
M  V30 3373 C 301.774 0.266131 -3.44072 0
M  V30 3374 C 300.887 -0.713005 -4.26075 0
M  V30 3375 C 300.022 0.0329013 -5.3119 0
M  V30 3376 C 299.061 -0.93774 -6.04874 0
M  V30 3377 N 298.198 -0.223274 -7.01745 0
M  V30 3378 H 303.038 -1.3171 -2.67313 0
M  V30 3379 H 300.575 -0.66069 -1.31428 0
M  V30 3380 H 302.533 0.702514 -4.11243 0
M  V30 3381 H 301.163 1.08925 -3.03867 0
M  V30 3382 H 300.215 -1.26789 -3.58648 0
M  V30 3383 H 301.527 -1.45406 -4.77136 0
M  V30 3384 H 300.681 0.528335 -6.04395 0
M  V30 3385 H 299.42 0.806801 -4.8098 0
M  V30 3386 H 298.425 -1.44425 -5.30492 0
M  V30 3387 H 299.65 -1.71172 -6.57173 0
M  V30 3388 H 297.596 0.532046 -6.53839 0
M  V30 3389 H 297.513 -0.90357 -7.50581 0
M  V30 3390 H 298.781 0.250907 -7.79096 0
M  V30 3391 N 303.011 1.40521 -0.713556 0
M  V30 3392 C 304.239 2.05237 -0.261775 0
M  V30 3393 C 304.654 1.53755 1.09567 0
M  V30 3394 O 304.011 0.693268 1.6882 0
M  V30 3395 C 304.062 3.60763 -0.230706 0
M  V30 3396 O 303.783 4.10345 -1.53455 0
M  V30 3397 C 305.284 4.42651 0.239874 0
M  V30 3398 H 302.504 0.660533 -0.118057 0
M  V30 3399 H 305.048 1.79967 -0.971192 0
M  V30 3400 H 303.203 3.8501 0.429661 0
M  V30 3401 H 303.617 5.04526 -1.43366 0
M  V30 3402 H 305.091 5.51599 0.210468 0
M  V30 3403 H 305.568 4.20082 1.28171 0
M  V30 3404 H 306.174 4.23507 -0.390142 0
M  V30 3405 N 304.489 0.459591 1.5075 0
M  V30 3406 C 305.421 -0.37665 2.26084 0
M  V30 3407 C 306.434 -0.967109 1.30961 0
M  V30 3408 O 307.623 -0.857468 1.56556 0
M  V30 3409 C 304.723 -1.54112 3.01832 0
M  V30 3410 C 303.896 -1.06553 4.24223 0
M  V30 3411 C 302.955 -2.1027 4.82362 0
M  V30 3412 O 301.981 -1.68798 5.43595 0
M  V30 3413 N 303.183 -3.42974 4.68347 0
M  V30 3414 H 305.948 0.269124 2.98489 0
M  V30 3415 H 303.509 0.28972 1.59287 0
M  V30 3416 H 305.501 -2.23165 3.37608 0
M  V30 3417 H 304.071 -2.0918 2.32298 0
M  V30 3418 H 303.291 -0.201274 3.93686 0
M  V30 3419 H 304.579 -0.725516 5.03601 0
M  V30 3420 H 303.977 -3.79385 4.19623 0
M  V30 3421 H 302.534 -4.07858 5.08424 0
M  V30 3422 N 305.967 -1.56429 0.191757 0
M  V30 3423 C 306.917 -2.15548 -0.743184 0
M  V30 3424 C 307.901 -1.09531 -1.17863 0
M  V30 3425 O 309.093 -1.35602 -1.13759 0
M  V30 3426 C 306.222 -2.81577 -1.96391 0
M  V30 3427 C 305.308 -3.9478 -1.54951 0
M  V30 3428 N 305.699 -4.98677 -0.845876 0
M  V30 3429 C 303.997 -4.06319 -1.83905 0
M  V30 3430 C 304.698 -5.78183 -0.638724 0
M  V30 3431 N 303.674 -5.30495 -1.18643 0
M  V30 3432 H 307.476 -2.9324 -0.196839 0
M  V30 3433 H 304.99 -1.62398 -0.0081603 0
M  V30 3434 H 306.987 -3.22321 -2.64415 0
M  V30 3435 H 305.647 -2.05371 -2.51501 0
M  V30 3436 H 306.658 -5.15464 -0.501704 0
M  V30 3437 H 303.335 -3.41238 -2.40548 0
M  V30 3438 H 304.725 -6.71851 -0.0807929 0
M  V30 3439 N 307.445 0.0818655 -1.57387 0
M  V30 3440 C 308.67 0.799946 -1.91352 0
M  V30 3441 C 309.095 1.70833 -0.787258 0
M  V30 3442 O 308.453 1.79419 0.26048 0
M  V30 3443 C 308.501 1.57812 -3.24234 0
M  V30 3444 O 307.605 2.68806 -3.12757 0
M  V30 3445 H 306.946 0.21891 -0.626877 0
M  V30 3446 H 309.476 0.0531256 -2.04531 0
M  V30 3447 H 309.486 1.95952 -3.57864 0
M  V30 3448 H 308.161 0.911548 -4.05788 0
M  V30 3449 H 306.738 2.33597 -2.90666 0
M  V30 3450 N 308.923 1.53595 0.353017 0
M  V30 3451 C 310.148 1.7462 1.11904 0
M  V30 3452 C 310.573 0.479721 1.8188 0
M  V30 3453 O 309.931 -0.567066 1.72204 0
M  V30 3454 C 309.979 2.92029 2.11545 0
M  V30 3455 O 309.083 2.61516 3.18878 0
M  V30 3456 H 308.424 0.579531 0.324099 0
M  V30 3457 H 310.954 2.00525 0.406301 0
M  V30 3458 H 310.964 3.18551 2.5493 0
M  V30 3459 H 309.639 3.83888 1.60008 0
M  V30 3460 H 308.216 2.45852 2.80377 0
M  V30 3461 N 310.401 -0.613514 1.45168 0
M  V30 3462 C 311.331 -1.7354 1.56225 0
M  V30 3463 C 312.312 -1.64981 0.41414 0
M  V30 3464 O 313.497 -1.83472 0.636526 0
M  V30 3465 C 310.627 -3.12128 1.52295 0
M  V30 3466 C 309.581 -3.35491 2.65762 0
M  V30 3467 C 308.907 -4.74291 2.46885 0
M  V30 3468 C 310.207 -3.26325 4.0781 0
M  V30 3469 H 311.901 -1.64543 2.50132 0
M  V30 3470 H 309.447 -0.790185 1.20383 0
M  V30 3471 H 311.4 -3.90404 1.58628 0
M  V30 3472 H 310.124 -3.2195 0.549139 0
M  V30 3473 H 308.783 -2.59603 2.58847 0
M  V30 3474 H 308.431 -4.80839 1.47657 0
M  V30 3475 H 308.131 -4.9088 3.22972 0
M  V30 3476 H 309.655 -5.54775 2.55063 0
M  V30 3477 H 311.069 -3.94483 4.16 0
M  V30 3478 H 309.466 -3.54445 4.8424 0
M  V30 3479 H 310.536 -2.23855 4.30136 0
M  V30 3480 N 311.879 -1.3236 -0.855495 0
M  V30 3481 C 313.156 -1.13491 -1.59309 0
M  V30 3482 C 313.536 0.30503 -2.08885 0
M  V30 3483 O 312.884 1.30151 -1.87811 0
M  V30 3484 C 313.094 -2.16176 -2.73987 0
M  V30 3485 C 314.442 -2.49463 -3.43589 0
M  V30 3486 O 315.466 -2.14715 -2.84211 0
M  V30 3487 O 314.325 -3.09027 -4.50738 0
M  V30 3488 H 311.419 -0.437887 -0.701559 0
M  V30 3489 H 313.965 -1.43887 -0.899696 0
M  V30 3490 H 312.737 -3.1297 -2.34873 0
M  V30 3491 H 312.36 -1.86769 -3.51003 0
M  V30 3492 N 313.357 1.07166 -1.15556 0
M  V30 3493 C 314.289 2.14341 -0.811815 0
M  V30 3494 C 315.302 1.61835 0.177015 0
M  V30 3495 O 316.491 1.78439 -0.0464996 0
M  V30 3496 C 313.591 3.38387 -0.186481 0
M  V30 3497 C 312.764 4.20238 -1.21321 0
M  V30 3498 C 311.823 5.2266 -0.609302 0
M  V30 3499 O 310.849 5.54719 -1.27576 0
M  V30 3500 N 312.051 5.77306 0.608099 0
M  V30 3501 H 314.816 2.44431 -1.73417 0
M  V30 3502 H 312.377 1.23089 -1.0517 0
M  V30 3503 H 314.369 4.04044 0.230339 0
M  V30 3504 H 312.939 3.05994 0.639249 0
M  V30 3505 H 312.159 3.50369 -1.80652 0
M  V30 3506 H 313.447 4.71736 -1.90638 0
M  V30 3507 H 312.845 5.53513 1.1679 0
M  V30 3508 H 311.402 6.44583 0.96725 0
M  V30 3509 N 314.835 0.952656 1.25548 0
M  V30 3510 C 316.06 0.623025 1.97821 0
M  V30 3511 C 316.485 -0.7976 1.70352 0
M  V30 3512 O 315.843 -1.53905 0.958283 0
M  V30 3513 C 315.891 0.885532 3.49558 0
M  V30 3514 O 314.995 -0.0366641 4.12384 0
M  V30 3515 H 314.336 0.237082 0.620232 0
M  V30 3516 H 316.866 1.27871 1.59719 0
M  V30 3517 H 316.876 0.811009 3.99858 0
M  V30 3518 H 315.551 1.92094 3.6888 0
M  V30 3519 H 314.128 0.0898954 3.72792 0
M  V30 3520 N 316.313 -1.40141 0.720998 0
M  V30 3521 C 317.538 -2.05618 0.271258 0
M  V30 3522 C 317.963 -1.53978 -1.08039 0
M  V30 3523 O 317.321 -0.677463 -1.68167 0
M  V30 3524 C 317.369 -3.59609 0.267197 0
M  V30 3525 O 316.473 -4.05526 -0.749814 0
M  V30 3526 H 315.814 -0.651904 0.126162 0
M  V30 3527 H 318.344 -1.79439 0.982997 0
M  V30 3528 H 318.354 -4.0786 0.106744 0
M  V30 3529 H 317.029 -3.96559 1.25354 0
M  V30 3530 H 315.606 -3.68722 -0.556644 0
M  V30 3531 N 317.792 -0.46758 -1.50504 0
M  V30 3532 C 319.203 -0.0116166 -1.86696 0
M  V30 3533 C 319.554 1.39202 -1.38265 0
M  V30 3534 O 318.679 2.0313 -0.746132 0
M  V30 3535 C 319.274 -0.0143044 -3.38797 0
M  V30 3536 C 317.833 0.386175 -3.74414 0
M  V30 3537 C 316.98 -0.401287 -2.74381 0
M  V30 3538 H 319.931 -0.682022 -1.43297 0
M  V30 3539 H 319.952 0.788641 -3.72237 0
M  V30 3540 H 319.464 -1.03602 -3.74016 0
M  V30 3541 H 317.565 1.41237 -3.44794 0
M  V30 3542 H 317.678 0.0899596 -4.79016 0
M  V30 3543 H 316.042 0.144536 -2.5429 0
M  V30 3544 H 316.825 -1.42244 -3.12444 0
M  V30 3545 N 319.27 1.56325 -0.20005 0
M  V30 3546 C 320.681 1.8408 0.31167 0
M  V30 3547 C 321.032 1.12087 1.61031 0
M  V30 3548 O 320.157 0.38332 2.12978 0
M  V30 3549 C 320.752 3.33932 0.57226 0
M  V30 3550 C 319.311 3.6208 1.02834 0
M  V30 3551 C 318.458 2.77186 0.079634 0
M  V30 3552 H 321.409 1.52939 -0.423729 0
M  V30 3553 H 321.43 3.52971 1.42096 0
M  V30 3554 H 320.942 3.86303 -0.37308 0
M  V30 3555 H 319.043 3.15147 1.98778 0
M  V30 3556 H 319.156 4.7023 0.917624 0
M  V30 3557 H 317.52 2.47951 0.582448 0
M  V30 3558 H 318.303 3.32347 -0.860238 0
M  V30 3559 N 320.748 -0.0735177 1.57428 0
M  V30 3560 C 321.68 -1.11423 2.00294 0
M  V30 3561 C 322.693 -1.35084 0.908637 0
M  V30 3562 O 323.882 -1.33355 1.18654 0
M  V30 3563 C 320.982 -2.46548 2.32523 0
M  V30 3564 C 320.155 -2.42867 3.63778 0
M  V30 3565 C 319.214 -3.60087 3.83697 0
M  V30 3566 O 318.24 -3.41595 4.55304 0
M  V30 3567 N 319.442 -4.80372 3.25919 0
M  V30 3568 H 322.207 -0.749206 2.90184 0
M  V30 3569 H 319.768 -0.262195 1.59763 0
M  V30 3570 H 321.76 -3.23607 2.43024 0
M  V30 3571 H 320.33 -2.75059 1.48531 0
M  V30 3572 H 319.55 -1.51206 3.64047 0
M  V30 3573 H 320.838 -2.37506 4.49965 0
M  V30 3574 H 320.236 -4.983 2.67795 0
M  V30 3575 H 318.793 -5.54948 3.41871 0
M  V30 3576 N 322.226 -1.5378 -0.344866 0
M  V30 3577 C 323.451 -1.75211 -1.10977 0
M  V30 3578 C 323.876 -0.48936 -1.81623 0
M  V30 3579 O 323.234 0.557925 -1.72502 0
M  V30 3580 C 323.282 -2.93147 -2.09993 0
M  V30 3581 O 322.386 -2.63203 -3.17487 0
M  V30 3582 H 321.727 -0.581241 -0.321021 0
M  V30 3583 H 324.257 -2.00738 -0.395661 0
M  V30 3584 H 324.267 -3.19898 -2.53237 0
M  V30 3585 H 322.942 -3.84731 -1.5797 0
M  V30 3586 H 321.519 -2.47336 -2.79069 0
M  V30 3587 N 323.704 0.605807 -1.45491 0
M  V30 3588 C 324.952 1.36207 -1.49305 0
M  V30 3589 C 325.273 1.94519 -0.136863 0
M  V30 3590 O 324.543 1.77261 0.833983 0
M  V30 3591 H 323.123 0.50565 -0.549843 0
M  V30 3592 H 325.785 0.711239 -1.81459 0
M  V30 3593 H 324.881 2.18058 -2.23287 0
M  V30 3594 N 325.182 1.32811 0.848464 0
M  V30 3595 C 326.428 1.23907 1.60546 0
M  V30 3596 C 326.761 -0.197161 1.93197 0
M  V30 3597 O 326.036 -1.13596 1.5788 0
M  V30 3598 C 326.319 2.10489 2.92175 0
M  V30 3599 C 326.172 3.62522 2.66266 0
M  V30 3600 C 327.491 1.97075 3.93509 0
M  V30 3601 H 324.61 0.451459 0.58254 0
M  V30 3602 H 327.252 1.62818 0.979296 0
M  V30 3603 H 325.402 1.77434 3.45614 0
M  V30 3604 H 327.074 4.05821 2.19334 0
M  V30 3605 H 325.317 3.84879 2.00126 0
M  V30 3606 H 325.988 4.18437 3.6002 0
M  V30 3607 H 328.464 2.26045 3.49346 0
M  V30 3608 H 327.34 2.59923 4.83457 0
M  V30 3609 H 327.601 0.940186 4.31987 0
M  V30 3610 N 326.66 -1.06551 1.16123 0
M  V30 3611 C 327.885 -1.83544 0.965735 0
M  V30 3612 C 328.31 -1.81843 -0.481102 0
M  V30 3613 O 327.668 -1.21732 -1.34354 0
M  V30 3614 C 327.716 -3.28169 1.49457 0
M  V30 3615 O 326.82 -4.0643 0.699157 0
M  V30 3616 H 326.161 -0.568026 0.343864 0
M  V30 3617 H 328.691 -1.34362 1.54299 0
M  V30 3618 H 328.701 -3.78992 1.51092 0
M  V30 3619 H 327.376 -3.28722 2.54784 0
M  V30 3620 H 325.953 -3.65216 0.7531 0
M  V30 3621 N 328.138 -0.959301 -1.25041 0
M  V30 3622 C 329.366 -0.633949 -1.96948 0
M  V30 3623 C 329.781 0.794916 -1.7125 0
M  V30 3624 O 329.138 1.53231 -0.991287 0
M  V30 3625 C 329.189 -0.888805 -3.50403 0
M  V30 3626 O 328.91 -2.26149 -3.75218 0
M  V30 3627 C 330.411 -0.576482 -4.39536 0
M  V30 3628 H 327.631 -0.237263 -0.627652 0
M  V30 3629 H 330.175 -1.28495 -1.59089 0
M  V30 3630 H 328.33 -0.284145 -3.86357 0
M  V30 3631 H 328.744 -2.33514 -4.6965 0
M  V30 3632 H 330.218 -0.805314 -5.46094 0
M  V30 3633 H 330.695 0.489075 -4.36468 0
M  V30 3634 H 331.301 -1.16067 -4.09156 0
M  V30 3635 N 329.616 1.39756 -0.72842 0
M  V30 3636 C 330.841 2.05472 -0.282159 0
M  V30 3637 C 331.266 1.54549 1.07221 0
M  V30 3638 O 330.624 0.686372 1.67805 0
M  V30 3639 C 330.672 3.59462 -0.286264 0
M  V30 3640 O 329.776 4.05918 0.728298 0
M  V30 3641 H 329.117 0.651226 -0.129618 0
M  V30 3642 H 331.647 1.78915 -0.992499 0
M  V30 3643 H 331.657 4.07798 -0.128373 0
M  V30 3644 H 330.332 3.95889 -1.27456 0
M  V30 3645 H 328.909 3.69012 0.537081 0
M  V30 3646 N 331.094 0.475555 1.50254 0
M  V30 3647 C 332.324 -0.0753399 2.06463 0
M  V30 3648 C 332.732 -1.33661 1.33908 0
M  V30 3649 O 332.075 -1.79219 0.403257 0
M  V30 3650 C 332.137 -0.424921 3.5698 0
M  V30 3651 C 331.801 0.734965 4.51051 0
M  V30 3652 C 332.798 1.61827 4.94073 0
M  V30 3653 C 330.483 0.926557 4.9368 0
M  V30 3654 C 332.477 2.67754 5.78434 0
M  V30 3655 C 330.164 1.98904 5.77824 0
M  V30 3656 C 331.162 2.8629 6.20103 0
M  V30 3657 O 330.85 3.90708 7.02568 0
M  V30 3658 H 330.582 0.00576308 0.675975 0
M  V30 3659 H 333.136 0.664662 1.94349 0
M  V30 3660 H 331.366 -1.21817 3.67012 0
M  V30 3661 H 333.055 -0.911422 3.95535 0
M  V30 3662 H 333.821 1.48196 4.61804 0
M  V30 3663 H 329.7 0.25584 4.6029 0
M  V30 3664 H 333.244 3.35992 6.11355 0
M  V30 3665 H 329.141 2.12541 6.09505 0
M  V30 3666 H 329.909 3.87751 7.20827 0
M  V30 3667 N 332.573 -1.56217 0.208337 0
M  V30 3668 C 333.521 -2.21053 -0.723769 0
M  V30 3669 C 334.515 -1.18578 -1.20978 0
M  V30 3670 O 335.721 -1.36691 -1.17114 0
M  V30 3671 H 332.096 -0.708595 -0.251788 0
M  V30 3672 H 334.067 -2.98006 -0.153365 0
M  V30 3673 C 332.816 -2.89417 -1.927 0
M  V30 3674 H 332.139 -3.68019 -1.56212 0
M  V30 3675 H 333.579 -3.38201 -2.55727 0
M  V30 3676 C 332.038 -1.91166 -2.77411 0
M  V30 3677 O 332.568 -1.42026 -3.75754 0
M  V30 3678 N 330.774 -1.59105 -2.43175 0
M  V30 3679 H 330.321 -1.99259 -1.63259 0
M  V30 3680 H 330.279 -0.936255 -3.00136 0
M  V30 3681 N 334.051 0.0651679 -1.57465 0
M  V30 3682 C 335.001 1.0838 -2.00594 0
M  V30 3683 C 335.985 1.34106 -0.889071 0
M  V30 3684 O 337.177 1.34295 -1.15299 0
M  V30 3685 C 334.306 2.39565 -2.45894 0
M  V30 3686 C 333.392 2.17085 -3.64328 0
M  V30 3687 N 333.783 1.64553 -4.78285 0
M  V30 3688 C 332.081 2.4753 -3.71006 0
M  V30 3689 C 332.782 1.57042 -5.60101 0
M  V30 3690 N 331.758 2.03328 -5.04141 0
M  V30 3691 H 335.56 0.671062 -2.86136 0
M  V30 3692 H 333.074 0.27213 -1.60104 0
M  V30 3693 H 335.071 3.13308 -2.75034 0
M  V30 3694 H 333.731 2.81549 -1.61741 0
M  V30 3695 H 334.742 1.33323 -5.00445 0
M  V30 3696 H 331.419 2.92835 -2.9758 0
M  V30 3697 H 332.809 1.17223 -6.61595 0
M  V30 3698 N 335.529 1.53961 0.336706 0
M  V30 3699 C 336.94 1.62914 0.911925 0
M  V30 3700 C 337.291 0.514795 1.89326 0
M  V30 3701 O 336.416 -0.354395 2.13478 0
M  V30 3702 C 337.011 2.95304 1.66076 0
M  V30 3703 C 335.57 3.06496 2.18489 0
M  V30 3704 C 334.717 2.58403 1.00613 0
M  V30 3705 H 337.668 1.58285 0.114649 0
M  V30 3706 H 337.689 2.84727 2.5241 0
M  V30 3707 H 337.201 3.76387 0.946276 0
M  V30 3708 H 335.302 2.3006 2.93092 0
M  V30 3709 H 335.415 4.1208 2.44391 0
M  V30 3710 H 333.779 2.13977 1.38152 0
M  V30 3711 H 334.562 3.41932 0.306179 0
M  V30 3712 N 337.007 -0.598083 1.45811 0
M  V30 3713 C 338.253 -1.35882 1.50545 0
M  V30 3714 C 338.586 -1.93616 0.150445 0
M  V30 3715 O 337.861 -1.75604 -0.83628 0
M  V30 3716 C 338.144 -2.49966 2.59208 0
M  V30 3717 C 337.997 -1.97367 4.04186 0
M  V30 3718 C 339.316 -3.52068 2.64076 0
M  V30 3719 H 336.435 -0.492717 0.548087 0
M  V30 3720 H 339.077 -0.673319 1.77669 0
M  V30 3721 H 337.227 -3.08443 2.3621 0
M  V30 3722 H 338.899 -1.43466 4.38423 0
M  V30 3723 H 337.142 -1.283 4.14393 0
M  V30 3724 H 337.813 -2.79649 4.75921 0
M  V30 3725 H 340.289 -3.03448 2.84708 0
M  V30 3726 H 339.165 -4.2937 3.41954 0
M  V30 3727 H 339.426 -4.08304 1.69531 0
M  V30 3728 N 338.485 -1.33259 -0.841409 0
M  V30 3729 C 339.415 -1.25926 -1.96634 0
M  V30 3730 C 340.396 -0.140349 -1.6952 0
M  V30 3731 O 341.581 -0.329707 -1.91381 0
M  V30 3732 C 338.711 -0.99512 -3.32738 0
M  V30 3733 C 337.665 -2.0767 -3.74242 0
M  V30 3734 C 336.991 -1.66474 -5.08125 0
M  V30 3735 C 338.291 -3.49318 -3.88297 0
M  V30 3736 H 339.985 -2.20046 -2.03027 0
M  V30 3737 H 337.531 -1.05931 -0.975425 0
M  V30 3738 H 339.484 -0.930323 -4.11002 0
M  V30 3739 H 338.208 -0.0183004 -3.26595 0
M  V30 3740 H 336.867 -2.13187 -2.98239 0
M  V30 3741 H 336.515 -0.675012 -4.9845 0
M  V30 3742 H 336.215 -2.3885 -5.36865 0
M  V30 3743 H 337.739 -1.61455 -5.88867 0
M  V30 3744 H 339.153 -3.46316 -4.56879 0
M  V30 3745 H 337.55 -4.20158 -4.28471 0
M  V30 3746 H 338.62 -3.8801 -2.9082 0
M  V30 3747 N 339.963 1.05934 -1.16686 0
M  V30 3748 C 341.211 1.78447 -0.948744 0
M  V30 3749 C 341.532 1.87813 0.524523 0
M  V30 3750 O 340.802 1.38945 1.38098 0
M  V30 3751 H 339.382 0.660971 -0.348033 0
M  V30 3752 H 342.044 1.27947 -1.47022 0
M  V30 3753 H 341.14 2.80394 -1.37061 0
M  V30 3754 N 341.441 0.965919 1.2453 0
M  V30 3755 C 342.374 0.4393 2.23932 0
M  V30 3756 C 343.352 -0.485615 1.55179 0
M  V30 3757 O 344.536 -0.417402 1.83821 0
M  V30 3758 C 341.663 -0.366042 3.36716 0
M  V30 3759 C 340.709 0.5009 4.23548 0
M  V30 3760 S 341.542 1.94002 4.99123 0
M  V30 3761 C 342.698 1.14342 6.15367 0
M  V30 3762 H 342.931 1.28167 2.68254 0
M  V30 3763 H 340.464 0.770819 1.33782 0
M  V30 3764 H 342.422 -0.824724 4.0213 0
M  V30 3765 H 341.083 -1.18337 2.90956 0
M  V30 3766 H 340.276 -0.117341 5.03863 0
M  V30 3767 H 339.878 0.89524 3.63127 0
M  V30 3768 H 342.17 0.397572 6.76332 0
M  V30 3769 H 343.113 1.92089 6.81548 0
M  V30 3770 H 343.521 0.668579 5.60527 0
M  V30 3771 N 342.919 -1.39368 0.735821 0
M  V30 3772 C 344.149 -2.04498 0.293967 0
M  V30 3773 C 344.557 -1.55593 -1.07645 0
M  V30 3774 O 343.9 -0.716324 -1.69158 0
M  V30 3775 C 343.962 -3.58836 0.218342 0
M  V30 3776 C 343.626 -4.30721 1.52736 0
M  V30 3777 C 344.623 -4.57305 2.47322 0
M  V30 3778 C 342.308 -4.69251 1.79189 0
M  V30 3779 C 344.302 -5.21429 3.66593 0
M  V30 3780 C 341.989 -5.33104 2.98737 0
M  V30 3781 C 342.987 -5.59125 3.9226 0
M  V30 3782 O 342.675 -6.21653 5.09708 0
M  V30 3783 H 342.407 -0.664118 0.126189 0
M  V30 3784 H 344.961 -1.79385 1.00051 0
M  V30 3785 H 343.191 -3.8285 -0.544314 0
M  V30 3786 H 344.88 -4.05447 -0.191626 0
M  V30 3787 H 345.646 -4.27983 2.28156 0
M  V30 3788 H 341.525 -4.48354 1.07239 0
M  V30 3789 H 345.069 -5.41656 4.39607 0
M  V30 3790 H 340.966 -5.61846 3.17803 0
M  V30 3791 H 341.734 -6.40146 5.10054 0
M  V30 3792 N 344.397 -0.483516 -1.5 0
M  V30 3793 C 345.674 0.129337 -1.95172 0
M  V30 3794 C 346.054 1.55802 -1.4244 0
M  V30 3795 O 345.402 2.19625 -0.630649 0
M  V30 3796 C 345.612 0.0599251 -3.48949 0
M  V30 3797 C 346.96 0.242617 -4.23906 0
M  V30 3798 O 347.984 0.135933 -3.55941 0
M  V30 3799 O 346.843 0.459454 -5.44565 0
M  V30 3800 H 343.937 0.104887 -0.820322 0
M  V30 3801 H 346.483 -0.544807 -1.60717 0
M  V30 3802 H 345.255 -0.937079 -3.79914 0
M  V30 3803 H 344.878 0.774984 -3.89974 0
M  V30 3804 N 345.875 1.56104 -0.216619 0
M  V30 3805 C 346.838 2.18819 0.681962 0
M  V30 3806 C 347.838 1.14866 1.12528 0
M  V30 3807 O 349.028 1.40128 1.03488 0
M  V30 3808 C 346.16 2.80756 1.93362 0
M  V30 3809 H 347.353 2.99595 0.135254 0
M  V30 3810 H 344.906 1.56265 0.0330003 0
M  V30 3811 H 345.641 2.03837 2.52232 0
M  V30 3812 H 345.426 3.56876 1.62426 0
M  V30 3813 H 346.916 3.28844 2.57393 0
M  V30 3814 N 347.353 -0.0568162 1.57498 0
M  V30 3815 C 348.3 -1.06591 2.04712 0
M  V30 3816 C 349.27 -1.3758 0.930644 0
M  V30 3817 O 350.455 -1.48392 1.19935 0
M  V30 3818 C 347.595 -2.3701 2.50839 0
M  V30 3819 C 346.708 -2.12421 3.76167 0
M  V30 3820 C 345.843 -3.36511 4.11015 0
M  V30 3821 C 344.882 -3.07353 5.2934 0
M  V30 3822 N 344.019 -4.23816 5.59754 0
M  V30 3823 H 348.859 -0.65631 2.90683 0
M  V30 3824 H 346.396 -0.312481 1.43743 0
M  V30 3825 H 348.354 -3.13175 2.7564 0
M  V30 3826 H 346.984 -2.75744 1.67825 0
M  V30 3827 H 346.036 -1.2688 3.58616 0
M  V30 3828 H 347.348 -1.86894 4.62463 0
M  V30 3829 H 346.502 -4.21062 4.36797 0
M  V30 3830 H 345.241 -3.65128 3.23315 0
M  V30 3831 H 344.246 -2.212 5.03339 0
M  V30 3832 H 345.471 -2.80043 6.1867 0
M  V30 3833 H 343.417 -4.52436 4.75014 0
M  V30 3834 H 343.334 -4.01614 6.40501 0
M  V30 3835 H 344.602 -5.0932 5.90096 0
M  V30 3836 N 348.832 -1.54138 -0.328536 0
M  V30 3837 C 350.109 -1.62749 -1.08499 0
M  V30 3838 C 350.489 -0.458198 -2.06067 0
M  V30 3839 O 349.837 0.548046 -2.2183 0
M  V30 3840 C 350.047 -2.99519 -1.79135 0
M  V30 3841 C 351.395 -3.55394 -2.32337 0
M  V30 3842 O 352.419 -3.01792 -1.89209 0
M  V30 3843 O 351.278 -4.49186 -3.11279 0
M  V30 3844 H 348.372 -0.65886 -0.499832 0
M  V30 3845 H 350.918 -1.66484 -0.328826 0
M  V30 3846 H 349.69 -3.76061 -1.08139 0
M  V30 3847 H 349.313 -2.99441 -2.61574 0
M  V30 3848 N 350.31 0.590341 -1.46126 0
M  V30 3849 C 351.587 1.35029 -1.41515 0
M  V30 3850 C 351.967 2.10888 -0.0946472 0
M  V30 3851 O 351.315 2.08998 0.923693 0
M  V30 3852 C 351.525 2.28269 -2.63997 0
M  V30 3853 C 352.873 2.90338 -3.09821 0
M  V30 3854 O 353.897 2.38585 -2.64492 0
M  V30 3855 O 352.756 3.84321 -3.88535 0
M  V30 3856 H 349.85 0.606317 -0.562413 0
M  V30 3857 H 352.396 0.611994 -1.58281 0
M  V30 3858 H 351.168 1.71591 -3.51671 0
M  V30 3859 H 350.791 3.0945 -2.49652 0
M  V30 3860 N 351.788 1.33704 0.83433 0
M  V30 3861 C 353.035 1.25417 1.58987 0
M  V30 3862 C 353.363 -0.178869 1.93676 0
M  V30 3863 O 352.618 -1.13723 1.59265 0
M  V30 3864 C 352.917 2.07926 2.90692 0
M  V30 3865 C 352.583 3.57066 2.75345 0
M  V30 3866 C 351.245 3.97724 2.70867 0
M  V30 3867 C 353.597 4.51817 2.59828 0
M  V30 3868 C 350.925 5.31344 2.48778 0
M  V30 3869 C 353.277 5.85604 2.39272 0
M  V30 3870 C 351.941 6.25439 2.33199 0
M  V30 3871 H 351.211 0.458934 0.581774 0
M  V30 3872 H 353.858 1.65335 0.966261 0
M  V30 3873 H 352.163 1.608 3.57282 0
M  V30 3874 H 353.86 1.98868 3.48213 0
M  V30 3875 H 350.45 3.24785 2.79665 0
M  V30 3876 H 354.634 4.21311 2.62319 0
M  V30 3877 H 349.89 5.61241 2.42526 0
M  V30 3878 H 354.064 6.58623 2.2625 0
M  V30 3879 H 351.691 7.28914 2.15843 0
M  V30 3880 N 353.266 -1.05314 1.17247 0
M  V30 3881 C 354.677 -1.59753 0.96623 0
M  V30 3882 C 355.028 -1.9005 -0.487378 0
M  V30 3883 O 354.153 -1.68126 -1.36245 0
M  V30 3884 C 354.748 -2.90249 1.74759 0
M  V30 3885 C 353.307 -3.41352 1.58606 0
M  V30 3886 C 352.454 -2.15103 1.75002 0
M  V30 3887 H 355.405 -0.881406 1.31973 0
M  V30 3888 H 355.426 -3.60097 1.22925 0
M  V30 3889 H 354.938 -2.68166 2.8055 0
M  V30 3890 H 353.039 -3.68474 0.552985 0
M  V30 3891 H 353.152 -4.16019 2.37624 0
M  V30 3892 H 351.516 -2.25804 1.17833 0
M  V30 3893 H 352.299 -1.95491 2.82202 0
M  V30 3894 N 354.744 -0.972509 -1.24016 0
M  V30 3895 C 355.674 -0.525548 -2.27509 0
M  V30 3896 C 356.655 0.437262 -1.64384 0
M  V30 3897 O 357.84 0.332343 -1.91335 0
M  V30 3898 C 354.97 0.180448 -3.46831 0
M  V30 3899 C 353.924 -0.698859 -4.22256 0
M  V30 3900 C 353.25 0.138903 -5.3452 0
M  V30 3901 C 354.55 -1.98582 -4.83076 0
M  V30 3902 H 356.244 -1.39058 -2.65148 0
M  V30 3903 H 353.79 -0.67009 -1.27459 0
M  V30 3904 H 355.743 0.504387 -4.18371 0
M  V30 3905 H 354.467 1.07987 -3.08231 0
M  V30 3906 H 353.126 -1.00614 -3.52523 0
M  V30 3907 H 352.774 1.03862 -4.9216 0
M  V30 3908 H 352.474 -0.446259 -5.85903 0
M  V30 3909 H 353.998 0.457404 -6.08884 0
M  V30 3910 H 355.412 -1.72715 -5.46665 0
M  V30 3911 H 353.809 -2.5181 -5.44713 0
M  V30 3912 H 354.879 -2.67769 -4.04262 0
M  V30 3913 N 356.222 1.38976 -0.743202 0
M  V30 3914 C 357.638 1.53984 -0.419664 0
M  V30 3915 C 357.838 1.70837 1.0685 0
M  V30 3916 O 356.894 1.7135 1.8546 0
M  V30 3917 C 358.207 2.75287 -1.20985 0
M  V30 3918 C 359.755 2.89129 -1.19889 0
M  V30 3919 C 360.23 4.13381 -1.97181 0
M  V30 3920 N 361.721 4.20437 -1.94389 0
M  V30 3921 C 362.456 5.15547 -2.50996 0
M  V30 3922 N 361.952 6.16395 -3.16274 0
M  V30 3923 N 363.745 5.07822 -2.40984 0
M  V30 3924 H 355.896 1.26285 -1.7078 0
M  V30 3925 H 358.159 0.612689 -0.723406 0
M  V30 3926 H 357.865 2.69204 -2.26323 0
M  V30 3927 H 357.739 3.68184 -0.819759 0
M  V30 3928 H 360.126 2.947 -0.153606 0
M  V30 3929 H 360.207 1.97272 -1.62841 0
M  V30 3930 H 359.851 4.08572 -3.01714 0
M  V30 3931 H 359.781 5.04298 -1.51629 0
M  V30 3932 H 362.272 3.48205 -1.46839 0
M  V30 3933 H 362.585 6.85443 -3.56915 0
M  V30 3934 H 360.93 6.16758 -3.20367 0
M  V30 3935 H 364.121 4.27973 -1.89622 0
M  V30 3936 H 364.294 5.81767 -2.85397 0
M  V30 3937 N 357.7 0.491464 1.49741 0
M  V30 3938 C 358.647 -0.292027 2.28945 0
M  V30 3939 C 359.617 -0.968973 1.34908 0
M  V30 3940 O 360.802 -0.97748 1.6386 0
M  V30 3941 C 357.942 -1.35617 3.17336 0
M  V30 3942 C 357.055 -0.691957 4.26422 0
M  V30 3943 C 356.19 -1.73572 5.02042 0
M  V30 3944 C 355.229 -1.05286 6.02977 0
M  V30 3945 N 354.366 -2.0404 6.71798 0
M  V30 3946 H 359.206 0.389654 2.95442 0
M  V30 3947 H 356.743 0.204003 1.45679 0
M  V30 3948 H 358.701 -1.98502 3.66951 0
M  V30 3949 H 357.331 -2.00674 2.52844 0
M  V30 3950 H 356.383 0.0499523 3.80367 0
M  V30 3951 H 357.695 -0.153946 4.98562 0
M  V30 3952 H 356.849 -2.43987 5.55478 0
M  V30 3953 H 355.588 -2.30757 4.29654 0
M  V30 3954 H 354.593 -0.334446 5.48782 0
M  V30 3955 H 355.818 -0.487636 6.77347 0
M  V30 3956 H 353.764 -2.60205 6.02187 0
M  V30 3957 H 353.681 -1.55279 7.39881 0
M  V30 3958 H 354.949 -2.73772 7.29842 0
M  V30 3959 N 359.178 -1.55987 0.224894 0
M  V30 3960 C 360.406 -2.02784 -0.410665 0
M  V30 3961 C 360.821 -1.10464 -1.53112 0
M  V30 3962 O 360.178 -0.114871 -1.82138 0
M  V30 3963 C 360.229 -3.49087 -0.939165 0
M  V30 3964 O 359.95 -4.37887 0.136614 0
M  V30 3965 C 361.451 -4.11543 -1.64763 0
M  V30 3966 H 358.671 -0.663484 -0.100148 0
M  V30 3967 H 361.215 -2.01614 0.342326 0
M  V30 3968 H 359.37 -3.50861 -1.64242 0
M  V30 3969 H 359.784 -5.23849 -0.261155 0
M  V30 3970 H 361.258 -5.15673 -1.96939 0
M  V30 3971 H 361.735 -3.56736 -2.56195 0
M  V30 3972 H 362.341 -4.13629 -0.989503 0
M  V30 3973 N 360.656 0.0484629 -1.57525 0
M  V30 3974 C 361.619 1.03956 -2.04269 0
M  V30 3975 C 362.619 1.30211 -0.943496 0
M  V30 3976 O 363.809 1.25539 -1.20771 0
M  V30 3977 C 360.941 2.37742 -2.44319 0
M  V30 3978 H 362.134 0.636182 -2.93075 0
M  V30 3979 H 359.687 0.294811 -1.53494 0
M  V30 3980 H 360.422 2.82866 -1.5861 0
M  V30 3981 H 360.207 2.20021 -3.24551 0
M  V30 3982 H 361.697 3.08936 -2.80978 0
M  V30 3983 N 362.134 1.5431 0.320358 0
M  V30 3984 C 363.359 1.76954 1.08175 0
M  V30 3985 C 363.784 0.518193 1.80821 0
M  V30 3986 O 363.142 -0.530411 1.73368 0
M  V30 3987 C 363.19 2.96451 2.05303 0
M  V30 3988 O 362.294 2.68221 3.13259 0
M  V30 3989 H 361.635 0.586275 0.311733 0
M  V30 3990 H 364.165 2.01342 0.363676 0
M  V30 3991 H 364.175 3.23887 2.48116 0
M  V30 3992 H 362.85 3.87196 1.51829 0
M  V30 3993 H 361.427 2.51744 2.75099 0
M  V30 3994 N 363.613 -0.582584 1.46437 0
M  V30 3995 C 364.523 -1.71949 1.59595 0
M  V30 3996 C 365.539 -1.67264 0.479443 0
M  V30 3997 O 366.715 -1.87171 0.743579 0
M  V30 3998 C 363.78 -3.08452 1.58298 0
M  V30 3999 C 362.841 -3.244 2.81182 0
M  V30 4000 C 362.074 -4.54391 2.79937 0
M  V30 4001 O 362.297 -5.38287 1.8869 0
M  V30 4002 O 361.231 -4.73588 3.71481 0
M  V30 4003 H 365.057 -1.63795 2.55744 0
M  V30 4004 H 362.642 -0.749643 1.29231 0
M  V30 4005 H 364.524 -3.89732 1.60271 0
M  V30 4006 H 363.199 -3.17043 0.653094 0
M  V30 4007 H 362.106 -2.42613 2.84763 0
M  V30 4008 H 363.439 -3.20699 3.7338 0
M  V30 4009 N 365.091 -1.34144 -0.827227 0
M  V30 4010 C 366.502 -1.23557 -1.39966 0
M  V30 4011 C 366.853 0.140731 -1.95695 0
M  V30 4012 O 365.978 1.04087 -1.89723 0
M  V30 4013 C 366.573 -2.23708 -2.54441 0
M  V30 4014 C 365.132 -2.16924 -3.07605 0
M  V30 4015 C 364.279 -2.10549 -1.80456 0
M  V30 4016 H 367.23 -1.45573 -0.631991 0
M  V30 4017 H 367.251 -1.85157 -3.32411 0
M  V30 4018 H 366.763 -3.23866 -2.13851 0
M  V30 4019 H 364.864 -1.20107 -3.52711 0
M  V30 4020 H 364.977 -3.07988 -3.66988 0
M  V30 4021 H 363.341 -1.56203 -2.01178 0
M  V30 4022 H 364.124 -3.12535 -1.42046 0
M  V30 4023 N 366.569 1.04691 -1.17803 0
M  V30 4024 C 367.517 2.14665 -0.895635 0
M  V30 4025 C 368.511 1.68806 0.141679 0
M  V30 4026 O 369.717 1.79999 -0.00587914 0
M  V30 4027 H 366.092 0.701038 -0.272121 0
M  V30 4028 H 368.063 2.35685 -1.83017 0
M  V30 4029 C 366.812 3.45019 -0.430962 0
M  V30 4030 H 366.135 3.8071 -1.22064 0
M  V30 4031 H 367.575 4.23125 -0.272301 0
M  V30 4032 C 366.034 3.25943 0.852207 0
M  V30 4033 O 366.564 3.5296 1.91786 0
M  V30 4034 N 364.77 2.79304 0.802346 0
M  V30 4035 H 364.317 2.57518 -0.0650788 0
M  V30 4036 H 364.275 2.66921 1.66134 0
M  V30 4037 N 368.047 0.979072 1.23499 0
M  V30 4038 C 368.977 0.537606 2.27227 0
M  V30 4039 C 369.958 -0.428539 1.64613 0
M  V30 4040 O 371.143 -0.322191 1.91509 0
M  V30 4041 C 368.273 -0.162052 3.46922 0
M  V30 4042 C 367.227 0.721242 4.21879 0
M  V30 4043 C 366.553 -0.110555 5.34586 0
M  V30 4044 C 367.853 2.01141 4.82016 0
M  V30 4045 H 369.547 1.40462 2.64406 0
M  V30 4046 H 367.093 0.67684 1.27102 0
M  V30 4047 H 369.046 -0.482192 4.18632 0
M  V30 4048 H 367.77 -1.06351 3.08799 0
M  V30 4049 H 366.429 1.02482 3.51984 0
M  V30 4050 H 366.077 -1.0125 4.92704 0
M  V30 4051 H 365.777 0.477325 5.85658 0
M  V30 4052 H 367.301 -0.425107 6.09118 0
M  V30 4053 H 368.715 1.75612 5.45741 0
M  V30 4054 H 367.112 2.54695 5.43369 0
M  V30 4055 H 368.182 2.69909 4.02836 0
M  V30 4056 N 369.525 -1.3858 0.750561 0
M  V30 4057 C 370.472 -2.30483 0.120835 0
M  V30 4058 C 371.442 -1.50022 -0.712923 0
M  V30 4059 O 372.627 -1.78662 -0.669676 0
M  V30 4060 C 369.767 -3.36431 -0.768666 0
M  V30 4061 C 368.88 -4.31927 0.0793922 0
M  V30 4062 C 368.015 -5.24944 -0.81283 0
M  V30 4063 C 367.054 -6.12088 0.0390447 0
M  V30 4064 N 366.191 -6.97412 -0.809969 0
M  V30 4065 H 371.031 -2.83761 0.91015 0
M  V30 4066 H 368.568 -1.39707 0.460463 0
M  V30 4067 H 370.526 -3.96462 -1.29898 0
M  V30 4068 H 369.156 -2.8457 -1.5238 0
M  V30 4069 H 368.208 -3.73382 0.727303 0
M  V30 4070 H 369.52 -4.93319 0.737401 0
M  V30 4071 H 368.674 -5.90078 -1.41042 0
M  V30 4072 H 367.413 -4.63911 -1.50458 0
M  V30 4073 H 366.418 -5.45952 0.649328 0
M  V30 4074 H 367.643 -6.75189 0.727809 0
M  V30 4075 H 365.589 -6.38931 -1.48672 0
M  V30 4076 H 365.506 -7.55712 -0.208789 0
M  V30 4077 H 366.774 -7.66959 -1.39263 0
M  V30 4078 N 371.003 -0.499398 -1.49478 0
M  V30 4079 C 371.933 0.269244 -2.31943 0
M  V30 4080 C 372.914 0.964054 -1.40143 0
M  V30 4081 O 374.099 0.955767 -1.69052 0
M  V30 4082 C 371.229 1.33504 -3.20615 0
M  V30 4083 C 370.183 0.760202 -4.21195 0
M  V30 4084 C 369.509 1.9264 -4.98792 0
M  V30 4085 C 370.809 -0.247661 -5.21712 0
M  V30 4086 H 372.503 -0.419082 -2.96452 0
M  V30 4087 H 370.049 -0.202988 -1.42562 0
M  V30 4088 H 372.002 1.88048 -3.77115 0
M  V30 4089 H 370.726 2.05253 -2.54045 0
M  V30 4090 H 369.385 0.23653 -3.65836 0
M  V30 4091 H 369.033 2.63154 -4.28671 0
M  V30 4092 H 368.733 1.54785 -5.66847 0
M  V30 4093 H 370.257 2.4762 -5.58137 0
M  V30 4094 H 371.671 0.209579 -5.72917 0
M  V30 4095 H 370.068 -0.541962 -5.97648 0
M  V30 4096 H 371.138 -1.16409 -4.7072 0
M  V30 4097 N 372.481 1.55866 -0.233164 0
M  V30 4098 C 373.897 1.59133 0.121988 0
M  V30 4099 C 374.097 1.25016 1.58029 0
M  V30 4100 O 373.153 0.990922 2.32243 0
M  V30 4101 C 374.466 2.99932 -0.214792 0
M  V30 4102 C 376.014 3.12601 -0.157971 0
M  V30 4103 C 376.489 4.55597 -0.46859 0
M  V30 4104 N 377.98 4.61305 -0.418585 0
M  V30 4105 C 378.715 5.69903 -0.63227 0
M  V30 4106 N 378.211 6.86819 -0.90835 0
M  V30 4107 N 380.004 5.59264 -0.563913 0
M  V30 4108 H 372.155 1.76315 -1.18434 0
M  V30 4109 H 374.418 0.820093 -0.475553 0
M  V30 4110 H 374.124 3.29588 -1.22739 0
M  V30 4111 H 373.998 3.74327 0.464691 0
M  V30 4112 H 376.385 2.82735 0.845283 0
M  V30 4113 H 376.466 2.40511 -0.871102 0
M  V30 4114 H 376.11 4.86182 -1.46934 0
M  V30 4115 H 376.04 5.25928 0.265865 0
M  V30 4116 H 378.531 3.77297 -0.213368 0
M  V30 4117 H 378.844 7.65507 -1.05919 0
M  V30 4118 H 377.189 6.88536 -0.945673 0
M  V30 4119 H 380.38 4.66802 -0.348372 0
M  V30 4120 H 380.553 6.43831 -0.733847 0
M  V30 4121 N 373.959 -0.0401083 1.57549 0
M  V30 4122 C 375.184 -0.748931 1.93406 0
M  V30 4123 C 375.609 -1.68686 0.832274 0
M  V30 4124 O 374.967 -1.80047 -0.212818 0
M  V30 4125 C 375.015 -1.4916 3.28304 0
M  V30 4126 O 374.119 -2.6042 3.19774 0
M  V30 4127 H 373.46 -0.202212 0.63246 0
M  V30 4128 H 375.99 0.00112086 2.046 0
M  V30 4129 H 376 -1.86395 3.62934 0
M  V30 4130 H 374.675 -0.80364 4.08062 0
M  V30 4131 H 373.252 -2.25808 2.96758 0
M  V30 4132 N 375.437 -1.54477 -0.31217 0
M  V30 4133 C 376.853 -1.45442 -0.657185 0
M  V30 4134 C 377.053 -0.63653 -1.91182 0
M  V30 4135 O 376.109 -0.139815 -2.52113 0
M  V30 4136 C 377.422 -2.89287 -0.82058 0
M  V30 4137 C 378.97 -2.9926 -0.917188 0
M  V30 4138 C 379.445 -4.44279 -1.11267 0
M  V30 4139 N 380.936 -4.4794 -1.17914 0
M  V30 4140 C 381.671 -5.57318 -1.34848 0
M  V30 4141 N 381.167 -6.76642 -1.48752 0
M  V30 4142 N 382.96 -5.44986 -1.37647 0
M  V30 4143 H 375.111 -2.06129 0.512313 0
M  V30 4144 H 377.374 -0.933088 0.167485 0
M  V30 4145 H 377.08 -3.51687 0.0302604 0
M  V30 4146 H 376.954 -3.36061 -1.71298 0
M  V30 4147 H 379.341 -2.36981 -1.75852 0
M  V30 4148 H 379.422 -2.558 -0.00101257 0
M  V30 4149 H 379.066 -5.07149 -0.27614 0
M  V30 4150 H 378.996 -4.85359 -2.04289 0
M  V30 4151 H 381.487 -3.61969 -1.08567 0
M  V30 4152 H 381.8 -7.55758 -1.61397 0
M  V30 4153 H 380.145 -6.79529 -1.45828 0
M  V30 4154 H 383.336 -4.50715 -1.26388 0
M  V30 4155 H 383.509 -6.3028 -1.50501 0
M  V30 4156 N 376.915 0.57481 -1.46744 0
M  V30 4157 C 377.845 1.69337 -1.60771 0
M  V30 4158 C 378.826 1.63825 -0.457736 0
M  V30 4159 O 380.011 1.8172 -0.684947 0
M  V30 4160 C 377.141 3.0798 -1.60517 0
M  V30 4161 C 376.095 3.28327 -2.74564 0
M  V30 4162 C 375.421 4.67578 -2.59373 0
M  V30 4163 C 376.721 3.15398 -4.16319 0
M  V30 4164 H 378.415 1.57853 -2.54407 0
M  V30 4165 H 375.961 0.75799 -1.22436 0
M  V30 4166 H 377.914 3.86061 -1.68923 0
M  V30 4167 H 376.638 3.20381 -0.634305 0
M  V30 4168 H 375.297 2.52649 -2.65639 0
M  V30 4169 H 374.945 4.76755 -1.60353 0
M  V30 4170 H 374.645 4.82144 -3.35873 0
M  V30 4171 H 376.169 5.47817 -2.69682 0
M  V30 4172 H 377.583 3.83315 -4.26313 0
M  V30 4173 H 375.98 3.41482 -4.93468 0
M  V30 4174 H 377.05 2.12372 -4.3592 0
M  V30 4175 N 378.394 1.34581 0.820102 0
M  V30 4176 C 379.341 1.2639 1.93117 0
M  V30 4177 C 380.311 0.138554 1.65521 0
M  V30 4178 O 381.496 0.320004 1.88097 0
M  V30 4179 C 378.636 1.02812 3.29429 0
M  V30 4180 C 377.749 2.24146 3.693 0
M  V30 4181 C 376.884 1.93829 4.94574 0
M  V30 4182 C 375.923 3.1129 5.27034 0
M  V30 4183 N 375.06 2.80838 6.43486 0
M  V30 4184 H 379.9 2.21408 1.99455 0
M  V30 4185 H 377.437 1.10077 0.975784 0
M  V30 4186 H 379.395 0.871788 4.0799 0
M  V30 4187 H 378.025 0.114612 3.22596 0
M  V30 4188 H 377.077 2.50691 2.86109 0
M  V30 4189 H 378.389 3.11899 3.89257 0
M  V30 4190 H 377.543 1.74948 5.80929 0
M  V30 4191 H 376.282 1.03341 4.76626 0
M  V30 4192 H 375.287 3.30764 4.39175 0
M  V30 4193 H 376.512 4.02561 5.4692 0
M  V30 4194 H 374.458 1.92929 6.26988 0
M  V30 4195 H 374.375 3.62123 6.63629 0
M  V30 4196 H 375.643 2.65467 7.32903 0
M  V30 4197 N 379.872 -1.04064 1.18357 0
M  V30 4198 C 380.804 -2.12114 0.868358 0
M  V30 4199 C 381.817 -1.62247 -0.134045 0
M  V30 4200 O 383.006 -1.78253 0.0937933 0
M  V30 4201 C 380.106 -3.37773 0.276132 0
M  V30 4202 C 379.279 -4.16874 1.3242 0
M  V30 4203 C 378.338 -5.20861 0.747662 0
M  V30 4204 O 377.364 -5.51141 1.42239 0
M  V30 4205 N 378.566 -5.78715 -0.454823 0
M  V30 4206 H 381.331 -2.39748 1.79836 0
M  V30 4207 H 378.892 -1.20258 1.08396 0
M  V30 4208 H 380.884 -4.04513 -0.123133 0
M  V30 4209 H 379.454 -3.07581 -0.557895 0
M  V30 4210 H 378.674 -3.45456 1.89878 0
M  V30 4211 H 379.962 -4.66516 2.03078 0
M  V30 4212 H 379.36 -5.56415 -1.02073 0
M  V30 4213 H 377.917 -6.46921 -0.79601 0
M  V30 4214 N 381.35 -0.985608 -1.22978 0
M  V30 4215 C 382.297 -0.529825 -2.24636 0
M  V30 4216 C 383.267 0.434028 -1.60329 0
M  V30 4217 O 384.452 0.340414 -1.87739 0
M  V30 4218 C 381.592 0.156533 -3.44745 0
M  V30 4219 C 380.705 -0.848197 -4.23591 0
M  V30 4220 C 379.84 -0.136109 -5.31026 0
M  V30 4221 C 378.879 -1.1297 -6.01585 0
M  V30 4222 N 378.016 -0.446415 -7.00679 0
M  V30 4223 H 382.856 -1.40148 -2.62988 0
M  V30 4224 H 380.393 -0.702168 -1.29259 0
M  V30 4225 H 382.351 0.571324 -4.1327 0
M  V30 4226 H 380.981 0.992025 -3.07179 0
M  V30 4227 H 380.033 -1.38135 -3.54433 0
M  V30 4228 H 381.345 -1.60512 -4.72268 0
M  V30 4229 H 380.499 0.335784 -6.0577 0
M  V30 4230 H 379.238 0.653373 -4.83304 0
M  V30 4231 H 378.243 -1.6123 -5.25628 0
M  V30 4232 H 379.468 -1.91993 -6.51395 0
M  V30 4233 H 377.414 0.323763 -6.55201 0
M  V30 4234 H 377.331 -1.1419 -7.47326 0
M  V30 4235 H 378.599 0.00291697 -7.795 0
M  V30 4236 N 382.828 1.3818 -0.7579 0
M  V30 4237 C 384.074 2.00316 -0.316453 0
M  V30 4238 C 384.407 1.60026 1.10025 0
M  V30 4239 O 383.682 0.839835 1.75434 0
M  V30 4240 C 383.965 3.57349 -0.444245 0
M  V30 4241 C 383.818 4.07591 -1.90236 0
M  V30 4242 C 385.137 4.3981 0.1598 0
M  V30 4243 H 382.256 0.727741 -0.116459 0
M  V30 4244 H 384.898 1.6406 -0.958352 0
M  V30 4245 H 383.048 3.88365 0.102233 0
M  V30 4246 H 384.72 3.87199 -2.50748 0
M  V30 4247 H 382.963 3.60297 -2.41595 0
M  V30 4248 H 383.634 5.16677 -1.94291 0
M  V30 4249 H 386.11 4.14971 -0.306314 0
M  V30 4250 H 384.986 5.48885 0.0401675 0
M  V30 4251 H 385.247 4.24102 1.24859 0
M  V30 4252 N 384.306 0.507319 1.49211 0
M  V30 4253 C 385.269 -0.256763 2.27757 0
M  V30 4254 C 386.269 -0.888287 1.34038 0
M  V30 4255 O 387.459 -0.751841 1.5714 0
M  V30 4256 C 384.591 -1.36905 3.12202 0
M  V30 4257 H 385.784 0.432557 2.96764 0
M  V30 4258 H 383.337 0.262488 1.5408 0
M  V30 4259 H 384.072 -2.09233 2.47775 0
M  V30 4260 H 383.857 -0.921599 3.81115 0
M  V30 4261 H 385.347 -1.9071 3.7151 0
M  V30 4262 N 385.784 -1.5574 0.241426 0
M  V30 4263 C 386.694 -2.2479 -0.671305 0
M  V30 4264 C 387.71 -1.26217 -1.19772 0
M  V30 4265 O 388.886 -1.59079 -1.23514 0
M  V30 4266 C 385.951 -2.92966 -1.85396 0
M  V30 4267 C 385.012 -4.06935 -1.36756 0
M  V30 4268 C 384.245 -4.71851 -2.49384 0
M  V30 4269 O 384.468 -4.35823 -3.67987 0
M  V30 4270 O 383.402 -5.60467 -2.19454 0
M  V30 4271 H 387.228 -3.0349 -0.112966 0
M  V30 4272 H 384.813 -1.49397 0.0101513 0
M  V30 4273 H 386.695 -3.35927 -2.54423 0
M  V30 4274 H 385.37 -2.17211 -2.40002 0
M  V30 4275 H 384.277 -3.68503 -0.644726 0
M  V30 4276 H 385.61 -4.84492 -0.867647 0
M  V30 4277 N 387.262 0.0317525 -1.57568 0
M  V30 4278 C 388.678 0.38735 -1.54828 0
M  V30 4279 C 388.878 1.7677 -0.967187 0
M  V30 4280 O 387.934 2.45581 -0.587063 0
M  V30 4281 C 389.247 0.291667 -2.99282 0
M  V30 4282 C 390.795 0.368946 -3.10818 0
M  V30 4283 C 391.27 0.302741 -4.56998 0
M  V30 4284 N 392.761 0.361617 -4.61786 0
M  V30 4285 C 393.496 0.333238 -5.72431 0
M  V30 4286 N 392.992 0.257308 -6.92322 0
M  V30 4287 N 394.785 0.382769 -5.60795 0
M  V30 4288 H 386.936 -0.871609 -1.93692 0
M  V30 4289 H 389.199 -0.331161 -0.888277 0
M  V30 4290 H 388.905 -0.656794 -3.45513 0
M  V30 4291 H 388.779 1.08638 -3.61217 0
M  V30 4292 H 391.166 1.30784 -2.64536 0
M  V30 4293 H 391.247 -0.455066 -2.5172 0
M  V30 4294 H 390.891 -0.632473 -5.03947 0
M  V30 4295 H 390.821 1.14482 -5.14005 0
M  V30 4296 H 393.312 0.422923 -3.75526 0
M  V30 4297 H 393.625 0.24068 -7.72425 0
M  V30 4298 H 391.97 0.223396 -6.94641 0
M  V30 4299 H 395.161 0.44006 -4.66027 0
M  V30 4300 H 395.334 0.357184 -6.47015 0
M  V30 4301 N 388.74 1.54641 0.303973 0
M  V30 4302 C 390.156 1.45788 0.649463 0
M  V30 4303 C 390.356 0.64666 1.90842 0
M  V30 4304 O 389.412 0.153183 2.52035 0
M  V30 4305 C 390.725 2.89718 0.805227 0
M  V30 4306 C 392.273 2.99742 0.901305 0
M  V30 4307 C 392.748 4.44863 1.08909 0
M  V30 4308 N 394.239 4.48559 1.15536 0
M  V30 4309 C 394.974 5.58026 1.3189 0
M  V30 4310 N 394.47 6.77422 1.45161 0
M  V30 4311 N 396.263 5.45708 1.34755 0
M  V30 4312 H 388.414 2.05854 -0.523237 0
M  V30 4313 H 390.677 0.932186 -0.172431 0
M  V30 4314 H 390.383 3.51666 -0.0489108 0
M  V30 4315 H 390.257 3.36964 1.69513 0
M  V30 4316 H 392.644 2.3791 1.74593 0
M  V30 4317 H 392.725 2.55797 -0.0125531 0
M  V30 4318 H 392.369 5.07288 0.249241 0
M  V30 4319 H 392.299 4.86436 2.01713 0
M  V30 4320 H 394.79 3.6254 1.06646 0
M  V30 4321 H 395.103 7.56604 1.57387 0
M  V30 4322 H 393.448 6.80292 1.42223 0
M  V30 4323 H 396.639 4.51378 1.23996 0
M  V30 4324 H 396.812 6.3107 1.47157 0
M  V30 4325 N 390.218 -0.567019 1.47046 0
M  V30 4326 C 391.443 -1.3551 1.57009 0
M  V30 4327 C 391.868 -1.86841 0.217259 0
M  V30 4328 O 391.226 -1.62435 -0.805268 0
M  V30 4329 C 391.274 -2.50777 2.5912 0
M  V30 4330 O 390.378 -3.52706 2.13711 0
M  V30 4331 H 389.719 -0.402919 0.52778 0
M  V30 4332 H 392.249 -0.686241 1.92748 0
M  V30 4333 H 392.259 -2.97481 2.79229 0
M  V30 4334 H 390.934 -2.12771 3.57353 0
M  V30 4335 H 389.511 -3.12374 2.03659 0
M  V30 4336 N 391.696 -1.35014 -0.812953 0
M  V30 4337 C 392.921 -1.31187 -1.60639 0
M  V30 4338 C 393.346 0.109382 -1.87782 0
M  V30 4339 O 392.704 1.07424 -1.46047 0
M  V30 4340 C 392.752 -2.11809 -2.91838 0
M  V30 4341 O 391.856 -1.49444 -3.8437 0
M  V30 4342 H 391.197 -0.450084 -0.488181 0
M  V30 4343 H 393.727 -1.77963 -1.00947 0
M  V30 4344 H 393.737 -2.23531 -3.41318 0
M  V30 4345 H 392.412 -3.15137 -2.71407 0
M  V30 4346 H 390.989 -1.46524 -3.42907 0
M  V30 4347 N 393.175 1.03435 -1.18907 0
M  V30 4348 C 394.586 1.58195 -0.991523 0
M  V30 4349 C 394.937 1.90801 0.457081 0
M  V30 4350 O 394.062 1.70272 1.33553 0
M  V30 4351 C 394.657 2.87432 -1.79355 0
M  V30 4352 C 393.216 3.38785 -1.64017 0
M  V30 4353 C 392.363 2.12292 -1.78402 0
M  V30 4354 H 395.314 0.860299 -1.33359 0
M  V30 4355 H 395.335 3.58096 -1.28638 0
M  V30 4356 H 394.847 2.63669 -2.84781 0
M  V30 4357 H 392.948 3.67547 -0.611536 0
M  V30 4358 H 393.061 4.12186 -2.44212 0
M  V30 4359 H 391.425 2.23901 -1.2141 0
M  V30 4360 H 392.208 1.90977 -2.85277 0
M  V30 4361 N 394.653 0.992116 1.22453 0
M  V30 4362 C 395.583 0.561677 2.26644 0
M  V30 4363 C 396.564 -0.411055 1.65059 0
M  V30 4364 O 397.749 -0.301861 1.9184 0
M  V30 4365 C 394.879 -0.125247 3.47074 0
M  V30 4366 C 393.833 0.765948 4.21091 0
M  V30 4367 C 393.159 -0.0538484 5.34673 0
M  V30 4368 C 394.459 2.06242 4.79856 0
M  V30 4369 H 396.153 1.43259 2.62902 0
M  V30 4370 H 393.699 0.690283 1.26377 0
M  V30 4371 H 395.652 -0.437764 4.1912 0
M  V30 4372 H 394.376 -1.03069 3.0991 0
M  V30 4373 H 393.035 1.0621 3.50878 0
M  V30 4374 H 392.683 -0.960188 4.9375 0
M  V30 4375 H 392.383 0.539415 5.85119 0
M  V30 4376 H 393.907 -0.360477 6.09535 0
M  V30 4377 H 395.321 1.8139 5.43848 0
M  V30 4378 H 393.718 2.60444 5.40638 0
M  V30 4379 H 394.788 2.74167 3.99951 0
M  V30 4380 N 396.131 -1.37776 0.765217 0
M  V30 4381 C 397.061 -2.32945 0.160953 0
M  V30 4382 C 398.042 -1.55454 -0.690516 0
M  V30 4383 O 399.227 -1.83721 -0.629318 0
M  V30 4384 C 396.357 -3.39669 -0.724031 0
M  V30 4385 C 395.311 -4.27992 0.0256173 0
M  V30 4386 C 394.637 -5.25673 -0.978383 0
M  V30 4387 C 395.937 -5.08309 1.20082 0
M  V30 4388 H 397.631 -2.83728 0.955969 0
M  V30 4389 H 395.177 -1.36416 0.461149 0
M  V30 4390 H 397.13 -4.05219 -1.15652 0
M  V30 4391 H 395.854 -2.87396 -1.5515 0
M  V30 4392 H 394.513 -3.63964 0.438812 0
M  V30 4393 H 394.161 -4.69682 -1.80022 0
M  V30 4394 H 393.861 -5.85625 -0.481378 0
M  V30 4395 H 395.385 -5.94098 -1.40995 0
M  V30 4396 H 396.799 -5.67034 0.845307 0
M  V30 4397 H 395.196 -5.77554 1.62947 0
M  V30 4398 H 396.266 -4.41365 2.00811 0
M  V30 4399 N 397.609 -0.515225 -1.4894 0
M  V30 4400 C 399.025 -0.172099 -1.58669 0
M  V30 4401 C 399.225 1.32405 -1.51892 0
M  V30 4402 O 398.281 2.10116 -1.40027 0
M  V30 4403 C 399.594 -0.761533 -2.90897 0
M  V30 4404 C 401.142 -0.728926 -3.04394 0
M  V30 4405 C 401.617 -1.29667 -4.39261 0
M  V30 4406 N 403.108 -1.25799 -4.4579 0
M  V30 4407 C 403.843 -1.66733 -5.48623 0
M  V30 4408 N 403.339 -2.15327 -6.58488 0
M  V30 4409 N 405.132 -1.58061 -5.39419 0
M  V30 4410 H 397.283 -1.48778 -1.51588 0
M  V30 4411 H 399.546 -0.617968 -0.718901 0
M  V30 4412 H 399.252 -1.81136 -3.01468 0
M  V30 4413 H 399.126 -0.230106 -3.76497 0
M  V30 4414 H 401.513 0.312098 -2.93445 0
M  V30 4415 H 401.594 -1.29766 -2.20442 0
M  V30 4416 H 401.238 -2.33655 -4.50963 0
M  V30 4417 H 401.168 -0.703752 -5.21876 0
M  V30 4418 H 403.659 -0.902102 -3.66975 0
M  V30 4419 H 403.972 -2.44594 -7.33071 0
M  V30 4420 H 402.317 -2.19311 -6.59491 0
M  V30 4421 H 405.508 -1.19906 -4.52482 0
M  V30 4422 H 405.681 -1.90284 -6.19432 0
M  V30 4423 N 399.087 1.5561 -0.249682 0
M  V30 4424 C 400.503 1.59254 0.105103 0
M  V30 4425 C 400.703 1.26685 1.56694 0
M  V30 4426 O 399.759 1.0155 2.31179 0
M  V30 4427 C 401.072 2.99687 -0.246592 0
M  V30 4428 C 402.62 3.12416 -0.191118 0
M  V30 4429 C 403.095 4.55074 -0.516885 0
M  V30 4430 N 404.586 4.60835 -0.467489 0
M  V30 4431 C 405.321 5.69201 -0.69268 0
M  V30 4432 N 404.817 6.85817 -0.981146 0
M  V30 4433 N 406.61 5.58635 -0.623198 0
M  V30 4434 H 398.761 1.75049 -1.20298 0
M  V30 4435 H 401.024 0.815003 -0.484225 0
M  V30 4436 H 400.73 3.28267 -1.26228 0
M  V30 4437 H 400.604 3.74798 0.424962 0
M  V30 4438 H 402.991 2.83615 0.815247 0
M  V30 4439 H 403.072 2.39573 -0.896563 0
M  V30 4440 H 402.716 4.84596 -1.52082 0
M  V30 4441 H 402.646 5.26181 0.210068 0
M  V30 4442 H 405.137 3.7705 -0.253373 0
M  V30 4443 H 405.45 7.64341 -1.14032 0
M  V30 4444 H 403.795 6.87494 -1.01865 0
M  V30 4445 H 406.986 4.66406 -0.397863 0
M  V30 4446 H 407.159 6.43017 -0.802093 0
M  V30 4447 N 400.565 -0.0233959 1.57583 0
M  V30 4448 C 401.512 -1.02224 2.06927 0
M  V30 4449 C 402.482 -1.35575 0.959617 0
M  V30 4450 O 403.667 -1.45815 1.23055 0
M  V30 4451 C 400.807 -2.31636 2.5581 0
M  V30 4452 C 399.92 -2.04394 3.80588 0
M  V30 4453 C 399.055 -3.27717 4.18061 0
M  V30 4454 C 398.094 -2.96056 5.3574 0
M  V30 4455 N 397.231 -4.11847 5.68618 0
M  V30 4456 H 402.071 -0.594504 2.9201 0
M  V30 4457 H 399.608 -0.281921 1.44373 0
M  V30 4458 H 401.566 -3.07258 2.82221 0
M  V30 4459 H 400.196 -2.72122 1.73636 0
M  V30 4460 H 399.248 -1.19244 3.61227 0
M  V30 4461 H 400.56 -1.77042 4.66323 0
M  V30 4462 H 399.714 -4.11702 4.4563 0
M  V30 4463 H 398.453 -3.58188 3.30988 0
M  V30 4464 H 397.458 -2.10474 5.07918 0
M  V30 4465 H 398.683 -2.66857 6.24471 0
M  V30 4466 H 396.629 -4.42258 4.84504 0
M  V30 4467 H 396.546 -3.87938 6.48876 0
M  V30 4468 H 397.814 -4.96689 6.00766 0
M  V30 4469 N 402.043 -1.548 -0.295768 0
M  V30 4470 C 403.32 -1.65014 -1.05023 0
M  V30 4471 C 403.7 -0.501805 -2.05049 0
M  V30 4472 O 403.048 0.500869 -2.22943 0
M  V30 4473 C 403.258 -3.03252 -1.72741 0
M  V30 4474 C 404.606 -3.60242 -2.24746 0
M  V30 4475 O 405.63 -3.05737 -1.82765 0
M  V30 4476 O 404.489 -4.55687 -3.01681 0
M  V30 4477 H 401.583 -0.669314 -0.485744 0
M  V30 4478 H 404.129 -1.67144 -0.293438 0
M  V30 4479 H 402.901 -3.7827 -1.00138 0
M  V30 4480 H 402.524 -3.04922 -2.55163 0
M  V30 4481 N 403.521 0.559213 -1.47345 0
M  V30 4482 C 404.769 1.31388 -1.53563 0
M  V30 4483 C 405.09 1.93985 -0.198678 0
M  V30 4484 O 404.36 1.79825 0.777167 0
M  V30 4485 H 402.94 0.487901 -0.565652 0
M  V30 4486 H 405.602 0.65315 -1.8363 0
M  V30 4487 H 404.698 2.10844 -2.30111 0
M  V30 4488 N 404.999 1.35443 0.805782 0
M  V30 4489 C 406.41 1.25768 1.37983 0
M  V30 4490 C 406.761 -0.10958 1.95894 0
M  V30 4491 O 405.886 -1.01056 1.91355 0
M  V30 4492 C 406.481 2.27727 2.5085 0
M  V30 4493 C 405.04 2.2179 3.04115 0
M  V30 4494 C 404.187 2.13393 1.77084 0
M  V30 4495 H 407.138 1.4656 0.608752 0
M  V30 4496 H 407.159 1.90422 3.29424 0
M  V30 4497 H 406.671 3.27227 2.08671 0
M  V30 4498 H 404.772 1.25703 3.50756 0
M  V30 4499 H 404.885 3.13788 3.62042 0
M  V30 4500 H 403.249 1.59384 1.98668 0
M  V30 4501 H 404.032 3.14755 1.37056 0
M  V30 4502 N 406.477 -1.02803 1.19454 0
M  V30 4503 C 407.723 -1.76478 0.999171 0
M  V30 4504 C 408.056 -1.88456 -0.468828 0
M  V30 4505 O 407.331 -1.40198 -1.34814 0
M  V30 4506 C 407.614 -3.19044 1.66981 0
M  V30 4507 C 407.467 -3.14932 3.21151 0
M  V30 4508 C 408.786 -4.17456 1.39349 0
M  V30 4509 H 405.905 -0.640614 0.364393 0
M  V30 4510 H 408.547 -1.20005 1.47305 0
M  V30 4511 H 406.697 -3.67263 1.2669 0
M  V30 4512 H 408.369 -2.74605 3.70661 0
M  V30 4513 H 406.612 -2.52625 3.52652 0
M  V30 4514 H 407.283 -4.1566 3.63223 0
M  V30 4515 H 409.759 -3.77842 1.74283 0
M  V30 4516 H 408.635 -5.154 1.88823 0
M  V30 4517 H 408.896 -4.40949 0.318813 0
M  V30 4518 N 407.956 -0.998596 -1.21925 0
M  V30 4519 C 409.202 -0.678667 -1.91107 0
M  V30 4520 C 409.535 0.78791 -1.77498 0
M  V30 4521 O 408.81 1.57043 -1.1475 0
M  V30 4522 C 409.093 -1.09245 -3.43129 0
M  V30 4523 C 408.946 -2.61801 -3.6576 0
M  V30 4524 C 410.265 -0.649984 -4.35274 0
M  V30 4525 H 407.384 -0.248025 -0.694012 0
M  V30 4526 H 410.026 -1.24314 -1.43688 0
M  V30 4527 H 408.176 -0.612171 -3.83647 0
M  V30 4528 H 409.848 -3.17543 -3.34611 0
M  V30 4529 H 408.091 -3.03609 -3.09845 0
M  V30 4530 H 408.762 -2.85804 -4.7225 0
M  V30 4531 H 411.238 -1.0626 -4.02303 0
M  V30 4532 H 410.114 -0.967743 -5.40302 0
M  V30 4533 H 410.375 0.449139 -4.39813 0
M  V30 4534 N 409.434 1.37368 -0.772513 0
M  V30 4535 C 410.662 2.03942 -0.348588 0
M  V30 4536 C 411.077 1.58264 1.02947 0
M  V30 4537 O 410.434 0.764246 1.65727 0
M  V30 4538 C 410.485 3.5946 -0.38351 0
M  V30 4539 O 410.206 4.03468 -1.70721 0
M  V30 4540 C 411.707 4.4327 0.0519152 0
M  V30 4541 H 408.927 0.654931 -0.145966 0
M  V30 4542 H 411.471 1.75686 -1.04665 0
M  V30 4543 H 409.626 3.86486 0.265978 0
M  V30 4544 H 410.04 4.97991 -1.64636 0
M  V30 4545 H 411.514 5.51995 -0.0236733 0
M  V30 4546 H 411.991 4.2514 1.10238 0
M  V30 4547 H 412.597 4.21471 -0.569415 0
M  V30 4548 N 410.912 0.523116 1.48665 0
M  V30 4549 C 411.875 -0.232592 2.28017 0
M  V30 4550 C 412.875 -0.874021 1.34972 0
M  V30 4551 O 414.065 -0.735132 1.57929 0
M  V30 4552 C 411.197 -1.33586 3.13636 0
M  V30 4553 H 412.39 0.464008 2.96289 0
M  V30 4554 H 409.943 0.278816 1.53793 0
M  V30 4555 H 410.678 -2.06593 2.4998 0
M  V30 4556 H 410.463 -0.881125 3.82071 0
M  V30 4557 H 411.953 -1.86759 3.73511 0
M  V30 4558 N 412.39 -1.55475 0.257931 0
M  V30 4559 C 413.32 -2.24815 -0.630912 0
M  V30 4560 C 414.301 -1.23224 -1.17259 0
M  V30 4561 O 415.486 -1.51904 -1.20991 0
M  V30 4562 C 412.616 -2.95609 -1.82298 0
M  V30 4563 C 411.57 -4.03982 -1.41359 0
M  V30 4564 C 410.896 -4.6226 -2.68738 0
M  V30 4565 C 412.196 -5.19109 -0.57648 0
M  V30 4566 H 413.89 -2.99354 -0.0526878 0
M  V30 4567 H 411.436 -1.4398 -0.023901 0
M  V30 4568 H 413.389 -3.42822 -2.45054 0
M  V30 4569 H 412.113 -2.18577 -2.42676 0
M  V30 4570 H 410.772 -3.57555 -0.809324 0
M  V30 4571 H 410.42 -3.81915 -3.27338 0
M  V30 4572 H 410.12 -5.35424 -2.42065 0
M  V30 4573 H 411.644 -5.12212 -3.32372 0
M  V30 4574 H 413.058 -5.62479 -1.10861 0
M  V30 4575 H 411.455 -5.98729 -0.405351 0
M  V30 4576 H 412.525 -4.83174 0.408776 0
M  V30 4577 N 413.868 0.0150385 -1.57593 0
M  V30 4578 C 414.815 1.01126 -2.07466 0
M  V30 4579 C 415.785 1.35064 -0.966794 0
M  V30 4580 O 416.97 1.4516 -1.23827 0
M  V30 4581 C 414.11 2.30276 -2.57035 0
M  V30 4582 C 413.223 2.02373 -3.81666 0
M  V30 4583 C 412.358 3.25496 -4.19793 0
M  V30 4584 C 411.397 2.93211 -5.37303 0
M  V30 4585 N 410.534 4.08826 -5.70794 0
M  V30 4586 H 415.374 0.57901 -2.92321 0
M  V30 4587 H 412.911 0.27426 -1.44521 0
M  V30 4588 H 414.869 3.05757 -2.83846 0
M  V30 4589 H 413.499 2.71197 -1.75077 0
M  V30 4590 H 412.551 1.17327 -3.61854 0
M  V30 4591 H 413.863 1.74567 -4.67256 0
M  V30 4592 H 413.017 4.09333 -4.47807 0
M  V30 4593 H 411.756 3.56428 -3.32882 0
M  V30 4594 H 410.761 2.07777 -5.09027 0
M  V30 4595 H 411.986 2.63542 -6.25877 0
M  V30 4596 H 409.932 4.39682 -4.86842 0
M  V30 4597 H 409.849 3.84491 -6.50924 0
M  V30 4598 H 411.117 4.93496 -6.03392 0
M  V30 4599 N 415.346 1.54954 0.287554 0
M  V30 4600 C 416.293 1.86834 1.35505 0
M  V30 4601 C 417.263 0.718452 1.49758 0
M  V30 4602 O 418.448 0.968358 1.644 0
M  V30 4603 C 415.588 2.13303 2.71286 0
M  V30 4604 C 414.701 3.40883 2.65373 0
M  V30 4605 C 413.836 3.57125 3.93236 0
M  V30 4606 C 412.875 4.78449 3.81776 0
M  V30 4607 N 412.012 4.91426 5.01443 0
M  V30 4608 H 416.852 2.77889 1.07619 0
M  V30 4609 H 414.389 1.37593 0.520241 0
M  V30 4610 H 416.347 2.26646 3.50267 0
M  V30 4611 H 414.977 1.25499 2.97405 0
M  V30 4612 H 414.029 3.36088 1.78182 0
M  V30 4613 H 415.341 4.29993 2.52799 0
M  V30 4614 H 414.495 3.70207 4.80658 0
M  V30 4615 H 413.234 2.66173 4.0866 0
M  V30 4616 H 412.239 4.65386 2.92738 0
M  V30 4617 H 413.464 5.70822 3.67884 0
M  V30 4618 H 411.41 4.03401 5.17304 0
M  V30 4619 H 411.327 5.74559 4.91343 0
M  V30 4620 H 412.595 5.08879 5.90477 0
M  V30 4621 N 416.824 -0.551391 1.4764 0
M  V30 4622 C 418.24 -0.877887 1.33287 0
M  V30 4623 C 418.44 -1.98817 0.327721 0
M  V30 4624 O 417.496 -2.51171 -0.258695 0
M  V30 4625 C 418.809 -1.26563 2.72768 0
M  V30 4626 C 420.357 -1.37673 2.81097 0
M  V30 4627 C 420.832 -1.79799 4.21232 0
M  V30 4628 N 422.323 -1.8694 4.23802 0
M  V30 4629 C 423.058 -2.20876 5.29151 0
M  V30 4630 N 422.554 -2.53386 6.448 0
M  V30 4631 N 424.347 -2.217 5.16532 0
M  V30 4632 H 416.498 0.18153 2.11623 0
M  V30 4633 H 418.761 0.0185514 0.947818 0
M  V30 4634 H 418.467 -0.523591 3.47781 0
M  V30 4635 H 418.341 -2.22052 3.04915 0
M  V30 4636 H 420.728 -2.10956 2.06353 0
M  V30 4637 H 420.809 -0.40357 2.52596 0
M  V30 4638 H 420.453 -1.07083 4.96483 0
M  V30 4639 H 420.383 -2.78128 4.4716 0
M  V30 4640 H 422.874 -1.64179 3.40373 0
M  V30 4641 H 423.187 -2.78325 7.20941 0
M  V30 4642 H 421.532 -2.50953 6.48111 0
M  V30 4643 H 424.723 -1.95745 4.25207 0
M  V30 4644 H 424.896 -2.47818 5.98741 0
M  V30 4645 N 418.302 -1.35869 -0.798587 0
M  V30 4646 C 419.713 -1.26498 -1.37314 0
M  V30 4647 C 420.064 0.0991899 -1.95949 0
M  V30 4648 O 419.189 1.0004 -1.91888 0
M  V30 4649 C 419.784 -2.29054 -2.49639 0
M  V30 4650 C 418.343 -2.234 -3.02935 0
M  V30 4651 C 417.49 -2.14329 -1.75949 0
M  V30 4652 H 420.441 -1.46881 -0.600971 0
M  V30 4653 H 420.462 -1.92166 -3.28409 0
M  V30 4654 H 419.974 -3.2833 -2.06933 0
M  V30 4655 H 418.075 -1.27562 -3.50084 0
M  V30 4656 H 418.188 -3.15703 -3.60372 0
M  V30 4657 H 416.552 -1.60435 -1.9782 0
M  V30 4658 H 417.335 -3.15477 -1.35384 0
M  V30 4659 N 419.78 1.02168 -1.19998 0
M  V30 4660 C 420.71 2.12488 -0.96804 0
M  V30 4661 C 421.691 1.69799 0.101185 0
M  V30 4662 O 422.876 1.94121 -0.0552993 0
M  V30 4663 C 420.006 3.43479 -0.513776 0
M  V30 4664 C 418.96 3.99884 -1.52566 0
M  V30 4665 C 418.286 5.26582 -0.928214 0
M  V30 4666 C 419.586 4.33861 -2.90795 0
M  V30 4667 H 421.28 2.32149 -1.89069 0
M  V30 4668 H 418.826 1.11564 -0.910468 0
M  V30 4669 H 420.779 4.20036 -0.338774 0
M  V30 4670 H 419.503 3.23561 0.444493 0
M  V30 4671 H 418.162 3.25429 -1.68794 0
M  V30 4672 H 417.81 5.02986 0.0378289 0
M  V30 4673 H 417.51 5.65284 -1.60397 0
M  V30 4674 H 419.034 6.05799 -0.764167 0
M  V30 4675 H 420.448 5.01327 -2.78109 0
M  V30 4676 H 418.845 4.83664 -3.55231 0
M  V30 4677 H 419.915 3.42848 -3.42904 0
M  V30 4678 N 421.258 1.00505 1.21394 0
M  V30 4679 C 422.535 0.603277 1.86064 0
M  V30 4680 C 422.915 -0.919095 1.90042 0
M  V30 4681 O 422.263 -1.80607 1.39977 0
M  V30 4682 C 422.473 1.23772 3.26315 0
M  V30 4683 C 423.821 1.34586 4.02705 0
M  V30 4684 O 424.845 1.19304 3.35626 0
M  V30 4685 O 423.704 1.59169 5.22807 0
M  V30 4686 H 420.798 0.206634 0.800769 0
M  V30 4687 H 423.344 1.1017 1.29076 0
M  V30 4688 H 422.116 2.27848 3.18121 0
M  V30 4689 H 421.739 0.725648 3.90922 0
M  V30 4690 N 422.737 -1.36956 0.779787 0
M  V30 4691 C 423.983 -1.99787 0.348281 0
M  V30 4692 C 424.316 -1.61756 -1.07465 0
M  V30 4693 O 423.591 -0.867639 -1.74075 0
M  V30 4694 C 423.874 -3.56597 0.50104 0
M  V30 4695 C 423.727 -4.04513 1.96697 0
M  V30 4696 C 425.046 -4.40008 -0.0898097 0
M  V30 4697 H 422.165 -0.725796 0.128022 0
M  V30 4698 H 424.807 -1.62514 0.984331 0
M  V30 4699 H 422.957 -3.88479 -0.0404347 0
M  V30 4700 H 424.629 -3.83161 2.56876 0
M  V30 4701 H 422.872 -3.56408 2.47297 0
M  V30 4702 H 423.543 -5.1352 2.02486 0
M  V30 4703 H 426.019 -4.14431 0.372293 0
M  V30 4704 H 424.895 -5.4888 0.0471605 0
M  V30 4705 H 425.156 -4.26035 -1.18096 0
M  V30 4706 N 424.215 -0.530993 -1.48385 0
M  V30 4707 C 425.443 -0.00134122 -2.069 0
M  V30 4708 C 425.858 1.2805 -1.3874 0
M  V30 4709 O 425.215 1.76204 -0.475244 0
M  V30 4710 C 425.266 0.225256 -3.60798 0
M  V30 4711 O 424.987 -1.0058 -4.26398 0
M  V30 4712 C 426.488 0.795172 -4.3611 0
M  V30 4713 H 423.708 -0.0339704 -0.67014 0
M  V30 4714 H 426.252 -0.736926 -1.90761 0
M  V30 4715 H 424.407 0.910891 -3.76539 0
M  V30 4716 H 424.821 -0.787165 -5.1856 0
M  V30 4717 H 426.295 0.903143 -5.44562 0
M  V30 4718 H 426.772 1.80031 -4.00606 0
M  V30 4719 H 427.378 0.146069 -4.25049 0
M  V30 4720 N 425.693 1.55336 -0.266172 0
M  V30 4721 C 426.97 1.91372 0.404486 0
M  V30 4722 C 427.35 1.18935 1.74407 0
M  V30 4723 O 426.698 0.3132 2.26343 0
M  V30 4724 C 426.908 3.44581 0.553593 0
M  V30 4725 C 428.256 4.16196 0.840618 0
M  V30 4726 O 429.28 3.50426 0.638739 0
M  V30 4727 O 428.139 5.32567 1.22618 0
M  V30 4728 H 425.233 0.797194 0.220025 0
M  V30 4729 H 427.779 1.66813 -0.311664 0
M  V30 4730 H 426.551 3.89357 -0.389498 0
M  V30 4731 H 426.174 3.75065 1.31955 0
M  V30 4732 N 427.171 -0.0066808 1.57599 0
M  V30 4733 C 428.396 -0.707738 1.94951 0
M  V30 4734 C 428.821 -1.66882 0.867868 0
M  V30 4735 O 428.179 -1.80457 -0.17458 0
M  V30 4736 C 428.227 -1.42162 3.31394 0
M  V30 4737 O 427.331 -2.53578 3.25226 0
M  V30 4738 H 426.672 -0.188752 0.636607 0
M  V30 4739 H 429.202 0.0445193 2.04552 0
M  V30 4740 H 429.212 -1.78655 3.66806 0
M  V30 4741 H 427.887 -0.716903 4.09675 0
M  V30 4742 H 426.464 -2.19463 3.01481 0
M  V30 4743 N 428.649 -1.55105 -0.279332 0
M  V30 4744 C 429.612 -1.86783 -1.32834 0
M  V30 4745 C 430.612 -0.74199 -1.42657 0
M  V30 4746 O 431.802 -1.0102 -1.41918 0
M  V30 4747 C 428.934 -2.06746 -2.71052 0
M  V30 4748 H 430.127 -2.8055 -1.05979 0
M  V30 4749 H 427.68 -1.47499 -0.517087 0
M  V30 4750 H 428.415 -1.15339 -3.03097 0
M  V30 4751 H 428.2 -2.88711 -2.65309 0
M  V30 4752 H 429.69 -2.32549 -3.46858 0
M  V30 4753 N 430.127 0.543554 -1.4793 0
M  V30 4754 C 431.367 1.31072 -1.56843 0
M  V30 4755 C 431.731 1.90604 -0.231124 0
M  V30 4756 O 432.932 2.68091 -0.195165 0
M  V30 4757 C 431.203 2.38106 -2.66533 0
M  V30 4758 S 432.762 3.24729 -2.95122 0
M  V30 4759 H 429.58 0.446035 -0.553691 0
M  V30 4760 H 432.182 0.620777 -1.85382 0
M  V30 4761 H 430.886 1.92828 -3.62278 0
M  V30 4762 H 430.417 3.11824 -2.39852 0
M  V30 4763 H 432.432 4.37891 -2.3338 0
M  V30 4764 N 431.605 1.3629 0.791371 0
M  V30 4765 C 432.83 1.33726 1.58531 0
M  V30 4766 C 433.255 -0.0794933 1.87932 0
M  V30 4767 O 432.613 -1.05087 1.47738 0
M  V30 4768 C 432.661 2.16425 2.88431 0
M  V30 4769 O 431.765 1.5554 3.81944 0
M  V30 4770 H 431.106 0.457793 0.480959 0
M  V30 4771 H 433.636 1.79547 0.981031 0
M  V30 4772 H 433.646 2.28933 3.37718 0
M  V30 4773 H 432.321 3.19415 2.66359 0
M  V30 4774 H 430.898 1.51961 3.40532 0
M  V30 4775 N 433.083 -1.0153 1.20538 0
M  V30 4776 C 434.308 -1.79283 1.04271 0
M  V30 4777 C 434.733 -1.8372 -0.403544 0
M  V30 4778 O 434.091 -1.27321 -1.2907 0
M  V30 4779 C 434.139 -3.21535 1.63241 0
M  V30 4780 O 433.243 -4.03099 0.870908 0
M  V30 4781 H 432.584 -0.55293 0.367647 0
M  V30 4782 H 435.114 -1.27696 1.59859 0
M  V30 4783 H 435.124 -3.72243 1.6703 0
M  V30 4784 H 433.799 -3.1762 2.68497 0
M  V30 4785 H 432.376 -3.61693 0.907323 0
M  V30 4786 N 434.561 -1.01147 -1.20859 0
M  V30 4787 C 435.524 -0.582224 -2.21682 0
M  V30 4788 C 436.524 0.344887 -1.57058 0
M  V30 4789 O 437.714 0.134281 -1.73682 0
M  V30 4790 C 434.846 0.150496 -3.40568 0
M  V30 4791 H 436.039 -1.47408 -2.61172 0
M  V30 4792 H 433.592 -0.800695 -1.34233 0
M  V30 4793 H 434.327 1.0575 -3.06574 0
M  V30 4794 H 434.112 -0.515444 -3.88697 0
M  V30 4795 H 435.602 0.438344 -4.15293 0
M  V30 4796 N 436.039 1.36541 -0.78704 0
M  V30 4797 C 437.45 1.81873 -0.421807 0
M  V30 4798 C 437.801 1.65487 1.05397 0
M  V30 4799 O 436.926 1.17448 1.81755 0
M  V30 4800 C 437.521 3.30192 -0.758841 0
M  V30 4801 C 436.08 3.73743 -0.446468 0
M  V30 4802 C 435.227 2.58844 -0.994728 0
M  V30 4803 H 438.178 1.24796 -0.98039 0
M  V30 4804 H 438.199 3.80468 -0.0490648 0
M  V30 4805 H 437.711 3.42087 -1.83299 0
M  V30 4806 H 435.812 3.6741 0.619739 0
M  V30 4807 H 435.925 4.69272 -0.965415 0
M  V30 4808 H 434.289 2.51245 -0.418087 0
M  V30 4809 H 435.072 2.73525 -2.07458 0
M  V30 4810 N 437.518 0.538854 1.48102 0
M  V30 4811 C 438.766 0.00798599 2.02098 0
M  V30 4812 C 439.087 -1.33922 1.41739 0
M  V30 4813 O 438.357 -1.86932 0.585934 0
M  V30 4814 H 436.937 -3.62179e-05 0.747 0
M  V30 4815 H 439.599 0.7047 1.81714 0
M  V30 4816 H 438.695 -0.0937672 3.11959 0
M  V30 4817 N 438.996 -1.55193 0.274407 0
M  V30 4818 C 440.221 -2.04446 -0.348824 0
M  V30 4819 C 440.646 -1.15149 -1.48735 0
M  V30 4820 O 440.004 -0.149952 -1.80679 0
M  V30 4821 C 440.052 -3.51431 -0.808009 0
M  V30 4822 O 439.156 -3.65225 -1.91531 0
M  V30 4823 H 438.497 -0.66006 -0.0722276 0
M  V30 4824 H 441.027 -2.00481 0.408498 0
M  V30 4825 H 441.037 -3.92781 -1.10395 0
M  V30 4826 H 439.712 -4.15892 0.0249865 0
M  V30 4827 H 438.289 -3.35778 -1.62196 0
M  V30 4828 N 440.474 -0.00167713 -1.576 0
M  V30 4829 C 441.722 0.681471 -1.90264 0
M  V30 4830 C 442.043 1.7422 -0.875924 0
M  V30 4831 O 441.313 1.95709 0.0864412 0
M  V30 4832 H 439.893 0.254696 -0.702239 0
M  V30 4833 H 442.555 -0.0429996 -1.94853 0
M  V30 4834 H 441.651 1.15166 -2.90075 0
M  V30 4835 N 441.952 1.55251 0.271103 0
M  V30 4836 C 443.363 1.66635 0.842007 0
M  V30 4837 C 443.714 0.594631 1.86972 0
M  V30 4838 O 442.839 -0.263532 2.14789 0
M  V30 4839 C 443.434 3.02082 1.53401 0
M  V30 4840 C 441.993 3.15487 2.05293 0
M  V30 4841 C 441.14 2.62438 0.895631 0
M  V30 4842 H 444.091 1.58629 0.0474117 0
M  V30 4843 H 444.112 2.95176 2.40107 0
M  V30 4844 H 443.624 3.80062 0.785786 0
M  V30 4845 H 441.725 2.42284 2.83071 0
M  V30 4846 H 441.838 4.22075 2.26693 0
M  V30 4847 H 440.202 2.19644 1.28953 0
M  V30 4848 H 440.985 3.42923 0.160878 0
M  V30 4849 N 443.43 -0.535701 1.48216 0
M  V30 4850 C 444.655 -1.32149 1.59848 0
M  V30 4851 C 445.08 -1.86338 0.256842 0
M  V30 4852 O 444.438 -1.64107 -0.770632 0
M  V30 4853 C 444.486 -2.45224 2.64381 0
M  V30 4854 O 443.59 -3.48093 2.21144 0
M  V30 4855 H 442.931 -0.391634 0.536208 0
M  V30 4856 H 445.461 -0.645202 1.94161 0
M  V30 4857 H 445.471 -2.91491 2.85476 0
M  V30 4858 H 444.146 -2.05143 3.61786 0
M  V30 4859 H 442.723 -3.07984 2.10239 0
M  V30 4860 N 444.908 -1.36708 -0.784132 0
M  V30 4861 C 446.133 -1.34565 -1.5782 0
M  V30 4862 C 446.558 0.0695257 -1.87971 0
M  V30 4863 O 445.916 1.04302 -1.48293 0
M  V30 4864 C 445.964 -2.17952 -2.87279 0
M  V30 4865 O 445.068 -1.57563 -3.81114 0
M  V30 4866 H 444.409 -0.460337 -0.478524 0
M  V30 4867 H 446.939 -1.80064 -0.971495 0
M  V30 4868 H 446.949 -2.30721 -3.365 0
M  V30 4869 H 445.624 -3.20823 -2.64661 0
M  V30 4870 H 444.201 -1.53764 -3.39722 0
M  V30 4871 N 446.386 1.0089 -1.21074 0
M  V30 4872 C 447.797 1.56056 -1.02486 0
M  V30 4873 C 448.148 1.91728 0.416506 0
M  V30 4874 O 447.273 1.73066 1.29912 0
M  V30 4875 C 447.868 2.83563 -1.85411 0
M  V30 4876 C 446.427 3.3523 -1.71166 0
M  V30 4877 C 445.574 2.0846 -1.82865 0
M  V30 4878 H 448.525 0.831818 -1.35154 0
M  V30 4879 H 448.546 3.55286 -1.36205 0
M  V30 4880 H 448.058 2.57569 -2.9031 0
M  V30 4881 H 446.159 3.66167 -0.689361 0
M  V30 4882 H 446.272 4.06913 -2.52901 0
M  V30 4883 H 444.636 2.21275 -1.26132 0
M  V30 4884 H 445.419 1.84883 -2.89263 0
M  V30 4885 N 447.864 1.01787 1.20321 0
M  V30 4886 C 448.812 0.58254 2.25187 0
M  V30 4887 C 449.806 -0.379359 1.65098 0
M  V30 4888 O 451.012 -0.249142 1.78267 0
M  V30 4889 H 447.387 0.170078 0.732514 0
M  V30 4890 H 449.358 1.47788 2.59232 0
M  V30 4891 C 448.107 -0.0620885 3.47645 0
M  V30 4892 H 447.43 0.669069 3.94162 0
M  V30 4893 H 448.87 -0.329784 4.22716 0
M  V30 4894 C 447.329 -1.3053 3.10586 0
M  V30 4895 O 447.859 -2.39848 3.22236 0
M  V30 4896 N 446.065 -1.18988 2.65123 0
M  V30 4897 H 445.612 -0.300341 2.55843 0
M  V30 4898 H 445.57 -2.02267 2.40698 0
M  V30 4899 N 449.342 -1.36122 0.79427 0
M  V30 4900 C 450.29 -2.31871 0.184023 0
M  V30 4901 C 451.284 -1.56041 -0.659365 0
M  V30 4902 O 452.49 -1.71266 -0.553906 0
M  V30 4903 H 448.865 -0.750896 0.0407373 0
M  V30 4904 H 450.836 -2.80898 1.00693 0
M  V30 4905 C 449.585 -3.41324 -0.662813 0
M  V30 4906 H 448.908 -3.99793 -0.0231944 0
M  V30 4907 H 450.348 -4.10629 -1.05639 0
M  V30 4908 C 448.807 -2.83308 -1.82313 0
M  V30 4909 O 449.337 -2.75863 -2.91997 0
M  V30 4910 N 447.543 -2.40529 -1.63077 0
M  V30 4911 H 447.09 -2.46785 -0.738591 0
M  V30 4912 H 447.048 -2.02059 -2.40872 0
M  V30 4913 N 450.82 -0.546701 -1.47814 0
M  V30 4914 C 452.045 -0.021268 -2.07389 0
M  V30 4915 C 452.47 1.25822 -1.39822 0
M  V30 4916 O 451.828 1.75111 -0.46968 0
M  V30 4917 C 451.876 0.168502 -3.60206 0
M  V30 4918 O 450.98 1.23347 -3.93522 0
M  V30 4919 H 450.321 -0.0466108 -0.662362 0
M  V30 4920 H 452.851 -0.759387 -1.89985 0
M  V30 4921 H 452.861 0.385982 -4.0617 0
M  V30 4922 H 451.536 -0.766075 -4.08784 0
M  V30 4923 H 450.113 0.997319 -3.59316 0
M  V30 4924 N 452.299 1.55045 -0.282633 0
M  V30 4925 C 453.524 2.04628 0.337977 0
M  V30 4926 C 453.949 1.15937 1.48123 0
M  V30 4927 O 453.307 0.159532 1.80597 0
M  V30 4928 C 453.355 3.51854 0.78936 0
M  V30 4929 O 452.459 3.66236 1.89592 0
M  V30 4930 H 451.8 0.660434 0.0687261 0
M  V30 4931 H 454.33 2.00261 -0.419124 0
M  V30 4932 H 454.34 3.93361 1.08311 0
M  V30 4933 H 453.015 4.15873 -0.0470419 0
M  V30 4934 H 451.592 3.36633 1.60413 0
M  V30 4935 N 453.777 0.010035 1.57597 0
M  V30 4936 C 455.025 -0.671371 1.90623 0
M  V30 4937 C 455.346 -1.73753 0.885151 0
M  V30 4938 O 454.616 -1.95752 -0.0760611 0
M  V30 4939 H 453.196 -0.250968 0.703579 0
M  V30 4940 H 455.858 0.0533325 1.94827 0
M  V30 4941 H 454.954 -1.13626 2.90681 0
M  V30 4942 N 455.255 -1.55392 -0.262866 0
M  V30 4943 C 456.48 -1.80847 -1.01533 0
M  V30 4944 C 456.905 -0.584946 -1.78774 0
M  V30 4945 O 456.263 0.465701 -1.75217 0
M  V30 4946 C 456.311 -3.03866 -1.94159 0
M  V30 4947 O 455.415 -2.79662 -3.03089 0
M  V30 4948 H 454.756 -0.597441 -0.289759 0
M  V30 4949 H 457.286 -2.02553 -0.288698 0
M  V30 4950 H 457.296 -3.32872 -2.35924 0
M  V30 4951 H 455.971 -3.92564 -1.37354 0
M  V30 4952 H 454.548 -2.61781 -2.65566 0
M  V30 4953 N 456.733 0.527833 -1.48498 0
M  V30 4954 C 457.979 1.28545 -1.56857 0
M  V30 4955 C 458.312 1.92678 -0.242651 0
M  V30 4956 O 457.587 1.79394 0.751545 0
M  V30 4957 C 457.87 2.37314 -2.70839 0
M  V30 4958 C 457.723 1.77858 -4.13142 0
M  V30 4959 C 459.042 3.39068 -2.80573 0
M  V30 4960 H 456.161 0.466006 -0.570971 0
M  V30 4961 H 458.803 0.587784 -1.8068 0
M  V30 4962 H 456.953 2.96821 -2.50658 0
M  V30 4963 H 458.625 1.22385 -4.44769 0
M  V30 4964 H 456.868 1.08383 -4.20042 0
M  V30 4965 H 457.539 2.56624 -4.88721 0
M  V30 4966 H 460.015 2.89518 -2.98862 0
M  V30 4967 H 458.891 4.12566 -3.6205 0
M  V30 4968 H 459.152 3.9975 -1.88818 0
M  V30 4969 N 458.211 1.37122 0.776871 0
M  V30 4970 C 459.436 1.354 1.57104 0
M  V30 4971 C 459.861 -0.0595562 1.88006 0
M  V30 4972 O 459.219 -1.03514 1.48844 0
M  V30 4973 C 459.267 2.19472 2.8612 0
M  V30 4974 O 458.371 1.59582 3.80273 0
M  V30 4975 H 457.712 0.462869 0.476076 0
M  V30 4976 H 460.242 1.80577 0.961932 0
M  V30 4977 H 460.252 2.32502 3.35271 0
M  V30 4978 H 458.927 3.22222 2.62956 0
M  V30 4979 H 457.504 1.55564 3.38902 0
M  V30 4980 N 459.689 -1.00246 1.21608 0
M  V30 4981 C 460.652 -2.07233 0.979133 0
M  V30 4982 C 461.652 -1.6072 -0.0508219 0
M  V30 4983 O 462.842 -1.73196 0.186712 0
M  V30 4984 C 459.974 -3.37546 0.477016 0
M  V30 4985 H 461.167 -2.29687 1.92831 0
M  V30 4986 H 458.72 -1.17261 1.03342 0
M  V30 4987 H 459.455 -3.20773 -0.476966 0
M  V30 4988 H 459.24 -3.72638 1.21997 0
M  V30 4989 H 460.73 -4.16285 0.331181 0
M  V30 4990 N 461.167 -1.02423 -1.1978 0
M  V30 4991 C 462.077 -0.610919 -2.26506 0
M  V30 4992 C 463.093 0.355152 -1.70337 0
M  V30 4993 O 464.269 0.214195 -2.00258 0
M  V30 4994 C 461.334 0.0365921 -3.46681 0
M  V30 4995 C 460.395 -0.976389 -4.18049 0
M  V30 4996 C 459.628 -0.359683 -5.32487 0
M  V30 4997 O 459.851 0.838601 -5.64202 0
M  V30 4998 O 458.785 -1.08022 -5.92127 0
M  V30 4999 H 462.611 -1.49965 -2.64091 0
M  V30 5000 H 460.196 -0.794156 -1.26545 0
M  V30 5001 H 462.078 0.39786 -4.19518 0
M  V30 5002 H 460.753 0.899398 -3.10954 0
M  V30 5003 H 459.66 -1.38916 -3.47352 0
M  V30 5004 H 460.993 -1.80941 -4.57735 0
M  V30 5005 N 462.645 1.35699 -0.801477 0
M  V30 5006 C 463.593 2.3177 -0.196317 0
M  V30 5007 C 464.587 1.56388 0.651081 0
M  V30 5008 O 465.793 1.71557 0.544815 0
M  V30 5009 H 462.168 0.750669 -0.0447189 0
M  V30 5010 H 464.139 2.8036 -1.02181 0
M  V30 5011 C 462.888 3.41671 0.644702 0
M  V30 5012 H 462.211 3.998 0.0019921 0
M  V30 5013 H 463.651 4.11184 1.0346 0
M  V30 5014 C 462.11 2.84271 1.80808 0
M  V30 5015 O 462.64 2.77408 2.9053 0
M  V30 5016 N 460.846 2.41391 1.61799 0
M  V30 5017 H 460.393 2.47173 0.725493 0
M  V30 5018 H 460.351 2.03334 2.39797 0
M  V30 5019 N 464.123 0.554532 1.47522 0
M  V30 5020 C 465.371 0.0294208 2.02079 0
M  V30 5021 C 465.692 -1.32411 1.43151 0
M  V30 5022 O 464.962 -1.863 0.605728 0
M  V30 5023 H 463.542 0.00788672 0.746958 0
M  V30 5024 H 466.204 0.723934 1.80956 0
M  V30 5025 H 465.3 -0.0606745 3.12041 0
M  V30 5026 N 465.601 -1.54893 0.290851 0
M  V30 5027 C 466.85 -1.99111 -0.322113 0
M  V30 5028 C 467.163 -1.18283 -1.55784 0
M  V30 5029 O 468.369 -1.5272 -2.24475 0
M  V30 5030 C 466.825 -3.54442 -0.624438 0
M  V30 5031 C 466.433 -4.44066 0.592373 0
M  V30 5032 C 468.177 -4.07211 -1.19916 0
M  V30 5033 C 466.084 -5.90812 0.263762 0
M  V30 5034 H 465.014 -0.743712 -0.124133 0
M  V30 5035 H 467.665 -1.79132 0.39797 0
M  V30 5036 H 466.047 -3.70281 -1.40384 0
M  V30 5037 H 467.221 -4.39999 1.36886 0
M  V30 5038 H 465.536 -4.02015 1.08502 0
M  V30 5039 H 468.133 -5.14407 -1.45909 0
M  V30 5040 H 468.476 -3.57196 -2.13815 0
M  V30 5041 H 469.009 -3.94873 -0.481687 0
M  V30 5042 H 465.748 -6.44955 1.17105 0
M  V30 5043 H 465.268 -5.97911 -0.475655 0
M  V30 5044 H 466.947 -6.46852 -0.138354 0
M  V30 5045 N 467.08 -0.0183926 -1.57589 0
M  V30 5046 C 468.043 0.951986 -2.08494 0
M  V30 5047 C 469.043 1.26092 -0.997874 0
M  V30 5048 O 470.233 1.20304 -1.25987 0
M  V30 5049 C 467.365 2.27165 -2.54182 0
M  V30 5050 H 468.558 0.511307 -2.95509 0
M  V30 5051 H 466.111 0.229444 -1.54607 0
M  V30 5052 H 466.846 2.75884 -1.70465 0
M  V30 5053 H 466.631 2.06057 -3.33591 0
M  V30 5054 H 468.121 2.9674 -2.93828 0
M  V30 5055 N 468.558 1.5553 0.254621 0
M  V30 5056 C 469.969 1.67518 0.824286 0
M  V30 5057 C 470.32 0.614429 1.86331 0
M  V30 5058 O 469.445 -0.240736 2.15057 0
M  V30 5059 C 470.04 3.03692 1.50189 0
M  V30 5060 C 468.599 3.17646 2.01935 0
M  V30 5061 C 467.746 2.63373 0.867746 0
M  V30 5062 H 470.697 1.58671 0.0305843 0
M  V30 5063 H 470.718 2.97706 2.36962 0
M  V30 5064 H 470.23 3.80874 0.745431 0
M  V30 5065 H 468.331 2.45273 2.80485 0
M  V30 5066 H 468.444 4.24455 2.22204 0
M  V30 5067 H 466.808 2.20999 1.26616 0
M  V30 5068 H 467.591 3.43074 0.124498 0
M  V30 5069 N 470.036 -0.519951 1.48776 0
M  V30 5070 C 470.999 -1.60574 1.6355 0
M  V30 5071 C 471.999 -1.52557 0.508234 0
M  V30 5072 O 473.189 -1.56047 0.774262 0
M  V30 5073 C 470.321 -3.00211 1.61512 0
M  V30 5074 H 471.514 -1.4881 2.60376 0
M  V30 5075 H 469.067 -0.742772 1.37523 0
M  V30 5076 H 469.802 -3.17471 0.662009 0
M  V30 5077 H 469.587 -3.07439 2.43359 0
M  V30 5078 H 471.077 -3.79134 1.75064 0
M  V30 5079 N 471.514 -1.37532 -0.769588 0
M  V30 5080 C 472.76 -1.33057 -1.53048 0
M  V30 5081 C 473.093 0.0841865 -1.94017 0
M  V30 5082 O 472.368 1.04198 -1.64235 0
M  V30 5083 C 472.651 -2.27166 -2.79406 0
M  V30 5084 C 472.504 -3.77429 -2.44677 0
M  V30 5085 C 473.823 -2.19683 -3.81349 0
M  V30 5086 H 470.942 -0.484655 -0.555228 0
M  V30 5087 H 473.584 -1.68251 -0.882702 0
M  V30 5088 H 471.734 -1.97283 -3.34682 0
M  V30 5089 H 473.406 -4.17918 -1.953 0
M  V30 5090 H 471.649 -3.95892 -1.77346 0
M  V30 5091 H 472.32 -4.38716 -3.35011 0
M  V30 5092 H 474.796 -2.46029 -3.35573 0
M  V30 5093 H 473.672 -2.87668 -4.67481 0
M  V30 5094 H 473.933 -1.19045 -4.25771 0
M  V30 5095 N 472.992 0.995999 -1.22138 0
M  V30 5096 C 474.403 1.54961 -1.04135 0
M  V30 5097 C 474.754 1.92159 0.396147 0
M  V30 5098 O 473.879 1.74435 1.28069 0
M  V30 5099 C 474.474 2.81581 -1.88408 0
M  V30 5100 C 473.033 3.33396 -1.74712 0
M  V30 5101 C 472.18 2.06509 -1.85066 0
M  V30 5102 H 475.131 0.817436 -1.36028 0
M  V30 5103 H 475.152 3.53822 -1.39966 0
M  V30 5104 H 474.664 2.54476 -2.93025 0
M  V30 5105 H 472.765 3.65416 -0.728159 0
M  V30 5106 H 472.878 4.04208 -2.57202 0
M  V30 5107 H 471.242 2.19925 -1.28472 0
M  V30 5108 H 472.025 1.81804 -2.91208 0
M  V30 5109 N 474.47 1.03057 1.19235 0
M  V30 5110 C 475.695 0.74757 1.93458 0
M  V30 5111 C 476.12 -0.687648 1.7508 0
M  V30 5112 O 475.478 -1.47499 1.05422 0
M  V30 5113 C 475.526 1.10604 3.43219 0
M  V30 5114 O 474.63 0.225671 4.11782 0
M  V30 5115 H 473.971 0.276047 0.603899 0
M  V30 5116 H 476.501 1.3777 1.51263 0
M  V30 5117 H 476.511 1.06366 3.93891 0
M  V30 5118 H 475.186 2.15165 3.55917 0
M  V30 5119 H 473.763 0.326795 3.71465 0
M  V30 5120 N 475.948 -1.35272 0.808662 0
M  V30 5121 C 477.197 -1.97963 0.386483 0
M  V30 5122 C 477.51 -1.64866 -1.05255 0
M  V30 5123 O 478.716 -2.20937 -1.57794 0
M  V30 5124 C 477.172 -3.54162 0.640096 0
M  V30 5125 C 476.78 -3.96166 2.0918 0
M  V30 5126 C 478.524 -4.23553 0.283376 0
M  V30 5127 C 476.431 -5.4522 2.29106 0
M  V30 5128 H 475.361 -0.740742 0.140774 0
M  V30 5129 H 478.012 -1.5431 0.993012 0
M  V30 5130 H 476.394 -3.95983 -0.0364117 0
M  V30 5131 H 477.568 -3.65491 2.80629 0
M  V30 5132 H 475.883 -3.3967 2.40859 0
M  V30 5133 H 478.48 -5.33124 0.410273 0
M  V30 5134 H 478.823 -4.09105 -0.770659 0
M  V30 5135 H 479.356 -3.8716 0.913884 0
M  V30 5136 H 476.095 -5.64638 3.32962 0
M  V30 5137 H 475.615 -5.77457 1.62184 0
M  V30 5138 H 477.294 -6.1171 2.1076 0
M  V30 5139 N 477.426 -0.562348 -1.47226 0
M  V30 5140 C 478.837 -0.130325 -1.86245 0
M  V30 5141 C 479.188 1.30128 -1.46838 0
M  V30 5142 O 478.313 1.97974 -0.873805 0
M  V30 5143 C 478.908 -0.229738 -3.3802 0
M  V30 5144 C 477.467 0.14728 -3.76112 0
M  V30 5145 C 476.614 -0.574971 -2.71274 0
M  V30 5146 H 479.565 -0.771773 -1.3867 0
M  V30 5147 H 479.586 0.550316 -3.76499 0
M  V30 5148 H 479.098 -1.27178 -3.66671 0
M  V30 5149 H 477.199 1.19023 -3.53078 0
M  V30 5150 H 477.312 -0.214858 -4.78618 0
M  V30 5151 H 475.676 -0.0174756 -2.54694 0
M  V30 5152 H 476.459 -1.61827 -3.02766 0
M  V30 5153 N 478.904 1.54736 -0.299062 0
M  V30 5154 C 479.867 2.22127 0.565012 0
M  V30 5155 C 480.867 1.20669 1.06281 0
M  V30 5156 O 482.057 1.45417 0.959145 0
M  V30 5157 C 479.189 2.90611 1.78208 0
M  V30 5158 H 480.382 2.99891 -0.0237448 0
M  V30 5159 H 477.935 1.5622 -0.0498788 0
M  V30 5160 H 478.67 2.16921 2.41072 0
M  V30 5161 H 478.455 3.64984 1.43281 0
M  V30 5162 H 479.945 3.42026 2.396 0
M  V30 5163 N 480.382 0.0267497 1.57577 0
M  V30 5164 C 481.292 -0.971633 2.13533 0
M  V30 5165 C 482.308 -1.35868 1.08701 0
M  V30 5166 O 483.484 -1.44058 1.40746 0
M  V30 5167 C 480.549 -2.23622 2.64941 0
M  V30 5168 C 479.61 -1.90982 3.8448 0
M  V30 5169 C 478.843 -3.11411 4.33427 0
M  V30 5170 O 479.066 -4.23992 3.81558 0
M  V30 5171 O 478 -2.93848 5.25297 0
M  V30 5172 H 481.826 -0.525853 2.99113 0
M  V30 5173 H 479.411 -0.193712 1.48139 0
M  V30 5174 H 481.293 -2.97864 2.98086 0
M  V30 5175 H 479.968 -2.67386 1.82446 0
M  V30 5176 H 478.875 -1.14132 3.56265 0
M  V30 5177 H 480.208 -1.52036 4.6813 0
M  V30 5178 N 481.861 -1.55662 -0.24637 0
M  V30 5179 C 483.089 -1.81575 -0.991876 0
M  V30 5180 C 483.504 -0.602545 -1.78927 0
M  V30 5181 O 482.861 0.428795 -1.77391 0
M  V30 5182 C 482.912 -3.05711 -1.92933 0
M  V30 5183 O 482.633 -4.22348 -1.1642 0
M  V30 5184 C 484.134 -3.44428 -2.79078 0
M  V30 5185 H 481.354 -0.604209 -0.291844 0
M  V30 5186 H 483.898 -2.02722 -0.269095 0
M  V30 5187 H 482.053 -2.86612 -2.60638 0
M  V30 5188 H 482.467 -4.92706 -1.79835 0
M  V30 5189 H 483.941 -4.34388 -3.40603 0
M  V30 5190 H 484.418 -2.65037 -3.50217 0
M  V30 5191 H 485.024 -3.65879 -2.16824 0
M  V30 5192 N 483.339 0.512053 -1.4905 0
M  V30 5193 C 484.564 1.2959 -1.6193 0
M  V30 5194 C 484.989 1.85906 -0.286454 0
M  V30 5195 O 484.347 1.65312 0.744426 0
M  V30 5196 C 484.395 2.40987 -2.68249 0
M  V30 5197 O 483.499 3.44531 -2.26654 0
M  V30 5198 H 482.84 0.383053 -0.542371 0
M  V30 5199 H 485.37 0.614231 -1.95162 0
M  V30 5200 H 485.38 2.86913 -2.90078 0
M  V30 5201 H 484.055 1.99361 -3.65004 0
M  V30 5202 H 482.632 3.046 -2.15112 0
M  V30 5203 N 484.817 1.37938 0.762283 0
M  V30 5204 C 485.747 1.37176 1.88958 0
M  V30 5205 C 486.728 0.238945 1.68413 0
M  V30 5206 O 487.913 0.440726 1.89133 0
M  V30 5207 C 485.043 1.18742 3.2637 0
M  V30 5208 C 483.997 2.29136 3.61498 0
M  V30 5209 C 483.323 1.95816 4.97554 0
M  V30 5210 C 484.623 3.71363 3.6727 0
M  V30 5211 H 486.317 2.31509 1.89853 0
M  V30 5212 H 483.863 1.11438 0.912005 0
M  V30 5213 H 485.816 1.16837 4.04879 0
M  V30 5214 H 484.54 0.208683 3.25933 0
M  V30 5215 H 483.199 2.30213 2.85303 0
M  V30 5216 H 482.847 0.964475 4.93667 0
M  V30 5217 H 482.547 2.69745 5.22026 0
M  V30 5218 H 484.071 1.95513 5.78452 0
M  V30 5219 H 485.485 3.72364 4.35911 0
M  V30 5220 H 483.882 4.44425 4.03245 0
M  V30 5221 H 484.952 4.04305 2.67704 0
M  V30 5222 N 486.295 -0.989507 1.22664 0
M  V30 5223 C 487.258 -2.06183 1.00106 0
M  V30 5224 C 488.258 -1.60765 -0.0337726 0
M  V30 5225 O 489.448 -1.72989 0.205072 0
M  V30 5226 C 486.58 -3.37021 0.51279 0
M  V30 5227 H 487.773 -2.27629 1.95256 0
M  V30 5228 H 485.326 -1.16158 1.0458 0
M  V30 5229 H 486.061 -3.21261 -0.442917 0
M  V30 5230 H 485.846 -3.71323 1.25942 0
M  V30 5231 H 487.336 -4.1591 0.375315 0
M  V30 5232 N 487.773 -1.03688 -1.18687 0
M  V30 5233 C 488.723 -0.595067 -2.20098 0
M  V30 5234 C 489.707 0.360465 -1.5681 0
M  V30 5235 O 490.899 0.180136 -1.76081 0
M  V30 5236 C 488.028 0.0444495 -3.43271 0
M  V30 5237 C 487.114 -0.934002 -4.13687 0
M  V30 5238 N 487.505 -2.09957 -4.60165 0
M  V30 5239 C 485.803 -0.759177 -4.39491 0
M  V30 5240 C 486.504 -2.71735 -5.1433 0
M  V30 5241 N 485.48 -1.99638 -5.05614 0
M  V30 5242 H 489.282 -1.48336 -2.5372 0
M  V30 5243 H 486.796 -0.904949 -1.3485 0
M  V30 5244 H 488.793 0.37864 -4.15177 0
M  V30 5245 H 487.453 0.928325 -3.11147 0
M  V30 5246 H 488.464 -2.47863 -4.54735 0
M  V30 5247 H 485.141 0.0749292 -4.17433 0
M  V30 5248 H 486.531 -3.70492 -5.60523 0
M  V30 5249 N 489.251 1.34841 -0.815825 0
M  V30 5250 C 490.667 1.51543 -0.500697 0
M  V30 5251 C 490.867 1.76261 0.976444 0
M  V30 5252 O 489.923 1.8094 1.76117 0
M  V30 5253 C 491.236 2.68487 -1.35407 0
M  V30 5254 C 492.784 2.82368 -1.35046 0
M  V30 5255 C 493.259 4.02347 -2.18816 0
M  V30 5256 N 494.75 4.09542 -2.16402 0
M  V30 5257 C 495.485 5.01517 -2.77971 0
M  V30 5258 N 494.981 5.98763 -3.48503 0
M  V30 5259 N 496.774 4.94334 -2.67563 0
M  V30 5260 H 488.925 1.17055 -1.77234 0
M  V30 5261 H 491.188 0.573481 -0.754866 0
M  V30 5262 H 490.894 2.56829 -2.40274 0
M  V30 5263 H 490.768 3.63321 -1.01377 0
M  V30 5264 H 493.155 2.93471 -0.309604 0
M  V30 5265 H 493.236 1.88363 -1.73069 0
M  V30 5266 H 492.88 3.92004 -3.22948 0
M  V30 5267 H 492.81 4.95551 -1.78148 0
M  V30 5268 H 495.301 3.39932 -1.65091 0
M  V30 5269 H 495.614 6.6556 -3.92747 0
M  V30 5270 H 493.959 5.98909 -3.52609 0
M  V30 5271 H 497.15 4.1732 -2.12041 0
M  V30 5272 H 497.323 5.6582 -3.15834 0
M  V30 5273 N 490.729 0.570148 1.46925 0
M  V30 5274 C 491.659 -0.158274 2.32963 0
M  V30 5275 C 492.64 -0.896093 1.44583 0
M  V30 5276 O 493.825 -0.874022 1.7342 0
M  V30 5277 C 490.955 -1.18055 3.26619 0
M  V30 5278 C 489.909 -0.558379 4.24342 0
M  V30 5279 C 489.235 -1.68623 5.07415 0
M  V30 5280 C 490.535 0.496295 5.19937 0
M  V30 5281 H 492.229 0.560046 2.94115 0
M  V30 5282 H 489.775 0.270775 1.41431 0
M  V30 5283 H 491.728 -1.69841 3.85658 0
M  V30 5284 H 490.452 -1.92899 2.63548 0
M  V30 5285 H 489.111 -0.0617157 3.66548 0
M  V30 5286 H 488.759 -2.42402 4.40738 0
M  V30 5287 H 488.459 -1.27564 5.73586 0
M  V30 5288 H 489.983 -2.20709 5.69315 0
M  V30 5289 H 491.397 0.0640052 5.73264 0
M  V30 5290 H 489.794 0.82649 5.94381 0
M  V30 5291 H 490.864 1.38735 4.6463 0
M  V30 5292 N 492.207 -1.54576 0.307264 0
M  V30 5293 C 493.453 -2.0056 -0.300612 0
M  V30 5294 C 493.786 -1.1953 -1.53057 0
M  V30 5295 O 493.061 -0.27337 -1.92569 0
M  V30 5296 C 493.344 -3.54167 -0.650987 0
M  V30 5297 C 493.197 -4.45933 0.588539 0
M  V30 5298 C 494.516 -4.14645 -1.47506 0
M  V30 5299 H 491.635 -0.729075 -0.107788 0
M  V30 5300 H 494.277 -1.85286 0.420606 0
M  V30 5301 H 492.427 -3.67313 -1.26544 0
M  V30 5302 H 494.099 -4.44683 1.22697 0
M  V30 5303 H 492.342 -4.16274 1.22058 0
M  V30 5304 H 493.013 -5.51189 0.299153 0
M  V30 5305 H 495.489 -4.04973 -0.955821 0
M  V30 5306 H 494.365 -5.22269 -1.68899 0
M  V30 5307 H 494.626 -3.66921 -2.4662 0
M  V30 5308 N 493.685 -0.035106 -1.57561 0
M  V30 5309 C 494.648 0.929819 -2.09492 0
M  V30 5310 C 495.648 1.25026 -1.01119 0
M  V30 5311 O 496.838 1.18961 -1.27255 0
M  V30 5312 C 493.97 2.24457 -2.56577 0
M  V30 5313 H 495.163 0.479935 -2.96035 0
M  V30 5314 H 492.716 0.213033 -1.54841 0
M  V30 5315 H 493.451 2.74061 -1.73382 0
M  V30 5316 H 493.236 2.02508 -3.35757 0
M  V30 5317 H 494.726 2.93607 -2.96959 0
M  V30 5318 N 495.163 1.55791 0.238111 0
M  V30 5319 C 496.579 1.48411 0.587045 0
M  V30 5320 C 496.779 0.72702 1.87927 0
M  V30 5321 O 495.835 0.259942 2.51158 0
M  V30 5322 C 497.148 2.92873 0.681623 0
M  V30 5323 C 498.696 3.03295 0.773363 0
M  V30 5324 C 499.171 4.49082 0.899428 0
M  V30 5325 N 500.662 4.53056 0.964075 0
M  V30 5326 C 501.397 5.63117 1.08104 0
M  V30 5327 N 500.893 6.82969 1.16299 0
M  V30 5328 N 502.686 5.50933 1.11488 0
M  V30 5329 H 494.837 2.0345 -0.610076 0
M  V30 5330 H 497.1 0.924034 -0.211813 0
M  V30 5331 H 496.806 3.51142 -0.19802 0
M  V30 5332 H 496.68 3.43851 1.55069 0
M  V30 5333 H 499.067 2.45101 1.64346 0
M  V30 5334 H 499.148 2.55513 -0.121034 0
M  V30 5335 H 498.792 5.07889 0.0338586 0
M  V30 5336 H 498.722 4.94553 1.809 0
M  V30 5337 H 501.213 3.66737 0.91173 0
M  V30 5338 H 501.526 7.62598 1.25155 0
M  V30 5339 H 499.871 6.85712 1.13241 0
M  V30 5340 H 503.062 4.56231 1.0474 0
M  V30 5341 H 503.235 6.36743 1.20259 0
M  V30 5342 N 496.642 -0.504142 1.49319 0
M  V30 5343 C 497.552 -1.63248 1.68486 0
M  V30 5344 C 498.568 -1.64488 0.567432 0
M  V30 5345 O 499.744 -1.82966 0.841749 0
M  V30 5346 C 496.809 -2.99627 1.74426 0
M  V30 5347 C 495.87 -3.09039 2.97982 0
M  V30 5348 C 495.103 -4.38913 3.0363 0
M  V30 5349 O 495.326 -5.27528 2.16958 0
M  V30 5350 O 494.26 -4.53231 3.96062 0
M  V30 5351 H 498.086 -1.50008 2.64067 0
M  V30 5352 H 495.671 -0.680086 1.33023 0
M  V30 5353 H 497.553 -3.80689 1.80705 0
M  V30 5354 H 496.228 -3.13136 0.820233 0
M  V30 5355 H 495.135 -2.27177 2.97223 0
M  V30 5356 H 496.468 -3.00456 3.89855 0
M  V30 5357 N 498.12 -1.38341 -0.754957 0
M  V30 5358 C 499.368 -1.34208 -1.51105 0
M  V30 5359 C 499.689 0.0677634 -1.94882 0
M  V30 5360 O 498.959 1.01517 -1.67544 0
M  V30 5361 H 497.539 -0.493819 -0.560493 0
M  V30 5362 H 500.201 -1.73005 -0.897507 0
M  V30 5363 H 499.297 -1.99203 -2.4026 0
M  V30 5364 N 499.598 0.982988 -1.23187 0
M  V30 5365 C 500.823 1.76455 -1.08988 0
M  V30 5366 C 501.248 1.84726 0.354691 0
M  V30 5367 O 500.606 1.30699 1.25649 0
M  V30 5368 C 500.654 3.17094 -1.71708 0
M  V30 5369 O 499.758 4.00648 -0.977477 0
M  V30 5370 H 499.099 0.542988 -0.382177 0
M  V30 5371 H 501.629 1.23413 -1.63188 0
M  V30 5372 H 501.639 3.67684 -1.76841 0
M  V30 5373 H 500.314 3.10389 -2.76823 0
M  V30 5374 H 498.891 3.59161 -1.0029 0
M  V30 5375 N 501.076 1.04316 1.18135 0
M  V30 5376 C 502.039 0.640794 2.2006 0
M  V30 5377 C 503.039 -0.303124 1.57917 0
M  V30 5378 O 504.229 -0.0881855 1.73977 0
M  V30 5379 C 501.361 -0.060148 3.40847 0
M  V30 5380 H 502.554 1.54281 2.57172 0
M  V30 5381 H 500.107 0.836004 1.32063 0
M  V30 5382 H 500.842 -0.975845 3.0927 0
M  V30 5383 H 500.627 0.618319 3.87194 0
M  V30 5384 H 502.117 -0.328082 4.16309 0
M  V30 5385 N 502.554 -1.34406 0.822964 0
M  V30 5386 C 503.517 -2.2783 0.250271 0
M  V30 5387 C 504.517 -1.50288 -0.571854 0
M  V30 5388 O 505.707 -1.69825 -0.387952 0
M  V30 5389 C 502.839 -3.34663 -0.649137 0
M  V30 5390 H 504.032 -2.79992 1.07444 0
M  V30 5391 H 501.585 -1.44539 0.594829 0
M  V30 5392 H 502.32 -2.87714 -1.49637 0
M  V30 5393 H 502.105 -3.92052 -0.0611199 0
M  V30 5394 H 503.595 -4.04349 -1.04363 0
M  V30 5395 N 504.032 -0.577932 -1.46621 0
M  V30 5396 C 505.443 -0.150071 -1.86096 0
M  V30 5397 C 505.794 1.28563 -1.48209 0
M  V30 5398 O 504.919 1.97036 -0.894754 0
M  V30 5399 C 505.514 -0.265576 -3.37758 0
M  V30 5400 C 504.073 0.10738 -3.76247 0
M  V30 5401 C 503.22 -0.603711 -2.70649 0
M  V30 5402 H 506.171 -0.786438 -1.37844 0
M  V30 5403 H 506.192 0.510352 -3.77062 0
M  V30 5404 H 505.704 -1.3106 -3.65301 0
M  V30 5405 H 503.805 1.15272 -3.54321 0
M  V30 5406 H 503.918 -0.26561 -4.78363 0
M  V30 5407 H 502.282 -0.0444884 -2.54661 0
M  V30 5408 H 503.065 -1.65029 -3.01032 0
M  V30 5409 N 505.51 1.54411 -0.315457 0
M  V30 5410 C 506.44 2.27002 0.547039 0
M  V30 5411 C 507.421 1.27492 1.12605 0
M  V30 5412 O 508.606 1.5629 1.15269 0
M  V30 5413 C 505.736 3.02171 1.71201 0
M  V30 5414 C 504.69 4.0895 1.26268 0
M  V30 5415 C 504.016 4.71915 2.51396 0
M  V30 5416 C 505.316 5.20891 0.383419 0
M  V30 5417 H 507.01 2.99343 -0.0584517 0
M  V30 5418 H 504.556 1.4397 -0.0295527 0
M  V30 5419 H 506.509 3.51681 2.32161 0
M  V30 5420 H 505.233 2.27433 2.34397 0
M  V30 5421 H 503.892 3.60312 0.676062 0
M  V30 5422 H 503.54 3.93801 3.12937 0
M  V30 5423 H 503.24 5.44039 2.22026 0
M  V30 5424 H 504.764 5.24195 3.13133 0
M  V30 5425 H 506.178 5.66206 0.899082 0
M  V30 5426 H 504.575 5.99821 0.182857 0
M  V30 5427 H 505.645 4.81324 -0.587821 0
M  V30 5428 N 506.988 0.0434614 1.5754 0
M  V30 5429 C 508.399 -0.493343 1.80064 0
M  V30 5430 C 508.75 -1.71388 0.955023 0
M  V30 5431 O 507.875 -2.15736 0.169434 0
M  V30 5432 C 508.47 -0.90179 3.26578 0
M  V30 5433 C 507.029 -1.38362 3.50047 0
M  V30 5434 C 506.176 -0.355129 2.75017 0
M  V30 5435 H 509.127 0.2694 1.56397 0
M  V30 5436 H 509.148 -1.76523 3.37075 0
M  V30 5437 H 508.66 -0.013271 3.88098 0
M  V30 5438 H 506.761 -2.29159 2.93798 0
M  V30 5439 H 506.874 -1.3811 4.58762 0
M  V30 5440 H 505.238 -0.826348 2.40922 0
M  V30 5441 H 506.021 0.525172 3.39259 0
M  V30 5442 N 508.466 -1.55915 -0.229846 0
M  V30 5443 C 509.396 -1.94754 -1.28815 0
M  V30 5444 C 510.377 -0.814657 -1.49323 0
M  V30 5445 O 511.562 -1.07631 -1.61645 0
M  V30 5446 C 508.692 -2.25705 -2.63959 0
M  V30 5447 C 507.646 -3.41406 -2.5812 0
M  V30 5448 C 506.972 -3.57941 -3.97218 0
M  V30 5449 C 508.272 -4.76616 -2.13623 0
M  V30 5450 H 509.966 -2.83404 -0.965547 0
M  V30 5451 H 507.512 -1.36353 -0.463028 0
M  V30 5452 H 509.465 -2.51467 -3.38146 0
M  V30 5453 H 508.189 -1.339 -2.9789 0
M  V30 5454 H 506.848 -3.1568 -1.86391 0
M  V30 5455 H 506.496 -2.63526 -4.28443 0
M  V30 5456 H 506.196 -4.35757 -3.94195 0
M  V30 5457 H 507.72 -3.86042 -4.73079 0
M  V30 5458 H 509.134 -5.01637 -2.77549 0
M  V30 5459 H 507.531 -5.57655 -2.21677 0
M  V30 5460 H 508.601 -4.7253 -1.08829 0
M  V30 5461 N 509.944 0.496216 -1.49584 0
M  V30 5462 C 511.174 1.27209 -1.62793 0
M  V30 5463 C 511.582 1.86799 -0.300476 0
M  V30 5464 O 510.925 1.68802 0.724674 0
M  V30 5465 C 510.987 2.43812 -2.64189 0
M  V30 5466 C 510.651 2.05055 -4.08414 0
M  V30 5467 C 511.648 1.58752 -4.9507 0
M  V30 5468 C 509.333 2.14543 -4.54177 0
M  V30 5469 C 511.327 1.22448 -6.25528 0
M  V30 5470 C 509.014 1.77851 -5.84647 0
M  V30 5471 C 510.012 1.31878 -6.70147 0
M  V30 5472 O 509.7 0.956834 -7.98185 0
M  V30 5473 H 509.432 0.391848 -0.550846 0
M  V30 5474 H 511.986 0.601712 -1.96389 0
M  V30 5475 H 510.216 3.13941 -2.25783 0
M  V30 5476 H 511.905 3.05829 -2.66877 0
M  V30 5477 H 512.671 1.50863 -4.60939 0
M  V30 5478 H 508.55 2.49277 -3.87791 0
M  V30 5479 H 512.094 0.864933 -6.92217 0
M  V30 5480 H 507.991 1.8539 -6.18305 0
M  V30 5481 H 508.759 1.08789 -8.11238 0
M  V30 5482 N 511.423 1.38739 0.74761 0
M  V30 5483 C 512.651 1.38521 1.53686 0
M  V30 5484 C 513.066 -0.0235129 1.88785 0
M  V30 5485 O 512.423 -0.991662 1.53207 0
M  V30 5486 C 512.474 2.24641 2.83229 0
M  V30 5487 O 512.195 3.60026 2.49625 0
M  V30 5488 C 513.696 2.32669 3.77333 0
M  V30 5489 H 510.916 0.473589 0.475347 0
M  V30 5490 H 513.46 1.82395 0.924786 0
M  V30 5491 H 511.615 1.84213 3.40799 0
M  V30 5492 H 512.029 4.05435 3.3275 0
M  V30 5493 H 513.503 2.97201 4.65162 0
M  V30 5494 H 513.98 1.3421 4.18192 0
M  V30 5495 H 514.586 2.73512 3.25685 0
M  V30 5496 N 512.901 -0.976442 1.23707 0
M  V30 5497 C 514.126 -1.75875 1.09922 0
M  V30 5498 C 514.551 -1.84911 -0.34489 0
M  V30 5499 O 513.909 -1.31363 -1.24954 0
M  V30 5500 C 513.957 -3.16179 1.73388 0
M  V30 5501 O 513.061 -4.00124 0.99871 0
M  V30 5502 H 512.402 -0.540954 0.385052 0
M  V30 5503 H 514.932 -1.22546 1.6384 0
M  V30 5504 H 514.942 -3.66741 1.78788 0
M  V30 5505 H 513.617 -3.08917 2.78466 0
M  V30 5506 H 512.194 -3.58624 1.02193 0
M  V30 5507 N 514.379 -1.04941 -1.1758 0
M  V30 5508 C 515.79 -0.784501 -1.69418 0
M  V30 5509 C 516.141 0.693625 -1.8353 0
M  V30 5510 O 515.266 1.53925 -1.52106 0
M  V30 5511 C 515.861 -1.41746 -3.07723 0
M  V30 5512 C 514.42 -1.20066 -3.56737 0
M  V30 5513 C 513.567 -1.5026 -2.33061 0
M  V30 5514 H 516.518 -1.21469 -1.02133 0
M  V30 5515 H 516.539 -0.825381 -3.7144 0
M  V30 5516 H 516.051 -2.49325 -2.9742 0
M  V30 5517 H 514.152 -0.144006 -3.72322 0
M  V30 5518 H 514.265 -1.90384 -4.39648 0
M  V30 5519 H 512.629 -0.922598 -2.37403 0
M  V30 5520 H 513.412 -2.58967 -2.25368 0
M  V30 5521 N 515.857 1.33968 -0.830081 0
M  V30 5522 C 517.082 2.02813 -0.433796 0
M  V30 5523 C 517.507 1.62076 0.954614 0
M  V30 5524 O 516.865 0.808955 1.62252 0
M  V30 5525 C 516.913 3.56348 -0.552115 0
M  V30 5526 O 516.017 4.10202 0.425191 0
M  V30 5527 H 515.358 0.639817 -0.177567 0
M  V30 5528 H 517.888 1.7106 -1.12248 0
M  V30 5529 H 517.898 4.05722 -0.430513 0
M  V30 5530 H 516.573 3.85344 -1.56471 0
M  V30 5531 H 515.15 3.71979 0.261878 0
M  V30 5532 N 517.335 0.585699 1.46312 0
M  V30 5533 C 518.265 -0.133556 2.33118 0
M  V30 5534 C 519.246 -0.880707 1.45525 0
M  V30 5535 O 520.431 -0.855579 1.74337 0
M  V30 5536 C 517.561 -1.14585 3.27853 0
M  V30 5537 C 516.515 -0.513341 4.2491 0
M  V30 5538 C 515.841 -1.63231 5.09175 0
M  V30 5539 C 517.141 0.551413 5.19381 0
M  V30 5540 H 518.835 0.59121 2.93505 0
M  V30 5541 H 516.381 0.285761 1.41136 0
M  V30 5542 H 518.334 -1.65741 3.87438 0
M  V30 5543 H 517.058 -1.90093 2.65579 0
M  V30 5544 H 515.717 -0.0228349 3.66593 0
M  V30 5545 H 515.365 -2.37713 4.43285 0
M  V30 5546 H 515.065 -1.21473 5.74907 0
M  V30 5547 H 516.589 -2.14658 5.71624 0
M  V30 5548 H 518.003 0.124804 5.73164 0
M  V30 5549 H 516.4 0.889486 5.93471 0
M  V30 5550 H 517.47 1.43655 4.63132 0
M  V30 5551 N 518.813 -1.54241 0.323641 0
M  V30 5552 C 520.224 -1.85975 -0.164405 0
M  V30 5553 C 520.575 -1.24529 -1.51615 0
M  V30 5554 O 519.7 -0.551351 -2.09258 0
M  V30 5555 C 520.295 -3.37424 -0.305091 0
M  V30 5556 C 518.854 -3.69107 -0.737358 0
M  V30 5557 C 518.001 -2.76942 0.140884 0
M  V30 5558 H 520.952 -1.49088 0.543922 0
M  V30 5559 H 520.973 -3.63147 -1.13598 0
M  V30 5560 H 520.485 -3.82116 0.678876 0
M  V30 5561 H 518.586 -3.29947 -1.73107 0
M  V30 5562 H 518.699 -4.76035 -0.541053 0
M  V30 5563 H 517.063 -2.51795 -0.383572 0
M  V30 5564 H 517.846 -3.24461 1.12162 0
M  V30 5565 N 520.291 -0.0518155 -1.57515 0
M  V30 5566 C 521.239 0.940195 -2.12751 0
M  V30 5567 C 522.233 1.3218 -1.05948 0
M  V30 5568 O 523.439 1.30138 -1.24355 0
M  V30 5569 H 519.814 0.321066 -0.680015 0
M  V30 5570 H 521.785 0.449217 -2.94999 0
M  V30 5571 C 520.534 2.2055 -2.68799 0
M  V30 5572 H 519.857 1.92066 -3.50643 0
M  V30 5573 H 521.297 2.88119 -3.11068 0
M  V30 5574 C 519.756 2.95061 -1.62605 0
M  V30 5575 O 520.286 3.88025 -1.03921 0
M  V30 5576 N 518.492 2.57804 -1.34111 0
M  V30 5577 H 518.039 1.82281 -1.8202 0
M  V30 5578 H 517.997 3.07964 -0.632872 0
M  V30 5579 N 521.769 1.56035 0.221574 0
M  V30 5580 C 523.018 1.78245 0.944016 0
M  V30 5581 C 523.331 0.620371 1.85501 0
M  V30 5582 O 524.537 0.726103 2.6161 0
M  V30 5583 C 522.993 3.15659 1.7288 0
M  V30 5584 C 522.601 4.39591 0.863942 0
M  V30 5585 C 524.345 3.47195 2.44246 0
M  V30 5586 C 522.252 5.6803 1.64607 0
M  V30 5587 H 521.182 0.664547 0.356222 0
M  V30 5588 H 523.833 1.8243 0.197904 0
M  V30 5589 H 522.215 3.0565 2.51781 0
M  V30 5590 H 523.389 4.60655 0.115464 0
M  V30 5591 H 521.704 4.15572 0.262407 0
M  V30 5592 H 524.301 4.40381 3.03263 0
M  V30 5593 H 524.644 2.69693 3.1713 0
M  V30 5594 H 525.177 3.58533 1.72334 0
M  V30 5595 H 521.916 6.48425 0.960507 0
M  V30 5596 H 521.436 5.51027 2.36917 0
M  V30 5597 H 523.115 6.08203 2.20675 0
M  V30 5598 N 523.247 -0.488276 1.49845 0
M  V30 5599 C 524.475 -1.26527 1.63702 0
M  V30 5600 C 524.89 -1.8618 0.313447 0
M  V30 5601 O 524.247 -1.68432 -0.702624 0
M  V30 5602 C 524.298 -2.3864 2.71538 0
M  V30 5603 O 524.019 -1.81437 3.98763 0
M  V30 5604 C 525.52 -3.29805 2.96215 0
M  V30 5605 H 522.74 -0.383295 0.55075 0
M  V30 5606 H 525.284 -0.584779 1.95961 0
M  V30 5607 H 523.439 -3.02496 2.42023 0
M  V30 5608 H 523.853 -2.55135 4.58265 0
M  V30 5609 H 525.327 -4.04722 3.75372 0
M  V30 5610 H 525.804 -3.87563 2.06619 0
M  V30 5611 H 526.41 -2.71703 3.27196 0
M  V30 5612 N 524.725 -1.39134 -0.740242 0
M  V30 5613 C 525.655 -1.40165 -1.86751 0
M  V30 5614 C 526.636 -0.265708 -1.68012 0
M  V30 5615 O 527.821 -0.47076 -1.88408 0
M  V30 5616 C 524.951 -1.2392 -3.2444 0
M  V30 5617 C 523.905 -2.34858 -3.57807 0
M  V30 5618 C 523.231 -2.03707 -4.94376 0
M  V30 5619 C 524.531 -3.77159 -3.61315 0
M  V30 5620 H 526.225 -2.345 -1.86145 0
M  V30 5621 H 523.771 -1.12875 -0.89416 0
M  V30 5622 H 525.724 -1.23263 -4.02969 0
M  V30 5623 H 524.448 -0.26051 -3.25559 0
M  V30 5624 H 523.107 -2.34723 -2.81604 0
M  V30 5625 H 522.755 -1.04289 -4.9207 0
M  V30 5626 H 522.455 -2.78016 -5.17669 0
M  V30 5627 H 523.979 -2.04691 -5.75268 0
M  V30 5628 H 525.393 -3.79252 -4.29931 0
M  V30 5629 H 523.79 -4.50784 -3.96124 0
M  V30 5630 H 524.86 -4.08513 -2.61238 0
M  V30 5631 N 526.204 0.969867 -1.24223 0
M  V30 5632 C 527.452 1.70918 -1.0785 0
M  V30 5633 C 527.773 1.91186 0.383763 0
M  V30 5634 O 527.043 1.48806 1.27411 0
M  V30 5635 H 525.623 0.633334 -0.396103 0
M  V30 5636 H 528.285 1.16689 -1.56108 0
M  V30 5637 H 527.381 2.69455 -1.57482 0
M  V30 5638 N 527.682 1.05563 1.17022 0
M  V30 5639 C 528.612 0.681026 2.23348 0
M  V30 5640 C 529.593 -0.322983 1.67005 0
M  V30 5641 O 530.778 -0.199746 1.9317 0
M  V30 5642 C 527.908 0.0589053 3.4725 0
M  V30 5643 C 526.862 0.988082 4.16438 0
M  V30 5644 C 526.188 0.229646 5.34207 0
M  V30 5645 C 527.488 2.31388 4.68249 0
M  V30 5646 H 529.182 1.56993 2.54938 0
M  V30 5647 H 526.728 0.756302 1.2254 0
M  V30 5648 H 528.681 -0.214982 4.20851 0
M  V30 5649 H 527.405 -0.864968 3.14938 0
M  V30 5650 H 526.064 1.24659 3.44754 0
M  V30 5651 H 525.712 -0.697111 4.98146 0
M  V30 5652 H 525.412 0.848815 5.81437 0
M  V30 5653 H 526.936 -0.0368694 6.10589 0
M  V30 5654 H 528.35 2.09964 5.33468 0
M  V30 5655 H 526.747 2.88736 5.26072 0
M  V30 5656 H 527.817 2.94982 3.84855 0
M  V30 5657 N 529.16 -1.33526 0.837174 0
M  V30 5658 C 530.571 -1.80182 0.489017 0
M  V30 5659 C 530.922 -1.69285 -0.991826 0
M  V30 5660 O 530.047 -1.24113 -1.77271 0
M  V30 5661 C 530.642 -3.27149 0.880866 0
M  V30 5662 C 529.201 -3.71828 0.584872 0
M  V30 5663 C 528.348 -2.54974 1.09011 0
M  V30 5664 H 531.299 -1.21071 1.02603 0
M  V30 5665 H 531.32 -3.80024 0.190239 0
M  V30 5666 H 530.832 -3.35048 1.95869 0
M  V30 5667 H 528.933 -3.69457 -0.48295 0
M  V30 5668 H 529.046 -4.65366 1.13892 0
M  V30 5669 H 527.41 -2.4952 0.511047 0
M  V30 5670 H 528.193 -2.65637 2.17467 0
M  V30 5671 N 530.638 -0.59345 -1.46 0
M  V30 5672 C 531.601 0.123538 -2.28867 0
M  V30 5673 C 532.601 0.808628 -1.38989 0
M  V30 5674 O 533.791 0.658945 -1.61256 0
M  V30 5675 C 530.923 1.1847 -3.19653 0
M  V30 5676 H 532.116 -0.604843 -2.93737 0
M  V30 5677 H 529.669 -0.351875 -1.52288 0
M  V30 5678 H 530.404 1.94431 -2.59552 0
M  V30 5679 H 530.189 0.69783 -3.8584 0
M  V30 5680 H 531.679 1.68726 -3.81997 0
M  V30 5681 N 532.116 1.54067 -0.331816 0
M  V30 5682 C 533.344 2.05131 0.269996 0
M  V30 5683 C 533.759 1.20749 1.45138 0
M  V30 5684 O 533.116 0.240069 1.80914 0
M  V30 5685 C 533.167 3.54728 0.696456 0
M  V30 5686 O 532.888 4.35906 -0.43794 0
M  V30 5687 C 534.389 4.21916 1.36021 0
M  V30 5688 H 531.609 0.668807 0.0542042 0
M  V30 5689 H 534.153 1.98777 -0.4804 0
M  V30 5690 H 532.308 3.61342 1.39681 0
M  V30 5691 H 532.722 5.24404 -0.100334 0
M  V30 5692 H 534.196 5.28015 1.60947 0
M  V30 5693 H 534.673 3.73538 2.31011 0
M  V30 5694 H 535.279 4.19463 0.702212 0
M  V30 5695 N 533.594 0.0601682 1.57485 0
M  V30 5696 C 534.842 -0.610386 1.92662 0
M  V30 5697 C 535.163 -1.70849 0.939981 0
M  V30 5698 O 534.433 -1.95895 -0.0137455 0
M  V30 5699 H 533.013 -0.228457 0.711208 0
M  V30 5700 H 535.675 0.115288 1.94559 0
M  V30 5701 H 534.771 -1.0432 2.94149 0
M  V30 5702 N 535.072 -1.5615 -0.213296 0
M  V30 5703 C 536.483 -1.69645 -0.779582 0
M  V30 5704 C 536.834 -0.663615 -1.84636 0
M  V30 5705 O 535.959 0.183633 -2.15619 0
M  V30 5706 C 536.554 -3.07567 -1.42084 0
M  V30 5707 C 535.113 -3.22889 -1.93442 0
M  V30 5708 C 534.26 -2.65581 -0.797612 0
M  V30 5709 H 537.211 -1.58696 0.0114951 0
M  V30 5710 H 537.232 -3.03884 -2.28986 0
M  V30 5711 H 536.744 -3.82716 -0.644187 0
M  V30 5712 H 534.845 -2.52623 -2.73884 0
M  V30 5713 H 534.958 -4.30197 -2.10872 0
M  V30 5714 H 533.322 -2.24278 -1.20712 0
M  V30 5715 H 534.105 -3.43284 -0.033494 0
M  V30 5716 N 536.55 0.480323 -1.50102 0
M  V30 5717 C 537.775 1.26126 -1.64642 0
M  V30 5718 C 538.2 1.85257 -0.325823 0
M  V30 5719 O 537.558 1.66854 0.709194 0
M  V30 5720 C 537.606 2.35243 -2.73301 0
M  V30 5721 O 536.71 3.39646 -2.33911 0
M  V30 5722 H 536.051 0.371463 -0.550374 0
M  V30 5723 H 538.581 0.572696 -1.96421 0
M  V30 5724 H 538.591 2.80695 -2.96098 0
M  V30 5725 H 537.266 1.91574 -3.6915 0
M  V30 5726 H 535.843 2.99969 -2.21525 0
M  V30 5727 N 538.028 1.39524 0.732853 0
M  V30 5728 C 538.991 1.38189 1.82857 0
M  V30 5729 C 539.991 0.278624 1.58368 0
M  V30 5730 O 541.181 0.536639 1.65728 0
M  V30 5731 C 538.313 1.15661 3.2068 0
M  V30 5732 H 539.506 2.35692 1.85444 0
M  V30 5733 H 537.059 1.2512 0.936728 0
M  V30 5734 H 537.794 0.188482 3.23752 0
M  V30 5735 H 537.579 1.95559 3.39852 0
M  V30 5736 H 539.069 1.17472 4.00737 0
M  V30 5737 N 539.506 -0.963266 1.24736 0
M  V30 5738 C 540.754 -1.70343 1.08755 0
M  V30 5739 C 541.075 -1.91387 -0.373619 0
M  V30 5740 O 540.345 -1.4948 -1.2662 0
M  V30 5741 H 538.925 -0.631224 0.399456 0
M  V30 5742 H 541.587 -1.15859 1.56725 0
M  V30 5743 H 540.683 -2.68616 1.58909 0
M  V30 5744 N 540.985 -1.06182 -1.16461 0
M  V30 5745 C 542.213 -0.798583 -1.90867 0
M  V30 5746 C 542.628 0.646921 -1.77371 0
M  V30 5747 O 541.985 1.44279 -1.11758 0
M  V30 5748 C 542.036 -1.18258 -3.4161 0
M  V30 5749 O 541.757 -2.57135 -3.54701 0
M  V30 5750 C 543.258 -0.946917 -4.33069 0
M  V30 5751 H 540.478 -0.289603 -0.605286 0
M  V30 5752 H 543.022 -1.41515 -1.47627 0
M  V30 5753 H 541.177 -0.610562 -3.82558 0
M  V30 5754 H 541.591 -2.72477 -4.4817 0
M  V30 5755 H 543.065 -1.26523 -5.37304 0
M  V30 5756 H 543.542 0.117406 -4.39043 0
M  V30 5757 H 544.148 -1.50326 -3.97847 0
M  V30 5758 N 542.463 1.3308 -0.844243 0
M  V30 5759 C 543.426 2.27403 -0.286485 0
M  V30 5760 C 544.426 1.51179 0.547872 0
M  V30 5761 O 545.616 1.70421 0.360886 0
M  V30 5762 C 542.748 3.35653 0.595813 0
M  V30 5763 H 543.941 2.78248 -1.11885 0
M  V30 5764 H 541.494 1.43574 -0.617749 0
M  V30 5765 H 542.229 2.90058 1.4504 0
M  V30 5766 H 542.014 3.921 -0.00125994 0
M  V30 5767 H 543.504 4.05958 0.979168 0
M  V30 5768 N 543.941 0.601185 1.45683 0
M  V30 5769 C 545.189 0.0936957 2.01883 0
M  V30 5770 C 545.51 -1.2779 1.47291 0
M  V30 5771 O 544.78 -1.84279 0.664691 0
M  V30 5772 H 543.36 0.0316466 0.746329 0
M  V30 5773 H 546.022 0.781137 1.78562 0
M  V30 5774 H 545.118 0.0386297 3.12076 0
M  V30 5775 N 545.419 -1.53889 0.339982 0
M  V30 5776 C 546.351 -2.22435 -0.55275 0
M  V30 5777 C 547.364 -1.22975 -1.06681 0
M  V30 5778 O 548.553 -1.49351 -0.977575 0
M  V30 5779 C 545.653 -2.8882 -1.77302 0
M  V30 5780 C 544.826 -4.14563 -1.39486 0
M  V30 5781 C 543.885 -4.64391 -2.47442 0
M  V30 5782 O 542.911 -5.28687 -2.10899 0
M  V30 5783 N 544.113 -4.40015 -3.78639 0
M  V30 5784 H 546.878 -2.9968 0.0342669 0
M  V30 5785 H 544.439 -1.61068 0.16394 0
M  V30 5786 H 546.431 -3.19072 -2.48948 0
M  V30 5787 H 545.001 -2.15182 -2.26749 0
M  V30 5788 H 544.221 -3.90896 -0.509321 0
M  V30 5789 H 545.509 -4.96362 -1.11813 0
M  V30 5790 H 544.907 -3.88586 -4.11118 0
M  V30 5791 H 543.464 -4.74881 -4.46465 0
M  V30 5792 N 546.897 -0.0685191 -1.57451 0
M  V30 5793 C 547.829 0.929372 -2.09512 0
M  V30 5794 C 548.842 1.26354 -1.02657 0
M  V30 5795 O 550.031 1.2213 -1.30179 0
M  V30 5796 C 547.131 2.24612 -2.53777 0
M  V30 5797 C 546.304 2.09128 -3.84167 0
M  V30 5798 C 545.363 3.24079 -4.14559 0
M  V30 5799 O 544.389 2.99215 -4.8421 0
M  V30 5800 N 545.591 4.49077 -3.67845 0
M  V30 5801 H 548.356 0.484901 -2.95751 0
M  V30 5802 H 545.917 0.11729 -1.61475 0
M  V30 5803 H 547.909 3.00412 -2.71172 0
M  V30 5804 H 546.479 2.60569 -1.72692 0
M  V30 5805 H 545.699 1.17815 -3.76182 0
M  V30 5806 H 546.987 1.9603 -4.69521 0
M  V30 5807 H 546.385 4.72165 -3.11571 0
M  V30 5808 H 544.942 5.21915 -3.90446 0
M  V30 5809 N 548.375 1.56261 0.205012 0
M  V30 5810 C 549.652 1.70856 0.952233 0
M  V30 5811 C 550.032 0.620501 2.01775 0
M  V30 5812 O 549.38 -0.370035 2.25484 0
M  V30 5813 C 549.59 3.12807 1.54767 0
M  V30 5814 C 550.938 3.72733 2.0336 0
M  V30 5815 O 551.962 3.15873 1.64629 0
M  V30 5816 O 550.821 4.72501 2.746 0
M  V30 5817 H 547.915 0.696496 0.445895 0
M  V30 5818 H 550.461 1.6857 0.195489 0
M  V30 5819 H 549.233 3.83465 0.779132 0
M  V30 5820 H 548.856 3.1928 2.36951 0
M  V30 5821 N 549.853 -0.472356 1.50355 0
M  V30 5822 C 550.816 -1.5529 1.68576 0
M  V30 5823 C 551.816 -1.50863 0.556511 0
M  V30 5824 O 553.006 -1.53505 0.823516 0
M  V30 5825 C 550.138 -2.94921 1.70981 0
M  V30 5826 H 551.331 -1.40451 2.64978 0
M  V30 5827 H 548.884 -0.698645 1.39816 0
M  V30 5828 H 549.619 -3.15204 0.762675 0
M  V30 5829 H 549.404 -2.99541 2.53017 0
M  V30 5830 H 550.894 -3.73372 1.87037 0
M  V30 5831 N 551.331 -1.39911 -0.725443 0
M  V30 5832 C 552.241 -1.41688 -1.8698 0
M  V30 5833 C 553.257 -0.310579 -1.71206 0
M  V30 5834 O 554.433 -0.55359 -1.93642 0
M  V30 5835 C 551.498 -1.26811 -3.22676 0
M  V30 5836 C 550.559 -2.47497 -3.50776 0
M  V30 5837 C 549.792 -2.3332 -4.79997 0
M  V30 5838 O 550.015 -1.34175 -5.54394 0
M  V30 5839 O 548.949 -3.22498 -5.08211 0
M  V30 5840 H 552.775 -2.38171 -1.88436 0
M  V30 5841 H 550.36 -1.21128 -0.874548 0
M  V30 5842 H 552.242 -1.20684 -4.03749 0
M  V30 5843 H 550.917 -0.334289 -3.21969 0
M  V30 5844 H 549.824 -2.59201 -2.69751 0
M  V30 5845 H 551.157 -3.39606 -3.5627 0
M  V30 5846 N 552.809 0.956637 -1.25245 0
M  V30 5847 C 554.225 1.22733 -1.02023 0
M  V30 5848 C 554.425 1.99761 0.264186 0
M  V30 5849 O 553.481 2.32814 0.977436 0
M  V30 5850 C 554.794 2.00367 -2.24217 0
M  V30 5851 C 556.342 2.13418 -2.28958 0
M  V30 5852 C 556.817 2.9445 -3.50803 0
M  V30 5853 N 558.308 3.02029 -3.51187 0
M  V30 5854 C 559.043 3.65116 -4.42129 0
M  V30 5855 N 558.539 4.2983 -5.43339 0
M  V30 5856 N 560.332 3.62237 -4.29815 0
M  V30 5857 H 552.483 0.441282 -2.07765 0
M  V30 5858 H 554.746 0.257686 -0.912306 0
M  V30 5859 H 554.452 1.51165 -3.17556 0
M  V30 5860 H 554.326 3.01077 -2.27228 0
M  V30 5861 H 556.713 2.61819 -1.36143 0
M  V30 5862 H 556.794 1.1202 -2.29968 0
M  V30 5863 H 556.438 2.46741 -4.43939 0
M  V30 5864 H 556.368 3.9607 -3.47039 0
M  V30 5865 H 558.859 2.56007 -2.77973 0
M  V30 5866 H 559.172 4.75819 -6.08947 0
M  V30 5867 H 557.517 4.28465 -5.47214 0
M  V30 5868 H 560.708 3.10863 -3.49974 0
M  V30 5869 H 560.881 4.11117 -5.00886 0
M  V30 5870 N 554.287 1.06798 1.15896 0
M  V30 5871 C 555.217 0.704677 2.22613 0
M  V30 5872 C 556.198 -0.305252 1.67339 0
M  V30 5873 O 557.383 -0.179247 1.93371 0
M  V30 5874 C 554.513 0.0957325 3.47168 0
M  V30 5875 C 553.467 1.0322 4.15367 0
M  V30 5876 C 552.793 0.286293 5.33933 0
M  V30 5877 C 554.093 2.36341 4.65768 0
M  V30 5878 H 555.787 1.59688 2.53259 0
M  V30 5879 H 553.333 0.769257 1.21731 0
M  V30 5880 H 555.286 -0.170333 4.21056 0
M  V30 5881 H 554.01 -0.831516 3.15838 0
M  V30 5882 H 552.669 1.28309 3.43413 0
M  V30 5883 H 552.317 -0.644237 4.98857 0
M  V30 5884 H 552.017 0.910436 5.80504 0
M  V30 5885 H 553.541 0.0278938 6.10594 0
M  V30 5886 H 554.955 2.1561 5.31211 0
M  V30 5887 H 553.352 2.94299 5.2298 0
M  V30 5888 H 554.422 2.99047 3.81705 0
M  V30 5889 N 555.766 -1.3263 0.851289 0
M  V30 5890 C 556.994 -2.01563 0.466899 0
M  V30 5891 C 557.409 -1.63996 -0.935447 0
M  V30 5892 O 556.766 -0.85957 -1.6099 0
M  V30 5893 C 556.817 -3.56613 0.592433 0
M  V30 5894 O 556.538 -3.92828 1.93954 0
M  V30 5895 C 558.039 -4.42818 0.206612 0
M  V30 5896 H 555.259 -0.645307 0.183902 0
M  V30 5897 H 557.803 -1.69285 1.1473 0
M  V30 5898 H 555.958 -3.87379 -0.0401936 0
M  V30 5899 H 556.372 -4.87545 1.9339 0
M  V30 5900 H 557.846 -5.50918 0.345462 0
M  V30 5901 H 558.323 -4.30844 -0.85264 0
M  V30 5902 H 558.929 -4.17434 0.814176 0
M  V30 5903 N 557.244 -0.608902 -1.45362 0
M  V30 5904 C 558.174 0.0964526 -2.33301 0
M  V30 5905 C 559.155 0.857444 -1.46908 0
M  V30 5906 O 560.34 0.827735 -1.75676 0
M  V30 5907 C 557.47 1.09354 -3.29635 0
M  V30 5908 C 556.424 0.445676 -4.25673 0
M  V30 5909 C 555.75 1.5511 -5.11708 0
M  V30 5910 C 557.05 -0.633972 -5.18438 0
M  V30 5911 H 558.744 -0.637829 -2.92527 0
M  V30 5912 H 556.29 -0.308178 -1.40664 0
M  V30 5913 H 558.243 1.59556 -3.90025 0
M  V30 5914 H 556.967 1.85843 -2.6857 0
M  V30 5915 H 555.626 -0.0354897 -3.66583 0
M  V30 5916 H 555.274 2.30631 -4.4701 0
M  V30 5917 H 554.974 1.12311 -5.76767 0
M  V30 5918 H 556.498 2.05537 -5.74967 0
M  V30 5919 H 557.912 -0.215974 -5.72893 0
M  V30 5920 H 556.309 -0.983789 -5.91981 0
M  V30 5921 H 557.379 -1.51005 -4.60788 0
M  V30 5922 N 558.722 1.53707 -0.348139 0
M  V30 5923 C 560.133 1.86213 0.134797 0
M  V30 5924 C 560.484 1.26925 1.49614 0
M  V30 5925 O 559.609 0.584573 2.08355 0
M  V30 5926 C 560.204 3.37866 0.251371 0
M  V30 5927 C 558.763 3.70233 0.678543 0
M  V30 5928 C 557.91 2.76683 -0.184925 0
M  V30 5929 H 560.861 1.48204 -0.567571 0
M  V30 5930 H 560.882 3.64908 1.07806 0
M  V30 5931 H 560.394 3.80988 -0.739581 0
M  V30 5932 H 558.495 3.32659 1.67835 0
M  V30 5933 H 558.608 4.76836 0.465251 0
M  V30 5934 H 556.972 2.52374 0.343465 0
M  V30 5935 H 557.755 3.22635 -1.1731 0
M  V30 5936 N 560.2 0.0768682 1.57412 0
M  V30 5937 C 561.163 -0.873949 2.11884 0
M  V30 5938 C 562.163 -1.22301 1.04398 0
M  V30 5939 O 563.353 -1.15545 1.30365 0
M  V30 5940 C 560.485 -2.17575 2.62438 0
M  V30 5941 H 561.678 -0.401278 2.97203 0
M  V30 5942 H 559.231 -0.171904 1.55352 0
M  V30 5943 H 559.966 -2.69368 1.80587 0
M  V30 5944 H 559.751 -1.93534 3.41009 0
M  V30 5945 H 561.241 -2.85631 3.04639 0
M  V30 5946 N 561.678 -1.56367 -0.196722 0
M  V30 5947 C 562.608 -1.97442 -1.24655 0
M  V30 5948 C 563.589 -0.846147 -1.47561 0
M  V30 5949 O 564.774 -1.11035 -1.59326 0
M  V30 5950 C 561.904 -2.31253 -2.59112 0
M  V30 5951 C 560.858 -3.46804 -2.50821 0
M  V30 5952 C 560.184 -3.66286 -3.89536 0
M  V30 5953 C 561.484 -4.8104 -2.03465 0
M  V30 5954 H 563.178 -2.85388 -0.905216 0
M  V30 5955 H 560.724 -1.37304 -0.434002 0
M  V30 5956 H 562.677 -2.58583 -3.32736 0
M  V30 5957 H 561.401 -1.40188 -2.94983 0
M  V30 5958 H 560.06 -3.19563 -1.79653 0
M  V30 5959 H 559.708 -2.72555 -4.22756 0
M  V30 5960 H 559.408 -4.4402 -3.84864 0
M  V30 5961 H 560.932 -3.9599 -4.64784 0
M  V30 5962 H 562.346 -5.07411 -2.66846 0
M  V30 5963 H 560.743 -5.62232 -2.09798 0
M  V30 5964 H 561.813 -4.74732 -0.98781 0
M  V30 5965 N 563.156 0.464375 -1.50603 0
M  V30 5966 C 564.088 1.57916 -1.66118 0
M  V30 5967 C 565.101 1.53497 -0.54246 0
M  V30 5968 O 566.29 1.58763 -0.815877 0
M  V30 5969 C 563.39 2.96809 -1.63577 0
M  V30 5970 C 562.563 3.26026 -2.91592 0
M  V30 5971 C 561.622 4.44506 -2.81604 0
M  V30 5972 O 560.648 4.44484 -3.55559 0
M  V30 5973 N 561.85 5.46549 -1.95614 0
M  V30 5974 H 564.615 1.45022 -2.62276 0
M  V30 5975 H 562.176 0.652903 -1.48151 0
M  V30 5976 H 564.168 3.74048 -1.54499 0
M  V30 5977 H 562.738 3.03438 -0.751262 0
M  V30 5978 H 561.958 2.37337 -3.14746 0
M  V30 5979 H 563.246 3.42361 -3.76386 0
M  V30 5980 H 562.644 5.49391 -1.34854 0
M  V30 5981 H 561.201 6.22746 -1.92435 0
M  V30 5982 N 564.634 1.40294 0.718013 0
M  V30 5983 C 565.566 1.36281 1.84283 0
M  V30 5984 C 566.579 0.268621 1.60569 0
M  V30 5985 O 567.768 0.528798 1.70487 0
M  V30 5986 C 564.868 1.09741 3.2064 0
M  V30 5987 C 564.041 2.30767 3.71571 0
M  V30 5988 C 563.1 2.00424 4.86535 0
M  V30 5989 O 562.126 2.73268 4.99313 0
M  V30 5990 N 563.328 0.980724 5.72156 0
M  V30 5991 H 566.093 2.3322 1.88225 0
M  V30 5992 H 563.654 1.34616 0.899453 0
M  V30 5993 H 565.646 0.874322 3.95143 0
M  V30 5994 H 564.216 0.214771 3.11861 0
M  V30 5995 H 563.436 2.68921 2.88228 0
M  V30 5996 H 564.724 3.11455 4.02335 0
M  V30 5997 H 564.122 0.377375 5.6444 0
M  V30 5998 H 562.679 0.817538 6.46653 0
M  V30 5999 N 566.112 -0.949982 1.2575 0
M  V30 6000 C 567.528 -1.22191 1.02672 0
M  V30 6001 C 567.728 -1.99898 -0.253588 0
M  V30 6002 O 566.784 -2.33329 -0.965076 0
M  V30 6003 C 568.097 -1.99175 2.25277 0
M  V30 6004 C 569.645 -2.12201 2.30087 0
M  V30 6005 C 570.12 -2.92586 3.5236 0
M  V30 6006 N 571.611 -3.00163 3.52784 0
M  V30 6007 C 572.346 -3.62766 4.44059 0
M  V30 6008 N 571.842 -4.26943 5.45611 0
M  V30 6009 N 573.635 -3.59953 4.3173 0
M  V30 6010 H 565.786 -0.430258 2.07996 0
M  V30 6011 H 568.049 -0.252844 0.91366 0
M  V30 6012 H 567.755 -1.49479 3.18354 0
M  V30 6013 H 567.629 -2.99868 2.28821 0
M  V30 6014 H 570.016 -2.61093 1.3753 0
M  V30 6015 H 570.097 -1.10799 2.30559 0
M  V30 6016 H 569.741 -2.44383 4.45241 0
M  V30 6017 H 569.671 -3.94224 3.49134 0
M  V30 6018 H 572.162 -2.54529 2.79327 0
M  V30 6019 H 572.475 -4.72583 6.11461 0
M  V30 6020 H 570.82 -4.25557 5.49478 0
M  V30 6021 H 574.011 -3.09003 3.51617 0
M  V30 6022 H 574.184 -4.08455 5.03059 0
M  V30 6023 N 567.59 -1.07411 -1.15328 0
M  V30 6024 C 568.52 -0.716472 -2.22236 0
M  V30 6025 C 569.501 0.296373 -1.67498 0
M  V30 6026 O 570.686 0.168989 -1.93463 0
M  V30 6027 C 567.816 -0.114142 -3.47112 0
M  V30 6028 C 566.77 -1.05421 -4.14814 0
M  V30 6029 C 566.096 -0.314604 -5.33774 0
M  V30 6030 C 567.396 -2.38808 -4.64508 0
M  V30 6031 H 569.09 -1.61029 -2.52408 0
M  V30 6032 H 566.636 -0.775702 -1.21321 0
M  V30 6033 H 568.589 0.148001 -4.2114 0
M  V30 6034 H 567.313 0.814755 -3.16274 0
M  V30 6035 H 565.972 -1.30128 -3.42728 0
M  V30 6036 H 565.62 0.617772 -4.99192 0
M  V30 6037 H 565.32 -0.941209 -5.80013 0
M  V30 6038 H 566.844 -0.0602747 -6.1057 0
M  V30 6039 H 568.258 -2.18424 -5.3006 0
M  V30 6040 H 566.655 -2.97069 -5.21412 0
M  V30 6041 H 567.725 -3.01067 -3.80114 0
M  V30 6042 N 569.068 1.32177 -0.85831 0
M  V30 6043 C 570.293 2.01847 -0.476718 0
M  V30 6044 C 570.718 1.64065 0.920021 0
M  V30 6045 O 570.076 0.843189 1.60499 0
M  V30 6046 C 570.124 3.55097 -0.627578 0
M  V30 6047 O 569.228 4.11012 0.338086 0
M  V30 6048 H 568.569 0.635907 -0.191099 0
M  V30 6049 H 571.099 1.68641 -1.15851 0
M  V30 6050 H 571.109 4.04718 -0.516476 0
M  V30 6051 H 569.784 3.81938 -1.64609 0
M  V30 6052 H 568.361 3.72451 0.182917 0
M  V30 6053 N 570.547 0.616602 1.45037 0
M  V30 6054 C 571.477 -0.0840787 2.33349 0
M  V30 6055 C 572.458 -0.849641 1.4736 0
M  V30 6056 O 573.643 -0.818407 1.76113 0
M  V30 6057 C 570.773 -1.07604 3.3021 0
M  V30 6058 C 569.727 -0.423096 4.25904 0
M  V30 6059 C 569.053 -1.52394 5.12523 0
M  V30 6060 C 570.353 0.661457 5.18095 0
M  V30 6061 H 572.047 0.653333 2.92185 0
M  V30 6062 H 569.593 0.315634 1.40498 0
M  V30 6063 H 571.546 -1.57485 3.90866 0
M  V30 6064 H 570.27 -1.84416 2.69552 0
M  V30 6065 H 568.929 0.05493 3.66559 0
M  V30 6066 H 568.577 -2.28257 4.48227 0
M  V30 6067 H 568.277 -1.09251 5.77354 0
M  V30 6068 H 569.801 -2.02485 5.76049 0
M  V30 6069 H 571.215 0.246353 5.7277 0
M  V30 6070 H 569.612 1.01517 5.91451 0
M  V30 6071 H 570.682 1.53446 4.59981 0
M  V30 6072 N 572.025 -1.5352 0.356285 0
M  V30 6073 C 573.272 -2.01117 -0.236303 0
M  V30 6074 C 573.6 -1.24381 -1.49531 0
M  V30 6075 O 572.855 -0.323057 -1.93015 0
M  V30 6076 C 573.154 -3.52607 -0.583369 0
M  V30 6077 C 572.82 -4.47151 0.58023 0
M  V30 6078 C 571.482 -4.72718 0.899528 0
M  V30 6079 C 573.834 -5.03137 1.36024 0
M  V30 6080 C 571.162 -5.51523 2.00098 0
M  V30 6081 C 573.514 -5.83145 2.45204 0
M  V30 6082 C 572.178 -6.07001 2.77679 0
M  V30 6083 H 571.448 -0.735938 -0.0864695 0
M  V30 6084 H 574.095 -1.85209 0.48683 0
M  V30 6085 H 572.4 -3.66413 -1.38739 0
M  V30 6086 H 574.097 -3.86901 -1.05397 0
M  V30 6087 H 570.687 -4.27394 0.321322 0
M  V30 6088 H 574.871 -4.83339 1.12682 0
M  V30 6089 H 570.127 -5.68229 2.25668 0
M  V30 6090 H 574.301 -6.25537 3.06067 0
M  V30 6091 H 571.928 -6.67851 3.63151 0
M  V30 6092 N 573.503 -0.0852151 -1.57369 0
M  V30 6093 C 574.914 0.445428 -1.81309 0
M  V30 6094 C 575.265 1.68795 -1.00013 0
M  V30 6095 O 574.39 2.15211 -0.226573 0
M  V30 6096 C 574.985 0.814887 -3.28854 0
M  V30 6097 C 573.544 1.29032 -3.53592 0
M  V30 6098 C 572.691 0.282089 -2.75861 0
M  V30 6099 H 575.642 -0.310771 -1.55627 0
M  V30 6100 H 575.663 1.67524 -3.41637 0
M  V30 6101 H 575.175 -0.0896309 -3.87996 0
M  V30 6102 H 573.276 2.21289 -2.9977 0
M  V30 6103 H 573.389 1.25898 -4.62262 0
M  V30 6104 H 571.753 0.762182 -2.43029 0
M  V30 6105 H 572.536 -0.614936 -3.37748 0
M  V30 6106 N 574.981 1.5647 0.188427 0
M  V30 6107 C 576.229 1.80655 0.905986 0
M  V30 6108 C 576.55 0.659391 1.83513 0
M  V30 6109 O 575.82 -0.321868 1.93238 0
M  V30 6110 H 574.4 0.666391 0.337538 0
M  V30 6111 H 577.062 1.93949 0.192339 0
M  V30 6112 H 576.158 2.74066 1.49313 0
M  V30 6113 N 576.459 -0.456382 1.50847 0
M  V30 6114 C 577.687 -1.23026 1.66349 0
M  V30 6115 C 578.102 -1.85473 0.352868 0
M  V30 6116 O 577.459 -1.69885 -0.666739 0
M  V30 6117 C 577.51 -2.32827 2.76539 0
M  V30 6118 O 577.231 -1.72938 4.02522 0
M  V30 6119 C 578.732 -3.23448 3.03144 0
M  V30 6120 H 575.952 -0.371527 0.558756 0
M  V30 6121 H 578.496 -0.543082 1.97157 0
M  V30 6122 H 576.651 -2.97294 2.48384 0
M  V30 6123 H 577.065 -2.45357 4.63573 0
M  V30 6124 H 578.539 -3.96669 3.83872 0
M  V30 6125 H 579.016 -3.83094 2.14793 0
M  V30 6126 H 579.622 -2.64702 3.32886 0
M  V30 6127 N 577.937 -1.40673 -0.710563 0
M  V30 6128 C 578.887 -1.37812 -1.81636 0
M  V30 6129 C 579.871 -0.254853 -1.58869 0
M  V30 6130 O 581.063 -0.494356 -1.69956 0
M  V30 6131 C 578.192 -1.24802 -3.19811 0
M  V30 6132 C 577.278 -2.41931 -3.48325 0
M  V30 6133 N 577.669 -3.67411 -3.47625 0
M  V30 6134 C 575.967 -2.35419 -3.78806 0
M  V30 6135 C 576.668 -4.45008 -3.74623 0
M  V30 6136 N 575.644 -3.74916 -3.93623 0
M  V30 6137 H 579.446 -2.32766 -1.79436 0
M  V30 6138 H 576.96 -1.34516 -0.909909 0
M  V30 6139 H 578.957 -1.20835 -3.99004 0
M  V30 6140 H 577.617 -0.308202 -3.23234 0
M  V30 6141 H 578.628 -4.00503 -3.28356 0
M  V30 6142 H 575.305 -1.4983 -3.89689 0
M  V30 6143 H 576.695 -5.53884 -3.80344 0
M  V30 6144 N 579.415 0.9433 -1.26252 0
M  V30 6145 C 580.345 2.05902 -1.10122 0
M  V30 6146 C 581.326 1.70099 -0.00700552 0
M  V30 6147 O 582.511 1.93377 -0.178641 0
M  V30 6148 C 579.641 3.39516 -0.731175 0
M  V30 6149 C 578.595 3.89372 -1.77688 0
M  V30 6150 C 577.921 5.19613 -1.26122 0
M  V30 6151 C 579.221 4.14489 -3.17799 0
M  V30 6152 H 580.915 2.19655 -2.03451 0
M  V30 6153 H 578.461 1.05548 -0.979576 0
M  V30 6154 H 580.414 4.17031 -0.605215 0
M  V30 6155 H 579.138 3.25733 0.23782 0
M  V30 6156 H 577.797 3.14036 -1.89148 0
M  V30 6157 H 577.445 5.02208 -0.282128 0
M  V30 6158 H 577.145 5.53939 -1.96023 0
M  V30 6159 H 578.669 5.99713 -1.14789 0
M  V30 6160 H 580.083 4.82625 -3.09428 0
M  V30 6161 H 578.48 4.60094 -3.85271 0
M  V30 6162 H 579.55 3.20347 -3.64014 0
M  V30 6163 N 580.893 1.08022 1.14757 0
M  V30 6164 C 582.121 0.828847 1.89572 0
M  V30 6165 C 582.536 -0.618621 1.78377 0
M  V30 6166 O 581.893 -1.42482 1.1404 0
M  V30 6167 C 581.944 1.23677 3.39685 0
M  V30 6168 O 581.665 2.62746 3.50566 0
M  V30 6169 C 583.166 1.01569 4.31507 0
M  V30 6170 H 580.386 0.299196 0.600602 0
M  V30 6171 H 582.93 1.43846 1.45357 0
M  V30 6172 H 581.085 0.671347 3.81539 0
M  V30 6173 H 581.499 2.79573 4.43778 0
M  V30 6174 H 582.973 1.35055 5.35223 0
M  V30 6175 H 583.45 -0.0475433 4.39174 0
M  V30 6176 H 584.056 1.56636 3.95405 0
M  V30 6177 N 582.371 -1.3172 0.865308 0
M  V30 6178 C 583.782 -1.79104 0.527126 0
M  V30 6179 C 584.133 -1.7135 -0.955695 0
M  V30 6180 O 583.258 -1.27845 -1.74598 0
M  V30 6181 C 583.853 -3.25207 0.950061 0
M  V30 6182 C 582.412 -3.70504 0.663611 0
M  V30 6183 C 581.559 -2.52605 1.14395 0
M  V30 6184 H 584.51 -1.18868 1.05148 0
M  V30 6185 H 584.531 -3.79535 0.270805 0
M  V30 6186 H 584.043 -3.30818 2.02931 0
M  V30 6187 H 582.144 -3.70398 -0.404474 0
M  V30 6188 H 582.257 -4.62845 1.23737 0
M  V30 6189 H 580.621 -2.4838 0.563859 0
M  V30 6190 H 581.404 -2.60964 2.23053 0
M  V30 6191 N 583.85 -0.624285 -1.44708 0
M  V30 6192 C 585.08 -0.132726 -2.06173 0
M  V30 6193 C 585.488 1.19513 -1.46674 0
M  V30 6194 O 584.831 1.74254 -0.581491 0
M  V30 6195 C 584.893 0.0636732 -3.59444 0
M  V30 6196 C 584.557 -1.18496 -4.4137 0
M  V30 6197 C 585.553 -2.10706 -4.75288 0
M  V30 6198 C 583.239 -1.41846 -4.81856 0
M  V30 6199 C 585.233 -3.24582 -5.48567 0
M  V30 6200 C 582.92 -2.5602 -5.54885 0
M  V30 6201 C 583.918 -3.47215 -5.88159 0
M  V30 6202 O 583.606 -4.59399 -6.59703 0
M  V30 6203 H 583.338 -0.0737313 -0.671967 0
M  V30 6204 H 585.892 -0.856789 -1.86677 0
M  V30 6205 H 584.122 0.842809 -3.77404 0
M  V30 6206 H 585.811 0.508924 -4.02697 0
M  V30 6207 H 586.577 -1.93898 -4.44554 0
M  V30 6208 H 582.456 -0.717556 -4.55381 0
M  V30 6209 H 586 -3.95785 -5.74456 0
M  V30 6210 H 581.897 -2.72774 -5.85034 0
M  V30 6211 H 582.665 -4.58293 -6.78166 0
M  V30 6212 N 585.328 1.53329 -0.364422 0
M  V30 6213 C 586.258 2.28627 0.474543 0
M  V30 6214 C 587.239 1.31009 1.08492 0
M  V30 6215 O 588.424 1.59878 1.10239 0
M  V30 6216 C 585.554 3.07465 1.61501 0
M  V30 6217 C 584.508 4.1276 1.13194 0
M  V30 6218 C 583.834 4.79674 2.36255 0
M  V30 6219 C 585.134 5.21847 0.217507 0
M  V30 6220 H 586.828 2.99005 -0.153656 0
M  V30 6221 H 584.374 1.43803 -0.0753406 0
M  V30 6222 H 586.327 3.58889 2.20855 0
M  V30 6223 H 585.051 2.34775 2.27042 0
M  V30 6224 H 583.71 3.62281 0.56109 0
M  V30 6225 H 583.358 4.03557 3.00251 0
M  V30 6226 H 583.058 5.50827 2.04606 0
M  V30 6227 H 584.582 5.33892 2.96297 0
M  V30 6228 H 585.996 5.6878 0.718493 0
M  V30 6229 H 584.393 6.00099 -0.00806408 0
M  V30 6230 H 585.463 4.7921 -0.740653 0
M  V30 6231 N 586.806 0.0935595 1.57322 0
M  V30 6232 C 588.031 -0.582324 1.99057 0
M  V30 6233 C 588.456 -1.61025 0.972242 0
M  V30 6234 O 587.814 -1.81202 -0.0594622 0
M  V30 6235 C 587.862 -1.20799 3.39765 0
M  V30 6236 O 586.966 -2.32382 3.40694 0
M  V30 6237 H 586.307 -0.147884 0.647323 0
M  V30 6238 H 588.837 0.174516 2.03854 0
M  V30 6239 H 588.847 -1.54966 3.77425 0
M  V30 6240 H 587.522 -0.454914 4.13405 0
M  V30 6241 H 586.099 -1.99845 3.14827 0
M  V30 6242 N 588.284 -1.56567 -0.180126 0
M  V30 6243 C 589.512 -1.85618 -0.913972 0
M  V30 6244 C 589.927 -0.677892 -1.7621 0
M  V30 6245 O 589.284 0.353171 -1.7905 0
M  V30 6246 C 589.335 -3.13619 -1.79793 0
M  V30 6247 O 589.056 -4.26906 -0.98402 0
M  V30 6248 C 590.557 -3.55954 -2.64219 0
M  V30 6249 H 587.777 -0.616043 -0.265954 0
M  V30 6250 H 590.321 -2.03681 -0.182872 0
M  V30 6251 H 588.476 -2.97409 -2.48247 0
M  V30 6252 H 588.89 -4.9989 -1.58776 0
M  V30 6253 H 590.364 -4.48444 -3.21873 0
M  V30 6254 H 590.841 -2.79653 -3.38661 0
M  V30 6255 H 591.447 -3.74746 -2.01111 0
M  V30 6256 N 589.762 0.448376 -1.51087 0
M  V30 6257 C 590.987 1.22605 -1.6728 0
M  V30 6258 C 591.412 1.84524 -0.365045 0
M  V30 6259 O 590.77 1.6832 0.673642 0
M  V30 6260 C 590.818 2.29393 -2.78229 0
M  V30 6261 O 589.922 3.34608 -2.41063 0
M  V30 6262 H 589.263 0.359705 -0.558129 0
M  V30 6263 H 591.793 0.530903 -1.97592 0
M  V30 6264 H 591.803 2.74352 -3.01986 0
M  V30 6265 H 590.478 1.83701 -3.73131 0
M  V30 6266 H 589.055 2.95202 -2.27838 0
M  V30 6267 N 591.24 1.41047 0.703093 0
M  V30 6268 C 592.651 1.35657 1.28274 0
M  V30 6269 C 593.002 0.0360309 1.96167 0
M  V30 6270 O 592.127 -0.865833 1.98324 0
M  V30 6271 C 592.722 2.45707 2.33267 0
M  V30 6272 C 591.281 2.43738 2.86825 0
M  V30 6273 C 590.428 2.25941 1.60767 0
M  V30 6274 H 593.379 1.50672 0.49836 0
M  V30 6275 H 593.4 2.14333 3.14391 0
M  V30 6276 H 592.912 3.41805 1.83824 0
M  V30 6277 H 591.013 1.51375 3.40465 0
M  V30 6278 H 591.126 3.39779 3.37768 0
M  V30 6279 H 589.49 1.73681 1.86298 0
M  V30 6280 H 590.273 3.24054 1.1333 0
M  V30 6281 N 592.718 -0.936591 1.26751 0
M  V30 6282 C 593.648 -2.05315 1.11212 0
M  V30 6283 C 594.629 -1.70092 0.0160262 0
M  V30 6284 O 595.814 -1.93279 0.188894 0
M  V30 6285 C 592.944 -3.39123 0.749171 0
M  V30 6286 C 591.898 -3.88425 1.79751 0
M  V30 6287 C 591.224 -5.18936 1.28876 0
M  V30 6288 C 592.524 -4.12798 3.19992 0
M  V30 6289 H 594.218 -2.18573 2.04613 0
M  V30 6290 H 591.764 -1.05027 0.985159 0
M  V30 6291 H 593.717 -4.16704 0.627323 0
M  V30 6292 H 592.441 -3.25855 -0.220543 0
M  V30 6293 H 591.1 -3.13028 1.90811 0
M  V30 6294 H 590.748 -5.02051 0.308757 0
M  V30 6295 H 590.448 -5.52892 1.98958 0
M  V30 6296 H 591.972 -5.99096 1.17967 0
M  V30 6297 H 593.386 -4.80977 3.11983 0
M  V30 6298 H 591.783 -4.58044 3.87705 0
M  V30 6299 H 592.853 -3.18412 3.65707 0
M  V30 6300 N 594.196 -1.08629 -1.14182 0
M  V30 6301 C 595.106 -0.730126 -2.22949 0
M  V30 6302 C 596.122 0.26436 -1.7198 0
M  V30 6303 O 597.298 0.107742 -2.01112 0
M  V30 6304 C 594.363 -0.147227 -3.46387 0
M  V30 6305 C 593.424 -1.19662 -4.12286 0
M  V30 6306 C 592.657 -0.641437 -5.29831 0
M  V30 6307 O 592.88 0.538351 -5.67854 0
M  V30 6308 O 591.814 -1.39257 -5.85569 0
M  V30 6309 H 595.64 -1.63753 -2.55771 0
M  V30 6310 H 593.225 -0.860118 -1.22157 0
M  V30 6311 H 595.107 0.174923 -4.21037 0
M  V30 6312 H 593.782 0.733304 -3.15285 0
M  V30 6313 H 592.689 -1.57133 -3.395 0
M  V30 6314 H 594.022 -2.0495 -4.475 0
M  V30 6315 N 595.674 1.31259 -0.872281 0
M  V30 6316 C 597.09 1.49283 -0.564521 0
M  V30 6317 C 597.29 1.80243 0.900807 0
M  V30 6318 O 596.346 1.88246 1.68284 0
M  V30 6319 C 597.659 2.62503 -1.46673 0
M  V30 6320 C 599.207 2.76386 -1.46901 0
M  V30 6321 C 599.682 3.92705 -2.35684 0
M  V30 6322 N 601.173 3.99995 -2.33577 0
M  V30 6323 C 601.908 4.89276 -2.98992 0
M  V30 6324 N 601.404 5.83443 -3.73585 0
M  V30 6325 N 603.197 4.82541 -2.88289 0
M  V30 6326 H 595.348 1.09432 -1.82039 0
M  V30 6327 H 597.611 0.540949 -0.77851 0
M  V30 6328 H 597.317 2.46407 -2.50951 0
M  V30 6329 H 597.191 3.58695 -1.16696 0
M  V30 6330 H 599.578 2.91894 -0.433796 0
M  V30 6331 H 599.659 1.80853 -1.80903 0
M  V30 6332 H 599.303 3.77954 -3.39283 0
M  V30 6333 H 599.233 4.87549 -1.99006 0
M  V30 6334 H 601.724 3.32624 -1.7936 0
M  V30 6335 H 602.037 6.48303 -4.20622 0
M  V30 6336 H 600.382 5.83415 -3.77694 0
M  V30 6337 H 603.573 4.07951 -2.2955 0
M  V30 6338 H 603.746 5.51916 -3.39549 0
M  V30 6339 N 597.152 0.631951 1.44375 0
M  V30 6340 C 598.429 0.067646 1.95483 0
M  V30 6341 C 598.809 -1.40683 1.57389 0
M  V30 6342 O 598.157 -2.12167 0.848375 0
M  V30 6343 C 598.367 0.291392 3.47781 0
M  V30 6344 C 599.715 0.185028 4.24197 0
M  V30 6345 O 600.739 0.222803 3.55503 0
M  V30 6346 O 599.598 0.0906642 5.46425 0
M  V30 6347 H 596.692 -0.0218379 0.826712 0
M  V30 6348 H 599.238 0.703711 1.54421 0
M  V30 6349 H 598.01 1.31449 3.68561 0
M  V30 6350 H 597.633 -0.378772 3.95792 0
M  V30 6351 N 598.631 -1.53133 0.372548 0
M  V30 6352 C 599.879 -2.00958 -0.214534 0
M  V30 6353 C 600.2 -1.26135 -1.48711 0
M  V30 6354 O 599.47 -0.376597 -1.92246 0
M  V30 6355 H 598.05 -0.742456 -0.0822664 0
M  V30 6356 H 600.712 -1.88367 0.500385 0
M  V30 6357 H 599.808 -3.09031 -0.436605 0
M  V30 6358 N 600.109 -0.101901 -1.5727 0
M  V30 6359 C 601.357 0.559091 -1.94213 0
M  V30 6360 C 601.678 1.68297 -0.984948 0
M  V30 6361 O 600.948 1.95863 -0.0381975 0
M  V30 6362 H 599.528 0.20952 -0.717015 0
M  V30 6363 H 602.19 -0.166831 -1.94185 0
M  V30 6364 H 601.286 0.96485 -2.96811 0
M  V30 6365 N 601.587 1.56661 0.17182 0
M  V30 6366 C 602.55 1.9549 1.19651 0
M  V30 6367 C 603.55 0.838501 1.37207 0
M  V30 6368 O 604.74 1.10556 1.34622 0
M  V30 6369 C 601.872 2.24927 2.56166 0
M  V30 6370 H 603.065 2.87184 0.864007 0
M  V30 6371 H 600.618 1.50711 0.41425 0
M  V30 6372 H 601.353 1.35944 2.94431 0
M  V30 6373 H 601.138 3.06301 2.4479 0
M  V30 6374 H 602.628 2.55891 3.30014 0
M  V30 6375 N 603.065 -0.440357 1.51323 0
M  V30 6376 C 604.028 -1.51679 1.71832 0
M  V30 6377 C 605.028 -1.49648 0.588386 0
M  V30 6378 O 606.218 -1.51724 0.855891 0
M  V30 6379 C 603.35 -2.91228 1.77199 0
M  V30 6380 H 604.543 -1.34799 2.67898 0
M  V30 6381 H 602.096 -0.66883 1.41267 0
M  V30 6382 H 602.831 -3.13516 0.829363 0
M  V30 6383 H 602.616 -2.94107 2.59314 0
M  V30 6384 H 604.106 -3.69321 1.94915 0
M  V30 6385 N 604.543 -1.41418 -0.695603 0
M  V30 6386 C 605.493 -1.39731 -1.80165 0
M  V30 6387 C 606.477 -0.271689 -1.5859 0
M  V30 6388 O 607.669 -0.512354 -1.69422 0
M  V30 6389 C 604.798 -1.28187 -3.1847 0
M  V30 6390 C 603.884 -2.45612 -3.45739 0
M  V30 6391 N 604.275 -3.71077 -3.43708 0
M  V30 6392 C 602.573 -2.39424 -3.76288 0
M  V30 6393 C 603.274 -4.48957 -3.69882 0
M  V30 6394 N 602.25 -3.7907 -3.89624 0
M  V30 6395 H 606.052 -2.34656 -1.76957 0
M  V30 6396 H 603.566 -1.35473 -0.89559 0
M  V30 6397 H 605.563 -1.2506 -3.977 0
M  V30 6398 H 604.223 -0.342468 -3.22889 0
M  V30 6399 H 605.234 -4.03963 -3.2409 0
M  V30 6400 H 601.911 -1.53955 -3.88077 0
M  V30 6401 H 603.301 -5.57887 -3.74448 0
M  V30 6402 N 606.021 0.929856 -1.27246 0
M  V30 6403 C 607.246 1.71674 -1.16374 0
M  V30 6404 C 607.671 1.86064 0.276024 0
M  V30 6405 O 607.029 1.3591 1.19992 0
M  V30 6406 C 607.077 3.09526 -1.85003 0
M  V30 6407 O 606.181 3.96142 -1.14653 0
M  V30 6408 H 605.522 0.52629 -0.404863 0
M  V30 6409 H 608.052 1.16381 -1.68276 0
M  V30 6410 H 608.062 3.59852 -1.92276 0
M  V30 6411 H 606.737 2.98369 -2.89739 0
M  V30 6412 H 605.314 3.54584 -1.15433 0
M  V30 6413 N 607.499 1.09233 1.13605 0
M  V30 6414 C 608.91 0.846839 1.6639 0
M  V30 6415 C 609.261 -0.625031 1.85978 0
M  V30 6416 O 608.386 -1.48173 1.57714 0
M  V30 6417 C 608.981 1.5307 3.0225 0
M  V30 6418 C 607.54 1.33223 3.52035 0
M  V30 6419 C 606.687 1.58806 2.27323 0
M  V30 6420 H 609.638 1.25175 0.975541 0
M  V30 6421 H 609.659 0.96267 3.68121 0
M  V30 6422 H 609.171 2.60192 2.87961 0
M  V30 6423 H 607.272 0.282091 3.71531 0
M  V30 6424 H 607.385 2.0657 4.32279 0
M  V30 6425 H 605.749 1.01007 2.33815 0
M  V30 6426 H 606.532 2.67153 2.15602 0
M  V30 6427 N 608.977 -1.30795 0.87923 0
M  V30 6428 C 609.907 -2.30742 0.357796 0
M  V30 6429 C 610.888 -1.60747 -0.556283 0
M  V30 6430 O 612.073 -1.88393 -0.47135 0
M  V30 6431 C 609.203 -3.44583 -0.433555 0
M  V30 6432 C 608.157 -4.26235 0.388251 0
M  V30 6433 C 607.483 -5.32073 -0.529352 0
M  V30 6434 C 608.783 -4.96303 1.62729 0
M  V30 6435 H 610.477 -2.74605 1.19299 0
M  V30 6436 H 608.023 -1.32017 0.575104 0
M  V30 6437 H 609.976 -4.13563 -0.808934 0
M  V30 6438 H 608.7 -2.99511 -1.30234 0
M  V30 6439 H 607.359 -3.58936 0.745695 0
M  V30 6440 H 607.007 -4.83249 -1.39569 0
M  V30 6441 H 606.707 -5.87598 0.0166741 0
M  V30 6442 H 608.231 -6.0391 -0.901373 0
M  V30 6443 H 609.645 -5.5783 1.32283 0
M  V30 6444 H 608.042 -5.61666 2.11309 0
M  V30 6445 H 609.112 -4.22758 2.37494 0
M  V30 6446 N 610.455 -0.639598 -1.44038 0
M  V30 6447 C 611.385 0.0469443 -2.33453 0
M  V30 6448 C 612.366 0.82609 -1.48694 0
M  V30 6449 O 613.551 0.790285 -1.77393 0
M  V30 6450 C 610.681 1.02338 -3.3188 0
M  V30 6451 C 609.635 0.355284 -4.26523 0
M  V30 6452 C 608.961 1.44221 -5.14883 0
M  V30 6453 C 610.261 -0.743798 -5.16977 0
M  V30 6454 H 611.955 -0.699735 -2.91108 0
M  V30 6455 H 609.501 -0.337946 -1.39978 0
M  V30 6456 H 611.454 1.51247 -3.93322 0
M  V30 6457 H 610.178 1.80105 -2.72451 0
M  V30 6458 H 608.837 -0.113239 -3.66425 0
M  V30 6459 H 608.485 2.21097 -4.51802 0
M  V30 6460 H 608.185 1.00052 -5.79019 0
M  V30 6461 H 609.709 1.93295 -5.79197 0
M  V30 6462 H 611.123 -0.337444 -5.72306 0
M  V30 6463 H 609.52 -1.10914 -5.89761 0
M  V30 6464 H 610.59 -1.60745 -4.57481 0
M  V30 6465 N 611.933 1.52934 -0.380664 0
M  V30 6466 C 612.865 2.23822 0.493581 0
M  V30 6467 C 613.878 1.25761 1.03383 0
M  V30 6468 O 615.067 1.5189 0.937633 0
M  V30 6469 C 612.167 2.9342 1.69582 0
M  V30 6470 C 611.34 4.18115 1.28445 0
M  V30 6471 C 610.399 4.70788 2.35042 0
M  V30 6472 O 609.425 5.34093 1.96807 0
M  V30 6473 N 610.627 4.49899 3.66839 0
M  V30 6474 H 613.392 2.99484 -0.11371 0
M  V30 6475 H 610.953 1.60577 -0.206587 0
M  V30 6476 H 612.945 3.2556 2.40401 0
M  V30 6477 H 611.515 2.21119 2.20965 0
M  V30 6478 H 610.735 3.92109 0.405503 0
M  V30 6479 H 612.023 4.99152 0.986132 0
M  V30 6480 H 611.421 3.99349 4.0067 0
M  V30 6481 H 609.978 4.86551 4.33718 0
M  V30 6482 N 613.412 0.11024 1.57214 0
M  V30 6483 C 614.362 -0.854147 2.11396 0
M  V30 6484 C 615.346 -1.23394 1.03261 0
M  V30 6485 O 616.538 -1.20649 1.2951 0
M  V30 6486 C 613.667 -2.10752 2.70995 0
M  V30 6487 C 612.753 -1.75249 3.86198 0
M  V30 6488 N 613.144 -1.10377 4.9361 0
M  V30 6489 C 611.442 -2.04763 3.96217 0
M  V30 6490 C 612.143 -0.938199 5.74084 0
M  V30 6491 N 611.119 -1.46039 5.23616 0
M  V30 6492 H 614.921 -0.348897 2.91822 0
M  V30 6493 H 612.435 -0.0925071 1.62136 0
M  V30 6494 H 614.432 -2.80801 3.0815 0
M  V30 6495 H 613.092 -2.61829 1.9203 0
M  V30 6496 H 614.103 -0.768785 5.12162 0
M  V30 6497 H 610.78 -2.57948 3.28282 0
M  V30 6498 H 612.17 -0.429678 6.70525 0
M  V30 6499 N 614.89 -1.56749 -0.16351 0
M  V30 6500 C 615.823 -1.9213 -1.23132 0
M  V30 6501 C 616.801 -0.785047 -1.42393 0
M  V30 6502 O 617.985 -1.0391 -1.57273 0
M  V30 6503 C 615.112 -2.17901 -2.59301 0
M  V30 6504 C 614.158 -3.40576 -2.5673 0
M  V30 6505 S 614.991 -4.94689 -2.05045 0
M  V30 6506 C 616.147 -5.23564 -3.42975 0
M  V30 6507 H 616.38 -2.824 -0.929383 0
M  V30 6508 H 613.913 -1.4994 -0.368418 0
M  V30 6509 H 615.871 -2.33429 -3.3767 0
M  V30 6510 H 614.532 -1.28324 -2.86691 0
M  V30 6511 H 613.725 -3.55833 -3.5693 0
M  V30 6512 H 613.327 -3.24204 -1.86462 0
M  V30 6513 H 615.619 -5.16019 -4.3901 0
M  V30 6514 H 616.562 -6.25134 -3.32586 0
M  V30 6515 H 616.97 -4.51113 -3.39348 0
M  V30 6516 N 616.368 0.432326 -1.51554 0
M  V30 6517 C 617.614 1.18309 -1.64714 0
M  V30 6518 C 617.947 1.90745 -0.364696 0
M  V30 6519 O 617.222 1.8381 0.635936 0
M  V30 6520 C 617.505 2.1961 -2.85383 0
M  V30 6521 C 617.358 1.51223 -4.23617 0
M  V30 6522 C 618.677 3.20538 -3.01569 0
M  V30 6523 H 615.796 0.428751 -0.599451 0
M  V30 6524 H 618.438 0.471689 -1.84052 0
M  V30 6525 H 616.588 2.8028 -2.69027 0
M  V30 6526 H 618.26 0.938516 -4.51652 0
M  V30 6527 H 616.503 0.814501 -4.26085 0
M  V30 6528 H 617.174 2.25024 -5.04052 0
M  V30 6529 H 619.65 2.69926 -3.16669 0
M  V30 6530 H 618.526 3.88706 -3.87555 0
M  V30 6531 H 618.787 3.86933 -2.13859 0
M  V30 6532 N 617.846 1.41785 0.688094 0
M  V30 6533 C 618.776 1.47 1.8142 0
M  V30 6534 C 619.757 0.327881 1.6691 0
M  V30 6535 O 620.942 0.540362 1.86531 0
M  V30 6536 C 618.072 1.35876 3.19617 0
M  V30 6537 C 617.026 2.47976 3.48844 0
M  V30 6538 C 616.352 2.21915 4.86475 0
M  V30 6539 C 617.652 3.90309 3.47068 0
M  V30 6540 H 619.346 2.41247 1.77314 0
M  V30 6541 H 616.892 1.16116 0.851651 0
M  V30 6542 H 618.845 1.38134 3.98117 0
M  V30 6543 H 617.569 0.38116 3.24368 0
M  V30 6544 H 616.228 2.45013 2.72698 0
M  V30 6545 H 615.876 1.2248 4.8786 0
M  V30 6546 H 615.576 2.97037 5.06994 0
M  V30 6547 H 617.1 2.25901 5.67275 0
M  V30 6548 H 618.514 3.94947 4.1556 0
M  V30 6549 H 616.911 4.65175 3.7912 0
M  V30 6550 H 617.981 4.17927 2.45896 0
M  V30 6551 N 619.324 -0.923095 1.27737 0
M  V30 6552 C 620.254 -2.04124 1.13383 0
M  V30 6553 C 621.235 -1.70066 0.0340658 0
M  V30 6554 O 622.42 -1.93068 0.209383 0
M  V30 6555 C 619.55 -3.3831 0.785097 0
M  V30 6556 C 618.504 -3.86496 1.8386 0
M  V30 6557 C 617.83 -5.1754 1.34373 0
M  V30 6558 C 619.13 -4.09381 3.24353 0
M  V30 6559 H 620.824 -2.1639 2.06919 0
M  V30 6560 H 618.37 -1.03976 0.996243 0
M  V30 6561 H 620.323 -4.16016 0.671485 0
M  V30 6562 H 619.047 -3.2607 -0.185969 0
M  V30 6563 H 617.706 -3.10987 1.9412 0
M  V30 6564 H 617.354 -5.01696 0.361989 0
M  V30 6565 H 617.054 -5.50751 2.04811 0
M  V30 6566 H 618.578 -5.97811 1.24315 0
M  V30 6567 H 619.992 -4.77641 3.17067 0
M  V30 6568 H 618.389 -4.53906 3.92542 0
M  V30 6569 H 619.459 -3.14515 3.69064 0
M  V30 6570 N 620.802 -1.09834 -1.13024 0
M  V30 6571 C 621.712 -0.753731 -2.22162 0
M  V30 6572 C 622.728 0.246105 -1.72251 0
M  V30 6573 O 623.904 0.0864051 -2.01215 0
M  V30 6574 C 620.969 -0.183958 -3.46212 0
M  V30 6575 C 620.03 -1.24028 -4.10993 0
M  V30 6576 C 619.263 -0.697597 -5.29121 0
M  V30 6577 O 619.486 0.478092 -5.68393 0
M  V30 6578 O 618.42 -1.4546 -5.84059 0
M  V30 6579 H 622.246 -1.66456 -2.5402 0
M  V30 6580 H 619.831 -0.873026 -1.21238 0
M  V30 6581 H 621.713 0.130257 -4.21199 0
M  V30 6582 H 620.388 0.699823 -3.16045 0
M  V30 6583 H 619.295 -1.60725 -3.37814 0
M  V30 6584 H 620.628 -2.09685 -4.45301 0
M  V30 6585 N 622.28 1.30327 -0.886154 0
M  V30 6586 C 623.212 2.27079 -0.311072 0
M  V30 6587 C 624.225 1.53758 0.53502 0
M  V30 6588 O 625.414 1.74947 0.354378 0
M  V30 6589 C 622.514 3.33965 0.576228 0
M  V30 6590 C 621.687 4.36735 -0.241064 0
M  V30 6591 C 620.746 5.23028 0.576916 0
M  V30 6592 O 619.772 5.692 -0.000802231 0
M  V30 6593 N 620.974 5.49016 1.88579 0
M  V30 6594 H 623.739 2.77065 -1.14259 0
M  V30 6595 H 621.3 1.43519 -0.749258 0
M  V30 6596 H 623.292 3.88618 1.12953 0
M  V30 6597 H 621.862 2.839 1.30842 0
M  V30 6598 H 621.082 3.81932 -0.975805 0
M  V30 6599 H 622.37 5.02451 -0.801272 0
M  V30 6600 H 621.768 5.13288 2.37806 0
M  V30 6601 H 620.325 6.06539 2.38651 0
M  V30 6602 N 623.758 0.647228 1.43697 0
M  V30 6603 C 625.169 0.238689 1.85168 0
M  V30 6604 C 625.52 -1.21345 1.54175 0
M  V30 6605 O 624.645 -1.92542 0.987743 0
M  V30 6606 C 625.24 0.426422 3.36106 0
M  V30 6607 C 623.799 0.0722541 3.76331 0
M  V30 6608 C 622.946 0.732153 2.6746 0
M  V30 6609 H 625.897 0.851309 1.33934 0
M  V30 6610 H 625.918 -0.32987 3.79067 0
M  V30 6611 H 625.43 1.48339 3.58632 0
M  V30 6612 H 623.531 -0.982355 3.59417 0
M  V30 6613 H 623.644 0.493541 4.76551 0
M  V30 6614 H 622.008 0.16594 2.54159 0
M  V30 6615 H 622.791 1.79204 2.92816 0
M  V30 6616 N 625.236 -1.5273 0.388769 0
M  V30 6617 C 626.647 -1.86505 -0.0853788 0
M  V30 6618 C 626.998 -1.30847 -1.46197 0
M  V30 6619 O 626.123 -0.639609 -2.06732 0
M  V30 6620 C 626.718 -3.38414 -0.161703 0
M  V30 6621 C 625.277 -3.71902 -0.580144 0
M  V30 6622 C 624.424 -2.76095 0.258218 0
M  V30 6623 H 627.375 -1.46647 0.606665 0
M  V30 6624 H 627.396 -3.67638 -0.980936 0
M  V30 6625 H 626.908 -3.78893 0.840333 0
M  V30 6626 H 625.009 -3.36992 -1.58957 0
M  V30 6627 H 625.122 -4.77902 -0.338663 0
M  V30 6628 H 623.486 -2.53195 -0.276432 0
M  V30 6629 H 624.269 -3.19411 1.25822 0
M  V30 6630 N 626.714 -0.118576 -1.57153 0
M  V30 6631 C 627.677 0.817464 -2.14127 0
M  V30 6632 C 628.677 1.1949 -1.07604 0
M  V30 6633 O 629.867 1.12048 -1.33382 0
M  V30 6634 C 626.999 2.10541 -2.68115 0
M  V30 6635 H 628.192 0.322339 -2.98163 0
M  V30 6636 H 625.745 0.130655 -1.55753 0
M  V30 6637 H 626.48 2.64485 -1.87665 0
M  V30 6638 H 626.265 1.84425 -3.4602 0
M  V30 6639 H 627.755 2.77453 -3.12105 0
M  V30 6640 N 628.193 1.56834 0.155195 0
M  V30 6641 C 629.125 1.94235 1.21677 0
M  V30 6642 C 630.138 0.83724 1.39621 0
M  V30 6643 O 631.327 1.11567 1.39338 0
M  V30 6644 C 628.427 2.19402 2.58294 0
M  V30 6645 C 627.6 3.50671 2.61436 0
M  V30 6646 C 626.659 3.64475 3.79532 0
M  V30 6647 O 625.685 4.36945 3.64784 0
M  V30 6648 N 626.887 3.00526 4.96653 0
M  V30 6649 H 629.652 2.85901 0.898932 0
M  V30 6650 H 627.213 1.58185 0.34483 0
M  V30 6651 H 629.205 2.25886 3.35794 0
M  V30 6652 H 627.775 1.34042 2.82403 0
M  V30 6653 H 626.995 3.55702 1.69912 0
M  V30 6654 H 628.283 4.3702 2.60559 0
M  V30 6655 H 627.681 2.41549 5.11538 0
M  V30 6656 H 626.238 3.12583 5.71958 0
M  V30 6657 N 629.671 -0.424282 1.51781 0
M  V30 6658 C 630.634 -1.49848 1.73431 0
M  V30 6659 C 631.634 -1.49016 0.604225 0
M  V30 6660 O 632.824 -1.50808 0.871935 0
M  V30 6661 C 629.956 -2.89332 1.80277 0
M  V30 6662 H 631.149 -1.3195 2.69312 0
M  V30 6663 H 628.702 -0.653809 1.41968 0
M  V30 6664 H 629.437 -3.12618 0.862568 0
M  V30 6665 H 629.222 -2.9134 2.62419 0
M  V30 6666 H 630.712 -3.67233 1.98821 0
M  V30 6667 N 631.149 -1.42148 -0.680565 0
M  V30 6668 C 632.56 -1.3768 -1.26099 0
M  V30 6669 C 632.911 -0.0672348 -1.96085 0
M  V30 6670 O 632.036 0.834172 -1.99676 0
M  V30 6671 C 632.631 -2.49387 -2.29328 0
M  V30 6672 C 631.19 -2.4827 -2.82911 0
M  V30 6673 C 630.337 -2.2847 -1.57152 0
M  V30 6674 H 633.288 -1.51446 -0.474326 0
M  V30 6675 H 633.309 -2.19307 -3.10941 0
M  V30 6676 H 632.821 -3.44686 -1.78363 0
M  V30 6677 H 630.922 -1.56773 -3.38013 0
M  V30 6678 H 631.035 -3.45109 -3.3232 0
M  V30 6679 H 629.399 -1.76623 -1.83511 0
M  V30 6680 H 630.182 -3.25816 -1.0816 0
M  V30 6681 N 632.627 0.916307 -1.28225 0
M  V30 6682 C 633.557 2.0352 -1.14464 0
M  V30 6683 C 634.538 1.70045 -0.0430844 0
M  V30 6684 O 635.723 1.92954 -0.219619 0
M  V30 6685 C 632.853 3.37889 -0.803027 0
M  V30 6686 C 631.807 3.85516 -1.85908 0
M  V30 6687 C 631.133 5.1682 -1.37116 0
M  V30 6688 C 632.433 4.07655 -3.26519 0
M  V30 6689 H 634.127 2.1529 -2.08064 0
M  V30 6690 H 631.673 1.03446 -1.00174 0
M  V30 6691 H 633.626 4.15654 -0.693537 0
M  V30 6692 H 632.35 3.26164 0.168674 0
M  V30 6693 H 631.009 3.09953 -1.95767 0
M  V30 6694 H 630.657 5.01497 -0.38859 0
M  V30 6695 H 630.357 5.49657 -2.07728 0
M  V30 6696 H 631.881 5.97143 -1.27484 0
M  V30 6697 H 633.295 4.75953 -3.19596 0
M  V30 6698 H 631.692 4.51818 -3.94943 0
M  V30 6699 H 632.762 3.12553 -3.70727 0
M  V30 6700 N 634.105 1.10431 1.1244 0
M  V30 6701 C 635.351 0.847972 1.84221 0
M  V30 6702 C 635.684 -0.624903 1.83871 0
M  V30 6703 O 634.959 -1.46074 1.28423 0
M  V30 6704 C 635.242 1.39695 3.319 0
M  V30 6705 C 635.095 2.93668 3.40704 0
M  V30 6706 C 636.414 1.03924 4.27654 0
M  V30 6707 H 633.533 0.309502 0.668863 0
M  V30 6708 H 636.175 1.36745 1.31912 0
M  V30 6709 H 634.325 0.955095 3.76577 0
M  V30 6710 H 635.997 3.46379 3.04662 0
M  V30 6711 H 634.24 3.30272 2.81252 0
M  V30 6712 H 634.911 3.27162 4.446 0
M  V30 6713 H 637.387 1.42049 3.91102 0
M  V30 6714 H 636.263 1.45027 5.29394 0
M  V30 6715 H 636.524 -0.051336 4.4207 0
M  V30 6716 N 635.583 -1.29855 0.893053 0
M  V30 6717 C 636.811 -1.99976 0.530788 0
M  V30 6718 C 637.226 -1.66889 -0.882799 0
M  V30 6719 O 636.583 -0.910352 -1.58173 0
M  V30 6720 C 636.634 -3.54547 0.705587 0
M  V30 6721 O 636.355 -3.86458 2.06353 0
M  V30 6722 C 637.856 -4.41937 0.347387 0
M  V30 6723 H 635.076 -0.639129 0.204339 0
M  V30 6724 H 637.62 -1.65549 1.20057 0
M  V30 6725 H 635.775 -3.87311 0.0830685 0
M  V30 6726 H 636.189 -4.81146 2.08803 0
M  V30 6727 H 637.663 -5.4954 0.520557 0
M  V30 6728 H 638.14 -4.33339 -0.715139 0
M  V30 6729 H 638.746 -4.14633 0.946567 0
M  V30 6730 N 637.061 -0.65484 -1.43351 0
M  V30 6731 C 638.309 -0.168559 -2.01396 0
M  V30 6732 C 638.63 1.22235 -1.51933 0
M  V30 6733 O 637.9 1.81685 -0.732627 0
M  V30 6734 H 636.48 -0.0593244 -0.744641 0
M  V30 6735 H 639.142 -0.846871 -1.75539 0
M  V30 6736 H 638.238 -0.154428 -3.11718 0
M  V30 6737 N 638.539 1.52521 -0.396863 0
M  V30 6738 C 639.469 2.29582 0.425941 0
M  V30 6739 C 640.45 1.33281 1.05689 0
M  V30 6740 O 641.635 1.62181 1.06823 0
M  V30 6741 C 638.765 3.10821 1.54943 0
M  V30 6742 C 637.719 4.15069 1.04413 0
M  V30 6743 C 637.045 4.84578 2.26028 0
M  V30 6744 C 638.345 5.22191 0.106767 0
M  V30 6745 H 640.039 2.98612 -0.217045 0
M  V30 6746 H 637.585 1.43611 -0.105826 0
M  V30 6747 H 639.538 3.63492 2.13193 0
M  V30 6748 H 638.262 2.39538 2.22011 0
M  V30 6749 H 636.921 3.63389 0.484118 0
M  V30 6750 H 636.569 4.09835 2.91623 0
M  V30 6751 H 636.269 5.55043 1.92876 0
M  V30 6752 H 637.793 5.40056 2.84906 0
M  V30 6753 H 639.207 5.70176 0.597685 0
M  V30 6754 H 637.604 5.99947 -0.135352 0
M  V30 6755 H 638.674 4.77531 -0.842134 0
M  V30 6756 N 640.017 0.126909 1.57088 0
M  V30 6757 C 641.265 -0.528123 1.95078 0
M  V30 6758 C 641.586 -1.66708 1.0116 0
M  V30 6759 O 640.856 -1.95777 0.0693527 0
M  V30 6760 H 639.436 -0.198087 0.720257 0
M  V30 6761 H 642.098 0.197703 1.93895 0
M  V30 6762 H 641.194 -0.917507 2.98309 0
M  V30 6763 N 641.495 -1.56914 -0.146875 0
M  V30 6764 C 642.458 -1.97368 -1.16526 0
M  V30 6765 C 643.458 -0.860223 -1.35856 0
M  V30 6766 O 644.648 -1.12684 -1.32846 0
M  V30 6767 C 641.78 -2.28974 -2.52555 0
M  V30 6768 H 642.973 -2.88523 -0.818209 0
M  V30 6769 H 640.526 -1.5135 -0.390221 0
M  V30 6770 H 641.261 -1.40611 -2.92231 0
M  V30 6771 H 641.046 -3.10157 -2.39886 0
M  V30 6772 H 642.536 -2.61109 -3.25902 0
M  V30 6773 N 642.974 0.416227 -1.52004 0
M  V30 6774 C 643.904 1.51365 -1.77795 0
M  V30 6775 C 644.885 1.58059 -0.628601 0
M  V30 6776 O 646.07 1.73447 -0.873478 0
M  V30 6777 C 643.2 2.89256 -1.92219 0
M  V30 6778 C 642.154 2.97415 -3.0778 0
M  V30 6779 C 641.48 4.37492 -3.07417 0
M  V30 6780 C 642.78 2.69551 -4.47369 0
M  V30 6781 H 644.474 1.30033 -2.69688 0
M  V30 6782 H 642.02 0.624112 -1.29772 0
M  V30 6783 H 643.973 3.66008 -2.08845 0
M  V30 6784 H 642.697 3.11866 -0.969917 0
M  V30 6785 H 641.356 2.23107 -2.90893 0
M  V30 6786 H 641.004 4.571 -2.09925 0
M  V30 6787 H 640.704 4.43877 -3.85029 0
M  V30 6788 H 642.228 5.16188 -3.26162 0
M  V30 6789 H 643.642 3.36028 -4.64497 0
M  V30 6790 H 642.039 2.87321 -5.26846 0
M  V30 6791 H 643.109 1.65029 -4.55953 0
M  V30 6792 N 644.452 1.42507 0.673017 0
M  V30 6793 C 645.863 1.38347 1.25367 0
M  V30 6794 C 646.214 0.0776327 1.96046 0
M  V30 6795 O 645.339 -0.823571 2.00116 0
M  V30 6796 C 645.934 2.506 2.28002 0
M  V30 6797 C 644.493 2.49767 2.81591 0
M  V30 6798 C 643.64 2.293 1.55938 0
M  V30 6799 H 646.591 1.51695 0.466288 0
M  V30 6800 H 646.612 2.20953 3.09774 0
M  V30 6801 H 646.124 3.45627 1.76532 0
M  V30 6802 H 644.225 1.58563 3.37177 0
M  V30 6803 H 644.338 3.46867 3.30485 0
M  V30 6804 H 642.702 1.77594 1.82572 0
M  V30 6805 H 643.485 3.26385 1.06431 0
M  V30 6806 N 645.93 -0.909495 1.28709 0
M  V30 6807 C 646.86 -2.0291 1.15542 0
M  V30 6808 C 647.841 -1.7002 0.0521017 0
M  V30 6809 O 649.026 -1.92835 0.229849 0
M  V30 6810 C 646.156 -3.37458 0.820935 0
M  V30 6811 C 645.11 -3.84524 1.87949 0
M  V30 6812 C 644.436 -5.16086 1.39854 0
M  V30 6813 C 645.736 -4.05918 3.28676 0
M  V30 6814 H 647.43 -2.14183 2.09203 0
M  V30 6815 H 644.976 -1.02913 1.00722 0
M  V30 6816 H 646.929 -4.1528 0.715571 0
M  V30 6817 H 645.653 -3.26249 -0.151374 0
M  V30 6818 H 644.312 -3.08911 1.97408 0
M  V30 6819 H 643.96 -5.01284 0.41518 0
M  V30 6820 H 643.66 -5.48547 2.1064 0
M  V30 6821 H 645.184 -5.96459 1.30649 0
M  V30 6822 H 646.598 -4.74252 3.22115 0
M  V30 6823 H 644.995 -4.49717 3.97334 0
M  V30 6824 H 646.065 -3.10583 3.72379 0
M  V30 6825 N 647.408 -1.11026 -1.11852 0
M  V30 6826 C 648.358 -0.733836 -2.15868 0
M  V30 6827 C 649.342 0.26001 -1.58785 0
M  V30 6828 O 650.534 0.0677901 -1.7687 0
M  V30 6829 C 647.663 -0.173948 -3.42859 0
M  V30 6830 C 646.749 -1.1952 -4.0691 0
M  V30 6831 N 647.14 -2.38797 -4.45881 0
M  V30 6832 C 645.438 -1.03714 -4.33773 0
M  V30 6833 C 646.139 -3.03894 -4.96007 0
M  V30 6834 N 645.115 -2.31389 -4.91894 0
M  V30 6835 H 648.917 -1.64171 -2.43773 0
M  V30 6836 H 646.431 -0.988877 -1.28822 0
M  V30 6837 H 648.428 0.113836 -4.16745 0
M  V30 6838 H 647.088 0.728568 -3.16421 0
M  V30 6839 H 648.099 -2.76281 -4.38051 0
M  V30 6840 H 644.776 -0.190694 -4.17064 0
M  V30 6841 H 646.166 -4.05389 -5.35826 0
M  V30 6842 N 648.886 1.2938 -0.899927 0
M  V30 6843 C 649.849 2.25983 -0.382677 0
M  V30 6844 C 650.849 1.53366 0.483259 0
M  V30 6845 O 652.039 1.71798 0.28828 0
M  V30 6846 C 649.171 3.37878 0.452915 0
M  V30 6847 H 650.364 2.73252 -1.23586 0
M  V30 6848 H 647.917 1.40825 -0.678088 0
M  V30 6849 H 648.652 2.95949 1.32608 0
M  V30 6850 H 648.437 3.91742 -0.167562 0
M  V30 6851 H 649.927 4.09746 0.806107 0
M  V30 6852 N 650.364 0.662433 1.43002 0
M  V30 6853 C 651.296 -0.062326 2.29115 0
M  V30 6854 C 652.309 -0.777926 1.43011 0
M  V30 6855 O 653.498 -0.634146 1.66856 0
M  V30 6856 C 650.598 -1.11163 3.2015 0
M  V30 6857 C 649.771 -0.472327 4.34842 0
M  V30 6858 C 648.83 -1.41974 5.06685 0
M  V30 6859 O 647.856 -0.924795 5.61637 0
M  V30 6860 N 649.058 -2.75345 5.11043 0
M  V30 6861 H 651.823 0.676838 2.91957 0
M  V30 6862 H 649.384 0.505907 1.53793 0
M  V30 6863 H 651.376 -1.74643 3.65078 0
M  V30 6864 H 649.946 -1.75266 2.58845 0
M  V30 6865 H 649.166 0.341751 3.92716 0
M  V30 6866 H 650.454 -0.0264381 5.08793 0
M  V30 6867 H 649.852 -3.18108 4.67786 0
M  V30 6868 H 648.409 -3.34105 5.59658 0
M  V30 6869 N 651.842 -1.52309 0.404946 0
M  V30 6870 C 653.067 -2.06666 -0.1743 0
M  V30 6871 C 653.492 -1.27341 -1.38441 0
M  V30 6872 O 652.85 -0.302539 -1.78758 0
M  V30 6873 C 652.898 -3.57014 -0.507262 0
M  V30 6874 O 652.002 -3.80144 -1.59889 0
M  V30 6875 H 651.343 -0.663807 -0.0160273 0
M  V30 6876 H 653.873 -1.96297 0.576937 0
M  V30 6877 H 653.883 -4.00724 -0.767098 0
M  V30 6878 H 652.558 -4.14184 0.377368 0
M  V30 6879 H 651.135 -3.48316 -1.33155 0
M  V30 6880 N 653.32 -0.135238 -1.57019 0
M  V30 6881 C 654.25 0.805235 -2.19176 0
M  V30 6882 C 655.231 1.2656 -1.13651 0
M  V30 6883 O 656.416 1.32528 -1.4195 0
M  V30 6884 C 653.546 2.04914 -2.80406 0
M  V30 6885 C 652.5 1.72598 -3.91655 0
M  V30 6886 C 651.826 3.04154 -4.39766 0
M  V30 6887 C 653.126 0.981709 -5.12991 0
M  V30 6888 H 654.82 0.287232 -2.98019 0
M  V30 6889 H 652.366 0.136714 -1.4335 0
M  V30 6890 H 654.319 2.71178 -3.22553 0
M  V30 6891 H 653.043 2.59067 -1.98877 0
M  V30 6892 H 651.702 1.08717 -3.50109 0
M  V30 6893 H 651.35 3.56274 -3.55075 0
M  V30 6894 H 651.05 2.83299 -5.14796 0
M  V30 6895 H 652.574 3.71509 -4.84576 0
M  V30 6896 H 653.988 1.5462 -5.52056 0
M  V30 6897 H 652.385 0.873533 -5.93708 0
M  V30 6898 H 653.455 -0.0286887 -4.84892 0
M  V30 6899 N 654.798 1.5699 0.138552 0
M  V30 6900 C 656.044 1.84081 0.85099 0
M  V30 6901 C 656.377 0.718107 1.80435 0
M  V30 6902 O 655.652 -0.277633 1.92508 0
M  V30 6903 C 655.935 3.21699 1.61808 0
M  V30 6904 C 655.788 4.44544 0.685633 0
M  V30 6905 C 657.107 3.5664 2.57868 0
M  V30 6906 H 654.226 0.669592 0.307922 0
M  V30 6907 H 656.868 1.89646 0.11588 0
M  V30 6908 H 655.018 3.17086 2.24474 0
M  V30 6909 H 656.69 4.61248 0.0693179 0
M  V30 6910 H 654.933 4.338 -0.00421993 0
M  V30 6911 H 655.604 5.3746 1.25858 0
M  V30 6912 H 658.08 3.61918 2.05316 0
M  V30 6913 H 656.956 4.53946 3.08584 0
M  V30 6914 H 657.217 2.83036 3.39622 0
M  V30 6915 N 656.276 -0.40816 1.52223 0
M  V30 6916 C 657.524 -1.15274 1.66001 0
M  V30 6917 C 657.845 -1.91003 0.392803 0
M  V30 6918 O 657.115 -1.8673 -0.592336 0
M  V30 6919 H 655.695 -0.428526 0.611861 0
M  V30 6920 H 658.357 -0.46512 1.89269 0
M  V30 6921 H 657.453 -1.86628 2.50153 0
M  V30 6922 N 657.755 -1.42862 -0.66545 0
M  V30 6923 C 658.718 -1.46756 -1.76055 0
M  V30 6924 C 659.718 -0.353866 -1.56858 0
M  V30 6925 O 660.908 -0.615099 -1.62979 0
M  V30 6926 C 658.04 -1.30829 -3.14796 0
M  V30 6927 H 659.233 -2.44271 -1.73987 0
M  V30 6928 H 656.786 -1.29447 -0.875965 0
M  V30 6929 H 657.521 -0.342733 -3.22484 0
M  V30 6930 H 657.306 -2.11551 -3.30134 0
M  V30 6931 H 658.796 -1.36458 -3.94676 0
M  V30 6932 N 659.233 0.902656 -1.29189 0
M  V30 6933 C 660.51 1.63296 -1.07674 0
M  V30 6934 C 660.89 2.07649 0.380137 0
M  V30 6935 O 660.238 1.82997 1.36837 0
M  V30 6936 C 660.448 2.81603 -2.06158 0
M  V30 6937 C 661.796 3.52359 -2.36914 0
M  V30 6938 O 662.82 2.91767 -2.04329 0
M  V30 6939 O 661.679 4.61586 -2.92576 0
M  V30 6940 H 658.773 0.716889 -0.41231 0
M  V30 6941 H 661.319 0.950984 -1.4055 0
M  V30 6942 H 660.091 2.46004 -3.04299 0
M  V30 6943 H 659.714 3.57508 -1.73993 0
M  V30 6944 N 660.711 1.11618 1.11262 0
M  V30 6945 C 662.127 0.850468 1.35053 0
M  V30 6946 C 662.327 -0.523868 1.94571 0
M  V30 6947 O 661.383 -1.2743 2.17986 0
M  V30 6948 C 662.696 1.96005 2.28041 0
M  V30 6949 C 664.244 1.98993 2.416 0
M  V30 6950 C 664.719 3.0916 3.37911 0
M  V30 6951 N 666.21 3.08547 3.45475 0
M  V30 6952 C 666.945 3.9043 4.19943 0
M  V30 6953 N 666.441 4.8228 4.97371 0
M  V30 6954 N 668.234 3.786 4.15474 0
M  V30 6955 H 660.385 2.00184 0.709932 0
M  V30 6956 H 662.648 0.870635 0.375099 0
M  V30 6957 H 662.354 2.9499 1.91503 0
M  V30 6958 H 662.228 1.85782 3.28275 0
M  V30 6959 H 664.615 1.00633 2.77411 0
M  V30 6960 H 664.696 2.13292 1.4121 0
M  V30 6961 H 664.34 4.07748 3.02827 0
M  V30 6962 H 664.27 2.92102 4.3816 0
M  V30 6963 H 666.761 2.42 2.90249 0
M  V30 6964 H 667.074 5.41289 5.51567 0
M  V30 6965 H 665.419 4.863 4.96525 0
M  V30 6966 H 668.61 3.06185 3.54074 0
M  V30 6967 H 668.783 4.42647 4.73253 0
M  V30 6968 N 662.189 -1.289 0.906776 0
M  V30 6969 C 663.435 -1.95558 0.53712 0
M  V30 6970 C 663.768 -1.71262 -0.915582 0
M  V30 6971 O 663.043 -1.02961 -1.65013 0
M  V30 6972 C 663.326 -3.50198 0.838645 0
M  V30 6973 C 663.179 -3.83923 2.34357 0
M  V30 6974 C 664.498 -4.38861 0.329988 0
M  V30 6975 H 661.617 -0.710289 0.196617 0
M  V30 6976 H 664.259 -1.52392 1.13475 0
M  V30 6977 H 662.409 -3.87096 0.330024 0
M  V30 6978 H 664.081 -3.56933 2.92227 0
M  V30 6979 H 662.324 -3.31215 2.80141 0
M  V30 6980 H 662.995 -4.91883 2.5051 0
M  V30 6981 H 665.471 -4.08996 0.765609 0
M  V30 6982 H 664.347 -5.45931 0.570105 0
M  V30 6983 H 664.608 -4.35352 -0.769511 0
M  V30 6984 N 663.667 -0.670007 -1.42649 0
M  V30 6985 C 664.892 -0.196955 -2.06463 0
M  V30 6986 C 665.317 1.1352 -1.49983 0
M  V30 6987 O 664.675 1.705 -0.616397 0
M  V30 6988 C 664.723 -0.137381 -3.60338 0
M  V30 6989 O 663.827 0.895523 -4.02559 0
M  V30 6990 H 663.168 -0.102579 -0.656029 0
M  V30 6991 H 665.698 -0.917669 -1.82866 0
M  V30 6992 H 665.708 0.0403625 -4.0798 0
M  V30 6993 H 664.383 -1.10977 -4.0082 0
M  V30 6994 H 662.96 0.689209 -3.66476 0
M  V30 6995 N 665.145 1.52092 -0.413018 0
M  V30 6996 C 666.556 1.86617 0.0556967 0
M  V30 6997 C 666.907 1.33156 1.44097 0
M  V30 6998 O 666.032 0.672417 2.05688 0
M  V30 6999 C 666.627 3.38628 0.107844 0
M  V30 7000 C 665.186 3.72778 0.520904 0
M  V30 7001 C 664.333 2.75649 -0.302109 0
M  V30 7002 H 667.284 1.45663 -0.629919 0
M  V30 7003 H 667.305 3.69152 0.922324 0
M  V30 7004 H 666.817 3.77508 -0.900506 0
M  V30 7005 H 664.918 3.39478 1.53575 0
M  V30 7006 H 665.031 4.7838 0.262591 0
M  V30 7007 H 663.395 2.53603 0.236115 0
M  V30 7008 H 664.178 3.17369 -1.30888 0
M  V30 7009 N 666.623 0.143563 1.56945 0
M  V30 7010 C 667.848 -0.518701 2.00809 0
M  V30 7011 C 668.273 -1.5785 1.02298 0
M  V30 7012 O 667.631 -1.813 -0.0017839 0
M  V30 7013 C 667.679 -1.09929 3.43436 0
M  V30 7014 O 666.783 -2.21425 3.47915 0
M  V30 7015 H 666.124 -0.127215 0.6517 0
M  V30 7016 H 668.654 0.239283 2.03196 0
M  V30 7017 H 668.664 -1.4288 3.82164 0
M  V30 7018 H 667.339 -0.323162 4.14643 0
M  V30 7019 H 665.916 -1.89728 3.21026 0
M  V30 7020 N 668.101 -1.57061 -0.130224 0
M  V30 7021 C 669.35 -1.83446 -0.838488 0
M  V30 7022 C 669.663 -0.727468 -1.81569 0
M  V30 7023 O 670.869 -0.877394 -2.56932 0
M  V30 7024 C 669.325 -3.25201 -1.54182 0
M  V30 7025 C 668.933 -4.4388 -0.606178 0
M  V30 7026 C 670.677 -3.60844 -2.23588 0
M  V30 7027 C 668.584 -5.76661 -1.31209 0
M  V30 7028 H 667.514 -0.684185 -0.316871 0
M  V30 7029 H 670.165 -1.83273 -0.0912059 0
M  V30 7030 H 668.547 -3.1981 -2.33533 0
M  V30 7031 H 669.721 -4.60545 0.153308 0
M  V30 7032 H 668.036 -4.16395 -0.0196705 0
M  V30 7033 H 670.633 -4.57313 -2.77072 0
M  V30 7034 H 670.976 -2.87724 -3.00867 0
M  V30 7035 H 671.509 -3.67971 -1.51137 0
M  V30 7036 H 668.248 -6.52922 -0.580823 0
M  V30 7037 H 667.768 -5.63902 -2.04387 0
M  V30 7038 H 669.447 -6.20035 -1.8484 0
M  V30 7039 N 669.579 0.400081 -1.52437 0
M  V30 7040 C 670.529 1.48734 -1.72807 0
M  V30 7041 C 671.513 1.50004 -0.582032 0
M  V30 7042 O 672.705 1.55828 -0.839449 0
M  V30 7043 C 669.834 2.86568 -1.89034 0
M  V30 7044 C 668.92 2.8991 -3.09537 0
M  V30 7045 N 669.311 2.62937 -4.32086 0
M  V30 7046 C 667.609 3.21078 -3.09556 0
M  V30 7047 C 668.31 2.73079 -5.13617 0
M  V30 7048 N 667.286 3.06342 -4.49061 0
M  V30 7049 H 671.088 1.26689 -2.65193 0
M  V30 7050 H 668.602 0.607902 -1.50593 0
M  V30 7051 H 670.599 3.64834 -2.01746 0
M  V30 7052 H 669.259 3.09604 -0.978547 0
M  V30 7053 H 670.27 2.37163 -4.60406 0
M  V30 7054 H 666.947 3.49651 -2.28146 0
M  V30 7055 H 668.337 2.55863 -6.21276 0
M  V30 7056 N 671.057 1.43213 0.657864 0
M  V30 7057 C 672.004 1.48011 1.77092 0
M  V30 7058 C 672.974 0.330291 1.62783 0
M  V30 7059 O 674.159 0.536787 1.83094 0
M  V30 7060 C 671.299 1.40461 3.15222 0
M  V30 7061 C 670.412 2.65612 3.40697 0
M  V30 7062 C 669.547 2.50083 4.68649 0
M  V30 7063 C 668.586 3.70525 4.87214 0
M  V30 7064 N 667.723 3.53835 6.0642 0
M  V30 7065 H 672.563 2.43121 1.72326 0
M  V30 7066 H 670.1 1.20687 0.841013 0
M  V30 7067 H 672.058 1.34079 3.95068 0
M  V30 7068 H 670.688 0.489359 3.19069 0
M  V30 7069 H 669.74 2.82292 2.54982 0
M  V30 7070 H 671.052 3.5509 3.50303 0
M  V30 7071 H 670.206 2.41383 5.56614 0
M  V30 7072 H 668.945 1.58121 4.61356 0
M  V30 7073 H 667.95 3.79639 3.97686 0
M  V30 7074 H 669.175 4.63489 4.96341 0
M  V30 7075 H 667.121 2.64604 6.00267 0
M  V30 7076 H 667.038 4.36912 6.16963 0
M  V30 7077 H 668.306 3.48978 6.97019 0
M  V30 7078 N 672.536 -0.895792 1.29666 0
M  V30 7079 C 673.466 -2.01673 1.17688 0
M  V30 7080 C 674.447 -1.69955 0.0701317 0
M  V30 7081 O 675.632 -1.9258 0.250289 0
M  V30 7082 C 672.762 -3.36568 0.856681 0
M  V30 7083 C 671.716 -3.82509 1.92017 0
M  V30 7084 C 671.042 -5.14574 1.4532 0
M  V30 7085 C 672.342 -4.02409 3.32963 0
M  V30 7086 H 674.036 -2.11953 2.11463 0
M  V30 7087 H 671.582 -1.01839 1.01807 0
M  V30 7088 H 673.535 -4.14498 0.759577 0
M  V30 7089 H 672.259 -3.26391 -0.116763 0
M  V30 7090 H 670.918 -3.068 2.00673 0
M  V30 7091 H 670.566 -5.00815 0.468325 0
M  V30 7092 H 670.266 -5.46283 2.16447 0
M  V30 7093 H 671.79 -5.9504 1.36968 0
M  V30 7094 H 673.204 -4.70808 3.27127 0
M  V30 7095 H 671.601 -4.45478 4.02082 0
M  V30 7096 H 672.671 -3.06616 3.75652 0
M  V30 7097 N 674.014 -1.12206 -1.10668 0
M  V30 7098 C 675.43 -0.857619 -1.346 0
M  V30 7099 C 675.63 0.513542 -1.94846 0
M  V30 7100 O 674.686 1.26273 -2.18658 0
M  V30 7101 C 675.999 -1.97212 -2.26998 0
M  V30 7102 C 677.547 -2.00272 -2.40542 0
M  V30 7103 C 678.022 -3.10948 -3.36267 0
M  V30 7104 N 679.513 -3.10375 -3.43834 0
M  V30 7105 C 680.248 -3.92651 -4.17867 0
M  V30 7106 N 679.744 -4.84911 -4.94807 0
M  V30 7107 N 681.537 -3.80798 -4.1346 0
M  V30 7108 H 673.688 -2.00558 -0.699306 0
M  V30 7109 H 675.951 -0.872612 -0.370477 0
M  V30 7110 H 675.657 -2.96002 -1.89936 0
M  V30 7111 H 675.531 -1.87521 -3.27286 0
M  V30 7112 H 677.918 -1.02103 -2.76874 0
M  V30 7113 H 677.999 -2.14037 -1.40077 0
M  V30 7114 H 677.643 -4.09348 -3.00661 0
M  V30 7115 H 677.573 -2.94421 -4.36605 0
M  V30 7116 H 680.064 -2.43536 -2.88961 0
M  V30 7117 H 680.377 -5.44207 -5.48688 0
M  V30 7118 H 678.722 -4.88926 -4.93939 0
M  V30 7119 H 681.913 -3.08058 -3.52445 0
M  V30 7120 H 682.086 -4.4515 -4.70898 0
M  V30 7121 N 675.492 1.28418 -0.913599 0
M  V30 7122 C 676.424 2.26368 -0.359169 0
M  V30 7123 C 677.437 1.54858 0.502285 0
M  V30 7124 O 678.626 1.75659 0.31719 0
M  V30 7125 C 675.726 3.35112 0.50526 0
M  V30 7126 C 674.899 4.36126 -0.333648 0
M  V30 7127 C 673.958 5.24134 0.465845 0
M  V30 7128 O 672.984 5.6907 -0.121538 0
M  V30 7129 N 674.186 5.52892 1.76891 0
M  V30 7130 H 676.951 2.74579 -1.2011 0
M  V30 7131 H 674.512 1.41898 -0.779532 0
M  V30 7132 H 676.504 3.90926 1.04684 0
M  V30 7133 H 675.074 2.86611 1.2479 0
M  V30 7134 H 674.294 3.79776 -1.0566 0
M  V30 7135 H 675.582 5.00638 -0.907669 0
M  V30 7136 H 674.98 5.18217 2.26865 0
M  V30 7137 H 673.537 6.11464 2.25732 0
M  V30 7138 N 676.97 0.677563 1.42291 0
M  V30 7139 C 677.92 -0.0218641 2.2799 0
M  V30 7140 C 678.904 -0.770816 1.41235 0
M  V30 7141 O 680.096 -0.649273 1.64662 0
M  V30 7142 C 677.225 -0.970449 3.29298 0
M  V30 7143 C 676.311 -0.218695 4.23536 0
M  V30 7144 N 676.702 0.777908 4.99782 0
M  V30 7145 C 675 -0.456748 4.43655 0
M  V30 7146 C 675.701 1.22632 5.68627 0
M  V30 7147 N 674.677 0.55573 5.40752 0
M  V30 7148 H 678.479 0.742516 2.84366 0
M  V30 7149 H 675.993 0.506862 1.54288 0
M  V30 7150 H 677.99 -1.48652 3.89497 0
M  V30 7151 H 676.65 -1.73463 2.74483 0
M  V30 7152 H 677.661 1.15754 5.04798 0
M  V30 7153 H 674.338 -1.20021 3.99877 0
M  V30 7154 H 675.728 2.05231 6.39789 0
M  V30 7155 N 678.448 -1.51871 0.421078 0
M  V30 7156 C 679.864 -1.59435 0.0725398 0
M  V30 7157 C 680.064 -1.43315 -1.41644 0
M  V30 7158 O 679.12 -1.26614 -2.18461 0
M  V30 7159 C 680.433 -2.9509 0.578132 0
M  V30 7160 C 681.981 -3.08356 0.537149 0
M  V30 7161 C 682.456 -4.4651 1.01945 0
M  V30 7162 N 683.947 -4.52784 0.976758 0
M  V30 7163 C 684.682 -5.57976 1.32099 0
M  V30 7164 N 684.178 -6.70664 1.73727 0
M  V30 7165 N 685.971 -5.48248 1.2402 0
M  V30 7166 H 678.122 -1.60595 1.39007 0
M  V30 7167 H 680.385 -0.756138 0.571803 0
M  V30 7168 H 680.091 -3.12205 1.61929 0
M  V30 7169 H 679.965 -3.772 -0.00578374 0
M  V30 7170 H 682.352 -2.90919 -0.494991 0
M  V30 7171 H 682.433 -2.28125 1.15727 0
M  V30 7172 H 682.077 -4.64692 2.04997 0
M  V30 7173 H 682.007 -5.25256 0.376023 0
M  V30 7174 H 684.498 -3.71898 0.670851 0
M  V30 7175 H 684.811 -7.46932 1.98274 0
M  V30 7176 H 683.156 -6.71914 1.77641 0
M  V30 7177 H 686.347 -4.59095 0.913756 0
M  V30 7178 H 686.52 -6.30119 1.51176 0
M  V30 7179 N 679.926 -0.151884 -1.56866 0
M  V30 7180 C 681.337 0.368128 -1.83035 0
M  V30 7181 C 681.688 1.64402 -1.07082 0
M  V30 7182 O 680.813 2.14056 -0.317647 0
M  V30 7183 C 681.408 0.674676 -3.32014 0
M  V30 7184 C 679.967 1.13919 -3.58747 0
M  V30 7185 C 679.114 0.164833 -2.7681 0
M  V30 7186 H 682.065 -0.376499 -1.54169 0
M  V30 7187 H 682.086 1.52883 -3.48435 0
M  V30 7188 H 681.598 -0.254113 -3.87267 0
M  V30 7189 H 679.699 2.08375 -3.08886 0
M  V30 7190 H 679.812 1.06179 -4.67186 0
M  V30 7191 H 678.176 0.658419 -2.46043 0
M  V30 7192 H 678.959 -0.757633 -3.34836 0
M  V30 7193 N 681.404 1.57128 0.121893 0
M  V30 7194 C 682.334 2.03165 1.15092 0
M  V30 7195 C 683.315 0.915587 1.43356 0
M  V30 7196 O 684.5 1.1851 1.53847 0
M  V30 7197 C 681.63 2.43352 2.47784 0
M  V30 7198 C 680.584 3.58376 2.33989 0
M  V30 7199 C 679.91 3.84454 3.71617 0
M  V30 7200 C 681.21 4.90199 1.80283 0
M  V30 7201 H 682.904 2.89382 0.768023 0
M  V30 7202 H 680.45 1.39218 0.367998 0
M  V30 7203 H 682.403 2.74163 3.20019 0
M  V30 7204 H 681.127 1.54103 2.87958 0
M  V30 7205 H 679.786 3.2777 1.64202 0
M  V30 7206 H 679.434 2.92414 4.09271 0
M  V30 7207 H 679.134 4.61877 3.6324 0
M  V30 7208 H 680.658 4.17714 4.45362 0
M  V30 7209 H 682.072 5.19565 2.42333 0
M  V30 7210 H 680.469 5.71601 1.82735 0
M  V30 7211 H 681.539 4.78904 0.760184 0
M  V30 7212 N 682.882 -0.391992 1.52647 0
M  V30 7213 C 684.13 -1.13507 1.67214 0
M  V30 7214 C 684.451 -1.90575 0.41304 0
M  V30 7215 O 683.721 -1.87348 -0.572498 0
M  V30 7216 H 682.301 -0.422013 0.616372 0
M  V30 7217 H 684.963 -0.44502 1.89751 0
M  V30 7218 H 684.059 -1.83964 2.52118 0
M  V30 7219 N 684.36 -1.4356 -0.65026 0
M  V30 7220 C 685.776 -1.27025 -0.966269 0
M  V30 7221 C 685.976 -0.192117 -2.00582 0
M  V30 7222 O 685.032 0.428459 -2.48838 0
M  V30 7223 C 686.345 -2.63556 -1.44772 0
M  V30 7224 C 687.893 -2.71111 -1.56421 0
M  V30 7225 C 688.368 -4.08067 -2.07956 0
M  V30 7226 N 689.859 -4.10146 -2.15254 0
M  V30 7227 C 690.594 -5.12952 -2.56258 0
M  V30 7228 N 690.09 -6.26129 -2.96537 0
M  V30 7229 N 691.883 -5.00306 -2.56224 0
M  V30 7230 H 684.034 -2.12367 0.0375758 0
M  V30 7231 H 686.297 -0.946894 -0.0457782 0
M  V30 7232 H 686.003 -3.43429 -0.758271 0
M  V30 7233 H 685.877 -2.89152 -2.42221 0
M  V30 7234 H 688.264 -1.91569 -2.24467 0
M  V30 7235 H 688.345 -2.49277 -0.573967 0
M  V30 7236 H 687.989 -4.88077 -1.40511 0
M  V30 7237 H 687.919 -4.27266 -3.07817 0
M  V30 7238 H 690.41 -3.28453 -1.86887 0
M  V30 7239 H 690.723 -7.00403 -3.26582 0
M  V30 7240 H 689.068 -6.29597 -2.94334 0
M  V30 7241 H 692.259 -4.10952 -2.24135 0
M  V30 7242 H 692.432 -5.80553 -2.87857 0
M  V30 7243 N 685.838 0.888903 -1.30139 0
M  V30 7244 C 687.066 1.67358 -1.21651 0
M  V30 7245 C 687.481 1.87499 0.221246 0
M  V30 7246 O 686.838 1.41969 1.14677 0
M  V30 7247 C 686.889 3.05213 -1.93719 0
M  V30 7248 O 686.61 2.85984 -3.31881 0
M  V30 7249 C 688.111 3.9964 -1.9184 0
M  V30 7250 H 685.331 0.522365 -0.42116 0
M  V30 7251 H 687.875 1.11086 -1.71698 0
M  V30 7252 H 686.03 3.5823 -1.4748 0
M  V30 7253 H 686.444 3.73411 -3.68327 0
M  V30 7254 H 687.918 4.93749 -2.46811 0
M  V30 7255 H 688.395 4.29955 -0.896409 0
M  V30 7256 H 689.001 3.52558 -2.37872 0
M  V30 7257 N 687.317 1.12792 1.10072 0
M  V30 7258 C 688.249 0.757003 2.16338 0
M  V30 7259 C 689.262 -0.218144 1.61332 0
M  V30 7260 O 690.451 0.0010727 1.785 0
M  V30 7261 C 687.551 0.100303 3.38752 0
M  V30 7262 C 686.724 1.10586 4.2319 0
M  V30 7263 C 685.783 0.47609 5.24042 0
M  V30 7264 O 684.809 1.13418 5.57786 0
M  V30 7265 N 686.011 -0.754823 5.75572 0
M  V30 7266 H 688.776 1.6714 2.48766 0
M  V30 7267 H 686.337 1.02003 1.25726 0
M  V30 7268 H 688.329 -0.333092 4.03327 0
M  V30 7269 H 686.899 -0.716915 3.04268 0
M  V30 7270 H 686.119 1.71677 3.54853 0
M  V30 7271 H 687.407 1.78571 4.76435 0
M  V30 7272 H 686.805 -1.30838 5.50362 0
M  V30 7273 H 685.362 -1.13098 6.41913 0
M  V30 7274 N 688.795 -1.27931 0.920396 0
M  V30 7275 C 690.02 -1.99343 0.572478 0
M  V30 7276 C 690.445 -1.68267 -0.840696 0
M  V30 7277 O 689.803 -0.918805 -1.56294 0
M  V30 7278 C 689.851 -3.51698 0.796284 0
M  V30 7279 O 688.955 -4.12157 -0.141602 0
M  V30 7280 H 688.296 -0.626065 0.221221 0
M  V30 7281 H 690.826 -1.62921 1.23765 0
M  V30 7282 H 690.836 -4.01793 0.708984 0
M  V30 7283 H 689.511 -3.73649 1.82644 0
M  V30 7284 H 688.088 -3.729 -0.005007 0
M  V30 7285 N 690.273 -0.685099 -1.4193 0
M  V30 7286 C 691.236 -0.0222632 -2.29189 0
M  V30 7287 C 692.236 0.7186 -1.4385 0
M  V30 7288 O 693.426 0.555058 -1.6512 0
M  V30 7289 C 690.558 0.979013 -3.2654 0
M  V30 7290 H 691.751 -0.790424 -2.89296 0
M  V30 7291 H 689.304 -0.448012 -1.49742 0
M  V30 7292 H 690.039 1.77531 -2.71392 0
M  V30 7293 H 689.824 0.451037 -3.89497 0
M  V30 7294 H 691.314 1.44091 -3.91954 0
M  V30 7295 N 691.751 1.51645 -0.429126 0
M  V30 7296 C 693.162 1.86665 0.0359003 0
M  V30 7297 C 693.513 1.34677 1.42676 0
M  V30 7298 O 692.638 0.694195 2.04963 0
M  V30 7299 C 693.233 3.38724 0.0719221 0
M  V30 7300 C 691.792 3.7331 0.481336 0
M  V30 7301 C 690.939 2.75313 -0.331329 0
M  V30 7302 H 693.89 1.44987 -0.645333 0
M  V30 7303 H 693.911 3.7011 0.883118 0
M  V30 7304 H 693.423 3.76532 -0.940495 0
M  V30 7305 H 691.524 3.41088 1.49966 0
M  V30 7306 H 691.637 4.78631 0.211837 0
M  V30 7307 H 690.001 2.53839 0.209204 0
M  V30 7308 H 690.784 3.15963 -1.34247 0
M  V30 7309 N 693.229 0.160201 1.56784 0
M  V30 7310 C 694.159 -0.770264 2.2043 0
M  V30 7311 C 695.14 -1.24736 1.15651 0
M  V30 7312 O 696.325 -1.30253 1.44041 0
M  V30 7313 C 693.455 -2.00427 2.83631 0
M  V30 7314 C 692.409 -1.66345 3.94352 0
M  V30 7315 C 691.735 -2.97119 4.4455 0
M  V30 7316 C 693.035 -0.899972 5.14488 0
M  V30 7317 H 694.729 -0.239783 2.98438 0
M  V30 7318 H 692.275 -0.113891 1.43549 0
M  V30 7319 H 694.228 -2.66012 3.26827 0
M  V30 7320 H 692.952 -2.5587 2.02973 0
M  V30 7321 H 691.611 -1.03133 3.51794 0
M  V30 7322 H 691.259 -3.5058 3.60698 0
M  V30 7323 H 690.959 -2.75073 5.19238 0
M  V30 7324 H 692.483 -3.63753 4.90425 0
M  V30 7325 H 693.897 -1.45818 5.54446 0
M  V30 7326 H 692.294 -0.778968 5.95023 0
M  V30 7327 H 693.364 0.105827 4.84785 0
M  V30 7328 N 694.707 -1.5719 -0.113559 0
M  V30 7329 C 696.118 -1.74259 -0.670116 0
M  V30 7330 C 696.469 -0.779694 -1.80042 0
M  V30 7331 O 695.594 0.0461353 -2.16351 0
M  V30 7332 C 696.189 -3.15981 -1.22236 0
M  V30 7333 C 694.748 -3.34537 -1.72516 0
M  V30 7334 C 693.895 -2.70116 -0.627098 0
M  V30 7335 H 696.846 -1.58301 0.112396 0
M  V30 7336 H 696.867 -3.17832 -2.09197 0
M  V30 7337 H 696.379 -3.86038 -0.39949 0
M  V30 7338 H 694.48 -2.6953 -2.57263 0
M  V30 7339 H 694.593 -4.42737 -1.83086 0
M  V30 7340 H 692.957 -2.31501 -1.06204 0
M  V30 7341 H 693.74 -3.42802 0.184889 0
M  V30 7342 N 696.185 0.383891 -1.52853 0
M  V30 7343 C 697.117 1.48889 -1.74255 0
M  V30 7344 C 698.13 1.50405 -0.623063 0
M  V30 7345 O 699.319 1.54215 -0.898887 0
M  V30 7346 C 696.419 2.87721 -1.79081 0
M  V30 7347 C 695.592 3.10111 -3.08464 0
M  V30 7348 C 694.651 4.28954 -3.0477 0
M  V30 7349 O 693.677 4.25012 -3.78621 0
M  V30 7350 N 694.879 5.35411 -2.24311 0
M  V30 7351 H 697.644 1.30915 -2.69595 0
M  V30 7352 H 695.205 0.573454 -1.51404 0
M  V30 7353 H 697.197 3.65333 -1.7411 0
M  V30 7354 H 695.767 2.99029 -0.911052 0
M  V30 7355 H 694.987 2.20319 -3.26884 0
M  V30 7356 H 696.275 3.21928 -3.94005 0
M  V30 7357 H 695.673 5.41471 -1.63787 0
M  V30 7358 H 694.23 6.1167 -2.25175 0
M  V30 7359 N 697.663 1.43903 0.642637 0
M  V30 7360 C 698.611 1.50164 1.77634 0
M  V30 7361 C 699.605 0.374294 1.65213 0
M  V30 7362 O 700.811 0.548748 1.71431 0
M  V30 7363 H 697.186 0.470974 0.586249 0
M  V30 7364 H 699.157 2.45603 1.69474 0
M  V30 7365 C 697.906 1.45196 3.15933 0
M  V30 7366 H 697.229 2.31253 3.26132 0
M  V30 7367 H 698.669 1.53638 3.95185 0
M  V30 7368 C 697.128 0.171043 3.36466 0
M  V30 7369 O 697.658 -0.763413 3.94379 0
M  V30 7370 N 695.864 0.077847 2.90496 0
M  V30 7371 H 695.411 0.8391 2.43551 0
M  V30 7372 H 695.369 -0.778473 3.0461 0
M  V30 7373 N 699.141 -0.881989 1.30609 0
M  V30 7374 C 700.104 -1.96957 1.1722 0
M  V30 7375 C 701.104 -1.60472 0.102598 0
M  V30 7376 O 702.294 -1.70628 0.350943 0
M  V30 7377 C 699.426 -3.31463 0.796572 0
M  V30 7378 H 700.619 -2.10262 2.13846 0
M  V30 7379 H 698.172 -1.06877 1.14048 0
M  V30 7380 H 698.907 -3.23859 -0.169053 0
M  V30 7381 H 698.692 -3.59314 1.56959 0
M  V30 7382 H 700.182 -4.11233 0.72645 0
M  V30 7383 N 700.619 -1.13374 -1.09472 0
M  V30 7384 C 701.551 -0.768466 -2.15933 0
M  V30 7385 C 702.564 0.209585 -1.61445 0
M  V30 7386 O 703.753 -0.010539 -1.78497 0
M  V30 7387 C 700.853 -0.118266 -3.38694 0
M  V30 7388 C 700.026 -1.12829 -4.22597 0
M  V30 7389 C 699.085 -0.503875 -5.23782 0
M  V30 7390 O 698.111 -1.16374 -5.57177 0
M  V30 7391 N 699.313 0.724288 -5.75964 0
M  V30 7392 H 702.078 -1.68457 -2.47876 0
M  V30 7393 H 699.639 -1.02668 -1.25183 0
M  V30 7394 H 701.631 0.311698 -4.03498 0
M  V30 7395 H 700.201 0.700769 -3.04644 0
M  V30 7396 H 699.421 -1.73556 -3.53938 0
M  V30 7397 H 700.709 -1.81095 -4.75481 0
M  V30 7398 H 700.107 1.27918 -5.51048 0
M  V30 7399 H 698.664 1.09692 -6.42504 0
M  V30 7400 N 702.098 1.27442 -0.927168 0
M  V30 7401 C 703.061 2.2512 -0.430525 0
M  V30 7402 C 704.061 1.54357 0.450619 0
M  V30 7403 O 705.251 1.72371 0.251774 0
M  V30 7404 C 702.383 3.38763 0.381144 0
M  V30 7405 H 703.576 2.70569 -1.29354 0
M  V30 7406 H 701.129 1.39355 -0.707806 0
M  V30 7407 H 701.864 2.98695 1.263 0
M  V30 7408 H 701.649 3.91298 -0.250618 0
M  V30 7409 H 703.139 4.11364 0.719012 0
M  V30 7410 N 703.576 0.692616 1.41565 0
M  V30 7411 C 704.506 0.0397325 2.33466 0
M  V30 7412 C 705.487 -0.770334 1.51657 0
M  V30 7413 O 706.672 -0.723903 1.80203 0
M  V30 7414 C 703.802 -0.899495 3.3545 0
M  V30 7415 C 702.756 -0.196738 4.27548 0
M  V30 7416 C 702.082 -1.25012 5.19881 0
M  V30 7417 C 703.382 0.935158 5.1386 0
M  V30 7418 H 705.076 0.807296 2.88311 0
M  V30 7419 H 702.622 0.389665 1.38628 0
M  V30 7420 H 704.575 -1.36545 3.98665 0
M  V30 7421 H 703.299 -1.69869 2.78948 0
M  V30 7422 H 701.958 0.249158 3.65752 0
M  V30 7423 H 701.606 -2.04177 4.59696 0
M  V30 7424 H 701.306 -0.784931 5.82334 0
M  V30 7425 H 702.83 -1.71665 5.85972 0
M  V30 7426 H 704.244 0.549619 5.70659 0
M  V30 7427 H 702.641 1.32726 5.85238 0
M  V30 7428 H 703.711 1.77613 4.512 0
M  V30 7429 N 705.054 -1.51416 0.437162 0
M  V30 7430 C 705.986 -2.255 -0.410171 0
M  V30 7431 C 706.999 -1.29511 -0.986444 0
M  V30 7432 O 708.188 -1.55266 -0.880614 0
M  V30 7433 C 705.288 -2.99511 -1.58575 0
M  V30 7434 C 704.461 -4.22595 -1.12839 0
M  V30 7435 C 703.52 -4.79187 -2.17407 0
M  V30 7436 O 702.546 -5.4103 -1.76849 0
M  V30 7437 N 703.748 -4.63204 -3.49889 0
M  V30 7438 H 706.513 -2.98856 0.224783 0
M  V30 7439 H 704.074 -1.59699 0.266041 0
M  V30 7440 H 706.066 -3.34258 -2.28152 0
M  V30 7441 H 704.636 -2.29167 -2.12606 0
M  V30 7442 H 703.856 -3.93344 -0.259695 0
M  V30 7443 H 705.144 -5.02468 -0.800196 0
M  V30 7444 H 704.542 -4.13945 -3.85573 0
M  V30 7445 H 703.099 -5.02313 -4.15361 0
M  V30 7446 N 706.532 -0.168513 -1.56696 0
M  V30 7447 C 707.482 0.7751 -2.14421 0
M  V30 7448 C 708.466 1.19476 -1.07769 0
M  V30 7449 O 709.658 1.15759 -1.33898 0
M  V30 7450 C 706.787 2.00549 -2.7863 0
M  V30 7451 C 705.873 1.60795 -3.92436 0
M  V30 7452 N 706.264 0.919812 -4.97366 0
M  V30 7453 C 704.562 1.89917 -4.03544 0
M  V30 7454 C 705.263 0.724485 -5.77171 0
M  V30 7455 N 704.239 1.26505 -5.28675 0
M  V30 7456 H 708.041 0.240349 -2.92916 0
M  V30 7457 H 705.555 0.0322675 -1.62368 0
M  V30 7458 H 707.552 2.6917 -3.1836 0
M  V30 7459 H 706.212 2.54522 -2.01615 0
M  V30 7460 H 707.223 0.578169 -5.14663 0
M  V30 7461 H 703.9 2.45587 -3.37629 0
M  V30 7462 H 705.29 0.180521 -6.71657 0
M  V30 7463 N 708.01 1.57248 0.105221 0
M  V30 7464 C 708.94 2.04374 1.12931 0
M  V30 7465 C 709.921 0.93074 1.42377 0
M  V30 7466 O 711.106 1.20136 1.52581 0
M  V30 7467 C 708.236 2.45967 2.45189 0
M  V30 7468 C 707.19 3.60838 2.30174 0
M  V30 7469 C 706.516 3.88374 3.67518 0
M  V30 7470 C 707.816 4.92084 1.75073 0
M  V30 7471 H 709.51 2.9018 0.737287 0
M  V30 7472 H 707.056 1.39601 0.353211 0
M  V30 7473 H 709.009 2.77542 3.17094 0
M  V30 7474 H 707.733 1.57148 2.86308 0
M  V30 7475 H 706.392 3.29493 1.60716 0
M  V30 7476 H 706.04 2.96739 4.06147 0
M  V30 7477 H 705.74 4.65703 3.58321 0
M  V30 7478 H 707.264 4.22415 4.40906 0
M  V30 7479 H 708.678 5.22106 2.36809 0
M  V30 7480 H 707.075 5.73507 1.76662 0
M  V30 7481 H 708.145 4.79684 0.709347 0
M  V30 7482 N 709.488 -0.375779 1.53054 0
M  V30 7483 C 710.734 -1.12114 1.68992 0
M  V30 7484 C 711.067 -1.8926 0.435238 0
M  V30 7485 O 710.342 -1.86044 -0.567278 0
M  V30 7486 C 710.625 -2.08867 2.93337 0
M  V30 7487 C 710.478 -1.35397 4.28938 0
M  V30 7488 C 711.797 -3.09124 3.13257 0
M  V30 7489 H 708.916 -0.406207 0.614951 0
M  V30 7490 H 711.558 -0.403054 1.85676 0
M  V30 7491 H 709.708 -2.70102 2.79244 0
M  V30 7492 H 711.38 -0.770242 4.54824 0
M  V30 7493 H 709.623 -0.655801 4.28814 0
M  V30 7494 H 710.294 -2.06161 5.12056 0
M  V30 7495 H 712.77 -2.57987 3.26469 0
M  V30 7496 H 711.646 -3.74054 4.01715 0
M  V30 7497 H 711.907 -3.78729 2.28072 0
M  V30 7498 N 710.966 -1.44241 -0.634997 0
M  V30 7499 C 712.215 -1.46102 -1.39058 0
M  V30 7500 C 712.528 -0.0959909 -1.95364 0
M  V30 7501 O 713.734 0.00788751 -2.71499 0
M  V30 7502 C 712.19 -2.57195 -2.51751 0
M  V30 7503 C 711.798 -3.99888 -2.01974 0
M  V30 7504 C 713.542 -2.68272 -3.28984 0
M  V30 7505 C 711.449 -5.02412 -3.11987 0
M  V30 7506 H 710.379 -0.543556 -0.522554 0
M  V30 7507 H 713.03 -1.70294 -0.683538 0
M  V30 7508 H 711.412 -2.26237 -3.25012 0
M  V30 7509 H 712.586 -4.40396 -1.35604 0
M  V30 7510 H 710.901 -3.93019 -1.37568 0
M  V30 7511 H 713.498 -3.42042 -4.10988 0
M  V30 7512 H 713.841 -1.73957 -3.78212 0
M  V30 7513 H 714.374 -2.98622 -2.62812 0
M  V30 7514 H 711.113 -5.98342 -2.67707 0
M  V30 7515 H 710.633 -4.66501 -3.77011 0
M  V30 7516 H 712.312 -5.25939 -3.76825 0
M  V30 7517 N 712.444 0.87505 -1.31075 0
M  V30 7518 C 713.376 1.98773 -1.14114 0
M  V30 7519 C 714.389 1.62595 -0.0816119 0
M  V30 7520 O 715.578 1.75449 -0.32861 0
M  V30 7521 C 712.678 3.31159 -0.720224 0
M  V30 7522 C 711.851 3.9571 -1.86366 0
M  V30 7523 C 710.91 5.06407 -1.42965 0
M  V30 7524 O 709.936 5.27501 -2.13848 0
M  V30 7525 N 711.138 5.79649 -0.314194 0
M  V30 7526 H 713.903 2.1387 -2.09951 0
M  V30 7527 H 711.464 1.04873 -1.23342 0
M  V30 7528 H 713.456 4.0259 -0.412687 0
M  V30 7529 H 712.026 3.12257 0.146396 0
M  V30 7530 H 711.246 3.17324 -2.33879 0
M  V30 7531 H 712.534 4.35576 -2.62966 0
M  V30 7532 H 711.932 5.65025 0.276228 0
M  V30 7533 H 710.489 6.51766 -0.0661641 0
M  V30 7534 N 713.922 1.13953 1.08869 0
M  V30 7535 C 714.854 0.779906 2.15523 0
M  V30 7536 C 715.867 -0.20102 1.61554 0
M  V30 7537 O 717.056 0.0200049 1.78489 0
M  V30 7538 C 714.156 0.136226 3.38626 0
M  V30 7539 C 713.329 1.15069 4.21993 0
M  V30 7540 C 712.388 0.531645 5.23507 0
M  V30 7541 O 711.414 1.19327 5.56552 0
M  V30 7542 N 712.616 -0.693734 5.7634 0
M  V30 7543 H 715.381 1.69769 2.46979 0
M  V30 7544 H 712.942 1.03331 1.24637 0
M  V30 7545 H 714.934 -0.290295 4.03658 0
M  V30 7546 H 713.504 -0.684603 3.05011 0
M  V30 7547 H 712.724 1.75431 3.53012 0
M  V30 7548 H 714.012 1.83614 4.74514 0
M  V30 7549 H 713.41 -1.24994 5.51718 0
M  V30 7550 H 711.967 -1.06283 6.43076 0
M  V30 7551 N 715.4 -1.26948 0.933913 0
M  V30 7552 C 716.332 -2.25768 0.395137 0
M  V30 7553 C 717.345 -1.55637 -0.477585 0
M  V30 7554 O 718.534 -1.76142 -0.289204 0
M  V30 7555 C 715.634 -3.35874 -0.451882 0
M  V30 7556 C 714.807 -4.3554 0.40299 0
M  V30 7557 C 713.866 -5.24809 -0.3824 0
M  V30 7558 O 712.892 -5.68805 0.212057 0
M  V30 7559 N 714.094 -5.55636 -1.68072 0
M  V30 7560 H 716.859 -2.72634 1.24463 0
M  V30 7561 H 714.42 -1.40639 0.802008 0
M  V30 7562 H 716.412 -3.92542 -0.984516 0
M  V30 7563 H 714.982 -2.8856 -1.20215 0
M  V30 7564 H 714.202 -3.78047 1.11688 0
M  V30 7565 H 715.49 -4.99131 0.987201 0
M  V30 7566 H 714.888 -5.2176 -2.18592 0
M  V30 7567 H 713.445 -6.14978 -2.15975 0
M  V30 7568 N 716.879 -0.700114 -1.41195 0
M  V30 7569 C 717.829 -0.0144098 -2.27995 0
M  V30 7570 C 718.813 0.748249 -1.42443 0
M  V30 7571 O 720.005 0.622995 -1.65674 0
M  V30 7572 C 717.134 0.917938 -3.308 0
M  V30 7573 C 716.22 0.151286 -4.2383 0
M  V30 7574 N 716.611 -0.85732 -4.98481 0
M  V30 7575 C 714.909 0.386108 -4.44326 0
M  V30 7576 C 715.61 -1.31663 -5.66604 0
M  V30 7577 N 714.586 -0.641689 -5.39799 0
M  V30 7578 H 718.388 -0.787662 -2.83149 0
M  V30 7579 H 715.902 -0.531344 -1.53462 0
M  V30 7580 H 717.899 1.42437 -3.91813 0
M  V30 7581 H 716.559 1.69074 -2.77208 0
M  V30 7582 H 717.57 -1.2377 -5.02893 0
M  V30 7583 H 714.247 1.13644 -4.01735 0
M  V30 7584 H 715.637 -2.15384 -6.36443 0
M  V30 7585 N 718.357 1.51182 -0.445186 0
M  V30 7586 C 719.289 2.25714 0.398206 0
M  V30 7587 C 720.302 1.30032 0.979562 0
M  V30 7588 O 721.491 1.55731 0.872368 0
M  V30 7589 C 718.591 3.00348 1.56985 0
M  V30 7590 C 717.764 4.23187 1.10596 0
M  V30 7591 C 716.823 4.80334 2.14863 0
M  V30 7592 O 715.849 5.4196 1.73977 0
M  V30 7593 N 717.051 4.65053 3.47427 0
M  V30 7594 H 719.816 2.98732 -0.240629 0
M  V30 7595 H 717.377 1.59556 -0.274507 0
M  V30 7596 H 719.369 3.35464 2.26376 0
M  V30 7597 H 717.939 2.30291 2.11387 0
M  V30 7598 H 717.159 3.93476 0.238832 0
M  V30 7599 H 718.447 5.02886 0.773537 0
M  V30 7600 H 717.845 4.15984 3.83372 0
M  V30 7601 H 716.402 5.04509 4.12691 0
M  V30 7602 N 719.835 0.176821 1.56605 0
M  V30 7603 C 720.767 -0.782836 2.15417 0
M  V30 7604 C 721.78 -1.18982 1.11117 0
M  V30 7605 O 722.969 -1.12872 1.38283 0
M  V30 7606 C 720.069 -2.06596 2.68647 0
M  V30 7607 C 719.242 -1.82167 3.9766 0
M  V30 7608 C 718.301 -2.94751 4.35899 0
M  V30 7609 O 717.327 -2.65148 5.03672 0
M  V30 7610 N 718.529 -4.2267 3.97907 0
M  V30 7611 H 721.294 -0.280012 2.98389 0
M  V30 7612 H 718.855 -0.00577529 1.61899 0
M  V30 7613 H 720.847 -2.81018 2.91223 0
M  V30 7614 H 719.417 -2.48054 1.90232 0
M  V30 7615 H 718.637 -0.916208 3.83405 0
M  V30 7616 H 719.925 -1.6322 4.81909 0
M  V30 7617 H 719.323 -4.4958 3.43357 0
M  V30 7618 H 717.88 -4.93778 4.25472 0
M  V30 7619 N 721.313 -1.57302 -0.09688 0
M  V30 7620 C 722.56 -1.85997 -0.800699 0
M  V30 7621 C 722.888 -0.765089 -1.7882 0
M  V30 7622 O 722.143 0.241492 -1.94204 0
M  V30 7623 C 722.442 -3.21272 -1.56586 0
M  V30 7624 C 722.108 -4.45104 -0.72064 0
M  V30 7625 C 720.77 -4.78723 -0.487632 0
M  V30 7626 C 723.122 -5.2103 -0.132948 0
M  V30 7627 C 720.45 -5.85697 0.34296 0
M  V30 7628 C 722.802 -6.28881 0.684957 0
M  V30 7629 C 721.466 -6.61017 0.928073 0
M  V30 7630 H 720.736 -0.680613 -0.292997 0
M  V30 7631 H 723.383 -1.91399 -0.0622474 0
M  V30 7632 H 721.688 -3.11547 -2.37583 0
M  V30 7633 H 723.385 -3.40702 -2.11478 0
M  V30 7634 H 719.975 -4.18777 -0.912359 0
M  V30 7635 H 724.159 -4.95392 -0.300132 0
M  V30 7636 H 719.415 -6.09008 0.540317 0
M  V30 7637 H 723.589 -6.86886 1.14721 0
M  V30 7638 H 721.216 -7.43738 1.57348 0
M  V30 7639 N 722.791 0.367657 -1.53252 0
M  V30 7640 C 723.721 1.45632 -1.8252 0
M  V30 7641 C 724.702 1.55979 -0.678568 0
M  V30 7642 O 725.887 1.70581 -0.928217 0
M  V30 7643 C 723.017 2.82994 -2.01325 0
M  V30 7644 C 721.971 2.87473 -3.17086 0
M  V30 7645 C 721.297 4.2749 -3.21179 0
M  V30 7646 C 722.597 2.55182 -4.55719 0
M  V30 7647 H 724.291 1.21387 -2.73689 0
M  V30 7648 H 721.837 0.58251 -1.31692 0
M  V30 7649 H 723.79 3.59179 -2.20383 0
M  V30 7650 H 722.514 3.08622 -1.06864 0
M  V30 7651 H 721.173 2.13739 -2.97844 0
M  V30 7652 H 720.821 4.5019 -2.24361 0
M  V30 7653 H 720.521 4.31403 -3.98955 0
M  V30 7654 H 722.045 5.0555 -3.42419 0
M  V30 7655 H 723.459 3.21081 -4.74953 0
M  V30 7656 H 721.856 2.70414 -5.3572 0
M  V30 7657 H 722.926 1.5044 -4.60973 0
M  V30 7658 N 724.269 1.44576 0.627338 0
M  V30 7659 C 725.179 1.54232 1.76776 0
M  V30 7660 C 726.195 0.427782 1.6866 0
M  V30 7661 O 727.371 0.685671 1.89369 0
M  V30 7662 C 724.436 1.48738 3.13174 0
M  V30 7663 C 723.497 2.71074 3.32893 0
M  V30 7664 C 722.73 2.65832 4.62784 0
M  V30 7665 O 722.953 1.72048 5.43834 0
M  V30 7666 O 721.887 3.56742 4.84787 0
M  V30 7667 H 725.713 2.50586 1.71582 0
M  V30 7668 H 723.298 1.26865 0.789028 0
M  V30 7669 H 725.18 1.48211 3.94476 0
M  V30 7670 H 723.855 0.555292 3.18902 0
M  V30 7671 H 722.762 2.77168 2.51254 0
M  V30 7672 H 724.095 3.63342 3.32029 0
M  V30 7673 N 725.747 -0.868086 1.31537 0
M  V30 7674 C 726.694 -1.97548 1.19346 0
M  V30 7675 C 727.664 -1.65913 0.0787922 0
M  V30 7676 O 728.849 -1.89129 0.251985 0
M  V30 7677 C 725.989 -3.32922 0.908692 0
M  V30 7678 C 725.102 -3.77141 2.10687 0
M  V30 7679 C 724.237 -5.01241 1.75873 0
M  V30 7680 C 723.276 -5.37914 2.92088 0
M  V30 7681 N 722.413 -6.53192 2.57457 0
M  V30 7682 H 727.253 -2.07307 2.14074 0
M  V30 7683 H 724.79 -1.01483 1.06487 0
M  V30 7684 H 726.748 -4.10867 0.724138 0
M  V30 7685 H 725.378 -3.228 -0.0017611 0
M  V30 7686 H 724.43 -2.94961 2.40213 0
M  V30 7687 H 725.742 -4.00248 2.97663 0
M  V30 7688 H 724.896 -5.86858 1.53891 0
M  V30 7689 H 723.635 -4.80041 0.86091 0
M  V30 7690 H 722.64 -4.50814 3.14717 0
M  V30 7691 H 723.865 -5.61077 3.82582 0
M  V30 7692 H 721.811 -6.33536 1.702 0
M  V30 7693 H 721.728 -6.76252 3.37963 0
M  V30 7694 H 722.996 -7.41997 2.38873 0
M  V30 7695 N 727.225 -1.14528 -1.08264 0
M  V30 7696 C 728.175 -0.802141 -2.13424 0
M  V30 7697 C 729.159 0.209362 -1.59532 0
M  V30 7698 O 730.351 0.0114859 -1.76996 0
M  V30 7699 C 727.48 -0.282938 -3.42132 0
M  V30 7700 C 726.566 -1.32405 -4.02902 0
M  V30 7701 N 726.957 -2.52861 -4.38058 0
M  V30 7702 C 725.255 -1.17462 -4.30254 0
M  V30 7703 C 725.956 -3.1952 -4.86088 0
M  V30 7704 N 724.932 -2.46921 -4.84284 0
M  V30 7705 H 728.734 -1.71843 -2.38426 0
M  V30 7706 H 726.248 -1.02936 -1.2561 0
M  V30 7707 H 728.245 -0.0188053 -4.16896 0
M  V30 7708 H 726.905 0.627533 -3.18578 0
M  V30 7709 H 727.916 -2.90078 -4.2904 0
M  V30 7710 H 724.593 -0.323283 -4.16246 0
M  V30 7711 H 725.983 -4.2223 -5.22658 0
M  V30 7712 N 728.703 1.26451 -0.940633 0
M  V30 7713 C 729.65 2.264 -0.448497 0
M  V30 7714 C 730.62 1.5866 0.491546 0
M  V30 7715 O 731.805 1.86389 0.407874 0
M  V30 7716 C 728.945 3.43956 0.280715 0
M  V30 7717 C 728.058 4.26374 -0.694937 0
M  V30 7718 C 727.193 5.31171 0.0554186 0
M  V30 7719 C 726.232 6.05266 -0.912091 0
M  V30 7720 N 725.369 7.01833 -0.193524 0
M  V30 7721 H 730.209 2.67869 -1.30576 0
M  V30 7722 H 727.746 1.31707 -0.655112 0
M  V30 7723 H 729.704 4.10941 0.71994 0
M  V30 7724 H 728.334 3.03403 1.10212 0
M  V30 7725 H 727.386 3.59183 -1.25267 0
M  V30 7726 H 728.698 4.77748 -1.43382 0
M  V30 7727 H 727.852 6.04166 0.553951 0
M  V30 7728 H 726.591 4.80634 0.827183 0
M  V30 7729 H 725.596 5.31099 -1.42175 0
M  V30 7730 H 726.821 6.57893 -1.68385 0
M  V30 7731 H 724.767 6.53607 0.559758 0
M  V30 7732 H 724.684 7.50957 -0.871744 0
M  V30 7733 H 725.952 7.78983 0.283932 0
M  V30 7734 N 730.181 0.707592 1.40822 0
M  V30 7735 C 731.113 0.0105968 2.29198 0
M  V30 7736 C 732.126 -0.732035 1.45414 0
M  V30 7737 O 733.315 -0.580741 1.68789 0
M  V30 7738 C 730.415 -1.00921 3.23525 0
M  V30 7739 C 729.588 -0.333747 4.36125 0
M  V30 7740 C 728.647 -1.25783 5.10945 0
M  V30 7741 O 727.673 -0.745646 5.64295 0
M  V30 7742 N 728.875 -2.58947 5.19545 0
M  V30 7743 H 731.64 0.76938 2.89656 0
M  V30 7744 H 729.201 0.554579 1.52105 0
M  V30 7745 H 731.193 -1.6294 3.70449 0
M  V30 7746 H 729.763 -1.66942 2.6429 0
M  V30 7747 H 728.983 0.466518 3.9143 0
M  V30 7748 H 730.271 0.135444 5.0862 0
M  V30 7749 H 729.669 -3.03065 4.7767 0
M  V30 7750 H 728.226 -3.16131 5.70004 0
M  V30 7751 N 731.66 -1.50943 0.453197 0
M  V30 7752 C 732.592 -2.25922 -0.38623 0
M  V30 7753 C 733.605 -1.3055 -0.972652 0
M  V30 7754 O 734.794 -1.56191 -0.864097 0
M  V30 7755 C 731.894 -3.01176 -1.5539 0
M  V30 7756 C 731.067 -4.23768 -1.0835 0
M  V30 7757 C 730.126 -4.81466 -2.12313 0
M  V30 7758 O 729.152 -5.42875 -1.71101 0
M  V30 7759 N 730.354 -4.66889 -3.44956 0
M  V30 7760 H 733.119 -2.98601 0.256468 0
M  V30 7761 H 730.68 -1.59408 0.282965 0
M  V30 7762 H 732.672 -3.36659 -2.24594 0
M  V30 7763 H 731.242 -2.31409 -2.10163 0
M  V30 7764 H 730.462 -3.93597 -0.217961 0
M  V30 7765 H 731.75 -5.03289 -0.746857 0
M  V30 7766 H 731.148 -4.18011 -3.81161 0
M  V30 7767 H 729.705 -5.06691 -4.1001 0
M  V30 7768 N 733.138 -0.185124 -1.56509 0
M  V30 7769 C 734.385 0.456258 -1.97293 0
M  V30 7770 C 734.713 1.62314 -1.07165 0
M  V30 7771 O 733.968 1.95398 -0.108621 0
M  V30 7772 C 734.267 0.967977 -3.44042 0
M  V30 7773 C 733.933 -0.084476 -4.50821 0
M  V30 7774 C 732.595 -0.373689 -4.79747 0
M  V30 7775 C 734.947 -0.79812 -5.15053 0
M  V30 7776 C 732.275 -1.3817 -5.70198 0
M  V30 7777 C 734.627 -1.79521 -6.06593 0
M  V30 7778 C 733.291 -2.09172 -6.3388 0
M  V30 7779 H 732.561 0.166957 -0.721946 0
M  V30 7780 H 735.208 -0.279992 -1.89442 0
M  V30 7781 H 733.513 1.78231 -3.48914 0
M  V30 7782 H 735.21 1.47347 -3.72948 0
M  V30 7783 H 731.8 0.15111 -4.28334 0
M  V30 7784 H 735.984 -0.587903 -4.92806 0
M  V30 7785 H 731.24 -1.61745 -5.89617 0
M  V30 7786 H 735.414 -2.35347 -6.55427 0
M  V30 7787 H 733.041 -2.87427 -7.03768 0
M  V30 7788 N 734.616 1.57351 0.0885366 0
M  V30 7789 C 735.548 1.99221 1.13329 0
M  V30 7790 C 736.561 0.895705 1.35945 0
M  V30 7791 O 737.75 1.17376 1.34481 0
M  V30 7792 C 734.85 2.3016 2.48756 0
M  V30 7793 C 734.023 3.61444 2.46327 0
M  V30 7794 C 733.082 3.80244 3.63732 0
M  V30 7795 O 732.108 4.52024 3.45924 0
M  V30 7796 N 733.31 3.2132 4.8346 0
M  V30 7797 H 736.075 2.89456 0.776862 0
M  V30 7798 H 733.636 1.59505 0.277428 0
M  V30 7799 H 735.628 2.39925 3.25911 0
M  V30 7800 H 734.198 1.459 2.76464 0
M  V30 7801 H 733.418 3.62588 1.54673 0
M  V30 7802 H 734.706 4.47678 2.41789 0
M  V30 7803 H 734.104 2.63028 5.00832 0
M  V30 7804 H 732.661 3.3656 5.58185 0
M  V30 7805 N 736.094 -0.359525 1.53444 0
M  V30 7806 C 737.026 -1.46098 1.76602 0
M  V30 7807 C 738.039 -1.49395 0.646912 0
M  V30 7808 O 739.228 -1.52765 0.923307 0
M  V30 7809 C 736.328 -2.84836 1.83635 0
M  V30 7810 C 735.501 -3.05164 3.13358 0
M  V30 7811 C 734.56 -4.24051 3.11556 0
M  V30 7812 O 733.586 -4.18935 3.85334 0
M  V30 7813 N 734.788 -5.31775 2.328 0
M  V30 7814 H 737.553 -1.2661 2.71643 0
M  V30 7815 H 735.114 -0.549294 1.52297 0
M  V30 7816 H 737.106 -3.62516 1.799 0
M  V30 7817 H 735.676 -2.97542 0.958509 0
M  V30 7818 H 734.896 -2.15091 3.30348 0
M  V30 7819 H 736.184 -3.15619 3.99076 0
M  V30 7820 H 735.582 -5.38796 1.7238 0
M  V30 7821 H 734.139 -6.0801 2.34877 0
M  V30 7822 N 737.572 -1.44907 -0.619662 0
M  V30 7823 C 738.504 -1.48652 -1.74457 0
M  V30 7824 C 739.517 -0.378596 -1.58337 0
M  V30 7825 O 740.706 -0.644987 -1.6644 0
M  V30 7826 C 737.806 -1.31568 -3.12319 0
M  V30 7827 C 736.979 -2.55816 -3.54792 0
M  V30 7828 C 736.038 -2.33465 -4.71573 0
M  V30 7829 O 735.064 -3.07015 -4.79302 0
M  V30 7830 N 736.266 -1.37254 -5.6404 0
M  V30 7831 H 739.031 -2.45632 -1.71712 0
M  V30 7832 H 736.592 -1.40492 -0.804582 0
M  V30 7833 H 738.584 -1.14445 -3.88181 0
M  V30 7834 H 737.154 -0.429095 -3.09641 0
M  V30 7835 H 736.374 -2.88137 -2.69018 0
M  V30 7836 H 737.662 -3.38431 -3.79924 0
M  V30 7837 H 737.06 -0.765309 -5.60499 0
M  V30 7838 H 735.617 -1.26106 -6.39485 0
M  V30 7839 N 739.05 0.861098 -1.31996 0
M  V30 7840 C 739.982 1.97551 -1.16216 0
M  V30 7841 C 740.995 1.625 -0.0988527 0
M  V30 7842 O 742.184 1.75091 -0.3472 0
M  V30 7843 C 739.284 3.30376 -0.755307 0
M  V30 7844 C 738.457 3.93711 -1.90552 0
M  V30 7845 C 737.516 5.04862 -1.48328 0
M  V30 7846 O 736.542 5.25204 -2.19431 0
M  V30 7847 N 737.744 5.79283 -0.375656 0
M  V30 7848 H 740.509 2.11632 -2.12208 0
M  V30 7849 H 738.07 1.03559 -1.24448 0
M  V30 7850 H 740.062 4.0213 -0.455364 0
M  V30 7851 H 738.632 3.12395 0.113269 0
M  V30 7852 H 737.852 3.14825 -2.37231 0
M  V30 7853 H 739.14 4.32762 -2.67571 0
M  V30 7854 H 738.538 5.65286 0.216284 0
M  V30 7855 H 737.095 6.5166 -0.135289 0
M  V30 7856 N 740.528 1.15101 1.07655 0
M  V30 7857 C 741.458 0.867864 2.16773 0
M  V30 7858 C 742.439 -0.180283 1.69142 0
M  V30 7859 O 743.624 -0.0353152 1.94168 0
M  V30 7860 C 740.754 0.35299 3.45501 0
M  V30 7861 C 739.708 1.33746 4.06566 0
M  V30 7862 C 739.034 0.681562 5.30338 0
M  V30 7863 C 740.334 2.7024 4.46954 0
M  V30 7864 H 742.028 1.78034 2.40716 0
M  V30 7865 H 739.574 0.857435 1.15689 0
M  V30 7866 H 741.527 0.142465 4.21159 0
M  V30 7867 H 740.251 -0.594945 3.21135 0
M  V30 7868 H 738.91 1.53429 3.32949 0
M  V30 7869 H 738.558 -0.272422 5.02262 0
M  V30 7870 H 738.258 1.33853 5.72151 0
M  V30 7871 H 739.782 0.48074 6.08705 0
M  V30 7872 H 741.196 2.5442 5.13754 0
M  V30 7873 H 739.593 3.32282 4.99709 0
M  V30 7874 H 740.663 3.26537 3.58471 0
M  V30 7875 N 742.006 -1.2595 0.947325 0
M  V30 7876 C 742.938 -2.25336 0.41906 0
M  V30 7877 C 743.951 -1.56135 -0.461051 0
M  V30 7878 O 745.14 -1.76438 -0.270505 0
M  V30 7879 C 742.24 -3.36334 -0.416233 0
M  V30 7880 C 741.413 -4.35088 0.449162 0
M  V30 7881 C 740.472 -5.25185 -0.326716 0
M  V30 7882 O 739.498 -5.68548 0.272374 0
M  V30 7883 N 740.7 -5.57388 -1.6217 0
M  V30 7884 H 743.465 -2.71298 1.27348 0
M  V30 7885 H 741.026 -1.39781 0.81688 0
M  V30 7886 H 743.018 -3.93564 -0.942826 0
M  V30 7887 H 741.588 -2.89819 -1.17148 0
M  V30 7888 H 740.808 -3.76841 1.15692 0
M  V30 7889 H 742.096 -4.98056 1.04008 0
M  V30 7890 H 741.494 -5.2405 -2.13046 0
M  V30 7891 H 740.051 -6.17234 -2.0944 0
M  V30 7892 N 743.484 -0.715051 -1.40445 0
M  V30 7893 C 744.417 -0.0112426 -2.28197 0
M  V30 7894 C 745.395 0.768211 -1.43308 0
M  V30 7895 O 746.579 0.754961 -1.72721 0
M  V30 7896 C 743.706 0.991453 -3.23864 0
M  V30 7897 C 742.752 0.302873 -4.25423 0
M  V30 7898 S 743.585 -0.968852 -5.26663 0
M  V30 7899 C 744.741 0.0317538 -6.25892 0
M  V30 7900 H 744.974 -0.755467 -2.87541 0
M  V30 7901 H 742.507 -0.506054 -1.45871 0
M  V30 7902 H 744.465 1.56475 -3.79507 0
M  V30 7903 H 743.126 1.70838 -2.63578 0
M  V30 7904 H 742.319 1.06086 -4.92709 0
M  V30 7905 H 741.921 -0.197853 -3.73476 0
M  V30 7906 H 744.213 0.878764 -6.71777 0
M  V30 7907 H 745.156 -0.607698 -7.05488 0
M  V30 7908 H 745.564 0.39524 -5.63115 0
M  V30 7909 N 744.962 1.50701 -0.461195 0
M  V30 7910 C 745.91 2.29918 0.352231 0
M  V30 7911 C 746.904 1.36778 0.999403 0
M  V30 7912 O 748.11 1.54015 0.931639 0
M  V30 7913 H 744.485 0.740249 0.132423 0
M  V30 7914 H 746.456 2.96497 -0.336424 0
M  V30 7915 C 745.205 3.17052 1.42736 0
M  V30 7916 H 744.528 3.88623 0.938747 0
M  V30 7917 H 745.968 3.75493 1.96928 0
M  V30 7918 C 744.427 2.3399 2.42384 0
M  V30 7919 O 744.957 2.01608 3.47444 0
M  V30 7920 N 743.163 1.96758 2.13857 0
M  V30 7921 H 742.71 2.23292 1.28447 0
M  V30 7922 H 742.668 1.41484 2.80766 0
M  V30 7923 N 746.441 0.193421 1.56409 0
M  V30 7924 C 747.388 -0.728124 2.19014 0
M  V30 7925 C 748.358 -1.21098 1.13686 0
M  V30 7926 O 749.543 -1.27517 1.4193 0
M  V30 7927 C 746.683 -1.94277 2.8522 0
M  V30 7928 C 745.796 -1.50143 4.05069 0
M  V30 7929 C 744.931 -2.67145 4.59137 0
M  V30 7930 C 743.97 -2.19609 5.71348 0
M  V30 7931 N 743.107 -3.29782 6.19829 0
M  V30 7932 H 747.947 -0.187499 2.9741 0
M  V30 7933 H 745.484 -0.0808064 1.46878 0
M  V30 7934 H 747.442 -2.65551 3.21774 0
M  V30 7935 H 746.072 -2.45673 2.09391 0
M  V30 7936 H 745.124 -0.684624 3.74189 0
M  V30 7937 H 746.436 -1.11266 4.86232 0
M  V30 7938 H 745.59 -3.46544 4.97988 0
M  V30 7939 H 744.329 -3.09295 3.77078 0
M  V30 7940 H 743.334 -1.38664 5.32027 0
M  V30 7941 H 744.559 -1.78492 6.55223 0
M  V30 7942 H 742.505 -3.71466 5.40693 0
M  V30 7943 H 742.422 -2.95069 6.96039 0
M  V30 7944 H 743.69 -4.094 6.63334 0
M  V30 7945 N 747.919 -1.57396 -0.0801906 0
M  V30 7946 C 749.168 -1.8602 -0.779702 0
M  V30 7947 C 749.481 -0.784864 -1.79163 0
M  V30 7948 O 750.687 -0.958691 -2.54011 0
M  V30 7949 C 749.143 -3.29942 -1.43758 0
M  V30 7950 C 748.751 -4.45584 -0.464654 0
M  V30 7951 C 750.495 -3.67775 -2.11995 0
M  V30 7952 C 748.402 -5.80544 -1.12797 0
M  V30 7953 H 747.332 -0.69392 -0.294943 0
M  V30 7954 H 749.983 -1.83471 -0.0328527 0
M  V30 7955 H 748.365 -3.27078 -2.2324 0
M  V30 7956 H 749.539 -4.59824 0.299749 0
M  V30 7957 H 747.854 -4.16247 0.112813 0
M  V30 7958 H 750.451 -4.65896 -2.62383 0
M  V30 7959 H 750.794 -2.9715 -2.91561 0
M  V30 7960 H 751.327 -3.72593 -1.39354 0
M  V30 7961 H 748.066 -6.54439 -0.372807 0
M  V30 7962 H 747.586 -5.70119 -1.86344 0
M  V30 7963 H 749.265 -6.25602 -1.6502 0
M  V30 7964 N 749.397 0.351382 -1.53633 0
M  V30 7965 C 750.646 1.08988 -1.69719 0
M  V30 7966 C 750.959 1.90043 -0.462948 0
M  V30 7967 O 752.165 2.66769 -0.504613 0
M  V30 7968 C 750.621 1.98691 -3.00083 0
M  V30 7969 C 750.229 1.22881 -4.30818 0
M  V30 7970 C 751.973 2.72446 -3.25536 0
M  V30 7971 C 749.88 2.11568 -5.52262 0
M  V30 7972 H 748.81 0.410588 -0.632403 0
M  V30 7973 H 751.461 0.349886 -1.80133 0
M  V30 7974 H 749.843 2.76478 -2.83506 0
M  V30 7975 H 751.017 0.500582 -4.58073 0
M  V30 7976 H 749.332 0.60928 -4.11918 0
M  V30 7977 H 751.929 3.39055 -4.13456 0
M  V30 7978 H 752.272 3.38588 -2.42206 0
M  V30 7979 H 752.805 2.01735 -3.42852 0
M  V30 7980 H 749.544 1.4998 -6.38111 0
M  V30 7981 H 749.064 2.82201 -5.29266 0
M  V30 7982 H 750.743 2.70802 -5.87601 0
M  V30 7983 N 750.875 1.45233 0.611969 0
M  V30 7984 C 752.286 1.4354 1.19387 0
M  V30 7985 C 752.637 0.160713 1.95541 0
M  V30 7986 O 751.762 -0.737954 2.03429 0
M  V30 7987 C 752.357 2.60045 2.17169 0
M  V30 7988 C 750.916 2.61486 2.70744 0
M  V30 7989 C 750.063 2.35708 1.46072 0
M  V30 7990 H 753.014 1.53536 0.401529 0
M  V30 7991 H 753.035 2.33893 3.00124 0
M  V30 7992 H 752.547 3.52803 1.61714 0
M  V30 7993 H 750.648 1.72721 3.30149 0
M  V30 7994 H 750.761 3.60572 3.15476 0
M  V30 7995 H 749.125 1.85178 1.74875 0
M  V30 7996 H 749.908 3.30606 0.924922 0
M  V30 7997 N 752.353 -0.854086 1.3245 0
M  V30 7998 C 753.3 -1.96271 1.21434 0
M  V30 7999 C 754.27 -1.6582 0.0963851 0
M  V30 8000 O 755.455 -1.88851 0.27203 0
M  V30 8001 C 752.595 -3.31939 0.943952 0
M  V30 8002 C 751.708 -3.74885 2.14675 0
M  V30 8003 C 750.843 -4.99347 1.81179 0
M  V30 8004 C 749.882 -5.34785 2.97777 0
M  V30 8005 N 749.019 -6.50425 2.6437 0
M  V30 8006 H 753.859 -2.05025 2.16261 0
M  V30 8007 H 751.396 -1.00348 1.07558 0
M  V30 8008 H 753.354 -4.10076 0.767675 0
M  V30 8009 H 751.984 -3.22784 0.0324763 0
M  V30 8010 H 751.036 -2.92396 2.43328 0
M  V30 8011 H 752.348 -3.97068 3.01891 0
M  V30 8012 H 751.502 -5.85193 1.60107 0
M  V30 8013 H 750.241 -4.79101 0.911777 0
M  V30 8014 H 749.246 -4.47451 3.1948 0
M  V30 8015 H 750.471 -5.56988 3.88511 0
M  V30 8016 H 748.417 -6.31695 1.7691 0
M  V30 8017 H 748.334 -6.7263 3.45116 0
M  V30 8018 H 749.602 -7.39422 2.46729 0
M  V30 8019 N 753.831 -1.1567 -1.07043 0
M  V30 8020 C 755.242 -0.942408 -1.61169 0
M  V30 8021 C 755.593 0.515537 -1.89306 0
M  V30 8022 O 754.718 1.38726 -1.66084 0
M  V30 8023 C 755.313 -1.70431 -2.92812 0
M  V30 8024 C 753.872 -1.53521 -3.43669 0
M  V30 8025 C 753.019 -1.7179 -2.17678 0
M  V30 8026 H 755.97 -1.3065 -0.9009 0
M  V30 8027 H 755.991 -1.17566 -3.61882 0
M  V30 8028 H 755.503 -2.76538 -2.72302 0
M  V30 8029 H 753.604 -0.498224 -3.69254 0
M  V30 8030 H 753.717 -2.31422 -4.19501 0
M  V30 8031 H 752.081 -1.14468 -2.27529 0
M  V30 8032 H 752.864 -2.79269 -1.99659 0
M  V30 8033 N 755.309 1.25446 -0.953992 0
M  V30 8034 C 756.534 1.97755 -0.625129 0
M  V30 8035 C 756.959 1.70437 0.795787 0
M  V30 8036 O 756.317 0.95992 1.53803 0
M  V30 8037 C 756.365 3.49463 -0.889251 0
M  V30 8038 O 755.469 4.12387 0.0322757 0
M  V30 8039 H 754.81 0.61998 -0.237742 0
M  V30 8040 H 757.34 1.59582 -1.28041 0
M  V30 8041 H 757.35 3.99772 -0.815263 0
M  V30 8042 H 756.025 3.68676 -1.92487 0
M  V30 8043 H 754.602 3.72782 -0.0938625 0
M  V30 8044 N 756.787 0.722489 1.40064 0
M  V30 8045 C 757.697 0.0755984 2.34478 0
M  V30 8046 C 758.713 -0.736046 1.57665 0
M  V30 8047 O 759.889 -0.667407 1.9002 0
M  V30 8048 C 756.954 -0.830075 3.36616 0
M  V30 8049 C 756.015 -0.00759884 4.29299 0
M  V30 8050 C 755.248 -0.870139 5.26559 0
M  V30 8051 O 755.471 -2.10921 5.2997 0
M  V30 8052 O 754.405 -0.305454 6.01124 0
M  V30 8053 H 758.231 0.854545 2.9143 0
M  V30 8054 H 755.816 0.483032 1.41376 0
M  V30 8055 H 757.698 -1.34864 3.99236 0
M  V30 8056 H 756.373 -1.58805 2.82069 0
M  V30 8057 H 755.28 0.556199 3.69942 0
M  V30 8058 H 756.613 0.712312 4.87018 0
M  V30 8059 N 758.265 -1.50454 0.469181 0
M  V30 8060 C 759.676 -1.86695 0.0136034 0
M  V30 8061 C 760.027 -1.38413 -1.39055 0
M  V30 8062 O 759.152 -0.748294 -2.03051 0
M  V30 8063 C 759.747 -3.38795 0.0179098 0
M  V30 8064 C 758.306 -3.74455 -0.382191 0
M  V30 8065 C 757.453 -2.74338 0.404207 0
M  V30 8066 H 760.404 -1.43225 0.683547 0
M  V30 8067 H 760.425 -3.72321 -0.78468 0
M  V30 8068 H 759.937 -3.73906 1.04 0
M  V30 8069 H 758.038 -3.44944 -1.4087 0
M  V30 8070 H 758.151 -4.79025 -0.084862 0
M  V30 8071 H 756.515 -2.54305 -0.141829 0
M  V30 8072 H 757.298 -3.12293 1.42577 0
M  V30 8073 N 759.743 -0.201713 -1.56304 0
M  V30 8074 C 760.706 0.702811 -2.18159 0
M  V30 8075 C 761.706 1.13619 -1.13787 0
M  V30 8076 O 762.896 1.0482 -1.39134 0
M  V30 8077 C 760.028 1.96032 -2.78898 0
M  V30 8078 H 761.221 0.163836 -2.99452 0
M  V30 8079 H 758.774 0.04791 -1.56227 0
M  V30 8080 H 759.509 2.54165 -2.01421 0
M  V30 8081 H 759.294 1.65824 -3.55309 0
M  V30 8082 H 760.784 2.60519 -3.26373 0
M  V30 8083 N 761.222 1.57436 0.0718424 0
M  V30 8084 C 762.638 1.53792 0.426628 0
M  V30 8085 C 762.838 0.921887 1.79174 0
M  V30 8086 O 761.894 0.524374 2.46995 0
M  V30 8087 C 763.207 2.98443 0.367739 0
M  V30 8088 C 764.755 3.09778 0.447928 0
M  V30 8089 C 765.23 4.5608 0.418946 0
M  V30 8090 N 766.721 4.60716 0.479022 0
M  V30 8091 C 767.456 5.71397 0.47881 0
M  V30 8092 N 766.952 6.91443 0.433417 0
M  V30 8093 N 768.745 5.59639 0.525364 0
M  V30 8094 H 760.896 1.95848 -0.822033 0
M  V30 8095 H 763.159 0.896418 -0.308447 0
M  V30 8096 H 762.865 3.47072 -0.56865 0
M  V30 8097 H 762.739 3.58335 1.17795 0
M  V30 8098 H 765.126 2.61122 1.37474 0
M  V30 8099 H 765.207 2.52796 -0.390857 0
M  V30 8100 H 764.851 5.05393 -0.504016 0
M  V30 8101 H 764.781 5.10925 1.27526 0
M  V30 8102 H 767.272 3.74328 0.518355 0
M  V30 8103 H 767.585 7.71562 0.43718 0
M  V30 8104 H 765.93 6.93847 0.400106 0
M  V30 8105 H 769.121 4.64756 0.558519 0
M  V30 8106 H 769.294 6.45896 0.52173 0
M  V30 8107 N 762.7 -0.34323 1.53817 0
M  V30 8108 C 763.632 -1.44216 1.78141 0
M  V30 8109 C 764.645 -1.48701 0.662721 0
M  V30 8110 O 765.834 -1.51778 0.939458 0
M  V30 8111 C 762.934 -2.82872 1.86646 0
M  V30 8112 C 762.107 -3.01824 3.16577 0
M  V30 8113 C 761.166 -4.20723 3.16036 0
M  V30 8114 O 760.192 -4.14824 3.89756 0
M  V30 8115 N 761.394 -5.29276 2.38427 0
M  V30 8116 H 764.159 -1.23721 2.72971 0
M  V30 8117 H 761.72 -0.53311 1.52871 0
M  V30 8118 H 763.712 -3.60588 1.83735 0
M  V30 8119 H 762.282 -2.96509 0.990014 0
M  V30 8120 H 761.502 -2.11575 3.3261 0
M  V30 8121 H 762.79 -3.11369 4.02402 0
M  V30 8122 H 762.188 -5.36938 1.78085 0
M  V30 8123 H 760.745 -6.05484 2.41313 0
M  V30 8124 N 764.178 -1.45556 -0.604258 0
M  V30 8125 C 765.589 -1.44171 -1.18624 0
M  V30 8126 C 765.94 -0.171081 -1.95453 0
M  V30 8127 O 765.065 0.727156 -2.03817 0
M  V30 8128 C 765.66 -2.61193 -2.15786 0
M  V30 8129 C 764.219 -2.62918 -2.69353 0
M  V30 8130 C 763.366 -2.36479 -1.4482 0
M  V30 8131 H 766.317 -1.53747 -0.393381 0
M  V30 8132 H 766.338 -2.35481 -2.98879 0
M  V30 8133 H 765.85 -3.53656 -1.59841 0
M  V30 8134 H 763.951 -1.7447 -3.29228 0
M  V30 8135 H 764.064 -3.6224 -3.13559 0
M  V30 8136 H 762.428 -1.86103 -1.73891 0
M  V30 8137 H 763.211 -3.31091 -0.907376 0
M  V30 8138 N 765.656 0.84705 -1.32902 0
M  V30 8139 C 766.566 1.98845 -1.2449 0
M  V30 8140 C 767.582 1.7329 -0.15702 0
M  V30 8141 O 768.758 1.978 -0.379104 0
M  V30 8142 C 765.823 3.32679 -0.975985 0
M  V30 8143 C 764.884 3.71405 -2.15306 0
M  V30 8144 C 764.117 4.98853 -1.89688 0
M  V30 8145 O 764.34 5.64134 -0.843168 0
M  V30 8146 O 763.274 5.34889 -2.76002 0
M  V30 8147 H 767.1 2.0888 -2.2046 0
M  V30 8148 H 764.685 0.978852 -1.12867 0
M  V30 8149 H 766.567 4.12885 -0.842826 0
M  V30 8150 H 765.242 3.23667 -0.0464954 0
M  V30 8151 H 764.149 2.91743 -2.34172 0
M  V30 8152 H 765.482 3.85073 -3.06561 0
M  V30 8153 N 767.134 1.16236 1.06428 0
M  V30 8154 C 768.359 0.967688 1.83441 0
M  V30 8155 C 768.784 -0.479167 1.81894 0
M  V30 8156 O 768.142 -1.34224 1.21875 0
M  V30 8157 C 768.19 1.49806 3.2801 0
M  V30 8158 O 767.294 0.703481 4.06356 0
M  V30 8159 H 766.635 0.344468 0.56766 0
M  V30 8160 H 769.165 1.54442 1.34197 0
M  V30 8161 H 769.175 1.51495 3.78831 0
M  V30 8162 H 767.85 2.55133 3.2845 0
M  V30 8163 H 766.427 0.756986 3.65136 0
M  V30 8164 N 768.612 -1.24939 0.960631 0
M  V30 8165 C 769.562 -2.23388 0.456266 0
M  V30 8166 C 770.546 -1.54249 -0.45782 0
M  V30 8167 O 771.738 -1.7461 -0.289894 0
M  V30 8168 C 768.867 -3.42321 -0.259024 0
M  V30 8169 C 767.953 -4.18718 0.673478 0
M  V30 8170 N 768.344 -4.72394 1.8077 0
M  V30 8171 C 766.642 -4.43378 0.482859 0
M  V30 8172 C 767.343 -5.30316 2.3904 0
M  V30 8173 N 766.319 -5.17109 1.67629 0
M  V30 8174 H 770.121 -2.62499 1.32179 0
M  V30 8175 H 767.635 -1.40245 0.818851 0
M  V30 8176 H 769.632 -4.11997 -0.637527 0
M  V30 8177 H 768.292 -3.04732 -1.12108 0
M  V30 8178 H 769.303 -4.69345 2.18942 0
M  V30 8179 H 765.98 -4.16147 -0.335821 0
M  V30 8180 H 767.37 -5.82594 3.34715 0
M  V30 8181 N 770.09 -0.729906 -1.39679 0
M  V30 8182 C 771.501 -0.346241 -1.83461 0
M  V30 8183 C 771.852 1.1215 -1.60987 0
M  V30 8184 O 770.977 1.86456 -1.09832 0
M  V30 8185 C 771.572 -0.621656 -3.33048 0
M  V30 8186 C 770.131 -0.291543 -3.75269 0
M  V30 8187 C 769.278 -0.886844 -2.62736 0
M  V30 8188 H 772.229 -0.927949 -1.28743 0
M  V30 8189 H 772.25 0.108301 -3.80346 0
M  V30 8190 H 771.762 -1.68996 -3.49373 0
M  V30 8191 H 769.863 0.771133 -3.64533 0
M  V30 8192 H 769.976 -0.770544 -4.72863 0
M  V30 8193 H 768.34 -0.313839 -2.52759 0
M  V30 8194 H 769.123 -1.95971 -2.81869 0
M  V30 8195 N 771.568 1.50203 -0.477153 0
M  V30 8196 C 772.478 2.32421 0.319027 0
M  V30 8197 C 773.494 1.43075 0.990233 0
M  V30 8198 O 774.67 1.76123 0.976873 0
M  V30 8199 C 771.735 3.17909 1.38328 0
M  V30 8200 C 770.796 4.23082 0.728036 0
M  V30 8201 C 770.029 5.04484 1.74158 0
M  V30 8202 O 770.252 4.8705 2.96881 0
M  V30 8203 O 769.186 5.8747 1.31006 0
M  V30 8204 H 773.012 3.01638 -0.353281 0
M  V30 8205 H 770.597 1.47478 -0.238891 0
M  V30 8206 H 772.479 3.70937 1.9996 0
M  V30 8207 H 771.154 2.51413 2.03895 0
M  V30 8208 H 770.061 3.7403 0.07261 0
M  V30 8209 H 771.394 4.92065 0.115216 0
M  V30 8210 N 773.046 0.209999 1.56195 0
M  V30 8211 C 773.956 -0.716459 2.23392 0
M  V30 8212 C 774.972 -1.22291 1.23778 0
M  V30 8213 O 776.148 -1.26694 1.56558 0
M  V30 8214 C 773.213 -1.91261 2.89172 0
M  V30 8215 C 772.274 -1.44927 4.04097 0
M  V30 8216 C 771.507 -2.5884 4.66731 0
M  V30 8217 O 771.73 -3.76693 4.2832 0
M  V30 8218 O 770.664 -2.30701 5.55932 0
M  V30 8219 H 774.49 -0.174089 3.03201 0
M  V30 8220 H 772.075 -0.0199505 1.49387 0
M  V30 8221 H 773.957 -2.6114 3.30733 0
M  V30 8222 H 772.632 -2.4433 2.12331 0
M  V30 8223 H 771.539 -0.718839 3.67129 0
M  V30 8224 H 772.872 -0.965084 4.82646 0
M  V30 8225 N 774.524 -1.57472 -0.0634922 0
M  V30 8226 C 775.752 -1.91887 -0.773767 0
M  V30 8227 C 776.167 -0.806733 -1.70696 0
M  V30 8228 O 775.524 0.219383 -1.81177 0
M  V30 8229 C 775.575 -3.26092 -1.56034 0
M  V30 8230 O 775.296 -4.33029 -0.66464 0
M  V30 8231 C 776.797 -3.74573 -2.37087 0
M  V30 8232 H 774.017 -0.634074 -0.219525 0
M  V30 8233 H 776.561 -2.04476 -0.0312828 0
M  V30 8234 H 774.716 -3.15004 -2.25502 0
M  V30 8235 H 775.13 -5.10291 -1.21258 0
M  V30 8236 H 776.604 -4.71084 -2.87722 0
M  V30 8237 H 777.081 -3.04003 -3.16984 0
M  V30 8238 H 777.687 -3.88631 -1.72759 0
M  V30 8239 N 776.003 0.335068 -1.53997 0
M  V30 8240 C 776.913 1.43511 -1.85585 0
M  V30 8241 C 777.929 1.57162 -0.746726 0
M  V30 8242 O 779.105 1.72477 -1.03988 0
M  V30 8243 C 776.17 2.78386 -2.06646 0
M  V30 8244 C 775.231 2.74007 -3.30483 0
M  V30 8245 C 774.464 4.02449 -3.50529 0
M  V30 8246 O 774.687 5.00147 -2.74242 0
M  V30 8247 O 773.621 4.06405 -4.4398 0
M  V30 8248 H 777.447 1.19731 -2.79102 0
M  V30 8249 H 775.032 0.528033 -1.39758 0
M  V30 8250 H 776.914 3.58247 -2.21894 0
M  V30 8251 H 775.589 3.0208 -1.16317 0
M  V30 8252 H 774.496 1.92736 -3.2063 0
M  V30 8253 H 775.829 2.55267 -4.20832 0
M  V30 8254 N 777.481 1.45874 0.596531 0
M  V30 8255 C 778.391 1.57947 1.73464 0
M  V30 8256 C 779.407 0.463461 1.67714 0
M  V30 8257 O 780.583 0.725685 1.87872 0
M  V30 8258 C 777.648 1.55348 3.09948 0
M  V30 8259 C 776.709 2.78074 3.27068 0
M  V30 8260 C 775.942 2.75589 4.57041 0
M  V30 8261 O 776.165 1.83545 5.40063 0
M  V30 8262 O 775.099 3.66945 4.77111 0
M  V30 8263 H 778.925 2.54169 1.66228 0
M  V30 8264 H 776.51 1.2851 0.76194 0
M  V30 8265 H 778.392 1.56545 3.91244 0
M  V30 8266 H 777.067 0.622811 3.17652 0
M  V30 8267 H 775.974 2.82435 2.45319 0
M  V30 8268 H 777.307 3.70303 3.24248 0
M  V30 8269 N 778.959 -0.83999 1.33349 0
M  V30 8270 C 779.869 -1.98182 1.25543 0
M  V30 8271 C 780.885 -1.73204 0.166208 0
M  V30 8272 O 782.061 -1.97596 0.389589 0
M  V30 8273 C 779.126 -3.32157 0.993614 0
M  V30 8274 C 778.187 -3.70258 2.17273 0
M  V30 8275 C 777.42 -4.9784 1.92331 0
M  V30 8276 O 777.643 -5.63679 0.873074 0
M  V30 8277 O 776.577 -5.33418 2.78835 0
M  V30 8278 H 780.403 -2.07708 2.21565 0
M  V30 8279 H 777.988 -0.972852 1.13384 0
M  V30 8280 H 779.87 -4.12433 0.864711 0
M  V30 8281 H 778.545 -3.23637 0.0636596 0
M  V30 8282 H 777.452 -2.90497 2.35716 0
M  V30 8283 H 778.785 -3.83442 3.08598 0
M  V30 8284 N 780.437 -1.16799 -1.0581 0
M  V30 8285 C 781.367 -0.902241 -2.15364 0
M  V30 8286 C 782.348 0.153351 -1.69407 0
M  V30 8287 O 783.533 0.00442032 -1.94199 0
M  V30 8288 C 780.663 -0.407911 -3.44896 0
M  V30 8289 C 779.617 -1.40197 -4.04387 0
M  V30 8290 C 778.943 -0.765848 -5.29187 0
M  V30 8291 C 780.243 -2.77316 -4.42598 0
M  V30 8292 H 781.937 -1.81841 -2.37853 0
M  V30 8293 H 779.483 -0.875731 -1.14311 0
M  V30 8294 H 781.436 -0.20945 -4.20879 0
M  V30 8295 H 780.16 0.54378 -3.22041 0
M  V30 8296 H 778.819 -1.58707 -3.30466 0
M  V30 8297 H 778.467 0.192482 -5.02632 0
M  V30 8298 H 778.167 -1.42939 -5.69949 0
M  V30 8299 H 779.691 -0.577519 -6.07863 0
M  V30 8300 H 781.105 -2.62561 -5.09642 0
M  V30 8301 H 779.502 -3.4019 -4.94359 0
M  V30 8302 H 780.572 -3.32199 -3.53231 0
M  V30 8303 N 781.915 1.24427 -0.967243 0
M  V30 8304 C 783.331 1.44684 -0.6737 0
M  V30 8305 C 783.531 1.86429 0.764625 0
M  V30 8306 O 782.587 2.00211 1.53857 0
M  V30 8307 C 783.9 2.509 -1.6574 0
M  V30 8308 C 785.448 2.64728 -1.66998 0
M  V30 8309 C 785.923 3.7414 -2.64165 0
M  V30 8310 N 787.414 3.81567 -2.62604 0
M  V30 8311 C 788.149 4.6575 -3.34462 0
M  V30 8312 N 787.645 5.54124 -4.15835 0
M  V30 8313 N 789.438 4.59827 -3.23288 0
M  V30 8314 H 781.589 0.956276 -1.89655 0
M  V30 8315 H 783.852 0.48171 -0.816492 0
M  V30 8316 H 783.558 2.27113 -2.68538 0
M  V30 8317 H 783.432 3.4905 -1.42981 0
M  V30 8318 H 785.819 2.87872 -0.649121 0
M  V30 8319 H 785.9 1.66936 -1.93819 0
M  V30 8320 H 785.544 3.51745 -3.66384 0
M  V30 8321 H 785.474 4.71444 -2.34623 0
M  V30 8322 H 787.965 3.18403 -2.03539 0
M  V30 8323 H 788.278 6.15316 -4.67553 0
M  V30 8324 H 786.623 5.53791 -4.19929 0
M  V30 8325 H 789.814 3.898 -2.59179 0
M  V30 8326 H 789.987 5.25208 -3.79553 0
M  V30 8327 N 783.393 0.737304 1.3929 0
M  V30 8328 C 784.303 0.100464 2.34385 0
M  V30 8329 C 785.319 -0.719282 1.58437 0
M  V30 8330 O 786.495 -0.647216 1.90717 0
M  V30 8331 C 783.56 -0.794325 3.37478 0
M  V30 8332 C 782.621 0.0379345 4.29283 0
M  V30 8333 C 781.854 -0.814241 5.27452 0
M  V30 8334 O 782.077 -2.05288 5.32177 0
M  V30 8335 O 781.011 -0.241679 6.01415 0
M  V30 8336 H 784.837 0.885407 2.90507 0
M  V30 8337 H 782.422 0.497999 1.40856 0
M  V30 8338 H 784.304 -1.30622 4.00644 0
M  V30 8339 H 782.979 -1.55804 2.83737 0
M  V30 8340 H 781.886 0.595405 3.69331 0
M  V30 8341 H 783.219 0.763926 4.86236 0
M  V30 8342 N 784.871 -1.49948 0.485112 0
M  V30 8343 C 785.821 -2.25734 -0.320658 0
M  V30 8344 C 786.805 -1.29907 -0.949373 0
M  V30 8345 O 787.997 -1.54725 -0.859601 0
M  V30 8346 C 785.126 -3.13728 -1.39391 0
M  V30 8347 C 784.212 -4.1701 -0.772225 0
M  V30 8348 N 784.603 -5.05667 0.115782 0
M  V30 8349 C 782.901 -4.33834 -1.03461 0
M  V30 8350 C 783.602 -5.79798 0.47004 0
M  V30 8351 N 782.578 -5.4337 -0.158204 0
M  V30 8352 H 786.38 -2.91647 0.36319 0
M  V30 8353 H 783.894 -1.59602 0.300154 0
M  V30 8354 H 785.891 -3.66639 -1.98447 0
M  V30 8355 H 784.551 -2.49365 -2.0796 0
M  V30 8356 H 785.562 -5.15619 0.485557 0
M  V30 8357 H 782.239 -3.80684 -1.71424 0
M  V30 8358 H 783.629 -6.61177 1.19558 0
M  V30 8359 N 786.349 -0.21828 -1.56081 0
M  V30 8360 C 787.281 0.725447 -2.17416 0
M  V30 8361 C 788.294 1.15995 -1.14233 0
M  V30 8362 O 789.483 1.09166 -1.41227 0
M  V30 8363 C 786.583 1.99401 -2.7403 0
M  V30 8364 C 785.756 1.7156 -4.02351 0
M  V30 8365 C 784.815 2.8309 -4.43561 0
M  V30 8366 O 783.841 2.51701 -5.10525 0
M  V30 8367 N 785.043 4.11972 -4.08973 0
M  V30 8368 H 787.808 0.200801 -2.99027 0
M  V30 8369 H 785.369 -0.0371514 -1.61857 0
M  V30 8370 H 787.361 2.73198 -2.98571 0
M  V30 8371 H 785.931 2.42923 -1.96742 0
M  V30 8372 H 785.151 0.814233 -3.85699 0
M  V30 8373 H 786.439 1.50385 -4.86068 0
M  V30 8374 H 785.837 4.40319 -3.55156 0
M  V30 8375 H 784.394 4.82323 -4.38415 0
M  V30 8376 N 787.827 1.57504 0.0551401 0
M  V30 8377 C 788.79 2.03826 1.04821 0
M  V30 8378 C 789.79 0.937968 1.30609 0
M  V30 8379 O 790.98 1.20237 1.2605 0
M  V30 8380 C 788.112 2.43309 2.38775 0
M  V30 8381 H 789.305 2.92802 0.6486 0
M  V30 8382 H 786.858 1.53368 0.301315 0
M  V30 8383 H 787.593 1.5741 2.83536 0
M  V30 8384 H 787.378 3.23615 2.21395 0
M  V30 8385 H 788.868 2.79666 3.10124 0
M  V30 8386 N 789.305 -0.326896 1.54172 0
M  V30 8387 C 790.235 -1.40741 1.86317 0
M  V30 8388 C 791.216 -1.54125 0.719684 0
M  V30 8389 O 792.401 -1.6806 0.973117 0
M  V30 8390 C 789.531 -2.77557 2.08757 0
M  V30 8391 C 788.485 -2.78965 3.24596 0
M  V30 8392 C 787.811 -4.18824 3.32401 0
M  V30 8393 C 789.111 -2.4301 4.62324 0
M  V30 8394 H 790.805 -1.14088 2.76811 0
M  V30 8395 H 788.351 -0.547389 1.3319 0
M  V30 8396 H 790.304 -3.53209 2.29829 0
M  V30 8397 H 789.028 -3.0568 1.15009 0
M  V30 8398 H 787.687 -2.05767 3.03406 0
M  V30 8399 H 787.335 -4.44083 2.36218 0
M  V30 8400 H 787.035 -4.20673 4.10253 0
M  V30 8401 H 788.559 -4.96294 3.55703 0
M  V30 8402 H 789.973 -3.08375 4.83299 0
M  V30 8403 H 788.37 -2.56116 5.42701 0
M  V30 8404 H 789.44 -1.38165 4.64799 0
M  V30 8405 N 790.784 -1.46188 -0.588786 0
M  V30 8406 C 791.714 -1.59148 -1.70863 0
M  V30 8407 C 792.695 -0.442083 -1.64255 0
M  V30 8408 O 793.88 -0.667575 -1.82365 0
M  V30 8409 C 791.01 -1.5757 -3.09498 0
M  V30 8410 C 789.964 -2.71418 -3.30932 0
M  V30 8411 C 789.29 -2.549 -4.70032 0
M  V30 8412 C 790.59 -4.1329 -3.19356 0
M  V30 8413 H 792.284 -2.52889 -1.60274 0
M  V30 8414 H 789.83 -1.21707 -0.769638 0
M  V30 8415 H 791.783 -1.65231 -3.87655 0
M  V30 8416 H 790.507 -0.603705 -3.20972 0
M  V30 8417 H 789.166 -2.63216 -2.55172 0
M  V30 8418 H 788.814 -1.55797 -4.78264 0
M  V30 8419 H 788.514 -3.31257 -4.85327 0
M  V30 8420 H 790.038 -2.64443 -5.50366 0
M  V30 8421 H 791.452 -4.22636 -3.87365 0
M  V30 8422 H 789.849 -4.90187 -3.46175 0
M  V30 8423 H 790.919 -4.33874 -2.16522 0
M  V30 8424 N 792.262 0.832906 -1.33792 0
M  V30 8425 C 793.539 1.57359 -1.16178 0
M  V30 8426 C 793.919 2.09372 0.269532 0
M  V30 8427 O 793.267 1.89993 1.26944 0
M  V30 8428 C 793.477 2.70279 -2.20795 0
M  V30 8429 C 794.825 3.39305 -2.55259 0
M  V30 8430 O 795.849 2.80526 -2.19508 0
M  V30 8431 O 794.708 4.45428 -3.16632 0
M  V30 8432 H 791.802 0.694025 -0.449731 0
M  V30 8433 H 794.348 0.875144 -1.45394 0
M  V30 8434 H 793.12 2.29527 -3.16911 0
M  V30 8435 H 792.743 3.47782 -1.927 0
M  V30 8436 N 793.74 1.17359 1.05189 0
M  V30 8437 C 794.65 0.904984 2.16442 0
M  V30 8438 C 795.666 -0.12686 1.73537 0
M  V30 8439 O 796.842 0.0524127 2.01332 0
M  V30 8440 C 793.907 0.422019 3.44122 0
M  V30 8441 C 792.968 1.52045 4.01473 0
M  V30 8442 C 792.201 1.06044 5.23059 0
M  V30 8443 O 792.424 -0.0854023 5.70336 0
M  V30 8444 O 791.358 1.85349 5.72651 0
M  V30 8445 H 795.184 1.8356 2.41949 0
M  V30 8446 H 792.769 0.95447 1.14936 0
M  V30 8447 H 794.651 0.160208 4.21095 0
M  V30 8448 H 793.326 -0.480444 3.20115 0
M  V30 8449 H 792.233 1.83615 3.25939 0
M  V30 8450 H 793.566 2.39863 4.29798 0
M  V30 8451 N 795.218 -1.23913 0.973828 0
M  V30 8452 C 796.629 -1.73992 0.677021 0
M  V30 8453 C 796.98 -1.78833 -0.807036 0
M  V30 8454 O 796.105 -1.42183 -1.63135 0
M  V30 8455 C 796.7 -3.15985 1.22226 0
M  V30 8456 C 795.259 -3.63547 0.975228 0
M  V30 8457 C 794.406 -2.42001 1.35392 0
M  V30 8458 H 797.357 -1.09529 1.14844 0
M  V30 8459 H 797.378 -3.75875 0.591489 0
M  V30 8460 H 796.89 -3.12429 2.30238 0
M  V30 8461 H 794.991 -3.72493 -0.0891047 0
M  V30 8462 H 795.104 -4.50693 1.62518 0
M  V30 8463 H 793.468 -2.42708 0.772334 0
M  V30 8464 H 794.251 -2.41122 2.44367 0
M  V30 8465 N 796.696 -0.74468 -1.38897 0
M  V30 8466 C 797.926 -0.306982 -2.04307 0
M  V30 8467 C 798.334 1.06652 -1.56275 0
M  V30 8468 O 797.677 1.68699 -0.72708 0
M  V30 8469 C 797.739 -0.241186 -3.5869 0
M  V30 8470 C 797.403 -1.55476 -4.2974 0
M  V30 8471 C 798.4 -2.50229 -4.55721 0
M  V30 8472 C 796.085 -1.82173 -4.68101 0
M  V30 8473 C 798.079 -3.69905 -5.19085 0
M  V30 8474 C 795.766 -3.02125 -5.31191 0
M  V30 8475 C 796.764 -3.95812 -5.56616 0
M  V30 8476 O 796.452 -5.13656 -6.18395 0
M  V30 8477 H 796.184 -0.130416 -0.663301 0
M  V30 8478 H 798.738 -1.01192 -1.78744 0
M  V30 8479 H 796.968 0.519925 -3.83189 0
M  V30 8480 H 798.657 0.165806 -4.05561 0
M  V30 8481 H 799.423 -2.30877 -4.26522 0
M  V30 8482 H 795.302 -1.10091 -4.47662 0
M  V30 8483 H 798.846 -4.43047 -5.38846 0
M  V30 8484 H 794.743 -3.21374 -5.59811 0
M  V30 8485 H 795.511 -5.14119 -6.36886 0
M  V30 8486 N 798.174 1.49689 -0.493057 0
M  V30 8487 C 799.104 2.31826 0.279073 0
M  V30 8488 C 800.085 1.39733 0.969987 0
M  V30 8489 O 801.27 1.68646 0.962925 0
M  V30 8490 C 798.4 3.20046 1.34862 0
M  V30 8491 C 797.354 4.20869 0.77805 0
M  V30 8492 C 796.68 4.97971 1.94753 0
M  V30 8493 C 797.98 5.21813 -0.225543 0
M  V30 8494 H 799.674 2.96627 -0.406512 0
M  V30 8495 H 797.22 1.42647 -0.196943 0
M  V30 8496 H 799.173 3.76315 1.89645 0
M  V30 8497 H 797.897 2.53172 2.06328 0
M  V30 8498 H 796.556 3.65733 0.252036 0
M  V30 8499 H 796.204 4.27552 2.64969 0
M  V30 8500 H 795.904 5.66186 1.57187 0
M  V30 8501 H 797.428 5.57082 2.49984 0
M  V30 8502 H 798.842 5.72823 0.233864 0
M  V30 8503 H 797.239 5.97872 -0.516622 0
M  V30 8504 H 798.309 4.71209 -1.14412 0
M  V30 8505 N 799.652 0.226554 1.55963 0
M  V30 8506 C 800.929 -0.453058 1.90281 0
M  V30 8507 C 801.309 -1.77377 1.14458 0
M  V30 8508 O 800.657 -2.27067 0.255496 0
M  V30 8509 C 800.867 -0.641108 3.43061 0
M  V30 8510 C 802.215 -0.946265 4.13921 0
M  V30 8511 O 803.239 -0.727713 3.48687 0
M  V30 8512 O 802.098 -1.36131 5.29274 0
M  V30 8513 H 799.192 -0.240242 0.791336 0
M  V30 8514 H 801.738 0.26911 1.67553 0
M  V30 8515 H 800.51 0.290283 3.90222 0
M  V30 8516 H 800.133 -1.41458 3.71585 0
M  V30 8517 N 801.13 -1.57531 -0.0467866 0
M  V30 8518 C 802.546 -1.54451 -0.402107 0
M  V30 8519 C 802.746 -0.950275 -1.77685 0
M  V30 8520 O 801.802 -0.563602 -2.4613 0
M  V30 8521 C 803.115 -2.9899 -0.320212 0
M  V30 8522 C 804.663 -3.10452 -0.398588 0
M  V30 8523 C 805.138 -4.56689 -0.346335 0
M  V30 8524 N 806.629 -4.6142 -0.405666 0
M  V30 8525 C 807.364 -5.72087 -0.387845 0
M  V30 8526 N 806.86 -6.92045 -0.32336 0
M  V30 8527 N 808.653 -5.60404 -0.436263 0
M  V30 8528 H 800.804 -1.94515 0.853087 0
M  V30 8529 H 803.067 -0.891397 0.322669 0
M  V30 8530 H 802.773 -3.46124 0.623794 0
M  V30 8531 H 802.647 -3.60164 -1.1208 0
M  V30 8532 H 805.034 -2.63276 -1.33302 0
M  V30 8533 H 805.115 -2.52142 0.431026 0
M  V30 8534 H 804.759 -5.04527 0.584356 0
M  V30 8535 H 804.689 -5.12889 -1.19382 0
M  V30 8536 H 807.18 -3.75105 -0.458737 0
M  V30 8537 H 807.493 -7.7216 -0.314375 0
M  V30 8538 H 805.838 -6.94396 -0.28967 0
M  V30 8539 H 809.029 -4.65586 -0.48451 0
M  V30 8540 H 809.202 -6.46645 -0.418907 0
M  V30 8541 N 802.608 0.318715 -1.54344 0
M  V30 8542 C 803.538 1.39751 -1.87061 0
M  V30 8543 C 804.519 1.53741 -0.727848 0
M  V30 8544 O 805.704 1.67541 -0.982016 0
M  V30 8545 C 802.834 2.76446 -2.10226 0
M  V30 8546 C 801.788 2.77239 -3.26071 0
M  V30 8547 C 801.114 4.17056 -3.34617 0
M  V30 8548 C 802.414 2.40555 -4.63606 0
M  V30 8549 H 804.108 1.12619 -2.77412 0
M  V30 8550 H 801.654 0.540318 -1.33479 0
M  V30 8551 H 803.607 3.51985 -2.31699 0
M  V30 8552 H 802.331 3.05066 -1.16629 0
M  V30 8553 H 800.99 2.04155 -3.04493 0
M  V30 8554 H 800.638 4.42824 -2.3857 0
M  V30 8555 H 800.338 4.18492 -4.12478 0
M  V30 8556 H 801.862 4.94401 -3.5833 0
M  V30 8557 H 803.276 3.05808 -4.84927 0
M  V30 8558 H 801.673 2.53234 -5.44052 0
M  V30 8559 H 802.743 1.35698 -4.65526 0
M  V30 8560 N 804.086 1.46499 0.581025 0
M  V30 8561 C 805.497 1.4604 1.16315 0
M  V30 8562 C 805.848 0.202154 1.95156 0
M  V30 8563 O 804.973 -0.694638 2.04948 0
M  V30 8564 C 805.568 2.64593 2.11604 0
M  V30 8565 C 804.127 2.6717 2.65136 0
M  V30 8566 C 803.274 2.38753 1.4104 0
M  V30 8567 H 806.225 1.54354 0.368871 0
M  V30 8568 H 806.246 2.40207 2.95095 0
M  V30 8569 H 805.758 3.56154 1.54194 0
M  V30 8570 H 803.859 1.79685 3.26411 0
M  V30 8571 H 803.972 3.67182 3.07757 0
M  V30 8572 H 802.336 1.88845 1.70908 0
M  V30 8573 H 803.119 3.32493 0.854588 0
M  V30 8574 N 805.565 -0.825799 1.34232 0
M  V30 8575 C 806.813 -1.57873 1.26177 0
M  V30 8576 C 807.134 -1.94267 -0.168904 0
M  V30 8577 O 806.404 -1.62045 -1.10084 0
M  V30 8578 H 804.984 -0.585388 0.464037 0
M  V30 8579 H 807.646 -0.986163 1.6811 0
M  V30 8580 H 806.742 -2.50283 1.86453 0
M  V30 8581 N 807.043 -1.17915 -1.04565 0
M  V30 8582 C 807.975 -0.859359 -2.1248 0
M  V30 8583 C 808.988 0.140922 -1.62189 0
M  V30 8584 O 810.177 -0.0862361 -1.78292 0
M  V30 8585 C 807.277 -0.261811 -3.37887 0
M  V30 8586 C 806.45 -1.30651 -4.17431 0
M  V30 8587 C 805.509 -0.725575 -5.21174 0
M  V30 8588 O 804.535 -1.39901 -5.51739 0
M  V30 8589 N 805.737 0.479351 -5.78517 0
M  V30 8590 H 808.502 -1.78818 -2.40508 0
M  V30 8591 H 806.063 -1.07885 -1.20716 0
M  V30 8592 H 808.055 0.14028 -4.04457 0
M  V30 8593 H 806.625 0.570929 -3.07342 0
M  V30 8594 H 805.845 -1.88412 -3.46258 0
M  V30 8595 H 807.133 -2.01099 -4.67372 0
M  V30 8596 H 806.531 1.04431 -5.55977 0
M  V30 8597 H 805.088 0.823427 -6.46578 0
M  V30 8598 N 808.521 1.23394 -0.980386 0
M  V30 8599 C 809.468 2.24859 -0.520298 0
M  V30 8600 C 810.438 1.60144 0.440821 0
M  V30 8601 O 811.623 1.87593 0.348369 0
M  V30 8602 C 808.763 3.44675 0.171145 0
M  V30 8603 C 807.876 4.23947 -0.830233 0
M  V30 8604 C 807.011 5.31079 -0.113597 0
M  V30 8605 C 806.05 6.02058 -1.10419 0
M  V30 8606 N 805.187 7.00862 -0.416709 0
M  V30 8607 H 810.027 2.63579 -1.39032 0
M  V30 8608 H 807.564 1.29556 -0.696682 0
M  V30 8609 H 809.522 4.13024 0.588838 0
M  V30 8610 H 808.152 3.06755 1.00504 0
M  V30 8611 H 807.204 3.55016 -1.36631 0
M  V30 8612 H 808.516 4.72945 -1.58508 0
M  V30 8613 H 807.67 6.05622 0.36146 0
M  V30 8614 H 806.409 4.83022 0.673854 0
M  V30 8615 H 805.414 5.26307 -1.59 0
M  V30 8616 H 806.639 6.52203 -1.8923 0
M  V30 8617 H 804.585 6.55057 0.351535 0
M  V30 8618 H 804.502 7.47804 -1.11021 0
M  V30 8619 H 805.77 7.79492 0.0359606 0
M  V30 8620 N 809.999 0.752036 1.385 0
M  V30 8621 C 810.909 0.125318 2.34265 0
M  V30 8622 C 811.925 -0.702437 1.59191 0
M  V30 8623 O 813.101 -0.626951 1.91393 0
M  V30 8624 C 810.166 -0.758486 3.38301 0
M  V30 8625 C 809.227 0.0834636 4.29219 0
M  V30 8626 C 808.46 -0.758252 5.28286 0
M  V30 8627 O 808.683 -1.99632 5.34325 0
M  V30 8628 O 807.617 -0.177878 6.01637 0
M  V30 8629 H 811.443 0.91617 2.89551 0
M  V30 8630 H 809.028 0.512911 1.4032 0
M  V30 8631 H 810.91 -1.26365 4.02007 0
M  V30 8632 H 809.585 -1.52786 2.85374 0
M  V30 8633 H 808.492 0.634545 3.68679 0
M  V30 8634 H 809.825 0.815455 4.85398 0
M  V30 8635 N 811.477 -1.49425 0.500989 0
M  V30 8636 C 812.44 -2.27646 -0.266416 0
M  V30 8637 C 813.44 -1.3366 -0.893961 0
M  V30 8638 O 814.63 -1.5682 -0.758495 0
M  V30 8639 C 811.762 -3.11618 -1.38227 0
M  V30 8640 H 812.955 -2.96945 0.419973 0
M  V30 8641 H 810.508 -1.5419 0.255954 0
M  V30 8642 H 811.243 -2.46885 -2.10281 0
M  V30 8643 H 811.028 -3.80721 -0.937746 0
M  V30 8644 H 812.518 -3.70698 -1.92283 0
M  V30 8645 N 812.955 -0.234822 -1.55841 0
M  V30 8646 C 813.905 0.68346 -2.17515 0
M  V30 8647 C 814.889 1.14798 -1.1274 0
M  V30 8648 O 816.081 1.09976 -1.38688 0
M  V30 8649 C 813.21 1.88551 -2.86886 0
M  V30 8650 C 812.296 1.44006 -3.98903 0
M  V30 8651 N 812.687 0.708034 -5.0082 0
M  V30 8652 C 810.985 1.7263 -4.11236 0
M  V30 8653 C 811.686 0.479036 -5.79724 0
M  V30 8654 N 810.662 1.03968 -5.33565 0
M  V30 8655 H 814.464 0.115897 -2.93671 0
M  V30 8656 H 811.978 -0.0366273 -1.62359 0
M  V30 8657 H 813.975 2.55425 -3.2949 0
M  V30 8658 H 812.635 2.45742 -2.12229 0
M  V30 8659 H 813.646 0.359363 -5.16652 0
M  V30 8660 H 810.323 2.31046 -3.47741 0
M  V30 8661 H 811.713 -0.104514 -6.71819 0
M  V30 8662 N 814.433 1.57553 0.0384317 0
M  V30 8663 C 815.396 2.04927 1.02653 0
M  V30 8664 C 816.396 0.951768 1.29607 0
M  V30 8665 O 817.586 1.21568 1.24768 0
M  V30 8666 C 814.718 2.45828 2.36181 0
M  V30 8667 H 815.911 2.93474 0.617508 0
M  V30 8668 H 813.464 1.53679 0.285031 0
M  V30 8669 H 814.199 1.60408 2.8185 0
M  V30 8670 H 813.984 3.25945 2.1795 0
M  V30 8671 H 815.474 2.82939 3.0714 0
M  V30 8672 N 815.911 -0.310526 1.54511 0
M  V30 8673 C 816.843 -1.40405 1.8116 0
M  V30 8674 C 817.856 -1.47261 0.694114 0
M  V30 8675 O 819.045 -1.49751 0.971441 0
M  V30 8676 C 816.145 -2.78849 1.92604 0
M  V30 8677 C 815.318 -2.95041 3.22908 0
M  V30 8678 C 814.377 -4.13925 3.24889 0
M  V30 8679 O 813.403 -4.06463 3.98467 0
M  V30 8680 N 814.605 -5.24099 2.496 0
M  V30 8681 H 817.37 -1.17903 2.75534 0
M  V30 8682 H 814.931 -0.500564 1.53967 0
M  V30 8683 H 816.923 -3.5661 1.91342 0
M  V30 8684 H 815.493 -2.94342 1.05268 0
M  V30 8685 H 814.713 -2.04472 3.37023 0
M  V30 8686 H 816.001 -3.02763 4.08916 0
M  V30 8687 H 815.399 -5.33039 1.89435 0
M  V30 8688 H 813.956 -6.0023 2.54102 0
M  V30 8689 N 817.389 -1.46805 -0.573248 0
M  V30 8690 C 818.352 -1.57655 -1.66366 0
M  V30 8691 C 819.352 -0.452905 -1.5429 0
M  V30 8692 O 820.542 -0.717502 -1.58737 0
M  V30 8693 C 817.674 -1.50584 -3.05839 0
M  V30 8694 H 818.867 -2.54842 -1.581 0
M  V30 8695 H 816.42 -1.34756 -0.791868 0
M  V30 8696 H 817.155 -0.547127 -3.19651 0
M  V30 8697 H 816.94 -2.32118 -3.16012 0
M  V30 8698 H 818.43 -1.61282 -3.85199 0
M  V30 8699 N 818.867 0.818669 -1.34668 0
M  V30 8700 C 820.115 1.57201 -1.27013 0
M  V30 8701 C 820.436 1.94354 0.158599 0
M  V30 8702 O 819.706 1.62626 1.09223 0
M  V30 8703 H 818.286 0.582919 -0.467135 0
M  V30 8704 H 820.948 0.977234 -1.6863 0
M  V30 8705 H 820.044 2.49291 -1.87778 0
M  V30 8706 N 820.346 1.18468 1.03938 0
M  V30 8707 C 821.592 0.982286 1.77423 0
M  V30 8708 C 821.925 -0.48679 1.88 0
M  V30 8709 O 821.2 -1.36146 1.38905 0
M  V30 8710 C 821.483 1.63929 3.20623 0
M  V30 8711 C 821.336 3.18132 3.17982 0
M  V30 8712 C 822.655 1.3536 4.18767 0
M  V30 8713 H 819.774 0.358264 0.644062 0
M  V30 8714 H 822.416 1.46154 1.21405 0
M  V30 8715 H 820.566 1.2318 3.68455 0
M  V30 8716 H 822.238 3.68024 2.78129 0
M  V30 8717 H 820.481 3.50225 2.55978 0
M  V30 8718 H 821.152 3.5924 4.19107 0
M  V30 8719 H 823.628 1.70669 3.79488 0
M  V30 8720 H 822.504 1.83896 5.17178 0
M  V30 8721 H 822.765 0.276722 4.41233 0
M  V30 8722 N 821.824 -1.22873 0.986916 0
M  V30 8723 C 822.756 -2.23889 0.490537 0
M  V30 8724 C 823.769 -1.57523 -0.411144 0
M  V30 8725 O 824.958 -1.7721 -0.214236 0
M  V30 8726 C 822.058 -3.37488 -0.30902 0
M  V30 8727 C 821.231 -4.33438 0.587354 0
M  V30 8728 C 820.29 -5.25958 -0.159467 0
M  V30 8729 O 819.316 -5.67394 0.453115 0
M  V30 8730 N 820.518 -5.62265 -1.44355 0
M  V30 8731 H 823.283 -2.67109 1.35914 0
M  V30 8732 H 820.844 -1.37111 0.860937 0
M  V30 8733 H 822.836 -3.96365 -0.817139 0
M  V30 8734 H 821.406 -2.934 -1.07868 0
M  V30 8735 H 820.626 -3.72969 1.27622 0
M  V30 8736 H 821.914 -4.94495 1.19801 0
M  V30 8737 H 821.312 -5.30562 -1.96266 0
M  V30 8738 H 819.869 -6.23585 -1.89698 0
M  V30 8739 N 823.302 -0.75937 -1.38099 0
M  V30 8740 C 824.548 -0.318584 -2.00282 0
M  V30 8741 C 824.881 1.09854 -1.60143 0
M  V30 8742 O 824.156 1.75344 -0.841702 0
M  V30 8743 C 824.439 -0.448047 -3.57302 0
M  V30 8744 C 824.292 -1.9067 -4.07388 0
M  V30 8745 C 825.611 0.155119 -4.39827 0
M  V30 8746 H 822.73 -0.117233 -0.727616 0
M  V30 8747 H 825.372 -0.960097 -1.63958 0
M  V30 8748 H 823.522 0.0981003 -3.88376 0
M  V30 8749 H 825.194 -2.5116 -3.86932 0
M  V30 8750 H 823.437 -2.41979 -3.6004 0
M  V30 8751 H 824.108 -1.94841 -5.1647 0
M  V30 8752 H 826.584 -0.31073 -4.14938 0
M  V30 8753 H 825.46 0.0343264 -5.48889 0
M  V30 8754 H 825.721 1.24407 -4.24235 0
M  V30 8755 N 824.78 1.49157 -0.508906 0
M  V30 8756 C 825.727 2.2927 0.265288 0
M  V30 8757 C 826.697 1.3603 0.953162 0
M  V30 8758 O 827.882 1.64989 0.958291 0
M  V30 8759 C 825.022 3.18897 1.31904 0
M  V30 8760 C 824.135 4.27201 0.642144 0
M  V30 8761 C 823.27 5.04033 1.67701 0
M  V30 8762 C 822.309 6.04165 0.982422 0
M  V30 8763 N 821.446 6.74133 1.96186 0
M  V30 8764 H 826.286 2.94967 -0.424107 0
M  V30 8765 H 823.823 1.45431 -0.220991 0
M  V30 8766 H 825.781 3.69242 1.94206 0
M  V30 8767 H 824.411 2.55168 1.97709 0
M  V30 8768 H 823.463 3.80283 -0.0943395 0
M  V30 8769 H 824.775 4.98708 0.0957507 0
M  V30 8770 H 823.929 5.58287 2.37487 0
M  V30 8771 H 822.668 4.32317 2.25728 0
M  V30 8772 H 821.673 5.49135 0.270378 0
M  V30 8773 H 822.898 6.7787 0.408554 0
M  V30 8774 H 820.844 6.05183 2.53159 0
M  V30 8775 H 820.761 7.41643 1.46634 0
M  V30 8776 H 822.029 7.32987 2.65236 0
M  V30 8777 N 826.258 0.243083 1.55714 0
M  V30 8778 C 827.19 -0.690766 2.18543 0
M  V30 8779 C 828.203 -1.14163 1.16064 0
M  V30 8780 O 829.392 -1.06906 1.42946 0
M  V30 8781 C 826.492 -1.95016 2.77168 0
M  V30 8782 C 825.665 -1.65137 4.05029 0
M  V30 8783 C 824.724 -2.75998 4.48009 0
M  V30 8784 O 823.75 -2.43547 5.14464 0
M  V30 8785 N 824.952 -4.05414 4.15476 0
M  V30 8786 H 827.717 -0.153203 2.99308 0
M  V30 8787 H 825.278 0.0628968 1.61778 0
M  V30 8788 H 827.27 -2.68414 3.0288 0
M  V30 8789 H 825.84 -2.39762 2.00582 0
M  V30 8790 H 825.06 -0.752768 3.86946 0
M  V30 8791 H 826.348 -1.42633 4.88399 0
M  V30 8792 H 825.746 -4.34613 3.62116 0
M  V30 8793 H 824.303 -4.75288 4.46032 0
M  V30 8794 N 827.736 -1.57571 -0.0300757 0
M  V30 8795 C 828.646 -2.09892 -1.04798 0
M  V30 8796 C 829.662 -1.03732 -1.39698 0
M  V30 8797 O 830.838 -1.35461 -1.49038 0
M  V30 8798 C 827.903 -2.56707 -2.33028 0
M  V30 8799 C 826.964 -3.77345 -2.04718 0
M  V30 8800 C 826.197 -4.21918 -3.26834 0
M  V30 8801 O 826.42 -3.66025 -4.37472 0
M  V30 8802 O 825.354 -5.14362 -3.12594 0
M  V30 8803 H 829.18 -2.97023 -0.633344 0
M  V30 8804 H 826.765 -1.47344 -0.246991 0
M  V30 8805 H 828.647 -2.87154 -3.08417 0
M  V30 8806 H 827.322 -1.72688 -2.73789 0
M  V30 8807 H 826.229 -3.51919 -1.26901 0
M  V30 8808 H 827.562 -4.62345 -1.68813 0
M  V30 8809 N 829.214 0.302327 -1.54673 0
M  V30 8810 C 830.625 0.875409 -1.64904 0
M  V30 8811 C 830.976 1.88132 -0.55684 0
M  V30 8812 O 830.101 2.14215 0.306754 0
M  V30 8813 C 830.696 1.59457 -2.9893 0
M  V30 8814 C 829.255 2.11607 -3.11287 0
M  V30 8815 C 828.402 0.948324 -2.6058 0
M  V30 8816 H 831.353 0.079362 -1.58501 0
M  V30 8817 H 831.374 2.46005 -2.90279 0
M  V30 8818 H 830.886 0.8622 -3.78402 0
M  V30 8819 H 828.987 2.87895 -2.36532 0
M  V30 8820 H 829.1 2.35151 -4.17422 0
M  V30 8821 H 827.464 1.33352 -2.17001 0
M  V30 8822 H 828.247 0.229936 -3.42529 0
M  V30 8823 N 830.692 1.47107 0.565454 0
M  V30 8824 C 831.941 1.5257 1.31929 0
M  V30 8825 C 832.254 0.189092 1.94684 0
M  V30 8826 O 833.46 0.121657 2.71227 0
M  V30 8827 C 831.916 2.68914 2.39193 0
M  V30 8828 C 831.524 4.09069 1.82665 0
M  V30 8829 C 833.268 2.83663 3.1581 0
M  V30 8830 C 831.175 5.16726 2.87661 0
M  V30 8831 H 830.105 0.567869 0.496025 0
M  V30 8832 H 832.756 1.73361 0.60151 0
M  V30 8833 H 831.138 2.41486 3.13848 0
M  V30 8834 H 832.312 4.46364 1.14438 0
M  V30 8835 H 830.627 3.99135 1.1866 0
M  V30 8836 H 833.224 3.61261 3.94201 0
M  V30 8837 H 833.567 1.91804 3.69482 0
M  V30 8838 H 834.1 3.10821 2.48265 0
M  V30 8839 H 830.839 6.10433 2.38854 0
M  V30 8840 H 830.359 4.83957 3.54324 0
M  V30 8841 H 832.038 5.43319 3.51303 0
M  V30 8842 N 832.17 -0.811516 1.35101 0
M  V30 8843 C 833.08 -1.95475 1.29718 0
M  V30 8844 C 834.096 -1.72813 0.202909 0
M  V30 8845 O 835.272 -1.96725 0.431414 0
M  V30 8846 C 832.337 -3.29975 1.06385 0
M  V30 8847 C 831.398 -3.65566 2.25077 0
M  V30 8848 C 830.631 -4.93648 2.02848 0
M  V30 8849 O 830.854 -5.617 0.992442 0
M  V30 8850 O 829.788 -5.27384 2.90087 0
M  V30 8851 H 833.614 -2.02961 2.25921 0
M  V30 8852 H 831.199 -0.948583 1.15422 0
M  V30 8853 H 833.081 -4.10506 0.951999 0
M  V30 8854 H 831.756 -3.2343 0.132294 0
M  V30 8855 H 830.663 -2.85432 2.41825 0
M  V30 8856 H 831.996 -3.7681 3.16662 0
M  V30 8857 N 833.648 -1.19017 -1.03309 0
M  V30 8858 C 834.873 -1.01598 -1.80811 0
M  V30 8859 C 835.298 0.430773 -1.83101 0
M  V30 8860 O 834.656 1.30946 -1.25391 0
M  V30 8861 C 834.704 -1.5845 -3.23923 0
M  V30 8862 O 833.808 -0.810972 -4.04348 0
M  V30 8863 H 833.149 -0.359398 -0.558327 0
M  V30 8864 H 835.679 -1.57945 -1.30055 0
M  V30 8865 H 835.689 -1.61486 -3.74682 0
M  V30 8866 H 834.364 -2.63752 -3.21571 0
M  V30 8867 H 832.941 -0.85353 -3.63 0
M  V30 8868 N 835.127 1.22348 -0.993418 0
M  V30 8869 C 836.404 1.86632 -0.585495 0
M  V30 8870 C 836.784 1.89156 0.937187 0
M  V30 8871 O 836.132 1.38247 1.81934 0
M  V30 8872 C 836.342 3.27481 -1.20652 0
M  V30 8873 C 837.69 4.03971 -1.30738 0
M  V30 8874 O 838.714 3.3675 -1.16096 0
M  V30 8875 O 837.573 5.24302 -1.54173 0
M  V30 8876 H 834.667 0.802704 -0.198984 0
M  V30 8877 H 837.213 1.30122 -1.08933 0
M  V30 8878 H 835.985 3.20281 -2.24802 0
M  V30 8879 H 835.608 3.91597 -0.688312 0
M  V30 8880 N 836.605 0.766683 1.37694 0
M  V30 8881 C 837.515 0.150158 2.34119 0
M  V30 8882 C 838.531 -0.685513 1.59927 0
M  V30 8883 O 839.707 -0.606616 1.92047 0
M  V30 8884 C 836.772 -0.722562 3.39087 0
M  V30 8885 C 835.833 0.128983 4.29106 0
M  V30 8886 C 835.066 -0.702178 5.29061 0
M  V30 8887 O 835.289 -1.93954 5.36412 0
M  V30 8888 O 834.223 -0.114056 6.01792 0
M  V30 8889 H 838.049 0.946829 2.88563 0
M  V30 8890 H 835.634 0.527765 1.39768 0
M  V30 8891 H 837.516 -1.22095 4.03325 0
M  V30 8892 H 836.191 -1.49751 2.86978 0
M  V30 8893 H 835.098 0.673612 3.67985 0
M  V30 8894 H 836.431 0.866892 4.84506 0
M  V30 8895 N 838.083 -1.48885 0.516809 0
M  V30 8896 C 838.993 -2.33185 -0.257293 0
M  V30 8897 C 840.009 -1.4565 -0.951952 0
M  V30 8898 O 841.185 -1.78651 -0.929834 0
M  V30 8899 C 838.25 -3.21465 -1.29851 0
M  V30 8900 C 837.311 -4.24863 -0.615608 0
M  V30 8901 C 836.544 -5.08925 -1.60722 0
M  V30 8902 O 836.767 -4.9475 -2.83863 0
M  V30 8903 O 835.701 -5.90737 -1.15384 0
M  V30 8904 H 839.527 -3.00596 0.433131 0
M  V30 8905 H 837.112 -1.46792 0.277908 0
M  V30 8906 H 838.994 -3.76108 -1.90055 0
M  V30 8907 H 837.669 -2.5673 -1.97158 0
M  V30 8908 H 836.576 -3.74091 0.0265829 0
M  V30 8909 H 837.909 -4.92198 0.0152871 0
M  V30 8910 N 839.561 -0.251338 -1.55583 0
M  V30 8911 C 840.471 0.656978 -2.25213 0
M  V30 8912 C 841.487 1.18966 -1.26977 0
M  V30 8913 O 842.663 1.22499 -1.59862 0
M  V30 8914 C 839.728 1.83527 -2.94141 0
M  V30 8915 C 838.789 1.34162 -4.07798 0
M  V30 8916 C 838.022 2.46375 -4.73429 0
M  V30 8917 O 838.245 3.65205 -4.38157 0
M  V30 8918 O 837.179 2.15881 -5.61853 0
M  V30 8919 H 841.005 0.0936395 -3.03556 0
M  V30 8920 H 838.59 -0.0196638 -1.49387 0
M  V30 8921 H 840.472 2.52279 -3.3754 0
M  V30 8922 H 839.147 2.38614 -2.18735 0
M  V30 8923 H 838.054 0.621249 -3.68906 0
M  V30 8924 H 839.387 0.836779 -4.85035 0
M  V30 8925 N 841.039 1.57585 0.0217189 0
M  V30 8926 C 842.002 2.06004 1.00474 0
M  V30 8927 C 843.002 0.965461 1.2859 0
M  V30 8928 O 844.192 1.22884 1.23471 0
M  V30 8929 C 841.324 2.48319 2.33561 0
M  V30 8930 H 842.517 2.94112 0.586346 0
M  V30 8931 H 840.07 1.53973 0.268716 0
M  V30 8932 H 840.805 1.63389 2.80133 0
M  V30 8933 H 840.59 3.28239 2.1448 0
M  V30 8934 H 842.08 2.86181 3.04122 0
M  V30 8935 N 842.517 -0.29412 1.54831 0
M  V30 8936 C 843.427 -1.3854 1.89325 0
M  V30 8937 C 844.443 -1.55127 0.788133 0
M  V30 8938 O 845.619 -1.6966 1.08524 0
M  V30 8939 C 842.684 -2.72809 2.13954 0
M  V30 8940 C 841.745 -2.65148 3.37631 0
M  V30 8941 C 840.978 -3.93014 3.61076 0
M  V30 8942 O 841.201 -4.927 2.87406 0
M  V30 8943 O 840.135 -3.94491 4.54599 0
M  V30 8944 H 843.961 -1.12289 2.82179 0
M  V30 8945 H 841.546 -0.490793 1.41108 0
M  V30 8946 H 843.428 -3.52238 2.31315 0
M  V30 8947 H 842.103 -2.9889 1.24285 0
M  V30 8948 H 841.01 -1.84168 3.25627 0
M  V30 8949 H 842.343 -2.4402 4.27452 0
M  V30 8950 N 843.995 -1.47404 -0.557645 0
M  V30 8951 C 845.406 -1.47872 -1.13977 0
M  V30 8952 C 845.757 -0.233176 -1.94809 0
M  V30 8953 O 844.882 0.661945 -2.06027 0
M  V30 8954 C 845.477 -2.67926 -2.07368 0
M  V30 8955 C 844.036 -2.71354 -2.60852 0
M  V30 8956 C 843.183 -2.40967 -1.37223 0
M  V30 8957 H 846.134 -1.54921 -0.344268 0
M  V30 8958 H 846.155 -2.44871 -2.91236 0
M  V30 8959 H 845.667 -3.58562 -1.48509 0
M  V30 8960 H 843.768 -1.84855 -3.23511 0
M  V30 8961 H 843.881 -3.72032 -3.01876 0
M  V30 8962 H 842.245 -1.91541 -1.67882 0
M  V30 8963 H 843.028 -3.33811 -0.801583 0
M  V30 8964 N 845.473 0.80434 -1.35529 0
M  V30 8965 C 846.884 1.37849 -1.25915 0
M  V30 8966 C 847.235 1.95905 0.107495 0
M  V30 8967 O 846.36 1.91462 1.00852 0
M  V30 8968 C 846.955 2.50608 -2.27994 0
M  V30 8969 C 845.514 3.03879 -2.22114 0
M  V30 8970 C 844.661 1.76856 -2.13582 0
M  V30 8971 H 847.612 0.607192 -1.46625 0
M  V30 8972 H 847.633 3.29221 -1.90772 0
M  V30 8973 H 847.145 2.08323 -3.27449 0
M  V30 8974 H 845.246 3.50622 -1.26077 0
M  V30 8975 H 845.359 3.61707 -3.14173 0
M  V30 8976 H 843.723 1.98498 -1.59595 0
M  V30 8977 H 844.506 1.36721 -3.14901 0
M  V30 8978 N 846.951 1.19563 1.02676 0
M  V30 8979 C 848.367 0.948304 1.28372 0
M  V30 8980 C 848.567 -0.378096 1.97921 0
M  V30 8981 O 847.623 -1.1091 2.26838 0
M  V30 8982 C 848.936 2.12381 2.12873 0
M  V30 8983 C 850.484 2.16366 2.26174 0
M  V30 8984 C 850.959 3.33374 3.14048 0
M  V30 8985 N 852.45 3.33323 3.21636 0
M  V30 8986 C 853.185 4.20504 3.89825 0
M  V30 8987 N 852.681 5.17845 4.60227 0
M  V30 8988 N 854.474 4.08375 3.86246 0
M  V30 8989 H 846.625 2.04899 0.559485 0
M  V30 8990 H 848.888 0.89606 0.309484 0
M  V30 8991 H 848.594 3.08383 1.69094 0
M  V30 8992 H 848.468 2.09621 3.1359 0
M  V30 8993 H 850.855 1.20933 2.69182 0
M  V30 8994 H 850.936 2.23179 1.25 0
M  V30 8995 H 850.58 4.29087 2.71747 0
M  V30 8996 H 850.51 3.23798 4.15286 0
M  V30 8997 H 853.001 2.62863 2.71498 0
M  V30 8998 H 853.314 5.80712 5.09896 0
M  V30 8999 H 851.659 5.21791 4.59085 0
M  V30 9000 H 854.85 3.31606 3.30386 0
M  V30 9001 H 855.023 4.76532 4.39114 0
M  V30 9002 N 848.429 -1.21819 0.999893 0
M  V30 9003 C 849.339 -2.27691 0.565159 0
M  V30 9004 C 850.355 -1.69587 -0.389398 0
M  V30 9005 O 851.531 -1.99786 -0.254499 0
M  V30 9006 C 848.596 -3.46537 -0.106432 0
M  V30 9007 C 847.657 -4.19932 0.891964 0
M  V30 9008 C 846.89 -5.33103 0.252327 0
M  V30 9009 O 847.113 -5.62398 -0.952103 0
M  V30 9010 O 846.047 -5.94184 0.960698 0
M  V30 9011 H 849.873 -2.67059 1.44613 0
M  V30 9012 H 847.458 -1.28119 0.768499 0
M  V30 9013 H 849.34 -4.18631 -0.482301 0
M  V30 9014 H 848.015 -3.09079 -0.961865 0
M  V30 9015 H 846.922 -3.5008 1.3189 0
M  V30 9016 H 848.255 -4.61287 1.71682 0
M  V30 9017 N 849.908 -0.773975 -1.37286 0
M  V30 9018 C 851.154 -0.339809 -1.99933 0
M  V30 9019 C 851.487 1.0815 -1.61299 0
M  V30 9020 O 850.762 1.74442 -0.860252 0
M  V30 9021 C 851.045 -0.485919 -3.56806 0
M  V30 9022 C 850.898 -1.9498 -4.05343 0
M  V30 9023 C 852.217 0.108461 -4.39966 0
M  V30 9024 H 849.336 -0.124944 -0.726332 0
M  V30 9025 H 851.978 -0.977433 -1.6293 0
M  V30 9026 H 850.128 0.0569023 -3.88458 0
M  V30 9027 H 851.8 -2.5525 -3.84246 0
M  V30 9028 H 850.043 -2.45784 -3.57453 0
M  V30 9029 H 850.714 -2.00308 -5.14374 0
M  V30 9030 H 853.19 -0.354722 -4.14585 0
M  V30 9031 H 852.066 -0.0238926 -5.48895 0
M  V30 9032 H 852.327 1.19901 -4.25531 0
M  V30 9033 N 851.386 1.48609 -0.524698 0
M  V30 9034 C 852.296 2.33318 0.244923 0
M  V30 9035 C 853.312 1.46153 0.944214 0
M  V30 9036 O 854.488 1.79141 0.920347 0
M  V30 9037 C 851.553 3.22149 1.28144 0
M  V30 9038 C 850.614 4.25184 0.593068 0
M  V30 9039 C 849.847 5.0977 1.5802 0
M  V30 9040 O 850.07 4.96249 2.81235 0
M  V30 9041 O 849.004 5.9134 1.1225 0
M  V30 9042 H 852.83 3.00362 -0.449066 0
M  V30 9043 H 850.415 1.46643 -0.285689 0
M  V30 9044 H 852.297 3.77111 1.88057 0
M  V30 9045 H 850.972 2.57772 1.95793 0
M  V30 9046 H 849.879 3.74071 -0.0464214 0
M  V30 9047 H 851.212 4.92183 -0.0413893 0
M  V30 9048 N 852.864 0.259585 1.55447 0
M  V30 9049 C 854.275 -0.241165 1.85136 0
M  V30 9050 C 854.626 -1.56634 1.18153 0
M  V30 9051 O 853.751 -2.11359 0.464351 0
M  V30 9052 C 854.346 -0.444355 3.35873 0
M  V30 9053 C 852.905 -0.889354 3.65742 0
M  V30 9054 C 852.052 0.0262474 2.77288 0
M  V30 9055 H 855.003 0.481808 1.51209 0
M  V30 9056 H 855.024 -1.28517 3.58139 0
M  V30 9057 H 854.536 0.520289 3.84597 0
M  V30 9058 H 852.637 -1.86602 3.22507 0
M  V30 9059 H 852.75 -0.737432 4.73391 0
M  V30 9060 H 851.114 -0.487361 2.49994 0
M  V30 9061 H 851.897 0.986494 3.28821 0
M  V30 9062 N 854.342 -1.57594 -0.0133615 0
M  V30 9063 C 855.59 -1.89605 -0.699596 0
M  V30 9064 C 855.911 -0.85926 -1.75048 0
M  V30 9065 O 855.181 0.105112 -1.95618 0
M  V30 9066 H 853.761 -0.699776 -0.261385 0
M  V30 9067 H 856.423 -1.94885 0.0244044 0
M  V30 9068 H 855.519 -2.88962 -1.17928 0
M  V30 9069 N 855.82 0.285905 -1.54985 0
M  V30 9070 C 856.752 1.37505 -1.83371 0
M  V30 9071 C 857.765 1.46138 -0.717454 0
M  V30 9072 O 858.954 1.48186 -0.995142 0
M  V30 9073 C 856.054 2.7575 -1.97016 0
M  V30 9074 C 855.227 2.89866 -3.27561 0
M  V30 9075 C 854.286 4.08704 -3.31433 0
M  V30 9076 O 853.312 4.00073 -4.04883 0
M  V30 9077 N 854.514 5.20062 -2.57907 0
M  V30 9078 H 857.279 1.13505 -2.77375 0
M  V30 9079 H 854.84 0.476006 -1.54744 0
M  V30 9080 H 856.832 3.5352 -1.96991 0
M  V30 9081 H 855.402 2.9263 -1.09938 0
M  V30 9082 H 854.622 1.99085 -3.40234 0
M  V30 9083 H 855.91 2.96219 -4.13681 0
M  V30 9084 H 855.308 5.29958 -1.97891 0
M  V30 9085 H 853.865 5.96111 -2.63619 0
M  V30 9086 N 857.298 1.47698 0.54982 0
M  V30 9087 C 858.714 1.3338 0.876468 0
M  V30 9088 C 858.914 0.329837 1.98782 0
M  V30 9089 O 857.97 -0.256022 2.51199 0
M  V30 9090 C 859.283 2.72903 1.26272 0
M  V30 9091 C 860.831 2.81243 1.37373 0
M  V30 9092 C 861.306 4.21423 1.79351 0
M  V30 9093 N 862.797 4.24 1.86489 0
M  V30 9094 C 863.532 5.29386 2.20313 0
M  V30 9095 N 863.028 6.4507 2.527 0
M  V30 9096 N 864.821 5.16768 2.2115 0
M  V30 9097 H 856.972 2.11603 -0.183781 0
M  V30 9098 H 859.235 0.947798 -0.0195601 0
M  V30 9099 H 858.941 3.47836 0.519889 0
M  V30 9100 H 858.815 3.05151 2.21727 0
M  V30 9101 H 861.202 2.06577 2.10737 0
M  V30 9102 H 861.283 2.52639 0.400882 0
M  V30 9103 H 860.927 4.96597 1.06555 0
M  V30 9104 H 860.857 4.47456 2.77652 0
M  V30 9105 H 863.348 3.40547 1.63817 0
M  V30 9106 H 863.661 7.21236 2.77557 0
M  V30 9107 H 862.006 6.48377 2.50263 0
M  V30 9108 H 865.197 4.25416 1.95293 0
M  V30 9109 H 865.37 5.99004 2.4718 0
M  V30 9110 N 858.776 -0.797141 1.35954 0
M  V30 9111 C 859.708 -1.91782 1.25509 0
M  V30 9112 C 860.721 -1.61843 0.176271 0
M  V30 9113 O 861.91 -1.73235 0.430343 0
M  V30 9114 C 859.01 -3.26396 0.912073 0
M  V30 9115 C 858.183 -3.84171 2.0912 0
M  V30 9116 C 857.242 -4.9721 1.72246 0
M  V30 9117 O 856.268 -5.14136 2.44239 0
M  V30 9118 N 857.47 -5.76831 0.651611 0
M  V30 9119 H 860.235 -2.01266 2.22063 0
M  V30 9120 H 857.796 -0.975033 1.29247 0
M  V30 9121 H 859.788 -3.99499 0.646707 0
M  V30 9122 H 858.358 -3.12579 0.0359079 0
M  V30 9123 H 857.578 -3.03148 2.51982 0
M  V30 9124 H 858.866 -4.19503 2.87914 0
M  V30 9125 H 858.264 -5.65675 0.0536678 0
M  V30 9126 H 856.821 -6.50272 0.44605 0
M  V30 9127 N 860.254 -1.20106 -1.0204 0
M  V30 9128 C 861.665 -1.00992 -1.57027 0
M  V30 9129 C 862.016 0.434782 -1.91322 0
M  V30 9130 O 861.141 1.31557 -1.71819 0
M  V30 9131 C 861.736 -1.82697 -2.85319 0
M  V30 9132 C 860.295 -1.67959 -3.36848 0
M  V30 9133 C 859.442 -1.80868 -2.10195 0
M  V30 9134 H 862.393 -1.34354 -0.844676 0
M  V30 9135 H 862.414 -1.32809 -3.5657 0
M  V30 9136 H 861.926 -2.87839 -2.60328 0
M  V30 9137 H 860.027 -0.654389 -3.66809 0
M  V30 9138 H 860.14 -2.49006 -4.09308 0
M  V30 9139 H 858.504 -1.24015 -2.22469 0
M  V30 9140 H 859.287 -2.87486 -1.87635 0
M  V30 9141 N 861.732 1.21287 -1.00634 0
M  V30 9142 C 862.957 1.94925 -0.708441 0
M  V30 9143 C 863.382 1.73659 0.722783 0
M  V30 9144 O 862.74 1.02429 1.49593 0
M  V30 9145 C 862.788 3.45377 -1.03667 0
M  V30 9146 O 861.892 4.12153 -0.142661 0
M  V30 9147 H 861.233 0.609338 -0.263824 0
M  V30 9148 H 863.763 1.54008 -1.34695 0
M  V30 9149 H 863.773 3.95954 -0.984086 0
M  V30 9150 H 862.448 3.6018 -2.0795 0
M  V30 9151 H 861.025 3.72048 -0.251888 0
M  V30 9152 N 863.21 0.781244 1.36873 0
M  V30 9153 C 864.12 0.174981 2.33947 0
M  V30 9154 C 865.136 -0.668512 1.60645 0
M  V30 9155 O 866.312 -0.586213 1.9268 0
M  V30 9156 C 863.377 -0.686557 3.39834 0
M  V30 9157 C 862.438 0.174489 4.28945 0
M  V30 9158 C 861.671 -0.646024 5.29776 0
M  V30 9159 O 861.894 -1.88254 5.38439 0
M  V30 9160 O 860.828 -0.0502214 6.01879 0
M  V30 9161 H 864.654 0.977382 2.87543 0
M  V30 9162 H 862.239 0.542559 1.392 0
M  V30 9163 H 864.121 -1.1781 4.04597 0
M  V30 9164 H 862.796 -1.46699 2.8855 0
M  V30 9165 H 861.703 0.712604 3.6725 0
M  V30 9166 H 863.036 0.918232 4.83559 0
M  V30 9167 N 864.689 -1.48329 0.532571 0
M  V30 9168 C 865.621 -2.27652 -0.265931 0
M  V30 9169 C 866.634 -1.35522 -0.902083 0
M  V30 9170 O 867.823 -1.60552 -0.780088 0
M  V30 9171 C 864.923 -3.0899 -1.39207 0
M  V30 9172 C 864.096 -4.28915 -0.857349 0
M  V30 9173 C 863.155 -4.92044 -1.86493 0
M  V30 9174 O 862.181 -5.51181 -1.42084 0
M  V30 9175 N 863.383 -4.84518 -3.19723 0
M  V30 9176 H 866.148 -2.96821 0.414389 0
M  V30 9177 H 863.709 -1.57684 0.367066 0
M  V30 9178 H 865.701 -3.48091 -2.06433 0
M  V30 9179 H 864.271 -2.42224 -1.97601 0
M  V30 9180 H 863.491 -3.94199 -0.00901765 0
M  V30 9181 H 864.779 -5.0654 -0.479025 0
M  V30 9182 H 864.177 -4.37628 -3.58467 0
M  V30 9183 H 862.734 -5.27712 -3.82575 0
M  V30 9184 N 866.167 -0.267825 -1.55308 0
M  V30 9185 C 867.077 0.633055 -2.25897 0
M  V30 9186 C 868.093 1.17613 -1.28231 0
M  V30 9187 O 869.269 1.20797 -1.61153 0
M  V30 9188 C 866.334 1.80397 -2.96071 0
M  V30 9189 C 865.395 1.29829 -4.09198 0
M  V30 9190 C 864.628 2.4134 -4.76016 0
M  V30 9191 O 864.851 3.60537 -4.42006 0
M  V30 9192 O 863.785 2.09909 -5.64111 0
M  V30 9193 H 867.611 0.0614381 -3.03638 0
M  V30 9194 H 865.196 -0.0355072 -1.49358 0
M  V30 9195 H 867.078 2.48685 -3.40197 0
M  V30 9196 H 865.753 2.36281 -2.21253 0
M  V30 9197 H 864.66 0.582086 -3.69544 0
M  V30 9198 H 865.993 0.785288 -4.85895 0
M  V30 9199 N 867.645 1.57599 0.00500368 0
M  V30 9200 C 868.575 2.11143 0.99705 0
M  V30 9201 C 869.556 1.0194 1.3617 0
M  V30 9202 O 870.741 1.29596 1.44632 0
M  V30 9203 C 867.871 2.61062 2.2905 0
M  V30 9204 C 866.825 3.74745 2.0676 0
M  V30 9205 C 866.151 4.10961 3.42075 0
M  V30 9206 C 867.451 5.02222 1.43424 0
M  V30 9207 H 869.145 2.94281 0.551251 0
M  V30 9208 H 866.691 1.41565 0.263715 0
M  V30 9209 H 868.644 2.97146 2.98801 0
M  V30 9210 H 867.368 1.75038 2.75734 0
M  V30 9211 H 866.027 3.39047 1.39436 0
M  V30 9212 H 865.675 3.21968 3.86453 0
M  V30 9213 H 865.375 4.87549 3.27979 0
M  V30 9214 H 866.899 4.49599 4.1315 0
M  V30 9215 H 868.313 5.36109 2.03125 0
M  V30 9216 H 866.71 5.83581 1.39831 0
M  V30 9217 H 867.78 4.83224 0.40285 0
M  V30 9218 N 869.123 -0.277682 1.55134 0
M  V30 9219 C 870.053 -1.34742 1.90701 0
M  V30 9220 C 871.034 -1.51757 0.768354 0
M  V30 9221 O 872.219 -1.64879 1.02609 0
M  V30 9222 C 869.349 -2.70775 2.17481 0
M  V30 9223 C 868.303 -2.68497 3.33307 0
M  V30 9224 C 867.629 -4.08037 3.45557 0
M  V30 9225 C 868.929 -2.28178 4.69821 0
M  V30 9226 H 870.623 -1.05224 2.803 0
M  V30 9227 H 868.169 -0.504738 1.34864 0
M  V30 9228 H 870.122 -3.45719 2.40949 0
M  V30 9229 H 868.846 -3.01867 1.24676 0
M  V30 9230 H 867.505 -1.9601 3.09799 0
M  V30 9231 H 867.153 -4.36344 2.50226 0
M  V30 9232 H 866.853 -4.07409 4.23429 0
M  V30 9233 H 868.377 -4.84726 3.71312 0
M  V30 9234 H 869.791 -2.92843 4.92865 0
M  V30 9235 H 868.188 -2.3872 5.50575 0
M  V30 9236 H 869.258 -1.23308 4.6896 0
M  V30 9237 N 870.601 -1.47988 -0.541979 0
M  V30 9238 C 871.848 -1.55393 -1.29843 0
M  V30 9239 C 872.176 -0.222668 -1.93221 0
M  V30 9240 O 871.431 0.785936 -1.79225 0
M  V30 9241 C 871.73 -2.63189 -2.41798 0
M  V30 9242 C 871.396 -4.05999 -1.96151 0
M  V30 9243 C 870.058 -4.44872 -1.83419 0
M  V30 9244 C 872.41 -4.95545 -1.61507 0
M  V30 9245 C 869.738 -5.71108 -1.34361 0
M  V30 9246 C 872.09 -6.22259 -1.13915 0
M  V30 9247 C 870.754 -6.59998 -0.997911 0
M  V30 9248 H 870.024 -0.568623 -0.47513 0
M  V30 9249 H 872.671 -1.81654 -0.606142 0
M  V30 9250 H 870.976 -2.30743 -3.16647 0
M  V30 9251 H 872.673 -2.66138 -2.99953 0
M  V30 9252 H 869.263 -3.75294 -2.07008 0
M  V30 9253 H 873.447 -4.662 -1.70209 0
M  V30 9254 H 868.703 -5.99083 -1.22103 0
M  V30 9255 H 872.877 -6.91048 -0.861755 0
M  V30 9256 H 870.504 -7.57704 -0.615561 0
M  V30 9257 N 872.079 0.78992 -1.36375 0
M  V30 9258 C 873.495 1.0879 -1.16777 0
M  V30 9259 C 873.695 2.01498 0.00848236 0
M  V30 9260 O 872.751 2.43338 0.674007 0
M  V30 9261 C 874.064 1.70285 -2.47837 0
M  V30 9262 C 875.612 1.82629 -2.54196 0
M  V30 9263 C 876.087 2.47539 -3.85342 0
M  V30 9264 N 877.578 2.55008 -3.86685 0
M  V30 9265 C 878.313 3.06041 -4.84898 0
M  V30 9266 N 877.809 3.57385 -5.93505 0
M  V30 9267 N 879.602 3.04748 -4.72319 0
M  V30 9268 H 871.753 0.173985 -2.11686 0
M  V30 9269 H 874.016 0.139798 -0.937636 0
M  V30 9270 H 873.722 1.09633 -3.34176 0
M  V30 9271 H 873.596 2.69799 -2.63607 0
M  V30 9272 H 875.983 2.42419 -1.68276 0
M  V30 9273 H 876.064 0.81923 -2.42327 0
M  V30 9274 H 875.708 1.88393 -4.71668 0
M  V30 9275 H 875.638 3.48815 -3.94507 0
M  V30 9276 H 878.129 2.18651 -3.08221 0
M  V30 9277 H 878.442 3.94674 -6.64419 0
M  V30 9278 H 876.787 3.55538 -5.97175 0
M  V30 9279 H 879.978 2.63925 -3.86602 0
M  V30 9280 H 880.151 3.44212 -5.49019 0
M  V30 9281 N 873.557 1.20646 1.01402 0
M  V30 9282 C 874.489 0.915392 2.10127 0
M  V30 9283 C 875.502 -0.0978705 1.62506 0
M  V30 9284 O 876.691 0.133477 1.78 0
M  V30 9285 C 873.791 0.351304 3.37074 0
M  V30 9286 C 872.964 1.41673 4.13821 0
M  V30 9287 C 872.023 0.8635 5.19067 0
M  V30 9288 O 871.049 1.54481 5.47836 0
M  V30 9289 N 872.251 -0.325799 5.79585 0
M  V30 9290 H 875.016 1.85132 2.35682 0
M  V30 9291 H 872.577 1.11048 1.17813 0
M  V30 9292 H 874.569 -0.032996 4.04687 0
M  V30 9293 H 873.139 -0.489242 3.08748 0
M  V30 9294 H 872.359 1.97526 3.41141 0
M  V30 9295 H 873.647 2.1342 4.61876 0
M  V30 9296 H 873.045 -0.896534 5.58551 0
M  V30 9297 H 871.602 -0.651708 6.48534 0
M  V30 9298 N 875.035 -1.20752 1.01276 0
M  V30 9299 C 875.967 -2.22798 0.537917 0
M  V30 9300 C 876.98 -1.5836 -0.377638 0
M  V30 9301 O 878.169 -1.77624 -0.176599 0
M  V30 9302 C 875.269 -3.38068 -0.237364 0
M  V30 9303 C 874.442 -4.32095 0.679161 0
M  V30 9304 C 873.501 -5.26178 -0.0478676 0
M  V30 9305 O 872.527 -5.66305 0.573366 0
M  V30 9306 N 873.729 -5.65201 -1.32396 0
M  V30 9307 H 876.494 -2.64166 1.4155 0
M  V30 9308 H 874.055 -1.35254 0.889826 0
M  V30 9309 H 876.047 -3.98009 -0.73288 0
M  V30 9310 H 874.617 -2.95622 -1.0162 0
M  V30 9311 H 873.837 -3.70179 1.35505 0
M  V30 9312 H 875.125 -4.91842 1.30263 0
M  V30 9313 H 874.523 -5.34606 -1.84968 0
M  V30 9314 H 873.08 -6.27468 -1.76428 0
M  V30 9315 N 876.513 -0.788492 -1.36457 0
M  V30 9316 C 877.476 -0.192209 -2.28393 0
M  V30 9317 C 878.476 0.609916 -1.48784 0
M  V30 9318 O 879.666 0.431046 -1.68783 0
M  V30 9319 C 876.798 0.734096 -3.32902 0
M  V30 9320 H 877.991 -1.00284 -2.82636 0
M  V30 9321 H 875.544 -0.557852 -1.46006 0
M  V30 9322 H 876.279 1.5691 -2.83813 0
M  V30 9323 H 876.064 0.160875 -3.9177 0
M  V30 9324 H 877.554 1.1462 -4.01562 0
M  V30 9325 N 877.991 1.48044 -0.54043 0
M  V30 9326 C 878.921 2.32597 0.205178 0
M  V30 9327 C 879.902 1.42748 0.925041 0
M  V30 9328 O 881.087 1.71624 0.908784 0
M  V30 9329 C 878.217 3.24175 1.24612 0
M  V30 9330 C 877.171 4.23131 0.64376 0
M  V30 9331 C 876.497 5.03915 1.78812 0
M  V30 9332 C 877.797 5.20831 -0.39144 0
M  V30 9333 H 879.491 2.95184 -0.500676 0
M  V30 9334 H 877.037 1.41948 -0.242225 0
M  V30 9335 H 878.99 3.82158 1.77576 0
M  V30 9336 H 877.714 2.59608 1.98169 0
M  V30 9337 H 876.373 3.66349 0.135554 0
M  V30 9338 H 876.021 4.35765 2.51232 0
M  V30 9339 H 875.721 5.709 1.39094 0
M  V30 9340 H 877.245 5.64753 2.32134 0
M  V30 9341 H 878.659 5.73277 0.0515064 0
M  V30 9342 H 877.056 5.95926 -0.706569 0
M  V30 9343 H 878.126 4.6733 -1.29345 0
M  V30 9344 N 879.47 0.276058 1.55163 0
M  V30 9345 C 880.4 -0.604633 2.25536 0
M  V30 9346 C 881.381 -1.15813 1.24585 0
M  V30 9347 O 882.566 -1.1921 1.53306 0
M  V30 9348 C 879.696 -1.78836 2.97716 0
M  V30 9349 C 878.65 -1.36635 4.05604 0
M  V30 9350 C 877.976 -2.63325 4.65364 0
M  V30 9351 C 879.276 -0.515858 5.19746 0
M  V30 9352 H 880.97 -0.0177483 2.99395 0
M  V30 9353 H 878.516 -0.00709627 1.43998 0
M  V30 9354 H 880.469 -2.41036 3.45658 0
M  V30 9355 H 879.193 -2.40109 2.21394 0
M  V30 9356 H 877.852 -0.767541 3.58475 0
M  V30 9357 H 877.5 -3.22858 3.85709 0
M  V30 9358 H 877.2 -2.358 5.38212 0
M  V30 9359 H 878.724 -3.26372 5.16056 0
M  V30 9360 H 880.138 -1.04289 5.63735 0
M  V30 9361 H 878.535 -0.335449 5.99162 0
M  V30 9362 H 879.605 0.465137 4.82664 0
M  V30 9363 N 880.948 -1.576 0.00335426 0
M  V30 9364 C 881.878 -2.11668 -0.985839 0
M  V30 9365 C 882.859 -1.02661 -1.35627 0
M  V30 9366 O 884.044 -1.30361 -1.43943 0
M  V30 9367 C 881.174 -2.62273 -2.27662 0
M  V30 9368 C 880.128 -3.75837 -2.0477 0
M  V30 9369 C 879.454 -4.12769 -3.39891 0
M  V30 9370 C 880.754 -5.02975 -1.40759 0
M  V30 9371 H 882.448 -2.9457 -0.535637 0
M  V30 9372 H 879.994 -1.41702 -0.256204 0
M  V30 9373 H 881.947 -2.98727 -2.97221 0
M  V30 9374 H 880.671 -1.76498 -2.74802 0
M  V30 9375 H 879.33 -3.39782 -1.37636 0
M  V30 9376 H 878.978 -3.24013 -3.8474 0
M  V30 9377 H 878.678 -4.89281 -3.25389 0
M  V30 9378 H 880.202 -4.51784 -4.1076 0
M  V30 9379 H 881.616 -5.37179 -2.00279 0
M  V30 9380 H 880.013 -5.84315 -1.36734 0
M  V30 9381 H 881.083 -4.83431 -0.377218 0
M  V30 9382 N 882.426 0.269451 -1.5528 0
M  V30 9383 C 883.336 1.35511 -1.91505 0
M  V30 9384 C 884.352 1.53854 -0.812712 0
M  V30 9385 O 885.528 1.67912 -1.1121 0
M  V30 9386 C 882.593 2.6937 -2.18267 0
M  V30 9387 C 881.654 2.59743 -3.41807 0
M  V30 9388 C 880.887 3.87219 -3.67283 0
M  V30 9389 O 881.11 4.88066 -2.95208 0
M  V30 9390 O 880.044 3.87209 -4.60818 0
M  V30 9391 H 883.87 1.07785 -2.8393 0
M  V30 9392 H 881.455 0.468282 -1.41871 0
M  V30 9393 H 883.337 3.48513 -2.36889 0
M  V30 9394 H 882.012 2.96874 -1.29024 0
M  V30 9395 H 880.919 1.78964 -3.28516 0
M  V30 9396 H 882.252 2.37188 -4.3128 0
M  V30 9397 N 883.904 1.48273 0.534124 0
M  V30 9398 C 884.836 1.5857 1.65494 0
M  V30 9399 C 885.849 0.470266 1.5586 0
M  V30 9400 O 887.038 0.740928 1.62396 0
M  V30 9401 C 884.138 1.49554 3.04117 0
M  V30 9402 C 883.311 2.76066 3.39273 0
M  V30 9403 C 882.37 2.60562 4.57159 0
M  V30 9404 O 881.396 3.34438 4.60587 0
M  V30 9405 N 882.598 1.69906 5.55079 0
M  V30 9406 H 885.363 2.55226 1.57099 0
M  V30 9407 H 882.924 1.44944 0.721303 0
M  V30 9408 H 884.916 1.36882 3.80848 0
M  V30 9409 H 883.486 0.608895 3.06613 0
M  V30 9410 H 882.706 3.03332 2.51761 0
M  V30 9411 H 883.994 3.60006 3.59546 0
M  V30 9412 H 883.392 1.09079 5.55084 0
M  V30 9413 H 881.949 1.63175 6.31044 0
M  V30 9414 N 885.382 -0.782676 1.36792 0
M  V30 9415 C 886.314 -1.9044 1.27536 0
M  V30 9416 C 887.327 -1.61647 0.193426 0
M  V30 9417 O 888.516 -1.72769 0.448692 0
M  V30 9418 C 885.616 -3.2541 0.946641 0
M  V30 9419 C 884.789 -3.81932 2.13183 0
M  V30 9420 C 883.848 -4.95355 1.7751 0
M  V30 9421 O 882.874 -5.11517 2.49678 0
M  V30 9422 N 884.076 -5.76108 0.712755 0
M  V30 9423 H 886.841 -1.98899 2.24186 0
M  V30 9424 H 884.402 -0.96127 1.30274 0
M  V30 9425 H 886.394 -3.98791 0.689043 0
M  V30 9426 H 884.964 -3.12524 0.0690591 0
M  V30 9427 H 884.184 -3.00459 2.55183 0
M  V30 9428 H 885.472 -4.16426 2.92347 0
M  V30 9429 H 884.87 -5.65586 0.113662 0
M  V30 9430 H 883.427 -6.49762 0.514995 0
M  V30 9431 N 886.86 -1.21182 -1.00761 0
M  V30 9432 C 888.276 -0.968607 -1.26847 0
M  V30 9433 C 888.476 0.346561 -1.98497 0
M  V30 9434 O 887.532 1.07287 -2.28573 0
M  V30 9435 C 888.845 -2.1574 -2.09467 0
M  V30 9436 C 890.393 -2.19937 -2.22703 0
M  V30 9437 C 890.868 -3.38328 -3.08704 0
M  V30 9438 N 892.359 -3.38398 -3.16293 0
M  V30 9439 C 893.094 -4.26653 -3.83086 0
M  V30 9440 N 892.59 -5.25101 -4.5193 0
M  V30 9441 N 894.383 -4.14469 -3.797 0
M  V30 9442 H 886.534 -2.05763 -0.526816 0
M  V30 9443 H 888.797 -0.90087 -0.29519 0
M  V30 9444 H 888.503 -3.11034 -1.64167 0
M  V30 9445 H 888.377 -2.14584 -3.10216 0
M  V30 9446 H 890.764 -1.25201 -2.67224 0
M  V30 9447 H 890.845 -2.25139 -1.21433 0
M  V30 9448 H 890.489 -4.33356 -2.64886 0
M  V30 9449 H 890.419 -3.30364 -4.10082 0
M  V30 9450 H 892.91 -2.67149 -2.67282 0
M  V30 9451 H 893.223 -5.8875 -5.00592 0
M  V30 9452 H 891.568 -5.29029 -4.50726 0
M  V30 9453 H 894.759 -3.3682 -3.25069 0
M  V30 9454 H 894.932 -4.83458 -4.31477 0
M  V30 9455 N 888.338 1.20213 -1.01915 0
M  V30 9456 C 889.587 1.88968 -0.705261 0
M  V30 9457 C 889.9 1.79869 0.768531 0
M  V30 9458 O 891.106 2.43783 1.19508 0
M  V30 9459 C 889.562 3.38911 -1.21109 0
M  V30 9460 C 889.17 3.5659 -2.71197 0
M  V30 9461 C 890.914 4.13204 -0.97275 0
M  V30 9462 C 888.821 5.00372 -3.15248 0
M  V30 9463 H 887.751 0.707715 -0.260107 0
M  V30 9464 H 890.402 1.35977 -1.23217 0
M  V30 9465 H 888.784 3.9124 -0.612152 0
M  V30 9466 H 889.958 3.14635 -3.36662 0
M  V30 9467 H 888.273 2.95671 -2.93202 0
M  V30 9468 H 890.87 5.19221 -1.27726 0
M  V30 9469 H 891.213 4.16201 0.09072 0
M  V30 9470 H 891.746 3.66983 -1.5352 0
M  V30 9471 H 888.485 5.02532 -4.20882 0
M  V30 9472 H 888.005 5.43127 -2.54505 0
M  V30 9473 H 889.684 5.68969 -3.08032 0
M  V30 9474 N 889.816 0.795718 1.36037 0
M  V30 9475 C 890.766 0.171437 2.27355 0
M  V30 9476 C 891.75 -0.648346 1.47259 0
M  V30 9477 O 892.942 -0.507386 1.69572 0
M  V30 9478 C 890.071 -0.687876 3.36338 0
M  V30 9479 C 889.157 0.141041 4.23865 0
M  V30 9480 N 889.548 1.19868 4.91391 0
M  V30 9481 C 887.846 -0.0791045 4.4593 0
M  V30 9482 C 888.547 1.70382 5.56188 0
M  V30 9483 N 887.523 1.01202 5.34097 0
M  V30 9484 H 891.325 0.980846 2.7705 0
M  V30 9485 H 888.839 0.635798 1.49437 0
M  V30 9486 H 890.836 -1.15107 4.00694 0
M  V30 9487 H 889.496 -1.49576 2.88196 0
M  V30 9488 H 890.507 1.58119 4.93172 0
M  V30 9489 H 887.184 -0.856993 4.0861 0
M  V30 9490 H 888.574 2.58715 6.20093 0
M  V30 9491 N 891.294 -1.47756 0.548274 0
M  V30 9492 C 892.226 -2.27921 -0.24177 0
M  V30 9493 C 893.239 -1.36471 -0.887658 0
M  V30 9494 O 894.428 -1.6137 -0.763016 0
M  V30 9495 C 891.528 -3.10449 -1.35922 0
M  V30 9496 C 890.701 -4.298 -0.811808 0
M  V30 9497 C 889.76 -4.93994 -1.81264 0
M  V30 9498 O 888.786 -5.52657 -1.3623 0
M  V30 9499 N 889.988 -4.87882 -3.14566 0
M  V30 9500 H 892.753 -2.96365 0.445848 0
M  V30 9501 H 890.314 -1.57286 0.383769 0
M  V30 9502 H 892.306 -3.50261 -2.02729 0
M  V30 9503 H 890.876 -2.44306 -1.95021 0
M  V30 9504 H 890.096 -3.94186 0.0327929 0
M  V30 9505 H 891.384 -5.0702 -0.425272 0
M  V30 9506 H 890.782 -4.41405 -3.53805 0
M  V30 9507 H 889.339 -5.3174 -3.76956 0
M  V30 9508 N 892.772 -0.284283 -1.55015 0
M  V30 9509 C 893.702 0.592663 -2.25853 0
M  V30 9510 C 894.683 1.15151 -1.25197 0
M  V30 9511 O 895.868 1.18395 -1.53936 0
M  V30 9512 C 892.998 1.77254 -2.98661 0
M  V30 9513 C 891.952 1.34482 -4.06323 0
M  V30 9514 C 891.278 2.60853 -4.66754 0
M  V30 9515 C 892.578 0.488288 -5.20013 0
M  V30 9516 H 894.272 0.00187041 -2.994 0
M  V30 9517 H 891.818 -0.000540402 -1.44 0
M  V30 9518 H 893.771 2.39199 -3.46932 0
M  V30 9519 H 892.495 2.38931 -2.22664 0
M  V30 9520 H 891.154 0.748519 -3.58877 0
M  V30 9521 H 890.802 3.20808 -3.87416 0
M  V30 9522 H 890.502 2.32942 -5.39455 0
M  V30 9523 H 892.026 3.23631 -5.1778 0
M  V30 9524 H 893.44 1.01298 -5.6428 0
M  V30 9525 H 891.837 0.303669 -5.99331 0
M  V30 9526 H 892.907 -0.490727 -4.8241 0
M  V30 9527 N 894.251 1.57596 -0.0117121 0
M  V30 9528 C 895.667 1.55837 0.344506 0
M  V30 9529 C 895.867 1.01557 1.74036 0
M  V30 9530 O 894.923 0.654563 2.43868 0
M  V30 9531 C 896.236 2.99973 0.209023 0
M  V30 9532 C 897.784 3.11717 0.283092 0
M  V30 9533 C 898.259 4.57659 0.176599 0
M  V30 9534 N 899.75 4.62608 0.234133 0
M  V30 9535 C 900.485 5.73132 0.175252 0
M  V30 9536 N 899.981 6.92768 0.0662888 0
M  V30 9537 N 901.774 5.61638 0.227972 0
M  V30 9538 H 893.925 1.91215 -0.924692 0
M  V30 9539 H 896.188 0.878807 -0.355531 0
M  V30 9540 H 895.894 3.4357 -0.751826 0
M  V30 9541 H 895.768 3.64075 0.98635 0
M  V30 9542 H 898.155 2.68043 1.23439 0
M  V30 9543 H 898.236 2.50369 -0.52431 0
M  V30 9544 H 897.88 5.02011 -0.771205 0
M  V30 9545 H 897.81 5.16967 1.00264 0
M  V30 9546 H 900.301 3.76549 0.319203 0
M  V30 9547 H 900.614 7.72795 0.0275765 0
M  V30 9548 H 898.959 6.94993 0.0317502 0
M  V30 9549 H 902.15 4.67063 0.311377 0
M  V30 9550 H 902.323 6.47754 0.178621 0
M  V30 9551 N 895.729 -0.261212 1.5542 0
M  V30 9552 C 896.677 -1.34298 1.89913 0
M  V30 9553 C 897.671 -1.50547 0.776665 0
M  V30 9554 O 898.877 -1.52191 0.961139 0
M  V30 9555 H 895.252 -0.4494 0.602946 0
M  V30 9556 H 897.223 -1.02464 2.80256 0
M  V30 9557 C 895.972 -2.69423 2.19788 0
M  V30 9558 H 895.295 -2.57715 3.05652 0
M  V30 9559 H 896.735 -3.44026 2.47835 0
M  V30 9560 C 895.194 -3.21423 1.00939 0
M  V30 9561 O 895.724 -4.00921 0.250034 0
M  V30 9562 N 893.93 -2.7926 0.803883 0
M  V30 9563 H 893.477 -2.14724 1.42308 0
M  V30 9564 H 893.435 -3.14398 0.0103257 0
M  V30 9565 N 897.207 -1.48554 -0.526253 0
M  V30 9566 C 898.437 -1.60197 -1.30463 0
M  V30 9567 C 898.845 -0.26278 -1.87366 0
M  V30 9568 O 898.188 0.758537 -1.67308 0
M  V30 9569 C 898.25 -2.59223 -2.49085 0
M  V30 9570 C 897.914 -4.04199 -2.13241 0
M  V30 9571 C 898.911 -4.91771 -1.68694 0
M  V30 9572 C 896.596 -4.49762 -2.2365 0
M  V30 9573 C 898.59 -6.22934 -1.35026 0
M  V30 9574 C 896.277 -5.80945 -1.89594 0
M  V30 9575 C 897.275 -6.67354 -1.45353 0
M  V30 9576 O 896.963 -7.96096 -1.11745 0
M  V30 9577 H 896.695 -0.54284 -0.402866 0
M  V30 9578 H 899.249 -1.95137 -0.641157 0
M  V30 9579 H 897.479 -2.19412 -3.18426 0
M  V30 9580 H 899.168 -2.60661 -3.11144 0
M  V30 9581 H 899.934 -4.57806 -1.6012 0
M  V30 9582 H 895.813 -3.8269 -2.5704 0
M  V30 9583 H 899.357 -6.90334 -1.00422 0
M  V30 9584 H 895.254 -6.14444 -1.9781 0
M  V30 9585 H 896.022 -8.08882 -1.25111 0
M  V30 9586 N 898.685 0.775411 -1.37205 0
M  V30 9587 C 899.617 1.89761 -1.28544 0
M  V30 9588 C 900.63 1.61542 -0.201996 0
M  V30 9589 O 901.819 1.72528 -0.457848 0
M  V30 9590 C 898.919 3.24904 -0.963885 0
M  V30 9591 C 898.092 3.80796 -2.15205 0
M  V30 9592 C 897.151 4.94407 -1.80135 0
M  V30 9593 O 896.177 5.10185 -2.52388 0
M  V30 9594 N 897.379 5.75722 -0.743298 0
M  V30 9595 H 900.144 1.97708 -2.25237 0
M  V30 9596 H 897.705 0.954348 -1.30782 0
M  V30 9597 H 899.697 3.9842 -0.710182 0
M  V30 9598 H 898.267 3.12483 -0.085632 0
M  V30 9599 H 897.487 2.99101 -2.56773 0
M  V30 9600 H 898.775 4.1487 -2.94552 0
M  V30 9601 H 898.173 5.65518 -0.143655 0
M  V30 9602 H 896.73 6.4948 -0.549446 0
M  V30 9603 N 900.163 1.21714 1.00117 0
M  V30 9604 C 901.126 0.981338 2.07129 0
M  V30 9605 C 902.126 -0.0491116 1.60725 0
M  V30 9606 O 903.316 0.188555 1.73177 0
M  V30 9607 C 900.448 0.480608 3.37495 0
M  V30 9608 H 901.641 1.93075 2.29482 0
M  V30 9609 H 899.194 1.03467 1.17151 0
M  V30 9610 H 899.929 -0.473552 3.20824 0
M  V30 9611 H 899.714 1.22393 3.72508 0
M  V30 9612 H 901.204 0.33561 4.16249 0
M  V30 9613 N 901.641 -1.19671 1.02551 0
M  V30 9614 C 902.866 -1.93774 0.739363 0
M  V30 9615 C 903.291 -1.74787 -0.695064 0
M  V30 9616 O 902.649 -1.04796 -1.47944 0
M  V30 9617 C 902.697 -3.43684 1.09149 0
M  V30 9618 O 901.801 -4.11874 0.208213 0
M  V30 9619 H 901.142 -0.605064 0.273484 0
M  V30 9620 H 903.672 -1.51846 1.37128 0
M  V30 9621 H 903.682 -3.94339 1.04695 0
M  V30 9622 H 902.357 -3.56826 2.13654 0
M  V30 9623 H 900.934 -3.716 0.311045 0
M  V30 9624 N 903.119 -0.802921 -1.35613 0
M  V30 9625 C 904.052 -0.156345 -2.27664 0
M  V30 9626 C 905.03 0.675517 -1.47904 0
M  V30 9627 O 906.214 0.643589 -1.77173 0
M  V30 9628 C 903.341 0.78348 -3.29514 0
M  V30 9629 C 902.387 0.0317062 -4.26488 0
M  V30 9630 S 903.22 -1.30183 -5.19435 0
M  V30 9631 C 904.376 -0.366354 -6.24827 0
M  V30 9632 H 904.609 -0.936803 -2.82155 0
M  V30 9633 H 902.142 -0.597799 -1.42358 0
M  V30 9634 H 904.1 1.32023 -3.8869 0
M  V30 9635 H 902.761 1.53729 -2.73909 0
M  V30 9636 H 901.954 0.745364 -4.98458 0
M  V30 9637 H 901.556 -0.43497 -3.71462 0
M  V30 9638 H 903.848 0.44976 -6.76005 0
M  V30 9639 H 904.791 -1.05513 -7.00195 0
M  V30 9640 H 905.199 0.0363203 -5.64488 0
M  V30 9641 N 904.597 1.47463 -0.556102 0
M  V30 9642 C 905.507 2.33785 0.195378 0
M  V30 9643 C 906.523 1.48123 0.913 0
M  V30 9644 O 907.699 1.81053 0.882141 0
M  V30 9645 C 904.764 3.24795 1.21282 0
M  V30 9646 C 903.825 4.26346 0.502747 0
M  V30 9647 C 903.058 5.13007 1.47172 0
M  V30 9648 O 903.281 5.02103 2.70646 0
M  V30 9649 O 902.215 5.93588 0.996814 0
M  V30 9650 H 906.041 2.99341 -0.512676 0
M  V30 9651 H 903.626 1.46004 -0.31673 0
M  V30 9652 H 905.508 3.81015 1.80016 0
M  V30 9653 H 904.183 2.61868 1.90282 0
M  V30 9654 H 903.09 3.73889 -0.125757 0
M  V30 9655 H 904.423 4.91984 -0.145779 0
M  V30 9656 N 906.075 0.2925 1.54862 0
M  V30 9657 C 907.038 -0.574423 2.21885 0
M  V30 9658 C 908.038 -1.06791 1.20218 0
M  V30 9659 O 909.228 -0.9653 1.45009 0
M  V30 9660 C 906.36 -1.79438 2.89853 0
M  V30 9661 H 907.553 0.0110319 2.99898 0
M  V30 9662 H 905.106 0.043256 1.5624 0
M  V30 9663 H 905.841 -2.4199 2.15897 0
M  V30 9664 H 905.626 -1.44827 3.64373 0
M  V30 9665 H 907.116 -2.41048 3.41007 0
M  V30 9666 N 907.553 -1.57587 0.0200696 0
M  V30 9667 C 908.516 -2.08595 -0.949767 0
M  V30 9668 C 909.516 -0.999215 -1.25985 0
M  V30 9669 O 910.706 -1.26115 -1.2017 0
M  V30 9670 C 907.838 -2.54424 -2.26895 0
M  V30 9671 H 909.031 -2.95563 -0.508161 0
M  V30 9672 H 906.584 -1.54631 -0.227798 0
M  V30 9673 H 907.319 -1.70758 -2.75703 0
M  V30 9674 H 907.104 -3.3381 -2.05702 0
M  V30 9675 H 908.594 -2.94144 -2.96427 0
M  V30 9676 N 909.032 0.252966 -1.55557 0
M  V30 9677 C 910.28 0.979912 -1.76754 0
M  V30 9678 C 910.601 1.86083 -0.582944 0
M  V30 9679 O 909.871 1.91742 0.401497 0
M  V30 9680 H 908.451 0.364805 -0.651864 0
M  V30 9681 H 911.113 0.272372 -1.92987 0
M  V30 9682 H 910.209 1.60518 -2.67657 0
M  V30 9683 N 910.51 1.48831 0.518367 0
M  V30 9684 C 911.759 1.5669 1.27008 0
M  V30 9685 C 912.072 0.250934 1.93984 0
M  V30 9686 O 913.278 0.207884 2.70703 0
M  V30 9687 C 911.734 2.76387 2.30517 0
M  V30 9688 C 911.342 4.14673 1.69559 0
M  V30 9689 C 913.086 2.93566 3.06625 0
M  V30 9690 C 910.993 5.25616 2.71076 0
M  V30 9691 H 909.923 0.583362 0.477708 0
M  V30 9692 H 912.574 1.75187 0.546052 0
M  V30 9693 H 910.956 2.51348 3.06006 0
M  V30 9694 H 912.13 4.49779 1.00179 0
M  V30 9695 H 910.445 4.02708 1.05902 0
M  V30 9696 H 913.042 3.7362 3.82508 0
M  V30 9697 H 913.385 2.03462 3.63193 0
M  V30 9698 H 913.918 3.18562 2.38251 0
M  V30 9699 H 910.657 6.17723 2.19313 0
M  V30 9700 H 910.177 4.94985 3.38748 0
M  V30 9701 H 911.856 5.5422 3.3384 0
M  V30 9702 N 911.988 -0.768124 1.37614 0
M  V30 9703 C 913.399 -1.34462 1.29525 0
M  V30 9704 C 913.75 -1.96121 -0.0555168 0
M  V30 9705 O 912.875 -1.94069 -0.957406 0
M  V30 9706 C 913.47 -2.44475 2.34558 0
M  V30 9707 C 912.029 -2.97883 2.30093 0
M  V30 9708 C 911.176 -1.71131 2.18196 0
M  V30 9709 H 914.127 -0.568103 1.48183 0
M  V30 9710 H 914.148 -3.24047 1.99434 0
M  V30 9711 H 913.66 -1.99568 3.32858 0
M  V30 9712 H 911.761 -3.47156 1.35328 0
M  V30 9713 H 911.874 -3.53251 3.23652 0
M  V30 9714 H 910.238 -1.94197 1.64802 0
M  V30 9715 H 911.021 -1.28323 3.18415 0
M  V30 9716 N 913.466 -1.22244 -0.994698 0
M  V30 9717 C 914.712 -1.04746 -1.73655 0
M  V30 9718 C 915.045 0.41668 -1.89677 0
M  V30 9719 O 914.32 1.30897 -1.43862 0
M  V30 9720 C 914.603 -1.75716 -3.14318 0
M  V30 9721 C 914.456 -3.29714 -3.05955 0
M  V30 9722 C 915.775 -1.50809 -4.13455 0
M  V30 9723 H 912.894 -0.381921 -0.630322 0
M  V30 9724 H 915.536 -1.50559 -1.15897 0
M  V30 9725 H 913.686 -1.3677 -3.63629 0
M  V30 9726 H 915.358 -3.78093 -2.64279 0
M  V30 9727 H 913.601 -3.59484 -2.42804 0
M  V30 9728 H 914.272 -3.74547 -4.05485 0
M  V30 9729 H 916.748 -1.84636 -3.72892 0
M  V30 9730 H 915.624 -2.02964 -5.09997 0
M  V30 9731 H 915.885 -0.440292 -4.39902 0
M  V30 9732 N 914.944 1.19125 -1.03184 0
M  V30 9733 C 916.169 1.93379 -0.749628 0
M  V30 9734 C 916.594 1.75153 0.685785 0
M  V30 9735 O 915.952 1.05579 1.47386 0
M  V30 9736 C 916 3.43101 -1.1097 0
M  V30 9737 O 915.104 4.11758 -0.230053 0
M  V30 9738 H 914.445 0.603605 -0.276689 0
M  V30 9739 H 916.975 1.51116 -1.37931 0
M  V30 9740 H 916.985 3.93778 -1.06785 0
M  V30 9741 H 915.66 3.55688 -2.15544 0
M  V30 9742 H 914.237 3.7143 -0.330748 0
M  V30 9743 N 916.422 0.810101 1.35185 0
M  V30 9744 C 917.669 0.392117 1.98667 0
M  V30 9745 C 917.997 -1.0416 1.64259 0
M  V30 9746 O 917.252 -1.73795 0.899647 0
M  V30 9747 C 917.551 0.526561 3.535 0
M  V30 9748 C 917.217 1.92411 4.07785 0
M  V30 9749 C 915.879 2.30644 4.22323 0
M  V30 9750 C 918.231 2.83827 4.37141 0
M  V30 9751 C 915.559 3.59655 4.63536 0
M  V30 9752 C 917.911 4.12287 4.79794 0
M  V30 9753 C 916.575 4.50515 4.92536 0
M  V30 9754 H 915.845 0.143486 0.726975 0
M  V30 9755 H 918.492 1.03157 1.61341 0
M  V30 9756 H 916.797 -0.19633 3.91308 0
M  V30 9757 H 918.494 0.183871 4.00578 0
M  V30 9758 H 915.084 1.61707 3.96924 0
M  V30 9759 H 919.268 2.55536 4.25459 0
M  V30 9760 H 914.524 3.89117 4.71591 0
M  V30 9761 H 918.698 4.83221 5.01468 0
M  V30 9762 H 916.325 5.50535 5.24229 0
M  V30 9763 N 917.9 -1.47166 0.563914 0
M  V30 9764 C 919.148 -2.02056 0.0422873 0
M  V30 9765 C 919.469 -1.43992 -1.31497 0
M  V30 9766 O 918.739 -0.617578 -1.85911 0
M  V30 9767 H 917.319 -0.746893 0.0126427 0
M  V30 9768 H 919.981 -1.80492 0.735441 0
M  V30 9769 H 919.077 -3.12073 -0.0408044 0
M  V30 9770 N 919.378 -0.300708 -1.54705 0
M  V30 9771 C 920.626 0.308044 -1.99739 0
M  V30 9772 C 920.947 1.54433 -1.19061 0
M  V30 9773 O 920.217 1.93794 -0.286507 0
M  V30 9774 H 918.797 0.116811 -0.73781 0
M  V30 9775 H 921.459 -0.41197 -1.90496 0
M  V30 9776 H 920.555 0.580287 -3.06658 0
M  V30 9777 N 920.856 1.57574 -0.0284266 0
M  V30 9778 C 921.806 2.06674 0.962804 0
M  V30 9779 C 922.79 0.967115 1.28591 0
M  V30 9780 O 923.982 1.23068 1.27214 0
M  V30 9781 C 921.111 2.59682 2.24545 0
M  V30 9782 C 920.197 3.76573 1.95073 0
M  V30 9783 N 920.588 4.8721 1.35869 0
M  V30 9784 C 918.886 3.85046 2.25068 0
M  V30 9785 C 919.587 5.68436 1.23514 0
M  V30 9786 N 918.563 5.15323 1.73041 0
M  V30 9787 H 922.365 2.89615 0.500013 0
M  V30 9788 H 919.879 1.61437 0.176604 0
M  V30 9789 H 921.876 2.93148 2.96428 0
M  V30 9790 H 920.536 1.7817 2.71451 0
M  V30 9791 H 921.547 5.07477 1.03379 0
M  V30 9792 H 918.224 3.14439 2.74653 0
M  V30 9793 H 919.614 6.67387 0.777403 0
M  V30 9794 N 922.334 -0.244713 1.55689 0
M  V30 9795 C 923.75 -0.593331 1.48161 0
M  V30 9796 C 923.95 -1.88234 0.719047 0
M  V30 9797 O 923.006 -2.51266 0.249292 0
M  V30 9798 C 924.319 -0.694032 2.92581 0
M  V30 9799 C 925.867 -0.786213 3.02965 0
M  V30 9800 C 926.342 -0.918457 4.48696 0
M  V30 9801 N 927.833 -0.983272 4.52643 0
M  V30 9802 C 928.568 -1.1049 5.62654 0
M  V30 9803 N 928.064 -1.19193 6.8247 0
M  V30 9804 N 929.857 -1.13823 5.50455 0
M  V30 9805 H 922.008 0.601446 2.03707 0
M  V30 9806 H 924.271 0.207894 0.924924 0
M  V30 9807 H 923.977 0.183133 3.51223 0
M  V30 9808 H 923.851 -1.56525 3.4319 0
M  V30 9809 H 926.238 -1.65383 2.44402 0
M  V30 9810 H 926.319 0.110202 2.55563 0
M  V30 9811 H 925.963 -0.0553881 5.0787 0
M  V30 9812 H 925.893 -1.82994 4.93782 0
M  V30 9813 H 928.384 -0.927269 3.66347 0
M  V30 9814 H 928.697 -1.28387 7.62061 0
M  V30 9815 H 927.042 -1.16147 6.85226 0
M  V30 9816 H 930.233 -1.06673 4.55783 0
M  V30 9817 H 930.406 -1.22957 6.36228 0
M  V30 9818 N 923.813 -1.49104 -0.510467 0
M  V30 9819 C 925.224 -1.51423 -1.09215 0
M  V30 9820 C 925.575 -0.295035 -1.93969 0
M  V30 9821 O 924.7 0.596064 -2.08029 0
M  V30 9822 C 925.295 -2.74387 -1.98739 0
M  V30 9823 C 923.854 -2.79515 -2.52088 0
M  V30 9824 C 923.001 -2.4521 -1.29488 0
M  V30 9825 H 925.952 -1.55938 -0.294807 0
M  V30 9826 H 925.973 -2.54012 -2.83298 0
M  V30 9827 H 925.485 -3.63105 -1.37026 0
M  V30 9828 H 923.586 -1.95054 -3.17466 0
M  V30 9829 H 923.699 -3.81447 -2.89887 0
M  V30 9830 H 922.063 -1.96785 -1.61703 0
M  V30 9831 H 922.846 -3.36192 -0.694978 0
M  V30 9832 N 925.291 0.760815 -1.38019 0
M  V30 9833 C 926.221 1.88811 -1.37377 0
M  V30 9834 C 927.202 1.68388 -0.240737 0
M  V30 9835 O 928.387 1.89086 -0.442739 0
M  V30 9836 C 925.517 3.26244 -1.1909 0
M  V30 9837 C 924.471 3.61254 -2.29521 0
M  V30 9838 C 923.797 4.97346 -1.96345 0
M  V30 9839 C 925.097 3.66874 -3.71753 0
M  V30 9840 H 926.791 1.89606 -2.31711 0
M  V30 9841 H 924.337 0.910818 -1.11535 0
M  V30 9842 H 926.29 4.04755 -1.17267 0
M  V30 9843 H 925.014 3.2591 -0.212152 0
M  V30 9844 H 923.673 2.85057 -2.30517 0
M  V30 9845 H 923.321 4.93564 -0.969728 0
M  V30 9846 H 923.021 5.21739 -2.703 0
M  V30 9847 H 924.545 5.78244 -1.96129 0
M  V30 9848 H 925.959 4.35514 -3.72828 0
M  V30 9849 H 924.356 4.02772 -4.44853 0
M  V30 9850 H 925.426 2.67273 -4.0459 0
M  V30 9851 N 926.769 1.22769 0.988202 0
M  V30 9852 C 927.994 1.08239 1.76915 0
M  V30 9853 C 928.419 -0.362519 1.84574 0
M  V30 9854 O 927.777 -1.26202 1.30165 0
M  V30 9855 C 927.825 1.70363 3.17819 0
M  V30 9856 O 926.929 0.960484 4.01059 0
M  V30 9857 H 926.27 0.379872 0.544604 0
M  V30 9858 H 928.8 1.62663 1.24104 0
M  V30 9859 H 928.81 1.7528 3.6843 0
M  V30 9860 H 927.485 2.75505 3.1156 0
M  V30 9861 H 926.062 0.987667 3.59582 0
M  V30 9862 N 928.247 -1.18576 1.03814 0
M  V30 9863 C 929.663 -1.4051 0.756909 0
M  V30 9864 C 929.863 -1.9057 -0.654631 0
M  V30 9865 O 928.919 -2.0884 -1.41922 0
M  V30 9866 C 930.232 -2.4081 1.80087 0
M  V30 9867 C 931.78 -2.54541 1.82148 0
M  V30 9868 C 932.255 -3.58102 2.85529 0
M  V30 9869 N 933.746 -3.65607 2.84404 0
M  V30 9870 C 934.481 -4.45458 3.61047 0
M  V30 9871 N 933.977 -5.28937 4.47434 0
M  V30 9872 N 935.77 -4.40196 3.49548 0
M  V30 9873 H 927.921 -0.844075 1.94908 0
M  V30 9874 H 930.184 -0.433287 0.843188 0
M  V30 9875 H 929.89 -2.1107 2.81322 0
M  V30 9876 H 929.764 -3.4012 1.63089 0
M  V30 9877 H 932.151 -2.83598 0.815855 0
M  V30 9878 H 932.232 -1.55352 2.03223 0
M  V30 9879 H 931.876 -3.29786 3.86269 0
M  V30 9880 H 931.806 -4.56963 2.6171 0
M  V30 9881 H 934.297 -3.05994 2.21756 0
M  V30 9882 H 934.61 -5.8701 5.02632 0
M  V30 9883 H 932.955 -5.28366 4.51503 0
M  V30 9884 H 936.146 -3.74026 2.81464 0
M  V30 9885 H 936.319 -5.02186 4.09528 0
M  V30 9886 N 929.725 -0.817259 -1.34754 0
M  V30 9887 C 930.688 -0.240611 -2.27934 0
M  V30 9888 C 931.688 0.578219 -1.50044 0
M  V30 9889 O 932.878 0.395148 -1.69659 0
M  V30 9890 C 930.01 0.663318 -3.34384 0
M  V30 9891 H 931.203 -1.06257 -2.80445 0
M  V30 9892 H 928.756 -0.588697 -1.4479 0
M  V30 9893 H 929.491 1.50855 -2.87077 0
M  V30 9894 H 929.276 0.0777388 -3.92023 0
M  V30 9895 H 930.766 1.06076 -4.03903 0
M  V30 9896 N 931.203 1.46865 -0.571711 0
M  V30 9897 C 932.135 2.28277 0.205479 0
M  V30 9898 C 933.148 1.37866 0.865835 0
M  V30 9899 O 934.337 1.62564 0.737247 0
M  V30 9900 C 931.437 3.12572 1.30965 0
M  V30 9901 C 930.61 4.31038 0.743328 0
M  V30 9902 C 929.669 4.96815 1.73382 0
M  V30 9903 O 928.695 5.54755 1.2742 0
M  V30 9904 N 929.897 4.92825 3.06764 0
M  V30 9905 H 932.662 2.95618 -0.49294 0
M  V30 9906 H 930.223 1.56655 -0.408744 0
M  V30 9907 H 932.215 3.53442 1.97131 0
M  V30 9908 H 930.785 2.47378 1.91109 0
M  V30 9909 H 930.005 3.94084 -0.0955004 0
M  V30 9910 H 931.293 5.07632 0.344556 0
M  V30 9911 H 930.691 4.46978 3.46738 0
M  V30 9912 H 929.248 5.3767 3.68449 0
M  V30 9913 N 932.681 0.308908 1.54543 0
M  V30 9914 C 933.906 -0.303196 2.05172 0
M  V30 9915 C 934.331 -1.46133 1.18434 0
M  V30 9916 O 933.689 -1.803 0.190162 0
M  V30 9917 C 933.737 -0.729526 3.53143 0
M  V30 9918 O 932.841 -1.83348 3.69401 0
M  V30 9919 H 932.182 -0.0575066 0.661505 0
M  V30 9920 H 934.712 0.453055 1.99521 0
M  V30 9921 H 934.722 -1.01619 3.95143 0
M  V30 9922 H 933.397 0.117622 4.15734 0
M  V30 9923 H 931.974 -1.54676 3.39308 0
M  V30 9924 N 934.159 -1.57557 0.0367827 0
M  V30 9925 C 935.384 -1.96828 -0.653707 0
M  V30 9926 C 935.809 -0.913559 -1.64425 0
M  V30 9927 O 935.167 0.124749 -1.8087 0
M  V30 9928 C 935.215 -3.35189 -1.32969 0
M  V30 9929 O 934.319 -3.32095 -2.44513 0
M  V30 9930 H 933.66 -0.64157 -0.171124 0
M  V30 9931 H 936.19 -2.04351 0.100912 0
M  V30 9932 H 936.2 -3.71593 -1.68472 0
M  V30 9933 H 934.875 -4.11496 -0.603654 0
M  V30 9934 H 933.452 -3.07418 -2.11065 0
M  V30 9935 N 935.637 0.236453 -1.55816 0
M  V30 9936 C 937.048 0.80468 -1.68469 0
M  V30 9937 C 937.399 1.85601 -0.636133 0
M  V30 9938 O 936.524 2.15323 0.215622 0
M  V30 9939 C 937.119 1.46634 -3.05424 0
M  V30 9940 C 935.678 1.98214 -3.19981 0
M  V30 9941 C 934.825 0.83695 -2.64368 0
M  V30 9942 H 937.776 0.0120647 -1.58695 0
M  V30 9943 H 937.797 2.33472 -3.00451 0
M  V30 9944 H 937.309 0.700931 -3.81718 0
M  V30 9945 H 935.41 2.77604 -2.4853 0
M  V30 9946 H 935.523 2.17235 -4.2702 0
M  V30 9947 H 933.887 1.24028 -2.22462 0
M  V30 9948 H 934.67 0.084451 -3.43196 0
M  V30 9949 N 937.115 1.49373 0.502552 0
M  V30 9950 C 938.078 1.65413 1.58654 0
M  V30 9951 C 939.078 0.526003 1.51953 0
M  V30 9952 O 940.268 0.792421 1.55133 0
M  V30 9953 C 937.4 1.65005 2.98306 0
M  V30 9954 H 938.593 2.62095 1.45762 0
M  V30 9955 H 936.146 1.38381 0.726672 0
M  V30 9956 H 936.881 0.699014 3.16677 0
M  V30 9957 H 936.666 2.46931 3.04578 0
M  V30 9958 H 938.156 1.79477 3.77065 0
M  V30 9959 N 938.594 -0.753485 1.38421 0
M  V30 9960 C 939.819 -1.54783 1.38047 0
M  V30 9961 C 940.244 -1.8808 -0.0276371 0
M  V30 9962 O 939.602 -1.5058 -1.00973 0
M  V30 9963 C 939.65 -2.82353 2.24297 0
M  V30 9964 O 938.754 -3.77509 1.66014 0
M  V30 9965 H 938.095 -0.468151 0.470883 0
M  V30 9966 H 940.625 -0.931144 1.82184 0
M  V30 9967 H 940.635 -3.31277 2.38159 0
M  V30 9968 H 939.31 -2.57449 3.26639 0
M  V30 9969 H 937.887 -3.36212 1.61294 0
M  V30 9970 N 940.072 -1.23292 -0.981677 0
M  V30 9971 C 941.035 -1.01417 -2.05542 0
M  V30 9972 C 942.035 0.0235354 -1.60783 0
M  V30 9973 O 943.225 -0.216082 -1.72855 0
M  V30 9974 C 940.357 -0.534239 -3.36688 0
M  V30 9975 H 941.55 -1.96702 -2.26381 0
M  V30 9976 H 939.103 -1.05318 -1.1549 0
M  V30 9977 H 939.838 0.422452 -3.21537 0
M  V30 9978 H 939.623 -1.28304 -3.70514 0
M  V30 9979 H 941.113 -0.40179 -4.15663 0
M  V30 9980 N 941.55 1.18024 -1.04442 0
M  V30 9981 C 942.778 1.92032 -0.770161 0
M  V30 9982 C 943.193 1.76391 0.673181 0
M  V30 9983 O 942.55 1.09604 1.45922 0
M  V30 9984 C 942.601 3.43328 -1.13173 0
M  V30 9985 O 942.322 3.5848 -2.51841 0
M  V30 9986 C 943.823 4.34427 -0.882523 0
M  V30 9987 H 941.043 0.609518 -0.280586 0
M  V30 9988 H 943.587 1.49711 -1.39308 0
M  V30 9989 H 941.742 3.83423 -0.553704 0
M  V30 9990 H 942.156 4.52166 -2.65794 0
M  V30 9991 H 943.63 5.39123 -1.18533 0
M  V30 9992 H 944.107 4.3882 0.18257 0
M  V30 9993 H 944.713 4.00035 -1.44403 0
M  V30 9994 N 943.028 0.824394 1.34319 0
M  V30 9995 C 944.275 0.413167 1.9824 0
M  V30 9996 C 944.603 -1.02412 1.65354 0
M  V30 9997 O 943.858 -1.72831 0.91803 0
M  V30 9998 C 944.157 0.564024 3.52921 0
M  V30 9999 C 943.823 1.96725 4.05722 0
M  V30 10000 C 942.485 2.35111 4.19853 0
M  V30 10001 C 944.837 2.88447 4.34106 0
M  V30 10002 C 942.165 3.64551 4.59695 0
M  V30 10003 C 944.517 4.17353 4.75394 0
M  V30 10004 C 943.181 4.55714 4.8773 0
M  V30 10005 H 942.451 0.151188 0.725412 0
M  V30 10006 H 945.098 1.04863 1.60238 0
M  V30 10007 H 943.403 -0.154816 3.91494 0
M  V30 10008 H 945.1 0.226347 4.00361 0
M  V30 10009 H 941.69 1.65908 3.95187 0
M  V30 10010 H 945.874 2.60034 4.22725 0
M  V30 10011 H 941.13 3.94097 4.67437 0
M  V30 10012 H 945.304 4.88512 4.96315 0
M  V30 10013 H 942.931 5.56064 5.1836 0
M  V30 10014 N 944.506 -1.46559 0.579492 0
M  V30 10015 C 945.917 -1.8608 0.152052 0
M  V30 10016 C 946.268 -1.48346 -1.28405 0
M  V30 10017 O 945.393 -0.89685 -1.9694 0
M  V30 10018 C 945.988 -3.37729 0.269171 0
M  V30 10019 C 944.547 -3.76258 -0.103376 0
M  V30 10020 C 943.694 -2.70584 0.60659 0
M  V30 10021 H 946.645 -1.3776 0.787904 0
M  V30 10022 H 946.666 -3.77116 -0.506339 0
M  V30 10023 H 946.178 -3.65162 1.31448 0
M  V30 10024 H 944.279 -3.54443 -1.14895 0
M  V30 10025 H 944.392 -4.78335 0.270701 0
M  V30 10026 H 942.756 -2.54656 0.0471984 0
M  V30 10027 H 943.539 -3.00856 1.65349 0
M  V30 10028 N 945.984 -0.3171 -1.54377 0
M  V30 10029 C 947.23 0.287836 -2.00747 0
M  V30 10030 C 947.563 1.52292 -1.20502 0
M  V30 10031 O 946.838 1.92391 -0.285626 0
M  V30 10032 C 947.121 0.628423 -3.54574 0
M  V30 10033 C 946.974 -0.616922 -4.45549 0
M  V30 10034 C 948.293 1.44862 -4.15575 0
M  V30 10035 H 945.412 0.103144 -0.729747 0
M  V30 10036 H 948.054 -0.432396 -1.85014 0
M  V30 10037 H 946.204 1.24203 -3.68111 0
M  V30 10038 H 947.876 -1.25526 -4.43893 0
M  V30 10039 H 946.119 -1.24706 -4.15489 0
M  V30 10040 H 946.79 -0.334243 -5.50987 0
M  V30 10041 H 949.266 0.930015 -4.05574 0
M  V30 10042 H 948.142 1.6557 -5.23333 0
M  V30 10043 H 948.403 2.44279 -3.68484 0
M  V30 10044 N 947.462 1.57535 -0.0451378 0
M  V30 10045 C 948.687 1.97172 0.64326 0
M  V30 10046 C 949.112 0.922266 1.63939 0
M  V30 10047 O 948.47 -0.115155 1.80934 0
M  V30 10048 C 948.518 3.35889 1.3119 0
M  V30 10049 O 947.622 3.33387 2.42748 0
M  V30 10050 H 946.963 0.642469 0.167719 0
M  V30 10051 H 949.493 2.04295 -0.111747 0
M  V30 10052 H 949.503 3.72481 1.66499 0
M  V30 10053 H 948.178 4.1181 0.581823 0
M  V30 10054 H 946.755 3.08533 2.09432 0
M  V30 10055 N 948.94 -0.228186 1.55939 0
M  V30 10056 C 950.186 -0.954964 1.78909 0
M  V30 10057 C 950.519 -1.8425 0.613648 0
M  V30 10058 O 949.794 -1.90604 -0.38737 0
M  V30 10059 C 950.077 -1.79957 3.1191 0
M  V30 10060 C 949.93 -0.938968 4.3989 0
M  V30 10061 C 951.249 -2.77859 3.41295 0
M  V30 10062 H 948.368 -0.345745 0.650868 0
M  V30 10063 H 951.01 -0.224244 1.88672 0
M  V30 10064 H 949.16 -2.42256 3.03717 0
M  V30 10065 H 950.832 -0.333225 4.60095 0
M  V30 10066 H 949.075 -0.244096 4.33113 0
M  V30 10067 H 949.746 -1.56416 5.29375 0
M  V30 10068 H 952.222 -2.25695 3.49572 0
M  V30 10069 H 951.098 -3.34062 4.35538 0
M  V30 10070 H 951.359 -3.55266 2.63132 0
M  V30 10071 N 950.418 -1.49637 -0.494624 0
M  V30 10072 C 951.35 -1.62902 -1.61231 0
M  V30 10073 C 952.363 -0.511425 -1.54558 0
M  V30 10074 O 953.552 -0.783724 -1.60375 0
M  V30 10075 C 950.652 -1.57564 -3.00045 0
M  V30 10076 C 949.825 -2.84964 -3.31835 0
M  V30 10077 C 948.884 -2.72591 -4.5009 0
M  V30 10078 O 947.91 -3.46532 -4.51558 0
M  V30 10079 N 949.112 -1.84563 -5.50379 0
M  V30 10080 H 951.877 -2.59301 -1.50276 0
M  V30 10081 H 949.438 -1.46806 -0.68262 0
M  V30 10082 H 951.43 -1.46932 -3.77085 0
M  V30 10083 H 950 -0.689974 -3.0489 0
M  V30 10084 H 949.22 -3.099 -2.4363 0
M  V30 10085 H 950.508 -3.69412 -3.49875 0
M  V30 10086 H 949.906 -1.23758 -5.51997 0
M  V30 10087 H 948.463 -1.79849 -6.26496 0
M  V30 10088 N 951.896 0.746133 -1.38819 0
M  V30 10089 C 952.806 1.89063 -1.38897 0
M  V30 10090 C 953.822 1.71648 -0.28513 0
M  V30 10091 O 954.998 1.94443 -0.524783 0
M  V30 10092 C 952.063 3.24523 -1.22007 0
M  V30 10093 C 951.124 3.54411 -2.42263 0
M  V30 10094 C 950.357 4.83408 -2.26169 0
M  V30 10095 O 950.58 5.56325 -1.25931 0
M  V30 10096 O 949.514 5.12943 -3.14918 0
M  V30 10097 H 953.34 1.91951 -2.35347 0
M  V30 10098 H 950.925 0.892433 -1.19816 0
M  V30 10099 H 952.807 4.05496 -1.14677 0
M  V30 10100 H 951.482 3.2243 -0.286455 0
M  V30 10101 H 950.389 2.73569 -2.55168 0
M  V30 10102 H 951.722 3.61273 -3.3428 0
M  V30 10103 N 953.375 1.23811 0.975125 0
M  V30 10104 C 954.786 1.0675 1.53171 0
M  V30 10105 C 955.137 -0.363475 1.92804 0
M  V30 10106 O 954.262 -1.25089 1.76583 0
M  V30 10107 C 954.857 1.93161 2.78342 0
M  V30 10108 C 953.416 1.80346 3.30382 0
M  V30 10109 C 952.563 1.88544 2.03338 0
M  V30 10110 H 955.514 1.37396 0.79423 0
M  V30 10111 H 955.535 1.45951 3.51395 0
M  V30 10112 H 955.047 2.97302 2.49465 0
M  V30 10113 H 953.148 0.790077 3.64127 0
M  V30 10114 H 953.261 2.64026 3.99784 0
M  V30 10115 H 951.625 1.32186 2.17713 0
M  V30 10116 H 952.408 2.94252 1.76836 0
M  V30 10117 N 954.853 -1.17469 1.05066 0
M  V30 10118 C 956.264 -1.69334 0.786304 0
M  V30 10119 C 956.615 -1.83604 -0.691671 0
M  V30 10120 O 955.74 -1.52269 -1.53763 0
M  V30 10121 C 956.335 -3.07572 1.42074 0
M  V30 10122 C 954.894 -3.56609 1.20446 0
M  V30 10123 C 954.041 -2.329 1.50508 0
M  V30 10124 H 956.992 -1.02003 1.21577 0
M  V30 10125 H 957.013 -3.71352 0.829334 0
M  V30 10126 H 956.525 -2.97154 2.49642 0
M  V30 10127 H 954.626 -3.72306 0.147968 0
M  V30 10128 H 954.739 -4.39446 1.90852 0
M  V30 10129 H 953.103 -2.37305 0.925124 0
M  V30 10130 H 953.886 -2.25093 2.59207 0
M  V30 10131 N 956.331 -0.831506 -1.3388 0
M  V30 10132 C 957.559 -0.436925 -2.02234 0
M  V30 10133 C 957.974 0.959689 -1.6259 0
M  V30 10134 O 957.331 1.62248 -0.835576 0
M  V30 10135 C 957.382 -0.539429 -3.57453 0
M  V30 10136 O 957.103 -1.88101 -3.95664 0
M  V30 10137 C 958.604 -0.140852 -4.43076 0
M  V30 10138 H 955.824 -0.174302 -0.647966 0
M  V30 10139 H 958.368 -1.12204 -1.70969 0
M  V30 10140 H 956.523 0.0976959 -3.87277 0
M  V30 10141 H 956.937 -1.86131 -4.90363 0
M  V30 10142 H 958.411 -0.26364 -5.5137 0
M  V30 10143 H 958.888 0.916505 -4.29531 0
M  V30 10144 H 959.494 -0.752117 -4.18597 0
M  V30 10145 N 957.809 1.4625 -0.587256 0
M  V30 10146 C 958.756 2.30354 0.143384 0
M  V30 10147 C 959.726 1.40891 0.879716 0
M  V30 10148 O 960.911 1.69837 0.869486 0
M  V30 10149 C 958.051 3.25441 1.14815 0
M  V30 10150 C 957.164 4.30004 0.414792 0
M  V30 10151 C 956.299 5.12214 1.40748 0
M  V30 10152 C 955.338 6.08523 0.660786 0
M  V30 10153 N 954.475 6.83585 1.60176 0
M  V30 10154 H 959.315 2.92304 -0.579866 0
M  V30 10155 H 956.852 1.44055 -0.29777 0
M  V30 10156 H 958.81 3.79018 1.7436 0
M  V30 10157 H 957.44 2.6529 1.83906 0
M  V30 10158 H 956.492 3.79248 -0.295787 0
M  V30 10159 H 957.804 4.98515 -0.168738 0
M  V30 10160 H 956.958 5.70091 2.0756 0
M  V30 10161 H 955.697 4.43675 2.02494 0
M  V30 10162 H 954.702 5.49796 -0.0210864 0
M  V30 10163 H 955.927 6.79083 0.0486551 0
M  V30 10164 H 953.873 6.17752 2.20724 0
M  V30 10165 H 953.79 7.48373 1.07115 0
M  V30 10166 H 955.058 7.46016 2.26009 0
M  V30 10167 N 959.287 0.325282 1.54207 0
M  V30 10168 C 960.698 -0.162426 1.85992 0
M  V30 10169 C 961.049 -1.51482 1.2469 0
M  V30 10170 O 960.174 -2.092 0.553578 0
M  V30 10171 C 960.769 -0.3015 3.37456 0
M  V30 10172 C 959.328 -0.73343 3.69185 0
M  V30 10173 C 958.475 0.143831 2.76927 0
M  V30 10174 H 961.426 0.545508 1.4903 0
M  V30 10175 H 961.447 -1.13212 3.63268 0
M  V30 10176 H 960.959 0.682942 3.82044 0
M  V30 10177 H 959.06 -1.72755 3.30131 0
M  V30 10178 H 959.173 -0.535987 4.76092 0
M  V30 10179 H 957.537 -0.380892 2.51836 0
M  V30 10180 H 958.32 1.12507 3.24341 0
M  V30 10181 N 960.765 -1.57509 0.0534917 0
M  V30 10182 C 962.181 -1.56696 -0.303067 0
M  V30 10183 C 962.381 -1.06135 -1.71282 0
M  V30 10184 O 961.437 -0.71899 -2.42047 0
M  V30 10185 C 962.75 -3.00421 -0.129418 0
M  V30 10186 C 964.298 -3.12358 -0.200346 0
M  V30 10187 C 964.773 -4.57967 -0.0551971 0
M  V30 10188 N 966.264 -4.63066 -0.111398 0
M  V30 10189 C 966.999 -5.73395 -0.0232344 0
M  V30 10190 N 966.495 -6.92701 0.11741 0
M  V30 10191 N 968.288 -5.62045 -0.078984 0
M  V30 10192 H 960.439 -1.88696 0.975064 0
M  V30 10193 H 962.702 -0.869072 0.378706 0
M  V30 10194 H 962.408 -3.41456 0.842653 0
M  V30 10195 H 962.282 -3.66563 -0.889476 0
M  V30 10196 H 964.669 -2.71221 -1.16289 0
M  V30 10197 H 964.75 -2.48891 0.590506 0
M  V30 10198 H 964.394 -4.9979 0.904034 0
M  V30 10199 H 964.324 -5.19443 -0.865223 0
M  V30 10200 H 966.815 -3.77263 -0.219256 0
M  V30 10201 H 967.128 -7.72597 0.177326 0
M  V30 10202 H 965.473 -6.94833 0.152526 0
M  V30 10203 H 968.664 -4.67725 -0.187434 0
M  V30 10204 H 968.837 -6.48 -0.00681731 0
M  V30 10205 N 962.243 0.219913 -1.56058 0
M  V30 10206 C 963.49 0.944064 -1.79147 0
M  V30 10207 C 963.818 1.84268 -0.622531 0
M  V30 10208 O 963.073 1.91713 0.393013 0
M  V30 10209 C 963.372 1.81293 -3.08006 0
M  V30 10210 C 963.038 1.0674 -4.38084 0
M  V30 10211 C 961.7 0.86147 -4.73426 0
M  V30 10212 C 964.052 0.541049 -5.18384 0
M  V30 10213 C 961.38 0.117307 -5.86583 0
M  V30 10214 C 963.732 -0.189779 -6.32315 0
M  V30 10215 C 962.396 -0.406951 -6.66258 0
M  V30 10216 H 961.666 0.345458 -0.655546 0
M  V30 10217 H 964.313 0.212121 -1.90322 0
M  V30 10218 H 962.618 2.61278 -2.9196 0
M  V30 10219 H 964.315 2.3754 -3.23072 0
M  V30 10220 H 960.905 1.23789 -4.10334 0
M  V30 10221 H 965.089 0.687617 -4.91514 0
M  V30 10222 H 960.345 -0.0611651 -6.11369 0
M  V30 10223 H 964.519 -0.605134 -6.93766 0
M  V30 10224 H 962.146 -0.985511 -7.53785 0
M  V30 10225 N 963.721 1.49897 0.486681 0
M  V30 10226 C 964.949 1.63837 1.26353 0
M  V30 10227 C 965.364 0.315428 1.86146 0
M  V30 10228 O 964.721 -0.700831 1.68507 0
M  V30 10229 C 964.772 2.71792 2.38351 0
M  V30 10230 O 964.493 3.98956 1.81013 0
M  V30 10231 C 965.994 2.96566 3.2949 0
M  V30 10232 H 963.214 0.551158 0.382709 0
M  V30 10233 H 965.758 1.96023 0.582694 0
M  V30 10234 H 963.913 2.42344 3.02238 0
M  V30 10235 H 964.327 4.58536 2.54647 0
M  V30 10236 H 965.801 3.75803 4.04322 0
M  V30 10237 H 966.278 2.07031 3.87343 0
M  V30 10238 H 966.884 3.27485 2.71355 0
M  V30 10239 N 965.199 -0.738761 1.39212 0
M  V30 10240 C 966.427 -1.52801 1.39497 0
M  V30 10241 C 966.842 -1.88797 -0.0114917 0
M  V30 10242 O 966.199 -1.53835 -0.981887 0
M  V30 10243 C 966.25 -2.81793 2.2644 0
M  V30 10244 O 965.971 -2.47328 3.61608 0
M  V30 10245 C 967.472 -3.75844 2.35067 0
M  V30 10246 H 964.692 -0.472322 0.476606 0
M  V30 10247 H 967.236 -0.913153 1.8298 0
M  V30 10248 H 965.391 -3.3962 1.8638 0
M  V30 10249 H 965.805 -3.30162 4.07545 0
M  V30 10250 H 967.279 -4.6326 3.00157 0
M  V30 10251 H 967.756 -4.17329 1.3687 0
M  V30 10252 H 968.362 -3.23937 2.75581 0
M  V30 10253 N 966.677 -1.24326 -0.968545 0
M  V30 10254 C 967.925 -1.08032 -1.70803 0
M  V30 10255 C 968.246 0.381728 -1.91227 0
M  V30 10256 O 967.516 1.27253 -1.48942 0
M  V30 10257 H 966.096 -0.396777 -0.632912 0
M  V30 10258 H 968.758 -1.56232 -1.16523 0
M  V30 10259 H 967.854 -1.57769 -2.69287 0
M  V30 10260 N 968.156 1.1691 -1.05688 0
M  V30 10261 C 969.086 2.23275 -0.683402 0
M  V30 10262 C 970.067 1.6704 0.321206 0
M  V30 10263 O 971.252 1.93191 0.197691 0
M  V30 10264 C 968.382 3.47244 -0.0626006 0
M  V30 10265 C 967.336 4.16333 -0.992513 0
M  V30 10266 C 966.662 5.34182 -0.23533 0
M  V30 10267 C 967.962 4.68002 -2.31886 0
M  V30 10268 H 969.656 2.54771 -1.57264 0
M  V30 10269 H 967.202 1.2246 -0.757606 0
M  V30 10270 H 969.155 4.20874 0.210503 0
M  V30 10271 H 967.879 3.1503 0.861616 0
M  V30 10272 H 966.538 3.44622 -1.25026 0
M  V30 10273 H 966.186 4.9822 0.69181 0
M  V30 10274 H 965.886 5.81346 -0.855002 0
M  V30 10275 H 967.41 6.10592 0.0303717 0
M  V30 10276 H 968.824 5.33244 -2.10531 0
M  V30 10277 H 967.221 5.25764 -2.89296 0
M  V30 10278 H 968.291 3.84541 -2.95391 0
M  V30 10279 N 969.634 0.838594 1.33437 0
M  V30 10280 C 970.88 0.434813 1.98084 0
M  V30 10281 C 971.213 -1.00331 1.66275 0
M  V30 10282 O 970.488 -1.70139 0.942501 0
M  V30 10283 C 970.771 0.655602 3.54082 0
M  V30 10284 C 970.624 2.14097 3.95578 0
M  V30 10285 C 971.943 0.101576 4.39983 0
M  V30 10286 H 969.062 0.159456 0.719544 0
M  V30 10287 H 971.704 1.05406 1.58081 0
M  V30 10288 H 969.854 0.128501 3.88287 0
M  V30 10289 H 971.526 2.73292 3.71631 0
M  V30 10290 H 969.769 2.62558 3.4532 0
M  V30 10291 H 970.44 2.24621 5.04231 0
M  V30 10292 H 972.916 0.552122 4.12421 0
M  V30 10293 H 971.792 0.28575 5.48156 0
M  V30 10294 H 972.053 -0.994616 4.30767 0
M  V30 10295 N 971.112 -1.45937 0.595003 0
M  V30 10296 C 972.342 -2.06399 0.0911607 0
M  V30 10297 C 972.75 -1.44236 -1.22444 0
M  V30 10298 O 972.093 -0.546265 -1.7539 0
M  V30 10299 C 972.155 -3.59242 -0.136079 0
M  V30 10300 C 971.819 -4.43668 1.09579 0
M  V30 10301 C 972.816 -4.79437 2.01088 0
M  V30 10302 C 970.501 -4.84616 1.32109 0
M  V30 10303 C 972.495 -5.54995 3.13464 0
M  V30 10304 C 970.182 -5.5993 2.44788 0
M  V30 10305 C 971.18 -5.95035 3.35294 0
M  V30 10306 O 970.868 -6.68825 4.46014 0
M  V30 10307 H 970.6 -0.673316 0.0601779 0
M  V30 10308 H 973.154 -1.88365 0.819005 0
M  V30 10309 H 971.384 -3.75629 -0.918676 0
M  V30 10310 H 973.073 -4.0159 -0.589954 0
M  V30 10311 H 973.839 -4.48371 1.84902 0
M  V30 10312 H 969.718 -4.56735 0.625662 0
M  V30 10313 H 973.262 -5.82314 3.84131 0
M  V30 10314 H 969.159 -5.90411 2.60931 0
M  V30 10315 H 969.927 -6.87262 4.44537 0
M  V30 10316 N 972.59 -0.333456 -1.54032 0
M  V30 10317 C 973.867 0.320902 -1.9295 0
M  V30 10318 C 974.247 1.69071 -1.26405 0
M  V30 10319 O 973.595 2.24768 -0.411311 0
M  V30 10320 C 973.805 0.403257 -3.46662 0
M  V30 10321 C 975.153 0.658875 -4.19457 0
M  V30 10322 O 976.177 0.485781 -3.52872 0
M  V30 10323 O 975.036 0.993475 -5.37394 0
M  V30 10324 H 972.13 0.185158 -0.806006 0
M  V30 10325 H 974.676 -0.383895 -1.65301 0
M  V30 10326 H 973.448 -0.558409 -3.87295 0
M  V30 10327 H 973.071 1.15524 -3.80447 0
M  V30 10328 N 974.068 1.57479 -0.061844 0
M  V30 10329 C 975.296 1.97429 0.618837 0
M  V30 10330 C 975.711 0.939826 1.63746 0
M  V30 10331 O 975.068 -0.0747173 1.82347 0
M  V30 10332 C 975.119 3.3746 1.29628 0
M  V30 10333 O 974.84 4.36941 0.318431 0
M  V30 10334 C 976.341 3.92228 2.06572 0
M  V30 10335 H 973.561 0.649513 0.168444 0
M  V30 10336 H 976.105 2.04078 -0.131303 0
M  V30 10337 H 974.26 3.31928 1.99757 0
M  V30 10338 H 974.674 5.18313 0.803239 0
M  V30 10339 H 976.148 4.92458 2.49377 0
M  V30 10340 H 976.625 3.28231 2.91824 0
M  V30 10341 H 977.231 4.01131 1.4133 0
M  V30 10342 N 975.546 -0.211634 1.56173 0
M  V30 10343 C 976.476 -1.26533 1.96244 0
M  V30 10344 C 977.457 -1.48362 0.832028 0
M  V30 10345 O 978.642 -1.60378 1.0951 0
M  V30 10346 C 975.772 -2.61307 2.2877 0
M  V30 10347 C 974.726 -2.54119 3.44395 0
M  V30 10348 C 974.052 -3.93014 3.62552 0
M  V30 10349 C 975.352 -2.08046 4.79076 0
M  V30 10350 H 977.046 -0.932407 2.84511 0
M  V30 10351 H 974.592 -0.447084 1.36884 0
M  V30 10352 H 976.545 -3.35188 2.55396 0
M  V30 10353 H 975.269 -2.96307 1.37367 0
M  V30 10354 H 973.928 -1.82694 3.17834 0
M  V30 10355 H 973.576 -4.25338 2.68508 0
M  V30 10356 H 973.276 -3.89083 4.40327 0
M  V30 10357 H 974.8 -4.68542 3.91537 0
M  V30 10358 H 976.214 -2.71676 5.04842 0
M  V30 10359 H 974.611 -2.15154 5.60204 0
M  V30 10360 H 975.681 -1.03306 4.73768 0
M  V30 10361 N 977.024 -1.50153 -0.478725 0
M  V30 10362 C 977.957 -1.63089 -1.59616 0
M  V30 10363 C 978.935 -0.479211 -1.55378 0
M  V30 10364 O 980.119 -0.697715 -1.75112 0
M  V30 10365 C 977.246 -1.60643 -2.9818 0
M  V30 10366 C 976.292 -2.81279 -3.206 0
M  V30 10367 S 977.125 -4.42681 -3.0132 0
M  V30 10368 C 978.281 -4.42915 -4.42241 0
M  V30 10369 H 978.514 -2.57612 -1.48402 0
M  V30 10370 H 976.047 -1.39321 -0.665513 0
M  V30 10371 H 978.005 -1.59917 -3.7807 0
M  V30 10372 H 976.666 -0.673684 -3.0679 0
M  V30 10373 H 975.859 -2.7585 -4.21809 0
M  V30 10374 H 975.461 -2.79533 -2.4847 0
M  V30 10375 H 977.753 -4.16007 -5.34737 0
M  V30 10376 H 978.696 -5.44477 -4.52715 0
M  V30 10377 H 979.104 -3.72715 -4.23962 0
M  V30 10378 N 978.502 0.731368 -1.39602 0
M  V30 10379 C 979.432 1.85855 -1.41351 0
M  V30 10380 C 980.413 1.67839 -0.2764 0
M  V30 10381 O 981.598 1.88104 -0.482747 0
M  V30 10382 C 978.728 3.23644 -1.25983 0
M  V30 10383 C 977.682 3.56304 -2.37132 0
M  V30 10384 C 977.008 4.93069 -2.0685 0
M  V30 10385 C 978.308 3.58906 -3.79452 0
M  V30 10386 H 980.002 1.84648 -2.3568 0
M  V30 10387 H 977.548 0.886955 -1.13442 0
M  V30 10388 H 979.501 4.02176 -1.25826 0
M  V30 10389 H 978.225 3.25387 -0.281234 0
M  V30 10390 H 976.884 2.80104 -2.36511 0
M  V30 10391 H 976.532 4.91396 -1.0742 0
M  V30 10392 H 976.232 5.15888 -2.81306 0
M  V30 10393 H 977.756 5.73953 -2.0835 0
M  V30 10394 H 979.17 4.27508 -3.81982 0
M  V30 10395 H 977.567 3.93246 -4.53297 0
M  V30 10396 H 978.637 2.58631 -4.10168 0
M  V30 10397 N 979.98 1.24838 0.961938 0
M  V30 10398 C 980.927 1.04582 2.05745 0
M  V30 10399 C 981.897 -0.0427281 1.66045 0
M  V30 10400 O 983.082 0.113026 1.90465 0
M  V30 10401 C 980.222 0.66284 3.38675 0
M  V30 10402 C 979.335 1.82548 3.91536 0
M  V30 10403 C 978.47 1.38753 5.12758 0
M  V30 10404 C 977.509 2.51976 5.5783 0
M  V30 10405 N 976.646 2.09009 6.70268 0
M  V30 10406 H 981.486 1.98343 2.22405 0
M  V30 10407 H 979.023 0.987822 1.08998 0
M  V30 10408 H 980.981 0.421788 4.15062 0
M  V30 10409 H 979.611 -0.237776 3.21923 0
M  V30 10410 H 978.663 2.18004 3.11735 0
M  V30 10411 H 979.975 2.67601 4.20941 0
M  V30 10412 H 979.129 1.1057 5.96539 0
M  V30 10413 H 977.868 0.507618 4.85051 0
M  V30 10414 H 976.873 2.80912 4.72619 0
M  V30 10415 H 978.098 3.40534 5.87549 0
M  V30 10416 H 976.044 1.23423 6.44285 0
M  V30 10417 H 975.961 2.87613 6.99153 0
M  V30 10418 H 977.229 1.83981 7.57477 0
M  V30 10419 N 981.458 -1.16348 1.06306 0
M  V30 10420 C 982.408 -2.18717 0.643947 0
M  V30 10421 C 983.392 -1.57574 -0.325445 0
M  V30 10422 O 984.584 -1.76439 -0.140868 0
M  V30 10423 C 981.713 -3.43285 0.0320266 0
M  V30 10424 C 980.799 -4.11504 1.02592 0
M  V30 10425 N 981.19 -4.55374 2.20155 0
M  V30 10426 C 979.488 -4.37691 0.856887 0
M  V30 10427 C 980.189 -5.08149 2.83124 0
M  V30 10428 N 979.165 -5.01042 2.10851 0
M  V30 10429 H 982.967 -2.50353 1.53951 0
M  V30 10430 H 980.481 -1.328 0.934763 0
M  V30 10431 H 982.478 -4.15917 -0.286064 0
M  V30 10432 H 981.138 -3.13137 -0.858786 0
M  V30 10433 H 982.149 -4.49101 2.57931 0
M  V30 10434 H 978.826 -4.17496 0.0180742 0
M  V30 10435 H 980.216 -5.52131 3.82885 0
M  V30 10436 N 982.937 -0.845659 -1.3299 0
M  V30 10437 C 983.869 -0.241097 -2.27928 0
M  V30 10438 C 984.882 0.582048 -1.5204 0
M  V30 10439 O 986.071 0.408008 -1.73774 0
M  V30 10440 C 983.171 0.678652 -3.32035 0
M  V30 10441 C 982.344 -0.106652 -4.3727 0
M  V30 10442 C 981.403 0.737478 -5.21006 0
M  V30 10443 O 980.429 0.174231 -5.68933 0
M  V30 10444 N 981.631 2.05372 -5.42957 0
M  V30 10445 H 984.396 -1.05685 -2.80448 0
M  V30 10446 H 981.957 -0.704771 -1.45755 0
M  V30 10447 H 983.949 1.24849 -3.84961 0
M  V30 10448 H 982.519 1.3951 -2.79742 0
M  V30 10449 H 981.739 -0.857897 -3.84752 0
M  V30 10450 H 983.027 -0.646386 -5.04677 0
M  V30 10451 H 982.425 2.53478 -5.05733 0
M  V30 10452 H 980.982 2.5719 -5.98913 0
M  V30 10453 N 984.415 1.45619 -0.602734 0
M  V30 10454 C 985.655 2.0416 -0.0989764 0
M  V30 10455 C 986.019 1.4616 1.24504 0
M  V30 10456 O 987.22 1.96025 1.83923 0
M  V30 10457 C 985.491 3.57357 -0.0551869 0
M  V30 10458 S 987.05 4.3708 0.388086 0
M  V30 10459 H 983.868 0.709431 -0.0472054 0
M  V30 10460 H 986.47 1.78394 -0.799745 0
M  V30 10461 H 985.174 3.97083 -1.03697 0
M  V30 10462 H 984.705 3.87692 0.667727 0
M  V30 10463 H 986.72 4.68362 1.63865 0
M  V30 10464 N 985.893 0.34162 1.53853 0
M  V30 10465 C 987.121 -0.256929 2.05299 0
M  V30 10466 C 987.536 -1.44366 1.21671 0
M  V30 10467 O 986.893 -1.80758 0.251584 0
M  V30 10468 C 986.944 -0.673854 3.55164 0
M  V30 10469 O 986.665 0.465687 4.35618 0
M  V30 10470 C 988.166 -1.33332 4.22773 0
M  V30 10471 H 985.386 -0.0499445 0.669139 0
M  V30 10472 H 987.93 0.493048 1.98467 0
M  V30 10473 H 986.085 -1.37378 3.62224 0
M  V30 10474 H 986.499 0.133723 5.2433 0
M  V30 10475 H 987.973 -1.57582 5.29029 0
M  V30 10476 H 988.45 -2.28628 3.75001 0
M  V30 10477 H 989.056 -0.675489 4.19901 0
M  V30 10478 N 987.371 -1.57444 0.0701946 0
M  V30 10479 C 988.611 -1.95304 -0.60296 0
M  V30 10480 C 988.975 -0.949592 -1.66873 0
M  V30 10481 O 990.176 -1.2158 -2.39733 0
M  V30 10482 C 988.447 -3.37831 -1.16639 0
M  V30 10483 S 990.006 -3.97667 -1.8549 0
M  V30 10484 H 986.824 -0.683026 -0.197476 0
M  V30 10485 H 989.426 -1.94971 0.143669 0
M  V30 10486 H 988.13 -4.08648 -0.378856 0
M  V30 10487 H 987.661 -3.41704 -1.94942 0
M  V30 10488 H 989.676 -3.84441 -3.13719 0
M  V30 10489 N 988.849 0.203349 -1.56283 0
M  V30 10490 C 990.097 0.923183 -1.79782 0
M  V30 10491 C 990.418 1.84134 -0.64185 0
M  V30 10492 O 989.688 1.92922 0.340292 0
M  V30 10493 H 988.268 0.343881 -0.66314 0
M  V30 10494 H 990.93 0.210837 -1.93756 0
M  V30 10495 H 990.026 1.51921 -2.72629 0
M  V30 10496 N 990.327 1.50405 0.470755 0
M  V30 10497 C 991.552 1.65442 1.25075 0
M  V30 10498 C 991.977 0.337612 1.85045 0
M  V30 10499 O 991.335 -0.698555 1.67302 0
M  V30 10500 C 991.383 2.74793 2.33498 0
M  V30 10501 O 990.487 2.36069 3.3815 0
M  V30 10502 H 989.828 0.552728 0.367951 0
M  V30 10503 H 992.358 1.96782 0.560177 0
M  V30 10504 H 992.368 2.97879 2.78804 0
M  V30 10505 H 991.043 3.70363 1.8922 0
M  V30 10506 H 989.62 2.2343 2.98552 0
M  V30 10507 N 991.805 -0.723954 1.39988 0
M  V30 10508 C 993.03 -1.5182 1.41299 0
M  V30 10509 C 993.455 -1.88096 0.0122636 0
M  V30 10510 O 992.813 -1.52687 -0.977559 0
M  V30 10511 C 992.861 -2.77532 2.30235 0
M  V30 10512 O 991.965 -3.73903 1.73984 0
M  V30 10513 H 991.306 -0.458058 0.480707 0
M  V30 10514 H 993.836 -0.892291 1.84118 0
M  V30 10515 H 993.846 -3.2615 2.45132 0
M  V30 10516 H 992.521 -2.50462 3.32026 0
M  V30 10517 H 991.098 -3.32715 1.68389 0
M  V30 10518 N 993.283 -1.25346 -0.955304 0
M  V30 10519 C 994.508 -1.12892 -1.73983 0
M  V30 10520 C 994.933 0.313455 -1.8547 0
M  V30 10521 O 994.291 1.22706 -1.33465 0
M  V30 10522 C 994.339 -1.78729 -3.1319 0
M  V30 10523 O 993.443 -1.06648 -3.98372 0
M  V30 10524 H 992.784 -0.394178 -0.534341 0
M  V30 10525 H 995.314 -1.65897 -1.19747 0
M  V30 10526 H 995.324 -1.84987 -3.63653 0
M  V30 10527 H 993.999 -2.83669 -3.04146 0
M  V30 10528 H 992.576 -1.08266 -3.56837 0
M  V30 10529 N 994.761 1.15782 -1.06922 0
M  V30 10530 C 995.986 1.90896 -0.810771 0
M  V30 10531 C 996.411 1.77246 0.629714 0
M  V30 10532 O 995.769 1.10215 1.43953 0
M  V30 10533 C 995.817 3.39397 -1.21829 0
M  V30 10534 O 994.921 4.10818 -0.360934 0
M  V30 10535 H 994.262 0.594497 -0.295752 0
M  V30 10536 H 996.792 1.46652 -1.42669 0
M  V30 10537 H 996.802 3.90181 -1.19259 0
M  V30 10538 H 995.477 3.4865 -2.2675 0
M  V30 10539 H 994.054 3.7019 -0.448748 0
M  V30 10540 N 996.239 0.8527 1.3254 0
M  V30 10541 C 997.189 0.267711 2.26423 0
M  V30 10542 C 998.173 -0.585305 1.49877 0
M  V30 10543 O 999.365 -0.435008 1.71571 0
M  V30 10544 C 996.494 -0.544605 3.38953 0
M  V30 10545 C 995.58 0.32069 4.22886 0
M  V30 10546 N 995.971 1.40601 4.85865 0
M  V30 10547 C 994.269 0.110101 4.45864 0
M  V30 10548 C 994.97 1.93819 5.48461 0
M  V30 10549 N 993.946 1.23764 5.29324 0
M  V30 10550 H 997.748 1.09747 2.7264 0
M  V30 10551 H 995.262 0.698607 1.46606 0
M  V30 10552 H 997.259 -0.98009 4.05216 0
M  V30 10553 H 995.919 -1.37218 2.94281 0
M  V30 10554 H 996.93 1.78894 4.86022 0
M  V30 10555 H 993.607 -0.682917 4.11877 0
M  V30 10556 H 994.997 2.84783 6.08562 0
M  V30 10557 N 997.718 -1.45297 0.610449 0
M  V30 10558 C 999.129 -1.85715 0.191488 0
M  V30 10559 C 999.48 -1.51036 -1.25229 0
M  V30 10560 O 998.605 -0.938422 -1.94994 0
M  V30 10561 C 999.2 -3.37082 0.340747 0
M  V30 10562 C 997.759 -3.76393 -0.0235433 0
M  V30 10563 C 996.906 -2.69237 0.663849 0
M  V30 10564 H 999.857 -1.36058 0.816948 0
M  V30 10565 H 999.878 -3.78105 -0.426233 0
M  V30 10566 H 999.39 -3.62291 1.39164 0
M  V30 10567 H 997.491 -3.56801 -1.07351 0
M  V30 10568 H 997.604 -4.77653 0.372102 0
M  V30 10569 H 995.968 -2.54499 0.101204 0
M  V30 10570 H 996.751 -2.97281 1.71694 0
M  V30 10571 N 999.196 -0.349774 -1.5367 0
M  V30 10572 C 1000.11 0.512421 -2.28935 0
M  V30 10573 C 1001.12 1.1065 -1.34286 0
M  V30 10574 O 1002.3 1.12084 -1.67329 0
M  V30 10575 C 999.363 1.64449 -3.05217 0
M  V30 10576 C 998.424 1.07956 -4.15505 0
M  V30 10577 C 997.657 2.15768 -4.88139 0
M  V30 10578 O 997.88 3.366 -4.60496 0
M  V30 10579 O 996.814 1.79712 -5.74445 0
M  V30 10580 H 1000.64 -0.0996001 -3.03537 0
M  V30 10581 H 998.225 -0.114629 -1.4896 0
M  V30 10582 H 1000.11 2.30302 -3.52901 0
M  V30 10583 H 998.782 2.24221 -2.33467 0
M  V30 10584 H 997.689 0.385381 -3.7211 0
M  V30 10585 H 999.022 0.526621 -4.89375 0
M  V30 10586 N 1000.67 1.57404 -0.0785433 0
M  V30 10587 C 1001.62 2.09632 0.896565 0
M  V30 10588 C 1002.61 1.00754 1.25449 0
M  V30 10589 O 1003.8 1.27053 1.23234 0
M  V30 10590 C 1000.93 2.66694 2.16169 0
M  V30 10591 C 1000.01 3.82588 1.82994 0
M  V30 10592 N 1000.41 4.91286 1.203 0
M  V30 10593 C 998.704 3.92011 2.12704 0
M  V30 10594 C 999.405 5.72077 1.05367 0
M  V30 10595 N 998.381 5.20567 1.56559 0
M  V30 10596 H 1002.18 2.9106 0.407621 0
M  V30 10597 H 999.697 1.61917 0.125155 0
M  V30 10598 H 1001.69 3.0243 2.86952 0
M  V30 10599 H 1000.35 1.86716 2.65645 0
M  V30 10600 H 1001.36 5.10509 0.871817 0
M  V30 10601 H 998.042 3.23018 2.6451 0
M  V30 10602 H 999.432 6.69523 0.564685 0
M  V30 10603 N 1002.15 -0.195058 1.56388 0
M  V30 10604 C 1003.11 -1.2254 1.93692 0
M  V30 10605 C 1004.11 -1.38437 0.81804 0
M  V30 10606 O 1005.3 -1.36248 1.08545 0
M  V30 10607 C 1002.44 -2.59476 2.21099 0
M  V30 10608 H 1003.63 -0.906544 2.8587 0
M  V30 10609 H 1001.18 -0.436577 1.50079 0
M  V30 10610 H 1001.92 -2.96417 1.31558 0
M  V30 10611 H 1001.7 -2.4931 3.02634 0
M  V30 10612 H 1003.19 -3.33777 2.50964 0
M  V30 10613 N 1003.63 -1.50653 -0.462772 0
M  V30 10614 C 1004.88 -1.61737 -1.21184 0
M  V30 10615 C 1005.2 -0.32369 -1.92295 0
M  V30 10616 O 1004.47 0.659269 -1.84473 0
M  V30 10617 H 1003.05 -0.596015 -0.450306 0
M  V30 10618 H 1005.71 -1.87469 -0.533051 0
M  V30 10619 H 1004.81 -2.43262 -1.95525 0
M  V30 10620 N 1005.11 0.71652 -1.4037 0
M  V30 10621 C 1006.52 1.02447 -1.22379 0
M  V30 10622 C 1006.72 2.0126 -0.0983394 0
M  V30 10623 O 1005.78 2.46569 0.544071 0
M  V30 10624 C 1007.09 1.56909 -2.56515 0
M  V30 10625 C 1008.64 1.68898 -2.6352 0
M  V30 10626 C 1009.12 2.26765 -3.97922 0
M  V30 10627 N 1010.61 2.34152 -3.99658 0
M  V30 10628 C 1011.34 2.79907 -5.00439 0
M  V30 10629 N 1010.84 3.25422 -6.11615 0
M  V30 10630 N 1012.63 2.79283 -4.87809 0
M  V30 10631 H 1004.78 0.0615306 -2.12311 0
M  V30 10632 H 1007.05 0.0898994 -0.943728 0
M  V30 10633 H 1006.75 0.917649 -3.39517 0
M  V30 10634 H 1006.63 2.55446 -2.77538 0
M  V30 10635 H 1009.01 2.33159 -1.8089 0
M  V30 10636 H 1009.09 0.689626 -2.46329 0
M  V30 10637 H 1008.74 1.63126 -4.80991 0
M  V30 10638 H 1008.67 3.27413 -4.12442 0
M  V30 10639 H 1011.16 2.02006 -3.19378 0
M  V30 10640 H 1011.47 3.58899 -6.84406 0
M  V30 10641 H 1009.82 3.23383 -6.15181 0
M  V30 10642 H 1013.01 2.43061 -4.00049 0
M  V30 10643 H 1013.18 3.14626 -5.66493 0
M  V30 10644 N 1006.59 1.25851 0.948643 0
M  V30 10645 C 1007.84 1.10347 1.68838 0
M  V30 10646 C 1008.15 -0.354262 1.92365 0
M  V30 10647 O 1009.35 -0.629847 2.64093 0
M  V30 10648 C 1007.81 1.92659 3.03991 0
M  V30 10649 C 1007.42 3.42962 2.88238 0
M  V30 10650 C 1009.16 1.85743 3.81707 0
M  V30 10651 C 1007.07 4.17547 4.18818 0
M  V30 10652 H 1006 0.409342 0.63321 0
M  V30 10653 H 1008.65 1.50098 1.05559 0
M  V30 10654 H 1007.03 1.45736 3.68208 0
M  V30 10655 H 1008.21 3.97601 2.32917 0
M  V30 10656 H 1006.52 3.51035 2.23972 0
M  V30 10657 H 1009.12 2.38758 4.78434 0
M  V30 10658 H 1009.46 0.826568 4.08012 0
M  V30 10659 H 1009.99 2.30449 3.2425 0
M  V30 10660 H 1006.73 5.21072 3.97699 0
M  V30 10661 H 1006.25 3.6769 4.73882 0
M  V30 10662 H 1007.93 4.25589 4.87322 0
M  V30 10663 N 1008.06 -1.15214 1.07534 0
M  V30 10664 C 1009 -2.19634 0.655261 0
M  V30 10665 C 1010.01 -1.60139 -0.293165 0
M  V30 10666 O 1011.2 -1.78311 -0.0821957 0
M  V30 10667 C 1008.3 -3.38851 -0.0578281 0
M  V30 10668 C 1007.47 -4.27888 0.90725 0
M  V30 10669 C 1006.53 -5.25692 0.231115 0
M  V30 10670 O 1005.56 -5.62469 0.872746 0
M  V30 10671 N 1006.76 -5.71424 -1.0225 0
M  V30 10672 H 1009.52 -2.56292 1.55353 0
M  V30 10673 H 1007.08 -1.30347 0.960271 0
M  V30 10674 H 1009.08 -4.01334 -0.520874 0
M  V30 10675 H 1007.65 -3.00593 -0.858071 0
M  V30 10676 H 1006.87 -3.62475 1.54937 0
M  V30 10677 H 1008.15 -4.84246 1.56151 0
M  V30 10678 H 1007.55 -5.43659 -1.56369 0
M  V30 10679 H 1006.11 -6.35938 -1.42919 0
M  V30 10680 N 1009.54 -0.859717 -1.32086 0
M  V30 10681 C 1010.77 -0.478865 -2.01796 0
M  V30 10682 C 1011.19 0.918274 -1.64163 0
M  V30 10683 O 1010.55 1.60409 -0.844896 0
M  V30 10684 C 1010.6 -0.631356 -3.5503 0
M  V30 10685 O 1009.7 0.333712 -4.11048 0
M  V30 10686 H 1009.04 -0.191775 -0.635703 0
M  V30 10687 H 1011.57 -1.16031 -1.68517 0
M  V30 10688 H 1011.58 -0.520783 -4.04663 0
M  V30 10689 H 1010.26 -1.65015 -3.81763 0
M  V30 10690 H 1008.84 0.178953 -3.7247 0
M  V30 10691 N 1011.02 1.44971 -0.618145 0
M  V30 10692 C 1012.27 2.01372 -0.115004 0
M  V30 10693 C 1012.58 1.49104 1.26599 0
M  V30 10694 O 1013.79 1.97549 1.86244 0
M  V30 10695 C 1012.24 3.59567 -0.154883 0
M  V30 10696 C 1011.85 4.20832 -1.53639 0
M  V30 10697 C 1013.6 4.23491 0.292468 0
M  V30 10698 C 1011.5 5.7121 -1.53208 0
M  V30 10699 H 1010.43 0.752979 -0.0392267 0
M  V30 10700 H 1013.08 1.66329 -0.775032 0
M  V30 10701 H 1011.47 3.91847 0.572001 0
M  V30 10702 H 1012.64 4.00109 -2.28582 0
M  V30 10703 H 1010.96 3.69143 -1.92672 0
M  V30 10704 H 1013.55 5.33771 0.315032 0
M  V30 10705 H 1013.9 3.9491 1.31725 0
M  V30 10706 H 1014.43 3.95967 -0.381493 0
M  V30 10707 H 1011.17 6.04506 -2.53481 0
M  V30 10708 H 1010.69 5.94094 -0.825387 0
M  V30 10709 H 1012.37 6.34606 -1.26032 0
M  V30 10710 N 1012.5 0.357919 1.53482 0
M  V30 10711 C 1013.74 -0.22712 2.02128 0
M  V30 10712 C 1014.1 -1.47044 1.2408 0
M  V30 10713 O 1013.39 -1.88841 0.323966 0
M  V30 10714 C 1013.59 -0.579617 3.52669 0
M  V30 10715 C 1013.42 0.627992 4.45294 0
M  V30 10716 C 1012.19 1.13772 4.92325 0
M  V30 10717 C 1014.38 1.49087 4.92217 0
M  V30 10718 N 1012.37 2.30615 5.68937 0
M  V30 10719 C 1013.74 2.50604 5.67096 0
M  V30 10720 C 1015.79 1.51464 4.74303 0
M  V30 10721 C 1014.49 3.54346 6.25964 0
M  V30 10722 C 1016.52 2.54095 5.34032 0
M  V30 10723 C 1015.88 3.54337 6.0879 0
M  V30 10724 H 1011.98 -0.0460295 0.780644 0
M  V30 10725 H 1014.57 0.500733 1.88151 0
M  V30 10726 H 1012.74 -1.27656 3.66822 0
M  V30 10727 H 1014.47 -1.14908 3.88044 0
M  V30 10728 H 1011.22 0.703546 4.68345 0
M  V30 10729 H 1011.65 2.8965 6.11909 0
M  V30 10730 H 1016.29 0.753213 4.16037 0
M  V30 10731 H 1014.01 4.31375 6.83331 0
M  V30 10732 H 1017.59 2.56779 5.22069 0
M  V30 10733 H 1016.47 4.32449 6.54184 0
M  V30 10734 N 1013.98 -1.5736 0.0868897 0
M  V30 10735 C 1015.2 -1.98809 -0.590757 0
M  V30 10736 C 1015.63 -0.965407 -1.61436 0
M  V30 10737 O 1014.98 0.067143 -1.81176 0
M  V30 10738 C 1015.03 -3.39249 -1.22238 0
M  V30 10739 O 1014.14 -3.39706 -2.33824 0
M  V30 10740 H 1013.48 -0.64669 -0.150626 0
M  V30 10741 H 1016.01 -2.03927 0.165873 0
M  V30 10742 H 1016.02 -3.76765 -1.56564 0
M  V30 10743 H 1014.69 -4.13208 -0.472434 0
M  V30 10744 H 1013.27 -3.13977 -2.01178 0
M  V30 10745 N 1015.45 0.186762 -1.56489 0
M  V30 10746 C 1016.87 0.537933 -1.50261 0
M  V30 10747 C 1017.07 1.85435 -0.788414 0
M  V30 10748 O 1016.13 2.50168 -0.342377 0
M  V30 10749 C 1017.44 0.584965 -2.94955 0
M  V30 10750 C 1018.99 0.673228 -3.05674 0
M  V30 10751 C 1019.46 0.751294 -4.51796 0
M  V30 10752 N 1020.95 0.814599 -4.55981 0
M  V30 10753 C 1021.69 0.895313 -5.66367 0
M  V30 10754 N 1021.18 0.937814 -6.86423 0
M  V30 10755 N 1022.98 0.933145 -5.543 0
M  V30 10756 H 1015.13 -0.676636 -2.01334 0
M  V30 10757 H 1017.39 -0.242079 -0.916571 0
M  V30 10758 H 1017.1 -0.313361 -3.50301 0
M  V30 10759 H 1016.97 1.4368 -3.48763 0
M  V30 10760 H 1019.36 1.56198 -2.50372 0
M  V30 10761 H 1019.44 -0.204976 -2.54977 0
M  V30 10762 H 1019.08 -0.133143 -5.07725 0
M  V30 10763 H 1019.01 1.64542 -5.00233 0
M  V30 10764 H 1021.5 0.790662 -3.69536 0
M  V30 10765 H 1021.82 1.00015 -7.66301 0
M  V30 10766 H 1020.16 0.906351 -6.89065 0
M  V30 10767 H 1023.35 0.896836 -4.59428 0
M  V30 10768 H 1023.53 0.992588 -6.40353 0
M  V30 10769 N 1016.93 1.50896 0.454776 0
M  V30 10770 C 1017.86 1.73885 1.5584 0
M  V30 10771 C 1018.84 0.588172 1.59607 0
M  V30 10772 O 1020.03 0.829054 1.75614 0
M  V30 10773 C 1017.16 1.84796 2.94054 0
M  V30 10774 C 1016.11 3.00111 3.05152 0
M  V30 10775 C 1015.44 2.96183 4.45174 0
M  V30 10776 C 1016.74 4.40365 2.80849 0
M  V30 10777 H 1018.43 2.66292 1.36854 0
M  V30 10778 H 1015.98 1.28142 0.656936 0
M  V30 10779 H 1017.93 1.99462 3.71204 0
M  V30 10780 H 1016.66 0.890235 3.14233 0
M  V30 10781 H 1015.31 2.85121 2.30438 0
M  V30 10782 H 1014.96 1.98224 4.62295 0
M  V30 10783 H 1014.66 3.73608 4.53532 0
M  V30 10784 H 1016.19 3.1292 5.24322 0
M  V30 10785 H 1017.6 4.55795 3.47741 0
M  V30 10786 H 1016 5.19363 3.00636 0
M  V30 10787 H 1017.07 4.51606 1.76579 0
M  V30 10788 N 1018.41 -0.709066 1.40748 0
M  V30 10789 C 1019.34 -1.83412 1.37451 0
M  V30 10790 C 1020.36 -1.60394 0.27884 0
M  V30 10791 O 1021.54 -1.70147 0.539642 0
M  V30 10792 C 1018.64 -3.19935 1.1178 0
M  V30 10793 C 1017.82 -3.70095 2.33128 0
M  V30 10794 C 1016.88 -4.85249 2.03518 0
M  V30 10795 O 1015.9 -4.97563 2.76442 0
M  V30 10796 N 1017.1 -5.7152 1.01714 0
M  V30 10797 H 1019.87 -1.86736 2.34414 0
M  V30 10798 H 1017.43 -0.890863 1.35186 0
M  V30 10799 H 1019.42 -3.94578 0.899464 0
M  V30 10800 H 1017.99 -3.11718 0.234624 0
M  V30 10801 H 1017.21 -2.8651 2.70751 0
M  V30 10802 H 1018.5 -4.00344 3.1401 0
M  V30 10803 H 1017.9 -5.64188 0.413307 0
M  V30 10804 H 1016.46 -6.46119 0.858696 0
M  V30 10805 N 1019.89 -1.26353 -0.941956 0
M  V30 10806 C 1020.8 -1.09618 -2.07415 0
M  V30 10807 C 1021.82 -0.0298963 -1.73974 0
M  V30 10808 O 1022.99 -0.233466 -2.00042 0
M  V30 10809 C 1020.06 -0.73013 -3.38925 0
M  V30 10810 C 1019.12 -1.87574 -3.86153 0
M  V30 10811 C 1018.35 -1.52706 -5.11387 0
M  V30 10812 O 1018.57 -0.428438 -5.68789 0
M  V30 10813 O 1017.51 -2.36154 -5.53638 0
M  V30 10814 H 1021.33 -2.04598 -2.2444 0
M  V30 10815 H 1018.92 -1.05407 -1.05876 0
M  V30 10816 H 1020.8 -0.538684 -4.17943 0
M  V30 10817 H 1019.48 0.190282 -3.2314 0
M  V30 10818 H 1018.38 -2.12214 -3.08084 0
M  V30 10819 H 1019.72 -2.77585 -4.06457 0
M  V30 10820 N 1021.37 1.14642 -1.08144 0
M  V30 10821 C 1022.6 1.89484 -0.830864 0
M  V30 10822 C 1023.01 1.78443 0.616722 0
M  V30 10823 O 1022.37 1.14191 1.42361 0
M  V30 10824 C 1022.42 3.39554 -1.24039 0
M  V30 10825 O 1022.14 3.50286 -2.63119 0
M  V30 10826 C 1023.64 4.31399 -1.02029 0
M  V30 10827 H 1020.86 0.600283 -0.299835 0
M  V30 10828 H 1023.4 1.45204 -1.44001 0
M  V30 10829 H 1021.56 3.81467 -0.675407 0
M  V30 10830 H 1021.97 4.43481 -2.80045 0
M  V30 10831 H 1023.45 5.35079 -1.35625 0
M  V30 10832 H 1023.92 4.39179 0.0428697 0
M  V30 10833 H 1024.53 3.95238 -1.57057 0
M  V30 10834 N 1022.85 0.866709 1.31628 0
M  V30 10835 C 1024.09 0.475086 1.96437 0
M  V30 10836 C 1024.41 -0.975179 1.68865 0
M  V30 10837 O 1023.68 -1.68317 1.0023 0
M  V30 10838 H 1022.26 0.172695 0.726764 0
M  V30 10839 H 1024.93 1.10578 1.60494 0
M  V30 10840 H 1024.02 0.630123 3.05673 0
M  V30 10841 N 1024.32 -1.44642 0.625825 0
M  V30 10842 C 1025.25 -2.33397 -0.0692188 0
M  V30 10843 C 1026.23 -1.47898 -0.840241 0
M  V30 10844 O 1027.42 -1.7663 -0.807176 0
M  V30 10845 C 1024.55 -3.30888 -1.055 0
M  V30 10846 C 1023.5 -4.26164 -0.395968 0
M  V30 10847 C 1022.83 -5.13483 -1.49128 0
M  V30 10848 C 1024.13 -5.17663 0.694433 0
M  V30 10849 H 1025.82 -2.91763 0.671925 0
M  V30 10850 H 1023.37 -1.40294 0.324573 0
M  V30 10851 H 1025.32 -3.91861 -1.54993 0
M  V30 10852 H 1024.05 -2.7072 -1.82696 0
M  V30 10853 H 1022.71 -3.66516 0.0782691 0
M  V30 10854 H 1022.35 -4.49672 -2.25399 0
M  V30 10855 H 1022.05 -5.78038 -1.05573 0
M  V30 10856 H 1023.58 -5.77327 -1.98813 0
M  V30 10857 H 1024.99 -5.72602 0.282818 0
M  V30 10858 H 1023.39 -5.90793 1.05281 0
M  V30 10859 H 1024.46 -4.58994 1.56372 0
M  V30 10860 N 1025.8 -0.366053 -1.5329 0
M  V30 10861 C 1027.22 -0.0150149 -1.59593 0
M  V30 10862 C 1027.42 1.46719 -1.38116 0
M  V30 10863 O 1026.47 2.22884 -1.18656 0
M  V30 10864 C 1027.79 -0.471374 -2.96982 0
M  V30 10865 C 1029.33 -0.425634 -3.10092 0
M  V30 10866 C 1029.81 -0.857812 -4.49895 0
M  V30 10867 N 1031.3 -0.81289 -4.56011 0
M  V30 10868 C 1032.04 -1.11898 -5.62376 0
M  V30 10869 N 1031.53 -1.49436 -6.76491 0
M  V30 10870 N 1033.32 -1.04174 -5.52362 0
M  V30 10871 H 1025.48 -1.33127 -1.65502 0
M  V30 10872 H 1027.74 -0.544172 -0.776261 0
M  V30 10873 H 1027.44 -1.50569 -3.1784 0
M  V30 10874 H 1027.32 0.141764 -3.76934 0
M  V30 10875 H 1029.71 0.599548 -2.88945 0
M  V30 10876 H 1029.79 -1.07427 -2.32149 0
M  V30 10877 H 1029.43 -1.88111 -4.7178 0
M  V30 10878 H 1029.36 -0.186419 -5.2627 0
M  V30 10879 H 1031.85 -0.536343 -3.74075 0
M  V30 10880 H 1032.16 -1.71217 -7.53594 0
M  V30 10881 H 1030.51 -1.53302 -6.77882 0
M  V30 10882 H 1033.7 -0.747654 -4.62091 0
M  V30 10883 H 1033.87 -1.28362 -6.35159 0
M  V30 10884 N 1027.28 1.57312 -0.0952337 0
M  V30 10885 C 1028.53 1.93974 0.567319 0
M  V30 10886 C 1028.85 0.977805 1.68713 0
M  V30 10887 O 1028.12 0.0298944 1.95877 0
M  V30 10888 H 1026.7 0.71612 0.212558 0
M  V30 10889 H 1029.36 1.94254 -0.158598 0
M  V30 10890 H 1028.46 2.964 0.977423 0
M  V30 10891 N 1028.76 -0.17846 1.56586 0
M  V30 10892 C 1029.7 -1.22104 1.95855 0
M  V30 10893 C 1030.67 -1.44366 0.821447 0
M  V30 10894 O 1031.86 -1.57224 1.08098 0
M  V30 10895 C 1029 -2.55701 2.31757 0
M  V30 10896 C 1028.11 -2.40879 3.5861 0
M  V30 10897 C 1027.25 -3.67293 3.83757 0
M  V30 10898 C 1026.29 -3.47373 5.03982 0
M  V30 10899 N 1025.42 -4.65839 5.25298 0
M  V30 10900 H 1030.26 -0.879168 2.84736 0
M  V30 10901 H 1027.8 -0.422721 1.40895 0
M  V30 10902 H 1029.76 -3.33556 2.50592 0
M  V30 10903 H 1028.39 -2.87898 1.45995 0
M  V30 10904 H 1027.44 -1.54236 3.47729 0
M  V30 10905 H 1028.75 -2.22102 4.46623 0
M  V30 10906 H 1027.91 -4.53584 4.02922 0
M  V30 10907 H 1026.65 -3.89041 2.94107 0
M  V30 10908 H 1025.65 -2.59467 4.84723 0
M  V30 10909 H 1026.88 -3.27055 5.95157 0
M  V30 10910 H 1024.82 -4.8782 4.38598 0
M  V30 10911 H 1024.74 -4.4995 6.0752 0
M  V30 10912 H 1026.01 -5.53435 5.48936 0
M  V30 10913 N 1030.24 -1.51135 -0.446768 0
M  V30 10914 C 1031.48 -1.64989 -1.20656 0
M  V30 10915 C 1031.84 -0.353882 -1.88711 0
M  V30 10916 O 1033.04 -0.368099 -2.66268 0
M  V30 10917 C 1031.31 -2.81371 -2.20375 0
M  V30 10918 S 1032.87 -3.15501 -3.04967 0
M  V30 10919 H 1029.69 -0.581372 -0.409301 0
M  V30 10920 H 1032.29 -1.89008 -0.499613 0
M  V30 10921 H 1030.99 -3.73988 -1.69001 0
M  V30 10922 H 1030.53 -2.59512 -2.95664 0
M  V30 10923 H 1032.54 -2.61205 -4.21884 0
M  V30 10924 N 1031.71 0.701592 -1.41122 0
M  V30 10925 C 1032.62 1.84548 -1.44841 0
M  V30 10926 C 1033.64 1.70654 -0.339594 0
M  V30 10927 O 1034.82 1.92675 -0.586378 0
M  V30 10928 C 1031.88 3.20477 -1.3227 0
M  V30 10929 C 1030.94 3.46524 -2.53415 0
M  V30 10930 C 1030.17 4.75968 -2.41434 0
M  V30 10931 O 1030.4 5.52037 -1.43566 0
M  V30 10932 O 1029.33 5.02664 -3.31078 0
M  V30 10933 H 1033.16 1.84367 -2.41335 0
M  V30 10934 H 1030.74 0.853863 -1.22595 0
M  V30 10935 H 1032.62 4.01642 -1.2752 0
M  V30 10936 H 1031.3 3.21355 -0.388889 0
M  V30 10937 H 1030.21 2.65313 -2.63742 0
M  V30 10938 H 1031.54 3.50455 -3.45604 0
M  V30 10939 N 1033.19 1.2685 0.935242 0
M  V30 10940 C 1034.43 1.13972 1.69675 0
M  V30 10941 C 1034.8 -0.310655 1.8947 0
M  V30 10942 O 1036 -0.561692 2.62866 0
M  V30 10943 C 1034.27 1.89387 3.03096 0
M  V30 10944 S 1035.83 1.92633 3.94256 0
M  V30 10945 H 1032.64 0.407009 0.582979 0
M  V30 10946 H 1035.25 1.60653 1.11404 0
M  V30 10947 H 1033.95 2.9397 2.86374 0
M  V30 10948 H 1033.48 1.43171 3.66423 0
M  V30 10949 H 1035.5 1.01732 4.85659 0
M  V30 10950 N 1034.67 -1.14067 1.0875 0
M  V30 10951 C 1035.92 -1.84535 0.814235 0
M  V30 10952 C 1036.23 -1.84044 -0.662355 0
M  V30 10953 O 1037.44 -2.50336 -1.05091 0
M  V30 10954 C 1035.89 -3.31273 1.40663 0
M  V30 10955 C 1035.5 -3.40171 2.91526 0
M  V30 10956 C 1037.25 -4.0683 1.21201 0
M  V30 10957 C 1035.15 -4.81141 3.43885 0
M  V30 10958 H 1034.08 -0.691346 0.300926 0
M  V30 10959 H 1036.73 -1.28562 1.30935 0
M  V30 10960 H 1035.12 -3.87005 0.839215 0
M  V30 10961 H 1036.29 -2.94471 3.54434 0
M  V30 10962 H 1034.61 -2.78073 3.09942 0
M  V30 10963 H 1037.2 -5.10891 1.57781 0
M  V30 10964 H 1037.55 -4.16022 0.152092 0
M  V30 10965 H 1038.08 -3.57408 1.74655 0
M  V30 10966 H 1034.82 -4.77138 4.49466 0
M  V30 10967 H 1034.34 -5.27365 2.85738 0
M  V30 10968 H 1036.02 -5.50042 3.40681 0
M  V30 10969 N 1036.15 -0.873678 -1.31166 0
M  V30 10970 C 1037.56 -0.566109 -1.49223 0
M  V30 10971 C 1037.76 0.898889 -1.80339 0
M  V30 10972 O 1036.82 1.68084 -1.88425 0
M  V30 10973 C 1038.13 -1.46952 -2.62346 0
M  V30 10974 C 1039.68 -1.47195 -2.76229 0
M  V30 10975 C 1040.16 -2.36102 -3.92454 0
M  V30 10976 N 1041.65 -2.34003 -3.99746 0
M  V30 10977 C 1042.38 -2.99513 -4.88958 0
M  V30 10978 N 1041.88 -3.74206 -5.83045 0
M  V30 10979 N 1043.67 -2.88802 -4.82234 0
M  V30 10980 H 1035.82 -1.82156 -1.09239 0
M  V30 10981 H 1038.09 -0.779086 -0.54012 0
M  V30 10982 H 1037.79 -2.51213 -2.4614 0
M  V30 10983 H 1037.67 -1.17077 -3.5857 0
M  V30 10984 H 1040.05 -0.436902 -2.91848 0
M  V30 10985 H 1040.13 -1.81095 -1.80661 0
M  V30 10986 H 1039.78 -3.39685 -3.77593 0
M  V30 10987 H 1039.71 -1.99524 -4.87337 0
M  V30 10988 H 1042.2 -1.79713 -3.32433 0
M  V30 10989 H 1042.51 -4.21312 -6.47855 0
M  V30 10990 H 1040.86 -3.78314 -5.83012 0
M  V30 10991 H 1044.05 -2.29984 -4.07707 0
M  V30 10992 H 1044.22 -3.40136 -5.51554 0
M  V30 10993 N 1037.63 1.44308 -0.633487 0
M  V30 10994 C 1038.87 2.01624 -0.138643 0
M  V30 10995 C 1039.2 1.50101 1.24477 0
M  V30 10996 O 1038.47 0.705575 1.82752 0
M  V30 10997 H 1037.05 0.745439 -0.0482636 0
M  V30 10998 H 1039.71 1.76777 -0.820719 0
M  V30 10999 H 1038.8 3.11913 -0.108136 0
M  V30 11000 N 1039.1 0.374177 1.53094 0
M  V30 11001 C 1040.52 0.0234783 1.59583 0
M  V30 11002 C 1040.72 -1.45984 1.38892 0
M  V30 11003 O 1039.78 -2.22251 1.19836 0
M  V30 11004 C 1041.09 0.487117 2.96728 0
M  V30 11005 C 1042.64 0.442073 3.09862 0
M  V30 11006 C 1043.11 0.881659 4.49434 0
M  V30 11007 N 1044.6 0.837062 4.55574 0
M  V30 11008 C 1045.34 1.14878 5.61774 0
M  V30 11009 N 1044.83 1.53022 6.75689 0
M  V30 11010 N 1046.63 1.07102 5.51802 0
M  V30 11011 H 1038.78 1.34003 1.64794 0
M  V30 11012 H 1041.04 0.548281 0.773364 0
M  V30 11013 H 1040.75 1.52252 3.17037 0
M  V30 11014 H 1040.62 -0.121772 3.77003 0
M  V30 11015 H 1043.01 -0.584216 2.89259 0
M  V30 11016 H 1043.09 1.08657 2.31576 0
M  V30 11017 H 1042.73 1.90611 4.70776 0
M  V30 11018 H 1042.66 0.214326 5.26164 0
M  V30 11019 H 1045.15 0.556173 3.73785 0
M  V30 11020 H 1045.47 1.75211 7.52676 0
M  V30 11021 H 1043.81 1.56895 6.77059 0
M  V30 11022 H 1047 0.772149 4.61688 0
M  V30 11023 H 1047.18 1.31728 6.3447 0
M  V30 11024 N 1040.58 -1.57259 0.103575 0
M  V30 11025 C 1041.53 -2.14487 -0.852295 0
M  V30 11026 C 1042.5 -1.06567 -1.27407 0
M  V30 11027 O 1043.68 -1.34398 -1.35432 0
M  V30 11028 C 1040.82 -2.73632 -2.10284 0
M  V30 11029 C 1039.94 -3.95811 -1.73083 0
M  V30 11030 C 1039.07 -4.43093 -2.92988 0
M  V30 11031 C 1038.11 -5.5784 -2.51953 0
M  V30 11032 N 1037.25 -5.99936 -3.64721 0
M  V30 11033 H 1042.09 -2.95849 -0.35743 0
M  V30 11034 H 1039.63 -1.46175 -0.164748 0
M  V30 11035 H 1041.58 -3.06046 -2.83534 0
M  V30 11036 H 1040.21 -1.94985 -2.57256 0
M  V30 11037 H 1039.27 -3.69656 -0.897688 0
M  V30 11038 H 1040.58 -4.79066 -1.38916 0
M  V30 11039 H 1039.73 -4.77335 -3.74481 0
M  V30 11040 H 1038.47 -3.58756 -3.30372 0
M  V30 11041 H 1037.48 -5.23217 -1.6889 0
M  V30 11042 H 1038.7 -6.43932 -2.15705 0
M  V30 11043 H 1036.65 -5.18543 -4.01807 0
M  V30 11044 H 1036.56 -6.78008 -3.34427 0
M  V30 11045 H 1037.83 -6.38812 -4.46699 0
M  V30 11046 N 1042.06 0.170153 -1.56679 0
M  V30 11047 C 1043.02 1.19443 -1.95617 0
M  V30 11048 C 1044.02 1.37118 -0.83996 0
M  V30 11049 O 1045.21 1.34504 -1.10699 0
M  V30 11050 C 1042.35 2.55926 -2.25199 0
M  V30 11051 H 1043.54 0.86095 -2.87276 0
M  V30 11052 H 1041.09 0.412646 -1.50755 0
M  V30 11053 H 1041.83 2.94286 -1.36257 0
M  V30 11054 H 1041.61 2.44464 -3.06562 0
M  V30 11055 H 1043.1 3.29742 -2.56242 0
M  V30 11056 N 1043.54 1.5137 0.438746 0
M  V30 11057 C 1044.77 1.67774 1.21077 0
M  V30 11058 C 1045.18 0.374489 1.85049 0
M  V30 11059 O 1044.54 -0.646867 1.70651 0
M  V30 11060 C 1044.59 2.79238 2.29584 0
M  V30 11061 O 1044.31 4.04513 1.68228 0
M  V30 11062 C 1045.81 3.06898 3.19888 0
M  V30 11063 H 1043.03 0.563054 0.364981 0
M  V30 11064 H 1045.58 1.97777 0.520035 0
M  V30 11065 H 1043.73 2.51837 2.94375 0
M  V30 11066 H 1044.14 4.66405 2.3993 0
M  V30 11067 H 1045.62 3.88476 3.92162 0
M  V30 11068 H 1046.1 2.19249 3.80561 0
M  V30 11069 H 1046.7 3.35952 2.60799 0
M  V30 11070 N 1045.02 -0.694098 1.41492 0
M  V30 11071 C 1045.95 -1.82042 1.46229 0
M  V30 11072 C 1046.93 -1.67047 0.320803 0
M  V30 11073 O 1048.11 -1.86758 0.53245 0
M  V30 11074 C 1045.24 -3.2019 1.34519 0
M  V30 11075 C 1044.2 -3.49892 2.46495 0
M  V30 11076 C 1043.52 -4.87411 2.1985 0
M  V30 11077 C 1044.82 -3.4872 3.88834 0
M  V30 11078 H 1046.52 -1.78335 2.40493 0
M  V30 11079 H 1044.06 -0.856566 1.15754 0
M  V30 11080 H 1046.02 -3.98699 1.36445 0
M  V30 11081 H 1044.74 -3.24527 0.367406 0
M  V30 11082 H 1043.4 -2.73734 2.43854 0
M  V30 11083 H 1043.05 -4.88375 1.20411 0
M  V30 11084 H 1042.75 -5.08248 2.94885 0
M  V30 11085 H 1044.27 -5.68228 2.23494 0
M  V30 11086 H 1045.68 -4.1723 3.93182 0
M  V30 11087 H 1044.08 -3.81089 4.63564 0
M  V30 11088 H 1045.15 -2.47665 4.16881 0
M  V30 11089 N 1046.49 -1.27344 -0.928501 0
M  V30 11090 C 1047.4 -1.11812 -2.06241 0
M  V30 11091 C 1048.42 -0.048347 -1.73933 0
M  V30 11092 O 1049.6 -0.25467 -1.99783 0
M  V30 11093 C 1046.66 -0.766036 -3.38131 0
M  V30 11094 C 1045.72 -1.91659 -3.84142 0
M  V30 11095 C 1044.96 -1.58121 -5.09738 0
M  V30 11096 O 1045.18 -0.488742 -5.68302 0
M  V30 11097 O 1044.11 -2.42013 -5.51102 0
M  V30 11098 H 1047.94 -2.06967 -2.22258 0
M  V30 11099 H 1045.52 -1.06524 -1.04752 0
M  V30 11100 H 1047.41 -0.582982 -4.17348 0
M  V30 11101 H 1046.08 0.155998 -3.23324 0
M  V30 11102 H 1044.99 -2.1547 -3.05816 0
M  V30 11103 H 1046.32 -2.8188 -4.0349 0
M  V30 11104 N 1047.97 1.13488 -1.09353 0
M  V30 11105 C 1048.88 2.2248 -0.744307 0
M  V30 11106 C 1049.9 1.72145 0.253404 0
M  V30 11107 O 1051.07 2.01176 0.0949339 0
M  V30 11108 C 1048.14 3.46286 -0.16928 0
M  V30 11109 C 1047.2 4.11516 -1.22284 0
M  V30 11110 C 1046.43 5.29412 -0.675161 0
M  V30 11111 O 1046.66 5.68185 0.502182 0
M  V30 11112 O 1045.59 5.8467 -1.42983 0
M  V30 11113 H 1049.42 2.54723 -1.65378 0
M  V30 11114 H 1047 1.21607 -0.867879 0
M  V30 11115 H 1048.88 4.2114 0.14811 0
M  V30 11116 H 1047.56 3.15745 0.713214 0
M  V30 11117 H 1046.47 3.38492 -1.59292 0
M  V30 11118 H 1047.8 4.46186 -2.07796 0
M  V30 11119 N 1049.45 0.880621 1.30701 0
M  V30 11120 C 1050.38 0.360251 2.30704 0
M  V30 11121 C 1051.36 -0.554572 1.60806 0
M  V30 11122 O 1052.55 -0.469345 1.88443 0
M  V30 11123 C 1049.68 -0.429888 3.44629 0
M  V30 11124 C 1048.63 0.392786 4.26194 0
M  V30 11125 C 1047.96 -0.52369 5.32129 0
M  V30 11126 C 1049.26 1.63258 4.96129 0
M  V30 11127 H 1050.95 1.19591 2.74478 0
M  V30 11128 H 1048.5 0.576508 1.31956 0
M  V30 11129 H 1050.45 -0.804532 4.13649 0
M  V30 11130 H 1049.17 -1.29916 2.99649 0
M  V30 11131 H 1047.83 0.749514 3.58856 0
M  V30 11132 H 1047.48 -1.39054 4.83397 0
M  V30 11133 H 1047.18 0.0229272 5.87596 0
M  V30 11134 H 1048.71 -0.894946 6.04006 0
M  V30 11135 H 1050.12 1.32877 5.57689 0
M  V30 11136 H 1048.52 2.11906 5.61441 0
M  V30 11137 H 1049.59 2.37944 4.22505 0
M  V30 11138 N 1050.93 -1.4397 0.641131 0
M  V30 11139 C 1051.86 -2.28997 -0.0963315 0
M  V30 11140 C 1052.87 -1.4184 -0.799071 0
M  V30 11141 O 1054.06 -1.65896 -0.658846 0
M  V30 11142 C 1051.16 -3.18465 -1.15903 0
M  V30 11143 C 1050.34 -4.34093 -0.536828 0
M  V30 11144 C 1049.4 -5.04522 -1.4948 0
M  V30 11145 O 1048.42 -5.60202 -1.00807 0
M  V30 11146 N 1049.62 -5.06899 -2.82901 0
M  V30 11147 H 1052.39 -2.9293 0.633422 0
M  V30 11148 H 1049.95 -1.54527 0.48302 0
M  V30 11149 H 1051.94 -3.62445 -1.80044 0
M  V30 11150 H 1050.51 -2.56214 -1.79089 0
M  V30 11151 H 1049.73 -3.9318 0.283414 0
M  V30 11152 H 1051.02 -5.08698 -0.101966 0
M  V30 11153 H 1050.42 -4.63012 -3.25017 0
M  V30 11154 H 1048.97 -5.54637 -3.42376 0
M  V30 11155 N 1052.41 -0.382291 -1.52893 0
M  V30 11156 C 1053.64 0.202408 -2.05908 0
M  V30 11157 C 1054.05 1.4109 -1.25456 0
M  V30 11158 O 1053.41 1.80027 -0.29942 0
M  V30 11159 C 1053.46 0.579452 -3.56826 0
M  V30 11160 O 1053.18 -0.58102 -4.3423 0
M  V30 11161 C 1054.68 1.22076 -4.2616 0
M  V30 11162 H 1051.9 0.0321859 -0.670228 0
M  V30 11163 H 1054.44 -0.545494 -1.9709 0
M  V30 11164 H 1052.6 1.27726 -3.65739 0
M  V30 11165 H 1053.01 -0.272693 -5.23791 0
M  V30 11166 H 1054.49 1.435 -5.33021 0
M  V30 11167 H 1054.96 2.18605 -3.80931 0
M  V30 11168 H 1055.57 0.563922 -4.21545 0
M  V30 11169 N 1053.89 1.57202 -0.111913 0
M  V30 11170 C 1055.13 1.95239 0.548607 0
M  V30 11171 C 1055.46 0.994897 1.6678 0
M  V30 11172 O 1054.74 0.0308603 1.94476 0
M  V30 11173 C 1055.02 3.43271 1.08798 0
M  V30 11174 C 1054.88 4.49792 -0.0273064 0
M  V30 11175 C 1056.19 3.92989 1.98109 0
M  V30 11176 H 1053.31 0.709919 0.197951 0
M  V30 11177 H 1055.96 1.89087 -0.186036 0
M  V30 11178 H 1054.11 3.48644 1.71404 0
M  V30 11179 H 1055.78 4.56521 -0.662302 0
M  V30 11180 H 1054.02 4.28254 -0.691426 0
M  V30 11181 H 1054.69 5.50612 0.391201 0
M  V30 11182 H 1057.17 3.89875 1.45385 0
M  V30 11183 H 1056.04 4.97101 2.32769 0
M  V30 11184 H 1056.3 3.33267 2.90492 0
M  V30 11185 N 1055.36 -0.161842 1.56767 0
M  V30 11186 C 1056.31 -1.20506 1.93552 0
M  V30 11187 C 1057.3 -1.39317 0.804952 0
M  V30 11188 O 1058.49 -1.41129 1.06825 0
M  V30 11189 C 1055.62 -2.54227 2.30702 0
M  V30 11190 C 1054.7 -2.3907 3.50295 0
M  V30 11191 N 1055.1 -1.93642 4.67265 0
M  V30 11192 C 1053.39 -2.69868 3.55088 0
M  V30 11193 C 1054.09 -1.91175 5.49388 0
M  V30 11194 N 1053.07 -2.33935 4.90689 0
M  V30 11195 H 1056.87 -0.845687 2.8147 0
M  V30 11196 H 1054.39 -0.370034 1.58128 0
M  V30 11197 H 1056.38 -3.29623 2.55254 0
M  V30 11198 H 1055.04 -2.90959 1.44128 0
M  V30 11199 H 1056.05 -1.63834 4.91303 0
M  V30 11200 H 1052.73 -3.10574 2.79016 0
M  V30 11201 H 1054.12 -1.57671 6.53138 0
M  V30 11202 N 1056.84 -1.516 -0.430713 0
M  V30 11203 C 1058.07 -1.687 -1.20644 0
M  V30 11204 C 1058.49 -0.386555 -1.84085 0
M  V30 11205 O 1057.85 0.653952 -1.69095 0
M  V30 11206 C 1057.9 -2.80887 -2.2613 0
M  V30 11207 O 1057 -2.44952 -3.31772 0
M  V30 11208 H 1056.34 -0.562289 -0.353167 0
M  V30 11209 H 1058.87 -1.98198 -0.507807 0
M  V30 11210 H 1058.88 -3.05167 -2.70809 0
M  V30 11211 H 1057.56 -3.75249 -1.79334 0
M  V30 11212 H 1056.13 -2.31267 -2.92523 0
M  V30 11213 N 1058.32 0.686584 -1.41858 0
M  V30 11214 C 1059.23 1.83002 -1.46791 0
M  V30 11215 C 1060.25 1.70284 -0.357675 0
M  V30 11216 O 1061.42 1.92042 -0.606781 0
M  V30 11217 C 1058.49 3.19056 -1.35661 0
M  V30 11218 C 1057.55 3.43817 -2.57077 0
M  V30 11219 C 1056.78 4.7338 -2.46469 0
M  V30 11220 O 1057 5.50483 -1.49413 0
M  V30 11221 O 1055.94 4.99124 -3.36391 0
M  V30 11222 H 1059.76 1.81797 -2.43277 0
M  V30 11223 H 1057.35 0.840812 -1.23494 0
M  V30 11224 H 1059.23 4.00267 -1.31773 0
M  V30 11225 H 1057.91 3.20925 -0.422951 0
M  V30 11226 H 1056.81 2.625 -2.66541 0
M  V30 11227 H 1058.15 3.4677 -3.49302 0
M  V30 11228 N 1059.8 1.27835 0.921735 0
M  V30 11229 C 1060.76 1.11108 2.00469 0
M  V30 11230 C 1061.76 0.053203 1.60712 0
M  V30 11231 O 1062.95 0.298308 1.71627 0
M  V30 11232 C 1060.08 0.694269 3.33755 0
M  V30 11233 H 1061.28 2.07279 2.16738 0
M  V30 11234 H 1058.83 1.10708 1.10333 0
M  V30 11235 H 1059.56 -0.268561 3.23186 0
M  V30 11236 H 1059.35 1.45836 3.6397 0
M  V30 11237 H 1060.84 0.59965 4.13272 0
M  V30 11238 N 1061.28 -1.12907 1.09954 0
M  V30 11239 C 1062.23 -2.16558 0.713204 0
M  V30 11240 C 1063.21 -1.5853 -0.27515 0
M  V30 11241 O 1064.4 -1.76797 -0.0846643 0
M  V30 11242 C 1061.53 -3.43009 0.141224 0
M  V30 11243 C 1060.62 -4.08032 1.15632 0
M  V30 11244 N 1061.01 -4.48139 2.34531 0
M  V30 11245 C 1059.31 -4.34743 0.995701 0
M  V30 11246 C 1060.01 -4.98885 2.99147 0
M  V30 11247 N 1058.98 -4.9408 2.26684 0
M  V30 11248 H 1062.78 -2.45328 1.61838 0
M  V30 11249 H 1060.3 -1.29759 0.976539 0
M  V30 11250 H 1062.3 -4.16617 -0.153598 0
M  V30 11251 H 1060.96 -3.15711 -0.758729 0
M  V30 11252 H 1061.97 -4.40668 2.72089 0
M  V30 11253 H 1058.64 -4.17227 0.150888 0
M  V30 11254 H 1060.03 -5.3967 4.00257 0
M  V30 11255 N 1062.75 -0.88754 -1.30232 0
M  V30 11256 C 1063.98 -0.522306 -2.00199 0
M  V30 11257 C 1064.4 0.889866 -1.66514 0
M  V30 11258 O 1063.75 1.58558 -0.903639 0
M  V30 11259 C 1063.8 -0.690551 -3.54843 0
M  V30 11260 O 1063.53 -2.04713 -3.8733 0
M  V30 11261 C 1065.03 -0.328649 -4.4208 0
M  V30 11262 H 1062.25 -0.201628 -0.63999 0
M  V30 11263 H 1064.79 -1.19355 -1.66056 0
M  V30 11264 H 1062.95 -0.0666493 -3.87343 0
M  V30 11265 H 1063.36 -2.06762 -4.82027 0
M  V30 11266 H 1064.83 -0.497257 -5.49756 0
M  V30 11267 H 1065.31 0.733502 -4.33032 0
M  V30 11268 H 1065.92 -0.928982 -4.1503 0
M  V30 11269 N 1064.23 1.43628 -0.648757 0
M  V30 11270 C 1065.16 2.33478 0.0320785 0
M  V30 11271 C 1066.14 1.49217 0.816605 0
M  V30 11272 O 1067.33 1.77892 0.778974 0
M  V30 11273 C 1064.46 3.32525 1.00222 0
M  V30 11274 C 1063.41 4.2674 0.328119 0
M  V30 11275 C 1062.74 5.15791 1.4094 0
M  V30 11276 C 1064.04 5.16493 -0.776701 0
M  V30 11277 H 1065.73 2.90657 -0.718257 0
M  V30 11278 H 1063.28 1.3976 -0.346852 0
M  V30 11279 H 1065.23 3.94277 1.4874 0
M  V30 11280 H 1063.96 2.73593 1.78366 0
M  V30 11281 H 1062.61 3.66346 -0.136569 0
M  V30 11282 H 1062.26 4.53201 2.18216 0
M  V30 11283 H 1061.96 5.79645 0.963631 0
M  V30 11284 H 1063.49 5.80416 1.89603 0
M  V30 11285 H 1064.9 5.7208 -0.373878 0
M  V30 11286 H 1063.3 5.89043 -1.14667 0
M  V30 11287 H 1064.37 4.56448 -1.63654 0
M  V30 11288 N 1065.71 0.390394 1.52688 0
M  V30 11289 C 1066.64 -0.43567 2.294 0
M  V30 11290 C 1067.62 -1.06253 1.32832 0
M  V30 11291 O 1068.81 -1.07509 1.61726 0
M  V30 11292 C 1065.94 -1.56259 3.10162 0
M  V30 11293 C 1064.89 -1.06172 4.14622 0
M  V30 11294 C 1064.22 -2.2808 4.83615 0
M  V30 11295 C 1065.52 -0.128902 5.22141 0
M  V30 11296 H 1067.21 0.204384 2.98702 0
M  V30 11297 H 1064.76 0.0997377 1.43654 0
M  V30 11298 H 1066.71 -2.14732 3.62585 0
M  V30 11299 H 1065.43 -2.23025 2.38595 0
M  V30 11300 H 1064.09 -0.499518 3.63181 0
M  V30 11301 H 1063.74 -2.93358 4.08595 0
M  V30 11302 H 1063.44 -1.95227 5.5422 0
M  V30 11303 H 1064.96 -2.87193 5.38844 0
M  V30 11304 H 1066.38 -0.621849 5.69917 0
M  V30 11305 H 1064.78 0.109919 5.99999 0
M  V30 11306 H 1065.85 0.821884 4.77884 0
M  V30 11307 N 1067.19 -1.57141 0.120249 0
M  V30 11308 C 1068.42 -1.993 -0.544346 0
M  V30 11309 C 1068.83 -0.998858 -1.60684 0
M  V30 11310 O 1068.17 0.0162197 -1.83693 0
M  V30 11311 C 1068.23 -3.37874 -1.22808 0
M  V30 11312 C 1067.9 -4.55924 -0.313374 0
M  V30 11313 C 1068.89 -5.17962 0.448501 0
M  V30 11314 C 1066.58 -5.018 -0.224082 0
M  V30 11315 C 1068.57 -6.24264 1.28739 0
M  V30 11316 C 1066.26 -6.07963 0.618437 0
M  V30 11317 C 1067.26 -6.69061 1.3728 0
M  V30 11318 O 1066.94 -7.73173 2.20133 0
M  V30 11319 H 1066.68 -0.659466 -0.148596 0
M  V30 11320 H 1069.23 -2.04387 0.203779 0
M  V30 11321 H 1067.46 -3.29545 -2.02329 0
M  V30 11322 H 1069.15 -3.64314 -1.7897 0
M  V30 11323 H 1069.92 -4.83434 0.389395 0
M  V30 11324 H 1065.79 -4.53989 -0.80094 0
M  V30 11325 H 1069.34 -6.71883 1.87667 0
M  V30 11326 H 1065.24 -6.4192 0.678932 0
M  V30 11327 H 1066 -7.90276 2.13088 0
M  V30 11328 N 1068.67 0.153526 -1.5685 0
M  V30 11329 C 1069.91 0.865519 -1.82629 0
M  V30 11330 C 1070.24 1.81999 -0.700105 0
M  V30 11331 O 1069.51 1.93907 0.278744 0
M  V30 11332 H 1068.09 0.32261 -0.673745 0
M  V30 11333 H 1070.75 0.149088 -1.94329 0
M  V30 11334 H 1069.84 1.43171 -2.77324 0
M  V30 11335 N 1070.14 1.51827 0.422667 0
M  V30 11336 C 1071.37 1.69049 1.1929 0
M  V30 11337 C 1071.79 0.394095 1.84641 0
M  V30 11338 O 1071.14 -0.628731 1.71328 0
M  V30 11339 C 1071.2 2.81657 2.26609 0
M  V30 11340 O 1070.92 4.06275 1.63929 0
M  V30 11341 C 1072.42 3.10274 3.16615 0
M  V30 11342 H 1069.64 0.566894 0.358988 0
M  V30 11343 H 1072.18 1.98318 0.499029 0
M  V30 11344 H 1070.34 2.54945 2.91688 0
M  V30 11345 H 1070.75 4.68924 2.3497 0
M  V30 11346 H 1072.22 3.92613 3.88019 0
M  V30 11347 H 1072.7 2.23273 3.78214 0
M  V30 11348 H 1073.31 3.387 2.57221 0
M  V30 11349 N 1071.62 -0.679052 1.4222 0
M  V30 11350 C 1072.57 -1.81398 1.45594 0
M  V30 11351 C 1073.56 -1.66112 0.332127 0
M  V30 11352 O 1074.77 -1.72772 0.504942 0
M  V30 11353 H 1071.15 -0.598045 0.455902 0
M  V30 11354 H 1073.12 -1.7567 2.41211 0
M  V30 11355 C 1071.87 -3.19525 1.37109 0
M  V30 11356 H 1071.19 -3.31912 2.22878 0
M  V30 11357 H 1072.63 -3.98967 1.43531 0
M  V30 11358 C 1071.09 -3.36792 0.0853593 0
M  V30 11359 O 1071.62 -3.92309 -0.863532 0
M  V30 11360 N 1069.82 -2.906 0.00389229 0
M  V30 11361 H 1069.37 -2.45607 0.776846 0
M  V30 11362 H 1069.33 -3.0253 -0.855742 0
M  V30 11363 N 1073.1 -1.28322 -0.914942 0
M  V30 11364 C 1074.51 -1.13937 -1.47903 0
M  V30 11365 C 1074.86 0.271072 -1.94318 0
M  V30 11366 O 1073.99 1.16522 -1.8235 0
M  V30 11367 C 1074.58 -2.06221 -2.68809 0
M  V30 11368 C 1073.14 -1.95903 -3.21402 0
M  V30 11369 C 1072.29 -1.98031 -1.94111 0
M  V30 11370 H 1075.24 -1.41029 -0.727772 0
M  V30 11371 H 1075.26 -1.6255 -3.44031 0
M  V30 11372 H 1074.77 -3.08866 -2.34997 0
M  V30 11373 H 1072.87 -0.962907 -3.59943 0
M  V30 11374 H 1072.99 -2.82799 -3.86732 0
M  V30 11375 H 1071.35 -1.42423 -2.11158 0
M  V30 11376 H 1072.13 -3.02354 -1.62595 0
M  V30 11377 N 1074.58 1.12322 -1.10551 0
M  V30 11378 C 1075.51 2.20176 -0.777486 0
M  V30 11379 C 1076.49 1.68252 0.250069 0
M  V30 11380 O 1077.67 1.93856 0.115574 0
M  V30 11381 C 1074.8 3.46666 -0.209822 0
M  V30 11382 C 1073.76 4.11749 -1.1682 0
M  V30 11383 C 1073.08 5.32703 -0.461684 0
M  V30 11384 C 1074.38 4.57746 -2.51527 0
M  V30 11385 H 1076.08 2.47872 -1.67928 0
M  V30 11386 H 1073.62 1.19136 -0.808863 0
M  V30 11387 H 1075.58 4.21388 0.0318068 0
M  V30 11388 H 1074.3 3.18401 0.727226 0
M  V30 11389 H 1072.96 3.39009 -1.3953 0
M  V30 11390 H 1072.61 5.00706 0.479875 0
M  V30 11391 H 1072.31 5.77197 -1.1008 0
M  V30 11392 H 1073.83 6.10172 -0.228629 0
M  V30 11393 H 1075.25 5.23835 -2.32958 0
M  V30 11394 H 1073.64 5.13021 -3.11335 0
M  V30 11395 H 1074.71 3.71667 -3.11435 0
M  V30 11396 N 1076.06 0.894434 1.2976 0
M  V30 11397 C 1077 0.357958 2.29829 0
M  V30 11398 C 1078 -0.540093 1.6056 0
M  V30 11399 O 1079.2 -0.423478 1.74948 0
M  V30 11400 H 1075.58 0.0971183 0.745702 0
M  V30 11401 H 1077.55 1.21542 2.72526 0
M  V30 11402 C 1076.3 -0.404126 3.45343 0
M  V30 11403 H 1075.62 0.277671 3.98835 0
M  V30 11404 H 1077.06 -0.744446 4.17413 0
M  V30 11405 C 1075.52 -1.6048 2.96222 0
M  V30 11406 O 1076.05 -2.70414 2.97051 0
M  V30 11407 N 1074.26 -1.44517 2.52117 0
M  V30 11408 H 1073.8 -0.55082 2.51642 0
M  V30 11409 H 1073.76 -2.24987 2.1961 0
M  V30 11410 N 1077.53 -1.43282 0.656365 0
M  V30 11411 C 1078.95 -1.56272 0.324213 0
M  V30 11412 C 1079.15 -1.63946 -1.1715 0
M  V30 11413 O 1078.21 -1.59625 -1.95643 0
M  V30 11414 C 1079.52 -2.82204 1.03833 0
M  V30 11415 C 1081.07 -2.95952 1.01889 0
M  V30 11416 C 1081.54 -4.2472 1.71397 0
M  V30 11417 N 1083.03 -4.31591 1.68176 0
M  V30 11418 C 1083.77 -5.30001 2.1883 0
M  V30 11419 N 1083.26 -6.34671 2.77785 0
M  V30 11420 N 1085.06 -5.21676 2.09311 0
M  V30 11421 H 1077.21 -1.36544 1.62694 0
M  V30 11422 H 1079.47 -0.655999 0.684375 0
M  V30 11423 H 1079.18 -2.82608 2.09346 0
M  V30 11424 H 1079.05 -3.72527 0.591878 0
M  V30 11425 H 1081.44 -2.95087 -0.0278431 0
M  V30 11426 H 1081.52 -2.0691 1.50406 0
M  V30 11427 H 1081.16 -4.26346 2.76028 0
M  V30 11428 H 1081.09 -5.12665 1.20342 0
M  V30 11429 H 1083.58 -3.56573 1.25157 0
M  V30 11430 H 1083.9 -7.06087 3.14104 0
M  V30 11431 H 1082.24 -6.35285 2.81847 0
M  V30 11432 H 1085.43 -4.3882 1.62955 0
M  V30 11433 H 1085.61 -5.9821 2.49095 0
M  V30 11434 N 1079.01 -0.398486 -1.52479 0
M  V30 11435 C 1079.95 0.467426 -2.24383 0
M  V30 11436 C 1080.96 1.01908 -1.26959 0
M  V30 11437 O 1082.15 0.919843 -1.52974 0
M  V30 11438 C 1079.25 1.66146 -2.95379 0
M  V30 11439 C 1078.42 1.23557 -4.19586 0
M  V30 11440 C 1077.48 2.29532 -4.73499 0
M  V30 11441 O 1076.51 1.90561 -5.36354 0
M  V30 11442 N 1077.71 3.61564 -4.5415 0
M  V30 11443 H 1080.47 -0.148653 -2.99331 0
M  V30 11444 H 1078.03 -0.225313 -1.60325 0
M  V30 11445 H 1080.03 2.36585 -3.28344 0
M  V30 11446 H 1078.6 2.18369 -2.23682 0
M  V30 11447 H 1077.82 0.359715 -3.92555 0
M  V30 11448 H 1079.1 0.927812 -5.00269 0
M  V30 11449 H 1078.5 3.95983 -4.03998 0
M  V30 11450 H 1077.06 4.2801 -4.9158 0
M  V30 11451 N 1080.49 1.57075 -0.12858 0
M  V30 11452 C 1081.44 2.15816 0.818064 0
M  V30 11453 C 1082.41 1.08581 1.25696 0
M  V30 11454 O 1083.59 1.36535 1.33277 0
M  V30 11455 C 1080.73 2.76943 2.05905 0
M  V30 11456 C 1079.85 3.98514 1.66764 0
M  V30 11457 C 1078.98 4.47698 2.85902 0
M  V30 11458 C 1078.02 5.61778 2.43047 0
M  V30 11459 N 1077.16 6.05662 3.5513 0
M  V30 11460 H 1082 2.9638 0.310318 0
M  V30 11461 H 1079.53 1.46418 0.141472 0
M  V30 11462 H 1081.49 3.10519 2.78629 0
M  V30 11463 H 1080.12 1.99053 2.54122 0
M  V30 11464 H 1079.17 3.71038 0.838766 0
M  V30 11465 H 1080.49 4.81215 1.31277 0
M  V30 11466 H 1079.64 4.83233 3.66839 0
M  V30 11467 H 1078.38 3.63967 3.24622 0
M  V30 11468 H 1077.38 5.25838 1.60544 0
M  V30 11469 H 1078.61 6.47282 2.05433 0
M  V30 11470 H 1076.56 5.2487 3.93506 0
M  V30 11471 H 1076.47 6.83242 3.23598 0
M  V30 11472 H 1077.74 6.45838 4.36479 0
M  V30 11473 N 1081.97 -0.145205 1.5693 0
M  V30 11474 C 1082.9 -1.18096 2.01434 0
M  V30 11475 C 1083.88 -1.447 0.894204 0
M  V30 11476 O 1085.07 -1.55589 1.16214 0
M  V30 11477 C 1082.2 -2.51369 2.39647 0
M  V30 11478 C 1081.15 -2.39283 3.54863 0
M  V30 11479 C 1080.48 -3.77283 3.78895 0
M  V30 11480 C 1081.78 -1.8754 4.87469 0
M  V30 11481 H 1083.47 -0.810897 2.8821 0
M  V30 11482 H 1081.02 -0.388624 1.38657 0
M  V30 11483 H 1082.97 -3.24054 2.69382 0
M  V30 11484 H 1081.69 -2.90214 1.49811 0
M  V30 11485 H 1080.35 -1.6905 3.25296 0
M  V30 11486 H 1080 -4.13567 2.86307 0
M  V30 11487 H 1079.7 -3.70057 4.56433 0
M  V30 11488 H 1081.22 -4.51514 4.11057 0
M  V30 11489 H 1082.64 -2.50019 5.1591 0
M  V30 11490 H 1081.03 -1.912 5.68826 0
M  V30 11491 H 1082.1 -0.831194 4.77723 0
M  V30 11492 N 1083.45 -1.52049 -0.414609 0
M  V30 11493 C 1084.72 -1.56397 -1.17471 0
M  V30 11494 C 1085.1 -0.34171 -2.08316 0
M  V30 11495 O 1084.45 0.6718 -2.18401 0
M  V30 11496 C 1084.66 -2.88983 -1.95678 0
M  V30 11497 C 1086.01 -3.41781 -2.51935 0
M  V30 11498 O 1087.03 -2.90686 -2.05865 0
M  V30 11499 O 1085.89 -4.30989 -3.36022 0
M  V30 11500 H 1082.99 -0.62974 -0.536056 0
M  V30 11501 H 1085.53 -1.64374 -0.421834 0
M  V30 11502 H 1084.31 -3.69392 -1.29094 0
M  V30 11503 H 1083.93 -2.84274 -2.77983 0
M  V30 11504 N 1084.93 0.6715 -1.42579 0
M  V30 11505 C 1086.15 1.46471 -1.46836 0
M  V30 11506 C 1086.58 1.87921 -0.0820658 0
M  V30 11507 O 1085.93 1.5621 0.920217 0
M  V30 11508 C 1085.98 2.68796 -2.40377 0
M  V30 11509 O 1085.09 3.67188 -1.87741 0
M  V30 11510 H 1084.43 0.439901 -0.497376 0
M  V30 11511 H 1086.96 0.823342 -1.87303 0
M  V30 11512 H 1086.97 3.16828 -2.57068 0
M  V30 11513 H 1085.64 2.37967 -3.41093 0
M  V30 11514 H 1084.22 3.26237 -1.80621 0
M  V30 11515 N 1086.4 1.28806 0.908124 0
M  V30 11516 C 1087.35 1.13215 2.01125 0
M  V30 11517 C 1088.32 0.0277357 1.66077 0
M  V30 11518 O 1089.51 0.193707 1.89814 0
M  V30 11519 C 1086.65 0.805887 3.35558 0
M  V30 11520 C 1085.76 1.9899 3.83441 0
M  V30 11521 C 1084.89 1.60376 5.06412 0
M  V30 11522 C 1083.93 2.75409 5.46641 0
M  V30 11523 N 1083.07 2.37249 6.60801 0
M  V30 11524 H 1087.91 2.07598 2.13792 0
M  V30 11525 H 1085.45 1.03316 1.0471 0
M  V30 11526 H 1087.4 0.597451 4.129 0
M  V30 11527 H 1086.03 -0.101023 3.22642 0
M  V30 11528 H 1085.09 2.31029 3.02208 0
M  V30 11529 H 1086.4 2.85214 4.09212 0
M  V30 11530 H 1085.55 1.35772 5.91313 0
M  V30 11531 H 1084.29 0.712888 4.82462 0
M  V30 11532 H 1083.3 3.00705 4.60279 0
M  V30 11533 H 1084.52 3.65148 5.72577 0
M  V30 11534 H 1082.47 1.50638 6.3847 0
M  V30 11535 H 1082.38 3.17008 6.86325 0
M  V30 11536 H 1083.65 2.15943 7.48992 0
M  V30 11537 N 1087.88 -1.11734 1.11145 0
M  V30 11538 C 1088.83 -2.17683 0.766979 0
M  V30 11539 C 1089.8 -1.64051 -0.260108 0
M  V30 11540 O 1090.98 -1.90302 -0.137723 0
M  V30 11541 C 1088.12 -3.44442 0.212982 0
M  V30 11542 C 1087.24 -4.12094 1.29626 0
M  V30 11543 C 1086.37 -5.26526 0.703127 0
M  V30 11544 C 1085.41 -5.86057 1.76647 0
M  V30 11545 N 1084.55 -6.91889 1.19306 0
M  V30 11546 H 1089.39 -2.46495 1.67465 0
M  V30 11547 H 1086.92 -1.21011 0.836353 0
M  V30 11548 H 1088.88 -4.17009 -0.126162 0
M  V30 11549 H 1087.51 -3.16025 -0.657888 0
M  V30 11550 H 1086.56 -3.37631 1.75241 0
M  V30 11551 H 1087.88 -4.52398 2.10089 0
M  V30 11552 H 1087.03 -6.05888 0.313859 0
M  V30 11553 H 1085.77 -4.87519 -0.132856 0
M  V30 11554 H 1084.77 -5.05375 2.16508 0
M  V30 11555 H 1086 -6.27132 2.60543 0
M  V30 11556 H 1083.95 -6.54906 0.378664 0
M  V30 11557 H 1083.86 -7.30832 1.93443 0
M  V30 11558 H 1085.13 -7.75062 0.830578 0
M  V30 11559 N 1089.36 -0.901303 -1.29284 0
M  V30 11560 C 1090.29 -0.396909 -2.30102 0
M  V30 11561 C 1091.27 0.528919 -1.61668 0
M  V30 11562 O 1092.46 0.439306 -1.89166 0
M  V30 11563 C 1089.59 0.375006 -3.45269 0
M  V30 11564 C 1088.54 -0.46054 -4.25515 0
M  V30 11565 C 1087.87 0.438967 -5.32895 0
M  V30 11566 C 1089.17 -1.7113 -4.93469 0
M  V30 11567 H 1090.86 -1.23943 -2.72541 0
M  V30 11568 H 1088.41 -0.597428 -1.31022 0
M  V30 11569 H 1090.36 0.738622 -4.14876 0
M  V30 11570 H 1089.08 1.25132 -3.01678 0
M  V30 11571 H 1087.74 -0.80651 -3.57618 0
M  V30 11572 H 1087.39 1.31346 -4.85548 0
M  V30 11573 H 1087.09 -0.116406 -5.87485 0
M  V30 11574 H 1088.61 0.79874 -6.05353 0
M  V30 11575 H 1090.03 -1.41732 -5.55504 0
M  V30 11576 H 1088.42 -2.20811 -5.57999 0
M  V30 11577 H 1089.49 -2.44636 -4.18666 0
M  V30 11578 N 1090.84 1.42931 -0.663954 0
M  V30 11579 C 1091.77 2.33499 0.00731327 0
M  V30 11580 C 1092.75 1.50074 0.800733 0
M  V30 11581 O 1093.93 1.78708 0.760062 0
M  V30 11582 C 1091.06 3.33569 0.966897 0
M  V30 11583 C 1090.02 4.27064 0.282839 0
M  V30 11584 C 1089.34 5.17257 1.35461 0
M  V30 11585 C 1090.64 5.1564 -0.831438 0
M  V30 11586 H 1092.34 2.89879 -0.749044 0
M  V30 11587 H 1089.88 1.39385 -0.361656 0
M  V30 11588 H 1091.84 3.95833 1.44549 0
M  V30 11589 H 1090.56 2.75469 1.75455 0
M  V30 11590 H 1089.22 3.6618 -0.175417 0
M  V30 11591 H 1088.87 4.5549 2.13397 0
M  V30 11592 H 1088.57 5.80634 0.902098 0
M  V30 11593 H 1090.09 5.82395 1.83436 0
M  V30 11594 H 1091.51 5.71651 -0.434534 0
M  V30 11595 H 1089.9 5.87794 -1.20908 0
M  V30 11596 H 1090.97 4.54687 -1.68487 0
M  V30 11597 N 1092.32 0.406567 1.52266 0
M  V30 11598 C 1093.56 -0.169717 2.01386 0
M  V30 11599 C 1093.88 -1.45864 1.29417 0
M  V30 11600 O 1093.15 -1.9136 0.419327 0
M  V30 11601 H 1091.73 -0.0657075 0.744105 0
M  V30 11602 H 1094.4 0.542221 1.87206 0
M  V30 11603 H 1093.49 -0.367659 3.09927 0
M  V30 11604 N 1093.79 -1.57004 0.136909 0
M  V30 11605 C 1095.02 -2.00587 -0.527209 0
M  V30 11606 C 1095.44 -1.01628 -1.58283 0
M  V30 11607 O 1094.8 0.00946934 -1.81298 0
M  V30 11608 C 1094.85 -3.42967 -1.11384 0
M  V30 11609 O 1093.95 -3.46973 -2.22898 0
M  V30 11610 H 1093.3 -0.651155 -0.129976 0
M  V30 11611 H 1095.83 -2.03296 0.230667 0
M  V30 11612 H 1095.84 -3.81555 -1.44499 0
M  V30 11613 H 1094.51 -4.14502 -0.340736 0
M  V30 11614 H 1093.09 -3.20219 -1.91087 0
M  V30 11615 N 1095.27 0.136881 -1.57004 0
M  V30 11616 C 1096.2 1.17026 -2.02057 0
M  V30 11617 C 1097.18 1.44223 -0.901866 0
M  V30 11618 O 1098.37 1.54971 -1.17037 0
M  V30 11619 C 1095.5 2.50095 -2.40977 0
M  V30 11620 C 1094.45 2.37398 -3.56127 0
M  V30 11621 C 1093.78 3.75268 -3.80891 0
M  V30 11622 C 1095.08 1.84952 -4.88457 0
M  V30 11623 H 1096.77 0.795601 -2.88636 0
M  V30 11624 H 1094.32 0.381266 -1.38861 0
M  V30 11625 H 1096.27 3.22621 -2.71097 0
M  V30 11626 H 1095 2.89416 -1.51348 0
M  V30 11627 H 1093.65 1.67322 -3.26188 0
M  V30 11628 H 1093.3 4.12043 -2.88496 0
M  V30 11629 H 1093 3.67631 -4.5839 0
M  V30 11630 H 1094.53 4.49327 -4.13446 0
M  V30 11631 H 1095.94 2.4728 -5.17229 0
M  V30 11632 H 1094.34 1.88181 -5.69832 0
M  V30 11633 H 1095.41 0.805848 -4.78157 0
M  V30 11634 N 1096.75 1.52266 0.40654 0
M  V30 11635 C 1097.71 1.75168 1.47814 0
M  V30 11636 C 1098.71 0.621575 1.48301 0
M  V30 11637 O 1099.9 0.889476 1.4978 0
M  V30 11638 C 1097.04 1.83642 2.87208 0
M  V30 11639 H 1098.23 2.70834 1.28798 0
M  V30 11640 H 1095.78 1.42722 0.637196 0
M  V30 11641 H 1096.52 0.898994 3.1159 0
M  V30 11642 H 1096.3 2.65801 2.88257 0
M  V30 11643 H 1097.79 2.03093 3.64888 0
M  V30 11644 N 1098.23 -0.663929 1.42933 0
M  V30 11645 C 1099.45 -1.45691 1.47611 0
M  V30 11646 C 1099.88 -1.87875 0.0920305 0
M  V30 11647 O 1099.24 -1.56696 -0.91192 0
M  V30 11648 C 1099.28 -2.67517 2.41799 0
M  V30 11649 O 1098.39 -3.66187 1.89686 0
M  V30 11650 H 1097.73 -0.437257 0.499702 0
M  V30 11651 H 1100.26 -0.813397 1.87737 0
M  V30 11652 H 1100.27 -3.1546 2.58745 0
M  V30 11653 H 1098.94 -2.36155 3.4235 0
M  V30 11654 H 1097.52 -3.25274 1.82349 0
M  V30 11655 N 1099.71 -1.29285 -0.901281 0
M  V30 11656 C 1100.95 -1.17339 -1.65407 0
M  V30 11657 C 1101.29 0.274834 -1.92245 0
M  V30 11658 O 1100.56 1.19865 -1.53176 0
M  V30 11659 C 1100.84 -1.98547 -3.00418 0
M  V30 11660 C 1100.7 -3.51501 -2.80655 0
M  V30 11661 C 1102.02 -1.81062 -4.01129 0
M  V30 11662 H 1099.13 -0.427624 -0.600255 0
M  V30 11663 H 1101.78 -1.58741 -1.0441 0
M  V30 11664 H 1099.93 -1.63366 -3.52482 0
M  V30 11665 H 1101.6 -3.96655 -2.35505 0
M  V30 11666 H 1099.84 -3.76504 -2.15469 0
M  V30 11667 H 1100.51 -4.03593 -3.76585 0
M  V30 11668 H 1102.99 -2.11788 -3.58169 0
M  V30 11669 H 1101.86 -2.40235 -4.93536 0
M  V30 11670 H 1102.13 -0.765388 -4.35424 0
M  V30 11671 N 1101.18 1.11143 -1.11736 0
M  V30 11672 C 1102.43 1.82948 -0.868127 0
M  V30 11673 C 1102.76 1.84813 0.606182 0
M  V30 11674 O 1102.01 1.29901 1.4637 0
M  V30 11675 C 1102.31 3.29733 -1.3788 0
M  V30 11676 C 1101.98 3.48025 -2.86687 0
M  V30 11677 C 1100.64 3.52725 -3.2732 0
M  V30 11678 C 1102.99 3.54024 -3.82513 0
M  V30 11679 C 1100.32 3.60983 -4.62502 0
M  V30 11680 C 1102.67 3.63814 -5.17515 0
M  V30 11681 C 1101.34 3.66776 -5.57702 0
M  V30 11682 H 1100.61 0.669452 -0.31767 0
M  V30 11683 H 1103.25 1.31057 -1.3963 0
M  V30 11684 H 1101.56 3.8414 -0.77093 0
M  V30 11685 H 1103.26 3.83787 -1.16225 0
M  V30 11686 H 1099.85 3.45039 -2.54256 0
M  V30 11687 H 1104.03 3.4965 -3.52219 0
M  V30 11688 H 1099.29 3.61554 -4.9304 0
M  V30 11689 H 1103.46 3.674 -5.916 0
M  V30 11690 H 1101.09 3.72927 -6.62442 0
M  V30 11691 N 1102.66 0.908147 1.28804 0
M  V30 11692 C 1103.91 0.539201 1.95501 0
M  V30 11693 C 1104.24 -0.913759 1.7136 0
M  V30 11694 O 1103.52 -1.64904 1.03136 0
M  V30 11695 C 1103.8 0.842372 3.50109 0
M  V30 11696 C 1103.65 2.34765 3.83673 0
M  V30 11697 C 1104.97 0.334658 4.38826 0
M  V30 11698 H 1102.09 0.197373 0.71008 0
M  V30 11699 H 1104.73 1.13637 1.52272 0
M  V30 11700 H 1102.88 0.334143 3.8706 0
M  V30 11701 H 1104.55 2.92607 3.56621 0
M  V30 11702 H 1102.8 2.80494 3.30916 0
M  V30 11703 H 1103.47 2.51034 4.91616 0
M  V30 11704 H 1105.94 0.769961 4.08914 0
M  V30 11705 H 1104.82 0.575914 5.4587 0
M  V30 11706 H 1105.08 -0.764878 4.35433 0
M  V30 11707 N 1104.14 -1.42577 0.671525 0
M  V30 11708 C 1105.56 -1.5592 0.340769 0
M  V30 11709 C 1105.76 -1.65179 -1.15405 0
M  V30 11710 O 1104.81 -1.61691 -1.93939 0
M  V30 11711 C 1106.13 -2.81087 1.06821 0
M  V30 11712 C 1107.67 -2.94855 1.05022 0
M  V30 11713 C 1108.15 -4.22878 1.75892 0
M  V30 11714 N 1109.64 -4.29783 1.72744 0
M  V30 11715 C 1110.37 -5.2765 2.24439 0
M  V30 11716 N 1109.87 -6.31689 2.84501 0
M  V30 11717 N 1111.66 -5.19426 2.14832 0
M  V30 11718 H 1103.81 -1.34811 1.64133 0
M  V30 11719 H 1106.08 -0.648704 0.691294 0
M  V30 11720 H 1105.78 -2.80371 2.12332 0
M  V30 11721 H 1105.66 -3.71879 0.631356 0
M  V30 11722 H 1108.04 -2.951 0.00345633 0
M  V30 11723 H 1108.13 -2.05303 1.52592 0
M  V30 11724 H 1107.77 -4.23394 2.80535 0
M  V30 11725 H 1107.7 -5.1136 1.25773 0
M  V30 11726 H 1110.19 -3.55225 1.28932 0
M  V30 11727 H 1110.5 -7.02715 3.21575 0
M  V30 11728 H 1108.85 -6.3226 2.88569 0
M  V30 11729 H 1112.04 -4.37067 1.676 0
M  V30 11730 H 1112.21 -5.95535 2.55426 0
M  V30 11731 N 1105.62 -0.414636 -1.52048 0
M  V30 11732 C 1106.55 0.399119 -2.30064 0
M  V30 11733 C 1107.53 1.04126 -1.34506 0
M  V30 11734 O 1108.71 1.04923 -1.63416 0
M  V30 11735 C 1105.84 1.51305 -3.12608 0
M  V30 11736 C 1104.8 0.995621 -4.16259 0
M  V30 11737 C 1104.12 2.20357 -4.87183 0
M  V30 11738 C 1105.42 0.0458178 -5.2228 0
M  V30 11739 H 1107.12 -0.251879 -2.98339 0
M  V30 11740 H 1104.66 -0.122579 -1.43477 0
M  V30 11741 H 1106.62 2.08936 -3.65956 0
M  V30 11742 H 1105.34 2.19201 -2.42113 0
M  V30 11743 H 1104 0.441676 -3.6393 0
M  V30 11744 H 1103.65 2.8682 -4.13211 0
M  V30 11745 H 1103.35 1.86385 -5.57256 0
M  V30 11746 H 1104.87 2.78584 -5.43345 0
M  V30 11747 H 1106.29 0.531102 -5.70835 0
M  V30 11748 H 1104.68 -0.20536 -5.99749 0
M  V30 11749 H 1105.75 -0.897807 -4.76516 0
M  V30 11750 N 1107.1 1.56929 -0.145233 0
M  V30 11751 C 1108.51 1.82877 0.375884 0
M  V30 11752 C 1108.86 1.06384 1.64854 0
M  V30 11753 O 1107.98 0.30857 2.14189 0
M  V30 11754 C 1108.58 3.31725 0.688744 0
M  V30 11755 C 1107.14 3.58261 1.15439 0
M  V30 11756 C 1106.28 2.76737 0.176565 0
M  V30 11757 H 1109.24 1.54328 -0.36996 0
M  V30 11758 H 1109.26 3.47784 1.54359 0
M  V30 11759 H 1108.77 3.87371 -0.237694 0
M  V30 11760 H 1106.87 3.08 2.09683 0
M  V30 11761 H 1106.98 4.66732 1.08158 0
M  V30 11762 H 1105.35 2.45761 0.668843 0
M  V30 11763 H 1106.13 3.35154 -0.743432 0
M  V30 11764 N 1108.58 -0.128553 1.57075 0
M  V30 11765 C 1109.82 -0.844012 1.86161 0
M  V30 11766 C 1110.18 -1.77499 0.73198 0
M  V30 11767 O 1111.38 -2.5313 0.904357 0
M  V30 11768 C 1109.65 -1.58238 3.20462 0
M  V30 11769 S 1111.21 -2.34073 3.71154 0
M  V30 11770 H 1108.03 -0.281884 0.652734 0
M  V30 11771 H 1110.63 -0.102902 1.95229 0
M  V30 11772 H 1109.33 -0.890246 4.00628 0
M  V30 11773 H 1108.87 -2.36404 3.14446 0
M  V30 11774 H 1110.88 -3.59617 3.41892 0
M  V30 11775 N 1110.05 -1.5248 -0.398459 0
M  V30 11776 C 1111.3 -1.66731 -1.14215 0
M  V30 11777 C 1111.62 -0.404957 -1.90749 0
M  V30 11778 O 1110.89 0.580434 -1.87104 0
M  V30 11779 H 1109.47 -0.614577 -0.424622 0
M  V30 11780 H 1112.13 -1.89561 -0.453059 0
M  V30 11781 H 1111.23 -2.51336 -1.85031 0
M  V30 11782 N 1111.53 0.65634 -1.43283 0
M  V30 11783 C 1112.78 1.41347 -1.44449 0
M  V30 11784 C 1113.1 1.94879 -0.0687217 0
M  V30 11785 O 1112.37 1.74235 0.895492 0
M  V30 11786 H 1110.95 0.524578 -0.531815 0
M  V30 11787 H 1113.61 0.774292 -1.7886 0
M  V30 11788 H 1112.71 2.25737 -2.15521 0
M  V30 11789 N 1113.01 1.29761 0.894412 0
M  V30 11790 C 1114.26 1.18214 1.64782 0
M  V30 11791 C 1114.59 -0.264635 1.92388 0
M  V30 11792 O 1113.86 -1.19051 1.53809 0
M  V30 11793 C 1114.15 2.00138 2.99361 0
M  V30 11794 C 1114 3.52984 2.78787 0
M  V30 11795 C 1115.32 1.83187 4.00163 0
M  V30 11796 H 1112.44 0.430802 0.597979 0
M  V30 11797 H 1115.08 1.59292 1.03566 0
M  V30 11798 H 1113.23 1.65233 3.51611 0
M  V30 11799 H 1114.9 3.97898 2.33398 0
M  V30 11800 H 1113.14 3.77642 2.13469 0
M  V30 11801 H 1113.82 4.05585 3.7444 0
M  V30 11802 H 1116.29 2.13684 3.57041 0
M  V30 11803 H 1115.17 2.42849 4.92255 0
M  V30 11804 H 1115.43 0.788469 4.35012 0
M  V30 11805 N 1114.49 -1.10549 1.12324 0
M  V30 11806 C 1115.74 -1.82124 0.876083 0
M  V30 11807 C 1116.06 -1.85547 -0.599761 0
M  V30 11808 O 1115.33 -1.33269 -1.43584 0
M  V30 11809 H 1113.91 -0.674455 0.321122 0
M  V30 11810 H 1116.57 -1.33766 1.41748 0
M  V30 11811 H 1115.66 -2.85688 1.25653 0
M  V30 11812 N 1115.97 -0.914965 -1.28321 0
M  V30 11813 C 1117.21 -0.549562 -1.95212 0
M  V30 11814 C 1117.54 0.904658 -1.71842 0
M  V30 11815 O 1116.82 1.64354 -1.04009 0
M  V30 11816 C 1117.1 -0.860927 -3.49657 0
M  V30 11817 C 1116.96 -2.36797 -3.82423 0
M  V30 11818 C 1118.27 -0.357926 -4.38642 0
M  V30 11819 H 1115.39 -0.201136 -0.709023 0
M  V30 11820 H 1118.04 -1.14443 -1.51667 0
M  V30 11821 H 1116.19 -0.354665 -3.86878 0
M  V30 11822 H 1117.86 -2.94494 -3.55065 0
M  V30 11823 H 1116.1 -2.82245 -3.29424 0
M  V30 11824 H 1116.77 -2.53637 -4.90278 0
M  V30 11825 H 1119.25 -0.791636 -4.085 0
M  V30 11826 H 1118.12 -0.604855 -5.45557 0
M  V30 11827 H 1118.38 0.741775 -4.35833 0
M  V30 11828 N 1117.44 1.42219 -0.679077 0
M  V30 11829 C 1118.72 1.95155 -0.13188 0
M  V30 11830 C 1119.1 1.6193 1.35433 0
M  V30 11831 O 1118.45 0.917672 2.09263 0
M  V30 11832 C 1118.66 3.46635 -0.405578 0
M  V30 11833 C 1120.01 4.23359 -0.324394 0
M  V30 11834 O 1121.03 3.54578 -0.339564 0
M  V30 11835 O 1119.89 5.45831 -0.270268 0
M  V30 11836 H 1116.98 0.826983 -0.00535438 0
M  V30 11837 H 1119.53 1.52024 -0.754101 0
M  V30 11838 H 1118.3 3.6404 -1.43495 0
M  V30 11839 H 1117.92 3.96823 0.248439 0
M  V30 11840 N 1118.92 0.422693 1.51826 0
M  V30 11841 C 1120.15 -0.15017 2.06856 0
M  V30 11842 C 1120.57 -1.36946 1.28948 0
M  V30 11843 O 1119.93 -1.78393 0.32338 0
M  V30 11844 C 1119.98 -0.465563 3.57582 0
M  V30 11845 O 1119.08 -1.55442 3.81984 0
M  V30 11846 H 1118.42 -0.00827931 0.663948 0
M  V30 11847 H 1120.95 0.599806 1.95611 0
M  V30 11848 H 1120.96 -0.720279 4.01592 0
M  V30 11849 H 1119.64 0.425679 4.13716 0
M  V30 11850 H 1118.21 -1.29081 3.49846 0
M  V30 11851 N 1120.4 -1.5685 0.153553 0
M  V30 11852 C 1121.68 -1.8796 -0.541328 0
M  V30 11853 C 1122.06 -1.06059 -1.82523 0
M  V30 11854 O 1121.4 -0.149295 -2.28012 0
M  V30 11855 C 1121.61 -3.39697 -0.800442 0
M  V30 11856 C 1122.96 -4.09057 -1.13832 0
M  V30 11857 O 1123.99 -3.44913 -0.889578 0
M  V30 11858 O 1122.85 -5.22347 -1.60673 0
M  V30 11859 H 1119.94 -0.779268 -0.276895 0
M  V30 11860 H 1122.49 -1.68626 0.190657 0
M  V30 11861 H 1121.26 -3.91151 0.107935 0
M  V30 11862 H 1120.88 -3.64582 -1.58638 0
M  V30 11863 N 1121.88 0.120221 -1.57141 0
M  V30 11864 C 1123.11 0.842441 -1.88972 0
M  V30 11865 C 1123.52 1.73494 -0.744671 0
M  V30 11866 O 1122.88 1.80268 0.284557 0
M  V30 11867 C 1122.93 1.67688 -3.20254 0
M  V30 11868 O 1122.65 0.820319 -4.30351 0
M  V30 11869 C 1124.15 2.50436 -3.65782 0
M  V30 11870 H 1121.37 0.242241 -0.625748 0
M  V30 11871 H 1123.91 0.104978 -2.0423 0
M  V30 11872 H 1122.07 2.36712 -3.0667 0
M  V30 11873 H 1122.48 1.39575 -5.05588 0
M  V30 11874 H 1123.96 3.04518 -4.60405 0
M  V30 11875 H 1124.43 3.27737 -2.92378 0
M  V30 11876 H 1125.04 1.86657 -3.82151 0
M  V30 11877 N 1123.36 1.52689 0.390367 0
M  V30 11878 C 1124.61 1.6689 1.13272 0
M  V30 11879 C 1124.92 0.414433 1.91159 0
M  V30 11880 O 1126.12 0.436559 2.67967 0
M  V30 11881 C 1124.58 2.94929 2.06264 0
M  V30 11882 C 1124.19 4.27551 1.33805 0
M  V30 11883 C 1125.93 3.18497 2.80642 0
M  V30 11884 C 1123.84 5.46698 2.25554 0
M  V30 11885 H 1122.77 0.621749 0.426549 0
M  V30 11886 H 1125.42 1.79185 0.395615 0
M  V30 11887 H 1123.8 2.76378 2.83604 0
M  V30 11888 H 1124.98 4.56651 0.616997 0
M  V30 11889 H 1123.29 4.10234 0.713913 0
M  V30 11890 H 1125.89 4.04693 3.49467 0
M  V30 11891 H 1126.23 2.33511 3.44642 0
M  V30 11892 H 1126.76 3.37607 2.10395 0
M  V30 11893 H 1123.5 6.34088 1.66171 0
M  V30 11894 H 1123.02 5.21913 2.95579 0
M  V30 11895 H 1124.7 5.80519 2.85668 0
M  V30 11896 N 1124.83 -0.648732 1.43629 0
M  V30 11897 C 1126.08 -1.40898 1.46695 0
M  V30 11898 C 1126.44 -1.92183 0.0914565 0
M  V30 11899 O 1125.73 -1.69642 -0.890623 0
M  V30 11900 C 1125.92 -2.60394 2.44806 0
M  V30 11901 C 1125.75 -2.20805 3.91759 0
M  V30 11902 C 1124.52 -2.08918 4.60088 0
M  V30 11903 C 1126.72 -1.80811 4.81469 0
M  V30 11904 N 1124.7 -1.62707 5.91946 0
M  V30 11905 C 1126.07 -1.45715 6.02633 0
M  V30 11906 C 1128.13 -1.68034 4.68689 0
M  V30 11907 C 1126.83 -0.991224 7.12438 0
M  V30 11908 C 1128.86 -1.22846 5.78501 0
M  V30 11909 C 1128.22 -0.886902 6.98794 0
M  V30 11910 H 1124.32 -0.511063 0.591894 0
M  V30 11911 H 1126.9 -0.746064 1.79839 0
M  V30 11912 H 1125.07 -3.24338 2.13681 0
M  V30 11913 H 1126.8 -3.27115 2.38281 0
M  V30 11914 H 1123.56 -2.28818 4.14656 0
M  V30 11915 H 1123.98 -1.41951 6.61951 0
M  V30 11916 H 1128.63 -1.93078 3.76139 0
M  V30 11917 H 1126.34 -0.728271 8.04812 0
M  V30 11918 H 1129.93 -1.13443 5.70633 0
M  V30 11919 H 1128.81 -0.542577 7.82321 0
M  V30 11920 N 1126.31 -1.30234 -0.887518 0
M  V30 11921 C 1127.26 -1.16302 -2.01436 0
M  V30 11922 C 1128.25 -0.0755422 -1.69231 0
M  V30 11923 O 1129.46 -0.236213 -1.78443 0
M  V30 11924 H 1125.84 -0.35961 -0.660443 0
M  V30 11925 H 1127.81 -2.11677 -2.10322 0
M  V30 11926 C 1126.56 -0.869009 -3.36665 0
M  V30 11927 H 1125.88 -1.69787 -3.61956 0
M  V30 11928 H 1127.32 -0.811621 -4.16159 0
M  V30 11929 C 1125.78 0.428021 -3.3417 0
M  V30 11930 O 1126.31 1.45033 -3.74604 0
M  V30 11931 N 1124.51 0.438264 -2.87276 0
M  V30 11932 H 1124.06 -0.394142 -2.54567 0
M  V30 11933 H 1124.02 1.30604 -2.85989 0
M  V30 11934 N 1127.79 1.09952 -1.12909 0
M  V30 11935 C 1128.7 2.19999 -0.81471 0
M  V30 11936 C 1129.72 1.72864 0.19851 0
M  V30 11937 O 1130.89 2.01376 0.0308832 0
M  V30 11938 C 1127.96 3.45573 -0.279363 0
M  V30 11939 C 1127.02 4.07417 -1.35314 0
M  V30 11940 C 1126.25 5.26996 -0.843247 0
M  V30 11941 O 1126.47 5.69495 0.321164 0
M  V30 11942 O 1125.41 5.79826 -1.61511 0
M  V30 11943 H 1129.23 2.49333 -1.73398 0
M  V30 11944 H 1126.82 1.18784 -0.906128 0
M  V30 11945 H 1128.7 4.21398 0.0140531 0
M  V30 11946 H 1127.38 3.17854 0.612401 0
M  V30 11947 H 1126.28 3.33253 -1.6998 0
M  V30 11948 H 1127.62 4.39349 -2.21885 0
M  V30 11949 N 1129.27 0.921757 1.27833 0
M  V30 11950 C 1130.51 0.559906 1.94918 0
M  V30 11951 C 1130.85 -0.895532 1.72319 0
M  V30 11952 O 1130.12 -1.638 1.04879 0
M  V30 11953 C 1130.41 0.879458 3.49196 0
M  V30 11954 C 1130.26 2.38821 3.81162 0
M  V30 11955 C 1131.58 0.381183 4.38446 0
M  V30 11956 H 1128.7 0.204893 0.707946 0
M  V30 11957 H 1131.34 1.15246 1.51058 0
M  V30 11958 H 1129.49 0.375177 3.86684 0
M  V30 11959 H 1131.16 2.96373 3.53498 0
M  V30 11960 H 1129.4 2.83988 3.27923 0
M  V30 11961 H 1130.07 2.56234 4.88926 0
M  V30 11962 H 1132.55 0.813289 4.08075 0
M  V30 11963 H 1131.43 0.633778 5.45229 0
M  V30 11964 H 1131.69 -0.718651 4.3622 0
M  V30 11965 N 1130.75 -1.41857 0.686609 0
M  V30 11966 C 1131.7 -2.27999 -0.00734666 0
M  V30 11967 C 1132.68 -1.41723 -0.761808 0
M  V30 11968 O 1133.87 -1.65072 -0.638776 0
M  V30 11969 C 1131 -3.29909 -0.949462 0
M  V30 11970 C 1130.09 -4.23666 -0.191722 0
M  V30 11971 N 1130.48 -4.99277 0.809715 0
M  V30 11972 C 1128.78 -4.43937 -0.428489 0
M  V30 11973 C 1129.48 -5.67834 1.2625 0
M  V30 11974 N 1128.45 -5.40387 0.590151 0
M  V30 11975 H 1132.26 -2.83887 0.760608 0
M  V30 11976 H 1129.77 -1.53962 0.516676 0
M  V30 11977 H 1131.77 -3.90436 -1.46169 0
M  V30 11978 H 1130.43 -2.75582 -1.71711 0
M  V30 11979 H 1131.44 -5.04051 1.18966 0
M  V30 11980 H 1128.11 -4.00633 -1.17472 0
M  V30 11981 H 1129.5 -6.38469 2.09301 0
M  V30 11982 N 1132.22 -0.430739 -1.51599 0
M  V30 11983 C 1133.45 0.139197 -2.06932 0
M  V30 11984 C 1133.87 1.3626 -1.29672 0
M  V30 11985 O 1133.23 1.78219 -0.332836 0
M  V30 11986 C 1133.28 0.446593 -3.57824 0
M  V30 11987 O 1132.38 1.53414 -3.82803 0
M  V30 11988 H 1131.73 0.00475812 -0.663983 0
M  V30 11989 H 1134.26 -0.610171 -1.9529 0
M  V30 11990 H 1134.27 0.698972 -4.01968 0
M  V30 11991 H 1132.94 -0.447613 -4.13484 0
M  V30 11992 H 1131.52 1.27224 -3.50526 0
M  V30 11993 N 1133.7 1.56767 -0.161869 0
M  V30 11994 C 1134.67 2.16299 0.758104 0
M  V30 11995 C 1135.67 1.10859 1.16478 0
M  V30 11996 O 1136.86 1.36422 1.08327 0
M  V30 11997 C 1133.99 2.73819 2.03067 0
M  V30 11998 H 1135.18 2.98938 0.239992 0
M  V30 11999 H 1132.73 1.56054 0.0876532 0
M  V30 12000 H 1133.47 1.94887 2.59209 0
M  V30 12001 H 1133.25 3.50974 1.74813 0
M  V30 12002 H 1134.74 3.19638 2.68741 0
M  V30 12003 N 1135.18 -0.111886 1.57202 0
M  V30 12004 C 1136.43 -0.816794 1.84859 0
M  V30 12005 C 1136.75 -1.80079 0.748113 0
M  V30 12006 O 1136.02 -1.94578 -0.227235 0
M  V30 12007 H 1134.6 -0.304633 0.682061 0
M  V30 12008 H 1137.26 -0.097513 1.94656 0
M  V30 12009 H 1136.36 -1.35768 2.81022 0
M  V30 12010 N 1136.66 -1.52894 -0.382264 0
M  V30 12011 C 1137.62 -1.77497 -1.45008 0
M  V30 12012 C 1138.62 -0.64509 -1.47293 0
M  V30 12013 O 1139.81 -0.913192 -1.48346 0
M  V30 12014 C 1136.94 -1.88188 -2.8425 0
M  V30 12015 H 1138.14 -2.72849 -1.24473 0
M  V30 12016 H 1135.69 -1.43717 -0.61441 0
M  V30 12017 H 1136.42 -0.948451 -3.10121 0
M  V30 12018 H 1136.21 -2.70353 -2.83992 0
M  V30 12019 H 1137.7 -2.08873 -3.6161 0
M  V30 12020 N 1138.14 0.641106 -1.43971 0
M  V30 12021 C 1139.1 1.73539 -1.49723 0
M  V30 12022 C 1140.1 1.56235 -0.380438 0
M  V30 12023 O 1141.29 1.61912 -0.642673 0
M  V30 12024 C 1138.42 3.1253 -1.36153 0
M  V30 12025 H 1139.62 1.69816 -2.47189 0
M  V30 12026 H 1137.17 0.853867 -1.30915 0
M  V30 12027 H 1137.9 3.21856 -0.39742 0
M  V30 12028 H 1137.69 3.26496 -2.17124 0
M  V30 12029 H 1139.18 3.92303 -1.43138 0
M  V30 12030 N 1139.62 1.30703 0.880598 0
M  V30 12031 C 1141.03 1.09129 1.1646 0
M  V30 12032 C 1141.23 -0.145131 2.00977 0
M  V30 12033 O 1140.29 -0.837502 2.38206 0
M  V30 12034 C 1141.6 2.35717 1.86703 0
M  V30 12035 C 1143.15 2.41224 1.9945 0
M  V30 12036 C 1143.62 3.67665 2.73105 0
M  V30 12037 N 1145.11 3.68498 2.80648 0
M  V30 12038 C 1145.85 4.63024 3.38225 0
M  V30 12039 N 1145.35 5.67898 3.96817 0
M  V30 12040 N 1147.14 4.50561 3.36082 0
M  V30 12041 H 1139.29 2.10019 0.317164 0
M  V30 12042 H 1141.55 0.925994 0.203072 0
M  V30 12043 H 1141.26 3.2597 1.32046 0
M  V30 12044 H 1141.13 2.447 2.87057 0
M  V30 12045 H 1143.52 1.51446 2.53275 0
M  V30 12046 H 1143.6 2.36212 0.981704 0
M  V30 12047 H 1143.24 4.57803 2.19951 0
M  V30 12048 H 1143.17 3.69939 3.7477 0
M  V30 12049 H 1145.67 2.92681 2.39053 0
M  V30 12050 H 1145.98 6.3612 4.3883 0
M  V30 12051 H 1144.32 5.71685 3.95223 0
M  V30 12052 H 1147.51 3.67811 2.89539 0
M  V30 12053 H 1147.69 5.24408 3.80657 0
M  V30 12054 N 1141.09 -1.09351 1.1349 0
M  V30 12055 C 1142.02 -2.18037 0.835588 0
M  V30 12056 C 1143 -1.68856 -0.205373 0
M  V30 12057 O 1144.19 -1.94094 -0.0641357 0
M  V30 12058 C 1141.32 -3.45987 0.301661 0
M  V30 12059 C 1140.27 -4.08507 1.27696 0
M  V30 12060 C 1139.6 -5.31292 0.602758 0
M  V30 12061 C 1140.9 -4.50916 2.63575 0
M  V30 12062 H 1142.59 -2.43332 1.74441 0
M  V30 12063 H 1140.14 -1.1695 0.840166 0
M  V30 12064 H 1142.09 -4.21324 0.079928 0
M  V30 12065 H 1140.82 -3.20217 -0.642552 0
M  V30 12066 H 1139.48 -3.3519 1.4847 0
M  V30 12067 H 1139.12 -5.01802 -0.346953 0
M  V30 12068 H 1138.82 -5.74075 1.25345 0
M  V30 12069 H 1140.35 -6.09351 0.390325 0
M  V30 12070 H 1141.76 -5.17474 2.46765 0
M  V30 12071 H 1140.16 -5.04586 3.24827 0
M  V30 12072 H 1141.23 -3.63279 3.2118 0
M  V30 12073 N 1142.57 -0.928524 -1.27343 0
M  V30 12074 C 1143.53 -0.43292 -2.25074 0
M  V30 12075 C 1144.53 0.448976 -1.54405 0
M  V30 12076 O 1145.72 0.249939 -1.72398 0
M  V30 12077 C 1142.86 0.377539 -3.38803 0
M  V30 12078 H 1144.05 -1.29642 -2.70431 0
M  V30 12079 H 1141.6 -0.709289 -1.3928 0
M  V30 12080 H 1142.34 1.25982 -2.98829 0
M  V30 12081 H 1142.12 -0.254782 -3.91271 0
M  V30 12082 H 1143.61 0.714634 -4.1144 0
M  V30 12083 N 1144.05 1.41491 -0.694123 0
M  V30 12084 C 1145.3 2.0155 -0.224809 0
M  V30 12085 C 1145.63 1.54844 1.17205 0
M  V30 12086 O 1144.9 0.75899 1.7908 0
M  V30 12087 C 1145.19 3.59003 -0.280884 0
M  V30 12088 C 1145.04 4.15839 -1.71458 0
M  V30 12089 C 1146.36 4.38624 0.360122 0
M  V30 12090 H 1143.48 0.732293 -0.0831632 0
M  V30 12091 H 1146.12 1.68258 -0.882569 0
M  V30 12092 H 1144.27 3.87496 0.279164 0
M  V30 12093 H 1145.94 3.98227 -2.32837 0
M  V30 12094 H 1144.18 3.70936 -2.2492 0
M  V30 12095 H 1144.86 5.24997 -1.70536 0
M  V30 12096 H 1147.33 4.15936 -0.11683 0
M  V30 12097 H 1146.21 5.48132 0.290337 0
M  V30 12098 H 1146.47 4.1797 1.44062 0
M  V30 12099 N 1145.53 0.438773 1.51369 0
M  V30 12100 C 1146.78 -0.126962 2.01701 0
M  V30 12101 C 1147.1 -1.43086 1.32481 0
M  V30 12102 O 1146.37 -1.90427 0.459823 0
M  V30 12103 H 1144.95 -0.0499092 0.745331 0
M  V30 12104 H 1147.61 0.581808 1.86013 0
M  V30 12105 H 1146.7 -0.301836 3.10637 0
M  V30 12106 N 1147.01 -1.56678 0.170181 0
M  V30 12107 C 1148.25 -1.98743 -0.477534 0
M  V30 12108 C 1148.61 -1.0538 -1.60497 0
M  V30 12109 O 1149.81 -1.3658 -2.31515 0
M  V30 12110 C 1148.08 -3.44565 -0.949186 0
M  V30 12111 S 1149.64 -4.08658 -1.59824 0
M  V30 12112 H 1146.46 -0.694202 -0.153639 0
M  V30 12113 H 1149.06 -1.93663 0.267373 0
M  V30 12114 H 1147.76 -4.1023 -0.118205 0
M  V30 12115 H 1147.3 -3.53409 -1.72816 0
M  V30 12116 H 1149.31 -4.03614 -2.88635 0
M  V30 12117 N 1148.48 0.103547 -1.57259 0
M  V30 12118 C 1149.73 0.809774 -1.85931 0
M  V30 12119 C 1150.06 1.78791 -0.758122 0
M  V30 12120 O 1149.34 1.93079 0.234682 0
M  V30 12121 C 1149.62 1.54601 -3.25224 0
M  V30 12122 C 1149.47 0.586439 -4.45961 0
M  V30 12123 C 1150.79 2.4986 -3.62296 0
M  V30 12124 H 1147.91 0.29293 -0.676285 0
M  V30 12125 H 1150.55 0.0736065 -1.89857 0
M  V30 12126 H 1148.7 2.17355 -3.22008 0
M  V30 12127 H 1150.38 -0.0334441 -4.61288 0
M  V30 12128 H 1148.62 -0.10085 -4.33683 0
M  V30 12129 H 1149.29 1.13855 -5.40131 0
M  V30 12130 H 1151.77 1.97203 -3.66402 0
M  V30 12131 H 1150.64 2.98396 -4.60707 0
M  V30 12132 H 1150.9 3.33233 -2.90531 0
M  V30 12133 N 1149.96 1.53094 0.37415 0
M  V30 12134 C 1151.21 1.69111 1.11934 0
M  V30 12135 C 1151.54 0.437252 1.89213 0
M  V30 12136 O 1150.82 -0.565298 1.86104 0
M  V30 12137 C 1151.1 2.93559 2.08554 0
M  V30 12138 C 1150.95 4.29082 1.3494 0
M  V30 12139 C 1152.27 3.13586 3.08791 0
M  V30 12140 H 1149.39 0.615383 0.405553 0
M  V30 12141 H 1152.03 1.85719 0.401078 0
M  V30 12142 H 1150.18 2.79531 2.69805 0
M  V30 12143 H 1151.85 4.54906 0.765402 0
M  V30 12144 H 1150.1 4.28884 0.651238 0
M  V30 12145 H 1150.77 5.12275 2.05616 0
M  V30 12146 H 1153.24 3.26743 2.57639 0
M  V30 12147 H 1152.12 4.02112 3.73627 0
M  V30 12148 H 1152.38 2.28475 3.78486 0
M  V30 12149 N 1151.44 -0.633461 1.44309 0
M  V30 12150 C 1152.35 -1.77428 1.53481 0
M  V30 12151 C 1153.37 -1.68839 0.420628 0
M  V30 12152 O 1154.54 -1.89658 0.677638 0
M  V30 12153 C 1151.61 -3.13801 1.47409 0
M  V30 12154 C 1150.67 -3.34039 2.6966 0
M  V30 12155 C 1149.9 -4.63907 2.63868 0
M  V30 12156 O 1150.12 -5.44559 1.69741 0
M  V30 12157 O 1149.06 -4.86295 3.54684 0
M  V30 12158 H 1152.88 -1.72642 2.49857 0
M  V30 12159 H 1150.47 -0.794399 1.26529 0
M  V30 12160 H 1152.35 -3.95101 1.46537 0
M  V30 12161 H 1151.03 -3.19134 0.541769 0
M  V30 12162 H 1149.93 -2.52427 2.761 0
M  V30 12163 H 1151.27 -3.33566 3.61931 0
M  V30 12164 N 1152.92 -1.31168 -0.873655 0
M  V30 12165 C 1153.85 -1.21094 -1.99646 0
M  V30 12166 C 1154.83 -0.0989684 -1.69812 0
M  V30 12167 O 1156.01 -0.282939 -1.92128 0
M  V30 12168 C 1153.14 -0.913684 -3.35066 0
M  V30 12169 C 1152.1 -1.98482 -3.79195 0
M  V30 12170 C 1151.42 -1.54033 -5.12033 0
M  V30 12171 C 1152.72 -3.39745 -3.96699 0
M  V30 12172 H 1154.42 -2.1503 -2.08333 0
M  V30 12173 H 1151.96 -1.03521 -1.00097 0
M  V30 12174 H 1153.92 -0.829821 -4.13149 0
M  V30 12175 H 1152.64 0.0613471 -3.26542 0
M  V30 12176 H 1151.3 -2.05851 -3.03349 0
M  V30 12177 H 1150.95 -0.553261 -4.99948 0
M  V30 12178 H 1150.65 -2.25688 -5.4253 0
M  V30 12179 H 1152.17 -1.47047 -5.92629 0
M  V30 12180 H 1153.59 -3.35071 -4.65188 0
M  V30 12181 H 1151.98 -4.09585 -4.38589 0
M  V30 12182 H 1153.05 -3.80802 -3.00196 0
M  V30 12183 N 1154.4 1.08748 -1.14068 0
M  V30 12184 C 1155.64 1.81333 -0.908081 0
M  V30 12185 C 1155.98 1.85826 0.564112 0
M  V30 12186 O 1155.25 1.33157 1.41773 0
M  V30 12187 C 1155.53 3.27127 -1.50531 0
M  V30 12188 C 1155.39 3.30865 -3.04711 0
M  V30 12189 C 1156.71 4.24006 -1.17928 0
M  V30 12190 H 1153.82 0.658326 -0.331325 0
M  V30 12191 H 1156.47 1.27345 -1.41008 0
M  V30 12192 H 1154.62 3.73233 -1.07839 0
M  V30 12193 H 1156.29 2.93109 -3.56209 0
M  V30 12194 H 1154.53 2.70241 -3.39341 0
M  V30 12195 H 1155.2 4.33603 -3.41603 0
M  V30 12196 H 1157.68 3.86221 -1.54831 0
M  V30 12197 H 1156.55 5.2434 -1.62353 0
M  V30 12198 H 1156.82 4.42 -0.0940349 0
M  V30 12199 N 1155.87 0.935264 1.26849 0
M  V30 12200 C 1157.12 0.57969 1.94025 0
M  V30 12201 C 1157.45 -0.880295 1.73439 0
M  V30 12202 O 1156.7 -1.64429 1.0612 0
M  V30 12203 C 1157 0.861098 3.46872 0
M  V30 12204 C 1156.67 2.30402 3.87589 0
M  V30 12205 C 1155.33 2.69848 3.98417 0
M  V30 12206 C 1157.68 3.242 4.08098 0
M  V30 12207 C 1155.01 4.02199 4.27145 0
M  V30 12208 C 1157.36 4.56141 4.38313 0
M  V30 12209 C 1156.03 4.9541 4.47354 0
M  V30 12210 H 1155.3 0.212123 0.709989 0
M  V30 12211 H 1157.94 1.18066 1.50774 0
M  V30 12212 H 1156.25 0.177534 3.91398 0
M  V30 12213 H 1157.95 0.564841 3.97002 0
M  V30 12214 H 1154.54 1.98803 3.79704 0
M  V30 12215 H 1158.72 2.94924 3.99166 0
M  V30 12216 H 1153.98 4.32295 4.32355 0
M  V30 12217 H 1158.15 5.28818 4.53128 0
M  V30 12218 H 1155.78 5.97994 4.69368 0
M  V30 12219 N 1157.35 -1.41121 0.701616 0
M  V30 12220 C 1158.3 -2.30765 0.040121 0
M  V30 12221 C 1159.27 -1.47436 -0.764975 0
M  V30 12222 O 1160.45 -1.76209 -0.731775 0
M  V30 12223 C 1157.59 -3.33535 -0.885903 0
M  V30 12224 C 1156.71 -4.3194 -0.0717765 0
M  V30 12225 C 1155.84 -5.21779 -0.995996 0
M  V30 12226 C 1154.88 -6.11849 -0.175133 0
M  V30 12227 N 1154.02 -6.94151 -1.05348 0
M  V30 12228 H 1158.86 -2.86772 0.810312 0
M  V30 12229 H 1156.4 -1.41233 0.411301 0
M  V30 12230 H 1158.35 -3.91675 -1.4369 0
M  V30 12231 H 1156.98 -2.79065 -1.62243 0
M  V30 12232 H 1156.04 -3.75698 0.596221 0
M  V30 12233 H 1157.35 -4.95597 0.56435 0
M  V30 12234 H 1156.5 -5.84782 -1.61601 0
M  V30 12235 H 1155.24 -4.58363 -1.66597 0
M  V30 12236 H 1154.25 -5.4789 0.457916 0
M  V30 12237 H 1155.47 -6.77322 0.491133 0
M  V30 12238 H 1153.42 -6.33338 -1.70936 0
M  V30 12239 H 1153.33 -7.54518 -0.473065 0
M  V30 12240 H 1154.6 -7.61617 -1.66012 0
M  V30 12241 N 1158.83 -0.446794 -1.51134 0
M  V30 12242 C 1160.08 0.116666 -2.02464 0
M  V30 12243 C 1160.41 1.41532 -1.32975 0
M  V30 12244 O 1159.68 1.89278 -0.447651 0
M  V30 12245 C 1159.97 0.325659 -3.58624 0
M  V30 12246 C 1159.82 -0.992307 -4.38718 0
M  V30 12247 C 1161.14 1.09121 -4.26357 0
M  V30 12248 H 1158.26 0.0409262 -0.735863 0
M  V30 12249 H 1160.9 -0.587641 -1.80684 0
M  V30 12250 H 1159.05 0.925585 -3.77313 0
M  V30 12251 H 1160.72 -1.62694 -4.31658 0
M  V30 12252 H 1158.97 -1.5947 -4.03425 0
M  V30 12253 H 1159.64 -0.800005 -5.46172 0
M  V30 12254 H 1162.11 0.582944 -4.11996 0
M  V30 12255 H 1160.99 1.20621 -5.35483 0
M  V30 12256 H 1161.25 2.12171 -3.87861 0
M  V30 12257 N 1160.31 1.56586 -0.178487 0
M  V30 12258 C 1161.27 2.17091 0.73512 0
M  V30 12259 C 1162.27 1.12088 1.15295 0
M  V30 12260 O 1163.46 1.37563 1.06874 0
M  V30 12261 C 1160.59 2.75957 2.00151 0
M  V30 12262 H 1161.79 2.99176 0.208272 0
M  V30 12263 H 1159.34 1.56138 0.0710967 0
M  V30 12264 H 1160.07 1.97626 2.57127 0
M  V30 12265 H 1159.86 3.52809 1.7108 0
M  V30 12266 H 1161.35 3.2247 2.65335 0
M  V30 12267 N 1161.79 -0.095206 1.57312 0
M  V30 12268 C 1163.01 -0.81227 1.90289 0
M  V30 12269 C 1163.43 -1.72287 0.772178 0
M  V30 12270 O 1162.79 -1.80698 -0.255841 0
M  V30 12271 C 1162.84 -1.62572 3.22882 0
M  V30 12272 O 1162.56 -0.75175 4.31602 0
M  V30 12273 C 1164.06 -2.44585 3.6972 0
M  V30 12274 H 1161.28 -0.232256 0.629522 0
M  V30 12275 H 1163.82 -0.0724733 2.04372 0
M  V30 12276 H 1161.98 -2.31803 3.10397 0
M  V30 12277 H 1162.39 -1.31514 5.07744 0
M  V30 12278 H 1163.87 -2.97155 4.65191 0
M  V30 12279 H 1164.34 -3.23044 2.97555 0
M  V30 12280 H 1164.95 -1.80554 3.85072 0
M  V30 12281 N 1163.26 -1.53291 -0.366026 0
M  V30 12282 C 1164.51 -1.69117 -1.10653 0
M  V30 12283 C 1164.83 -0.445327 -1.89847 0
M  V30 12284 O 1164.1 0.540616 -1.88293 0
M  V30 12285 H 1162.68 -0.623446 -0.41149 0
M  V30 12286 H 1165.35 -1.90479 -0.412749 0
M  V30 12287 H 1164.44 -2.55205 -1.79658 0
M  V30 12288 N 1164.74 0.6258 -1.44643 0
M  V30 12289 C 1165.65 1.76611 -1.5442 0
M  V30 12290 C 1166.67 1.68614 -0.429576 0
M  V30 12291 O 1167.84 1.89296 -0.687686 0
M  V30 12292 C 1164.91 3.13015 -1.49071 0
M  V30 12293 C 1163.97 3.32604 -2.71428 0
M  V30 12294 C 1163.2 4.62501 -2.66325 0
M  V30 12295 O 1163.43 5.43651 -1.72626 0
M  V30 12296 O 1162.36 4.84408 -3.57258 0
M  V30 12297 H 1166.19 1.71315 -2.50769 0
M  V30 12298 H 1163.77 0.787677 -1.26949 0
M  V30 12299 H 1165.65 3.94318 -1.48631 0
M  V30 12300 H 1164.33 3.18842 -0.558686 0
M  V30 12301 H 1163.24 2.50959 -2.77435 0
M  V30 12302 H 1164.57 3.31642 -3.63695 0
M  V30 12303 N 1166.22 1.31629 0.866686 0
M  V30 12304 C 1167.15 1.22151 1.99001 0
M  V30 12305 C 1168.13 0.107972 1.69757 0
M  V30 12306 O 1169.32 0.293125 1.91975 0
M  V30 12307 C 1166.45 0.93144 3.34577 0
M  V30 12308 C 1165.4 2.0049 3.78137 0
M  V30 12309 C 1164.73 1.56747 5.11209 0
M  V30 12310 C 1166.03 3.41844 3.94892 0
M  V30 12311 H 1167.72 2.16132 2.0719 0
M  V30 12312 H 1165.27 1.04051 0.995463 0
M  V30 12313 H 1167.22 0.851719 4.12703 0
M  V30 12314 H 1165.94 -0.0440289 3.2657 0
M  V30 12315 H 1164.6 2.07457 3.02253 0
M  V30 12316 H 1164.25 0.579767 4.99648 0
M  V30 12317 H 1163.95 2.28562 5.41326 0
M  V30 12318 H 1165.47 1.50188 5.91841 0
M  V30 12319 H 1166.89 3.37534 4.63405 0
M  V30 12320 H 1165.29 4.11905 4.36411 0
M  V30 12321 H 1166.36 3.82389 2.98172 0
M  V30 12322 N 1167.7 -1.08142 1.14644 0
M  V30 12323 C 1168.65 -2.15133 0.835845 0
M  V30 12324 C 1169.62 -1.64795 -0.207785 0
M  V30 12325 O 1170.8 -1.90644 -0.07711 0
M  V30 12326 C 1167.94 -3.4359 0.322456 0
M  V30 12327 C 1167.05 -4.07761 1.42671 0
M  V30 12328 C 1166.19 -5.24022 0.870281 0
M  V30 12329 C 1165.23 -5.8014 1.95202 0
M  V30 12330 N 1164.37 -6.87743 1.41257 0
M  V30 12331 H 1169.21 -2.41042 1.75222 0
M  V30 12332 H 1166.74 -1.18288 0.874428 0
M  V30 12333 H 1168.7 -4.17199 0.00657059 0
M  V30 12334 H 1167.33 -3.17958 -0.557014 0
M  V30 12335 H 1166.38 -3.31885 1.85893 0
M  V30 12336 H 1167.69 -4.45485 2.24375 0
M  V30 12337 H 1166.85 -6.04582 0.506459 0
M  V30 12338 H 1165.59 -4.87695 0.0223118 0
M  V30 12339 H 1164.59 -4.98232 2.32476 0
M  V30 12340 H 1165.82 -6.18525 2.80363 0
M  V30 12341 H 1163.76 -6.5337 0.586826 0
M  V30 12342 H 1163.68 -7.24308 2.16596 0
M  V30 12343 H 1164.95 -7.72028 1.07674 0
M  V30 12344 N 1169.18 -0.941978 -1.26351 0
M  V30 12345 C 1170.13 -0.443011 -2.28342 0
M  V30 12346 C 1171.12 0.48013 -1.62453 0
M  V30 12347 O 1172.33 0.358255 -1.76399 0
M  V30 12348 H 1168.7 -0.124728 -0.741584 0
M  V30 12349 H 1170.67 -1.31573 -2.67827 0
M  V30 12350 C 1169.42 0.275675 -3.46605 0
M  V30 12351 H 1168.74 -0.425504 -3.97529 0
M  V30 12352 H 1170.18 0.589012 -4.19889 0
M  V30 12353 C 1168.64 1.49376 -3.01974 0
M  V30 12354 O 1169.17 2.59203 -3.06883 0
M  V30 12355 N 1167.38 1.35061 -2.57307 0
M  V30 12356 H 1166.93 0.457045 -2.53513 0
M  V30 12357 H 1166.88 2.16681 -2.27809 0
M  V30 12358 N 1170.66 1.40747 -0.709091 0
M  V30 12359 C 1171.9 2.00606 -0.245324 0
M  V30 12360 C 1172.22 1.56489 1.16346 0
M  V30 12361 O 1171.49 0.801456 1.78755 0
M  V30 12362 H 1170.07 0.741833 -0.0877098 0
M  V30 12363 H 1172.74 1.72178 -0.913271 0
M  V30 12364 H 1171.83 3.10901 -0.273322 0
M  V30 12365 N 1172.13 0.454803 1.50895 0
M  V30 12366 C 1173.38 -0.10577 2.02224 0
M  V30 12367 C 1173.71 -1.41176 1.33789 0
M  V30 12368 O 1172.96 -1.90522 0.447181 0
M  V30 12369 C 1173.26 -0.354159 3.55641 0
M  V30 12370 C 1172.93 0.868136 4.42464 0
M  V30 12371 C 1171.59 1.2033 4.65912 0
M  V30 12372 C 1173.94 1.68272 4.93289 0
M  V30 12373 C 1171.27 2.3534 5.37431 0
M  V30 12374 C 1173.62 2.82396 5.6607 0
M  V30 12375 C 1172.29 3.16346 5.87777 0
M  V30 12376 H 1171.56 -0.0387041 0.739989 0
M  V30 12377 H 1174.2 0.605564 1.81673 0
M  V30 12378 H 1172.51 -1.14757 3.74617 0
M  V30 12379 H 1174.21 -0.8016 3.92906 0
M  V30 12380 H 1170.8 0.596995 4.24422 0
M  V30 12381 H 1174.98 1.43698 4.75042 0
M  V30 12382 H 1170.24 2.61936 5.52449 0
M  V30 12383 H 1174.41 3.45873 6.04438 0
M  V30 12384 H 1172.04 4.05574 6.42973 0
M  V30 12385 N 1173.61 -1.56489 0.186789 0
M  V30 12386 C 1174.57 -2.17478 -0.723596 0
M  V30 12387 C 1175.57 -1.12698 -1.14699 0
M  V30 12388 O 1176.76 -1.38128 -1.06143 0
M  V30 12389 C 1173.9 -2.77015 -1.98685 0
M  V30 12390 H 1175.09 -2.99282 -0.192403 0
M  V30 12391 H 1172.64 -1.56174 -0.0628153 0
M  V30 12392 H 1173.38 -1.98987 -2.56076 0
M  V30 12393 H 1173.16 -3.53711 -1.69207 0
M  V30 12394 H 1174.65 -3.23872 -2.63622 0
M  V30 12395 N 1175.09 0.086862 -1.5736 0
M  V30 12396 C 1176.34 0.790008 -1.8678 0
M  V30 12397 C 1176.67 1.77977 -0.777042 0
M  V30 12398 O 1175.94 1.93317 0.21419 0
M  V30 12399 C 1176.23 1.51143 -3.26845 0
M  V30 12400 C 1176.08 0.539106 -4.46558 0
M  V30 12401 C 1177.4 2.46003 -3.64926 0
M  V30 12402 H 1174.52 0.285741 -0.679354 0
M  V30 12403 H 1177.16 0.0534655 -1.89925 0
M  V30 12404 H 1175.31 2.13928 -3.24295 0
M  V30 12405 H 1176.98 -0.0823679 -4.61226 0
M  V30 12406 H 1175.22 -0.146842 -4.33551 0
M  V30 12407 H 1175.9 1.0812 -5.41308 0
M  V30 12408 H 1178.37 1.93306 -3.68473 0
M  V30 12409 H 1177.25 2.93493 -4.63846 0
M  V30 12410 H 1177.51 3.30133 -2.94049 0
M  V30 12411 N 1176.57 1.53483 0.357892 0
M  V30 12412 C 1177.81 1.70289 1.10134 0
M  V30 12413 C 1178.15 0.457296 1.88739 0
M  V30 12414 O 1177.42 -0.545527 1.86693 0
M  V30 12415 C 1177.7 2.95755 2.05429 0
M  V30 12416 C 1177.56 4.30489 1.30382 0
M  V30 12417 C 1178.88 3.16844 3.05447 0
M  V30 12418 H 1176 0.61965 0.399003 0
M  V30 12419 H 1178.64 1.86133 0.381357 0
M  V30 12420 H 1176.79 2.82377 2.66825 0
M  V30 12421 H 1178.46 4.55692 0.71711 0
M  V30 12422 H 1176.7 4.2955 0.605712 0
M  V30 12423 H 1177.37 5.14427 2.00171 0
M  V30 12424 H 1179.85 3.29458 2.54159 0
M  V30 12425 H 1178.73 4.06053 3.69341 0
M  V30 12426 H 1178.99 2.32476 3.76041 0
M  V30 12427 N 1178.05 -0.61812 1.44973 0
M  V30 12428 C 1179.46 -0.937734 1.29146 0
M  V30 12429 C 1179.66 -2.00104 0.236749 0
M  V30 12430 O 1178.72 -2.49731 -0.372923 0
M  V30 12431 C 1180.03 -1.38865 2.66715 0
M  V30 12432 C 1181.58 -1.50343 2.74529 0
M  V30 12433 C 1182.05 -1.98814 4.12598 0
M  V30 12434 N 1183.54 -2.06064 4.14839 0
M  V30 12435 C 1184.28 -2.44768 5.18533 0
M  V30 12436 N 1183.78 -2.82516 6.32579 0
M  V30 12437 N 1185.57 -2.45016 5.05889 0
M  V30 12438 H 1177.72 0.084872 2.1223 0
M  V30 12439 H 1179.98 -0.0246744 0.947679 0
M  V30 12440 H 1179.69 -0.681583 3.45032 0
M  V30 12441 H 1179.56 -2.3572 2.94475 0
M  V30 12442 H 1181.95 -2.20144 1.96522 0
M  V30 12443 H 1182.03 -0.518297 2.50494 0
M  V30 12444 H 1181.67 -1.29604 4.91086 0
M  V30 12445 H 1181.6 -2.98223 4.34017 0
M  V30 12446 H 1184.1 -1.79525 3.32535 0
M  V30 12447 H 1184.41 -3.109 7.07504 0
M  V30 12448 H 1182.75 -2.80237 6.35997 0
M  V30 12449 H 1185.94 -2.14925 4.15842 0
M  V30 12450 H 1186.12 -2.74854 5.86821 0
M  V30 12451 N 1179.52 -1.32087 -0.859693 0
M  V30 12452 C 1180.93 -1.20107 -1.42938 0
M  V30 12453 C 1181.29 0.188411 -1.95293 0
M  V30 12454 O 1180.41 1.08683 -1.87128 0
M  V30 12455 C 1181.01 -2.17436 -2.59821 0
M  V30 12456 C 1179.56 -2.09359 -3.12803 0
M  V30 12457 C 1178.71 -2.06086 -1.85537 0
M  V30 12458 H 1181.66 -1.43989 -0.667302 0
M  V30 12459 H 1181.68 -1.76996 -3.36828 0
M  V30 12460 H 1181.2 -3.18555 -2.21685 0
M  V30 12461 H 1179.3 -1.1147 -3.55535 0
M  V30 12462 H 1179.41 -2.98947 -3.74389 0
M  V30 12463 H 1177.77 -1.51251 -2.04928 0
M  V30 12464 H 1178.56 -3.08978 -1.49625 0
M  V30 12465 N 1181 1.07532 -1.15215 0
M  V30 12466 C 1182.41 1.61567 -0.935568 0
M  V30 12467 C 1182.76 1.89085 0.523557 0
M  V30 12468 O 1181.89 1.65495 1.39429 0
M  V30 12469 C 1182.48 2.93531 -1.69189 0
M  V30 12470 C 1181.04 3.44316 -1.52063 0
M  V30 12471 C 1180.19 2.18404 -1.70866 0
M  V30 12472 H 1183.14 0.906431 -1.30267 0
M  V30 12473 H 1183.16 3.62377 -1.16031 0
M  V30 12474 H 1182.67 2.73471 -2.75381 0
M  V30 12475 H 1180.77 3.69462 -0.482567 0
M  V30 12476 H 1180.89 4.20478 -2.29642 0
M  V30 12477 H 1179.25 2.28012 -1.13502 0
M  V30 12478 H 1180.03 2.00841 -2.7842 0
M  V30 12479 N 1182.48 0.948665 1.2585 0
M  V30 12480 C 1183.73 0.59905 1.93018 0
M  V30 12481 C 1184.05 -0.865813 1.74725 0
M  V30 12482 O 1183.32 -1.61602 1.10732 0
M  V30 12483 H 1181.9 0.218565 0.71431 0
M  V30 12484 H 1184.56 1.20561 1.53137 0
M  V30 12485 H 1183.66 0.823244 3.01047 0
M  V30 12486 N 1183.96 -1.40369 0.716545 0
M  V30 12487 C 1184.91 -2.27963 0.0410169 0
M  V30 12488 C 1185.89 -1.43307 -0.731575 0
M  V30 12489 O 1187.08 -1.66389 -0.603618 0
M  V30 12490 C 1184.21 -3.31849 -0.87927 0
M  V30 12491 C 1183.3 -4.23978 -0.101813 0
M  V30 12492 N 1183.69 -4.97447 0.915437 0
M  V30 12493 C 1181.99 -4.44746 -0.334227 0
M  V30 12494 C 1182.69 -5.65029 1.38266 0
M  V30 12495 N 1181.67 -5.39014 0.704642 0
M  V30 12496 H 1185.47 -2.8221 0.820653 0
M  V30 12497 H 1182.98 -1.52831 0.549217 0
M  V30 12498 H 1184.98 -3.93448 -1.37855 0
M  V30 12499 H 1183.64 -2.79162 -1.65827 0
M  V30 12500 H 1184.65 -5.01414 1.29631 0
M  V30 12501 H 1181.33 -4.03034 -1.08948 0
M  V30 12502 H 1182.72 -6.33886 2.22797 0
M  V30 12503 N 1185.44 -0.462799 -1.50652 0
M  V30 12504 C 1186.39 0.354133 -2.25233 0
M  V30 12505 C 1187.37 0.968553 -1.28483 0
M  V30 12506 O 1188.56 0.882476 -1.53432 0
M  V30 12507 C 1185.69 1.44033 -3.11624 0
M  V30 12508 C 1184.78 0.834046 -4.15818 0
M  V30 12509 N 1185.17 -0.0407022 -5.05784 0
M  V30 12510 C 1183.47 1.0989 -4.3225 0
M  V30 12511 C 1184.17 -0.383917 -5.80432 0
M  V30 12512 N 1183.14 0.238851 -5.43075 0
M  V30 12513 H 1186.95 -0.319855 -2.92154 0
M  V30 12514 H 1184.46 -0.276428 -1.6003 0
M  V30 12515 H 1186.46 2.03868 -3.63653 0
M  V30 12516 H 1185.12 2.11639 -2.4625 0
M  V30 12517 H 1186.13 -0.408959 -5.16283 0
M  V30 12518 H 1182.8 1.77056 -3.78097 0
M  V30 12519 H 1184.19 -1.0973 -6.62879 0
M  V30 12520 N 1186.91 1.56388 -0.195085 0
M  V30 12521 C 1187.88 2.17859 0.712053 0
M  V30 12522 C 1188.88 1.13304 1.141 0
M  V30 12523 O 1190.07 1.38689 1.05409 0
M  V30 12524 C 1187.2 2.78065 1.97213 0
M  V30 12525 H 1188.39 2.9938 0.176529 0
M  V30 12526 H 1185.95 1.56205 0.0545322 0
M  V30 12527 H 1186.68 2.00342 2.55017 0
M  V30 12528 H 1186.47 3.54603 1.67329 0
M  V30 12529 H 1187.96 3.25266 2.619 0
M  V30 12530 N 1188.39 -0.0785156 1.57404 0
M  V30 12531 C 1189.3 -1.11203 2.0657 0
M  V30 12532 C 1190.32 -1.42822 0.993872 0
M  V30 12533 O 1191.49 -1.53133 1.30814 0
M  V30 12534 C 1188.56 -2.40812 2.4942 0
M  V30 12535 C 1187.62 -2.16225 3.70871 0
M  V30 12536 C 1186.85 -3.39654 4.11668 0
M  V30 12537 O 1187.08 -4.48521 3.524 0
M  V30 12538 O 1186.01 -3.28263 5.04507 0
M  V30 12539 H 1189.84 -0.724381 2.94935 0
M  V30 12540 H 1187.42 -0.292184 1.46515 0
M  V30 12541 H 1189.3 -3.17101 2.77534 0
M  V30 12542 H 1187.98 -2.7897 1.64187 0
M  V30 12543 H 1186.89 -1.37663 3.4785 0
M  V30 12544 H 1188.22 -1.82951 4.56935 0
M  V30 12545 N 1189.87 -1.5367 -0.349747 0
M  V30 12546 C 1190.78 -1.84207 -1.45275 0
M  V30 12547 C 1191.8 -0.731695 -1.57868 0
M  V30 12548 O 1192.97 -1.02337 -1.73462 0
M  V30 12549 C 1190.04 -2.0398 -2.80345 0
M  V30 12550 C 1189.1 -3.27853 -2.77148 0
M  V30 12551 C 1188.33 -3.46673 -4.05775 0
M  V30 12552 O 1188.55 -2.69457 -5.02741 0
M  V30 12553 O 1187.49 -4.40082 -4.10623 0
M  V30 12554 H 1191.31 -2.77947 -1.22389 0
M  V30 12555 H 1188.9 -1.39247 -0.541345 0
M  V30 12556 H 1190.78 -2.18466 -3.60348 0
M  V30 12557 H 1189.46 -1.13429 -3.03176 0
M  V30 12558 H 1188.36 -3.18776 -1.95787 0
M  V30 12559 H 1189.7 -4.18377 -2.59271 0
M  V30 12560 N 1191.35 0.610423 -1.45298 0
M  V30 12561 C 1192.57 1.40112 -1.52917 0
M  V30 12562 C 1193 1.87404 -0.161696 0
M  V30 12563 O 1192.36 1.59973 0.853135 0
M  V30 12564 C 1192.4 2.58359 -2.51561 0
M  V30 12565 O 1191.51 3.58895 -2.03146 0
M  V30 12566 H 1190.85 0.41841 -0.515586 0
M  V30 12567 H 1193.38 0.743159 -1.90626 0
M  V30 12568 H 1193.39 3.0564 -2.70275 0
M  V30 12569 H 1192.06 2.23286 -3.50879 0
M  V30 12570 H 1190.64 3.18282 -1.94296 0
M  V30 12571 N 1192.83 1.32541 0.852676 0
M  V30 12572 C 1194.05 1.2622 1.6394 0
M  V30 12573 C 1194.47 -0.169455 1.88038 0
M  V30 12574 O 1193.83 -1.10719 1.45078 0
M  V30 12575 C 1193.88 2.02062 2.99755 0
M  V30 12576 O 1193.6 3.39641 2.76723 0
M  V30 12577 C 1195.1 2.02787 3.94198 0
M  V30 12578 H 1192.32 0.435405 0.510552 0
M  V30 12579 H 1194.86 1.74696 1.06309 0
M  V30 12580 H 1193.02 1.57303 3.54026 0
M  V30 12581 H 1193.43 3.78484 3.63111 0
M  V30 12582 H 1194.91 2.60333 4.86755 0
M  V30 12583 H 1195.38 1.01464 4.27319 0
M  V30 12584 H 1195.99 2.47504 3.45864 0
M  V30 12585 N 1194.3 -1.0692 1.15784 0
M  V30 12586 C 1195.72 -1.61069 0.944123 0
M  V30 12587 C 1196.07 -1.8936 -0.513522 0
M  V30 12588 O 1195.19 -1.66232 -1.38549 0
M  V30 12589 C 1195.79 -2.9263 1.70743 0
M  V30 12590 C 1194.35 -3.43505 1.53887 0
M  V30 12591 C 1193.49 -2.17495 1.72021 0
M  V30 12592 H 1196.44 -0.89951 1.30746 0
M  V30 12593 H 1196.46 -3.61757 1.17951 0
M  V30 12594 H 1195.98 -2.72007 2.76828 0
M  V30 12595 H 1194.08 -3.69201 0.502153 0
M  V30 12596 H 1194.19 -4.19254 2.31868 0
M  V30 12597 H 1192.55 -2.27407 1.1471 0
M  V30 12598 H 1193.34 -1.99362 2.79481 0
M  V30 12599 N 1195.78 -0.955326 -1.25345 0
M  V30 12600 C 1196.72 -0.420299 -2.24296 0
M  V30 12601 C 1197.69 0.498753 -1.54762 0
M  V30 12602 O 1198.88 0.432971 -1.8346 0
M  V30 12603 C 1196 0.394576 -3.36394 0
M  V30 12604 C 1195.05 -0.464973 -4.23958 0
M  V30 12605 S 1195.88 -1.89764 -5.00749 0
M  V30 12606 C 1197.04 -1.09121 -6.16314 0
M  V30 12607 H 1197.27 -1.25888 -2.69331 0
M  V30 12608 H 1194.81 -0.759449 -1.34431 0
M  V30 12609 H 1196.76 0.858788 -4.01416 0
M  V30 12610 H 1195.42 1.20799 -2.89942 0
M  V30 12611 H 1194.62 0.160055 -5.03746 0
M  V30 12612 H 1194.22 -0.864422 -3.63873 0
M  V30 12613 H 1196.51 -0.340218 -6.76645 0
M  V30 12614 H 1197.45 -1.86304 -6.83152 0
M  V30 12615 H 1197.86 -0.621033 -5.61073 0
M  V30 12616 N 1197.26 1.39987 -0.723979 0
M  V30 12617 C 1198.51 2.00334 -0.266587 0
M  V30 12618 C 1198.83 1.57714 1.14679 0
M  V30 12619 O 1198.1 0.82037 1.77895 0
M  V30 12620 H 1196.68 0.740861 -0.095573 0
M  V30 12621 H 1199.34 1.712 -0.931481 0
M  V30 12622 H 1198.44 3.10594 -0.306282 0
M  V30 12623 N 1198.74 0.470782 1.50404 0
M  V30 12624 C 1199.99 -0.084316 2.02324 0
M  V30 12625 C 1200.31 -1.39749 1.35279 0
M  V30 12626 O 1199.57 -1.90037 0.467364 0
M  V30 12627 C 1199.87 -0.316419 3.55997 0
M  V30 12628 C 1199.53 0.915017 4.41518 0
M  V30 12629 C 1198.2 1.25265 4.6461 0
M  V30 12630 C 1200.55 1.73494 4.91477 0
M  V30 12631 C 1197.88 2.41027 5.34905 0
M  V30 12632 C 1200.23 2.88384 5.63043 0
M  V30 12633 C 1198.89 3.22562 5.84389 0
M  V30 12634 H 1198.16 -0.0308534 0.740357 0
M  V30 12635 H 1200.81 0.624799 1.81021 0
M  V30 12636 H 1199.11 -1.10778 3.75813 0
M  V30 12637 H 1200.81 -0.759882 3.93734 0
M  V30 12638 H 1197.4 0.641977 4.23765 0
M  V30 12639 H 1201.59 1.48728 4.73491 0
M  V30 12640 H 1196.84 2.67781 5.49639 0
M  V30 12641 H 1201.02 3.52264 6.00735 0
M  V30 12642 H 1198.64 4.1237 6.38635 0
M  V30 12643 N 1200.22 -1.56282 0.203376 0
M  V30 12644 C 1201.46 -1.99712 -0.43527 0
M  V30 12645 C 1201.82 -1.0876 -1.58225 0
M  V30 12646 O 1203.02 -1.4146 -2.28566 0
M  V30 12647 C 1201.29 -3.46501 -0.875885 0
M  V30 12648 S 1202.85 -4.11957 -1.5112 0
M  V30 12649 H 1199.67 -0.697305 -0.138879 0
M  V30 12650 H 1202.27 -1.93052 0.308392 0
M  V30 12651 H 1200.98 -4.10388 -0.0311623 0
M  V30 12652 H 1200.51 -3.56996 -1.65281 0
M  V30 12653 H 1202.52 -4.09645 -2.80009 0
M  V30 12654 N 1201.7 0.070167 -1.57444 0
M  V30 12655 C 1202.93 0.78076 -1.91279 0
M  V30 12656 C 1203.33 1.71559 -0.797754 0
M  V30 12657 O 1202.68 1.82156 0.237665 0
M  V30 12658 C 1202.74 1.62664 -3.20594 0
M  V30 12659 C 1202.4 0.861007 -4.48816 0
M  V30 12660 C 1203.4 0.179522 -5.1959 0
M  V30 12661 C 1201.08 0.8277 -4.95434 0
M  V30 12662 C 1203.08 -0.525024 -6.35234 0
M  V30 12663 C 1200.77 0.119382 -6.10983 0
M  V30 12664 C 1201.76 -0.555778 -6.80735 0
M  V30 12665 O 1201.45 -1.25268 -7.9408 0
M  V30 12666 H 1201.18 0.227053 -0.636728 0
M  V30 12667 H 1203.74 0.0442334 -2.05352 0
M  V30 12668 H 1201.97 2.40601 -3.02734 0
M  V30 12669 H 1203.66 2.21606 -3.40067 0
M  V30 12670 H 1204.42 0.19655 -4.84602 0
M  V30 12671 H 1200.3 1.34268 -4.41014 0
M  V30 12672 H 1203.85 -1.05257 -6.89613 0
M  V30 12673 H 1199.74 0.100287 -6.45422 0
M  V30 12674 H 1200.51 -1.16212 -8.10208 0
M  V30 12675 N 1203.17 1.53854 0.341593 0
M  V30 12676 C 1204.42 1.71194 1.08162 0
M  V30 12677 C 1204.75 0.47614 1.88582 0
M  V30 12678 O 1204 -0.542115 1.88041 0
M  V30 12679 C 1204.3 2.92844 2.04884 0
M  V30 12680 C 1203.97 4.28366 1.40759 0
M  V30 12681 C 1202.63 4.65214 1.23 0
M  V30 12682 C 1204.98 5.12546 0.945819 0
M  V30 12683 C 1202.31 5.83857 0.576852 0
M  V30 12684 C 1204.66 6.31857 0.306568 0
M  V30 12685 C 1203.33 6.67398 0.116677 0
M  V30 12686 H 1202.6 0.626442 0.395792 0
M  V30 12687 H 1205.24 1.88073 0.360688 0
M  V30 12688 H 1203.55 2.70576 2.83365 0
M  V30 12689 H 1205.25 3.03454 2.62139 0
M  V30 12690 H 1201.84 3.99366 1.5558 0
M  V30 12691 H 1206.02 4.84609 1.07087 0
M  V30 12692 H 1201.28 6.09967 0.418363 0
M  V30 12693 H 1205.45 6.96375 -0.0593285 0
M  V30 12694 H 1203.08 7.59191 -0.391477 0
M  V30 12695 N 1204.65 -0.602709 1.4562 0
M  V30 12696 C 1205.6 -1.73425 1.55005 0
M  V30 12697 C 1206.59 -1.64118 0.419713 0
M  V30 12698 O 1207.8 -1.69853 0.595815 0
M  V30 12699 H 1204.17 -0.573038 0.486962 0
M  V30 12700 H 1206.15 -1.62637 2.50184 0
M  V30 12701 C 1204.89 -3.11808 1.53853 0
M  V30 12702 H 1204.22 -3.19631 2.40158 0
M  V30 12703 H 1205.66 -3.90798 1.64477 0
M  V30 12704 C 1204.12 -3.35866 0.263765 0
M  V30 12705 O 1204.65 -3.96334 -0.654364 0
M  V30 12706 N 1202.85 -2.90171 0.157927 0
M  V30 12707 H 1202.4 -2.41144 0.905944 0
M  V30 12708 H 1202.36 -3.06641 -0.694175 0
M  V30 12709 N 1206.13 -1.32992 -0.845635 0
M  V30 12710 C 1207.35 -1.27231 -1.6379 0
M  V30 12711 C 1207.78 0.155141 -1.87459 0
M  V30 12712 O 1207.14 1.10953 -1.43384 0
M  V30 12713 C 1207.19 -2.04629 -2.96916 0
M  V30 12714 O 1206.29 -1.40027 -3.879 0
M  V30 12715 H 1205.63 -0.438045 -0.499011 0
M  V30 12716 H 1208.16 -1.75448 -1.05257 0
M  V30 12717 H 1208.17 -2.15141 -3.46667 0
M  V30 12718 H 1206.85 -3.08425 -2.79011 0
M  V30 12719 H 1205.42 -1.38118 -3.46378 0
M  V30 12720 N 1207.61 1.06304 -1.1635 0
M  V30 12721 C 1208.85 1.79366 -0.94634 0
M  V30 12722 C 1209.19 1.86981 0.524569 0
M  V30 12723 O 1208.46 1.36134 1.38917 0
M  V30 12724 C 1208.74 3.23861 -1.57436 0
M  V30 12725 C 1208.6 3.24327 -3.1166 0
M  V30 12726 C 1209.92 4.21409 -1.26895 0
M  V30 12727 H 1207.04 0.65115 -0.345215 0
M  V30 12728 H 1209.68 1.24325 -1.43678 0
M  V30 12729 H 1207.83 3.70862 -1.15731 0
M  V30 12730 H 1209.5 2.85488 -3.62346 0
M  V30 12731 H 1207.74 2.62983 -3.44997 0
M  V30 12732 H 1208.41 4.2626 -3.50723 0
M  V30 12733 H 1210.89 3.8285 -1.62989 0
M  V30 12734 H 1209.77 5.20778 -1.73439 0
M  V30 12735 H 1210.03 4.41701 -0.187768 0
M  V30 12736 N 1209.09 0.96196 1.24836 0
M  V30 12737 C 1210.05 0.492443 2.23847 0
M  V30 12738 C 1211.05 -0.40788 1.55541 0
M  V30 12739 O 1212.24 -0.204143 1.73 0
M  V30 12740 C 1209.37 -0.287578 3.39685 0
M  V30 12741 H 1210.56 1.36767 2.66899 0
M  V30 12742 H 1208.12 0.745967 1.3735 0
M  V30 12743 H 1208.85 -1.18015 3.02064 0
M  V30 12744 H 1208.64 0.358431 3.90458 0
M  V30 12745 H 1210.13 -0.605297 4.1319 0
M  V30 12746 N 1210.56 -1.39601 0.731392 0
M  V30 12747 C 1211.81 -2.00883 0.278168 0
M  V30 12748 C 1212.14 -1.57897 -1.13059 0
M  V30 12749 O 1211.42 -0.806203 -1.77005 0
M  V30 12750 C 1211.7 -3.58132 0.375969 0
M  V30 12751 C 1211.55 -4.11147 1.82423 0
M  V30 12752 C 1212.87 -4.39425 -0.243702 0
M  V30 12753 H 1209.99 -0.729831 0.102549 0
M  V30 12754 H 1212.63 -1.65859 0.926869 0
M  V30 12755 H 1210.78 -3.881 -0.176329 0
M  V30 12756 H 1212.46 -3.91914 2.43313 0
M  V30 12757 H 1210.7 -3.64842 2.34675 0
M  V30 12758 H 1211.37 -5.20291 1.84396 0
M  V30 12759 H 1213.85 -4.1548 0.227067 0
M  V30 12760 H 1212.72 -5.48709 -0.144907 0
M  V30 12761 H 1212.98 -4.21642 -1.32929 0
M  V30 12762 N 1212.04 -0.478751 -1.50152 0
M  V30 12763 C 1213.01 0.300181 -2.27226 0
M  V30 12764 C 1214.01 0.913705 -1.32318 0
M  V30 12765 O 1215.2 0.781692 -1.55677 0
M  V30 12766 C 1212.33 1.42838 -3.09532 0
M  V30 12767 H 1213.52 -0.375845 -2.97536 0
M  V30 12768 H 1211.07 -0.233037 -1.54553 0
M  V30 12769 H 1211.81 2.13923 -2.43737 0
M  V30 12770 H 1211.59 0.994161 -3.79287 0
M  V30 12771 H 1213.08 1.97765 -3.67802 0
M  V30 12772 N 1213.52 1.56172 -0.211661 0
M  V30 12773 C 1214.48 2.18602 0.688906 0
M  V30 12774 C 1215.48 1.14508 1.12892 0
M  V30 12775 O 1216.67 1.39799 1.03932 0
M  V30 12776 C 1213.81 2.80141 1.94253 0
M  V30 12777 H 1215 2.9955 0.144765 0
M  V30 12778 H 1212.55 1.56254 0.0379615 0
M  V30 12779 H 1213.29 2.03035 2.52878 0
M  V30 12780 H 1213.07 3.56358 1.63558 0
M  V30 12781 H 1214.56 3.28026 2.58436 0
M  V30 12782 N 1215 -0.0618163 1.57479 0
M  V30 12783 C 1215.95 -1.0724 2.04373 0
M  V30 12784 C 1216.92 -1.37875 0.926271 0
M  V30 12785 O 1218.1 -1.48772 1.19463 0
M  V30 12786 C 1215.24 -2.37805 2.50085 0
M  V30 12787 C 1214.35 -2.13614 3.7549 0
M  V30 12788 C 1213.49 -3.37814 4.09945 0
M  V30 12789 C 1212.53 -3.09032 5.28361 0
M  V30 12790 N 1211.66 -4.25591 5.58406 0
M  V30 12791 H 1216.5 -0.665536 2.90473 0
M  V30 12792 H 1214.04 -0.317043 1.43643 0
M  V30 12793 H 1216 -3.14048 2.74644 0
M  V30 12794 H 1214.63 -2.76275 1.66948 0
M  V30 12795 H 1213.68 -1.28017 3.58212 0
M  V30 12796 H 1214.99 -1.88361 4.61867 0
M  V30 12797 H 1214.15 -4.22447 4.35458 0
M  V30 12798 H 1212.89 -3.66153 3.22154 0
M  V30 12799 H 1211.89 -2.22797 5.02635 0
M  V30 12800 H 1213.12 -2.82006 6.17778 0
M  V30 12801 H 1211.06 -4.53941 4.73575 0
M  V30 12802 H 1210.98 -4.03646 6.39223 0
M  V30 12803 H 1212.25 -5.11191 5.88476 0
M  V30 12804 N 1216.48 -1.54033 -0.333429 0
M  V30 12805 C 1217.41 -1.85719 -1.4153 0
M  V30 12806 C 1218.39 -0.713144 -1.54429 0
M  V30 12807 O 1219.57 -0.965984 -1.68471 0
M  V30 12808 C 1216.7 -2.07578 -2.78439 0
M  V30 12809 C 1215.66 -3.23411 -2.80338 0
M  V30 12810 C 1214.98 -3.30622 -4.2023 0
M  V30 12811 C 1216.28 -4.6129 -2.44968 0
M  V30 12812 H 1217.98 -2.76325 -1.15261 0
M  V30 12813 H 1215.52 -1.32957 -0.55303 0
M  V30 12814 H 1217.48 -2.28329 -3.5418 0
M  V30 12815 H 1216.2 -1.13713 -3.06165 0
M  V30 12816 H 1214.86 -3.02531 -2.07052 0
M  V30 12817 H 1214.51 -2.34333 -4.45081 0
M  V30 12818 H 1214.21 -4.08466 -4.22409 0
M  V30 12819 H 1215.73 -3.53596 -4.97798 0
M  V30 12820 H 1217.14 -4.81987 -3.10421 0
M  V30 12821 H 1215.54 -5.41611 -2.58414 0
M  V30 12822 H 1216.61 -4.6421 -1.40134 0
M  V30 12823 N 1217.95 0.594978 -1.45938 0
M  V30 12824 C 1218.88 1.71536 -1.58422 0
M  V30 12825 C 1219.87 1.64441 -0.435116 0
M  V30 12826 O 1221.05 1.82647 -0.659839 0
M  V30 12827 C 1218.18 3.10163 -1.56257 0
M  V30 12828 C 1217.13 3.3208 -2.70013 0
M  V30 12829 C 1216.46 4.71108 -2.52905 0
M  V30 12830 C 1217.76 3.21105 -4.11933 0
M  V30 12831 H 1219.45 1.61344 -2.52207 0
M  V30 12832 H 1217 0.774791 -1.2138 0
M  V30 12833 H 1218.95 3.88352 -1.63587 0
M  V30 12834 H 1217.68 3.21225 -0.590093 0
M  V30 12835 H 1216.34 2.56286 -2.62132 0
M  V30 12836 H 1215.98 4.7892 -1.53768 0
M  V30 12837 H 1215.68 4.86727 -3.29197 0
M  V30 12838 H 1217.21 5.51482 -2.62107 0
M  V30 12839 H 1218.62 3.89153 -4.2099 0
M  V30 12840 H 1217.02 3.4825 -4.88715 0
M  V30 12841 H 1218.09 2.18359 -4.32952 0
M  V30 12842 N 1219.43 1.33438 0.838571 0
M  V30 12843 C 1220.36 1.19552 1.9555 0
M  V30 12844 C 1221.38 0.12642 1.62308 0
M  V30 12845 O 1222.57 0.376868 1.74476 0
M  V30 12846 C 1219.67 0.811273 3.29046 0
M  V30 12847 C 1218.84 1.97207 3.9042 0
M  V30 12848 C 1217.9 1.56875 5.02271 0
M  V30 12849 O 1216.92 2.28314 5.21403 0
M  V30 12850 N 1218.13 0.473924 5.78562 0
M  V30 12851 H 1220.89 2.15769 2.07999 0
M  V30 12852 H 1218.45 1.26187 1.01432 0
M  V30 12853 H 1220.44 0.523553 4.01299 0
M  V30 12854 H 1219.01 -0.0602291 3.12542 0
M  V30 12855 H 1218.23 2.4254 3.10754 0
M  V30 12856 H 1219.52 2.74878 4.28158 0
M  V30 12857 H 1218.92 -0.120306 5.65572 0
M  V30 12858 H 1217.48 0.245877 6.51336 0
M  V30 12859 N 1220.91 -1.05686 1.16912 0
M  V30 12860 C 1221.84 -2.1329 0.839044 0
M  V30 12861 C 1222.86 -1.62047 -0.156392 0
M  V30 12862 O 1224.04 -1.78366 0.0692192 0
M  V30 12863 C 1221.14 -3.38122 0.229558 0
M  V30 12864 C 1220.32 -4.18659 1.26662 0
M  V30 12865 C 1219.38 -5.21842 0.675811 0
M  V30 12866 O 1218.4 -5.53049 1.3463 0
M  V30 12867 N 1219.6 -5.78034 -0.534532 0
M  V30 12868 H 1222.37 -2.42203 1.76515 0
M  V30 12869 H 1219.93 -1.2174 1.06729 0
M  V30 12870 H 1221.92 -4.04305 -0.178868 0
M  V30 12871 H 1220.49 -3.06783 -0.60023 0
M  V30 12872 H 1219.71 -3.4804 1.85099 0
M  V30 12873 H 1221 -4.6927 1.9663 0
M  V30 12874 H 1220.4 -5.54955 -1.09731 0
M  V30 12875 H 1218.96 -6.45763 -0.885087 0
M  V30 12876 N 1222.39 -0.968567 -1.24324 0
M  V30 12877 C 1223.8 -0.675239 -1.44612 0
M  V30 12878 C 1224 0.762641 -1.8651 0
M  V30 12879 O 1223.06 1.53644 -2.00374 0
M  V30 12880 C 1224.37 -1.66007 -2.50723 0
M  V30 12881 C 1225.92 -1.6728 -2.6455 0
M  V30 12882 C 1226.4 -2.64563 -3.73859 0
M  V30 12883 N 1227.89 -2.6301 -3.81287 0
M  V30 12884 C 1228.62 -3.34957 -4.65394 0
M  V30 12885 N 1228.12 -4.16424 -5.53681 0
M  V30 12886 N 1229.91 -3.23778 -4.59483 0
M  V30 12887 H 1222.06 -1.89757 -0.954257 0
M  V30 12888 H 1224.33 -0.817004 -0.480841 0
M  V30 12889 H 1224.03 -2.68779 -2.26827 0
M  V30 12890 H 1223.91 -1.43353 -3.48898 0
M  V30 12891 H 1226.29 -0.652184 -2.87803 0
M  V30 12892 H 1226.37 -1.93997 -1.6673 0
M  V30 12893 H 1226.02 -3.66759 -3.51355 0
M  V30 12894 H 1225.95 -2.35124 -4.71194 0
M  V30 12895 H 1228.44 -2.03877 -3.18186 0
M  V30 12896 H 1228.75 -4.68207 -6.14818 0
M  V30 12897 H 1227.1 -4.20518 -5.53344 0
M  V30 12898 H 1230.29 -2.59594 -3.89524 0
M  V30 12899 H 1230.46 -3.80112 -5.24804 0
M  V30 12900 N 1223.87 1.39211 -0.738786 0
M  V30 12901 C 1224.8 2.33209 -0.11647 0
M  V30 12902 C 1225.78 1.54108 0.720056 0
M  V30 12903 O 1226.96 1.82486 0.664264 0
M  V30 12904 C 1224.09 3.38226 0.78872 0
M  V30 12905 C 1223.05 4.27963 0.0560636 0
M  V30 12906 C 1222.37 5.2371 1.07852 0
M  V30 12907 C 1223.67 5.10508 -1.1036 0
M  V30 12908 H 1225.37 2.85501 -0.901649 0
M  V30 12909 H 1222.91 1.37272 -0.435032 0
M  V30 12910 H 1224.87 4.02938 1.23364 0
M  V30 12911 H 1223.59 2.84382 1.60606 0
M  V30 12912 H 1222.25 3.64735 -0.369274 0
M  V30 12913 H 1221.9 4.66161 1.88953 0
M  V30 12914 H 1221.6 5.846 0.593048 0
M  V30 12915 H 1223.12 5.91299 1.52307 0
M  V30 12916 H 1224.53 5.68544 -0.736943 0
M  V30 12917 H 1222.93 5.80558 -1.51895 0
M  V30 12918 H 1224 4.45117 -1.92352 0
M  V30 12919 N 1225.34 0.486708 1.49896 0
M  V30 12920 C 1226.57 -0.0622999 2.07306 0
M  V30 12921 C 1226.99 -1.31353 1.3464 0
M  V30 12922 O 1226.35 -1.76861 0.398752 0
M  V30 12923 C 1226.4 -0.313481 3.59235 0
M  V30 12924 O 1225.5 -1.39101 3.88233 0
M  V30 12925 H 1224.85 0.0198885 0.663702 0
M  V30 12926 H 1227.38 0.682232 1.92891 0
M  V30 12927 H 1227.39 -0.549302 4.04285 0
M  V30 12928 H 1226.06 0.600767 4.11538 0
M  V30 12929 H 1224.64 -1.14127 3.55006 0
M  V30 12930 N 1226.82 -1.56058 0.219941 0
M  V30 12931 C 1228.07 -1.98554 -0.412808 0
M  V30 12932 C 1228.4 -1.10742 -1.5953 0
M  V30 12933 O 1227.68 -0.164757 -1.93801 0
M  V30 12934 C 1227.96 -3.4995 -0.848923 0
M  V30 12935 C 1227.81 -4.48535 0.337094 0
M  V30 12936 C 1229.13 -4.05703 -1.70567 0
M  V30 12937 H 1226.25 -0.721869 -0.148576 0
M  V30 12938 H 1228.89 -1.87356 0.315852 0
M  V30 12939 H 1227.04 -3.59624 -1.46979 0
M  V30 12940 H 1228.72 -4.50874 0.975216 0
M  V30 12941 H 1226.96 -4.22474 0.984798 0
M  V30 12942 H 1227.63 -5.51999 -0.0109665 0
M  V30 12943 H 1230.11 -3.98964 -1.18182 0
M  V30 12944 H 1228.98 -5.11955 -1.97972 0
M  V30 12945 H 1229.24 -3.52487 -2.66844 0
M  V30 12946 N 1228.3 0.053464 -1.57509 0
M  V30 12947 C 1229.53 0.765301 -1.92764 0
M  V30 12948 C 1229.95 1.69385 -0.817943 0
M  V30 12949 O 1229.31 1.7986 0.228075 0
M  V30 12950 C 1229.36 1.51938 -3.27028 0
M  V30 12951 O 1228.46 2.63121 -3.17555 0
M  V30 12952 H 1227.8 0.207567 -0.630723 0
M  V30 12953 H 1230.33 0.0162254 -2.04594 0
M  V30 12954 H 1230.34 1.89466 -3.6134 0
M  V30 12955 H 1229.02 0.838207 -4.07366 0
M  V30 12956 H 1227.59 2.28316 -2.94832 0
M  V30 12957 N 1229.78 1.54207 0.325255 0
M  V30 12958 C 1230.73 1.83474 1.40021 0
M  V30 12959 C 1231.7 0.681719 1.51466 0
M  V30 12960 O 1232.88 0.92798 1.66713 0
M  V30 12961 C 1230.02 2.06624 2.76407 0
M  V30 12962 C 1229.13 3.3431 2.73607 0
M  V30 12963 C 1228.27 3.4743 4.01828 0
M  V30 12964 C 1227.31 4.68997 3.93329 0
M  V30 12965 N 1226.45 4.79052 5.13277 0
M  V30 12966 H 1231.29 2.75182 1.14363 0
M  V30 12967 H 1228.82 1.36284 0.553639 0
M  V30 12968 H 1230.78 2.18037 3.5569 0
M  V30 12969 H 1229.41 1.18209 3.00377 0
M  V30 12970 H 1228.46 3.31643 1.86324 0
M  V30 12971 H 1229.77 4.237 2.6321 0
M  V30 12972 H 1228.93 3.58376 4.89542 0
M  V30 12973 H 1227.67 2.56128 4.1503 0
M  V30 12974 H 1226.67 4.58109 3.04 0
M  V30 12975 H 1227.9 5.61681 3.81695 0
M  V30 12976 H 1225.84 3.90666 5.26988 0
M  V30 12977 H 1225.76 5.62406 5.05208 0
M  V30 12978 H 1227.03 4.94328 6.02711 0
M  V30 12979 N 1231.26 -0.58723 1.46251 0
M  V30 12980 C 1232.51 -1.34179 1.50595 0
M  V30 12981 C 1232.82 -1.94943 0.160171 0
M  V30 12982 O 1234.03 -2.71378 0.0813797 0
M  V30 12983 C 1232.48 -2.43159 2.65333 0
M  V30 12984 C 1232.09 -1.88718 4.06312 0
M  V30 12985 C 1233.83 -3.19986 2.78943 0
M  V30 12986 C 1231.74 -2.953 5.12398 0
M  V30 12987 H 1230.67 -0.504401 0.560442 0
M  V30 12988 H 1233.32 -0.627179 1.72449 0
M  V30 12989 H 1231.7 -3.17398 2.368 0
M  V30 12990 H 1232.88 -1.21051 4.44616 0
M  V30 12991 H 1231.19 -1.24572 3.97329 0
M  V30 12992 H 1233.79 -3.9952 3.5537 0
M  V30 12993 H 1234.13 -3.72288 1.86298 0
M  V30 12994 H 1234.67 -2.52852 3.07101 0
M  V30 12995 H 1231.4 -2.4789 6.0682 0
M  V30 12996 H 1230.92 -3.61469 4.78644 0
M  V30 12997 H 1232.6 -3.5933 5.38044 0
M  V30 12998 N 1232.74 -1.33881 -0.831482 0
M  V30 12999 C 1233.67 -1.27384 -1.95693 0
M  V30 13000 C 1234.65 -0.152943 -1.69411 0
M  V30 13001 O 1235.83 -0.34392 -1.9113 0
M  V30 13002 C 1232.96 -1.01982 -3.31989 0
M  V30 13003 C 1231.92 -2.10445 -3.72689 0
M  V30 13004 C 1231.24 -1.70245 -5.06873 0
M  V30 13005 C 1232.54 -3.52194 -3.8569 0
M  V30 13006 H 1234.24 -2.21549 -2.01386 0
M  V30 13007 H 1231.78 -1.06653 -0.967526 0
M  V30 13008 H 1233.73 -0.960841 -4.103 0
M  V30 13009 H 1232.46 -0.0425709 -3.26572 0
M  V30 13010 H 1231.12 -2.15398 -2.96647 0
M  V30 13011 H 1230.77 -0.712036 -4.97935 0
M  V30 13012 H 1230.47 -2.42834 -5.35075 0
M  V30 13013 H 1231.99 -1.65827 -5.87651 0
M  V30 13014 H 1233.4 -3.49701 -4.54293 0
M  V30 13015 H 1231.8 -4.23331 -4.25336 0
M  V30 13016 H 1232.87 -3.9016 -2.87929 0
M  V30 13017 N 1234.21 1.05064 -1.1747 0
M  V30 13018 C 1235.46 1.77481 -0.958301 0
M  V30 13019 C 1235.78 1.88725 0.51401 0
M  V30 13020 O 1236.98 2.57895 0.848657 0
M  V30 13021 C 1235.44 3.19048 -1.66543 0
M  V30 13022 C 1235.05 3.1593 -3.17636 0
M  V30 13023 C 1236.79 3.95912 -1.53146 0
M  V30 13024 C 1234.7 4.52293 -3.81032 0
M  V30 13025 H 1233.63 0.665247 -0.354913 0
M  V30 13026 H 1236.28 1.17751 -1.40737 0
M  V30 13027 H 1234.66 3.79113 -1.1441 0
M  V30 13028 H 1235.83 2.65375 -3.76713 0
M  V30 13029 H 1234.15 2.52564 -3.31059 0
M  V30 13030 H 1236.75 4.96737 -1.9788 0
M  V30 13031 H 1237.09 4.13498 -0.482203 0
M  V30 13032 H 1237.62 3.42399 -2.02504 0
M  V30 13033 H 1234.36 4.39913 -4.8596 0
M  V30 13034 H 1233.88 5.02991 -3.26741 0
M  V30 13035 H 1235.56 5.2123 -3.83312 0
M  V30 13036 N 1235.69 0.975146 1.23809 0
M  V30 13037 C 1236.94 0.642074 1.92367 0
M  V30 13038 C 1237.27 -0.82164 1.75962 0
M  V30 13039 O 1236.55 -1.59205 1.11732 0
M  V30 13040 C 1236.83 1.02677 3.45151 0
M  V30 13041 C 1236.68 2.54773 3.7069 0
M  V30 13042 C 1238 0.5668 4.36435 0
M  V30 13043 H 1235.12 0.234735 0.698619 0
M  V30 13044 H 1237.76 1.21549 1.46034 0
M  V30 13045 H 1235.91 0.538846 3.84745 0
M  V30 13046 H 1237.58 3.11099 3.4061 0
M  V30 13047 H 1235.83 2.97641 3.15583 0
M  V30 13048 H 1236.5 2.7674 4.77618 0
M  V30 13049 H 1238.97 0.985635 4.04258 0
M  V30 13050 H 1237.85 0.864458 5.4205 0
M  V30 13051 H 1238.11 -0.532989 4.38875 0
M  V30 13052 N 1237.17 -1.38817 0.746158 0
M  V30 13053 C 1238.45 -1.94303 0.224841 0
M  V30 13054 C 1238.83 -1.68207 -1.27552 0
M  V30 13055 O 1238.17 -1.01647 -2.04646 0
M  V30 13056 C 1238.38 -3.44306 0.5705 0
M  V30 13057 C 1239.73 -4.21329 0.526015 0
M  V30 13058 O 1240.76 -3.52554 0.508351 0
M  V30 13059 O 1239.62 -5.4392 0.530383 0
M  V30 13060 H 1236.71 -0.825785 0.0448047 0
M  V30 13061 H 1239.26 -1.48253 0.825775 0
M  V30 13062 H 1238.03 -3.56779 1.60701 0
M  V30 13063 H 1237.65 -3.97556 -0.0588271 0
M  V30 13064 N 1238.65 -0.49465 -1.49636 0
M  V30 13065 C 1239.89 0.0442152 -2.03352 0
M  V30 13066 C 1240.25 1.35275 -1.36815 0
M  V30 13067 O 1239.54 1.85158 -0.492671 0
M  V30 13068 C 1239.74 0.259743 -3.56455 0
M  V30 13069 C 1239.56 -1.02635 -4.37831 0
M  V30 13070 C 1238.33 -1.57636 -4.80082 0
M  V30 13071 C 1240.53 -1.92797 -4.76795 0
M  V30 13072 N 1238.51 -2.80902 -5.45864 0
M  V30 13073 C 1239.89 -3.00644 -5.4223 0
M  V30 13074 C 1241.94 -1.93552 -4.5874 0
M  V30 13075 C 1240.64 -4.09265 -5.91519 0
M  V30 13076 C 1242.67 -3.01144 -5.08986 0
M  V30 13077 C 1242.03 -4.07709 -5.74415 0
M  V30 13078 H 1238.13 -0.0244415 -0.781618 0
M  V30 13079 H 1240.71 -0.668098 -1.82878 0
M  V30 13080 H 1238.89 0.941108 -3.76826 0
M  V30 13081 H 1240.62 0.795048 -3.96814 0
M  V30 13082 H 1237.37 -1.12236 -4.60109 0
M  V30 13083 H 1237.8 -3.43565 -5.83345 0
M  V30 13084 H 1242.44 -1.12473 -4.07566 0
M  V30 13085 H 1240.16 -4.91146 -6.41717 0
M  V30 13086 H 1243.74 -3.02739 -4.9683 0
M  V30 13087 H 1242.62 -4.89591 -6.12593 0
M  V30 13088 N 1240.13 1.55939 -0.228214 0
M  V30 13089 C 1241.4 1.90329 0.451033 0
M  V30 13090 C 1241.78 1.14646 1.77255 0
M  V30 13091 O 1241.13 0.257912 2.2704 0
M  V30 13092 C 1241.34 3.43129 0.637456 0
M  V30 13093 C 1242.69 4.14022 0.94186 0
M  V30 13094 O 1243.71 3.48764 0.724002 0
M  V30 13095 O 1242.57 5.29418 1.35568 0
M  V30 13096 H 1239.67 0.791591 0.2394 0
M  V30 13097 H 1242.21 1.67524 -0.270893 0
M  V30 13098 H 1240.98 3.90191 -0.294435 0
M  V30 13099 H 1240.61 3.71735 1.41062 0
M  V30 13100 N 1241.6 -0.0451101 1.57535 0
M  V30 13101 C 1242.85 -0.740209 1.88809 0
M  V30 13102 C 1243.18 -1.75854 0.823956 0
M  V30 13103 O 1242.46 -1.93817 -0.16286 0
M  V30 13104 C 1242.74 -1.42424 3.30737 0
M  V30 13105 C 1242.59 -0.42052 4.4783 0
M  V30 13106 C 1243.91 -2.36241 3.7132 0
M  V30 13107 H 1241.03 -0.267628 0.686691 0
M  V30 13108 H 1243.67 -0.00309149 1.9 0
M  V30 13109 H 1241.82 -2.05254 3.29853 0
M  V30 13110 H 1243.5 0.204625 4.60846 0
M  V30 13111 H 1241.74 0.261739 4.3301 0
M  V30 13112 H 1242.41 -0.937298 5.43984 0
M  V30 13113 H 1244.89 -1.83468 3.73468 0
M  V30 13114 H 1243.76 -2.81091 4.71465 0
M  V30 13115 H 1244.02 -3.2222 3.02699 0
M  V30 13116 N 1243.08 -1.54377 -0.317073 0
M  V30 13117 C 1244.03 -1.80597 -1.39172 0
M  V30 13118 C 1245.02 -0.662289 -1.46637 0
M  V30 13119 O 1246.21 -0.922477 -1.51061 0
M  V30 13120 C 1243.34 -2.04252 -2.75927 0
M  V30 13121 C 1242.42 -3.2476 -2.72749 0
M  V30 13122 N 1242.81 -4.45671 -2.39189 0
M  V30 13123 C 1241.11 -3.26464 -3.03871 0
M  V30 13124 C 1241.81 -5.27631 -2.44908 0
M  V30 13125 N 1240.79 -4.64968 -2.81613 0
M  V30 13126 H 1244.59 -2.71655 -1.12164 0
M  V30 13127 H 1242.11 -1.5366 -0.525586 0
M  V30 13128 H 1244.1 -2.21178 -3.53392 0
M  V30 13129 H 1242.76 -1.14452 -3.0386 0
M  V30 13130 H 1243.77 -4.72556 -2.11922 0
M  V30 13131 H 1240.45 -2.46718 -3.36803 0
M  V30 13132 H 1241.84 -6.34202 -2.21896 0
M  V30 13133 N 1244.56 0.579466 -1.4656 0
M  V30 13134 C 1245.51 1.68327 -1.53785 0
M  V30 13135 C 1246.49 1.55887 -0.398512 0
M  V30 13136 O 1247.69 1.64746 -0.647119 0
M  V30 13137 C 1244.82 3.07113 -1.53416 0
M  V30 13138 C 1243.9 3.24839 -2.72655 0
M  V30 13139 N 1244.29 3.12711 -3.97549 0
M  V30 13140 C 1242.59 3.55786 -2.68947 0
M  V30 13141 C 1243.29 3.32528 -4.77284 0
M  V30 13142 N 1242.27 3.57834 -4.09214 0
M  V30 13143 H 1246.07 1.57486 -2.48144 0
M  V30 13144 H 1243.58 0.783591 -1.42245 0
M  V30 13145 H 1245.58 3.86338 -1.5668 0
M  V30 13146 H 1244.24 3.19083 -0.601365 0
M  V30 13147 H 1245.25 2.90508 -4.28749 0
M  V30 13148 H 1241.93 3.7442 -1.84705 0
M  V30 13149 H 1243.32 3.28308 -5.86228 0
M  V30 13150 N 1246.04 1.3432 0.824371 0
M  V30 13151 C 1247.29 1.26345 1.57738 0
M  V30 13152 C 1247.61 -0.166836 1.94285 0
M  V30 13153 O 1246.88 -1.09911 1.62162 0
M  V30 13154 H 1245.46 0.46466 0.584893 0
M  V30 13155 H 1248.12 1.68214 0.984373 0
M  V30 13156 H 1247.22 1.8672 2.50084 0
M  V30 13157 N 1247.52 -1.0444 1.18026 0
M  V30 13158 C 1248.46 -2.14474 0.900202 0
M  V30 13159 C 1249.46 -1.68836 -0.138086 0
M  V30 13160 O 1250.66 -1.79997 0.00971011 0
M  V30 13161 H 1247.04 -0.700457 0.273613 0
M  V30 13162 H 1249.01 -2.35295 1.83518 0
M  V30 13163 C 1247.76 -3.44926 0.438305 0
M  V30 13164 H 1247.08 -3.8045 1.22874 0
M  V30 13165 H 1248.52 -4.23066 0.281306 0
M  V30 13166 C 1246.98 -3.26124 -0.845268 0
M  V30 13167 O 1247.51 -3.53368 -1.91034 0
M  V30 13168 N 1245.72 -2.79474 -0.7964 0
M  V30 13169 H 1245.26 -2.57503 0.0705595 0
M  V30 13170 H 1245.22 -2.67274 -1.65566 0
M  V30 13171 N 1248.99 -0.981699 -1.2329 0
M  V30 13172 C 1250.24 -0.650015 -1.91361 0
M  V30 13173 C 1250.56 0.819184 -1.76959 0
M  V30 13174 O 1249.83 1.5861 -1.14977 0
M  V30 13175 H 1248.41 -0.237427 -0.708264 0
M  V30 13176 H 1251.08 -1.24579 -1.49887 0
M  V30 13177 H 1250.17 -0.902772 -2.98758 0
M  V30 13178 N 1250.47 1.3842 -0.753509 0
M  V30 13179 C 1251.7 2.04403 -0.320449 0
M  V30 13180 C 1252.12 1.5683 1.05118 0
M  V30 13181 O 1251.47 0.741335 1.66765 0
M  V30 13182 C 1251.52 3.59954 -0.333937 0
M  V30 13183 O 1251.24 4.05782 -1.65144 0
M  V30 13184 C 1252.75 4.43156 0.112997 0
M  V30 13185 H 1249.97 0.656881 -0.136927 0
M  V30 13186 H 1252.51 1.77112 -1.02234 0
M  V30 13187 H 1250.66 3.86083 0.319215 0
M  V30 13188 H 1251.08 5.00213 -1.57757 0
M  V30 13189 H 1252.55 5.51975 0.0523995 0
M  V30 13190 H 1253.03 4.23581 1.16087 0
M  V30 13191 H 1253.64 4.22216 -0.511278 0
M  V30 13192 N 1251.95 0.502579 1.49372 0
M  V30 13193 C 1252.88 -0.311743 2.2707 0
M  V30 13194 C 1253.9 -0.929204 1.33677 0
M  V30 13195 O 1255.08 -0.812277 1.58948 0
M  V30 13196 C 1252.18 -1.45404 3.06122 0
M  V30 13197 C 1251.36 -0.943591 4.27101 0
M  V30 13198 C 1250.42 -1.96368 4.88186 0
M  V30 13199 O 1249.44 -1.5316 5.48207 0
M  V30 13200 N 1250.64 -3.29419 4.77978 0
M  V30 13201 H 1253.41 0.354503 2.97596 0
M  V30 13202 H 1250.97 0.335222 1.58392 0
M  V30 13203 H 1252.96 -2.13404 3.43862 0
M  V30 13204 H 1251.53 -2.02441 2.38194 0
M  V30 13205 H 1250.75 -0.0884372 3.94101 0
M  V30 13206 H 1252.04 -0.580983 5.05472 0
M  V30 13207 H 1251.44 -3.67211 4.30317 0
M  V30 13208 H 1250 -3.93129 5.19897 0
M  V30 13209 N 1253.43 -1.55816 0.23648 0
M  V30 13210 C 1254.36 -2.18248 -0.700024 0
M  V30 13211 C 1255.37 -1.15579 -1.14654 0
M  V30 13212 O 1256.56 -1.42491 -1.07511 0
M  V30 13213 C 1253.66 -2.76338 -1.9619 0
M  V30 13214 C 1252.84 -4.04325 -1.66853 0
M  V30 13215 C 1251.89 -4.46834 -2.77895 0
M  V30 13216 O 1250.92 -5.13427 -2.45725 0
M  V30 13217 N 1252.12 -4.13753 -4.07171 0
M  V30 13218 H 1254.89 -2.99241 -0.16589 0
M  V30 13219 H 1252.45 -1.61803 0.0560383 0
M  V30 13220 H 1254.44 -3.01739 -2.69695 0
M  V30 13221 H 1253.01 -1.99563 -2.4061 0
M  V30 13222 H 1252.23 -3.86623 -0.769164 0
M  V30 13223 H 1253.52 -4.8779 -1.44703 0
M  V30 13224 H 1252.92 -3.60271 -4.36144 0
M  V30 13225 H 1251.47 -4.44014 -4.77174 0
M  V30 13226 N 1254.91 0.036755 -1.57557 0
M  V30 13227 C 1255.87 1.02435 -2.05036 0
M  V30 13228 C 1256.87 1.29506 -0.953146 0
M  V30 13229 O 1258.06 1.24638 -1.217 0
M  V30 13230 C 1255.19 2.3592 -2.46079 0
M  V30 13231 H 1256.38 0.614384 -2.93539 0
M  V30 13232 H 1253.94 0.283396 -1.53709 0
M  V30 13233 H 1254.67 2.8168 -1.60708 0
M  V30 13234 H 1254.46 2.17603 -3.26177 0
M  V30 13235 H 1255.95 3.06839 -2.83266 0
M  V30 13236 N 1256.39 1.54543 0.308881 0
M  V30 13237 C 1257.63 1.73449 1.04506 0
M  V30 13238 C 1257.96 0.516034 1.8753 0
M  V30 13239 O 1257.22 -0.502106 1.89149 0
M  V30 13240 C 1257.51 2.97124 1.98626 0
M  V30 13241 C 1257.18 4.31256 1.31641 0
M  V30 13242 C 1255.84 4.67719 1.13105 0
M  V30 13243 C 1258.19 5.14437 0.836888 0
M  V30 13244 C 1255.52 5.84949 0.452878 0
M  V30 13245 C 1257.87 6.32365 0.172473 0
M  V30 13246 C 1256.54 6.67495 -0.0249143 0
M  V30 13247 H 1255.81 0.634697 0.382415 0
M  V30 13248 H 1258.46 1.88795 0.320714 0
M  V30 13249 H 1256.76 2.76526 2.77562 0
M  V30 13250 H 1258.46 3.08946 2.55643 0
M  V30 13251 H 1255.05 4.02576 1.47074 0
M  V30 13252 H 1259.23 4.86772 0.967834 0
M  V30 13253 H 1254.49 6.10717 0.288886 0
M  V30 13254 H 1258.66 6.96092 -0.207027 0
M  V30 13255 H 1256.29 7.5819 -0.552425 0
M  V30 13256 N 1257.86 -0.571685 1.46866 0
M  V30 13257 C 1259.09 -1.35327 1.56109 0
M  V30 13258 C 1259.5 -1.88086 0.20504 0
M  V30 13259 O 1258.84 -1.64896 -0.809626 0
M  V30 13260 C 1258.91 -2.56939 2.51441 0
M  V30 13261 C 1258.57 -2.2557 3.97451 0
M  V30 13262 C 1259.57 -1.83737 4.86351 0
M  V30 13263 C 1257.25 -2.37375 4.42672 0
M  V30 13264 C 1259.25 -1.54118 6.18487 0
M  V30 13265 C 1256.93 -2.07368 5.7484 0
M  V30 13266 C 1257.93 -1.65806 6.62569 0
M  V30 13267 O 1257.62 -1.36173 7.92283 0
M  V30 13268 H 1257.35 -0.419368 0.530194 0
M  V30 13269 H 1259.91 -0.700859 1.93073 0
M  V30 13270 H 1258.14 -3.25023 2.09517 0
M  V30 13271 H 1259.82 -3.19012 2.5097 0
M  V30 13272 H 1260.59 -1.74122 4.52666 0
M  V30 13273 H 1256.47 -2.68686 3.74605 0
M  V30 13274 H 1260.01 -1.21603 6.8692 0
M  V30 13275 H 1255.91 -2.16611 6.08071 0
M  V30 13276 H 1256.68 -1.49926 8.04652 0
M  V30 13277 N 1259.34 -1.34755 -0.817236 0
M  V30 13278 C 1260.57 -1.30676 -1.61054 0
M  V30 13279 C 1260.99 0.115343 -1.87746 0
M  V30 13280 O 1260.35 1.07887 -1.45705 0
M  V30 13281 C 1260.4 -2.10881 -2.92509 0
M  V30 13282 O 1259.5 -1.48223 -3.84842 0
M  V30 13283 H 1258.84 -0.448531 -0.489608 0
M  V30 13284 H 1261.37 -1.77642 -1.01512 0
M  V30 13285 H 1261.38 -2.22446 -3.42026 0
M  V30 13286 H 1260.06 -3.14274 -2.72406 0
M  V30 13287 H 1258.63 -1.45434 -3.4337 0
M  V30 13288 N 1260.82 1.03812 -1.18578 0
M  V30 13289 C 1262.1 1.74062 -0.892288 0
M  V30 13290 C 1262.48 2.02267 0.604256 0
M  V30 13291 O 1261.82 1.66988 1.55972 0
M  V30 13292 C 1262.03 3.024 -1.74228 0
M  V30 13293 C 1263.38 3.76088 -1.97087 0
M  V30 13294 O 1264.41 3.12305 -1.71302 0
M  V30 13295 O 1263.27 4.90732 -2.40509 0
M  V30 13296 H 1260.36 0.757567 -0.331695 0
M  V30 13297 H 1262.91 1.09855 -1.29345 0
M  V30 13298 H 1261.68 2.77713 -2.75665 0
M  V30 13299 H 1261.3 3.74346 -1.3398 0
M  V30 13300 N 1262.3 0.988223 1.22768 0
M  V30 13301 C 1263.71 0.697281 1.7319 0
M  V30 13302 C 1264.06 -0.786111 1.79763 0
M  V30 13303 O 1263.18 -1.61465 1.44077 0
M  V30 13304 C 1263.78 1.25905 3.14537 0
M  V30 13305 C 1262.34 1.01759 3.62384 0
M  V30 13306 C 1261.49 1.38207 2.40404 0
M  V30 13307 H 1264.44 1.16114 1.08181 0
M  V30 13308 H 1264.46 0.635315 3.75159 0
M  V30 13309 H 1263.97 2.33869 3.09721 0
M  V30 13310 H 1262.07 -0.045627 3.72572 0
M  V30 13311 H 1262.18 1.67767 4.48766 0
M  V30 13312 H 1260.55 0.800607 2.4179 0
M  V30 13313 H 1261.33 2.47165 2.38253 0
M  V30 13314 N 1263.78 -1.38018 0.760839 0
M  V30 13315 C 1265 -2.04757 0.330038 0
M  V30 13316 C 1265.43 -1.57009 -1.03585 0
M  V30 13317 O 1264.78 -0.725349 -1.66158 0
M  V30 13318 C 1264.83 -3.58696 0.370082 0
M  V30 13319 O 1263.94 -4.07507 -0.633361 0
M  V30 13320 H 1263.28 -0.648023 0.144782 0
M  V30 13321 H 1265.81 -1.7655 1.03399 0
M  V30 13322 H 1265.82 -4.07387 0.223515 0
M  V30 13323 H 1264.49 -3.92806 1.36661 0
M  V30 13324 H 1263.07 -3.70165 -0.45081 0
M  V30 13325 N 1265.25 -0.510493 -1.49103 0
M  V30 13326 C 1266.5 0.030689 -2.02777 0
M  V30 13327 C 1266.83 1.35765 -1.38858 0
M  V30 13328 O 1266.11 1.87209 -0.527528 0
M  V30 13329 C 1266.39 0.173261 -3.59683 0
M  V30 13330 C 1266.24 -1.17749 -4.34114 0
M  V30 13331 C 1267.56 0.909395 -4.30602 0
M  V30 13332 H 1264.68 0.0096789 -0.736936 0
M  V30 13333 H 1267.32 -0.663746 -1.78029 0
M  V30 13334 H 1265.47 0.764721 -3.80899 0
M  V30 13335 H 1267.15 -1.80856 -4.24369 0
M  V30 13336 H 1265.39 -1.76438 -3.96298 0
M  V30 13337 H 1266.06 -1.03094 -5.42287 0
M  V30 13338 H 1268.54 0.407677 -4.14098 0
M  V30 13339 H 1267.41 0.978012 -5.40117 0
M  V30 13340 H 1267.67 1.9553 -3.96511 0
M  V30 13341 N 1266.73 1.55688 -0.24474 0
M  V30 13342 C 1267.66 2.24272 0.64995 0
M  V30 13343 C 1268.64 1.22226 1.183 0
M  V30 13344 O 1269.83 1.50873 1.22274 0
M  V30 13345 C 1266.96 2.94053 1.84798 0
M  V30 13346 C 1265.91 4.02769 1.44779 0
M  V30 13347 C 1265.24 4.59965 2.72647 0
M  V30 13348 C 1266.54 5.18601 0.62047 0
M  V30 13349 H 1268.23 2.99298 0.0780654 0
M  V30 13350 H 1265.78 1.43955 0.0361069 0
M  V30 13351 H 1267.73 3.40732 2.47951 0
M  V30 13352 H 1266.45 2.16511 2.44521 0
M  V30 13353 H 1265.11 3.56856 0.839609 0
M  V30 13354 H 1264.76 3.79126 3.30564 0
M  V30 13355 H 1264.46 5.33352 2.46596 0
M  V30 13356 H 1265.99 5.09376 3.36703 0
M  V30 13357 H 1267.4 5.61519 1.15625 0
M  V30 13358 H 1265.8 5.98364 0.456097 0
M  V30 13359 H 1266.87 4.83503 -0.367798 0
M  V30 13360 N 1268.21 -0.0283989 1.57574 0
M  V30 13361 C 1269.44 -0.729772 1.93282 0
M  V30 13362 C 1269.85 -1.69384 0.842959 0
M  V30 13363 O 1269.19 -1.82722 -0.189286 0
M  V30 13364 C 1269.25 -1.54107 3.24794 0
M  V30 13365 C 1268.92 -0.741709 4.50941 0
M  V30 13366 C 1269.91 -0.0416985 5.19883 0
M  V30 13367 C 1267.6 -0.696053 4.97454 0
M  V30 13368 C 1269.59 0.693261 6.33619 0
M  V30 13369 C 1267.28 0.042651 6.11085 0
M  V30 13370 C 1268.28 0.736067 6.79022 0
M  V30 13371 O 1267.97 1.46278 7.9048 0
M  V30 13372 H 1267.7 -0.210092 0.642524 0
M  V30 13373 H 1270.25 0.0102277 2.05397 0
M  V30 13374 H 1268.48 -2.3249 3.09007 0
M  V30 13375 H 1270.17 -2.12512 3.45823 0
M  V30 13376 H 1270.94 -0.0679975 4.84952 0
M  V30 13377 H 1266.82 -1.22528 4.44419 0
M  V30 13378 H 1270.36 1.23504 6.8658 0
M  V30 13379 H 1266.26 0.0708708 6.45461 0
M  V30 13380 H 1267.02 1.37652 8.06842 0
M  V30 13381 N 1269.69 -1.54705 -0.300681 0
M  V30 13382 C 1270.62 -1.80561 -1.39546 0
M  V30 13383 C 1271.6 -0.656825 -1.48743 0
M  V30 13384 O 1272.78 -0.896815 -1.658 0
M  V30 13385 C 1269.91 -1.94261 -2.77453 0
M  V30 13386 C 1268.96 -3.16687 -2.85678 0
M  V30 13387 S 1269.79 -4.74747 -2.47741 0
M  V30 13388 C 1270.94 -4.91384 -3.87676 0
M  V30 13389 H 1271.18 -2.73136 -1.17405 0
M  V30 13390 H 1268.71 -1.46121 -0.498809 0
M  V30 13391 H 1270.67 -2.0284 -3.56884 0
M  V30 13392 H 1269.33 -1.02623 -2.96862 0
M  V30 13393 H 1268.52 -3.23076 -3.8683 0
M  V30 13394 H 1268.12 -3.06556 -2.14241 0
M  V30 13395 H 1270.42 -4.75427 -4.82676 0
M  V30 13396 H 1271.36 -5.93475 -3.86256 0
M  V30 13397 H 1271.77 -4.19533 -3.77693 0
M  V30 13398 N 1271.17 0.563888 -1.47167 0
M  V30 13399 C 1272.39 1.35176 -1.57297 0
M  V30 13400 C 1272.82 1.86794 -0.221235 0
M  V30 13401 O 1272.17 1.62606 0.801809 0
M  V30 13402 C 1272.22 2.50225 -2.59654 0
M  V30 13403 O 1271.33 3.5225 -2.14461 0
M  V30 13404 H 1270.67 0.401795 -0.528637 0
M  V30 13405 H 1273.2 0.682137 -1.92894 0
M  V30 13406 H 1273.21 2.96886 -2.79862 0
M  V30 13407 H 1271.88 2.1201 -3.57805 0
M  V30 13408 H 1270.46 3.1194 -2.04323 0
M  V30 13409 N 1272.64 1.35187 0.810078 0
M  V30 13410 C 1273.57 1.30481 1.93641 0
M  V30 13411 C 1274.56 0.179875 1.69146 0
M  V30 13412 O 1275.74 0.374284 1.90559 0
M  V30 13413 C 1272.87 1.07251 3.30325 0
M  V30 13414 C 1271.82 2.16348 3.69293 0
M  V30 13415 C 1271.15 1.78288 5.04101 0
M  V30 13416 C 1272.45 3.58285 3.80038 0
M  V30 13417 H 1274.14 2.24725 1.97836 0
M  V30 13418 H 1271.69 1.08179 0.950436 0
M  V30 13419 H 1273.64 1.02599 4.08719 0
M  V30 13420 H 1272.37 0.0945203 3.26463 0
M  V30 13421 H 1271.03 2.2009 2.93182 0
M  V30 13422 H 1270.67 0.791163 4.96739 0
M  V30 13423 H 1270.37 2.51315 5.31144 0
M  V30 13424 H 1271.9 1.75155 5.84938 0
M  V30 13425 H 1273.31 3.56884 4.48672 0
M  V30 13426 H 1271.71 4.30044 4.18548 0
M  V30 13427 H 1272.78 3.94691 2.81685 0
M  V30 13428 N 1274.12 -1.03182 1.19127 0
M  V30 13429 C 1275.07 -2.09735 0.894172 0
M  V30 13430 C 1276.06 -1.60291 -0.139805 0
M  V30 13431 O 1277.25 -1.76879 0.065477 0
M  V30 13432 C 1274.38 -3.40578 0.431418 0
M  V30 13433 C 1273.46 -3.96764 1.49797 0
M  V30 13434 N 1273.85 -4.2665 2.71668 0
M  V30 13435 C 1272.15 -4.24741 1.36057 0
M  V30 13436 C 1272.85 -4.71737 3.40352 0
M  V30 13437 N 1271.83 -4.73091 2.67742 0
M  V30 13438 H 1275.63 -2.3073 1.82047 0
M  V30 13439 H 1273.15 -1.21016 1.083 0
M  V30 13440 H 1275.14 -4.1642 0.20004 0
M  V30 13441 H 1273.8 -3.21005 -0.488432 0
M  V30 13442 H 1274.81 -4.16023 3.08457 0
M  V30 13443 H 1271.49 -4.14447 0.503948 0
M  V30 13444 H 1272.88 -5.03806 4.44555 0
M  V30 13445 N 1275.6 -0.99472 -1.22242 0
M  V30 13446 C 1277.02 -0.705762 -1.43147 0
M  V30 13447 C 1277.22 0.722908 -1.88086 0
M  V30 13448 O 1276.27 1.49359 -2.03588 0
M  V30 13449 C 1277.59 -1.71288 -2.47145 0
M  V30 13450 C 1279.13 -1.72853 -2.60942 0
M  V30 13451 C 1279.61 -2.72433 -3.68163 0
M  V30 13452 N 1281.1 -2.71039 -3.75623 0
M  V30 13453 C 1281.83 -3.44753 -4.58184 0
M  V30 13454 N 1281.33 -4.28075 -5.44724 0
M  V30 13455 N 1283.12 -3.33451 -4.52512 0
M  V30 13456 H 1275.27 -1.91738 -0.913792 0
M  V30 13457 H 1277.54 -0.82702 -0.463403 0
M  V30 13458 H 1277.24 -2.7353 -2.21075 0
M  V30 13459 H 1277.12 -1.50721 -3.45779 0
M  V30 13460 H 1279.5 -0.713085 -2.86355 0
M  V30 13461 H 1279.59 -1.9749 -1.62577 0
M  V30 13462 H 1279.23 -3.74129 -3.43497 0
M  V30 13463 H 1279.16 -2.45066 -4.66101 0
M  V30 13464 H 1281.65 -2.10581 -3.1379 0
M  V30 13465 H 1281.96 -4.81143 -6.04749 0
M  V30 13466 H 1280.31 -4.32161 -5.44299 0
M  V30 13467 H 1283.5 -2.67797 -3.8393 0
M  V30 13468 H 1283.67 -3.91158 -5.16623 0
M  V30 13469 N 1277.08 1.37613 -0.768148 0
M  V30 13470 C 1278.31 2.03756 -0.341615 0
M  V30 13471 C 1278.72 1.58063 1.03984 0
M  V30 13472 O 1278.06 0.755609 1.6744 0
M  V30 13473 C 1278.12 3.58229 -0.302032 0
M  V30 13474 C 1277.79 4.27039 -1.62747 0
M  V30 13475 C 1278.78 4.51408 -2.57928 0
M  V30 13476 C 1276.47 4.64941 -1.90092 0
M  V30 13477 C 1278.46 5.12731 -3.78663 0
M  V30 13478 C 1276.15 5.25986 -3.11098 0
M  V30 13479 C 1277.15 5.49818 -4.05203 0
M  V30 13480 O 1276.83 6.09588 -5.24078 0
M  V30 13481 H 1276.57 0.660992 -0.141655 0
M  V30 13482 H 1279.12 1.77001 -1.04211 0
M  V30 13483 H 1277.35 3.84016 0.454811 0
M  V30 13484 H 1279.04 4.05784 0.0969452 0
M  V30 13485 H 1279.81 4.22542 -2.38083 0
M  V30 13486 H 1275.68 4.45729 -1.17674 0
M  V30 13487 H 1279.23 5.31249 -4.52129 0
M  V30 13488 H 1275.13 5.54276 -3.3083 0
M  V30 13489 H 1275.89 6.28068 -5.24855 0
M  V30 13490 N 1278.56 0.518393 1.4883 0
M  V30 13491 C 1279.83 -0.0837498 1.95421 0
M  V30 13492 C 1280.21 -1.52435 1.46037 0
M  V30 13493 O 1279.56 -2.18093 0.681736 0
M  V30 13494 C 1279.77 0.0215333 3.48993 0
M  V30 13495 C 1281.12 -0.143615 4.24357 0
M  V30 13496 O 1282.14 -0.0528223 3.56161 0
M  V30 13497 O 1281 -0.332231 5.45489 0
M  V30 13498 H 1278.1 -0.0857132 0.822546 0
M  V30 13499 H 1280.64 0.582169 1.59402 0
M  V30 13500 H 1279.41 1.02549 3.77623 0
M  V30 13501 H 1279.04 -0.683756 3.91677 0
M  V30 13502 N 1280.03 -1.55556 0.252993 0
M  V30 13503 C 1281.31 -1.91022 -0.420696 0
M  V30 13504 C 1281.69 -1.17452 -1.75409 0
M  V30 13505 O 1281.04 -0.294 -2.26601 0
M  V30 13506 C 1281.25 -3.441 -0.582787 0
M  V30 13507 C 1282.6 -4.15468 -0.875873 0
M  V30 13508 O 1283.62 -3.49872 -0.668425 0
M  V30 13509 O 1282.48 -5.31508 -1.27128 0
M  V30 13510 H 1279.57 -0.7953 -0.226776 0
M  V30 13511 H 1282.12 -1.67072 0.297511 0
M  V30 13512 H 1280.89 -3.89673 0.356474 0
M  V30 13513 H 1280.52 -3.73933 -1.3513 0
M  V30 13514 N 1281.51 0.0200419 -1.57587 0
M  V30 13515 C 1282.76 0.707627 -1.89307 0
M  V30 13516 C 1283.08 1.7541 -0.851831 0
M  V30 13517 O 1282.35 1.95571 0.113404 0
M  V30 13518 H 1280.93 0.264349 -0.698662 0
M  V30 13519 H 1283.59 -0.0161428 -1.94893 0
M  V30 13520 H 1282.69 1.19152 -2.8846 0
M  V30 13521 N 1282.99 1.54862 0.292472 0
M  V30 13522 C 1283.94 1.87168 1.38097 0
M  V30 13523 C 1284.93 0.746176 1.52081 0
M  V30 13524 O 1286.14 0.930281 1.54097 0
M  V30 13525 H 1282.51 0.593769 0.461456 0
M  V30 13526 H 1284.48 2.78135 1.0809 0
M  V30 13527 C 1283.23 2.14315 2.73796 0
M  V30 13528 H 1282.56 3.00398 2.63821 0
M  V30 13529 H 1284 2.40853 3.48949 0
M  V30 13530 C 1282.46 0.944424 3.23392 0
M  V30 13531 O 1282.99 0.169208 4.01343 0
M  V30 13532 N 1281.19 0.747456 2.80823 0
M  V30 13533 H 1280.74 1.37953 2.17547 0
M  V30 13534 H 1280.7 -0.0530199 3.14355 0
M  V30 13535 N 1284.47 -0.556076 1.47464 0
M  V30 13536 C 1285.72 -1.3132 1.54147 0
M  V30 13537 C 1286.04 -1.93425 0.204221 0
M  V30 13538 O 1285.3 -1.78467 -0.803002 0
M  V30 13539 C 1285.6 -2.44298 2.6087 0
M  V30 13540 C 1285.26 -2.00016 4.04109 0
M  V30 13541 C 1283.93 -1.87656 4.43101 0
M  V30 13542 C 1286.28 -1.66228 4.93981 0
M  V30 13543 C 1283.61 -1.39805 5.698 0
M  V30 13544 C 1285.96 -1.19848 6.21144 0
M  V30 13545 C 1284.62 -1.06084 6.59016 0
M  V30 13546 H 1283.89 -0.480534 0.564064 0
M  V30 13547 H 1286.54 -0.623449 1.81067 0
M  V30 13548 H 1284.84 -3.18834 2.27711 0
M  V30 13549 H 1286.54 -3.02479 2.63263 0
M  V30 13550 H 1283.13 -2.1058 3.73302 0
M  V30 13551 H 1287.31 -1.7465 4.64555 0
M  V30 13552 H 1282.57 -1.27814 5.97891 0
M  V30 13553 H 1286.74 -0.927657 6.90194 0
M  V30 13554 H 1284.37 -0.687834 7.57082 0
M  V30 13555 N 1285.95 -1.35615 -0.802897 0
M  V30 13556 C 1287.19 -1.29094 -1.56016 0
M  V30 13557 C 1287.52 0.133617 -1.9404 0
M  V30 13558 O 1286.78 1.09975 -1.61876 0
M  V30 13559 C 1287.08 -2.14653 -2.8576 0
M  V30 13560 C 1286.74 -3.63395 -2.66936 0
M  V30 13561 C 1285.4 -4.03937 -2.61511 0
M  V30 13562 C 1287.76 -4.57758 -2.49212 0
M  V30 13563 C 1285.08 -5.37006 -2.36309 0
M  V30 13564 C 1287.44 -5.91029 -2.25539 0
M  V30 13565 C 1286.1 -6.30712 -2.18538 0
M  V30 13566 H 1285.37 -0.472387 -0.570904 0
M  V30 13567 H 1288.02 -1.67545 -0.92741 0
M  V30 13568 H 1286.32 -1.69095 -3.53432 0
M  V30 13569 H 1288.02 -2.06941 -3.43477 0
M  V30 13570 H 1284.61 -3.31224 -2.72009 0
M  V30 13571 H 1288.79 -4.27318 -2.52414 0
M  V30 13572 H 1284.05 -5.66748 -2.29361 0
M  V30 13573 H 1288.22 -6.63724 -2.10816 0
M  V30 13574 H 1285.85 -7.33753 -1.98772 0
M  V30 13575 N 1287.43 1.02549 -1.19673 0
M  V30 13576 C 1288.84 1.57454 -1.00325 0
M  V30 13577 C 1289.19 1.91136 0.442889 0
M  V30 13578 O 1288.31 1.7126 1.32284 0
M  V30 13579 C 1288.91 2.86091 -1.81486 0
M  V30 13580 C 1287.47 3.37557 -1.6653 0
M  V30 13581 C 1286.61 2.1096 -1.79975 0
M  V30 13582 H 1289.56 0.850364 -1.33994 0
M  V30 13583 H 1289.59 3.5713 -1.31296 0
M  V30 13584 H 1289.1 2.61546 -2.86733 0
M  V30 13585 H 1287.2 3.67083 -0.638834 0
M  V30 13586 H 1287.31 4.1036 -2.47269 0
M  V30 13587 H 1285.68 2.22993 -1.23071 0
M  V30 13588 H 1286.46 1.88852 -2.86688 0
M  V30 13589 N 1288.9 1.00119 1.21713 0
M  V30 13590 C 1290.15 0.680377 1.90303 0
M  V30 13591 C 1290.47 -0.790927 1.7824 0
M  V30 13592 O 1289.74 -1.5676 1.17486 0
M  V30 13593 H 1288.32 0.248665 0.704397 0
M  V30 13594 H 1290.98 1.26948 1.47886 0
M  V30 13595 H 1290.08 0.950188 2.97284 0
M  V30 13596 N 1290.38 -1.37203 0.775435 0
M  V30 13597 C 1291.61 -2.04396 0.351737 0
M  V30 13598 C 1292.03 -1.58099 -1.01913 0
M  V30 13599 O 1291.39 -0.742932 -1.65379 0
M  V30 13600 C 1291.44 -3.58283 0.408105 0
M  V30 13601 O 1290.54 -4.08156 -0.590104 0
M  V30 13602 H 1289.88 -0.646451 0.151647 0
M  V30 13603 H 1292.41 -1.75443 1.05265 0
M  V30 13604 H 1292.42 -4.07127 0.266711 0
M  V30 13605 H 1291.1 -3.91335 1.40819 0
M  V30 13606 H 1289.67 -3.70622 -0.411524 0
M  V30 13607 N 1291.86 -0.526279 -1.48553 0
M  V30 13608 C 1293.11 0.00914839 -2.02098 0
M  V30 13609 C 1293.43 1.35119 -1.40598 0
M  V30 13610 O 1292.7 1.87422 -0.570065 0
M  V30 13611 H 1291.28 0.00636935 -0.746973 0
M  V30 13612 H 1293.94 -0.689269 -1.82305 0
M  V30 13613 H 1293.04 0.120212 -3.11868 0
M  V30 13614 N 1293.34 1.5542 -0.261239 0
M  V30 13615 C 1294.3 2.20683 0.619011 0
M  V30 13616 C 1295.3 1.18042 1.09192 0
M  V30 13617 O 1296.49 1.43035 0.99432 0
M  V30 13618 C 1293.62 2.86179 1.85242 0
M  V30 13619 H 1294.82 2.99859 0.0493924 0
M  V30 13620 H 1292.37 1.56296 -0.0117687 0
M  V30 13621 H 1293.1 2.10978 2.4629 0
M  V30 13622 H 1292.89 3.61381 1.52138 0
M  V30 13623 H 1294.38 3.36081 2.47869 0
M  V30 13624 N 1294.82 -0.0116844 1.57596 0
M  V30 13625 C 1296.23 -0.55604 1.78228 0
M  V30 13626 C 1296.58 -1.74624 0.894474 0
M  V30 13627 O 1295.7 -2.16196 0.0938498 0
M  V30 13628 C 1296.3 -1.0155 3.23223 0
M  V30 13629 C 1294.86 -1.50525 3.44992 0
M  V30 13630 C 1294 -0.451133 2.73606 0
M  V30 13631 H 1296.95 0.214516 1.57243 0
M  V30 13632 H 1296.98 -1.88208 3.30693 0
M  V30 13633 H 1296.49 -0.149048 3.87814 0
M  V30 13634 H 1294.59 -2.39298 2.856 0
M  V30 13635 H 1294.7 -1.54076 4.53649 0
M  V30 13636 H 1293.07 -0.910135 2.37884 0
M  V30 13637 H 1293.85 0.406152 3.40889 0
M  V30 13638 N 1296.29 -1.55015 -0.284256 0
M  V30 13639 C 1297.57 -1.6579 -1.03794 0
M  V30 13640 C 1297.95 -0.517029 -2.04671 0
M  V30 13641 O 1297.3 0.484287 -2.23309 0
M  V30 13642 C 1297.51 -3.04527 -1.70483 0
M  V30 13643 C 1298.86 -3.61903 -2.22062 0
M  V30 13644 O 1299.88 -3.07087 -1.80488 0
M  V30 13645 O 1298.74 -4.57917 -2.98286 0
M  V30 13646 H 1295.83 -0.672906 -0.480757 0
M  V30 13647 H 1298.38 -1.67357 -0.281009 0
M  V30 13648 H 1297.15 -3.79004 -0.973238 0
M  V30 13649 H 1296.77 -3.0681 -2.5289 0
M  V30 13650 N 1297.77 0.548248 -1.47757 0
M  V30 13651 C 1298.68 1.68178 -1.63565 0
M  V30 13652 C 1299.7 1.661 -0.518351 0
M  V30 13653 O 1300.87 1.85384 -0.787061 0
M  V30 13654 C 1297.94 3.04673 -1.65454 0
M  V30 13655 C 1297 3.17749 -2.88677 0
M  V30 13656 C 1296.23 4.47733 -2.90466 0
M  V30 13657 O 1296.46 5.33736 -2.01201 0
M  V30 13658 O 1295.39 4.64789 -3.82433 0
M  V30 13659 H 1299.22 1.57781 -2.59497 0
M  V30 13660 H 1296.8 0.719277 -1.30946 0
M  V30 13661 H 1298.68 3.85885 -1.69324 0
M  V30 13662 H 1297.36 3.15433 -0.726912 0
M  V30 13663 H 1296.26 2.359 -2.90348 0
M  V30 13664 H 1297.6 3.11897 -3.80763 0
M  V30 13665 N 1299.25 1.36039 0.795694 0
M  V30 13666 C 1300.5 1.30112 1.5556 0
M  V30 13667 C 1300.83 -0.121197 1.93821 0
M  V30 13668 O 1300.1 -1.07313 1.62216 0
M  V30 13669 C 1300.39 2.21792 2.8369 0
M  V30 13670 C 1300.24 3.72691 2.51836 0
M  V30 13671 C 1301.56 2.12365 3.85472 0
M  V30 13672 H 1298.68 0.473971 0.564376 0
M  V30 13673 H 1301.32 1.66536 0.91465 0
M  V30 13674 H 1299.47 1.9086 3.38386 0
M  V30 13675 H 1301.14 4.14115 2.0324 0
M  V30 13676 H 1299.38 3.92436 1.84869 0
M  V30 13677 H 1300.06 4.32242 3.43323 0
M  V30 13678 H 1302.53 2.3958 3.40207 0
M  V30 13679 H 1301.41 2.78695 4.72885 0
M  V30 13680 H 1301.67 1.10898 4.27965 0
M  V30 13681 N 1300.73 -1.01913 1.20215 0
M  V30 13682 C 1301.98 -1.75124 1.00876 0
M  V30 13683 C 1302.3 -1.89485 -0.460475 0
M  V30 13684 O 1301.57 -1.43552 -1.33302 0
M  V30 13685 H 1300.15 -0.648777 0.370266 0
M  V30 13686 H 1302.81 -1.22883 1.5128 0
M  V30 13687 H 1301.91 -2.7558 1.46499 0
M  V30 13688 N 1302.21 -1.00763 -1.2118 0
M  V30 13689 C 1303.43 -0.710746 -1.94309 0
M  V30 13690 C 1303.85 0.727103 -1.74237 0
M  V30 13691 O 1303.21 1.49223 -1.05065 0
M  V30 13692 C 1303.26 -1.02562 -3.46646 0
M  V30 13693 O 1302.98 -2.40699 -3.66054 0
M  V30 13694 C 1304.48 -0.748517 -4.36935 0
M  V30 13695 H 1301.7 -0.26171 -0.617858 0
M  V30 13696 H 1304.24 -1.34639 -1.53924 0
M  V30 13697 H 1302.4 -0.435537 -3.84944 0
M  V30 13698 H 1302.81 -2.51764 -4.60125 0
M  V30 13699 H 1304.29 -1.01899 -5.42513 0
M  V30 13700 H 1304.76 0.317423 -4.38051 0
M  V30 13701 H 1305.37 -1.32033 -4.04286 0
M  V30 13702 N 1303.68 1.3679 -0.7827 0
M  V30 13703 C 1304.93 1.99023 -0.351316 0
M  V30 13704 C 1305.25 1.62436 1.07887 0
M  V30 13705 O 1304.52 0.895084 1.74256 0
M  V30 13706 H 1303.1 0.736141 -0.126909 0
M  V30 13707 H 1305.77 1.67095 -1.00325 0
M  V30 13708 H 1304.86 3.09015 -0.43774 0
M  V30 13709 N 1305.16 0.53415 1.48272 0
M  V30 13710 C 1306.57 0.0947592 1.86459 0
M  V30 13711 C 1306.92 -1.32906 1.44328 0
M  V30 13712 O 1306.05 -1.99605 0.835866 0
M  V30 13713 C 1306.64 0.16519 3.38397 0
M  V30 13714 C 1305.2 -0.219029 3.75762 0
M  V30 13715 C 1304.35 0.523097 2.72321 0
M  V30 13716 H 1307.3 0.74517 1.40117 0
M  V30 13717 H 1307.32 -0.622065 3.75381 0
M  V30 13718 H 1306.83 1.20157 3.69031 0
M  V30 13719 H 1304.94 -1.2574 3.50742 0
M  V30 13720 H 1305.05 0.123482 4.78941 0
M  V30 13721 H 1303.41 -0.0311323 2.54681 0
M  V30 13722 H 1304.2 1.56019 3.05799 0
M  V30 13723 N 1306.64 -1.55279 0.269478 0
M  V30 13724 C 1307.89 -1.99077 -0.348224 0
M  V30 13725 C 1308.21 -1.15925 -1.568 0
M  V30 13726 O 1307.48 -0.247404 -1.94331 0
M  V30 13727 H 1306.06 -0.735307 -0.131653 0
M  V30 13728 H 1308.72 -1.91288 0.373506 0
M  V30 13729 H 1307.82 -3.05427 -0.641953 0
M  V30 13730 N 1308.12 0.00332656 -1.576 0
M  V30 13731 C 1309.36 0.68989 -1.90705 0
M  V30 13732 C 1309.7 1.73608 -0.870291 0
M  V30 13733 O 1308.97 1.94181 0.111416 0
M  V30 13734 C 1309.26 1.33605 -3.34397 0
M  V30 13735 C 1309.11 0.301638 -4.48787 0
M  V30 13736 C 1310.43 2.26313 -3.77453 0
M  V30 13737 H 1307.55 0.249328 -0.693545 0
M  V30 13738 H 1310.19 -0.0472847 -1.89941 0
M  V30 13739 H 1308.34 1.96437 -3.35179 0
M  V30 13740 H 1310.01 -0.326738 -4.60141 0
M  V30 13741 H 1308.25 -0.376451 -4.32163 0
M  V30 13742 H 1308.92 0.792741 -5.46278 0
M  V30 13743 H 1311.4 1.73502 -3.78201 0
M  V30 13744 H 1310.28 2.68492 -4.78752 0
M  V30 13745 H 1310.54 3.14082 -3.11135 0
M  V30 13746 N 1309.6 1.55164 0.276031 0
M  V30 13747 C 1310.84 1.7528 1.00604 0
M  V30 13748 C 1311.17 0.555256 1.86928 0
M  V30 13749 O 1310.44 -0.429917 1.91124 0
M  V30 13750 H 1309.02 0.646377 0.374441 0
M  V30 13751 H 1311.68 1.92562 0.300992 0
M  V30 13752 H 1310.77 2.65245 1.64473 0
M  V30 13753 N 1311.07 -0.540404 1.48045 0
M  V30 13754 C 1312.32 -1.29678 1.55531 0
M  V30 13755 C 1312.65 -1.93197 0.224725 0
M  V30 13756 O 1311.9 -1.79308 -0.784028 0
M  V30 13757 C 1312.2 -2.41517 2.63447 0
M  V30 13758 C 1311.87 -1.95719 4.06208 0
M  V30 13759 C 1310.53 -1.82946 4.45067 0
M  V30 13760 C 1312.88 -1.6098 4.95717 0
M  V30 13761 C 1310.21 -1.33753 5.7125 0
M  V30 13762 C 1312.56 -1.13253 6.2238 0
M  V30 13763 C 1311.23 -0.990886 6.60104 0
M  V30 13764 H 1310.5 -0.474525 0.569129 0
M  V30 13765 H 1313.14 -0.604209 1.81718 0
M  V30 13766 H 1311.45 -3.16401 2.3108 0
M  V30 13767 H 1313.15 -2.9967 2.66457 0
M  V30 13768 H 1309.74 -2.06609 3.75514 0
M  V30 13769 H 1313.92 -1.69713 4.66381 0
M  V30 13770 H 1309.18 -1.21465 5.99213 0
M  V30 13771 H 1313.35 -0.854401 6.91139 0
M  V30 13772 H 1310.98 -0.607497 7.57769 0
M  V30 13773 N 1312.55 -1.36459 -0.788468 0
M  V30 13774 C 1313.5 -1.30924 -1.92254 0
M  V30 13775 C 1314.49 -0.200866 -1.68205 0
M  V30 13776 O 1315.7 -0.367927 -1.762 0
M  V30 13777 H 1312.08 -0.407609 -0.631949 0
M  V30 13778 H 1314.05 -2.26695 -1.94041 0
M  V30 13779 C 1312.8 -1.11635 -3.29292 0
M  V30 13780 H 1312.12 -1.96168 -3.48365 0
M  V30 13781 H 1313.56 -1.11808 -4.08993 0
M  V30 13782 C 1312.02 0.178963 -3.36424 0
M  V30 13783 O 1312.55 1.16846 -3.8433 0
M  V30 13784 N 1310.75 0.223962 -2.89736 0
M  V30 13785 H 1310.3 -0.581888 -2.50942 0
M  V30 13786 H 1310.26 1.0903 -2.94889 0
M  V30 13787 N 1314.03 1.01274 -1.20754 0
M  V30 13788 C 1315.28 1.75191 -1.02156 0
M  V30 13789 C 1315.61 1.89038 0.444791 0
M  V30 13790 O 1314.88 1.41903 1.33018 0
M  V30 13791 C 1315.17 3.16892 -1.71031 0
M  V30 13792 C 1315.02 3.10816 -3.25136 0
M  V30 13793 C 1316.34 4.15648 -1.44654 0
M  V30 13794 H 1313.46 0.635922 -0.372521 0
M  V30 13795 H 1316.1 1.18119 -1.48822 0
M  V30 13796 H 1314.25 3.6562 -1.31357 0
M  V30 13797 H 1315.92 2.69863 -3.74128 0
M  V30 13798 H 1314.17 2.48113 -3.5584 0
M  V30 13799 H 1314.84 4.11001 -3.68487 0
M  V30 13800 H 1317.31 3.75592 -1.7908 0
M  V30 13801 H 1316.19 5.12954 -1.95371 0
M  V30 13802 H 1316.45 4.40507 -0.37494 0
M  V30 13803 N 1315.51 1.01404 1.20644 0
M  V30 13804 C 1316.46 0.575388 2.25371 0
M  V30 13805 C 1317.45 -0.384598 1.64976 0
M  V30 13806 O 1318.66 -0.2548 1.78187 0
M  V30 13807 H 1315.03 0.167752 0.733051 0
M  V30 13808 H 1317 1.46964 2.597 0
M  V30 13809 C 1315.75 -0.0731257 3.47623 0
M  V30 13810 H 1315.08 0.656551 3.94372 0
M  V30 13811 H 1316.52 -0.343203 4.22609 0
M  V30 13812 C 1314.97 -1.31515 3.1017 0
M  V30 13813 O 1315.5 -2.40869 3.21473 0
M  V30 13814 N 1313.71 -1.19829 2.64744 0
M  V30 13815 H 1313.26 -0.308463 2.55746 0
M  V30 13816 H 1313.22 -2.0303 2.40054 0
M  V30 13817 N 1316.99 -1.36373 0.789944 0
M  V30 13818 C 1317.92 -2.27803 0.134613 0
M  V30 13819 C 1318.9 -1.47252 -0.689599 0
M  V30 13820 O 1320.08 -1.76551 -0.660466 0
M  V30 13821 C 1317.21 -3.28751 -0.814888 0
M  V30 13822 C 1316.26 -4.26439 -0.0724012 0
M  V30 13823 S 1317.09 -5.20654 1.2522 0
M  V30 13824 C 1318.24 -6.25148 0.306715 0
M  V30 13825 H 1318.48 -2.83036 0.909837 0
M  V30 13826 H 1316.01 -1.42922 0.584187 0
M  V30 13827 H 1317.97 -3.87413 -1.35726 0
M  V30 13828 H 1316.63 -2.72429 -1.56336 0
M  V30 13829 H 1315.82 -4.97724 -0.792894 0
M  V30 13830 H 1315.42 -3.7186 0.399504 0
M  V30 13831 H 1317.72 -6.75546 -0.514246 0
M  V30 13832 H 1318.66 -7.0117 0.98827 0
M  V30 13833 H 1319.07 -5.64428 -0.0901834 0
M  V30 13834 N 1318.47 -0.542005 -1.47987 0
M  V30 13835 C 1319.43 0.203537 -2.28294 0
M  V30 13836 C 1320.43 0.856762 -1.36074 0
M  V30 13837 O 1321.62 0.71496 -1.58852 0
M  V30 13838 C 1318.75 1.29581 -3.15312 0
M  V30 13839 H 1319.94 -0.501701 -2.95674 0
M  V30 13840 H 1317.5 -0.298378 -1.53426 0
M  V30 13841 H 1318.23 2.03393 -2.5259 0
M  V30 13842 H 1318.02 0.832398 -3.83163 0
M  V30 13843 H 1319.51 1.81988 -3.75859 0
M  V30 13844 N 1319.94 1.55134 -0.277709 0
M  V30 13845 C 1321.19 1.99654 0.33833 0
M  V30 13846 C 1321.52 1.16612 1.55666 0
M  V30 13847 O 1320.77 0.224428 1.94409 0
M  V30 13848 C 1321.07 3.49182 0.762028 0
M  V30 13849 C 1320.74 4.49524 -0.351958 0
M  V30 13850 C 1319.4 4.76682 -0.657833 0
M  V30 13851 C 1321.75 5.09406 -1.10247 0
M  V30 13852 C 1319.08 5.6099 -1.71776 0
M  V30 13853 C 1321.43 5.94866 -2.15214 0
M  V30 13854 C 1320.1 6.20344 -2.46434 0
M  V30 13855 H 1319.37 0.730584 0.123804 0
M  V30 13856 H 1322.01 1.87446 -0.391961 0
M  V30 13857 H 1320.32 3.58879 1.57204 0
M  V30 13858 H 1322.02 3.81037 1.24947 0
M  V30 13859 H 1318.61 4.28475 -0.103438 0
M  V30 13860 H 1322.79 4.88446 -0.879422 0
M  V30 13861 H 1318.05 5.78975 -1.96463 0
M  V30 13862 H 1322.22 6.403 -2.73842 0
M  V30 13863 H 1319.85 6.85464 -3.28699 0
M  V30 13864 N 1321.42 0.00503138 1.57599 0
M  V30 13865 C 1322.65 -0.689609 1.95069 0
M  V30 13866 C 1323.06 -1.67028 0.880183 0
M  V30 13867 O 1322.42 -1.81959 -0.140406 0
M  V30 13868 C 1322.47 -1.41709 3.32567 0
M  V30 13869 O 1322.19 -0.475746 4.35509 0
M  V30 13870 C 1323.69 -2.20578 3.84526 0
M  V30 13871 H 1320.91 -0.19175 0.643019 0
M  V30 13872 H 1323.46 0.057646 2.04419 0
M  V30 13873 H 1321.61 -2.11593 3.2451 0
M  V30 13874 H 1322.03 -0.989573 5.1508 0
M  V30 13875 H 1323.5 -2.66969 4.83148 0
M  V30 13876 H 1323.98 -3.03467 3.17497 0
M  V30 13877 H 1324.58 -1.557 3.95775 0
M  V30 13878 N 1322.9 -1.55308 -0.267798 0
M  V30 13879 C 1324.15 -1.75811 -0.996734 0
M  V30 13880 C 1324.47 -0.565161 -1.8663 0
M  V30 13881 O 1323.74 0.419775 -1.9135 0
M  V30 13882 H 1322.32 -0.648353 -0.371008 0
M  V30 13883 H 1324.98 -1.92719 -0.290775 0
M  V30 13884 H 1324.08 -2.66113 -1.63064 0
M  V30 13885 N 1324.38 0.532545 -1.4833 0
M  V30 13886 C 1325.63 1.28597 -1.55908 0
M  V30 13887 C 1325.95 1.93595 -0.233635 0
M  V30 13888 O 1325.22 1.81197 0.744605 0
M  V30 13889 H 1323.8 0.477619 -0.57436 0
M  V30 13890 H 1326.46 0.619922 -1.84778 0
M  V30 13891 H 1325.55 2.0666 -2.33877 0
M  V30 13892 N 1325.86 1.36875 0.78122 0
M  V30 13893 C 1326.79 1.34559 1.9083 0
M  V30 13894 C 1327.77 0.215713 1.68727 0
M  V30 13895 O 1328.95 0.41462 1.89722 0
M  V30 13896 C 1326.08 1.14233 3.27976 0
M  V30 13897 C 1325.04 2.24132 3.64621 0
M  V30 13898 C 1324.36 1.8894 5.00206 0
M  V30 13899 C 1325.66 3.66266 3.72353 0
M  V30 13900 H 1327.36 2.28871 1.93025 0
M  V30 13901 H 1324.9 1.10171 0.927275 0
M  V30 13902 H 1326.85 1.11246 4.06451 0
M  V30 13903 H 1325.58 0.163747 3.26189 0
M  V30 13904 H 1324.24 2.26259 2.88448 0
M  V30 13905 H 1323.89 0.896351 4.94949 0
M  V30 13906 H 1323.59 2.62525 5.25694 0
M  V30 13907 H 1325.11 1.87523 5.81092 0
M  V30 13908 H 1326.52 3.66321 4.41001 0
M  V30 13909 H 1324.92 4.38825 4.09332 0
M  V30 13910 H 1325.99 4.00578 2.7325 0
M  V30 13911 N 1327.33 -1.00632 1.21289 0
M  V30 13912 C 1328.61 -1.71635 0.938124 0
M  V30 13913 C 1328.99 -2.03798 -0.550416 0
M  V30 13914 O 1328.34 -1.71065 -1.5149 0
M  V30 13915 C 1328.55 -2.97674 1.82184 0
M  V30 13916 C 1329.9 -3.7073 2.06989 0
M  V30 13917 O 1330.92 -3.07653 1.79522 0
M  V30 13918 O 1329.78 -4.84183 2.53435 0
M  V30 13919 H 1326.87 -0.748506 0.351664 0
M  V30 13920 H 1329.42 -1.06387 1.32212 0
M  V30 13921 H 1328.19 -2.70306 2.82931 0
M  V30 13922 H 1327.81 -3.70663 1.43858 0
M  V30 13923 N 1328.81 -1.02043 -1.20104 0
M  V30 13924 C 1330.22 -0.742954 -1.71281 0
M  V30 13925 C 1330.57 0.738173 -1.81784 0
M  V30 13926 O 1329.7 1.57588 -1.48307 0
M  V30 13927 C 1330.29 -1.342 -3.11088 0
M  V30 13928 C 1328.85 -1.11331 -3.59559 0
M  V30 13929 C 1328 -1.44532 -2.36655 0
M  V30 13930 H 1330.95 -1.18942 -1.05064 0
M  V30 13931 H 1330.97 -0.734558 -3.73342 0
M  V30 13932 H 1330.48 -2.41998 -3.03411 0
M  V30 13933 H 1328.58 -0.05317 -3.72562 0
M  V30 13934 H 1328.7 -1.79606 -4.4416 0
M  V30 13935 H 1327.06 -0.864431 -2.39582 0
M  V30 13936 H 1327.84 -2.53394 -2.31616 0
M  V30 13937 N 1330.29 1.35952 -0.797165 0
M  V30 13938 C 1331.7 1.81554 -0.435311 0
M  V30 13939 C 1332.05 1.66266 1.04164 0
M  V30 13940 O 1331.18 1.18796 1.80877 0
M  V30 13941 C 1331.77 3.29619 -0.783358 0
M  V30 13942 C 1330.33 3.73401 -0.47423 0
M  V30 13943 C 1329.48 2.58098 -1.01394 0
M  V30 13944 H 1332.43 1.24064 -0.989638 0
M  V30 13945 H 1332.45 3.80421 -0.0773381 0
M  V30 13946 H 1331.96 3.40715 -1.85836 0
M  V30 13947 H 1330.06 3.6786 0.592418 0
M  V30 13948 H 1330.18 4.68542 -1.00026 0
M  V30 13949 H 1328.54 2.50927 -0.436747 0
M  V30 13950 H 1329.32 2.71976 -2.09485 0
M  V30 13951 N 1331.77 0.549846 1.47697 0
M  V30 13952 C 1332.7 -0.249645 2.2683 0
M  V30 13953 C 1333.68 -0.926968 1.33589 0
M  V30 13954 O 1334.86 -0.947423 1.62961 0
M  V30 13955 C 1331.99 -1.35511 3.1041 0
M  V30 13956 C 1331.04 -0.787118 4.19174 0
M  V30 13957 S 1331.87 0.360564 5.34285 0
M  V30 13958 C 1333.03 -0.746898 6.21428 0
M  V30 13959 H 1333.26 0.421876 2.94292 0
M  V30 13960 H 1330.79 0.336017 1.50699 0
M  V30 13961 H 1332.75 -1.98825 3.59137 0
M  V30 13962 H 1331.41 -1.99844 2.42325 0
M  V30 13963 H 1330.6 -1.61704 4.77355 0
M  V30 13964 H 1330.21 -0.230301 3.7329 0
M  V30 13965 H 1332.5 -1.6408 6.57331 0
M  V30 13966 H 1333.44 -0.202608 7.0781 0
M  V30 13967 H 1333.85 -1.03625 5.54907 0
M  V30 13968 N 1333.25 -1.54984 0.285932 0
M  V30 13969 C 1334.49 -1.99436 -0.32709 0
M  V30 13970 C 1334.82 -1.17582 -1.55562 0
M  V30 13971 O 1334.09 -0.268002 -1.94058 0
M  V30 13972 H 1332.67 -0.736662 -0.123846 0
M  V30 13973 H 1335.33 -1.90881 0.393774 0
M  V30 13974 H 1334.42 -3.0609 -0.609523 0
M  V30 13975 N 1334.72 -0.0133892 -1.57594 0
M  V30 13976 C 1336 0.706416 -1.82398 0
M  V30 13977 C 1336.38 1.91236 -0.893983 0
M  V30 13978 O 1335.73 2.28436 0.0541675 0
M  V30 13979 C 1335.94 1.09951 -3.31228 0
M  V30 13980 C 1337.29 1.49776 -3.97306 0
M  V30 13981 O 1338.31 1.19293 -3.3563 0
M  V30 13982 O 1337.17 2.06511 -5.0598 0
M  V30 13983 H 1334.26 0.345131 -0.751541 0
M  V30 13984 H 1336.81 -0.0398687 -1.69653 0
M  V30 13985 H 1335.58 0.240514 -3.9056 0
M  V30 13986 H 1335.21 1.90447 -3.49021 0
M  V30 13987 N 1336.2 1.55448 0.259558 0
M  V30 13988 C 1337.17 1.88459 1.30445 0
M  V30 13989 C 1338.17 0.760096 1.41701 0
M  V30 13990 O 1339.36 1.02819 1.4062 0
M  V30 13991 C 1336.49 2.10181 2.68397 0
M  V30 13992 H 1337.68 2.81877 1.02398 0
M  V30 13993 H 1335.23 1.48145 0.498262 0
M  V30 13994 H 1335.97 1.19189 3.01603 0
M  V30 13995 H 1335.75 2.92066 2.6161 0
M  V30 13996 H 1337.24 2.36947 3.43869 0
M  V30 13997 N 1337.68 -0.524672 1.4861 0
M  V30 13998 C 1338.59 -1.65554 1.6622 0
M  V30 13999 C 1339.61 -1.65254 0.54471 0
M  V30 14000 O 1340.78 -1.84109 0.816454 0
M  V30 14001 C 1337.85 -3.02003 1.7028 0
M  V30 14002 C 1336.91 -3.13116 2.93695 0
M  V30 14003 C 1336.14 -4.43055 2.97553 0
M  V30 14004 O 1336.36 -5.30468 2.09667 0
M  V30 14005 O 1335.3 -4.58646 3.89779 0
M  V30 14006 H 1339.12 -1.53633 2.61974 0
M  V30 14007 H 1336.71 -0.698354 1.32073 0
M  V30 14008 H 1338.59 -3.83143 1.75441 0
M  V30 14009 H 1337.27 -3.14236 0.777002 0
M  V30 14010 H 1336.17 -2.31251 2.94064 0
M  V30 14011 H 1337.51 -3.058 3.85677 0
M  V30 14012 N 1339.16 -1.37287 -0.77395 0
M  V30 14013 C 1340.39 -1.35366 -1.56075 0
M  V30 14014 C 1340.8 0.0634437 -1.89094 0
M  V30 14015 O 1340.14 1.03503 -1.51766 0
M  V30 14016 C 1340.2 -2.12512 -2.89964 0
M  V30 14017 C 1339.87 -3.61492 -2.79593 0
M  V30 14018 C 1340.86 -4.55421 -2.50774 0
M  V30 14019 C 1338.55 -4.04585 -2.97684 0
M  V30 14020 C 1340.54 -5.90421 -2.4017 0
M  V30 14021 C 1338.23 -5.39672 -2.86701 0
M  V30 14022 C 1339.23 -6.32403 -2.57984 0
M  V30 14023 O 1338.91 -7.65006 -2.47024 0
M  V30 14024 H 1338.65 -0.465447 -0.49024 0
M  V30 14025 H 1341.2 -1.81199 -0.967273 0
M  V30 14026 H 1339.43 -1.61366 -3.51423 0
M  V30 14027 H 1341.12 -2.03253 -3.51345 0
M  V30 14028 H 1341.89 -4.23438 -2.36485 0
M  V30 14029 H 1337.76 -3.32769 -3.19038 0
M  V30 14030 H 1341.31 -6.62769 -2.17676 0
M  V30 14031 H 1337.21 -5.71258 -3.00558 0
M  V30 14032 H 1337.97 -7.75302 -2.6239 0
M  V30 14033 N 1340.64 0.999871 -1.21821 0
M  V30 14034 C 1341.57 2.10708 -1.00621 0
M  V30 14035 C 1342.55 1.69954 0.0705417 0
M  V30 14036 O 1343.73 1.9399 -0.0903042 0
M  V30 14037 C 1340.86 3.42496 -0.575646 0
M  V30 14038 C 1339.82 3.97068 -1.59754 0
M  V30 14039 C 1339.14 5.24822 -1.02304 0
M  V30 14040 C 1340.44 4.28545 -2.98574 0
M  V30 14041 H 1342.14 2.28701 -1.93226 0
M  V30 14042 H 1339.68 1.09903 -0.930443 0
M  V30 14043 H 1341.64 4.19357 -0.414481 0
M  V30 14044 H 1340.36 3.2431 0.386059 0
M  V30 14045 H 1339.02 3.22332 -1.74636 0
M  V30 14046 H 1338.67 5.02972 -0.0529016 0
M  V30 14047 H 1338.37 5.62299 -1.70567 0
M  V30 14048 H 1339.89 6.04322 -0.873312 0
M  V30 14049 H 1341.3 4.96229 -2.87106 0
M  V30 14050 H 1339.7 4.77178 -3.63897 0
M  V30 14051 H 1340.77 3.36607 -3.49032 0
M  V30 14052 N 1342.11 1.02678 1.19562 0
M  V30 14053 C 1343.08 0.610407 2.20922 0
M  V30 14054 C 1344.08 -0.324858 1.57484 0
M  V30 14055 O 1345.27 -0.112153 1.73839 0
M  V30 14056 C 1342.4 -0.107115 3.40732 0
M  V30 14057 H 1343.59 1.50722 2.59274 0
M  V30 14058 H 1341.15 0.817725 1.33203 0
M  V30 14059 H 1341.88 -1.01837 3.07896 0
M  V30 14060 H 1341.67 0.564901 3.88009 0
M  V30 14061 H 1343.16 -0.385423 4.15818 0
M  V30 14062 N 1343.59 -1.35528 0.804364 0
M  V30 14063 C 1344.56 -2.28153 0.21885 0
M  V30 14064 C 1345.56 -1.49486 -0.592511 0
M  V30 14065 O 1346.75 -1.69274 -0.411319 0
M  V30 14066 C 1343.88 -3.33736 -0.695195 0
M  V30 14067 H 1345.07 -2.81446 1.03576 0
M  V30 14068 H 1342.62 -1.45345 0.574854 0
M  V30 14069 H 1343.36 -2.85625 -1.53587 0
M  V30 14070 H 1343.14 -3.91931 -0.115143 0
M  V30 14071 H 1344.63 -4.02872 -1.09925 0
M  V30 14072 N 1345.07 -0.557671 -1.47404 0
M  V30 14073 C 1346.32 -0.0337884 -2.02472 0
M  V30 14074 C 1346.65 1.31624 -1.43197 0
M  V30 14075 O 1345.9 1.86989 -0.577366 0
M  V30 14076 C 1346.2 0.108324 -3.57236 0
M  V30 14077 C 1345.87 -1.17088 -4.35432 0
M  V30 14078 C 1344.53 -1.5214 -4.56516 0
M  V30 14079 C 1346.88 -2.01854 -4.80525 0
M  V30 14080 C 1344.21 -2.71803 -5.19942 0
M  V30 14081 C 1346.56 -3.2072 -5.45272 0
M  V30 14082 C 1345.22 -3.56085 -5.64588 0
M  V30 14083 H 1344.49 -0.012364 -0.740897 0
M  V30 14084 H 1347.14 -0.729276 -1.7707 0
M  V30 14085 H 1345.45 0.886781 -3.81633 0
M  V30 14086 H 1347.14 0.529031 -3.97495 0
M  V30 14087 H 1343.73 -0.887952 -4.19301 0
M  V30 14088 H 1347.92 -1.76081 -4.64014 0
M  V30 14089 H 1343.17 -2.99371 -5.33092 0
M  V30 14090 H 1347.35 -3.86689 -5.79176 0
M  V30 14091 H 1344.97 -4.48903 -6.13506 0
M  V30 14092 N 1346.55 1.54831 -0.294147 0
M  V30 14093 C 1347.97 1.59489 0.0594489 0
M  V30 14094 C 1348.17 1.31121 1.53002 0
M  V30 14095 O 1347.22 1.08129 2.28176 0
M  V30 14096 C 1348.53 2.98858 -0.332323 0
M  V30 14097 C 1350.08 3.1174 -0.280518 0
M  V30 14098 C 1350.56 4.53407 -0.64701 0
M  V30 14099 N 1352.05 4.59307 -0.599284 0
M  V30 14100 C 1352.78 5.66983 -0.85542 0
M  V30 14101 N 1352.28 6.82726 -1.17717 0
M  V30 14102 N 1354.07 5.56621 -0.78294 0
M  V30 14103 H 1346.22 1.71532 -1.25262 0
M  V30 14104 H 1348.49 0.800801 -0.507368 0
M  V30 14105 H 1348.19 3.24517 -1.35578 0
M  V30 14106 H 1348.07 3.75862 0.317443 0
M  V30 14107 H 1350.45 2.85834 0.733683 0
M  V30 14108 H 1350.53 2.36907 -0.96481 0
M  V30 14109 H 1350.18 4.80042 -1.65899 0
M  V30 14110 H 1350.11 5.26567 0.0592796 0
M  V30 14111 H 1352.6 3.76169 -0.361259 0
M  V30 14112 H 1352.91 7.60761 -1.35877 0
M  V30 14113 H 1351.26 6.84295 -1.21513 0
M  V30 14114 H 1354.45 4.65075 -0.531282 0
M  V30 14115 H 1354.62 6.40456 -0.985929 0
M  V30 14116 N 1348.03 0.0217466 1.57585 0
M  V30 14117 C 1349.26 -0.668881 1.9579 0
M  V30 14118 C 1349.67 -1.66085 0.897849 0
M  V30 14119 O 1349.03 -1.82098 -0.121099 0
M  V30 14120 C 1349.08 -1.38174 3.34051 0
M  V30 14121 O 1348.8 -0.429527 4.35989 0
M  V30 14122 C 1350.3 -2.16487 3.86844 0
M  V30 14123 H 1347.52 -0.184919 0.645016 0
M  V30 14124 H 1350.06 0.0793241 2.04346 0
M  V30 14125 H 1348.22 -2.0814 3.26736 0
M  V30 14126 H 1348.63 -0.934887 5.16101 0
M  V30 14127 H 1350.11 -2.61829 4.85952 0
M  V30 14128 H 1350.58 -3.00082 3.20698 0
M  V30 14129 H 1351.19 -1.51493 3.97404 0
M  V30 14130 N 1349.51 -1.55583 -0.251311 0
M  V30 14131 C 1350.75 -1.77471 -0.981418 0
M  V30 14132 C 1351.08 -0.586228 -1.85141 0
M  V30 14133 O 1350.36 0.415623 -1.90007 0
M  V30 14134 C 1350.64 -3.09204 -1.84567 0
M  V30 14135 C 1350.5 -4.38448 -1.00417 0
M  V30 14136 C 1351.81 -3.37133 -2.82895 0
M  V30 14137 H 1348.93 -0.645664 -0.355369 0
M  V30 14138 H 1351.58 -1.88318 -0.252228 0
M  V30 14139 H 1349.73 -3.00087 -2.46738 0
M  V30 14140 H 1351.4 -4.5955 -0.40149 0
M  V30 14141 H 1349.64 -4.32703 -0.308365 0
M  V30 14142 H 1350.31 -5.26995 -1.64258 0
M  V30 14143 H 1352.79 -3.46183 -2.3086 0
M  V30 14144 H 1351.66 -4.30531 -3.40491 0
M  V30 14145 H 1351.92 -2.57829 -3.59133 0
M  V30 14146 N 1350.98 0.516783 -1.48886 0
M  V30 14147 C 1352.23 1.27375 -1.57808 0
M  V30 14148 C 1352.56 1.92492 -0.256963 0
M  V30 14149 O 1351.84 1.79947 0.738193 0
M  V30 14150 C 1352.12 2.35295 -2.72595 0
M  V30 14151 C 1351.97 1.74783 -4.14453 0
M  V30 14152 C 1353.29 3.36973 -2.83085 0
M  V30 14153 H 1350.41 0.46175 -0.574418 0
M  V30 14154 H 1353.05 0.57434 -1.81111 0
M  V30 14155 H 1351.2 2.94951 -2.52857 0
M  V30 14156 H 1352.88 1.19076 -4.45666 0
M  V30 14157 H 1351.12 1.05258 -4.20836 0
M  V30 14158 H 1351.79 2.52985 -4.90615 0
M  V30 14159 H 1354.27 2.87289 -3.01005 0
M  V30 14160 H 1353.14 4.09864 -3.65106 0
M  V30 14161 H 1353.4 3.98336 -1.91784 0
M  V30 14162 N 1352.46 1.37696 0.766659 0
M  V30 14163 C 1353.39 1.28241 1.88758 0
M  V30 14164 C 1354.37 0.161948 1.61791 0
M  V30 14165 O 1355.56 0.337034 1.85462 0
M  V30 14166 C 1352.68 0.983972 3.24092 0
M  V30 14167 C 1351.73 2.12202 3.69963 0
M  V30 14168 S 1352.56 3.74225 3.83035 0
M  V30 14169 C 1353.72 3.46542 5.2121 0
M  V30 14170 H 1353.95 2.23113 1.96489 0
M  V30 14171 H 1351.48 1.23378 0.92829 0
M  V30 14172 H 1353.44 0.818612 4.02255 0
M  V30 14173 H 1352.1 0.0526544 3.14056 0
M  V30 14174 H 1351.3 1.86834 4.68091 0
M  V30 14175 H 1350.9 2.24778 2.98916 0
M  V30 14176 H 1353.19 3.01845 6.06544 0
M  V30 14177 H 1354.13 4.44016 5.51593 0
M  V30 14178 H 1354.54 2.81353 4.89388 0
M  V30 14179 N 1353.94 -0.993397 1.22349 0
M  V30 14180 C 1355.35 -1.54739 1.04465 0
M  V30 14181 C 1355.7 -1.92243 -0.392057 0
M  V30 14182 O 1354.83 -1.74707 -1.27697 0
M  V30 14183 C 1355.42 -2.81179 1.89007 0
M  V30 14184 C 1353.98 -3.33023 1.75421 0
M  V30 14185 C 1353.13 -2.06114 1.85505 0
M  V30 14186 H 1356.08 -0.814539 1.36202 0
M  V30 14187 H 1356.1 -3.53523 1.40718 0
M  V30 14188 H 1355.61 -2.53851 2.93566 0
M  V30 14189 H 1353.71 -3.6526 0.735935 0
M  V30 14190 H 1353.83 -4.03659 2.58062 0
M  V30 14191 H 1352.19 -2.19651 1.2894 0
M  V30 14192 H 1352.97 -1.81184 2.91594 0
M  V30 14193 N 1355.42 -1.03311 -1.19015 0
M  V30 14194 C 1356.67 -0.727266 -1.88132 0
M  V30 14195 C 1356.98 0.747488 -1.80754 0
M  V30 14196 O 1358.19 1.16654 -2.45161 0
M  V30 14197 C 1356.64 -1.25056 -3.37474 0
M  V30 14198 C 1356.25 -2.7534 -3.534 0
M  V30 14199 C 1357.99 -1.02091 -4.12041 0
M  V30 14200 C 1355.9 -3.21066 -4.96659 0
M  V30 14201 H 1354.83 -0.268349 -0.704631 0
M  V30 14202 H 1357.48 -1.24795 -1.3453 0
M  V30 14203 H 1355.86 -0.65777 -3.90499 0
M  V30 14204 H 1357.04 -3.40311 -3.10684 0
M  V30 14205 H 1355.35 -2.96633 -2.92229 0
M  V30 14206 H 1357.95 -1.33777 -5.17695 0
M  V30 14207 H 1358.29 0.0421413 -4.16279 0
M  V30 14208 H 1358.83 -1.57792 -3.65166 0
M  V30 14209 H 1355.56 -4.26719 -4.97586 0
M  V30 14210 H 1355.08 -2.60826 -5.4012 0
M  V30 14211 H 1356.76 -3.14651 -5.65335 0
M  V30 14212 N 1356.9 1.35099 -0.81154 0
M  V30 14213 C 1357.86 2.28033 -0.230947 0
M  V30 14214 C 1358.86 1.49798 0.584575 0
M  V30 14215 O 1360.05 1.6949 0.402336 0
M  V30 14216 C 1357.18 3.341 0.677486 0
M  V30 14217 H 1358.37 2.80893 -1.05067 0
M  V30 14218 H 1355.93 1.45038 -0.582554 0
M  V30 14219 H 1356.66 2.86435 1.5207 0
M  V30 14220 H 1356.45 3.91986 0.0943563 0
M  V30 14221 H 1357.94 4.0345 1.07787 0
M  V30 14222 N 1358.37 0.56548 1.47106 0
M  V30 14223 C 1359.6 0.0476763 2.07345 0
M  V30 14224 C 1360.02 -1.24032 1.41413 0
M  V30 14225 O 1359.38 -1.74498 0.491941 0
M  V30 14226 C 1359.43 -0.122618 3.60391 0
M  V30 14227 O 1358.53 -1.18326 3.9506 0
M  V30 14228 H 1357.87 0.0550419 0.661715 0
M  V30 14229 H 1360.4 0.78352 1.89003 0
M  V30 14230 H 1360.41 -0.334227 4.06629 0
M  V30 14231 H 1359.09 0.81807 4.07775 0
M  V30 14232 H 1357.67 -0.951481 3.60557 0
M  V30 14233 N 1359.85 -1.54672 0.302354 0
M  V30 14234 C 1360.76 -2.27251 -0.582578 0
M  V30 14235 C 1361.78 -1.30819 -1.14727 0
M  V30 14236 O 1362.95 -1.63803 -1.17177 0
M  V30 14237 C 1360.02 -3.00016 -1.73757 0
M  V30 14238 C 1359.08 -4.11988 -1.20682 0
M  V30 14239 C 1358.31 -4.81273 -2.30676 0
M  V30 14240 O 1358.54 -4.49927 -3.50602 0
M  V30 14241 O 1357.47 -5.68647 -1.97291 0
M  V30 14242 H 1361.3 -3.03699 0.00621365 0
M  V30 14243 H 1358.88 -1.49242 0.0687684 0
M  V30 14244 H 1360.76 -3.45652 -2.41045 0
M  V30 14245 H 1359.44 -2.26462 -2.31294 0
M  V30 14246 H 1358.35 -3.70749 -0.499625 0
M  V30 14247 H 1359.68 -4.87524 -0.676858 0
M  V30 14248 N 1361.33 -0.0301034 -1.57571 0
M  V30 14249 C 1362.58 0.648323 -1.91841 0
M  V30 14250 C 1362.91 1.72078 -0.906601 0
M  V30 14251 O 1362.16 1.95518 0.0843233 0
M  V30 14252 C 1362.46 1.30206 -3.32838 0
M  V30 14253 C 1362.13 0.359876 -4.49462 0
M  V30 14254 C 1360.79 0.100552 -4.81095 0
M  V30 14255 C 1363.14 -0.287048 -5.20409 0
M  V30 14256 C 1360.47 -0.813484 -5.81033 0
M  V30 14257 C 1362.82 -1.18914 -6.21323 0
M  V30 14258 C 1361.48 -1.45735 -6.51397 0
M  V30 14259 H 1360.75 0.237238 -0.701997 0
M  V30 14260 H 1363.4 -0.0920804 -1.91278 0
M  V30 14261 H 1361.71 2.11724 -3.29667 0
M  V30 14262 H 1363.4 1.83356 -3.56625 0
M  V30 14263 H 1359.99 0.572172 -4.24764 0
M  V30 14264 H 1364.18 -0.0997611 -4.962 0
M  V30 14265 H 1359.43 -1.02897 -6.02679 0
M  V30 14266 H 1363.61 -1.69661 -6.75417 0
M  V30 14267 H 1361.23 -2.16727 -7.28652 0
M  V30 14268 N 1362.81 1.55714 0.243056 0
M  V30 14269 C 1363.77 1.89832 1.28438 0
M  V30 14270 C 1364.77 0.775083 1.40887 0
M  V30 14271 O 1365.96 1.04304 1.39521 0
M  V30 14272 C 1363.09 2.13016 2.66153 0
M  V30 14273 H 1364.29 2.82947 0.994022 0
M  V30 14274 H 1361.84 1.48665 0.482521 0
M  V30 14275 H 1362.57 1.22381 3.00322 0
M  V30 14276 H 1362.36 2.94824 2.58498 0
M  V30 14277 H 1363.85 2.40581 3.41336 0
M  V30 14278 N 1364.29 -0.50888 1.49158 0
M  V30 14279 C 1365.7 -1.09054 1.51539 0
M  V30 14280 C 1366.05 -1.93938 0.297099 0
M  V30 14281 O 1365.17 -2.08092 -0.593849 0
M  V30 14282 C 1365.77 -1.98447 2.74599 0
M  V30 14283 C 1364.33 -2.5179 2.79783 0
M  V30 14284 C 1363.47 -1.29227 2.45348 0
M  V30 14285 H 1366.43 -0.293148 1.55969 0
M  V30 14286 H 1366.45 -2.83028 2.54314 0
M  V30 14287 H 1365.96 -1.3664 3.63251 0
M  V30 14288 H 1364.06 -3.17258 1.95392 0
M  V30 14289 H 1364.17 -2.89481 3.81756 0
M  V30 14290 H 1362.54 -1.61494 1.96957 0
M  V30 14291 H 1363.32 -0.6914 3.36266 0
M  V30 14292 N 1365.76 -1.381 -0.759346 0
M  V30 14293 C 1367.04 -1.24517 -1.50847 0
M  V30 14294 C 1367.42 0.155929 -2.10523 0
M  V30 14295 O 1366.77 1.16485 -1.96579 0
M  V30 14296 C 1366.98 -2.35086 -2.57945 0
M  V30 14297 C 1368.33 -2.73232 -3.25007 0
M  V30 14298 O 1369.35 -2.34355 -2.68247 0
M  V30 14299 O 1368.21 -3.40254 -4.27656 0
M  V30 14300 H 1365.3 -0.486599 -0.668693 0
M  V30 14301 H 1367.85 -1.49913 -0.795249 0
M  V30 14302 H 1366.62 -3.28858 -2.12056 0
M  V30 14303 H 1366.25 -2.11222 -3.36854 0
M  V30 14304 N 1367.24 0.986894 -1.22875 0
M  V30 14305 C 1368.49 1.72985 -1.05849 0
M  V30 14306 C 1368.82 1.89939 0.404594 0
M  V30 14307 O 1368.1 1.44693 1.29978 0
M  V30 14308 C 1368.38 3.13193 -1.77714 0
M  V30 14309 C 1368.23 3.0385 -3.31655 0
M  V30 14310 C 1369.55 4.12486 -1.53438 0
M  V30 14311 H 1366.67 0.627877 -0.385926 0
M  V30 14312 H 1369.31 1.14936 -1.51294 0
M  V30 14313 H 1367.46 3.62751 -1.39083 0
M  V30 14314 H 1369.13 2.61866 -3.79768 0
M  V30 14315 H 1367.38 2.4051 -3.61023 0
M  V30 14316 H 1368.05 4.03092 -3.77122 0
M  V30 14317 H 1370.52 3.71709 -1.87007 0
M  V30 14318 H 1369.4 5.08694 -2.06207 0
M  V30 14319 H 1369.66 4.39613 -0.468294 0
M  V30 14320 N 1368.72 1.0394 1.18466 0
M  V30 14321 C 1369.97 0.743141 1.88694 0
M  V30 14322 C 1370.3 -0.727211 1.8007 0
M  V30 14323 O 1369.57 -1.53058 1.20014 0
M  V30 14324 C 1369.86 1.20829 3.39223 0
M  V30 14325 C 1369.71 2.74064 3.56664 0
M  V30 14326 C 1371.03 0.797348 4.32817 0
M  V30 14327 H 1368.15 0.271437 0.685194 0
M  V30 14328 H 1370.79 1.29119 1.39386 0
M  V30 14329 H 1368.94 0.742033 3.81348 0
M  V30 14330 H 1370.61 3.28717 3.2364 0
M  V30 14331 H 1368.86 3.1395 2.99362 0
M  V30 14332 H 1369.53 3.01668 4.62277 0
M  V30 14333 H 1372 1.19854 3.98465 0
M  V30 14334 H 1370.88 1.15057 5.36706 0
M  V30 14335 H 1371.14 -0.299601 4.41084 0
M  V30 14336 N 1370.2 -1.34667 0.818693 0
M  V30 14337 C 1371.13 -2.32134 0.252239 0
M  V30 14338 C 1372.11 -1.58044 -0.628982 0
M  V30 14339 O 1373.29 -1.86049 -0.55674 0
M  V30 14340 C 1370.42 -3.42249 -0.590183 0
M  V30 14341 C 1369.38 -4.27562 0.193547 0
M  V30 14342 C 1368.7 -5.29107 -0.771349 0
M  V30 14343 C 1370 -5.03205 1.39936 0
M  V30 14344 H 1371.7 -2.79758 1.06657 0
M  V30 14345 H 1369.24 -1.34502 0.514325 0
M  V30 14346 H 1371.2 -4.09445 -0.996616 0
M  V30 14347 H 1369.92 -2.93262 -1.43752 0
M  V30 14348 H 1368.58 -3.61962 0.581297 0
M  V30 14349 H 1368.23 -4.76384 -1.61453 0
M  V30 14350 H 1367.93 -5.87063 -0.251201 0
M  V30 14351 H 1369.45 -5.99174 -1.17573 0
M  V30 14352 H 1370.87 -5.6328 1.06717 0
M  V30 14353 H 1369.26 -5.70715 1.85485 0
M  V30 14354 H 1370.33 -4.33145 2.17976 0
M  V30 14355 N 1371.68 -0.573274 -1.46804 0
M  V30 14356 C 1372.92 -0.0553432 -2.02724 0
M  V30 14357 C 1373.26 1.29753 -1.44492 0
M  V30 14358 O 1372.53 1.84804 -0.606455 0
M  V30 14359 C 1372.81 0.0205511 -3.60094 0
M  V30 14360 C 1372.67 -1.36055 -4.2873 0
M  V30 14361 C 1373.99 0.725944 -4.34071 0
M  V30 14362 H 1371.1 -0.0215858 -0.736684 0
M  V30 14363 H 1373.75 -0.738657 -1.75054 0
M  V30 14364 H 1371.9 0.602481 -3.838 0
M  V30 14365 H 1373.57 -1.98692 -4.16316 0
M  V30 14366 H 1371.81 -1.93087 -3.88458 0
M  V30 14367 H 1372.48 -1.26001 -5.37427 0
M  V30 14368 H 1374.96 0.231677 -4.15455 0
M  V30 14369 H 1373.83 0.74805 -5.43779 0
M  V30 14370 H 1374.1 1.78536 -4.04447 0
M  V30 14371 N 1373.15 1.5451 -0.310553 0
M  V30 14372 C 1374.38 2.05204 0.301013 0
M  V30 14373 C 1374.8 1.1859 1.46007 0
M  V30 14374 O 1374.16 0.192081 1.8028 0
M  V30 14375 C 1374.21 3.53221 0.725767 0
M  V30 14376 O 1373.31 3.69596 1.82955 0
M  V30 14377 H 1372.66 0.661566 0.0568026 0
M  V30 14378 H 1375.19 1.99473 -0.455178 0
M  V30 14379 H 1375.2 3.9525 1.01198 0
M  V30 14380 H 1373.87 4.15721 -0.122046 0
M  V30 14381 H 1372.45 3.39472 1.54315 0
M  V30 14382 N 1374.63 0.0384594 1.57553 0
M  V30 14383 C 1375.86 -0.651613 1.96898 0
M  V30 14384 C 1376.28 -1.64328 0.915308 0
M  V30 14385 O 1375.64 -1.80883 -0.122824 0
M  V30 14386 C 1375.69 -1.32613 3.3533 0
M  V30 14387 O 1374.79 -2.44159 3.32355 0
M  V30 14388 H 1374.13 -0.170441 0.641752 0
M  V30 14389 H 1376.66 0.103086 2.0434 0
M  V30 14390 H 1376.67 -1.68076 3.71772 0
M  V30 14391 H 1375.35 -0.599275 4.1156 0
M  V30 14392 H 1373.93 -2.10738 3.07642 0
M  V30 14393 N 1376.11 -1.55841 -0.234795 0
M  V30 14394 C 1377.36 -1.77886 -0.959217 0
M  V30 14395 C 1377.68 -0.604621 -1.8539 0
M  V30 14396 O 1376.95 0.379092 -1.92197 0
M  V30 14397 H 1375.53 -0.656077 -0.357172 0
M  V30 14398 H 1378.19 -1.93292 -0.249831 0
M  V30 14399 H 1377.29 -2.69512 -1.57383 0
M  V30 14400 N 1377.59 0.500963 -1.49426 0
M  V30 14401 C 1378.84 1.25509 -1.58915 0
M  V30 14402 C 1379.16 1.92534 -0.275868 0
M  V30 14403 O 1378.42 1.81324 0.736212 0
M  V30 14404 C 1378.72 2.34448 -2.69757 0
M  V30 14405 C 1378.38 1.8488 -4.11254 0
M  V30 14406 C 1377.05 1.71081 -4.49761 0
M  V30 14407 C 1379.4 1.4778 -4.9981 0
M  V30 14408 C 1376.73 1.18561 -5.74596 0
M  V30 14409 C 1379.08 0.967118 -6.25164 0
M  V30 14410 C 1377.74 0.815523 -6.62499 0
M  V30 14411 H 1377.01 0.459268 -0.58151 0
M  V30 14412 H 1379.66 0.555817 -1.83256 0
M  V30 14413 H 1377.96 3.10163 -2.39387 0
M  V30 14414 H 1379.66 2.925 -2.74308 0
M  V30 14415 H 1376.25 1.9658 -3.8086 0
M  V30 14416 H 1380.44 1.57288 -4.70717 0
M  V30 14417 H 1375.69 1.05536 -6.02223 0
M  V30 14418 H 1379.87 0.670857 -6.93161 0
M  V30 14419 H 1377.49 0.406375 -7.59113 0
M  V30 14420 N 1379.07 1.38501 0.752011 0
M  V30 14421 C 1380.34 1.25315 1.50185 0
M  V30 14422 C 1380.72 -0.144762 2.10603 0
M  V30 14423 O 1380.07 -1.15441 1.97194 0
M  V30 14424 C 1380.28 2.36451 2.56694 0
M  V30 14425 C 1381.63 2.74952 3.23553 0
M  V30 14426 O 1382.65 2.35774 2.67 0
M  V30 14427 O 1381.51 3.42517 4.25845 0
M  V30 14428 H 1378.61 0.490139 0.666103 0
M  V30 14429 H 1381.15 1.50333 0.787288 0
M  V30 14430 H 1379.93 3.29978 2.10309 0
M  V30 14431 H 1379.55 2.13006 3.35729 0
M  V30 14432 N 1380.55 -0.980364 1.23396 0
M  V30 14433 C 1381.51 -2.05433 1.01635 0
M  V30 14434 C 1382.51 -1.60785 -0.0218244 0
M  V30 14435 O 1383.7 -1.72832 0.217922 0
M  V30 14436 C 1380.83 -3.36631 0.537822 0
M  V30 14437 H 1382.02 -2.26172 1.96943 0
M  V30 14438 H 1379.58 -1.15378 1.05441 0
M  V30 14439 H 1380.31 -3.21581 -0.41903 0
M  V30 14440 H 1380.1 -3.70377 1.28698 0
M  V30 14441 H 1381.59 -4.1562 0.406213 0
M  V30 14442 N 1382.02 -1.04567 -1.17913 0
M  V30 14443 C 1383.27 -0.753137 -1.88297 0
M  V30 14444 C 1383.6 0.717651 -1.80453 0
M  V30 14445 O 1382.88 1.5242 -1.20824 0
M  V30 14446 C 1383.16 -1.22626 -3.38578 0
M  V30 14447 C 1383.01 -2.75952 -3.55205 0
M  V30 14448 C 1384.33 -0.82029 -4.32388 0
M  V30 14449 H 1381.45 -0.275067 -0.683745 0
M  V30 14450 H 1384.09 -1.29856 -1.38699 0
M  V30 14451 H 1382.24 -0.762246 -3.80949 0
M  V30 14452 H 1383.92 -3.30429 -3.21892 0
M  V30 14453 H 1382.16 -3.15534 -2.97693 0
M  V30 14454 H 1382.83 -3.04116 -4.60671 0
M  V30 14455 H 1385.31 -1.21965 -3.97824 0
M  V30 14456 H 1384.18 -1.17902 -5.36088 0
M  V30 14457 H 1384.44 0.276205 -4.41236 0
M  V30 14458 N 1383.5 1.34231 -0.825823 0
M  V30 14459 C 1384.41 2.33245 -0.251803 0
M  V30 14460 C 1385.43 1.62756 0.615334 0
M  V30 14461 O 1386.6 1.94503 0.522547 0
M  V30 14462 C 1383.67 3.41908 0.574456 0
M  V30 14463 C 1382.73 4.2814 -0.315422 0
M  V30 14464 C 1381.96 5.31613 0.471496 0
M  V30 14465 O 1382.19 5.44337 1.70449 0
M  V30 14466 O 1381.12 6.01719 -0.147691 0
M  V30 14467 H 1384.95 2.84174 -1.07139 0
M  V30 14468 H 1382.53 1.37341 -0.588032 0
M  V30 14469 H 1384.41 4.08252 1.04444 0
M  V30 14470 H 1383.09 2.93217 1.37132 0
M  V30 14471 H 1381.99 3.64709 -0.832963 0
M  V30 14472 H 1383.33 4.80279 -1.07672 0
M  V30 14473 N 1384.98 0.581051 1.46498 0
M  V30 14474 C 1386.23 0.0658652 2.01993 0
M  V30 14475 C 1386.55 -1.29807 1.45516 0
M  V30 14476 O 1385.82 -1.85177 0.639233 0
M  V30 14477 H 1384.4 0.0213584 0.746695 0
M  V30 14478 H 1387.06 0.756456 1.79621 0
M  V30 14479 H 1386.16 -0.00438128 3.121 0
M  V30 14480 N 1386.46 -1.54343 0.318742 0
M  V30 14481 C 1387.41 -2.20892 -0.564849 0
M  V30 14482 C 1388.39 -1.18782 -1.08534 0
M  V30 14483 O 1389.58 -1.44431 -1.02316 0
M  V30 14484 C 1386.71 -2.96661 -1.72763 0
M  V30 14485 C 1385.8 -4.06105 -1.22226 0
M  V30 14486 N 1386.19 -5.03916 -0.436203 0
M  V30 14487 C 1384.49 -4.19968 -1.50142 0
M  V30 14488 C 1385.19 -5.81466 -0.164875 0
M  V30 14489 N 1384.16 -5.38406 -0.74966 0
M  V30 14490 H 1387.97 -2.93868 0.0430622 0
M  V30 14491 H 1385.48 -1.61923 0.124362 0
M  V30 14492 H 1387.48 -3.42819 -2.37236 0
M  V30 14493 H 1386.14 -2.25206 -2.33907 0
M  V30 14494 H 1387.15 -5.17839 -0.0794815 0
M  V30 14495 H 1383.83 -3.59726 -2.11905 0
M  V30 14496 H 1385.22 -6.70271 0.467617 0
M  V30 14497 N 1387.94 -0.0468143 -1.5753 0
M  V30 14498 C 1389.35 0.489509 -1.80169 0
M  V30 14499 C 1389.7 1.71184 -0.958669 0
M  V30 14500 O 1388.82 2.15699 -0.174025 0
M  V30 14501 C 1389.42 0.894838 -3.26769 0
M  V30 14502 C 1387.98 1.37617 -3.50341 0
M  V30 14503 C 1387.12 0.349275 -2.75092 0
M  V30 14504 H 1390.07 -0.272728 -1.56339 0
M  V30 14505 H 1390.1 1.75805 -3.3745 0
M  V30 14506 H 1389.61 0.00501096 -3.881 0
M  V30 14507 H 1387.71 2.28533 -2.94285 0
M  V30 14508 H 1387.82 1.37133 -4.59055 0
M  V30 14509 H 1386.19 0.821219 -2.41098 0
M  V30 14510 H 1386.97 -0.532391 -3.39147 0
M  V30 14511 N 1389.41 1.55964 0.226527 0
M  V30 14512 C 1390.64 1.82823 0.968673 0
M  V30 14513 C 1391.06 0.625281 1.78145 0
M  V30 14514 O 1390.41 -0.40617 1.77923 0
M  V30 14515 C 1390.47 3.08143 1.89024 0
M  V30 14516 O 1390.19 4.23797 1.11032 0
M  V30 14517 C 1391.69 3.47954 2.74669 0
M  V30 14518 H 1388.91 0.607876 0.284126 0
M  V30 14519 H 1391.45 2.03048 0.243258 0
M  V30 14520 H 1389.61 2.89908 2.56967 0
M  V30 14521 H 1390.02 4.94957 1.73546 0
M  V30 14522 H 1391.49 4.38691 3.35044 0
M  V30 14523 H 1391.97 2.69476 3.46813 0
M  V30 14524 H 1392.58 3.6861 2.12147 0
M  V30 14525 N 1390.89 -0.493031 1.4969 0
M  V30 14526 C 1392.3 -1.0744 1.52688 0
M  V30 14527 C 1392.65 -1.93612 0.317652 0
M  V30 14528 O 1391.78 -2.0871 -0.571745 0
M  V30 14529 C 1392.37 -1.95523 2.76688 0
M  V30 14530 C 1390.93 -2.48808 2.82438 0
M  V30 14531 C 1390.08 -1.26617 2.46705 0
M  V30 14532 H 1393.03 -0.276589 1.56271 0
M  V30 14533 H 1393.05 -2.80315 2.57301 0
M  V30 14534 H 1392.56 -1.32779 3.6468 0
M  V30 14535 H 1390.67 -3.15168 1.98746 0
M  V30 14536 H 1390.78 -2.85416 3.84805 0
M  V30 14537 H 1389.14 -1.59396 1.98658 0
M  V30 14538 H 1389.93 -0.655695 3.3698 0
M  V30 14539 N 1392.37 -1.38898 -0.744656 0
M  V30 14540 C 1393.3 -1.39571 -1.87195 0
M  V30 14541 C 1394.28 -0.260372 -1.68095 0
M  V30 14542 O 1395.47 -0.464776 -1.88556 0
M  V30 14543 C 1392.6 -1.22889 -3.24832 0
M  V30 14544 C 1391.55 -2.33721 -3.58551 0
M  V30 14545 C 1390.88 -2.02136 -4.9502 0
M  V30 14546 C 1392.18 -3.7601 -3.62511 0
M  V30 14547 H 1393.87 -2.33908 -1.86889 0
M  V30 14548 H 1391.42 -1.12591 -0.897739 0
M  V30 14549 H 1393.37 -1.21983 -4.03359 0
M  V30 14550 H 1392.09 -0.250172 -3.2564 0
M  V30 14551 H 1390.75 -2.33828 -2.82348 0
M  V30 14552 H 1390.4 -1.02726 -4.92399 0
M  V30 14553 H 1390.1 -2.76371 -5.18549 0
M  V30 14554 H 1391.62 -2.02864 -5.75915 0
M  V30 14555 H 1393.04 -3.77885 -4.31133 0
M  V30 14556 H 1391.44 -4.49524 -3.97553 0
M  V30 14557 H 1392.51 -4.07682 -2.62533 0
M  V30 14558 N 1393.85 0.973806 -1.23914 0
M  V30 14559 C 1395.1 1.71259 -1.07307 0
M  V30 14560 C 1395.42 1.91064 0.389831 0
M  V30 14561 O 1394.69 1.48401 1.27883 0
M  V30 14562 H 1393.27 0.634588 -0.39409 0
M  V30 14563 H 1395.93 1.17184 -1.55737 0
M  V30 14564 H 1395.03 2.69953 -1.56626 0
M  V30 14565 N 1395.33 1.05191 1.17357 0
M  V30 14566 C 1396.57 0.760479 1.87246 0
M  V30 14567 C 1396.9 -0.714618 1.81434 0
M  V30 14568 O 1396.17 -1.51636 1.24029 0
M  V30 14569 H 1394.75 0.278317 0.693216 0
M  V30 14570 H 1397.41 1.33106 1.42369 0
M  V30 14571 H 1396.5 1.07542 2.92987 0
M  V30 14572 N 1396.8 -1.33791 0.83293 0
M  V30 14573 C 1398.03 -2.01894 0.43844 0
M  V30 14574 C 1398.44 -1.62844 -0.963247 0
M  V30 14575 O 1397.79 -0.834636 -1.63644 0
M  V30 14576 C 1397.85 -3.5638 0.472604 0
M  V30 14577 C 1397.51 -4.18788 1.82937 0
M  V30 14578 C 1398.51 -4.38588 2.79172 0
M  V30 14579 C 1396.19 -4.55342 2.12058 0
M  V30 14580 C 1398.19 -4.94081 4.02694 0
M  V30 14581 C 1395.87 -5.10544 3.35839 0
M  V30 14582 C 1396.87 -5.29859 4.30974 0
M  V30 14583 O 1396.56 -5.83889 5.52566 0
M  V30 14584 H 1396.29 -0.65348 0.173031 0
M  V30 14585 H 1398.85 -1.71827 1.12537 0
M  V30 14586 H 1397.08 -3.85749 -0.271074 0
M  V30 14587 H 1398.77 -4.05785 0.0967701 0
M  V30 14588 H 1399.53 -4.10701 2.57972 0
M  V30 14589 H 1395.41 -4.39607 1.38806 0
M  V30 14590 H 1398.95 -5.09072 4.7696 0
M  V30 14591 H 1394.85 -5.3786 3.56898 0
M  V30 14592 H 1395.62 -6.02311 5.54224 0
M  V30 14593 N 1398.28 -0.588812 -1.46187 0
M  V30 14594 C 1399.23 0.153638 -2.32092 0
M  V30 14595 C 1400.22 0.878346 -1.4485 0
M  V30 14596 O 1401.43 0.796042 -1.61441 0
M  V30 14597 H 1397.81 0.0684129 -0.748882 0
M  V30 14598 H 1399.78 -0.58961 -2.92517 0
M  V30 14599 C 1398.53 1.15003 -3.28131 0
M  V30 14600 H 1397.85 0.601804 -3.95245 0
M  V30 14601 H 1399.29 1.6398 -3.91007 0
M  V30 14602 C 1397.75 2.21411 -2.53926 0
M  V30 14603 O 1398.28 3.28862 -2.30679 0
M  V30 14604 N 1396.48 1.96184 -2.14383 0
M  V30 14605 H 1396.03 1.08812 -2.3349 0
M  V30 14606 H 1395.99 2.6759 -1.65055 0
M  V30 14607 N 1399.76 1.54172 -0.326923 0
M  V30 14608 C 1400.69 2.27402 0.530154 0
M  V30 14609 C 1401.67 1.28325 1.11655 0
M  V30 14610 O 1402.86 1.57142 1.14105 0
M  V30 14611 C 1399.99 3.03435 1.68951 0
M  V30 14612 C 1398.94 4.09877 1.23226 0
M  V30 14613 C 1398.27 4.7377 2.47882 0
M  V30 14614 C 1399.57 5.21161 0.344698 0
M  V30 14615 H 1401.26 2.99291 -0.0806959 0
M  V30 14616 H 1398.81 1.43944 -0.0402511 0
M  V30 14617 H 1400.76 3.53396 2.29541 0
M  V30 14618 H 1399.48 2.29169 2.327 0
M  V30 14619 H 1398.14 3.60805 0.649267 0
M  V30 14620 H 1397.79 3.96116 3.10002 0
M  V30 14621 H 1397.49 5.45674 2.17977 0
M  V30 14622 H 1399.01 5.26507 3.09229 0
M  V30 14623 H 1400.43 5.66859 0.856979 0
M  V30 14624 H 1398.83 5.99941 0.138276 0
M  V30 14625 H 1399.9 4.80874 -0.623575 0
M  V30 14626 N 1401.24 0.0551678 1.57503 0
M  V30 14627 C 1402.46 -0.630692 1.97578 0
M  V30 14628 C 1402.89 -1.63348 0.932686 0
M  V30 14629 O 1402.25 -1.81004 -0.103632 0
M  V30 14630 C 1402.29 -1.29049 3.36718 0
M  V30 14631 O 1401.4 -2.40621 3.34926 0
M  V30 14632 H 1400.74 -0.163625 0.643524 0
M  V30 14633 H 1403.27 0.124753 2.04219 0
M  V30 14634 H 1403.28 -1.64124 3.73534 0
M  V30 14635 H 1401.95 -0.55559 4.12172 0
M  V30 14636 H 1400.53 -2.07463 3.0986 0
M  V30 14637 N 1402.72 -1.56081 -0.218252 0
M  V30 14638 C 1403.68 -1.91851 -1.25402 0
M  V30 14639 C 1404.68 -0.797399 -1.39636 0
M  V30 14640 O 1405.87 -1.06511 -1.37844 0
M  V30 14641 C 1403 -2.17223 -2.6273 0
M  V30 14642 H 1404.19 -2.84493 -0.948882 0
M  V30 14643 H 1401.75 -1.49414 -0.458809 0
M  V30 14644 H 1402.48 -1.27144 -2.98337 0
M  V30 14645 H 1402.27 -2.98899 -2.53775 0
M  V30 14646 H 1403.76 -2.45981 -3.37466 0
M  V30 14647 N 1404.2 0.485086 -1.49949 0
M  V30 14648 C 1405.61 0.817651 -1.37064 0
M  V30 14649 C 1405.81 1.9716 -0.415949 0
M  V30 14650 O 1404.87 2.52074 0.146567 0
M  V30 14651 C 1406.18 1.14288 -2.78134 0
M  V30 14652 C 1407.73 1.25016 -2.8695 0
M  V30 14653 C 1408.2 1.60859 -4.28822 0
M  V30 14654 N 1409.69 1.67878 -4.31707 0
M  V30 14655 C 1410.43 1.97089 -5.38464 0
M  V30 14656 N 1409.93 2.24415 -6.55446 0
M  V30 14657 N 1411.72 1.98474 -5.25894 0
M  V30 14658 H 1403.87 -0.275606 -2.10604 0
M  V30 14659 H 1406.13 -0.0607486 -0.946052 0
M  V30 14660 H 1405.84 0.36817 -3.49768 0
M  V30 14661 H 1405.71 2.0825 -3.14502 0
M  V30 14662 H 1408.1 2.01556 -2.15544 0
M  V30 14663 H 1408.18 0.290664 -2.54143 0
M  V30 14664 H 1407.82 0.848639 -5.0076 0
M  V30 14665 H 1407.75 2.57936 -4.59104 0
M  V30 14666 H 1410.25 1.48856 -3.47347 0
M  V30 14667 H 1410.56 2.45938 -7.32622 0
M  V30 14668 H 1408.9 2.21837 -6.58645 0
M  V30 14669 H 1412.09 1.76612 -4.33504 0
M  V30 14670 H 1412.27 2.20904 -6.09184 0
M  V30 14671 N 1405.67 1.39291 0.737279 0
M  V30 14672 C 1406.91 1.37821 1.50946 0
M  V30 14673 C 1407.28 -0.0269225 1.91981 0
M  V30 14674 O 1408.48 -0.16661 2.68283 0
M  V30 14675 C 1406.75 2.32145 2.71741 0
M  V30 14676 S 1408.31 2.48842 3.61418 0
M  V30 14677 H 1405.13 0.48878 0.516348 0
M  V30 14678 H 1407.73 1.75367 0.864096 0
M  V30 14679 H 1406.43 3.33103 2.39731 0
M  V30 14680 H 1405.96 1.95806 3.41209 0
M  V30 14681 H 1407.98 1.72464 4.65264 0
M  V30 14682 N 1407.15 -0.967221 1.24429 0
M  V30 14683 C 1408.4 -1.71026 1.08427 0
M  V30 14684 C 1408.73 -1.90815 -0.376812 0
M  V30 14685 O 1407.98 -1.46745 -1.29477 0
M  V30 14686 C 1408.28 -3.10507 1.76975 0
M  V30 14687 C 1407.95 -3.10557 3.26902 0
M  V30 14688 C 1406.61 -3.10278 3.67806 0
M  V30 14689 C 1408.96 -3.04852 4.22746 0
M  V30 14690 C 1406.29 -3.02027 5.02988 0
M  V30 14691 C 1408.64 -2.98143 5.57937 0
M  V30 14692 C 1407.3 -2.96193 5.98185 0
M  V30 14693 H 1406.57 -0.625827 0.396764 0
M  V30 14694 H 1409.22 -1.13094 1.54538 0
M  V30 14695 H 1407.53 -3.71906 1.2326 0
M  V30 14696 H 1409.22 -3.66794 1.62058 0
M  V30 14697 H 1405.81 -3.11539 2.94349 0
M  V30 14698 H 1410 -3.04197 3.92145 0
M  V30 14699 H 1405.25 -2.98878 5.33368 0
M  V30 14700 H 1409.43 -2.92688 6.31907 0
M  V30 14701 H 1407.05 -2.89555 7.02895 0
M  V30 14702 N 1408.63 -1.05812 -1.16797 0
M  V30 14703 C 1409.88 -0.770398 -1.8684 0
M  V30 14704 C 1410.2 0.704986 -1.8181 0
M  V30 14705 O 1409.47 1.50977 -1.24832 0
M  V30 14706 H 1408.05 -0.281989 -0.691731 0
M  V30 14707 H 1410.71 -1.33859 -1.41661 0
M  V30 14708 H 1409.81 -1.09094 -2.92412 0
M  V30 14709 N 1410.11 1.33347 -0.840014 0
M  V30 14710 C 1411.34 2.01659 -0.449141 0
M  V30 14711 C 1411.75 1.63353 0.954597 0
M  V30 14712 O 1411.09 0.843303 1.632 0
M  V30 14713 C 1411.15 3.56124 -0.491497 0
M  V30 14714 C 1410.81 4.17812 -1.85155 0
M  V30 14715 C 1411.81 4.37101 -2.81494 0
M  V30 14716 C 1409.5 4.54211 -2.1447 0
M  V30 14717 C 1411.49 4.91938 -4.05309 0
M  V30 14718 C 1409.18 5.08756 -3.38542 0
M  V30 14719 C 1410.18 5.27566 -4.33778 0
M  V30 14720 O 1409.86 5.8095 -5.55655 0
M  V30 14721 H 1409.6 0.652553 -0.176494 0
M  V30 14722 H 1412.15 1.71228 -1.13447 0
M  V30 14723 H 1410.38 3.85887 0.250613 0
M  V30 14724 H 1412.07 4.05728 -0.118288 0
M  V30 14725 H 1412.83 4.09328 -2.60146 0
M  V30 14726 H 1408.71 4.38864 -1.41135 0
M  V30 14727 H 1412.26 5.06536 -4.79654 0
M  V30 14728 H 1408.15 5.3596 -3.59746 0
M  V30 14729 H 1408.92 5.99363 -5.5741 0
M  V30 14730 N 1411.59 0.596556 1.45873 0
M  V30 14731 C 1412.52 -0.116229 2.33211 0
M  V30 14732 C 1413.5 -0.869868 1.46176 0
M  V30 14733 O 1414.68 -0.842599 1.74968 0
M  V30 14734 C 1411.81 -1.12145 3.28696 0
M  V30 14735 C 1410.77 -0.481749 4.2528 0
M  V30 14736 C 1410.09 -1.59443 5.10374 0
M  V30 14737 C 1411.39 0.589996 5.18957 0
M  V30 14738 H 1413.09 0.613005 2.93057 0
M  V30 14739 H 1410.63 0.296242 1.4092 0
M  V30 14740 H 1412.58 -1.62857 3.88659 0
M  V30 14741 H 1411.31 -1.88114 2.66985 0
M  V30 14742 H 1409.97 0.0044092 3.666 0
M  V30 14743 H 1409.62 -2.34413 4.45039 0
M  V30 14744 H 1409.32 -1.17197 5.75794 0
M  V30 14745 H 1410.84 -2.10404 5.73204 0
M  V30 14746 H 1412.25 0.167395 5.73056 0
M  V30 14747 H 1410.65 0.933565 5.92794 0
M  V30 14748 H 1411.72 1.47093 4.62052 0
M  V30 14749 N 1413.06 -1.53996 0.335095 0
M  V30 14750 C 1414.29 -2.05188 -0.26563 0
M  V30 14751 C 1414.71 -1.21058 -1.44881 0
M  V30 14752 O 1414.06 -0.243919 -1.80863 0
M  V30 14753 C 1414.11 -3.54875 -0.688904 0
M  V30 14754 O 1413.84 -4.35811 0.447217 0
M  V30 14755 C 1415.34 -4.22204 -1.35123 0
M  V30 14756 H 1412.56 -0.668921 -0.0527806 0
M  V30 14757 H 1415.1 -1.98675 0.48463 0
M  V30 14758 H 1413.26 -3.61638 -1.38912 0
M  V30 14759 H 1413.67 -5.24381 0.111495 0
M  V30 14760 H 1415.14 -5.28356 -1.59823 0
M  V30 14761 H 1415.62 -3.74029 -2.30216 0
M  V30 14762 H 1416.23 -4.19611 -0.693283 0
M  V30 14763 N 1414.54 -0.0635198 -1.57472 0
M  V30 14764 C 1415.49 0.906604 -2.12248 0
M  V30 14765 C 1416.46 1.30078 -1.0329 0
M  V30 14766 O 1417.64 1.38809 -1.30907 0
M  V30 14767 C 1414.78 2.1718 -2.68192 0
M  V30 14768 C 1413.9 1.831 -3.91278 0
M  V30 14769 C 1413.03 3.0417 -4.35493 0
M  V30 14770 C 1412.07 2.66069 -5.51248 0
M  V30 14771 N 1411.21 3.79871 -5.9046 0
M  V30 14772 H 1416.05 0.432606 -2.94843 0
M  V30 14773 H 1413.58 0.201895 -1.45708 0
M  V30 14774 H 1415.54 2.91231 -2.98732 0
M  V30 14775 H 1414.17 2.62135 -1.88375 0
M  V30 14776 H 1413.22 0.991473 -3.67252 0
M  V30 14777 H 1414.54 1.51063 -4.75375 0
M  V30 14778 H 1413.69 3.86507 -4.6765 0
M  V30 14779 H 1412.43 3.39395 -3.50232 0
M  V30 14780 H 1411.43 1.82151 -5.1875 0
M  V30 14781 H 1412.66 2.32023 -6.38234 0
M  V30 14782 H 1410.61 4.14873 -5.0815 0
M  V30 14783 H 1410.52 3.51573 -6.69277 0
M  V30 14784 H 1411.79 4.62811 -6.27237 0
M  V30 14785 N 1416.02 1.56195 0.209972 0
M  V30 14786 C 1416.95 1.89859 1.28398 0
M  V30 14787 C 1417.96 0.787878 1.42465 0
M  V30 14788 O 1419.15 1.06623 1.43156 0
M  V30 14789 C 1416.25 2.10231 2.65812 0
M  V30 14790 C 1415.43 3.41309 2.73545 0
M  V30 14791 C 1414.49 3.50973 3.92052 0
M  V30 14792 O 1413.51 4.23915 3.79849 0
M  V30 14793 N 1414.71 2.82965 5.06864 0
M  V30 14794 H 1417.48 2.82581 0.998411 0
M  V30 14795 H 1415.04 1.56882 0.399964 0
M  V30 14796 H 1417.03 2.13999 3.43492 0
M  V30 14797 H 1415.6 1.2408 2.8692 0
M  V30 14798 H 1414.82 3.49539 1.82253 0
M  V30 14799 H 1416.11 4.27636 2.7569 0
M  V30 14800 H 1415.51 2.23504 5.19676 0
M  V30 14801 H 1414.06 2.9238 5.82544 0
M  V30 14802 N 1417.5 -0.477127 1.50204 0
M  V30 14803 C 1418.43 -1.58405 1.71552 0
M  V30 14804 C 1419.41 -1.60463 0.564413 0
M  V30 14805 O 1420.59 -1.76826 0.802893 0
M  V30 14806 C 1417.72 -2.96765 1.8041 0
M  V30 14807 C 1416.68 -3.09573 2.95548 0
M  V30 14808 C 1416 -4.49522 2.89542 0
M  V30 14809 C 1417.3 -2.87356 4.36147 0
M  V30 14810 H 1419 -1.40792 2.64231 0
M  V30 14811 H 1416.54 -0.675886 1.27153 0
M  V30 14812 H 1418.5 -3.74125 1.9393 0
M  V30 14813 H 1417.22 -3.1552 0.843489 0
M  V30 14814 H 1415.88 -2.34645 2.81669 0
M  V30 14815 H 1415.53 -4.65186 1.91339 0
M  V30 14816 H 1415.23 -4.59028 3.66834 0
M  V30 14817 H 1416.75 -5.28909 3.05102 0
M  V30 14818 H 1418.17 -3.54469 4.50583 0
M  V30 14819 H 1416.56 -3.08313 5.14843 0
M  V30 14820 H 1417.63 -1.83264 4.48935 0
M  V30 14821 N 1418.98 -1.3968 -0.729882 0
M  V30 14822 C 1419.91 -1.33201 -1.85291 0
M  V30 14823 C 1420.89 -0.204787 -1.61305 0
M  V30 14824 O 1422.07 -0.386087 -1.84504 0
M  V30 14825 C 1419.2 -1.06955 -3.21369 0
M  V30 14826 C 1418.24 -2.21937 -3.64207 0
M  V30 14827 S 1419.08 -3.84249 -3.72979 0
M  V30 14828 C 1420.23 -3.60239 -5.11839 0
M  V30 14829 H 1420.47 -2.28244 -1.90504 0
M  V30 14830 H 1418 -1.25796 -0.895252 0
M  V30 14831 H 1419.96 -0.924975 -3.99943 0
M  V30 14832 H 1418.62 -0.135902 -3.13806 0
M  V30 14833 H 1417.81 -1.99179 -4.62973 0
M  V30 14834 H 1417.41 -2.32624 -2.92852 0
M  V30 14835 H 1419.71 -3.17821 -5.98328 0
M  V30 14836 H 1420.65 -4.58485 -5.39627 0
M  V30 14837 H 1421.06 -2.94229 -4.81757 0
M  V30 14838 N 1420.45 0.960609 -1.2494 0
M  V30 14839 C 1421.7 1.70111 -1.09117 0
M  V30 14840 C 1422.02 1.91466 0.369544 0
M  V30 14841 O 1421.29 1.49749 1.26302 0
M  V30 14842 H 1419.87 0.630372 -0.400799 0
M  V30 14843 H 1422.54 1.15525 -1.56971 0
M  V30 14844 H 1421.63 2.68277 -1.5948 0
M  V30 14845 N 1421.93 1.0643 1.16234 0
M  V30 14846 C 1422.86 0.697605 2.22836 0
M  V30 14847 C 1423.84 -0.310563 1.67241 0
M  V30 14848 O 1425.03 -0.185385 1.93313 0
M  V30 14849 C 1422.16 0.0847097 3.47197 0
M  V30 14850 C 1421.11 1.019 4.15693 0
M  V30 14851 C 1420.44 0.269339 5.34021 0
M  V30 14852 C 1421.74 2.34861 4.66516 0
M  V30 14853 H 1423.43 1.58883 2.53765 0
M  V30 14854 H 1420.98 0.765388 1.21975 0
M  V30 14855 H 1422.93 -0.1837 4.20999 0
M  V30 14856 H 1421.66 -0.84154 3.15572 0
M  V30 14857 H 1420.31 1.27218 3.43818 0
M  V30 14858 H 1419.96 -0.660072 4.9865 0
M  V30 14859 H 1419.66 0.892001 5.8079 0
M  V30 14860 H 1421.19 0.00850775 6.10599 0
M  V30 14861 H 1422.6 2.13922 5.31893 0
M  V30 14862 H 1421 2.92637 5.23912 0
M  V30 14863 H 1422.07 2.97834 3.82653 0
M  V30 14864 N 1423.41 -1.329 0.847073 0
M  V30 14865 C 1424.37 -2.27341 0.291324 0
M  V30 14866 C 1425.37 -1.51295 -0.544653 0
M  V30 14867 O 1426.56 -1.70497 -0.357258 0
M  V30 14868 C 1423.7 -3.35779 -0.588668 0
M  V30 14869 H 1424.89 -2.78009 1.12477 0
M  V30 14870 H 1422.44 -1.43442 0.620803 0
M  V30 14871 H 1423.18 -2.90366 -1.44423 0
M  V30 14872 H 1422.96 -3.92099 0.00960515 0
M  V30 14873 H 1424.45 -4.06166 -0.970526 0
M  V30 14874 N 1424.89 -0.604284 -1.45555 0
M  V30 14875 C 1426.14 -0.0979922 -2.01862 0
M  V30 14876 C 1426.46 1.27476 -1.47563 0
M  V30 14877 O 1425.73 1.84137 -0.668612 0
M  V30 14878 H 1424.31 -0.033235 -0.74626 0
M  V30 14879 H 1426.97 -0.784936 -1.78395 0
M  V30 14880 H 1426.07 -0.0452716 -3.12067 0
M  V30 14881 N 1426.37 1.53816 -0.343257 0
M  V30 14882 C 1427.61 2.00512 0.252845 0
M  V30 14883 C 1427.94 1.23274 1.51091 0
M  V30 14884 O 1427.21 0.339841 1.9293 0
M  V30 14885 H 1425.79 0.740751 0.0964202 0
M  V30 14886 H 1428.45 1.89288 -0.464347 0
M  V30 14887 H 1427.54 3.08142 0.495499 0
M  V30 14888 N 1427.84 0.0718701 1.57436 0
M  V30 14889 C 1429.26 -0.28476 1.57039 0
M  V30 14890 C 1429.46 -1.70032 1.08127 0
M  V30 14891 O 1428.52 -2.41191 0.747189 0
M  V30 14892 C 1429.83 -0.0943482 3.00552 0
M  V30 14893 C 1431.38 -0.163879 3.12571 0
M  V30 14894 C 1431.85 -0.00174658 4.58 0
M  V30 14895 N 1433.34 -0.0573489 4.63164 0
M  V30 14896 C 1434.08 0.0436849 5.73383 0
M  V30 14897 N 1433.57 0.198243 6.92516 0
M  V30 14898 N 1435.37 -0.0133856 5.62098 0
M  V30 14899 H 1427.52 0.99702 1.87545 0
M  V30 14900 H 1429.78 0.388822 0.864593 0
M  V30 14901 H 1429.49 0.882445 3.40449 0
M  V30 14902 H 1429.36 -0.846636 3.67576 0
M  V30 14903 H 1431.75 -1.13116 2.7256 0
M  V30 14904 H 1431.83 0.619513 2.48185 0
M  V30 14905 H 1431.47 0.9623 4.98701 0
M  V30 14906 H 1431.4 -0.804543 5.20418 0
M  V30 14907 H 1433.89 -0.175212 3.77494 0
M  V30 14908 H 1434.21 0.267479 7.72337 0
M  V30 14909 H 1432.55 0.233606 6.94607 0
M  V30 14910 H 1435.74 -0.132835 4.67911 0
M  V30 14911 H 1435.92 0.0688076 6.47963 0
M  V30 14912 N 1429.32 -1.56304 -0.201686 0
M  V30 14913 C 1430.57 -1.79433 -0.921241 0
M  V30 14914 C 1430.88 -0.643943 -1.84696 0
M  V30 14915 O 1432.09 -0.759359 -2.60665 0
M  V30 14916 C 1430.55 -3.17835 -1.68846 0
M  V30 14917 C 1430.15 -4.40655 -0.807892 0
M  V30 14918 C 1431.9 -3.50277 -2.39805 0
M  V30 14919 C 1429.81 -5.7008 -1.5736 0
M  V30 14920 H 1428.74 -0.669029 -0.34773 0
M  V30 14921 H 1431.39 -1.82667 -0.174657 0
M  V30 14922 H 1429.77 -3.08832 -2.47869 0
M  V30 14923 H 1430.94 -4.60765 -0.0567923 0
M  V30 14924 H 1429.26 -4.15873 -0.209465 0
M  V30 14925 H 1431.85 -4.44207 -2.97631 0
M  V30 14926 H 1432.2 -2.7371 -3.1367 0
M  V30 14927 H 1432.73 -3.60698 -1.67754 0
M  V30 14928 H 1429.47 -6.49595 -0.877855 0
M  V30 14929 H 1428.99 -5.53999 -2.2988 0
M  V30 14930 H 1430.67 -6.10964 -2.12912 0
M  V30 14931 N 1430.8 0.469154 -1.50455 0
M  V30 14932 C 1432.05 1.2229 -1.6178 0
M  V30 14933 C 1432.38 1.91577 -0.318073 0
M  V30 14934 O 1431.65 1.82205 0.68057 0
M  V30 14935 C 1431.94 2.26504 -2.79943 0
M  V30 14936 C 1431.79 1.61509 -4.19804 0
M  V30 14937 C 1433.11 3.27796 -2.93662 0
M  V30 14938 H 1430.23 0.443241 -0.588817 0
M  V30 14939 H 1432.87 0.516431 -1.82847 0
M  V30 14940 H 1431.02 2.86757 -2.62112 0
M  V30 14941 H 1432.69 1.04838 -4.49229 0
M  V30 14942 H 1430.94 0.918162 -4.23972 0
M  V30 14943 H 1431.61 2.37248 -4.98415 0
M  V30 14944 H 1434.08 2.77568 -3.09992 0
M  V30 14945 H 1432.96 3.98041 -3.77961 0
M  V30 14946 H 1433.22 3.92033 -2.04359 0
M  V30 14947 N 1432.28 1.40065 0.722464 0
M  V30 14948 C 1433.21 1.42532 1.84951 0
M  V30 14949 C 1434.19 0.287082 1.6766 0
M  V30 14950 O 1435.37 0.494715 1.87793 0
M  V30 14951 C 1432.5 1.28041 3.22836 0
M  V30 14952 C 1431.46 2.39396 3.54787 0
M  V30 14953 C 1430.78 2.09986 4.91742 0
M  V30 14954 C 1432.08 3.81729 3.56483 0
M  V30 14955 H 1433.78 2.36851 1.83144 0
M  V30 14956 H 1431.32 1.14005 0.879714 0
M  V30 14957 H 1433.28 1.28385 4.01367 0
M  V30 14958 H 1432 0.301947 3.25201 0
M  V30 14959 H 1430.66 2.3829 2.78592 0
M  V30 14960 H 1430.31 1.10547 4.90702 0
M  V30 14961 H 1430.01 2.84586 5.14086 0
M  V30 14962 H 1431.53 2.12 5.72615 0
M  V30 14963 H 1432.95 3.84696 4.25067 0
M  V30 14964 H 1431.34 4.55791 3.90351 0
M  V30 14965 H 1432.41 4.11807 2.56014 0
M  V30 14966 N 1433.76 -0.95397 1.25448 0
M  V30 14967 C 1434.72 -2.03231 1.0597 0
M  V30 14968 C 1435.72 -1.60795 0.0122855 0
M  V30 14969 O 1436.91 -1.7233 0.254533 0
M  V30 14970 C 1434.04 -3.35414 0.609105 0
M  V30 14971 H 1435.24 -2.21943 2.01696 0
M  V30 14972 H 1432.79 -1.13115 1.07864 0
M  V30 14973 H 1433.52 -3.22398 -0.350723 0
M  V30 14974 H 1433.31 -3.67564 1.36526 0
M  V30 14975 H 1434.8 -4.14664 0.49428 0
M  V30 14976 N 1435.24 -1.07045 -1.15668 0
M  V30 14977 C 1436.17 -0.709413 -2.22463 0
M  V30 14978 C 1437.15 0.30169 -1.67403 0
M  V30 14979 O 1438.33 0.175131 -1.93409 0
M  V30 14980 C 1435.46 -0.103121 -3.47147 0
M  V30 14981 C 1434.42 -1.04103 -4.15146 0
M  V30 14982 C 1433.74 -0.297656 -5.33871 0
M  V30 14983 C 1435.04 -2.37332 -4.65264 0
M  V30 14984 H 1436.74 -1.60227 -2.52918 0
M  V30 14985 H 1434.28 -0.771846 -1.21567 0
M  V30 14986 H 1436.23 0.161371 -4.21091 0
M  V30 14987 H 1434.96 0.824792 -3.16014 0
M  V30 14988 H 1433.62 -1.2904 -3.43139 0
M  V30 14989 H 1433.27 0.633618 -4.98993 0
M  V30 14990 H 1432.97 -0.922789 -5.80309 0
M  V30 14991 H 1434.49 -0.0408892 -6.10586 0
M  V30 14992 H 1435.9 -2.1674 -5.30751 0
M  V30 14993 H 1434.3 -2.95412 -5.22352 0
M  V30 14994 H 1435.37 -2.99859 -3.81068 0
M  V30 14995 N 1436.71 1.32449 -0.85411 0
M  V30 14996 C 1437.62 2.32658 -0.301221 0
M  V30 14997 C 1438.64 1.64025 0.580673 0
M  V30 14998 O 1439.82 1.95568 0.481172 0
M  V30 14999 C 1436.88 3.43049 0.501803 0
M  V30 15000 C 1435.94 4.27374 -0.406166 0
M  V30 15001 C 1435.17 5.32494 0.358627 0
M  V30 15002 O 1435.4 5.4783 1.58865 0
M  V30 15003 O 1434.33 6.0127 -0.275291 0
M  V30 15004 H 1438.16 2.81838 -1.13143 0
M  V30 15005 H 1435.74 1.36063 -0.617032 0
M  V30 15006 H 1437.62 4.10375 0.957608 0
M  V30 15007 H 1436.3 2.9606 1.30882 0
M  V30 15008 H 1435.21 3.6286 -0.910136 0
M  V30 15009 H 1436.54 4.77887 -1.17835 0
M  V30 15010 N 1438.19 0.611994 1.45232 0
M  V30 15011 C 1439.44 0.108696 2.01807 0
M  V30 15012 C 1439.76 -1.26692 1.48237 0
M  V30 15013 O 1439.03 -1.8378 0.678368 0
M  V30 15014 H 1437.61 0.0371921 0.746074 0
M  V30 15015 H 1440.27 0.794386 1.77976 0
M  V30 15016 H 1439.37 0.0618207 3.12039 0
M  V30 15017 N 1439.67 -1.53632 0.351409 0
M  V30 15018 C 1440.92 -2.00643 -0.242208 0
M  V30 15019 C 1441.24 -1.24074 -1.50435 0
M  V30 15020 O 1440.51 -0.350067 -1.92747 0
M  V30 15021 H 1439.09 -0.741252 -0.0924904 0
M  V30 15022 H 1441.75 -1.89039 0.474379 0
M  V30 15023 H 1440.85 -3.084 -0.479151 0
M  V30 15024 N 1441.15 -0.0802183 -1.57396 0
M  V30 15025 C 1442.1 0.894334 -2.09728 0
M  V30 15026 C 1443.08 1.25342 -1.00887 0
M  V30 15027 O 1444.27 1.23099 -1.27184 0
M  V30 15028 C 1441.4 2.15885 -2.66924 0
M  V30 15029 C 1440.49 1.82587 -3.82783 0
M  V30 15030 N 1440.88 1.19777 -4.91413 0
M  V30 15031 C 1439.18 2.12287 -3.92237 0
M  V30 15032 C 1439.88 1.04758 -5.72189 0
M  V30 15033 N 1438.85 1.56005 -5.20733 0
M  V30 15034 H 1442.66 0.404523 -2.91103 0
M  V30 15035 H 1440.17 0.123432 -1.6193 0
M  V30 15036 H 1442.17 2.8663 -3.02736 0
M  V30 15037 H 1440.83 2.65446 -1.86998 0
M  V30 15038 H 1441.84 0.866384 -5.10602 0
M  V30 15039 H 1438.52 2.64166 -3.23299 0
M  V30 15040 H 1439.91 0.55756 -6.69583 0
M  V30 15041 N 1442.63 1.56409 0.193394 0
M  V30 15042 C 1443.9 1.71559 0.93951 0
M  V30 15043 C 1444.28 0.635478 2.01308 0
M  V30 15044 O 1443.63 -0.353267 2.25753 0
M  V30 15045 C 1443.84 3.13948 1.52438 0
M  V30 15046 C 1445.19 3.74234 2.00585 0
M  V30 15047 O 1446.21 3.17088 1.62277 0
M  V30 15048 O 1445.07 4.74529 2.71081 0
M  V30 15049 H 1442.17 0.69979 0.440707 0
M  V30 15050 H 1444.71 1.68711 0.182957 0
M  V30 15051 H 1443.48 3.84033 0.750613 0
M  V30 15052 H 1443.11 3.21032 2.34572 0
M  V30 15053 N 1444.1 -0.461169 1.50702 0
M  V30 15054 C 1445.03 -1.56576 1.73223 0
M  V30 15055 C 1446.01 -1.59855 0.581401 0
M  V30 15056 O 1447.2 -1.75964 0.821602 0
M  V30 15057 C 1444.33 -2.94835 1.83548 0
M  V30 15058 C 1443.28 -3.06421 2.98815 0
M  V30 15059 C 1442.61 -4.46425 2.94293 0
M  V30 15060 C 1443.91 -2.82714 4.3917 0
M  V30 15061 H 1445.6 -1.37982 2.65709 0
M  V30 15062 H 1443.15 -0.662362 1.27862 0
M  V30 15063 H 1445.1 -3.72047 1.97887 0
M  V30 15064 H 1443.83 -3.14608 0.876906 0
M  V30 15065 H 1442.49 -2.31644 2.84142 0
M  V30 15066 H 1442.13 -4.63131 1.96262 0
M  V30 15067 H 1441.83 -4.55111 3.71682 0
M  V30 15068 H 1443.36 -5.25644 3.10695 0
M  V30 15069 H 1444.77 -3.4967 4.54317 0
M  V30 15070 H 1443.17 -3.02835 5.18084 0
M  V30 15071 H 1444.24 -1.78492 4.50853 0
M  V30 15072 N 1445.58 -1.40446 -0.715026 0
M  V30 15073 C 1446.81 -1.4207 -1.50412 0
M  V30 15074 C 1447.22 -0.0205547 -1.88789 0
M  V30 15075 O 1446.58 0.955635 -1.55479 0
M  V30 15076 C 1446.63 -2.3119 -2.77909 0
M  V30 15077 O 1446.35 -3.65754 -2.41154 0
M  V30 15078 C 1447.85 -2.41412 -3.718 0
M  V30 15079 H 1445.07 -0.484554 -0.464164 0
M  V30 15080 H 1447.62 -1.84504 -0.881964 0
M  V30 15081 H 1445.77 -1.92117 -3.36407 0
M  V30 15082 H 1446.19 -4.13091 -3.23197 0
M  V30 15083 H 1447.66 -3.07976 -4.58099 0
M  V30 15084 H 1448.14 -1.43934 -4.14945 0
M  V30 15085 H 1448.74 -2.81039 -3.19213 0
M  V30 15086 N 1447.06 0.947303 -1.25952 0
M  V30 15087 C 1448.02 2.02667 -1.07046 0
M  V30 15088 C 1449.02 1.60787 -0.0208127 0
M  V30 15089 O 1450.21 1.72193 -0.263668 0
M  V30 15090 C 1447.34 3.35087 -0.626885 0
M  V30 15091 H 1448.54 2.20871 -2.0287 0
M  V30 15092 H 1446.09 1.12541 -1.08462 0
M  V30 15093 H 1446.83 3.22579 0.333621 0
M  V30 15094 H 1446.61 3.66835 -1.38473 0
M  V30 15095 H 1448.1 4.14397 -0.516264 0
M  V30 15096 N 1448.54 1.07657 1.15099 0
M  V30 15097 C 1449.79 0.796589 1.85303 0
M  V30 15098 C 1450.1 -0.679887 1.83404 0
M  V30 15099 O 1451.31 -1.07475 2.49322 0
M  V30 15100 C 1449.76 1.37495 3.326 0
M  V30 15101 C 1449.37 2.88267 3.42938 0
M  V30 15102 C 1451.11 1.17313 4.07968 0
M  V30 15103 C 1449.02 3.39278 4.84401 0
M  V30 15104 H 1447.95 0.294316 0.694186 0
M  V30 15105 H 1450.6 1.29702 1.29806 0
M  V30 15106 H 1448.98 0.802248 3.87789 0
M  V30 15107 H 1450.16 3.51608 2.9784 0
M  V30 15108 H 1448.47 3.07275 2.81018 0
M  V30 15109 H 1451.07 1.52899 5.12373 0
M  V30 15110 H 1451.41 0.112387 4.16148 0
M  V30 15111 H 1451.95 1.71236 3.59059 0
M  V30 15112 H 1448.69 4.44892 4.81406 0
M  V30 15113 H 1448.21 2.80692 5.30068 0
M  V30 15114 H 1449.88 3.35416 5.53267 0
M  V30 15115 N 1450.02 -1.31994 0.861122 0
M  V30 15116 C 1451.26 -1.98827 0.474055 0
M  V30 15117 C 1451.62 -1.66627 -0.953916 0
M  V30 15118 O 1452.82 -2.26601 -1.44587 0
M  V30 15119 C 1451.09 -3.50201 0.713743 0
M  V30 15120 S 1452.65 -4.36735 0.425214 0
M  V30 15121 H 1449.47 -0.688534 0.17732 0
M  V30 15122 H 1452.07 -1.6057 1.11523 0
M  V30 15123 H 1450.78 -3.71125 1.75198 0
M  V30 15124 H 1450.31 -3.93355 0.0592289 0
M  V30 15125 H 1452.32 -4.90558 -0.746142 0
M  V30 15126 N 1451.49 -0.619688 -1.44906 0
M  V30 15127 C 1452.77 -0.0510703 -1.95533 0
M  V30 15128 C 1453.15 1.42013 -1.56191 0
M  V30 15129 O 1452.5 2.12879 -0.830356 0
M  V30 15130 C 1452.71 -0.261896 -3.48016 0
M  V30 15131 C 1454.06 -0.149057 -4.24338 0
M  V30 15132 O 1455.08 -0.192655 -3.55679 0
M  V30 15133 O 1453.94 -0.0443345 -5.46482 0
M  V30 15134 H 1451.03 0.0288461 -0.826497 0
M  V30 15135 H 1453.58 -0.690594 -1.55013 0
M  V30 15136 H 1452.35 -1.28319 -3.69662 0
M  V30 15137 H 1451.98 0.412314 -3.95456 0
M  V30 15138 N 1452.97 1.53444 -0.359552 0
M  V30 15139 C 1453.94 2.24173 0.477412 0
M  V30 15140 C 1454.94 1.24747 1.01464 0
M  V30 15141 O 1456.13 1.49069 0.901343 0
M  V30 15142 C 1453.26 2.9738 1.66667 0
M  V30 15143 H 1454.45 2.99566 -0.141407 0
M  V30 15144 H 1452 1.55904 -0.111143 0
M  V30 15145 H 1452.74 2.26214 2.32374 0
M  V30 15146 H 1452.52 3.70325 1.28848 0
M  V30 15147 H 1454.01 3.51165 2.25994 0
M  V30 15148 N 1454.45 0.0885642 1.57351 0
M  V30 15149 C 1455.68 -0.588641 1.98871 0
M  V30 15150 C 1456.1 -1.61333 0.967125 0
M  V30 15151 O 1455.46 -1.81183 -0.0652149 0
M  V30 15152 C 1455.51 -1.21877 3.39379 0
M  V30 15153 O 1454.61 -2.33462 3.39955 0
M  V30 15154 H 1453.95 -0.149938 0.64685 0
M  V30 15155 H 1456.48 0.168043 2.03909 0
M  V30 15156 H 1456.49 -1.56163 3.76931 0
M  V30 15157 H 1455.17 -0.468037 4.13258 0
M  V30 15158 H 1453.74 -2.00844 3.14191 0
M  V30 15159 N 1455.93 -1.56509 -0.185096 0
M  V30 15160 C 1456.84 -1.98552 -1.24958 0
M  V30 15161 C 1457.85 -0.894713 -1.49234 0
M  V30 15162 O 1459.03 -1.20126 -1.61653 0
M  V30 15163 C 1456.1 -2.32513 -2.57175 0
M  V30 15164 C 1455.16 -3.55351 -2.40882 0
M  V30 15165 C 1454.39 -3.87683 -3.66794 0
M  V30 15166 O 1454.61 -3.21167 -4.7139 0
M  V30 15167 O 1453.55 -4.8108 -3.61726 0
M  V30 15168 H 1457.37 -2.89342 -0.922756 0
M  V30 15169 H 1454.96 -1.44196 -0.390887 0
M  V30 15170 H 1456.84 -2.55387 -3.35195 0
M  V30 15171 H 1455.51 -1.44888 -2.89464 0
M  V30 15172 H 1454.42 -3.37712 -1.60939 0
M  V30 15173 H 1455.75 -4.43474 -2.13522 0
M  V30 15174 N 1457.41 0.45317 -1.50944 0
M  V30 15175 C 1458.37 1.5313 -1.7054 0
M  V30 15176 C 1459.37 1.50142 -0.575678 0
M  V30 15177 O 1460.56 1.52444 -0.842997 0
M  V30 15178 C 1457.69 2.92719 -1.74723 0
M  V30 15179 H 1458.88 1.37066 -2.66745 0
M  V30 15180 H 1456.44 0.680783 -1.40695 0
M  V30 15181 H 1457.17 3.14208 -0.802753 0
M  V30 15182 H 1456.96 2.96295 -2.56811 0
M  V30 15183 H 1458.45 3.7096 -1.91777 0
M  V30 15184 N 1458.88 1.40823 0.707568 0
M  V30 15185 C 1460.12 1.40992 1.47989 0
M  V30 15186 C 1460.49 0.0138056 1.91995 0
M  V30 15187 O 1461.69 -0.109666 2.68576 0
M  V30 15188 C 1459.96 2.37857 2.66756 0
M  V30 15189 S 1461.52 2.56453 3.56058 0
M  V30 15190 H 1458.34 0.499622 0.505864 0
M  V30 15191 H 1460.94 1.77161 0.826703 0
M  V30 15192 H 1459.64 3.38113 2.32611 0
M  V30 15193 H 1459.17 2.03 3.36979 0
M  V30 15194 H 1461.19 1.82294 4.61501 0
M  V30 15195 N 1460.36 -0.94061 1.26453 0
M  V30 15196 C 1461.61 -1.68937 1.12197 0
M  V30 15197 C 1461.94 -1.91309 -0.33382 0
M  V30 15198 O 1461.22 -1.49417 -1.24518 0
M  V30 15199 C 1461.5 -3.06381 1.89215 0
M  V30 15200 C 1461.35 -2.91331 3.42704 0
M  V30 15201 C 1462.67 -4.06507 1.68642 0
M  V30 15202 H 1459.79 -0.613121 0.408964 0
M  V30 15203 H 1462.43 -1.09242 1.55455 0
M  V30 15204 H 1460.58 -3.57339 1.5245 0
M  V30 15205 H 1462.25 -2.47591 3.89226 0
M  V30 15206 H 1460.5 -2.26945 3.697 0
M  V30 15207 H 1461.17 -3.88818 3.91822 0
M  V30 15208 H 1463.64 -3.64512 2.00674 0
M  V30 15209 H 1462.52 -5.0069 2.24945 0
M  V30 15210 H 1462.78 -4.37572 0.631131 0
M  V30 15211 N 1461.84 -1.08266 -1.14527 0
M  V30 15212 C 1463.07 -0.832994 -1.89937 0
M  V30 15213 C 1463.49 0.608985 -1.77969 0
M  V30 15214 O 1462.85 1.42657 -1.11887 0
M  V30 15215 C 1462.9 -1.25782 -3.37952 0
M  V30 15216 O 1462 -0.408853 -4.10368 0
M  V30 15217 H 1461.34 -0.30267 -0.591005 0
M  V30 15218 H 1463.87 -1.44371 -1.44977 0
M  V30 15219 H 1463.88 -1.23804 -3.88763 0
M  V30 15220 H 1462.56 -2.30804 -3.4598 0
M  V30 15221 H 1461.13 -0.49192 -3.69641 0
M  V30 15222 N 1463.32 1.31536 -0.86811 0
M  V30 15223 C 1464.28 2.26849 -0.327456 0
M  V30 15224 C 1465.28 1.52142 0.520514 0
M  V30 15225 O 1466.47 1.71044 0.330088 0
M  V30 15226 C 1463.6 3.36673 0.535174 0
M  V30 15227 H 1464.8 2.76184 -1.16886 0
M  V30 15228 H 1462.35 1.42437 -0.643545 0
M  V30 15229 H 1463.09 2.92627 1.39785 0
M  V30 15230 H 1462.87 3.92034 -0.0719835 0
M  V30 15231 H 1464.36 4.07658 0.905786 0
M  V30 15232 N 1464.8 0.627364 1.44575 0
M  V30 15233 C 1465.73 -0.066735 2.33405 0
M  V30 15234 C 1466.71 -0.838666 1.47988 0
M  V30 15235 O 1467.89 -0.805296 1.76716 0
M  V30 15236 C 1465.02 -1.05148 3.31 0
M  V30 15237 C 1463.98 -0.391433 4.26206 0
M  V30 15238 C 1463.3 -1.48581 5.13642 0
M  V30 15239 C 1464.6 0.699942 5.17589 0
M  V30 15240 H 1466.3 0.675029 2.91691 0
M  V30 15241 H 1463.84 0.326066 1.4026 0
M  V30 15242 H 1465.8 -1.54576 3.92026 0
M  V30 15243 H 1464.52 -1.82408 2.70915 0
M  V30 15244 H 1463.18 0.0821694 3.66508 0
M  V30 15245 H 1462.83 -2.2492 4.49911 0
M  V30 15246 H 1462.53 -1.04957 5.7815 0
M  V30 15247 H 1464.05 -1.98198 5.77538 0
M  V30 15248 H 1465.47 0.288911 5.72572 0
M  V30 15249 H 1463.86 1.0591 5.9068 0
M  V30 15250 H 1464.93 1.5686 4.58828 0
M  V30 15251 N 1466.28 -1.53251 0.367684 0
M  V30 15252 C 1467.21 -2.28728 -0.469676 0
M  V30 15253 C 1468.19 -1.3124 -1.08213 0
M  V30 15254 O 1469.37 -1.60112 -1.09898 0
M  V30 15255 C 1466.5 -3.07808 -1.60846 0
M  V30 15256 C 1465.46 -4.13 -1.12315 0
M  V30 15257 C 1464.78 -4.80176 -2.35234 0
M  V30 15258 C 1466.08 -5.21892 -0.2064 0
M  V30 15259 H 1467.78 -2.98972 0.160019 0
M  V30 15260 H 1465.32 -1.43786 0.0784011 0
M  V30 15261 H 1467.27 -3.59358 -2.20091 0
M  V30 15262 H 1466 -2.35258 -2.26542 0
M  V30 15263 H 1464.66 -3.62399 -0.553378 0
M  V30 15264 H 1464.31 -4.04196 -2.99391 0
M  V30 15265 H 1464.01 -5.51261 -2.03433 0
M  V30 15266 H 1465.53 -5.34521 -2.9516 0
M  V30 15267 H 1466.94 -5.68932 -0.706386 0
M  V30 15268 H 1465.34 -6.00096 0.0208362 0
M  V30 15269 H 1466.41 -4.79051 0.750851 0
M  V30 15270 N 1467.75 -0.0969077 -1.57302 0
M  V30 15271 C 1469 0.565254 -1.94034 0
M  V30 15272 C 1469.32 1.68609 -0.9796 0
M  V30 15273 O 1468.59 1.95874 -0.0319788 0
M  V30 15274 H 1467.17 0.211796 -0.716346 0
M  V30 15275 H 1469.83 -0.160665 -1.94237 0
M  V30 15276 H 1468.93 0.974268 -2.96504 0
M  V30 15277 N 1469.23 1.56605 0.176793 0
M  V30 15278 C 1470.18 1.96896 1.23833 0
M  V30 15279 C 1471.17 0.85693 1.46127 0
M  V30 15280 O 1472.38 1.04202 1.46772 0
M  V30 15281 H 1468.75 0.626363 0.416141 0
M  V30 15282 H 1470.73 2.85387 0.871607 0
M  V30 15283 C 1469.47 2.34034 2.57145 0
M  V30 15284 H 1468.8 3.1914 2.40811 0
M  V30 15285 H 1470.24 2.66074 3.30122 0
M  V30 15286 C 1468.7 1.18171 3.15495 0
M  V30 15287 O 1469.23 0.466448 3.98983 0
M  V30 15288 N 1467.43 0.953705 2.74505 0
M  V30 15289 H 1466.98 1.5371 2.06715 0
M  V30 15290 H 1466.94 0.180307 3.13883 0
M  V30 15291 N 1470.71 -0.445159 1.51182 0
M  V30 15292 C 1471.62 -1.5651 1.74762 0
M  V30 15293 C 1472.64 -1.62134 0.631542 0
M  V30 15294 O 1473.81 -1.79522 0.912898 0
M  V30 15295 C 1470.88 -2.92552 1.86049 0
M  V30 15296 C 1469.94 -2.97108 3.0988 0
M  V30 15297 C 1469.17 -4.2666 3.2062 0
M  V30 15298 O 1469.39 -5.18608 2.37491 0
M  V30 15299 O 1468.33 -4.3734 4.13542 0
M  V30 15300 H 1472.15 -1.3953 2.6975 0
M  V30 15301 H 1469.74 -0.627363 1.3559 0
M  V30 15302 H 1471.62 -3.73304 1.95504 0
M  V30 15303 H 1470.3 -3.09676 0.94248 0
M  V30 15304 H 1469.2 -2.15338 3.05909 0
M  V30 15305 H 1470.54 -2.84927 4.01345 0
M  V30 15306 N 1472.19 -1.41197 -0.700089 0
M  V30 15307 C 1473.12 -1.45456 -1.8266 0
M  V30 15308 C 1474.1 -0.313719 -1.67182 0
M  V30 15309 O 1475.28 -0.524528 -1.86982 0
M  V30 15310 C 1472.41 -1.33161 -3.20758 0
M  V30 15311 C 1471.37 -2.4501 -3.50933 0
M  V30 15312 C 1470.69 -2.17782 -4.88339 0
M  V30 15313 C 1471.99 -3.87352 -3.50365 0
M  V30 15314 H 1473.69 -2.39735 -1.79353 0
M  V30 15315 H 1471.23 -1.1539 -0.861465 0
M  V30 15316 H 1473.19 -1.34754 -3.99274 0
M  V30 15317 H 1471.91 -0.353646 -3.2468 0
M  V30 15318 H 1470.57 -2.42692 -2.74766 0
M  V30 15319 H 1470.22 -1.1834 -4.88881 0
M  V30 15320 H 1469.92 -2.92728 -5.09494 0
M  V30 15321 H 1471.44 -2.21083 -5.6917 0
M  V30 15322 H 1472.86 -3.9141 -4.18893 0
M  V30 15323 H 1471.25 -4.61944 -3.83051 0
M  V30 15324 H 1472.32 -4.15827 -2.4943 0
M  V30 15325 N 1473.67 0.933891 -1.2695 0
M  V30 15326 C 1474.94 1.65874 -1.0366 0
M  V30 15327 C 1475.32 2.0666 0.43066 0
M  V30 15328 O 1474.67 1.79606 1.41259 0
M  V30 15329 C 1474.88 2.86546 -1.99229 0
M  V30 15330 C 1476.23 3.58031 -2.28251 0
M  V30 15331 O 1477.25 2.96663 -1.97154 0
M  V30 15332 O 1476.11 4.68583 -2.81233 0
M  V30 15333 H 1473.21 0.72673 -0.394706 0
M  V30 15334 H 1475.75 0.984975 -1.38189 0
M  V30 15335 H 1474.52 2.53351 -2.9821 0
M  V30 15336 H 1474.15 3.61645 -1.65224 0
M  V30 15337 N 1475.14 1.08871 1.13951 0
M  V30 15338 C 1476.55 0.841552 1.66658 0
M  V30 15339 C 1476.91 -0.630932 1.85779 0
M  V30 15340 O 1476.03 -1.48673 1.57243 0
M  V30 15341 C 1476.63 1.52109 3.02735 0
M  V30 15342 C 1475.18 1.32105 3.52456 0
M  V30 15343 C 1474.33 1.58084 2.27826 0
M  V30 15344 H 1477.28 1.24865 0.97951 0
M  V30 15345 H 1477.3 0.950978 3.68425 0
M  V30 15346 H 1476.82 2.59276 2.88786 0
M  V30 15347 H 1474.92 0.270294 3.71618 0
M  V30 15348 H 1475.03 2.05197 4.32933 0
M  V30 15349 H 1473.39 1.00264 2.34135 0
M  V30 15350 H 1474.18 2.66467 2.16449 0
M  V30 15351 N 1476.62 -1.31073 0.875073 0
M  V30 15352 C 1477.55 -2.30855 0.350468 0
M  V30 15353 C 1478.53 -1.60569 -0.561384 0
M  V30 15354 O 1479.72 -1.88242 -0.477329 0
M  V30 15355 C 1476.85 -3.44444 -0.444493 0
M  V30 15356 C 1475.8 -4.26357 0.374716 0
M  V30 15357 C 1475.13 -5.31903 -0.546243 0
M  V30 15358 C 1476.43 -4.96817 1.61153 0
M  V30 15359 H 1478.12 -2.74983 1.18427 0
M  V30 15360 H 1475.67 -1.32199 0.570909 0
M  V30 15361 H 1477.62 -4.13304 -0.82206 0
M  V30 15362 H 1476.34 -2.99096 -1.31185 0
M  V30 15363 H 1475 -3.59171 0.734295 0
M  V30 15364 H 1474.65 -4.82803 -1.41102 0
M  V30 15365 H 1474.35 -5.876 -0.00198173 0
M  V30 15366 H 1475.88 -6.03621 -0.920542 0
M  V30 15367 H 1477.29 -5.58247 1.30511 0
M  V30 15368 H 1475.69 -5.62334 2.09524 0
M  V30 15369 H 1476.76 -4.2351 2.36151 0
M  V30 15370 N 1478.1 -0.635022 -1.4424 0
M  V30 15371 C 1479.51 -0.222982 -1.85364 0
M  V30 15372 C 1479.86 1.22648 -1.5314 0
M  V30 15373 O 1478.99 1.93373 -0.971384 0
M  V30 15374 C 1479.58 -0.397912 -3.36455 0
M  V30 15375 C 1478.14 -0.0403458 -3.76378 0
M  V30 15376 C 1477.29 -0.709451 -2.68071 0
M  V30 15377 H 1480.24 -0.839923 -1.34651 0
M  V30 15378 H 1480.26 0.361996 -3.78774 0
M  V30 15379 H 1479.77 -1.45294 -3.59877 0
M  V30 15380 H 1477.87 1.01279 -3.58571 0
M  V30 15381 H 1477.99 -0.453121 -4.76952 0
M  V30 15382 H 1476.35 -0.144386 -2.5429 0
M  V30 15383 H 1477.13 -1.76715 -2.94324 0
M  V30 15384 N 1479.58 1.53054 -0.375806 0
M  V30 15385 C 1480.49 2.29772 0.47349 0
M  V30 15386 C 1481.5 1.36144 1.08355 0
M  V30 15387 O 1482.68 1.69208 1.09228 0
M  V30 15388 C 1479.75 3.07964 1.59245 0
M  V30 15389 C 1478.81 4.17277 1.00888 0
M  V30 15390 C 1478.04 4.91731 2.07451 0
M  V30 15391 O 1478.26 4.66143 3.28736 0
M  V30 15392 O 1477.2 5.77413 1.69936 0
M  V30 15393 H 1481.02 3.03324 -0.151105 0
M  V30 15394 H 1478.61 1.48744 -0.139895 0
M  V30 15395 H 1480.49 3.56759 2.24279 0
M  V30 15396 H 1479.16 2.37239 2.20226 0
M  V30 15397 H 1478.07 3.7271 0.322167 0
M  V30 15398 H 1479.4 4.90198 0.443483 0
M  V30 15399 N 1481.06 0.105248 1.57248 0
M  V30 15400 C 1482 -0.850012 2.14577 0
M  V30 15401 C 1482.97 -1.27294 1.06703 0
M  V30 15402 O 1484.16 -1.35289 1.34542 0
M  V30 15403 C 1481.3 -2.09993 2.73856 0
M  V30 15404 C 1480.41 -1.72662 3.95995 0
M  V30 15405 C 1479.55 -2.92517 4.43404 0
M  V30 15406 C 1478.59 -2.5136 5.58108 0
M  V30 15407 N 1477.72 -3.64082 6.00324 0
M  V30 15408 H 1482.56 -0.354282 2.95887 0
M  V30 15409 H 1480.1 -0.163192 1.46192 0
M  V30 15410 H 1482.06 -2.83208 3.06348 0
M  V30 15411 H 1480.69 -2.57048 1.95259 0
M  V30 15412 H 1479.74 -0.893754 3.69752 0
M  V30 15413 H 1481.05 -1.38406 4.79213 0
M  V30 15414 H 1480.21 -3.73973 4.77734 0
M  V30 15415 H 1478.94 -3.2999 3.59107 0
M  V30 15416 H 1477.95 -1.68333 5.23397 0
M  V30 15417 H 1479.17 -2.15019 6.44161 0
M  V30 15418 H 1477.12 -4.01255 5.18971 0
M  V30 15419 H 1477.04 -3.33705 6.78363 0
M  V30 15420 H 1478.31 -4.46019 6.39287 0
M  V30 15421 N 1482.53 -1.56697 -0.168486 0
M  V30 15422 C 1483.78 -1.82424 -0.885965 0
M  V30 15423 C 1484.11 -0.683543 -1.81773 0
M  V30 15424 O 1483.39 0.314319 -1.91943 0
M  V30 15425 C 1483.67 -3.18553 -1.67917 0
M  V30 15426 C 1483.52 -4.43154 -0.770343 0
M  V30 15427 C 1484.84 -3.51654 -2.64627 0
M  V30 15428 H 1481.96 -0.663594 -0.320644 0
M  V30 15429 H 1484.6 -1.89391 -0.15205 0
M  V30 15430 H 1482.75 -3.12745 -2.30484 0
M  V30 15431 H 1484.43 -4.61032 -0.157328 0
M  V30 15432 H 1482.67 -4.33729 -0.0785653 0
M  V30 15433 H 1483.34 -5.34961 -1.36092 0
M  V30 15434 H 1485.82 -3.57934 -2.12185 0
M  V30 15435 H 1484.69 -4.47975 -3.17191 0
M  V30 15436 H 1484.95 -2.76503 -3.44961 0
M  V30 15437 N 1484.01 0.437135 -1.51416 0
M  V30 15438 C 1484.94 1.538 -1.75692 0
M  V30 15439 C 1485.92 1.5891 -0.606759 0
M  V30 15440 O 1487.11 1.74635 -0.849492 0
M  V30 15441 C 1484.24 2.91877 -1.88215 0
M  V30 15442 C 1483.19 3.01628 -3.03652 0
M  V30 15443 C 1482.52 4.41687 -3.01358 0
M  V30 15444 C 1483.82 2.75691 -4.43612 0
M  V30 15445 H 1485.51 1.33737 -2.67871 0
M  V30 15446 H 1483.06 0.641936 -1.289 0
M  V30 15447 H 1485.01 3.68851 -2.03781 0
M  V30 15448 H 1483.74 3.13173 -0.926847 0
M  V30 15449 H 1482.39 2.27094 -2.87791 0
M  V30 15450 H 1482.04 4.5995 -2.03605 0
M  V30 15451 H 1481.74 4.49141 -3.78875 0
M  V30 15452 H 1483.27 5.20634 -3.19018 0
M  V30 15453 H 1484.68 3.42398 -4.59822 0
M  V30 15454 H 1483.08 2.94554 -5.22836 0
M  V30 15455 H 1484.15 1.71297 -4.53636 0
M  V30 15456 N 1485.49 1.41566 0.692592 0
M  V30 15457 C 1486.42 1.39582 1.81795 0
M  V30 15458 C 1487.44 0.29754 1.60058 0
M  V30 15459 O 1488.62 0.559463 1.69506 0
M  V30 15460 C 1485.72 1.15506 3.18609 0
M  V30 15461 C 1484.9 2.37432 3.67349 0
M  V30 15462 C 1483.96 2.09168 4.82841 0
M  V30 15463 O 1482.98 2.8223 4.94303 0
M  V30 15464 N 1484.18 1.08377 5.70294 0
M  V30 15465 H 1486.95 2.36577 1.83988 0
M  V30 15466 H 1484.51 1.36216 0.875026 0
M  V30 15467 H 1486.5 0.945452 3.93501 0
M  V30 15468 H 1485.07 0.270987 3.11423 0
M  V30 15469 H 1484.29 2.74076 2.8333 0
M  V30 15470 H 1485.58 3.18661 3.96652 0
M  V30 15471 H 1484.98 0.479122 5.63667 0
M  V30 15472 H 1483.54 0.934042 6.45073 0
M  V30 15473 N 1486.97 -0.927146 1.27443 0
M  V30 15474 C 1487.9 -2.03209 1.06013 0
M  V30 15475 C 1488.91 -1.62792 0.016041 0
M  V30 15476 O 1490.1 -1.76631 0.25766 0
M  V30 15477 C 1487.2 -3.33791 0.586225 0
M  V30 15478 C 1486.38 -4.02897 1.70273 0
M  V30 15479 C 1485.43 -5.11755 1.22447 0
M  V30 15480 O 1484.46 -5.35688 1.92423 0
M  V30 15481 N 1485.66 -5.80444 0.0804162 0
M  V30 15482 H 1488.43 -2.22155 2.01165 0
M  V30 15483 H 1485.99 -1.09757 1.19017 0
M  V30 15484 H 1487.98 -4.03926 0.250161 0
M  V30 15485 H 1486.55 -3.11414 -0.272076 0
M  V30 15486 H 1485.77 -3.26489 2.20905 0
M  V30 15487 H 1487.06 -4.45816 2.45205 0
M  V30 15488 H 1486.46 -5.63454 -0.503635 0
M  V30 15489 H 1485.01 -6.51504 -0.196466 0
M  V30 15490 N 1488.45 -1.09474 -1.13372 0
M  V30 15491 C 1489.86 -0.824541 -1.36651 0
M  V30 15492 C 1490.06 0.560903 -1.93536 0
M  V30 15493 O 1489.12 1.31567 -2.15514 0
M  V30 15494 C 1490.43 -1.91618 -2.31739 0
M  V30 15495 C 1491.98 -1.94346 -2.45354 0
M  V30 15496 C 1492.45 -3.02655 -3.4375 0
M  V30 15497 N 1493.95 -3.01898 -3.513 0
M  V30 15498 C 1494.68 -3.82344 -4.27318 0
M  V30 15499 N 1494.18 -4.727 -5.06484 0
M  V30 15500 N 1495.97 -3.70602 -4.22623 0
M  V30 15501 H 1488.12 -1.98793 -0.748005 0
M  V30 15502 H 1490.38 -0.863318 -0.391646 0
M  V30 15503 H 1490.09 -2.91282 -1.97098 0
M  V30 15504 H 1489.96 -1.79484 -3.31761 0
M  V30 15505 H 1492.35 -0.953206 -2.79281 0
M  V30 15506 H 1492.43 -2.10558 -1.45255 0
M  V30 15507 H 1492.08 -4.01894 -3.10553 0
M  V30 15508 H 1492.01 -2.83687 -4.43655 0
M  V30 15509 H 1494.5 -2.36417 -2.94814 0
M  V30 15510 H 1494.81 -5.30665 -5.61796 0
M  V30 15511 H 1493.15 -4.76736 -5.05715 0
M  V30 15512 H 1496.35 -2.99372 -3.59853 0
M  V30 15513 H 1496.52 -4.33535 -4.81614 0
M  V30 15514 N 1489.92 1.30607 -0.882012 0
M  V30 15515 C 1491.34 1.78418 -0.549892 0
M  V30 15516 C 1491.69 1.72553 0.933797 0
M  V30 15517 O 1490.81 1.30058 1.72956 0
M  V30 15518 C 1491.41 3.2397 -0.991398 0
M  V30 15519 C 1489.97 3.69629 -0.710739 0
M  V30 15520 C 1489.11 2.51127 -1.17602 0
M  V30 15521 H 1492.06 1.17519 -1.06653 0
M  V30 15522 H 1492.08 3.79159 -0.319115 0
M  V30 15523 H 1491.6 3.28207 -2.07128 0
M  V30 15524 H 1489.7 3.70883 0.357273 0
M  V30 15525 H 1489.81 4.61232 -1.29621 0
M  V30 15526 H 1488.17 2.47642 -0.595444 0
M  V30 15527 H 1488.96 2.58103 -2.26358 0
M  V30 15528 N 1491.4 0.642663 1.43901 0
M  V30 15529 C 1492.35 -0.0673926 2.32502 0
M  V30 15530 C 1493.34 -0.823981 1.4801 0
M  V30 15531 O 1494.55 -0.735575 1.64284 0
M  V30 15532 H 1490.93 -0.0405715 0.750905 0
M  V30 15533 H 1492.9 0.69777 2.90127 0
M  V30 15534 C 1491.65 -1.02745 3.32173 0
M  V30 15535 H 1490.97 -0.454697 3.97206 0
M  V30 15536 H 1492.41 -1.49355 3.96824 0
M  V30 15537 C 1490.87 -2.11835 2.61969 0
M  V30 15538 O 1491.4 -3.20074 2.42725 0
M  V30 15539 N 1489.6 -1.88092 2.21517 0
M  V30 15540 H 1489.15 -1.00072 2.37368 0
M  V30 15541 H 1489.11 -2.61279 1.74873 0
M  V30 15542 N 1492.88 -1.52852 0.383918 0
M  V30 15543 C 1493.84 -2.24904 -0.441687 0
M  V30 15544 C 1494.84 -1.26345 -0.99466 0
M  V30 15545 O 1496.03 -1.50484 -0.877513 0
M  V30 15546 C 1493.17 -2.99994 -1.61915 0
M  V30 15547 H 1494.36 -2.99304 0.189047 0
M  V30 15548 H 1491.91 -1.55708 0.135932 0
M  V30 15549 H 1492.65 -2.29882 -2.28746 0
M  V30 15550 H 1492.43 -3.72328 -1.2294 0
M  V30 15551 H 1493.92 -3.54716 -2.20378 0
M  V30 15552 N 1494.36 -0.113586 -1.5719 0
M  V30 15553 C 1495.31 0.855985 -2.16277 0
M  V30 15554 C 1496.3 1.2792 -1.11053 0
M  V30 15555 O 1497.51 1.25158 -1.29366 0
M  V30 15556 H 1493.88 0.294134 -0.692091 0
M  V30 15557 H 1495.85 0.333109 -2.96535 0
M  V30 15558 C 1494.6 2.09832 -2.77247 0
M  V30 15559 H 1493.93 1.78158 -3.5791 0
M  V30 15560 H 1495.37 2.7569 -3.22135 0
M  V30 15561 C 1493.82 2.88453 -1.74059 0
M  V30 15562 O 1494.35 3.83648 -1.19068 0
M  V30 15563 N 1492.56 2.52342 -1.44124 0
M  V30 15564 H 1492.11 1.74998 -1.89033 0
M  V30 15565 H 1492.07 3.05244 -0.753234 0
M  V30 15566 N 1495.84 1.56784 0.160173 0
M  V30 15567 C 1496.8 1.96373 1.18195 0
M  V30 15568 C 1497.8 0.848674 1.3658 0
M  V30 15569 O 1498.99 1.11553 1.33796 0
M  V30 15570 C 1496.12 2.26824 2.54487 0
M  V30 15571 H 1497.32 2.87819 0.842641 0
M  V30 15572 H 1494.87 1.51014 0.403038 0
M  V30 15573 H 1495.6 1.38129 2.93413 0
M  V30 15574 H 1495.39 3.08112 2.42507 0
M  V30 15575 H 1496.88 2.58337 3.28104 0
M  V30 15576 N 1497.32 -0.429099 1.51646 0
M  V30 15577 C 1498.56 -1.17958 1.64966 0
M  V30 15578 C 1498.89 -1.90667 0.368755 0
M  V30 15579 O 1498.17 -1.83945 -0.632023 0
M  V30 15580 C 1498.45 -2.19002 2.8585 0
M  V30 15581 C 1498.31 -1.50321 4.23938 0
M  V30 15582 C 1499.62 -3.19895 3.0225 0
M  V30 15583 H 1496.74 -0.427474 0.600362 0
M  V30 15584 H 1499.39 -0.46777 1.84152 0
M  V30 15585 H 1497.54 -2.79707 2.69623 0
M  V30 15586 H 1499.21 -0.928902 4.51851 0
M  V30 15587 H 1497.45 -0.805431 4.26257 0
M  V30 15588 H 1498.12 -2.2395 5.0453 0
M  V30 15589 H 1500.6 -2.69251 3.17243 0
M  V30 15590 H 1499.47 -3.8788 3.88381 0
M  V30 15591 H 1499.73 -3.86477 2.14682 0
M  V30 15592 N 1498.79 -1.41931 -0.685074 0
M  V30 15593 C 1500.21 -1.24631 -0.996957 0
M  V30 15594 C 1500.41 -0.143146 -2.00991 0
M  V30 15595 O 1499.47 0.489012 -2.47719 0
M  V30 15596 C 1500.78 -2.59947 -1.51156 0
M  V30 15597 C 1502.33 -2.67216 -1.62986 0
M  V30 15598 C 1502.8 -4.02874 -2.17845 0
M  V30 15599 N 1504.29 -4.04775 -2.25192 0
M  V30 15600 C 1505.03 -5.0655 -2.68691 0
M  V30 15601 N 1504.52 -6.18712 -3.11717 0
M  V30 15602 N 1506.32 -4.93909 -2.68348 0
M  V30 15603 H 1498.47 -2.12395 -0.0142223 0
M  V30 15604 H 1500.73 -0.945496 -0.0688552 0
M  V30 15605 H 1500.44 -3.41477 -0.841793 0
M  V30 15606 H 1500.31 -2.83159 -2.49201 0
M  V30 15607 H 1502.7 -1.86038 -2.29071 0
M  V30 15608 H 1502.78 -2.47804 -0.634584 0
M  V30 15609 H 1502.42 -4.84505 -1.52372 0
M  V30 15610 H 1502.35 -4.19633 -3.18144 0
M  V30 15611 H 1504.84 -3.23798 -1.94841 0
M  V30 15612 H 1505.16 -6.9223 -3.43565 0
M  V30 15613 H 1503.5 -6.22232 -3.096 0
M  V30 15614 H 1506.69 -4.05364 -2.34089 0
M  V30 15615 H 1506.87 -5.73361 -3.01929 0
M  V30 15616 N 1500.27 0.920374 -1.27933 0
M  V30 15617 C 1501.5 1.70804 -1.17647 0
M  V30 15618 C 1501.92 1.86264 0.262189 0
M  V30 15619 O 1501.28 1.36798 1.18979 0
M  V30 15620 C 1501.33 3.08142 -1.87298 0
M  V30 15621 O 1500.43 3.95279 -1.17593 0
M  V30 15622 H 1499.77 0.523267 -0.408763 0
M  V30 15623 H 1502.3 1.15127 -1.69136 0
M  V30 15624 H 1502.31 3.58414 -1.94945 0
M  V30 15625 H 1500.99 2.96208 -2.91948 0
M  V30 15626 H 1499.56 3.53716 -1.18065 0
M  V30 15627 N 1501.75 1.10074 1.1279 0
M  V30 15628 C 1502.68 0.690084 2.17516 0
M  V30 15629 C 1503.66 -0.306745 1.5968 0
M  V30 15630 O 1504.84 -0.206533 1.87365 0
M  V30 15631 C 1501.97 0.0176562 3.38695 0
M  V30 15632 C 1501.02 0.97736 4.1515 0
M  V30 15633 S 1501.85 2.49282 4.7394 0
M  V30 15634 C 1503.01 1.83299 5.98458 0
M  V30 15635 H 1503.24 1.57723 2.52013 0
M  V30 15636 H 1500.77 0.917373 1.24192 0
M  V30 15637 H 1502.73 -0.363992 4.08883 0
M  V30 15638 H 1501.39 -0.846237 3.02486 0
M  V30 15639 H 1500.58 0.454057 5.01951 0
M  V30 15640 H 1500.19 1.30073 3.50652 0
M  V30 15641 H 1502.48 1.16098 6.67478 0
M  V30 15642 H 1503.42 2.68041 6.55408 0
M  V30 15643 H 1503.83 1.29909 5.49349 0
M  V30 15644 N 1503.23 -1.30138 0.888926 0
M  V30 15645 C 1504.14 -2.31778 0.3628 0
M  V30 15646 C 1505.15 -1.65507 -0.53698 0
M  V30 15647 O 1506.33 -1.96775 -0.429152 0
M  V30 15648 C 1503.39 -3.44259 -0.410673 0
M  V30 15649 C 1502.46 -4.26147 0.519334 0
M  V30 15650 C 1501.69 -5.33257 -0.21732 0
M  V30 15651 O 1501.91 -5.5185 -1.44284 0
M  V30 15652 O 1500.85 -6.00329 0.43461 0
M  V30 15653 H 1504.67 -2.78739 1.20575 0
M  V30 15654 H 1502.26 -1.34379 0.65289 0
M  V30 15655 H 1504.14 -4.1277 -0.848467 0
M  V30 15656 H 1502.81 -2.99426 -1.22986 0
M  V30 15657 H 1501.72 -3.60319 1.00602 0
M  V30 15658 H 1503.05 -4.74595 1.30464 0
M  V30 15659 N 1504.71 -0.650285 -1.43559 0
M  V30 15660 C 1505.65 0.043098 -2.3076 0
M  V30 15661 C 1506.62 0.81763 -1.44582 0
M  V30 15662 O 1507.81 0.794825 -1.73457 0
M  V30 15663 C 1504.95 1.00557 -3.30125 0
M  V30 15664 C 1504.06 0.227448 -4.31401 0
M  V30 15665 C 1503.2 1.18345 -5.17849 0
M  V30 15666 C 1502.23 0.395596 -6.1082 0
M  V30 15667 N 1501.37 1.30304 -6.89902 0
M  V30 15668 H 1506.21 -0.706402 -2.89506 0
M  V30 15669 H 1503.75 -0.360118 -1.42624 0
M  V30 15670 H 1505.71 1.57717 -3.8624 0
M  V30 15671 H 1504.34 1.72198 -2.73034 0
M  V30 15672 H 1503.39 -0.460391 -3.77604 0
M  V30 15673 H 1504.7 -0.385316 -4.9731 0
M  V30 15674 H 1503.85 1.82578 -5.78576 0
M  V30 15675 H 1502.59 1.83013 -4.52059 0
M  V30 15676 H 1501.6 -0.260099 -5.49184 0
M  V30 15677 H 1502.82 -0.246633 -6.78652 0
M  V30 15678 H 1500.77 1.93657 -6.26764 0
M  V30 15679 H 1500.69 0.744768 -7.52323 0
M  V30 15680 H 1501.95 1.93361 -7.55137 0
M  V30 15681 N 1506.18 1.52647 -0.392018 0
M  V30 15682 C 1507.43 2.01912 0.18958 0
M  V30 15683 C 1507.76 1.27786 1.46234 0
M  V30 15684 O 1507.04 0.379124 1.90769 0
M  V30 15685 C 1507.32 3.57217 0.454734 0
M  V30 15686 C 1507.17 4.4201 -0.833501 0
M  V30 15687 C 1508.49 4.22146 1.24421 0
M  V30 15688 H 1505.61 0.733909 0.0674281 0
M  V30 15689 H 1508.25 1.82685 -0.52212 0
M  V30 15690 H 1506.4 3.73731 1.06101 0
M  V30 15691 H 1508.08 4.37242 -1.47027 0
M  V30 15692 H 1506.32 4.08912 -1.44823 0
M  V30 15693 H 1506.99 5.48701 -0.602585 0
M  V30 15694 H 1509.47 4.09627 0.731093 0
M  V30 15695 H 1508.34 5.30786 1.39848 0
M  V30 15696 H 1508.6 3.7996 2.26016 0
M  V30 15697 N 1507.66 0.121921 1.57128 0
M  V30 15698 C 1508.6 -0.864553 2.11189 0
M  V30 15699 C 1509.57 -1.25896 1.02902 0
M  V30 15700 O 1510.76 -1.3595 1.30575 0
M  V30 15701 C 1507.88 -2.15742 2.611 0
M  V30 15702 C 1506.93 -1.91085 3.81299 0
M  V30 15703 S 1507.76 -1.12448 5.23561 0
M  V30 15704 C 1508.92 -2.42908 5.76842 0
M  V30 15705 H 1509.15 -0.404737 2.94532 0
M  V30 15706 H 1506.69 -0.091909 1.54126 0
M  V30 15707 H 1508.64 -2.90024 2.9051 0
M  V30 15708 H 1507.3 -2.58841 1.77933 0
M  V30 15709 H 1506.5 -2.86889 4.1438 0
M  V30 15710 H 1506.1 -1.24922 3.5252 0
M  V30 15711 H 1508.39 -3.38728 5.86745 0
M  V30 15712 H 1509.33 -2.14367 6.74872 0
M  V30 15713 H 1509.74 -2.52409 5.04926 0
M  V30 15714 N 1509.14 -1.56867 -0.151857 0
M  V30 15715 C 1510.05 -2.01157 -1.20718 0
M  V30 15716 C 1511.07 -0.926166 -1.47303 0
M  V30 15717 O 1512.24 -1.23528 -1.59069 0
M  V30 15718 C 1509.31 -2.37915 -2.52185 0
M  V30 15719 C 1508.37 -3.60381 -2.3329 0
M  V30 15720 C 1507.6 -3.95376 -3.58488 0
M  V30 15721 O 1507.82 -3.31093 -4.64471 0
M  V30 15722 O 1506.76 -4.88645 -3.5144 0
M  V30 15723 H 1510.58 -2.91234 -0.861175 0
M  V30 15724 H 1508.17 -1.44993 -0.360213 0
M  V30 15725 H 1510.05 -2.6244 -3.29702 0
M  V30 15726 H 1508.73 -1.50995 -2.86325 0
M  V30 15727 H 1507.63 -3.4105 -1.5374 0
M  V30 15728 H 1508.97 -4.47903 -2.04067 0
M  V30 15729 N 1510.62 0.421051 -1.51871 0
M  V30 15730 C 1511.87 1.16611 -1.64574 0
M  V30 15731 C 1512.18 1.91955 -0.375835 0
M  V30 15732 O 1513.39 2.68792 -0.382481 0
M  V30 15733 C 1511.84 2.12164 -2.90714 0
M  V30 15734 C 1511.45 1.42392 -4.24769 0
M  V30 15735 C 1513.19 2.87002 -3.12778 0
M  V30 15736 C 1511.1 2.36523 -5.42043 0
M  V30 15737 H 1510.03 0.438989 -0.613029 0
M  V30 15738 H 1512.68 0.431636 -1.78351 0
M  V30 15739 H 1511.06 2.89114 -2.70608 0
M  V30 15740 H 1512.24 0.708875 -4.55315 0
M  V30 15741 H 1510.55 0.796421 -4.08713 0
M  V30 15742 H 1513.15 3.5755 -3.9757 0
M  V30 15743 H 1513.49 3.49277 -2.2652 0
M  V30 15744 H 1514.03 2.17154 -3.333 0
M  V30 15745 H 1510.77 1.78913 -6.30611 0
M  V30 15746 H 1510.29 3.06034 -5.15852 0
M  V30 15747 H 1511.96 2.97306 -5.74646 0
M  V30 15748 N 1512.1 1.42293 0.677538 0
M  V30 15749 C 1513.05 1.42014 1.78371 0
M  V30 15750 C 1514.03 0.291863 1.58231 0
M  V30 15751 O 1515.22 0.533888 1.68756 0
M  V30 15752 C 1512.35 1.32233 3.16811 0
M  V30 15753 C 1511.44 2.49995 3.42584 0
M  V30 15754 N 1511.83 3.75424 3.38955 0
M  V30 15755 C 1510.13 2.44196 3.73208 0
M  V30 15756 C 1510.83 4.53631 3.64135 0
M  V30 15757 N 1509.8 3.84001 3.84765 0
M  V30 15758 H 1513.61 2.3689 1.73954 0
M  V30 15759 H 1511.12 1.36603 0.878266 0
M  V30 15760 H 1513.12 1.30115 3.96075 0
M  V30 15761 H 1511.78 0.383559 3.22427 0
M  V30 15762 H 1512.79 4.08057 3.18919 0
M  V30 15763 H 1509.46 1.58884 3.86085 0
M  V30 15764 H 1510.85 5.6261 3.67314 0
M  V30 15765 N 1513.57 -0.913576 1.28419 0
M  V30 15766 C 1514.8 -1.70178 1.18551 0
M  V30 15767 C 1515.22 -1.864 -0.252307 0
M  V30 15768 O 1514.58 -1.37427 -1.18252 0
M  V30 15769 C 1514.63 -3.07145 1.8893 0
M  V30 15770 O 1513.73 -3.9465 1.19688 0
M  V30 15771 H 1513.08 -0.521092 0.411533 0
M  V30 15772 H 1515.61 -1.14228 1.69744 0
M  V30 15773 H 1515.62 -3.57375 1.96843 0
M  V30 15774 H 1514.29 -2.94655 2.93515 0
M  V30 15775 H 1512.87 -3.53085 1.19939 0
M  V30 15776 N 1515.05 -1.1067 -1.12204 0
M  V30 15777 C 1516 -0.757745 -2.18007 0
M  V30 15778 C 1516.97 0.26706 -1.63939 0
M  V30 15779 O 1518.15 0.145789 -1.90242 0
M  V30 15780 C 1515.29 -0.198379 -3.44529 0
M  V30 15781 C 1514.41 -1.27878 -4.12639 0
M  V30 15782 C 1513.54 -0.6808 -5.26819 0
M  V30 15783 C 1512.58 -1.74161 -5.868 0
M  V30 15784 N 1511.72 -1.16372 -6.92389 0
M  V30 15785 H 1516.56 -1.66418 -2.47202 0
M  V30 15786 H 1514.1 -0.831216 -1.21364 0
M  V30 15787 H 1516.05 0.143838 -4.16952 0
M  V30 15788 H 1514.68 0.671279 -3.15743 0
M  V30 15789 H 1513.74 -1.73808 -3.38371 0
M  V30 15790 H 1515.05 -2.08169 -4.53285 0
M  V30 15791 H 1514.2 -0.288172 -6.06015 0
M  V30 15792 H 1512.94 0.153521 -4.87458 0
M  V30 15793 H 1511.95 -2.14364 -5.06289 0
M  V30 15794 H 1513.17 -2.57882 -6.28231 0
M  V30 15795 H 1511.12 -0.350899 -6.55061 0
M  V30 15796 H 1511.03 -1.90344 -7.31646 0
M  V30 15797 H 1512.3 -0.797715 -7.75407 0
M  V30 15798 N 1516.53 1.29665 -0.895815 0
M  V30 15799 C 1517.76 1.99572 -0.534267 0
M  V30 15800 C 1518.17 1.67254 0.884455 0
M  V30 15801 O 1517.51 0.911762 1.59476 0
M  V30 15802 C 1517.57 3.53719 -0.642099 0
M  V30 15803 C 1517.24 4.09583 -2.02709 0
M  V30 15804 C 1518.23 4.24769 -2.99779 0
M  V30 15805 C 1515.92 4.44706 -2.33542 0
M  V30 15806 C 1517.91 4.74305 -4.25809 0
M  V30 15807 C 1515.6 4.93939 -3.59815 0
M  V30 15808 C 1516.6 5.08693 -4.55763 0
M  V30 15809 O 1516.29 5.5686 -5.79795 0
M  V30 15810 H 1516.02 0.644481 -0.204012 0
M  V30 15811 H 1518.57 1.66262 -1.20607 0
M  V30 15812 H 1516.8 3.86603 0.0867197 0
M  V30 15813 H 1518.49 4.04861 -0.290265 0
M  V30 15814 H 1519.26 3.97925 -2.77273 0
M  V30 15815 H 1515.14 4.32483 -1.59622 0
M  V30 15816 H 1518.68 4.85736 -5.00706 0
M  V30 15817 H 1514.58 5.2022 -3.82154 0
M  V30 15818 H 1515.35 5.75182 -5.82329 0
M  V30 15819 N 1518.01 0.657889 1.43212 0
M  V30 15820 C 1519.25 0.182061 2.02584 0
M  V30 15821 C 1519.61 -1.19232 1.51002 0
M  V30 15822 O 1518.9 -1.78535 0.6954 0
M  V30 15823 C 1519.1 0.138025 3.57133 0
M  V30 15824 C 1518.93 1.5066 4.23712 0
M  V30 15825 C 1517.7 2.10015 4.59589 0
M  V30 15826 C 1519.89 2.44593 4.52414 0
M  V30 15827 N 1517.88 3.39828 5.11263 0
M  V30 15828 C 1519.25 3.59044 5.05457 0
M  V30 15829 C 1521.3 2.43337 4.34387 0
M  V30 15830 C 1520 4.7247 5.4237 0
M  V30 15831 C 1522.03 3.55846 4.72364 0
M  V30 15832 C 1521.39 4.69023 5.25544 0
M  V30 15833 H 1517.49 0.111158 0.774059 0
M  V30 15834 H 1520.08 0.867208 1.7432 0
M  V30 15835 H 1518.25 -0.516479 3.84951 0
M  V30 15836 H 1519.98 -0.34911 4.03191 0
M  V30 15837 H 1516.73 1.62676 4.44785 0
M  V30 15838 H 1517.16 4.06269 5.41548 0
M  V30 15839 H 1521.8 1.57072 3.92541 0
M  V30 15840 H 1519.52 5.59423 5.83157 0
M  V30 15841 H 1523.1 3.56081 4.60106 0
M  V30 15842 H 1521.98 5.54641 5.54385 0
M  V30 15843 N 1519.49 -1.52437 0.400108 0
M  V30 15844 C 1520.9 -1.5952 0.0505611 0
M  V30 15845 C 1521.1 -1.4135 -1.43606 0
M  V30 15846 O 1520.16 -1.23591 -2.20185 0
M  V30 15847 C 1521.47 -2.95859 0.537411 0
M  V30 15848 C 1523.02 -3.09067 0.494603 0
M  V30 15849 C 1523.49 -4.47873 0.957815 0
M  V30 15850 N 1524.99 -4.54087 0.914267 0
M  V30 15851 C 1525.72 -5.59744 1.24397 0
M  V30 15852 N 1525.22 -6.72995 1.64469 0
M  V30 15853 N 1527.01 -5.49905 1.16452 0
M  V30 15854 H 1519.16 -1.62496 1.36781 0
M  V30 15855 H 1521.42 -0.763947 0.561328 0
M  V30 15856 H 1521.13 -3.14407 1.57611 0
M  V30 15857 H 1521 -3.77156 -0.0577652 0
M  V30 15858 H 1523.39 -2.90209 -0.535035 0
M  V30 15859 H 1523.47 -2.29698 1.12572 0
M  V30 15860 H 1523.12 -4.67473 1.98574 0
M  V30 15861 H 1523.05 -5.25724 0.303602 0
M  V30 15862 H 1525.54 -3.72787 0.619536 0
M  V30 15863 H 1525.85 -7.49594 1.87961 0
M  V30 15864 H 1524.19 -6.74298 1.68364 0
M  V30 15865 H 1527.39 -4.60311 0.850401 0
M  V30 15866 H 1527.56 -6.32142 1.42478 0
M  V30 15867 N 1520.96 -0.130252 -1.57061 0
M  V30 15868 C 1522.2 0.527958 -1.97464 0
M  V30 15869 C 1522.57 1.63126 -1.01261 0
M  V30 15870 O 1523.77 2.34916 -1.30644 0
M  V30 15871 C 1522.04 1.03657 -3.42038 0
M  V30 15872 S 1523.6 1.70173 -4.04459 0
M  V30 15873 H 1520.42 0.171256 -0.690067 0
M  V30 15874 H 1523.02 -0.218 -1.94281 0
M  V30 15875 H 1521.72 0.222568 -4.09796 0
M  V30 15876 H 1521.25 1.81754 -3.48897 0
M  V30 15877 H 1523.27 2.98813 -3.96138 0
M  V30 15878 N 1522.44 1.56945 0.143535 0
M  V30 15879 C 1523.37 2.0156 1.17881 0
M  V30 15880 C 1524.35 0.895744 1.44604 0
M  V30 15881 O 1525.54 1.16379 1.55466 0
M  V30 15882 C 1522.67 2.39915 2.51114 0
M  V30 15883 C 1521.62 3.55117 2.38905 0
M  V30 15884 C 1520.95 3.79296 3.7688 0
M  V30 15885 C 1522.25 4.87668 1.87021 0
M  V30 15886 H 1523.94 2.88296 0.80783 0
M  V30 15887 H 1521.49 1.38698 0.387149 0
M  V30 15888 H 1523.44 2.69727 3.23767 0
M  V30 15889 H 1522.17 1.5012 2.90055 0
M  V30 15890 H 1520.83 3.25476 1.68703 0
M  V30 15891 H 1520.47 2.86747 4.13262 0
M  V30 15892 H 1520.17 4.56827 3.69571 0
M  V30 15893 H 1521.7 4.11537 4.51076 0
M  V30 15894 H 1523.11 5.16176 2.4947 0
M  V30 15895 H 1521.51 5.69029 1.90594 0
M  V30 15896 H 1522.58 4.77811 0.82611 0
M  V30 15897 N 1523.92 -0.412991 1.52093 0
M  V30 15898 C 1524.85 -1.52187 1.71382 0
M  V30 15899 C 1525.87 -1.51567 0.594247 0
M  V30 15900 O 1527.06 -1.55902 0.869293 0
M  V30 15901 C 1524.16 -2.91086 1.73557 0
M  V30 15902 C 1523.33 -3.15941 3.0249 0
M  V30 15903 C 1522.39 -4.34692 2.96529 0
M  V30 15904 O 1521.41 -4.3216 3.70441 0
M  V30 15905 N 1522.62 -5.39594 2.14052 0
M  V30 15906 H 1525.38 -1.36036 2.67047 0
M  V30 15907 H 1522.94 -0.602243 1.50282 0
M  V30 15908 H 1524.93 -3.68589 1.67106 0
M  V30 15909 H 1523.5 -3.00714 0.85382 0
M  V30 15910 H 1522.72 -2.26517 3.2262 0
M  V30 15911 H 1524.01 -3.29388 3.87789 0
M  V30 15912 H 1523.41 -5.44498 1.53424 0
M  V30 15913 H 1521.97 -6.15855 2.13461 0
M  V30 15914 N 1525.4 -1.4265 -0.669982 0
M  V30 15915 C 1526.82 -1.25682 -0.983682 0
M  V30 15916 C 1527.02 -0.164456 -2.00828 0
M  V30 15917 O 1526.07 0.462711 -2.48224 0
M  V30 15918 C 1527.38 -2.61536 -1.4839 0
M  V30 15919 C 1528.93 -2.6893 -1.60143 0
M  V30 15920 C 1529.41 -4.05162 -2.1356 0
M  V30 15921 N 1530.9 -4.07141 -2.20886 0
M  V30 15922 C 1531.63 -5.09371 -2.63303 0
M  V30 15923 N 1531.13 -6.21983 -3.05137 0
M  V30 15924 N 1532.92 -4.96727 -2.63094 0
M  V30 15925 H 1525.07 -2.12398 0.0083059 0
M  V30 15926 H 1527.34 -0.946173 -0.058823 0
M  V30 15927 H 1527.04 -3.42351 -0.805527 0
M  V30 15928 H 1526.92 -2.85786 -2.46183 0
M  V30 15929 H 1529.3 -1.88457 -2.27085 0
M  V30 15930 H 1529.38 -2.48463 -0.608266 0
M  V30 15931 H 1529.03 -4.86094 -1.47224 0
M  V30 15932 H 1528.96 -4.22984 -3.13676 0
M  V30 15933 H 1531.45 -3.25846 -1.91396 0
M  V30 15934 H 1531.76 -6.95835 -3.36204 0
M  V30 15935 H 1530.11 -6.25481 -3.02983 0
M  V30 15936 H 1533.3 -4.07824 -2.29777 0
M  V30 15937 H 1533.47 -5.76531 -2.95831 0
M  V30 15938 N 1526.88 0.906753 -1.28902 0
M  V30 15939 C 1528.11 1.69019 -1.19333 0
M  V30 15940 C 1528.52 1.87176 0.247065 0
M  V30 15941 O 1527.88 1.40376 1.16623 0
M  V30 15942 C 1527.93 3.07854 -1.89495 0
M  V30 15943 O 1527.65 2.90531 -3.27908 0
M  V30 15944 C 1529.15 4.02246 -1.86314 0
M  V30 15945 H 1526.37 0.528119 -0.413922 0
M  V30 15946 H 1528.91 1.13441 -1.70151 0
M  V30 15947 H 1527.07 3.60228 -1.42529 0
M  V30 15948 H 1527.48 3.78451 -3.63146 0
M  V30 15949 H 1528.96 4.97104 -2.39983 0
M  V30 15950 H 1529.43 4.31149 -0.837071 0
M  V30 15951 H 1530.04 3.55803 -2.3299 0
M  V30 15952 N 1528.36 1.11264 1.11616 0
M  V30 15953 C 1529.58 0.882802 1.87121 0
M  V30 15954 C 1530 -0.567279 1.80076 0
M  V30 15955 O 1529.36 -1.39158 1.18074 0
M  V30 15956 C 1529.41 1.33355 3.36004 0
M  V30 15957 O 1529.13 2.72678 3.42897 0
M  V30 15958 C 1530.63 1.13886 4.28421 0
M  V30 15959 H 1527.85 0.316275 0.591786 0
M  V30 15960 H 1530.39 1.4795 1.41177 0
M  V30 15961 H 1528.55 0.780347 3.79459 0
M  V30 15962 H 1528.96 2.92168 4.35589 0
M  V30 15963 H 1530.44 1.50329 5.31136 0
M  V30 15964 H 1530.91 0.078259 4.3913 0
M  V30 15965 H 1531.52 1.67896 3.90757 0
M  V30 15966 N 1529.83 -1.29188 0.902679 0
M  V30 15967 C 1531.06 -2.00113 0.544953 0
M  V30 15968 C 1531.48 -1.67093 -0.863805 0
M  V30 15969 O 1530.84 -0.897179 -1.57545 0
M  V30 15970 C 1530.89 -3.52762 0.747741 0
M  V30 15971 O 1529.99 -4.11923 -0.198388 0
M  V30 15972 H 1529.33 -0.629054 0.212572 0
M  V30 15973 H 1531.86 -1.64611 1.21508 0
M  V30 15974 H 1531.87 -4.02732 0.653546 0
M  V30 15975 H 1530.55 -3.76131 1.77478 0
M  V30 15976 H 1529.13 -3.72857 -0.0563959 0
M  V30 15977 N 1531.31 -0.665475 -1.42861 0
M  V30 15978 C 1532.54 -0.192 -2.06007 0
M  V30 15979 C 1532.95 1.1472 -1.49949 0
M  V30 15980 O 1532.31 1.71074 -0.635599 0
M  V30 15981 C 1532.36 -0.108189 -3.61338 0
M  V30 15982 O 1532.08 -1.39446 -4.15315 0
M  V30 15983 C 1533.58 0.3899 -4.41582 0
M  V30 15984 H 1530.8 -0.0955812 -0.664158 0
M  V30 15985 H 1533.35 -0.909582 -1.83158 0
M  V30 15986 H 1531.5 0.560024 -3.83331 0
M  V30 15987 H 1531.92 -1.26168 -5.09099 0
M  V30 15988 H 1533.39 0.39747 -5.50567 0
M  V30 15989 H 1533.87 1.42348 -4.15492 0
M  V30 15990 H 1534.47 -0.246248 -4.24587 0
M  V30 15991 N 1532.79 1.52222 -0.408187 0
M  V30 15992 C 1533.75 2.25578 0.405851 0
M  V30 15993 C 1534.75 1.27912 0.974434 0
M  V30 15994 O 1535.94 1.51861 0.853461 0
M  V30 15995 C 1533.07 3.02532 1.57122 0
M  V30 15996 H 1534.27 2.98965 -0.23664 0
M  V30 15997 H 1531.82 1.55472 -0.160687 0
M  V30 15998 H 1532.56 2.33492 2.2506 0
M  V30 15999 H 1532.34 3.74237 1.17001 0
M  V30 16000 H 1533.83 3.58177 2.14707 0
M  V30 16001 N 1534.27 0.138579 1.5699 0
M  V30 16002 C 1535.52 -0.513611 1.95465 0
M  V30 16003 C 1535.84 -1.65952 1.02396 0
M  V30 16004 O 1535.11 -1.9572 0.0839001 0
M  V30 16005 H 1533.69 -0.192729 0.72171 0
M  V30 16006 H 1536.35 0.212107 1.93742 0
M  V30 16007 H 1535.44 -0.895313 2.98983 0
M  V30 16008 N 1535.75 -1.57019 -0.13521 0
M  V30 16009 C 1537.16 -1.51949 -0.48824 0
M  V30 16010 C 1537.36 -0.848955 -1.82743 0
M  V30 16011 O 1536.42 -0.424441 -2.48907 0
M  V30 16012 C 1537.73 -2.96719 -0.487673 0
M  V30 16013 C 1539.28 -3.07722 -0.572365 0
M  V30 16014 C 1539.75 -4.54022 -0.602347 0
M  V30 16015 N 1541.24 -4.58413 -0.664242 0
M  V30 16016 C 1541.98 -5.69005 -0.70862 0
M  V30 16017 N 1541.48 -6.89135 -0.711626 0
M  V30 16018 N 1543.27 -5.57069 -0.750399 0
M  V30 16019 H 1535.42 -1.99001 0.742465 0
M  V30 16020 H 1537.68 -0.908116 0.272083 0
M  V30 16021 H 1537.39 -3.49082 0.428363 0
M  V30 16022 H 1537.26 -3.53299 -1.32136 0
M  V30 16023 H 1539.65 -2.55372 -1.47882 0
M  V30 16024 H 1539.73 -2.54166 0.288696 0
M  V30 16025 H 1539.37 -5.07013 0.3 0
M  V30 16026 H 1539.3 -5.05373 -1.48006 0
M  V30 16027 H 1541.8 -3.71936 -0.668739 0
M  V30 16028 H 1542.11 -7.69175 -0.747663 0
M  V30 16029 H 1540.45 -6.91672 -0.679311 0
M  V30 16030 H 1543.64 -4.62129 -0.745301 0
M  V30 16031 H 1543.82 -6.4327 -0.781518 0
M  V30 16032 N 1537.22 0.404919 -1.52309 0
M  V30 16033 C 1538.45 1.17764 -1.70723 0
M  V30 16034 C 1538.87 1.83403 -0.417744 0
M  V30 16035 O 1538.23 1.70181 0.625157 0
M  V30 16036 C 1538.28 2.2133 -2.84685 0
M  V30 16037 O 1537.38 3.27566 -2.50548 0
M  V30 16038 H 1536.73 0.343572 -0.568203 0
M  V30 16039 H 1539.26 0.474093 -1.99031 0
M  V30 16040 H 1539.27 2.6559 -3.09719 0
M  V30 16041 H 1537.94 1.72939 -3.78239 0
M  V30 16042 H 1536.52 2.88556 -2.36199 0
M  V30 16043 N 1538.7 1.43003 0.662408 0
M  V30 16044 C 1539.63 1.50248 1.78739 0
M  V30 16045 C 1540.61 0.357934 1.66291 0
M  V30 16046 O 1541.8 0.573919 1.85526 0
M  V30 16047 C 1538.93 1.41618 3.17114 0
M  V30 16048 C 1537.88 2.54228 3.44314 0
M  V30 16049 C 1537.21 2.30653 4.82393 0
M  V30 16050 C 1538.51 3.96505 3.39972 0
M  V30 16051 H 1540.2 2.44406 1.72934 0
M  V30 16052 H 1537.75 1.17633 0.830569 0
M  V30 16053 H 1539.7 1.45293 3.9556 0
M  V30 16054 H 1538.43 0.439605 3.23628 0
M  V30 16055 H 1537.08 2.49891 2.68235 0
M  V30 16056 H 1536.73 1.3126 4.85572 0
M  V30 16057 H 1536.43 3.06134 5.01554 0
M  V30 16058 H 1537.96 2.36096 5.63108 0
M  V30 16059 H 1539.37 4.02378 4.08368 0
M  V30 16060 H 1537.77 4.71937 3.70668 0
M  V30 16061 H 1538.84 4.22295 2.38318 0
M  V30 16062 N 1540.18 -0.899904 1.29381 0
M  V30 16063 C 1541.43 -1.64502 1.16713 0
M  V30 16064 C 1541.74 -1.93577 -0.280563 0
M  V30 16065 O 1542.95 -2.66305 -0.528563 0
M  V30 16066 C 1541.4 -2.96414 2.04125 0
M  V30 16067 C 1541.01 -2.74935 3.53716 0
M  V30 16068 C 1542.76 -3.74337 2.0018 0
M  V30 16069 C 1540.66 -4.02571 4.33232 0
M  V30 16070 H 1539.59 -0.617121 0.433218 0
M  V30 16071 H 1542.24 -0.997521 1.54019 0
M  V30 16072 H 1540.63 -3.62375 1.59687 0
M  V30 16073 H 1541.8 -2.17567 4.06203 0
M  V30 16074 H 1540.12 -2.10407 3.5933 0
M  V30 16075 H 1542.71 -4.6897 2.56849 0
M  V30 16076 H 1543.06 -4.04559 0.981735 0
M  V30 16077 H 1543.59 -3.15216 2.4266 0
M  V30 16078 H 1540.33 -3.77516 5.35875 0
M  V30 16079 H 1539.85 -4.59499 3.85514 0
M  V30 16080 H 1541.53 -4.70719 4.43884 0
M  V30 16081 N 1541.66 -1.11854 -1.11024 0
M  V30 16082 C 1542.57 -0.79368 -2.20767 0
M  V30 16083 C 1543.58 0.214996 -1.72667 0
M  V30 16084 O 1544.76 0.0500976 -2.01338 0
M  V30 16085 C 1541.83 -0.246375 -3.45823 0
M  V30 16086 C 1540.89 -1.31421 -4.0869 0
M  V30 16087 C 1540.12 -0.792922 -5.27777 0
M  V30 16088 O 1540.34 0.375492 -5.69163 0
M  V30 16089 O 1539.28 -1.55971 -5.8134 0
M  V30 16090 H 1543.1 -1.71011 -2.50976 0
M  V30 16091 H 1540.69 -0.894752 -1.19643 0
M  V30 16092 H 1542.57 0.0542632 -4.21365 0
M  V30 16093 H 1541.24 0.642703 -3.17255 0
M  V30 16094 H 1540.15 -1.66792 -3.3486 0
M  V30 16095 H 1541.48 -2.17683 -4.41446 0
M  V30 16096 N 1543.14 1.28707 -0.909517 0
M  V30 16097 C 1544.1 2.25692 -0.39946 0
M  V30 16098 C 1545.1 1.53721 0.471848 0
M  V30 16099 O 1546.29 1.72008 0.275504 0
M  V30 16100 C 1543.42 3.38205 0.427793 0
M  V30 16101 H 1544.61 2.72326 -1.25613 0
M  V30 16102 H 1542.17 1.40317 -0.688535 0
M  V30 16103 H 1542.9 2.96926 1.30404 0
M  V30 16104 H 1542.69 3.91606 -0.19667 0
M  V30 16105 H 1544.18 4.10334 0.775634 0
M  V30 16106 N 1544.61 0.673042 1.42506 0
M  V30 16107 C 1545.55 -0.0452975 2.29155 0
M  V30 16108 C 1546.56 -0.767277 1.43585 0
M  V30 16109 O 1547.75 -0.621728 1.67322 0
M  V30 16110 C 1544.85 -1.0878 3.20967 0
M  V30 16111 C 1544.02 -0.439999 4.35181 0
M  V30 16112 C 1543.08 -1.38205 5.07726 0
M  V30 16113 O 1542.11 -0.883031 5.62309 0
M  V30 16114 N 1543.31 -2.7154 5.13075 0
M  V30 16115 H 1546.07 0.698517 2.91446 0
M  V30 16116 H 1543.63 0.517322 1.53412 0
M  V30 16117 H 1545.63 -1.71925 3.66366 0
M  V30 16118 H 1544.2 -1.73337 2.6014 0
M  V30 16119 H 1543.42 0.370926 3.92451 0
M  V30 16120 H 1544.7 0.0113738 5.08799 0
M  V30 16121 H 1544.1 -3.14623 4.70137 0
M  V30 16122 H 1542.66 -3.29937 5.62126 0
M  V30 16123 N 1546.09 -1.52004 0.416254 0
M  V30 16124 C 1547.32 -2.06307 -0.156491 0
M  V30 16125 C 1547.74 -1.28567 -1.3826 0
M  V30 16126 O 1547.09 -0.339447 -1.79315 0
M  V30 16127 C 1547.14 -3.58028 -0.499824 0
M  V30 16128 O 1546.86 -4.32828 0.677602 0
M  V30 16129 C 1548.37 -4.28773 -1.12553 0
M  V30 16130 H 1545.59 -0.670778 -0.0172483 0
M  V30 16131 H 1548.13 -1.95826 0.589262 0
M  V30 16132 H 1546.28 -3.68493 -1.19547 0
M  V30 16133 H 1546.7 -5.23053 0.389302 0
M  V30 16134 H 1548.17 -5.36085 -1.31592 0
M  V30 16135 H 1548.65 -3.85706 -2.10066 0
M  V30 16136 H 1549.26 -4.22696 -0.469881 0
M  V30 16137 N 1547.57 -0.146903 -1.56914 0
M  V30 16138 C 1548.81 0.506985 -1.98013 0
M  V30 16139 C 1549.17 1.62043 -1.02985 0
M  V30 16140 O 1550.38 2.33517 -1.33128 0
M  V30 16141 C 1548.65 1.00023 -3.43118 0
M  V30 16142 S 1550.21 1.65873 -4.06241 0
M  V30 16143 H 1547.02 0.163927 -0.691845 0
M  V30 16144 H 1549.63 -0.238594 -1.94039 0
M  V30 16145 H 1548.33 0.179091 -4.10009 0
M  V30 16146 H 1547.86 1.78043 -3.50805 0
M  V30 16147 H 1549.88 2.94595 -3.99285 0
M  V30 16148 N 1549.05 1.57088 0.126881 0
M  V30 16149 C 1549.96 2.03053 1.17502 0
M  V30 16150 C 1550.97 0.949484 1.45811 0
M  V30 16151 O 1552.15 1.26043 1.57083 0
M  V30 16152 C 1549.22 2.41897 2.48368 0
M  V30 16153 C 1548.28 3.64047 2.27527 0
M  V30 16154 C 1547.51 4.01029 3.52153 0
M  V30 16155 O 1547.73 3.38441 4.59145 0
M  V30 16156 O 1546.67 4.94174 3.43622 0
M  V30 16157 H 1550.49 2.92568 0.814733 0
M  V30 16158 H 1548.08 1.45547 0.3371 0
M  V30 16159 H 1549.96 2.67652 3.25485 0
M  V30 16160 H 1548.63 1.55531 2.83887 0
M  V30 16161 H 1547.54 3.43452 1.48294 0
M  V30 16162 H 1548.87 4.51093 1.96916 0
M  V30 16163 N 1550.53 -0.396836 1.52522 0
M  V30 16164 C 1551.47 -1.50474 1.77371 0
M  V30 16165 C 1552.47 -1.56792 0.641307 0
M  V30 16166 O 1553.67 -1.60052 0.823621 0
M  V30 16167 H 1550.05 -0.500667 0.561103 0
M  V30 16168 H 1552.02 -1.26706 2.70163 0
M  V30 16169 C 1550.77 -2.87702 1.95251 0
M  V30 16170 H 1550.09 -2.83588 2.81812 0
M  V30 16171 H 1551.53 -3.64482 2.16631 0
M  V30 16172 C 1549.99 -3.29053 0.722904 0
M  V30 16173 O 1550.52 -4.01567 -0.103398 0
M  V30 16174 N 1548.73 -2.85246 0.555263 0
M  V30 16175 H 1548.27 -2.26403 1.22879 0
M  V30 16176 H 1548.23 -3.13272 -0.266113 0
M  V30 16177 N 1552.01 -1.43353 -0.654814 0
M  V30 16178 C 1552.92 -1.50831 -1.79687 0
M  V30 16179 C 1553.93 -0.395518 -1.69445 0
M  V30 16180 O 1555.11 -0.649408 -1.90643 0
M  V30 16181 C 1552.17 -1.42735 -3.15955 0
M  V30 16182 C 1551.23 -2.64671 -3.38005 0
M  V30 16183 C 1550.47 -2.56952 -4.67773 0
M  V30 16184 O 1550.69 -1.61638 -5.47019 0
M  V30 16185 O 1549.62 -3.47425 -4.91507 0
M  V30 16186 H 1553.45 -2.47266 -1.76333 0
M  V30 16187 H 1551.03 -1.25336 -0.813095 0
M  V30 16188 H 1552.92 -1.40656 -3.97233 0
M  V30 16189 H 1551.59 -0.494334 -3.19903 0
M  V30 16190 H 1550.5 -2.72323 -2.56498 0
M  V30 16191 H 1551.83 -3.5694 -3.38903 0
M  V30 16192 N 1553.48 0.89303 -1.29857 0
M  V30 16193 C 1554.39 2.03079 -1.17457 0
M  V30 16194 C 1555.41 1.73733 -0.0962941 0
M  V30 16195 O 1556.59 1.99005 -0.309667 0
M  V30 16196 C 1553.65 3.3589 -0.858991 0
M  V30 16197 C 1552.71 3.78711 -2.0218 0
M  V30 16198 C 1551.94 5.05184 -1.72118 0
M  V30 16199 O 1552.17 5.66738 -0.645276 0
M  V30 16200 O 1551.1 5.44218 -2.57119 0
M  V30 16201 H 1554.93 2.16465 -2.13017 0
M  V30 16202 H 1552.51 1.01774 -1.09373 0
M  V30 16203 H 1554.39 4.15582 -0.697852 0
M  V30 16204 H 1553.07 3.23631 0.0667756 0
M  V30 16205 H 1551.98 2.99758 -2.23822 0
M  V30 16206 H 1553.31 3.95563 -2.929 0
M  V30 16207 N 1554.96 1.12442 1.10429 0
M  V30 16208 C 1555.92 0.795443 2.14954 0
M  V30 16209 C 1556.92 -0.19022 1.59671 0
M  V30 16210 O 1558.11 0.0355797 1.74164 0
M  V30 16211 C 1555.25 0.182043 3.40414 0
M  V30 16212 H 1556.44 1.72153 2.45567 0
M  V30 16213 H 1553.99 0.927672 1.25793 0
M  V30 16214 H 1554.73 -0.753766 3.15419 0
M  V30 16215 H 1554.51 0.891708 3.81826 0
M  V30 16216 H 1556 -0.0316286 4.17588 0
M  V30 16217 N 1556.44 -1.28223 0.91633 0
M  V30 16218 C 1557.35 -2.30956 0.411882 0
M  V30 16219 C 1558.37 -1.66609 -0.501753 0
M  V30 16220 O 1559.54 -1.97641 -0.387317 0
M  V30 16221 C 1556.61 -3.45053 -0.337558 0
M  V30 16222 C 1555.67 -4.2495 0.609609 0
M  V30 16223 C 1554.9 -5.33598 -0.104159 0
M  V30 16224 O 1555.12 -5.54786 -1.32546 0
M  V30 16225 O 1554.06 -5.99272 0.561851 0
M  V30 16226 H 1557.88 -2.76118 1.26461 0
M  V30 16227 H 1555.47 -1.32964 0.681246 0
M  V30 16228 H 1557.35 -4.14477 -0.760722 0
M  V30 16229 H 1556.03 -3.01968 -1.16607 0
M  V30 16230 H 1554.93 -3.58104 1.08222 0
M  V30 16231 H 1556.27 -4.7172 1.40502 0
M  V30 16232 N 1557.92 -0.68059 -1.42147 0
M  V30 16233 C 1559.15 -0.213839 -2.05792 0
M  V30 16234 C 1559.56 1.13123 -1.51158 0
M  V30 16235 O 1558.92 1.7039 -0.653708 0
M  V30 16236 C 1558.97 -0.146507 -3.61203 0
M  V30 16237 O 1558.69 -1.43843 -4.13813 0
M  V30 16238 C 1560.19 0.343043 -4.41971 0
M  V30 16239 H 1557.41 -0.10262 -0.663106 0
M  V30 16240 H 1559.95 -0.928957 -1.82183 0
M  V30 16241 H 1558.11 0.519335 -3.83903 0
M  V30 16242 H 1558.52 -1.31561 -5.07732 0
M  V30 16243 H 1560 0.339053 -5.50958 0
M  V30 16244 H 1560.47 1.37933 -4.16979 0
M  V30 16245 H 1561.08 -0.291267 -4.24301 0
M  V30 16246 N 1559.4 1.51781 -0.424309 0
M  V30 16247 C 1560.64 2.02269 0.146709 0
M  V30 16248 C 1560.97 1.30859 1.4349 0
M  V30 16249 O 1560.25 0.419504 1.89922 0
M  V30 16250 C 1560.53 3.58101 0.378861 0
M  V30 16251 C 1560.39 4.40143 -0.92707 0
M  V30 16252 C 1561.7 4.2469 1.15438 0
M  V30 16253 H 1558.82 0.735174 0.0518456 0
M  V30 16254 H 1561.47 1.81537 -0.560753 0
M  V30 16255 H 1559.62 3.75897 0.981496 0
M  V30 16256 H 1561.29 4.34025 -1.56268 0
M  V30 16257 H 1559.53 4.05748 -1.53464 0
M  V30 16258 H 1560.2 5.47299 -0.718837 0
M  V30 16259 H 1562.68 4.11086 0.644041 0
M  V30 16260 H 1561.55 5.33633 1.28557 0
M  V30 16261 H 1561.81 3.84668 2.17905 0
M  V30 16262 N 1560.87 0.155222 1.56834 0
M  V30 16263 C 1562.1 -0.500542 2.00754 0
M  V30 16264 C 1562.52 -1.57878 1.03538 0
M  V30 16265 O 1561.87 -1.82469 0.0336651 0
M  V30 16266 C 1561.92 -1.09366 3.4456 0
M  V30 16267 O 1561.65 -0.0584788 4.38061 0
M  V30 16268 C 1563.15 -1.82923 4.038 0
M  V30 16269 H 1560.37 -0.129589 0.658368 0
M  V30 16270 H 1562.91 0.252223 2.02939 0
M  V30 16271 H 1561.07 -1.797 3.43201 0
M  V30 16272 H 1561.48 -0.494125 5.22167 0
M  V30 16273 H 1562.95 -2.19703 5.06394 0
M  V30 16274 H 1563.43 -2.71823 3.44976 0
M  V30 16275 H 1564.04 -1.17268 4.08813 0
M  V30 16276 N 1562.35 -1.57153 -0.118549 0
M  V30 16277 C 1563.31 -1.99438 -1.12947 0
M  V30 16278 C 1564.31 -0.884588 -1.34282 0
M  V30 16279 O 1565.5 -1.15062 -1.30792 0
M  V30 16280 C 1562.64 -2.33492 -2.48384 0
M  V30 16281 H 1563.83 -2.89952 -0.766034 0
M  V30 16282 H 1561.38 -1.5203 -0.362858 0
M  V30 16283 H 1562.12 -1.45859 -2.89647 0
M  V30 16284 H 1561.9 -3.14433 -2.34252 0
M  V30 16285 H 1563.39 -2.66945 -3.21139 0
M  V30 16286 N 1563.83 0.388742 -1.5273 0
M  V30 16287 C 1564.76 1.49653 -1.72277 0
M  V30 16288 C 1565.74 1.52259 -0.570606 0
M  V30 16289 O 1566.92 1.70661 -0.80044 0
M  V30 16290 C 1564.05 2.88118 -1.78061 0
M  V30 16291 C 1563.1 3.03336 -2.99815 0
M  V30 16292 S 1563.93 2.74509 -4.59788 0
M  V30 16293 C 1565.09 4.15167 -4.68388 0
M  V30 16294 H 1565.32 1.32847 -2.65968 0
M  V30 16295 H 1562.85 0.581632 -1.43026 0
M  V30 16296 H 1564.81 3.6791 -1.82079 0
M  V30 16297 H 1563.47 3.0225 -0.854623 0
M  V30 16298 H 1562.66 4.04689 -3.00404 0
M  V30 16299 H 1562.27 2.31438 -2.9379 0
M  V30 16300 H 1564.56 5.09098 -4.47018 0
M  V30 16301 H 1565.5 4.19593 -5.70392 0
M  V30 16302 H 1565.91 4.01088 -3.97226 0
M  V30 16303 N 1565.31 1.43698 0.647203 0
M  V30 16304 C 1566.27 1.48986 1.74172 0
M  V30 16305 C 1567.27 0.373812 1.56395 0
M  V30 16306 O 1568.46 0.635804 1.62183 0
M  V30 16307 C 1565.59 1.34827 3.13104 0
M  V30 16308 H 1566.79 2.46467 1.70863 0
M  V30 16309 H 1564.34 1.30552 0.859409 0
M  V30 16310 H 1565.07 0.383772 3.22021 0
M  V30 16311 H 1564.86 2.15738 3.27414 0
M  V30 16312 H 1566.35 1.41473 3.92906 0
M  V30 16313 N 1566.79 -0.886131 1.30328 0
M  V30 16314 C 1568.01 -1.67625 1.22134 0
M  V30 16315 C 1568.44 -1.86893 -0.212712 0
M  V30 16316 O 1567.79 -1.39905 -1.1531 0
M  V30 16317 C 1567.84 -3.03068 1.95402 0
M  V30 16318 O 1566.95 -3.92022 1.28032 0
M  V30 16319 H 1566.29 -0.512246 0.422493 0
M  V30 16320 H 1568.82 -1.10602 1.72129 0
M  V30 16321 H 1568.83 -3.53119 2.04379 0
M  V30 16322 H 1567.5 -2.88363 2.99699 0
M  V30 16323 H 1566.08 -3.50461 1.27402 0
M  V30 16324 N 1568.26 -1.13026 -1.09832 0
M  V30 16325 C 1569.19 -0.826338 -2.18389 0
M  V30 16326 C 1570.18 0.212529 -1.68767 0
M  V30 16327 O 1571.36 0.072363 -1.94065 0
M  V30 16328 C 1568.49 -0.286991 -3.46112 0
M  V30 16329 C 1567.44 -1.25963 -4.09044 0
M  V30 16330 C 1566.77 -0.580231 -5.31542 0
M  V30 16331 C 1568.07 -2.61661 -4.5203 0
M  V30 16332 H 1569.76 -1.73408 -2.4407 0
M  V30 16333 H 1567.31 -0.835201 -1.17305 0
M  V30 16334 H 1569.26 -0.062067 -4.21354 0
M  V30 16335 H 1567.99 0.656121 -3.19942 0
M  V30 16336 H 1566.65 -1.47047 -3.35816 0
M  V30 16337 H 1566.29 0.368222 -5.0165 0
M  V30 16338 H 1565.99 -1.2291 -5.74601 0
M  V30 16339 H 1567.52 -0.36449 -6.09511 0
M  V30 16340 H 1568.93 -2.44569 -5.18516 0
M  V30 16341 H 1567.33 -3.22685 -5.05959 0
M  V30 16342 H 1568.4 -3.19637 -3.64637 0
M  V30 16343 N 1569.74 1.27735 -0.923117 0
M  V30 16344 C 1570.97 1.9922 -0.57672 0
M  V30 16345 C 1571.39 1.68446 0.837113 0
M  V30 16346 O 1570.75 0.922129 1.56098 0
M  V30 16347 C 1570.8 3.51528 -0.803768 0
M  V30 16348 O 1569.9 4.12186 0.132829 0
M  V30 16349 H 1569.24 0.625593 -0.222553 0
M  V30 16350 H 1571.77 1.62657 -1.24112 0
M  V30 16351 H 1571.78 4.01641 -0.717534 0
M  V30 16352 H 1570.46 3.7326 -1.83439 0
M  V30 16353 H 1569.04 3.729 -0.00292957 0
M  V30 16354 N 1571.22 0.688118 1.41784 0
M  V30 16355 C 1572.47 0.216263 2.01644 0
M  V30 16356 C 1572.8 -1.17861 1.54345 0
M  V30 16357 O 1572.07 -1.794 0.751392 0
M  V30 16358 C 1572.36 0.265663 3.59119 0
M  V30 16359 C 1572.21 1.69694 4.16562 0
M  V30 16360 C 1573.53 -0.378713 4.38468 0
M  V30 16361 H 1570.65 0.0800582 0.732639 0
M  V30 16362 H 1573.29 0.875428 1.68631 0
M  V30 16363 H 1571.44 -0.295588 3.87374 0
M  V30 16364 H 1573.11 2.31146 3.9921 0
M  V30 16365 H 1571.36 2.23345 3.71886 0
M  V30 16366 H 1572.03 1.68309 5.25715 0
M  V30 16367 H 1574.5 0.0991969 4.15982 0
M  V30 16368 H 1573.38 -0.31357 5.48004 0
M  V30 16369 H 1573.64 -1.45832 4.17355 0
M  V30 16370 N 1572.7 -1.51554 0.432352 0
M  V30 16371 C 1573.95 -2.01645 -0.135511 0
M  V30 16372 C 1574.27 -1.31874 -1.43647 0
M  V30 16373 O 1573.54 -0.451746 -1.9062 0
M  V30 16374 H 1572.12 -0.745113 -0.0530683 0
M  V30 16375 H 1574.78 -1.86258 0.573917 0
M  V30 16376 H 1573.88 -3.10506 -0.315001 0
M  V30 16377 N 1574.18 -0.163538 -1.56749 0
M  V30 16378 C 1575.42 0.48412 -1.96937 0
M  V30 16379 C 1575.76 1.63418 -1.04919 0
M  V30 16380 O 1575.03 1.94269 -0.094783 0
M  V30 16381 C 1575.31 0.974532 -3.46663 0
M  V30 16382 C 1575.17 -0.175173 -4.49459 0
M  V30 16383 C 1576.49 1.85082 -3.9929 0
M  V30 16384 H 1573.6 0.174503 -0.716043 0
M  V30 16385 H 1576.25 -0.248103 -1.88373 0
M  V30 16386 H 1574.4 1.59849 -3.54091 0
M  V30 16387 H 1576.07 -0.812038 -4.54096 0
M  V30 16388 H 1574.31 -0.831853 -4.2575 0
M  V30 16389 H 1574.98 0.20996 -5.51601 0
M  V30 16390 H 1577.46 1.32488 -3.94444 0
M  V30 16391 H 1576.33 2.163 -5.04485 0
M  V30 16392 H 1576.6 2.79378 -3.42638 0
M  V30 16393 N 1575.65 1.57214 0.110213 0
M  V30 16394 C 1576.6 2.00978 1.13474 0
M  V30 16395 C 1577.57 0.883436 1.40658 0
M  V30 16396 O 1578.76 1.14832 1.52376 0
M  V30 16397 C 1575.9 2.42654 2.45383 0
M  V30 16398 C 1575.01 3.68744 2.2506 0
M  V30 16399 C 1574.14 3.99363 3.50261 0
M  V30 16400 C 1573.18 5.18608 3.25133 0
M  V30 16401 N 1572.32 5.45055 4.42561 0
M  V30 16402 H 1577.16 2.88289 0.754543 0
M  V30 16403 H 1574.7 1.426 0.361064 0
M  V30 16404 H 1576.66 2.64857 3.22345 0
M  V30 16405 H 1575.29 1.58374 2.81278 0
M  V30 16406 H 1574.34 3.54106 1.38972 0
M  V30 16407 H 1575.65 4.55857 2.02475 0
M  V30 16408 H 1574.8 4.22261 4.35638 0
M  V30 16409 H 1573.54 3.10743 3.75886 0
M  V30 16410 H 1572.55 4.95546 2.38148 0
M  V30 16411 H 1573.77 6.08814 3.0087 0
M  V30 16412 H 1571.72 4.59392 4.6829 0
M  V30 16413 H 1571.64 6.26508 4.23111 0
M  V30 16414 H 1572.9 5.72478 5.29046 0
M  V30 16415 N 1577.13 -0.380637 1.52934 0
M  V30 16416 C 1578.54 -0.958182 1.60237 0
M  V30 16417 C 1578.89 -1.90722 0.460393 0
M  V30 16418 O 1578.02 -2.12376 -0.415354 0
M  V30 16419 C 1578.61 -1.7446 2.90429 0
M  V30 16420 C 1577.17 -2.27172 3.00116 0
M  V30 16421 C 1576.32 -1.07969 2.55417 0
M  V30 16422 H 1579.27 -0.159908 1.57892 0
M  V30 16423 H 1579.29 -2.60456 2.77385 0
M  V30 16424 H 1578.8 -1.05362 3.73524 0
M  V30 16425 H 1576.91 -2.99557 2.21577 0
M  V30 16426 H 1577.02 -2.56086 4.04916 0
M  V30 16427 H 1575.38 -1.4422 2.09935 0
M  V30 16428 H 1576.17 -0.403925 3.40915 0
M  V30 16429 N 1578.61 -1.44039 -0.639573 0
M  V30 16430 C 1579.57 -1.49907 -1.7338 0
M  V30 16431 C 1580.57 -0.382101 -1.56194 0
M  V30 16432 O 1581.76 -0.644396 -1.61843 0
M  V30 16433 C 1578.9 -1.36486 -3.12385 0
M  V30 16434 H 1580.09 -2.4737 -1.69553 0
M  V30 16435 H 1577.64 -1.31006 -0.852474 0
M  V30 16436 H 1578.38 -0.400845 -3.21813 0
M  V30 16437 H 1578.16 -2.17471 -3.26265 0
M  V30 16438 H 1579.65 -1.43555 -3.9215 0
M  V30 16439 N 1580.09 0.879207 -1.30796 0
M  V30 16440 C 1581 2.01822 -1.19604 0
M  V30 16441 C 1582.01 1.73621 -0.114715 0
M  V30 16442 O 1583.19 1.98665 -0.330757 0
M  V30 16443 C 1580.26 3.3496 -0.894569 0
M  V30 16444 C 1579.32 3.76545 -2.06185 0
M  V30 16445 C 1578.55 5.0333 -1.77467 0
M  V30 16446 O 1578.77 5.66022 -0.70535 0
M  V30 16447 O 1577.71 5.41461 -2.62876 0
M  V30 16448 H 1581.53 2.14194 -2.15301 0
M  V30 16449 H 1579.12 1.00608 -1.10446 0
M  V30 16450 H 1581 4.14818 -0.741891 0
M  V30 16451 H 1579.67 3.23684 0.0324464 0
M  V30 16452 H 1578.58 2.97367 -2.26988 0
M  V30 16453 H 1579.91 3.92434 -2.97079 0
M  V30 16454 N 1581.57 1.13606 1.09231 0
M  V30 16455 C 1582.51 0.815279 2.15921 0
M  V30 16456 C 1583.48 -0.223501 1.64589 0
M  V30 16457 O 1584.67 -0.0952982 1.90562 0
M  V30 16458 C 1581.81 0.289655 3.43882 0
M  V30 16459 C 1580.92 1.38773 4.09104 0
M  V30 16460 C 1580.06 0.820238 5.24829 0
M  V30 16461 C 1579.1 1.89658 5.81976 0
M  V30 16462 N 1578.23 1.34688 6.8906 0
M  V30 16463 H 1583.07 1.72914 2.42703 0
M  V30 16464 H 1580.61 0.863101 1.19117 0
M  V30 16465 H 1582.57 -0.0332398 4.17187 0
M  V30 16466 H 1581.2 -0.587329 3.17412 0
M  V30 16467 H 1580.25 1.82718 3.33644 0
M  V30 16468 H 1581.56 2.20114 4.47606 0
M  V30 16469 H 1580.72 0.448745 6.05038 0
M  V30 16470 H 1579.46 -0.0242261 4.87694 0
M  V30 16471 H 1578.46 2.27712 5.00427 0
M  V30 16472 H 1579.69 2.74448 6.21172 0
M  V30 16473 H 1577.63 0.524453 6.539 0
M  V30 16474 H 1577.55 2.09675 7.26342 0
M  V30 16475 H 1578.82 1.00302 7.7302 0
M  V30 16476 N 1583.05 -1.27244 0.929878 0
M  V30 16477 C 1584.46 -1.4662 0.630451 0
M  V30 16478 C 1584.66 -1.84077 -0.819633 0
M  V30 16479 O 1583.72 -1.95555 -1.59733 0
M  V30 16480 C 1585.03 -2.55709 1.58219 0
M  V30 16481 C 1586.58 -2.69569 1.59065 0
M  V30 16482 C 1587.05 -3.81818 2.52941 0
M  V30 16483 N 1588.54 -3.89195 2.51161 0
M  V30 16484 C 1589.28 -4.75474 3.20488 0
M  V30 16485 N 1588.78 -5.66225 3.99201 0
M  V30 16486 N 1590.57 -4.69222 3.09495 0
M  V30 16487 H 1582.72 -1.01216 1.86733 0
M  V30 16488 H 1584.98 -0.505737 0.801832 0
M  V30 16489 H 1584.69 -2.34985 2.61677 0
M  V30 16490 H 1584.56 -3.53141 1.32556 0
M  V30 16491 H 1586.95 -2.89672 0.563375 0
M  V30 16492 H 1587.03 -1.72616 1.88778 0
M  V30 16493 H 1586.67 -3.62467 3.55781 0
M  V30 16494 H 1586.6 -4.78202 2.20524 0
M  V30 16495 H 1589.1 -3.24305 1.93997 0
M  V30 16496 H 1589.41 -6.28925 4.4908 0
M  V30 16497 H 1587.75 -5.66013 4.03304 0
M  V30 16498 H 1590.94 -3.97322 2.47493 0
M  V30 16499 H 1591.12 -5.36244 3.63794 0
M  V30 16500 N 1584.52 -0.695628 -1.41417 0
M  V30 16501 C 1585.93 -0.3014 -1.84251 0
M  V30 16502 C 1586.29 1.16042 -1.58204 0
M  V30 16503 O 1585.41 1.89079 -1.05253 0
M  V30 16504 C 1586.01 -0.540256 -3.34465 0
M  V30 16505 C 1584.56 -0.199944 -3.75869 0
M  V30 16506 C 1583.71 -0.822511 -2.64821 0
M  V30 16507 H 1586.66 -0.896278 -1.30968 0
M  V30 16508 H 1586.68 0.201019 -3.79969 0
M  V30 16509 H 1586.2 -1.60427 -3.53391 0
M  V30 16510 H 1584.3 0.859798 -3.62544 0
M  V30 16511 H 1584.41 -0.655005 -4.74601 0
M  V30 16512 H 1582.77 -0.252109 -2.53449 0
M  V30 16513 H 1583.56 -1.89039 -2.86564 0
M  V30 16514 N 1586 1.51322 -0.440383 0
M  V30 16515 C 1587.28 1.94722 0.185148 0
M  V30 16516 C 1587.66 1.37922 1.59815 0
M  V30 16517 O 1587.01 0.567527 2.2134 0
M  V30 16518 C 1587.22 3.48634 0.159781 0
M  V30 16519 C 1588.56 4.23038 0.363853 0
M  V30 16520 O 1589.59 3.55406 0.237759 0
M  V30 16521 O 1588.45 5.43027 0.615137 0
M  V30 16522 H 1585.54 0.816983 0.128325 0
M  V30 16523 H 1588.09 1.62211 -0.498581 0
M  V30 16524 H 1586.86 3.8244 -0.827952 0
M  V30 16525 H 1586.48 3.87596 0.88629 0
M  V30 16526 N 1587.48 0.171848 1.5666 0
M  V30 16527 C 1588.39 -0.770721 2.21579 0
M  V30 16528 C 1589.41 -1.25273 1.20759 0
M  V30 16529 O 1590.58 -1.30474 1.53422 0
M  V30 16530 C 1587.65 -1.98256 2.84422 0
M  V30 16531 C 1586.71 -1.54738 4.00443 0
M  V30 16532 C 1585.94 -2.70145 4.6028 0
M  V30 16533 O 1586.16 -3.87026 4.19007 0
M  V30 16534 O 1585.1 -2.44189 5.50141 0
M  V30 16535 H 1588.92 -0.247974 3.02686 0
M  V30 16536 H 1586.51 -0.0563734 1.49294 0
M  V30 16537 H 1588.39 -2.69127 3.24266 0
M  V30 16538 H 1587.07 -2.49435 2.0631 0
M  V30 16539 H 1585.97 -0.808152 3.65267 0
M  V30 16540 H 1587.31 -1.08249 4.80149 0
M  V30 16541 N 1588.96 -1.5727 -0.101874 0
M  V30 16542 C 1589.87 -2.04896 -1.14257 0
M  V30 16543 C 1590.88 -0.972561 -1.44282 0
M  V30 16544 O 1592.06 -1.28526 -1.55058 0
M  V30 16545 C 1589.12 -2.45818 -2.44488 0
M  V30 16546 C 1588.19 -3.6762 -2.21707 0
M  V30 16547 C 1587.42 -4.06581 -3.45728 0
M  V30 16548 O 1587.64 -3.45702 -4.53703 0
M  V30 16549 O 1586.58 -4.99578 -3.35716 0
M  V30 16550 H 1590.4 -2.93827 -0.768085 0
M  V30 16551 H 1587.99 -1.46065 -0.313902 0
M  V30 16552 H 1589.87 -2.72796 -3.21186 0
M  V30 16553 H 1588.54 -1.60028 -2.81377 0
M  V30 16554 H 1587.45 -3.45768 -1.42812 0
M  V30 16555 H 1588.78 -4.54169 -1.89714 0
M  V30 16556 N 1590.44 0.372521 -1.53134 0
M  V30 16557 C 1591.85 0.949671 -1.60742 0
M  V30 16558 C 1592.2 1.90475 -0.470501 0
M  V30 16559 O 1591.32 2.12594 0.404085 0
M  V30 16560 C 1591.92 1.72918 -2.9135 0
M  V30 16561 C 1590.48 2.25577 -3.01317 0
M  V30 16562 C 1589.62 1.06612 -2.55986 0
M  V30 16563 H 1592.57 0.151533 -1.57975 0
M  V30 16564 H 1592.6 2.58982 -2.78763 0
M  V30 16565 H 1592.11 1.0338 -3.74078 0
M  V30 16566 H 1590.21 2.98378 -2.23162 0
M  V30 16567 H 1590.32 2.53935 -4.06268 0
M  V30 16568 H 1588.69 1.43105 -2.10697 0
M  V30 16569 H 1589.47 0.38584 -3.41125 0
M  V30 16570 N 1591.91 1.44376 0.631925 0
M  V30 16571 C 1592.85 1.45649 1.75675 0
M  V30 16572 C 1593.82 0.31542 1.59511 0
M  V30 16573 O 1595.01 0.512271 1.81406 0
M  V30 16574 C 1592.14 1.2884 3.13238 0
M  V30 16575 C 1591.18 2.46499 3.48053 0
M  V30 16576 S 1592.01 4.0903 3.45622 0
M  V30 16577 C 1593.17 3.94643 4.85807 0
M  V30 16578 H 1593.4 2.40825 1.74328 0
M  V30 16579 H 1590.94 1.31664 0.806467 0
M  V30 16580 H 1592.89 1.19829 3.92621 0
M  V30 16581 H 1591.56 0.351754 3.12124 0
M  V30 16582 H 1590.75 2.30599 4.48152 0
M  V30 16583 H 1590.35 2.52245 2.76131 0
M  V30 16584 H 1592.64 3.58283 5.75012 0
M  V30 16585 H 1593.59 4.94569 5.06761 0
M  V30 16586 H 1593.99 3.26717 4.60343 0
M  V30 16587 N 1593.39 -0.872258 1.31261 0
M  V30 16588 C 1594.3 -2.01185 1.20673 0
M  V30 16589 C 1595.32 -1.73558 0.123921 0
M  V30 16590 O 1596.49 -1.98487 0.341288 0
M  V30 16591 C 1593.56 -3.34481 0.91232 0
M  V30 16592 C 1592.62 -3.75446 2.08179 0
M  V30 16593 C 1591.85 -5.02382 1.80134 0
M  V30 16594 O 1592.08 -5.6564 0.735358 0
M  V30 16595 O 1591.01 -5.40059 2.65744 0
M  V30 16596 H 1594.84 -2.13049 2.16434 0
M  V30 16597 H 1592.42 -1.00021 1.10978 0
M  V30 16598 H 1594.3 -4.14419 0.763879 0
M  V30 16599 H 1592.98 -3.23696 -0.0152802 0
M  V30 16600 H 1591.88 -2.96159 2.28562 0
M  V30 16601 H 1593.22 -3.90853 2.99156 0
M  V30 16602 N 1594.87 -1.14184 -1.08627 0
M  V30 16603 C 1595.78 -0.84033 -2.19033 0
M  V30 16604 C 1596.8 0.178322 -1.73084 0
M  V30 16605 O 1597.97 0.00737963 -2.01399 0
M  V30 16606 C 1595.04 -0.319674 -3.45223 0
M  V30 16607 C 1594.1 -1.4006 -4.0581 0
M  V30 16608 C 1593.33 -0.904693 -5.25976 0
M  V30 16609 O 1593.55 0.25468 -5.69831 0
M  V30 16610 O 1592.49 -1.68267 -5.77901 0
M  V30 16611 H 1596.31 -1.76296 -2.47292 0
M  V30 16612 H 1593.9 -0.919929 -1.17719 0
M  V30 16613 H 1595.78 -0.0351268 -4.21385 0
M  V30 16614 H 1594.46 0.575264 -3.18547 0
M  V30 16615 H 1593.36 -1.73858 -3.31247 0
M  V30 16616 H 1594.7 -2.26998 -4.3673 0
M  V30 16617 N 1596.35 1.26749 -0.936613 0
M  V30 16618 C 1597.26 2.30272 -0.448573 0
M  V30 16619 C 1598.27 1.67386 0.475184 0
M  V30 16620 O 1599.45 1.98232 0.355825 0
M  V30 16621 C 1596.52 3.45546 0.28262 0
M  V30 16622 C 1595.58 4.23926 -0.677138 0
M  V30 16623 C 1594.81 5.33697 0.019255 0
M  V30 16624 O 1595.03 5.56825 1.23703 0
M  V30 16625 O 1593.97 5.98302 -0.657119 0
M  V30 16626 H 1597.79 2.74072 -1.30838 0
M  V30 16627 H 1595.38 1.31863 -0.702314 0
M  V30 16628 H 1597.26 4.15635 0.694686 0
M  V30 16629 H 1595.93 3.03784 1.11789 0
M  V30 16630 H 1594.84 3.56337 -1.13906 0
M  V30 16631 H 1596.17 4.69425 -1.47988 0
M  V30 16632 N 1597.83 0.703118 1.41046 0
M  V30 16633 C 1599.24 0.311167 1.84089 0
M  V30 16634 C 1599.59 -1.15202 1.58818 0
M  V30 16635 O 1598.71 -1.88518 1.06254 0
M  V30 16636 C 1599.31 0.557986 3.34174 0
M  V30 16637 C 1597.87 0.219875 3.75757 0
M  V30 16638 C 1597.01 0.836543 2.64381 0
M  V30 16639 H 1599.97 0.903211 1.30491 0
M  V30 16640 H 1599.99 -0.180865 3.8007 0
M  V30 16641 H 1599.5 1.62298 3.52535 0
M  V30 16642 H 1597.6 -0.840559 3.62995 0
M  V30 16643 H 1597.71 0.680165 4.74247 0
M  V30 16644 H 1596.08 0.265547 2.53312 0
M  V30 16645 H 1596.86 1.90556 2.85558 0
M  V30 16646 N 1599.3 -1.51086 0.448402 0
M  V30 16647 C 1600.72 -1.86696 -0.0121264 0
M  V30 16648 C 1601.07 -1.36483 -1.40949 0
M  V30 16649 O 1600.19 -0.72024 -2.04062 0
M  V30 16650 C 1600.79 -3.38788 -0.0287814 0
M  V30 16651 C 1599.35 -3.73892 -0.433758 0
M  V30 16652 C 1598.49 -2.74869 0.366362 0
M  V30 16653 H 1601.44 -1.44153 0.663744 0
M  V30 16654 H 1601.46 -3.71204 -0.835915 0
M  V30 16655 H 1600.98 -3.75304 0.988368 0
M  V30 16656 H 1599.08 -3.4297 -1.4561 0
M  V30 16657 H 1599.19 -4.78862 -0.150869 0
M  V30 16658 H 1597.55 -2.54085 -0.176862 0
M  V30 16659 H 1598.34 -3.14228 1.3826 0
M  V30 16660 N 1600.78 -0.180154 -1.56567 0
M  V30 16661 C 1601.71 0.742131 -2.21393 0
M  V30 16662 C 1602.69 1.23253 -1.1723 0
M  V30 16663 O 1603.88 1.28408 -1.45688 0
M  V30 16664 C 1601.01 1.96799 -2.8616 0
M  V30 16665 C 1599.96 1.6131 -3.96438 0
M  V30 16666 C 1599.29 2.91434 -4.48297 0
M  V30 16667 C 1600.59 0.834382 -5.15592 0
M  V30 16668 H 1602.28 0.201759 -2.98719 0
M  V30 16669 H 1599.83 0.0956016 -1.43682 0
M  V30 16670 H 1601.78 2.61828 -3.30188 0
M  V30 16671 H 1600.51 2.53264 -2.06215 0
M  V30 16672 H 1599.16 0.986451 -3.53079 0
M  V30 16673 H 1598.81 3.45958 -3.65133 0
M  V30 16674 H 1598.51 2.68439 -5.22699 0
M  V30 16675 H 1600.04 3.57478 -4.95017 0
M  V30 16676 H 1601.45 1.38745 -5.56258 0
M  V30 16677 H 1599.85 0.703132 -5.95966 0
M  V30 16678 H 1600.92 -0.167554 -4.8461 0
M  V30 16679 O 1602.3 1.61444 -0.0425624 0
M  V30 16680 H 1602.99 1.85183 0.568059 0
M  V30 END ATOM
M  V30 BEGIN BOND
M  V30 END BOND
M  V30 END CTAB
M  END
$$$$
