drugbank_target|P56653 4-hydroxybenzoyl-CoA thioesterase (DB01652; DB03613; DB04067)
 OpenBabel12092120223D

  0  0  0     0  0            999 V3000
M  V30 BEGIN CTAB
M  V30 COUNTS 2238 2264 0 0 0
M  V30 BEGIN ATOM
M  V30 1 H -0.908 1.98254 -0.117106 0
M  V30 2 N 0 1.576 0 0
M  V30 3 C 0.933 2.03868 1.02534 0
M  V30 4 C 1.911 0.928543 1.3348 0
M  V30 5 O 3.095 1.19667 1.45644 0
M  V30 6 C 0.222 2.43627 2.35294 0
M  V30 7 C -0.732 3.65373 2.2001 0
M  V30 8 S 0.101 5.13292 1.52614 0
M  V30 9 C 1.257 5.56322 2.86805 0
M  V30 10 H 1.49 2.90518 0.631377 0
M  V30 11 H -0.977 1.52953 0.210867 0
M  V30 12 H 0.981 2.67203 3.11629 0
M  V30 13 H -0.358 1.57376 2.7183 0
M  V30 14 H -1.165 3.90944 3.18086 0
M  V30 15 H -1.563 3.418 1.51819 0
M  V30 16 H 0.729 5.58782 3.83104 0
M  V30 17 H 1.672 6.56266 2.65933 0
M  V30 18 H 2.08 4.83886 2.90714 0
M  V30 19 N 1.4781 -0.272755 1.55222 0
M  V30 20 C 2.4411 -1.32041 1.87344 0
M  V30 21 C 3.4411 -1.42342 0.74803 0
M  V30 22 O 4.6311 -1.41488 1.0162 0
M  V30 23 C 1.7631 -2.70173 2.07893 0
M  V30 24 H 2.9561 -1.04789 2.80997 0
M  V30 25 H 0.5091 -0.51083 1.47717 0
M  V30 26 H 1.2441 -3.02605 1.16622 0
M  V30 27 H 1.0291 -2.64082 2.89833 0
M  V30 28 H 2.5191 -3.45869 2.34017 0
M  V30 29 N 2.9562 -1.48159 -0.537278 0
M  V30 30 C 4.3722 -1.34118 -0.865129 0
M  V30 31 C 4.5722 -0.346678 -1.98495 0
M  V30 32 O 3.6282 0.234715 -2.51407 0
M  V30 33 C 4.9412 -2.73963 -1.23954 0
M  V30 34 C 6.4892 -2.82397 -1.34984 0
M  V30 35 C 6.9642 -4.22928 -1.75772 0
M  V30 36 N 8.4552 -4.25566 -1.82887 0
M  V30 37 C 9.1902 -5.31235 -2.15817 0
M  V30 38 N 8.6862 -6.47189 -2.47222 0
M  V30 39 N 10.4792 -5.18624 -2.16761 0
M  V30 40 H 2.6302 -2.1144 0.201715 0
M  V30 41 H 4.8932 -0.947598 0.0275949 0
M  V30 42 H 4.5992 -3.48264 -0.490381 0
M  V30 43 H 4.4732 -3.0702 -2.19132 0
M  V30 44 H 6.8602 -2.08356 -2.08978 0
M  V30 45 H 6.9412 -2.5297 -0.379448 0
M  V30 46 H 6.5852 -4.97482 -1.02341 0
M  V30 47 H 6.5152 -4.49794 -2.73848 0
M  V30 48 H 9.0062 -3.41924 -1.60924 0
M  V30 49 H 9.3192 -7.23564 -2.71433 0
M  V30 50 H 7.6642 -6.50476 -2.44757 0
M  V30 51 H 10.8552 -4.27056 -1.91679 0
M  V30 52 H 11.0282 -6.01078 -2.42093 0
M  V30 53 N 4.4343 0.785586 -1.36625 0
M  V30 54 C 5.6593 1.57963 -1.34397 0
M  V30 55 C 6.0843 1.87964 0.071526 0
M  V30 56 O 5.4423 1.48182 1.0446 0
M  V30 57 C 5.4903 2.87511 -2.17646 0
M  V30 58 O 4.5943 3.81281 -1.57158 0
M  V30 59 H 3.9353 0.479014 -0.459828 0
M  V30 60 H 6.4653 0.973411 -1.79961 0
M  V30 61 H 6.4753 3.36745 -2.30362 0
M  V30 62 H 5.1503 2.65002 -3.20541 0
M  V30 63 H 3.7273 3.39885 -1.53403 0
M  V30 64 N 5.9124 1.20967 1.01018 0
M  V30 65 C 7.1614 1.01796 1.74128 0
M  V30 66 C 7.4744 -0.449691 1.90361 0
M  V30 67 O 8.6804 -0.76068 2.60626 0
M  V30 68 C 7.1364 1.7727 3.13215 0
M  V30 69 C 6.7444 3.28171 3.04972 0
M  V30 70 C 8.4884 1.66489 3.90489 0
M  V30 71 C 6.3954 3.96156 4.39107 0
M  V30 72 H 5.3254 0.377276 0.652824 0
M  V30 73 H 7.9764 1.44651 1.12909 0
M  V30 74 H 6.3584 1.27205 3.75013 0
M  V30 75 H 7.5324 3.85499 2.52443 0
M  V30 76 H 5.8474 3.39437 2.41188 0
M  V30 77 H 8.4444 2.14617 4.89738 0
M  V30 78 H 8.7874 0.6222 4.11624 0
M  V30 79 H 9.3204 2.14003 3.35332 0
M  V30 80 H 6.0594 5.00604 4.23174 0
M  V30 81 H 5.5794 3.43617 4.91617 0
M  V30 82 H 7.2584 4.00774 5.07926 0
M  V30 83 N 7.3905 -1.2043 1.01659 0
M  V30 84 C 8.6185 -1.93777 0.725132 0
M  V30 85 C 9.0335 -1.74772 -0.714166 0
M  V30 86 O 8.3905 -1.06169 -1.4844 0
M  V30 87 C 8.4415 -3.45876 1.05129 0
M  V30 88 O 8.1625 -3.6426 2.43406 0
M  V30 89 C 9.6635 -4.36368 0.780891 0
M  V30 90 H 6.8835 -0.615901 0.266284 0
M  V30 91 H 9.4275 -1.52922 1.35776 0
M  V30 92 H 7.5825 -3.8461 0.464065 0
M  V30 93 H 7.9965 -4.58246 2.55169 0
M  V30 94 H 9.4705 -5.41743 1.05918 0
M  V30 95 H 9.9475 -4.38275 -0.284937 0
M  V30 96 H 10.5535 -4.03296 1.35027 0
M  V30 97 N 8.8686 -0.792821 -1.36206 0
M  V30 98 C 9.8016 -0.139422 -2.27774 0
M  V30 99 C 10.7796 0.68649 -1.47398 0
M  V30 100 O 11.9636 0.656738 -1.7669 0
M  V30 101 C 9.0906 0.807947 -3.28922 0
M  V30 102 C 8.1366 0.0633999 -4.26453 0
M  V30 103 S 8.9696 -1.26319 -5.20388 0
M  V30 104 C 10.1256 -0.31991 -6.25082 0
M  V30 105 H 10.3586 -0.915809 -2.82843 0
M  V30 106 H 7.8916 -0.587203 -1.42798 0
M  V30 107 H 9.8496 1.34908 -3.87699 0
M  V30 108 H 8.5106 1.55761 -2.72759 0
M  V30 109 H 7.7036 0.782386 -4.9789 0
M  V30 110 H 7.3056 -0.407352 -3.71775 0
M  V30 111 H 9.5976 0.499985 -6.75653 0
M  V30 112 H 10.5406 -1.00307 -7.00959 0
M  V30 113 H 10.9486 0.0782694 -5.64446 0
M  V30 114 N 10.3467 1.47872 -0.545128 0
M  V30 115 C 11.2787 2.27869 0.246621 0
M  V30 116 C 12.2917 1.36282 0.890561 0
M  V30 117 O 13.4807 1.61207 0.766449 0
M  V30 118 C 10.5807 3.10159 1.36582 0
M  V30 119 C 9.7537 4.29627 0.820954 0
M  V30 120 C 8.8127 4.93607 1.82314 0
M  V30 121 O 7.8387 5.52366 1.37406 0
M  V30 122 N 9.0407 4.87211 3.15603 0
M  V30 123 H 11.8057 2.96459 -0.439539 0
M  V30 124 H 9.3667 1.57367 -0.380421 0
M  V30 125 H 11.3587 3.49829 2.03474 0
M  V30 126 H 9.9287 2.43891 1.9554 0
M  V30 127 H 9.1487 3.94192 -0.0244032 0
M  V30 128 H 10.4367 5.06928 0.436063 0
M  V30 129 H 9.8347 4.40651 3.54744 0
M  V30 130 H 8.3917 5.30937 3.78087 0
M  V30 131 N 11.8248 0.280983 1.55075 0
M  V30 132 C 12.7568 -0.637268 2.20163 0
M  V30 133 C 13.7698 -1.11298 1.18813 0
M  V30 134 O 14.9588 -1.03388 1.4551 0
M  V30 135 C 12.0588 -1.88199 2.81841 0
M  V30 136 C 11.2318 -1.55211 4.08936 0
M  V30 137 C 10.2908 -2.64991 4.54606 0
M  V30 138 O 9.3168 -2.30929 5.2025 0
M  V30 139 N 10.5188 -3.95161 4.25238 0
M  V30 140 H 13.2838 -0.0801694 2.99593 0
M  V30 141 H 10.8448 0.102329 1.61576 0
M  V30 142 H 12.8368 -2.60948 3.09335 0
M  V30 143 H 11.4068 -2.34799 2.06369 0
M  V30 144 H 10.6268 -0.658185 3.88666 0
M  V30 145 H 11.9148 -1.30681 4.91732 0
M  V30 146 H 11.3128 -4.25653 3.72607 0
M  V30 147 H 9.8698 -4.6427 4.5749 0
M  V30 148 N 13.3029 -1.57598 0.00835791 0
M  V30 149 C 14.7189 -1.55764 -0.347822 0
M  V30 150 C 14.9189 -1.01186 -1.74252 0
M  V30 151 O 13.9749 -0.649371 -2.44007 0
M  V30 152 C 15.2879 -2.99927 -0.215407 0
M  V30 153 C 16.8359 -3.11656 -0.289725 0
M  V30 154 C 17.3109 -4.57621 -0.18634 0
M  V30 155 N 18.8019 -4.62557 -0.243978 0
M  V30 156 C 19.5369 -5.73094 -0.18745 0
M  V30 157 N 19.0329 -6.92753 -0.0810331 0
M  V30 158 N 20.8259 -5.61588 -0.239925 0
M  V30 159 H 12.9769 -1.91411 0.92062 0
M  V30 160 H 15.2399 -0.879562 0.353659 0
M  V30 161 H 14.9459 -3.43729 0.744512 0
M  V30 162 H 14.8199 -3.63865 -0.994097 0
M  V30 163 H 17.2069 -2.67779 -1.24009 0
M  V30 164 H 17.2879 -2.5048 0.51898 0
M  V30 165 H 16.9319 -5.02174 0.760519 0
M  V30 166 H 16.8619 -5.16752 -1.01364 0
M  V30 167 H 19.3529 -3.76481 -0.327217 0
M  V30 168 H 19.6659 -7.72787 -0.0440241 0
M  V30 169 H 18.0109 -6.94984 -0.0465419 0
M  V30 170 H 21.2019 -4.66996 -0.321317 0
M  V30 171 H 21.3749 -6.47714 -0.192407 0
M  V30 172 N 14.781 0.264519 -1.55364 0
M  V30 173 C 16.03 0.992812 -1.75574 0
M  V30 174 C 16.343 1.87142 -0.568979 0
M  V30 175 O 17.549 2.63513 -0.653682 0
M  V30 176 C 16.005 1.81519 -3.10771 0
M  V30 177 C 15.613 0.984839 -4.37041 0
M  V30 178 C 17.357 2.53727 -3.40327 0
M  V30 179 C 15.264 1.80209 -5.63275 0
M  V30 180 H 14.194 0.374412 -0.65447 0
M  V30 181 H 16.845 0.248138 -1.81815 0
M  V30 182 H 15.227 2.60115 -2.98591 0
M  V30 183 H 16.401 0.242455 -4.60162 0
M  V30 184 H 14.716 0.37691 -4.14691 0
M  V30 185 H 17.313 3.15292 -4.3185 0
M  V30 186 H 17.656 3.24447 -2.60845 0
M  V30 187 H 18.189 1.82156 -3.53644 0
M  V30 188 H 14.928 1.13896 -6.45529 0
M  V30 189 H 14.448 2.52022 -5.44284 0
M  V30 190 H 16.127 2.37364 -6.01887 0
M  V30 191 N 16.2591 1.48442 0.529413 0
M  V30 192 C 17.1691 1.6569 1.66084 0
M  V30 193 C 18.1851 0.539432 1.65427 0
M  V30 194 O 19.3611 0.810572 1.84368 0
M  V30 195 C 16.4261 1.69315 3.02545 0
M  V30 196 C 15.4871 2.92694 3.14052 0
M  V30 197 C 14.7201 2.96137 4.44003 0
M  V30 198 O 14.9431 2.07973 5.31134 0
M  V30 199 O 13.8771 3.88312 4.59888 0
M  V30 200 H 17.7031 2.61483 1.54469 0
M  V30 201 H 15.2881 1.3185 0.702567 0
M  V30 202 H 17.1701 1.74217 3.83701 0
M  V30 203 H 15.8451 0.766966 3.14483 0
M  V30 204 H 14.7521 2.93324 2.32189 0
M  V30 205 H 16.0851 3.84699 3.0703 0
M  V30 206 N 17.7372 -0.778329 1.37039 0
M  V30 207 C 18.9842 -1.53665 1.31884 0
M  V30 208 C 19.3122 -1.9425 -0.0986303 0
M  V30 209 O 18.5672 -1.63832 -1.07041 0
M  V30 210 C 18.8662 -2.81845 2.19768 0
M  V30 211 C 18.5322 -2.60345 3.68146 0
M  V30 212 C 17.1942 -2.5419 4.08584 0
M  V30 213 C 19.5462 -2.40923 4.62175 0
M  V30 214 C 16.8742 -2.26594 5.41177 0
M  V30 215 C 19.2262 -2.14852 5.94997 0
M  V30 216 C 17.8902 -2.07137 6.34547 0
M  V30 217 H 17.1602 -0.562299 0.482598 0
M  V30 218 H 19.8072 -0.897069 1.69189 0
M  V30 219 H 18.1122 -3.50328 1.75436 0
M  V30 220 H 19.8092 -3.39692 2.13097 0
M  V30 221 H 16.3992 -2.65996 3.36072 0
M  V30 222 H 20.5832 -2.44673 4.31797 0
M  V30 223 H 15.8392 -2.19111 5.70789 0
M  V30 224 H 20.0132 -1.98822 6.67415 0
M  V30 225 H 17.6402 -1.85518 7.37216 0
M  V30 226 N 19.2153 -1.21501 -1.00376 0
M  V30 227 C 20.4633 -1.03095 -1.73827 0
M  V30 228 C 20.7843 0.436341 -1.90055 0
M  V30 229 O 20.0543 1.31466 -1.45236 0
M  V30 230 H 18.6343 -0.378487 -0.644016 0
M  V30 231 H 21.2963 -1.52831 -1.20949 0
M  V30 232 H 20.3923 -1.49991 -2.73695 0
M  V30 233 N 20.6934 1.19889 -1.02296 0
M  V30 234 C 21.9704 1.85148 -0.630832 0
M  V30 235 C 22.3504 1.91385 0.890782 0
M  V30 236 O 21.6984 1.42642 1.78509 0
M  V30 237 C 21.9084 3.24442 -1.28602 0
M  V30 238 C 23.2564 4.00663 -1.4055 0
M  V30 239 O 24.2804 3.33818 -1.24273 0
M  V30 240 O 23.1394 5.20387 -1.66913 0
M  V30 241 H 20.2334 0.797613 -0.218499 0
M  V30 242 H 22.7794 1.27427 -1.12074 0
M  V30 243 H 21.5514 3.14704 -2.32545 0
M  V30 244 H 21.1744 3.89802 -0.7836 0
M  V30 245 N 22.1715 0.800033 1.35784 0
M  V30 246 C 23.4115 0.382891 2.00782 0
M  V30 247 C 23.7755 -1.02891 1.62103 0
M  V30 248 O 24.9765 -1.54771 2.19771 0
M  V30 249 C 23.2475 0.553299 3.53091 0
M  V30 250 S 24.8065 0.225608 4.3822 0
M  V30 251 H 21.6245 0.145737 0.695904 0
M  V30 252 H 24.2265 1.04085 1.65489 0
M  V30 253 H 22.9305 1.58091 3.78729 0
M  V30 254 H 22.4615 -0.120214 3.93216 0
M  V30 255 H 24.4765 -0.969074 4.86645 0
M  V30 256 N 23.6496 -1.47581 0.552962 0
M  V30 257 C 24.9266 -1.95563 -0.0381515 0
M  V30 258 C 25.3066 -1.49552 -1.48988 0
M  V30 259 O 24.6546 -0.732414 -2.16444 0
M  V30 260 C 24.8646 -3.48848 0.102919 0
M  V30 261 C 26.2126 -4.24577 -0.0446082 0
M  V30 262 O 27.2366 -3.56187 0.0302548 0
M  V30 263 O 26.0956 -5.46116 -0.204923 0
M  V30 264 H 23.1896 -0.824321 -0.0665067 0
M  V30 265 H 25.7356 -1.58001 0.619186 0
M  V30 266 H 24.5076 -3.75129 1.11328 0
M  V30 267 H 24.1306 -3.93165 -0.592224 0
M  V30 268 N 25.1277 -0.289203 -1.54924 0
M  V30 269 C 26.5387 0.205791 -1.85562 0
M  V30 270 C 26.8897 1.54351 -1.2112 0
M  V30 271 O 26.0147 2.10435 -0.504601 0
M  V30 272 C 26.6097 0.380177 -3.3666 0
M  V30 273 C 25.1687 0.819395 -3.67373 0
M  V30 274 C 24.3157 -0.079159 -2.77187 0
M  V30 275 H 27.2667 -0.510577 -1.50262 0
M  V30 276 H 27.2877 1.21659 -3.60526 0
M  V30 277 H 26.7997 -0.593589 -3.83534 0
M  V30 278 H 24.9007 1.80413 -3.26009 0
M  V30 279 H 25.0137 0.646957 -4.74712 0
M  V30 280 H 23.3777 0.439565 -2.50878 0
M  V30 281 H 24.1607 -1.04906 -3.26878 0
M  V30 282 N 26.6058 1.57591 -0.0167156 0
M  V30 283 C 27.5688 2.08393 0.954204 0
M  V30 284 C 28.5688 0.996531 1.26198 0
M  V30 285 O 29.7588 1.25858 1.20438 0
M  V30 286 C 26.8908 2.5394 2.27436 0
M  V30 287 H 28.0838 2.95455 0.514451 0
M  V30 288 H 25.6368 1.54582 0.231089 0
M  V30 289 H 26.3718 1.70171 2.76066 0
M  V30 290 H 26.1568 3.33371 2.06412 0
M  V30 291 H 27.6468 2.93512 2.97053 0
M  V30 292 N 28.0839 -0.256276 1.55502 0
M  V30 293 C 29.3319 -0.983672 1.76545 0
M  V30 294 C 29.6529 -1.86206 0.578982 0
M  V30 295 O 28.9229 -1.91656 -0.405577 0
M  V30 296 H 27.5029 -0.366191 0.651086 0
M  V30 297 H 30.1649 -0.276479 1.92929 0
M  V30 298 H 29.2609 -1.61087 2.67315 0
M  V30 299 N 29.562 -1.4872 -0.521534 0
M  V30 300 C 30.811 -1.56419 -1.27341 0
M  V30 301 C 31.124 -0.246805 -1.94037 0
M  V30 302 O 32.33 -0.202122 -2.70747 0
M  V30 303 C 30.786 -2.75896 -2.31105 0
M  V30 304 C 30.394 -4.14311 -1.70441 0
M  V30 305 C 32.138 -2.92913 -3.07249 0
M  V30 306 C 30.045 -5.25038 -2.72194 0
M  V30 307 H 28.975 -0.582344 -0.478949 0
M  V30 308 H 31.626 -1.75071 -0.549779 0
M  V30 309 H 30.008 -2.50697 -3.06541 0
M  V30 310 H 31.182 -4.49564 -1.01136 0
M  V30 311 H 29.497 -4.02482 -1.06759 0
M  V30 312 H 32.094 -3.72805 -3.83302 0
M  V30 313 H 32.437 -2.02689 -3.63625 0
M  V30 314 H 32.97 -3.18054 -2.38928 0
M  V30 315 H 29.709 -6.17255 -2.20627 0
M  V30 316 H 29.229 -4.94263 -3.39801 0
M  V30 317 H 30.908 -5.53508 -3.35019 0
M  V30 318 N 31.0401 0.771051 -1.3745 0
M  V30 319 C 32.2861 1.5319 -1.32894 0
M  V30 320 C 32.6191 1.94008 0.0862511 0
M  V30 321 O 31.8941 1.64124 1.04373 0
M  V30 322 C 32.1771 2.79648 -2.26868 0
M  V30 323 C 32.0301 2.45079 -3.77169 0
M  V30 324 C 33.3491 3.81583 -2.19277 0
M  V30 325 H 30.4681 0.555744 -0.484064 0
M  V30 326 H 33.1101 0.884492 -1.68157 0
M  V30 327 H 31.2601 3.34891 -1.96926 0
M  V30 328 H 32.9321 1.95745 -4.1771 0
M  V30 329 H 31.1751 1.77767 -3.95704 0
M  V30 330 H 31.8461 3.35478 -4.38359 0
M  V30 331 H 34.3221 3.35835 -2.45671 0
M  V30 332 H 33.1981 4.67787 -2.87171 0
M  V30 333 H 33.4591 4.25897 -1.18592 0
M  V30 334 N 32.5182 1.22032 0.997298 0
M  V30 335 C 33.7642 1.05382 1.73972 0
M  V30 336 C 34.1192 -0.407419 1.88037 0
M  V30 337 O 33.4122 -1.29811 1.40924 0
M  V30 338 C 33.6062 1.69345 3.14733 0
M  V30 339 C 33.4352 3.21537 3.14395 0
M  V30 340 C 32.2052 3.9062 3.20537 0
M  V30 341 C 34.4032 4.18527 2.98897 0
M  V30 342 N 32.3852 5.29935 3.09906 0
M  V30 343 C 33.7562 5.44645 2.96247 0
M  V30 344 C 35.8112 4.09476 2.83255 0
M  V30 345 C 34.5142 6.62752 2.79557 0
M  V30 346 C 36.5402 5.27228 2.67926 0
M  V30 347 C 35.9022 6.52262 2.65959 0
M  V30 348 H 32.0012 0.440018 0.646458 0
M  V30 349 H 34.5852 1.54505 1.18475 0
M  V30 350 H 32.7562 1.22778 3.68484 0
M  V30 351 H 34.4882 1.45828 3.77513 0
M  V30 352 H 31.2432 3.41592 3.28043 0
M  V30 353 H 31.6672 6.02926 3.07912 0
M  V30 354 H 36.3092 3.13598 2.83577 0
M  V30 355 H 34.0272 7.58783 2.77982 0
M  V30 356 H 37.6132 5.22053 2.56812 0
M  V30 357 H 36.4932 7.41844 2.54239 0
M  V30 358 N 33.9963 -1.19345 1.0293 0
M  V30 359 C 35.2433 -1.89038 0.726008 0
M  V30 360 C 35.5713 -1.79649 -0.745427 0
M  V30 361 O 34.8263 -1.18354 -1.55855 0
M  V30 362 C 35.1253 -3.39292 1.12319 0
M  V30 363 C 34.7913 -3.68885 2.59297 0
M  V30 364 C 33.4533 -3.76671 2.99453 0
M  V30 365 C 35.8053 -3.82178 3.54386 0
M  V30 366 C 33.1333 -3.9522 4.33611 0
M  V30 367 C 35.4853 -4.0224 4.88248 0
M  V30 368 C 34.1493 -4.08259 5.28092 0
M  V30 369 H 33.4193 -0.691739 0.265665 0
M  V30 370 H 36.0663 -1.41328 1.29223 0
M  V30 371 H 34.3713 -3.88903 0.475584 0
M  V30 372 H 36.0683 -3.91536 0.866037 0
M  V30 373 H 32.6583 -3.63433 2.27189 0
M  V30 374 H 36.8423 -3.75505 3.24514 0
M  V30 375 H 32.0983 -3.98119 4.64016 0
M  V30 376 H 36.2723 -4.11468 5.61843 0
M  V30 377 H 33.8993 -4.22384 6.32057 0
M  V30 378 N 35.4744 -0.807222 -1.35358 0
M  V30 379 C 36.8854 -0.44876 -1.81226 0
M  V30 380 C 37.2364 1.02929 -1.67033 0
M  V30 381 O 36.3614 1.79991 -1.20133 0
M  V30 382 C 36.9564 -0.807774 -3.2903 0
M  V30 383 C 35.5154 -0.501901 -3.73039 0
M  V30 384 C 34.6624 -1.03304 -2.57339 0
M  V30 385 H 37.6134 -0.998808 -1.23327 0
M  V30 386 H 37.6344 -0.10554 -3.80354 0
M  V30 387 H 37.1464 -1.88357 -3.39328 0
M  V30 388 H 35.2474 0.565128 -3.68289 0
M  V30 389 H 35.3604 -1.03497 -4.67787 0
M  V30 390 H 33.7244 -0.455339 -2.50597 0
M  V30 391 H 34.5074 -2.11496 -2.70415 0
M  V30 392 N 36.9525 1.47285 -0.560781 0
M  V30 393 C 37.9005 2.31756 0.197942 0
M  V30 394 C 38.8945 1.43146 0.905854 0
M  V30 395 O 40.1005 1.59891 0.826733 0
M  V30 396 H 36.4755 0.747438 0.0827049 0
M  V30 397 H 38.4465 2.9359 -0.533629 0
M  V30 398 C 37.1955 3.25874 1.21249 0
M  V30 399 H 36.5185 3.94023 0.67719 0
M  V30 400 H 37.9585 3.87803 1.71419 0
M  V30 401 C 36.4175 2.49651 2.26221 0
M  V30 402 O 36.9475 2.24355 3.33208 0
M  V30 403 N 35.1535 2.10597 2.00243 0
M  V30 404 H 34.7005 2.31369 1.13252 0
M  V30 405 H 34.6585 1.59913 2.70694 0
M  V30 406 N 38.4306 0.297415 1.54768 0
M  V30 407 C 39.6606 -0.315165 2.04182 0
M  V30 408 C 40.0686 -1.4834 1.17439 0
M  V30 409 O 39.4116 -1.82695 0.191891 0
M  V30 410 C 39.4736 -0.837583 3.49607 0
M  V30 411 C 39.1376 0.204912 4.5654 0
M  V30 412 C 40.1346 1.03214 5.09552 0
M  V30 413 C 37.8196 0.345578 5.0111 0
M  V30 414 C 39.8136 1.986 6.05671 0
M  V30 415 C 37.5006 1.30289 5.97049 0
M  V30 416 C 38.4986 2.12159 6.49213 0
M  V30 417 O 38.1866 3.06268 7.43273 0
M  V30 418 H 37.9186 -0.0729646 0.672051 0
M  V30 419 H 40.4726 0.433907 2.00765 0
M  V30 420 H 38.7026 -1.63712 3.50336 0
M  V30 421 H 40.3916 -1.36566 3.82236 0
M  V30 422 H 41.1576 0.934312 4.75916 0
M  V30 423 H 37.0366 -0.28171 4.60138 0
M  V30 424 H 40.5806 2.62542 6.46311 0
M  V30 425 H 36.4776 1.40145 6.30103 0
M  V30 426 H 37.2456 3.01205 7.61064 0
M  V30 427 N 39.9087 -1.5758 0.0250728 0
M  V30 428 C 40.8587 -2.06468 -0.967201 0
M  V30 429 C 41.8427 -0.964376 -1.28797 0
M  V30 430 O 43.0347 -1.22797 -1.27475 0
M  V30 431 C 40.1637 -2.59203 -2.25097 0
M  V30 432 C 39.2497 -3.76157 -1.95874 0
M  V30 433 N 39.6407 -4.86919 -1.36905 0
M  V30 434 C 37.9387 -3.84566 -2.25887 0
M  V30 435 C 38.6397 -5.68172 -1.24724 0
M  V30 436 N 37.6157 -5.14953 -1.74138 0
M  V30 437 H 41.4177 -2.89508 -0.506176 0
M  V30 438 H 38.9317 -1.61399 -0.18004 0
M  V30 439 H 40.9287 -2.92517 -2.97052 0
M  V30 440 H 39.5887 -1.77592 -2.71829 0
M  V30 441 H 40.5997 -5.07256 -1.04459 0
M  V30 442 H 37.2767 -3.13854 -2.75321 0
M  V30 443 H 38.6667 -6.67221 -0.791605 0
M  V30 444 N 41.3868 0.248026 -1.55636 0
M  V30 445 C 42.8028 0.596483 -1.48035 0
M  V30 446 C 43.0028 1.88386 -0.715039 0
M  V30 447 O 42.0588 2.51319 -0.243944 0
M  V30 448 C 43.3718 0.700258 -2.92433 0
M  V30 449 C 44.9198 0.792659 -3.02797 0
M  V30 450 C 45.3948 0.928005 -4.485 0
M  V30 451 N 46.8858 0.992903 -4.52433 0
M  V30 452 C 47.6208 1.11687 -5.62418 0
M  V30 453 N 47.1168 1.20645 -6.82214 0
M  V30 454 N 48.9098 1.14994 -5.50212 0
M  V30 455 H 41.0608 -0.597109 -2.03834 0
M  V30 456 H 43.3238 -0.205925 -0.925364 0
M  V30 457 H 43.0298 -0.175658 -3.51261 0
M  V30 458 H 42.9038 1.57255 -3.42857 0
M  V30 459 H 45.2908 1.65903 -2.4405 0
M  V30 460 H 45.3718 -0.104762 -2.55585 0
M  V30 461 H 45.0158 0.0661971 -5.07857 0
M  V30 462 H 44.9458 1.84045 -4.93391 0
M  V30 463 H 47.4368 0.935064 -3.66149 0
M  V30 464 H 47.7498 1.30008 -7.61786 0
M  V30 465 H 46.0948 1.17605 -6.84977 0
M  V30 466 H 49.2858 1.07643 -4.55555 0
M  V30 467 H 49.4588 1.24311 -6.35965 0
M  V30 468 N 42.8649 1.48995 0.513639 0
M  V30 469 C 44.1109 1.59053 1.26783 0
M  V30 470 C 44.4659 0.268136 1.90522 0
M  V30 471 O 43.7589 -0.730534 1.77126 0
M  V30 472 C 43.9529 2.67756 2.36731 0
M  V30 473 C 43.7819 4.10437 1.83771 0
M  V30 474 C 42.5519 4.7738 1.65639 0
M  V30 475 C 44.7499 4.9608 1.35681 0
M  V30 476 N 42.7319 6.04419 1.07476 0
M  V30 477 C 44.1029 6.13496 0.895715 0
M  V30 478 C 46.1579 4.82177 1.24136 0
M  V30 479 C 44.8609 7.1854 0.3306 0
M  V30 480 C 46.8869 5.87358 0.690229 0
M  V30 481 C 46.2489 7.03993 0.239292 0
M  V30 482 H 42.3479 0.636463 0.454355 0
M  V30 483 H 44.9319 1.85948 0.577196 0
M  V30 484 H 43.1029 2.42655 3.03271 0
M  V30 485 H 44.8349 2.67406 3.0377 0
M  V30 486 H 41.5899 4.33974 1.8964 0
M  V30 487 H 42.0139 6.72214 0.803579 0
M  V30 488 H 46.6559 3.92329 1.57601 0
M  V30 489 H 44.3739 8.08098 -0.0163435 0
M  V30 490 H 47.9599 5.78658 0.603852 0
M  V30 491 H 46.8399 7.83992 -0.180526 0
M  V30 492 N 44.343 -0.763751 1.37857 0
M  V30 493 C 45.273 -1.89103 1.36975 0
M  V30 494 C 46.254 -1.68439 0.237152 0
M  V30 495 O 47.439 -1.8918 0.438713 0
M  V30 496 C 44.569 -3.26496 1.18395 0
M  V30 497 C 43.523 -3.61741 2.28751 0
M  V30 498 C 42.849 -4.97762 1.95286 0
M  V30 499 C 44.149 -3.67665 3.70972 0
M  V30 500 H 45.843 -1.90099 2.31307 0
M  V30 501 H 43.389 -0.91319 1.11341 0
M  V30 502 H 45.342 -4.05003 1.16406 0
M  V30 503 H 44.066 -3.25955 0.205215 0
M  V30 504 H 42.725 -2.85547 2.29909 0
M  V30 505 H 42.373 -4.93769 0.959221 0
M  V30 506 H 42.073 -5.22313 2.69189 0
M  V30 507 H 43.597 -5.7866 1.94898 0
M  V30 508 H 45.011 -4.36307 3.719 0
M  V30 509 H 43.408 -4.03718 4.43995 0
M  V30 510 H 44.478 -2.68134 4.0402 0
M  V30 511 N 45.8211 -1.22559 -0.990812 0
M  V30 512 C 47.0981 -0.959875 -1.70428 0
M  V30 513 C 47.4781 0.524455 -2.04481 0
M  V30 514 O 46.8261 1.49302 -1.72977 0
M  V30 515 C 47.0361 -1.85955 -2.95333 0
M  V30 516 C 48.3841 -2.11687 -3.68068 0
M  V30 517 O 49.4081 -1.8342 -3.05345 0
M  V30 518 O 48.2671 -2.59572 -4.80921 0
M  V30 519 H 45.3611 -0.361154 -0.743974 0
M  V30 520 H 47.9071 -1.33554 -1.04697 0
M  V30 521 H 46.6791 -2.86346 -2.66687 0
M  V30 522 H 46.3021 -1.4856 -3.68803 0
M  V30 523 N 47.2992 1.18797 -1.03562 0
M  V30 524 C 48.2622 2.20464 -0.626769 0
M  V30 525 C 49.2622 1.57721 0.313173 0
M  V30 526 O 50.4522 1.73917 0.0992615 0
M  V30 527 C 47.5842 3.40802 0.0818498 0
M  V30 528 H 48.7772 2.58149 -1.5264 0
M  V30 529 H 46.3302 1.32593 -0.827578 0
M  V30 530 H 47.0652 3.08642 0.995518 0
M  V30 531 H 46.8502 3.8758 -0.593652 0
M  V30 532 H 48.3402 4.16092 0.354584 0
M  V30 533 N 48.7773 0.814389 1.34928 0
M  V30 534 C 49.7403 0.235759 2.27984 0
M  V30 535 C 50.7403 -0.581412 1.49921 0
M  V30 536 O 51.9303 -0.398758 1.69575 0
M  V30 537 C 49.0623 -0.670433 3.34242 0
M  V30 538 H 50.2553 1.05659 2.80671 0
M  V30 539 H 47.8083 0.585614 1.44915 0
M  V30 540 H 48.5433 -1.51466 2.86755 0
M  V30 541 H 48.3283 -0.0860822 3.92005 0
M  V30 542 H 49.8183 -1.06935 4.03676 0
M  V30 543 N 50.2554 -1.46986 0.568584 0
M  V30 544 C 51.4804 -2.07335 0.0520528 0
M  V30 545 C 51.9054 -1.41675 -1.23733 0
M  V30 546 O 51.2634 -0.495623 -1.74394 0
M  V30 547 C 51.3114 -3.60417 -0.11501 0
M  V30 548 O 50.4154 -3.95309 -1.17492 0
M  V30 549 H 49.7564 -0.661597 0.0564385 0
M  V30 550 H 52.2864 -1.88837 0.787507 0
M  V30 551 H 52.2964 -4.06698 -0.325644 0
M  V30 552 H 50.9714 -4.07601 0.826675 0
M  V30 553 H 49.5484 -3.60757 -0.943869 0
M  V30 554 N 51.7335 -0.305618 -1.54608 0
M  V30 555 C 53.1495 0.0476228 -1.59529 0
M  V30 556 C 53.3495 1.52025 -1.32252 0
M  V30 557 O 52.4055 2.27368 -1.09818 0
M  V30 558 C 53.7185 -0.354471 -2.98603 0
M  V30 559 C 55.2665 -0.303622 -3.11524 0
M  V30 560 C 55.7415 -0.680608 -4.52915 0
M  V30 561 N 57.2325 -0.63332 -4.5885 0
M  V30 562 C 57.9675 -0.897432 -5.66334 0
M  V30 563 N 57.4635 -1.22775 -6.81834 0
M  V30 564 N 59.2565 -0.824186 -5.56025 0
M  V30 565 H 51.4075 -1.2653 -1.70599 0
M  V30 566 H 53.6705 -0.513291 -0.797017 0
M  V30 567 H 53.3765 -1.3798 -3.23503 0
M  V30 568 H 53.2505 0.289568 -3.76087 0
M  V30 569 H 55.6375 0.712472 -2.8637 0
M  V30 570 H 55.7185 -0.982348 -2.36185 0
M  V30 571 H 55.3625 -1.69453 -4.78799 0
M  V30 572 H 55.2925 0.0202385 -5.26596 0
M  V30 573 H 57.7835 -0.389138 -3.75891 0
M  V30 574 H 58.0965 -1.41513 -7.59733 0
M  V30 575 H 56.4415 -1.26583 -6.83375 0
M  V30 576 H 59.6325 -0.565748 -4.64669 0
M  V30 577 H 59.8055 -1.03338 -6.39707 0
M  V30 578 N 53.2116 1.57565 -0.0334293 0
M  V30 579 C 54.1596 2.1164 0.96496 0
M  V30 580 C 55.1536 1.04398 1.33407 0
M  V30 581 O 56.3596 1.22828 1.3158 0
M  V30 582 H 52.7346 0.676222 0.32898 0
M  V30 583 H 54.7056 2.94455 0.483614 0
M  V30 584 C 53.4546 2.66207 2.23672 0
M  V30 585 H 52.7776 3.48378 1.96145 0
M  V30 586 H 54.2176 3.07685 2.9173 0
M  V30 587 C 52.6766 1.59151 2.96939 0
M  V30 588 O 53.2066 0.993858 3.89211 0
M  V30 589 N 51.4126 1.31093 2.59351 0
M  V30 590 H 50.9596 1.7988 1.84393 0
M  V30 591 H 50.9176 0.596889 3.08682 0
M  V30 592 N 54.6897 -0.239769 1.55765 0
M  V30 593 C 55.9197 -0.982743 1.8173 0
M  V30 594 C 56.3277 -1.7917 0.607835 0
M  V30 595 O 55.6707 -1.78525 -0.432973 0
M  V30 596 C 55.7327 -1.96332 3.01155 0
M  V30 597 C 55.3967 -1.34062 4.36894 0
M  V30 598 C 56.3937 -0.739539 5.14613 0
M  V30 599 C 54.0787 -1.35784 4.83599 0
M  V30 600 C 56.0727 -0.163989 6.37189 0
M  V30 601 C 53.7597 -0.778441 6.06122 0
M  V30 602 C 54.7577 -0.182548 6.82756 0
M  V30 603 O 54.4457 0.387887 8.02964 0
M  V30 604 H 54.1777 -0.294481 0.608487 0
M  V30 605 H 56.7317 -0.26572 2.03674 0
M  V30 606 H 54.9617 -2.71884 2.74984 0
M  V30 607 H 56.6507 -2.57032 3.14149 0
M  V30 608 H 57.4167 -0.718687 4.79646 0
M  V30 609 H 53.2957 -1.81105 4.23936 0
M  V30 610 H 56.8397 0.301753 6.96947 0
M  V30 611 H 52.7367 -0.796645 6.40565 0
M  V30 612 H 53.5047 0.28044 8.18019 0
M  V30 613 N 56.1678 -1.49265 -0.50573 0
M  V30 614 C 57.4148 -1.58513 -1.26015 0
M  V30 615 C 57.7428 -0.26972 -1.92621 0
M  V30 616 O 56.9978 0.741997 -1.81088 0
M  V30 617 C 57.2968 -2.69008 -2.35308 0
M  V30 618 C 56.9628 -4.10662 -1.86192 0
M  V30 619 C 55.6248 -4.49212 -1.72516 0
M  V30 620 C 57.9768 -4.99336 -1.49375 0
M  V30 621 C 55.3048 -5.74214 -1.20394 0
M  V30 622 C 57.6568 -6.24852 -0.987072 0
M  V30 623 C 56.3208 -6.62236 -0.836669 0
M  V30 624 H 55.5908 -0.580041 -0.461122 0
M  V30 625 H 58.2378 -1.83078 -0.561665 0
M  V30 626 H 56.5428 -2.38396 -3.10926 0
M  V30 627 H 58.2398 -2.73373 -2.93374 0
M  V30 628 H 54.8298 -3.8023 -1.97795 0
M  V30 629 H 59.0138 -4.70212 -1.5879 0
M  V30 630 H 54.2698 -6.01883 -1.07458 0
M  V30 631 H 58.4438 -6.92944 -0.692983 0
M  V30 632 H 56.0708 -7.58979 -0.430607 0
M  V30 633 N 57.6459 0.756429 -1.3826 0
M  V30 634 C 58.8949 1.51082 -1.3363 0
M  V30 635 C 59.2079 1.95467 0.0720068 0
M  V30 636 O 60.4139 2.7043 0.240834 0
M  V30 637 C 58.8699 2.72893 -2.34644 0
M  V30 638 C 58.4779 2.35544 -3.81081 0
M  V30 639 C 60.2219 3.50791 -2.39052 0
M  V30 640 C 58.1289 3.53948 -4.73787 0
M  V30 641 H 57.0589 0.56727 -0.49671 0
M  V30 642 H 59.7099 0.827147 -1.638 0
M  V30 643 H 58.0919 3.43227 -1.97513 0
M  V30 644 H 59.2659 1.72894 -4.27135 0
M  V30 645 H 57.5809 1.70786 -3.79764 0
M  V30 646 H 60.1779 4.38823 -3.05513 0
M  V30 647 H 60.5209 3.91745 -1.40861 0
M  V30 648 H 61.0539 2.87467 -2.74968 0
M  V30 649 H 57.7929 3.18064 -5.73163 0
M  V30 650 H 57.3129 4.15651 -4.32428 0
M  V30 651 H 58.9919 4.20566 -4.91663 0
M  V30 652 N 59.124 1.23083 0.984299 0
M  V30 653 C 60.071 1.00854 2.07598 0
M  V30 654 C 61.041 -0.0726709 1.65941 0
M  V30 655 O 62.226 0.0786535 1.90638 0
M  V30 656 C 59.366 0.601645 3.39815 0
M  V30 657 C 58.479 1.75456 3.94765 0
M  V30 658 C 57.614 1.29482 5.15177 0
M  V30 659 C 56.653 2.41873 5.62284 0
M  V30 660 N 55.79 1.96885 6.73929 0
M  V30 661 H 60.63 1.943 2.25946 0
M  V30 662 H 58.167 0.968001 1.10762 0
M  V30 663 H 60.125 0.346854 4.15756 0
M  V30 664 H 58.755 -0.295803 3.21442 0
M  V30 665 H 57.807 2.12346 3.15616 0
M  V30 666 H 59.119 2.59965 4.25699 0
M  V30 667 H 58.273 0.997923 5.98437 0
M  V30 668 H 57.012 0.420046 4.85888 0
M  V30 669 H 56.017 2.72342 4.77608 0
M  V30 670 H 57.242 3.29881 5.93595 0
M  V30 671 H 55.188 1.11782 6.46406 0
M  V30 672 H 55.105 2.74956 7.04227 0
M  V30 673 H 56.373 1.70289 7.60672 0
M  V30 674 N 60.6021 -1.18246 1.0419 0
M  V30 675 C 61.8421 -1.89948 0.754916 0
M  V30 676 C 62.2061 -1.78608 -0.70451 0
M  V30 677 O 63.4071 -2.4503 -1.10516 0
M  V30 678 C 61.6781 -3.36305 1.20969 0
M  V30 679 S 63.2371 -4.26088 1.04854 0
M  V30 680 H 60.0551 -0.655897 0.274446 0
M  V30 681 H 62.6571 -1.42873 1.33445 0
M  V30 682 H 61.3611 -3.42089 2.26722 0
M  V30 683 H 60.8921 -3.8842 0.624004 0
M  V30 684 H 62.9071 -4.96189 -0.0332896 0
M  V30 685 N 62.0802 -0.821533 -1.34494 0
M  V30 686 C 63.3282 -0.408139 -1.97936 0
M  V30 687 C 63.6492 1.03193 -1.65457 0
M  V30 688 O 62.9192 1.71622 -0.944595 0
M  V30 689 H 61.4992 -0.147928 -0.732206 0
M  V30 690 H 64.1612 -1.05067 -1.64155 0
M  V30 691 H 63.2572 -0.52601 -3.07635 0
M  V30 692 N 63.5583 1.46682 -0.576371 0
M  V30 693 C 64.4883 2.33028 0.148397 0
M  V30 694 C 65.4693 1.44961 0.889956 0
M  V30 695 O 66.6543 1.73789 0.866662 0
M  V30 696 C 63.7843 3.27117 1.1667 0
M  V30 697 C 62.7383 4.24575 0.540386 0
M  V30 698 C 62.0643 5.08126 1.6647 0
M  V30 699 C 63.3643 5.19722 -0.518331 0
M  V30 700 H 65.0583 2.93875 -0.572509 0
M  V30 701 H 62.6043 1.41315 -0.276768 0
M  V30 702 H 64.5573 3.86374 1.68204 0
M  V30 703 H 63.2813 2.64364 1.9178 0
M  V30 704 H 61.9403 3.66571 0.0461769 0
M  V30 705 H 61.5883 4.41762 2.40531 0
M  V30 706 H 61.2883 5.74122 1.25131 0
M  V30 707 H 62.8123 5.70246 2.18293 0
M  V30 708 H 64.2263 5.73232 -0.0883058 0
M  V30 709 H 62.6233 5.94026 -0.851679 0
M  V30 710 H 63.6933 4.64037 -1.40703 0
M  V30 711 N 65.0364 0.313813 1.54444 0
M  V30 712 C 66.4474 -0.176243 1.85866 0
M  V30 713 C 66.7984 -1.52405 1.23561 0
M  V30 714 O 65.9234 -2.09605 0.538016 0
M  V30 715 C 66.5184 -0.32657 3.37222 0
M  V30 716 C 65.0774 -0.760846 3.6863 0
M  V30 717 C 64.2244 0.123247 2.77026 0
M  V30 718 H 67.1754 0.534418 1.49431 0
M  V30 719 H 67.1964 -1.15908 3.62416 0
M  V30 720 H 66.7084 0.654531 3.82541 0
M  V30 721 H 64.8094 -1.75204 3.28838 0
M  V30 722 H 64.9224 -0.571353 4.75681 0
M  V30 723 H 63.2864 -0.399597 2.51546 0
M  V30 724 H 64.0694 1.10094 3.25168 0
M  V30 725 N 66.5145 -1.57545 0.0417849 0
M  V30 726 C 67.9255 -1.80011 -0.495259 0
M  V30 727 C 68.2765 -0.953199 -1.71489 0
M  V30 728 O 67.4015 -0.167138 -2.15754 0
M  V30 729 C 67.9965 -3.26482 -0.905265 0
M  V30 730 C 66.5555 -3.499 -1.38734 0
M  V30 731 C 65.7025 -2.74979 -0.358056 0
M  V30 732 H 68.6535 -1.56425 0.267736 0
M  V30 733 H 68.6745 -3.36887 -1.76882 0
M  V30 734 H 68.1865 -3.88096 -0.017401 0
M  V30 735 H 66.2875 -2.93553 -2.29471 0
M  V30 736 H 66.4005 -4.58615 -1.38598 0
M  V30 737 H 64.7645 -2.40834 -0.828912 0
M  V30 738 H 65.5475 -3.39315 0.521561 0
M  V30 739 N 67.9926 0.231505 -1.5589 0
M  V30 740 C 69.2386 0.954429 -1.79617 0
M  V30 741 C 69.5936 1.82367 -0.613199 0
M  V30 742 O 68.8866 1.87524 0.393094 0
M  V30 743 C 69.0806 1.83577 -3.0665 0
M  V30 744 C 68.9096 1.05334 -4.3719 0
M  V30 745 C 67.6796 0.75225 -4.99669 0
M  V30 746 C 69.8776 0.423444 -5.12554 0
M  V30 747 N 67.8596 -0.052627 -6.13877 0
M  V30 748 C 69.2306 -0.245287 -6.19515 0
M  V30 749 C 71.2856 0.335466 -4.96769 0
M  V30 750 C 69.9886 -0.993566 -7.12405 0
M  V30 751 C 72.0146 -0.399321 -5.9005 0
M  V30 752 C 71.3766 -1.05663 -6.9643 0
M  V30 753 H 67.4756 0.329846 -0.709031 0
M  V30 754 H 70.0596 0.226172 -1.93382 0
M  V30 755 H 68.2306 2.53592 -2.94186 0
M  V30 756 H 69.9626 2.49541 -3.18608 0
M  V30 757 H 66.7176 1.06783 -4.61405 0
M  V30 758 H 67.1416 -0.443609 -6.75545 0
M  V30 759 H 71.7836 0.829311 -4.14587 0
M  V30 760 H 69.5016 -1.49896 -7.94076 0
M  V30 761 H 73.0876 -0.468265 -5.79913 0
M  V30 762 H 71.9676 -1.61612 -7.67366 0
M  V30 763 N 69.4707 1.49531 0.497807 0
M  V30 764 C 70.8867 1.36365 0.829266 0
M  V30 765 C 71.0867 0.399184 1.97506 0
M  V30 766 O 70.1427 -0.167977 2.51941 0
M  V30 767 C 71.4557 2.77153 1.16647 0
M  V30 768 C 73.0037 2.85877 1.27449 0
M  V30 769 C 73.4787 4.2744 1.64497 0
M  V30 770 N 74.9697 4.30265 1.7154 0
M  V30 771 C 75.7047 5.3677 2.01656 0
M  V30 772 N 75.2007 6.53516 2.29976 0
M  V30 773 N 76.9937 5.24189 2.02934 0
M  V30 774 H 69.1447 2.10831 -0.257703 0
M  V30 775 H 71.4077 0.946534 -0.0527091 0
M  V30 776 H 71.1137 3.49442 0.397872 0
M  V30 777 H 70.9877 3.12722 2.10915 0
M  V30 778 H 73.3747 2.13824 2.0338 0
M  V30 779 H 73.4557 2.53887 0.312244 0
M  V30 780 H 73.0997 5.00021 0.891151 0
M  V30 781 H 73.0297 4.56896 2.61827 0
M  V30 782 H 75.5207 3.4607 1.51802 0
M  V30 783 H 75.8337 7.30506 2.52153 0
M  V30 784 H 74.1787 6.56737 2.27425 0
M  V30 785 H 77.3697 4.31988 1.80289 0
M  V30 786 H 77.5427 6.07286 2.26071 0
M  V30 787 N 70.9488 -0.749086 1.3866 0
M  V30 788 C 71.8808 -1.87273 1.32142 0
M  V30 789 C 72.8938 -1.61127 0.232787 0
M  V30 790 O 74.0828 -1.71623 0.49069 0
M  V30 791 C 71.1828 -3.23005 1.02571 0
M  V30 792 C 70.3558 -3.7662 2.22433 0
M  V30 793 C 69.4148 -4.90879 1.89537 0
M  V30 794 O 68.4408 -5.05276 2.62078 0
M  V30 795 N 69.6428 -5.74198 0.853031 0
M  V30 796 H 72.4078 -1.93373 2.28969 0
M  V30 797 H 69.9688 -0.929216 1.32579 0
M  V30 798 H 71.9608 -3.96992 0.786085 0
M  V30 799 H 70.5308 -3.12262 0.145249 0
M  V30 800 H 69.7508 -2.94147 2.62434 0
M  V30 801 H 71.0388 -4.09173 3.02415 0
M  V30 802 H 70.4368 -5.6514 0.25155 0
M  V30 803 H 68.9938 -6.48313 0.67329 0
M  V30 804 N 72.4269 -1.23603 -0.977757 0
M  V30 805 C 73.6549 -1.09646 -1.75458 0
M  V30 806 C 74.0699 0.351859 -1.85492 0
M  V30 807 O 73.4269 1.24327 -1.336 0
M  V30 808 C 73.4779 -1.71895 -3.18016 0
M  V30 809 O 73.1989 -3.11063 -3.08498 0
M  V30 810 C 74.6999 -1.63415 -4.12081 0
M  V30 811 H 71.9199 -0.38359 -0.550545 0
M  V30 812 H 74.4639 -1.63507 -1.22824 0
M  V30 813 H 72.6189 -1.22061 -3.67668 0
M  V30 814 H 73.0329 -3.41305 -3.9826 0
M  V30 815 H 74.5069 -2.11669 -5.09804 0
M  V30 816 H 74.9839 -0.593462 -4.35172 0
M  V30 817 H 75.5899 -2.12628 -3.68334 0
M  V30 818 N 73.905 1.17692 -1.04816 0
M  V30 819 C 75.151 1.88137 -0.75711 0
M  V30 820 C 75.484 1.80604 0.713841 0
M  V30 821 O 74.759 1.21146 1.52164 0
M  V30 822 C 75.042 3.38318 -1.2334 0
M  V30 823 C 74.895 3.54622 -2.76701 0
M  V30 824 C 76.214 4.32214 -0.829415 0
M  V30 825 H 73.333 0.683163 -0.27651 0
M  V30 826 H 75.975 1.38424 -1.30149 0
M  V30 827 H 74.125 3.80787 -0.770286 0
M  V30 828 H 75.797 3.21194 -3.31107 0
M  V30 829 H 74.04 2.97026 -3.16161 0
M  V30 830 H 74.711 4.60028 -3.05088 0
M  V30 831 H 77.187 3.97565 -1.22805 0
M  V30 832 H 76.063 5.35838 -1.19033 0
M  V30 833 H 76.324 4.41294 0.266891 0
M  V30 834 N 75.3831 0.828654 1.34056 0
M  V30 835 C 76.6291 0.42008 1.98402 0
M  V30 836 C 76.9621 -1.01564 1.65525 0
M  V30 837 O 76.2371 -1.70834 0.929831 0
M  V30 838 C 76.5201 0.62927 3.54559 0
M  V30 839 C 76.3731 2.11152 3.97159 0
M  V30 840 C 77.6921 0.0688756 4.40046 0
M  V30 841 H 74.8111 0.154104 0.720709 0
M  V30 842 H 77.4531 1.04228 1.5886 0
M  V30 843 H 75.6031 0.0996418 3.88372 0
M  V30 844 H 77.2751 2.70522 3.73651 0
M  V30 845 H 75.5181 2.59985 3.47261 0
M  V30 846 H 76.1891 2.20868 5.05887 0
M  V30 847 H 78.6651 0.521458 4.1282 0
M  V30 848 H 77.5411 0.245006 5.48353 0
M  V30 849 H 77.8021 -1.0266 4.30015 0
M  V30 850 N 76.8612 -1.46375 0.584142 0
M  V30 851 C 77.7712 -2.34115 -0.150728 0
M  V30 852 C 78.7872 -1.49838 -0.884567 0
M  V30 853 O 79.9632 -1.82704 -0.847429 0
M  V30 854 C 77.0282 -3.2705 -1.15062 0
M  V30 855 C 76.0892 -4.27228 -0.421293 0
M  V30 856 C 75.3222 -5.15722 -1.37355 0
M  V30 857 O 75.5452 -5.07176 -2.61014 0
M  V30 858 O 74.4792 -5.95383 -0.883355 0
M  V30 859 H 78.3052 -2.98309 0.569708 0
M  V30 860 H 75.8902 -1.45373 0.344535 0
M  V30 861 H 77.7722 -3.84381 -1.72712 0
M  V30 862 H 76.4472 -2.65451 -1.8525 0
M  V30 863 H 75.3542 -3.7358 0.197085 0
M  V30 864 H 76.6872 -4.91616 0.239641 0
M  V30 865 N 78.3393 -0.321999 -1.54275 0
M  V30 866 C 79.7553 0.0306999 -1.5957 0
M  V30 867 C 79.9553 1.50614 -1.33857 0
M  V30 868 O 79.0113 2.2619 -1.12223 0
M  V30 869 C 80.3243 -0.386122 -2.98211 0
M  V30 870 C 81.8723 -0.336647 -3.11184 0
M  V30 871 C 82.3473 -0.728607 -4.52167 0
M  V30 872 N 83.8383 -0.681952 -4.58152 0
M  V30 873 C 84.5733 -0.957449 -5.6535 0
M  V30 874 N 84.0693 -1.3 -6.80494 0
M  V30 875 N 85.8623 -0.883113 -5.55119 0
M  V30 876 H 78.0133 -1.28332 -1.69247 0
M  V30 877 H 80.2763 -0.521716 -0.791528 0
M  V30 878 H 79.9823 -1.41404 -3.22022 0
M  V30 879 H 79.8563 0.249662 -3.76373 0
M  V30 880 H 82.2433 0.682058 -2.8711 0
M  V30 881 H 82.3243 -1.00734 -2.3513 0
M  V30 882 H 81.9683 -1.74522 -4.76974 0
M  V30 883 H 81.8983 -0.0356152 -5.26588 0
M  V30 884 H 84.3893 -0.428985 -3.75457 0
M  V30 885 H 84.7023 -1.49563 -7.58189 0
M  V30 886 H 83.0473 -1.33824 -6.81994 0
M  V30 887 H 86.2383 -0.615001 -4.64042 0
M  V30 888 H 86.4113 -1.10118 -6.38575 0
M  V30 889 N 79.8174 1.5752 -0.0501392 0
M  V30 890 C 81.0654 1.9227 0.622642 0
M  V30 891 C 81.3864 0.929083 1.71444 0
M  V30 892 O 80.6564 -0.0262186 1.95882 0
M  V30 893 H 79.2364 0.709739 0.232981 0
M  V30 894 H 81.8984 1.94628 -0.102898 0
M  V30 895 H 80.9944 2.93479 1.06191 0
M  V30 896 N 81.2955 -0.223234 1.56011 0
M  V30 897 C 82.5445 -0.945912 1.78144 0
M  V30 898 C 82.8575 -1.85567 0.618396 0
M  V30 899 O 84.0635 -2.61688 0.723318 0
M  V30 900 C 82.5195 -1.73216 3.15475 0
M  V30 901 C 82.1275 -0.868619 4.39499 0
M  V30 902 C 83.8715 -2.44615 3.46935 0
M  V30 903 C 81.7785 -1.65212 5.67855 0
M  V30 904 H 80.7085 -0.356929 0.664167 0
M  V30 905 H 83.3595 -0.199845 1.82409 0
M  V30 906 H 81.7415 -2.52107 3.05382 0
M  V30 907 H 82.9155 -0.120366 4.60643 0
M  V30 908 H 81.2305 -0.26683 4.15544 0
M  V30 909 H 83.8275 -3.03732 4.40058 0
M  V30 910 H 84.1705 -3.17417 2.69355 0
M  V30 911 H 84.7035 -1.72715 3.58349 0
M  V30 912 H 81.4425 -0.967407 6.48322 0
M  V30 913 H 80.9625 -2.37503 5.50774 0
M  V30 914 H 82.6415 -2.21322 6.07968 0
M  V30 915 N 82.7736 -1.49793 -0.48987 0
M  V30 916 C 84.0196 -1.60078 -1.24511 0
M  V30 917 C 84.3526 -0.291608 -1.91998 0
M  V30 918 O 83.6276 0.705647 -1.81248 0
M  V30 919 C 83.9106 -2.76791 -2.30345 0
M  V30 920 C 83.7636 -4.17535 -1.67286 0
M  V30 921 C 85.0826 -2.89111 -3.31817 0
M  V30 922 H 82.2016 -0.582645 -0.451324 0
M  V30 923 H 84.8436 -1.82117 -0.541612 0
M  V30 924 H 82.9936 -2.5813 -2.90346 0
M  V30 925 H 84.6656 -4.4774 -1.11026 0
M  V30 926 H 82.9086 -4.22665 -0.976577 0
M  V30 927 H 83.5796 -4.95094 -2.44103 0
M  V30 928 H 86.0556 -3.06133 -2.81819 0
M  V30 929 H 84.9316 -3.72433 -4.03219 0
M  V30 930 H 85.1926 -1.9893 -3.94815 0
M  V30 931 N 84.2517 0.741722 -1.39055 0
M  V30 932 C 85.4997 1.49818 -1.35643 0
M  V30 933 C 85.8207 1.94938 0.0491642 0
M  V30 934 O 85.0907 1.68505 0.999141 0
M  V30 935 H 83.6707 0.555755 -0.499144 0
M  V30 936 H 86.3327 0.880957 -1.73854 0
M  V30 937 H 85.4287 2.38348 -2.01486 0
M  V30 938 N 85.7298 1.2412 0.971189 0
M  V30 939 C 86.9578 1.10575 1.74874 0
M  V30 940 C 87.3728 -0.342017 1.85676 0
M  V30 941 O 86.7298 -1.23617 1.34258 0
M  V30 942 C 86.7808 1.73579 3.171 0
M  V30 943 O 86.5018 3.12695 3.06844 0
M  V30 944 C 88.0028 1.65598 4.11208 0
M  V30 945 H 85.2228 0.386504 0.548503 0
M  V30 946 H 87.7668 1.64156 1.21955 0
M  V30 947 H 85.9218 1.24009 3.67016 0
M  V30 948 H 86.3358 3.43412 3.96445 0
M  V30 949 H 87.8098 2.1437 5.08674 0
M  V30 950 H 88.2868 0.616532 4.34851 0
M  V30 951 H 88.8928 2.14578 3.67201 0
M  V30 952 N 87.2079 -1.17134 1.05439 0
M  V30 953 C 88.6189 -1.69084 0.791676 0
M  V30 954 C 88.9699 -1.83822 -0.685839 0
M  V30 955 O 88.0949 -1.52757 -1.53278 0
M  V30 956 C 88.6899 -3.07119 1.4305 0
M  V30 957 C 87.2489 -3.56225 1.21577 0
M  V30 958 C 86.3959 -2.32421 1.51247 0
M  V30 959 H 89.3469 -1.01617 1.219 0
M  V30 960 H 89.3679 -3.71087 0.84112 0
M  V30 961 H 88.8799 -2.9636 2.50584 0
M  V30 962 H 86.9809 -3.72257 0.159787 0
M  V30 963 H 87.0939 -4.38837 1.92246 0
M  V30 964 H 85.4579 -2.3701 0.932653 0
M  V30 965 H 86.2409 -2.24268 2.5992 0
M  V30 966 N 88.686 -0.835752 -1.33615 0
M  V30 967 C 89.935 -0.426289 -1.97144 0
M  V30 968 C 90.248 1.01912 -1.66953 0
M  V30 969 O 91.454 1.53311 -2.24072 0
M  V30 970 C 89.91 -0.711321 -3.52801 0
M  V30 971 C 89.518 -2.1712 -3.91871 0
M  V30 972 C 91.262 -0.368654 -4.22896 0
M  V30 973 C 89.169 -2.40044 -5.40493 0
M  V30 974 H 88.099 -0.15567 -0.737755 0
M  V30 975 H 90.75 -1.0239 -1.52278 0
M  V30 976 H 89.132 -0.0433766 -3.95976 0
M  V30 977 H 90.306 -2.87936 -3.59763 0
M  V30 978 H 88.621 -2.47654 -3.34749 0
M  V30 979 H 91.218 -0.517601 -5.32189 0
M  V30 980 H 91.561 0.688078 -4.10574 0
M  V30 981 H 92.094 -0.991702 -3.8524 0
M  V30 982 H 88.833 -3.44271 -5.57815 0
M  V30 983 H 88.353 -1.73785 -5.74072 0
M  V30 984 H 90.032 -2.23042 -6.0734 0
M  V30 985 N 90.1641 1.46063 -0.591896 0
M  V30 986 C 91.4101 2.02638 -0.0811191 0
M  V30 987 C 91.7431 1.4613 1.27905 0
M  V30 988 O 91.0181 0.629908 1.84017 0
M  V30 989 C 91.3011 3.60091 -0.0252436 0
M  V30 990 C 91.1541 4.26965 -1.41496 0
M  V30 991 C 92.4731 4.3496 0.670685 0
M  V30 992 H 89.5921 0.73635 -0.0309524 0
M  V30 993 H 92.2341 1.741 -0.760859 0
M  V30 994 H 90.3841 3.84535 0.553624 0
M  V30 995 H 92.0561 4.13756 -2.0397 0
M  V30 996 H 90.2991 3.85971 -1.98011 0
M  V30 997 H 90.9701 5.35781 -1.32825 0
M  V30 998 H 93.4461 4.15716 0.178825 0
M  V30 999 H 92.3221 5.44686 0.678837 0
M  V30 1000 H 92.5831 4.06685 1.73379 0
M  V30 1001 N 91.6422 0.330177 1.54103 0
M  V30 1002 C 92.8672 -0.274893 2.0557 0
M  V30 1003 C 93.2922 -1.44487 1.20437 0
M  V30 1004 O 92.6502 -1.80021 0.214991 0
M  V30 1005 C 92.6982 -0.68079 3.54115 0
M  V30 1006 O 91.8022 -1.7824 3.71893 0
M  V30 1007 H 91.1432 -0.0483849 0.662235 0
M  V30 1008 H 93.6732 0.480508 1.98878 0
M  V30 1009 H 93.6832 -0.961635 3.96505 0
M  V30 1010 H 92.3582 0.174903 4.15532 0
M  V30 1011 H 90.9352 -1.49985 3.41407 0
M  V30 1012 N 93.1203 -1.57491 0.0584922 0
M  V30 1013 C 94.3603 -1.94851 -0.617458 0
M  V30 1014 C 94.7243 -0.937165 -1.67575 0
M  V30 1015 O 95.9253 -1.19795 -2.40629 0
M  V30 1016 C 94.1963 -3.36955 -1.19147 0
M  V30 1017 S 95.7553 -3.96277 -1.8844 0
M  V30 1018 H 92.5733 -0.681539 -0.202547 0
M  V30 1019 H 95.1753 -1.95073 0.129176 0
M  V30 1020 H 93.8793 -4.08355 -0.409215 0
M  V30 1021 H 93.4103 -3.40245 -1.97476 0
M  V30 1022 H 95.4253 -3.82099 -3.16568 0
M  V30 1023 N 94.5984 0.214957 -1.56127 0
M  V30 1024 C 95.5464 1.28601 -1.93816 0
M  V30 1025 C 96.5404 1.48175 -0.821016 0
M  V30 1026 O 97.7464 1.49271 -1.0059 0
M  V30 1027 H 94.1214 0.431302 -0.616022 0
M  V30 1028 H 96.0924 0.940991 -2.83175 0
M  V30 1029 C 94.8414 2.62779 -2.27689 0
M  V30 1030 H 94.1644 2.48527 -3.13168 0
M  V30 1031 H 95.6044 3.36517 -2.57939 0
M  V30 1032 C 94.0634 3.18285 -1.10436 0
M  V30 1033 O 94.5934 4.00002 -0.368945 0
M  V30 1034 N 92.7994 2.7675 -0.886433 0
M  V30 1035 H 92.3464 2.10404 -1.48619 0
M  V30 1036 H 92.3044 3.14229 -0.103656 0
M  V30 1037 N 96.0765 1.50051 0.48192 0
M  V30 1038 C 97.0395 1.67584 1.5636 0
M  V30 1039 C 98.0395 0.546894 1.51214 0
M  V30 1040 O 99.2295 0.813725 1.54026 0
M  V30 1041 C 96.3615 1.691 2.96003 0
M  V30 1042 H 97.5545 2.64078 1.42136 0
M  V30 1043 H 95.1075 1.39369 0.707533 0
M  V30 1044 H 95.8425 0.742589 3.15684 0
M  V30 1045 H 95.6275 2.51105 3.01146 0
M  V30 1046 H 97.1175 1.84656 3.74556 0
M  V30 1047 N 97.5546 -0.734337 1.39446 0
M  V30 1048 C 98.7796 -1.52866 1.40167 0
M  V30 1049 C 99.2046 -1.881 -0.00171513 0
M  V30 1050 O 98.5626 -1.51957 -0.988879 0
M  V30 1051 C 98.6106 -2.79235 2.28167 0
M  V30 1052 O 97.7146 -3.75185 1.71201 0
M  V30 1053 H 97.0556 -0.461618 0.477289 0
M  V30 1054 H 99.5856 -0.905949 1.8345 0
M  V30 1055 H 99.5956 -3.27963 2.42702 0
M  V30 1056 H 98.2706 -2.52923 3.30156 0
M  V30 1057 H 96.8476 -3.33958 1.65912 0
M  V30 1058 N 99.0327 -1.24633 -0.964593 0
M  V30 1059 C 100.28 -1.08788 -1.70796 0
M  V30 1060 C 100.608 0.372783 -1.90894 0
M  V30 1061 O 99.8627 1.29167 -1.47018 0
M  V30 1062 C 100.162 -1.7763 -3.10133 0
M  V30 1063 C 99.8277 -3.27557 -3.09866 0
M  V30 1064 C 98.4897 -3.6846 -3.09501 0
M  V30 1065 C 100.842 -4.23389 -3.03959 0
M  V30 1066 C 98.1697 -5.03624 -3.00965 0
M  V30 1067 C 100.522 -5.58565 -2.96965 0
M  V30 1068 C 99.1857 -5.98809 -2.9493 0
M  V30 1069 H 98.4557 -0.398084 -0.624988 0
M  V30 1070 H 101.103 -1.54777 -1.12767 0
M  V30 1071 H 99.4077 -1.24044 -3.71645 0
M  V30 1072 H 101.105 -1.62832 -3.66451 0
M  V30 1073 H 97.6947 -2.95006 -3.10917 0
M  V30 1074 H 101.879 -3.92787 -3.03368 0
M  V30 1075 H 97.1347 -5.33998 -2.97752 0
M  V30 1076 H 101.309 -6.32523 -2.91354 0
M  V30 1077 H 98.9357 -7.03505 -2.88071 0
M  V30 1078 N 100.511 1.16574 -1.06058 0
M  V30 1079 C 101.757 1.87324 -0.777022 0
M  V30 1080 C 102.09 1.81351 0.694645 0
M  V30 1081 O 101.365 1.22753 1.50871 0
M  V30 1082 C 101.648 3.36991 -1.26922 0
M  V30 1083 C 101.501 3.51667 -2.80447 0
M  V30 1084 C 102.82 4.3131 -0.87521 0
M  V30 1085 H 99.9388 0.680191 -0.28374 0
M  V30 1086 H 102.581 1.37036 -1.3161 0
M  V30 1087 H 100.731 3.79949 -0.81063 0
M  V30 1088 H 102.403 3.17664 -3.34495 0
M  V30 1089 H 100.646 2.93656 -3.19294 0
M  V30 1090 H 101.317 4.56766 -3.0995 0
M  V30 1091 H 103.793 3.9624 -1.27014 0
M  V30 1092 H 102.669 5.34545 -1.2471 0
M  V30 1093 H 102.93 4.41552 0.220071 0
M  V30 1094 N 101.989 0.842826 1.3317 0
M  V30 1095 C 103.229 0.446574 1.99462 0
M  V30 1096 C 103.593 -0.976818 1.65295 0
M  V30 1097 O 104.794 -1.477 2.24584 0
M  V30 1098 C 103.065 0.665353 3.51152 0
M  V30 1099 S 104.624 0.364911 4.3728 0
M  V30 1100 H 101.442 0.167803 0.690915 0
M  V30 1101 H 104.044 1.09297 1.62094 0
M  V30 1102 H 102.748 1.7006 3.73507 0
M  V30 1103 H 102.279 0.00494568 3.934 0
M  V30 1104 H 104.294 -0.813761 4.89482 0
M  V30 1105 N 103.467 -1.45747 0.599634 0
M  V30 1106 C 104.695 -2.06668 0.0978551 0
M  V30 1107 C 105.11 -1.44562 -1.21439 0
M  V30 1108 O 104.467 -0.556923 -1.73795 0
M  V30 1109 C 104.518 -3.61456 -0.0567044 0
M  V30 1110 O 104.239 -4.21242 1.20361 0
M  V30 1111 C 105.74 -4.39345 -0.590869 0
M  V30 1112 H 102.96 -0.667825 0.0651943 0
M  V30 1113 H 105.504 -1.87115 0.82511 0
M  V30 1114 H 103.659 -3.80378 -0.734251 0
M  V30 1115 H 104.073 -5.14323 1.02821 0
M  V30 1116 H 105.547 -5.48182 -0.648131 0
M  V30 1117 H 106.024 -4.08568 -1.61147 0
M  V30 1118 H 106.63 -4.25268 0.0523679 0
M  V30 1119 N 104.945 -0.338344 -1.53925 0
M  V30 1120 C 105.908 0.508299 -2.23493 0
M  V30 1121 C 106.908 1.03175 -1.23335 0
M  V30 1122 O 108.098 0.921826 -1.47811 0
M  V30 1123 C 105.23 1.70754 -2.95052 0
M  V30 1124 H 106.423 -0.100058 -2.99733 0
M  V30 1125 H 103.976 -0.0896198 -1.56043 0
M  V30 1126 H 104.711 2.35474 -2.22986 0
M  V30 1127 H 104.496 1.33946 -3.68512 0
M  V30 1128 H 105.986 2.30818 -3.48013 0
M  V30 1129 N 106.423 1.57458 -0.0668435 0
M  V30 1130 C 107.648 1.9804 0.616027 0
M  V30 1131 C 108.073 0.944771 1.62652 0
M  V30 1132 O 107.431 -0.0902094 1.81075 0
M  V30 1133 C 107.479 3.37665 1.26549 0
M  V30 1134 O 106.583 3.36701 2.38131 0
M  V30 1135 H 105.924 0.644719 0.158849 0
M  V30 1136 H 108.454 2.04121 -0.139891 0
M  V30 1137 H 108.464 3.7474 1.6135 0
M  V30 1138 H 107.139 4.12573 0.525016 0
M  V30 1139 H 105.716 3.1139 2.0516 0
M  V30 1140 N 107.901 -0.206675 1.56239 0
M  V30 1141 C 109.131 -0.943975 1.83773 0
M  V30 1142 C 109.539 -1.77841 0.645703 0
M  V30 1143 O 108.882 -1.79403 -0.395008 0
M  V30 1144 C 108.944 -1.899 3.05251 0
M  V30 1145 C 108.608 -1.24764 4.39639 0
M  V30 1146 C 109.605 -0.630216 5.16066 0
M  V30 1147 C 107.29 -1.25496 4.8637 0
M  V30 1148 C 109.284 -0.0287946 6.37393 0
M  V30 1149 C 106.971 -0.649698 6.07637 0
M  V30 1150 C 107.969 -0.0376845 6.8299 0
M  V30 1151 O 107.657 0.55812 8.0196 0
M  V30 1152 H 107.389 -0.281508 0.614597 0
M  V30 1153 H 109.943 -0.222458 2.04192 0
M  V30 1154 H 108.173 -2.6599 2.80689 0
M  V30 1155 H 109.862 -2.5031 3.1953 0
M  V30 1156 H 110.628 -0.616785 4.81062 0
M  V30 1157 H 106.507 -1.72072 4.27683 0
M  V30 1158 H 110.051 0.449518 6.9615 0
M  V30 1159 H 105.948 -0.660592 6.42111 0
M  V30 1160 H 106.716 0.453891 8.17241 0
M  V30 1161 N 109.379 -1.50304 -0.473955 0
M  V30 1162 C 110.656 -1.51667 -1.23518 0
M  V30 1163 C 111.036 -0.259701 -2.09496 0
M  V30 1164 O 110.384 0.756986 -2.15597 0
M  V30 1165 C 110.594 -2.81082 -2.06868 0
M  V30 1166 C 111.942 -3.31631 -2.65153 0
M  V30 1167 O 112.966 -2.82384 -2.17113 0
M  V30 1168 O 111.825 -4.17471 -3.52675 0
M  V30 1169 H 108.919 -0.60822 -0.560355 0
M  V30 1170 H 111.465 -1.62592 -0.486011 0
M  V30 1171 H 110.237 -3.64041 -1.4349 0
M  V30 1172 H 109.86 -2.73146 -2.88924 0
M  V30 1173 N 110.857 0.726932 -1.39834 0
M  V30 1174 C 112.134 1.47902 -1.28001 0
M  V30 1175 C 112.514 2.1083 0.106789 0
M  V30 1176 O 111.862 1.99242 1.11869 0
M  V30 1177 C 112.072 2.52392 -2.41038 0
M  V30 1178 C 113.42 3.18546 -2.80737 0
M  V30 1179 O 114.444 2.62708 -2.40547 0
M  V30 1180 O 113.303 4.19604 -3.50135 0
M  V30 1181 H 110.397 0.657163 -0.502062 0
M  V30 1182 H 112.943 0.760071 -1.51727 0
M  V30 1183 H 111.715 2.04329 -3.33715 0
M  V30 1184 H 111.338 3.31837 -2.19021 0
M  V30 1185 N 112.336 1.25143 0.95797 0
M  V30 1186 C 113.582 1.09855 1.70469 0
M  V30 1187 C 113.915 -0.360187 1.90831 0
M  V30 1188 O 113.19 -1.26568 1.47685 0
M  V30 1189 C 113.473 1.8497 3.08963 0
M  V30 1190 C 113.326 3.38652 2.96032 0
M  V30 1191 C 114.645 1.63016 4.08795 0
M  V30 1192 H 111.764 0.400465 0.618706 0
M  V30 1193 H 114.406 1.53933 1.11376 0
M  V30 1194 H 112.556 1.47505 3.59409 0
M  V30 1195 H 114.228 3.85772 2.52938 0
M  V30 1196 H 112.471 3.66534 2.32025 0
M  V30 1197 H 113.142 3.8642 3.94187 0
M  V30 1198 H 115.618 1.95625 3.67247 0
M  V30 1199 H 114.494 2.18015 5.03747 0
M  V30 1200 H 114.755 0.570692 4.38401 0
M  V30 1201 N 113.814 -1.1601 1.06675 0
M  V30 1202 C 114.744 -2.22688 0.702307 0
M  V30 1203 C 115.725 -1.67306 -0.307032 0
M  V30 1204 O 116.91 -1.93352 -0.181305 0
M  V30 1205 C 114.04 -3.47178 0.092038 0
M  V30 1206 C 112.994 -4.15477 1.02777 0
M  V30 1207 C 112.32 -5.33963 0.28061 0
M  V30 1208 C 113.62 -4.66019 2.35846 0
M  V30 1209 H 115.314 -2.53429 1.59419 0
M  V30 1210 H 112.86 -1.21813 0.767961 0
M  V30 1211 H 114.813 -4.21037 -0.174814 0
M  V30 1212 H 113.537 -3.15749 -0.834877 0
M  V30 1213 H 112.196 -3.43549 1.27944 0
M  V30 1214 H 111.844 -4.98788 -0.649545 0
M  V30 1215 H 111.544 -5.806 0.904258 0
M  V30 1216 H 113.068 -6.10596 0.021396 0
M  V30 1217 H 114.482 -5.3144 2.15045 0
M  V30 1218 H 112.879 -5.23293 2.93743 0
M  V30 1219 H 113.949 -3.82023 2.98641 0
M  V30 1220 N 115.292 -0.849877 -1.32721 0
M  V30 1221 C 116.52 -0.464754 -2.01613 0
M  V30 1222 C 116.935 0.937191 -1.63897 0
M  V30 1223 O 116.292 1.61081 -0.857856 0
M  V30 1224 C 116.343 -0.588638 -3.56675 0
M  V30 1225 O 116.064 -1.93535 -3.93034 0
M  V30 1226 C 117.565 -0.2019 -4.4284 0
M  V30 1227 H 114.785 -0.183215 -0.645502 0
M  V30 1228 H 117.329 -1.1455 -1.69407 0
M  V30 1229 H 115.484 0.0443159 -3.87375 0
M  V30 1230 H 115.898 -1.92871 -4.87751 0
M  V30 1231 H 117.372 -0.339599 -5.50954 0
M  V30 1232 H 117.849 0.857224 -4.30753 0
M  V30 1233 H 118.455 -0.809733 -4.17521 0
M  V30 1234 N 116.77 1.45427 -0.607355 0
M  V30 1235 C 118.019 2.01452 -0.100036 0
M  V30 1236 C 118.332 1.48159 1.27704 0
M  V30 1237 O 119.538 1.96159 1.87707 0
M  V30 1238 C 117.994 3.59672 -0.128158 0
M  V30 1239 C 117.602 4.21962 -1.50507 0
M  V30 1240 C 119.346 4.23262 0.323932 0
M  V30 1241 C 117.253 5.72333 -1.48959 0
M  V30 1242 H 116.183 0.75325 -0.0336299 0
M  V30 1243 H 118.834 1.66901 -0.76265 0
M  V30 1244 H 117.216 3.91411 0.601105 0
M  V30 1245 H 118.39 4.01796 -2.25602 0
M  V30 1246 H 116.705 3.70565 -1.89923 0
M  V30 1247 H 119.302 5.33522 0.354691 0
M  V30 1248 H 119.645 3.93921 1.34656 0
M  V30 1249 H 120.178 3.96239 -0.352056 0
M  V30 1250 H 116.917 6.06373 -2.48981 0
M  V30 1251 H 116.437 5.94691 -0.781214 0
M  V30 1252 H 118.116 6.35525 -1.21313 0
M  V30 1253 N 118.248 0.346503 1.53744 0
M  V30 1254 C 119.158 -0.517293 2.28826 0
M  V30 1255 C 120.174 -1.10935 1.3405 0
M  V30 1256 O 121.35 -1.1244 1.6709 0
M  V30 1257 C 118.415 -1.65098 3.04866 0
M  V30 1258 C 117.476 -1.0884 4.15274 0
M  V30 1259 C 116.709 -2.16806 4.87679 0
M  V30 1260 O 116.932 -3.3758 4.59778 0
M  V30 1261 O 115.866 -1.80934 5.74061 0
M  V30 1262 H 119.692 0.0931396 3.03557 0
M  V30 1263 H 117.277 0.111458 1.48984 0
M  V30 1264 H 119.159 -2.31053 3.5241 0
M  V30 1265 H 117.834 -2.24717 2.32989 0
M  V30 1266 H 116.741 -0.3933 3.72027 0
M  V30 1267 H 118.074 -0.537036 4.89261 0
M  V30 1268 N 119.726 -1.57421 0.075193 0
M  V30 1269 C 120.954 -1.97946 -0.602076 0
M  V30 1270 C 121.369 -0.953674 -1.62943 0
M  V30 1271 O 120.726 0.0592551 -1.82404 0
M  V30 1272 C 120.777 -3.38546 -1.26762 0
M  V30 1273 O 120.498 -4.37195 -0.281376 0
M  V30 1274 C 121.999 -3.93966 -2.03239 0
M  V30 1275 H 119.219 -0.650918 -0.162931 0
M  V30 1276 H 121.763 -2.03959 0.148601 0
M  V30 1277 H 119.918 -3.33609 -1.96936 0
M  V30 1278 H 120.332 -5.18975 -0.759267 0
M  V30 1279 H 121.806 -4.94555 -2.45193 0
M  V30 1280 H 122.283 -3.30693 -2.8903 0
M  V30 1281 H 122.889 -4.02315 -1.37924 0
M  V30 1282 N 121.204 0.198386 -1.56346 0
M  V30 1283 C 122.444 0.92609 -1.82217 0
M  V30 1284 C 122.808 1.80584 -0.652195 0
M  V30 1285 O 124.009 2.56907 -0.790716 0
M  V30 1286 C 122.28 1.72354 -3.13096 0
M  V30 1287 S 123.839 2.50371 -3.6036 0
M  V30 1288 H 120.657 0.310677 -0.639532 0
M  V30 1289 H 123.259 0.189755 -1.94577 0
M  V30 1290 H 121.963 1.0678 -3.96265 0
M  V30 1291 H 121.494 2.50175 -3.03605 0
M  V30 1292 H 123.509 3.74488 -3.25535 0
M  V30 1293 N 122.682 1.50554 0.465978 0
M  V30 1294 C 123.931 1.61038 1.21448 0
M  V30 1295 C 124.244 0.31865 1.92987 0
M  V30 1296 O 125.45 0.302469 2.6981 0
M  V30 1297 C 123.906 2.84283 2.20706 0
M  V30 1298 C 123.514 4.20352 1.54946 0
M  V30 1299 C 125.258 3.04115 2.96166 0
M  V30 1300 C 123.165 5.34778 2.5252 0
M  V30 1301 H 122.095 0.599718 0.457005 0
M  V30 1302 H 124.746 1.7699 0.484424 0
M  V30 1303 H 123.128 2.61901 2.97025 0
M  V30 1304 H 124.302 4.53008 0.843811 0
M  V30 1305 H 122.617 4.06167 0.917475 0
M  V30 1306 H 125.214 3.86774 3.69202 0
M  V30 1307 H 125.557 2.16045 3.55852 0
M  V30 1308 H 126.09 3.26702 2.26959 0
M  V30 1309 H 122.829 6.25018 1.97566 0
M  V30 1310 H 122.349 5.06534 3.21222 0
M  V30 1311 H 124.028 5.65561 3.14245 0
M  V30 1312 N 124.16 -0.719506 1.40217 0
M  V30 1313 C 125.107 -1.83359 1.40172 0
M  V30 1314 C 126.077 -1.64065 0.259206 0
M  V30 1315 O 127.262 -1.85254 0.456677 0
M  V30 1316 C 124.402 -3.2103 1.26624 0
M  V30 1317 C 123.515 -3.51923 2.50548 0
M  V30 1318 C 122.65 -4.79079 2.29471 0
M  V30 1319 C 121.689 -5.02863 3.48992 0
M  V30 1320 N 120.826 -6.2123 3.27135 0
M  V30 1321 H 125.666 -1.82733 2.35399 0
M  V30 1322 H 123.203 -0.892688 1.16917 0
M  V30 1323 H 125.161 -4.00524 1.16776 0
M  V30 1324 H 123.791 -3.20895 0.350176 0
M  V30 1325 H 122.843 -2.67014 2.70939 0
M  V30 1326 H 124.155 -3.6541 3.39525 0
M  V30 1327 H 123.309 -5.66582 2.16955 0
M  V30 1328 H 122.048 -4.67794 1.37913 0
M  V30 1329 H 121.053 -4.13816 3.6199 0
M  V30 1330 H 122.278 -5.16023 4.41472 0
M  V30 1331 H 120.224 -6.11204 2.38256 0
M  V30 1332 H 120.141 -6.35375 4.09675 0
M  V30 1333 H 121.409 -7.11532 3.18344 0
M  V30 1334 N 125.638 -1.25649 -0.95132 0
M  V30 1335 C 126.548 -1.08073 -2.08224 0
M  V30 1336 C 127.564 -0.0169666 -1.73992 0
M  V30 1337 O 128.74 -0.218593 -2.0021 0
M  V30 1338 C 125.805 -0.704922 -3.39458 0
M  V30 1339 C 124.866 -1.84699 -3.87537 0
M  V30 1340 C 124.099 -1.48902 -5.12508 0
M  V30 1341 O 124.322 -0.386156 -5.69091 0
M  V30 1342 O 123.256 -2.32033 -5.55378 0
M  V30 1343 H 127.082 -2.02924 -2.25954 0
M  V30 1344 H 124.667 -1.04618 -1.06656 0
M  V30 1345 H 126.549 -0.507609 -4.18332 0
M  V30 1346 H 125.224 0.214291 -3.2299 0
M  V30 1347 H 124.131 -2.09919 -3.09653 0
M  V30 1348 H 125.464 -2.74557 -4.08509 0
M  V30 1349 N 127.117 1.15442 -1.07289 0
M  V30 1350 C 128.363 1.8672 -0.806679 0
M  V30 1351 C 128.718 1.80723 0.660084 0
M  V30 1352 O 128.011 1.21902 1.47819 0
M  V30 1353 C 128.205 3.3489 -1.24834 0
M  V30 1354 C 128.034 3.55313 -2.7565 0
M  V30 1355 C 126.804 3.7082 -3.4325 0
M  V30 1356 C 129.002 3.53188 -3.73848 0
M  V30 1357 N 126.984 3.7929 -4.82713 0
M  V30 1358 C 128.355 3.67765 -4.99149 0
M  V30 1359 C 130.41 3.36459 -3.67015 0
M  V30 1360 C 129.113 3.6734 -6.18428 0
M  V30 1361 C 131.139 3.37333 -4.85758 0
M  V30 1362 C 130.501 3.52438 -6.09891 0
M  V30 1363 H 126.6 0.700433 -0.347733 0
M  V30 1364 H 129.184 1.38441 -1.36902 0
M  V30 1365 H 127.355 3.81786 -0.713713 0
M  V30 1366 H 129.087 3.93875 -0.929745 0
M  V30 1367 H 125.842 3.71568 -2.93656 0
M  V30 1368 H 126.266 3.8727 -5.55294 0
M  V30 1369 H 130.908 3.237 -2.71989 0
M  V30 1370 H 128.626 3.78878 -7.13777 0
M  V30 1371 H 132.212 3.25617 -4.82146 0
M  V30 1372 H 131.092 3.53047 -7.00234 0
M  V30 1373 N 128.595 0.856903 1.32268 0
M  V30 1374 C 130.011 0.547061 1.49931 0
M  V30 1375 C 130.211 -0.921781 1.7918 0
M  V30 1376 O 129.267 -1.70469 1.8627 0
M  V30 1377 C 130.58 1.43599 2.64196 0
M  V30 1378 C 132.128 1.43665 2.78081 0
M  V30 1379 C 132.603 2.31085 3.95428 0
M  V30 1380 N 134.094 2.28893 4.02694 0
M  V30 1381 C 134.829 2.93262 4.92732 0
M  V30 1382 N 134.325 3.66751 5.87763 0
M  V30 1383 N 136.118 2.82638 4.85873 0
M  V30 1384 H 128.269 1.8075 1.11549 0
M  V30 1385 H 130.532 0.772144 0.549997 0
M  V30 1386 H 130.238 2.48058 2.49319 0
M  V30 1387 H 130.112 1.12502 3.60032 0
M  V30 1388 H 132.499 0.399701 2.92381 0
M  V30 1389 H 132.58 1.7878 1.82952 0
M  V30 1390 H 132.224 3.34849 3.81888 0
M  V30 1391 H 132.154 1.93302 4.89839 0
M  V30 1392 H 134.645 1.75466 3.34694 0
M  V30 1393 H 134.958 4.13027 6.53168 0
M  V30 1394 H 133.303 3.70859 5.87783 0
M  V30 1395 H 136.494 2.24774 4.10602 0
M  V30 1396 H 136.667 3.33084 5.55841 0
M  V30 1397 N 130.073 -1.45103 0.615059 0
M  V30 1398 C 131.489 -1.57137 0.279322 0
M  V30 1399 C 131.689 -1.60523 -1.21797 0
M  V30 1400 O 130.745 -1.53956 -2.00134 0
M  V30 1401 C 132.058 -2.85062 0.957083 0
M  V30 1402 C 133.606 -2.98749 0.933706 0
M  V30 1403 C 134.081 -4.29455 1.59162 0
M  V30 1404 N 135.572 -4.36231 1.55746 0
M  V30 1405 C 136.307 -5.36051 2.0356 0
M  V30 1406 N 135.803 -6.42367 2.59494 0
M  V30 1407 N 137.596 -5.27456 1.94284 0
M  V30 1408 H 129.747 -1.41148 1.58717 0
M  V30 1409 H 132.01 -0.675331 0.665306 0
M  V30 1410 H 131.716 -2.88488 2.01166 0
M  V30 1411 H 131.59 -3.7407 0.48494 0
M  V30 1412 H 133.977 -2.94886 -0.112347 0
M  V30 1413 H 134.058 -2.11132 1.44419 0
M  V30 1414 H 133.702 -4.34077 2.63704 0
M  V30 1415 H 133.632 -5.15901 1.0561 0
M  V30 1416 H 136.123 -3.60011 1.14893 0
M  V30 1417 H 136.436 -7.14793 2.93752 0
M  V30 1418 H 134.781 -6.43097 2.63537 0
M  V30 1419 H 137.972 -4.43308 1.5032 0
M  V30 1420 H 138.145 -6.05099 2.3186 0
M  V30 1421 N 131.551 -0.354651 -1.53558 0
M  V30 1422 C 132.498 0.496968 -2.25386 0
M  V30 1423 C 133.468 1.0865 -1.25636 0
M  V30 1424 O 134.653 1.12104 -1.54394 0
M  V30 1425 C 131.793 1.63637 -3.03837 0
M  V30 1426 C 130.906 1.07307 -4.18461 0
M  V30 1427 C 130.041 2.18068 -4.84376 0
M  V30 1428 C 129.08 1.59147 -5.91049 0
M  V30 1429 N 128.217 2.63695 -6.50699 0
M  V30 1430 H 133.057 -0.122075 -2.9775 0
M  V30 1431 H 130.594 -0.0720154 -1.46924 0
M  V30 1432 H 132.552 2.30734 -3.47589 0
M  V30 1433 H 131.182 2.22623 -2.33749 0
M  V30 1434 H 130.234 0.292708 -3.79272 0
M  V30 1435 H 131.546 0.602193 -4.95152 0
M  V30 1436 H 130.7 2.93007 -5.31255 0
M  V30 1437 H 129.439 2.68504 -4.07133 0
M  V30 1438 H 128.444 0.827175 -5.43542 0
M  V30 1439 H 129.669 1.09549 -6.70206 0
M  V30 1440 H 127.615 3.13365 -5.76315 0
M  V30 1441 H 127.532 2.21263 -7.22896 0
M  V30 1442 H 128.8 3.3837 -7.02229 0
M  V30 1443 N 133.029 1.57378 -0.0835403 0
M  V30 1444 C 134.254 1.98682 0.594987 0
M  V30 1445 C 134.679 0.961969 1.61641 0
M  V30 1446 O 134.037 -0.0709989 1.81161 0
M  V30 1447 C 134.085 3.38988 1.2296 0
M  V30 1448 O 133.189 3.39208 2.34546 0
M  V30 1449 H 132.53 0.646368 0.152002 0
M  V30 1450 H 135.06 2.03961 -0.161533 0
M  V30 1451 H 135.07 3.76431 1.57366 0
M  V30 1452 H 133.745 4.13107 0.481228 0
M  V30 1453 H 132.322 3.13548 2.01846 0
M  V30 1454 N 134.507 -0.190092 1.56449 0
M  V30 1455 C 135.754 -0.909705 1.80916 0
M  V30 1456 C 136.082 -1.83047 0.657583 0
M  V30 1457 O 135.337 -1.92428 -0.356356 0
M  V30 1458 C 135.636 -1.75382 3.1141 0
M  V30 1459 C 135.302 -0.983606 4.40041 0
M  V30 1460 C 133.964 -0.770967 4.74984 0
M  V30 1461 C 136.316 -0.442024 5.19322 0
M  V30 1462 C 133.644 -0.0053448 5.867 0
M  V30 1463 C 135.996 0.310412 6.31838 0
M  V30 1464 C 134.66 0.534023 6.6536 0
M  V30 1465 H 133.93 -0.332885 0.662019 0
M  V30 1466 H 136.577 -0.175762 1.90692 0
M  V30 1467 H 134.882 -2.55659 2.96893 0
M  V30 1468 H 136.579 -2.31331 3.27547 0
M  V30 1469 H 133.169 -1.15936 4.12622 0
M  V30 1470 H 137.353 -0.593693 4.92736 0
M  V30 1471 H 132.609 0.177825 6.11141 0
M  V30 1472 H 136.783 0.737419 6.92485 0
M  V30 1473 H 134.41 1.12918 7.51767 0
M  V30 1474 N 135.985 -1.50799 -0.457987 0
M  V30 1475 C 137.231 -1.62683 -1.21088 0
M  V30 1476 C 137.564 -0.332268 -1.91336 0
M  V30 1477 O 136.839 0.667043 -1.82704 0
M  V30 1478 C 137.122 -2.81615 -2.24422 0
M  V30 1479 C 136.975 -4.20989 -1.58392 0
M  V30 1480 C 138.294 -2.96085 -3.2561 0
M  V30 1481 H 135.413 -0.592087 -0.438864 0
M  V30 1482 H 138.055 -1.83225 -0.50286 0
M  V30 1483 H 136.205 -2.64231 -2.84806 0
M  V30 1484 H 137.877 -4.49994 -1.01504 0
M  V30 1485 H 136.12 -4.24641 -0.886704 0
M  V30 1486 H 136.791 -5.0016 -2.33547 0
M  V30 1487 H 139.267 -3.12042 -2.75262 0
M  V30 1488 H 138.143 -3.80902 -3.95228 0
M  V30 1489 H 138.404 -2.0726 -3.90507 0
M  V30 1490 N 137.463 0.71206 -1.40597 0
M  V30 1491 C 138.395 1.83704 -1.37061 0
M  V30 1492 C 139.408 1.60453 -0.275426 0
M  V30 1493 O 140.597 1.70262 -0.53602 0
M  V30 1494 C 137.697 3.20172 -1.11099 0
M  V30 1495 C 136.87 3.7059 -2.3234 0
M  V30 1496 C 135.929 4.85681 -2.02485 0
M  V30 1497 O 134.955 4.9815 -2.75382 0
M  V30 1498 N 136.157 5.71735 -1.00497 0
M  V30 1499 H 138.922 1.87235 -2.34016 0
M  V30 1500 H 136.483 0.893739 -1.34996 0
M  V30 1501 H 138.475 3.94768 -0.891064 0
M  V30 1502 H 137.045 3.11767 -0.227989 0
M  V30 1503 H 136.265 2.87085 -2.7014 0
M  V30 1504 H 137.553 4.01011 -3.13157 0
M  V30 1505 H 136.951 5.64275 -0.401298 0
M  V30 1506 H 135.508 6.463 -0.844942 0
M  V30 1507 N 138.941 1.26152 0.944643 0
M  V30 1508 C 140.357 1.03189 1.21754 0
M  V30 1509 C 140.557 -0.245112 2.00004 0
M  V30 1510 O 139.613 -0.955176 2.33736 0
M  V30 1511 C 140.926 2.26119 1.98219 0
M  V30 1512 C 142.474 2.30984 2.11224 0
M  V30 1513 C 142.949 3.53597 2.91089 0
M  V30 1514 N 144.44 3.54053 2.98664 0
M  V30 1515 C 145.175 4.45593 3.60881 0
M  V30 1516 N 144.671 5.47416 4.24626 0
M  V30 1517 N 146.464 4.33252 3.58119 0
M  V30 1518 H 138.615 2.08177 0.421437 0
M  V30 1519 H 140.878 0.914723 0.248969 0
M  V30 1520 H 140.584 3.18984 1.48128 0
M  V30 1521 H 140.458 2.3009 2.98895 0
M  V30 1522 H 142.845 1.38635 2.60508 0
M  V30 1523 H 142.926 2.31026 1.09821 0
M  V30 1524 H 142.57 4.46273 2.42493 0
M  V30 1525 H 142.5 3.50802 3.92741 0
M  V30 1526 H 144.991 2.80403 2.53343 0
M  V30 1527 H 145.304 6.13459 4.69987 0
M  V30 1528 H 143.649 5.51278 4.23223 0
M  V30 1529 H 146.84 3.52924 3.0751 0
M  V30 1530 H 147.013 5.04786 4.06319 0
M  V30 1531 N 140.419 -1.14872 1.07899 0
M  V30 1532 C 141.369 -2.17809 0.674027 0
M  V30 1533 C 142.353 -1.58008 -0.303699 0
M  V30 1534 O 143.545 -1.76616 -0.11654 0
M  V30 1535 C 140.674 -3.43208 0.0793318 0
M  V30 1536 C 139.76 -4.10051 1.08253 0
M  V30 1537 N 140.151 -4.52296 2.2641 0
M  V30 1538 C 138.449 -4.36469 0.917124 0
M  V30 1539 C 139.15 -5.04199 2.901 0
M  V30 1540 N 138.126 -4.98088 2.17736 0
M  V30 1541 H 141.928 -2.48207 1.57386 0
M  V30 1542 H 139.442 -1.315 0.952976 0
M  V30 1543 H 141.439 -4.16272 -0.228719 0
M  V30 1544 H 140.099 -3.14291 -0.815551 0
M  V30 1545 H 141.11 -4.45504 2.64096 0
M  V30 1546 H 137.787 -4.17432 0.0756078 0
M  V30 1547 H 139.177 -5.46802 3.90458 0
M  V30 1548 N 141.898 -0.863906 -1.31812 0
M  V30 1549 C 143.123 -0.48527 -2.01643 0
M  V30 1550 C 143.548 0.913058 -1.64453 0
M  V30 1551 O 142.906 1.6014 -0.849985 0
M  V30 1552 C 142.954 -0.642625 -3.54828 0
M  V30 1553 O 142.058 0.320659 -4.11151 0
M  V30 1554 H 141.399 -0.193793 -0.635091 0
M  V30 1555 H 143.929 -1.16565 -1.68148 0
M  V30 1556 H 143.939 -0.533628 -4.04495 0
M  V30 1557 H 142.614 -1.66227 -3.81237 0
M  V30 1558 H 141.191 0.167126 -3.72525 0
M  V30 1559 N 143.376 1.44774 -0.622745 0
M  V30 1560 C 144.622 2.0242 -0.124083 0
M  V30 1561 C 144.955 1.4881 1.24777 0
M  V30 1562 O 144.23 0.668799 1.8264 0
M  V30 1563 C 144.513 3.59957 -0.101619 0
M  V30 1564 C 144.366 4.23867 -1.50521 0
M  V30 1565 C 145.685 4.36284 0.578272 0
M  V30 1566 H 142.804 0.735528 -0.0465645 0
M  V30 1567 H 145.446 1.72447 -0.797617 0
M  V30 1568 H 143.596 3.85623 0.471934 0
M  V30 1569 H 145.268 4.09336 -2.12701 0
M  V30 1570 H 143.511 3.81684 -2.06154 0
M  V30 1571 H 144.182 5.32843 -1.4416 0
M  V30 1572 H 146.658 4.16001 0.0906057 0
M  V30 1573 H 145.534 5.46004 0.563149 0
M  V30 1574 H 145.795 4.10271 1.64713 0
M  V30 1575 N 144.854 0.36279 1.53368 0
M  V30 1576 C 146.079 -0.231226 2.06107 0
M  V30 1577 C 146.504 -1.419 1.23474 0
M  V30 1578 O 145.862 -1.79524 0.253128 0
M  V30 1579 C 145.91 -0.605523 3.5548 0
M  V30 1580 O 145.014 -1.70312 3.7559 0
M  V30 1581 H 144.355 -0.034327 0.663112 0
M  V30 1582 H 146.885 0.522584 1.97814 0
M  V30 1583 H 146.895 -0.877314 3.98456 0
M  V30 1584 H 145.57 0.263004 4.15068 0
M  V30 1585 H 144.147 -1.4271 3.44512 0
M  V30 1586 N 146.332 -1.57332 0.0918853 0
M  V30 1587 C 147.748 -1.57389 -0.264766 0
M  V30 1588 C 147.948 -1.10281 -1.68643 0
M  V30 1589 O 147.004 -0.777801 -2.40222 0
M  V30 1590 C 148.317 -3.00648 -0.0561195 0
M  V30 1591 C 149.865 -3.12754 -0.124116 0
M  V30 1592 C 150.34 -4.57965 0.0564972 0
M  V30 1593 N 151.831 -4.632 0.00155611 0
M  V30 1594 C 152.566 -5.73281 0.116598 0
M  V30 1595 N 152.062 -6.92208 0.286294 0
M  V30 1596 N 153.855 -5.6207 0.0580973 0
M  V30 1597 H 146.006 -1.86262 1.02079 0
M  V30 1598 H 148.269 -0.859579 0.399786 0
M  V30 1599 H 147.975 -3.393 0.925669 0
M  V30 1600 H 147.849 -3.68623 -0.799823 0
M  V30 1601 H 150.236 -2.73976 -1.09641 0
M  V30 1602 H 150.317 -2.47377 0.651024 0
M  V30 1603 H 149.961 -4.97436 1.02564 0
M  V30 1604 H 149.891 -5.21399 -0.738297 0
M  V30 1605 H 152.382 -3.77686 -0.127192 0
M  V30 1606 H 152.695 -7.71934 0.365676 0
M  V30 1607 H 151.04 -6.94254 0.32192 0
M  V30 1608 H 154.231 -4.68043 -0.0733204 0
M  V30 1609 H 154.404 -6.47824 0.151203 0
M  V30 1610 N 147.81 0.181792 -1.56548 0
M  V30 1611 C 149.038 0.915947 -1.85521 0
M  V30 1612 C 149.453 1.76282 -0.676016 0
M  V30 1613 O 148.81 1.79012 0.355077 0
M  V30 1614 C 148.861 1.80126 -3.13427 0
M  V30 1615 O 148.582 0.988562 -4.26801 0
M  V30 1616 C 150.083 2.64597 -3.55673 0
M  V30 1617 H 147.303 0.26661 -0.61576 0
M  V30 1618 H 149.847 0.185039 -2.03661 0
M  V30 1619 H 148.002 2.48563 -2.97145 0
M  V30 1620 H 148.416 1.59308 -4.99721 0
M  V30 1621 H 149.89 3.2235 -4.48101 0
M  V30 1622 H 150.367 3.38958 -2.79292 0
M  V30 1623 H 150.973 2.0151 -3.74532 0
M  V30 1624 N 149.288 1.51039 0.449983 0
M  V30 1625 C 150.516 1.66869 1.2232 0
M  V30 1626 C 150.931 0.360727 1.85322 0
M  V30 1627 O 150.288 -0.659531 1.70166 0
M  V30 1628 C 150.339 2.77524 2.31652 0
M  V30 1629 O 150.06 4.03252 1.7123 0
M  V30 1630 C 151.561 3.04512 3.2216 0
M  V30 1631 H 148.781 0.560326 0.369155 0
M  V30 1632 H 151.325 1.97385 0.534719 0
M  V30 1633 H 149.48 2.49642 2.96239 0
M  V30 1634 H 149.894 4.64609 2.43389 0
M  V30 1635 H 151.368 3.85551 3.95038 0
M  V30 1636 H 151.845 2.16415 3.8218 0
M  V30 1637 H 152.451 3.34005 2.63288 0
M  V30 1638 N 150.766 -0.704594 1.40972 0
M  V30 1639 C 152.177 -1.28418 1.3552 0
M  V30 1640 C 152.528 -1.96171 0.0339434 0
M  V30 1641 O 151.653 -1.98231 -0.867944 0
M  V30 1642 C 152.248 -2.33528 2.45459 0
M  V30 1643 C 150.807 -2.87085 2.43433 0
M  V30 1644 C 149.954 -1.61007 2.2577 0
M  V30 1645 H 152.905 -0.499963 1.50619 0
M  V30 1646 H 152.926 -3.14619 2.13998 0
M  V30 1647 H 152.438 -1.84187 3.41609 0
M  V30 1648 H 150.539 -3.40626 1.51013 0
M  V30 1649 H 150.652 -3.3813 3.39419 0
M  V30 1650 H 149.016 -1.86482 1.73483 0
M  V30 1651 H 149.799 -1.13675 3.23933 0
M  V30 1652 N 152.244 -1.26651 -0.937939 0
M  V30 1653 C 153.492 -1.12165 -1.68118 0
M  V30 1654 C 153.813 0.334983 -1.92101 0
M  V30 1655 O 153.083 1.23583 -1.52 0
M  V30 1656 H 151.663 -0.412093 -0.623048 0
M  V30 1657 H 154.325 -1.59027 -1.12678 0
M  V30 1658 H 153.421 -1.64289 -2.6536 0
M  V30 1659 N 153.722 1.14298 -1.08507 0
M  V30 1660 C 154.97 1.84993 -0.813763 0
M  V30 1661 C 155.291 1.83405 0.662393 0
M  V30 1662 O 154.561 1.28319 1.48024 0
M  V30 1663 H 153.141 0.684966 -0.298045 0
M  V30 1664 H 155.803 1.385 -1.37126 0
M  V30 1665 H 154.899 2.89788 -1.15884 0
M  V30 1666 N 155.201 0.870884 1.31352 0
M  V30 1667 C 156.478 0.402907 1.91405 0
M  V30 1668 C 156.858 -1.11512 1.79244 0
M  V30 1669 O 156.206 -1.94411 1.2007 0
M  V30 1670 C 156.416 0.885301 3.37585 0
M  V30 1671 C 157.764 0.911971 4.14691 0
M  V30 1672 O 158.788 0.831016 3.46371 0
M  V30 1673 O 157.647 1.02927 5.3672 0
M  V30 1674 H 154.741 0.120698 0.818145 0
M  V30 1675 H 157.287 0.958857 1.40014 0
M  V30 1676 H 156.059 1.92889 3.40455 0
M  V30 1677 H 155.682 0.307714 3.96407 0
M  V30 1678 N 156.679 -1.44442 0.630414 0
M  V30 1679 C 157.925 -2.02351 0.134816 0
M  V30 1680 C 158.258 -1.4947 -1.23986 0
M  V30 1681 O 157.533 -0.678475 -1.82283 0
M  V30 1682 C 157.816 -3.59898 0.120707 0
M  V30 1683 C 157.669 -4.23063 1.52767 0
M  V30 1684 C 158.988 -4.36585 -0.555127 0
M  V30 1685 H 156.107 -0.73527 0.0504646 0
M  V30 1686 H 158.749 -1.72022 0.806751 0
M  V30 1687 H 156.899 -3.85868 -0.451477 0
M  V30 1688 H 158.571 -4.08202 2.14869 0
M  V30 1689 H 156.814 -3.80586 2.08175 0
M  V30 1690 H 157.485 -5.32071 1.46984 0
M  V30 1691 H 159.961 -4.16044 -0.0685429 0
M  V30 1692 H 158.837 -5.46294 -0.534185 0
M  V30 1693 H 159.098 -4.11138 -1.62535 0
M  V30 1694 N 158.157 -0.370918 -1.53173 0
M  V30 1695 C 159.089 0.507823 -2.23503 0
M  V30 1696 C 160.102 1.04182 -1.251 0
M  V30 1697 O 161.291 0.947286 -1.5129 0
M  V30 1698 C 158.391 1.71447 -2.92334 0
M  V30 1699 C 157.564 1.31105 -4.17289 0
M  V30 1700 C 156.623 2.38035 -4.69282 0
M  V30 1701 O 155.649 2.00204 -5.32829 0
M  V30 1702 N 156.851 3.69697 -4.47554 0
M  V30 1703 H 159.616 -0.0946382 -2.99551 0
M  V30 1704 H 157.177 -0.196358 -1.60705 0
M  V30 1705 H 159.169 2.42469 -3.24023 0
M  V30 1706 H 157.739 2.22368 -2.19707 0
M  V30 1707 H 156.959 0.430462 -3.91843 0
M  V30 1708 H 158.247 1.0179 -4.98514 0
M  V30 1709 H 157.645 4.03205 -3.9679 0
M  V30 1710 H 156.202 4.36807 -4.8378 0
M  V30 1711 N 159.635 1.57281 -0.100228 0
M  V30 1712 C 160.565 2.17328 0.853857 0
M  V30 1713 C 161.546 1.10804 1.2906 0
M  V30 1714 O 162.731 1.38963 1.35657 0
M  V30 1715 C 159.861 2.75772 2.11109 0
M  V30 1716 C 158.815 3.87713 1.81279 0
M  V30 1717 C 158.141 4.32882 3.13874 0
M  V30 1718 C 159.441 5.10677 1.09574 0
M  V30 1719 H 161.135 2.97305 0.353545 0
M  V30 1720 H 158.681 1.43009 0.168612 0
M  V30 1721 H 160.634 3.16433 2.78296 0
M  V30 1722 H 159.358 1.93057 2.63432 0
M  V30 1723 H 158.017 3.476 1.16489 0
M  V30 1724 H 157.665 3.47051 3.64095 0
M  V30 1725 H 157.365 5.08358 2.94696 0
M  V30 1726 H 158.889 4.7618 3.82211 0
M  V30 1727 H 160.303 5.48474 1.66879 0
M  V30 1728 H 158.7 5.91615 1.00557 0
M  V30 1729 H 159.77 4.84835 0.0793299 0
M  V30 1730 N 161.113 -0.173488 1.56642 0
M  V30 1731 C 162.359 -0.891784 1.8214 0
M  V30 1732 C 162.692 -1.8199 0.677736 0
M  V30 1733 O 161.967 -1.91842 -0.320446 0
M  V30 1734 C 162.25 -1.68933 3.18015 0
M  V30 1735 C 162.103 -0.784487 4.42906 0
M  V30 1736 C 163.422 -2.65748 3.50808 0
M  V30 1737 H 160.541 -0.322761 0.662567 0
M  V30 1738 H 163.183 -0.158095 1.89341 0
M  V30 1739 H 161.333 -2.31482 3.12007 0
M  V30 1740 H 163.005 -0.172046 4.60979 0
M  V30 1741 H 161.248 -0.0924117 4.33702 0
M  V30 1742 H 161.919 -1.37799 5.34524 0
M  V30 1743 H 164.395 -2.13327 3.57255 0
M  V30 1744 H 163.271 -3.18619 4.4696 0
M  V30 1745 H 163.532 -3.45842 2.75401 0
M  V30 1746 N 162.591 -1.51276 -0.441967 0
M  V30 1747 C 163.524 -1.66933 -1.55591 0
M  V30 1748 C 164.502 -0.516958 -1.54163 0
M  V30 1749 O 165.686 -0.740209 -1.73358 0
M  V30 1750 C 162.813 -1.67866 -2.94174 0
M  V30 1751 C 161.859 -2.89013 -3.13646 0
M  V30 1752 S 162.692 -4.49897 -2.90436 0
M  V30 1753 C 163.848 -4.53568 -4.31308 0
M  V30 1754 H 164.081 -2.61155 -1.42076 0
M  V30 1755 H 161.614 -1.40902 -0.631341 0
M  V30 1756 H 163.572 -1.69089 -3.74058 0
M  V30 1757 H 162.233 -0.748296 -3.05056 0
M  V30 1758 H 161.426 -2.86054 -4.14957 0
M  V30 1759 H 161.028 -2.85509 -2.4158 0
M  V30 1760 H 163.32 -4.28924 -5.24434 0
M  V30 1761 H 164.263 -5.55355 -4.39303 0
M  V30 1762 H 164.671 -3.82943 -4.14747 0
M  V30 1763 N 164.069 0.697108 -1.41344 0
M  V30 1764 C 165.485 1.00751 -1.2378 0
M  V30 1765 C 165.685 2.01105 -0.126066 0
M  V30 1766 O 164.741 2.47295 0.51004 0
M  V30 1767 C 166.054 1.53359 -2.58653 0
M  V30 1768 C 167.602 1.6525 -2.65822 0
M  V30 1769 C 168.077 2.2126 -4.01009 0
M  V30 1770 N 169.568 2.28622 -4.02847 0
M  V30 1771 C 170.303 2.72984 -5.04249 0
M  V30 1772 N 169.799 3.16962 -6.16041 0
M  V30 1773 N 171.592 2.72534 -4.91611 0
M  V30 1774 H 163.743 0.0322662 -2.12375 0
M  V30 1775 H 166.006 0.0768853 -0.944877 0
M  V30 1776 H 165.712 0.870773 -3.4075 0
M  V30 1777 H 165.586 2.51597 -2.81032 0
M  V30 1778 H 167.973 2.30644 -1.84086 0
M  V30 1779 H 168.054 0.655614 -2.47256 0
M  V30 1780 H 167.698 1.56482 -4.83193 0
M  V30 1781 H 167.628 3.21698 -4.16915 0
M  V30 1782 H 170.119 1.97585 -3.22131 0
M  V30 1783 H 170.432 3.49434 -6.89287 0
M  V30 1784 H 168.777 3.14875 -6.1958 0
M  V30 1785 H 171.968 2.37525 -4.0336 0
M  V30 1786 H 172.141 3.06789 -5.70775 0
M  V30 1787 N 165.547 1.27147 0.931209 0
M  V30 1788 C 166.51 1.09615 2.01289 0
M  V30 1789 C 167.51 0.0412581 1.60747 0
M  V30 1790 O 168.7 0.285545 1.71844 0
M  V30 1791 C 165.832 0.669447 3.34262 0
M  V30 1792 H 167.025 2.05662 2.18273 0
M  V30 1793 H 164.578 1.09885 1.11153 0
M  V30 1794 H 165.313 -0.292572 3.22978 0
M  V30 1795 H 165.098 1.43127 3.65044 0
M  V30 1796 H 166.588 0.568921 4.13706 0
M  V30 1797 N 167.025 -1.13721 1.09112 0
M  V30 1798 C 168.302 -1.81155 0.737706 0
M  V30 1799 C 168.682 -1.96253 -0.777683 0
M  V30 1800 O 168.03 -1.52807 -1.69889 0
M  V30 1801 C 168.24 -3.16392 1.47299 0
M  V30 1802 C 169.588 -3.91787 1.63671 0
M  V30 1803 O 170.612 -3.26005 1.43524 0
M  V30 1804 O 169.471 -5.0977 1.96969 0
M  V30 1805 H 166.565 -0.783518 0.26463 0
M  V30 1806 H 169.111 -1.20676 1.19312 0
M  V30 1807 H 167.883 -3.0061 2.50498 0
M  V30 1808 H 167.506 -3.8457 1.00953 0
M  V30 1809 N 168.503 -0.877838 -1.30888 0
M  V30 1810 C 169.413 -0.343096 -2.32078 0
M  V30 1811 C 170.429 0.551022 -1.65045 0
M  V30 1812 O 171.605 0.445854 -1.96403 0
M  V30 1813 C 168.67 0.439905 -3.43898 0
M  V30 1814 C 167.731 -0.483111 -4.26573 0
M  V30 1815 C 166.964 0.262616 -5.33053 0
M  V30 1816 O 167.187 1.48967 -5.50604 0
M  V30 1817 O 166.121 -0.383593 -6.00676 0
M  V30 1818 H 169.947 -1.18203 -2.79753 0
M  V30 1819 H 167.532 -0.64145 -1.34929 0
M  V30 1820 H 169.414 0.883504 -4.12034 0
M  V30 1821 H 168.089 1.25526 -2.98371 0
M  V30 1822 H 166.996 -0.975374 -3.61161 0
M  V30 1823 H 168.329 -1.26427 -4.75686 0
M  V30 1824 N 169.982 1.44106 -0.638065 0
M  V30 1825 C 171.231 2.01194 -0.142744 0
M  V30 1826 C 171.544 1.50835 1.24532 0
M  V30 1827 O 172.75 2.00096 1.83504 0
M  V30 1828 C 171.206 3.59319 -0.20442 0
M  V30 1829 C 170.814 4.18674 -1.59423 0
M  V30 1830 C 172.558 4.23854 0.234079 0
M  V30 1831 C 170.465 5.69045 -1.61065 0
M  V30 1832 H 169.395 0.752367 -0.0495998 0
M  V30 1833 H 172.046 1.65246 -0.797881 0
M  V30 1834 H 170.428 3.92598 0.517946 0
M  V30 1835 H 171.602 3.96921 -2.34074 0
M  V30 1836 H 169.917 3.66453 -1.97741 0
M  V30 1837 H 172.514 5.34155 0.241443 0
M  V30 1838 H 172.857 3.96688 1.2627 0
M  V30 1839 H 173.39 3.95403 -0.436025 0
M  V30 1840 H 170.129 6.00956 -2.61787 0
M  V30 1841 H 169.649 5.929 -0.90718 0
M  V30 1842 H 171.328 6.32809 -1.34766 0
M  V30 1843 N 171.46 0.379036 1.52974 0
M  V30 1844 C 172.876 0.0285448 1.59574 0
M  V30 1845 C 173.076 -1.45542 1.39355 0
M  V30 1846 O 172.132 -2.2187 1.20541 0
M  V30 1847 C 173.445 0.496535 2.96572 0
M  V30 1848 C 174.993 0.451909 3.0972 0
M  V30 1849 C 175.468 0.895924 4.49152 0
M  V30 1850 N 176.959 0.851522 4.55306 0
M  V30 1851 C 177.694 1.16661 5.61407 0
M  V30 1852 N 177.19 1.55166 6.752 0
M  V30 1853 N 178.983 1.08853 5.51459 0
M  V30 1854 H 171.134 1.34525 1.64367 0
M  V30 1855 H 173.397 0.550733 0.771619 0
M  V30 1856 H 173.103 1.53258 3.16552 0
M  V30 1857 H 172.977 -0.109802 3.7704 0
M  V30 1858 H 175.364 -0.575029 2.89443 0
M  V30 1859 H 175.445 1.09392 2.3123 0
M  V30 1860 H 175.089 1.92104 4.70168 0
M  V30 1861 H 175.019 0.23103 5.26093 0
M  V30 1862 H 177.51 0.568038 3.73606 0
M  V30 1863 H 177.823 1.776 7.52116 0
M  V30 1864 H 176.168 1.59044 6.76557 0
M  V30 1865 H 179.359 0.786803 4.6144 0
M  V30 1866 H 179.532 1.33742 6.34048 0
M  V30 1867 N 172.938 -1.57226 0.108567 0
M  V30 1868 C 174.184 -1.95121 -0.552761 0
M  V30 1869 C 174.517 -0.991345 -1.66991 0
M  V30 1870 O 173.792 -0.0267211 -1.94482 0
M  V30 1871 C 174.075 -3.43039 -1.09528 0
M  V30 1872 C 173.928 -4.49797 0.0177332 0
M  V30 1873 C 175.247 -3.92567 -1.98945 0
M  V30 1874 H 172.366 -0.709496 -0.199461 0
M  V30 1875 H 175.008 -1.89126 0.182011 0
M  V30 1876 H 173.158 -3.48279 -1.72146 0
M  V30 1877 H 174.83 -4.56661 0.652584 0
M  V30 1878 H 173.073 -4.284 0.682309 0
M  V30 1879 H 173.744 -5.50528 -0.402919 0
M  V30 1880 H 176.22 -3.89565 -1.46214 0
M  V30 1881 H 175.096 -4.96605 -2.33827 0
M  V30 1882 H 175.357 -3.32648 -2.91201 0
M  V30 1883 N 174.416 0.165178 -1.56732 0
M  V30 1884 C 175.663 0.880807 -1.8234 0
M  V30 1885 C 175.991 1.81977 -0.686621 0
M  V30 1886 O 175.246 1.92971 0.325697 0
M  V30 1887 C 175.545 1.70405 -3.1416 0
M  V30 1888 C 175.211 0.913475 -4.4155 0
M  V30 1889 C 173.873 0.695303 -4.7615 0
M  V30 1890 C 176.225 0.359349 -5.1996 0
M  V30 1891 C 173.553 -0.0879947 -5.86634 0
M  V30 1892 C 175.905 -0.410893 -6.31264 0
M  V30 1893 C 174.569 -0.639808 -6.64427 0
M  V30 1894 H 173.839 0.32231 -0.667231 0
M  V30 1895 H 176.486 0.145402 -1.90947 0
M  V30 1896 H 174.791 2.50903 -3.00923 0
M  V30 1897 H 176.488 2.26091 -3.31186 0
M  V30 1898 H 173.078 1.09357 -4.14414 0
M  V30 1899 H 177.262 0.515228 -4.93618 0
M  V30 1900 H 172.518 -0.27503 -6.10781 0
M  V30 1901 H 176.692 -0.847494 -6.91224 0
M  V30 1902 H 174.319 -1.24864 -7.49875 0
M  V30 1903 N 175.894 1.51508 0.433938 0
M  V30 1904 C 176.857 1.72473 1.50949 0
M  V30 1905 C 177.857 0.594725 1.49398 0
M  V30 1906 O 179.047 0.862315 1.5136 0
M  V30 1907 C 176.179 1.78431 2.90474 0
M  V30 1908 H 177.372 2.68467 1.33662 0
M  V30 1909 H 174.925 1.41549 0.662836 0
M  V30 1910 H 175.66 0.842645 3.13161 0
M  V30 1911 H 175.445 2.60558 2.93005 0
M  V30 1912 H 176.935 1.96479 3.68491 0
M  V30 1913 N 177.372 -0.689602 1.41712 0
M  V30 1914 C 178.305 -1.81403 1.3845 0
M  V30 1915 C 179.283 -1.60653 0.250874 0
M  V30 1916 O 180.467 -1.83323 0.43874 0
M  V30 1917 C 177.594 -3.18176 1.1611 0
M  V30 1918 C 176.64 -3.57705 2.3227 0
M  V30 1919 S 177.473 -3.61827 3.94767 0
M  V30 1920 C 178.629 -5.01318 3.74742 0
M  V30 1921 H 178.862 -1.83893 2.33603 0
M  V30 1922 H 176.395 -0.858878 1.28307 0
M  V30 1923 H 178.353 -3.97132 1.03907 0
M  V30 1924 H 177.014 -3.13288 0.225668 0
M  V30 1925 H 176.207 -4.57082 2.12349 0
M  V30 1926 H 175.809 -2.86073 2.40911 0
M  V30 1927 H 178.101 -5.88986 3.34817 0
M  V30 1928 H 179.044 -5.26283 4.73743 0
M  V30 1929 H 179.452 -4.73138 3.07898 0
M  V30 1930 N 178.85 -1.27639 -0.924453 0
M  V30 1931 C 179.798 -1.10485 -2.04685 0
M  V30 1932 C 180.792 -0.0270421 -1.69378 0
M  V30 1933 O 181.998 -0.185008 -1.79047 0
M  V30 1934 H 178.373 -0.340546 -0.670472 0
M  V30 1935 H 180.344 -2.05566 -2.16298 0
M  V30 1936 C 179.093 -0.772229 -3.39016 0
M  V30 1937 H 178.416 -1.59351 -3.66671 0
M  V30 1938 H 179.856 -0.692097 -4.18313 0
M  V30 1939 C 178.315 0.523554 -3.32807 0
M  V30 1940 O 178.845 1.55702 -3.70297 0
M  V30 1941 N 177.051 0.520363 -2.85903 0
M  V30 1942 H 176.598 -0.32107 -2.55591 0
M  V30 1943 H 176.556 1.38742 -2.82131 0
M  V30 1944 N 180.328 1.1314 -1.09713 0
M  V30 1945 C 181.605 1.80762 -0.747302 0
M  V30 1946 C 181.985 1.96663 0.767265 0
M  V30 1947 O 181.333 1.53706 1.69076 0
M  V30 1948 C 181.543 3.15606 -1.48975 0
M  V30 1949 C 182.891 3.90914 -1.65746 0
M  V30 1950 O 183.915 3.25239 -1.45251 0
M  V30 1951 O 182.774 5.08718 -1.9967 0
M  V30 1952 H 179.868 0.782103 -0.268782 0
M  V30 1953 H 182.414 1.20041 -1.19951 0
M  V30 1954 H 181.186 2.99278 -2.52088 0
M  V30 1955 H 180.809 3.84029 -1.02991 0
M  V30 1956 N 181.806 0.884767 1.30421 0
M  V30 1957 C 183.054 0.502112 1.95763 0
M  V30 1958 C 183.375 -0.951815 1.70192 0
M  V30 1959 O 182.645 -1.6692 1.0254 0
M  V30 1960 H 181.225 0.182694 0.724315 0
M  V30 1961 H 183.887 1.1278 1.58955 0
M  V30 1962 H 182.983 0.672188 3.04775 0
M  V30 1963 N 183.284 -1.43765 0.645699 0
M  V30 1964 C 184.194 -2.34544 -0.0512957 0
M  V30 1965 C 185.21 -1.53455 -0.82022 0
M  V30 1966 O 186.386 -1.86133 -0.769176 0
M  V30 1967 C 183.451 -3.31636 -1.01087 0
M  V30 1968 C 182.512 -4.2863 -0.239712 0
M  V30 1969 C 181.745 -5.21084 -1.15358 0
M  V30 1970 O 181.968 -5.1779 -2.39269 0
M  V30 1971 O 180.902 -5.98593 -0.630038 0
M  V30 1972 H 184.728 -2.95624 0.695718 0
M  V30 1973 H 182.313 -1.43781 0.405882 0
M  V30 1974 H 184.195 -3.9136 -1.56254 0
M  V30 1975 H 182.87 -2.73069 -1.73824 0
M  V30 1976 H 181.777 -3.72408 0.355356 0
M  V30 1977 H 183.11 -4.90157 0.447936 0
M  V30 1978 N 184.763 -0.387143 -1.52771 0
M  V30 1979 C 186.179 -0.037007 -1.59557 0
M  V30 1980 C 186.379 1.44801 -1.40124 0
M  V30 1981 O 185.435 2.21227 -1.21716 0
M  V30 1982 C 186.748 -0.512256 -2.96305 0
M  V30 1983 C 188.296 -0.468328 -3.09476 0
M  V30 1984 C 188.771 -0.919731 -4.4867 0
M  V30 1985 N 190.262 -0.875656 -4.54848 0
M  V30 1986 C 190.997 -1.19637 -5.6078 0
M  V30 1987 N 190.493 -1.58745 -6.74368 0
M  V30 1988 N 192.286 -1.11776 -5.50874 0
M  V30 1989 H 184.437 -1.35395 -1.63652 0
M  V30 1990 H 186.7 -0.554818 -0.768688 0
M  V30 1991 H 186.406 -1.54935 -3.15734 0
M  V30 1992 H 186.28 0.089805 -3.77093 0
M  V30 1993 H 188.667 0.559671 -2.89744 0
M  V30 1994 H 188.748 -1.10616 -2.30646 0
M  V30 1995 H 188.392 -1.94595 -4.69143 0
M  V30 1996 H 188.322 -0.258927 -5.25963 0
M  V30 1997 H 190.813 -0.587843 -3.733 0
M  V30 1998 H 191.126 -1.81586 -7.51163 0
M  V30 1999 H 189.471 -1.6263 -6.75705 0
M  V30 2000 H 192.662 -0.811264 -4.61016 0
M  V30 2001 H 192.835 -1.37103 -6.3333 0
M  V30 2002 N 186.241 1.57166 -0.116904 0
M  V30 2003 C 187.171 2.18222 0.830759 0
M  V30 2004 C 188.152 1.12167 1.27877 0
M  V30 2005 O 189.337 1.40394 1.34176 0
M  V30 2006 C 186.467 2.77996 2.08172 0
M  V30 2007 C 185.421 3.89614 1.77157 0
M  V30 2008 C 184.747 4.36187 3.09265 0
M  V30 2009 C 186.047 5.1181 1.04151 0
M  V30 2010 H 187.741 2.97664 0.321992 0
M  V30 2011 H 185.287 1.4318 0.153434 0
M  V30 2012 H 187.24 3.19366 2.74924 0
M  V30 2013 H 185.964 1.9584 2.6137 0
M  V30 2014 H 184.623 3.48816 1.12796 0
M  V30 2015 H 184.271 3.50893 3.60393 0
M  V30 2016 H 183.971 5.11455 2.89288 0
M  V30 2017 H 185.495 4.80207 3.77139 0
M  V30 2018 H 186.909 5.50214 1.61052 0
M  V30 2019 H 185.306 5.92648 0.942762 0
M  V30 2020 H 186.376 4.84892 0.0279022 0
M  V30 2021 N 187.719 -0.156864 1.56817 0
M  V30 2022 C 189.135 -0.50916 1.5126 0
M  V30 2023 C 189.335 -1.83897 0.823658 0
M  V30 2024 O 188.391 -2.49469 0.390055 0
M  V30 2025 C 189.704 -0.52857 2.96018 0
M  V30 2026 C 191.252 -0.614771 3.06903 0
M  V30 2027 C 191.727 -0.664938 4.53147 0
M  V30 2028 N 193.218 -0.727433 4.57452 0
M  V30 2029 C 193.953 -0.787067 5.67973 0
M  V30 2030 N 193.449 -0.806649 6.88088 0
M  V30 2031 N 195.242 -0.827195 5.5598 0
M  V30 2032 H 187.393 0.714935 2.00006 0
M  V30 2033 H 189.656 0.259526 0.911784 0
M  V30 2034 H 189.362 0.380154 3.49639 0
M  V30 2035 H 189.236 -1.36998 3.51442 0
M  V30 2036 H 191.623 -1.51392 2.53307 0
M  V30 2037 H 191.704 0.253597 2.5454 0
M  V30 2038 H 191.348 0.230011 5.07379 0
M  V30 2039 H 191.278 -1.54966 5.03282 0
M  V30 2040 H 193.769 -0.719998 3.70978 0
M  V30 2041 H 194.082 -0.853727 7.6807 0
M  V30 2042 H 192.427 -0.774687 6.90669 0
M  V30 2043 H 195.618 -0.808998 4.61056 0
M  V30 2044 H 195.791 -0.870206 6.4213 0
M  V30 2045 N 189.197 -1.51736 -0.425897 0
M  V30 2046 C 190.16 -1.73271 -1.50032 0
M  V30 2047 C 191.16 -0.602639 -1.4908 0
M  V30 2048 O 192.35 -0.87033 -1.509 0
M  V30 2049 C 189.482 -1.79969 -2.89523 0
M  V30 2050 H 190.675 -2.69172 -1.32237 0
M  V30 2051 H 188.228 -1.41899 -0.65532 0
M  V30 2052 H 188.963 -0.859241 -3.1271 0
M  V30 2053 H 188.748 -2.62109 -2.91619 0
M  V30 2054 H 190.238 -1.9843 -3.67444 0
M  V30 2055 N 190.675 0.682077 -1.42076 0
M  V30 2056 C 191.924 1.43786 -1.41451 0
M  V30 2057 C 192.237 1.95574 -0.0317074 0
M  V30 2058 O 193.443 2.71326 0.0971462 0
M  V30 2059 C 191.899 2.60071 -2.48779 0
M  V30 2060 C 191.507 2.15013 -3.93031 0
M  V30 2061 C 193.251 3.37626 -2.57311 0
M  V30 2062 C 191.158 3.28336 -4.91883 0
M  V30 2063 H 190.088 0.540143 -0.526082 0
M  V30 2064 H 192.739 0.739157 -1.67955 0
M  V30 2065 H 191.121 3.32275 -2.15429 0
M  V30 2066 H 192.295 1.5001 -4.35699 0
M  V30 2067 H 190.61 1.50416 -3.88284 0
M  V30 2068 H 193.207 4.22012 -3.28345 0
M  V30 2069 H 193.55 3.83727 -1.61429 0
M  V30 2070 H 194.083 2.72488 -2.89819 0
M  V30 2071 H 190.822 2.87234 -5.89217 0
M  V30 2072 H 190.342 3.92145 -4.53853 0
M  V30 2073 H 192.021 3.93913 -5.13265 0
M  V30 2074 N 192.153 1.28127 0.917671 0
M  V30 2075 C 193.063 1.13556 2.05286 0
M  V30 2076 C 194.079 0.0630914 1.73886 0
M  V30 2077 O 195.255 0.271598 1.9956 0
M  V30 2078 C 192.32 0.794676 3.3747 0
M  V30 2079 C 191.381 1.94909 3.82504 0
M  V30 2080 C 190.614 1.62437 5.0838 0
M  V30 2081 O 190.837 0.536905 5.67867 0
M  V30 2082 O 189.771 2.46677 5.4903 0
M  V30 2083 H 193.597 2.08844 2.20495 0
M  V30 2084 H 191.182 1.07409 1.03845 0
M  V30 2085 H 193.064 0.618344 4.16839 0
M  V30 2086 H 191.739 -0.128581 3.23445 0
M  V30 2087 H 190.646 2.18055 3.03978 0
M  V30 2088 H 191.979 2.85291 4.01086 0
M  V30 2089 N 193.631 -1.12557 1.10312 0
M  V30 2090 C 194.877 -1.84311 0.846011 0
M  V30 2091 C 195.21 -1.83805 -0.626859 0
M  V30 2092 O 194.485 -1.28268 -1.46211 0
M  V30 2093 C 194.768 -3.32048 1.39341 0
M  V30 2094 C 194.621 -3.41016 2.93305 0
M  V30 2095 C 195.94 -4.27764 1.03468 0
M  V30 2096 H 193.059 -0.669192 0.30879 0
M  V30 2097 H 195.701 -1.32057 1.36605 0
M  V30 2098 H 193.851 -3.76678 0.951087 0
M  V30 2099 H 195.523 -3.05031 3.46055 0
M  V30 2100 H 193.766 -2.81603 3.29973 0
M  V30 2101 H 194.437 -4.44948 3.26689 0
M  V30 2102 H 196.913 -3.91253 1.41633 0
M  V30 2103 H 195.789 -5.29549 1.44463 0
M  V30 2104 H 196.05 -4.42064 -0.0560404 0
M  V30 2105 N 195.109 -0.891671 -1.2995 0
M  V30 2106 C 196.52 -0.563104 -1.78006 0
M  V30 2107 C 196.871 0.920978 -1.73241 0
M  V30 2108 O 195.996 1.71987 -1.31337 0
M  V30 2109 C 196.591 -1.01539 -3.23226 0
M  V30 2110 C 195.15 -0.738124 -3.69092 0
M  V30 2111 C 194.297 -1.19461 -2.50249 0
M  V30 2112 H 197.248 -1.07522 -1.16725 0
M  V30 2113 H 197.269 -0.347217 -3.78912 0
M  V30 2114 H 196.781 -2.09555 -3.26662 0
M  V30 2115 H 194.882 0.329766 -3.71138 0
M  V30 2116 H 194.995 -1.33037 -4.60259 0
M  V30 2117 H 193.359 -0.613787 -2.47194 0
M  V30 2118 H 194.142 -2.28265 -2.56417 0
M  V30 2119 N 196.587 1.43421 -0.653314 0
M  V30 2120 C 197.55 2.29182 0.0287951 0
M  V30 2121 C 198.55 1.42213 0.750465 0
M  V30 2122 O 199.74 1.63843 0.591701 0
M  V30 2123 C 196.872 3.24278 1.05151 0
M  V30 2124 H 198.065 2.90985 -0.725786 0
M  V30 2125 H 195.618 1.50702 -0.414545 0
M  V30 2126 H 196.353 2.6737 1.83532 0
M  V30 2127 H 196.138 3.88396 0.537687 0
M  V30 2128 H 197.628 3.88647 1.52786 0
M  V30 2129 N 198.065 0.39524 1.52563 0
M  V30 2130 C 199.342 -0.242908 1.94086 0
M  V30 2131 C 199.722 -1.63841 1.33114 0
M  V30 2132 O 199.07 -2.22928 0.501529 0
M  V30 2133 C 199.28 -0.26327 3.48006 0
M  V30 2134 C 200.628 -0.489354 4.21771 0
M  V30 2135 O 201.652 -0.343226 3.54543 0
M  V30 2136 O 200.511 -0.776169 5.4096 0
M  V30 2137 H 197.605 -0.152536 0.812811 0
M  V30 2138 H 200.151 0.450178 1.6362 0
M  V30 2139 H 198.923 0.713985 3.84731 0
M  V30 2140 H 198.546 -1.00103 3.84792 0
M  V30 2141 N 199.544 -1.57102 0.125237 0
M  V30 2142 C 200.774 -1.99472 -0.538015 0
M  V30 2143 C 201.182 -1.00395 -1.60366 0
M  V30 2144 O 200.525 0.0103875 -1.83697 0
M  V30 2145 C 200.587 -3.38262 -1.21734 0
M  V30 2146 C 200.251 -4.56021 -0.298897 0
M  V30 2147 C 201.248 -5.17817 0.464943 0
M  V30 2148 C 198.933 -5.01869 -0.208149 0
M  V30 2149 C 200.927 -6.23852 1.3072 0
M  V30 2150 C 198.614 -6.07763 0.637736 0
M  V30 2151 C 199.612 -6.68622 1.39403 0
M  V30 2152 O 199.3 -7.7247 2.22586 0
M  V30 2153 H 199.032 -0.659934 -0.146501 0
M  V30 2154 H 201.586 -2.04321 0.210267 0
M  V30 2155 H 199.816 -3.30185 -2.01282 0
M  V30 2156 H 201.505 -3.6488 -1.77813 0
M  V30 2157 H 202.271 -4.83308 0.404741 0
M  V30 2158 H 198.15 -4.54241 -0.786522 0
M  V30 2159 H 201.694 -6.71284 1.898 0
M  V30 2160 H 197.591 -6.41701 0.699309 0
M  V30 2161 H 198.359 -7.89595 2.15596 0
M  V30 2162 N 201.022 0.148545 -1.56898 0
M  V30 2163 C 202.271 0.85984 -1.82454 0
M  V30 2164 C 202.584 1.82406 -0.706229 0
M  V30 2165 O 203.79 2.57938 -0.847349 0
M  V30 2166 C 202.246 1.57967 -3.2338 0
M  V30 2167 C 201.854 0.65794 -4.43142 0
M  V30 2168 C 203.598 2.27784 -3.58211 0
M  V30 2169 C 201.505 1.3793 -5.75091 0
M  V30 2170 H 200.435 0.324834 -0.68044 0
M  V30 2171 H 203.086 0.112588 -1.83154 0
M  V30 2172 H 201.468 2.37249 -3.17063 0
M  V30 2173 H 202.642 -0.0995497 -4.60692 0
M  V30 2174 H 200.957 0.0682643 -4.16344 0
M  V30 2175 H 203.554 2.8239 -4.54048 0
M  V30 2176 H 203.897 3.04204 -2.84193 0
M  V30 2177 H 204.43 1.55421 -3.66182 0
M  V30 2178 H 201.169 0.656982 -6.52199 0
M  V30 2179 H 200.689 2.10954 -5.61479 0
M  V30 2180 H 202.368 1.92063 -6.17835 0
M  V30 2181 N 202.5 1.5196 0.417844 0
M  V30 2182 C 203.41 1.77554 1.53336 0
M  V30 2183 C 204.426 0.660655 1.6097 0
M  V30 2184 O 205.602 0.945099 1.77848 0
M  V30 2185 C 202.667 1.91291 2.89152 0
M  V30 2186 C 201.728 3.15183 2.91475 0
M  V30 2187 C 200.961 3.28256 4.20813 0
M  V30 2188 O 201.184 2.46798 5.14244 0
M  V30 2189 O 200.118 4.21356 4.29817 0
M  V30 2190 H 203.944 2.7222 1.34647 0
M  V30 2191 H 201.529 1.36698 0.602828 0
M  V30 2192 H 203.411 2.02199 3.69721 0
M  V30 2193 H 202.086 0.998129 3.07927 0
M  V30 2194 H 200.993 3.09739 2.09791 0
M  V30 2195 H 202.326 4.06414 2.77648 0
M  V30 2196 N 203.978 -0.674533 1.42435 0
M  V30 2197 C 204.908 -1.80009 1.48724 0
M  V30 2198 C 205.889 -1.6659 0.343793 0
M  V30 2199 O 207.074 -1.86007 0.558137 0
M  V30 2200 C 204.204 -3.18306 1.38919 0
M  V30 2201 C 203.158 -3.46461 2.51294 0
M  V30 2202 C 202.484 -4.84335 2.26547 0
M  V30 2203 C 203.784 -3.43328 3.93603 0
M  V30 2204 H 205.478 -1.75004 2.42928 0
M  V30 2205 H 203.024 -0.840533 1.16923 0
M  V30 2206 H 204.977 -3.9678 1.41927 0
M  V30 2207 H 203.701 -3.2399 0.412094 0
M  V30 2208 H 202.36 -2.70348 2.47604 0
M  V30 2209 H 202.008 -4.86669 1.2713 0
M  V30 2210 H 201.708 -5.04136 3.01861 0
M  V30 2211 H 203.232 -5.65094 2.31304 0
M  V30 2212 H 204.646 -4.11772 3.98894 0
M  V30 2213 H 203.043 -3.74664 4.68771 0
M  V30 2214 H 204.113 -2.41897 4.20255 0
M  V30 2215 N 205.456 -1.28612 -0.910864 0
M  V30 2216 C 206.696 -1.1719 -1.67469 0
M  V30 2217 C 207.06 0.274441 -1.90028 0
M  V30 2218 O 208.261 0.511425 -2.6389 0
M  V30 2219 C 206.532 -1.95137 -2.99427 0
M  V30 2220 S 208.091 -2.00122 -3.90508 0
M  V30 2221 H 204.909 -0.41806 -0.575106 0
M  V30 2222 H 207.511 -1.6275 -1.08317 0
M  V30 2223 H 206.215 -2.99381 -2.80712 0
M  V30 2224 H 205.746 -1.50137 -3.63624 0
M  V30 2225 H 207.761 -1.10981 -4.8363 0
M  V30 2226 N 206.934 1.1197 -1.10907 0
M  V30 2227 C 208.159 1.87942 -0.877064 0
M  V30 2228 C 208.584 1.79341 0.567314 0
M  V30 2229 O 207.942 1.15184 1.40009 0
M  V30 2230 C 207.99 3.34926 -1.33629 0
M  V30 2231 O 207.094 4.09303 -0.504447 0
M  V30 2232 H 206.435 0.583785 -0.316371 0
M  V30 2233 H 208.965 1.4157 -1.47712 0
M  V30 2234 H 208.975 3.8577 -1.32837 0
M  V30 2235 H 207.65 3.40504 -2.3881 0
M  V30 2236 H 206.227 3.68393 -0.577993 0
M  V30 2237 O 208.451 1.03102 1.24307 0
M  V30 2238 H 209.142 0.697601 1.80702 0
M  V30 END ATOM
M  V30 BEGIN BOND
M  V30 END BOND
M  V30 END CTAB
M  END
$$$$
