drugbank_target|P56696 Potassium voltage-gated channel subfamily KQT member 4 (DB00228; DB01069; DB01110)
 OpenBabel12092120143D

  0  0  0     0  0            999 V3000
M  V30 BEGIN CTAB
M  V30 COUNTS 10904 11035 0 0 0
M  V30 BEGIN ATOM
M  V30 1 H -0.908 1.98254 -0.117106 0
M  V30 2 N 0 1.576 0 0
M  V30 3 C 0.933 2.03868 1.02534 0
M  V30 4 C 1.911 0.928543 1.3348 0
M  V30 5 O 3.095 1.19667 1.45644 0
M  V30 6 C 0.222 2.43627 2.35294 0
M  V30 7 C -0.732 3.65373 2.2001 0
M  V30 8 S 0.101 5.13292 1.52614 0
M  V30 9 C 1.257 5.56322 2.86805 0
M  V30 10 H 1.49 2.90518 0.631377 0
M  V30 11 H -0.977 1.52953 0.210867 0
M  V30 12 H 0.981 2.67203 3.11629 0
M  V30 13 H -0.358 1.57376 2.7183 0
M  V30 14 H -1.165 3.90944 3.18086 0
M  V30 15 H -1.563 3.418 1.51819 0
M  V30 16 H 0.729 5.58782 3.83104 0
M  V30 17 H 1.672 6.56266 2.65933 0
M  V30 18 H 2.08 4.83886 2.90714 0
M  V30 19 N 1.4781 -0.272755 1.55222 0
M  V30 20 C 2.4411 -1.32041 1.87344 0
M  V30 21 C 3.4411 -1.42342 0.74803 0
M  V30 22 O 4.6311 -1.41488 1.0162 0
M  V30 23 C 1.7631 -2.70173 2.07893 0
M  V30 24 H 2.9561 -1.04789 2.80997 0
M  V30 25 H 0.5091 -0.51083 1.47717 0
M  V30 26 H 1.2441 -3.02605 1.16622 0
M  V30 27 H 1.0291 -2.64082 2.89833 0
M  V30 28 H 2.5191 -3.45869 2.34017 0
M  V30 29 N 2.9562 -1.48159 -0.537278 0
M  V30 30 C 3.8662 -1.64807 -1.6696 0
M  V30 31 C 4.8822 -0.530651 -1.65711 0
M  V30 32 O 6.0582 -0.800784 -1.84796 0
M  V30 33 C 3.1232 -1.67708 -3.03438 0
M  V30 34 C 2.1842 -2.91025 -3.156 0
M  V30 35 C 1.4172 -2.93778 -4.45567 0
M  V30 36 O 1.6402 -2.05153 -5.3223 0
M  V30 37 O 0.5742 -3.85868 -4.61941 0
M  V30 38 H 4.4002 -2.6066 -1.55853 0
M  V30 39 H 1.9852 -1.31475 -0.709549 0
M  V30 40 H 3.8672 -1.7218 -3.84619 0
M  V30 41 H 2.5422 -0.750278 -3.14885 0
M  V30 42 H 1.4492 -2.92089 -2.33741 0
M  V30 43 H 2.7822 -3.83065 -3.09066 0
M  V30 44 N 4.4343 0.785586 -1.36625 0
M  V30 45 C 5.3973 1.87999 -1.31107 0
M  V30 46 C 6.3973 1.59316 -0.217959 0
M  V30 47 O 7.5873 1.67656 -0.472977 0
M  V30 48 C 4.7193 3.24861 -1.03334 0
M  V30 49 H 5.9123 1.94307 -2.2844 0
M  V30 50 H 3.4653 0.983813 -1.21453 0
M  V30 51 H 4.2003 3.24235 -0.0647432 0
M  V30 52 H 3.9853 3.4707 -1.82441 0
M  V30 53 H 5.4753 4.04929 -1.02088 0
M  V30 54 N 5.9124 1.20967 1.01018 0
M  V30 55 C 7.3234 1.02319 1.56165 0
M  V30 56 C 7.6744 -0.418546 1.91684 0
M  V30 57 O 6.7994 -1.30096 1.72928 0
M  V30 58 C 7.3944 1.85109 2.8376 0
M  V30 59 C 5.9534 1.70809 3.35412 0
M  V30 60 C 5.1004 1.82643 2.08655 0
M  V30 61 H 8.0514 1.35065 0.833255 0
M  V30 62 H 8.0724 1.35827 3.55431 0
M  V30 63 H 7.5844 2.90035 2.57878 0
M  V30 64 H 5.6854 0.685464 3.66241 0
M  V30 65 H 5.7984 2.52467 4.07182 0
M  V30 66 H 4.1624 1.25896 2.21409 0
M  V30 67 H 4.9454 2.89066 1.85191 0
M  V30 68 N 7.3905 -1.2043 1.01659 0
M  V30 69 C 8.8015 -1.71517 0.737482 0
M  V30 70 C 9.1525 -1.81547 -0.743973 0
M  V30 71 O 8.2775 -1.47803 -1.58061 0
M  V30 72 C 8.8725 -3.11515 1.33206 0
M  V30 73 C 7.4315 -3.59912 1.10183 0
M  V30 74 C 6.5785 -2.37116 1.43776 0
M  V30 75 H 9.5295 -1.05444 1.18606 0
M  V30 76 H 9.5505 -3.73575 0.722636 0
M  V30 77 H 9.0625 -3.04182 2.41028 0
M  V30 78 H 7.1635 -3.72577 0.0412756 0
M  V30 79 H 7.2765 -4.44731 1.78188 0
M  V30 80 H 5.6405 -2.39857 0.856778 0
M  V30 81 H 6.4235 -2.32424 2.52654 0
M  V30 82 N 8.8686 -0.792821 -1.36206 0
M  V30 83 C 10.2846 -0.474903 -1.52371 0
M  V30 84 C 10.4846 1.00622 -1.74578 0
M  V30 85 O 9.5406 1.79162 -1.77924 0
M  V30 86 C 10.8536 -1.3083 -2.70747 0
M  V30 87 C 12.4016 -1.30234 -2.84619 0
M  V30 88 C 12.8766 -2.11956 -4.06004 0
M  V30 89 N 14.3676 -2.09419 -4.13156 0
M  V30 90 C 15.1026 -2.69419 -5.06163 0
M  V30 91 N 14.5986 -3.3829 -6.04592 0
M  V30 92 N 16.3916 -2.59134 -4.98804 0
M  V30 93 H 8.5426 -1.75222 -1.20046 0
M  V30 94 H 10.8056 -0.745024 -0.586211 0
M  V30 95 H 10.5116 -2.35881 -2.6087 0
M  V30 96 H 10.3856 -0.95196 -3.6499 0
M  V30 97 H 12.7726 -0.259748 -2.93955 0
M  V30 98 H 12.8536 -1.69847 -1.91274 0
M  V30 99 H 12.4976 -3.16248 -3.97429 0
M  V30 100 H 12.4276 -1.69711 -4.98503 0
M  V30 101 H 14.9186 -1.59297 -3.42685 0
M  V30 102 H 15.2316 -3.81394 -6.7213 0
M  V30 103 H 13.5766 -3.42393 -6.04807 0
M  V30 104 H 16.7676 -2.04927 -4.20859 0
M  V30 105 H 16.9406 -3.06185 -5.711 0
M  V30 106 N 10.3467 1.47872 -0.545128 0
M  V30 107 C 11.7627 1.5829 -0.204032 0
M  V30 108 C 11.9627 1.54529 1.29317 0
M  V30 109 O 11.0187 1.44232 2.07252 0
M  V30 110 C 12.3317 2.89304 -0.819987 0
M  V30 111 C 13.8797 3.02864 -0.790105 0
M  V30 112 C 14.3547 4.3656 -1.38491 0
M  V30 113 N 15.8457 4.43165 -1.34755 0
M  V30 114 C 16.5807 5.45153 -1.77753 0
M  V30 115 N 16.0767 6.54016 -2.2855 0
M  V30 116 N 17.8697 5.36125 -1.68897 0
M  V30 117 H 10.0207 1.4856 -1.51802 0
M  V30 118 H 12.2837 0.706305 -0.632327 0
M  V30 119 H 11.9897 2.97757 -1.87173 0
M  V30 120 H 11.8637 3.75957 -0.305915 0
M  V30 121 H 14.2507 2.94014 0.252913 0
M  V30 122 H 14.3317 2.17782 -1.34181 0
M  V30 123 H 13.9757 4.46164 -2.42693 0
M  V30 124 H 13.9057 5.20353 -0.808754 0
M  V30 125 H 16.3967 3.65083 -0.975855 0
M  V30 126 H 16.7097 7.27994 -2.59314 0
M  V30 127 H 15.0547 6.54938 -2.32553 0
M  V30 128 H 18.2457 4.49975 -1.28998 0
M  V30 129 H 18.4187 6.15472 -2.02726 0
M  V30 130 N 11.8248 0.280983 1.55075 0
M  V30 131 C 12.7548 -0.597469 2.25727 0
M  V30 132 C 13.7358 -1.15417 1.24952 0
M  V30 133 O 14.9208 -1.18722 1.53684 0
M  V30 134 C 12.0508 -1.7789 2.98283 0
M  V30 135 C 11.0048 -1.35347 4.06036 0
M  V30 136 C 10.3308 -2.61846 4.66198 0
M  V30 137 C 11.6308 -0.499354 5.19907 0
M  V30 138 H 13.3248 -0.00824265 2.99399 0
M  V30 139 H 10.8708 -0.0025244 1.44 0
M  V30 140 H 12.8238 -2.39937 3.46422 0
M  V30 141 H 11.5478 -2.39405 2.22155 0
M  V30 142 H 10.2068 -0.756156 3.58717 0
M  V30 143 H 9.8548 -3.21632 3.86732 0
M  V30 144 H 9.5548 -2.3409 5.38958 0
M  V30 145 H 11.0788 -3.24732 5.1709 0
M  V30 146 H 12.4928 -1.02498 5.64063 0
M  V30 147 H 10.8898 -0.316424 5.99265 0
M  V30 148 H 11.9598 0.480459 4.82514 0
M  V30 149 N 13.3029 -1.57598 0.00835791 0
M  V30 150 C 14.5509 -1.90551 -0.6734 0
M  V30 151 C 14.8719 -0.883301 -1.73847 0
M  V30 152 O 14.1419 0.0781442 -1.95744 0
M  V30 153 H 12.7219 -0.703312 -0.251717 0
M  V30 154 H 15.3839 -1.94833 0.0512592 0
M  V30 155 H 14.4799 -2.9056 -1.13935 0
M  V30 156 N 14.781 0.264519 -1.55364 0
M  V30 157 C 15.711 1.33121 -1.91836 0
M  V30 158 C 16.692 1.51101 -0.781192 0
M  V30 159 O 17.877 1.64003 -1.04003 0
M  V30 160 C 15.007 2.68921 -2.19769 0
M  V30 161 C 13.961 2.65661 -3.35571 0
M  V30 162 C 13.287 4.05093 -3.49004 0
M  V30 163 C 14.587 2.24187 -4.71739 0
M  V30 164 H 16.281 1.02844 -2.81182 0
M  V30 165 H 13.827 0.493286 -1.35287 0
M  V30 166 H 15.78 3.43663 -2.43872 0
M  V30 167 H 14.504 3.00799 -1.27231 0
M  V30 168 H 13.163 1.93377 -3.1145 0
M  V30 169 H 12.811 4.34206 -2.53917 0
M  V30 170 H 12.511 4.03804 -4.26868 0
M  V30 171 H 14.035 4.81561 -3.75408 0
M  V30 172 H 15.449 2.88654 -4.9533 0
M  V30 173 H 13.846 2.34044 -5.52579 0
M  V30 174 H 14.916 1.19327 -4.69988 0
M  V30 175 N 16.2591 1.48442 0.529413 0
M  V30 176 C 17.5071 1.56179 1.28267 0
M  V30 177 C 17.8281 0.237721 1.93546 0
M  V30 178 O 17.0981 -0.740779 1.81354 0
M  V30 179 H 15.6781 0.575367 0.476405 0
M  V30 180 H 18.3401 1.84909 0.61602 0
M  V30 181 H 17.4361 2.34312 2.06165 0
M  V30 182 N 17.7372 -0.778329 1.37039 0
M  V30 183 C 19.1482 -1.35421 1.28523 0
M  V30 184 C 19.4992 -1.96075 -0.0700901 0
M  V30 185 O 18.6242 -1.93352 -0.971801 0
M  V30 186 C 19.2192 -2.46211 2.32735 0
M  V30 187 C 17.7782 -2.99585 2.27873 0
M  V30 188 C 16.9252 -1.72748 2.16918 0
M  V30 189 H 19.8762 -0.5791 1.47757 0
M  V30 190 H 19.8972 -3.2552 1.9702 0
M  V30 191 H 19.4092 -2.02036 3.31365 0
M  V30 192 H 17.5102 -3.48152 1.32745 0
M  V30 193 H 17.6232 -3.55646 3.21018 0
M  V30 194 H 15.9872 -1.95416 1.63354 0
M  V30 195 H 16.7702 -1.30686 3.17452 0
M  V30 196 N 19.2153 -1.21501 -1.00376 0
M  V30 197 C 20.6263 -1.03146 -1.55621 0
M  V30 198 C 20.9773 0.408375 -1.91903 0
M  V30 199 O 20.1023 1.29177 -1.73616 0
M  V30 200 C 20.6973 -1.86612 -2.82775 0
M  V30 201 C 19.2563 -1.72586 -3.34501 0
M  V30 202 C 18.4033 -1.83747 -2.07683 0
M  V30 203 H 21.3543 -1.35505 -0.826081 0
M  V30 204 H 21.3753 -1.3771 -3.54706 0
M  V30 205 H 20.8873 -2.91399 -2.56336 0
M  V30 206 H 18.9883 -0.704877 -3.65872 0
M  V30 207 H 19.1013 -2.54623 -4.05837 0
M  V30 208 H 17.4653 -1.27069 -2.20739 0
M  V30 209 H 18.2483 -2.90044 -1.83655 0
M  V30 210 N 20.6934 1.19889 -1.02296 0
M  V30 211 C 22.1044 1.71124 -0.746568 0
M  V30 212 C 22.4554 1.81939 0.734335 0
M  V30 213 O 21.5804 1.48639 1.57275 0
M  V30 214 C 22.1754 3.10804 -1.34857 0
M  V30 215 C 20.7344 3.59323 -1.1209 0
M  V30 216 C 19.8814 2.3635 -1.45031 0
M  V30 217 H 22.8324 1.04813 -1.19163 0
M  V30 218 H 22.8534 3.73186 -0.742437 0
M  V30 219 H 22.3654 3.029 -2.42638 0
M  V30 220 H 20.4664 3.7255 -0.0610337 0
M  V30 221 H 20.5794 4.4378 -1.80544 0
M  V30 222 H 18.9434 2.39399 -0.869487 0
M  V30 223 H 19.7264 2.31081 -2.53883 0
M  V30 224 N 22.1715 0.800033 1.35784 0
M  V30 225 C 23.4195 0.376597 1.9856 0
M  V30 226 C 23.7405 -1.05812 1.63795 0
M  V30 227 O 23.0105 -1.73103 0.917171 0
M  V30 228 H 21.5905 0.136261 0.734467 0
M  V30 229 H 24.2525 1.02442 1.65806 0
M  V30 230 H 23.3485 0.477002 3.08433 0
M  V30 231 N 23.6496 -1.47581 0.552962 0
M  V30 232 C 24.9266 -1.95563 -0.0381515 0
M  V30 233 C 25.3066 -1.49552 -1.48988 0
M  V30 234 O 24.6546 -0.732414 -2.16444 0
M  V30 235 C 24.8646 -3.48848 0.102919 0
M  V30 236 C 26.2126 -4.24577 -0.0446082 0
M  V30 237 O 27.2366 -3.56187 0.0302548 0
M  V30 238 O 26.0956 -5.46116 -0.204923 0
M  V30 239 H 23.1896 -0.824321 -0.0665067 0
M  V30 240 H 25.7356 -1.58001 0.619186 0
M  V30 241 H 24.5076 -3.75129 1.11328 0
M  V30 242 H 24.1306 -3.93165 -0.592224 0
M  V30 243 N 25.1277 -0.289203 -1.54924 0
M  V30 244 C 26.0907 0.579144 -2.21762 0
M  V30 245 C 27.0907 1.07047 -1.1999 0
M  V30 246 O 28.2807 0.968384 -1.44803 0
M  V30 247 C 25.4127 1.80055 -2.8947 0
M  V30 248 H 26.6057 -0.00464908 -2.999 0
M  V30 249 H 24.1587 -0.0399306 -1.56249 0
M  V30 250 H 24.8937 2.42449 -2.15381 0
M  V30 251 H 24.6787 1.45602 -3.64064 0
M  V30 252 H 26.1687 2.41773 -3.40493 0
M  V30 253 N 26.6058 1.57591 -0.0167156 0
M  V30 254 C 28.0168 1.79201 0.523834 0
M  V30 255 C 28.3678 0.925796 1.72984 0
M  V30 256 O 27.4928 0.132792 2.15992 0
M  V30 257 C 28.0878 3.25 0.957091 0
M  V30 258 C 26.6468 3.47648 1.44283 0
M  V30 259 C 25.7938 2.74374 0.401757 0
M  V30 260 H 28.7448 1.56831 -0.242816 0
M  V30 261 H 28.7658 3.34031 1.82219 0
M  V30 262 H 28.2778 3.88019 0.0791415 0
M  V30 263 H 26.3788 2.89866 2.34113 0
M  V30 264 H 26.4918 4.56352 1.45877 0
M  V30 265 H 24.8558 2.39485 0.867121 0
M  V30 266 H 25.6388 3.40102 -0.467513 0
M  V30 267 N 28.0839 -0.256276 1.55502 0
M  V30 268 C 29.4999 -0.604325 1.47716 0
M  V30 269 C 29.6999 -1.88763 0.705039 0
M  V30 270 O 28.7559 -2.51445 0.230613 0
M  V30 271 C 30.0689 -0.715756 2.92057 0
M  V30 272 C 31.6169 -0.808706 3.02372 0
M  V30 273 C 32.0919 -0.951777 4.48001 0
M  V30 274 N 33.5829 -1.01688 4.519 0
M  V30 275 C 34.3179 -1.14668 5.61817 0
M  V30 276 N 33.8139 -1.24261 6.81565 0
M  V30 277 N 35.6069 -1.1791 5.49594 0
M  V30 278 H 27.7579 0.586291 2.04148 0
M  V30 279 H 30.0209 0.201015 0.926443 0
M  V30 280 H 29.7269 0.157027 3.51349 0
M  V30 281 H 29.6009 -1.59071 3.42018 0
M  V30 282 H 31.9879 -1.67195 2.43166 0
M  V30 283 H 32.0689 0.0912063 2.55637 0
M  V30 284 H 31.7129 -0.0931291 5.07815 0
M  V30 285 H 31.6429 -1.86659 4.92408 0
M  V30 286 H 34.1339 -0.954468 3.65648 0
M  V30 287 H 34.4469 -1.34046 7.61086 0
M  V30 288 H 32.7919 -1.21236 6.84344 0
M  V30 289 H 35.9829 -1.10057 4.54978 0
M  V30 290 H 36.1559 -1.27681 6.35296 0
M  V30 291 N 29.562 -1.4872 -0.521534 0
M  V30 292 C 30.525 -1.63379 -1.60748 0
M  V30 293 C 31.525 -0.50661 -1.52611 0
M  V30 294 O 32.715 -0.772601 -1.5613 0
M  V30 295 C 29.847 -1.61192 -3.00383 0
M  V30 296 H 31.04 -2.60217 -1.49087 0
M  V30 297 H 28.593 -1.37444 -0.744235 0
M  V30 298 H 29.328 -0.65863 -3.17541 0
M  V30 299 H 29.113 -2.43032 -3.07698 0
M  V30 300 H 30.603 -1.7466 -3.7932 0
M  V30 301 N 31.0401 0.771051 -1.3745 0
M  V30 302 C 31.9501 1.91538 -1.35464 0
M  V30 303 C 32.9661 1.72134 -0.254123 0
M  V30 304 O 34.1421 1.95358 -0.489626 0
M  V30 305 C 31.2071 3.26671 -1.16134 0
M  V30 306 C 30.2681 3.58723 -2.35831 0
M  V30 307 C 29.5011 4.87409 -2.17413 0
M  V30 308 O 29.7241 5.58506 -1.15876 0
M  V30 309 O 28.6581 5.18539 -3.05615 0
M  V30 310 H 32.4841 1.96165 -2.31847 0
M  V30 311 H 30.0691 0.9139 -1.18187 0
M  V30 312 H 31.9511 4.07499 -1.07345 0
M  V30 313 H 30.6261 3.22894 -0.228251 0
M  V30 314 H 29.5331 2.78127 -2.50192 0
M  V30 315 H 30.8661 3.67243 -3.27709 0
M  V30 316 N 32.5182 1.22032 0.997298 0
M  V30 317 C 33.4482 1.01065 2.10495 0
M  V30 318 C 34.4292 -0.0669542 1.69968 0
M  V30 319 O 35.6142 0.0943987 1.9397 0
M  V30 320 C 32.7442 0.582874 3.42374 0
M  V30 321 C 31.6982 1.60592 3.96729 0
M  V30 322 C 31.0242 1.03412 5.24605 0
M  V30 323 C 32.3242 2.99478 4.27914 0
M  V30 324 H 34.0182 1.93708 2.28292 0
M  V30 325 H 31.5642 0.932761 1.09707 0
M  V30 326 H 33.5172 0.423332 4.19268 0
M  V30 327 H 32.2412 -0.379213 3.24391 0
M  V30 328 H 30.9002 1.75316 3.21963 0
M  V30 329 H 30.5482 0.063518 5.0296 0
M  V30 330 H 30.2482 1.71754 5.61938 0
M  V30 331 H 31.7722 0.886066 6.04137 0
M  V30 332 H 33.1862 2.88153 4.95622 0
M  V30 333 H 31.5832 3.64903 4.76409 0
M  V30 334 H 32.6532 3.49742 3.3587 0
M  V30 335 N 33.9963 -1.19345 1.0293 0
M  V30 336 C 35.2423 -1.89318 0.727083 0
M  V30 337 C 35.5753 -1.79446 -0.742483 0
M  V30 338 O 34.8503 -1.1871 -1.54072 0
M  V30 339 C 35.1333 -3.40238 1.17942 0
M  V30 340 C 34.9863 -3.58979 2.71024 0
M  V30 341 C 36.3053 -4.33479 0.760548 0
M  V30 342 H 33.4243 -0.687475 0.265606 0
M  V30 343 H 36.0663 -1.40477 1.2793 0
M  V30 344 H 34.2163 -3.81964 0.709608 0
M  V30 345 H 35.8883 -3.26421 3.25955 0
M  V30 346 H 34.1313 -3.02018 3.11396 0
M  V30 347 H 34.8023 -4.64823 2.9773 0
M  V30 348 H 37.2783 -3.99469 1.16464 0
M  V30 349 H 36.1543 -5.37664 1.10493 0
M  V30 350 H 36.4153 -4.40813 -0.337063 0
M  V30 351 N 35.4744 -0.807222 -1.35358 0
M  V30 352 C 36.4374 -0.223665 -2.28106 0
M  V30 353 C 37.4374 0.589354 -1.4961 0
M  V30 354 O 38.6274 0.407745 -1.69361 0
M  V30 355 C 35.7594 0.688149 -3.33882 0
M  V30 356 H 36.9524 -1.04169 -2.81227 0
M  V30 357 H 34.5054 -0.577921 -1.45223 0
M  V30 358 H 35.2404 1.52984 -2.85948 0
M  V30 359 H 35.0254 0.10687 -3.91954 0
M  V30 360 H 36.5154 1.09075 -4.03104 0
M  V30 361 N 36.9525 1.47285 -0.560781 0
M  V30 362 C 37.8825 2.32857 0.173105 0
M  V30 363 C 38.8635 1.44009 0.905281 0
M  V30 364 O 40.0485 1.7286 0.885046 0
M  V30 365 C 37.1785 3.25861 1.20133 0
M  V30 366 C 36.1325 4.23978 0.585388 0
M  V30 367 C 35.4585 5.06332 1.7185 0
M  V30 368 C 36.7585 5.20242 -0.463178 0
M  V30 369 H 38.4525 2.94466 -0.541307 0
M  V30 370 H 35.9985 1.41601 -0.261764 0
M  V30 371 H 37.9515 3.84569 1.72293 0
M  V30 372 H 36.6755 2.62315 1.94573 0
M  V30 373 H 35.3345 3.66501 0.085054 0
M  V30 374 H 34.9825 4.39186 2.45203 0
M  V30 375 H 34.6825 5.72762 1.31213 0
M  V30 376 H 36.2065 5.67899 2.24329 0
M  V30 377 H 37.6205 5.73293 -0.027502 0
M  V30 378 H 36.0175 5.94896 -0.788627 0
M  V30 379 H 37.0875 4.65504 -1.35773 0
M  V30 380 N 38.4306 0.297415 1.54768 0
M  V30 381 C 39.6586 -0.315623 2.04478 0
M  V30 382 C 40.0736 -1.47792 1.17486 0
M  V30 383 O 39.4306 -1.81404 0.19971 0
M  V30 384 C 39.4816 -0.7753 3.53088 0
M  V30 385 O 39.2026 0.340732 4.36773 0
M  V30 386 C 40.7036 -1.45386 4.18781 0
M  V30 387 H 37.9236 -0.0690887 0.667434 0
M  V30 388 H 40.4676 0.436003 1.99798 0
M  V30 389 H 38.6226 -1.47696 3.58141 0
M  V30 390 H 39.0366 -0.0165035 5.24497 0
M  V30 391 H 40.5106 -1.72669 5.24299 0
M  V30 392 H 40.9876 -2.39275 3.68299 0
M  V30 393 H 41.5936 -0.795475 4.17795 0
M  V30 394 N 39.9087 -1.5758 0.0250728 0
M  V30 395 C 40.8717 -2.08896 -0.943139 0
M  V30 396 C 41.8717 -1.00321 -1.25668 0
M  V30 397 O 43.0617 -1.26495 -1.19769 0
M  V30 398 C 40.1937 -2.55143 -2.26086 0
M  V30 399 H 41.3867 -2.95723 -0.498775 0
M  V30 400 H 38.9397 -1.54703 -0.222888 0
M  V30 401 H 39.6747 -1.71633 -2.75159 0
M  V30 402 H 39.4597 -3.34461 -2.04641 0
M  V30 403 H 40.9497 -2.95083 -2.95492 0
M  V30 404 N 41.3868 0.248026 -1.55636 0
M  V30 405 C 42.6328 0.97767 -1.77678 0
M  V30 406 C 42.9658 1.85016 -0.590135 0
M  V30 407 O 42.2408 1.90095 0.411611 0
M  V30 408 C 42.5238 1.83914 -3.09593 0
M  V30 409 C 42.3768 0.99491 -4.38659 0
M  V30 410 C 43.6958 2.82183 -3.37729 0
M  V30 411 H 40.8148 0.354005 -0.646413 0
M  V30 412 H 43.4568 0.248253 -1.88371 0
M  V30 413 H 41.6068 2.46104 -3.00608 0
M  V30 414 H 43.2788 0.391789 -4.59633 0
M  V30 415 H 41.5218 0.299231 -4.32767 0
M  V30 416 H 42.1928 1.63145 -5.2734 0
M  V30 417 H 44.6688 2.30129 -3.4667 0
M  V30 418 H 43.5448 3.39582 -4.31249 0
M  V30 419 H 43.8058 3.58588 -2.58586 0
M  V30 420 N 42.8649 1.48995 0.513639 0
M  V30 421 C 43.7969 1.60836 1.63293 0
M  V30 422 C 44.8099 0.491701 1.55197 0
M  V30 423 O 45.9989 0.763238 1.6136 0
M  V30 424 C 43.0989 1.53731 3.02027 0
M  V30 425 C 42.2719 2.80715 3.35437 0
M  V30 426 C 41.3309 2.66837 4.53525 0
M  V30 427 O 40.3569 3.40753 4.55934 0
M  V30 428 N 41.5589 1.77539 5.52684 0
M  V30 429 H 44.3239 2.57366 1.53566 0
M  V30 430 H 41.8849 1.45925 0.701259 0
M  V30 431 H 43.8769 1.42118 3.78926 0
M  V30 432 H 42.4469 0.651092 3.05744 0
M  V30 433 H 41.6669 3.06772 2.47557 0
M  V30 434 H 42.9549 3.64927 3.54551 0
M  V30 435 H 42.3529 1.16719 5.53528 0
M  V30 436 H 40.9099 1.71856 6.28736 0
M  V30 437 N 44.343 -0.763751 1.37857 0
M  V30 438 C 45.568 -1.55805 1.36893 0
M  V30 439 C 45.993 -1.88054 -0.0416135 0
M  V30 440 O 45.351 -1.49825 -1.02089 0
M  V30 441 C 45.399 -2.84012 2.22192 0
M  V30 442 O 44.503 -3.78732 1.63204 0
M  V30 443 H 43.844 -0.471638 0.46739 0
M  V30 444 H 46.374 -0.944657 1.81487 0
M  V30 445 H 46.384 -3.33037 2.35691 0
M  V30 446 H 45.059 -2.59869 3.24716 0
M  V30 447 H 43.636 -3.37402 1.58791 0
M  V30 448 N 45.8211 -1.22559 -0.990812 0
M  V30 449 C 46.7311 -1.01394 -2.11557 0
M  V30 450 C 47.7471 0.0383962 -1.73958 0
M  V30 451 O 48.9231 -0.154787 -2.00804 0
M  V30 452 C 45.9881 -0.596569 -3.41529 0
M  V30 453 C 45.0491 -1.72276 -3.93217 0
M  V30 454 C 44.2821 -1.32521 -5.16985 0
M  V30 455 O 44.5051 -0.204909 -5.70032 0
M  V30 456 O 43.4391 -2.14247 -5.62478 0
M  V30 457 H 47.2651 -1.95633 -2.32296 0
M  V30 458 H 44.8501 -1.01172 -1.0993 0
M  V30 459 H 46.7321 -0.374263 -4.19735 0
M  V30 460 H 45.4071 0.316939 -3.22145 0
M  V30 461 H 44.3141 -1.99961 -3.16174 0
M  V30 462 H 45.6471 -2.61421 -4.17037 0
M  V30 463 N 47.2992 1.18797 -1.03562 0
M  V30 464 C 48.2312 2.21731 -0.580337 0
M  V30 465 C 49.2442 1.59051 0.347349 0
M  V30 466 O 50.4332 1.77929 0.142669 0
M  V30 467 C 47.5332 3.38459 0.172805 0
M  V30 468 C 46.7062 4.3072 -0.761496 0
M  V30 469 C 45.7652 5.26174 -0.0525547 0
M  V30 470 O 44.7912 5.65108 -0.681333 0
M  V30 471 N 45.9932 5.67624 1.21586 0
M  V30 472 H 48.7582 2.61417 -1.46565 0
M  V30 473 H 46.3192 1.33531 -0.915476 0
M  V30 474 H 48.3112 3.99335 0.656793 0
M  V30 475 H 46.8812 2.97507 0.959602 0
M  V30 476 H 46.1012 3.67525 -1.42544 0
M  V30 477 H 47.3892 4.89267 -1.39626 0
M  V30 478 H 46.7872 5.38038 1.74732 0
M  V30 479 H 45.3442 6.30721 1.64421 0
M  V30 480 N 48.7773 0.814389 1.34928 0
M  V30 481 C 50.0253 0.397636 1.9815 0
M  V30 482 C 50.3463 -1.04069 1.64908 0
M  V30 483 O 49.6163 -1.72121 0.93548 0
M  V30 484 H 48.1963 0.144043 0.732981 0
M  V30 485 H 50.8583 1.04195 1.6471 0
M  V30 486 H 49.9543 0.509688 3.0791 0
M  V30 487 N 50.2554 -1.46986 0.568584 0
M  V30 488 C 51.1654 -2.33942 -0.17555 0
M  V30 489 C 52.1814 -1.48891 -0.90041 0
M  V30 490 O 53.3574 -1.81794 -0.86676 0
M  V30 491 C 50.4224 -3.25811 -1.18524 0
M  V30 492 C 49.4834 -4.26757 -0.466582 0
M  V30 493 C 48.7164 -5.14236 -1.42817 0
M  V30 494 O 48.9394 -5.04379 -2.66379 0
M  V30 495 O 47.8734 -5.94412 -0.946453 0
M  V30 496 H 51.6994 -2.98896 0.538036 0
M  V30 497 H 49.2844 -1.4573 0.329097 0
M  V30 498 H 51.1664 -3.82527 -1.76779 0
M  V30 499 H 49.8414 -2.63471 -1.88055 0
M  V30 500 H 48.7484 -3.73769 0.157451 0
M  V30 501 H 50.0814 -4.91843 0.187485 0
M  V30 502 N 51.7335 -0.305618 -1.54608 0
M  V30 503 C 52.6965 0.555591 -2.22364 0
M  V30 504 C 53.6965 1.05768 -1.21119 0
M  V30 505 O 54.8865 0.952972 -1.45822 0
M  V30 506 C 52.0185 1.76974 -2.91364 0
M  V30 507 H 53.2115 -0.0364572 -2.99878 0
M  V30 508 H 50.7645 -0.0565007 -1.56198 0
M  V30 509 H 51.4995 2.40151 -2.17941 0
M  V30 510 H 51.2845 1.41732 -3.65588 0
M  V30 511 H 52.7745 2.38148 -3.43038 0
M  V30 512 N 53.2116 1.57565 -0.0334293 0
M  V30 513 C 54.4596 1.91598 0.642999 0
M  V30 514 C 54.7806 0.910847 1.7242 0
M  V30 515 O 54.0506 -0.0469931 1.95844 0
M  V30 516 H 52.6306 0.707228 0.240496 0
M  V30 517 H 55.2926 1.94726 -0.0822488 0
M  V30 518 H 54.3886 2.92336 1.09298 0
M  V30 519 N 54.6897 -0.239769 1.55765 0
M  V30 520 C 55.9377 -0.964892 1.77579 0
M  V30 521 C 56.2587 -1.85582 0.598699 0
M  V30 522 O 55.5287 -1.92075 -0.385226 0
M  V30 523 H 54.1087 -0.359265 0.654933 0
M  V30 524 H 56.7707 -0.256001 1.93211 0
M  V30 525 H 55.8667 -1.58243 2.69009 0
M  V30 526 N 56.1678 -1.49265 -0.50573 0
M  V30 527 C 57.4158 -1.582 -1.25766 0
M  V30 528 C 57.7368 -0.268482 -1.93143 0
M  V30 529 O 57.0068 0.711833 -1.8251 0
M  V30 530 H 55.5868 -0.582873 -0.467191 0
M  V30 531 H 58.2488 -1.85865 -0.586525 0
M  V30 532 H 57.3448 -2.37563 -2.02412 0
M  V30 533 N 57.6459 0.756429 -1.3826 0
M  V30 534 C 58.8939 1.51248 -1.34047 0
M  V30 535 C 59.2149 1.94875 0.0698372 0
M  V30 536 O 58.4849 1.67436 1.01696 0
M  V30 537 H 57.0649 0.561018 -0.493222 0
M  V30 538 H 59.7269 0.899347 -1.7291 0
M  V30 539 H 58.8229 2.40472 -1.98947 0
M  V30 540 N 59.124 1.23083 0.984299 0
M  V30 541 C 60.349 1.088 1.76571 0
M  V30 542 C 60.774 -0.356657 1.84688 0
M  V30 543 O 60.132 -1.25788 1.30565 0
M  V30 544 C 60.18 1.71371 3.17277 0
M  V30 545 O 59.284 0.973213 4.00752 0
M  V30 546 H 58.625 0.381599 0.543395 0
M  V30 547 H 61.155 1.63057 1.23587 0
M  V30 548 H 61.165 1.76449 3.67872 0
M  V30 549 H 59.84 2.76493 3.10684 0
M  V30 550 H 58.417 0.999078 3.59267 0
M  V30 551 N 60.6021 -1.18246 1.0419 0
M  V30 552 C 62.0131 -1.69914 0.773698 0
M  V30 553 C 62.3641 -1.83085 -0.705297 0
M  V30 554 O 61.4891 -1.51123 -1.5489 0
M  V30 555 C 62.0841 -3.08619 1.39784 0
M  V30 556 C 60.6431 -3.57494 1.17792 0
M  V30 557 C 59.7901 -2.34013 1.48773 0
M  V30 558 H 62.7411 -1.02904 1.20816 0
M  V30 559 H 62.7621 -3.71958 0.801714 0
M  V30 560 H 62.2741 -2.99001 2.47426 0
M  V30 561 H 60.3751 -3.72406 0.120295 0
M  V30 562 H 60.4881 -4.40852 1.87581 0
M  V30 563 H 58.8521 -2.37986 0.907463 0
M  V30 564 H 59.6351 -2.27013 2.57527 0
M  V30 565 N 62.0802 -0.821533 -1.34494 0
M  V30 566 C 63.4962 -0.507117 -1.51329 0
M  V30 567 C 63.6962 0.968964 -1.76673 0
M  V30 568 O 62.7522 1.75348 -1.81685 0
M  V30 569 C 64.0652 -1.36544 -2.67911 0
M  V30 570 C 65.6132 -1.36242 -2.81793 0
M  V30 571 C 66.0882 -2.2052 -4.01416 0
M  V30 572 N 67.5792 -2.18136 -4.08621 0
M  V30 573 C 68.3142 -2.80095 -5.00334 0
M  V30 574 N 67.8102 -3.51039 -5.9728 0
M  V30 575 N 69.6032 -2.69656 -4.93196 0
M  V30 576 H 61.7542 -1.77729 -1.16302 0
M  V30 577 H 64.0172 -0.757291 -0.570276 0
M  V30 578 H 63.7232 -2.41361 -2.55808 0
M  V30 579 H 63.5972 -1.02917 -3.62888 0
M  V30 580 H 65.9842 -0.322041 -2.93338 0
M  V30 581 H 66.0652 -1.73866 -1.87628 0
M  V30 582 H 65.7092 -3.24607 -3.90631 0
M  V30 583 H 65.6392 -1.80247 -4.94791 0
M  V30 584 H 68.1302 -1.6653 -3.39229 0
M  V30 585 H 68.4432 -3.95565 -6.63889 0
M  V30 586 H 66.7882 -3.55145 -5.97409 0
M  V30 587 H 69.9792 -2.13808 -4.16418 0
M  V30 588 H 70.1522 -3.1823 -5.64476 0
M  V30 589 N 63.5583 1.46682 -0.576371 0
M  V30 590 C 64.9743 1.57822 -0.237562 0
M  V30 591 C 65.1743 1.57237 1.26011 0
M  V30 592 O 64.2303 1.48596 2.04146 0
M  V30 593 C 65.5433 2.87499 -0.881168 0
M  V30 594 C 67.0913 3.01119 -0.85417 0
M  V30 595 C 67.5663 4.33524 -1.4772 0
M  V30 596 N 69.0573 4.40207 -1.44125 0
M  V30 597 C 69.7923 5.4126 -1.89276 0
M  V30 598 N 69.2883 6.49021 -2.42371 0
M  V30 599 N 71.0813 5.32422 -1.80231 0
M  V30 600 H 63.2323 1.45306 -1.54919 0
M  V30 601 H 65.4953 0.692733 -0.647167 0
M  V30 602 H 65.2013 2.9372 -1.93447 0
M  V30 603 H 65.0753 3.75224 -0.385592 0
M  V30 604 H 67.4623 2.94485 0.190491 0
M  V30 605 H 67.5433 2.14887 -1.3877 0
M  V30 606 H 67.1873 4.40916 -2.52103 0
M  V30 607 H 67.1173 5.1852 -0.918947 0
M  V30 608 H 69.6083 3.62931 -1.05307 0
M  V30 609 H 69.9213 7.2233 -2.74698 0
M  V30 610 H 68.2663 6.49858 -2.46393 0
M  V30 611 H 71.4573 4.47137 -1.38514 0
M  V30 612 H 71.6303 6.11034 -2.15735 0
M  V30 613 N 65.0364 0.313813 1.54444 0
M  V30 614 C 65.9664 -0.549454 2.26943 0
M  V30 615 C 66.9474 -1.12741 1.27372 0
M  V30 616 O 68.1324 -1.15436 1.56167 0
M  V30 617 C 65.2624 -1.71523 3.01989 0
M  V30 618 C 64.2164 -1.26703 4.08816 0
M  V30 619 C 63.5424 -2.51898 4.71647 0
M  V30 620 C 64.8424 -0.388962 5.2085 0
M  V30 621 H 66.5364 0.0552661 2.99349 0
M  V30 622 H 64.0824 0.0280207 1.43973 0
M  V30 623 H 66.0354 -2.32535 3.51433 0
M  V30 624 H 64.7594 -2.34639 2.27183 0
M  V30 625 H 63.4184 -0.679896 3.6024 0
M  V30 626 H 63.0664 -3.13356 3.93468 0
M  V30 627 H 62.7664 -2.22605 5.43802 0
M  V30 628 H 64.2904 -3.1369 5.23861 0
M  V30 629 H 65.7044 -0.905107 5.6611 0
M  V30 630 H 64.1014 -0.18924 5.99802 0
M  V30 631 H 65.1714 0.582699 4.81386 0
M  V30 632 N 66.5145 -1.57545 0.0417849 0
M  V30 633 C 67.7625 -1.91937 -0.632829 0
M  V30 634 C 68.0835 -0.919978 -1.71934 0
M  V30 635 O 67.3535 0.0366064 -1.95866 0
M  V30 636 H 65.9335 -0.708493 -0.236742 0
M  V30 637 H 68.5955 -1.9468 0.0925745 0
M  V30 638 H 67.6915 -2.92912 -1.07746 0
M  V30 639 N 67.9926 0.231505 -1.5589 0
M  V30 640 C 68.9226 1.29022 -1.94617 0
M  V30 641 C 69.9036 1.4941 -0.813067 0
M  V30 642 O 71.0886 1.6176 -1.07459 0
M  V30 643 C 68.2186 2.64199 -2.25424 0
M  V30 644 C 67.1726 2.58484 -3.41131 0
M  V30 645 C 66.4986 3.97599 -3.57518 0
M  V30 646 C 67.7986 2.1413 -4.76388 0
M  V30 647 H 69.4926 0.968563 -2.83301 0
M  V30 648 H 67.0386 0.464479 -1.36303 0
M  V30 649 H 68.9916 3.38413 -2.51107 0
M  V30 650 H 67.7156 2.98032 -1.33583 0
M  V30 651 H 66.3746 1.86727 -3.15481 0
M  V30 652 H 66.0226 4.28723 -2.6307 0
M  V30 653 H 65.7226 3.94659 -4.35337 0
M  V30 654 H 67.2466 4.7349 -3.85538 0
M  V30 655 H 68.6606 2.78083 -5.01341 0
M  V30 656 H 67.0576 2.2227 -5.57419 0
M  V30 657 H 68.1276 1.09331 -4.72414 0
M  V30 658 N 69.4707 1.49531 0.497807 0
M  V30 659 C 70.4007 1.6935 1.60757 0
M  V30 660 C 71.3817 0.542218 1.61227 0
M  V30 661 O 72.5667 0.778417 1.77917 0
M  V30 662 C 69.6967 1.76298 2.99226 0
M  V30 663 C 68.6507 2.91248 3.13622 0
M  V30 664 C 67.9767 2.83312 4.53474 0
M  V30 665 C 69.2767 4.3214 2.93346 0
M  V30 666 H 70.9707 2.62263 1.44425 0
M  V30 667 H 68.5167 1.26208 0.693367 0
M  V30 668 H 70.4697 1.88749 3.76765 0
M  V30 669 H 69.1937 0.799871 3.16654 0
M  V30 670 H 67.8527 2.78404 2.38509 0
M  V30 671 H 67.5007 1.84902 4.67782 0
M  V30 672 H 67.2007 3.60465 4.64046 0
M  V30 673 H 68.7247 2.97775 5.33069 0
M  V30 674 H 70.1387 4.45649 3.60652 0
M  V30 675 H 68.5357 5.1054 3.15387 0
M  V30 676 H 69.6057 4.46363 1.89441 0
M  V30 677 N 70.9488 -0.749086 1.3866 0
M  V30 678 C 72.1968 -1.50535 1.34847 0
M  V30 679 C 72.5178 -1.94909 -0.0595016 0
M  V30 680 O 71.7878 -1.67973 -1.00806 0
M  V30 681 H 70.3678 -0.558395 0.49619 0
M  V30 682 H 73.0298 -0.890165 1.73384 0
M  V30 683 H 72.1258 -2.39413 2.00219 0
M  V30 684 N 72.4269 -1.23603 -0.977757 0
M  V30 685 C 73.6519 -1.09735 -1.75991 0
M  V30 686 C 74.0769 0.346858 -1.84874 0
M  V30 687 O 73.4349 1.25093 -1.3123 0
M  V30 688 C 73.4829 -1.73051 -3.16363 0
M  V30 689 O 72.5869 -0.994452 -4.0023 0
M  V30 690 H 71.9279 -0.384476 -0.541364 0
M  V30 691 H 74.4579 -1.6371 -1.2272 0
M  V30 692 H 74.4679 -1.78398 -3.66931 0
M  V30 693 H 73.1429 -2.78137 -3.09213 0
M  V30 694 H 71.7199 -1.01812 -3.58732 0
M  V30 695 N 73.905 1.17692 -1.04816 0
M  V30 696 C 75.316 1.69501 -0.782698 0
M  V30 697 C 75.667 1.83456 0.695577 0
M  V30 698 O 74.792 1.51942 1.54086 0
M  V30 699 C 75.387 3.07874 -1.41419 0
M  V30 700 C 73.946 3.56864 -1.19686 0
M  V30 701 C 73.093 2.3322 -1.50012 0
M  V30 702 H 76.044 1.02262 -1.2136 0
M  V30 703 H 76.065 3.71528 -0.821428 0
M  V30 704 H 75.577 2.97685 -2.49009 0
M  V30 705 H 73.678 3.72337 -0.140043 0
M  V30 706 H 73.791 4.39851 -1.89916 0
M  V30 707 H 72.155 2.37501 -0.920071 0
M  V30 708 H 72.938 2.25644 -2.58727 0
M  V30 709 N 75.3831 0.828654 1.34056 0
M  V30 710 C 76.3131 0.269443 2.3194 0
M  V30 711 C 77.2941 -0.617247 1.58506 0
M  V30 712 O 78.4791 -0.542931 1.86456 0
M  V30 713 C 75.6091 -0.564793 3.42677 0
M  V30 714 C 74.5631 0.225241 4.27407 0
M  V30 715 C 73.8891 -0.7321 5.29664 0
M  V30 716 C 75.1891 1.43663 5.02154 0
M  V30 717 H 76.8831 1.08728 2.7896 0
M  V30 718 H 74.4291 0.524283 1.34117 0
M  V30 719 H 76.3821 -0.966233 4.10173 0
M  V30 720 H 75.1061 -1.41574 2.9432 0
M  V30 721 H 73.7651 0.608117 3.61521 0
M  V30 722 H 73.4131 -1.57916 4.77568 0
M  V30 723 H 73.1131 -0.20767 5.87233 0
M  V30 724 H 74.6371 -1.13128 6.00029 0
M  V30 725 H 76.0511 1.1089 5.62473 0
M  V30 726 H 74.4481 1.89711 5.69324 0
M  V30 727 H 75.5181 2.21181 4.31517 0
M  V30 728 N 76.8612 -1.46375 0.584142 0
M  V30 729 C 78.2722 -1.86031 0.157959 0
M  V30 730 C 78.6232 -1.48753 -1.27933 0
M  V30 731 O 77.7482 -0.903098 -1.96655 0
M  V30 732 C 78.3432 -3.37642 0.279892 0
M  V30 733 C 76.9022 -3.76289 -0.09143 0
M  V30 734 C 76.0492 -2.7039 0.615178 0
M  V30 735 H 79.0002 -1.37509 0.792274 0
M  V30 736 H 79.0212 -3.77275 -0.494364 0
M  V30 737 H 78.5332 -3.64742 1.32607 0
M  V30 738 H 76.6342 -3.54806 -1.13769 0
M  V30 739 H 76.7472 -4.78246 0.285886 0
M  V30 740 H 75.1112 -2.5464 0.0552833 0
M  V30 741 H 75.8942 -3.0033 1.66303 0
M  V30 742 N 78.3393 -0.321999 -1.54275 0
M  V30 743 C 79.7503 0.166384 -1.85957 0
M  V30 744 C 80.1013 1.51747 -1.24367 0
M  V30 745 O 79.2263 2.09317 -0.549124 0
M  V30 746 C 79.8213 0.308681 -3.37391 0
M  V30 747 C 78.3803 0.741286 -3.69028 0
M  V30 748 C 77.5273 -0.137937 -2.76957 0
M  V30 749 H 80.4783 -0.542335 -1.49146 0
M  V30 750 H 80.4993 1.13984 -3.63026 0
M  V30 751 H 80.0113 -0.674809 -3.82188 0
M  V30 752 H 78.1123 1.73458 -3.29762 0
M  V30 753 H 78.2253 0.546118 -4.75977 0
M  V30 754 H 76.5893 0.386251 -2.51754 0
M  V30 755 H 77.3723 -1.11816 -3.2458 0
M  V30 756 N 79.8174 1.5752 -0.0501392 0
M  V30 757 C 81.0654 1.9227 0.622642 0
M  V30 758 C 81.3864 0.929083 1.71444 0
M  V30 759 O 80.6564 -0.0262186 1.95882 0
M  V30 760 H 79.2364 0.709739 0.232981 0
M  V30 761 H 81.8984 1.94628 -0.102898 0
M  V30 762 H 80.9944 2.93479 1.06191 0
M  V30 763 N 81.2955 -0.223234 1.56011 0
M  V30 764 C 82.2585 -1.26014 1.9145 0
M  V30 765 C 83.2585 -1.3989 0.792937 0
M  V30 766 O 84.4485 -1.38184 1.0607 0
M  V30 767 C 81.5805 -2.63422 2.16383 0
M  V30 768 H 82.7735 -0.95796 2.84189 0
M  V30 769 H 80.3265 -0.463576 1.49267 0
M  V30 770 H 81.0615 -2.98741 1.2619 0
M  V30 771 H 80.8465 -2.54728 2.98088 0
M  V30 772 H 82.3365 -3.38249 2.44903 0
M  V30 773 N 82.7736 -1.49793 -0.48987 0
M  V30 774 C 84.1846 -1.52914 -1.07118 0
M  V30 775 C 84.5356 -0.321738 -1.93544 0
M  V30 776 O 83.6606 0.567338 -2.08831 0
M  V30 777 C 84.2556 -2.771 -1.94938 0
M  V30 778 C 82.8146 -2.82963 -2.48212 0
M  V30 779 C 81.9616 -2.46972 -1.26096 0
M  V30 780 H 84.9126 -1.56329 -0.273289 0
M  V30 781 H 84.9336 -2.57892 -2.79771 0
M  V30 782 H 84.4456 -3.64959 -1.32009 0
M  V30 783 H 82.5466 -1.99411 -3.14748 0
M  V30 784 H 82.6596 -3.85406 -2.84603 0
M  V30 785 H 81.0236 -1.98994 -1.58976 0
M  V30 786 H 81.8066 -3.37118 -0.648581 0
M  V30 787 N 84.2517 0.741722 -1.39055 0
M  V30 788 C 85.1817 1.869 -1.39966 0
M  V30 789 C 86.1627 1.6804 -0.26392 0
M  V30 790 O 87.3477 1.88458 -0.468755 0
M  V30 791 C 84.4777 3.24572 -1.23574 0
M  V30 792 C 83.4317 3.58056 -2.34477 0
M  V30 793 C 82.7577 4.94593 -2.0318 0
M  V30 794 C 84.0577 3.61716 -3.76774 0
M  V30 795 H 85.7517 1.86395 -2.34302 0
M  V30 796 H 83.2977 0.895361 -1.1278 0
M  V30 797 H 85.2507 4.031 -1.22834 0
M  V30 798 H 83.9747 3.25587 -0.257045 0
M  V30 799 H 82.6337 2.81854 -2.34423 0
M  V30 800 H 82.2817 4.92181 -1.03765 0
M  V30 801 H 81.9817 5.17964 -2.77465 0
M  V30 802 H 83.5057 5.75486 -2.04079 0
M  V30 803 H 84.9197 4.30335 -3.78794 0
M  V30 804 H 83.3167 3.96603 -4.50362 0
M  V30 805 H 84.3867 2.61672 -4.08235 0
M  V30 806 N 85.7298 1.2412 0.971189 0
M  V30 807 C 87.1408 1.07236 1.52831 0
M  V30 808 C 87.4918 -0.357352 1.92918 0
M  V30 809 O 86.6168 -1.24528 1.76979 0
M  V30 810 C 87.2118 1.94043 2.77728 0
M  V30 811 C 85.7708 1.81394 3.29808 0
M  V30 812 C 84.9178 1.89189 2.02738 0
M  V30 813 H 87.8688 1.37648 0.789864 0
M  V30 814 H 87.8898 1.47066 3.5093 0
M  V30 815 H 87.4018 2.98093 2.4852 0
M  V30 816 H 85.5028 0.801634 3.63874 0
M  V30 817 H 85.6158 2.65294 3.98944 0
M  V30 818 H 83.9798 1.32877 2.17292 0
M  V30 819 H 84.7628 2.94812 1.759 0
M  V30 820 N 87.2079 -1.17134 1.05439 0
M  V30 821 C 88.4559 -1.87085 0.764429 0
M  V30 822 C 88.7769 -1.81584 -0.710787 0
M  V30 823 O 88.0469 -1.24349 -1.51374 0
M  V30 824 H 86.6269 -0.692627 0.279779 0
M  V30 825 H 89.2889 -1.42087 1.33406 0
M  V30 826 H 88.3849 -2.92759 1.0816 0
M  V30 827 N 88.686 -0.835752 -1.33615 0
M  V30 828 C 90.097 -0.487099 -1.80234 0
M  V30 829 C 90.448 0.993627 -1.69179 0
M  V30 830 O 89.573 1.77403 -1.23924 0
M  V30 831 C 90.168 -0.877385 -3.27242 0
M  V30 832 C 88.727 -0.580915 -3.7189 0
M  V30 833 C 87.874 -1.0874 -2.5509 0
M  V30 834 H 90.825 -1.02474 -1.2118 0
M  V30 835 H 90.846 -0.186195 -3.80044 0
M  V30 836 H 90.358 -1.95512 -3.35256 0
M  V30 837 H 88.459 0.486881 -3.69405 0
M  V30 838 H 88.572 -1.13396 -4.65487 0
M  V30 839 H 86.936 -0.508392 -2.49575 0
M  V30 840 H 87.719 -2.17184 -2.65868 0
M  V30 841 N 90.1641 1.46063 -0.591896 0
M  V30 842 C 91.4121 2.01938 -0.0808391 0
M  V30 843 C 91.7331 1.46475 1.28725 0
M  V30 844 O 91.0031 0.652944 1.84698 0
M  V30 845 H 89.5831 0.746516 -0.0268938 0
M  V30 846 H 92.2451 1.79055 -0.769752 0
M  V30 847 H 91.3411 3.12094 -0.0187578 0
M  V30 848 N 91.6422 0.330177 1.54103 0
M  V30 849 C 92.8672 -0.274893 2.0557 0
M  V30 850 C 93.2922 -1.44487 1.20437 0
M  V30 851 O 92.6502 -1.80021 0.214991 0
M  V30 852 C 92.6982 -0.68079 3.54115 0
M  V30 853 O 91.8022 -1.7824 3.71893 0
M  V30 854 H 91.1432 -0.0483849 0.662235 0
M  V30 855 H 93.6732 0.480508 1.98878 0
M  V30 856 H 93.6832 -0.961635 3.96505 0
M  V30 857 H 92.3582 0.174903 4.15532 0
M  V30 858 H 90.9352 -1.49985 3.41407 0
M  V30 859 N 93.1203 -1.57491 0.0584922 0
M  V30 860 C 94.3683 -1.92597 -0.612436 0
M  V30 861 C 94.6893 -0.938162 -1.70949 0
M  V30 862 O 93.9593 0.0158301 -1.95894 0
M  V30 863 H 92.5393 -0.710964 -0.229214 0
M  V30 864 H 95.2013 -1.94571 0.113218 0
M  V30 865 H 94.2973 -2.94038 -1.04633 0
M  V30 866 N 94.5984 0.214957 -1.56127 0
M  V30 867 C 95.8234 0.95924 -1.83884 0
M  V30 868 C 96.2484 1.7689 -0.639644 0
M  V30 869 O 95.6064 1.76566 0.411601 0
M  V30 870 C 95.6544 1.84723 -3.09693 0
M  V30 871 O 94.7584 2.94346 -2.8885 0
M  V30 872 H 94.0994 0.27125 -0.606069 0
M  V30 873 H 96.6294 0.226276 -2.03345 0
M  V30 874 H 96.6394 2.25576 -3.39969 0
M  V30 875 H 95.3144 1.25218 -3.96602 0
M  V30 876 H 93.8914 2.57391 -2.69823 0
M  V30 877 N 96.0765 1.50051 0.48192 0
M  V30 878 C 97.3245 1.60181 1.23234 0
M  V30 879 C 97.6455 0.299176 1.92691 0
M  V30 880 O 96.9155 -0.682708 1.83619 0
M  V30 881 H 95.4955 0.590232 0.457859 0
M  V30 882 H 98.1575 1.86775 0.556881 0
M  V30 883 H 97.2535 2.40753 1.98607 0
M  V30 884 N 97.5546 -0.734337 1.39446 0
M  V30 885 C 98.7796 -1.52866 1.40167 0
M  V30 886 C 99.2046 -1.881 -0.00171513 0
M  V30 887 O 98.5626 -1.51957 -0.988879 0
M  V30 888 C 98.6106 -2.79235 2.28167 0
M  V30 889 O 97.7146 -3.75185 1.71201 0
M  V30 890 H 97.0556 -0.461618 0.477289 0
M  V30 891 H 99.5856 -0.905949 1.8345 0
M  V30 892 H 99.5956 -3.27963 2.42702 0
M  V30 893 H 98.2706 -2.52923 3.30156 0
M  V30 894 H 96.8476 -3.33958 1.65912 0
M  V30 895 N 99.0327 -1.24633 -0.964593 0
M  V30 896 C 99.9957 -1.0424 -2.04124 0
M  V30 897 C 100.996 0.00137563 -1.608 0
M  V30 898 O 102.186 -0.239883 -1.7254 0
M  V30 899 C 99.3177 -0.580588 -3.3592 0
M  V30 900 H 100.511 -1.99803 -2.23649 0
M  V30 901 H 98.0637 -1.06899 -1.14027 0
M  V30 902 H 98.7987 0.3781 -3.22088 0
M  V30 903 H 98.5837 -1.33398 -3.6871 0
M  V30 904 H 100.074 -0.459034 -4.15069 0
M  V30 905 N 100.511 1.16574 -1.06058 0
M  V30 906 C 101.751 1.88723 -0.78504 0
M  V30 907 C 102.115 1.79706 0.676006 0
M  V30 908 O 103.316 2.46757 1.06603 0
M  V30 909 C 101.587 3.34338 -1.26304 0
M  V30 910 S 103.146 4.24366 -1.1162 0
M  V30 911 H 99.9638 0.651448 -0.284846 0
M  V30 912 H 102.566 1.40732 -1.35701 0
M  V30 913 H 101.27 3.38439 -2.32136 0
M  V30 914 H 100.801 3.87378 -0.685719 0
M  V30 915 H 102.816 4.96179 -0.0456539 0
M  V30 916 N 101.989 0.842826 1.3317 0
M  V30 917 C 103.237 0.439577 1.97262 0
M  V30 918 C 103.558 -1.00548 1.67078 0
M  V30 919 O 102.828 -1.70098 0.971779 0
M  V30 920 H 101.408 0.159558 0.72976 0
M  V30 921 H 104.07 1.07665 1.62463 0
M  V30 922 H 103.166 0.574886 3.0676 0
M  V30 923 N 103.467 -1.45747 0.599634 0
M  V30 924 C 104.399 -2.28628 -0.161879 0
M  V30 925 C 105.412 -1.39494 -0.839367 0
M  V30 926 O 106.601 -1.63941 -0.706089 0
M  V30 927 C 103.701 -3.15014 -1.24976 0
M  V30 928 C 102.874 -4.32378 -0.660935 0
M  V30 929 C 101.933 -5.00033 -1.63869 0
M  V30 930 O 100.959 -5.57085 -1.1681 0
M  V30 931 N 102.161 -4.98589 -2.97303 0
M  V30 932 H 104.926 -2.94624 0.549265 0
M  V30 933 H 102.487 -1.55847 0.438565 0
M  V30 934 H 104.479 -3.5714 -1.9035 0
M  V30 935 H 103.049 -2.5098 -1.86354 0
M  V30 936 H 102.269 -3.9383 0.170688 0
M  V30 937 H 103.557 -5.08197 -0.247619 0
M  V30 938 H 102.955 -4.53514 -3.38145 0
M  V30 939 H 101.512 -5.44603 -3.58121 0
M  V30 940 N 104.945 -0.338344 -1.53925 0
M  V30 941 C 106.361 0.0137736 -1.59594 0
M  V30 942 C 106.561 1.49186 -1.35447 0
M  V30 943 O 105.617 2.24987 -1.14616 0
M  V30 944 C 106.93 -0.41773 -2.97784 0
M  V30 945 C 108.478 -0.369633 -3.1081 0
M  V30 946 C 108.953 -0.776524 -4.51369 0
M  V30 947 N 110.444 -0.730506 -4.57403 0
M  V30 948 C 111.179 -1.01736 -5.64303 0
M  V30 949 N 110.675 -1.3721 -6.79077 0
M  V30 950 N 112.468 -0.941942 -5.54151 0
M  V30 951 H 104.619 -1.3012 -1.67876 0
M  V30 952 H 106.882 -0.530082 -0.78595 0
M  V30 953 H 106.588 -1.44811 -3.20504 0
M  V30 954 H 106.462 0.209729 -3.76616 0
M  V30 955 H 108.849 0.651568 -2.87817 0
M  V30 956 H 108.93 -1.03223 -2.34049 0
M  V30 957 H 108.574 -1.79571 -4.75096 0
M  V30 958 H 108.504 -0.0914649 -5.26521 0
M  V30 959 H 110.995 -0.468783 -3.74981 0
M  V30 960 H 111.308 -1.57597 -7.5656 0
M  V30 961 H 109.653 -1.4105 -6.80536 0
M  V30 962 H 112.844 -0.664184 -4.63364 0
M  V30 963 H 113.017 -1.16884 -6.37371 0
M  V30 964 N 106.423 1.57458 -0.0668435 0
M  V30 965 C 107.648 1.9804 0.616027 0
M  V30 966 C 108.073 0.944771 1.62652 0
M  V30 967 O 107.431 -0.0902094 1.81075 0
M  V30 968 C 107.479 3.37665 1.26549 0
M  V30 969 O 106.583 3.36701 2.38131 0
M  V30 970 H 105.924 0.644719 0.158849 0
M  V30 971 H 108.454 2.04121 -0.139891 0
M  V30 972 H 108.464 3.7474 1.6135 0
M  V30 973 H 107.139 4.12573 0.525016 0
M  V30 974 H 105.716 3.1139 2.0516 0
M  V30 975 N 107.901 -0.206675 1.56239 0
M  V30 976 C 109.126 -0.949474 1.8439 0
M  V30 977 C 109.551 -1.76549 0.649016 0
M  V30 978 O 108.909 -1.76782 -0.402231 0
M  V30 979 C 108.957 -1.83078 3.10668 0
M  V30 980 O 108.061 -2.9281 2.90407 0
M  V30 981 H 107.402 -0.268033 0.607499 0
M  V30 982 H 109.932 -0.215488 2.03462 0
M  V30 983 H 109.942 -2.2377 3.41161 0
M  V30 984 H 108.617 -1.23112 3.97261 0
M  V30 985 H 107.194 -2.55956 2.71184 0
M  V30 986 N 109.379 -1.50304 -0.473955 0
M  V30 987 C 110.342 -1.6841 -1.55469 0
M  V30 988 C 111.342 -0.554905 -1.50922 0
M  V30 989 O 112.532 -0.821882 -1.53593 0
M  V30 990 C 109.664 -1.70667 -2.95102 0
M  V30 991 H 110.857 -2.64828 -1.40733 0
M  V30 992 H 108.41 -1.39742 -0.700132 0
M  V30 993 H 109.145 -0.75932 -3.15285 0
M  V30 994 H 108.93 -2.52698 -2.9981 0
M  V30 995 H 110.42 -1.8664 -3.73571 0
M  V30 996 N 110.857 0.726932 -1.39834 0
M  V30 997 C 111.82 1.82269 -1.38962 0
M  V30 998 C 112.82 1.58248 -0.285334 0
M  V30 999 O 114.01 1.65499 -0.54366 0
M  V30 1000 C 111.142 3.20186 -1.17019 0
M  V30 1001 H 112.335 1.84443 -2.36476 0
M  V30 1002 H 109.888 0.931416 -1.25516 0
M  V30 1003 H 110.623 3.23669 -0.202204 0
M  V30 1004 H 110.408 3.3902 -1.96998 0
M  V30 1005 H 111.898 4.00235 -1.1917 0
M  V30 1006 N 112.336 1.25143 0.95797 0
M  V30 1007 C 113.286 1.01924 2.0395 0
M  V30 1008 C 114.27 -0.0427175 1.60843 0
M  V30 1009 O 115.462 0.17221 1.7616 0
M  V30 1010 C 112.591 0.636373 3.3735 0
M  V30 1011 C 111.677 1.73492 3.8699 0
M  V30 1012 N 112.068 2.96945 4.0946 0
M  V30 1013 C 110.366 1.61467 4.15746 0
M  V30 1014 C 111.067 3.68228 4.50315 0
M  V30 1015 N 110.043 2.95833 4.56053 0
M  V30 1016 H 113.845 1.95653 2.19311 0
M  V30 1017 H 111.359 1.15413 1.14253 0
M  V30 1018 H 113.356 0.451233 4.14451 0
M  V30 1019 H 112.016 -0.293621 3.2337 0
M  V30 1020 H 113.027 3.33025 3.96629 0
M  V30 1021 H 109.704 0.753394 4.10646 0
M  V30 1022 H 111.094 4.74178 4.76031 0
M  V30 1023 N 113.814 -1.1601 1.06675 0
M  V30 1024 C 114.761 -2.20525 0.680967 0
M  V30 1025 C 115.731 -1.62904 -0.324283 0
M  V30 1026 O 116.916 -1.89615 -0.212294 0
M  V30 1027 C 114.056 -3.45013 0.0776551 0
M  V30 1028 C 113.169 -4.16863 1.13355 0
M  V30 1029 C 112.304 -5.2888 0.49597 0
M  V30 1030 C 111.343 -5.92537 1.53513 0
M  V30 1031 N 110.48 -6.96038 0.920631 0
M  V30 1032 H 115.32 -2.52876 1.57663 0
M  V30 1033 H 112.857 -1.24199 0.788223 0
M  V30 1034 H 114.815 -4.16193 -0.289704 0
M  V30 1035 H 113.445 -3.132 -0.781393 0
M  V30 1036 H 112.497 -3.44248 1.61857 0
M  V30 1037 H 113.809 -4.60294 1.92174 0
M  V30 1038 H 112.963 -6.06653 0.0758604 0
M  V30 1039 H 111.702 -4.86622 -0.324062 0
M  V30 1040 H 110.707 -5.13482 1.9651 0
M  V30 1041 H 111.932 -6.36873 2.35733 0
M  V30 1042 H 109.878 -6.55888 0.12138 0
M  V30 1043 H 109.795 -7.3786 1.64616 0
M  V30 1044 H 111.063 -7.77725 0.525795 0
M  V30 1045 N 115.292 -0.849877 -1.32721 0
M  V30 1046 C 116.708 -0.539102 -1.50219 0
M  V30 1047 C 116.908 0.931271 -1.78689 0
M  V30 1048 O 115.964 1.71455 -1.85363 0
M  V30 1049 C 117.277 -1.42196 -2.64954 0
M  V30 1050 C 118.825 -1.42189 -2.78839 0
M  V30 1051 C 119.3 -2.28985 -3.96648 0
M  V30 1052 N 120.791 -2.26754 -4.03902 0
M  V30 1053 C 121.526 -2.90644 -4.94281 0
M  V30 1054 N 121.022 -3.63629 -5.897 0
M  V30 1055 N 122.815 -2.80057 -4.87365 0
M  V30 1056 H 114.966 -1.80156 -1.12506 0
M  V30 1057 H 117.229 -0.769217 -0.554085 0
M  V30 1058 H 116.935 -2.46733 -2.50631 0
M  V30 1059 H 116.809 -1.10591 -3.60624 0
M  V30 1060 H 119.196 -0.38419 -2.92588 0
M  V30 1061 H 119.277 -1.77807 -1.83898 0
M  V30 1062 H 118.921 -3.32819 -3.83658 0
M  V30 1063 H 118.851 -1.90702 -4.90857 0
M  V30 1064 H 121.342 -1.73688 -3.3562 0
M  V30 1065 H 121.655 -4.09558 -6.55349 0
M  V30 1066 H 120 -3.67737 -5.89741 0
M  V30 1067 H 123.191 -2.22593 -4.11789 0
M  V30 1068 H 123.364 -3.30132 -5.57599 0
M  V30 1069 N 116.77 1.45427 -0.607355 0
M  V30 1070 C 118 2.06314 -0.108656 0
M  V30 1071 C 118.408 1.45269 1.21217 0
M  V30 1072 O 117.751 0.561115 1.74921 0
M  V30 1073 C 117.813 3.59345 0.105618 0
M  V30 1074 C 117.477 4.42723 -1.13337 0
M  V30 1075 C 118.474 4.77715 -2.05145 0
M  V30 1076 C 116.159 4.83478 -1.36213 0
M  V30 1077 C 118.153 5.52317 -3.18158 0
M  V30 1078 C 115.84 5.57835 -2.49527 0
M  V30 1079 C 116.838 5.92171 -3.40327 0
M  V30 1080 O 116.526 6.65019 -4.51669 0
M  V30 1081 H 116.258 0.672782 -0.0658842 0
M  V30 1082 H 118.812 1.87664 -0.834945 0
M  V30 1083 H 117.042 3.76394 0.886796 0
M  V30 1084 H 118.731 4.02076 0.555886 0
M  V30 1085 H 119.497 4.46787 -1.88697 0
M  V30 1086 H 115.376 4.56188 -0.664362 0
M  V30 1087 H 118.92 5.79036 -3.89054 0
M  V30 1088 H 114.817 5.88177 -2.65928 0
M  V30 1089 H 115.585 6.83469 -4.50348 0
M  V30 1090 N 118.248 0.346503 1.53744 0
M  V30 1091 C 119.664 -0.00530975 1.59599 0
M  V30 1092 C 119.864 -1.48465 1.36236 0
M  V30 1093 O 118.92 -2.24376 1.15808 0
M  V30 1094 C 120.233 0.433516 2.97559 0
M  V30 1095 C 121.781 0.386111 3.10609 0
M  V30 1096 C 122.256 0.800451 4.50951 0
M  V30 1097 N 123.747 0.754753 4.5701 0
M  V30 1098 C 124.482 1.04727 5.63755 0
M  V30 1099 N 123.978 1.4081 6.7834 0
M  V30 1100 N 125.771 0.971316 5.53644 0
M  V30 1101 H 117.922 1.31009 1.67184 0
M  V30 1102 H 120.185 0.534242 0.783128 0
M  V30 1103 H 119.891 1.46509 3.19731 0
M  V30 1104 H 119.765 -0.189753 3.76722 0
M  V30 1105 H 122.152 -0.636295 2.88158 0
M  V30 1106 H 122.233 1.04462 2.33498 0
M  V30 1107 H 121.877 1.82088 4.74137 0
M  V30 1108 H 121.807 0.119386 5.26465 0
M  V30 1109 H 124.298 0.488662 3.74727 0
M  V30 1110 H 124.611 1.61607 7.55714 0
M  V30 1111 H 122.956 1.44657 6.79779 0
M  V30 1112 H 126.147 0.688748 4.63005 0
M  V30 1113 H 126.32 1.20263 6.36742 0
M  V30 1114 N 119.726 -1.57421 0.075193 0
M  V30 1115 C 121.142 -1.57099 -0.281444 0
M  V30 1116 C 121.342 -1.08486 -1.69803 0
M  V30 1117 O 120.398 -0.752279 -2.41033 0
M  V30 1118 C 121.711 -3.00571 -0.0880041 0
M  V30 1119 C 123.259 -3.12605 -0.157281 0
M  V30 1120 C 123.734 -4.57999 0.0079207 0
M  V30 1121 N 125.225 -4.63176 -0.0475725 0
M  V30 1122 C 125.96 -5.73373 0.0557876 0
M  V30 1123 N 125.456 -6.92473 0.21286 0
M  V30 1124 N 127.249 -5.621 -0.00152098 0
M  V30 1125 H 119.4 -1.87335 1.00098 0
M  V30 1126 H 121.663 -0.86377 0.390646 0
M  V30 1127 H 121.369 -3.40262 0.889629 0
M  V30 1128 H 121.243 -3.67754 -0.838875 0
M  V30 1129 H 123.63 -2.72798 -1.1254 0
M  V30 1130 H 123.711 -2.48053 0.62475 0
M  V30 1131 H 123.355 -4.98496 0.972824 0
M  V30 1132 H 123.285 -5.20586 -0.793556 0
M  V30 1133 H 125.776 -3.7753 -0.167244 0
M  V30 1134 H 126.089 -7.72279 0.283781 0
M  V30 1135 H 124.434 -6.94556 0.248267 0
M  V30 1136 H 127.625 -4.67938 -0.122958 0
M  V30 1137 H 127.798 -6.47948 0.0824844 0
M  V30 1138 N 121.204 0.198386 -1.56346 0
M  V30 1139 C 122.134 1.24865 -1.9731 0
M  V30 1140 C 123.115 1.47651 -0.844576 0
M  V30 1141 O 124.3 1.59444 -1.10866 0
M  V30 1142 C 121.43 2.59358 -2.30977 0
M  V30 1143 C 120.384 2.5119 -3.46537 0
M  V30 1144 C 119.71 3.89926 -3.65871 0
M  V30 1145 C 121.01 2.03977 -4.80823 0
M  V30 1146 H 122.704 0.908252 -2.85291 0
M  V30 1147 H 120.25 0.435462 -1.37258 0
M  V30 1148 H 122.203 3.33011 -2.58228 0
M  V30 1149 H 120.927 2.95132 -1.39874 0
M  V30 1150 H 119.586 1.79993 -3.19371 0
M  V30 1151 H 119.234 4.23046 -2.72105 0
M  V30 1152 H 118.934 3.85336 -4.4361 0
M  V30 1153 H 120.458 4.65205 -3.95495 0
M  V30 1154 H 121.872 2.67386 -5.07127 0
M  V30 1155 H 120.269 2.10397 -5.62008 0
M  V30 1156 H 121.339 0.992861 -4.74626 0
M  V30 1157 N 122.682 1.50554 0.465978 0
M  V30 1158 C 123.614 1.65949 1.58093 0
M  V30 1159 C 124.627 0.540827 1.53554 0
M  V30 1160 O 125.816 0.814187 1.5885 0
M  V30 1161 C 122.916 1.63261 2.96983 0
M  V30 1162 C 122.089 2.91245 3.26336 0
M  V30 1163 C 121.148 2.8113 4.44806 0
M  V30 1164 O 120.174 3.55086 4.44862 0
M  V30 1165 N 121.376 1.95032 5.46756 0
M  V30 1166 H 124.141 2.62122 1.45301 0
M  V30 1167 H 121.702 1.48082 0.65448 0
M  V30 1168 H 123.694 1.54101 3.74212 0
M  V30 1169 H 122.264 0.748032 3.03518 0
M  V30 1170 H 121.484 3.14493 2.37672 0
M  V30 1171 H 122.772 3.76022 3.42761 0
M  V30 1172 H 122.17 1.3427 5.49534 0
M  V30 1173 H 120.727 1.91772 6.2295 0
M  V30 1174 N 124.16 -0.719506 1.40217 0
M  V30 1175 C 125.108 -1.85493 1.40339 0
M  V30 1176 C 126.102 -1.66995 0.284415 0
M  V30 1177 O 127.308 -1.74148 0.455252 0
M  V30 1178 H 123.683 -0.610857 0.438586 0
M  V30 1179 H 125.654 -1.82506 2.36081 0
M  V30 1180 C 124.403 -3.23321 1.27901 0
M  V30 1181 H 123.726 -3.38159 2.1328 0
M  V30 1182 H 125.166 -4.02914 1.32045 0
M  V30 1183 C 123.625 -3.36898 -0.0111355 0
M  V30 1184 O 124.155 -3.89674 -0.975538 0
M  V30 1185 N 122.361 -2.90492 -0.0793393 0
M  V30 1186 H 121.908 -2.47731 0.706183 0
M  V30 1187 H 121.866 -2.99955 -0.942038 0
M  V30 1188 N 125.638 -1.25649 -0.95132 0
M  V30 1189 C 126.884 -1.11766 -1.69941 0
M  V30 1190 C 127.239 0.33735 -1.89419 0
M  V30 1191 O 126.532 1.24491 -1.45645 0
M  V30 1192 C 126.726 -1.80909 -3.08231 0
M  V30 1193 C 126.555 -3.32984 -3.02245 0
M  V30 1194 C 125.325 -4.02247 -3.05819 0
M  V30 1195 C 127.523 -4.29332 -2.83157 0
M  V30 1196 N 125.505 -5.41072 -2.90024 0
M  V30 1197 C 126.876 -5.55265 -2.75828 0
M  V30 1198 C 128.931 -4.19707 -2.67863 0
M  V30 1199 C 127.634 -6.72671 -2.54767 0
M  V30 1200 C 129.66 -5.36809 -2.48173 0
M  V30 1201 C 129.022 -6.61683 -2.41567 0
M  V30 1202 H 125.121 -0.463708 -0.629682 0
M  V30 1203 H 127.705 -1.58796 -1.12659 0
M  V30 1204 H 125.876 -1.36369 -3.63673 0
M  V30 1205 H 127.608 -1.59739 -3.71841 0
M  V30 1206 H 124.363 -3.53531 -3.15139 0
M  V30 1207 H 124.787 -6.13938 -2.85323 0
M  V30 1208 H 129.429 -3.23907 -2.71743 0
M  V30 1209 H 127.147 -7.68577 -2.49629 0
M  V30 1210 H 130.733 -5.31224 -2.37259 0
M  V30 1211 H 129.613 -7.50768 -2.26531 0
M  V30 1212 N 127.117 1.15442 -1.07289 0
M  V30 1213 C 128.363 1.86489 -0.796846 0
M  V30 1214 C 128.696 1.82078 0.675371 0
M  V30 1215 O 127.971 1.24346 1.4956 0
M  V30 1216 C 128.254 3.35626 -1.30489 0
M  V30 1217 C 128.107 3.48673 -2.84161 0
M  V30 1218 C 129.426 4.30357 -0.920907 0
M  V30 1219 H 126.545 0.677144 -0.290939 0
M  V30 1220 H 129.187 1.35633 -1.33056 0
M  V30 1221 H 127.337 3.79068 -0.850883 0
M  V30 1222 H 129.009 3.14099 -3.37846 0
M  V30 1223 H 127.252 2.90253 -3.22391 0
M  V30 1224 H 127.923 4.53453 -3.14777 0
M  V30 1225 H 130.399 3.94871 -1.3121 0
M  V30 1226 H 129.275 5.33193 -1.30372 0
M  V30 1227 H 129.536 4.4176 0.173226 0
M  V30 1228 N 128.595 0.856903 1.32268 0
M  V30 1229 C 129.825 0.47475 2.01071 0
M  V30 1230 C 130.233 -0.933746 1.64553 0
M  V30 1231 O 129.576 -1.62114 0.863989 0
M  V30 1232 C 129.638 0.536746 3.55471 0
M  V30 1233 C 129.302 1.90453 4.15423 0
M  V30 1234 C 130.299 2.87029 4.33486 0
M  V30 1235 C 127.984 2.20229 4.51447 0
M  V30 1236 C 129.978 4.11532 4.86744 0
M  V30 1237 C 127.665 3.44984 5.0441 0
M  V30 1238 C 128.663 4.40452 5.22007 0
M  V30 1239 O 128.351 5.62998 5.73837 0
M  V30 1240 H 128.083 0.184778 0.650256 0
M  V30 1241 H 130.637 1.15615 1.69771 0
M  V30 1242 H 128.867 -0.20152 3.86175 0
M  V30 1243 H 130.556 0.169875 4.05544 0
M  V30 1244 H 131.322 2.6533 4.05986 0
M  V30 1245 H 127.201 1.46705 4.37034 0
M  V30 1246 H 130.745 4.86056 5.00395 0
M  V30 1247 H 126.642 3.66532 5.31342 0
M  V30 1248 H 127.41 5.64987 5.92226 0
M  V30 1249 N 130.073 -1.45103 0.615059 0
M  V30 1250 C 131.021 -2.32331 -0.111791 0
M  V30 1251 C 132.015 -1.46409 -0.852102 0
M  V30 1252 O 133.221 -1.62849 -0.766821 0
M  V30 1253 H 129.596 -0.749993 -0.0549072 0
M  V30 1254 H 131.567 -2.91407 0.642225 0
M  V30 1255 C 130.316 -3.3015 -1.09071 0
M  V30 1256 H 129.639 -3.96265 -0.530485 0
M  V30 1257 H 131.079 -3.93898 -1.56908 0
M  V30 1258 C 129.538 -2.57875 -2.168 0
M  V30 1259 O 130.068 -2.36567 -3.24652 0
M  V30 1260 N 128.274 -2.17884 -1.92289 0
M  V30 1261 H 127.821 -2.35413 -1.04587 0
M  V30 1262 H 127.779 -1.6985 -2.64572 0
M  V30 1263 N 131.551 -0.354651 -1.53558 0
M  V30 1264 C 132.797 0.238797 -2.01389 0
M  V30 1265 C 133.13 1.49309 -1.2418 0
M  V30 1266 O 132.405 1.91638 -0.332457 0
M  V30 1267 C 132.688 0.541771 -3.56001 0
M  V30 1268 C 132.541 -0.725388 -4.43912 0
M  V30 1269 C 133.86 1.34685 -4.18984 0
M  V30 1270 H 130.979 0.0853177 -0.732045 0
M  V30 1271 H 133.621 -0.477384 -1.83905 0
M  V30 1272 H 131.771 1.15189 -3.71031 0
M  V30 1273 H 133.443 -1.36313 -4.407 0
M  V30 1274 H 131.686 -1.34801 -4.12324 0
M  V30 1275 H 132.357 -0.468505 -5.50008 0
M  V30 1276 H 134.833 0.830837 -4.07721 0
M  V30 1277 H 133.709 1.52759 -5.27215 0
M  V30 1278 H 133.97 2.35221 -3.74331 0
M  V30 1279 N 133.029 1.57378 -0.0835403 0
M  V30 1280 C 133.959 2.1641 0.87686 0
M  V30 1281 C 134.94 1.09429 1.30228 0
M  V30 1282 O 136.125 1.37516 1.37124 0
M  V30 1283 C 133.255 2.73517 2.14022 0
M  V30 1284 C 132.209 3.85769 1.85381 0
M  V30 1285 C 131.535 4.29529 3.18448 0
M  V30 1286 C 132.835 5.09486 1.14984 0
M  V30 1287 H 134.529 2.96914 0.385059 0
M  V30 1288 H 132.075 1.42823 0.18377 0
M  V30 1289 H 134.028 3.13463 2.81636 0
M  V30 1290 H 132.752 1.90252 2.65465 0
M  V30 1291 H 131.411 3.46345 1.20169 0
M  V30 1292 H 131.059 3.43169 3.67755 0
M  V30 1293 H 130.759 5.05204 3.00071 0
M  V30 1294 H 132.283 4.72099 3.8724 0
M  V30 1295 H 133.697 5.46674 1.72687 0
M  V30 1296 H 132.094 5.90515 1.06826 0
M  V30 1297 H 133.164 4.84724 0.130749 0
M  V30 1298 N 134.507 -0.190092 1.56449 0
M  V30 1299 C 135.417 -1.25591 1.98152 0
M  V30 1300 C 136.433 -1.49519 0.889944 0
M  V30 1301 O 137.609 -1.62036 1.19609 0
M  V30 1302 C 134.674 -2.57916 2.3169 0
M  V30 1303 C 133.735 -2.42015 3.5458 0
M  V30 1304 C 132.968 -3.6803 3.8651 0
M  V30 1305 O 133.191 -4.72413 3.1966 0
M  V30 1306 O 132.125 -3.6326 4.79923 0
M  V30 1307 H 135.951 -0.931988 2.89046 0
M  V30 1308 H 133.536 -0.395488 1.4407 0
M  V30 1309 H 135.418 -3.36008 2.54316 0
M  V30 1310 H 134.093 -2.89925 1.43963 0
M  V30 1311 H 133 -1.62017 3.37196 0
M  V30 1312 H 134.333 -2.14937 4.4279 0
M  V30 1313 N 135.985 -1.50799 -0.457987 0
M  V30 1314 C 137.401 -1.38515 -0.792819 0
M  V30 1315 C 137.601 -0.451409 -1.96379 0
M  V30 1316 O 136.657 0.10112 -2.52297 0
M  V30 1317 C 137.97 -2.80149 -1.09258 0
M  V30 1318 C 139.518 -2.89156 -1.19825 0
M  V30 1319 C 139.993 -4.31651 -1.53106 0
M  V30 1320 N 141.484 -4.34662 -1.60072 0
M  V30 1321 C 142.219 -5.41928 -1.87354 0
M  V30 1322 N 141.715 -6.59384 -2.12568 0
M  V30 1323 N 143.508 -5.29385 -1.88965 0
M  V30 1324 H 135.659 -2.10073 0.313511 0
M  V30 1325 H 137.922 -0.944803 0.0777862 0
M  V30 1326 H 137.628 -3.50374 -0.305084 0
M  V30 1327 H 137.502 -3.18204 -2.02549 0
M  V30 1328 H 139.889 -2.19141 -1.97639 0
M  V30 1329 H 139.97 -2.54626 -0.244821 0
M  V30 1330 H 139.614 -5.02208 -0.758266 0
M  V30 1331 H 139.544 -4.63678 -2.49621 0
M  V30 1332 H 142.035 -3.49973 -1.42573 0
M  V30 1333 H 142.348 -7.36934 -2.32696 0
M  V30 1334 H 140.693 -6.62535 -2.09933 0
M  V30 1335 H 143.884 -4.36616 -1.68772 0
M  V30 1336 H 144.057 -6.13066 -2.09891 0
M  V30 1337 N 137.463 0.71206 -1.40597 0
M  V30 1338 C 138.874 1.29135 -1.34837 0
M  V30 1339 C 139.225 1.96186 -0.0235395 0
M  V30 1340 O 138.35 1.97768 0.878444 0
M  V30 1341 C 138.945 2.34827 -2.44217 0
M  V30 1342 C 137.504 2.88371 -2.41907 0
M  V30 1343 C 136.651 1.62202 -2.24913 0
M  V30 1344 H 139.602 0.507944 -1.50352 0
M  V30 1345 H 139.623 3.15749 -2.12327 0
M  V30 1346 H 139.135 1.85996 -3.40627 0
M  V30 1347 H 137.236 3.41422 -1.49204 0
M  V30 1348 H 137.349 3.39925 -3.37621 0
M  V30 1349 H 135.713 1.874 -1.72492 0
M  V30 1350 H 136.496 1.15391 -3.23326 0
M  V30 1351 N 138.941 1.26152 0.944643 0
M  V30 1352 C 140.357 1.03189 1.21754 0
M  V30 1353 C 140.557 -0.245112 2.00004 0
M  V30 1354 O 139.613 -0.955176 2.33736 0
M  V30 1355 C 140.926 2.26119 1.98219 0
M  V30 1356 C 142.474 2.30984 2.11224 0
M  V30 1357 C 142.949 3.53597 2.91089 0
M  V30 1358 N 144.44 3.54053 2.98664 0
M  V30 1359 C 145.175 4.45593 3.60881 0
M  V30 1360 N 144.671 5.47416 4.24626 0
M  V30 1361 N 146.464 4.33252 3.58119 0
M  V30 1362 H 138.615 2.08177 0.421437 0
M  V30 1363 H 140.878 0.914723 0.248969 0
M  V30 1364 H 140.584 3.18984 1.48128 0
M  V30 1365 H 140.458 2.3009 2.98895 0
M  V30 1366 H 142.845 1.38635 2.60508 0
M  V30 1367 H 142.926 2.31026 1.09821 0
M  V30 1368 H 142.57 4.46273 2.42493 0
M  V30 1369 H 142.5 3.50802 3.92741 0
M  V30 1370 H 144.991 2.80403 2.53343 0
M  V30 1371 H 145.304 6.13459 4.69987 0
M  V30 1372 H 143.649 5.51278 4.23223 0
M  V30 1373 H 146.84 3.52924 3.0751 0
M  V30 1374 H 147.013 5.04786 4.06319 0
M  V30 1375 N 140.419 -1.14872 1.07899 0
M  V30 1376 C 141.667 -1.85422 0.803941 0
M  V30 1377 C 141.988 -1.83051 -0.67211 0
M  V30 1378 O 141.258 -1.27532 -1.48703 0
M  V30 1379 H 139.838 -0.686537 0.294408 0
M  V30 1380 H 142.5 -1.39226 1.3639 0
M  V30 1381 H 141.596 -2.90399 1.14346 0
M  V30 1382 N 141.898 -0.863906 -1.31812 0
M  V30 1383 C 143.144 -0.481841 -1.9761 0
M  V30 1384 C 143.499 0.954048 -1.6708 0
M  V30 1385 O 142.792 1.66182 -0.953624 0
M  V30 1386 C 142.986 -0.668547 -3.51091 0
M  V30 1387 C 142.815 -2.12103 -3.96538 0
M  V30 1388 C 141.585 -2.76141 -4.23171 0
M  V30 1389 C 143.783 -3.09265 -4.10925 0
M  V30 1390 N 141.765 -4.12205 -4.54929 0
M  V30 1391 C 143.136 -4.30341 -4.46326 0
M  V30 1392 C 145.191 -3.05337 -3.93286 0
M  V30 1393 C 143.894 -5.48 -4.65928 0
M  V30 1394 C 145.92 -4.22248 -4.14078 0
M  V30 1395 C 145.282 -5.42085 -4.49804 0
M  V30 1396 H 141.381 -0.225238 -0.74886 0
M  V30 1397 H 143.965 -1.11723 -1.59455 0
M  V30 1398 H 142.136 -0.0627898 -3.88349 0
M  V30 1399 H 143.868 -0.255467 -4.03893 0
M  V30 1400 H 140.623 -2.27125 -4.15585 0
M  V30 1401 H 141.047 -4.82416 -4.74978 0
M  V30 1402 H 145.689 -2.138 -3.64759 0
M  V30 1403 H 143.407 -6.40059 -4.93305 0
M  V30 1404 H 146.993 -4.20654 -4.01922 0
M  V30 1405 H 145.873 -6.31044 -4.65567 0
M  V30 1406 N 143.376 1.44774 -0.622745 0
M  V30 1407 C 144.339 2.29069 0.0774015 0
M  V30 1408 C 145.339 1.4059 0.780461 0
M  V30 1409 O 146.529 1.62551 0.626322 0
M  V30 1410 C 143.661 3.21974 1.12006 0
M  V30 1411 H 144.854 2.92459 -0.663901 0
M  V30 1412 H 142.407 1.51548 -0.382486 0
M  V30 1413 H 143.142 2.63417 1.89162 0
M  V30 1414 H 142.927 3.87168 0.619951 0
M  V30 1415 H 144.417 3.85318 1.60995 0
M  V30 1416 N 144.854 0.36279 1.53368 0
M  V30 1417 C 146.101 -0.227776 2.01215 0
M  V30 1418 C 146.429 -1.49003 1.25014 0
M  V30 1419 O 145.684 -1.92876 0.331236 0
M  V30 1420 C 145.983 -0.568417 3.52851 0
M  V30 1421 C 145.649 0.59918 4.46901 0
M  V30 1422 C 144.311 0.919559 4.72332 0
M  V30 1423 C 146.663 1.38156 5.02556 0
M  V30 1424 C 143.991 2.02434 5.5067 0
M  V30 1425 C 146.343 2.47674 5.821 0
M  V30 1426 C 145.007 2.8025 6.05819 0
M  V30 1427 H 144.277 -0.083349 0.736297 0
M  V30 1428 H 146.924 0.494677 1.85001 0
M  V30 1429 H 145.229 -1.37185 3.66998 0
M  V30 1430 H 146.926 -1.03756 3.87344 0
M  V30 1431 H 143.516 0.339437 4.27254 0
M  V30 1432 H 147.7 1.14729 4.82857 0
M  V30 1433 H 142.956 2.28075 5.67267 0
M  V30 1434 H 147.13 3.08716 6.24234 0
M  V30 1435 H 144.757 3.65979 6.66306 0
M  V30 1436 N 146.332 -1.57332 0.0918853 0
M  V30 1437 C 147.578 -1.94524 -0.573425 0
M  V30 1438 C 147.911 -0.973578 -1.68033 0
M  V30 1439 O 147.186 -0.00609226 -1.94499 0
M  V30 1440 C 147.469 -3.41858 -1.13161 0
M  V30 1441 C 147.322 -4.4979 -0.0299747 0
M  V30 1442 C 148.641 -3.90435 -2.03098 0
M  V30 1443 H 145.76 -0.70734 -0.206975 0
M  V30 1444 H 148.402 -1.89309 0.161942 0
M  V30 1445 H 146.552 -3.46433 -1.7583 0
M  V30 1446 H 148.224 -4.57327 0.604112 0
M  V30 1447 H 146.467 -4.291 0.636833 0
M  V30 1448 H 147.138 -5.50069 -0.461287 0
M  V30 1449 H 149.614 -3.87992 -1.50338 0
M  V30 1450 H 148.49 -4.94097 -2.39081 0
M  V30 1451 H 148.751 -3.29541 -2.94712 0
M  V30 1452 N 147.81 0.181792 -1.56548 0
M  V30 1453 C 149.04 0.914618 -1.85252 0
M  V30 1454 C 149.448 1.76791 -0.673914 0
M  V30 1455 O 148.791 1.80009 0.366416 0
M  V30 1456 C 148.853 1.85019 -3.08234 0
M  V30 1457 C 148.517 1.17754 -4.41569 0
M  V30 1458 C 149.514 0.548035 -5.17003 0
M  V30 1459 C 147.199 1.17742 -4.88305 0
M  V30 1460 C 149.193 -0.0726128 -6.37359 0
M  V30 1461 C 146.88 0.552946 -6.08593 0
M  V30 1462 C 147.878 -0.070978 -6.82963 0
M  V30 1463 O 147.566 -0.685635 -8.00971 0
M  V30 1464 H 147.298 0.271695 -0.618998 0
M  V30 1465 H 149.852 0.189944 -2.0452 0
M  V30 1466 H 148.082 2.61491 -2.84885 0
M  V30 1467 H 149.771 2.45195 -3.23472 0
M  V30 1468 H 150.537 0.540174 -4.81982 0
M  V30 1469 H 146.416 1.65246 -4.30366 0
M  V30 1470 H 149.96 -0.560213 -6.95347 0
M  V30 1471 H 145.857 0.558354 -6.43081 0
M  V30 1472 H 146.625 -0.58385 -8.16415 0
M  V30 1473 N 149.288 1.51039 0.449983 0
M  V30 1474 C 150.238 1.67824 1.54335 0
M  V30 1475 C 151.222 0.5324 1.51836 0
M  V30 1476 O 152.414 0.787762 1.58503 0
M  V30 1477 C 149.543 1.7951 2.92628 0
M  V30 1478 C 148.629 2.99838 2.9993 0
M  V30 1479 N 149.02 4.23207 2.77001 0
M  V30 1480 C 147.318 2.98832 3.31082 0
M  V30 1481 C 148.019 5.04361 2.89818 0
M  V30 1482 N 146.995 4.38746 3.2094 0
M  V30 1483 H 150.797 2.60884 1.35339 0
M  V30 1484 H 148.311 1.48513 0.657085 0
M  V30 1485 H 150.308 1.89642 3.7127 0
M  V30 1486 H 148.968 0.876227 3.12654 0
M  V30 1487 H 149.979 4.5236 2.52172 0
M  V30 1488 H 146.656 2.16527 3.56963 0
M  V30 1489 H 148.046 6.12528 2.76151 0
M  V30 1490 N 150.766 -0.704594 1.40972 0
M  V30 1491 C 152.012 -1.46675 1.40051 0
M  V30 1492 C 152.345 -1.94199 0.00641102 0
M  V30 1493 O 151.62 -1.68916 -0.964235 0
M  V30 1494 C 151.903 -2.68505 2.39952 0
M  V30 1495 C 151.756 -2.26805 3.88432 0
M  V30 1496 C 153.075 -3.70686 2.37233 0
M  V30 1497 H 150.194 -0.532015 0.510028 0
M  V30 1498 H 152.836 -0.803255 1.72185 0
M  V30 1499 H 150.986 -3.25114 2.1268 0
M  V30 1500 H 152.658 -1.75592 4.26574 0
M  V30 1501 H 150.901 -1.58685 4.03734 0
M  V30 1502 H 151.572 -3.14181 4.53866 0
M  V30 1503 H 154.048 -3.23731 2.61415 0
M  V30 1504 H 152.924 -4.53553 3.09162 0
M  V30 1505 H 153.185 -4.19754 1.38777 0
M  V30 1506 N 152.244 -1.26651 -0.937939 0
M  V30 1507 C 153.491 -1.12387 -1.6845 0
M  V30 1508 C 153.819 0.332208 -1.91642 0
M  V30 1509 O 153.074 1.2602 -1.49725 0
M  V30 1510 C 153.373 -1.84168 -3.06295 0
M  V30 1511 C 153.039 -3.34056 -3.02849 0
M  V30 1512 C 151.701 -3.74942 -3.01616 0
M  V30 1513 C 154.053 -4.29741 -2.9491 0
M  V30 1514 C 151.381 -5.09894 -2.90215 0
M  V30 1515 C 153.733 -5.64738 -2.8505 0
M  V30 1516 C 152.397 -6.0493 -2.82162 0
M  V30 1517 H 151.667 -0.411252 -0.616403 0
M  V30 1518 H 154.314 -1.57134 -1.09459 0
M  V30 1519 H 152.619 -1.319 -3.6893 0
M  V30 1520 H 154.316 -1.70569 -3.62915 0
M  V30 1521 H 150.906 -3.01534 -3.0459 0
M  V30 1522 H 155.09 -3.99133 -2.94969 0
M  V30 1523 H 150.346 -5.40194 -2.86358 0
M  V30 1524 H 154.52 -6.38561 -2.77872 0
M  V30 1525 H 152.147 -7.09457 -2.73084 0
M  V30 1526 N 153.722 1.14298 -1.08507 0
M  V30 1527 C 154.971 1.84708 -0.810305 0
M  V30 1528 C 155.284 1.83903 0.666271 0
M  V30 1529 O 156.49 2.50112 1.05624 0
M  V30 1530 C 154.946 3.31572 -1.39957 0
M  V30 1531 C 154.554 3.40791 -2.90801 0
M  V30 1532 C 156.298 4.07087 -1.20334 0
M  V30 1533 C 154.205 4.81872 -3.4286 0
M  V30 1534 H 153.135 0.691985 -0.299454 0
M  V30 1535 H 155.786 1.28841 -1.30661 0
M  V30 1536 H 154.168 3.87183 -0.830976 0
M  V30 1537 H 155.342 2.95225 -3.53806 0
M  V30 1538 H 153.657 2.78732 -3.0935 0
M  V30 1539 H 156.254 5.11225 -1.56693 0
M  V30 1540 H 156.597 4.16054 -0.143237 0
M  V30 1541 H 157.13 3.57779 -1.73893 0
M  V30 1542 H 153.869 4.78094 -4.48449 0
M  V30 1543 H 153.389 5.27972 -2.84615 0
M  V30 1544 H 155.068 5.50765 -3.39509 0
M  V30 1545 N 155.201 0.870884 1.31352 0
M  V30 1546 C 156.448 0.482273 1.96673 0
M  V30 1547 C 156.776 -0.965638 1.68836 0
M  V30 1548 O 156.031 -1.69514 0.977937 0
M  V30 1549 C 156.33 0.687157 3.50732 0
M  V30 1550 C 155.996 2.108 3.9859 0
M  V30 1551 C 154.658 2.49656 4.1137 0
M  V30 1552 C 157.01 3.03459 4.23748 0
M  V30 1553 C 154.338 3.80412 4.46659 0
M  V30 1554 C 156.69 4.3373 4.60501 0
M  V30 1555 C 155.354 4.725 4.71487 0
M  V30 1556 H 154.624 0.176476 0.719679 0
M  V30 1557 H 157.271 1.10405 1.56471 0
M  V30 1558 H 155.576 -0.0177476 3.91796 0
M  V30 1559 H 157.273 0.366284 3.99324 0
M  V30 1560 H 153.863 1.79633 3.8914 0
M  V30 1561 H 158.047 2.74665 4.13368 0
M  V30 1562 H 153.303 4.1021 4.53362 0
M  V30 1563 H 157.477 5.05578 4.78919 0
M  V30 1564 H 155.104 5.73859 4.98588 0
M  V30 1565 N 156.679 -1.44442 0.630414 0
M  V30 1566 C 157.609 -2.33418 -0.0618083 0
M  V30 1567 C 158.59 -1.48165 -0.835541 0
M  V30 1568 O 159.775 -1.76886 -0.801564 0
M  V30 1569 C 156.905 -3.31222 -1.04449 0
M  V30 1570 C 155.859 -4.26288 -0.382436 0
M  V30 1571 C 155.185 -5.13954 -1.47497 0
M  V30 1572 C 156.485 -5.1744 0.710865 0
M  V30 1573 H 158.179 -2.91548 0.681184 0
M  V30 1574 H 155.725 -1.40191 0.329026 0
M  V30 1575 H 157.678 -3.92351 -1.53748 0
M  V30 1576 H 156.402 -2.71299 -1.81836 0
M  V30 1577 H 155.061 -3.6649 0.0899054 0
M  V30 1578 H 154.709 -4.50385 -2.2397 0
M  V30 1579 H 154.409 -5.7837 -1.03737 0
M  V30 1580 H 155.933 -5.77955 -1.96979 0
M  V30 1581 H 157.347 -5.72509 0.300996 0
M  V30 1582 H 155.744 -5.90455 1.07156 0
M  V30 1583 H 156.814 -4.58496 1.57829 0
M  V30 1584 N 158.157 -0.370918 -1.53173 0
M  V30 1585 C 159.087 0.464847 -2.28826 0
M  V30 1586 C 160.068 1.07936 -1.31468 0
M  V30 1587 O 161.253 1.0956 -1.60344 0
M  V30 1588 C 158.383 1.60196 -3.08147 0
M  V30 1589 C 157.337 1.11443 -4.13237 0
M  V30 1590 C 156.663 2.3422 -4.80672 0
M  V30 1591 C 157.963 0.195384 -5.21934 0
M  V30 1592 H 159.657 -0.166329 -2.98938 0
M  V30 1593 H 157.203 -0.0814359 -1.4377 0
M  V30 1594 H 159.156 2.19332 -3.59822 0
M  V30 1595 H 157.88 2.26045 -2.35735 0
M  V30 1596 H 156.539 0.545727 -3.62515 0
M  V30 1597 H 156.187 2.98537 -4.04827 0
M  V30 1598 H 155.887 2.02269 -5.51689 0
M  V30 1599 H 157.411 2.94032 -5.35143 0
M  V30 1600 H 158.825 0.694375 -5.69079 0
M  V30 1601 H 157.222 -0.0335027 -6.00091 0
M  V30 1602 H 158.292 -0.760961 -4.78892 0
M  V30 1603 N 159.635 1.57281 -0.100228 0
M  V30 1604 C 160.881 1.94826 0.563101 0
M  V30 1605 C 161.214 0.982475 1.67514 0
M  V30 1606 O 160.489 0.0164069 1.94493 0
M  V30 1607 C 160.772 3.42453 1.11346 0
M  V30 1608 C 160.625 4.498 0.00612081 0
M  V30 1609 C 161.944 3.91506 2.01024 0
M  V30 1610 H 159.063 0.708428 0.203221 0
M  V30 1611 H 161.705 1.8922 -0.171979 0
M  V30 1612 H 159.855 3.47361 1.7399 0
M  V30 1613 H 161.527 4.57 -0.628357 0
M  V30 1614 H 159.77 4.28756 -0.659581 0
M  V30 1615 H 160.441 5.50306 0.432109 0
M  V30 1616 H 162.917 3.88784 1.48278 0
M  V30 1617 H 161.793 4.95358 2.36457 0
M  V30 1618 H 162.054 3.31099 2.92961 0
M  V30 1619 N 161.113 -0.173488 1.56642 0
M  V30 1620 C 162.36 -0.890465 1.81871 0
M  V30 1621 C 162.688 -1.82339 0.67696 0
M  V30 1622 O 161.943 -1.92795 -0.335926 0
M  V30 1623 C 162.242 -1.72069 3.13252 0
M  V30 1624 C 161.908 -0.936878 4.41059 0
M  V30 1625 C 160.57 -0.720545 4.75775 0
M  V30 1626 C 162.922 -0.386919 5.19762 0
M  V30 1627 C 160.25 0.0568829 5.86672 0
M  V30 1628 C 162.602 0.37741 6.31473 0
M  V30 1629 C 161.266 0.604563 6.64757 0
M  V30 1630 H 160.536 -0.325844 0.665512 0
M  V30 1631 H 163.183 -0.155527 1.90867 0
M  V30 1632 H 161.488 -2.52496 2.99588 0
M  V30 1633 H 163.185 -2.27844 3.29982 0
M  V30 1634 H 159.775 -1.11553 4.13828 0
M  V30 1635 H 163.959 -0.541398 4.93338 0
M  V30 1636 H 159.215 0.242635 6.10918 0
M  V30 1637 H 163.389 0.810825 6.91664 0
M  V30 1638 H 161.016 1.20885 7.50527 0
M  V30 1639 N 162.591 -1.51276 -0.441967 0
M  V30 1640 C 163.816 -1.67799 -1.21895 0
M  V30 1641 C 164.241 -0.372864 -1.84367 0
M  V30 1642 O 163.599 0.666501 -1.68604 0
M  V30 1643 C 163.647 -2.79199 -2.28211 0
M  V30 1644 O 162.751 -2.42479 -3.33583 0
M  V30 1645 H 162.092 -0.559649 -0.357336 0
M  V30 1646 H 164.622 -1.97815 -0.522522 0
M  V30 1647 H 164.632 -3.03146 -2.73069 0
M  V30 1648 H 163.307 -3.73906 -1.82118 0
M  V30 1649 H 161.884 -2.29087 -2.94234 0
M  V30 1650 N 164.069 0.697108 -1.41344 0
M  V30 1651 C 165.309 1.46939 -1.42085 0
M  V30 1652 C 165.673 1.9198 -0.0280397 0
M  V30 1653 O 166.874 2.6865 0.0897504 0
M  V30 1654 C 165.145 2.64985 -2.39828 0
M  V30 1655 S 166.704 3.54147 -2.59085 0
M  V30 1656 H 163.522 0.502146 -0.503359 0
M  V30 1657 H 166.124 0.813546 -1.77769 0
M  V30 1658 H 164.828 2.30098 -3.39828 0
M  V30 1659 H 164.359 3.35464 -2.05493 0
M  V30 1660 H 166.374 4.60137 -1.85711 0
M  V30 1661 N 165.547 1.27147 0.931209 0
M  V30 1662 C 166.477 1.12081 2.04842 0
M  V30 1663 C 167.458 0.0232364 1.70084 0
M  V30 1664 O 168.643 0.197085 1.93197 0
M  V30 1665 C 165.773 0.76354 3.38803 0
M  V30 1666 C 164.727 1.81396 3.87659 0
M  V30 1667 C 164.053 1.31075 5.18385 0
M  V30 1668 C 165.353 3.21739 4.11438 0
M  V30 1669 H 167.047 2.05537 2.17703 0
M  V30 1670 H 164.593 0.989603 1.04608 0
M  V30 1671 H 166.546 0.644982 4.16435 0
M  V30 1672 H 165.27 -0.206727 3.25945 0
M  V30 1673 H 163.929 1.92136 3.12217 0
M  V30 1674 H 163.577 0.330037 5.01916 0
M  V30 1675 H 163.277 2.013 5.52044 0
M  V30 1676 H 164.801 1.20506 5.98591 0
M  V30 1677 H 166.215 3.14019 4.79651 0
M  V30 1678 H 164.612 3.89644 4.56397 0
M  V30 1679 H 165.682 3.67054 3.16859 0
M  V30 1680 N 167.025 -1.13721 1.09112 0
M  V30 1681 C 168.271 -1.85198 0.826414 0
M  V30 1682 C 168.604 -1.83129 -0.646319 0
M  V30 1683 O 167.879 -1.2671 -1.47563 0
M  V30 1684 C 168.162 -3.33507 1.35812 0
M  V30 1685 C 168.015 -3.44108 2.89672 0
M  V30 1686 C 169.334 -4.28838 0.989256 0
M  V30 1687 H 166.453 -0.67243 0.301675 0
M  V30 1688 H 169.095 -1.33499 1.35197 0
M  V30 1689 H 167.245 -3.77666 0.911082 0
M  V30 1690 H 168.917 -3.08684 3.428 0
M  V30 1691 H 167.16 -2.85087 3.26967 0
M  V30 1692 H 167.831 -4.48388 3.21951 0
M  V30 1693 H 170.307 -3.92734 1.37475 0
M  V30 1694 H 169.183 -5.31051 1.38838 0
M  V30 1695 H 169.444 -4.4198 -0.102924 0
M  V30 1696 N 168.503 -0.877838 -1.30888 0
M  V30 1697 C 169.433 -0.35534 -2.3078 0
M  V30 1698 C 170.414 0.557994 -1.60687 0
M  V30 1699 O 171.599 0.473355 -1.88343 0
M  V30 1700 C 168.729 0.437221 -3.44537 0
M  V30 1701 C 167.683 -0.383715 -4.26276 0
M  V30 1702 C 167.009 0.535014 -5.32017 0
M  V30 1703 C 168.309 -1.62201 -4.96476 0
M  V30 1704 H 170.003 -1.19007 -2.74732 0
M  V30 1705 H 167.549 -0.573698 -1.32078 0
M  V30 1706 H 169.502 0.813334 -4.13477 0
M  V30 1707 H 168.226 1.30553 -2.99372 0
M  V30 1708 H 166.885 -0.741874 -3.59015 0
M  V30 1709 H 166.533 1.40083 -4.831 0
M  V30 1710 H 166.233 -0.0104211 -5.87599 0
M  V30 1711 H 167.757 0.907799 -6.03814 0
M  V30 1712 H 169.171 -1.31689 -5.5797 0
M  V30 1713 H 167.568 -2.10711 -5.61891 0
M  V30 1714 H 168.638 -2.37044 -4.23011 0
M  V30 1715 N 169.982 1.44106 -0.638065 0
M  V30 1716 C 171.207 2.0685 -0.150916 0
M  V30 1717 C 171.632 1.47417 1.16833 0
M  V30 1718 O 170.99 0.578264 1.71831 0
M  V30 1719 C 171.038 3.60555 -0.05708 0
M  V30 1720 O 170.142 4.00465 0.984972 0
M  V30 1721 H 169.483 0.658151 -0.0879399 0
M  V30 1722 H 172.013 1.84865 -0.876707 0
M  V30 1723 H 172.023 4.07789 0.131232 0
M  V30 1724 H 170.698 4.03193 -1.02021 0
M  V30 1725 H 169.275 3.64849 0.770672 0
M  V30 1726 N 171.46 0.379036 1.52974 0
M  V30 1727 C 172.706 -0.206727 2.01744 0
M  V30 1728 C 173.039 -1.47314 1.26539 0
M  V30 1729 O 172.314 -1.91084 0.362903 0
M  V30 1730 C 172.597 -0.485066 3.56818 0
M  V30 1731 C 172.45 0.795919 4.42702 0
M  V30 1732 C 173.769 -1.28003 4.21074 0
M  V30 1733 H 170.888 -0.0736607 0.73331 0
M  V30 1734 H 173.53 0.506581 1.83122 0
M  V30 1735 H 171.68 -1.09272 3.72816 0
M  V30 1736 H 173.352 1.43307 4.38476 0
M  V30 1737 H 171.595 1.41344 4.10127 0
M  V30 1738 H 172.266 0.555947 5.49193 0
M  V30 1739 H 174.742 -0.765867 4.08991 0
M  V30 1740 H 173.618 -1.44352 5.29579 0
M  V30 1741 H 173.879 -2.29236 3.78026 0
M  V30 1742 N 172.938 -1.57226 0.108567 0
M  V30 1743 C 173.868 -2.17778 -0.84232 0
M  V30 1744 C 174.849 -1.11487 -1.2847 0
M  V30 1745 O 176.034 -1.39681 -1.34918 0
M  V30 1746 C 173.164 -2.76888 -2.09644 0
M  V30 1747 C 172.118 -3.88669 -1.79221 0
M  V30 1748 C 171.444 -4.34541 -3.11574 0
M  V30 1749 C 172.744 -5.11251 -1.06864 0
M  V30 1750 H 174.438 -2.97489 -0.337774 0
M  V30 1751 H 171.984 -1.43097 -0.161025 0
M  V30 1752 H 173.937 -3.17904 -2.76614 0
M  V30 1753 H 172.661 -1.94451 -2.62405 0
M  V30 1754 H 171.32 -3.48213 -1.14644 0
M  V30 1755 H 170.968 -3.48977 -3.62249 0
M  V30 1756 H 170.668 -5.09914 -2.91996 0
M  V30 1757 H 172.192 -4.782 -3.7968 0
M  V30 1758 H 173.606 -5.49352 -1.63968 0
M  V30 1759 H 172.003 -5.9214 -0.974178 0
M  V30 1760 H 173.073 -4.8487 -0.0536168 0
M  V30 1761 N 174.416 0.165178 -1.56732 0
M  V30 1762 C 175.641 0.900253 -1.86843 0
M  V30 1763 C 176.066 1.74766 -0.695596 0
M  V30 1764 O 175.424 1.77786 0.35522 0
M  V30 1765 C 175.472 1.74777 -3.15413 0
M  V30 1766 O 174.576 2.85007 -2.98068 0
M  V30 1767 H 173.917 0.251832 -0.614391 0
M  V30 1768 H 176.447 0.161468 -2.03962 0
M  V30 1769 H 176.457 2.14646 -3.46974 0
M  V30 1770 H 175.132 1.12537 -4.00385 0
M  V30 1771 H 173.709 2.48676 -2.77875 0
M  V30 1772 N 175.894 1.51508 0.433938 0
M  V30 1773 C 177.122 1.68157 1.20543 0
M  V30 1774 C 177.537 0.380362 1.84929 0
M  V30 1775 O 176.894 -0.641446 1.70856 0
M  V30 1776 C 176.945 2.79965 2.28696 0
M  V30 1777 O 176.666 4.05045 1.66943 0
M  V30 1778 C 178.167 3.07912 3.18912 0
M  V30 1779 H 175.387 0.56421 0.363191 0
M  V30 1780 H 177.931 1.97941 0.513754 0
M  V30 1781 H 176.086 2.5277 2.93574 0
M  V30 1782 H 176.5 4.67165 2.38448 0
M  V30 1783 H 177.974 3.89719 3.90926 0
M  V30 1784 H 178.451 2.20456 3.79863 0
M  V30 1785 H 179.057 3.36779 2.59731 0
M  V30 1786 N 177.372 -0.689602 1.41712 0
M  V30 1787 C 178.621 -1.44534 1.40686 0
M  V30 1788 C 178.934 -1.95588 0.0213352 0
M  V30 1789 O 180.14 -2.71271 -0.111534 0
M  V30 1790 C 178.596 -2.61387 2.47396 0
M  V30 1791 C 178.204 -2.17094 3.91885 0
M  V30 1792 C 179.948 -3.38986 2.55517 0
M  V30 1793 C 177.855 -3.3094 4.90135 0
M  V30 1794 H 176.785 -0.542925 0.52321 0
M  V30 1795 H 179.436 -0.748054 1.6756 0
M  V30 1796 H 177.818 -3.33412 2.13664 0
M  V30 1797 H 178.992 -1.52318 4.34897 0
M  V30 1798 H 177.307 -1.52473 3.8748 0
M  V30 1799 H 179.904 -4.23747 3.26102 0
M  V30 1800 H 180.247 -3.84578 1.59391 0
M  V30 1801 H 180.78 -2.74021 2.8837 0
M  V30 1802 H 177.519 -2.90355 5.87685 0
M  V30 1803 H 177.039 -3.94546 4.51767 0
M  V30 1804 H 178.718 -3.9663 5.11169 0
M  V30 1805 N 178.85 -1.27639 -0.924453 0
M  V30 1806 C 179.782 -1.06442 -2.02985 0
M  V30 1807 C 180.795 -0.0194771 -1.62788 0
M  V30 1808 O 181.984 -0.261388 -1.76576 0
M  V30 1809 C 179.084 -0.59327 -3.33667 0
M  V30 1810 C 178.257 -1.71123 -4.02537 0
M  V30 1811 C 177.316 -1.23527 -5.11495 0
M  V30 1812 O 176.342 -1.93553 -5.35281 0
M  V30 1813 N 177.544 -0.0926678 -5.80426 0
M  V30 1814 H 180.309 -2.01633 -2.2173 0
M  V30 1815 H 177.87 -1.19248 -1.09505 0
M  V30 1816 H 179.862 -0.258686 -4.03872 0
M  V30 1817 H 178.432 0.265502 -3.1147 0
M  V30 1818 H 177.652 -2.21593 -3.26022 0
M  V30 1819 H 178.94 -2.46145 -4.45298 0
M  V30 1820 H 178.338 0.491741 -5.63559 0
M  V30 1821 H 176.895 0.182714 -6.51544 0
M  V30 1822 N 180.328 1.1314 -1.09713 0
M  V30 1823 C 181.238 2.22242 -0.751367 0
M  V30 1824 C 182.254 1.72224 0.247938 0
M  V30 1825 O 183.43 2.01205 0.0885463 0
M  V30 1826 C 180.495 3.46231 -0.180274 0
M  V30 1827 C 179.556 4.11125 -1.2359 0
M  V30 1828 C 178.789 5.29195 -0.691966 0
M  V30 1829 O 179.012 5.68342 0.48414 0
M  V30 1830 O 177.946 5.84214 -1.44838 0
M  V30 1831 H 181.772 2.54197 -1.66186 0
M  V30 1832 H 179.357 1.21331 -0.871735 0
M  V30 1833 H 181.239 4.21185 0.134739 0
M  V30 1834 H 179.914 3.1597 0.703185 0
M  V30 1835 H 178.821 3.37985 -1.60366 0
M  V30 1836 H 180.154 4.45524 -2.09211 0
M  V30 1837 N 181.806 0.884767 1.30421 0
M  V30 1838 C 182.756 0.322846 2.25703 0
M  V30 1839 C 183.74 -0.548582 1.51259 0
M  V30 1840 O 184.932 -0.39304 1.72581 0
M  V30 1841 C 182.061 -0.461787 3.4018 0
M  V30 1842 C 181.147 0.423717 4.21978 0
M  V30 1843 N 181.538 1.52408 4.82292 0
M  V30 1844 C 179.836 0.218795 4.45463 0
M  V30 1845 C 180.537 2.07136 5.43571 0
M  V30 1846 N 179.513 1.36635 5.26148 0
M  V30 1847 H 183.315 1.16363 2.69883 0
M  V30 1848 H 180.829 0.73415 1.44859 0
M  V30 1849 H 182.826 -0.880985 4.07485 0
M  V30 1850 H 181.486 -1.30001 2.9754 0
M  V30 1851 H 182.497 1.90693 4.81515 0
M  V30 1852 H 179.174 -0.582275 4.1342 0
M  V30 1853 H 180.564 2.99538 6.01437 0
M  V30 1854 N 183.284 -1.43765 0.645699 0
M  V30 1855 C 184.216 -2.29027 -0.0890605 0
M  V30 1856 C 185.229 -1.42093 -0.794563 0
M  V30 1857 O 186.418 -1.66104 -0.653575 0
M  V30 1858 C 183.518 -3.18831 -1.14891 0
M  V30 1859 C 182.691 -4.34261 -0.523043 0
M  V30 1860 C 181.75 -5.04994 -1.47878 0
M  V30 1861 O 180.776 -5.6052 -0.990277 0
M  V30 1862 N 181.978 -5.07795 -2.81291 0
M  V30 1863 H 184.743 -2.92727 0.64272 0
M  V30 1864 H 182.304 -1.54373 0.487924 0
M  V30 1865 H 184.296 -3.63015 -1.78892 0
M  V30 1866 H 182.866 -2.56782 -1.78275 0
M  V30 1867 H 182.086 -3.93088 0.295896 0
M  V30 1868 H 183.374 -5.08728 -0.0858147 0
M  V30 1869 H 182.772 -4.64042 -3.23546 0
M  V30 1870 H 181.329 -5.55721 -3.40614 0
M  V30 1871 N 184.763 -0.387143 -1.52771 0
M  V30 1872 C 185.673 0.456442 -2.30117 0
M  V30 1873 C 186.689 1.07342 -1.36944 0
M  V30 1874 O 187.865 1.07971 -1.70013 0
M  V30 1875 C 184.93 1.56957 -3.09136 0
M  V30 1876 C 183.991 0.977916 -4.18014 0
M  V30 1877 C 183.224 2.038 -4.93256 0
M  V30 1878 O 183.447 3.25271 -4.68567 0
M  V30 1879 O 182.381 1.6565 -5.78657 0
M  V30 1880 H 186.207 -0.17359 -3.03203 0
M  V30 1881 H 183.792 -0.150919 -1.48636 0
M  V30 1882 H 185.674 2.21628 -3.58412 0
M  V30 1883 H 184.349 2.18461 -2.38865 0
M  V30 1884 H 183.256 0.294525 -3.72939 0
M  V30 1885 H 184.589 0.407128 -4.90513 0
M  V30 1886 N 186.241 1.57166 -0.116904 0
M  V30 1887 C 187.171 2.18222 0.830759 0
M  V30 1888 C 188.152 1.12167 1.27877 0
M  V30 1889 O 189.337 1.40394 1.34176 0
M  V30 1890 C 186.467 2.77996 2.08172 0
M  V30 1891 C 185.421 3.89614 1.77157 0
M  V30 1892 C 184.747 4.36187 3.09265 0
M  V30 1893 C 186.047 5.1181 1.04151 0
M  V30 1894 H 187.741 2.97664 0.321992 0
M  V30 1895 H 185.287 1.4318 0.153434 0
M  V30 1896 H 187.24 3.19366 2.74924 0
M  V30 1897 H 185.964 1.9584 2.6137 0
M  V30 1898 H 184.623 3.48816 1.12796 0
M  V30 1899 H 184.271 3.50893 3.60393 0
M  V30 1900 H 183.971 5.11455 2.89288 0
M  V30 1901 H 185.495 4.80207 3.77139 0
M  V30 1902 H 186.909 5.50214 1.61052 0
M  V30 1903 H 185.306 5.92648 0.942762 0
M  V30 1904 H 186.376 4.84892 0.0279022 0
M  V30 1905 N 187.719 -0.156864 1.56817 0
M  V30 1906 C 188.682 -1.17781 1.96622 0
M  V30 1907 C 189.682 -1.36401 0.851555 0
M  V30 1908 O 190.872 -1.33561 1.11836 0
M  V30 1909 C 188.004 -2.54008 2.27361 0
M  V30 1910 H 189.197 -0.836564 2.87996 0
M  V30 1911 H 186.75 -0.39985 1.51099 0
M  V30 1912 H 187.485 -2.9312 1.38748 0
M  V30 1913 H 187.27 -2.41856 3.08623 0
M  V30 1914 H 188.76 -3.27558 2.59029 0
M  V30 1915 N 189.197 -1.51736 -0.425897 0
M  V30 1916 C 190.145 -1.74464 -1.53834 0
M  V30 1917 C 191.139 -0.611241 -1.57988 0
M  V30 1918 O 192.345 -0.792899 -1.61596 0
M  V30 1919 H 188.72 -0.551437 -0.511293 0
M  V30 1920 H 190.691 -2.67694 -1.31843 0
M  V30 1921 C 189.44 -1.8972 -2.91379 0
M  V30 1922 H 188.763 -2.76344 -2.88919 0
M  V30 1923 H 190.203 -2.09629 -3.68553 0
M  V30 1924 C 188.662 -0.65992 -3.30374 0
M  V30 1925 O 189.192 0.180083 -4.01296 0
M  V30 1926 N 187.398 -0.500677 -2.86254 0
M  V30 1927 H 186.945 -1.18532 -2.28709 0
M  V30 1928 H 186.903 0.325903 -3.12706 0
M  V30 1929 N 190.675 0.682077 -1.42076 0
M  V30 1930 C 191.585 1.82535 -1.47371 0
M  V30 1931 C 192.601 1.7017 -0.363079 0
M  V30 1932 O 193.777 1.91848 -0.612875 0
M  V30 1933 C 190.842 3.18624 -1.36674 0
M  V30 1934 C 189.903 3.42999 -2.58167 0
M  V30 1935 C 189.136 4.72595 -2.4797 0
M  V30 1936 O 189.359 5.50006 -1.5116 0
M  V30 1937 O 188.293 4.98054 -3.37974 0
M  V30 1938 H 192.119 1.81023 -2.43853 0
M  V30 1939 H 189.704 0.836887 -1.2376 0
M  V30 1940 H 191.586 3.99847 -1.33043 0
M  V30 1941 H 190.261 3.20789 -0.433138 0
M  V30 1942 H 189.168 2.61653 -2.67373 0
M  V30 1943 H 190.501 3.45659 -3.50401 0
M  V30 1944 N 192.153 1.28127 0.917671 0
M  V30 1945 C 193.393 1.163 1.68088 0
M  V30 1946 C 193.757 -0.284515 1.8988 0
M  V30 1947 O 194.958 -0.525413 2.63615 0
M  V30 1948 C 193.229 1.93546 3.00457 0
M  V30 1949 S 194.788 1.98048 3.91564 0
M  V30 1950 H 191.606 0.415005 0.577315 0
M  V30 1951 H 194.208 1.62173 1.09179 0
M  V30 1952 H 192.912 2.97888 2.82295 0
M  V30 1953 H 192.443 1.48207 3.64415 0
M  V30 1954 H 194.458 1.08415 4.84211 0
M  V30 1955 N 193.631 -1.12557 1.10312 0
M  V30 1956 C 194.561 -2.20341 0.772798 0
M  V30 1957 C 195.542 -1.68198 -0.25365 0
M  V30 1958 O 196.727 -1.93831 -0.119699 0
M  V30 1959 C 193.857 -3.46709 0.202443 0
M  V30 1960 C 192.811 -4.11996 1.15943 0
M  V30 1961 C 192.137 -5.328 0.450345 0
M  V30 1962 C 193.437 -4.5828 2.50552 0
M  V30 1963 H 195.131 -2.48229 1.674 0
M  V30 1964 H 192.677 -1.19308 0.806326 0
M  V30 1965 H 194.63 -4.2138 -0.0407752 0
M  V30 1966 H 193.354 -3.18245 -0.734001 0
M  V30 1967 H 192.013 -3.39305 1.38808 0
M  V30 1968 H 191.661 -5.00602 -0.490531 0
M  V30 1969 H 191.361 -5.7743 1.08851 0
M  V30 1970 H 192.885 -6.10219 0.215642 0
M  V30 1971 H 194.299 -5.2433 2.31843 0
M  V30 1972 H 192.696 -5.13683 3.10242 0
M  V30 1973 H 193.766 -3.72329 3.10643 0
M  V30 1974 N 195.109 -0.891671 -1.2995 0
M  V30 1975 C 196.039 -0.379797 -2.30391 0
M  V30 1976 C 197.02 0.540919 -1.6127 0
M  V30 1977 O 198.205 0.453352 -1.88834 0
M  V30 1978 C 195.335 0.400654 -3.44981 0
M  V30 1979 C 194.289 -0.428905 -4.25846 0
M  V30 1980 C 193.615 0.478557 -5.32554 0
M  V30 1981 C 194.915 -1.67458 -4.94727 0
M  V30 1982 H 196.609 -1.21914 -2.73454 0
M  V30 1983 H 194.155 -0.587675 -1.31462 0
M  V30 1984 H 196.108 0.769434 -4.14316 0
M  V30 1985 H 194.832 1.27371 -3.0074 0
M  V30 1986 H 193.491 -0.779911 -3.58208 0
M  V30 1987 H 193.139 1.34951 -4.84559 0
M  V30 1988 H 192.839 -0.0727433 -5.87555 0
M  V30 1989 H 194.363 0.843705 -6.04743 0
M  V30 1990 H 195.777 -1.376 -5.56542 0
M  V30 1991 H 194.174 -2.16659 -5.59624 0
M  V30 1992 H 195.244 -2.41518 -4.20473 0
M  V30 1993 N 196.587 1.43421 -0.653314 0
M  V30 1994 C 197.836 2.01032 -0.164076 0
M  V30 1995 C 198.149 1.52147 1.22926 0
M  V30 1996 O 199.355 2.02031 1.81371 0
M  V30 1997 C 197.811 3.59082 -0.24252 0
M  V30 1998 C 197.419 4.1696 -1.63855 0
M  V30 1999 C 199.163 4.24079 0.18911 0
M  V30 2000 C 197.07 5.67304 -1.67092 0
M  V30 2001 H 196 0.751798 -0.0575769 0
M  V30 2002 H 198.651 1.6439 -0.815362 0
M  V30 2003 H 197.033 3.93125 0.476276 0
M  V30 2004 H 198.207 3.94416 -2.38271 0
M  V30 2005 H 196.522 3.64335 -2.01616 0
M  V30 2006 H 199.119 5.34381 0.184775 0
M  V30 2007 H 199.462 3.98005 1.22056 0
M  V30 2008 H 199.995 3.94918 -0.477938 0
M  V30 2009 H 196.734 5.98145 -2.68146 0
M  V30 2010 H 196.254 5.91904 -0.970014 0
M  V30 2011 H 197.933 6.31344 -1.4147 0
M  V30 2012 N 198.065 0.39524 1.52563 0
M  V30 2013 C 198.995 -0.428384 2.29537 0
M  V30 2014 C 199.976 -1.05831 1.33169 0
M  V30 2015 O 201.161 -1.06995 1.62067 0
M  V30 2016 C 198.291 -1.55274 3.10656 0
M  V30 2017 C 197.245 -1.04855 4.14957 0
M  V30 2018 C 196.571 -2.26543 4.84337 0
M  V30 2019 C 197.871 -0.112324 5.22179 0
M  V30 2020 H 199.565 0.213867 2.98635 0
M  V30 2021 H 197.111 0.104298 1.43622 0
M  V30 2022 H 199.064 -2.1358 3.63265 0
M  V30 2023 H 197.788 -2.22266 2.39302 0
M  V30 2024 H 196.447 -0.487985 3.63338 0
M  V30 2025 H 196.095 -2.92059 4.09525 0
M  V30 2026 H 195.795 -1.93466 5.54837 0
M  V30 2027 H 197.319 -2.85481 5.39753 0
M  V30 2028 H 198.733 -0.603752 5.70112 0
M  V30 2029 H 197.13 0.128968 5.99961 0
M  V30 2030 H 198.2 0.837052 4.77621 0
M  V30 2031 N 199.544 -1.57102 0.125237 0
M  V30 2032 C 200.454 -2.19191 -0.8362 0
M  V30 2033 C 201.47 -1.16985 -1.28805 0
M  V30 2034 O 202.646 -1.49479 -1.34974 0
M  V30 2035 C 199.711 -2.78407 -2.06617 0
M  V30 2036 C 198.772 -3.9567 -1.66565 0
M  V30 2037 C 198.005 -4.52052 -2.83698 0
M  V30 2038 O 198.228 -4.07326 -3.99302 0
M  V30 2039 O 197.162 -5.42645 -2.60423 0
M  V30 2040 H 200.988 -3.01816 -0.337776 0
M  V30 2041 H 198.573 -1.4906 -0.100695 0
M  V30 2042 H 200.455 -3.16129 -2.7864 0
M  V30 2043 H 199.13 -1.9881 -2.55453 0
M  V30 2044 H 198.037 -3.62705 -0.916296 0
M  V30 2045 H 199.37 -4.76722 -1.22464 0
M  V30 2046 N 201.022 0.148545 -1.56898 0
M  V30 2047 C 202.269 0.861418 -1.83264 0
M  V30 2048 C 202.597 1.81239 -0.705883 0
M  V30 2049 O 201.852 1.93305 0.305212 0
M  V30 2050 C 202.151 1.67064 -3.1595 0
M  V30 2051 C 201.817 0.866591 -4.42494 0
M  V30 2052 C 200.479 0.644762 -4.76861 0
M  V30 2053 C 202.831 0.30418 -5.20312 0
M  V30 2054 C 200.159 -0.15021 -5.86508 0
M  V30 2055 C 202.511 -0.477824 -6.30793 0
M  V30 2056 C 201.175 -0.710244 -6.63711 0
M  V30 2057 H 200.445 0.315215 -0.670612 0
M  V30 2058 H 203.092 0.125142 -1.91091 0
M  V30 2059 H 201.397 2.47698 -3.03567 0
M  V30 2060 H 203.094 2.22566 -3.33565 0
M  V30 2061 H 199.684 1.04955 -4.15551 0
M  V30 2062 H 203.868 0.462844 -4.94137 0
M  V30 2063 H 199.124 -0.339796 -6.10455 0
M  V30 2064 H 203.298 -0.92076 -6.90286 0
M  V30 2065 H 200.925 -1.3281 -7.48509 0
M  V30 2066 N 202.5 1.5196 0.417844 0
M  V30 2067 C 203.746 1.65836 1.16732 0
M  V30 2068 C 204.079 0.382881 1.90388 0
M  V30 2069 O 203.354 -0.618368 1.84408 0
M  V30 2070 C 203.637 2.87466 2.16876 0
M  V30 2071 C 203.49 4.25041 1.47174 0
M  V30 2072 C 204.809 3.04613 3.17646 0
M  V30 2073 H 201.928 0.603515 0.423011 0
M  V30 2074 H 204.57 1.84494 0.454105 0
M  V30 2075 H 202.72 2.71689 2.777 0
M  V30 2076 H 204.392 4.52527 0.895376 0
M  V30 2077 H 202.635 4.26843 0.773806 0
M  V30 2078 H 203.306 5.06176 2.20204 0
M  V30 2079 H 205.782 3.1923 2.66892 0
M  V30 2080 H 204.658 3.91247 3.8499 0
M  V30 2081 H 204.919 2.17541 3.84874 0
M  V30 2082 N 203.978 -0.674533 1.42435 0
M  V30 2083 C 204.911 -1.79924 1.40366 0
M  V30 2084 C 205.889 -1.60378 0.267899 0
M  V30 2085 O 207.073 -1.82847 0.458159 0
M  V30 2086 C 204.2 -3.16927 1.19478 0
M  V30 2087 C 203.246 -3.55221 2.36051 0
M  V30 2088 S 204.079 -3.5762 3.98583 0
M  V30 2089 C 205.235 -4.97315 3.80038 0
M  V30 2090 H 205.468 -1.81405 2.35541 0
M  V30 2091 H 203.001 -0.845221 1.29211 0
M  V30 2092 H 204.959 -3.96007 1.08114 0
M  V30 2093 H 203.62 -3.13031 0.258883 0
M  V30 2094 H 202.813 -4.54804 2.17185 0
M  V30 2095 H 202.415 -2.83502 2.43932 0
M  V30 2096 H 204.707 -5.85401 3.41045 0
M  V30 2097 H 205.65 -5.21228 4.79298 0
M  V30 2098 H 206.058 -4.69845 3.12899 0
M  V30 2099 N 205.456 -1.28612 -0.910864 0
M  V30 2100 C 206.705 -1.15311 -1.65488 0
M  V30 2101 C 207.018 0.296999 -1.93332 0
M  V30 2102 O 208.224 0.551168 -2.65847 0
M  V30 2103 C 206.68 -2.01599 -2.98137 0
M  V30 2104 C 206.288 -3.51367 -2.7793 0
M  V30 2105 C 208.032 -1.96993 -3.76024 0
M  V30 2106 C 205.939 -4.29797 -4.06237 0
M  V30 2107 H 204.869 -0.42796 -0.620779 0
M  V30 2108 H 207.52 -1.53166 -1.01057 0
M  V30 2109 H 205.902 -1.56603 -3.63719 0
M  V30 2110 H 207.076 -4.0434 -2.21011 0
M  V30 2111 H 205.391 -3.57529 -2.13452 0
M  V30 2112 H 207.988 -2.52856 -4.71135 0
M  V30 2113 H 208.331 -0.94733 -4.05378 0
M  V30 2114 H 208.864 -2.39973 -3.17266 0
M  V30 2115 H 205.603 -5.32648 -3.82055 0
M  V30 2116 H 205.123 -3.81596 -4.62757 0
M  V30 2117 H 206.802 -4.39869 -4.74473 0
M  V30 2118 N 206.934 1.1197 -1.10907 0
M  V30 2119 C 208.18 1.8386 -0.855773 0
M  V30 2120 C 208.513 1.84134 0.617103 0
M  V30 2121 O 207.788 1.29041 1.45529 0
M  V30 2122 C 208.071 3.31305 -1.411 0
M  V30 2123 C 207.924 3.39456 -2.9511 0
M  V30 2124 C 209.243 4.2721 -1.05736 0
M  V30 2125 H 206.362 0.667545 -0.312334 0
M  V30 2126 H 209.004 1.31331 -1.37303 0
M  V30 2127 H 207.154 3.76169 -0.97105 0
M  V30 2128 H 208.826 3.03191 -3.47668 0
M  V30 2129 H 207.069 2.79849 -3.31462 0
M  V30 2130 H 207.74 4.43209 -3.29044 0
M  V30 2131 H 210.216 3.90497 -1.43706 0
M  V30 2132 H 209.092 5.28775 -1.47269 0
M  V30 2133 H 209.353 4.42088 0.0325958 0
M  V30 2134 N 208.412 0.89855 1.29475 0
M  V30 2135 C 209.658 0.524658 1.95896 0
M  V30 2136 C 209.991 -0.926468 1.70676 0
M  V30 2137 O 209.266 -1.65665 1.01908 0
M  V30 2138 C 209.549 0.81633 3.50725 0
M  V30 2139 C 209.402 2.31907 3.85408 0
M  V30 2140 C 210.721 0.302038 4.39062 0
M  V30 2141 H 207.84 0.19209 0.711527 0
M  V30 2142 H 210.482 1.12502 1.53112 0
M  V30 2143 H 208.632 0.305369 3.87298 0
M  V30 2144 H 210.304 2.89949 3.58786 0
M  V30 2145 H 208.547 2.78027 3.32992 0
M  V30 2146 H 209.218 2.47373 4.93468 0
M  V30 2147 H 211.694 0.739551 4.09475 0
M  V30 2148 H 210.57 0.535331 5.46283 0
M  V30 2149 H 210.831 -0.797216 4.34853 0
M  V30 2150 N 209.89 -1.43072 0.660911 0
M  V30 2151 C 211.137 -2.01721 0.177445 0
M  V30 2152 C 211.465 -1.5218 -1.21126 0
M  V30 2153 O 210.72 -0.708659 -1.82419 0
M  V30 2154 C 211.019 -3.57103 0.145563 0
M  V30 2155 C 210.685 -4.26021 1.47705 0
M  V30 2156 C 209.347 -4.44563 1.84165 0
M  V30 2157 C 211.699 -4.64983 2.35458 0
M  V30 2158 C 209.027 -4.99334 3.0803 0
M  V30 2159 C 211.379 -5.21127 3.58622 0
M  V30 2160 C 210.043 -5.37884 3.95268 0
M  V30 2161 H 209.313 -0.73815 0.0649317 0
M  V30 2162 H 211.96 -1.71446 0.853144 0
M  V30 2163 H 210.265 -3.86965 -0.61361 0
M  V30 2164 H 211.962 -4.00248 -0.2455 0
M  V30 2165 H 208.552 -4.11939 1.18339 0
M  V30 2166 H 212.736 -4.50343 2.08579 0
M  V30 2167 H 207.992 -5.10493 3.36462 0
M  V30 2168 H 212.166 -5.50262 4.26831 0
M  V30 2169 H 209.793 -5.80089 4.91325 0
M  V30 2170 N 211.368 -0.403325 -1.52352 0
M  V30 2171 C 212.616 0.174003 -2.0135 0
M  V30 2172 C 212.937 1.46139 -1.29106 0
M  V30 2173 O 212.207 1.91448 -0.415253 0
M  V30 2174 H 210.787 0.0672911 -0.743963 0
M  V30 2175 H 213.449 -0.538235 -1.87321 0
M  V30 2176 H 212.545 0.374254 -3.09848 0
M  V30 2177 N 212.846 1.57033 -0.133567 0
M  V30 2178 C 213.776 2.1909 0.807567 0
M  V30 2179 C 214.757 1.13517 1.26681 0
M  V30 2180 O 215.942 1.41809 1.32679 0
M  V30 2181 C 213.072 2.80188 2.05212 0
M  V30 2182 C 212.026 3.91471 1.73015 0
M  V30 2183 C 211.352 4.39443 3.04622 0
M  V30 2184 C 212.652 5.12886 0.987168 0
M  V30 2185 H 214.346 2.97988 0.290403 0
M  V30 2186 H 211.892 1.43335 0.138239 0
M  V30 2187 H 213.845 3.22264 2.71521 0
M  V30 2188 H 212.569 1.98601 2.59278 0
M  V30 2189 H 211.228 3.49993 1.0909 0
M  V30 2190 H 210.876 3.54695 3.56651 0
M  V30 2191 H 210.576 5.14495 2.83847 0
M  V30 2192 H 212.1 4.8418 3.72024 0
M  V30 2193 H 213.514 5.51891 1.55208 0
M  V30 2194 H 211.911 5.93615 0.87985 0
M  V30 2195 H 212.981 4.84894 -0.0235286 0
M  V30 2196 N 214.325 -0.140222 1.56975 0
M  V30 2197 C 215.235 -1.19223 2.02047 0
M  V30 2198 C 216.251 -1.46612 0.937062 0
M  V30 2199 O 217.427 -1.58148 1.24704 0
M  V30 2200 C 214.492 -2.50414 2.39778 0
M  V30 2201 C 213.553 -2.30612 3.621 0
M  V30 2202 C 212.786 -3.55547 3.98023 0
M  V30 2203 O 213.009 -4.62004 3.34528 0
M  V30 2204 O 211.943 -3.47808 4.91237 0
M  V30 2205 H 215.769 -0.839559 2.91865 0
M  V30 2206 H 213.354 -0.349453 1.45256 0
M  V30 2207 H 215.236 -3.27747 2.64877 0
M  V30 2208 H 213.911 -2.85198 1.53114 0
M  V30 2209 H 212.818 -1.51207 3.4218 0
M  V30 2210 H 214.151 -2.00741 4.49404 0
M  V30 2211 N 215.803 -1.52179 -0.40978 0
M  V30 2212 C 217.033 -1.69807 -1.17682 0
M  V30 2213 C 217.441 -0.406908 -1.84773 0
M  V30 2214 O 216.784 0.626863 -1.72673 0
M  V30 2215 C 216.846 -2.77712 -2.2829 0
M  V30 2216 C 216.51 -4.19481 -1.81341 0
M  V30 2217 C 217.507 -5.03345 -1.30154 0
M  V30 2218 C 215.192 -4.65713 -1.88194 0
M  V30 2219 C 217.186 -6.31511 -0.864416 0
M  V30 2220 C 214.873 -5.93869 -1.44093 0
M  V30 2221 C 215.871 -6.76597 -0.933023 0
M  V30 2222 O 215.559 -8.02354 -0.49838 0
M  V30 2223 H 215.291 -0.572372 -0.359675 0
M  V30 2224 H 217.845 -1.99511 -0.488311 0
M  V30 2225 H 216.075 -2.43383 -3.00502 0
M  V30 2226 H 217.764 -2.83946 -2.90051 0
M  V30 2227 H 218.53 -4.68819 -1.24232 0
M  V30 2228 H 214.409 -4.01424 -2.26671 0
M  V30 2229 H 217.953 -6.96033 -0.467286 0
M  V30 2230 H 213.85 -6.27903 -1.49694 0
M  V30 2231 H 214.618 -8.16135 -0.621747 0
M  V30 2232 N 217.281 0.66697 -1.42791 0
M  V30 2233 C 218.53 1.42278 -1.42968 0
M  V30 2234 C 218.843 1.9553 -0.0524489 0
M  V30 2235 O 220.049 2.71414 0.068363 0
M  V30 2236 C 218.505 2.57418 -2.51524 0
M  V30 2237 C 218.113 2.10832 -3.9529 0
M  V30 2238 C 219.857 3.34878 -2.60877 0
M  V30 2239 C 217.764 3.23101 -4.95338 0
M  V30 2240 H 216.694 0.534533 -0.531781 0
M  V30 2241 H 219.345 0.721302 -1.68729 0
M  V30 2242 H 217.727 3.29971 -2.18941 0
M  V30 2243 H 218.901 1.4538 -4.37266 0
M  V30 2244 H 217.216 1.46289 -3.89857 0
M  V30 2245 H 219.813 4.18505 -3.32802 0
M  V30 2246 H 220.156 3.81993 -1.6549 0
M  V30 2247 H 220.689 2.69398 -2.92693 0
M  V30 2248 H 217.428 2.80969 -5.9223 0
M  V30 2249 H 216.948 3.87309 -4.57987 0
M  V30 2250 H 218.627 3.88447 -5.17415 0
M  V30 2251 N 218.759 1.29093 0.90403 0
M  V30 2252 C 220.005 1.16986 1.65656 0
M  V30 2253 C 220.338 -0.278925 1.92186 0
M  V30 2254 O 219.613 -1.2019 1.5292 0
M  V30 2255 C 219.896 1.97908 3.0084 0
M  V30 2256 C 219.749 3.50903 2.81403 0
M  V30 2257 C 221.068 1.80208 4.01513 0
M  V30 2258 H 218.187 0.426346 0.601164 0
M  V30 2259 H 220.829 1.58518 1.04747 0
M  V30 2260 H 218.979 1.62616 3.52829 0
M  V30 2261 H 220.651 3.96153 2.36348 0
M  V30 2262 H 218.894 3.76045 2.1627 0
M  V30 2263 H 219.565 4.02791 3.77443 0
M  V30 2264 H 222.041 2.11025 3.58619 0
M  V30 2265 H 220.917 2.39184 4.94047 0
M  V30 2266 H 221.178 0.756119 4.35586 0
M  V30 2267 N 220.237 -1.11381 1.11499 0
M  V30 2268 C 221.653 -1.35143 0.849031 0
M  V30 2269 C 221.853 -1.94515 -0.525938 0
M  V30 2270 O 220.909 -2.1785 -1.27662 0
M  V30 2271 C 222.222 -2.28249 1.95762 0
M  V30 2272 C 223.77 -2.41812 1.98736 0
M  V30 2273 C 224.245 -3.3824 3.088 0
M  V30 2274 N 225.736 -3.45803 3.08179 0
M  V30 2275 C 226.471 -4.20358 3.89982 0
M  V30 2276 N 225.967 -4.97884 4.8175 0
M  V30 2277 N 227.76 -4.15877 3.78157 0
M  V30 2278 H 219.911 -0.712062 2.00109 0
M  V30 2279 H 222.174 -0.376025 0.870235 0
M  V30 2280 H 221.88 -1.91817 2.94787 0
M  V30 2281 H 221.754 -3.28473 1.85433 0
M  V30 2282 H 224.141 -2.77518 1.00338 0
M  V30 2283 H 224.222 -1.41437 2.13141 0
M  V30 2284 H 223.866 -3.03261 4.07425 0
M  V30 2285 H 223.796 -4.38471 2.91635 0
M  V30 2286 H 226.287 -2.90506 2.41691 0
M  V30 2287 H 226.6 -5.52142 5.40702 0
M  V30 2288 H 224.945 -4.97043 4.85771 0
M  V30 2289 H 228.136 -3.544 3.05808 0
M  V30 2290 H 228.309 -4.73723 4.42143 0
M  V30 2291 N 221.715 -0.905404 -1.28997 0
M  V30 2292 C 222.961 -0.535039 -1.95615 0
M  V30 2293 C 223.294 0.917404 -1.71165 0
M  V30 2294 O 222.569 1.65123 -1.02785 0
M  V30 2295 C 222.852 -0.834918 -3.50287 0
M  V30 2296 C 222.705 -2.33948 -3.84172 0
M  V30 2297 C 224.024 -0.325318 -4.38896 0
M  V30 2298 H 221.143 -0.195861 -0.710498 0
M  V30 2299 H 223.785 -1.13313 -1.52513 0
M  V30 2300 H 221.935 -0.325904 -3.87131 0
M  V30 2301 H 223.607 -2.91847 -3.57243 0
M  V30 2302 H 221.85 -2.79789 -3.31513 0
M  V30 2303 H 222.521 -2.49987 -4.92149 0
M  V30 2304 H 224.997 -0.761256 -4.09077 0
M  V30 2305 H 223.873 -0.564295 -5.45992 0
M  V30 2306 H 224.134 0.774144 -4.35269 0
M  V30 2307 N 223.193 1.4272 -0.668489 0
M  V30 2308 C 224.439 2.02443 -0.197076 0
M  V30 2309 C 224.794 1.51882 1.18109 0
M  V30 2310 O 224.087 0.708618 1.78015 0
M  V30 2311 C 224.281 3.57021 -0.164499 0
M  V30 2312 C 224.11 4.22583 -1.53797 0
M  V30 2313 C 222.88 4.58019 -2.13416 0
M  V30 2314 C 225.078 4.50588 -2.47941 0
M  V30 2315 N 223.06 5.08729 -3.4361 0
M  V30 2316 C 224.431 5.02782 -3.62782 0
M  V30 2317 C 226.486 4.32571 -2.46551 0
M  V30 2318 C 225.189 5.38852 -4.76478 0
M  V30 2319 C 227.215 4.69713 -3.59338 0
M  V30 2320 C 226.577 5.22053 -4.72906 0
M  V30 2321 H 222.676 0.773214 -0.116894 0
M  V30 2322 H 225.26 1.73673 -0.880108 0
M  V30 2323 H 223.431 3.85323 0.487925 0
M  V30 2324 H 225.163 4.03439 0.319207 0
M  V30 2325 H 221.918 4.43566 -1.65969 0
M  V30 2326 H 222.342 5.38521 -4.10273 0
M  V30 2327 H 226.984 3.91365 -1.59978 0
M  V30 2328 H 224.702 5.78993 -5.63731 0
M  V30 2329 H 228.288 4.57454 -3.59482 0
M  V30 2330 H 227.168 5.50258 -5.58736 0
M  V30 2331 N 224.671 0.411399 1.52136 0
M  V30 2332 C 225.896 -0.165538 2.06738 0
M  V30 2333 C 226.321 -1.379 1.27926 0
M  V30 2334 O 225.679 -1.78628 0.310114 0
M  V30 2335 C 225.727 -0.492124 3.57226 0
M  V30 2336 O 224.831 -1.58276 3.80818 0
M  V30 2337 H 224.172 -0.0132132 0.663869 0
M  V30 2338 H 226.702 0.585253 1.96051 0
M  V30 2339 H 226.712 -0.750104 4.01045 0
M  V30 2340 H 225.387 0.394922 4.14021 0
M  V30 2341 H 223.964 -1.31677 3.48877 0
M  V30 2342 N 226.149 -1.5696 0.141893 0
M  V30 2343 C 227.112 -2.15316 -0.785587 0
M  V30 2344 C 228.112 -1.09366 -1.1788 0
M  V30 2345 O 229.302 -1.35031 -1.10056 0
M  V30 2346 C 226.434 -2.71211 -2.06537 0
M  V30 2347 H 227.627 -2.98608 -0.278041 0
M  V30 2348 H 225.18 -1.5593 -0.107519 0
M  V30 2349 H 225.915 -1.91571 -2.6167 0
M  V30 2350 H 225.7 -3.4872 -1.79268 0
M  V30 2351 H 227.19 -3.16189 -2.72789 0
M  V30 2352 N 227.627 0.131896 -1.57047 0
M  V30 2353 C 228.875 0.840269 -1.83804 0
M  V30 2354 C 229.196 1.81017 -0.72512 0
M  V30 2355 O 228.466 1.94272 0.251995 0
M  V30 2356 H 227.046 0.313294 -0.678127 0
M  V30 2357 H 229.708 0.122294 -1.94516 0
M  V30 2358 H 228.804 1.39335 -2.79271 0
M  V30 2359 N 229.106 1.52395 0.401703 0
M  V30 2360 C 230.346 1.68498 1.15705 0
M  V30 2361 C 230.71 0.409748 1.87577 0
M  V30 2362 O 231.911 0.446983 2.65058 0
M  V30 2363 C 230.182 2.87789 2.11924 0
M  V30 2364 S 231.741 3.24415 2.95466 0
M  V30 2365 H 228.559 0.593267 0.391862 0
M  V30 2366 H 231.161 1.90408 0.443282 0
M  V30 2367 H 229.865 3.7884 1.57824 0
M  V30 2368 H 229.396 2.68175 2.87829 0
M  V30 2369 H 231.411 2.73614 4.13944 0
M  V30 2370 N 230.584 -0.659388 1.43143 0
M  V30 2371 C 231.824 -1.43121 1.45931 0
M  V30 2372 C 232.188 -1.91838 0.0789298 0
M  V30 2373 O 233.389 -2.68794 -0.018491 0
M  V30 2374 C 231.66 -2.58534 2.46769 0
M  V30 2375 S 233.219 -3.47154 2.68384 0
M  V30 2376 H 230.037 -0.488624 0.516496 0
M  V30 2377 H 232.639 -0.766128 1.79863 0
M  V30 2378 H 231.343 -2.21007 3.45809 0
M  V30 2379 H 230.874 -3.29898 2.14315 0
M  V30 2380 H 232.889 -4.55051 1.97845 0
M  V30 2381 N 232.062 -1.29571 -0.897171 0
M  V30 2382 C 233.302 -1.18959 -1.66217 0
M  V30 2383 C 233.666 0.254271 -1.90309 0
M  V30 2384 O 234.867 0.483407 -2.64417 0
M  V30 2385 C 233.138 -1.98302 -2.9734 0
M  V30 2386 S 234.697 -2.04253 -3.88364 0
M  V30 2387 H 231.515 -0.424137 -0.570639 0
M  V30 2388 H 234.117 -1.6389 -1.06585 0
M  V30 2389 H 232.821 -3.02342 -2.77521 0
M  V30 2390 H 232.352 -1.53986 -3.62011 0
M  V30 2391 H 234.367 -1.16105 -4.82425 0
M  V30 2392 N 233.54 1.10788 -1.12088 0
M  V30 2393 C 234.956 1.34691 -0.856186 0
M  V30 2394 C 235.156 1.94791 0.515615 0
M  V30 2395 O 234.212 2.18524 1.26505 0
M  V30 2396 C 235.525 2.27208 -1.9697 0
M  V30 2397 C 237.073 2.40755 -2.00016 0
M  V30 2398 C 237.548 3.36598 -3.1059 0
M  V30 2399 N 239.039 3.44164 -3.10008 0
M  V30 2400 C 239.774 4.18284 -3.92206 0
M  V30 2401 N 239.27 4.95322 -4.84384 0
M  V30 2402 N 241.063 4.13865 -3.80357 0
M  V30 2403 H 233.214 0.70144 -2.00483 0
M  V30 2404 H 235.477 0.371405 -0.872217 0
M  V30 2405 H 235.183 1.90251 -2.958 0
M  V30 2406 H 235.057 3.27485 -1.87172 0
M  V30 2407 H 237.444 2.76982 -1.01808 0
M  V30 2408 H 237.525 1.40305 -2.13888 0
M  V30 2409 H 237.169 3.01096 -4.09028 0
M  V30 2410 H 237.099 4.36918 -2.93956 0
M  V30 2411 H 239.59 2.8922 -2.43228 0
M  V30 2412 H 239.903 5.49267 -5.43623 0
M  V30 2413 H 238.248 4.94459 -4.884 0
M  V30 2414 H 241.439 3.52773 -3.07683 0
M  V30 2415 H 241.612 4.71372 -4.44649 0
M  V30 2416 N 235.018 0.912232 1.28515 0
M  V30 2417 C 236.248 0.559604 1.98877 0
M  V30 2418 C 236.656 -0.863113 1.68366 0
M  V30 2419 O 235.999 -1.58304 0.931969 0
M  V30 2420 C 236.061 0.68703 3.52874 0
M  V30 2421 C 235.725 2.07901 4.06972 0
M  V30 2422 C 236.722 3.05157 4.20922 0
M  V30 2423 C 234.407 2.39178 4.417 0
M  V30 2424 C 236.401 4.31806 4.68852 0
M  V30 2425 C 234.088 3.66068 4.89324 0
M  V30 2426 C 235.086 4.62195 5.02856 0
M  V30 2427 O 234.774 5.86829 5.49442 0
M  V30 2428 H 234.506 0.212191 0.641834 0
M  V30 2429 H 237.06 1.22712 1.64715 0
M  V30 2430 H 235.29 -0.0375486 3.86682 0
M  V30 2431 H 236.979 0.341727 4.04459 0
M  V30 2432 H 237.745 2.82311 3.94367 0
M  V30 2433 H 233.624 1.65109 4.30418 0
M  V30 2434 H 237.168 5.06842 4.79329 0
M  V30 2435 H 233.065 3.88739 5.15318 0
M  V30 2436 H 233.833 5.89597 5.6773 0
M  V30 2437 N 236.496 -1.42363 0.676048 0
M  V30 2438 C 237.912 -1.55811 0.345718 0
M  V30 2439 C 238.112 -1.65544 -1.14879 0
M  V30 2440 O 237.168 -1.62306 -1.93424 0
M  V30 2441 C 238.481 -2.80746 1.07713 0
M  V30 2442 C 240.029 -2.9452 1.05958 0
M  V30 2443 C 240.504 -4.22318 1.77233 0
M  V30 2444 N 241.995 -4.29233 1.74108 0
M  V30 2445 C 242.73 -5.26935 2.26113 0
M  V30 2446 N 242.226 -6.30783 2.86505 0
M  V30 2447 N 244.019 -5.18741 2.1648 0
M  V30 2448 H 236.17 -1.34289 1.6456 0
M  V30 2449 H 238.433 -0.646506 0.69335 0
M  V30 2450 H 238.139 -2.79696 2.13221 0
M  V30 2451 H 238.013 -3.71676 0.64316 0
M  V30 2452 H 240.4 -2.95097 0.0128255 0
M  V30 2453 H 240.481 -2.04817 1.53244 0
M  V30 2454 H 240.125 -4.22502 2.81877 0
M  V30 2455 H 240.055 -5.10958 1.27396 0
M  V30 2456 H 242.546 -3.54814 1.30059 0
M  V30 2457 H 242.859 -7.01691 3.23805 0
M  V30 2458 H 241.204 -6.31341 2.90575 0
M  V30 2459 H 244.395 -4.36533 1.68987 0
M  V30 2460 H 244.568 -5.94721 2.57316 0
M  V30 2461 N 237.974 -0.419461 -1.51915 0
M  V30 2462 C 239.222 0.152637 -2.01523 0
M  V30 2463 C 239.543 1.44762 -1.30649 0
M  V30 2464 O 238.813 1.90997 -0.435535 0
M  V30 2465 H 237.393 0.0593966 -0.744635 0
M  V30 2466 H 240.055 -0.558073 -1.86739 0
M  V30 2467 H 239.151 0.341369 -3.10227 0
M  V30 2468 N 239.452 1.56882 -0.150215 0
M  V30 2469 C 240.698 1.97299 0.494427 0
M  V30 2470 C 241.053 1.0338 1.62266 0
M  V30 2471 O 240.346 0.0694497 1.91474 0
M  V30 2472 C 240.54 3.41801 1.04437 0
M  V30 2473 C 240.369 4.49691 -0.0290451 0
M  V30 2474 C 239.139 5.03095 -0.47156 0
M  V30 2475 C 241.337 5.07693 -0.821703 0
M  V30 2476 N 239.319 5.94593 -1.52749 0
M  V30 2477 C 240.69 5.95431 -1.72805 0
M  V30 2478 C 242.745 4.90256 -0.869134 0
M  V30 2479 C 241.448 6.67599 -2.67777 0
M  V30 2480 C 243.474 5.63127 -1.8067 0
M  V30 2481 C 242.836 6.50576 -2.70057 0
M  V30 2482 H 238.935 0.76755 0.149639 0
M  V30 2483 H 241.519 1.93145 -0.24556 0
M  V30 2484 H 239.69 3.46541 1.75396 0
M  V30 2485 H 241.422 3.69272 1.6559 0
M  V30 2486 H 238.177 4.73543 -0.0732101 0
M  V30 2487 H 238.601 6.45047 -2.05531 0
M  V30 2488 H 243.243 4.22363 -0.192134 0
M  V30 2489 H 240.961 7.34717 -3.36476 0
M  V30 2490 H 244.547 5.51629 -1.84924 0
M  V30 2491 H 243.427 7.05974 -3.41424 0
M  V30 2492 N 240.93 -0.123565 1.57115 0
M  V30 2493 C 241.862 -1.17739 1.96648 0
M  V30 2494 C 242.875 -1.37906 0.865201 0
M  V30 2495 O 244.064 -1.37062 1.14351 0
M  V30 2496 C 241.164 -2.53821 2.24562 0
M  V30 2497 C 240.337 -2.54317 3.55867 0
M  V30 2498 C 239.396 -3.72112 3.72047 0
M  V30 2499 O 238.422 -3.55907 4.44206 0
M  V30 2500 N 239.624 -4.90498 3.10471 0
M  V30 2501 H 242.389 -0.841147 2.87654 0
M  V30 2502 H 239.95 -0.31289 1.58848 0
M  V30 2503 H 241.942 -3.31175 2.32606 0
M  V30 2504 H 240.512 -2.79645 1.39705 0
M  V30 2505 H 239.732 -1.62711 3.59053 0
M  V30 2506 H 241.02 -2.51701 4.42181 0
M  V30 2507 H 240.418 -5.06567 2.51806 0
M  V30 2508 H 238.975 -5.65544 3.24043 0
M  V30 2509 N 242.408 -1.52605 -0.393616 0
M  V30 2510 C 243.656 -1.67093 -1.13685 0
M  V30 2511 C 243.977 -0.411011 -1.90619 0
M  V30 2512 O 243.247 0.574491 -1.87287 0
M  V30 2513 H 241.827 -0.615923 -0.422668 0
M  V30 2514 H 244.489 -1.89704 -0.447039 0
M  V30 2515 H 243.585 -2.51922 -1.84232 0
M  V30 2516 N 243.887 0.651787 -1.4349 0
M  V30 2517 C 245.303 0.96762 -1.26922 0
M  V30 2518 C 245.503 2.00602 -0.189982 0
M  V30 2519 O 244.559 2.48793 0.431107 0
M  V30 2520 C 245.872 1.45052 -2.63401 0
M  V30 2521 C 247.42 1.5671 -2.70945 0
M  V30 2522 C 247.895 2.0839 -4.07845 0
M  V30 2523 N 249.386 2.1569 -4.09917 0
M  V30 2524 C 250.121 2.56804 -5.12679 0
M  V30 2525 N 249.617 2.97203 -6.25813 0
M  V30 2526 N 251.41 2.56756 -5.00033 0
M  V30 2527 H 243.561 -0.0353158 -2.12371 0
M  V30 2528 H 245.824 0.0467858 -0.946845 0
M  V30 2529 H 245.53 0.761926 -3.43348 0
M  V30 2530 H 245.404 2.42529 -2.88894 0
M  V30 2531 H 247.791 2.2467 -1.9133 0
M  V30 2532 H 247.872 0.57662 -2.49216 0
M  V30 2533 H 247.516 1.41031 -4.87927 0
M  V30 2534 H 247.446 3.08271 -4.26938 0
M  V30 2535 H 249.937 1.87237 -3.28254 0
M  V30 2536 H 250.25 3.27328 -7.00055 0
M  V30 2537 H 248.595 2.95004 -6.29283 0
M  V30 2538 H 251.786 2.24572 -4.10713 0
M  V30 2539 H 251.959 2.88475 -5.80247 0
M  V30 2540 N 245.365 1.30045 0.890287 0
M  V30 2541 C 246.612 1.18561 1.64163 0
M  V30 2542 C 246.94 -0.260852 1.92743 0
M  V30 2543 O 246.195 -1.20376 1.54299 0
M  V30 2544 C 246.494 1.95409 2.99249 0
M  V30 2545 C 246.16 3.45066 2.90242 0
M  V30 2546 C 244.822 3.85878 2.87492 0
M  V30 2547 C 247.174 4.4039 2.78758 0
M  V30 2548 C 244.502 5.20314 2.7109 0
M  V30 2549 C 246.854 5.74928 2.63894 0
M  V30 2550 C 245.518 6.14986 2.59516 0
M  V30 2551 H 244.788 0.433846 0.600715 0
M  V30 2552 H 247.435 1.61088 1.03552 0
M  V30 2553 H 245.74 1.45501 3.63781 0
M  V30 2554 H 247.437 1.8392 3.56334 0
M  V30 2555 H 244.027 3.12631 2.93189 0
M  V30 2556 H 248.211 4.09806 2.79952 0
M  V30 2557 H 243.467 5.50449 2.66112 0
M  V30 2558 H 247.641 6.48434 2.53981 0
M  V30 2559 H 245.268 7.19104 2.46565 0
M  V30 2560 N 246.843 -1.10192 1.12674 0
M  V30 2561 C 248.259 -1.34235 0.863317 0
M  V30 2562 C 248.459 -1.95062 -0.505277 0
M  V30 2563 O 247.515 -2.19192 -1.25345 0
M  V30 2564 C 248.828 -2.2616 1.98172 0
M  V30 2565 C 250.376 -2.3969 2.0129 0
M  V30 2566 C 250.851 -3.34946 3.1237 0
M  V30 2567 N 252.342 -3.42515 3.11829 0
M  V30 2568 C 253.077 -4.16199 3.94419 0
M  V30 2569 N 252.573 -4.92747 4.87004 0
M  V30 2570 N 254.366 -4.11843 3.82547 0
M  V30 2571 H 246.517 -0.690798 2.00853 0
M  V30 2572 H 248.78 -0.366774 0.874174 0
M  V30 2573 H 248.486 -1.8868 2.96804 0
M  V30 2574 H 248.36 -3.26488 1.88906 0
M  V30 2575 H 250.747 -2.76438 1.03276 0
M  V30 2576 H 250.828 -1.39169 2.14629 0
M  V30 2577 H 250.472 -2.98923 4.10619 0
M  V30 2578 H 250.402 -4.35353 2.96269 0
M  V30 2579 H 252.893 -2.87926 2.44759 0
M  V30 2580 H 253.206 -5.46376 5.46528 0
M  V30 2581 H 251.551 -4.91862 4.91016 0
M  V30 2582 H 254.742 -3.51136 3.0955 0
M  V30 2583 H 254.915 -4.69007 4.47142 0
M  V30 2584 N 248.321 -0.919034 -1.28029 0
M  V30 2585 C 249.568 -0.554934 -1.94748 0
M  V30 2586 C 249.896 0.90231 -1.72304 0
M  V30 2587 O 249.151 1.65767 -1.04018 0
M  V30 2588 C 249.45 -0.816855 -3.4794 0
M  V30 2589 C 249.116 -2.25448 -3.90492 0
M  V30 2590 C 247.778 -2.64752 -4.01821 0
M  V30 2591 C 250.13 -3.18977 -4.12193 0
M  V30 2592 C 247.458 -3.96727 -4.32232 0
M  V30 2593 C 249.81 -4.50523 -4.44086 0
M  V30 2594 C 248.474 -4.89673 -4.53626 0
M  V30 2595 H 247.744 -0.203065 -0.712633 0
M  V30 2596 H 250.391 -1.16136 -1.52265 0
M  V30 2597 H 248.696 -0.127677 -3.91592 0
M  V30 2598 H 250.393 -0.514238 -3.97689 0
M  V30 2599 H 246.983 -1.93952 -3.82205 0
M  V30 2600 H 251.167 -2.89817 -4.02889 0
M  V30 2601 H 246.423 -4.26754 -4.37825 0
M  V30 2602 H 250.597 -5.23005 -4.59825 0
M  V30 2603 H 248.224 -5.91969 -4.76946 0
M  V30 2604 N 249.799 1.42003 -0.683588 0
M  V30 2605 C 250.762 2.29191 -0.0198243 0
M  V30 2606 C 251.762 1.43773 0.72013 0
M  V30 2607 O 252.952 1.65061 0.556815 0
M  V30 2608 C 250.084 3.26435 0.982487 0
M  V30 2609 H 251.277 2.8938 -0.787345 0
M  V30 2610 H 248.83 1.49789 -0.446418 0
M  V30 2611 H 249.565 2.71203 1.77819 0
M  V30 2612 H 249.35 3.89449 0.455182 0
M  V30 2613 H 250.84 3.918 1.44508 0
M  V30 2614 N 251.277 0.427512 1.51691 0
M  V30 2615 C 252.693 0.0792977 1.59403 0
M  V30 2616 C 252.893 -1.41035 1.43914 0
M  V30 2617 O 251.949 -2.17922 1.27539 0
M  V30 2618 C 253.262 0.590636 2.94842 0
M  V30 2619 C 254.81 0.550215 3.08126 0
M  V30 2620 C 255.285 1.03836 4.46074 0
M  V30 2621 N 256.776 0.995943 4.52366 0
M  V30 2622 C 257.511 1.34463 5.57411 0
M  V30 2623 N 257.007 1.76569 6.69922 0
M  V30 2624 N 258.8 1.26343 5.47717 0
M  V30 2625 H 250.951 1.39687 1.60004 0
M  V30 2626 H 253.214 0.575003 0.753708 0
M  V30 2627 H 252.92 1.63251 3.11516 0
M  V30 2628 H 252.794 0.0102061 3.77199 0
M  V30 2629 H 255.181 -0.482654 2.91126 0
M  V30 2630 H 255.262 1.16693 2.27632 0
M  V30 2631 H 254.906 2.06965 4.63819 0
M  V30 2632 H 254.836 0.398286 5.25092 0
M  V30 2633 H 257.327 0.68661 3.7161 0
M  V30 2634 H 257.64 2.01438 7.46085 0
M  V30 2635 H 255.985 1.80488 6.71155 0
M  V30 2636 H 259.176 0.933209 4.58703 0
M  V30 2637 H 259.349 1.53846 6.29472 0
M  V30 2638 N 252.755 -1.56801 0.158532 0
M  V30 2639 C 253.702 -2.17337 -0.776729 0
M  V30 2640 C 254.672 -1.1096 -1.23601 0
M  V30 2641 O 255.857 -1.39054 -1.30647 0
M  V30 2642 C 252.997 -2.80822 -2.00582 0
M  V30 2643 C 252.11 -4.01624 -1.59129 0
M  V30 2644 C 251.245 -4.53072 -2.77306 0
M  V30 2645 C 250.284 -5.66314 -2.32282 0
M  V30 2646 N 249.421 -6.12329 -3.43508 0
M  V30 2647 H 254.261 -2.96918 -0.253701 0
M  V30 2648 H 251.798 -1.46661 -0.113504 0
M  V30 2649 H 253.756 -3.15779 -2.72652 0
M  V30 2650 H 252.386 -2.03866 -2.50277 0
M  V30 2651 H 251.438 -3.72571 -0.767806 0
M  V30 2652 H 252.75 -4.83633 -1.2207 0
M  V30 2653 H 251.904 -4.90145 -3.57551 0
M  V30 2654 H 250.643 -3.70095 -3.17617 0
M  V30 2655 H 249.648 -5.28806 -1.5048 0
M  V30 2656 H 250.873 -6.51085 -1.93043 0
M  V30 2657 H 248.819 -5.32284 -3.83418 0
M  V30 2658 H 248.736 -6.89293 -3.105 0
M  V30 2659 H 250.004 -6.5405 -4.24075 0
M  V30 2660 N 254.233 0.115231 -1.57178 0
M  V30 2661 C 255.644 0.67197 -1.74188 0
M  V30 2662 C 255.995 1.80125 -0.777777 0
M  V30 2663 O 255.12 2.16346 0.0484376 0
M  V30 2664 C 255.715 1.22573 -3.1585 0
M  V30 2665 C 254.274 1.72872 -3.34353 0
M  V30 2666 C 253.421 0.629972 -2.70049 0
M  V30 2667 H 256.372 -0.110712 -1.58313 0
M  V30 2668 H 256.393 2.09535 -3.17609 0
M  V30 2669 H 255.905 0.403598 -3.85996 0
M  V30 2670 H 254.006 2.5755 -2.69256 0
M  V30 2671 H 254.119 1.83557 -4.42542 0
M  V30 2672 H 252.483 1.0645 -2.31388 0
M  V30 2673 H 253.266 -0.181241 -3.42821 0
M  V30 2674 N 255.711 1.52812 0.385517 0
M  V30 2675 C 256.958 1.68026 1.1302 0
M  V30 2676 C 257.286 0.421934 1.89868 0
M  V30 2677 O 256.541 -0.595749 1.86412 0
M  V30 2678 C 256.84 2.86856 2.13187 0
M  V30 2679 C 256.506 4.24159 1.5297 0
M  V30 2680 C 255.168 4.61501 1.36274 0
M  V30 2681 C 257.52 5.09627 1.09223 0
M  V30 2682 C 254.848 5.81966 0.743837 0
M  V30 2683 C 257.2 6.30719 0.487411 0
M  V30 2684 C 255.864 6.6679 0.307777 0
M  V30 2685 H 255.134 0.614849 0.413571 0
M  V30 2686 H 257.781 1.86962 0.414405 0
M  V30 2687 H 256.086 2.6235 2.90998 0
M  V30 2688 H 257.783 2.95821 2.70722 0
M  V30 2689 H 254.373 3.94746 1.66954 0
M  V30 2690 H 258.557 4.81343 1.20922 0
M  V30 2691 H 253.813 6.08519 0.592891 0
M  V30 2692 H 257.987 6.96259 0.140143 0
M  V30 2693 H 255.614 7.60001 -0.173879 0
M  V30 2694 N 257.189 -0.644168 1.43834 0
M  V30 2695 C 258.429 -1.41565 1.47441 0
M  V30 2696 C 258.793 -1.91743 0.0992723 0
M  V30 2697 O 259.994 -2.68798 0.0100192 0
M  V30 2698 C 258.265 -2.55902 2.49498 0
M  V30 2699 S 259.824 -3.44287 2.72051 0
M  V30 2700 H 256.642 -0.483118 0.521649 0
M  V30 2701 H 259.244 -0.747008 1.80666 0
M  V30 2702 H 257.948 -2.17327 3.48134 0
M  V30 2703 H 257.479 -3.27607 2.17801 0
M  V30 2704 H 259.494 -4.52927 2.0266 0
M  V30 2705 N 258.668 -1.30515 -0.883378 0
M  V30 2706 C 259.914 -1.19607 -1.63774 0
M  V30 2707 C 260.247 0.248314 -1.92606 0
M  V30 2708 O 259.522 1.17742 -1.54813 0
M  V30 2709 C 259.805 -2.02669 -2.97653 0
M  V30 2710 C 259.658 -3.55335 -2.75784 0
M  V30 2711 C 260.977 -1.86573 -3.98596 0
M  V30 2712 H 258.096 -0.435856 -0.594305 0
M  V30 2713 H 260.738 -1.60165 -1.02212 0
M  V30 2714 H 258.888 -1.68208 -3.50197 0
M  V30 2715 H 260.56 -3.99863 -2.30016 0
M  V30 2716 H 258.803 -3.79438 -2.1026 0
M  V30 2717 H 259.474 -4.08745 -3.70988 0
M  V30 2718 H 261.95 -2.16703 -3.55217 0
M  V30 2719 H 260.826 -2.47014 -4.90179 0
M  V30 2720 H 261.087 -0.825321 -4.34328 0
M  V30 2721 N 260.146 1.09593 -1.13257 0
M  V30 2722 C 261.395 1.81105 -0.887917 0
M  V30 2723 C 261.708 1.86563 0.587672 0
M  V30 2724 O 262.914 2.54367 0.949204 0
M  V30 2725 C 261.37 3.25338 -1.53895 0
M  V30 2726 C 260.978 3.28151 -3.04994 0
M  V30 2727 C 262.722 4.01617 -1.37492 0
M  V30 2728 C 260.629 4.66897 -3.6299 0
M  V30 2729 H 259.559 0.678661 -0.328534 0
M  V30 2730 H 262.21 1.23183 -1.36008 0
M  V30 2731 H 260.592 3.8331 -0.994446 0
M  V30 2732 H 261.766 2.79953 -3.66009 0
M  V30 2733 H 260.081 2.65361 -3.20893 0
M  V30 2734 H 262.678 5.04119 -1.78235 0
M  V30 2735 H 263.021 4.15072 -0.31957 0
M  V30 2736 H 263.554 3.50082 -1.88912 0
M  V30 2737 H 260.293 4.58643 -4.68323 0
M  V30 2738 H 259.813 5.15426 -3.06752 0
M  V30 2739 H 261.492 5.3587 -3.62563 0
M  V30 2740 N 261.624 0.925811 1.2754 0
M  V30 2741 C 262.901 0.483726 1.89524 0
M  V30 2742 C 263.281 -1.03809 1.83812 0
M  V30 2743 O 262.629 -1.89143 1.28207 0
M  V30 2744 C 262.839 1.02769 3.33526 0
M  V30 2745 C 264.187 1.08703 4.10449 0
M  V30 2746 O 265.211 0.977175 3.42534 0
M  V30 2747 O 264.07 1.25599 5.31871 0
M  V30 2748 H 261.164 0.15529 0.812289 0
M  V30 2749 H 263.71 1.01738 1.35822 0
M  V30 2750 H 262.482 2.07155 3.31967 0
M  V30 2751 H 262.105 0.475567 3.94746 0
M  V30 2752 N 263.102 -1.41638 0.69111 0
M  V30 2753 C 264.349 -2.01299 0.220193 0
M  V30 2754 C 264.677 -1.54715 -1.17871 0
M  V30 2755 O 263.932 -0.747193 -1.80874 0
M  V30 2756 C 264.231 -3.56714 0.221277 0
M  V30 2757 C 263.897 -4.22792 1.56709 0
M  V30 2758 C 262.559 -4.40557 1.93554 0
M  V30 2759 C 264.911 -4.59883 2.45268 0
M  V30 2760 C 262.239 -4.92688 3.18552 0
M  V30 2761 C 264.591 -5.13403 3.69595 0
M  V30 2762 C 263.255 -5.29379 4.06589 0
M  V30 2763 H 262.525 -0.736606 0.0805743 0
M  V30 2764 H 265.172 -1.69598 0.889319 0
M  V30 2765 H 263.477 -3.8818 -0.531391 0
M  V30 2766 H 265.174 -4.00678 -0.160547 0
M  V30 2767 H 261.764 -4.09336 1.2705 0
M  V30 2768 H 265.948 -4.45817 2.18084 0
M  V30 2769 H 261.204 -5.03242 3.47214 0
M  V30 2770 H 265.378 -5.41084 4.38407 0
M  V30 2771 H 263.005 -5.69537 5.03519 0
M  V30 2772 N 264.58 -0.43555 -1.51462 0
M  V30 2773 C 265.829 0.133007 -2.01261 0
M  V30 2774 C 266.142 1.43942 -1.32439 0
M  V30 2775 O 267.348 2.09081 -1.73198 0
M  V30 2776 C 265.804 0.287581 -3.58749 0
M  V30 2777 C 265.412 -1.00829 -4.36506 0
M  V30 2778 C 267.156 0.810004 -4.167 0
M  V30 2779 C 265.063 -0.819454 -5.85695 0
M  V30 2780 H 263.993 0.0534822 -0.752101 0
M  V30 2781 H 266.644 -0.565038 -1.74584 0
M  V30 2782 H 265.026 1.04859 -3.81865 0
M  V30 2783 H 266.2 -1.77749 -4.25138 0
M  V30 2784 H 264.515 -1.45911 -3.89999 0
M  V30 2785 H 267.112 0.967743 -5.2587 0
M  V30 2786 H 267.455 1.79196 -3.75758 0
M  V30 2787 H 267.988 0.107357 -3.97655 0
M  V30 2788 H 264.727 -1.77374 -6.31046 0
M  V30 2789 H 264.247 -0.0900208 -5.99732 0
M  V30 2790 H 265.926 -0.471949 -6.45276 0
M  V30 2791 N 266.058 1.56714 -0.166846 0
M  V30 2792 C 267.304 1.97039 0.479962 0
M  V30 2793 C 267.637 1.05264 1.63197 0
M  V30 2794 O 266.912 0.0988833 1.94248 0
M  V30 2795 C 267.195 3.46867 0.967212 0
M  V30 2796 C 267.048 4.49421 -0.18466 0
M  V30 2797 C 268.367 3.9968 1.84238 0
M  V30 2798 H 265.486 0.71641 0.172992 0
M  V30 2799 H 268.128 1.8832 -0.252079 0
M  V30 2800 H 266.278 3.54428 1.59101 0
M  V30 2801 H 267.95 4.53924 -0.821621 0
M  V30 2802 H 266.193 4.25573 -0.840837 0
M  V30 2803 H 266.864 5.51644 0.198317 0
M  V30 2804 H 269.34 3.94723 1.31655 0
M  V30 2805 H 268.216 5.04941 2.15234 0
M  V30 2806 H 268.477 3.43226 2.78654 0
M  V30 2807 N 267.536 -0.106894 1.57237 0
M  V30 2808 C 268.783 -0.812526 1.85484 0
M  V30 2809 C 269.111 -1.79304 0.753687 0
M  V30 2810 O 268.366 -1.94047 -0.253853 0
M  V30 2811 C 268.665 -1.58628 3.20268 0
M  V30 2812 C 268.331 -0.748967 4.44636 0
M  V30 2813 C 266.993 -0.518104 4.78403 0
M  V30 2814 C 269.345 -0.166122 5.20935 0
M  V30 2815 C 266.673 0.305659 5.85903 0
M  V30 2816 C 269.025 0.644899 6.29304 0
M  V30 2817 C 267.689 0.885965 6.61594 0
M  V30 2818 H 266.959 -0.297324 0.678734 0
M  V30 2819 H 269.606 -0.0744332 1.91355 0
M  V30 2820 H 267.911 -2.39562 3.10028 0
M  V30 2821 H 269.608 -2.13643 3.39349 0
M  V30 2822 H 266.198 -0.939006 4.18187 0
M  V30 2823 H 270.382 -0.33167 4.95191 0
M  V30 2824 H 265.638 0.501528 6.0934 0
M  V30 2825 H 269.812 1.10345 6.87602 0
M  V30 2826 H 267.439 1.52609 7.44725 0
M  V30 2827 N 269.014 -1.53014 -0.377408 0
M  V30 2828 C 270.26 -1.68872 -1.12294 0
M  V30 2829 C 270.593 -0.433224 -1.89306 0
M  V30 2830 O 269.868 0.569258 -1.85983 0
M  V30 2831 C 270.151 -2.93115 -2.09179 0
M  V30 2832 C 270.004 -4.28794 -1.35853 0
M  V30 2833 C 271.323 -3.12928 -3.09458 0
M  V30 2834 H 268.442 -0.614518 -0.406862 0
M  V30 2835 H 271.084 -1.85633 -0.40503 0
M  V30 2836 H 269.234 -2.78956 -2.70399 0
M  V30 2837 H 270.906 -4.54742 -0.775082 0
M  V30 2838 H 269.149 -4.28744 -0.660364 0
M  V30 2839 H 269.82 -5.11837 -2.06706 0
M  V30 2840 H 272.296 -3.26194 -2.58334 0
M  V30 2841 H 271.172 -4.01316 -3.74482 0
M  V30 2842 H 271.433 -2.27669 -3.78971 0
M  V30 2843 N 270.492 0.636531 -1.44174 0
M  V30 2844 C 271.455 1.73063 -1.50273 0
M  V30 2845 C 272.455 1.56113 -0.385397 0
M  V30 2846 O 273.645 1.61707 -0.64781 0
M  V30 2847 C 270.777 3.12096 -1.37145 0
M  V30 2848 H 271.97 1.69031 -2.47727 0
M  V30 2849 H 269.523 0.849706 -1.31186 0
M  V30 2850 H 270.258 3.21728 -0.407636 0
M  V30 2851 H 270.043 3.25805 -2.18159 0
M  V30 2852 H 271.533 3.91846 -1.44382 0
M  V30 2853 N 271.97 1.30982 0.876444 0
M  V30 2854 C 273.195 1.23373 1.66715 0
M  V30 2855 C 273.62 -0.19885 1.87046 0
M  V30 2856 O 272.978 -1.1427 1.40756 0
M  V30 2857 C 273.026 1.97644 3.01611 0
M  V30 2858 O 272.13 1.30935 3.91062 0
M  V30 2859 H 271.471 0.426279 0.509099 0
M  V30 2860 H 274.001 1.72944 1.09323 0
M  V30 2861 H 274.011 2.06992 3.51594 0
M  V30 2862 H 272.686 3.01829 2.86133 0
M  V30 2863 H 271.263 1.29996 3.49507 0
M  V30 2864 N 273.449 -1.08991 1.13837 0
M  V30 2865 C 274.695 -1.81526 0.90422 0
M  V30 2866 C 275.028 -1.85706 -0.568066 0
M  V30 2867 O 274.303 -1.32855 -1.42056 0
M  V30 2868 C 274.586 -3.27447 1.49835 0
M  V30 2869 C 274.439 -3.31512 3.04006 0
M  V30 2870 C 275.758 -4.24256 1.17025 0
M  V30 2871 H 272.877 -0.659029 0.329923 0
M  V30 2872 H 275.519 -1.27644 1.40737 0
M  V30 2873 H 273.669 -3.73462 1.07044 0
M  V30 2874 H 275.341 -2.93867 3.55584 0
M  V30 2875 H 273.584 -2.70963 3.38765 0
M  V30 2876 H 274.255 -4.34329 3.40679 0
M  V30 2877 H 276.731 -3.86549 1.54009 0
M  V30 2878 H 275.607 -5.24684 1.61237 0
M  V30 2879 H 275.868 -4.42019 0.0846274 0
M  V30 2880 N 274.927 -0.932562 -1.27047 0
M  V30 2881 C 275.89 -0.440064 -2.24936 0
M  V30 2882 C 276.89 0.444071 -1.54547 0
M  V30 2883 O 278.08 0.244465 -1.72476 0
M  V30 2884 C 275.212 0.36678 -3.38921 0
M  V30 2885 H 276.405 -1.305 -2.70018 0
M  V30 2886 H 273.958 -0.713707 -1.39054 0
M  V30 2887 H 274.693 1.25033 -2.99228 0
M  V30 2888 H 274.478 -0.267204 -3.91188 0
M  V30 2889 H 275.968 0.701567 -4.11665 0
M  V30 2890 N 276.405 1.4127 -0.698611 0
M  V30 2891 C 277.651 2.01478 -0.231207 0
M  V30 2892 C 277.984 1.55215 1.16713 0
M  V30 2893 O 277.259 0.764672 1.78838 0
M  V30 2894 C 277.542 3.58912 -0.292281 0
M  V30 2895 C 277.395 4.15293 -1.72778 0
M  V30 2896 C 278.714 4.38736 0.346194 0
M  V30 2897 H 275.833 0.732025 -0.0854878 0
M  V30 2898 H 278.475 1.67977 -0.887906 0
M  V30 2899 H 276.625 3.87582 0.26686 0
M  V30 2900 H 278.297 3.97486 -2.341 0
M  V30 2901 H 276.54 3.7022 -2.26096 0
M  V30 2902 H 277.211 5.24452 -1.72202 0
M  V30 2903 H 279.687 4.15897 -0.130035 0
M  V30 2904 H 278.563 5.48221 0.272932 0
M  V30 2905 H 278.824 4.18425 1.42734 0
M  V30 2906 N 277.883 0.443576 1.51229 0
M  V30 2907 C 279.132 -0.122332 2.01329 0
M  V30 2908 C 279.445 -1.43237 1.33201 0
M  V30 2909 O 280.651 -2.0816 1.74304 0
M  V30 2910 C 279.107 -0.268551 3.58897 0
M  V30 2911 C 278.715 1.03142 4.35965 0
M  V30 2912 C 280.459 -0.787894 4.17124 0
M  V30 2913 C 278.366 0.850504 5.85252 0
M  V30 2914 H 277.296 -0.0494929 0.752374 0
M  V30 2915 H 279.947 0.574289 1.74282 0
M  V30 2916 H 278.329 -1.02832 3.82415 0
M  V30 2917 H 279.503 1.80001 4.24189 0
M  V30 2918 H 277.818 1.47977 3.89219 0
M  V30 2919 H 280.415 -0.939841 5.26375 0
M  V30 2920 H 280.758 -1.77201 3.76703 0
M  V30 2921 H 281.291 -0.0862669 3.97706 0
M  V30 2922 H 278.03 1.80718 6.30096 0
M  V30 2923 H 277.55 0.121825 5.99676 0
M  V30 2924 H 279.229 0.506163 6.45017 0
M  V30 2925 N 279.361 -1.56624 0.175154 0
M  V30 2926 C 280.324 -2.16934 -0.739738 0
M  V30 2927 C 281.324 -1.11842 -1.15533 0
M  V30 2928 O 282.514 -1.37335 -1.07167 0
M  V30 2929 C 279.646 -2.75531 -2.00738 0
M  V30 2930 H 280.839 -2.99131 -0.214639 0
M  V30 2931 H 278.392 -1.56123 -0.0744197 0
M  V30 2932 H 279.127 -1.97078 -2.57548 0
M  V30 2933 H 278.912 -3.52444 -1.71831 0
M  V30 2934 H 280.402 -3.21904 -2.66021 0
M  V30 2935 N 280.839 0.0985539 -1.57292 0
M  V30 2936 C 281.802 1.10402 -2.00858 0
M  V30 2937 C 282.802 1.33146 -0.901593 0
M  V30 2938 O 283.992 1.29318 -1.16716 0
M  V30 2939 C 281.124 2.45394 -2.36632 0
M  V30 2940 H 282.317 0.729099 -2.90902 0
M  V30 2941 H 279.87 0.343495 -1.52479 0
M  V30 2942 H 280.605 2.87769 -1.49531 0
M  V30 2943 H 280.39 2.30235 -3.17387 0
M  V30 2944 H 281.88 3.17718 -2.71007 0
M  V30 2945 N 282.317 1.53212 0.369288 0
M  V30 2946 C 283.565 1.68881 1.11012 0
M  V30 2947 C 283.886 0.441285 1.89941 0
M  V30 2948 O 283.156 -0.544623 1.88177 0
M  V30 2949 H 281.736 0.622569 0.412816 0
M  V30 2950 H 284.398 1.90391 0.416802 0
M  V30 2951 H 283.494 2.54822 1.80201 0
M  V30 2952 N 283.795 -0.628877 1.44509 0
M  V30 2953 C 285.023 -1.41554 1.50897 0
M  V30 2954 C 285.438 -1.8832 0.134564 0
M  V30 2955 O 284.795 -1.60969 -0.859965 0
M  V30 2956 C 284.846 -2.63435 2.47556 0
M  V30 2957 O 284.567 -2.18619 3.79654 0
M  V30 2958 C 286.068 -3.56537 2.63431 0
M  V30 2959 H 283.288 -0.434044 0.511709 0
M  V30 2960 H 285.832 -0.768895 1.89495 0
M  V30 2961 H 283.987 -3.24187 2.12089 0
M  V30 2962 H 284.401 -2.97652 4.31861 0
M  V30 2963 H 285.875 -4.38657 3.35088 0
M  V30 2964 H 286.352 -4.05493 1.68738 0
M  V30 2965 H 286.958 -3.01653 2.9981 0
M  V30 2966 N 285.273 -1.31445 -0.869486 0
M  V30 2967 C 286.205 -1.14955 -1.98287 0
M  V30 2968 C 287.218 -0.0885037 -1.62559 0
M  V30 2969 O 288.407 -0.336044 -1.75308 0
M  V30 2970 C 285.507 -0.734255 -3.3085 0
M  V30 2971 C 284.68 -1.88042 -3.94917 0
M  V30 2972 C 283.739 -1.4511 -5.05796 0
M  V30 2973 O 282.765 -2.16082 -5.2659 0
M  V30 2974 N 283.967 -0.338763 -5.79511 0
M  V30 2975 H 286.732 -2.10856 -2.12979 0
M  V30 2976 H 284.293 -1.23786 -1.04349 0
M  V30 2977 H 286.285 -0.42975 -4.02412 0
M  V30 2978 H 284.855 0.133158 -3.12316 0
M  V30 2979 H 284.075 -2.35222 -3.1633 0
M  V30 2980 H 285.363 -2.6481 -4.34457 0
M  V30 2981 H 284.761 0.252274 -5.65137 0
M  V30 2982 H 283.318 -0.0937925 -6.51733 0
M  V30 2983 N 286.751 1.08385 -1.14413 0
M  V30 2984 C 287.999 1.80419 -0.910679 0
M  V30 2985 C 288.32 1.86658 0.564243 0
M  V30 2986 O 287.59 1.35985 1.41014 0
M  V30 2987 H 286.17 0.668204 -0.333934 0
M  V30 2988 H 288.832 1.31037 -1.44275 0
M  V30 2989 H 287.928 2.83238 -1.31082 0
M  V30 2990 N 288.23 0.939286 1.26551 0
M  V30 2991 C 289.178 0.43815 2.28436 0
M  V30 2992 C 290.172 -0.483587 1.62351 0
M  V30 2993 O 291.378 -0.362009 1.76322 0
M  V30 2994 H 287.753 0.123149 0.741848 0
M  V30 2995 H 289.724 1.31002 2.68106 0
M  V30 2996 C 288.473 -0.283052 3.46546 0
M  V30 2997 H 287.796 0.417043 3.97619 0
M  V30 2998 H 289.236 -0.597948 4.19763 0
M  V30 2999 C 287.695 -1.50018 3.01656 0
M  V30 3000 O 288.225 -2.59855 3.0633 0
M  V30 3001 N 286.431 -1.35608 2.57019 0
M  V30 3002 H 285.978 -0.46244 2.53415 0
M  V30 3003 H 285.936 -2.17165 2.27347 0
M  V30 3004 N 289.708 -1.40897 0.706093 0
M  V30 3005 C 290.957 -2.00284 0.238574 0
M  V30 3006 C 291.27 -1.56604 -1.17194 0
M  V30 3007 O 292.476 -2.08624 -1.73748 0
M  V30 3008 C 290.932 -3.57934 0.375623 0
M  V30 3009 C 290.54 -4.10591 1.79217 0
M  V30 3010 C 292.284 -4.24488 -0.0315857 0
M  V30 3011 C 290.191 -5.60712 1.88032 0
M  V30 3012 H 289.121 -0.749144 0.0854398 0
M  V30 3013 H 291.772 -1.61251 0.875813 0
M  V30 3014 H 290.154 -3.94622 -0.330042 0
M  V30 3015 H 291.328 -3.85301 2.52745 0
M  V30 3016 H 289.643 -3.56601 2.15 0
M  V30 3017 H 292.24 -5.34698 0.0136842 0
M  V30 3018 H 292.583 -4.02261 -1.072 0
M  V30 3019 H 293.116 -3.92873 0.624181 0
M  V30 3020 H 289.855 -5.87781 2.90161 0
M  V30 3021 H 289.375 -5.87896 1.18903 0
M  V30 3022 H 291.054 -6.25658 1.64805 0
M  V30 3023 N 291.186 -0.45159 -1.50991 0
M  V30 3024 C 292.433 0.110074 -2.02201 0
M  V30 3025 C 292.761 1.4146 -1.33489 0
M  V30 3026 O 292.016 1.90617 -0.443125 0
M  V30 3027 C 292.315 0.361728 -3.55565 0
M  V30 3028 C 291.981 -0.858717 -4.42648 0
M  V30 3029 C 290.643 -1.19338 -4.66167 0
M  V30 3030 C 292.995 -1.67221 -4.93646 0
M  V30 3031 C 290.323 -2.34195 -5.37931 0
M  V30 3032 C 292.675 -2.8119 -5.6667 0
M  V30 3033 C 291.339 -3.15094 -5.88449 0
M  V30 3034 H 290.609 0.040279 -0.739904 0
M  V30 3035 H 293.256 -0.601696 -1.81802 0
M  V30 3036 H 291.561 1.15554 -3.74372 0
M  V30 3037 H 293.258 0.80996 -3.92735 0
M  V30 3038 H 289.848 -0.58796 -4.24548 0
M  V30 3039 H 294.032 -1.42686 -4.75347 0
M  V30 3040 H 289.288 -2.6076 -5.53005 0
M  V30 3041 H 293.462 -3.44585 -6.05173 0
M  V30 3042 H 291.089 -4.04204 -6.43835 0
M  V30 3043 N 292.664 1.56529 -0.183458 0
M  V30 3044 C 293.627 2.17324 0.728223 0
M  V30 3045 C 294.627 1.12453 1.14939 0
M  V30 3046 O 295.817 1.37902 1.06437 0
M  V30 3047 C 292.949 2.76591 1.99274 0
M  V30 3048 H 294.142 2.99241 0.198772 0
M  V30 3049 H 291.695 1.5616 0.0661391 0
M  V30 3050 H 292.43 1.98441 2.56499 0
M  V30 3051 H 292.215 3.5335 1.69959 0
M  V30 3052 H 293.705 3.23311 2.6431 0
M  V30 3053 N 294.142 -0.090211 1.57342 0
M  V30 3054 C 295.37 -0.806224 1.90546 0
M  V30 3055 C 295.785 -1.72041 0.777644 0
M  V30 3056 O 295.142 -1.80778 -0.250103 0
M  V30 3057 C 295.193 -1.61546 3.23396 0
M  V30 3058 O 294.914 -0.738043 4.31839 0
M  V30 3059 C 296.415 -2.4341 3.70495 0
M  V30 3060 H 293.635 -0.230256 0.630257 0
M  V30 3061 H 296.179 -0.0659843 2.04394 0
M  V30 3062 H 294.334 -2.30816 3.11131 0
M  V30 3063 H 294.748 -1.29901 5.08159 0
M  V30 3064 H 296.222 -2.95676 4.66133 0
M  V30 3065 H 296.699 -3.22098 2.98579 0
M  V30 3066 H 297.305 -1.79331 3.85643 0
M  V30 3067 N 295.62 -1.53406 -0.361157 0
M  V30 3068 C 296.845 -1.74024 -1.12829 0
M  V30 3069 C 297.27 -0.470069 -1.82132 0
M  V30 3070 O 296.628 0.57619 -1.719 0
M  V30 3071 C 296.676 -2.90903 -2.13091 0
M  V30 3072 O 295.78 -2.59821 -3.20261 0
M  V30 3073 H 295.121 -0.577804 -0.327168 0
M  V30 3074 H 297.651 -2.00307 -0.41693 0
M  V30 3075 H 297.661 -3.17194 -2.56616 0
M  V30 3076 H 296.336 -3.83034 -1.62042 0
M  V30 3077 H 294.913 -2.44362 -2.81677 0
M  V30 3078 N 297.098 0.621204 -1.44841 0
M  V30 3079 C 298.061 1.71459 -1.521 0
M  V30 3080 C 299.061 1.55696 -0.401933 0
M  V30 3081 O 300.251 1.61011 -0.664925 0
M  V30 3082 C 297.383 3.10624 -1.40447 0
M  V30 3083 H 298.576 1.66394 -2.49506 0
M  V30 3084 H 296.129 0.835745 -1.3208 0
M  V30 3085 H 296.864 3.21277 -0.441737 0
M  V30 3086 H 296.649 3.23473 -2.21602 0
M  V30 3087 H 298.139 3.90293 -1.4853 0
M  V30 3088 N 298.576 1.31904 0.862503 0
M  V30 3089 C 299.506 1.22782 1.98612 0
M  V30 3090 C 300.487 0.113362 1.69722 0
M  V30 3091 O 301.672 0.299218 1.91881 0
M  V30 3092 C 298.802 0.942058 3.34279 0
M  V30 3093 C 297.756 2.0169 3.77499 0
M  V30 3094 C 297.082 1.58369 5.10709 0
M  V30 3095 C 298.382 3.43096 3.93805 0
M  V30 3096 H 300.076 2.16788 2.06502 0
M  V30 3097 H 297.622 1.04366 0.992154 0
M  V30 3098 H 299.575 0.864818 4.1243 0
M  V30 3099 H 298.299 -0.0336603 3.26583 0
M  V30 3100 H 296.958 2.08416 3.01593 0
M  V30 3101 H 296.606 0.595628 4.99461 0
M  V30 3102 H 296.306 2.30279 5.40597 0
M  V30 3103 H 297.83 1.52067 5.91361 0
M  V30 3104 H 299.244 3.39003 4.62331 0
M  V30 3105 H 297.641 4.13288 4.35101 0
M  V30 3106 H 298.711 3.83334 2.96957 0
M  V30 3107 N 300.054 -1.07777 1.14986 0
M  V30 3108 C 301.47 -1.32373 0.891596 0
M  V30 3109 C 301.67 -1.9609 -0.463788 0
M  V30 3110 O 300.726 -2.21801 -1.20667 0
M  V30 3111 C 302.039 -2.21905 2.02925 0
M  V30 3112 C 303.587 -2.35367 2.06329 0
M  V30 3113 C 304.062 -3.28245 3.19405 0
M  V30 3114 N 305.553 -3.35824 3.19024 0
M  V30 3115 C 306.288 -4.07739 4.03158 0
M  V30 3116 N 305.784 -4.82306 4.97346 0
M  V30 3117 N 307.577 -4.03635 3.91197 0
M  V30 3118 H 299.728 -0.648039 2.02273 0
M  V30 3119 H 301.991 -0.348149 0.881757 0
M  V30 3120 H 301.697 -1.82342 3.0074 0
M  V30 3121 H 301.571 -3.22407 1.95789 0
M  V30 3122 H 303.958 -2.74186 1.09116 0
M  V30 3123 H 304.039 -1.34585 2.17533 0
M  V30 3124 H 303.683 -2.90146 4.16867 0
M  V30 3125 H 303.613 -4.28971 3.05437 0
M  V30 3126 H 306.104 -2.8267 2.50811 0
M  V30 3127 H 306.417 -5.34661 5.57994 0
M  V30 3128 H 304.762 -4.81337 5.01338 0
M  V30 3129 H 307.953 -3.44491 3.16928 0
M  V30 3130 H 308.126 -4.59417 4.5699 0
M  V30 3131 N 301.532 -0.945985 -1.26051 0
M  V30 3132 C 302.757 -0.612525 -1.98149 0
M  V30 3133 C 303.182 0.806623 -1.69927 0
M  V30 3134 O 302.54 1.54411 -0.950108 0
M  V30 3135 C 302.588 -0.866981 -3.50023 0
M  V30 3136 O 301.692 0.0585333 -4.12358 0
M  V30 3137 H 301.033 -0.23379 -0.621481 0
M  V30 3138 H 303.563 -1.27023 -1.60395 0
M  V30 3139 H 303.573 -0.789792 -4.00283 0
M  V30 3140 H 302.248 -1.90135 -3.69894 0
M  V30 3141 H 300.825 -0.0701241 -3.72834 0
M  V30 3142 N 303.011 1.40521 -0.713556 0
M  V30 3143 C 303.944 2.28198 -0.00881422 0
M  V30 3144 C 304.922 1.43227 0.769735 0
M  V30 3145 O 306.106 1.72641 0.756799 0
M  V30 3146 C 303.233 3.23758 0.994899 0
M  V30 3147 C 302.279 4.25391 0.3074 0
M  V30 3148 S 303.112 5.26765 -0.963247 0
M  V30 3149 C 304.268 6.25888 0.0384143 0
M  V30 3150 H 304.501 2.87622 -0.752407 0
M  V30 3151 H 302.034 1.45925 -0.504502 0
M  V30 3152 H 303.992 3.79341 1.56879 0
M  V30 3153 H 302.653 2.63396 1.71118 0
M  V30 3154 H 301.846 4.92596 1.0661 0
M  V30 3155 H 301.448 3.73497 -0.193879 0
M  V30 3156 H 303.74 6.71683 0.885912 0
M  V30 3157 H 304.683 7.05552 -0.60019 0
M  V30 3158 H 305.091 5.63072 0.401233 0
M  V30 3159 N 304.489 0.459591 1.5075 0
M  V30 3160 C 305.905 0.113092 1.59199 0
M  V30 3161 C 306.105 -1.37951 1.46874 0
M  V30 3162 O 305.161 -2.15168 1.32132 0
M  V30 3163 C 306.474 0.653043 2.93523 0
M  V30 3164 C 308.022 0.615449 3.0689 0
M  V30 3165 C 308.497 1.13275 4.43771 0
M  V30 3166 N 309.988 1.09167 4.50152 0
M  V30 3167 C 310.723 1.46256 5.54434 0
M  V30 3168 N 310.219 1.90739 6.66026 0
M  V30 3169 N 312.012 1.37932 5.44914 0
M  V30 3170 H 304.163 1.43049 1.57005 0
M  V30 3171 H 306.426 0.590861 0.741341 0
M  V30 3172 H 306.132 1.69822 3.07983 0
M  V30 3173 H 306.006 0.0902132 3.77092 0
M  V30 3174 H 308.393 -0.420793 2.92084 0
M  V30 3175 H 308.474 1.21495 2.25106 0
M  V30 3176 H 308.118 2.16757 4.59324 0
M  V30 3177 H 308.048 0.509576 5.24129 0
M  V30 3178 H 310.539 0.76528 3.7007 0
M  V30 3179 H 310.852 2.17218 7.41644 0
M  V30 3180 H 309.197 1.94683 6.67176 0
M  V30 3181 H 312.388 1.0303 4.56621 0
M  V30 3182 H 312.561 1.67164 6.26067 0
M  V30 3183 N 305.967 -1.56429 0.191757 0
M  V30 3184 C 307.214 -1.97485 -0.447891 0
M  V30 3185 C 307.542 -1.07852 -1.61859 0
M  V30 3186 O 306.797 -0.116903 -1.95351 0
M  V30 3187 C 307.096 -3.44449 -0.953384 0
M  V30 3188 C 306.762 -4.50781 0.103586 0
M  V30 3189 C 305.424 -4.79584 0.394023 0
M  V30 3190 C 307.776 -5.1471 0.819946 0
M  V30 3191 C 305.104 -5.69607 1.40585 0
M  V30 3192 C 307.456 -6.05827 1.8209 0
M  V30 3193 C 306.12 -6.32987 2.11857 0
M  V30 3194 H 305.39 -0.722648 -0.163895 0
M  V30 3195 H 308.037 -1.89322 0.28802 0
M  V30 3196 H 306.342 -3.49666 -1.76751 0
M  V30 3197 H 308.039 -3.73569 -1.45765 0
M  V30 3198 H 304.629 -4.28394 -0.132951 0
M  V30 3199 H 308.813 -4.92552 0.608789 0
M  V30 3200 H 304.069 -5.88926 1.64243 0
M  V30 3201 H 308.243 -6.54424 2.38123 0
M  V30 3202 H 305.87 -7.02544 2.90407 0
M  V30 3203 N 307.445 0.0818655 -1.57387 0
M  V30 3204 C 308.375 1.09885 -2.06028 0
M  V30 3205 C 309.356 1.4098 -0.951774 0
M  V30 3206 O 310.541 1.50781 -1.22387 0
M  V30 3207 C 307.671 2.4151 -2.4958 0
M  V30 3208 C 306.625 2.24792 -3.64215 0
M  V30 3209 C 305.951 3.61712 -3.93787 0
M  V30 3210 C 307.251 1.67749 -4.94629 0
M  V30 3211 H 308.945 0.694128 -2.91243 0
M  V30 3212 H 306.491 0.332448 -1.4011 0
M  V30 3213 H 308.444 3.12939 -2.82219 0
M  V30 3214 H 307.168 2.83943 -1.61381 0
M  V30 3215 H 305.827 1.55807 -3.31843 0
M  V30 3216 H 305.475 4.01697 -3.02735 0
M  V30 3217 H 305.175 3.51368 -4.70971 0
M  V30 3218 H 306.699 4.34587 -4.28913 0
M  V30 3219 H 308.113 2.29032 -5.25564 0
M  V30 3220 H 306.51 1.68128 -5.76067 0
M  V30 3221 H 307.58 0.638059 -4.80684 0
M  V30 3222 N 308.923 1.53595 0.353017 0
M  V30 3223 C 309.855 1.77219 1.45348 0
M  V30 3224 C 310.868 0.65324 1.49119 0
M  V30 3225 O 312.057 0.929775 1.52373 0
M  V30 3226 C 309.157 1.84841 2.84055 0
M  V30 3227 C 308.33 3.14649 3.03833 0
M  V30 3228 C 307.389 3.13351 4.22727 0
M  V30 3229 O 306.415 3.87107 4.17297 0
M  V30 3230 N 307.617 2.35052 5.30783 0
M  V30 3231 H 310.382 2.72178 1.25457 0
M  V30 3232 H 307.943 1.52528 0.542833 0
M  V30 3233 H 309.935 1.81435 3.61751 0
M  V30 3234 H 308.505 0.971114 2.97133 0
M  V30 3235 H 307.725 3.31256 2.13689 0
M  V30 3236 H 309.013 4.00411 3.13925 0
M  V30 3237 H 308.411 1.74663 5.38061 0
M  V30 3238 H 306.968 2.37453 6.07009 0
M  V30 3239 N 310.401 -0.613514 1.45168 0
M  V30 3240 C 311.65 -1.36874 1.4815 0
M  V30 3241 C 311.963 -1.952 0.124982 0
M  V30 3242 O 313.169 -2.71481 0.0324176 0
M  V30 3243 C 311.625 -2.47905 2.60904 0
M  V30 3244 C 311.233 -1.96016 4.02842 0
M  V30 3245 C 312.977 -3.24965 2.73126 0
M  V30 3246 C 310.884 -3.04494 5.06988 0
M  V30 3247 H 309.814 -0.514428 0.551253 0
M  V30 3248 H 312.465 -0.658182 1.7129 0
M  V30 3249 H 310.847 -3.21618 2.31037 0
M  V30 3250 H 312.021 -1.29051 4.4236 0
M  V30 3251 H 310.336 -1.31719 3.95018 0
M  V30 3252 H 312.933 -4.05865 3.48106 0
M  V30 3253 H 313.276 -3.75588 1.79553 0
M  V30 3254 H 313.809 -2.5835 3.0249 0
M  V30 3255 H 310.548 -2.58795 6.0225 0
M  V30 3256 H 310.068 -3.70044 4.72046 0
M  V30 3257 H 311.747 -3.68976 5.31475 0
M  V30 3258 N 311.879 -1.3236 -0.855495 0
M  V30 3259 C 312.809 -1.23833 -1.97958 0
M  V30 3260 C 313.79 -0.122361 -1.69659 0
M  V30 3261 O 314.975 -0.30939 -1.9172 0
M  V30 3262 C 312.105 -0.959772 -3.33775 0
M  V30 3263 C 311.059 -2.03689 -3.76424 0
M  V30 3264 C 310.385 -1.61075 -5.09862 0
M  V30 3265 C 311.685 -3.4518 -3.9198 0
M  V30 3266 H 313.379 -2.1788 -2.0535 0
M  V30 3267 H 310.925 -1.04891 -0.986605 0
M  V30 3268 H 312.878 -0.886678 -4.11966 0
M  V30 3269 H 311.602 0.0163404 -3.26596 0
M  V30 3270 H 310.261 -2.10012 -3.00484 0
M  V30 3271 H 309.909 -0.622107 -4.99138 0
M  V30 3272 H 309.609 -2.33143 -5.39368 0
M  V30 3273 H 311.133 -1.55201 -5.90546 0
M  V30 3274 H 312.547 -3.4145 -4.60526 0
M  V30 3275 H 310.944 -4.1559 -4.32903 0
M  V30 3276 H 312.014 -3.84903 -2.94919 0
M  V30 3277 N 313.357 1.07166 -1.15556 0
M  V30 3278 C 314.773 1.31899 -0.898603 0
M  V30 3279 C 314.973 1.96333 0.453383 0
M  V30 3280 O 314.029 2.22438 1.19489 0
M  V30 3281 C 315.342 2.20826 -2.04099 0
M  V30 3282 C 316.89 2.34269 -2.07574 0
M  V30 3283 C 317.365 3.26546 -3.21141 0
M  V30 3284 N 318.856 3.34127 -3.20801 0
M  V30 3285 C 319.591 4.05595 -4.05315 0
M  V30 3286 N 319.087 4.79661 -4.99897 0
M  V30 3287 N 320.88 4.01555 -3.93332 0
M  V30 3288 H 313.031 0.637302 -2.02613 0
M  V30 3289 H 315.294 0.343468 -0.883591 0
M  V30 3290 H 315 1.80744 -3.01703 0
M  V30 3291 H 314.874 3.21364 -1.97496 0
M  V30 3292 H 317.261 2.73603 -1.10568 0
M  V30 3293 H 317.342 1.33429 -2.18244 0
M  V30 3294 H 316.986 2.87931 -4.184 0
M  V30 3295 H 316.916 4.27345 -3.07708 0
M  V30 3296 H 319.407 2.81336 -2.52306 0
M  V30 3297 H 319.72 5.31694 -5.60822 0
M  V30 3298 H 318.065 4.78671 -5.03884 0
M  V30 3299 H 321.256 3.42806 -3.18751 0
M  V30 3300 H 321.429 4.56987 -4.5942 0
M  V30 3301 N 314.835 0.952656 1.25548 0
M  V30 3302 C 315.768 0.415525 2.24385 0
M  V30 3303 C 316.746 -0.502046 1.54655 0
M  V30 3304 O 317.93 -0.436875 1.83368 0
M  V30 3305 C 315.057 -0.401734 3.36309 0
M  V30 3306 C 314.103 0.455949 4.24056 0
M  V30 3307 S 314.936 1.88698 5.01152 0
M  V30 3308 C 316.092 1.07809 6.16545 0
M  V30 3309 H 316.325 1.25315 2.69599 0
M  V30 3310 H 313.858 0.756587 1.34592 0
M  V30 3311 H 315.816 -0.867329 4.01233 0
M  V30 3312 H 314.477 -1.21416 2.89684 0
M  V30 3313 H 313.67 -0.170776 5.03711 0
M  V30 3314 H 313.272 0.856675 3.64056 0
M  V30 3315 H 315.564 0.325816 6.76716 0
M  V30 3316 H 316.507 1.84849 6.83547 0
M  V30 3317 H 316.915 0.60909 5.61204 0
M  V30 3318 N 316.313 -1.40141 0.720998 0
M  V30 3319 C 317.559 -2.01084 0.263231 0
M  V30 3320 C 317.892 -1.57052 -1.14229 0
M  V30 3321 O 317.167 -0.793027 -1.77599 0
M  V30 3322 C 317.45 -3.58401 0.349344 0
M  V30 3323 C 317.303 -4.12491 1.79363 0
M  V30 3324 C 318.622 -4.39231 -0.276351 0
M  V30 3325 H 315.741 -0.730572 0.0971228 0
M  V30 3326 H 318.383 -1.66543 0.914518 0
M  V30 3327 H 316.533 -3.87958 -0.205165 0
M  V30 3328 H 318.205 -3.93711 2.40394 0
M  V30 3329 H 316.448 -3.66576 2.31958 0
M  V30 3330 H 317.119 -5.21646 1.80524 0
M  V30 3331 H 319.595 -4.15637 0.196184 0
M  V30 3332 H 318.471 -5.48586 -0.185681 0
M  V30 3333 H 318.732 -4.20643 -1.36059 0
M  V30 3334 N 317.792 -0.46758 -1.50504 0
M  V30 3335 C 319.208 -0.121533 -1.59137 0
M  V30 3336 C 319.408 1.3717 -1.47603 0
M  V30 3337 O 318.464 2.14464 -1.33272 0
M  V30 3338 C 319.777 -0.6686 -2.93173 0
M  V30 3339 C 321.325 -0.631716 -3.06559 0
M  V30 3340 C 321.8 -1.15627 -4.43164 0
M  V30 3341 N 323.291 -1.11553 -4.49567 0
M  V30 3342 C 324.026 -1.49195 -5.5365 0
M  V30 3343 N 323.522 -1.94269 -6.65005 0
M  V30 3344 N 325.315 -1.4082 -5.44175 0
M  V30 3345 H 317.466 -1.4388 -1.56245 0
M  V30 3346 H 319.729 -0.594784 -0.738198 0
M  V30 3347 H 319.435 -1.71453 -3.07078 0
M  V30 3348 H 319.309 -0.11021 -3.77039 0
M  V30 3349 H 321.696 0.405297 -2.92304 0
M  V30 3350 H 321.777 -1.22687 -2.24458 0
M  V30 3351 H 321.421 -2.1919 -4.58168 0
M  V30 3352 H 321.351 -0.537365 -5.23851 0
M  V30 3353 H 323.842 -0.784895 -3.69659 0
M  V30 3354 H 324.155 -2.21148 -7.40482 0
M  V30 3355 H 322.5 -1.98219 -6.66134 0
M  V30 3356 H 325.691 -1.0545 -4.56068 0
M  V30 3357 H 325.864 -1.70481 -6.25172 0
M  V30 3358 N 319.27 1.56325 -0.20005 0
M  V30 3359 C 320.203 2.15234 0.758267 0
M  V30 3360 C 321.181 1.09046 1.20614 0
M  V30 3361 O 322.365 1.37186 1.29276 0
M  V30 3362 C 319.492 2.71524 2.02466 0
M  V30 3363 C 318.538 3.90345 1.71852 0
M  V30 3364 S 319.371 5.28513 0.862249 0
M  V30 3365 C 320.527 5.88227 2.13868 0
M  V30 3366 H 320.76 2.96183 0.2575 0
M  V30 3367 H 318.293 1.54393 0.0150099 0
M  V30 3368 H 320.251 3.04598 2.75191 0
M  V30 3369 H 318.912 1.90607 2.49655 0
M  V30 3370 H 318.105 4.28158 2.65888 0
M  V30 3371 H 317.707 3.58306 1.07205 0
M  V30 3372 H 319.999 6.02891 3.09076 0
M  V30 3373 H 320.942 6.84714 1.80479 0
M  V30 3374 H 321.35 5.16874 2.2694 0
M  V30 3375 N 320.748 -0.0735177 1.57428 0
M  V30 3376 C 322.025 -0.805903 1.78226 0
M  V30 3377 C 322.405 -1.95874 0.787189 0
M  V30 3378 O 321.753 -2.2779 -0.180029 0
M  V30 3379 C 321.963 -1.28045 3.24662 0
M  V30 3380 C 323.311 -1.71453 3.88444 0
M  V30 3381 O 324.335 -1.37616 3.28543 0
M  V30 3382 O 323.194 -2.34093 4.93825 0
M  V30 3383 H 320.288 -0.386041 0.73137 0
M  V30 3384 H 322.834 -0.0537269 1.69615 0
M  V30 3385 H 321.606 -0.455476 3.8864 0
M  V30 3386 H 321.229 -2.094 3.37991 0
M  V30 3387 N 322.226 -1.5378 -0.344866 0
M  V30 3388 C 323.642 -1.44015 -0.687888 0
M  V30 3389 C 323.842 -0.595834 -1.92489 0
M  V30 3390 O 322.898 -0.0863064 -2.52352 0
M  V30 3391 C 324.211 -2.87481 -0.881758 0
M  V30 3392 C 325.759 -2.97247 -0.980459 0
M  V30 3393 C 326.234 -4.41819 -1.20665 0
M  V30 3394 N 327.725 -4.45339 -1.27389 0
M  V30 3395 C 328.46 -5.54333 -1.46639 0
M  V30 3396 N 327.956 -6.73335 -1.63071 0
M  V30 3397 N 329.749 -5.41944 -1.49176 0
M  V30 3398 H 321.9 -2.07169 0.468475 0
M  V30 3399 H 324.163 -0.93643 0.147655 0
M  V30 3400 H 323.869 -3.51672 -0.0443444 0
M  V30 3401 H 323.743 -3.32352 -1.78388 0
M  V30 3402 H 326.13 -2.33197 -1.8084 0
M  V30 3403 H 326.211 -2.5574 -0.0552713 0
M  V30 3404 H 325.855 -5.06449 -0.383652 0
M  V30 3405 H 325.785 -4.80917 -2.14539 0
M  V30 3406 H 328.276 -3.59585 -1.1622 0
M  V30 3407 H 328.589 -7.52165 -1.77391 0
M  V30 3408 H 326.934 -6.76282 -1.60209 0
M  V30 3409 H 330.125 -4.47932 -1.3592 0
M  V30 3410 H 330.298 -6.26946 -1.63837 0
M  V30 3411 N 323.704 0.605807 -1.45491 0
M  V30 3412 C 325.12 0.926751 -1.29936 0
M  V30 3413 C 325.32 1.99896 -0.253706 0
M  V30 3414 O 324.376 2.50038 0.351737 0
M  V30 3415 C 325.689 1.36599 -2.67883 0
M  V30 3416 C 327.237 1.4801 -2.75793 0
M  V30 3417 C 327.712 1.95309 -4.14268 0
M  V30 3418 N 329.203 2.0254 -4.16571 0
M  V30 3419 C 329.938 2.40363 -5.20589 0
M  V30 3420 N 329.434 2.77143 -6.34952 0
M  V30 3421 N 331.227 2.40718 -5.07948 0
M  V30 3422 H 323.378 -0.102862 -2.12151 0
M  V30 3423 H 325.641 0.016639 -0.947854 0
M  V30 3424 H 325.347 0.652306 -3.45598 0
M  V30 3425 H 325.221 2.33215 -2.96463 0
M  V30 3426 H 327.608 2.1847 -1.98381 0
M  V30 3427 H 327.689 0.497041 -2.50925 0
M  V30 3428 H 327.333 1.25436 -4.92167 0
M  V30 3429 H 327.263 2.94532 -4.3653 0
M  V30 3430 H 329.754 1.76699 -3.34045 0
M  V30 3431 H 330.067 3.0489 -7.10114 0
M  V30 3432 H 328.412 2.74834 -6.3835 0
M  V30 3433 H 331.603 2.11392 -4.1765 0
M  V30 3434 H 331.776 2.69869 -5.89131 0
M  V30 3435 N 325.182 1.32811 0.848464 0
M  V30 3436 C 326.43 1.23479 1.59991 0
M  V30 3437 C 326.751 -0.201853 1.93952 0
M  V30 3438 O 326.021 -1.12818 1.60153 0
M  V30 3439 H 324.601 0.454034 0.593179 0
M  V30 3440 H 327.263 1.66412 1.01455 0
M  V30 3441 H 326.359 1.82178 2.53412 0
M  V30 3442 N 326.66 -1.06551 1.16123 0
M  V30 3443 C 327.908 -1.78947 0.939267 0
M  V30 3444 C 328.229 -1.87532 -0.534476 0
M  V30 3445 O 327.499 -1.38211 -1.38833 0
M  V30 3446 H 326.079 -0.662807 0.344523 0
M  V30 3447 H 328.741 -1.28725 1.46342 0
M  V30 3448 H 327.837 -2.81117 1.35572 0
M  V30 3449 N 328.138 -0.959301 -1.25041 0
M  V30 3450 C 329.366 -0.633949 -1.96948 0
M  V30 3451 C 329.781 0.794916 -1.7125 0
M  V30 3452 O 329.138 1.53231 -0.991287 0
M  V30 3453 C 329.189 -0.888805 -3.50403 0
M  V30 3454 O 328.91 -2.26149 -3.75218 0
M  V30 3455 C 330.411 -0.576482 -4.39536 0
M  V30 3456 H 327.631 -0.237263 -0.627652 0
M  V30 3457 H 330.175 -1.28495 -1.59089 0
M  V30 3458 H 328.33 -0.284145 -3.86357 0
M  V30 3459 H 328.744 -2.33514 -4.6965 0
M  V30 3460 H 330.218 -0.805314 -5.46094 0
M  V30 3461 H 330.695 0.489075 -4.36468 0
M  V30 3462 H 331.301 -1.16067 -4.09156 0
M  V30 3463 N 329.616 1.39756 -0.72842 0
M  V30 3464 C 330.862 2.01425 -0.282761 0
M  V30 3465 C 331.217 1.56754 1.11561 0
M  V30 3466 O 330.51 0.783482 1.74849 0
M  V30 3467 C 330.704 3.56002 -0.315776 0
M  V30 3468 C 330.533 4.1568 -1.71582 0
M  V30 3469 C 329.303 4.48555 -2.32651 0
M  V30 3470 C 331.501 4.39667 -2.66829 0
M  V30 3471 N 329.483 4.93698 -3.64877 0
M  V30 3472 C 330.854 4.86942 -3.8378 0
M  V30 3473 C 332.909 4.21724 -2.64675 0
M  V30 3474 C 331.612 5.18158 -4.98904 0
M  V30 3475 C 333.638 4.54049 -3.78937 0
M  V30 3476 C 333 5.01525 -4.94623 0
M  V30 3477 H 329.099 0.76756 -0.149583 0
M  V30 3478 H 331.683 1.69784 -0.952976 0
M  V30 3479 H 329.854 3.87046 0.324057 0
M  V30 3480 H 331.586 4.0443 0.147808 0
M  V30 3481 H 328.341 4.36128 -1.84633 0
M  V30 3482 H 328.765 5.20635 -4.32744 0
M  V30 3483 H 333.407 3.84228 -1.76433 0
M  V30 3484 H 331.125 5.54562 -5.87781 0
M  V30 3485 H 334.711 4.41795 -3.78561 0
M  V30 3486 H 333.591 5.26065 -5.81572 0
M  V30 3487 N 331.094 0.475555 1.50254 0
M  V30 3488 C 332.041 -0.316293 2.28622 0
M  V30 3489 C 333.011 -0.983227 1.33873 0
M  V30 3490 O 334.196 -0.994805 1.62814 0
M  V30 3491 C 331.336 -1.38975 3.1588 0
M  V30 3492 C 330.449 -0.737146 4.25664 0
M  V30 3493 C 329.584 -1.78887 5.00173 0
M  V30 3494 C 328.623 -1.11676 6.01826 0
M  V30 3495 N 327.76 -2.11154 6.69596 0
M  V30 3496 H 332.6 0.358297 2.95838 0
M  V30 3497 H 330.137 0.188541 1.45887 0
M  V30 3498 H 332.095 -2.02383 3.64825 0
M  V30 3499 H 330.725 -2.03344 2.50701 0
M  V30 3500 H 329.777 0.0096065 3.80399 0
M  V30 3501 H 331.089 -0.206816 4.98371 0
M  V30 3502 H 330.243 -2.49865 5.52859 0
M  V30 3503 H 328.982 -2.35302 4.27182 0
M  V30 3504 H 327.987 -0.392633 5.48396 0
M  V30 3505 H 329.212 -0.55945 6.76792 0
M  V30 3506 H 327.158 -2.66577 5.99394 0
M  V30 3507 H 327.075 -1.63118 7.38193 0
M  V30 3508 H 328.343 -2.81497 7.26897 0
M  V30 3509 N 332.573 -1.56217 0.208337 0
M  V30 3510 C 333.503 -2.22694 -0.702116 0
M  V30 3511 C 334.484 -1.19432 -1.2112 0
M  V30 3512 O 335.669 -1.47978 -1.25762 0
M  V30 3513 C 332.799 -2.8966 -1.9161 0
M  V30 3514 C 331.753 -3.9928 -1.5414 0
M  V30 3515 C 331.079 -4.53476 -2.83308 0
M  V30 3516 C 332.379 -5.17012 -0.741339 0
M  V30 3517 H 334.073 -2.99034 -0.147898 0
M  V30 3518 H 331.619 -1.43831 -0.0696951 0
M  V30 3519 H 333.572 -3.34852 -2.55836 0
M  V30 3520 H 332.296 -2.10746 -2.49507 0
M  V30 3521 H 330.955 -3.54799 -0.922668 0
M  V30 3522 H 330.603 -3.71308 -3.39322 0
M  V30 3523 H 330.303 -5.27451 -2.58976 0
M  V30 3524 H 331.827 -5.01378 -3.485 0
M  V30 3525 H 333.241 -5.58667 -1.28699 0
M  V30 3526 H 331.638 -5.97137 -0.595627 0
M  V30 3527 H 332.708 -4.8423 0.254851 0
M  V30 3528 N 334.051 0.0651679 -1.57465 0
M  V30 3529 C 334.981 1.07693 -2.07182 0
M  V30 3530 C 335.962 1.39962 -0.966673 0
M  V30 3531 O 337.147 1.49475 -1.2398 0
M  V30 3532 C 334.277 2.3885 -2.52127 0
M  V30 3533 C 333.231 2.20917 -3.66579 0
M  V30 3534 C 332.557 3.57515 -3.97601 0
M  V30 3535 C 333.857 1.62493 -4.9638 0
M  V30 3536 H 335.551 0.663199 -2.91962 0
M  V30 3537 H 333.097 0.317569 -1.40455 0
M  V30 3538 H 335.05 3.09928 -2.85522 0
M  V30 3539 H 333.774 2.82215 -1.64384 0
M  V30 3540 H 332.433 1.52279 -3.33477 0
M  V30 3541 H 332.081 3.98463 -3.06979 0
M  V30 3542 H 331.781 3.46353 -4.74672 0
M  V30 3543 H 333.305 4.30013 -4.33499 0
M  V30 3544 H 334.719 2.23445 -5.27963 0
M  V30 3545 H 333.116 1.62009 -5.77818 0
M  V30 3546 H 334.186 0.587041 -4.81333 0
M  V30 3547 N 335.529 1.53961 0.336706 0
M  V30 3548 C 336.777 1.71197 1.07405 0
M  V30 3549 C 337.098 0.481475 1.88962 0
M  V30 3550 O 336.368 -0.504585 1.8929 0
M  V30 3551 H 334.948 0.631185 0.399517 0
M  V30 3552 H 337.61 1.91232 0.376323 0
M  V30 3553 H 336.706 2.58587 1.74755 0
M  V30 3554 N 337.007 -0.598083 1.45811 0
M  V30 3555 C 338.232 -1.3881 1.54099 0
M  V30 3556 C 338.657 -1.8726 0.177578 0
M  V30 3557 O 338.015 -1.6069 -0.839541 0
M  V30 3558 C 338.063 -2.56217 2.53743 0
M  V30 3559 O 337.167 -3.5716 2.06182 0
M  V30 3560 H 336.508 -0.414024 0.519115 0
M  V30 3561 H 339.038 -0.726971 1.91249 0
M  V30 3562 H 339.048 -3.03337 2.72856 0
M  V30 3563 H 337.723 -2.20303 3.5276 0
M  V30 3564 H 336.3 -3.16624 1.96987 0
M  V30 3565 N 338.485 -1.33259 -0.841409 0
M  V30 3566 C 339.731 -1.24757 -1.59886 0
M  V30 3567 C 340.064 0.186913 -1.93298 0
M  V30 3568 O 339.339 1.12757 -1.5848 0
M  V30 3569 C 339.622 -2.12036 -2.91055 0
M  V30 3570 C 339.475 -3.63929 -2.6434 0
M  V30 3571 C 340.794 -1.9916 -3.92458 0
M  V30 3572 H 337.913 -0.454542 -0.580138 0
M  V30 3573 H 340.555 -1.63335 -0.970647 0
M  V30 3574 H 338.705 -1.79265 -3.44669 0
M  V30 3575 H 340.377 -4.06978 -2.17178 0
M  V30 3576 H 338.62 -3.85935 -1.98082 0
M  V30 3577 H 339.291 -4.20341 -3.57796 0
M  V30 3578 H 341.767 -2.27895 -3.48143 0
M  V30 3579 H 340.643 -2.62484 -4.82072 0
M  V30 3580 H 340.904 -0.963082 -4.31482 0
M  V30 3581 N 339.963 1.05934 -1.16686 0
M  V30 3582 C 341.209 1.79065 -0.95203 0
M  V30 3583 C 341.542 1.87147 0.518629 0
M  V30 3584 O 340.817 1.36574 1.38484 0
M  V30 3585 C 341.1 3.23359 -1.58464 0
M  V30 3586 C 340.953 3.23336 -3.12689 0
M  V30 3587 C 342.272 4.21004 -1.28232 0
M  V30 3588 H 339.391 0.65005 -0.34728 0
M  V30 3589 H 342.033 1.23868 -1.44072 0
M  V30 3590 H 340.183 3.70493 -1.16908 0
M  V30 3591 H 341.855 2.84336 -3.6325 0
M  V30 3592 H 340.098 2.61886 -3.4583 0
M  V30 3593 H 340.769 4.25144 -3.52075 0
M  V30 3594 H 343.245 3.8233 -1.64203 0
M  V30 3595 H 342.121 5.20225 -1.75092 0
M  V30 3596 H 342.382 4.41639 -0.201791 0
M  V30 3597 N 341.441 0.965919 1.2453 0
M  V30 3598 C 342.671 0.643451 1.96324 0
M  V30 3599 C 343.079 -0.790927 1.71875 0
M  V30 3600 O 342.422 -1.54208 0.998273 0
M  V30 3601 C 342.484 0.836078 3.49643 0
M  V30 3602 C 342.148 2.24975 3.97788 0
M  V30 3603 C 343.145 3.22735 4.07601 0
M  V30 3604 C 340.83 2.57697 4.31158 0
M  V30 3605 C 342.824 4.51303 4.50116 0
M  V30 3606 C 340.511 3.86492 4.73357 0
M  V30 3607 C 341.509 4.83107 4.828 0
M  V30 3608 O 341.197 6.09605 5.24058 0
M  V30 3609 H 340.929 0.239223 0.632257 0
M  V30 3610 H 343.483 1.29587 1.59362 0
M  V30 3611 H 341.713 0.12649 3.86493 0
M  V30 3612 H 343.402 0.512965 4.02646 0
M  V30 3613 H 344.168 2.98783 3.82039 0
M  V30 3614 H 340.047 1.83216 4.23028 0
M  V30 3615 H 343.591 5.26716 4.57401 0
M  V30 3616 H 339.488 4.10245 4.98366 0
M  V30 3617 H 340.256 6.13146 5.42213 0
M  V30 3618 N 342.919 -1.39368 0.735821 0
M  V30 3619 C 343.882 -2.2896 0.104874 0
M  V30 3620 C 344.882 -1.46347 -0.666274 0
M  V30 3621 O 346.072 -1.67014 -0.49517 0
M  V30 3622 C 343.204 -3.29857 -0.860656 0
M  V30 3623 H 344.397 -2.86259 0.894205 0
M  V30 3624 H 341.95 -1.48029 0.501704 0
M  V30 3625 H 342.685 -2.77615 -1.67631 0
M  V30 3626 H 342.47 -3.9087 -0.310327 0
M  V30 3627 H 343.96 -3.96893 -1.29867 0
M  V30 3628 N 344.397 -0.483516 -1.5 0
M  V30 3629 C 345.347 0.32306 -2.257 0
M  V30 3630 C 346.331 0.950755 -1.29805 0
M  V30 3631 O 347.523 0.861247 -1.54634 0
M  V30 3632 C 344.652 1.39724 -3.13579 0
M  V30 3633 C 343.738 0.776663 -4.16928 0
M  V30 3634 N 344.129 -0.1104 -5.0568 0
M  V30 3635 C 342.427 1.03922 -4.33724 0
M  V30 3636 C 343.128 -0.46387 -5.79848 0
M  V30 3637 N 342.104 0.163987 -5.43353 0
M  V30 3638 H 345.906 -0.360086 -2.91686 0
M  V30 3639 H 343.42 -0.298456 -1.59634 0
M  V30 3640 H 345.417 1.98837 -3.66428 0
M  V30 3641 H 344.077 2.08225 -2.49143 0
M  V30 3642 H 345.088 -0.480069 -5.1567 0
M  V30 3643 H 341.765 1.71829 -3.80501 0
M  V30 3644 H 343.155 -1.18854 -6.61304 0
M  V30 3645 N 345.875 1.56104 -0.216619 0
M  V30 3646 C 347.1 2.0301 0.424462 0
M  V30 3647 C 347.525 1.0955 1.52907 0
M  V30 3648 O 346.883 0.0827914 1.81111 0
M  V30 3649 C 346.931 3.4819 0.937883 0
M  V30 3650 O 346.035 3.57865 2.04955 0
M  V30 3651 H 345.376 0.656925 0.0966755 0
M  V30 3652 H 347.906 2.01859 -0.33381 0
M  V30 3653 H 347.916 3.88413 1.24897 0
M  V30 3654 H 346.591 4.15699 0.129387 0
M  V30 3655 H 345.168 3.29527 1.74546 0
M  V30 3656 N 347.353 -0.0568162 1.57498 0
M  V30 3657 C 348.3 -1.06591 2.04712 0
M  V30 3658 C 349.27 -1.3758 0.930644 0
M  V30 3659 O 350.455 -1.48392 1.19935 0
M  V30 3660 C 347.595 -2.3701 2.50839 0
M  V30 3661 C 346.708 -2.12421 3.76167 0
M  V30 3662 C 345.843 -3.36511 4.11015 0
M  V30 3663 C 344.882 -3.07353 5.2934 0
M  V30 3664 N 344.019 -4.23816 5.59754 0
M  V30 3665 H 348.859 -0.65631 2.90683 0
M  V30 3666 H 346.396 -0.312481 1.43743 0
M  V30 3667 H 348.354 -3.13175 2.7564 0
M  V30 3668 H 346.984 -2.75744 1.67825 0
M  V30 3669 H 346.036 -1.2688 3.58616 0
M  V30 3670 H 347.348 -1.86894 4.62463 0
M  V30 3671 H 346.502 -4.21062 4.36797 0
M  V30 3672 H 345.241 -3.65128 3.23315 0
M  V30 3673 H 344.246 -2.212 5.03339 0
M  V30 3674 H 345.471 -2.80043 6.1867 0
M  V30 3675 H 343.417 -4.52436 4.75014 0
M  V30 3676 H 343.334 -4.01614 6.40501 0
M  V30 3677 H 344.602 -5.0932 5.90096 0
M  V30 3678 N 348.832 -1.54138 -0.328536 0
M  V30 3679 C 349.742 -1.86192 -1.42723 0
M  V30 3680 C 350.758 -0.753382 -1.56844 0
M  V30 3681 O 351.934 -1.04718 -1.72035 0
M  V30 3682 C 348.999 -2.07824 -2.77507 0
M  V30 3683 C 348.06 -3.31641 -2.72603 0
M  V30 3684 C 347.293 -3.52232 -4.00959 0
M  V30 3685 O 347.516 -2.7636 -4.9898 0
M  V30 3686 O 346.45 -4.45699 -4.0452 0
M  V30 3687 H 350.276 -2.79608 -1.18547 0
M  V30 3688 H 347.861 -1.3998 -0.522104 0
M  V30 3689 H 349.743 -2.23411 -3.57303 0
M  V30 3690 H 348.418 -1.17596 -3.01584 0
M  V30 3691 H 347.325 -3.21444 -1.91376 0
M  V30 3692 H 348.658 -4.2191 -2.53481 0
M  V30 3693 N 350.31 0.590341 -1.46126 0
M  V30 3694 C 351.24 1.71032 -1.58966 0
M  V30 3695 C 352.221 1.64302 -0.440335 0
M  V30 3696 O 353.406 1.82436 -0.665634 0
M  V30 3697 C 350.536 3.09665 -1.57241 0
M  V30 3698 C 349.49 3.31221 -2.71066 0
M  V30 3699 C 348.816 4.70303 -2.54399 0
M  V30 3700 C 350.116 3.19796 -4.1295 0
M  V30 3701 H 351.81 1.60543 -2.52718 0
M  V30 3702 H 349.356 0.770933 -1.21625 0
M  V30 3703 H 351.309 3.87831 -1.64819 0
M  V30 3704 H 350.033 3.21036 -0.600289 0
M  V30 3705 H 348.692 2.55452 -2.62944 0
M  V30 3706 H 348.34 4.78429 -1.55288 0
M  V30 3707 H 348.04 4.85679 -3.30741 0
M  V30 3708 H 349.564 5.50647 -2.63857 0
M  V30 3709 H 350.978 3.87815 -4.22223 0
M  V30 3710 H 349.375 3.46696 -4.89818 0
M  V30 3711 H 350.445 2.16983 -4.33643 0
M  V30 3712 N 351.788 1.33704 0.83433 0
M  V30 3713 C 353.037 1.24763 1.58484 0
M  V30 3714 C 353.35 -0.183775 1.94735 0
M  V30 3715 O 354.556 -0.395234 2.68608 0
M  V30 3716 C 353.012 2.18638 2.85876 0
M  V30 3717 C 352.62 3.66974 2.56971 0
M  V30 3718 C 354.364 2.18581 3.63899 0
M  V30 3719 C 352.271 4.5275 3.80488 0
M  V30 3720 H 351.201 0.463425 0.594772 0
M  V30 3721 H 353.852 1.58797 0.919551 0
M  V30 3722 H 352.234 1.77542 3.5397 0
M  V30 3723 H 353.408 4.16538 1.9706 0
M  V30 3724 H 351.723 3.69366 1.92244 0
M  V30 3725 H 354.32 2.79894 4.55591 0
M  V30 3726 H 354.663 1.18207 3.99165 0
M  V30 3727 H 355.196 2.58062 3.02735 0
M  V30 3728 H 351.935 5.54017 3.5035 0
M  V30 3729 H 351.455 4.07927 4.39722 0
M  V30 3730 H 353.134 4.66784 4.4802 0
M  V30 3731 N 353.266 -1.05314 1.17247 0
M  V30 3732 C 354.494 -1.81971 0.984593 0
M  V30 3733 C 354.909 -1.82929 -0.467166 0
M  V30 3734 O 354.266 -1.25564 -1.32438 0
M  V30 3735 C 354.317 -3.28143 1.51672 0
M  V30 3736 O 354.038 -3.27347 2.91163 0
M  V30 3737 C 355.539 -4.21493 1.37326 0
M  V30 3738 H 352.759 -0.573455 0.348411 0
M  V30 3739 H 355.303 -1.32808 1.55506 0
M  V30 3740 H 353.458 -3.74582 0.988302 0
M  V30 3741 H 353.872 -4.18824 3.15732 0
M  V30 3742 H 355.346 -5.22043 1.79375 0
M  V30 3743 H 355.823 -4.38031 0.320169 0
M  V30 3744 H 356.429 -3.80909 1.89178 0
M  V30 3745 N 354.744 -0.972509 -1.24016 0
M  V30 3746 C 355.707 -0.511403 -2.23422 0
M  V30 3747 C 356.707 0.394679 -1.55881 0
M  V30 3748 O 357.897 0.189469 -1.73167 0
M  V30 3749 C 355.029 0.258769 -3.39916 0
M  V30 3750 H 356.222 -1.39024 -2.6573 0
M  V30 3751 H 353.775 -0.757585 -1.36713 0
M  V30 3752 H 354.51 1.1545 -3.03054 0
M  V30 3753 H 354.295 -0.391522 -3.9014 0
M  V30 3754 H 355.785 0.570244 -4.13688 0
M  V30 3755 N 356.222 1.38976 -0.743202 0
M  V30 3756 C 357.468 2.01114 -0.304109 0
M  V30 3757 C 357.823 1.57929 1.09892 0
M  V30 3758 O 357.116 0.801983 1.74008 0
M  V30 3759 C 357.31 3.55647 -0.353517 0
M  V30 3760 C 357.139 4.13837 -1.75981 0
M  V30 3761 C 355.909 4.46062 -2.37395 0
M  V30 3762 C 358.107 4.36812 -2.71477 0
M  V30 3763 N 356.089 4.898 -3.70093 0
M  V30 3764 C 357.46 4.82844 -3.88923 0
M  V30 3765 C 359.515 4.18893 -2.69134 0
M  V30 3766 C 358.218 5.12837 -5.04371 0
M  V30 3767 C 360.244 4.50005 -3.83731 0
M  V30 3768 C 359.606 4.96251 -4.99914 0
M  V30 3769 H 355.705 0.765931 -0.157716 0
M  V30 3770 H 358.289 1.68763 -0.970931 0
M  V30 3771 H 356.46 3.87368 0.282987 0
M  V30 3772 H 358.192 4.04564 0.104904 0
M  V30 3773 H 354.947 4.34145 -1.89248 0
M  V30 3774 H 355.371 5.16016 -4.38242 0
M  V30 3775 H 360.013 3.82335 -1.80499 0
M  V30 3776 H 357.731 5.48297 -5.9363 0
M  V30 3777 H 361.317 4.37755 -3.83225 0
M  V30 3778 H 360.197 5.19867 -5.87118 0
M  V30 3779 N 357.7 0.491464 1.49741 0
M  V30 3780 C 358.93 -0.0534375 2.06531 0
M  V30 3781 C 359.338 -1.32233 1.35318 0
M  V30 3782 O 358.681 -1.78781 0.422243 0
M  V30 3783 C 358.743 -0.387034 3.57411 0
M  V30 3784 C 358.407 0.782764 4.50246 0
M  V30 3785 C 359.404 1.67059 4.92329 0
M  V30 3786 C 357.089 0.978866 4.9267 0
M  V30 3787 C 359.083 2.73874 5.75562 0
M  V30 3788 C 356.77 2.05022 5.75682 0
M  V30 3789 C 357.768 2.92851 6.17031 0
M  V30 3790 O 357.456 3.98138 6.98385 0
M  V30 3791 H 357.188 0.0129324 0.675876 0
M  V30 3792 H 359.742 0.685238 1.93633 0
M  V30 3793 H 357.972 -1.17918 3.68283 0
M  V30 3794 H 359.661 -0.869419 3.96479 0
M  V30 3795 H 360.427 1.53086 4.60206 0
M  V30 3796 H 356.306 0.304646 4.59992 0
M  V30 3797 H 359.85 3.42458 6.07757 0
M  V30 3798 H 355.747 2.18993 6.07217 0
M  V30 3799 H 356.515 3.95374 7.16674 0
M  V30 3800 N 359.178 -1.55987 0.224894 0
M  V30 3801 C 360.427 -1.97566 -0.406273 0
M  V30 3802 C 360.74 -1.11569 -1.6066 0
M  V30 3803 O 361.946 -1.43062 -2.3075 0
M  V30 3804 C 360.402 -3.51474 -0.774207 0
M  V30 3805 C 360.01 -4.46179 0.403496 0
M  V30 3806 C 361.754 -4.01758 -1.37079 0
M  V30 3807 C 359.661 -5.91399 0.0129412 0
M  V30 3808 H 358.591 -0.737777 -0.155565 0
M  V30 3809 H 361.242 -1.80659 0.321635 0
M  V30 3810 H 359.624 -3.63994 -1.55963 0
M  V30 3811 H 360.798 -4.45409 1.18101 0
M  V30 3812 H 359.113 -4.06255 0.913536 0
M  V30 3813 H 361.71 -5.07756 -1.67596 0
M  V30 3814 H 362.053 -3.47805 -2.28773 0
M  V30 3815 H 362.586 -3.92475 -0.648733 0
M  V30 3816 H 359.325 -6.49341 0.896451 0
M  V30 3817 H 358.845 -5.95356 -0.728821 0
M  V30 3818 H 360.524 -6.45683 -0.412582 0
M  V30 3819 N 360.656 0.0484629 -1.57525 0
M  V30 3820 C 361.904 0.741657 -1.88 0
M  V30 3821 C 362.225 1.76918 -0.820054 0
M  V30 3822 O 361.495 1.95335 0.148661 0
M  V30 3823 H 360.075 0.276908 -0.69378 0
M  V30 3824 H 362.737 0.019013 -1.94891 0
M  V30 3825 H 361.833 1.24336 -2.86264 0
M  V30 3826 N 362.134 1.5431 0.320358 0
M  V30 3827 C 363.381 1.72668 1.05792 0
M  V30 3828 C 363.709 0.502084 1.87908 0
M  V30 3829 O 362.964 -0.516149 1.88771 0
M  V30 3830 C 363.263 2.95639 2.00828 0
M  V30 3831 C 362.929 4.30265 1.34843 0
M  V30 3832 C 361.591 4.66865 1.16578 0
M  V30 3833 C 363.943 5.13801 0.875095 0
M  V30 3834 C 361.271 5.84597 0.496336 0
M  V30 3835 C 363.623 6.32219 0.219463 0
M  V30 3836 C 362.287 6.67495 0.0246915 0
M  V30 3837 H 361.557 0.631837 0.387121 0
M  V30 3838 H 364.204 1.88552 0.334735 0
M  V30 3839 H 362.509 2.74456 2.79609 0
M  V30 3840 H 364.206 3.07038 2.57932 0
M  V30 3841 H 360.796 4.01472 1.50061 0
M  V30 3842 H 364.98 4.86039 1.00398 0
M  V30 3843 H 360.236 6.10486 0.334264 0
M  V30 3844 H 364.41 6.96227 -0.155291 0
M  V30 3845 H 362.037 7.5858 -0.496065 0
M  V30 3846 N 363.613 -0.582584 1.46437 0
M  V30 3847 C 364.543 -1.70187 1.59871 0
M  V30 3848 C 365.524 -1.64066 0.449042 0
M  V30 3849 O 366.709 -1.82081 0.6753 0
M  V30 3850 C 363.839 -3.08827 1.58881 0
M  V30 3851 C 362.793 -3.29779 2.72819 0
M  V30 3852 C 362.119 -4.68947 2.5689 0
M  V30 3853 C 363.419 -3.17601 4.1464 0
M  V30 3854 H 365.113 -1.592 2.53566 0
M  V30 3855 H 362.659 -0.764472 1.22032 0
M  V30 3856 H 364.612 -3.86951 1.66873 0
M  V30 3857 H 363.336 -3.20713 0.617306 0
M  V30 3858 H 361.995 -2.54054 2.64296 0
M  V30 3859 H 361.643 -4.77599 1.57823 0
M  V30 3860 H 361.343 -4.83919 3.33312 0
M  V30 3861 H 362.867 -5.4924 2.66773 0
M  V30 3862 H 364.281 -3.8557 4.24274 0
M  V30 3863 H 362.678 -3.44094 4.9165 0
M  V30 3864 H 363.748 -2.14681 4.34788 0
M  V30 3865 N 365.091 -1.34144 -0.827227 0
M  V30 3866 C 366.337 -1.26446 -1.58554 0
M  V30 3867 C 366.67 0.1664 -1.93486 0
M  V30 3868 O 365.945 1.1107 -1.59667 0
M  V30 3869 C 366.228 -2.15111 -2.8879 0
M  V30 3870 C 366.081 -3.66712 -2.60465 0
M  V30 3871 C 367.4 -2.03311 -3.90324 0
M  V30 3872 H 364.519 -0.46067 -0.575284 0
M  V30 3873 H 367.161 -1.64356 -0.953269 0
M  V30 3874 H 365.311 -1.8291 -3.42748 0
M  V30 3875 H 366.983 -4.09259 -2.1285 0
M  V30 3876 H 365.226 -3.88014 -1.93978 0
M  V30 3877 H 365.897 -4.24112 -3.53317 0
M  V30 3878 H 368.373 -2.31574 -3.45706 0
M  V30 3879 H 367.249 -2.67582 -4.79261 0
M  V30 3880 H 367.51 -1.00879 -4.30437 0
M  V30 3881 N 366.569 1.04691 -1.17803 0
M  V30 3882 C 367.499 2.14494 -0.92275 0
M  V30 3883 C 368.48 1.69546 0.137179 0
M  V30 3884 O 369.665 1.94195 -0.0141108 0
M  V30 3885 C 366.795 3.44491 -0.440803 0
M  V30 3886 C 365.749 4.03031 -1.4405 0
M  V30 3887 C 365.075 5.28432 -0.81631 0
M  V30 3888 C 366.375 4.39932 -2.81527 0
M  V30 3889 H 368.069 2.36107 -1.84103 0
M  V30 3890 H 365.615 1.1347 -0.886599 0
M  V30 3891 H 367.568 4.2066 -0.249602 0
M  V30 3892 H 366.292 3.22546 0.513025 0
M  V30 3893 H 364.951 3.28937 -1.61853 0
M  V30 3894 H 364.599 5.02792 0.144511 0
M  V30 3895 H 364.299 5.68559 -1.48371 0
M  V30 3896 H 365.823 6.07284 -0.635496 0
M  V30 3897 H 367.237 5.07113 -2.67412 0
M  V30 3898 H 365.634 4.9109 -3.44892 0
M  V30 3899 H 366.704 3.50045 -3.35554 0
M  V30 3900 N 368.047 0.979072 1.23499 0
M  V30 3901 C 369.296 0.642751 1.91185 0
M  V30 3902 C 369.609 -0.827253 1.77245 0
M  V30 3903 O 370.815 -1.27458 2.39722 0
M  V30 3904 C 369.271 1.09901 3.42709 0
M  V30 3905 C 368.879 2.59327 3.65313 0
M  V30 3906 C 370.623 0.836371 4.16179 0
M  V30 3907 C 368.53 2.98627 5.10467 0
M  V30 3908 H 367.46 0.236698 0.715884 0
M  V30 3909 H 370.111 1.1868 1.39955 0
M  V30 3910 H 368.493 0.48319 3.93041 0
M  V30 3911 H 369.667 3.26136 3.25533 0
M  V30 3912 H 367.982 2.83323 3.05151 0
M  V30 3913 H 370.579 1.10586 5.23139 0
M  V30 3914 H 370.922 -0.227509 4.15678 0
M  V30 3915 H 371.455 1.41371 3.71832 0
M  V30 3916 H 368.194 4.04133 5.16098 0
M  V30 3917 H 367.714 2.3651 5.51201 0
M  V30 3918 H 369.393 2.89159 5.78788 0
M  V30 3919 N 369.525 -1.3858 0.750561 0
M  V30 3920 C 370.772 -2.00184 0.305373 0
M  V30 3921 C 371.1 -1.59575 -1.11203 0
M  V30 3922 O 370.355 -0.823236 -1.77542 0
M  V30 3923 C 370.654 -3.55455 0.372373 0
M  V30 3924 C 370.32 -4.15765 1.745 0
M  V30 3925 C 368.982 -4.31951 2.12065 0
M  V30 3926 C 371.334 -4.49067 2.64553 0
M  V30 3927 C 368.662 -4.78734 3.39162 0
M  V30 3928 C 371.014 -4.97265 3.91038 0
M  V30 3929 C 369.678 -5.11658 4.28676 0
M  V30 3930 H 368.948 -0.732526 0.111744 0
M  V30 3931 H 371.595 -1.65673 0.960451 0
M  V30 3932 H 369.9 -3.90084 -0.366272 0
M  V30 3933 H 371.597 -4.00999 0.00953918 0
M  V30 3934 H 368.187 -4.03579 1.44297 0
M  V30 3935 H 372.371 -4.36166 2.36796 0
M  V30 3936 H 367.627 -4.88062 3.68246 0
M  V30 3937 H 371.801 -5.22003 4.60962 0
M  V30 3938 H 369.428 -5.47668 5.27222 0
M  V30 3939 N 371.003 -0.499398 -1.49478 0
M  V30 3940 C 371.966 0.268838 -2.27618 0
M  V30 3941 C 372.966 0.895383 -1.33565 0
M  V30 3942 O 374.156 0.760164 -1.56739 0
M  V30 3943 C 371.288 1.38559 -3.11471 0
M  V30 3944 H 372.481 -0.416812 -2.96989 0
M  V30 3945 H 370.034 -0.254313 -1.54217 0
M  V30 3946 H 370.769 2.10544 -2.46661 0
M  V30 3947 H 370.554 0.941797 -3.80621 0
M  V30 3948 H 372.044 1.92678 -3.70493 0
M  V30 3949 N 372.481 1.55866 -0.233164 0
M  V30 3950 C 373.706 2.03449 0.402906 0
M  V30 3951 C 374.131 1.11166 1.51736 0
M  V30 3952 O 373.489 0.101996 1.81013 0
M  V30 3953 C 373.537 3.49165 0.9009 0
M  V30 3954 O 372.641 3.60019 2.01147 0
M  V30 3955 H 371.982 0.657913 0.0897025 0
M  V30 3956 H 374.512 2.01493 -0.355201 0
M  V30 3957 H 374.522 3.89716 1.2077 0
M  V30 3958 H 373.197 4.15813 0.0852889 0
M  V30 3959 H 371.774 3.3136 1.71042 0
M  V30 3960 N 373.959 -0.0401083 1.57549 0
M  V30 3961 C 375.206 -0.733125 1.88763 0
M  V30 3962 C 375.534 -1.75946 0.829058 0
M  V30 3963 O 374.789 -1.94949 -0.171323 0
M  V30 3964 C 375.088 -1.44902 3.26708 0
M  V30 3965 C 374.754 -0.559707 4.47413 0
M  V30 3966 C 373.416 -0.314731 4.8017 0
M  V30 3967 C 375.768 0.0549743 5.21171 0
M  V30 3968 C 373.096 0.553886 5.8408 0
M  V30 3969 C 375.448 0.911229 6.26003 0
M  V30 3970 C 374.112 1.16577 6.57241 0
M  V30 3971 H 373.382 -0.268269 0.690733 0
M  V30 3972 H 376.029 0.00679408 1.91499 0
M  V30 3973 H 374.334 -2.26197 3.1991 0
M  V30 3974 H 376.031 -1.99058 3.48105 0
M  V30 3975 H 372.621 -0.760793 4.21794 0
M  V30 3976 H 376.805 -0.121344 4.96152 0
M  V30 3977 H 372.061 0.759518 6.06664 0
M  V30 3978 H 376.235 1.3941 6.82303 0
M  V30 3979 H 373.862 1.84058 7.37582 0
M  V30 3980 N 375.437 -1.54477 -0.31217 0
M  V30 3981 C 376.367 -1.87652 -1.38957 0
M  V30 3982 C 377.348 -0.734358 -1.53431 0
M  V30 3983 O 378.533 -0.98911 -1.67123 0
M  V30 3984 C 375.663 -2.11396 -2.75552 0
M  V30 3985 C 374.617 -3.27243 -2.75855 0
M  V30 3986 C 373.943 -3.36382 -4.15633 0
M  V30 3987 C 375.243 -4.64622 -2.38587 0
M  V30 3988 H 376.937 -2.77887 -1.11442 0
M  V30 3989 H 374.483 -1.33707 -0.534655 0
M  V30 3990 H 376.436 -2.33189 -3.51 0
M  V30 3991 H 375.16 -1.17921 -3.04569 0
M  V30 3992 H 373.819 -3.05356 -2.02863 0
M  V30 3993 H 373.467 -2.40445 -4.41809 0
M  V30 3994 H 373.167 -4.14249 -4.1674 0
M  V30 3995 H 374.691 -3.60422 -4.92877 0
M  V30 3996 H 376.105 -4.86219 -3.03749 0
M  V30 3997 H 374.502 -5.45121 -2.50925 0
M  V30 3998 H 375.572 -4.66097 -1.33723 0
M  V30 3999 N 376.915 0.57481 -1.46744 0
M  V30 4000 C 378.161 1.3347 -1.52688 0
M  V30 4001 C 378.494 1.93353 -0.181229 0
M  V30 4002 O 377.769 1.76912 0.808237 0
M  V30 4003 C 378.052 2.45811 -2.63152 0
M  V30 4004 C 377.905 1.90912 -4.07275 0
M  V30 4005 C 379.224 3.47822 -2.69644 0
M  V30 4006 H 376.343 0.483935 -0.555856 0
M  V30 4007 H 378.985 0.644968 -1.78718 0
M  V30 4008 H 377.135 3.04646 -2.41088 0
M  V30 4009 H 378.807 1.36473 -4.4065 0
M  V30 4010 H 377.05 1.21691 -4.16382 0
M  V30 4011 H 377.721 2.72042 -4.80309 0
M  V30 4012 H 380.197 2.9888 -2.895 0
M  V30 4013 H 379.073 4.23876 -3.48742 0
M  V30 4014 H 379.334 4.05555 -1.76005 0
M  V30 4015 N 378.394 1.34581 0.820102 0
M  V30 4016 C 379.624 1.29991 1.6058 0
M  V30 4017 C 380.032 -0.127588 1.88769 0
M  V30 4018 O 379.375 -1.08595 1.48165 0
M  V30 4019 C 379.437 2.02548 2.9701 0
M  V30 4020 C 379.101 3.51794 2.91701 0
M  V30 4021 C 380.098 4.46647 2.66087 0
M  V30 4022 C 377.783 3.94249 3.11245 0
M  V30 4023 C 379.777 5.81929 2.60071 0
M  V30 4024 C 377.464 5.2963 3.04853 0
M  V30 4025 C 378.462 6.23282 2.793 0
M  V30 4026 O 378.15 7.56181 2.72847 0
M  V30 4027 H 377.882 0.448539 0.505756 0
M  V30 4028 H 380.436 1.77811 1.02822 0
M  V30 4029 H 378.666 1.49345 3.56697 0
M  V30 4030 H 380.355 1.91211 3.58041 0
M  V30 4031 H 381.121 4.15168 2.5072 0
M  V30 4032 H 377 3.21749 3.30149 0
M  V30 4033 H 380.544 6.54999 2.40046 0
M  V30 4034 H 376.441 5.60727 3.19774 0
M  V30 4035 H 377.209 7.6595 2.88553 0
M  V30 4036 N 379.872 -1.04064 1.18357 0
M  V30 4037 C 380.802 -2.14001 0.934113 0
M  V30 4038 C 381.783 -1.69616 -0.128186 0
M  V30 4039 O 382.968 -1.94185 0.0244093 0
M  V30 4040 C 380.098 -3.44253 0.459066 0
M  V30 4041 C 379.052 -4.02261 1.46185 0
M  V30 4042 C 378.378 -5.27992 0.844322 0
M  V30 4043 C 379.678 -4.38432 2.83856 0
M  V30 4044 H 381.372 -2.35127 1.85352 0
M  V30 4045 H 378.918 -1.12998 0.892604 0
M  V30 4046 H 380.871 -4.20522 0.271907 0
M  V30 4047 H 379.595 -3.22813 -0.495912 0
M  V30 4048 H 378.254 -3.28074 1.63595 0
M  V30 4049 H 377.902 -5.02862 -0.117845 0
M  V30 4050 H 377.602 -5.67765 1.51384 0
M  V30 4051 H 379.126 -6.06938 0.667693 0
M  V30 4052 H 380.54 -5.05688 2.70098 0
M  V30 4053 H 378.937 -4.89254 3.47491 0
M  V30 4054 H 380.007 -3.4826 3.37406 0
M  V30 4055 N 381.35 -0.985608 -1.22978 0
M  V30 4056 C 382.313 -0.535071 -2.22867 0
M  V30 4057 C 383.313 0.378123 -1.56291 0
M  V30 4058 O 384.503 0.171092 -1.73358 0
M  V30 4059 C 381.635 0.222702 -3.40172 0
M  V30 4060 H 382.828 -1.41835 -2.6424 0
M  V30 4061 H 380.381 -0.772042 -1.35901 0
M  V30 4062 H 381.116 1.12229 -3.04262 0
M  V30 4063 H 380.901 -0.43288 -3.89703 0
M  V30 4064 H 382.391 0.526335 -4.1427 0
M  V30 4065 N 382.828 1.3818 -0.7579 0
M  V30 4066 C 383.738 2.3421 -0.135247 0
M  V30 4067 C 384.754 1.59487 0.695683 0
M  V30 4068 O 385.93 1.91657 0.618832 0
M  V30 4069 C 382.995 3.3862 0.744139 0
M  V30 4070 C 382.056 4.2918 -0.101658 0
M  V30 4071 C 381.289 5.28603 0.735851 0
M  V30 4072 O 381.512 5.35166 1.97366 0
M  V30 4073 O 380.446 6.01707 0.152372 0
M  V30 4074 H 384.272 2.8916 -0.928436 0
M  V30 4075 H 381.857 1.40101 -0.518855 0
M  V30 4076 H 383.739 4.02539 1.2466 0
M  V30 4077 H 382.414 2.86019 1.51575 0
M  V30 4078 H 381.321 3.68407 -0.650167 0
M  V30 4079 H 382.654 4.85048 -0.836024 0
M  V30 4080 N 384.306 0.507319 1.49211 0
M  V30 4081 C 385.253 -0.267728 2.29242 0
M  V30 4082 C 386.223 -0.954609 1.35928 0
M  V30 4083 O 387.408 -0.960046 1.64887 0
M  V30 4084 C 384.548 -1.32243 3.18756 0
M  V30 4085 C 383.661 -0.64669 4.27132 0
M  V30 4086 C 382.796 -1.68238 5.03855 0
M  V30 4087 C 381.835 -0.98885 6.0406 0
M  V30 4088 N 380.972 -1.96903 6.73924 0
M  V30 4089 H 385.812 0.420968 2.95012 0
M  V30 4090 H 383.349 0.219443 1.45454 0
M  V30 4091 H 385.307 -1.94599 3.69036 0
M  V30 4092 H 383.937 -1.97981 2.54958 0
M  V30 4093 H 382.989 0.0902926 3.80293 0
M  V30 4094 H 384.301 -0.101058 4.98698 0
M  V30 4095 H 383.455 -2.38081 5.58034 0
M  V30 4096 H 382.194 -2.26187 4.32077 0
M  V30 4097 H 381.199 -0.276222 5.49106 0
M  V30 4098 H 382.424 -0.415767 6.77826 0
M  V30 4099 H 380.37 -2.53803 6.04913 0
M  V30 4100 H 380.287 -1.47423 7.41487 0
M  V30 4101 H 381.555 -2.66015 7.32705 0
M  V30 4102 N 385.784 -1.5574 0.241426 0
M  V30 4103 C 387.061 -1.90704 -0.434881 0
M  V30 4104 C 387.441 -1.16145 -1.76277 0
M  V30 4105 O 386.789 -0.277152 -2.26813 0
M  V30 4106 C 386.999 -3.43657 -0.608343 0
M  V30 4107 C 388.347 -4.14806 -0.906725 0
M  V30 4108 O 389.371 -3.49366 -0.694408 0
M  V30 4109 O 388.23 -5.30548 -1.31075 0
M  V30 4110 H 385.324 -0.793592 -0.23268 0
M  V30 4111 H 387.87 -1.67288 0.285086 0
M  V30 4112 H 386.642 -3.89927 0.327505 0
M  V30 4113 H 386.265 -3.72918 -1.37906 0
M  V30 4114 N 387.262 0.0317525 -1.57568 0
M  V30 4115 C 388.225 1.01783 -2.0536 0
M  V30 4116 C 389.225 1.29203 -0.957253 0
M  V30 4117 O 390.415 1.24251 -1.22095 0
M  V30 4118 C 387.547 2.35137 -2.46827 0
M  V30 4119 H 388.74 0.605062 -2.93733 0
M  V30 4120 H 386.293 0.278514 -1.53799 0
M  V30 4121 H 387.028 2.81168 -1.61602 0
M  V30 4122 H 386.813 2.16566 -3.26866 0
M  V30 4123 H 388.303 3.05938 -2.84239 0
M  V30 4124 N 388.74 1.54641 0.303973 0
M  V30 4125 C 389.688 1.86137 1.39484 0
M  V30 4126 C 390.682 0.734854 1.52631 0
M  V30 4127 O 391.888 0.918803 1.54784 0
M  V30 4128 H 388.263 0.590324 0.465856 0
M  V30 4129 H 390.234 2.77324 1.10154 0
M  V30 4130 C 388.983 2.12274 2.75382 0
M  V30 4131 H 388.306 2.98429 2.66046 0
M  V30 4132 H 389.746 2.38254 3.5073 0
M  V30 4133 C 388.205 0.920365 3.24085 0
M  V30 4134 O 388.735 0.139377 4.01458 0
M  V30 4135 N 386.941 0.726566 2.81371 0
M  V30 4136 H 386.488 1.36332 2.18567 0
M  V30 4137 H 386.446 -0.0763799 3.14307 0
M  V30 4138 N 390.218 -0.567019 1.47046 0
M  V30 4139 C 391.443 -1.3551 1.57009 0
M  V30 4140 C 391.868 -1.86841 0.217259 0
M  V30 4141 O 391.226 -1.62435 -0.805268 0
M  V30 4142 C 391.274 -2.50777 2.5912 0
M  V30 4143 O 390.378 -3.52706 2.13711 0
M  V30 4144 H 389.719 -0.402919 0.52778 0
M  V30 4145 H 392.249 -0.686241 1.92748 0
M  V30 4146 H 392.259 -2.97481 2.79229 0
M  V30 4147 H 390.934 -2.12771 3.57353 0
M  V30 4148 H 389.511 -3.12374 2.03659 0
M  V30 4149 N 391.696 -1.35014 -0.812953 0
M  V30 4150 C 392.973 -1.18502 -1.55617 0
M  V30 4151 C 393.353 0.238421 -2.09749 0
M  V30 4152 O 392.701 1.2411 -1.91857 0
M  V30 4153 C 392.911 -2.24783 -2.66971 0
M  V30 4154 C 394.259 -2.60268 -3.35478 0
M  V30 4155 O 395.283 -2.23648 -2.77236 0
M  V30 4156 O 394.142 -3.2321 -4.40678 0
M  V30 4157 H 391.236 -0.459984 -0.687272 0
M  V30 4158 H 393.782 -1.46677 -0.853464 0
M  V30 4159 H 392.554 -3.20284 -2.24798 0
M  V30 4160 H 392.177 -1.97841 -3.44884 0
M  V30 4161 N 393.175 1.03435 -1.18907 0
M  V30 4162 C 394.422 1.76743 -0.988334 0
M  V30 4163 C 394.75 1.88447 0.481441 0
M  V30 4164 O 394.005 1.39383 1.37371 0
M  V30 4165 C 394.304 3.19792 -1.59586 0
M  V30 4166 C 393.97 3.28108 -3.09283 0
M  V30 4167 C 392.632 3.30084 -3.5014 0
M  V30 4168 C 394.984 3.27696 -4.05296 0
M  V30 4169 C 392.312 3.29299 -4.85571 0
M  V30 4170 C 394.664 3.28451 -5.4065 0
M  V30 4171 C 393.328 3.28723 -5.80946 0
M  V30 4172 H 392.598 0.64675 -0.361657 0
M  V30 4173 H 395.245 1.21442 -1.48068 0
M  V30 4174 H 393.55 3.78136 -1.02568 0
M  V30 4175 H 395.247 3.75171 -1.41589 0
M  V30 4176 H 391.837 3.27294 -2.76725 0
M  V30 4177 H 396.021 3.25354 -3.74778 0
M  V30 4178 H 391.277 3.2783 -5.16079 0
M  V30 4179 H 395.451 3.27082 -6.14809 0
M  V30 4180 H 393.078 3.27868 -6.85862 0
M  V30 4181 N 394.653 0.992116 1.22453 0
M  V30 4182 C 395.878 0.685644 1.95739 0
M  V30 4183 C 396.303 -0.743 1.72804 0
M  V30 4184 O 395.661 -1.50778 1.00676 0
M  V30 4185 C 395.709 0.996293 3.46564 0
M  V30 4186 O 394.813 0.0945512 4.12292 0
M  V30 4187 H 394.154 0.256694 0.612376 0
M  V30 4188 H 396.684 1.32888 1.5557 0
M  V30 4189 H 396.694 0.93781 3.97076 0
M  V30 4190 H 395.369 2.03733 3.62582 0
M  V30 4191 H 393.946 0.208451 3.72317 0
M  V30 4192 N 396.131 -1.37776 0.765217 0
M  V30 4193 C 397.356 -2.04651 0.336537 0
M  V30 4194 C 397.781 -1.57337 -1.03086 0
M  V30 4195 O 397.139 -0.730621 -1.65927 0
M  V30 4196 C 397.187 -3.58577 0.381468 0
M  V30 4197 O 396.291 -4.07706 -0.62042 0
M  V30 4198 H 395.632 -0.64756 0.146838 0
M  V30 4199 H 398.162 -1.76221 1.03959 0
M  V30 4200 H 398.172 -4.07314 0.236448 0
M  V30 4201 H 396.847 -3.9237 1.37907 0
M  V30 4202 H 395.424 -3.70306 -0.439056 0
M  V30 4203 N 397.609 -0.515225 -1.4894 0
M  V30 4204 C 398.839 0.0205735 -2.0659 0
M  V30 4205 C 399.247 1.30064 -1.37405 0
M  V30 4206 O 398.59 1.78087 -0.450632 0
M  V30 4207 C 398.652 0.330124 -3.57981 0
M  V30 4208 C 398.316 -0.854295 -4.48944 0
M  V30 4209 C 399.313 -1.7487 -4.89609 0
M  V30 4210 C 396.998 -1.05712 -4.9105 0
M  V30 4211 C 398.992 -2.82996 -5.71132 0
M  V30 4212 C 396.679 -2.14154 -5.72347 0
M  V30 4213 C 397.677 -3.0263 -6.12294 0
M  V30 4214 O 397.365 -4.09198 -6.91962 0
M  V30 4215 H 397.097 -0.0236833 -0.675585 0
M  V30 4216 H 399.651 -0.715956 -1.92518 0
M  V30 4217 H 397.881 1.12044 -3.70112 0
M  V30 4218 H 399.57 0.806233 -3.97812 0
M  V30 4219 H 400.336 -1.60388 -4.57712 0
M  V30 4220 H 396.215 -0.377788 -4.59449 0
M  V30 4221 H 399.759 -3.52083 -6.02232 0
M  V30 4222 H 395.656 -2.28626 -6.03656 0
M  V30 4223 H 396.424 -4.06726 -7.10293 0
M  V30 4224 N 399.087 1.5561 -0.249682 0
M  V30 4225 C 400.05 2.20217 0.635394 0
M  V30 4226 C 401.05 1.17227 1.10066 0
M  V30 4227 O 402.24 1.42292 1.00492 0
M  V30 4228 C 399.372 2.84794 1.87363 0
M  V30 4229 H 400.565 2.99814 0.0716752 0
M  V30 4230 H 398.118 1.563 -0.000153234 0
M  V30 4231 H 398.853 2.09142 2.47851 0
M  V30 4232 H 398.638 3.60241 1.5482 0
M  V30 4233 H 400.128 3.3423 2.5036 0
M  V30 4234 N 400.565 -0.0233959 1.57583 0
M  V30 4235 C 401.842 -0.748794 1.807 0
M  V30 4236 C 402.222 -1.9327 0.849106 0
M  V30 4237 O 401.57 -2.28247 -0.107468 0
M  V30 4238 C 401.78 -1.17651 3.28571 0
M  V30 4239 C 403.128 -1.59008 3.93702 0
M  V30 4240 O 404.152 -1.27094 3.32755 0
M  V30 4241 O 403.011 -2.18264 5.01022 0
M  V30 4242 H 400.105 -0.362578 0.743281 0
M  V30 4243 H 402.651 0.000261958 1.697 0
M  V30 4244 H 401.423 -0.331603 3.89892 0
M  V30 4245 H 401.046 -1.98541 3.44481 0
M  V30 4246 N 402.043 -1.548 -0.295768 0
M  V30 4247 C 403.268 -1.78653 -1.05346 0
M  V30 4248 C 403.693 -0.546894 -1.79974 0
M  V30 4249 O 403.051 0.502763 -1.7419 0
M  V30 4250 C 403.099 -2.99679 -2.00561 0
M  V30 4251 O 402.203 -2.7317 -3.08953 0
M  V30 4252 H 401.544 -0.59116 -0.302367 0
M  V30 4253 H 404.074 -2.01895 -0.331598 0
M  V30 4254 H 404.084 -3.27793 -2.42932 0
M  V30 4255 H 402.759 -3.89562 -1.4565 0
M  V30 4256 H 401.336 -2.56089 -2.71059 0
M  V30 4257 N 403.521 0.559213 -1.47345 0
M  V30 4258 C 404.451 1.67622 -1.62558 0
M  V30 4259 C 405.432 1.63331 -0.475087 0
M  V30 4260 O 406.617 1.80983 -0.704182 0
M  V30 4261 C 403.747 3.0626 -1.63774 0
M  V30 4262 C 402.701 3.25397 -2.7803 0
M  V30 4263 C 402.027 4.64801 -2.64318 0
M  V30 4264 C 403.327 3.10965 -4.19641 0
M  V30 4265 H 405.021 1.55146 -2.56067 0
M  V30 4266 H 402.567 0.744961 -1.23233 0
M  V30 4267 H 404.52 3.84247 -1.73008 0
M  V30 4268 H 403.244 3.1969 -0.66825 0
M  V30 4269 H 401.903 2.49817 -2.68304 0
M  V30 4270 H 401.551 4.75028 -1.65401 0
M  V30 4271 H 401.251 4.78555 -3.40968 0
M  V30 4272 H 402.775 5.44926 -2.75478 0
M  V30 4273 H 404.189 3.78772 -4.30354 0
M  V30 4274 H 402.586 3.36229 -4.97062 0
M  V30 4275 H 403.656 2.07736 -4.38148 0
M  V30 4276 N 404.999 1.35443 0.805782 0
M  V30 4277 C 406.245 1.2996 1.56467 0
M  V30 4278 C 406.6 -0.124742 1.91995 0
M  V30 4279 O 405.893 -1.07533 1.58579 0
M  V30 4280 C 406.087 2.14045 2.86216 0
M  V30 4281 C 405.916 3.64512 2.63365 0
M  V30 4282 C 404.686 4.33744 2.59219 0
M  V30 4283 C 406.884 4.58142 2.33688 0
M  V30 4284 N 404.866 5.69953 2.28094 0
M  V30 4285 C 406.237 5.8248 2.12408 0
M  V30 4286 C 408.292 4.46877 2.19558 0
M  V30 4287 C 406.995 6.96818 1.78429 0
M  V30 4288 C 409.021 5.61065 1.86976 0
M  V30 4289 C 408.383 6.84431 1.66532 0
M  V30 4290 H 404.482 0.530817 0.574245 0
M  V30 4291 H 407.066 1.70333 0.943126 0
M  V30 4292 H 405.237 1.75942 3.46264 0
M  V30 4293 H 406.969 2.00075 3.51784 0
M  V30 4294 H 403.724 3.86365 2.73896 0
M  V30 4295 H 404.148 6.41845 2.15323 0
M  V30 4296 H 408.79 3.52102 2.34061 0
M  V30 4297 H 406.508 7.91559 1.62664 0
M  V30 4298 H 410.094 5.54302 1.7675 0
M  V30 4299 H 408.974 7.71294 1.41688 0
M  V30 4300 N 406.477 -1.02803 1.19454 0
M  V30 4301 C 407.723 -1.76598 1.0092 0
M  V30 4302 C 408.078 -1.86939 -0.455142 0
M  V30 4303 O 407.371 -1.37575 -1.33355 0
M  V30 4304 C 407.565 -3.18941 1.6128 0
M  V30 4305 C 407.394 -3.22476 3.13431 0
M  V30 4306 C 406.164 -3.30375 3.82336 0
M  V30 4307 C 408.362 -3.09451 4.10785 0
M  V30 4308 N 406.344 -3.23292 5.21877 0
M  V30 4309 C 407.715 -3.10012 5.36929 0
M  V30 4310 C 409.77 -2.93585 4.02135 0
M  V30 4311 C 408.473 -2.96334 6.55423 0
M  V30 4312 C 410.499 -2.81256 5.20239 0
M  V30 4313 C 409.861 -2.82472 6.45282 0
M  V30 4314 H 405.96 -0.657447 0.423424 0
M  V30 4315 H 408.544 -1.22369 1.5144 0
M  V30 4316 H 406.715 -3.71489 1.1336 0
M  V30 4317 H 408.447 -3.81102 1.36173 0
M  V30 4318 H 405.202 -3.3663 3.33132 0
M  V30 4319 H 405.626 -3.23156 5.94894 0
M  V30 4320 H 410.268 -2.91466 3.0628 0
M  V30 4321 H 407.986 -2.97203 7.51463 0
M  V30 4322 H 411.572 -2.70014 5.15348 0
M  V30 4323 H 410.452 -2.73036 7.35133 0
M  V30 4324 N 407.956 -0.998596 -1.21925 0
M  V30 4325 C 409.204 -0.676325 -1.90448 0
M  V30 4326 C 409.525 0.794719 -1.78071 0
M  V30 4327 O 408.795 1.5701 -1.17152 0
M  V30 4328 H 407.375 -0.247165 -0.704925 0
M  V30 4329 H 410.037 -1.26633 -1.48156 0
M  V30 4330 H 409.133 -0.943858 -2.97486 0
M  V30 4331 N 409.434 1.37368 -0.772513 0
M  V30 4332 C 410.662 2.03942 -0.348588 0
M  V30 4333 C 411.077 1.58264 1.02947 0
M  V30 4334 O 410.434 0.764246 1.65727 0
M  V30 4335 C 410.485 3.5946 -0.38351 0
M  V30 4336 O 410.206 4.03468 -1.70721 0
M  V30 4337 C 411.707 4.4327 0.0519152 0
M  V30 4338 H 408.927 0.654931 -0.145966 0
M  V30 4339 H 411.471 1.75686 -1.04665 0
M  V30 4340 H 409.626 3.86486 0.265978 0
M  V30 4341 H 410.04 4.97991 -1.64636 0
M  V30 4342 H 411.514 5.51995 -0.0236733 0
M  V30 4343 H 411.991 4.2514 1.10238 0
M  V30 4344 H 412.597 4.21471 -0.569415 0
M  V30 4345 N 410.912 0.523116 1.48665 0
M  V30 4346 C 412.161 -0.01544 2.01694 0
M  V30 4347 C 412.474 -1.35975 1.40606 0
M  V30 4348 O 413.68 -1.98627 1.85093 0
M  V30 4349 C 412.136 -0.0779303 3.59816 0
M  V30 4350 C 411.744 1.26107 4.29885 0
M  V30 4351 C 413.488 -0.565678 4.20714 0
M  V30 4352 C 411.395 1.15954 5.79921 0
M  V30 4353 H 410.325 -0.00954163 0.75394 0
M  V30 4354 H 412.976 0.665865 1.70993 0
M  V30 4355 H 411.358 -0.824165 3.87329 0
M  V30 4356 H 412.532 2.02233 4.14051 0
M  V30 4357 H 410.847 1.68401 3.80828 0
M  V30 4358 H 413.444 -0.6595 5.30617 0
M  V30 4359 H 413.787 -1.56984 3.85567 0
M  V30 4360 H 414.32 0.12467 3.97605 0
M  V30 4361 H 411.059 2.13864 6.19631 0
M  V30 4362 H 410.579 0.439529 5.98187 0
M  V30 4363 H 412.258 0.847361 6.41427 0
M  V30 4364 N 412.39 -1.55475 0.257931 0
M  V30 4365 C 413.618 -2.03609 -0.367559 0
M  V30 4366 C 414.033 -1.13687 -1.50734 0
M  V30 4367 O 413.39 -0.153479 -1.81853 0
M  V30 4368 C 413.441 -3.51001 -0.864908 0
M  V30 4369 O 413.162 -4.37499 0.229465 0
M  V30 4370 C 414.663 -4.14946 -1.55997 0
M  V30 4371 H 411.883 -0.665459 -0.0860521 0
M  V30 4372 H 414.427 -2.00843 0.385014 0
M  V30 4373 H 412.582 -3.54266 -1.56762 0
M  V30 4374 H 412.996 -5.24286 -0.14998 0
M  V30 4375 H 414.47 -5.19735 -1.85956 0
M  V30 4376 H 414.947 -3.6209 -2.4857 0
M  V30 4377 H 415.553 -4.15635 -0.901543 0
M  V30 4378 N 413.868 0.0150385 -1.57593 0
M  V30 4379 C 414.798 1.01047 -2.10503 0
M  V30 4380 C 415.779 1.36816 -1.01071 0
M  V30 4381 O 416.964 1.45455 -1.28672 0
M  V30 4382 C 414.094 2.30708 -2.59598 0
M  V30 4383 C 413.048 2.09142 -3.73421 0
M  V30 4384 C 412.374 3.44685 -4.08774 0
M  V30 4385 C 413.674 1.46619 -5.01298 0
M  V30 4386 H 415.368 0.569978 -2.93925 0
M  V30 4387 H 412.914 0.272724 -1.41394 0
M  V30 4388 H 414.867 3.00687 -2.95238 0
M  V30 4389 H 413.591 2.76843 -1.73279 0
M  V30 4390 H 412.25 1.41592 -3.38153 0
M  V30 4391 H 411.898 3.88495 -3.195 0
M  V30 4392 H 411.598 3.31077 -4.8545 0
M  V30 4393 H 413.122 4.16004 -4.4696 0
M  V30 4394 H 414.536 2.06535 -5.34805 0
M  V30 4395 H 412.933 1.43544 -5.82679 0
M  V30 4396 H 414.003 0.433611 -4.82957 0
M  V30 4397 N 415.346 1.54954 0.287554 0
M  V30 4398 C 416.574 1.78881 1.03967 0
M  V30 4399 C 416.989 0.554894 1.80462 0
M  V30 4400 O 416.346 -0.475676 1.76192 0
M  V30 4401 C 416.397 3.00488 2.0097 0
M  V30 4402 O 416.118 4.19113 1.27577 0
M  V30 4403 C 417.619 3.36907 2.88112 0
M  V30 4404 H 414.839 0.596259 0.307761 0
M  V30 4405 H 417.383 2.01937 0.322749 0
M  V30 4406 H 415.538 2.79601 2.68145 0
M  V30 4407 H 415.952 4.87765 1.92835 0
M  V30 4408 H 417.426 4.25205 3.52001 0
M  V30 4409 H 417.903 2.55659 3.57121 0
M  V30 4410 H 418.509 3.60001 2.26449 0
M  V30 4411 N 416.824 -0.551391 1.4764 0
M  V30 4412 C 418.052 -1.33357 1.58189 0
M  V30 4413 C 418.467 -1.87342 0.234199 0
M  V30 4414 O 417.824 -1.65301 -0.77343 0
M  V30 4415 C 417.875 -2.49942 2.61173 0
M  V30 4416 O 417.596 -1.98187 3.90709 0
M  V30 4417 C 419.097 -3.42072 2.8196 0
M  V30 4418 H 416.317 -0.40631 0.533998 0
M  V30 4419 H 418.861 -0.667367 1.93304 0
M  V30 4420 H 417.016 -3.12489 2.28975 0
M  V30 4421 H 417.43 -2.74342 4.47031 0
M  V30 4422 H 418.904 -4.20278 3.57869 0
M  V30 4423 H 419.381 -3.95978 1.89995 0
M  V30 4424 H 419.987 -2.85336 3.15378 0
M  V30 4425 N 418.302 -1.35869 -0.798587 0
M  V30 4426 C 419.551 -1.28921 -1.5512 0
M  V30 4427 C 419.864 0.13208 -1.95154 0
M  V30 4428 O 421.07 0.323879 -2.69561 0
M  V30 4429 C 419.526 -2.26141 -2.79979 0
M  V30 4430 C 419.134 -3.73658 -2.47151 0
M  V30 4431 C 420.878 -2.28152 -3.57976 0
M  V30 4432 C 418.785 -4.62679 -3.6835 0
M  V30 4433 H 417.715 -0.479031 -0.582276 0
M  V30 4434 H 420.366 -1.61179 -0.877125 0
M  V30 4435 H 418.748 -1.86865 -3.49138 0
M  V30 4436 H 419.922 -4.21616 -1.85947 0
M  V30 4437 H 418.237 -3.74333 -1.82383 0
M  V30 4438 H 420.834 -2.91875 -4.4801 0
M  V30 4439 H 421.177 -1.28748 -3.95891 0
M  V30 4440 H 421.71 -2.65998 -2.95787 0
M  V30 4441 H 418.449 -5.63111 -3.35538 0
M  V30 4442 H 417.969 -4.19442 -4.28752 0
M  V30 4443 H 419.648 -4.78498 -4.35487 0
M  V30 4444 N 419.78 1.02168 -1.19998 0
M  V30 4445 C 421.028 1.75338 -1.00504 0
M  V30 4446 C 421.349 1.89387 0.464506 0
M  V30 4447 O 420.619 1.43268 1.33608 0
M  V30 4448 H 419.199 0.649564 -0.368885 0
M  V30 4449 H 421.861 1.23205 -1.51018 0
M  V30 4450 H 420.957 2.75892 -1.45912 0
M  V30 4451 N 421.258 1.00505 1.21394 0
M  V30 4452 C 422.488 0.705584 1.94178 0
M  V30 4453 C 422.896 -0.735846 1.74304 0
M  V30 4454 O 422.239 -1.50954 1.04683 0
M  V30 4455 C 422.301 0.94689 3.46806 0
M  V30 4456 C 421.965 2.37517 3.90429 0
M  V30 4457 C 422.962 3.35539 3.97127 0
M  V30 4458 C 420.647 2.71284 4.22742 0
M  V30 4459 C 422.641 4.65395 4.3553 0
M  V30 4460 C 420.328 4.01356 4.60822 0
M  V30 4461 C 421.326 4.98223 4.67186 0
M  V30 4462 O 421.014 6.25969 5.04399 0
M  V30 4463 H 420.746 0.259216 0.624326 0
M  V30 4464 H 423.3 1.34592 1.55159 0
M  V30 4465 H 421.53 0.249386 3.85895 0
M  V30 4466 H 423.219 0.640804 4.0081 0
M  V30 4467 H 423.985 3.10786 3.7234 0
M  V30 4468 H 419.864 1.96581 4.16985 0
M  V30 4469 H 423.408 5.41002 4.40412 0
M  V30 4470 H 419.305 4.25893 4.85063 0
M  V30 4471 H 420.073 6.30085 5.22431 0
M  V30 4472 N 422.737 -1.36956 0.779787 0
M  V30 4473 C 423.985 -1.99097 0.347079 0
M  V30 4474 C 424.306 -1.62206 -1.08232 0
M  V30 4475 O 423.576 -0.891373 -1.74446 0
M  V30 4476 H 422.156 -0.736409 0.125342 0
M  V30 4477 H 424.818 -1.67308 0.999696 0
M  V30 4478 H 423.914 -3.09107 0.431162 0
M  V30 4479 N 424.215 -0.530993 -1.48385 0
M  V30 4480 C 425.492 0.0671788 -1.95485 0
M  V30 4481 C 425.872 1.51191 -1.47324 0
M  V30 4482 O 425.22 2.17507 -0.700202 0
M  V30 4483 C 425.43 -0.0511206 -3.48963 0
M  V30 4484 C 426.778 0.107632 -4.24464 0
M  V30 4485 O 427.802 0.0226248 -3.56193 0
M  V30 4486 O 426.661 0.285972 -5.45751 0
M  V30 4487 H 423.755 0.0787365 -0.823243 0
M  V30 4488 H 426.301 -0.595662 -1.58902 0
M  V30 4489 H 425.073 -1.05747 -3.7674 0
M  V30 4490 H 424.696 0.650525 -3.92242 0
M  V30 4491 N 425.693 1.55336 -0.266172 0
M  V30 4492 C 426.64 2.22172 0.625165 0
M  V30 4493 C 427.61 1.19211 1.15663 0
M  V30 4494 O 428.795 1.47723 1.20758 0
M  V30 4495 C 425.935 2.93972 1.8076 0
M  V30 4496 C 425.048 4.11632 1.31084 0
M  V30 4497 C 424.183 4.71099 2.45436 0
M  V30 4498 C 423.222 5.8097 1.92718 0
M  V30 4499 N 422.359 6.34538 3.00509 0
M  V30 4500 H 427.199 2.9796 0.0485582 0
M  V30 4501 H 424.736 1.47095 0.0122024 0
M  V30 4502 H 426.694 3.33811 2.50251 0
M  V30 4503 H 425.324 2.20623 2.35638 0
M  V30 4504 H 424.376 3.76975 0.509326 0
M  V30 4505 H 425.688 4.90893 0.884633 0
M  V30 4506 H 424.842 5.13612 3.22936 0
M  V30 4507 H 423.581 3.91096 2.91368 0
M  V30 4508 H 422.586 5.37916 1.13695 0
M  V30 4509 H 423.811 6.62836 1.47733 0
M  V30 4510 H 421.757 5.57433 3.45839 0
M  V30 4511 H 421.674 7.09046 2.62279 0
M  V30 4512 H 422.942 6.81709 3.78011 0
M  V30 4513 N 427.171 -0.0066808 1.57599 0
M  V30 4514 C 428.399 -0.704087 1.94551 0
M  V30 4515 C 428.814 -1.67677 0.867746 0
M  V30 4516 O 428.171 -1.8185 -0.153925 0
M  V30 4517 C 428.222 -1.44177 3.31505 0
M  V30 4518 O 427.943 -0.508097 4.35144 0
M  V30 4519 C 429.444 -2.23429 3.82876 0
M  V30 4520 H 426.664 -0.196523 0.641576 0
M  V30 4521 H 429.208 0.042453 2.04456 0
M  V30 4522 H 427.363 -2.13999 3.22929 0
M  V30 4523 H 427.777 -1.02782 5.14331 0
M  V30 4524 H 429.251 -2.70552 4.8115 0
M  V30 4525 H 429.728 -3.05818 3.15233 0
M  V30 4526 H 430.334 -1.58636 3.94607 0
M  V30 4527 N 428.649 -1.55105 -0.279332 0
M  V30 4528 C 430.06 -1.66186 -0.850832 0
M  V30 4529 C 430.411 -0.584707 -1.87285 0
M  V30 4530 O 429.536 0.274919 -2.14647 0
M  V30 4531 C 430.131 -3.01264 -1.55001 0
M  V30 4532 C 428.69 -3.14394 -2.06963 0
M  V30 4533 C 427.837 -2.61959 -0.909536 0
M  V30 4534 H 430.788 -1.58602 -0.0558235 0
M  V30 4535 H 430.809 -2.93899 -2.41669 0
M  V30 4536 H 430.321 -3.7964 -0.805931 0
M  V30 4537 H 428.422 -2.4078 -2.84352 0
M  V30 4538 H 428.535 -4.20867 -2.28928 0
M  V30 4539 H 426.899 -2.18957 -1.30116 0
M  V30 4540 H 427.682 -3.42833 -0.179062 0
M  V30 4541 N 430.127 0.543554 -1.4793 0
M  V30 4542 C 431.077 1.64527 -1.57844 0
M  V30 4543 C 432.061 1.54869 -0.436408 0
M  V30 4544 O 433.253 1.63119 -0.687101 0
M  V30 4545 C 430.382 3.03281 -1.6086 0
M  V30 4546 C 429.468 3.18093 -2.80495 0
M  V30 4547 N 429.859 3.02923 -4.05057 0
M  V30 4548 C 428.157 3.49121 -2.77543 0
M  V30 4549 C 428.858 3.20791 -4.85251 0
M  V30 4550 N 427.834 3.47749 -4.17818 0
M  V30 4551 H 431.636 1.51388 -2.5191 0
M  V30 4552 H 429.15 0.748671 -1.44113 0
M  V30 4553 H 431.147 3.82403 -1.66054 0
M  V30 4554 H 429.807 3.17521 -0.678996 0
M  V30 4555 H 430.818 2.79966 -4.35705 0
M  V30 4556 H 427.495 3.69804 -1.93781 0
M  V30 4557 H 428.885 3.13915 -5.9406 0
M  V30 4558 N 431.605 1.3629 0.791371 0
M  V30 4559 C 432.833 1.33562 1.58016 0
M  V30 4560 C 433.248 -0.0835616 1.88615 0
M  V30 4561 O 432.605 -1.0399 1.49974 0
M  V30 4562 C 432.656 2.15517 2.90232 0
M  V30 4563 O 432.377 3.51902 2.60953 0
M  V30 4564 C 433.878 2.20546 3.84544 0
M  V30 4565 H 431.098 0.458226 0.490173 0
M  V30 4566 H 433.642 1.79361 0.982345 0
M  V30 4567 H 431.797 1.73278 3.46487 0
M  V30 4568 H 432.211 3.94644 3.4548 0
M  V30 4569 H 433.685 2.82252 4.74382 0
M  V30 4570 H 434.162 1.20838 4.2225 0
M  V30 4571 H 434.768 2.63013 3.34222 0
M  V30 4572 N 433.083 -1.0153 1.20538 0
M  V30 4573 C 434.329 -1.75517 1.02787 0
M  V30 4574 C 434.684 -1.87411 -0.435289 0
M  V30 4575 O 433.977 -1.38982 -1.31889 0
M  V30 4576 C 434.171 -3.17213 1.64654 0
M  V30 4577 C 434 -3.19134 3.16834 0
M  V30 4578 C 432.77 -3.26301 3.85818 0
M  V30 4579 C 434.968 -3.05077 4.14044 0
M  V30 4580 N 432.95 -3.17739 5.25276 0
M  V30 4581 C 434.321 -3.04299 5.40187 0
M  V30 4582 C 436.376 -2.89303 4.05226 0
M  V30 4583 C 435.079 -2.89365 6.58529 0
M  V30 4584 C 437.105 -2.75723 5.23193 0
M  V30 4585 C 436.467 -2.75612 6.48242 0
M  V30 4586 H 432.566 -0.652919 0.430373 0
M  V30 4587 H 435.15 -1.20755 1.52729 0
M  V30 4588 H 433.321 -3.70266 1.17294 0
M  V30 4589 H 435.053 -3.79637 1.40208 0
M  V30 4590 H 431.808 -3.33078 3.36684 0
M  V30 4591 H 432.232 -3.16829 5.98288 0
M  V30 4592 H 436.874 -2.88201 3.09354 0
M  V30 4593 H 434.592 -2.89216 7.54573 0
M  V30 4594 H 438.178 -2.64533 5.18183 0
M  V30 4595 H 437.058 -2.65224 7.37988 0
M  V30 4596 N 434.561 -1.01147 -1.20859 0
M  V30 4597 C 435.491 -0.597663 -2.25722 0
M  V30 4598 C 436.472 0.384744 -1.65692 0
M  V30 4599 O 437.657 0.271303 -1.92296 0
M  V30 4600 C 434.787 0.0700149 -3.47229 0
M  V30 4601 C 433.741 -0.832843 -4.19819 0
M  V30 4602 C 433.067 -0.0312202 -5.34691 0
M  V30 4603 C 434.367 -2.1385 -4.76514 0
M  V30 4604 H 436.061 -1.47423 -2.60589 0
M  V30 4605 H 433.607 -0.710301 -1.25263 0
M  V30 4606 H 435.56 0.37103 -4.19763 0
M  V30 4607 H 434.284 0.981259 -3.11511 0
M  V30 4608 H 432.943 -1.11778 -3.49144 0
M  V30 4609 H 432.591 0.881515 -4.95215 0
M  V30 4610 H 432.291 -0.632434 -5.84187 0
M  V30 4611 H 433.815 0.26346 -6.10031 0
M  V30 4612 H 435.229 -1.9002 -5.40893 0
M  V30 4613 H 433.626 -2.69012 -5.36426 0
M  V30 4614 H 434.696 -2.80495 -3.95538 0
M  V30 4615 N 436.039 1.36541 -0.78704 0
M  V30 4616 C 437.287 1.98911 -0.357633 0
M  V30 4617 C 437.608 1.62778 1.07371 0
M  V30 4618 O 436.878 0.900612 1.73971 0
M  V30 4619 H 435.458 0.735734 -0.129246 0
M  V30 4620 H 438.12 1.66776 -1.00855 0
M  V30 4621 H 437.216 3.08874 -0.447549 0
M  V30 4622 N 437.518 0.538854 1.48102 0
M  V30 4623 C 438.934 0.19732 1.58376 0
M  V30 4624 C 439.134 -1.29971 1.5398 0
M  V30 4625 O 438.19 -2.07861 1.43352 0
M  V30 4626 C 439.503 0.807716 2.89649 0
M  V30 4627 C 441.051 0.77726 3.03196 0
M  V30 4628 C 441.526 1.36639 4.37143 0
M  V30 4629 N 443.017 1.32875 4.43732 0
M  V30 4630 C 443.752 1.7544 5.45901 0
M  V30 4631 N 443.248 2.25776 6.54979 0
M  V30 4632 N 445.041 1.66623 5.36836 0
M  V30 4633 H 437.192 1.5117 1.49202 0
M  V30 4634 H 439.455 0.629327 0.708979 0
M  V30 4635 H 439.161 1.85909 2.98548 0
M  V30 4636 H 439.035 0.289975 3.76084 0
M  V30 4637 H 441.422 -0.265374 2.93904 0
M  V30 4638 H 441.503 1.33256 2.18349 0
M  V30 4639 H 441.147 2.408 4.47189 0
M  V30 4640 H 441.077 0.786689 5.20691 0
M  V30 4641 H 443.568 0.96037 3.65493 0
M  V30 4642 H 443.881 2.56226 7.29087 0
M  V30 4643 H 442.226 2.29775 6.55918 0
M  V30 4644 H 445.417 1.27089 4.50517 0
M  V30 4645 H 445.59 2.00115 6.16326 0
M  V30 4646 N 438.996 -1.55193 0.274407 0
M  V30 4647 C 440.242 -1.99877 -0.343086 0
M  V30 4648 C 440.575 -1.16256 -1.55558 0
M  V30 4649 O 439.85 -0.232462 -1.93106 0
M  V30 4650 C 440.133 -3.52706 -0.725965 0
M  V30 4651 C 439.986 -4.47081 0.493818 0
M  V30 4652 C 441.305 -4.11422 -1.56268 0
M  V30 4653 H 438.424 -0.726625 -0.123229 0
M  V30 4654 H 441.066 -1.86136 0.38121 0
M  V30 4655 H 439.216 -3.64546 -1.34307 0
M  V30 4656 H 440.888 -4.47186 1.13237 0
M  V30 4657 H 439.131 -4.1877 1.13201 0
M  V30 4658 H 439.802 -5.51699 0.18217 0
M  V30 4659 H 442.278 -4.02855 -1.04151 0
M  V30 4660 H 441.154 -5.18568 -1.79939 0
M  V30 4661 H 441.415 -3.61607 -2.54348 0
M  V30 4662 N 440.474 -0.00167713 -1.576 0
M  V30 4663 C 441.404 0.988091 -2.11563 0
M  V30 4664 C 442.385 1.35736 -1.02517 0
M  V30 4665 O 443.57 1.44082 -1.30208 0
M  V30 4666 C 440.7 2.27941 -2.62031 0
M  V30 4667 C 439.654 2.0517 -3.75619 0
M  V30 4668 C 438.98 3.4033 -4.12407 0
M  V30 4669 C 440.28 1.41294 -5.02825 0
M  V30 4670 H 441.974 0.538771 -2.94513 0
M  V30 4671 H 439.52 0.257712 -1.41675 0
M  V30 4672 H 441.473 2.97539 -2.9841 0
M  V30 4673 H 440.197 2.74989 -1.76205 0
M  V30 4674 H 438.856 1.37998 -3.39635 0
M  V30 4675 H 438.504 3.85085 -3.23603 0
M  V30 4676 H 438.204 3.25909 -4.88935 0
M  V30 4677 H 439.728 4.1124 -4.51347 0
M  V30 4678 H 441.142 2.00851 -5.36965 0
M  V30 4679 H 439.539 1.37356 -5.84169 0
M  V30 4680 H 440.609 0.382362 -4.8339 0
M  V30 4681 N 441.952 1.55251 0.271103 0
M  V30 4682 C 442.915 1.87484 1.31842 0
M  V30 4683 C 443.915 0.749545 1.42262 0
M  V30 4684 O 445.105 1.01771 1.4138 0
M  V30 4685 C 442.237 2.0818 2.69951 0
M  V30 4686 H 443.43 2.81108 1.0449 0
M  V30 4687 H 440.983 1.47771 0.509258 0
M  V30 4688 H 441.718 1.16944 3.02481 0
M  V30 4689 H 441.503 2.90114 2.63774 0
M  V30 4690 H 442.993 2.34385 3.4562 0
M  V30 4691 N 443.43 -0.535701 1.48216 0
M  V30 4692 C 444.393 -1.623 1.61838 0
M  V30 4693 C 445.393 -1.53087 0.492024 0
M  V30 4694 O 446.583 -1.5686 0.757668 0
M  V30 4695 C 443.715 -3.01907 1.58319 0
M  V30 4696 H 444.908 -1.51564 2.58783 0
M  V30 4697 H 442.461 -0.757317 1.36727 0
M  V30 4698 H 443.196 -3.18155 0.628299 0
M  V30 4699 H 442.981 -3.10003 2.40085 0
M  V30 4700 H 444.471 -3.80969 1.71033 0
M  V30 4701 N 444.908 -1.36708 -0.784132 0
M  V30 4702 C 446.156 -1.30972 -1.53918 0
M  V30 4703 C 446.477 0.109086 -1.94695 0
M  V30 4704 O 445.747 1.05048 -1.65353 0
M  V30 4705 H 444.327 -0.481819 -0.570841 0
M  V30 4706 H 446.989 -1.71063 -0.934002 0
M  V30 4707 H 446.085 -1.94061 -2.44431 0
M  V30 4708 N 446.386 1.0089 -1.21074 0
M  V30 4709 C 447.633 1.74607 -1.0256 0
M  V30 4710 C 447.961 1.89426 0.44136 0
M  V30 4711 O 447.216 1.42266 1.34384 0
M  V30 4712 C 447.515 3.16335 -1.66334 0
M  V30 4713 C 447.181 3.21474 -3.16173 0
M  V30 4714 C 445.843 3.22583 -3.57062 0
M  V30 4715 C 448.195 3.19025 -4.12156 0
M  V30 4716 C 445.523 3.18925 -4.92446 0
M  V30 4717 C 447.875 3.16909 -5.47496 0
M  V30 4718 C 446.539 3.16326 -5.87787 0
M  V30 4719 H 445.809 0.638933 -0.375294 0
M  V30 4720 H 448.456 1.18274 -1.50611 0
M  V30 4721 H 446.761 3.75876 -1.10566 0
M  V30 4722 H 448.458 3.72083 -1.49516 0
M  V30 4723 H 445.048 3.2135 -2.83605 0
M  V30 4724 H 449.232 3.17332 -3.81595 0
M  V30 4725 H 444.488 3.16809 -5.22917 0
M  V30 4726 H 448.662 3.13968 -6.21609 0
M  V30 4727 H 446.289 3.13246 -6.92662 0
M  V30 4728 N 447.864 1.01787 1.20321 0
M  V30 4729 C 448.827 0.593972 2.2137 0
M  V30 4730 C 449.827 -0.336553 1.57239 0
M  V30 4731 O 451.017 -0.125069 1.7375 0
M  V30 4732 C 448.149 -0.132433 3.40643 0
M  V30 4733 H 449.342 1.48791 2.60387 0
M  V30 4734 H 446.895 0.807803 1.33807 0
M  V30 4735 H 447.63 -1.04123 3.0713 0
M  V30 4736 H 447.415 0.53605 3.88418 0
M  V30 4737 H 448.905 -0.416314 4.1552 0
M  V30 4738 N 449.342 -1.36122 0.79427 0
M  V30 4739 C 450.272 -2.32551 0.210328 0
M  V30 4740 C 451.253 -1.56884 -0.657386 0
M  V30 4741 O 452.438 -1.85014 -0.590207 0
M  V30 4742 C 449.568 -3.41128 -0.651819 0
M  V30 4743 C 448.522 -4.27842 0.116395 0
M  V30 4744 C 447.848 -5.2763 -0.86666 0
M  V30 4745 C 449.148 -5.05647 1.30837 0
M  V30 4746 H 450.842 -2.81636 1.01594 0
M  V30 4747 H 448.388 -1.35407 0.489981 0
M  V30 4748 H 450.341 -4.07581 -1.07031 0
M  V30 4749 H 449.065 -2.90622 -1.49019 0
M  V30 4750 H 447.724 -3.62952 0.515915 0
M  V30 4751 H 447.372 -4.73395 -1.70019 0
M  V30 4752 H 447.072 -5.86514 -0.35705 0
M  V30 4753 H 448.596 -5.96955 -1.28361 0
M  V30 4754 H 450.01 -5.65113 0.965393 0
M  V30 4755 H 448.407 -5.73967 1.75161 0
M  V30 4756 H 449.477 -4.37006 2.10128 0
M  V30 4757 N 450.82 -0.546701 -1.47814 0
M  V30 4758 C 451.75 0.195317 -2.32682 0
M  V30 4759 C 452.731 0.918981 -1.43139 0
M  V30 4760 O 453.916 0.901501 -1.72008 0
M  V30 4761 C 451.046 1.23237 -3.247 0
M  V30 4762 C 450 0.625818 -4.234 0
M  V30 4763 C 449.326 1.76674 -5.04669 0
M  V30 4764 C 450.626 -0.413515 -5.2066 0
M  V30 4765 H 452.32 -0.513184 -2.94969 0
M  V30 4766 H 449.866 -0.248241 -1.41844 0
M  V30 4767 H 451.819 1.75955 -3.82907 0
M  V30 4768 H 450.543 1.97067 -2.60446 0
M  V30 4769 H 449.202 0.120023 -3.66403 0
M  V30 4770 H 448.85 2.49383 -4.36826 0
M  V30 4771 H 448.55 1.36673 -5.71484 0
M  V30 4772 H 450.074 2.29738 -5.65732 0
M  V30 4773 H 451.488 0.0272042 -5.73294 0
M  V30 4774 H 449.885 -0.731825 -5.95621 0
M  V30 4775 H 450.955 -1.31325 -4.66778 0
M  V30 4776 N 452.299 1.55045 -0.282633 0
M  V30 4777 C 453.547 1.99365 0.331334 0
M  V30 4778 C 453.868 1.1725 1.55812 0
M  V30 4779 O 453.138 0.263871 1.94115 0
M  V30 4780 H 451.718 0.736397 0.125414 0
M  V30 4781 H 454.38 1.90964 -0.389711 0
M  V30 4782 H 453.476 3.0596 0.616036 0
M  V30 4783 N 453.777 0.010035 1.57597 0
M  V30 4784 C 455.026 -0.671945 1.90178 0
M  V30 4785 C 455.339 -1.74376 0.886131 0
M  V30 4786 O 456.545 -2.48107 1.10252 0
M  V30 4787 C 455.001 -1.24636 3.3763 0
M  V30 4788 C 454.609 -0.208838 4.47513 0
M  V30 4789 C 456.353 -1.90595 3.79307 0
M  V30 4790 C 454.26 -0.793814 5.86048 0
M  V30 4791 H 453.19 -0.25474 0.709665 0
M  V30 4792 H 455.841 0.0722206 1.83358 0
M  V30 4793 H 454.223 -2.04152 3.3932 0
M  V30 4794 H 455.397 0.562463 4.57354 0
M  V30 4795 H 453.712 0.350889 4.14919 0
M  V30 4796 H 456.309 -2.35284 4.80151 0
M  V30 4797 H 456.652 -2.74074 3.13352 0
M  V30 4798 H 457.185 -1.17798 3.79958 0
M  V30 4799 H 453.924 0.00240855 6.555 0
M  V30 4800 H 453.444 -1.53404 5.79851 0
M  V30 4801 H 455.123 -1.2894 6.34022 0
M  V30 4802 N 455.255 -1.55392 -0.262866 0
M  V30 4803 C 456.48 -1.80847 -1.01533 0
M  V30 4804 C 456.905 -0.584946 -1.78774 0
M  V30 4805 O 456.263 0.465701 -1.75217 0
M  V30 4806 C 456.311 -3.03866 -1.94159 0
M  V30 4807 O 455.415 -2.79662 -3.03089 0
M  V30 4808 H 454.756 -0.597441 -0.289759 0
M  V30 4809 H 457.286 -2.02553 -0.288698 0
M  V30 4810 H 457.296 -3.32872 -2.35924 0
M  V30 4811 H 455.971 -3.92564 -1.37354 0
M  V30 4812 H 454.548 -2.61781 -2.65566 0
M  V30 4813 N 456.733 0.527833 -1.48498 0
M  V30 4814 C 457.98 1.28354 -1.56625 0
M  V30 4815 C 458.308 1.93 -0.241096 0
M  V30 4816 O 457.563 1.79967 0.768798 0
M  V30 4817 C 457.862 2.39275 -2.65485 0
M  V30 4818 C 457.528 1.92268 -4.07853 0
M  V30 4819 C 456.19 1.79166 -4.46602 0
M  V30 4820 C 458.542 1.56771 -4.97064 0
M  V30 4821 C 455.87 1.28905 -5.72364 0
M  V30 4822 C 458.222 1.07972 -6.23318 0
M  V30 4823 C 456.886 0.934887 -6.60921 0
M  V30 4824 H 456.156 0.469682 -0.573131 0
M  V30 4825 H 458.803 0.588781 -1.82224 0
M  V30 4826 H 457.108 3.1443 -2.33754 0
M  V30 4827 H 458.805 2.974 -2.68988 0
M  V30 4828 H 455.395 2.03417 -3.77252 0
M  V30 4829 H 459.579 1.65753 -4.67803 0
M  V30 4830 H 454.835 1.16381 -6.00221 0
M  V30 4831 H 459.009 0.795775 -6.91838 0
M  V30 4832 H 456.636 0.543231 -7.58257 0
M  V30 4833 N 458.211 1.37122 0.776871 0
M  V30 4834 C 459.458 1.32047 1.53524 0
M  V30 4835 C 459.786 -0.0965631 1.9426 0
M  V30 4836 O 459.041 -1.06866 1.63945 0
M  V30 4837 C 459.34 2.20068 2.81611 0
M  V30 4838 C 459.006 3.68423 2.59953 0
M  V30 4839 C 457.668 4.08854 2.53755 0
M  V30 4840 C 460.02 4.62431 2.40431 0
M  V30 4841 C 457.348 5.41417 2.26018 0
M  V30 4842 C 459.7 5.95225 2.14219 0
M  V30 4843 C 458.364 6.34767 2.06462 0
M  V30 4844 H 457.634 0.483196 0.561785 0
M  V30 4845 H 460.281 1.69284 0.895268 0
M  V30 4846 H 458.586 1.75809 3.50141 0
M  V30 4847 H 460.283 2.13458 3.39465 0
M  V30 4848 H 456.873 3.36354 2.65638 0
M  V30 4849 H 461.057 4.32057 2.44213 0
M  V30 4850 H 456.313 5.71022 2.18504 0
M  V30 4851 H 460.487 6.67626 1.98112 0
M  V30 4852 H 458.114 7.37413 1.84733 0
M  V30 4853 N 459.689 -1.00246 1.21608 0
M  V30 4854 C 460.652 -2.07233 0.979133 0
M  V30 4855 C 461.652 -1.6072 -0.0508219 0
M  V30 4856 O 462.842 -1.73196 0.186712 0
M  V30 4857 C 459.974 -3.37546 0.477016 0
M  V30 4858 H 461.167 -2.29687 1.92831 0
M  V30 4859 H 458.72 -1.17261 1.03342 0
M  V30 4860 H 459.455 -3.20773 -0.476966 0
M  V30 4861 H 459.24 -3.72638 1.21997 0
M  V30 4862 H 460.73 -4.16285 0.331181 0
M  V30 4863 N 461.167 -1.02423 -1.1978 0
M  V30 4864 C 462.097 -0.62157 -2.25075 0
M  V30 4865 C 463.078 0.367148 -1.6609 0
M  V30 4866 O 464.263 0.250892 -1.92573 0
M  V30 4867 C 461.393 0.0331826 -3.47284 0
M  V30 4868 C 460.347 -0.877323 -4.18912 0
M  V30 4869 C 459.673 -0.0879296 -5.34628 0
M  V30 4870 C 460.973 -2.18892 -4.74219 0
M  V30 4871 H 462.667 -1.50179 -2.59011 0
M  V30 4872 H 460.213 -0.723547 -1.24502 0
M  V30 4873 H 462.166 0.326488 -4.20133 0
M  V30 4874 H 460.89 0.948164 -3.12534 0
M  V30 4875 H 459.549 -1.15475 -3.47938 0
M  V30 4876 H 459.197 0.828941 -4.96123 0
M  V30 4877 H 458.897 -0.694359 -5.83483 0
M  V30 4878 H 460.421 0.198743 -6.10276 0
M  V30 4879 H 461.835 -1.95746 -5.38847 0
M  V30 4880 H 460.232 -2.74686 -5.33542 0
M  V30 4881 H 461.302 -2.84674 -3.92541 0
M  V30 4882 N 462.645 1.35699 -0.801477 0
M  V30 4883 C 464.056 1.81415 -0.441073 0
M  V30 4884 C 464.407 1.66595 1.03636 0
M  V30 4885 O 463.532 1.19369 1.80499 0
M  V30 4886 C 464.127 3.29369 -0.793819 0
M  V30 4887 C 462.686 3.73248 -0.486083 0
M  V30 4888 C 461.833 2.57775 -1.02213 0
M  V30 4889 H 464.784 1.23749 -0.993572 0
M  V30 4890 H 464.805 3.80395 -0.0894158 0
M  V30 4891 H 464.317 3.40123 -1.86917 0
M  V30 4892 H 462.418 3.68046 0.580735 0
M  V30 4893 H 462.531 4.68222 -1.01513 0
M  V30 4894 H 460.895 2.50788 -0.444712 0
M  V30 4895 H 461.678 2.71309 -2.10348 0
M  V30 4896 N 464.123 0.554532 1.47522 0
M  V30 4897 C 465.086 -0.184174 2.28459 0
M  V30 4898 C 466.086 -0.845195 1.36796 0
M  V30 4899 O 467.276 -0.701467 1.59452 0
M  V30 4900 C 464.408 -1.26903 3.16399 0
M  V30 4901 H 465.601 0.526751 2.95238 0
M  V30 4902 H 463.154 0.311375 1.53167 0
M  V30 4903 H 463.889 -2.01244 2.54306 0
M  V30 4904 H 463.674 -0.799883 3.83854 0
M  V30 4905 H 465.164 -1.78794 3.77389 0
M  V30 4906 N 465.601 -1.54893 0.290851 0
M  V30 4907 C 466.849 -1.99538 -0.320756 0
M  V30 4908 C 467.17 -1.18075 -1.55188 0
M  V30 4909 O 466.44 -0.274162 -1.93972 0
M  V30 4910 H 465.02 -0.737052 -0.121507 0
M  V30 4911 H 467.682 -1.90755 0.399832 0
M  V30 4912 H 466.778 -3.06282 -0.599802 0
M  V30 4913 N 467.08 -0.0183926 -1.57589 0
M  V30 4914 C 468.329 0.66185 -1.90532 0
M  V30 4915 C 468.642 1.73904 -0.895366 0
M  V30 4916 O 469.848 2.47518 -1.11566 0
M  V30 4917 C 468.304 1.22844 -3.38286 0
M  V30 4918 C 467.912 0.185103 -4.47617 0
M  V30 4919 C 469.656 1.88581 -3.80312 0
M  V30 4920 C 467.563 0.762723 -5.86461 0
M  V30 4921 H 466.493 0.250972 -0.711006 0
M  V30 4922 H 469.144 -0.0819435 -1.83317 0
M  V30 4923 H 467.526 2.0235 -3.40398 0
M  V30 4924 H 468.7 -0.58671 -4.5705 0
M  V30 4925 H 467.015 -0.372889 -4.14727 0
M  V30 4926 H 469.612 2.32735 -4.81392 0
M  V30 4927 H 469.955 2.72408 -3.14801 0
M  V30 4928 H 470.488 1.15782 -3.80578 0
M  V30 4929 H 467.227 -0.0371713 -6.55489 0
M  V30 4930 H 466.747 1.50327 -5.80656 0
M  V30 4931 H 468.426 1.25576 -6.34697 0
M  V30 4932 N 468.558 1.5553 0.254621 0
M  V30 4933 C 469.488 1.9268 1.31897 0
M  V30 4934 C 470.469 0.790797 1.506 0
M  V30 4935 O 471.654 1.05045 1.63337 0
M  V30 4936 C 468.784 2.21477 2.67517 0
M  V30 4937 C 467.738 3.37256 2.63519 0
M  V30 4938 C 467.064 3.51576 4.02862 0
M  V30 4939 C 468.364 4.73157 2.21179 0
M  V30 4940 H 470.058 2.81832 1.01051 0
M  V30 4941 H 467.604 1.35599 0.484662 0
M  V30 4942 H 469.557 2.46055 3.42104 0
M  V30 4943 H 468.281 1.29144 2.99982 0
M  V30 4944 H 466.94 3.12675 1.9139 0
M  V30 4945 H 466.588 2.56676 4.32581 0
M  V30 4946 H 466.288 4.2943 4.01078 0
M  V30 4947 H 467.812 3.78467 4.79161 0
M  V30 4948 H 469.226 4.97158 2.85494 0
M  V30 4949 H 467.623 5.54058 2.30521 0
M  V30 4950 H 468.693 4.70739 1.16332 0
M  V30 4951 N 470.036 -0.519951 1.48776 0
M  V30 4952 C 471.284 -1.2727 1.56993 0
M  V30 4953 C 471.605 -1.9339 0.25004 0
M  V30 4954 O 470.875 -1.81822 -0.729216 0
M  V30 4955 H 469.455 -0.472732 0.578389 0
M  V30 4956 H 472.117 -0.604234 1.85297 0
M  V30 4957 H 471.213 -2.04669 2.3562 0
M  V30 4958 N 471.514 -1.37532 -0.769588 0
M  V30 4959 C 472.739 -1.36231 -1.56384 0
M  V30 4960 C 473.164 0.0495849 -1.88035 0
M  V30 4961 O 472.522 1.02723 -1.49391 0
M  V30 4962 C 472.57 -2.20986 -2.84952 0
M  V30 4963 O 471.674 -1.61597 -3.79421 0
M  V30 4964 H 471.015 -0.465387 -0.473615 0
M  V30 4965 H 473.545 -1.81085 -0.952342 0
M  V30 4966 H 473.555 -2.34277 -3.34034 0
M  V30 4967 H 472.23 -3.23612 -2.61243 0
M  V30 4968 H 470.807 -1.57359 -3.38072 0
M  V30 4969 N 472.992 0.995999 -1.22138 0
M  V30 4970 C 474.24 1.73167 -1.042 0
M  V30 4971 C 474.561 1.90329 0.42423 0
M  V30 4972 O 473.831 1.4607 1.30539 0
M  V30 4973 H 472.411 0.641593 -0.38258 0
M  V30 4974 H 475.073 1.19974 -1.53598 0
M  V30 4975 H 474.169 2.72734 -1.51731 0
M  V30 4976 N 474.47 1.03057 1.19235 0
M  V30 4977 C 475.717 0.728019 1.88961 0
M  V30 4978 C 476.045 -0.743515 1.79728 0
M  V30 4979 O 475.3 -1.55729 1.1852 0
M  V30 4980 C 475.599 1.1268 3.39172 0
M  V30 4981 C 475.265 2.5969 3.68608 0
M  V30 4982 C 473.927 2.99854 3.76352 0
M  V30 4983 C 476.279 3.54793 3.81801 0
M  V30 4984 C 473.607 4.34031 3.94758 0
M  V30 4985 C 475.959 4.88675 4.0172 0
M  V30 4986 C 474.623 5.28526 4.07697 0
M  V30 4987 H 473.893 0.266401 0.691456 0
M  V30 4988 H 476.54 1.29373 1.41191 0
M  V30 4989 H 474.845 0.479722 3.88852 0
M  V30 4990 H 476.542 0.870203 3.91444 0
M  V30 4991 H 473.132 2.27575 3.63191 0
M  V30 4992 H 477.316 3.24914 3.7516 0
M  V30 4993 H 472.572 4.6444 3.97625 0
M  V30 4994 H 476.746 5.6228 4.1087 0
M  V30 4995 H 474.373 6.32506 4.21712 0
M  V30 4996 N 475.948 -1.35272 0.808662 0
M  V30 4997 C 476.911 -2.28082 0.226093 0
M  V30 4998 C 477.911 -1.49673 -0.587762 0
M  V30 4999 O 479.101 -1.69404 -0.405943 0
M  V30 5000 C 476.233 -3.33955 -0.684596 0
M  V30 5001 H 477.426 -2.81116 1.04469 0
M  V30 5002 H 474.979 -1.45162 0.579466 0
M  V30 5003 H 475.714 -2.86111 -1.5268 0
M  V30 5004 H 475.499 -3.91965 -0.102699 0
M  V30 5005 H 476.989 -4.03219 -1.08646 0
M  V30 5006 N 477.426 -0.562348 -1.47226 0
M  V30 5007 C 478.356 0.170627 -2.32876 0
M  V30 5008 C 479.337 0.903748 -1.44106 0
M  V30 5009 O 480.522 0.883206 -1.72954 0
M  V30 5010 C 477.652 1.19786 -3.25989 0
M  V30 5011 C 476.606 0.580875 -4.2404 0
M  V30 5012 C 475.932 1.71311 -5.06514 0
M  V30 5013 C 477.232 -0.468714 -5.20193 0
M  V30 5014 H 478.926 -0.544441 -2.94408 0
M  V30 5015 H 476.472 -0.263271 -1.41573 0
M  V30 5016 H 478.425 1.71884 -3.84752 0
M  V30 5017 H 477.149 1.94294 -2.62521 0
M  V30 5018 H 475.808 0.0811538 -3.6651 0
M  V30 5019 H 475.456 2.44736 -4.39447 0
M  V30 5020 H 475.156 1.30604 -5.72902 0
M  V30 5021 H 476.68 2.23725 -5.68137 0
M  V30 5022 H 478.094 -0.0336028 -5.7329 0
M  V30 5023 H 476.491 -0.794957 -5.94811 0
M  V30 5024 H 477.561 -1.36269 -4.65359 0
M  V30 5025 N 478.904 1.54736 -0.299062 0
M  V30 5026 C 479.851 2.23448 0.577899 0
M  V30 5027 C 480.821 1.21637 1.13109 0
M  V30 5028 O 482.006 1.50252 1.17597 0
M  V30 5029 C 479.146 2.9774 1.74484 0
M  V30 5030 C 478.259 4.1432 1.22323 0
M  V30 5031 C 477.394 4.76199 2.35388 0
M  V30 5032 C 476.433 5.84927 1.80351 0
M  V30 5033 N 475.57 6.4077 2.86982 0
M  V30 5034 H 480.41 2.97996 -0.0146545 0
M  V30 5035 H 477.947 1.47088 -0.0190013 0
M  V30 5036 H 479.905 3.39045 2.43114 0
M  V30 5037 H 478.535 2.25572 2.30905 0
M  V30 5038 H 477.587 3.7797 0.429249 0
M  V30 5039 H 478.899 4.92659 0.780309 0
M  V30 5040 H 478.053 5.20346 3.11969 0
M  V30 5041 H 476.792 3.97188 2.83006 0
M  V30 5042 H 475.797 5.40207 1.02259 0
M  V30 5043 H 477.022 6.65821 1.3364 0
M  V30 5044 H 474.968 5.64643 3.33938 0
M  V30 5045 H 474.885 7.1445 2.4718 0
M  V30 5046 H 476.153 6.89574 3.63466 0
M  V30 5047 N 480.382 0.0267497 1.57577 0
M  V30 5048 C 481.628 -0.653371 1.91987 0
M  V30 5049 C 481.961 -1.71915 0.903263 0
M  V30 5050 O 481.236 -1.94358 -0.0743387 0
M  V30 5051 C 481.519 -1.272 3.36886 0
M  V30 5052 C 481.372 -0.215938 4.49281 0
M  V30 5053 C 482.691 -2.19069 3.81703 0
M  V30 5054 H 479.81 -0.236047 0.698177 0
M  V30 5055 H 482.452 0.0835236 1.89816 0
M  V30 5056 H 480.602 -1.90005 3.38866 0
M  V30 5057 H 482.274 0.41449 4.59434 0
M  V30 5058 H 480.517 0.458855 4.31366 0
M  V30 5059 H 481.188 -0.688347 5.47691 0
M  V30 5060 H 483.664 -1.66253 3.81444 0
M  V30 5061 H 482.54 -2.59307 4.83788 0
M  V30 5062 H 482.801 -3.08087 3.17072 0
M  V30 5063 N 481.861 -1.55662 -0.24637 0
M  V30 5064 C 482.793 -1.86811 -1.32794 0
M  V30 5065 C 483.806 -0.754413 -1.44265 0
M  V30 5066 O 484.995 -1.03253 -1.45606 0
M  V30 5067 C 482.095 -2.0397 -2.70646 0
M  V30 5068 C 481.268 -3.34832 -2.81436 0
M  V30 5069 C 480.327 -3.41727 -4.00136 0
M  V30 5070 O 479.353 -4.14934 -3.89639 0
M  V30 5071 N 480.555 -2.71058 -5.1333 0
M  V30 5072 H 483.32 -2.80174 -1.06409 0
M  V30 5073 H 480.881 -1.55906 -0.43647 0
M  V30 5074 H 482.873 -2.05924 -3.48393 0
M  V30 5075 H 481.443 -1.1735 -2.89738 0
M  V30 5076 H 480.663 -3.4519 -1.90361 0
M  V30 5077 H 481.951 -4.21085 -2.85595 0
M  V30 5078 H 481.349 -2.11314 -5.2475 0
M  V30 5079 H 479.906 -2.78704 -5.89209 0
M  V30 5080 N 483.339 0.512053 -1.4905 0
M  V30 5081 C 484.249 1.64139 -1.67617 0
M  V30 5082 C 485.265 1.64786 -0.558701 0
M  V30 5083 O 486.441 1.8341 -0.832034 0
M  V30 5084 C 483.506 3.00548 -1.72835 0
M  V30 5085 C 482.567 3.10615 -2.96339 0
M  V30 5086 C 481.8 4.40517 -3.01298 0
M  V30 5087 O 482.023 5.28671 -2.14157 0
M  V30 5088 O 480.957 4.55325 -3.93653 0
M  V30 5089 H 484.783 1.51407 -2.63267 0
M  V30 5090 H 482.368 0.687131 -1.32661 0
M  V30 5091 H 484.25 3.81641 -1.78683 0
M  V30 5092 H 482.925 3.13566 -0.803616 0
M  V30 5093 H 481.832 2.2875 -2.96014 0
M  V30 5094 H 483.165 3.0252 -3.88256 0
M  V30 5095 N 484.817 1.37938 0.762283 0
M  V30 5096 C 485.749 1.30349 1.88525 0
M  V30 5097 C 486.762 0.217402 1.61342 0
M  V30 5098 O 487.951 0.474291 1.72084 0
M  V30 5099 C 485.051 0.994844 3.23969 0
M  V30 5100 C 484.224 2.18829 3.78725 0
M  V30 5101 C 483.283 1.84844 4.92665 0
M  V30 5102 O 482.309 2.57244 5.07754 0
M  V30 5103 N 483.511 0.798201 5.74986 0
M  V30 5104 H 486.276 2.27114 1.95549 0
M  V30 5105 H 483.837 1.31686 0.941825 0
M  V30 5106 H 485.829 0.748168 3.97724 0
M  V30 5107 H 484.399 0.115446 3.12387 0
M  V30 5108 H 483.619 2.59615 2.96637 0
M  V30 5109 H 484.907 2.98497 4.1204 0
M  V30 5110 H 484.305 0.197611 5.65355 0
M  V30 5111 H 482.862 0.611396 6.48926 0
M  V30 5112 N 486.295 -0.989507 1.22664 0
M  V30 5113 C 487.245 -2.06478 0.967005 0
M  V30 5114 C 488.229 -1.60682 -0.0836374 0
M  V30 5115 O 489.421 -1.76541 0.127322 0
M  V30 5116 C 486.55 -3.38861 0.550313 0
M  V30 5117 C 485.636 -3.9128 1.63587 0
M  V30 5118 N 486.027 -4.16884 2.86429 0
M  V30 5119 C 484.325 -4.1972 1.50834 0
M  V30 5120 C 485.026 -4.5954 3.56648 0
M  V30 5121 N 484.002 -4.63434 2.84131 0
M  V30 5122 H 487.804 -2.24219 1.90008 0
M  V30 5123 H 485.318 -1.17153 1.12467 0
M  V30 5124 H 487.315 -4.15465 0.345612 0
M  V30 5125 H 485.975 -3.22518 -0.375822 0
M  V30 5126 H 486.986 -4.04976 3.22823 0
M  V30 5127 H 483.663 -4.1243 0.648643 0
M  V30 5128 H 485.053 -4.87944 4.61909 0
M  V30 5129 N 487.773 -1.03688 -1.18687 0
M  V30 5130 C 489.189 -0.755413 -1.4059 0
M  V30 5131 C 489.389 0.656659 -1.905 0
M  V30 5132 O 488.445 1.42144 -2.08689 0
M  V30 5133 C 489.758 -1.7983 -2.41001 0
M  V30 5134 C 491.306 -1.81877 -2.54735 0
M  V30 5135 C 491.781 -2.85148 -3.58406 0
M  V30 5136 N 493.272 -2.84015 -3.6591 0
M  V30 5137 C 494.007 -3.60573 -4.45841 0
M  V30 5138 N 493.503 -4.46871 -5.29413 0
M  V30 5139 N 495.296 -3.49079 -4.40568 0
M  V30 5140 H 487.447 -1.94818 -0.846148 0
M  V30 5141 H 489.71 -0.842727 -0.434184 0
M  V30 5142 H 489.416 -2.81097 -2.1137 0
M  V30 5143 H 489.29 -1.62727 -3.40294 0
M  V30 5144 H 491.677 -0.812836 -2.83685 0
M  V30 5145 H 491.758 -2.03057 -1.55568 0
M  V30 5146 H 491.402 -3.85918 -3.30197 0
M  V30 5147 H 491.332 -2.61224 -4.57241 0
M  V30 5148 H 493.823 -2.21431 -3.0623 0
M  V30 5149 H 494.136 -5.02007 -5.87545 0
M  V30 5150 H 492.481 -4.5094 -5.28846 0
M  V30 5151 H 495.672 -2.81066 -3.74325 0
M  V30 5152 H 495.845 -4.08994 -5.02621 0
M  V30 5153 N 489.251 1.34841 -0.815825 0
M  V30 5154 C 490.183 2.28409 -0.190265 0
M  V30 5155 C 491.196 1.50705 0.615771 0
M  V30 5156 O 492.385 1.72822 0.446616 0
M  V30 5157 C 489.485 3.30441 0.752446 0
M  V30 5158 C 488.658 4.37399 -0.00922152 0
M  V30 5159 C 487.717 5.19234 0.853351 0
M  V30 5160 O 486.743 5.68404 0.300919 0
M  V30 5161 N 487.945 5.38248 2.17416 0
M  V30 5162 H 490.71 2.82732 -0.994114 0
M  V30 5163 H 488.271 1.47289 -0.672129 0
M  V30 5164 H 490.263 3.82084 1.33394 0
M  V30 5165 H 488.833 2.76565 1.45707 0
M  V30 5166 H 488.053 3.86567 -0.771979 0
M  V30 5167 H 489.341 5.05992 -0.533807 0
M  V30 5168 H 488.739 4.99961 2.6468 0
M  V30 5169 H 487.296 5.93035 2.70467 0
M  V30 5170 N 490.729 0.570148 1.46925 0
M  V30 5171 C 491.676 -0.170257 2.30171 0
M  V30 5172 C 492.646 -0.896099 1.39855 0
M  V30 5173 O 493.831 -0.889248 1.68811 0
M  V30 5174 C 490.971 -1.18605 3.24079 0
M  V30 5175 C 490.084 -0.464947 4.29491 0
M  V30 5176 C 489.219 -1.46716 5.10537 0
M  V30 5177 C 488.258 -0.731758 6.0771 0
M  V30 5178 N 487.395 -1.68142 6.81669 0
M  V30 5179 H 492.235 0.545713 2.92961 0
M  V30 5180 H 489.772 0.280938 1.44392 0
M  V30 5181 H 491.73 -1.78771 3.76957 0
M  V30 5182 H 490.36 -1.86989 2.63125 0
M  V30 5183 H 489.412 0.251506 3.79568 0
M  V30 5184 H 490.724 0.110548 4.98677 0
M  V30 5185 H 489.878 -2.14199 5.6763 0
M  V30 5186 H 488.617 -2.07658 4.41282 0
M  V30 5187 H 487.622 -0.0430787 5.49783 0
M  V30 5188 H 488.847 -0.127904 6.7898 0
M  V30 5189 H 486.793 -2.27918 6.15134 0
M  V30 5190 H 486.71 -1.15841 7.47072 0
M  V30 5191 H 487.978 -2.347 7.43328 0
M  V30 5192 N 492.207 -1.54576 0.307264 0
M  V30 5193 C 493.157 -2.20467 -0.581249 0
M  V30 5194 C 494.141 -1.17972 -1.09414 0
M  V30 5195 O 495.333 -1.43667 -1.03387 0
M  V30 5196 C 492.462 -2.95369 -1.74963 0
M  V30 5197 C 491.548 -4.05186 -1.25241 0
M  V30 5198 N 491.939 -5.03577 -0.47364 0
M  V30 5199 C 490.237 -4.18841 -1.53259 0
M  V30 5200 C 490.938 -5.81328 -0.208083 0
M  V30 5201 N 489.914 -5.37834 -0.789651 0
M  V30 5202 H 493.716 -2.93892 0.0212221 0
M  V30 5203 H 491.23 -1.62011 0.112325 0
M  V30 5204 H 493.227 -3.41046 -2.39777 0
M  V30 5205 H 491.887 -2.23461 -2.35574 0
M  V30 5206 H 492.898 -5.17766 -0.117963 0
M  V30 5207 H 489.575 -3.58141 -2.14573 0
M  V30 5208 H 490.965 -6.706 0.417793 0
M  V30 5209 N 493.685 -0.035106 -1.57561 0
M  V30 5210 C 494.932 0.642229 -1.92046 0
M  V30 5211 C 495.26 1.7179 -0.91206 0
M  V30 5212 O 494.515 1.95544 0.0781153 0
M  V30 5213 C 494.814 1.29149 -3.3325 0
M  V30 5214 C 494.48 0.345604 -4.49574 0
M  V30 5215 C 493.142 0.0852775 -4.81124 0
M  V30 5216 C 495.494 -0.303569 -5.20315 0
M  V30 5217 C 492.822 -0.831927 -5.80772 0
M  V30 5218 C 495.174 -1.20886 -6.20942 0
M  V30 5219 C 493.838 -1.47802 -6.50931 0
M  V30 5220 H 493.108 0.235008 -0.702746 0
M  V30 5221 H 495.755 -0.0981529 -1.91248 0
M  V30 5222 H 494.06 2.10676 -3.30337 0
M  V30 5223 H 495.757 1.82223 -3.57205 0
M  V30 5224 H 492.347 0.558683 -4.24943 0
M  V30 5225 H 496.531 -0.115515 -4.96166 0
M  V30 5226 H 491.787 -1.0481 -6.02349 0
M  V30 5227 H 495.961 -1.71804 -6.74875 0
M  V30 5228 H 493.588 -2.19039 -7.2796 0
M  V30 5229 N 495.163 1.55791 0.238111 0
M  V30 5230 C 496.073 1.94196 1.31625 0
M  V30 5231 C 497.089 0.843545 1.52185 0
M  V30 5232 O 498.265 1.1457 1.65637 0
M  V30 5233 C 495.33 2.2365 2.64918 0
M  V30 5234 C 494.391 3.46971 2.52804 0
M  V30 5235 C 493.624 3.7501 3.79741 0
M  V30 5236 O 493.847 3.04982 4.82019 0
M  V30 5237 O 492.781 4.68525 3.77846 0
M  V30 5238 H 496.607 2.86044 1.02043 0
M  V30 5239 H 494.192 1.42786 0.439603 0
M  V30 5240 H 496.074 2.43863 3.4367 0
M  V30 5241 H 494.749 1.34979 2.94215 0
M  V30 5242 H 493.656 3.32055 1.72309 0
M  V30 5243 H 494.989 4.35971 2.28451 0
M  V30 5244 N 496.642 -0.504142 1.49319 0
M  V30 5245 C 497.589 -1.60603 1.65756 0
M  V30 5246 C 498.559 -1.58425 0.499082 0
M  V30 5247 O 499.744 -1.76459 0.725728 0
M  V30 5248 C 496.884 -2.98764 1.72726 0
M  V30 5249 C 495.997 -3.10982 2.99857 0
M  V30 5250 C 495.132 -4.39857 2.97824 0
M  V30 5251 C 494.171 -4.45697 4.19548 0
M  V30 5252 N 493.308 -5.65995 4.15444 0
M  V30 5253 H 498.148 -1.45895 2.59843 0
M  V30 5254 H 495.685 -0.709891 1.28837 0
M  V30 5255 H 497.643 -3.78839 1.74747 0
M  V30 5256 H 496.273 -3.12183 0.821075 0
M  V30 5257 H 495.325 -2.23991 3.07461 0
M  V30 5258 H 496.637 -3.11157 3.89849 0
M  V30 5259 H 495.791 -5.2825 2.98391 0
M  V30 5260 H 494.53 -4.42242 2.05604 0
M  V30 5261 H 493.535 -3.55707 4.19229 0
M  V30 5262 H 494.76 -4.4503 5.12957 0
M  V30 5263 H 492.706 -5.69229 3.26059 0
M  V30 5264 H 492.623 -5.67773 4.99169 0
M  V30 5265 H 493.891 -6.56604 4.20109 0
M  V30 5266 N 498.12 -1.38341 -0.754957 0
M  V30 5267 C 499.536 -1.19508 -1.05783 0
M  V30 5268 C 499.736 -0.0428005 -2.01455 0
M  V30 5269 O 498.792 0.611861 -2.44975 0
M  V30 5270 C 500.105 -2.52091 -1.63923 0
M  V30 5271 C 501.653 -2.58762 -1.76101 0
M  V30 5272 C 502.128 -3.91517 -2.37652 0
M  V30 5273 N 503.619 -3.93049 -2.45085 0
M  V30 5274 C 504.354 -4.9253 -2.93602 0
M  V30 5275 N 503.85 -6.02408 -3.42165 0
M  V30 5276 N 505.643 -4.79921 -2.92629 0
M  V30 5277 H 497.794 -2.1206 -0.120056 0
M  V30 5278 H 500.057 -0.94089 -0.11589 0
M  V30 5279 H 499.763 -3.36858 -1.01093 0
M  V30 5280 H 499.637 -2.70388 -2.63003 0
M  V30 5281 H 502.024 -1.74391 -2.38058 0
M  V30 5282 H 502.105 -2.44333 -0.757294 0
M  V30 5283 H 501.749 -4.76309 -1.76329 0
M  V30 5284 H 501.679 -4.03256 -3.38662 0
M  V30 5285 H 504.17 -3.13685 -2.10736 0
M  V30 5286 H 504.483 -6.74248 -3.77637 0
M  V30 5287 H 502.828 -6.0603 -3.40225 0
M  V30 5288 H 506.019 -3.93194 -2.54001 0
M  V30 5289 H 506.192 -5.57601 -3.30128 0
M  V30 5290 N 499.598 0.982988 -1.23187 0
M  V30 5291 C 501.014 1.2487 -0.993967 0
M  V30 5292 C 501.214 1.99155 0.306498 0
M  V30 5293 O 500.27 2.30688 1.0266 0
M  V30 5294 C 501.583 2.05078 -2.19917 0
M  V30 5295 C 503.131 2.18227 -2.2438 0
M  V30 5296 C 503.606 3.01825 -3.44479 0
M  V30 5297 N 505.097 3.09411 -3.44702 0
M  V30 5298 C 505.832 3.74412 -4.34285 0
M  V30 5299 N 505.328 4.41259 -5.341 0
M  V30 5300 N 507.121 3.71273 -4.22035 0
M  V30 5301 H 499.272 0.485253 -2.06783 0
M  V30 5302 H 501.535 0.276979 -0.906635 0
M  V30 5303 H 501.241 1.57867 -3.14279 0
M  V30 5304 H 501.115 3.05829 -2.2079 0
M  V30 5305 H 503.502 2.64648 -1.30559 0
M  V30 5306 H 503.583 1.16873 -2.2754 0
M  V30 5307 H 503.227 2.56102 -4.38605 0
M  V30 5308 H 503.157 4.03342 -3.38559 0
M  V30 5309 H 505.648 2.61845 -2.7248 0
M  V30 5310 H 505.961 4.88629 -5.98717 0
M  V30 5311 H 504.306 4.39975 -5.38002 0
M  V30 5312 H 507.497 3.18217 -3.43301 0
M  V30 5313 H 507.67 4.21649 -4.92053 0
M  V30 5314 N 501.076 1.04316 1.18135 0
M  V30 5315 C 502.009 0.580823 2.20685 0
M  V30 5316 C 502.987 -0.385943 1.57953 0
M  V30 5317 O 504.171 -0.299654 1.86103 0
M  V30 5318 C 501.298 -0.151162 3.38363 0
M  V30 5319 C 500.344 0.769247 4.19505 0
M  V30 5320 S 501.177 2.25352 4.85774 0
M  V30 5321 C 502.333 1.53246 6.0685 0
M  V30 5322 H 502.566 1.44968 2.5956 0
M  V30 5323 H 500.099 0.85434 1.28609 0
M  V30 5324 H 502.057 -0.567315 4.06561 0
M  V30 5325 H 500.718 -0.995936 2.97892 0
M  V30 5326 H 499.911 0.203335 5.0359 0
M  V30 5327 H 499.513 1.12436 3.56699 0
M  V30 5328 H 501.805 0.82689 6.72435 0
M  V30 5329 H 502.748 2.35044 6.67952 0
M  V30 5330 H 503.156 1.0237 5.5514 0
M  V30 5331 N 502.554 -1.34406 0.822964 0
M  V30 5332 C 503.965 -1.8069 0.469879 0
M  V30 5333 C 504.316 -1.68223 -1.00972 0
M  V30 5334 O 503.441 -1.22226 -1.78577 0
M  V30 5335 C 504.036 -3.28064 0.846118 0
M  V30 5336 C 502.595 -3.72428 0.545402 0
M  V30 5337 C 501.742 -2.56116 1.06301 0
M  V30 5338 H 504.693 -1.22153 1.01313 0
M  V30 5339 H 504.714 -3.80205 0.149922 0
M  V30 5340 H 504.226 -3.37107 1.92304 0
M  V30 5341 H 502.327 -3.68924 -0.522109 0
M  V30 5342 H 502.44 -4.66548 1.0895 0
M  V30 5343 H 500.804 -2.50048 0.484554 0
M  V30 5344 H 501.587 -2.67928 2.14638 0
M  V30 5345 N 504.032 -0.577932 -1.46621 0
M  V30 5346 C 504.995 0.147805 -2.28723 0
M  V30 5347 C 505.995 0.823325 -1.38123 0
M  V30 5348 O 507.185 0.676011 -1.60548 0
M  V30 5349 C 504.317 1.21853 -3.18378 0
M  V30 5350 H 505.51 -0.573654 -2.94362 0
M  V30 5351 H 503.063 -0.335703 -1.52652 0
M  V30 5352 H 503.798 1.97173 -2.57475 0
M  V30 5353 H 503.583 0.738714 -3.85078 0
M  V30 5354 H 505.073 1.72768 -3.80186 0
M  V30 5355 N 505.51 1.54411 -0.315457 0
M  V30 5356 C 506.473 2.22713 0.54142 0
M  V30 5357 C 507.473 1.2179 1.04995 0
M  V30 5358 O 508.663 1.46426 0.943667 0
M  V30 5359 C 505.795 2.92485 1.75116 0
M  V30 5360 H 506.988 2.99849 -0.0555508 0
M  V30 5361 H 504.541 1.56159 -0.0664453 0
M  V30 5362 H 505.276 2.19466 2.38758 0
M  V30 5363 H 505.061 3.66483 1.39401 0
M  V30 5364 H 506.551 3.44548 2.35959 0
M  V30 5365 N 506.988 0.0434614 1.5754 0
M  V30 5366 C 507.936 -0.951465 2.1225 0
M  V30 5367 C 508.93 -1.3274 1.05245 0
M  V30 5368 O 510.136 -1.30795 1.23663 0
M  V30 5369 H 506.511 -0.324667 0.678303 0
M  V30 5370 H 508.482 -0.464855 2.94757 0
M  V30 5371 C 507.231 -2.21972 2.67626 0
M  V30 5372 H 506.554 -1.93923 3.4962 0
M  V30 5373 H 507.994 -2.89765 3.09536 0
M  V30 5374 C 506.453 -2.95919 1.61038 0
M  V30 5375 O 506.983 -3.8857 1.01862 0
M  V30 5376 N 505.189 -2.58511 1.32741 0
M  V30 5377 H 504.736 -1.83244 1.81051 0
M  V30 5378 H 504.694 -3.08296 0.616531 0
M  V30 5379 N 508.466 -1.55915 -0.229846 0
M  V30 5380 C 509.396 -1.94754 -1.28815 0
M  V30 5381 C 510.377 -0.814657 -1.49323 0
M  V30 5382 O 511.562 -1.07631 -1.61645 0
M  V30 5383 C 508.692 -2.25705 -2.63959 0
M  V30 5384 C 507.646 -3.41406 -2.5812 0
M  V30 5385 C 506.972 -3.57941 -3.97218 0
M  V30 5386 C 508.272 -4.76616 -2.13623 0
M  V30 5387 H 509.966 -2.83404 -0.965547 0
M  V30 5388 H 507.512 -1.36353 -0.463028 0
M  V30 5389 H 509.465 -2.51467 -3.38146 0
M  V30 5390 H 508.189 -1.339 -2.9789 0
M  V30 5391 H 506.848 -3.1568 -1.86391 0
M  V30 5392 H 506.496 -2.63526 -4.28443 0
M  V30 5393 H 506.196 -4.35757 -3.94195 0
M  V30 5394 H 507.72 -3.86042 -4.73079 0
M  V30 5395 H 509.134 -5.01637 -2.77549 0
M  V30 5396 H 507.531 -5.57655 -2.21677 0
M  V30 5397 H 508.601 -4.7253 -1.08829 0
M  V30 5398 N 509.944 0.496216 -1.49584 0
M  V30 5399 C 511.193 1.24668 -1.58558 0
M  V30 5400 C 511.506 1.9359 -0.279703 0
M  V30 5401 O 512.712 2.70365 -0.248048 0
M  V30 5402 C 511.168 2.26388 -2.79779 0
M  V30 5403 C 510.776 1.63384 -4.17145 0
M  V30 5404 C 512.52 3.02233 -2.98086 0
M  V30 5405 C 510.427 2.63243 -5.29582 0
M  V30 5406 H 509.357 0.468995 -0.590389 0
M  V30 5407 H 512.008 0.519985 -1.75978 0
M  V30 5408 H 510.39 3.02241 -2.55863 0
M  V30 5409 H 511.564 0.93491 -4.51216 0
M  V30 5410 H 509.879 0.999121 -4.04236 0
M  V30 5411 H 512.476 3.76919 -3.79257 0
M  V30 5412 H 512.819 3.60132 -2.08831 0
M  V30 5413 H 513.352 2.33495 -3.22063 0
M  V30 5414 H 510.091 2.10119 -6.20911 0
M  V30 5415 H 509.611 3.31363 -4.99959 0
M  V30 5416 H 511.29 3.25575 -5.59115 0
M  V30 5417 N 511.423 1.38739 0.74761 0
M  V30 5418 C 512.355 1.32341 1.87132 0
M  V30 5419 C 513.368 0.234502 1.61102 0
M  V30 5420 O 514.557 0.492516 1.71571 0
M  V30 5421 C 511.657 1.02915 3.22896 0
M  V30 5422 C 510.83 2.22834 3.76383 0
M  V30 5423 C 509.889 1.90059 4.90677 0
M  V30 5424 O 508.915 2.62615 5.04997 0
M  V30 5425 N 510.117 0.859141 5.74107 0
M  V30 5426 H 512.882 2.29175 1.93129 0
M  V30 5427 H 510.443 1.32678 0.927805 0
M  V30 5428 H 512.435 0.79031 3.96908 0
M  V30 5429 H 511.005 0.148572 3.12247 0
M  V30 5430 H 510.225 2.62747 2.93867 0
M  V30 5431 H 511.513 3.02851 4.08851 0
M  V30 5432 H 510.911 0.257564 5.65113 0
M  V30 5433 H 509.468 0.680189 6.48241 0
M  V30 5434 N 512.901 -0.976442 1.23707 0
M  V30 5435 C 513.864 -2.0511 1.02287 0
M  V30 5436 C 514.864 -1.60791 -0.0167195 0
M  V30 5437 O 516.054 -1.72761 0.223408 0
M  V30 5438 C 513.186 -3.36458 0.548507 0
M  V30 5439 H 514.379 -2.25545 1.9766 0
M  V30 5440 H 511.932 -1.15042 1.05806 0
M  V30 5441 H 512.667 -3.21713 -0.408818 0
M  V30 5442 H 512.452 -3.69967 1.29874 0
M  V30 5443 H 513.942 -4.15489 0.419406 0
M  V30 5444 N 514.379 -1.04941 -1.1758 0
M  V30 5445 C 515.342 -0.652456 -2.19717 0
M  V30 5446 C 516.342 0.294745 -1.58076 0
M  V30 5447 O 517.532 0.0789579 -1.74021 0
M  V30 5448 C 514.664 0.0420712 -3.40874 0
M  V30 5449 H 515.857 -1.55642 -2.5635 0
M  V30 5450 H 513.41 -0.842995 -1.31618 0
M  V30 5451 H 514.145 0.95943 -3.09783 0
M  V30 5452 H 513.93 -0.638844 -3.86861 0
M  V30 5453 H 515.42 0.306 -4.16477 0
M  V30 5454 N 515.857 1.33968 -0.830081 0
M  V30 5455 C 517.103 1.98773 -0.431394 0
M  V30 5456 C 517.458 1.64598 0.99626 0
M  V30 5457 O 516.751 0.911022 1.68555 0
M  V30 5458 C 516.945 3.52679 -0.57898 0
M  V30 5459 C 516.774 4.01807 -2.01943 0
M  V30 5460 C 515.544 4.30062 -2.65282 0
M  V30 5461 C 517.742 4.18663 -2.98707 0
M  V30 5462 N 515.724 4.65272 -4.00493 0
M  V30 5463 C 517.095 4.57133 -4.18843 0
M  V30 5464 C 519.15 4.00929 -2.95229 0
M  V30 5465 C 517.853 4.79723 -5.35965 0
M  V30 5466 C 519.879 4.2469 -4.11573 0
M  V30 5467 C 519.241 4.63454 -5.30462 0
M  V30 5468 H 515.34 0.75435 -0.206107 0
M  V30 5469 H 517.924 1.62247 -1.07629 0
M  V30 5470 H 516.095 3.88383 0.0360632 0
M  V30 5471 H 517.827 4.04412 -0.152596 0
M  V30 5472 H 514.582 4.21231 -2.16475 0
M  V30 5473 H 515.006 4.87101 -4.70172 0
M  V30 5474 H 519.648 3.70082 -2.04448 0
M  V30 5475 H 517.366 5.09434 -6.27297 0
M  V30 5476 H 520.952 4.12497 -4.10289 0
M  V30 5477 H 519.832 4.81476 -6.18992 0
M  V30 5478 N 517.335 0.585699 1.46312 0
M  V30 5479 C 518.751 0.247607 1.57668 0
M  V30 5480 C 518.951 -1.25007 1.58037 0
M  V30 5481 O 518.007 -2.03196 1.49893 0
M  V30 5482 C 519.32 0.899456 2.86933 0
M  V30 5483 C 520.868 0.873326 3.00569 0
M  V30 5484 C 521.343 1.50477 4.32574 0
M  V30 5485 N 522.834 1.46925 4.3928 0
M  V30 5486 C 523.569 1.92719 5.40044 0
M  V30 5487 N 523.065 2.46499 6.47464 0
M  V30 5488 N 524.858 1.83617 5.31264 0
M  V30 5489 H 517.009 1.55841 1.44317 0
M  V30 5490 H 519.272 0.651564 0.688599 0
M  V30 5491 H 518.978 1.95313 2.92482 0
M  V30 5492 H 518.852 0.409476 3.74971 0
M  V30 5493 H 521.239 -0.171736 2.946 0
M  V30 5494 H 521.32 1.40136 2.13999 0
M  V30 5495 H 520.964 2.54905 4.39302 0
M  V30 5496 H 520.894 0.951944 5.17924 0
M  V30 5497 H 523.385 1.07616 3.62253 0
M  V30 5498 H 523.698 2.79291 7.20567 0
M  V30 5499 H 522.043 2.50526 6.48276 0
M  V30 5500 H 525.234 1.41358 4.46246 0
M  V30 5501 H 525.407 2.19622 6.09648 0
M  V30 5502 N 518.813 -1.54241 0.323641 0
M  V30 5503 C 519.743 -2.27289 -0.534993 0
M  V30 5504 C 520.724 -1.28087 -1.11927 0
M  V30 5505 O 521.909 -1.56899 -1.14439 0
M  V30 5506 C 519.039 -3.03075 -1.69596 0
M  V30 5507 C 517.993 -4.09614 -1.24098 0
M  V30 5508 C 517.319 -4.73242 -2.4889 0
M  V30 5509 C 518.619 -5.21087 -0.355789 0
M  V30 5510 H 520.313 -2.99308 0.0743257 0
M  V30 5511 H 517.859 -1.43952 0.0371874 0
M  V30 5512 H 519.812 -3.52907 -2.30293 0
M  V30 5513 H 518.536 -2.28673 -2.33187 0
M  V30 5514 H 517.195 -3.60666 -0.656945 0
M  V30 5515 H 516.843 -3.95455 -3.10845 0
M  V30 5516 H 516.543 -5.45209 -2.19138 0
M  V30 5517 H 518.067 -5.25848 -3.10348 0
M  V30 5518 H 519.481 -5.66675 -0.869042 0
M  V30 5519 H 517.878 -5.9991 -0.151045 0
M  V30 5520 H 518.948 -4.81005 0.613339 0
M  V30 5521 N 520.291 -0.0518155 -1.57515 0
M  V30 5522 C 521.521 0.63048 -1.96745 0
M  V30 5523 C 521.929 1.64875 -0.928054 0
M  V30 5524 O 521.272 1.83449 0.0960678 0
M  V30 5525 C 521.334 1.37381 -3.32215 0
M  V30 5526 C 520.998 0.511298 -4.54131 0
M  V30 5527 C 521.995 -0.222884 -5.19422 0
M  V30 5528 C 519.68 0.442035 -5.00351 0
M  V30 5529 C 521.674 -1.01476 -6.2927 0
M  V30 5530 C 519.361 -0.35353 -6.10077 0
M  V30 5531 C 520.359 -1.08062 -6.74397 0
M  V30 5532 O 520.047 -1.8631 -7.82013 0
M  V30 5533 H 519.779 0.177126 -0.652382 0
M  V30 5534 H 522.333 -0.114726 -2.05079 0
M  V30 5535 H 520.563 2.16466 -3.20436 0
M  V30 5536 H 522.252 1.9464 -3.56188 0
M  V30 5537 H 523.018 -0.178846 -4.8467 0
M  V30 5538 H 518.897 0.997562 -4.50077 0
M  V30 5539 H 522.441 -1.58279 -6.79407 0
M  V30 5540 H 518.338 -0.399205 -6.44264 0
M  V30 5541 H 519.106 -1.78528 -7.98793 0
M  V30 5542 N 521.769 1.56035 0.221574 0
M  V30 5543 C 522.994 1.83476 0.967026 0
M  V30 5544 C 523.419 0.632139 1.7716 0
M  V30 5545 O 522.777 -0.419082 1.7639 0
M  V30 5546 C 522.825 3.08907 1.86034 0
M  V30 5547 O 521.929 2.876 2.95567 0
M  V30 5548 H 521.27 0.604913 0.273817 0
M  V30 5549 H 523.8 2.03247 0.234893 0
M  V30 5550 H 523.81 3.3901 2.27016 0
M  V30 5551 H 522.485 3.96068 1.26898 0
M  V30 5552 H 521.062 2.6873 2.58532 0
M  V30 5553 N 523.247 -0.488276 1.49845 0
M  V30 5554 C 524.475 -1.26527 1.63702 0
M  V30 5555 C 524.89 -1.8618 0.313447 0
M  V30 5556 O 524.247 -1.68432 -0.702624 0
M  V30 5557 C 524.298 -2.3864 2.71538 0
M  V30 5558 O 524.019 -1.81437 3.98763 0
M  V30 5559 C 525.52 -3.29805 2.96215 0
M  V30 5560 H 522.74 -0.383295 0.55075 0
M  V30 5561 H 525.284 -0.584779 1.95961 0
M  V30 5562 H 523.439 -3.02496 2.42023 0
M  V30 5563 H 523.853 -2.55135 4.58265 0
M  V30 5564 H 525.327 -4.04722 3.75372 0
M  V30 5565 H 525.804 -3.87563 2.06619 0
M  V30 5566 H 526.41 -2.71703 3.27196 0
M  V30 5567 N 524.725 -1.39134 -0.740242 0
M  V30 5568 C 526.002 -1.26584 -1.49117 0
M  V30 5569 C 526.382 0.126902 -2.10718 0
M  V30 5570 O 525.73 1.13765 -1.98166 0
M  V30 5571 C 525.94 -2.38619 -2.54681 0
M  V30 5572 C 527.288 -2.77685 -3.21211 0
M  V30 5573 O 528.312 -2.38029 -2.64991 0
M  V30 5574 O 527.171 -3.46115 -4.22926 0
M  V30 5575 H 524.265 -0.495769 -0.661923 0
M  V30 5576 H 526.811 -1.50995 -0.774514 0
M  V30 5577 H 525.583 -3.3175 -2.07504 0
M  V30 5578 H 525.206 -2.15845 -3.33911 0
M  V30 5579 N 526.204 0.969867 -1.24223 0
M  V30 5580 C 527.137 2.06279 -0.975926 0
M  V30 5581 C 528.115 1.62353 0.0895385 0
M  V30 5582 O 529.299 1.88442 -0.0469418 0
M  V30 5583 C 526.426 3.35391 -0.472315 0
M  V30 5584 C 525.472 3.98266 -1.526 0
M  V30 5585 S 526.305 4.36172 -3.10667 0
M  V30 5586 C 527.461 5.68423 -2.62003 0
M  V30 5587 H 527.694 2.28551 -1.90137 0
M  V30 5588 H 525.227 1.10748 -1.07584 0
M  V30 5589 H 527.185 4.10068 -0.188376 0
M  V30 5590 H 525.846 3.1111 0.432378 0
M  V30 5591 H 525.039 4.91307 -1.12399 0
M  V30 5592 H 524.641 3.30009 -1.75983 0
M  V30 5593 H 526.933 6.45842 -2.0468 0
M  V30 5594 H 527.876 6.13478 -3.53625 0
M  V30 5595 H 528.284 5.26928 -2.02502 0
M  V30 5596 N 527.682 1.05563 1.17022 0
M  V30 5597 C 528.907 0.788437 1.91829 0
M  V30 5598 C 529.332 -0.650356 1.76499 0
M  V30 5599 O 528.69 -1.45229 1.08527 0
M  V30 5600 C 528.738 1.1786 3.40795 0
M  V30 5601 O 527.842 0.312965 4.11211 0
M  V30 5602 H 527.183 0.288794 0.597908 0
M  V30 5603 H 529.713 1.40948 1.48307 0
M  V30 5604 H 529.723 1.14697 3.91546 0
M  V30 5605 H 528.398 2.22666 3.51273 0
M  V30 5606 H 526.975 0.405515 3.70689 0
M  V30 5607 N 529.16 -1.33526 0.837174 0
M  V30 5608 C 530.576 -1.50727 0.524743 0
M  V30 5609 C 530.776 -1.77792 -0.948279 0
M  V30 5610 O 529.832 -1.83719 -1.73216 0
M  V30 5611 C 531.145 -2.66299 1.39661 0
M  V30 5612 C 532.693 -2.80183 1.39521 0
M  V30 5613 C 533.168 -3.98815 2.25189 0
M  V30 5614 N 534.659 -4.06047 2.2289 0
M  V30 5615 C 535.394 -4.97032 2.85915 0
M  V30 5616 N 534.89 -5.93143 3.57985 0
M  V30 5617 N 536.683 -4.90015 2.75394 0
M  V30 5618 H 528.834 -1.1422 1.79074 0
M  V30 5619 H 531.097 -0.561399 0.763894 0
M  V30 5620 H 530.803 -2.52974 2.4433 0
M  V30 5621 H 530.677 -3.61663 1.07145 0
M  V30 5622 H 533.064 -2.92942 0.356253 0
M  V30 5623 H 533.145 -1.85586 1.76044 0
M  V30 5624 H 532.789 -3.86817 3.29143 0
M  V30 5625 H 532.719 -4.92654 1.86009 0
M  V30 5626 H 535.21 -3.37262 1.70478 0
M  V30 5627 H 535.523 -6.59227 4.03286 0
M  V30 5628 H 533.868 -5.93223 3.62093 0
M  V30 5629 H 537.059 -4.13894 2.18654 0
M  V30 5630 H 537.232 -5.60724 3.24796 0
M  V30 5631 N 530.638 -0.59345 -1.46 0
M  V30 5632 C 531.601 0.123538 -2.28867 0
M  V30 5633 C 532.601 0.808628 -1.38989 0
M  V30 5634 O 533.791 0.658945 -1.61256 0
M  V30 5635 C 530.923 1.1847 -3.19653 0
M  V30 5636 H 532.116 -0.604843 -2.93737 0
M  V30 5637 H 529.669 -0.351875 -1.52288 0
M  V30 5638 H 530.404 1.94431 -2.59552 0
M  V30 5639 H 530.189 0.69783 -3.8584 0
M  V30 5640 H 531.679 1.68726 -3.81997 0
M  V30 5641 N 532.116 1.54067 -0.331816 0
M  V30 5642 C 533.346 2.04833 0.269605 0
M  V30 5643 C 533.754 1.20714 1.45687 0
M  V30 5644 O 533.097 0.232539 1.82222 0
M  V30 5645 C 533.159 3.51386 0.759499 0
M  V30 5646 C 532.823 4.55971 -0.306557 0
M  V30 5647 C 533.82 5.07126 -1.14538 0
M  V30 5648 C 531.505 5.00216 -0.457116 0
M  V30 5649 C 533.499 6.01096 -2.12042 0
M  V30 5650 C 531.186 5.93999 -1.43556 0
M  V30 5651 C 532.184 6.44326 -2.26568 0
M  V30 5652 O 531.872 7.36267 -3.22749 0
M  V30 5653 H 531.604 0.673509 0.0579763 0
M  V30 5654 H 534.158 1.99748 -0.478521 0
M  V30 5655 H 532.388 3.53896 1.55867 0
M  V30 5656 H 534.077 3.85184 1.28017 0
M  V30 5657 H 534.843 4.73716 -1.04009 0
M  V30 5658 H 530.722 4.60652 0.179142 0
M  V30 5659 H 534.266 6.40302 -2.76873 0
M  V30 5660 H 530.163 6.26825 -1.54146 0
M  V30 5661 H 530.931 7.54165 -3.18083 0
M  V30 5662 N 533.594 0.0601682 1.57485 0
M  V30 5663 C 534.524 -0.90889 2.15085 0
M  V30 5664 C 535.505 -1.31838 1.07484 0
M  V30 5665 O 536.69 -1.3915 1.35466 0
M  V30 5666 C 533.82 -2.18059 2.7031 0
M  V30 5667 C 532.774 -1.91088 3.82974 0
M  V30 5668 C 532.1 -3.24789 4.24754 0
M  V30 5669 C 533.4 -1.22535 5.07723 0
M  V30 5670 H 535.094 -0.429093 2.96309 0
M  V30 5671 H 532.64 -0.204952 1.42534 0
M  V30 5672 H 534.593 -2.86258 3.09248 0
M  V30 5673 H 533.317 -2.6826 1.8629 0
M  V30 5674 H 531.976 -1.25297 3.44523 0
M  V30 5675 H 531.624 -3.72809 3.37672 0
M  V30 5676 H 531.324 -3.07538 5.00694 0
M  V30 5677 H 532.848 -3.94205 4.66299 0
M  V30 5678 H 534.262 -1.80783 5.4405 0
M  V30 5679 H 532.659 -1.1558 5.88864 0
M  V30 5680 H 533.729 -0.202692 4.84476 0
M  V30 5681 N 535.072 -1.5615 -0.213296 0
M  V30 5682 C 536.3 -1.83638 -0.953139 0
M  V30 5683 C 536.715 -0.640362 -1.77609 0
M  V30 5684 O 536.072 0.391071 -1.78261 0
M  V30 5685 C 536.123 -3.09735 -1.86405 0
M  V30 5686 O 535.844 -4.24723 -1.07435 0
M  V30 5687 C 537.345 -3.5027 -2.71709 0
M  V30 5688 H 534.565 -0.610263 -0.278962 0
M  V30 5689 H 537.109 -2.03247 -0.226035 0
M  V30 5690 H 535.264 -2.92077 -2.545 0
M  V30 5691 H 535.678 -4.9641 -1.69343 0
M  V30 5692 H 537.152 -4.41515 -3.31313 0
M  V30 5693 H 537.629 -2.72406 -3.44516 0
M  V30 5694 H 538.235 -3.70396 -2.09015 0
M  V30 5695 N 536.55 0.480323 -1.50102 0
M  V30 5696 C 537.513 1.56181 -1.6775 0
M  V30 5697 C 538.513 1.51156 -0.548503 0
M  V30 5698 O 539.703 1.5394 -0.815363 0
M  V30 5699 C 536.835 2.95823 -1.69415 0
M  V30 5700 H 538.028 1.41855 -2.6423 0
M  V30 5701 H 535.581 0.70605 -1.39444 0
M  V30 5702 H 536.316 3.15604 -0.745948 0
M  V30 5703 H 536.101 3.00878 -2.51425 0
M  V30 5704 H 537.591 3.74359 -1.85054 0
M  V30 5705 N 538.028 1.39524 0.732853 0
M  V30 5706 C 539.256 1.40143 1.52209 0
M  V30 5707 C 539.671 -0.00348836 1.888 0
M  V30 5708 O 539.028 -0.975357 1.5425 0
M  V30 5709 C 539.079 2.27632 2.8083 0
M  V30 5710 O 538.8 3.62654 2.45792 0
M  V30 5711 C 540.301 2.36658 3.74844 0
M  V30 5712 H 537.521 0.478604 0.470297 0
M  V30 5713 H 540.065 1.83366 0.905388 0
M  V30 5714 H 538.22 1.87818 3.38826 0
M  V30 5715 H 538.634 4.08941 3.28431 0
M  V30 5716 H 540.108 3.02118 4.61984 0
M  V30 5717 H 540.585 1.38638 4.16745 0
M  V30 5718 H 541.191 2.76951 3.22766 0
M  V30 5719 N 539.506 -0.963266 1.24736 0
M  V30 5720 C 540.752 -1.71 1.10139 0
M  V30 5721 C 541.107 -1.89089 -0.35541 0
M  V30 5722 O 540.4 -1.44451 -1.25875 0
M  V30 5723 C 540.594 -3.09944 1.7796 0
M  V30 5724 C 540.423 -3.05408 3.30085 0
M  V30 5725 C 539.193 -3.09643 3.99311 0
M  V30 5726 C 541.391 -2.87241 4.26611 0
M  V30 5727 N 539.373 -2.95174 5.3828 0
M  V30 5728 C 540.744 -2.81114 5.52607 0
M  V30 5729 C 542.799 -2.71856 4.17132 0
M  V30 5730 C 541.502 -2.61174 6.70209 0
M  V30 5731 C 543.528 -2.53284 5.34417 0
M  V30 5732 C 542.89 -2.4787 6.59348 0
M  V30 5733 H 538.989 -0.634078 0.457678 0
M  V30 5734 H 541.573 -1.14169 1.57713 0
M  V30 5735 H 539.744 -3.64958 1.32893 0
M  V30 5736 H 541.476 -3.73348 1.56183 0
M  V30 5737 H 538.231 -3.18498 3.50508 0
M  V30 5738 H 538.655 -2.91168 6.11188 0
M  V30 5739 H 543.297 -2.74821 3.21299 0
M  V30 5740 H 541.015 -2.56952 7.6616 0
M  V30 5741 H 544.601 -2.42317 5.28936 0
M  V30 5742 H 543.481 -2.33685 7.48573 0
M  V30 5743 N 540.985 -1.06182 -1.16461 0
M  V30 5744 C 542.215 -0.797425 -1.9059 0
M  V30 5745 C 542.623 0.651845 -1.77616 0
M  V30 5746 O 541.966 1.45788 -1.11766 0
M  V30 5747 C 542.028 -1.11128 -3.41893 0
M  V30 5748 C 541.692 -2.55874 -3.78652 0
M  V30 5749 C 542.689 -3.54104 -3.80665 0
M  V30 5750 C 540.374 -2.91144 -4.09317 0
M  V30 5751 C 542.368 -4.85645 -4.12829 0
M  V30 5752 C 540.055 -4.22885 -4.41148 0
M  V30 5753 C 541.053 -5.19945 -4.42883 0
M  V30 5754 O 540.741 -6.49322 -4.73959 0
M  V30 5755 H 540.473 -0.288709 -0.611247 0
M  V30 5756 H 543.027 -1.41841 -1.4856 0
M  V30 5757 H 541.257 -0.433217 -3.84266 0
M  V30 5758 H 542.946 -0.831306 -3.97296 0
M  V30 5759 H 543.712 -3.28197 -3.57088 0
M  V30 5760 H 539.591 -2.16252 -4.07131 0
M  V30 5761 H 543.135 -5.61398 -4.14099 0
M  V30 5762 H 539.032 -4.48551 -4.6419 0
M  V30 5763 H 539.8 -6.54294 -4.91774 0
M  V30 5764 N 542.463 1.3308 -0.844243 0
M  V30 5765 C 543.693 2.01515 -0.455541 0
M  V30 5766 C 544.101 1.63655 0.949406 0
M  V30 5767 O 543.444 0.84848 1.62931 0
M  V30 5768 C 543.506 3.55967 -0.502801 0
M  V30 5769 C 543.17 4.17222 -1.86481 0
M  V30 5770 C 544.167 4.36205 -2.8288 0
M  V30 5771 C 541.852 4.53528 -2.15911 0
M  V30 5772 C 543.846 4.90649 -4.06869 0
M  V30 5773 C 541.533 5.07679 -3.40155 0
M  V30 5774 C 542.531 5.26186 -4.35451 0
M  V30 5775 O 542.219 5.79183 -5.57496 0
M  V30 5776 H 541.951 0.65199 -0.178565 0
M  V30 5777 H 544.505 1.70867 -1.1399 0
M  V30 5778 H 542.735 3.85965 0.23836 0
M  V30 5779 H 544.424 4.05688 -0.131169 0
M  V30 5780 H 545.19 4.085 -2.61444 0
M  V30 5781 H 541.069 4.38414 -1.42528 0
M  V30 5782 H 544.613 5.0501 -4.81259 0
M  V30 5783 H 540.51 5.34815 -3.61446 0
M  V30 5784 H 541.278 5.97591 -5.5931 0
M  V30 5785 N 543.941 0.601185 1.45683 0
M  V30 5786 C 545.171 0.0999093 2.06358 0
M  V30 5787 C 545.579 -1.21831 1.44754 0
M  V30 5788 O 544.922 -1.75157 0.553695 0
M  V30 5789 C 544.984 -0.12085 3.59297 0
M  V30 5790 C 544.648 1.11459 4.432 0
M  V30 5791 C 545.645 2.03118 4.7858 0
M  V30 5792 C 543.33 1.34162 4.84051 0
M  V30 5793 C 545.324 3.15814 5.53661 0
M  V30 5794 C 543.011 2.4716 5.58888 0
M  V30 5795 C 544.009 3.37814 5.93608 0
M  V30 5796 O 543.697 4.48846 6.66928 0
M  V30 5797 H 543.429 0.0630316 0.673055 0
M  V30 5798 H 545.983 0.826982 1.88016 0
M  V30 5799 H 544.213 -0.902744 3.76015 0
M  V30 5800 H 545.902 -0.572925 4.01836 0
M  V30 5801 H 546.668 1.86801 4.47583 0
M  V30 5802 H 542.547 0.645018 4.56465 0
M  V30 5803 H 546.091 3.86596 5.8068 0
M  V30 5804 H 541.988 2.63432 5.89299 0
M  V30 5805 H 542.756 4.47446 6.85371 0
M  V30 5806 N 545.419 -1.53889 0.339982 0
M  V30 5807 C 546.696 -1.93084 -0.312719 0
M  V30 5808 C 547.076 -1.2712 -1.68534 0
M  V30 5809 O 546.424 -0.420835 -2.24591 0
M  V30 5810 C 546.634 -3.4683 -0.388558 0
M  V30 5811 C 547.982 -4.19732 -0.641088 0
M  V30 5812 O 549.006 -3.53075 -0.470818 0
M  V30 5813 O 547.865 -5.3781 -0.970685 0
M  V30 5814 H 544.959 -0.806784 -0.18174 0
M  V30 5815 H 547.505 -1.65137 0.390898 0
M  V30 5816 H 546.277 -3.87055 0.574821 0
M  V30 5817 H 545.9 -3.80933 -1.1391 0
M  V30 5818 N 546.897 -0.0685191 -1.57451 0
M  V30 5819 C 548.122 0.613919 -1.98106 0
M  V30 5820 C 548.547 1.62551 -0.946501 0
M  V30 5821 O 547.905 1.81085 0.0882824 0
M  V30 5822 C 547.953 1.26189 -3.378 0
M  V30 5823 O 547.057 2.37773 -3.36954 0
M  V30 5824 H 546.398 0.158163 -0.644888 0
M  V30 5825 H 548.928 -0.142063 -2.04106 0
M  V30 5826 H 548.938 1.60951 -3.74912 0
M  V30 5827 H 547.613 0.520625 -4.12629 0
M  V30 5828 H 546.19 2.04829 -3.11608 0
M  V30 5829 N 548.375 1.56261 0.205012 0
M  V30 5830 C 549.624 1.79236 0.925058 0
M  V30 5831 C 549.937 0.640011 1.84833 0
M  V30 5832 O 551.143 0.753809 2.60826 0
M  V30 5833 C 549.599 3.17475 1.69522 0
M  V30 5834 C 549.207 4.40482 0.817269 0
M  V30 5835 C 550.951 3.49766 2.4055 0
M  V30 5836 C 548.858 5.69744 1.58573 0
M  V30 5837 H 547.788 0.668287 0.349153 0
M  V30 5838 H 550.439 1.82629 0.178544 0
M  V30 5839 H 548.821 3.08304 2.48526 0
M  V30 5840 H 549.995 4.60752 0.0665988 0
M  V30 5841 H 548.31 4.15827 0.218316 0
M  V30 5842 H 550.907 4.43573 2.98575 0
M  V30 5843 H 551.25 2.73041 3.14252 0
M  V30 5844 H 551.783 3.60341 1.68522 0
M  V30 5845 H 548.522 6.49407 0.891679 0
M  V30 5846 H 548.042 5.53509 2.31059 0
M  V30 5847 H 549.721 6.1051 2.14212 0
M  V30 5848 N 549.853 -0.472356 1.50355 0
M  V30 5849 C 550.783 -1.57859 1.72055 0
M  V30 5850 C 551.764 -1.60283 0.569505 0
M  V30 5851 O 552.949 -1.7657 0.808503 0
M  V30 5852 C 550.079 -2.96191 1.81351 0
M  V30 5853 C 549.033 -3.08633 2.96529 0
M  V30 5854 C 548.359 -4.486 2.90968 0
M  V30 5855 C 549.659 -2.85969 4.37057 0
M  V30 5856 H 551.353 -1.39953 2.64676 0
M  V30 5857 H 548.899 -0.671846 1.27367 0
M  V30 5858 H 550.852 -3.73507 1.95117 0
M  V30 5859 H 549.576 -3.15251 0.853502 0
M  V30 5860 H 548.235 -2.33749 2.82413 0
M  V30 5861 H 547.883 -4.64577 1.92815 0
M  V30 5862 H 547.583 -4.57861 3.68289 0
M  V30 5863 H 549.107 -5.27938 3.0678 0
M  V30 5864 H 550.521 -3.53036 4.51706 0
M  V30 5865 H 548.918 -3.06677 5.15819 0
M  V30 5866 H 549.988 -1.81838 4.49514 0
M  V30 5867 N 551.331 -1.39911 -0.725443 0
M  V30 5868 C 552.742 -1.33599 -1.30415 0
M  V30 5869 C 553.093 -0.00481792 -1.96199 0
M  V30 5870 O 552.218 0.897275 -1.96921 0
M  V30 5871 C 552.813 -2.41965 -2.37146 0
M  V30 5872 C 551.372 -2.39144 -2.90667 0
M  V30 5873 C 550.519 -2.23355 -1.64341 0
M  V30 5874 H 553.47 -1.4986 -0.522267 0
M  V30 5875 H 553.491 -2.09304 -3.17761 0
M  V30 5876 H 553.003 -3.38837 -1.89238 0
M  V30 5877 H 551.104 -1.4594 -3.4283 0
M  V30 5878 H 551.217 -3.34362 -3.43131 0
M  V30 5879 H 549.581 -1.70696 -1.89037 0
M  V30 5880 H 550.364 -3.2221 -1.18471 0
M  V30 5881 N 552.809 0.956637 -1.25245 0
M  V30 5882 C 554.034 1.74104 -1.12706 0
M  V30 5883 C 554.459 1.85436 0.315429 0
M  V30 5884 O 553.817 1.33334 1.22848 0
M  V30 5885 C 553.865 3.1338 -1.78396 0
M  V30 5886 O 552.969 3.98485 -1.06224 0
M  V30 5887 H 552.31 0.53476 -0.393609 0
M  V30 5888 H 554.84 1.19924 -1.65769 0
M  V30 5889 H 554.85 3.6385 -1.846 0
M  V30 5890 H 553.525 3.04448 -2.83345 0
M  V30 5891 H 552.102 3.56952 -1.07886 0
M  V30 5892 N 554.287 1.06798 1.15896 0
M  V30 5893 C 555.534 0.787767 1.86549 0
M  V30 5894 C 555.862 -0.685959 1.82002 0
M  V30 5895 O 555.117 -1.5188 1.23414 0
M  V30 5896 C 555.416 1.23414 3.35416 0
M  V30 5897 C 555.082 2.71285 3.6016 0
M  V30 5898 C 553.744 3.11676 3.66622 0
M  V30 5899 C 556.096 3.6676 3.7032 0
M  V30 5900 C 553.424 4.4637 3.8075 0
M  V30 5901 C 555.776 5.01209 3.8597 0
M  V30 5902 C 554.44 5.41229 3.90676 0
M  V30 5903 H 553.71 0.288264 0.682631 0
M  V30 5904 H 556.357 1.338 1.37003 0
M  V30 5905 H 554.662 0.60319 3.87129 0
M  V30 5906 H 556.359 0.994298 3.88477 0
M  V30 5907 H 552.949 2.39015 3.55767 0
M  V30 5908 H 557.133 3.36685 3.64633 0
M  V30 5909 H 552.389 4.76855 3.82648 0
M  V30 5910 H 556.563 5.75067 3.92773 0
M  V30 5911 H 554.19 6.45602 4.01375 0
M  V30 5912 N 555.766 -1.3263 0.851289 0
M  V30 5913 C 557.182 -1.50162 0.5407 0
M  V30 5914 C 557.382 -1.78788 -0.929369 0
M  V30 5915 O 556.438 -1.85545 -1.71258 0
M  V30 5916 C 557.751 -2.64803 1.42478 0
M  V30 5917 C 559.299 -2.78688 1.42485 0
M  V30 5918 C 559.774 -3.96405 2.29407 0
M  V30 5919 N 561.265 -4.0366 2.27184 0
M  V30 5920 C 562 -4.93971 2.9117 0
M  V30 5921 N 561.496 -5.89313 3.64256 0
M  V30 5922 N 563.289 -4.87066 2.80576 0
M  V30 5923 H 555.44 -1.12315 1.80275 0
M  V30 5924 H 557.703 -0.553266 0.769806 0
M  V30 5925 H 557.409 -2.50368 2.46999 0
M  V30 5926 H 557.283 -3.60506 1.10974 0
M  V30 5927 H 559.67 -2.92547 0.387304 0
M  V30 5928 H 559.751 -1.83708 1.78002 0
M  V30 5929 H 559.395 -3.83304 3.33228 0
M  V30 5930 H 559.325 -4.90654 1.91224 0
M  V30 5931 H 561.816 -3.35435 1.74045 0
M  V30 5932 H 562.129 -6.54913 4.10255 0
M  V30 5933 H 560.474 -5.8935 3.68364 0
M  V30 5934 H 563.665 -4.11552 2.23031 0
M  V30 5935 H 563.838 -5.57248 3.30725 0
M  V30 5936 N 557.244 -0.608902 -1.45362 0
M  V30 5937 C 558.154 0.110969 -2.34337 0
M  V30 5938 C 559.17 0.859007 -1.51318 0
M  V30 5939 O 560.346 0.816296 -1.84116 0
M  V30 5940 C 557.411 1.09494 -3.28956 0
M  V30 5941 C 556.472 0.348718 -4.27881 0
M  V30 5942 C 555.705 1.28582 -5.17979 0
M  V30 5943 O 555.928 2.52369 -5.11533 0
M  V30 5944 O 554.862 0.782172 -5.96796 0
M  V30 5945 H 558.688 -0.620258 -2.97299 0
M  V30 5946 H 556.273 -0.36916 -1.44767 0
M  V30 5947 H 558.155 1.66163 -3.87257 0
M  V30 5948 H 556.83 1.80717 -2.68557 0
M  V30 5949 H 555.737 -0.260465 -3.73192 0
M  V30 5950 H 557.07 -0.323049 -4.91139 0
M  V30 5951 N 558.722 1.53707 -0.348139 0
M  V30 5952 C 559.652 2.28111 0.498766 0
M  V30 5953 C 560.633 1.29851 1.09876 0
M  V30 5954 O 561.818 1.587 1.11928 0
M  V30 5955 C 558.948 3.05735 1.64753 0
M  V30 5956 C 557.902 4.11537 1.17565 0
M  V30 5957 C 557.228 4.77142 2.4133 0
M  V30 5958 C 558.528 5.21587 0.272844 0
M  V30 5959 H 560.222 2.99152 -0.121934 0
M  V30 5960 H 557.768 1.43875 -0.0600842 0
M  V30 5961 H 559.721 3.56526 2.24649 0
M  V30 5962 H 558.445 2.32354 2.2952 0
M  V30 5963 H 557.104 3.61665 0.599483 0
M  V30 5964 H 556.752 4.0035 3.04514 0
M  V30 5965 H 556.452 5.48626 2.10436 0
M  V30 5966 H 557.976 5.30719 3.01943 0
M  V30 5967 H 559.39 5.67986 0.778779 0
M  V30 5968 H 557.787 6.00074 0.0555849 0
M  V30 5969 H 558.857 4.79969 -0.689785 0
M  V30 5970 N 560.2 0.0768682 1.57412 0
M  V30 5971 C 561.163 -0.873949 2.11884 0
M  V30 5972 C 562.163 -1.22301 1.04398 0
M  V30 5973 O 563.353 -1.15545 1.30365 0
M  V30 5974 C 560.485 -2.17575 2.62438 0
M  V30 5975 H 561.678 -0.401278 2.97203 0
M  V30 5976 H 559.231 -0.171904 1.55352 0
M  V30 5977 H 559.966 -2.69368 1.80587 0
M  V30 5978 H 559.751 -1.93534 3.41009 0
M  V30 5979 H 561.241 -2.85631 3.04639 0
M  V30 5980 N 561.678 -1.56367 -0.196722 0
M  V30 5981 C 562.608 -1.97442 -1.24655 0
M  V30 5982 C 563.589 -0.846147 -1.47561 0
M  V30 5983 O 564.774 -1.11035 -1.59326 0
M  V30 5984 C 561.904 -2.31253 -2.59112 0
M  V30 5985 C 560.858 -3.46804 -2.50821 0
M  V30 5986 C 560.184 -3.66286 -3.89536 0
M  V30 5987 C 561.484 -4.8104 -2.03465 0
M  V30 5988 H 563.178 -2.85388 -0.905216 0
M  V30 5989 H 560.724 -1.37304 -0.434002 0
M  V30 5990 H 562.677 -2.58583 -3.32736 0
M  V30 5991 H 561.401 -1.40188 -2.94983 0
M  V30 5992 H 560.06 -3.19563 -1.79653 0
M  V30 5993 H 559.708 -2.72555 -4.22756 0
M  V30 5994 H 559.408 -4.4402 -3.84864 0
M  V30 5995 H 560.932 -3.9599 -4.64784 0
M  V30 5996 H 562.346 -5.07411 -2.66846 0
M  V30 5997 H 560.743 -5.62232 -2.09798 0
M  V30 5998 H 561.813 -4.74732 -0.98781 0
M  V30 5999 N 563.156 0.464375 -1.50603 0
M  V30 6000 C 564.086 1.56944 -1.72889 0
M  V30 6001 C 565.067 1.59979 -0.577997 0
M  V30 6002 O 566.252 1.76138 -0.817855 0
M  V30 6003 C 563.382 2.95225 -1.8292 0
M  V30 6004 C 562.336 3.07056 -2.98162 0
M  V30 6005 C 561.662 4.47051 -2.93343 0
M  V30 6006 C 562.962 2.83648 -4.38567 0
M  V30 6007 H 564.656 1.38547 -2.65415 0
M  V30 6008 H 562.202 0.665082 -1.27721 0
M  V30 6009 H 564.155 3.72467 -1.97095 0
M  V30 6010 H 562.879 3.14793 -0.870209 0
M  V30 6011 H 561.538 2.32248 -2.83648 0
M  V30 6012 H 561.186 4.63547 -1.95276 0
M  V30 6013 H 560.886 4.55902 -3.70712 0
M  V30 6014 H 562.41 5.26304 -3.09575 0
M  V30 6015 H 563.824 3.50636 -4.53572 0
M  V30 6016 H 562.221 3.03937 -5.17438 0
M  V30 6017 H 563.291 1.79451 -4.50472 0
M  V30 6018 N 564.634 1.40294 0.718013 0
M  V30 6019 C 565.881 1.3844 1.47786 0
M  V30 6020 C 566.209 -0.0140838 1.94495 0
M  V30 6021 O 565.464 -0.998165 1.68331 0
M  V30 6022 C 565.763 2.31814 2.72024 0
M  V30 6023 C 565.429 3.79117 2.44093 0
M  V30 6024 C 564.091 4.19249 2.36185 0
M  V30 6025 C 566.443 4.72212 2.20602 0
M  V30 6026 C 563.771 5.50516 2.02851 0
M  V30 6027 C 566.123 6.03775 1.88781 0
M  V30 6028 C 564.787 6.42953 1.79354 0
M  V30 6029 H 564.057 0.506588 0.540786 0
M  V30 6030 H 566.704 1.72929 0.822663 0
M  V30 6031 H 565.009 1.90501 3.42369 0
M  V30 6032 H 566.706 2.27664 3.30106 0
M  V30 6033 H 563.296 3.47318 2.51133 0
M  V30 6034 H 567.48 4.42026 2.25669 0
M  V30 6035 H 562.736 5.79776 1.94088 0
M  V30 6036 H 566.91 6.75428 1.69617 0
M  V30 6037 H 564.537 7.44584 1.53291 0
M  V30 6038 N 566.112 -0.949982 1.2575 0
M  V30 6039 C 567.022 -2.08109 1.08295 0
M  V30 6040 C 568.038 -1.7399 0.0188181 0
M  V30 6041 O 569.214 -2.00187 0.220724 0
M  V30 6042 C 566.279 -3.39383 0.708534 0
M  V30 6043 C 565.34 -3.8734 1.85111 0
M  V30 6044 C 564.573 -5.12349 1.49447 0
M  V30 6045 O 564.796 -5.6905 0.392212 0
M  V30 6046 O 563.73 -5.5513 2.32624 0
M  V30 6047 H 567.556 -2.25738 2.03165 0
M  V30 6048 H 565.141 -1.06545 1.04731 0
M  V30 6049 H 567.023 -4.18277 0.512061 0
M  V30 6050 H 565.698 -3.23013 -0.210854 0
M  V30 6051 H 564.605 -3.09429 2.10248 0
M  V30 6052 H 565.938 -4.08216 2.74991 0
M  V30 6053 N 567.59 -1.07411 -1.15328 0
M  V30 6054 C 568.54 -0.664788 -2.18093 0
M  V30 6055 C 569.524 0.310395 -1.57878 0
M  V30 6056 O 570.716 0.124026 -1.76565 0
M  V30 6057 C 567.845 -0.0647822 -3.43239 0
M  V30 6058 C 566.931 -1.06514 -4.10506 0
M  V30 6059 N 567.322 -2.24491 -4.53252 0
M  V30 6060 C 565.62 -0.898613 -4.36853 0
M  V30 6061 C 566.321 -2.8796 -5.05424 0
M  V30 6062 N 565.297 -2.15622 -4.99007 0
M  V30 6063 H 569.099 -1.56333 -2.48872 0
M  V30 6064 H 566.613 -0.947393 -1.31902 0
M  V30 6065 H 568.61 0.246363 -4.16171 0
M  V30 6066 H 567.27 0.828866 -3.13943 0
M  V30 6067 H 568.281 -2.62205 -4.46619 0
M  V30 6068 H 564.958 -0.0579118 -4.1746 0
M  V30 6069 H 566.348 -3.88137 -5.48452 0
M  V30 6070 N 569.068 1.32177 -0.85831 0
M  V30 6071 C 570.314 1.97417 -0.46417 0
M  V30 6072 C 570.647 1.67746 0.978514 0
M  V30 6073 O 569.922 0.967654 1.68721 0
M  V30 6074 C 570.205 3.53069 -0.708094 0
M  V30 6075 C 570.058 3.92357 -2.19946 0
M  V30 6076 C 571.377 4.39783 -0.166881 0
M  V30 6077 H 568.496 0.717097 -0.17012 0
M  V30 6078 H 571.138 1.56499 -1.07741 0
M  V30 6079 H 569.288 3.88054 -0.186128 0
M  V30 6080 H 570.96 3.67533 -2.78779 0
M  V30 6081 H 569.203 3.41384 -2.67656 0
M  V30 6082 H 569.874 5.00841 -2.32082 0
M  V30 6083 H 572.35 4.11556 -0.613285 0
M  V30 6084 H 571.226 5.47671 -0.367093 0
M  V30 6085 H 571.487 4.32196 0.930559 0
M  V30 6086 N 570.547 0.616602 1.45037 0
M  V30 6087 C 571.479 -0.135186 2.28801 0
M  V30 6088 C 572.492 -0.82303 1.40464 0
M  V30 6089 O 573.681 -0.686909 1.64754 0
M  V30 6090 C 570.781 -1.21292 3.16451 0
M  V30 6091 C 569.954 -0.61043 4.3312 0
M  V30 6092 C 569.013 -1.58022 5.01912 0
M  V30 6093 O 568.039 -1.10301 5.58411 0
M  V30 6094 N 569.241 -2.91464 5.02025 0
M  V30 6095 H 572.006 0.583612 2.93963 0
M  V30 6096 H 569.567 0.456723 1.55324 0
M  V30 6097 H 571.559 -1.86169 3.59337 0
M  V30 6098 H 570.129 -1.83412 2.53138 0
M  V30 6099 H 569.349 0.216638 3.93604 0
M  V30 6100 H 570.637 -0.188293 5.08451 0
M  V30 6101 H 570.035 -3.32829 4.57429 0
M  V30 6102 H 568.592 -3.51741 5.48745 0
M  V30 6103 N 572.025 -1.5352 0.356285 0
M  V30 6104 C 573.441 -1.59599 0.00485267 0
M  V30 6105 C 573.641 -1.37179 -1.47595 0
M  V30 6106 O 572.697 -1.17234 -2.23635 0
M  V30 6107 C 574.01 -2.97277 0.452454 0
M  V30 6108 C 575.558 -3.10357 0.405881 0
M  V30 6109 C 576.033 -4.50432 0.829148 0
M  V30 6110 N 577.524 -4.5652 0.783838 0
M  V30 6111 C 578.259 -5.63077 1.08315 0
M  V30 6112 N 577.755 -6.77429 1.45126 0
M  V30 6113 N 579.548 -5.53014 1.00655 0
M  V30 6114 H 571.699 -1.66346 1.32071 0
M  V30 6115 H 573.962 -0.77971 0.539218 0
M  V30 6116 H 573.668 -3.18792 1.48542 0
M  V30 6117 H 573.542 -3.76836 -0.165762 0
M  V30 6118 H 575.929 -2.88558 -0.617934 0
M  V30 6119 H 576.01 -2.32828 1.05947 0
M  V30 6120 H 575.654 -4.72968 1.85103 0
M  V30 6121 H 575.584 -5.26378 0.152906 0
M  V30 6122 H 578.075 -3.74408 0.512513 0
M  V30 6123 H 578.388 -7.54669 1.66415 0
M  V30 6124 H 576.733 -6.78844 1.48983 0
M  V30 6125 H 579.924 -4.62557 0.718215 0
M  V30 6126 H 580.097 -6.35964 1.24315 0
M  V30 6127 N 573.503 -0.0852151 -1.57369 0
M  V30 6128 C 574.466 0.8627 -2.12344 0
M  V30 6129 C 575.466 1.21746 -1.05046 0
M  V30 6130 O 576.656 1.14852 -1.30976 0
M  V30 6131 C 573.788 2.1618 -2.63589 0
M  V30 6132 H 574.981 0.385511 -2.97412 0
M  V30 6133 H 572.534 0.163663 -1.55441 0
M  V30 6134 H 573.269 2.68406 -1.82013 0
M  V30 6135 H 573.054 1.91723 -3.4203 0
M  V30 6136 H 574.544 2.84011 -3.06149 0
M  V30 6137 N 574.981 1.5647 0.188427 0
M  V30 6138 C 576.397 1.50204 0.539532 0
M  V30 6139 C 576.597 0.78644 1.85519 0
M  V30 6140 O 575.653 0.339714 2.50204 0
M  V30 6141 C 576.966 2.94893 0.588103 0
M  V30 6142 C 578.514 3.05602 0.67648 0
M  V30 6143 C 578.989 4.51716 0.756101 0
M  V30 6144 N 580.48 4.55894 0.819451 0
M  V30 6145 C 581.215 5.66272 0.90134 0
M  V30 6146 N 580.711 6.86323 0.945118 0
M  V30 6147 N 582.504 5.54201 0.939043 0
M  V30 6148 H 574.655 2.01406 -0.674493 0
M  V30 6149 H 576.918 0.916828 -0.241103 0
M  V30 6150 H 576.624 3.50334 -0.309633 0
M  V30 6151 H 576.498 3.4861 1.44051 0
M  V30 6152 H 578.885 2.50206 1.56465 0
M  V30 6153 H 578.966 2.54999 -0.202262 0
M  V30 6154 H 578.61 5.07739 -0.12774 0
M  V30 6155 H 578.54 5.00058 1.65074 0
M  V30 6156 H 581.031 3.69452 0.794594 0
M  V30 6157 H 581.344 7.66194 1.0083 0
M  V30 6158 H 579.689 6.88968 0.913683 0
M  V30 6159 H 582.88 4.59333 0.901725 0
M  V30 6160 H 583.053 6.40247 0.999402 0
M  V30 6161 N 576.459 -0.456382 1.50847 0
M  V30 6162 C 577.407 -1.57318 1.71329 0
M  V30 6163 C 578.401 -1.59187 0.579287 0
M  V30 6164 O 579.607 -1.6316 0.76018 0
M  V30 6165 H 575.982 -0.5223 0.541024 0
M  V30 6166 H 577.953 -1.3721 2.64983 0
M  V30 6167 C 576.702 -2.95142 1.83811 0
M  V30 6168 H 576.025 -2.94428 2.70467 0
M  V30 6169 H 577.465 -3.72702 2.02161 0
M  V30 6170 C 575.924 -3.31636 0.593224 0
M  V30 6171 O 576.454 -4.00852 -0.260898 0
M  V30 6172 N 574.66 -2.87205 0.442902 0
M  V30 6173 H 574.207 -2.31051 1.13901 0
M  V30 6174 H 574.165 -3.11986 -0.38884 0
M  V30 6175 N 577.937 -1.40673 -0.710563 0
M  V30 6176 C 579.185 -1.38947 -1.46759 0
M  V30 6177 C 579.506 0.00572879 -1.94999 0
M  V30 6178 O 578.776 0.961358 -1.70689 0
M  V30 6179 H 577.356 -0.5114 -0.544499 0
M  V30 6180 H 580.018 -1.75773 -0.842012 0
M  V30 6181 H 579.114 -2.06745 -2.33801 0
M  V30 6182 N 579.415 0.9433 -1.26252 0
M  V30 6183 C 580.663 1.68592 -1.11451 0
M  V30 6184 C 580.984 1.91957 0.343123 0
M  V30 6185 O 580.254 1.51475 1.24226 0
M  V30 6186 H 578.834 0.624789 -0.409448 0
M  V30 6187 H 581.496 1.13351 -1.58548 0
M  V30 6188 H 580.592 2.66054 -1.63162 0
M  V30 6189 N 580.893 1.08022 1.14757 0
M  V30 6190 C 581.823 0.728248 2.21853 0
M  V30 6191 C 582.804 -0.287486 1.67653 0
M  V30 6192 O 583.989 -0.158727 1.9355 0
M  V30 6193 C 581.119 0.132549 3.47047 0
M  V30 6194 C 580.073 1.07619 4.14249 0
M  V30 6195 C 579.399 0.342907 5.33599 0
M  V30 6196 C 580.699 2.41268 4.63235 0
M  V30 6197 H 582.393 1.62365 2.51551 0
M  V30 6198 H 579.939 0.782125 1.20908 0
M  V30 6199 H 581.892 -0.125665 4.21213 0
M  V30 6200 H 580.616 -0.797971 3.16702 0
M  V30 6201 H 579.275 1.31944 3.42033 0
M  V30 6202 H 578.923 -0.59129 4.99513 0
M  V30 6203 H 578.623 0.971955 5.79506 0
M  V30 6204 H 580.147 0.0926538 6.1053 0
M  V30 6205 H 581.561 2.21232 5.28894 0
M  V30 6206 H 579.958 2.9983 5.19829 0
M  V30 6207 H 581.028 3.03079 3.78512 0
M  V30 6208 N 582.371 -1.3172 0.865308 0
M  V30 6209 C 583.787 -1.4958 0.556596 0
M  V30 6210 C 583.987 -1.79763 -0.910353 0
M  V30 6211 O 583.043 -1.87351 -1.6928 0
M  V30 6212 C 584.356 -2.63277 1.45279 0
M  V30 6213 C 585.904 -2.77161 1.45433 0
M  V30 6214 C 586.379 -3.93949 2.33598 0
M  V30 6215 N 587.87 -4.01228 2.31453 0
M  V30 6216 C 588.605 -4.90855 2.96393 0
M  V30 6217 N 588.101 -5.85416 3.70486 0
M  V30 6218 N 589.894 -4.84063 2.85726 0
M  V30 6219 H 582.045 -1.10396 1.81456 0
M  V30 6220 H 584.308 -0.54507 0.775631 0
M  V30 6221 H 584.014 -2.47734 2.49641 0
M  V30 6222 H 583.888 -3.59309 1.14792 0
M  V30 6223 H 586.275 -2.9212 0.41831 0
M  V30 6224 H 586.356 -1.8181 1.79941 0
M  V30 6225 H 586 -3.79748 3.37274 0
M  V30 6226 H 585.93 -4.88598 1.96417 0
M  V30 6227 H 588.421 -3.3357 1.77593 0
M  V30 6228 H 588.734 -6.50525 4.17178 0
M  V30 6229 H 587.079 -5.85409 3.74594 0
M  V30 6230 H 590.27 -4.09163 2.27384 0
M  V30 6231 H 590.443 -5.53708 3.36617 0
M  V30 6232 N 583.85 -0.624285 -1.44708 0
M  V30 6233 C 585.26 -0.2092 -1.85524 0
M  V30 6234 C 585.611 1.23783 -1.52225 0
M  V30 6235 O 584.736 1.94089 -0.956986 0
M  V30 6236 C 585.332 -0.372897 -3.36742 0
M  V30 6237 C 583.891 -0.012374 -3.76398 0
M  V30 6238 C 583.038 -0.68951 -2.68591 0
M  V30 6239 H 585.989 -0.829894 -1.35272 0
M  V30 6240 H 586.01 0.390134 -3.78495 0
M  V30 6241 H 585.522 -1.42615 -3.60947 0
M  V30 6242 H 583.623 1.03941 -3.57809 0
M  V30 6243 H 583.736 -0.417663 -4.77276 0
M  V30 6244 H 582.1 -0.125484 -2.54391 0
M  V30 6245 H 582.883 -1.74522 -2.9563 0
M  V30 6246 N 585.328 1.53329 -0.364422 0
M  V30 6247 C 586.258 2.28627 0.474543 0
M  V30 6248 C 587.239 1.31009 1.08492 0
M  V30 6249 O 588.424 1.59878 1.10239 0
M  V30 6250 C 585.554 3.07465 1.61501 0
M  V30 6251 C 584.508 4.1276 1.13194 0
M  V30 6252 C 583.834 4.79674 2.36255 0
M  V30 6253 C 585.134 5.21847 0.217507 0
M  V30 6254 H 586.828 2.99005 -0.153656 0
M  V30 6255 H 584.374 1.43803 -0.0753406 0
M  V30 6256 H 586.327 3.58889 2.20855 0
M  V30 6257 H 585.051 2.34775 2.27042 0
M  V30 6258 H 583.71 3.62281 0.56109 0
M  V30 6259 H 583.358 4.03557 3.00251 0
M  V30 6260 H 583.058 5.50827 2.04606 0
M  V30 6261 H 584.582 5.33892 2.96297 0
M  V30 6262 H 585.996 5.6878 0.718493 0
M  V30 6263 H 584.393 6.00099 -0.00806408 0
M  V30 6264 H 585.463 4.7921 -0.740653 0
M  V30 6265 N 586.806 0.0935595 1.57322 0
M  V30 6266 C 587.716 -0.880192 2.17462 0
M  V30 6267 C 588.732 -1.31135 1.14366 0
M  V30 6268 O 589.908 -1.37958 1.46729 0
M  V30 6269 C 586.973 -2.12184 2.74188 0
M  V30 6270 C 586.034 -1.74503 3.92234 0
M  V30 6271 C 585.267 -2.92748 4.46245 0
M  V30 6272 O 585.49 -4.07427 3.99198 0
M  V30 6273 O 584.424 -2.71303 5.37288 0
M  V30 6274 H 588.25 -0.398516 3.01074 0
M  V30 6275 H 585.835 -0.130707 1.48827 0
M  V30 6276 H 587.717 -2.84953 3.10451 0
M  V30 6277 H 586.392 -2.59407 1.93623 0
M  V30 6278 H 585.299 -0.989186 3.60785 0
M  V30 6279 H 586.632 -1.32044 4.74157 0
M  V30 6280 N 588.284 -1.56567 -0.180126 0
M  V30 6281 C 589.53 -1.81761 -0.899497 0
M  V30 6282 C 589.863 -0.670015 -1.82276 0
M  V30 6283 O 589.138 0.328575 -1.91705 0
M  V30 6284 C 589.421 -3.17296 -1.7028 0
M  V30 6285 C 589.274 -4.4257 -0.803255 0
M  V30 6286 C 590.593 -3.49678 -2.67233 0
M  V30 6287 H 587.712 -0.661192 -0.325567 0
M  V30 6288 H 590.354 -1.89272 -0.16612 0
M  V30 6289 H 588.504 -3.11023 -2.32802 0
M  V30 6290 H 590.176 -4.60902 -0.191585 0
M  V30 6291 H 588.419 -4.33658 -0.110796 0
M  V30 6292 H 589.09 -5.33935 -1.40064 0
M  V30 6293 H 591.566 -3.56347 -2.14839 0
M  V30 6294 H 590.442 -4.45605 -3.20511 0
M  V30 6295 H 590.703 -2.73932 -3.47007 0
M  V30 6296 N 589.762 0.448376 -1.51087 0
M  V30 6297 C 591.178 0.783984 -1.39017 0
M  V30 6298 C 591.378 1.96087 -0.463904 0
M  V30 6299 O 590.434 2.52357 0.0850534 0
M  V30 6300 C 591.747 1.07471 -2.80839 0
M  V30 6301 C 593.295 1.17981 -2.89913 0
M  V30 6302 C 593.77 1.50354 -4.32617 0
M  V30 6303 N 595.261 1.57301 -4.35673 0
M  V30 6304 C 595.996 1.839 -5.4311 0
M  V30 6305 N 595.492 2.08365 -6.60724 0
M  V30 6306 N 597.285 1.8559 -5.30578 0
M  V30 6307 H 589.436 -0.326881 -2.0987 0
M  V30 6308 H 591.699 -0.0838006 -0.944289 0
M  V30 6309 H 591.405 0.282768 -3.50561 0
M  V30 6310 H 591.279 2.00519 -3.19487 0
M  V30 6311 H 593.666 1.9624 -2.20395 0
M  V30 6312 H 593.747 0.228603 -2.54776 0
M  V30 6313 H 593.391 0.726273 -5.0268 0
M  V30 6314 H 593.321 2.46663 -4.65258 0
M  V30 6315 H 595.812 1.40342 -3.50874 0
M  V30 6316 H 596.125 2.27999 -7.38401 0
M  V30 6317 H 594.47 2.0571 -6.63859 0
M  V30 6318 H 597.661 1.65989 -4.37682 0
M  V30 6319 H 597.834 2.05983 -6.1439 0
M  V30 6320 N 591.24 1.41047 0.703093 0
M  V30 6321 C 592.656 1.23351 1.01275 0
M  V30 6322 C 592.856 0.11754 2.01157 0
M  V30 6323 O 591.912 -0.520518 2.47077 0
M  V30 6324 C 593.225 2.58001 1.54454 0
M  V30 6325 C 594.773 2.65119 1.66376 0
M  V30 6326 C 595.248 4.00067 2.22958 0
M  V30 6327 N 596.739 4.01875 2.30328 0
M  V30 6328 C 597.474 5.03087 2.75119 0
M  V30 6329 N 596.97 6.14692 3.19571 0
M  V30 6330 N 598.763 4.90451 2.74616 0
M  V30 6331 H 590.914 2.1236 0.0412686 0
M  V30 6332 H 593.177 0.944543 0.08089 0
M  V30 6333 H 592.883 3.40378 0.88521 0
M  V30 6334 H 592.757 2.79962 2.52786 0
M  V30 6335 H 595.144 1.83106 2.31422 0
M  V30 6336 H 595.225 2.46975 0.666089 0
M  V30 6337 H 594.869 4.82526 1.58529 0
M  V30 6338 H 594.799 4.15547 3.23462 0
M  V30 6339 H 597.29 3.21291 1.98949 0
M  V30 6340 H 597.603 6.87799 3.52352 0
M  V30 6341 H 595.948 6.18239 3.17498 0
M  V30 6342 H 599.139 4.0235 2.39233 0
M  V30 6343 H 599.312 5.6947 3.09206 0
M  V30 6344 N 592.718 -0.936591 1.26751 0
M  V30 6345 C 593.681 -2.01752 1.08761 0
M  V30 6346 C 594.681 -1.60763 0.0344435 0
M  V30 6347 O 595.871 -1.71963 0.278258 0
M  V30 6348 C 593.003 -3.34543 0.655271 0
M  V30 6349 H 594.196 -2.19143 2.04735 0
M  V30 6350 H 591.749 -1.11618 1.09413 0
M  V30 6351 H 592.484 -3.22851 -0.30626 0
M  V30 6352 H 592.269 -3.65647 1.41578 0
M  V30 6353 H 593.759 -4.13944 0.551378 0
M  V30 6354 N 594.196 -1.08629 -1.14182 0
M  V30 6355 C 595.607 -0.838003 -1.66836 0
M  V30 6356 C 595.958 0.634885 -1.85644 0
M  V30 6357 O 595.083 1.49008 -1.56926 0
M  V30 6358 C 595.678 -1.51465 -3.03058 0
M  V30 6359 C 594.237 -1.31355 -3.52736 0
M  V30 6360 C 593.384 -1.57599 -2.28162 0
M  V30 6361 H 596.335 -1.24656 -0.982165 0
M  V30 6362 H 596.356 -0.943134 -3.68626 0
M  V30 6363 H 595.868 -2.58661 -2.89337 0
M  V30 6364 H 593.969 -0.262384 -3.71675 0
M  V30 6365 H 594.082 -2.04275 -4.33369 0
M  V30 6366 H 592.446 -0.997659 -2.34348 0
M  V30 6367 H 593.229 -2.66006 -2.17015 0
M  V30 6368 N 595.674 1.31259 -0.872281 0
M  V30 6369 C 596.92 1.96913 -0.485083 0
M  V30 6370 C 597.253 1.68774 0.960667 0
M  V30 6371 O 596.528 0.985495 1.67685 0
M  V30 6372 C 596.811 3.52299 -0.745502 0
M  V30 6373 C 596.664 3.90002 -2.24095 0
M  V30 6374 C 597.983 4.39582 -0.213516 0
M  V30 6375 H 595.102 0.715252 -0.177716 0
M  V30 6376 H 597.744 1.55347 -1.09395 0
M  V30 6377 H 595.894 3.87835 -0.227276 0
M  V30 6378 H 597.566 3.64555 -2.82661 0
M  V30 6379 H 595.809 3.38526 -2.71261 0
M  V30 6380 H 596.48 4.98352 -2.37381 0
M  V30 6381 H 598.956 4.10882 -0.656902 0
M  V30 6382 H 597.832 5.47251 -0.42516 0
M  V30 6383 H 598.093 4.33158 0.884666 0
M  V30 6384 N 597.152 0.631951 1.44375 0
M  V30 6385 C 598.563 0.219036 1.85411 0
M  V30 6386 C 598.914 -1.22974 1.52879 0
M  V30 6387 O 598.039 -1.93579 0.967266 0
M  V30 6388 C 598.634 0.39075 3.36539 0
M  V30 6389 C 597.193 0.0323351 3.76386 0
M  V30 6390 C 596.34 0.703744 2.68221 0
M  V30 6391 H 599.291 0.837056 1.3483 0
M  V30 6392 H 599.312 -0.370056 3.78696 0
M  V30 6393 H 598.824 1.44527 3.60185 0
M  V30 6394 H 596.925 -1.02042 3.58355 0
M  V30 6395 H 597.038 0.442969 4.77048 0
M  V30 6396 H 595.402 0.138974 2.54321 0
M  V30 6397 H 596.185 1.76088 2.947 0
M  V30 6398 N 598.631 -1.53133 0.372548 0
M  V30 6399 C 599.908 -1.93704 -0.271693 0
M  V30 6400 C 600.288 -1.30667 -1.65799 0
M  V30 6401 O 599.636 -0.46838 -2.23648 0
M  V30 6402 C 599.846 -3.47576 -0.314903 0
M  V30 6403 C 601.194 -4.20998 -0.551912 0
M  V30 6404 O 602.218 -3.53994 -0.39582 0
M  V30 6405 O 601.077 -5.39748 -0.85639 0
M  V30 6406 H 598.171 -0.810457 -0.164586 0
M  V30 6407 H 600.717 -1.6427 0.425838 0
M  V30 6408 H 599.489 -3.85749 0.656792 0
M  V30 6409 H 599.112 -3.83264 -1.05804 0
M  V30 6410 N 600.109 -0.101901 -1.5727 0
M  V30 6411 C 601.357 0.559091 -1.94213 0
M  V30 6412 C 601.678 1.68297 -0.984948 0
M  V30 6413 O 600.948 1.95863 -0.0381975 0
M  V30 6414 H 599.528 0.20952 -0.717015 0
M  V30 6415 H 602.19 -0.166831 -1.94185 0
M  V30 6416 H 601.286 0.96485 -2.96811 0
M  V30 6417 N 601.587 1.56661 0.17182 0
M  V30 6418 C 602.55 1.9549 1.19651 0
M  V30 6419 C 603.55 0.838501 1.37207 0
M  V30 6420 O 604.74 1.10556 1.34622 0
M  V30 6421 C 601.872 2.24927 2.56166 0
M  V30 6422 H 603.065 2.87184 0.864007 0
M  V30 6423 H 600.618 1.50711 0.41425 0
M  V30 6424 H 601.353 1.35944 2.94431 0
M  V30 6425 H 601.138 3.06301 2.4479 0
M  V30 6426 H 602.628 2.55891 3.30014 0
M  V30 6427 N 603.065 -0.440357 1.51323 0
M  V30 6428 C 604.476 -1.02032 1.56353 0
M  V30 6429 C 604.827 -1.92382 0.385197 0
M  V30 6430 O 603.952 -2.10583 -0.498373 0
M  V30 6431 C 604.547 -1.85723 2.83359 0
M  V30 6432 C 603.106 -2.38774 2.90971 0
M  V30 6433 C 602.253 -1.17908 2.50984 0
M  V30 6434 H 605.204 -0.221744 1.57143 0
M  V30 6435 H 605.225 -2.71141 2.66951 0
M  V30 6436 H 604.737 -1.19939 3.69102 0
M  V30 6437 H 602.838 -3.08021 2.09651 0
M  V30 6438 H 602.951 -2.71778 3.94555 0
M  V30 6439 H 601.315 -1.52347 2.04114 0
M  V30 6440 H 602.098 -0.537393 3.39068 0
M  V30 6441 N 604.543 -1.41418 -0.695603 0
M  V30 6442 C 605.768 -1.44329 -1.48942 0
M  V30 6443 C 606.193 -0.0501579 -1.88033 0
M  V30 6444 O 605.551 0.946598 -1.54626 0
M  V30 6445 C 605.599 -2.3578 -2.72837 0
M  V30 6446 O 604.703 -1.81482 -3.70322 0
M  V30 6447 H 604.044 -0.489838 -0.44828 0
M  V30 6448 H 606.574 -1.85878 -0.855014 0
M  V30 6449 H 606.584 -2.51654 -3.21145 0
M  V30 6450 H 605.259 -3.37005 -2.43722 0
M  V30 6451 H 603.836 -1.75058 -3.29255 0
M  V30 6452 N 606.021 0.929856 -1.27246 0
M  V30 6453 C 607.437 1.20542 -1.04603 0
M  V30 6454 C 607.637 2.00276 0.221754 0
M  V30 6455 O 606.693 2.34835 0.927833 0
M  V30 6456 C 608.006 1.95566 -2.28417 0
M  V30 6457 C 609.554 2.08513 -2.33433 0
M  V30 6458 C 610.029 2.86943 -3.5697 0
M  V30 6459 N 611.52 2.94512 -3.57515 0
M  V30 6460 C 612.255 3.55656 -4.49774 0
M  V30 6461 N 611.751 4.18209 -5.52334 0
M  V30 6462 N 613.544 3.53038 -4.37402 0
M  V30 6463 H 605.695 0.397113 -2.08655 0
M  V30 6464 H 607.958 0.238277 -0.917566 0
M  V30 6465 H 607.664 1.44395 -3.20691 0
M  V30 6466 H 607.538 2.9619 -2.33563 0
M  V30 6467 H 609.925 2.58872 -1.41666 0
M  V30 6468 H 610.006 1.07117 -2.32292 0
M  V30 6469 H 609.65 2.37268 -4.49072 0
M  V30 6470 H 609.58 3.8862 -3.55362 0
M  V30 6471 H 612.071 2.50053 -2.83341 0
M  V30 6472 H 612.384 4.62796 -6.18902 0
M  V30 6473 H 610.729 4.16761 -5.56179 0
M  V30 6474 H 613.92 3.0337 -3.56489 0
M  V30 6475 H 614.093 4.004 -5.09493 0
M  V30 6476 N 607.499 1.09233 1.13605 0
M  V30 6477 C 608.729 0.847677 1.88409 0
M  V30 6478 C 609.137 -0.604524 1.79282 0
M  V30 6479 O 608.48 -1.42773 1.15592 0
M  V30 6480 C 608.542 1.20153 3.38827 0
M  V30 6481 C 608.206 2.65824 3.71735 0
M  V30 6482 C 609.203 3.64072 3.71143 0
M  V30 6483 C 606.888 3.01894 4.01454 0
M  V30 6484 C 608.882 4.96419 3.99808 0
M  V30 6485 C 606.569 4.34433 4.29781 0
M  V30 6486 C 607.567 5.31505 4.28942 0
M  V30 6487 O 607.255 6.61659 4.56576 0
M  V30 6488 H 606.987 0.304813 0.603378 0
M  V30 6489 H 609.541 1.4573 1.44748 0
M  V30 6490 H 607.771 0.534946 3.82982 0
M  V30 6491 H 609.46 0.936349 3.94952 0
M  V30 6492 H 610.226 3.37549 3.4826 0
M  V30 6493 H 606.105 2.26971 4.01255 0
M  V30 6494 H 609.649 5.7218 3.99069 0
M  V30 6495 H 605.546 4.607 4.52135 0
M  V30 6496 H 606.314 6.67102 4.74254 0
M  V30 6497 N 608.977 -1.30795 0.87923 0
M  V30 6498 C 610.388 -1.78535 0.546093 0
M  V30 6499 C 610.739 -1.72354 -0.937467 0
M  V30 6500 O 609.864 -1.2969 -1.73233 0
M  V30 6501 C 610.459 -3.24181 0.9845 0
M  V30 6502 C 609.018 -3.69779 0.702871 0
M  V30 6503 C 608.165 -2.51377 1.17068 0
M  V30 6504 H 611.116 -1.17746 1.06403 0
M  V30 6505 H 611.137 -3.79227 0.311045 0
M  V30 6506 H 610.649 -3.28647 2.06429 0
M  V30 6507 H 608.75 -3.70806 -0.365166 0
M  V30 6508 H 608.863 -4.61507 1.28639 0
M  V30 6509 H 607.227 -2.47768 0.590172 0
M  V30 6510 H 608.01 -2.58584 2.25808 0
M  V30 6511 N 610.455 -0.639598 -1.44038 0
M  V30 6512 C 611.866 -0.228866 -1.85292 0
M  V30 6513 C 612.217 1.22161 -1.53529 0
M  V30 6514 O 611.342 1.93064 -0.977518 0
M  V30 6515 C 611.937 -0.408592 -3.36327 0
M  V30 6516 C 610.496 -0.0522953 -3.76364 0
M  V30 6517 C 609.643 -0.717959 -2.67844 0
M  V30 6518 H 612.594 -0.844194 -1.34384 0
M  V30 6519 H 612.615 0.349968 -3.78887 0
M  V30 6520 H 612.127 -1.46435 -3.59414 0
M  V30 6521 H 610.228 1.0014 -3.58891 0
M  V30 6522 H 610.341 -0.468261 -4.76806 0
M  V30 6523 H 608.705 -0.152459 -2.54243 0
M  V30 6524 H 609.488 -1.77648 -2.93762 0
M  V30 6525 N 611.933 1.52934 -0.380664 0
M  V30 6526 C 613.179 2.01765 0.20458 0
M  V30 6527 C 613.512 1.26696 1.47179 0
M  V30 6528 O 612.787 0.364936 1.91046 0
M  V30 6529 C 613.07 3.56869 0.481269 0
M  V30 6530 C 612.923 4.42617 -0.800629 0
M  V30 6531 C 614.242 4.2121 1.27554 0
M  V30 6532 H 611.361 0.733388 0.0728803 0
M  V30 6533 H 614.003 1.83068 -0.50853 0
M  V30 6534 H 612.153 3.72932 1.08875 0
M  V30 6535 H 613.825 4.38323 -1.43773 0
M  V30 6536 H 612.068 4.09977 -1.4178 0
M  V30 6537 H 612.739 5.49134 -0.561791 0
M  V30 6538 H 615.215 4.09072 0.761514 0
M  V30 6539 H 614.091 5.29732 1.43788 0
M  V30 6540 H 614.352 3.78269 2.28833 0
M  V30 6541 N 613.412 0.11024 1.57214 0
M  V30 6542 C 614.375 -0.828808 2.1369 0
M  V30 6543 C 615.375 -1.20059 1.06969 0
M  V30 6544 O 616.565 -1.12754 1.32786 0
M  V30 6545 C 613.697 -2.11959 2.66994 0
M  V30 6546 H 614.89 -0.338146 2.97988 0
M  V30 6547 H 612.443 -0.138913 1.55681 0
M  V30 6548 H 613.178 -2.65476 1.8626 0
M  V30 6549 H 612.963 -1.86258 3.45037 0
M  V30 6550 H 614.453 -2.79105 3.10629 0
M  V30 6551 N 614.89 -1.56749 -0.16351 0
M  V30 6552 C 616.118 -1.86577 -0.894233 0
M  V30 6553 C 616.533 -0.696543 -1.75481 0
M  V30 6554 O 615.89 0.334161 -1.79415 0
M  V30 6555 C 615.941 -3.15508 -1.76456 0
M  V30 6556 O 615.662 -4.27926 -0.938685 0
M  V30 6557 C 617.163 -3.58737 -2.60428 0
M  V30 6558 H 614.383 -0.618829 -0.259405 0
M  V30 6559 H 616.927 -2.03863 -0.161259 0
M  V30 6560 H 615.082 -3.00025 -2.45079 0
M  V30 6561 H 615.496 -5.01546 -1.53465 0
M  V30 6562 H 616.97 -4.51832 -3.17099 0
M  V30 6563 H 617.447 -2.83229 -3.35675 0
M  V30 6564 H 618.053 -3.76858 -1.97125 0
M  V30 6565 N 616.368 0.432326 -1.51554 0
M  V30 6566 C 617.608 1.19076 -1.66133 0
M  V30 6567 C 617.972 1.88364 -0.371873 0
M  V30 6568 O 619.173 2.65904 -0.39349 0
M  V30 6569 C 617.444 2.1768 -2.83461 0
M  V30 6570 S 619.003 3.01943 -3.18396 0
M  V30 6571 H 615.821 0.403735 -0.585251 0
M  V30 6572 H 618.423 0.481554 -1.89476 0
M  V30 6573 H 617.127 1.65424 -3.75583 0
M  V30 6574 H 616.658 2.93174 -2.62322 0
M  V30 6575 H 618.673 4.19373 -2.65219 0
M  V30 6576 N 617.846 1.41785 0.688094 0
M  V30 6577 C 618.796 1.40684 1.79421 0
M  V30 6578 C 619.78 0.280096 1.58443 0
M  V30 6579 O 620.972 0.521332 1.69148 0
M  V30 6580 C 618.101 1.29874 3.17785 0
M  V30 6581 C 617.187 2.47442 3.44432 0
M  V30 6582 N 617.578 3.72895 3.41736 0
M  V30 6583 C 615.876 2.41416 3.75013 0
M  V30 6584 C 616.577 4.50912 3.67496 0
M  V30 6585 N 615.553 3.81131 3.87608 0
M  V30 6586 H 619.355 2.35591 1.7571 0
M  V30 6587 H 616.869 1.35946 0.888393 0
M  V30 6588 H 618.866 1.27168 3.97031 0
M  V30 6589 H 617.526 0.359587 3.22703 0
M  V30 6590 H 618.537 4.05676 3.21943 0
M  V30 6591 H 615.214 1.56011 3.87256 0
M  V30 6592 H 616.604 5.59865 3.71484 0
M  V30 6593 N 619.324 -0.923095 1.27737 0
M  V30 6594 C 620.74 -1.19985 1.05241 0
M  V30 6595 C 620.94 -2.00391 -0.21113 0
M  V30 6596 O 619.996 -2.35324 -0.915366 0
M  V30 6597 C 621.309 -1.94352 2.29451 0
M  V30 6598 C 622.857 -2.07273 2.34536 0
M  V30 6599 C 623.332 -2.85046 3.58487 0
M  V30 6600 N 624.823 -2.92612 3.59072 0
M  V30 6601 C 625.558 -3.53266 4.51654 0
M  V30 6602 N 625.054 -4.15274 5.54545 0
M  V30 6603 N 626.847 -3.50714 4.39268 0
M  V30 6604 H 618.998 -0.386042 2.08862 0
M  V30 6605 H 621.261 -0.233407 0.918817 0
M  V30 6606 H 620.967 -1.42692 3.21453 0
M  V30 6607 H 620.841 -2.94947 2.3513 0
M  V30 6608 H 623.228 -2.58117 1.43037 0
M  V30 6609 H 623.309 -1.05884 2.32857 0
M  V30 6610 H 622.953 -2.34884 4.50324 0
M  V30 6611 H 622.883 -3.8673 3.57418 0
M  V30 6612 H 625.374 -2.48547 2.84663 0
M  V30 6613 H 625.687 -4.59507 6.21348 0
M  V30 6614 H 624.032 -4.13806 5.58382 0
M  V30 6615 H 627.223 -3.01475 3.58093 0
M  V30 6616 H 627.396 -3.97693 5.1161 0
M  V30 6617 N 620.802 -1.09834 -1.13024 0
M  V30 6618 C 622.213 -0.855651 -1.65938 0
M  V30 6619 C 622.564 0.615159 -1.86307 0
M  V30 6620 O 621.689 1.47335 -1.58497 0
M  V30 6621 C 622.284 -1.5467 -3.01434 0
M  V30 6622 C 620.843 -1.35088 -3.51323 0
M  V30 6623 C 619.99 -1.6001 -2.26478 0
M  V30 6624 H 622.941 -1.25691 -0.968889 0
M  V30 6625 H 622.962 -0.982179 -3.67605 0
M  V30 6626 H 622.474 -2.61715 -2.86578 0
M  V30 6627 H 620.575 -0.30179 -3.71376 0
M  V30 6628 H 620.688 -2.0886 -4.31178 0
M  V30 6629 H 619.052 -1.02246 -2.33276 0
M  V30 6630 H 619.835 -2.68293 -2.14182 0
M  V30 6631 N 622.28 1.30327 -0.886154 0
M  V30 6632 C 623.528 1.9571 -0.504195 0
M  V30 6633 C 623.849 1.70294 0.950003 0
M  V30 6634 O 623.119 1.02718 1.66811 0
M  V30 6635 H 621.699 0.72412 -0.183465 0
M  V30 6636 H 624.361 1.58835 -1.12949 0
M  V30 6637 H 623.457 3.04704 -0.675431 0
M  V30 6638 N 623.758 0.647228 1.43697 0
M  V30 6639 C 624.983 0.164083 2.0675 0
M  V30 6640 C 625.408 -1.15892 1.48158 0
M  V30 6641 O 624.766 -1.71459 0.589194 0
M  V30 6642 C 624.814 0.0800368 3.60511 0
M  V30 6643 O 623.918 -0.959453 4.01084 0
M  V30 6644 H 623.259 0.0921288 0.657578 0
M  V30 6645 H 625.789 0.88846 1.84303 0
M  V30 6646 H 625.799 -0.105263 4.07864 0
M  V30 6647 H 624.474 1.04586 4.02535 0
M  V30 6648 H 623.051 -0.747425 3.65333 0
M  V30 6649 N 625.236 -1.5273 0.388769 0
M  V30 6650 C 626.464 -2.05992 -0.193677 0
M  V30 6651 C 626.879 -1.26053 -1.40557 0
M  V30 6652 O 626.236 -0.307049 -1.79898 0
M  V30 6653 C 626.287 -3.57068 -0.564321 0
M  V30 6654 O 626.008 -4.3398 0.599422 0
M  V30 6655 C 627.509 -4.26674 -1.20269 0
M  V30 6656 H 624.729 -0.670358 -0.0293445 0
M  V30 6657 H 627.273 -1.96857 0.553844 0
M  V30 6658 H 625.428 -3.66277 -1.26174 0
M  V30 6659 H 625.842 -5.2367 0.294895 0
M  V30 6660 H 627.316 -5.33625 -1.4124 0
M  V30 6661 H 627.793 -3.81854 -2.16989 0
M  V30 6662 H 628.399 -4.2178 -0.546047 0
M  V30 6663 N 626.714 -0.118576 -1.57153 0
M  V30 6664 C 627.939 0.550582 -1.99958 0
M  V30 6665 C 628.364 1.59458 -0.997736 0
M  V30 6666 O 627.722 1.81274 0.0306269 0
M  V30 6667 C 627.77 1.15379 -3.41643 0
M  V30 6668 O 626.874 2.26932 -3.44348 0
M  V30 6669 H 626.215 0.137567 -0.649593 0
M  V30 6670 H 628.745 -0.206926 -2.03551 0
M  V30 6671 H 628.755 1.48942 -3.79843 0
M  V30 6672 H 627.43 0.389087 -4.14076 0
M  V30 6673 H 626.007 1.94812 -3.17967 0
M  V30 6674 N 628.193 1.56834 0.155195 0
M  V30 6675 C 629.44 1.82898 0.869179 0
M  V30 6676 C 629.768 0.698194 1.81537 0
M  V30 6677 O 629.023 -0.313404 1.93174 0
M  V30 6678 C 629.322 3.15239 1.68402 0
M  V30 6679 C 628.988 4.42123 0.885341 0
M  V30 6680 C 627.65 4.76583 0.664971 0
M  V30 6681 C 630.002 5.20178 0.326234 0
M  V30 6682 C 627.33 5.86566 -0.125346 0
M  V30 6683 C 629.682 6.3099 -0.45108 0
M  V30 6684 C 628.346 6.64006 -0.682102 0
M  V30 6685 H 627.616 0.66927 0.318055 0
M  V30 6686 H 630.263 1.91036 0.133241 0
M  V30 6687 H 628.568 3.02515 2.48982 0
M  V30 6688 H 630.265 3.32618 2.23978 0
M  V30 6689 H 626.855 4.15102 1.06716 0
M  V30 6690 H 631.039 4.93936 0.483787 0
M  V30 6691 H 626.295 6.10594 -0.313915 0
M  V30 6692 H 630.469 6.9067 -0.89149 0
M  V30 6693 H 628.096 7.49065 -1.29636 0
M  V30 6694 N 629.671 -0.424282 1.51781 0
M  V30 6695 C 630.911 -1.18194 1.66762 0
M  V30 6696 C 631.275 -1.88164 0.381857 0
M  V30 6697 O 632.476 -2.65692 0.407586 0
M  V30 6698 C 630.747 -2.16173 2.84612 0
M  V30 6699 S 632.306 -3.0025 3.19993 0
M  V30 6700 H 629.124 -0.400626 0.587384 0
M  V30 6701 H 631.726 -0.471499 1.89729 0
M  V30 6702 H 630.43 -1.6343 3.76455 0
M  V30 6703 H 629.961 -2.91778 2.63873 0
M  V30 6704 H 631.976 -4.1796 2.67439 0
M  V30 6705 N 631.149 -1.42148 -0.680565 0
M  V30 6706 C 632.56 -1.3768 -1.26099 0
M  V30 6707 C 632.911 -0.0672348 -1.96085 0
M  V30 6708 O 632.036 0.834172 -1.99676 0
M  V30 6709 C 632.631 -2.49387 -2.29328 0
M  V30 6710 C 631.19 -2.4827 -2.82911 0
M  V30 6711 C 630.337 -2.2847 -1.57152 0
M  V30 6712 H 633.288 -1.51446 -0.474326 0
M  V30 6713 H 633.309 -2.19307 -3.10941 0
M  V30 6714 H 632.821 -3.44686 -1.78363 0
M  V30 6715 H 630.922 -1.56773 -3.38013 0
M  V30 6716 H 631.035 -3.45109 -3.3232 0
M  V30 6717 H 629.399 -1.76623 -1.83511 0
M  V30 6718 H 630.182 -3.25816 -1.0816 0
M  V30 6719 N 632.627 0.916307 -1.28225 0
M  V30 6720 C 633.875 1.6619 -1.15002 0
M  V30 6721 C 634.196 1.92642 0.302329 0
M  V30 6722 O 633.466 1.54076 1.20985 0
M  V30 6723 H 632.046 0.615964 -0.422608 0
M  V30 6724 H 634.708 1.09963 -1.60917 0
M  V30 6725 H 633.804 2.62533 -1.68769 0
M  V30 6726 N 634.105 1.10431 1.1244 0
M  V30 6727 C 635.015 0.765502 2.21759 0
M  V30 6728 C 636.031 -0.236966 1.72379 0
M  V30 6729 O 637.207 -0.0757329 2.01258 0
M  V30 6730 C 634.272 0.202316 3.46109 0
M  V30 6731 C 633.333 1.26205 4.1033 0
M  V30 6732 C 632.566 0.725648 5.28744 0
M  V30 6733 O 632.789 -0.447942 5.68638 0
M  V30 6734 O 631.723 1.48555 5.83279 0
M  V30 6735 H 635.549 1.67801 2.53133 0
M  V30 6736 H 633.134 0.879443 1.20773 0
M  V30 6737 H 635.016 -0.107918 4.21262 0
M  V30 6738 H 633.691 -0.683052 3.16411 0
M  V30 6739 H 632.598 1.62514 3.36957 0
M  V30 6740 H 633.931 2.12044 4.44183 0
M  V30 6741 N 635.583 -1.29855 0.893053 0
M  V30 6742 C 636.808 -2.00512 0.530066 0
M  V30 6743 C 637.233 -1.66446 -0.876199 0
M  V30 6744 O 636.591 -0.885446 -1.58207 0
M  V30 6745 C 636.639 -3.53308 0.721505 0
M  V30 6746 O 635.743 -4.11764 -0.228994 0
M  V30 6747 H 635.084 -0.630617 0.207891 0
M  V30 6748 H 637.614 -1.6551 1.20282 0
M  V30 6749 H 637.624 -4.03206 0.623599 0
M  V30 6750 H 636.299 -3.77439 1.74678 0
M  V30 6751 H 634.876 -3.72805 -0.0841034 0
M  V30 6752 N 637.061 -0.65484 -1.43351 0
M  V30 6753 C 638.286 -0.175046 -2.0666 0
M  V30 6754 C 638.711 1.15104 -1.4877 0
M  V30 6755 O 638.069 1.71144 -0.598279 0
M  V30 6756 C 638.117 -0.0991544 -3.60464 0
M  V30 6757 O 637.221 0.938169 -4.01587 0
M  V30 6758 H 636.562 -0.0956148 -0.65708 0
M  V30 6759 H 639.092 -0.898222 -1.83829 0
M  V30 6760 H 639.102 0.083632 -4.07914 0
M  V30 6761 H 637.777 -1.06719 -4.01975 0
M  V30 6762 H 636.354 0.72804 -3.65724 0
M  V30 6763 N 638.539 1.52521 -0.396863 0
M  V30 6764 C 639.955 1.5953 -0.0471659 0
M  V30 6765 C 640.155 1.41044 1.43906 0
M  V30 6766 O 639.211 1.23122 2.20448 0
M  V30 6767 C 640.524 2.95972 -0.531113 0
M  V30 6768 C 642.072 3.09172 -0.488024 0
M  V30 6769 C 642.547 4.48075 -0.948281 0
M  V30 6770 N 644.038 4.54281 -0.9046 0
M  V30 6771 C 644.773 5.60007 -1.23205 0
M  V30 6772 N 644.269 6.73343 -1.63036 0
M  V30 6773 N 646.062 5.50151 -1.15282 0
M  V30 6774 H 638.213 1.62786 -1.36435 0
M  V30 6775 H 640.476 0.76514 -0.559701 0
M  V30 6776 H 640.182 3.14741 -1.56942 0
M  V30 6777 H 640.056 3.77143 0.0657922 0
M  V30 6778 H 642.443 2.90095 0.541211 0
M  V30 6779 H 642.524 2.29937 -1.12083 0
M  V30 6780 H 642.168 4.67894 -1.97578 0
M  V30 6781 H 642.098 5.25788 -0.292412 0
M  V30 6782 H 644.589 3.72918 -0.6116 0
M  V30 6783 H 644.902 7.49992 -1.86365 0
M  V30 6784 H 643.247 6.74655 -1.66929 0
M  V30 6785 H 646.438 4.6049 -0.840602 0
M  V30 6786 H 646.611 6.32444 -1.41133 0
M  V30 6787 N 640.017 0.126909 1.57088 0
M  V30 6788 C 640.95 -0.857844 2.11462 0
M  V30 6789 C 641.928 -1.25569 1.03301 0
M  V30 6790 O 643.112 -1.35535 1.31006 0
M  V30 6791 C 640.239 -2.14912 2.61784 0
M  V30 6792 C 639.285 -1.89874 3.81903 0
M  V30 6793 S 640.118 -1.10785 5.23915 0
M  V30 6794 C 641.274 -2.41075 5.7761 0
M  V30 6795 H 641.507 -0.395384 2.94659 0
M  V30 6796 H 639.04 -0.0870151 1.54155 0
M  V30 6797 H 640.998 -2.89101 2.91429 0
M  V30 6798 H 639.659 -2.58275 1.78754 0
M  V30 6799 H 638.852 -2.85572 4.15289 0
M  V30 6800 H 638.454 -1.23802 3.52915 0
M  V30 6801 H 640.746 -3.36864 5.87817 0
M  V30 6802 H 641.689 -2.12223 6.75549 0
M  V30 6803 H 642.097 -2.50804 5.05725 0
M  V30 6804 N 641.495 -1.56914 -0.146875 0
M  V30 6805 C 642.743 -1.82994 -0.85777 0
M  V30 6806 C 643.064 -0.707814 -1.817 0
M  V30 6807 O 642.334 0.270521 -1.94023 0
M  V30 6808 H 640.914 -0.675106 -0.319751 0
M  V30 6809 H 643.576 -1.9439 -0.140849 0
M  V30 6810 H 642.672 -2.77928 -1.41994 0
M  V30 6811 N 642.974 0.416227 -1.52004 0
M  V30 6812 C 644.223 1.16088 -1.64944 0
M  V30 6813 C 644.536 1.91835 -0.381928 0
M  V30 6814 O 645.742 2.6867 -0.391013 0
M  V30 6815 C 644.198 2.1124 -2.91386 0
M  V30 6816 C 643.806 1.41042 -4.25219 0
M  V30 6817 C 645.55 2.86008 -3.13688 0
M  V30 6818 C 643.457 2.34801 -5.42791 0
M  V30 6819 H 642.387 0.437041 -0.61442 0
M  V30 6820 H 645.038 0.425971 -1.78487 0
M  V30 6821 H 643.42 2.88254 -2.71525 0
M  V30 6822 H 644.594 0.694416 -4.55538 0
M  V30 6823 H 642.909 0.78344 -4.08964 0
M  V30 6824 H 645.506 3.56286 -3.98703 0
M  V30 6825 H 645.849 3.48556 -2.27628 0
M  V30 6826 H 646.382 2.16095 -3.33988 0
M  V30 6827 H 643.121 1.7691 -6.31176 0
M  V30 6828 H 642.641 3.04395 -5.16821 0
M  V30 6829 H 644.32 2.9548 -5.75587 0
M  V30 6830 N 644.452 1.42507 0.673017 0
M  V30 6831 C 645.399 1.46124 1.78651 0
M  V30 6832 C 646.369 0.313007 1.63124 0
M  V30 6833 O 647.554 0.517337 1.83653 0
M  V30 6834 C 644.694 1.3711 3.16694 0
M  V30 6835 C 643.807 2.61983 3.43495 0
M  V30 6836 C 642.942 2.45098 4.71275 0
M  V30 6837 C 641.981 3.65336 4.91117 0
M  V30 6838 N 641.118 3.47383 6.10139 0
M  V30 6839 H 645.958 2.4128 1.74895 0
M  V30 6840 H 643.495 1.19788 0.853766 0
M  V30 6841 H 645.453 1.29881 3.96468 0
M  V30 6842 H 644.083 0.45549 3.1957 0
M  V30 6843 H 643.135 2.79571 2.57961 0
M  V30 6844 H 644.447 3.51355 3.5405 0
M  V30 6845 H 643.601 2.35466 5.59143 0
M  V30 6846 H 642.34 1.53219 4.63007 0
M  V30 6847 H 641.345 3.754 4.0169 0
M  V30 6848 H 642.57 4.58199 5.01229 0
M  V30 6849 H 640.516 2.58222 6.0304 0
M  V30 6850 H 640.433 4.30344 6.21563 0
M  V30 6851 H 641.701 3.41565 7.00681 0
M  V30 6852 N 645.93 -0.909495 1.28709 0
M  V30 6853 C 647.207 -1.63865 1.06806 0
M  V30 6854 C 647.587 -2.07445 -0.391143 0
M  V30 6855 O 646.935 -1.82269 -1.37805 0
M  V30 6856 C 647.145 -2.82692 2.04661 0
M  V30 6857 C 648.493 -3.5361 2.35042 0
M  V30 6858 O 649.517 -2.92847 2.02779 0
M  V30 6859 O 648.376 -4.63131 2.90124 0
M  V30 6860 H 645.47 -0.719065 0.408502 0
M  V30 6861 H 648.016 -0.958424 1.40044 0
M  V30 6862 H 646.788 -2.47614 3.0299 0
M  V30 6863 H 646.411 -3.58426 1.72095 0
M  V30 6864 N 647.408 -1.11026 -1.11852 0
M  V30 6865 C 648.824 -0.843294 -1.35502 0
M  V30 6866 C 649.024 0.534179 -1.9429 0
M  V30 6867 O 648.08 1.28585 -2.17307 0
M  V30 6868 C 649.393 -1.94793 -2.29077 0
M  V30 6869 C 650.941 -1.97709 -2.42652 0
M  V30 6870 C 651.416 -3.07364 -3.39546 0
M  V30 6871 N 652.907 -3.0671 -3.47107 0
M  V30 6872 C 653.642 -3.88197 -4.22008 0
M  V30 6873 N 653.138 -4.79635 -4.99922 0
M  V30 6874 N 654.931 -3.76391 -4.17476 0
M  V30 6875 H 647.082 -1.99805 -0.720538 0
M  V30 6876 H 649.345 -0.868633 -0.379711 0
M  V30 6877 H 649.051 -2.93971 -1.93065 0
M  V30 6878 H 648.925 -1.84039 -3.29256 0
M  V30 6879 H 651.312 -0.991604 -2.77941 0
M  V30 6880 H 651.393 -2.1254 -1.4234 0
M  V30 6881 H 651.037 -4.06136 -3.04985 0
M  V30 6882 H 650.967 -2.89774 -4.39703 0
M  V30 6883 H 653.458 -2.40457 -2.91528 0
M  V30 6884 H 653.771 -5.38357 -5.54429 0
M  V30 6885 H 652.116 -4.8366 -4.99097 0
M  V30 6886 H 655.307 -3.04303 -3.55693 0
M  V30 6887 H 655.48 -4.40131 -4.75593 0
M  V30 6888 N 648.886 1.2938 -0.899927 0
M  V30 6889 C 650.135 1.9483 -0.521937 0
M  V30 6890 C 650.448 1.71725 0.936473 0
M  V30 6891 O 651.654 2.31282 1.42199 0
M  V30 6892 C 650.11 3.48911 -0.88255 0
M  V30 6893 C 649.718 3.80815 -2.35974 0
M  V30 6894 C 651.462 4.20595 -0.57448 0
M  V30 6895 C 649.369 5.28142 -2.66121 0
M  V30 6896 H 648.299 0.729285 -0.191468 0
M  V30 6897 H 650.95 1.47103 -1.09695 0
M  V30 6898 H 649.332 3.95293 -0.236459 0
M  V30 6899 H 650.506 3.45291 -3.05141 0
M  V30 6900 H 648.821 3.22271 -2.63686 0
M  V30 6901 H 651.418 5.29031 -0.776556 0
M  V30 6902 H 651.761 4.13442 0.487005 0
M  V30 6903 H 652.294 3.79945 -1.17842 0
M  V30 6904 H 649.033 5.4036 -3.71068 0
M  V30 6905 H 648.553 5.64913 -2.01578 0
M  V30 6906 H 650.232 5.95738 -2.52399 0
M  V30 6907 N 650.364 0.662433 1.43002 0
M  V30 6908 C 651.78 0.330835 1.56133 0
M  V30 6909 C 651.98 -1.16454 1.64441 0
M  V30 6910 O 651.036 -1.94964 1.60453 0
M  V30 6911 C 652.349 1.05029 2.81761 0
M  V30 6912 C 653.897 1.03142 2.95518 0
M  V30 6913 C 654.372 1.73196 4.2399 0
M  V30 6914 N 655.863 1.70004 4.30875 0
M  V30 6915 C 656.598 2.21074 5.29069 0
M  V30 6916 N 656.094 2.80473 6.33488 0
M  V30 6917 N 657.887 2.1152 5.20784 0
M  V30 6918 H 650.038 1.63272 1.35853 0
M  V30 6919 H 652.301 0.687149 0.653092 0
M  V30 6920 H 652.007 2.10542 2.81718 0
M  V30 6921 H 651.881 0.607664 3.72273 0
M  V30 6922 H 654.268 -0.0153339 2.95096 0
M  V30 6923 H 654.349 1.51282 2.0627 0
M  V30 6924 H 653.993 2.77833 4.25172 0
M  V30 6925 H 653.923 1.22515 5.1215 0
M  V30 6926 H 656.414 1.26667 3.56039 0
M  V30 6927 H 656.727 3.17094 7.04749 0
M  V30 6928 H 655.072 2.84538 6.34085 0
M  V30 6929 H 658.263 1.64814 4.38126 0
M  V30 6930 H 658.436 2.51629 5.97149 0
M  V30 6931 N 651.842 -1.52309 0.404946 0
M  V30 6932 C 652.775 -2.23369 -0.467087 0
M  V30 6933 C 653.753 -1.24034 -1.0514 0
M  V30 6934 O 654.937 -1.53071 -1.10006 0
M  V30 6935 C 652.064 -2.95906 -1.64795 0
M  V30 6936 C 651.11 -4.09637 -1.18743 0
M  V30 6937 S 651.943 -5.35273 -0.156022 0
M  V30 6938 C 653.099 -6.11337 -1.34231 0
M  V30 6939 H 653.332 -2.96987 0.136294 0
M  V30 6940 H 650.865 -1.53236 0.189219 0
M  V30 6941 H 652.823 -3.38304 -2.3251 0
M  V30 6942 H 651.484 -2.21937 -2.22267 0
M  V30 6943 H 650.677 -4.59549 -2.06955 0
M  V30 6944 H 650.279 -3.69333 -0.588981 0
M  V30 6945 H 652.571 -6.38458 -2.26665 0
M  V30 6946 H 653.514 -7.02563 -0.883804 0
M  V30 6947 H 653.922 -5.42338 -1.56621 0
M  V30 6948 N 653.32 -0.135238 -1.57019 0
M  V30 6949 C 654.568 0.51777 -1.95355 0
M  V30 6950 C 654.889 1.6617 -1.02042 0
M  V30 6951 O 654.159 1.95738 -0.0797343 0
M  V30 6952 H 652.739 0.194264 -0.721298 0
M  V30 6953 H 655.401 -0.207983 -1.93787 0
M  V30 6954 H 654.497 0.901675 -2.98791 0
M  V30 6955 N 654.798 1.5699 0.138552 0
M  V30 6956 C 656.023 1.88344 0.86841 0
M  V30 6957 C 656.448 0.725159 1.7356 0
M  V30 6958 O 655.806 -0.324992 1.78363 0
M  V30 6959 C 655.854 3.18334 1.69398 0
M  V30 6960 O 654.958 3.02863 2.79907 0
M  V30 6961 H 654.299 0.618577 0.241367 0
M  V30 6962 H 656.829 2.04207 0.126826 0
M  V30 6963 H 656.839 3.50567 2.08726 0
M  V30 6964 H 655.514 4.02238 1.05725 0
M  V30 6965 H 654.091 2.82056 2.43924 0
M  V30 6966 N 656.276 -0.40816 1.52223 0
M  V30 6967 C 657.501 -1.18127 1.70472 0
M  V30 6968 C 657.926 -1.83491 0.41384 0
M  V30 6969 O 657.284 -1.70047 -0.628778 0
M  V30 6970 C 657.332 -2.21935 2.84213 0
M  V30 6971 O 656.436 -3.28099 2.4985 0
M  V30 6972 H 655.777 -0.344781 0.56747 0
M  V30 6973 H 658.307 -0.478328 1.9893 0
M  V30 6974 H 658.317 -2.66248 3.09153 0
M  V30 6975 H 656.992 -1.73744 3.7787 0
M  V30 6976 H 655.569 -2.89058 2.35584 0
M  V30 6977 N 657.755 -1.42862 -0.66545 0
M  V30 6978 C 658.687 -1.43026 -1.79098 0
M  V30 6979 C 659.7 -0.32803 -1.59461 0
M  V30 6980 O 660.889 -0.591709 -1.68407 0
M  V30 6981 C 657.989 -1.21566 -3.16346 0
M  V30 6982 C 657.162 -2.44399 -3.62751 0
M  V30 6983 C 656.221 -2.18344 -4.78761 0
M  V30 6984 O 655.247 -2.91611 -4.88827 0
M  V30 6985 N 656.449 -1.1924 -5.68122 0
M  V30 6986 H 659.214 -2.40045 -1.79439 0
M  V30 6987 H 656.775 -1.37861 -0.848872 0
M  V30 6988 H 658.767 -1.02037 -3.91625 0
M  V30 6989 H 657.337 -0.330368 -3.10849 0
M  V30 6990 H 656.557 -2.79433 -2.78048 0
M  V30 6991 H 657.845 -3.26173 -3.90498 0
M  V30 6992 H 657.243 -0.586603 -5.6265 0
M  V30 6993 H 655.8 -1.05698 -6.43173 0
M  V30 6994 N 659.233 0.902656 -1.29189 0
M  V30 6995 C 660.649 1.18296 -1.07137 0
M  V30 6996 C 660.849 2.00701 0.179223 0
M  V30 6997 O 659.905 2.3675 0.877812 0
M  V30 6998 C 661.218 1.90677 -2.32514 0
M  V30 6999 C 662.766 2.03515 -2.37804 0
M  V30 7000 C 663.241 2.79307 -3.62976 0
M  V30 7001 N 664.732 2.86862 -3.63681 0
M  V30 7002 C 665.467 3.46035 -4.57217 0
M  V30 7003 N 664.963 4.06399 -5.61081 0
M  V30 7004 N 666.756 3.43681 -4.44792 0
M  V30 7005 H 658.907 0.352765 -2.0945 0
M  V30 7006 H 661.17 0.21876 -0.922414 0
M  V30 7007 H 660.876 1.3756 -3.23682 0
M  V30 7008 H 660.75 2.91169 -2.39793 0
M  V30 7009 H 663.137 2.55809 -1.47125 0
M  V30 7010 H 663.218 1.02166 -2.34512 0
M  V30 7011 H 662.862 2.2769 -4.54004 0
M  V30 7012 H 662.792 3.80995 -3.63525 0
M  V30 7013 H 665.283 2.43987 -2.88581 0
M  V30 7014 H 665.596 4.49564 -6.2858 0
M  V30 7015 H 663.941 4.0487 -5.64894 0
M  V30 7016 H 667.132 2.9574 -3.62843 0
M  V30 7017 H 667.305 3.89503 -5.17872 0
M  V30 7018 N 660.711 1.11618 1.11262 0
M  V30 7019 C 662.127 0.850468 1.35053 0
M  V30 7020 C 662.327 -0.523868 1.94571 0
M  V30 7021 O 661.383 -1.2743 2.17986 0
M  V30 7022 C 662.696 1.96005 2.28041 0
M  V30 7023 C 664.244 1.98993 2.416 0
M  V30 7024 C 664.719 3.0916 3.37911 0
M  V30 7025 N 666.21 3.08547 3.45475 0
M  V30 7026 C 666.945 3.9043 4.19943 0
M  V30 7027 N 666.441 4.8228 4.97371 0
M  V30 7028 N 668.234 3.786 4.15474 0
M  V30 7029 H 660.385 2.00184 0.709932 0
M  V30 7030 H 662.648 0.870635 0.375099 0
M  V30 7031 H 662.354 2.9499 1.91503 0
M  V30 7032 H 662.228 1.85782 3.28275 0
M  V30 7033 H 664.615 1.00633 2.77411 0
M  V30 7034 H 664.696 2.13292 1.4121 0
M  V30 7035 H 664.34 4.07748 3.02827 0
M  V30 7036 H 664.27 2.92102 4.3816 0
M  V30 7037 H 666.761 2.42 2.90249 0
M  V30 7038 H 667.074 5.41289 5.51567 0
M  V30 7039 H 665.419 4.863 4.96525 0
M  V30 7040 H 668.61 3.06185 3.54074 0
M  V30 7041 H 668.783 4.42647 4.73253 0
M  V30 7042 N 662.189 -1.289 0.906776 0
M  V30 7043 C 663.417 -1.99401 0.551969 0
M  V30 7044 C 663.832 -1.67816 -0.865048 0
M  V30 7045 O 663.189 -0.927078 -1.57199 0
M  V30 7046 C 663.24 -3.53779 0.743152 0
M  V30 7047 O 662.961 -3.84248 2.1044 0
M  V30 7048 C 664.462 -4.41543 0.39424 0
M  V30 7049 H 661.682 -0.636926 0.211106 0
M  V30 7050 H 664.226 -1.64266 1.21807 0
M  V30 7051 H 662.381 -3.87201 0.124143 0
M  V30 7052 H 662.795 -4.78904 2.13895 0
M  V30 7053 H 664.269 -5.48957 0.578814 0
M  V30 7054 H 664.746 -4.34073 -0.669137 0
M  V30 7055 H 665.352 -4.13605 0.990491 0
M  V30 7056 N 663.667 -0.670007 -1.42649 0
M  V30 7057 C 664.915 -0.18991 -2.01206 0
M  V30 7058 C 665.236 1.20617 -1.53221 0
M  V30 7059 O 664.506 1.80898 -0.751856 0
M  V30 7060 H 663.086 -0.0672189 -0.743969 0
M  V30 7061 H 665.748 -0.865442 -1.74631 0
M  V30 7062 H 664.844 -0.187481 -3.11536 0
M  V30 7063 N 665.145 1.52092 -0.413018 0
M  V30 7064 C 666.556 1.86617 0.0556967 0
M  V30 7065 C 666.907 1.33156 1.44097 0
M  V30 7066 O 666.032 0.672417 2.05688 0
M  V30 7067 C 666.627 3.38628 0.107844 0
M  V30 7068 C 665.186 3.72778 0.520904 0
M  V30 7069 C 664.333 2.75649 -0.302109 0
M  V30 7070 H 667.284 1.45663 -0.629919 0
M  V30 7071 H 667.305 3.69152 0.922324 0
M  V30 7072 H 666.817 3.77508 -0.900506 0
M  V30 7073 H 664.918 3.39478 1.53575 0
M  V30 7074 H 665.031 4.7838 0.262591 0
M  V30 7075 H 663.395 2.53603 0.236115 0
M  V30 7076 H 664.178 3.17369 -1.30888 0
M  V30 7077 N 666.623 0.143563 1.56945 0
M  V30 7078 C 667.848 -0.518701 2.00809 0
M  V30 7079 C 668.273 -1.5785 1.02298 0
M  V30 7080 O 667.631 -1.813 -0.0017839 0
M  V30 7081 C 667.679 -1.09929 3.43436 0
M  V30 7082 O 666.783 -2.21425 3.47915 0
M  V30 7083 H 666.124 -0.127215 0.6517 0
M  V30 7084 H 668.654 0.239283 2.03196 0
M  V30 7085 H 668.664 -1.4288 3.82164 0
M  V30 7086 H 667.339 -0.323162 4.14643 0
M  V30 7087 H 665.916 -1.89728 3.21026 0
M  V30 7088 N 668.101 -1.57061 -0.130224 0
M  V30 7089 C 669.048 -1.99517 -1.16024 0
M  V30 7090 C 670.018 -0.865452 -1.41771 0
M  V30 7091 O 671.203 -1.12882 -1.53826 0
M  V30 7092 C 668.343 -2.3951 -2.48453 0
M  V30 7093 C 667.456 -3.65848 -2.29737 0
M  V30 7094 C 666.591 -3.9487 -3.55318 0
M  V30 7095 C 665.63 -5.14426 -3.31711 0
M  V30 7096 N 664.767 -5.39375 -4.49466 0
M  V30 7097 H 669.607 -2.87305 -0.791194 0
M  V30 7098 H 667.144 -1.42129 -0.379195 0
M  V30 7099 H 669.102 -2.60731 -3.25692 0
M  V30 7100 H 667.732 -1.54779 -2.83272 0
M  V30 7101 H 666.784 -3.52307 -1.4347 0
M  V30 7102 H 668.096 -4.53241 -2.08263 0
M  V30 7103 H 667.25 -4.16679 -4.4098 0
M  V30 7104 H 665.989 -3.05931 -3.79813 0
M  V30 7105 H 664.994 -4.92473 -2.44439 0
M  V30 7106 H 666.219 -6.04933 -3.08598 0
M  V30 7107 H 664.165 -4.53391 -4.74102 0
M  V30 7108 H 664.082 -6.21069 -4.31055 0
M  V30 7109 H 665.35 -5.65694 -5.36293 0
M  V30 7110 N 669.579 0.400081 -1.52437 0
M  V30 7111 C 670.511 1.50729 -1.72666 0
M  V30 7112 C 671.524 1.51058 -0.607075 0
M  V30 7113 O 672.713 1.5516 -0.88248 0
M  V30 7114 C 669.813 2.89604 -1.76019 0
M  V30 7115 C 668.986 3.13365 -3.05157 0
M  V30 7116 C 668.045 4.32163 -3.00203 0
M  V30 7117 O 667.071 4.29004 -3.74092 0
M  V30 7118 N 668.273 5.3776 -2.18619 0
M  V30 7119 H 671.038 1.33767 -2.68191 0
M  V30 7120 H 668.599 0.58948 -1.50787 0
M  V30 7121 H 670.591 3.67159 -1.70225 0
M  V30 7122 H 669.161 2.99979 -0.879284 0
M  V30 7123 H 668.381 2.23774 -3.24529 0
M  V30 7124 H 669.669 3.26089 -3.90568 0
M  V30 7125 H 669.067 5.43177 -1.58035 0
M  V30 7126 H 667.624 6.14023 -2.18674 0
M  V30 7127 N 671.057 1.43213 0.657864 0
M  V30 7128 C 672.007 1.44459 1.76396 0
M  V30 7129 C 672.991 0.313641 1.57814 0
M  V30 7130 O 674.183 0.557094 1.68004 0
M  V30 7131 C 671.312 1.36586 3.14959 0
M  V30 7132 C 670.398 2.54692 3.39106 0
M  V30 7133 N 670.789 3.80059 3.33749 0
M  V30 7134 C 669.087 2.49316 3.69807 0
M  V30 7135 C 669.788 4.58606 3.57849 0
M  V30 7136 N 668.764 3.89267 3.79437 0
M  V30 7137 H 672.566 2.39265 1.70673 0
M  V30 7138 H 670.08 1.378 0.859357 0
M  V30 7139 H 672.077 1.35561 3.94245 0
M  V30 7140 H 670.737 0.427956 3.21867 0
M  V30 7141 H 671.748 4.12414 3.13266 0
M  V30 7142 H 668.425 1.6419 3.83859 0
M  V30 7143 H 669.815 5.67619 3.59525 0
M  V30 7144 N 672.536 -0.895792 1.29666 0
M  V30 7145 C 673.466 -2.01673 1.17688 0
M  V30 7146 C 674.447 -1.69955 0.0701317 0
M  V30 7147 O 675.632 -1.9258 0.250289 0
M  V30 7148 C 672.762 -3.36568 0.856681 0
M  V30 7149 C 671.716 -3.82509 1.92017 0
M  V30 7150 C 671.042 -5.14574 1.4532 0
M  V30 7151 C 672.342 -4.02409 3.32963 0
M  V30 7152 H 674.036 -2.11953 2.11463 0
M  V30 7153 H 671.582 -1.01839 1.01807 0
M  V30 7154 H 673.535 -4.14498 0.759577 0
M  V30 7155 H 672.259 -3.26391 -0.116763 0
M  V30 7156 H 670.918 -3.068 2.00673 0
M  V30 7157 H 670.566 -5.00815 0.468325 0
M  V30 7158 H 670.266 -5.46283 2.16447 0
M  V30 7159 H 671.79 -5.9504 1.36968 0
M  V30 7160 H 673.204 -4.70808 3.27127 0
M  V30 7161 H 671.601 -4.45478 4.02082 0
M  V30 7162 H 672.671 -3.06616 3.75652 0
M  V30 7163 N 674.014 -1.12206 -1.10668 0
M  V30 7164 C 674.977 -0.790867 -2.15123 0
M  V30 7165 C 675.977 0.193618 -1.5963 0
M  V30 7166 O 677.167 -0.0318728 -1.74171 0
M  V30 7167 C 674.299 -0.174797 -3.40452 0
M  V30 7168 H 675.492 -1.7163 -2.45933 0
M  V30 7169 H 673.045 -0.924993 -1.2599 0
M  V30 7170 H 673.78 0.760478 -3.15257 0
M  V30 7171 H 673.565 -0.88358 -3.82015 0
M  V30 7172 H 675.055 0.0405162 -4.1758 0
M  V30 7173 N 675.492 1.28418 -0.913599 0
M  V30 7174 C 676.903 1.77024 -0.593237 0
M  V30 7175 C 677.254 1.74779 0.891441 0
M  V30 7176 O 676.379 1.34237 1.69733 0
M  V30 7177 C 676.974 3.21456 -1.07011 0
M  V30 7178 C 675.533 3.67786 -0.800664 0
M  V30 7179 C 674.68 2.48185 -1.23691 0
M  V30 7180 H 677.631 1.14883 -1.09487 0
M  V30 7181 H 677.652 3.78269 -0.411481 0
M  V30 7182 H 677.164 3.23058 -2.1507 0
M  V30 7183 H 675.265 3.71644 0.266725 0
M  V30 7184 H 675.378 4.57934 -1.4083 0
M  V30 7185 H 673.742 2.46116 -0.655655 0
M  V30 7186 H 674.525 2.52506 -2.32585 0
M  V30 7187 N 676.97 0.677563 1.42291 0
M  V30 7188 C 678.381 0.277912 1.8462 0
M  V30 7189 C 678.732 -1.18048 1.56714 0
M  V30 7190 O 677.857 -1.90404 1.02836 0
M  V30 7191 C 678.452 0.497619 3.35126 0
M  V30 7192 C 677.011 0.152063 3.76093 0
M  V30 7193 C 676.158 0.78872 2.65847 0
M  V30 7194 H 679.109 0.879527 1.32098 0
M  V30 7195 H 679.13 -0.24939 3.79682 0
M  V30 7196 H 678.642 1.55913 3.55405 0
M  V30 7197 H 676.743 -0.905896 3.6142 0
M  V30 7198 H 676.856 0.594514 4.75397 0
M  V30 7199 H 675.22 0.219813 2.5375 0
M  V30 7200 H 676.003 1.85374 2.88949 0
M  V30 7201 N 678.448 -1.51871 0.421078 0
M  V30 7202 C 679.676 -2.06356 -0.14994 0
M  V30 7203 C 680.091 -1.29006 -1.37851 0
M  V30 7204 O 679.448 -0.345139 -1.79207 0
M  V30 7205 C 679.499 -3.58185 -0.488454 0
M  V30 7206 O 679.22 -4.32611 0.691341 0
M  V30 7207 C 680.721 -4.29129 -1.11191 0
M  V30 7208 H 677.941 -0.67083 -0.0151186 0
M  V30 7209 H 680.485 -1.95638 0.595476 0
M  V30 7210 H 678.64 -3.68871 -1.18376 0
M  V30 7211 H 679.054 -5.22927 0.405906 0
M  V30 7212 H 680.528 -5.36501 -1.29889 0
M  V30 7213 H 681.005 -3.86371 -2.0884 0
M  V30 7214 H 681.611 -4.22843 -0.456458 0
M  V30 7215 N 679.926 -0.151884 -1.56866 0
M  V30 7216 C 680.859 0.824094 -2.128 0
M  V30 7217 C 681.837 1.2391 -1.05286 0
M  V30 7218 O 683.021 1.33433 -1.33146 0
M  V30 7219 C 680.148 2.1072 -2.65169 0
M  V30 7220 C 679.194 1.83774 -3.84876 0
M  V30 7221 S 680.027 1.02436 -5.25611 0
M  V30 7222 C 681.183 2.31855 -5.81373 0
M  V30 7223 H 681.416 0.348456 -2.95251 0
M  V30 7224 H 678.949 0.0624794 -1.54274 0
M  V30 7225 H 680.907 2.84428 -2.95992 0
M  V30 7226 H 679.568 2.55398 -1.8284 0
M  V30 7227 H 678.761 2.78929 -4.19779 0
M  V30 7228 H 678.363 1.18172 -3.5484 0
M  V30 7229 H 680.655 3.27469 -5.93102 0
M  V30 7230 H 681.598 2.01449 -6.7884 0
M  V30 7231 H 682.006 2.42727 -5.09651 0
M  V30 7232 N 681.404 1.57128 0.121893 0
M  V30 7233 C 682.815 1.73902 0.679348 0
M  V30 7234 C 683.166 0.770135 1.80453 0
M  V30 7235 O 682.291 -0.0576083 2.16323 0
M  V30 7236 C 682.886 3.15328 1.2391 0
M  V30 7237 C 681.445 3.33618 1.74288 0
M  V30 7238 C 680.592 2.6978 0.641414 0
M  V30 7239 H 683.543 1.58359 -0.104 0
M  V30 7240 H 683.564 3.16718 2.10879 0
M  V30 7241 H 683.076 3.85821 0.419957 0
M  V30 7242 H 681.177 2.68162 2.58689 0
M  V30 7243 H 681.29 4.4176 1.85432 0
M  V30 7244 H 679.654 2.30935 1.0743 0
M  V30 7245 H 680.437 3.42895 -0.166707 0
M  V30 7246 N 682.882 -0.391992 1.52647 0
M  V30 7247 C 684.11 -1.1586 1.71418 0
M  V30 7248 C 684.525 -1.8381 0.431216 0
M  V30 7249 O 683.882 -1.7256 -0.594085 0
M  V30 7250 C 683.933 -2.20888 2.86165 0
M  V30 7251 O 683.654 -1.5571 4.09495 0
M  V30 7252 C 685.155 -3.103 3.1659 0
M  V30 7253 H 682.375 -0.347494 0.574011 0
M  V30 7254 H 684.919 -0.458972 1.99283 0
M  V30 7255 H 683.074 -2.86492 2.6077 0
M  V30 7256 H 683.488 -2.25474 4.73563 0
M  V30 7257 H 684.962 -3.8003 4.00351 0
M  V30 7258 H 685.439 -3.73639 2.30848 0
M  V30 7259 H 686.045 -2.50345 3.43813 0
M  V30 7260 N 684.36 -1.4356 -0.65026 0
M  V30 7261 C 685.585 -1.48995 -1.44275 0
M  V30 7262 C 686.01 -0.109954 -1.87778 0
M  V30 7263 O 685.368 0.896926 -1.57559 0
M  V30 7264 C 685.416 -2.44341 -2.65198 0
M  V30 7265 O 684.52 -1.93172 -3.6436 0
M  V30 7266 H 683.861 -0.503852 -0.432469 0
M  V30 7267 H 686.391 -1.88504 -0.795446 0
M  V30 7268 H 686.401 -2.61743 -3.12977 0
M  V30 7269 H 685.076 -3.44588 -2.32877 0
M  V30 7270 H 683.653 -1.85445 -3.23519 0
M  V30 7271 N 685.838 0.888903 -1.30139 0
M  V30 7272 C 687.249 1.45578 -1.16893 0
M  V30 7273 C 687.6 1.94825 0.231866 0
M  V30 7274 O 686.725 1.84661 1.12824 0
M  V30 7275 C 687.32 2.646 -2.11595 0
M  V30 7276 C 685.879 3.17389 -2.02339 0
M  V30 7277 C 685.026 1.90081 -2.01902 0
M  V30 7278 H 687.977 0.69921 -1.42467 0
M  V30 7279 H 687.998 3.40687 -1.69449 0
M  V30 7280 H 687.51 2.28726 -3.13538 0
M  V30 7281 H 685.611 3.5793 -1.03523 0
M  V30 7282 H 685.724 3.80955 -2.90534 0
M  V30 7283 H 684.088 2.08246 -1.46648 0
M  V30 7284 H 684.871 1.5647 -3.05568 0
M  V30 7285 N 687.317 1.12792 1.10072 0
M  V30 7286 C 688.542 0.908838 1.86427 0
M  V30 7287 C 688.967 -0.536793 1.80278 0
M  V30 7288 O 688.325 -1.38033 1.17543 0
M  V30 7289 C 688.373 1.39295 3.3261 0
M  V30 7290 O 687.477 0.573846 4.08388 0
M  V30 7291 H 686.818 0.326234 0.578331 0
M  V30 7292 H 689.348 1.50094 1.39043 0
M  V30 7293 H 689.358 1.39366 3.83459 0
M  V30 7294 H 688.033 2.44555 3.36401 0
M  V30 7295 H 686.61 0.640438 3.67359 0
M  V30 7296 N 688.795 -1.27931 0.920396 0
M  V30 7297 C 690.02 -1.99343 0.572478 0
M  V30 7298 C 690.445 -1.68267 -0.840696 0
M  V30 7299 O 689.803 -0.918805 -1.56294 0
M  V30 7300 C 689.851 -3.51698 0.796284 0
M  V30 7301 O 688.955 -4.12157 -0.141602 0
M  V30 7302 H 688.296 -0.626065 0.221221 0
M  V30 7303 H 690.826 -1.62921 1.23765 0
M  V30 7304 H 690.836 -4.01793 0.708984 0
M  V30 7305 H 689.511 -3.73649 1.82644 0
M  V30 7306 H 688.088 -3.729 -0.005007 0
M  V30 7307 N 690.273 -0.685099 -1.4193 0
M  V30 7308 C 691.183 -0.013404 -2.34596 0
M  V30 7309 C 692.199 0.777589 -1.55658 0
M  V30 7310 O 693.375 0.717553 -1.88184 0
M  V30 7311 C 690.44 0.919031 -3.34297 0
M  V30 7312 C 689.501 0.121417 -4.29128 0
M  V30 7313 C 688.734 1.00944 -5.24067 0
M  V30 7314 O 688.957 2.24898 -5.24192 0
M  V30 7315 O 687.891 0.464724 -6.00103 0
M  V30 7316 H 691.717 -0.776978 -2.93593 0
M  V30 7317 H 689.302 -0.445379 -1.42607 0
M  V30 7318 H 691.184 1.45402 -3.9552 0
M  V30 7319 H 689.859 1.66228 -2.77759 0
M  V30 7320 H 688.766 -0.45792 -3.71287 0
M  V30 7321 H 690.099 -0.582937 -4.88736 0
M  V30 7322 N 691.751 1.51645 -0.429126 0
M  V30 7323 C 692.683 2.25279 0.422124 0
M  V30 7324 C 693.696 1.28986 0.993299 0
M  V30 7325 O 694.885 1.54797 0.888836 0
M  V30 7326 C 691.985 2.98666 1.60162 0
M  V30 7327 C 691.158 4.2199 1.15078 0
M  V30 7328 C 690.217 4.78028 2.19946 0
M  V30 7329 O 689.243 5.40084 1.79716 0
M  V30 7330 N 690.445 4.61342 3.5234 0
M  V30 7331 H 693.21 2.98971 -0.208931 0
M  V30 7332 H 690.771 1.59838 -0.257568 0
M  V30 7333 H 692.763 3.33044 2.29922 0
M  V30 7334 H 691.333 2.28036 2.13818 0
M  V30 7335 H 690.553 3.932 0.280552 0
M  V30 7336 H 691.841 5.02037 0.826831 0
M  V30 7337 H 691.239 4.11894 3.87763 0
M  V30 7338 H 689.796 5.00104 4.18019 0
M  V30 7339 N 693.229 0.160201 1.56784 0
M  V30 7340 C 694.475 -0.48831 1.96833 0
M  V30 7341 C 694.808 -1.63641 1.04571 0
M  V30 7342 O 694.083 -1.94289 0.0906481 0
M  V30 7343 C 694.366 -0.981908 3.46454 0
M  V30 7344 C 694.219 0.165607 4.49495 0
M  V30 7345 C 695.538 -1.85931 3.98896 0
M  V30 7346 H 692.657 -0.176027 0.71567 0
M  V30 7347 H 695.299 0.244093 1.88426 0
M  V30 7348 H 693.449 -1.60602 3.5375 0
M  V30 7349 H 695.121 0.802372 4.54268 0
M  V30 7350 H 693.364 0.822789 4.25926 0
M  V30 7351 H 694.035 -0.221699 5.51555 0
M  V30 7352 H 696.511 -1.33327 3.94161 0
M  V30 7353 H 695.387 -2.17373 5.04024 0
M  V30 7354 H 695.648 -2.80106 3.42042 0
M  V30 7355 N 694.707 -1.5719 -0.113559 0
M  V30 7356 C 695.955 -1.84772 -0.818761 0
M  V30 7357 C 696.276 -0.746196 -1.80158 0
M  V30 7358 O 695.546 0.229305 -1.94553 0
M  V30 7359 H 694.126 -0.681737 -0.305359 0
M  V30 7360 H 696.788 -1.94645 -0.0995845 0
M  V30 7361 H 695.884 -2.80878 -1.36067 0
M  V30 7362 N 696.185 0.383891 -1.52853 0
M  V30 7363 C 697.095 1.49343 -1.80925 0
M  V30 7364 C 698.111 1.59458 -0.696348 0
M  V30 7365 O 699.287 1.75698 -0.984481 0
M  V30 7366 C 696.352 2.84819 -1.97684 0
M  V30 7367 C 695.413 2.84382 -3.21598 0
M  V30 7368 C 694.646 4.13397 -3.37548 0
M  V30 7369 O 694.869 5.08619 -2.58192 0
M  V30 7370 O 693.803 4.20325 -4.30826 0
M  V30 7371 H 697.629 1.2855 -2.75152 0
M  V30 7372 H 695.214 0.572229 -1.38007 0
M  V30 7373 H 697.096 3.65125 -2.10385 0
M  V30 7374 H 695.771 3.05627 -1.06647 0
M  V30 7375 H 694.678 2.0284 -3.14336 0
M  V30 7376 H 696.011 2.68526 -4.12498 0
M  V30 7377 N 697.663 1.43903 0.642637 0
M  V30 7378 C 698.626 1.49538 1.73698 0
M  V30 7379 C 699.626 0.378776 1.56275 0
M  V30 7380 O 700.816 0.64095 1.6198 0
M  V30 7381 C 697.948 1.35821 3.12675 0
M  V30 7382 H 699.141 2.47008 1.70079 0
M  V30 7383 H 696.694 1.30824 0.85526 0
M  V30 7384 H 697.429 0.393994 3.21898 0
M  V30 7385 H 697.214 2.16776 3.26727 0
M  V30 7386 H 698.704 1.4272 3.92455 0
M  V30 7387 N 699.141 -0.881989 1.30609 0
M  V30 7388 C 700.369 -1.66711 1.22536 0
M  V30 7389 C 700.784 -1.87614 -0.2113 0
M  V30 7390 O 700.141 -1.42576 -1.13923 0
M  V30 7391 C 700.192 -3.04182 1.95335 0
M  V30 7392 O 699.913 -2.8422 3.33393 0
M  V30 7393 C 701.414 -3.98617 1.93956 0
M  V30 7394 H 698.634 -0.520124 0.423925 0
M  V30 7395 H 701.178 -1.10174 1.72285 0
M  V30 7396 H 699.333 -3.57442 1.49378 0
M  V30 7397 H 699.747 -3.71452 3.70302 0
M  V30 7398 H 701.221 -4.92433 2.49426 0
M  V30 7399 H 701.698 -4.29473 0.919198 0
M  V30 7400 H 702.304 -3.51292 2.39738 0
M  V30 7401 N 700.619 -1.13374 -1.09472 0
M  V30 7402 C 701.844 -0.918711 -1.85942 0
M  V30 7403 C 702.269 0.527225 -1.8056 0
M  V30 7404 O 701.627 1.37408 -1.18274 0
M  V30 7405 C 701.675 -1.41056 -3.31867 0
M  V30 7406 O 700.779 -0.595496 -4.08078 0
M  V30 7407 H 700.12 -0.329297 -0.576593 0
M  V30 7408 H 702.65 -1.50829 -1.38245 0
M  V30 7409 H 702.66 -1.41398 -3.82715 0
M  V30 7410 H 701.335 -2.46335 -3.35099 0
M  V30 7411 H 699.912 -0.659911 -3.67014 0
M  V30 7412 N 702.098 1.27442 -0.927168 0
M  V30 7413 C 703.509 1.76385 -0.611979 0
M  V30 7414 C 703.86 1.75715 0.872853 0
M  V30 7415 O 702.985 1.3603 1.683 0
M  V30 7416 C 703.58 3.20303 -1.10414 0
M  V30 7417 C 702.139 3.66916 -0.839628 0
M  V30 7418 C 701.286 2.46859 -1.26317 0
M  V30 7419 H 704.237 1.13716 -1.107 0
M  V30 7420 H 704.258 3.77811 -0.451578 0
M  V30 7421 H 703.77 3.20759 -2.18484 0
M  V30 7422 H 701.871 3.71906 0.227292 0
M  V30 7423 H 701.984 4.56415 -1.45679 0
M  V30 7424 H 700.348 2.45407 -0.681723 0
M  V30 7425 H 701.131 2.50025 -2.3525 0
M  V30 7426 N 703.576 0.692616 1.41565 0
M  V30 7427 C 704.804 0.231279 2.05603 0
M  V30 7428 C 705.219 -1.11837 1.52111 0
M  V30 7429 O 704.576 -1.6983 0.66813 0
M  V30 7430 C 704.627 0.177125 3.61066 0
M  V30 7431 O 704.348 1.47346 4.12578 0
M  V30 7432 C 705.849 -0.30556 4.42246 0
M  V30 7433 H 703.069 0.108238 0.662213 0
M  V30 7434 H 705.613 0.944369 1.81389 0
M  V30 7435 H 703.768 -0.486769 3.8433 0
M  V30 7436 H 704.182 1.35861 5.06599 0
M  V30 7437 H 705.656 -0.29233 5.51225 0
M  V30 7438 H 706.133 -1.34393 4.18133 0
M  V30 7439 H 706.739 0.327229 4.24039 0
M  V30 7440 N 705.054 -1.51416 0.437162 0
M  V30 7441 C 706.001 -2.27743 -0.374374 0
M  V30 7442 C 706.971 -1.31327 -1.01698 0
M  V30 7443 O 708.156 -1.60229 -1.03592 0
M  V30 7444 C 705.296 -3.12241 -1.46969 0
M  V30 7445 C 704.409 -4.23651 -0.845236 0
M  V30 7446 C 703.544 -4.95458 -1.91559 0
M  V30 7447 C 702.583 -5.98789 -1.26956 0
M  V30 7448 N 701.72 -6.64005 -2.28126 0
M  V30 7449 H 706.56 -2.96654 0.282892 0
M  V30 7450 H 704.097 -1.46319 0.151352 0
M  V30 7451 H 706.055 -3.59556 -2.11602 0
M  V30 7452 H 704.685 -2.45445 -2.09659 0
M  V30 7453 H 703.737 -3.803 -0.0872059 0
M  V30 7454 H 705.049 -4.97683 -0.333582 0
M  V30 7455 H 704.203 -5.46321 -2.63854 0
M  V30 7456 H 702.942 -4.21055 -2.46097 0
M  V30 7457 H 701.947 -5.47219 -0.53207 0
M  V30 7458 H 703.172 -6.75149 -0.731509 0
M  V30 7459 H 701.118 -5.92415 -2.81745 0
M  V30 7460 H 701.035 -7.33802 -1.81852 0
M  V30 7461 H 702.303 -7.19498 -2.99905 0
M  V30 7462 N 706.532 -0.168513 -1.56696 0
M  V30 7463 C 707.778 0.477865 -1.9709 0
M  V30 7464 C 708.111 1.63084 -1.05438 0
M  V30 7465 O 707.386 1.94238 -0.10095 0
M  V30 7466 C 707.669 0.963521 -3.4697 0
M  V30 7467 C 707.522 -0.189443 -4.49401 0
M  V30 7468 C 708.841 1.83813 -3.99876 0
M  V30 7469 H 705.96 0.172229 -0.716593 0
M  V30 7470 H 708.602 -0.254083 -1.88293 0
M  V30 7471 H 706.752 1.58724 -3.54597 0
M  V30 7472 H 708.424 -0.826451 -4.53836 0
M  V30 7473 H 706.667 -0.845366 -4.25483 0
M  V30 7474 H 707.338 0.192446 -5.51664 0
M  V30 7475 H 709.814 1.31235 -3.94863 0
M  V30 7476 H 708.69 2.14697 -5.0517 0
M  V30 7477 H 708.951 2.78289 -3.43523 0
M  V30 7478 N 708.01 1.57248 0.105221 0
M  V30 7479 C 708.942 1.98008 1.15436 0
M  V30 7480 C 709.955 0.881236 1.36887 0
M  V30 7481 O 711.144 1.15943 1.35718 0
M  V30 7482 C 708.244 2.27509 2.51183 0
M  V30 7483 C 707.417 3.58811 2.50147 0
M  V30 7484 C 706.476 3.76365 3.67745 0
M  V30 7485 O 705.502 4.48329 3.50699 0
M  V30 7486 N 706.704 3.16174 4.86841 0
M  V30 7487 H 709.469 2.88616 0.807519 0
M  V30 7488 H 707.03 1.59202 0.29433 0
M  V30 7489 H 709.022 2.36455 3.28438 0
M  V30 7490 H 707.592 1.42959 2.77995 0
M  V30 7491 H 706.812 3.60927 1.5851 0
M  V30 7492 H 708.1 4.45088 2.46524 0
M  V30 7493 H 707.498 2.57701 5.03594 0
M  V30 7494 H 706.055 3.30621 5.61723 0
M  V30 7495 N 709.488 -0.375779 1.53054 0
M  V30 7496 C 710.435 -1.45978 1.78771 0
M  V30 7497 C 711.405 -1.53625 0.631552 0
M  V30 7498 O 712.59 -1.69674 0.872667 0
M  V30 7499 C 709.73 -2.8305 1.97425 0
M  V30 7500 C 708.843 -2.84451 3.25134 0
M  V30 7501 C 707.978 -4.13034 3.34031 0
M  V30 7502 C 707.017 -4.08536 4.55812 0
M  V30 7503 N 706.154 -5.2875 4.61918 0
M  V30 7504 H 710.994 -1.23349 2.71273 0
M  V30 7505 H 708.531 -0.598147 1.3439 0
M  V30 7506 H 710.489 -3.62666 2.06225 0
M  V30 7507 H 709.119 -3.04101 1.0827 0
M  V30 7508 H 708.171 -1.97127 3.25338 0
M  V30 7509 H 709.483 -2.76998 4.14818 0
M  V30 7510 H 708.637 -5.0106 3.42087 0
M  V30 7511 H 707.376 -4.23226 2.42345 0
M  V30 7512 H 706.381 -3.18897 4.47867 0
M  V30 7513 H 707.606 -3.99955 5.48828 0
M  V30 7514 H 705.552 -5.39547 3.73129 0
M  V30 7515 H 705.469 -5.23426 5.45492 0
M  V30 7516 H 706.737 -6.18637 4.74245 0
M  V30 7517 N 710.966 -1.44241 -0.634997 0
M  V30 7518 C 712.191 -1.50516 -1.42687 0
M  V30 7519 C 712.616 -0.129864 -1.87651 0
M  V30 7520 O 711.974 0.880164 -1.58502 0
M  V30 7521 C 712.022 -2.4714 -2.62591 0
M  V30 7522 O 711.126 -1.97025 -3.62291 0
M  V30 7523 H 710.467 -0.50841 -0.427101 0
M  V30 7524 H 712.997 -1.89337 -0.775408 0
M  V30 7525 H 713.007 -2.65048 -3.10183 0
M  V30 7526 H 711.682 -3.47039 -2.29209 0
M  V30 7527 H 710.259 -1.88866 -3.21534 0
M  V30 7528 N 712.444 0.87505 -1.31075 0
M  V30 7529 C 713.69 1.63006 -1.21657 0
M  V30 7530 C 714.045 1.91088 0.224306 0
M  V30 7531 O 713.338 1.52779 1.15625 0
M  V30 7532 C 713.532 2.96948 -1.98888 0
M  V30 7533 C 713.361 2.81944 -3.50339 0
M  V30 7534 C 712.131 2.814 -4.19693 0
M  V30 7535 C 714.329 2.57171 -4.45385 0
M  V30 7536 N 712.311 2.57392 -5.57335 0
M  V30 7537 C 713.682 2.42379 -5.7066 0
M  V30 7538 C 715.737 2.42474 -4.34868 0
M  V30 7539 C 714.44 2.14385 -6.86609 0
M  V30 7540 C 716.466 2.15868 -5.50595 0
M  V30 7541 C 715.828 2.0186 -6.74857 0
M  V30 7542 H 711.927 0.601043 -0.500271 0
M  V30 7543 H 714.511 1.03033 -1.65204 0
M  V30 7544 H 712.682 3.54936 -1.57718 0
M  V30 7545 H 714.414 3.61702 -1.81531 0
M  V30 7546 H 711.169 2.93596 -3.71616 0
M  V30 7547 H 711.593 2.48373 -6.29794 0
M  V30 7548 H 716.235 2.52035 -3.39468 0
M  V30 7549 H 713.953 2.03562 -7.82041 0
M  V30 7550 H 717.539 2.05304 -5.44372 0
M  V30 7551 H 716.419 1.81562 -7.62892 0
M  V30 7552 N 713.922 1.13953 1.08869 0
M  V30 7553 C 715.147 0.928559 1.85452 0
M  V30 7554 C 715.572 -0.517642 1.80837 0
M  V30 7555 O 714.93 -1.36779 1.19001 0
M  V30 7556 C 714.978 1.42814 3.31114 0
M  V30 7557 O 714.082 0.617129 4.07756 0
M  V30 7558 H 713.423 0.33235 0.574839 0
M  V30 7559 H 715.953 1.5156 1.37443 0
M  V30 7560 H 715.963 1.43425 3.8196 0
M  V30 7561 H 714.638 2.48109 3.33788 0
M  V30 7562 H 713.215 0.679365 3.66659 0
M  V30 7563 N 715.4 -1.26948 0.933913 0
M  V30 7564 C 716.647 -1.94087 0.577625 0
M  V30 7565 C 716.975 -1.73345 -0.88214 0
M  V30 7566 O 716.23 -1.05945 -1.64542 0
M  V30 7567 C 716.529 -3.46963 0.857406 0
M  V30 7568 C 716.195 -3.87834 2.2999 0
M  V30 7569 C 714.857 -3.98704 2.69423 0
M  V30 7570 C 717.209 -4.08442 3.23766 0
M  V30 7571 C 714.537 -4.27573 4.01744 0
M  V30 7572 C 716.889 -4.38798 4.55675 0
M  V30 7573 C 715.553 -4.47881 4.94934 0
M  V30 7574 H 714.823 -0.710215 0.211368 0
M  V30 7575 H 717.47 -1.50899 1.17905 0
M  V30 7576 H 715.775 -3.91416 0.173369 0
M  V30 7577 H 717.472 -3.97062 0.560615 0
M  V30 7578 H 714.062 -3.79916 1.98399 0
M  V30 7579 H 718.246 -3.99479 2.94499 0
M  V30 7580 H 713.502 -4.32815 4.31834 0
M  V30 7581 H 717.676 -4.5369 5.28335 0
M  V30 7582 H 715.303 -4.70005 5.97495 0
M  V30 7583 N 716.879 -0.700114 -1.41195 0
M  V30 7584 C 717.827 -0.0263301 -2.32585 0
M  V30 7585 C 718.821 0.763683 -1.51209 0
M  V30 7586 O 720.027 0.668793 -1.67114 0
M  V30 7587 H 716.402 0.0102869 -0.75193 0
M  V30 7588 H 718.373 -0.814087 -2.8708 0
M  V30 7589 C 717.122 0.892793 -3.36042 0
M  V30 7590 H 716.445 0.294306 -3.98715 0
M  V30 7591 H 717.885 1.33247 -4.02518 0
M  V30 7592 C 716.344 2.01109 -2.7029 0
M  V30 7593 O 716.874 3.10035 -2.55423 0
M  V30 7594 N 715.08 1.79015 -2.28915 0
M  V30 7595 H 714.627 0.904275 -2.41207 0
M  V30 7596 H 714.585 2.54022 -1.85257 0
M  V30 7597 N 718.357 1.51182 -0.445186 0
M  V30 7598 C 719.634 1.9478 0.178965 0
M  V30 7599 C 720.014 1.38428 1.59376 0
M  V30 7600 O 719.362 0.574552 2.21159 0
M  V30 7601 C 719.572 3.48683 0.148711 0
M  V30 7602 C 720.92 4.23152 0.35042 0
M  V30 7603 O 721.944 3.55479 0.226474 0
M  V30 7604 O 720.803 5.4322 0.597893 0
M  V30 7605 H 717.897 0.817387 0.12573 0
M  V30 7606 H 720.443 1.62051 -0.503729 0
M  V30 7607 H 719.215 3.82176 -0.84009 0
M  V30 7608 H 718.838 3.87875 0.873979 0
M  V30 7609 N 719.835 0.176821 1.56605 0
M  V30 7610 C 721.251 -0.179278 1.5859 0
M  V30 7611 C 721.451 -1.62433 1.19238 0
M  V30 7612 O 720.507 -2.35665 0.906552 0
M  V30 7613 C 721.82 0.106524 3.00511 0
M  V30 7614 C 723.368 0.0451731 3.12967 0
M  V30 7615 C 723.843 0.304038 4.5699 0
M  V30 7616 N 725.334 0.252008 4.62514 0
M  V30 7617 C 726.069 0.426404 5.71812 0
M  V30 7618 N 725.565 0.660155 6.89648 0
M  V30 7619 N 727.358 0.361926 5.60934 0
M  V30 7620 H 719.509 1.12001 1.8047 0
M  V30 7621 H 721.772 0.445679 0.836704 0
M  V30 7622 H 721.478 1.10778 3.33798 0
M  V30 7623 H 721.352 -0.599337 3.72408 0
M  V30 7624 H 723.739 -0.946662 2.79504 0
M  V30 7625 H 723.82 0.78383 2.43495 0
M  V30 7626 H 723.464 1.29311 4.91163 0
M  V30 7627 H 723.394 -0.455294 5.24628 0
M  V30 7628 H 725.885 0.0772102 3.77821 0
M  V30 7629 H 726.198 0.782529 7.68828 0
M  V30 7630 H 724.543 0.696835 6.91498 0
M  V30 7631 H 727.734 0.17986 4.67754 0
M  V30 7632 H 727.907 0.501263 6.46058 0
M  V30 7633 N 721.313 -1.57302 -0.09688 0
M  V30 7634 C 722.541 -1.90202 -0.814295 0
M  V30 7635 C 722.956 -0.770344 -1.72369 0
M  V30 7636 O 722.313 0.257764 -1.8067 0
M  V30 7637 C 722.364 -3.22708 -1.62916 0
M  V30 7638 O 722.085 -4.31522 -0.756343 0
M  V30 7639 C 723.586 -3.69459 -2.44979 0
M  V30 7640 H 720.806 -0.629275 -0.232925 0
M  V30 7641 H 723.35 -2.04364 -0.0746482 0
M  V30 7642 H 721.505 -3.1015 -2.32133 0
M  V30 7643 H 721.919 -5.07604 -1.32054 0
M  V30 7644 H 723.393 -4.64875 -2.9765 0
M  V30 7645 H 723.87 -2.97211 -3.23361 0
M  V30 7646 H 724.476 -3.84879 -1.80964 0
M  V30 7647 N 722.791 0.367657 -1.53252 0
M  V30 7648 C 724.207 0.709191 -1.42978 0
M  V30 7649 C 724.407 1.93352 -0.567193 0
M  V30 7650 O 723.463 2.52453 -0.0488349 0
M  V30 7651 C 724.776 0.924338 -2.86141 0
M  V30 7652 C 726.324 1.02448 -2.95759 0
M  V30 7653 C 726.799 1.27211 -4.39979 0
M  V30 7654 N 728.29 1.33986 -4.43398 0
M  V30 7655 C 729.025 1.54852 -5.52095 0
M  V30 7656 N 728.521 1.73049 -6.7084 0
M  V30 7657 N 730.314 1.57205 -5.39669 0
M  V30 7658 H 722.465 -0.437669 -2.07842 0
M  V30 7659 H 724.728 -0.133737 -0.938519 0
M  V30 7660 H 724.434 0.0965455 -3.51567 0
M  V30 7661 H 724.308 1.83302 -3.29667 0
M  V30 7662 H 726.695 1.84282 -2.30487 0
M  V30 7663 H 726.776 0.0932301 -2.5563 0
M  V30 7664 H 726.42 0.458792 -5.05824 0
M  V30 7665 H 726.35 2.21654 -4.77679 0
M  V30 7666 H 728.841 1.21545 -3.5782 0
M  V30 7667 H 729.154 1.88538 -7.49449 0
M  V30 7668 H 727.499 1.70231 -6.7383 0
M  V30 7669 H 730.69 1.42555 -4.45865 0
M  V30 7670 H 730.863 1.73126 -6.24445 0
M  V30 7671 N 724.269 1.44576 0.627338 0
M  V30 7672 C 725.516 1.47558 1.38682 0
M  V30 7673 C 725.844 0.109636 1.94191 0
M  V30 7674 O 725.099 -0.889092 1.74338 0
M  V30 7675 C 725.398 2.48644 2.56731 0
M  V30 7676 C 725.064 3.93873 2.19489 0
M  V30 7677 C 723.726 4.33421 2.09045 0
M  V30 7678 C 726.078 4.85286 1.90124 0
M  V30 7679 C 723.406 5.62303 1.6743 0
M  V30 7680 C 725.758 6.14559 1.50001 0
M  V30 7681 C 724.422 6.53058 1.38101 0
M  V30 7682 H 723.692 0.539955 0.507474 0
M  V30 7683 H 726.339 1.77811 0.711021 0
M  V30 7684 H 724.644 2.11889 3.29561 0
M  V30 7685 H 726.341 2.48197 3.14959 0
M  V30 7686 H 722.931 3.62587 2.28537 0
M  V30 7687 H 727.115 4.55483 1.971 0
M  V30 7688 H 722.371 5.90945 1.56823 0
M  V30 7689 H 726.545 6.84848 1.26319 0
M  V30 7690 H 724.172 7.52826 1.05628 0
M  V30 7691 N 725.747 -0.868086 1.31537 0
M  V30 7692 C 727.163 -1.15414 1.10235 0
M  V30 7693 C 727.363 -2.01106 -0.125947 0
M  V30 7694 O 726.419 -2.38994 -0.814734 0
M  V30 7695 C 727.732 -1.84445 2.37488 0
M  V30 7696 C 729.28 -1.97139 2.43116 0
M  V30 7697 C 729.755 -2.69585 3.70254 0
M  V30 7698 N 731.246 -2.77119 3.71159 0
M  V30 7699 C 731.981 -3.33791 4.6623 0
M  V30 7700 N 731.477 -3.9138 5.71659 0
M  V30 7701 N 733.27 -3.31767 4.53747 0
M  V30 7702 H 725.421 -0.297109 2.10312 0
M  V30 7703 H 727.684 -0.194227 0.92789 0
M  V30 7704 H 727.39 -1.2893 3.27215 0
M  V30 7705 H 727.264 -2.84709 2.47428 0
M  V30 7706 H 729.651 -2.51818 1.53856 0
M  V30 7707 H 729.732 -0.95912 2.37138 0
M  V30 7708 H 729.376 -2.15572 4.59881 0
M  V30 7709 H 729.306 -3.71223 3.73499 0
M  V30 7710 H 731.797 -2.3625 2.94948 0
M  V30 7711 H 732.11 -4.3274 6.40278 0
M  V30 7712 H 730.455 -3.8975 5.7543 0
M  V30 7713 H 733.646 -2.86016 3.70557 0
M  V30 7714 H 733.819 -3.75636 5.28017 0
M  V30 7715 N 727.225 -1.14528 -1.08264 0
M  V30 7716 C 728.188 -0.83632 -2.13397 0
M  V30 7717 C 729.188 0.159715 -1.60005 0
M  V30 7718 O 730.378 -0.0688098 -1.74064 0
M  V30 7719 C 727.51 -0.246973 -3.40004 0
M  V30 7720 H 728.703 -1.76808 -2.42237 0
M  V30 7721 H 726.256 -0.951509 -1.24 0
M  V30 7722 H 726.991 0.693436 -3.168 0
M  V30 7723 H 726.776 -0.964412 -3.80055 0
M  V30 7724 H 728.266 -0.0480679 -4.17572 0
M  V30 7725 N 728.703 1.26451 -0.940633 0
M  V30 7726 C 729.928 1.98407 -0.60412 0
M  V30 7727 C 730.353 1.69584 0.81382 0
M  V30 7728 O 729.711 0.943553 1.54812 0
M  V30 7729 C 729.759 3.50387 -0.852136 0
M  V30 7730 O 728.863 4.1233 0.076013 0
M  V30 7731 H 728.204 0.622466 -0.231153 0
M  V30 7732 H 730.734 1.60932 -1.26342 0
M  V30 7733 H 730.744 4.00614 -0.772816 0
M  V30 7734 H 729.419 3.70696 -1.88566 0
M  V30 7735 H 727.996 3.7286 -0.0543187 0
M  V30 7736 N 730.181 0.707592 1.40822 0
M  V30 7737 C 731.111 0.0644925 2.33411 0
M  V30 7738 C 732.092 -0.754205 1.52466 0
M  V30 7739 O 733.277 -0.704749 1.80961 0
M  V30 7740 C 730.407 -0.863865 3.36385 0
M  V30 7741 C 729.361 -0.15138 4.27732 0
M  V30 7742 C 728.687 -1.19491 5.21177 0
M  V30 7743 C 729.987 0.989607 5.12839 0
M  V30 7744 H 731.681 0.837829 2.87438 0
M  V30 7745 H 729.227 0.404346 1.38207 0
M  V30 7746 H 731.18 -1.32309 4.0009 0
M  V30 7747 H 729.904 -1.66901 2.80734 0
M  V30 7748 H 728.563 0.287937 3.65467 0
M  V30 7749 H 728.211 -1.9929 4.61836 0
M  V30 7750 H 727.911 -0.723123 5.83134 0
M  V30 7751 H 729.435 -1.6544 5.8776 0
M  V30 7752 H 730.849 0.610114 5.70044 0
M  V30 7753 H 729.246 1.38926 5.83798 0
M  V30 7754 H 730.316 1.82389 4.49291 0
M  V30 7755 N 731.66 -1.50943 0.453197 0
M  V30 7756 C 733.076 -1.59245 0.106342 0
M  V30 7757 C 733.276 -1.46287 -1.38572 0
M  V30 7758 O 732.332 -1.31219 -2.15726 0
M  V30 7759 C 733.645 -2.93797 0.640595 0
M  V30 7760 C 735.193 -3.07148 0.602435 0
M  V30 7761 C 735.668 -4.44247 1.11393 0
M  V30 7762 N 737.159 -4.50611 1.07258 0
M  V30 7763 C 737.894 -5.55049 1.43905 0
M  V30 7764 N 737.39 -6.66828 1.87914 0
M  V30 7765 N 739.183 -5.45494 1.35621 0
M  V30 7766 H 731.334 -1.5761 1.42382 0
M  V30 7767 H 733.597 -0.74384 0.587713 0
M  V30 7768 H 733.303 -3.087 1.68515 0
M  V30 7769 H 733.177 -3.77127 0.0742272 0
M  V30 7770 H 735.564 -2.91903 -0.433171 0
M  V30 7771 H 735.645 -2.25619 1.20539 0
M  V30 7772 H 735.289 -4.60239 2.14808 0
M  V30 7773 H 735.219 -5.2434 0.487353 0
M  V30 7774 H 737.71 -3.70391 0.749585 0
M  V30 7775 H 738.023 -7.42558 2.14072 0
M  V30 7776 H 736.368 -6.67995 1.91853 0
M  V30 7777 H 739.559 -4.57053 1.01093 0
M  V30 7778 H 739.732 -6.2677 1.64508 0
M  V30 7779 N 733.138 -0.185124 -1.56509 0
M  V30 7780 C 734.068 0.735098 -2.21627 0
M  V30 7781 C 735.049 1.2288 -1.1762 0
M  V30 7782 O 736.234 1.27945 -1.46095 0
M  V30 7783 C 733.364 1.95889 -2.86783 0
M  V30 7784 C 732.318 1.6005 -3.96948 0
M  V30 7785 C 731.644 2.90009 -4.4922 0
M  V30 7786 C 732.944 0.818008 -5.15855 0
M  V30 7787 H 734.638 0.192274 -2.98782 0
M  V30 7788 H 732.184 0.0910393 -1.43712 0
M  V30 7789 H 734.137 2.60779 -3.31017 0
M  V30 7790 H 732.861 2.52608 -2.07018 0
M  V30 7791 H 731.52 0.975237 -3.5339 0
M  V30 7792 H 731.168 3.44797 -3.6623 0
M  V30 7793 H 730.868 2.66778 -5.23549 0
M  V30 7794 H 732.392 3.55904 -4.9615 0
M  V30 7795 H 733.806 1.36979 -5.56695 0
M  V30 7796 H 732.203 0.684207 -5.96187 0
M  V30 7797 H 733.273 -0.182939 -4.84555 0
M  V30 7798 N 734.616 1.57351 0.0885366 0
M  V30 7799 C 735.563 2.02523 1.10693 0
M  V30 7800 C 736.533 0.902736 1.39427 0
M  V30 7801 O 737.718 1.16921 1.50779 0
M  V30 7802 C 734.858 2.46013 2.42016 0
M  V30 7803 C 733.971 3.7181 2.19957 0
M  V30 7804 C 733.106 4.04152 3.44724 0
M  V30 7805 C 732.145 5.2304 3.17956 0
M  V30 7806 N 731.282 5.51102 4.35007 0
M  V30 7807 H 736.122 2.89302 0.714742 0
M  V30 7808 H 733.659 1.43084 0.341378 0
M  V30 7809 H 735.617 2.69274 3.18665 0
M  V30 7810 H 734.247 1.62235 2.79069 0
M  V30 7811 H 733.299 3.55987 1.34079 0
M  V30 7812 H 734.611 4.58604 1.96173 0
M  V30 7813 H 733.765 4.28225 4.29777 0
M  V30 7814 H 732.504 3.15893 3.71568 0
M  V30 7815 H 731.509 4.98781 2.31296 0
M  V30 7816 H 732.734 6.12902 2.92451 0
M  V30 7817 H 730.68 4.65802 4.61914 0
M  V30 7818 H 730.597 6.3228 4.14437 0
M  V30 7819 H 731.865 5.79714 5.21106 0
M  V30 7820 N 736.094 -0.359525 1.53444 0
M  V30 7821 C 737.505 -0.936009 1.61542 0
M  V30 7822 C 737.856 -1.90069 0.486633 0
M  V30 7823 O 736.981 -2.12929 -0.386047 0
M  V30 7824 C 737.576 -1.70441 2.92806 0
M  V30 7825 C 736.135 -2.23015 3.03218 0
M  V30 7826 C 735.282 -1.04438 2.56881 0
M  V30 7827 H 738.233 -0.138134 1.58098 0
M  V30 7828 H 738.254 -2.56609 2.80948 0
M  V30 7829 H 737.766 -1.00205 3.74941 0
M  V30 7830 H 735.867 -2.96475 2.25684 0
M  V30 7831 H 735.98 -2.50481 4.08407 0
M  V30 7832 H 734.344 -1.41314 2.11902 0
M  V30 7833 H 735.127 -0.356905 3.4144 0
M  V30 7834 N 737.572 -1.44907 -0.619662 0
M  V30 7835 C 738.988 -1.29046 -0.939107 0
M  V30 7836 C 739.188 -0.23462 -2.00129 0
M  V30 7837 O 738.244 0.37558 -2.49691 0
M  V30 7838 C 739.557 -2.66567 -1.39149 0
M  V30 7839 C 741.105 -2.74368 -1.50635 0
M  V30 7840 C 741.58 -4.12386 -1.99253 0
M  V30 7841 N 743.071 -4.1462 -2.06506 0
M  V30 7842 C 743.806 -5.18272 -2.4532 0
M  V30 7843 N 743.302 -6.32278 -2.83189 0
M  V30 7844 N 745.095 -5.05628 -2.45554 0
M  V30 7845 H 737.246 -2.12239 0.0826135 0
M  V30 7846 H 739.509 -0.947652 -0.0256829 0
M  V30 7847 H 739.215 -3.4496 -0.685254 0
M  V30 7848 H 739.089 -2.94224 -2.36034 0
M  V30 7849 H 741.476 -1.96287 -2.20353 0
M  V30 7850 H 741.557 -2.50439 -0.520963 0
M  V30 7851 H 741.201 -4.90947 -1.30127 0
M  V30 7852 H 741.131 -4.33699 -2.98684 0
M  V30 7853 H 743.622 -3.32343 -1.79878 0
M  V30 7854 H 743.935 -7.07172 -3.11652 0
M  V30 7855 H 742.28 -6.35699 -2.80913 0
M  V30 7856 H 745.471 -4.15613 -2.15367 0
M  V30 7857 H 745.644 -5.86529 -2.75478 0
M  V30 7858 N 739.05 0.861098 -1.31996 0
M  V30 7859 C 740.278 1.6474 -1.25173 0
M  V30 7860 C 740.693 1.87926 0.181425 0
M  V30 7861 O 740.05 1.4437 1.1164 0
M  V30 7862 C 740.101 3.01036 -2.0015 0
M  V30 7863 O 739.822 2.7888 -3.37872 0
M  V30 7864 C 741.323 3.95481 -2.00273 0
M  V30 7865 H 738.543 0.513314 -0.432146 0
M  V30 7866 H 741.087 1.07419 -1.74016 0
M  V30 7867 H 739.242 3.55021 -1.55046 0
M  V30 7868 H 739.656 3.65514 -3.76165 0
M  V30 7869 H 741.13 4.88403 -2.57229 0
M  V30 7870 H 741.607 4.27957 -0.987407 0
M  V30 7871 H 742.213 3.47433 -2.45296 0
M  V30 7872 N 740.528 1.15101 1.07655 0
M  V30 7873 C 741.753 0.948177 1.84457 0
M  V30 7874 C 742.178 -0.498432 1.81376 0
M  V30 7875 O 741.536 -1.35509 1.20445 0
M  V30 7876 C 741.584 1.46318 3.29581 0
M  V30 7877 O 740.688 0.660342 4.07079 0
M  V30 7878 H 740.029 0.338428 0.571281 0
M  V30 7879 H 742.559 1.5301 1.35828 0
M  V30 7880 H 742.569 1.47468 3.80417 0
M  V30 7881 H 741.244 2.51635 3.31138 0
M  V30 7882 H 739.821 0.718216 3.65918 0
M  V30 7883 N 742.006 -1.2595 0.947325 0
M  V30 7884 C 742.969 -2.24407 0.466285 0
M  V30 7885 C 743.969 -1.55054 -0.426005 0
M  V30 7886 O 745.159 -1.7275 -0.224319 0
M  V30 7887 C 742.291 -3.39326 -0.327201 0
M  V30 7888 H 743.484 -2.68477 1.33642 0
M  V30 7889 H 741.037 -1.38211 0.729887 0
M  V30 7890 H 741.772 -3.00667 -1.21532 0
M  V30 7891 H 741.557 -3.9085 0.312839 0
M  V30 7892 H 743.047 -4.12455 -0.653477 0
M  V30 7893 N 743.484 -0.715051 -1.40445 0
M  V30 7894 C 744.394 -0.0631624 -2.34515 0
M  V30 7895 C 745.41 0.744397 -1.57273 0
M  V30 7896 O 746.586 0.677475 -1.89663 0
M  V30 7897 C 743.651 0.847915 -3.36172 0
M  V30 7898 C 742.712 0.0303655 -4.29289 0
M  V30 7899 C 741.945 0.898051 -5.2609 0
M  V30 7900 O 742.168 2.13729 -5.28844 0
M  V30 7901 O 741.102 0.337328 -6.00954 0
M  V30 7902 H 744.928 -0.839078 -2.91879 0
M  V30 7903 H 742.513 -0.475527 -1.4163 0
M  V30 7904 H 744.395 1.3698 -3.98515 0
M  V30 7905 H 743.07 1.60299 -2.81222 0
M  V30 7906 H 741.977 -0.536573 -3.70232 0
M  V30 7907 H 743.31 -0.686474 -4.87389 0
M  V30 7908 N 744.962 1.50701 -0.461195 0
M  V30 7909 C 746.239 1.94958 0.158296 0
M  V30 7910 C 746.619 1.40111 1.57899 0
M  V30 7911 O 745.967 0.597976 2.20537 0
M  V30 7912 C 746.177 3.48821 0.11172 0
M  V30 7913 C 747.525 4.23499 0.30552 0
M  V30 7914 O 748.549 3.557 0.188758 0
M  V30 7915 O 747.408 5.43823 0.540244 0
M  V30 7916 H 744.502 0.818674 0.117054 0
M  V30 7917 H 747.048 1.61508 -0.520888 0
M  V30 7918 H 745.82 3.81263 -0.880577 0
M  V30 7919 H 745.443 3.88781 0.832791 0
M  V30 7920 N 746.441 0.193421 1.56409 0
M  V30 7921 C 747.404 -0.714371 2.17783 0
M  V30 7922 C 748.404 -1.1422 1.13183 0
M  V30 7923 O 749.594 -1.05557 1.38576 0
M  V30 7924 C 746.726 -1.97509 2.77855 0
M  V30 7925 H 747.919 -0.179714 2.99361 0
M  V30 7926 H 745.472 -0.0561944 1.56199 0
M  V30 7927 H 746.207 -2.5523 2.0007 0
M  V30 7928 H 745.992 -1.67706 3.54425 0
M  V30 7929 H 747.482 -2.62246 3.24987 0
M  V30 7930 N 747.919 -1.57396 -0.0801906 0
M  V30 7931 C 749.33 -1.75642 -0.633002 0
M  V30 7932 C 749.681 -0.817708 -1.78348 0
M  V30 7933 O 748.806 0.000233743 -2.164 0
M  V30 7934 C 749.401 -3.18502 -1.15507 0
M  V30 7935 C 747.96 -3.38121 -1.65381 0
M  V30 7936 C 747.107 -2.71386 -0.569661 0
M  V30 7937 H 750.058 -1.58027 0.145949 0
M  V30 7938 H 750.079 -3.22198 -2.02408 0
M  V30 7939 H 749.591 -3.86799 -0.317515 0
M  V30 7940 H 747.692 -2.74926 -2.51488 0
M  V30 7941 H 747.805 -4.46521 -1.73654 0
M  V30 7942 H 746.169 -2.33702 -1.0127 0
M  V30 7943 H 746.952 -3.42332 0.257561 0
M  V30 7944 N 749.397 0.351382 -1.53633 0
M  V30 7945 C 750.622 1.11718 -1.74739 0
M  V30 7946 C 751.047 1.81829 -0.481657 0
M  V30 7947 O 750.405 1.72264 0.565233 0
M  V30 7948 C 750.453 2.11234 -2.92254 0
M  V30 7949 O 749.557 3.186 -2.61855 0
M  V30 7950 H 748.898 0.323482 -0.579875 0
M  V30 7951 H 751.428 0.404167 -2.00568 0
M  V30 7952 H 751.438 2.54591 -3.18822 0
M  V30 7953 H 750.113 1.59599 -3.84058 0
M  V30 7954 H 748.69 2.80115 -2.4615 0
M  V30 7955 N 750.875 1.45233 0.611969 0
M  V30 7956 C 751.785 1.56098 1.7513 0
M  V30 7957 C 752.801 0.445646 1.68196 0
M  V30 7958 O 753.977 0.705718 1.88631 0
M  V30 7959 C 751.042 1.52052 3.11579 0
M  V30 7960 C 750.103 2.74589 3.29999 0
M  V30 7961 C 749.336 2.70726 4.59938 0
M  V30 7962 O 749.559 1.77806 5.41979 0
M  V30 7963 O 748.493 3.61864 4.80976 0
M  V30 7964 H 752.319 2.52392 1.68914 0
M  V30 7965 H 749.904 1.27695 0.775528 0
M  V30 7966 H 751.786 1.52387 3.92882 0
M  V30 7967 H 750.461 0.589085 3.18295 0
M  V30 7968 H 749.368 2.79817 2.48301 0
M  V30 7969 H 750.701 3.66843 3.28157 0
M  V30 7970 N 752.353 -0.854086 1.3245 0
M  V30 7971 C 753.263 -1.99503 1.23434 0
M  V30 7972 C 754.279 -1.73371 0.147828 0
M  V30 7973 O 755.455 -1.97998 0.368609 0
M  V30 7974 C 752.52 -3.33192 0.958328 0
M  V30 7975 C 751.581 -3.72542 2.13333 0
M  V30 7976 C 750.814 -4.99852 1.8704 0
M  V30 7977 O 751.037 -5.64573 0.813239 0
M  V30 7978 O 749.971 -5.36345 2.73161 0
M  V30 7979 H 753.797 -2.10046 2.1935 0
M  V30 7980 H 751.382 -0.984823 1.12346 0
M  V30 7981 H 753.264 -4.13327 0.820918 0
M  V30 7982 H 751.939 -3.23687 0.0293299 0
M  V30 7983 H 750.846 -2.92981 2.32622 0
M  V30 7984 H 752.179 -3.86694 3.04514 0
M  V30 7985 N 753.831 -1.1567 -1.07043 0
M  V30 7986 C 755.077 -0.9349 -1.79965 0
M  V30 7987 C 755.41 0.536464 -1.86643 0
M  V30 7988 O 754.685 1.39781 -1.35247 0
M  V30 7989 C 754.968 -1.55371 -3.24857 0
M  V30 7990 C 754.821 -3.09589 -3.26305 0
M  V30 7991 C 756.14 -1.24209 -4.22209 0
M  V30 7992 H 753.259 -0.341061 -0.653335 0
M  V30 7993 H 755.901 -1.42883 -1.25237 0
M  V30 7994 H 754.051 -1.13368 -3.71591 0
M  V30 7995 H 755.723 -3.60521 -2.87789 0
M  V30 7996 H 753.966 -3.43315 -2.65174 0
M  V30 7997 H 754.637 -3.48002 -4.28484 0
M  V30 7998 H 757.113 -1.60548 -3.8388 0
M  V30 7999 H 755.989 -1.70119 -5.21872 0
M  V30 8000 H 756.25 -0.15964 -4.41812 0
M  V30 8001 N 755.309 1.25446 -0.953992 0
M  V30 8002 C 756.272 2.24156 -0.478179 0
M  V30 8003 C 757.272 1.55278 0.417776 0
M  V30 8004 O 758.462 1.72866 0.215155 0
M  V30 8005 C 755.594 3.39495 0.309202 0
M  V30 8006 H 756.787 2.67764 -1.35064 0
M  V30 8007 H 754.34 1.37822 -0.737206 0
M  V30 8008 H 755.075 3.01307 1.19936 0
M  V30 8009 H 754.86 3.90679 -0.333562 0
M  V30 8010 H 756.35 4.12796 0.631594 0
M  V30 8011 N 756.787 0.722489 1.40064 0
M  V30 8012 C 757.697 0.0755984 2.34478 0
M  V30 8013 C 758.713 -0.736046 1.57665 0
M  V30 8014 O 759.889 -0.667407 1.9002 0
M  V30 8015 C 756.954 -0.830075 3.36616 0
M  V30 8016 C 756.015 -0.00759884 4.29299 0
M  V30 8017 C 755.248 -0.870139 5.26559 0
M  V30 8018 O 755.471 -2.10921 5.2997 0
M  V30 8019 O 754.405 -0.305454 6.01124 0
M  V30 8020 H 758.231 0.854545 2.9143 0
M  V30 8021 H 755.816 0.483032 1.41376 0
M  V30 8022 H 757.698 -1.34864 3.99236 0
M  V30 8023 H 756.373 -1.58805 2.82069 0
M  V30 8024 H 755.28 0.556199 3.69942 0
M  V30 8025 H 756.613 0.712312 4.87018 0
M  V30 8026 N 758.265 -1.50454 0.469181 0
M  V30 8027 C 759.175 -2.32248 -0.331349 0
M  V30 8028 C 760.191 -1.42548 -0.997807 0
M  V30 8029 O 761.367 -1.75602 -0.9862 0
M  V30 8030 C 758.432 -3.17171 -1.40012 0
M  V30 8031 C 757.493 -4.2269 -0.750463 0
M  V30 8032 C 756.726 -5.03554 -1.76831 0
M  V30 8033 O 756.949 -4.85469 -2.99459 0
M  V30 8034 O 755.883 -5.86767 -1.3412 0
M  V30 8035 H 759.709 -3.01821 0.337279 0
M  V30 8036 H 757.294 -1.47602 0.231066 0
M  V30 8037 H 759.176 -3.69871 -2.01924 0
M  V30 8038 H 757.851 -2.50328 -2.05226 0
M  V30 8039 H 756.758 -3.73986 -0.0924446 0
M  V30 8040 H 758.091 -4.91997 -0.14131 0
M  V30 8041 N 759.743 -0.201713 -1.56304 0
M  V30 8042 C 760.69 0.716499 -2.19397 0
M  V30 8043 C 761.66 1.20494 -1.14326 0
M  V30 8044 O 762.845 1.26763 -1.42604 0
M  V30 8045 C 759.985 1.92762 -2.86246 0
M  V30 8046 C 759.098 1.47993 -4.0586 0
M  V30 8047 C 758.233 2.64706 -4.60547 0
M  V30 8048 C 757.272 2.16576 -5.72504 0
M  V30 8049 N 756.409 3.26491 -6.21569 0
M  V30 8050 H 761.249 0.171724 -2.97505 0
M  V30 8051 H 758.786 0.073016 -1.46919 0
M  V30 8052 H 760.744 2.6384 -3.23178 0
M  V30 8053 H 759.374 2.44559 -2.10691 0
M  V30 8054 H 758.426 0.66477 -3.74546 0
M  V30 8055 H 759.738 1.08686 -4.86815 0
M  V30 8056 H 758.892 3.43898 -4.99819 0
M  V30 8057 H 757.631 3.0729 -3.78713 0
M  V30 8058 H 756.636 1.3584 -5.32755 0
M  V30 8059 H 757.861 1.75015 -6.56161 0
M  V30 8060 H 755.807 3.68594 -5.42655 0
M  V30 8061 H 755.724 2.91374 -6.97594 0
M  V30 8062 H 756.992 4.05877 -6.65495 0
M  V30 8063 N 761.222 1.57436 0.0718424 0
M  V30 8064 C 762.447 1.91858 0.787745 0
M  V30 8065 C 762.872 0.798119 1.70328 0
M  V30 8066 O 762.23 -0.24905 1.79581 0
M  V30 8067 C 762.278 3.25232 1.55744 0
M  V30 8068 O 761.382 3.14462 2.6681 0
M  V30 8069 H 760.723 0.628258 0.214914 0
M  V30 8070 H 763.253 2.04561 0.0401012 0
M  V30 8071 H 763.263 3.59105 1.9367 0
M  V30 8072 H 761.938 4.0636 0.885691 0
M  V30 8073 H 760.515 2.92148 2.31741 0
M  V30 8074 N 762.7 -0.34323 1.53817 0
M  V30 8075 C 763.93 -1.10188 1.74763 0
M  V30 8076 C 764.338 -1.82829 0.486856 0
M  V30 8077 O 763.681 -1.75236 -0.551198 0
M  V30 8078 C 763.743 -2.16 2.87375 0
M  V30 8079 C 763.407 -1.62931 4.26969 0
M  V30 8080 C 764.404 -1.08147 5.08528 0
M  V30 8081 C 762.089 -1.67769 4.73454 0
M  V30 8082 C 764.083 -0.589039 6.34672 0
M  V30 8083 C 761.77 -1.18138 5.99572 0
M  V30 8084 C 762.768 -0.637979 6.80014 0
M  V30 8085 O 762.456 -0.149073 8.03762 0
M  V30 8086 H 762.188 -0.33445 0.587469 0
M  V30 8087 H 764.742 -0.401109 2.01445 0
M  V30 8088 H 762.972 -2.89637 2.56218 0
M  V30 8089 H 764.661 -2.77432 2.96287 0
M  V30 8090 H 765.427 -1.03732 4.73777 0
M  V30 8091 H 761.306 -2.09004 4.10899 0
M  V30 8092 H 764.85 -0.164233 6.97407 0
M  V30 8093 H 760.747 -1.22254 6.33817 0
M  V30 8094 H 761.515 -0.266332 8.18067 0
M  V30 8095 N 764.178 -1.45556 -0.604258 0
M  V30 8096 C 765.11 -1.50494 -1.72871 0
M  V30 8097 C 766.123 -0.395368 -1.57926 0
M  V30 8098 O 767.312 -0.662603 -1.65746 0
M  V30 8099 C 764.412 -1.34874 -3.10906 0
M  V30 8100 C 763.585 -2.59564 -3.52058 0
M  V30 8101 C 762.644 -2.38453 -4.6907 0
M  V30 8102 O 761.67 -3.12082 -4.76018 0
M  V30 8103 N 762.872 -1.43229 -5.62553 0
M  V30 8104 H 765.637 -2.4744 -1.69097 0
M  V30 8105 H 763.198 -1.41338 -0.789636 0
M  V30 8106 H 765.19 -1.18556 -3.86945 0
M  V30 8107 H 763.76 -0.461913 -3.09168 0
M  V30 8108 H 762.98 -2.90974 -2.65946 0
M  V30 8109 H 764.268 -3.42441 -3.76313 0
M  V30 8110 H 763.666 -0.824714 -5.59656 0
M  V30 8111 H 762.223 -1.32882 -6.38111 0
M  V30 8112 N 765.656 0.84705 -1.32902 0
M  V30 8113 C 766.896 1.61554 -1.25218 0
M  V30 8114 C 767.26 1.91141 0.18143 0
M  V30 8115 O 768.461 2.6607 0.382106 0
M  V30 8116 C 766.732 2.89553 -2.09509 0
M  V30 8117 S 768.291 3.80283 -2.18931 0
M  V30 8118 H 765.109 0.554031 -0.445613 0
M  V30 8119 H 767.711 1.00251 -1.67839 0
M  V30 8120 H 766.415 2.65776 -3.12716 0
M  V30 8121 H 765.946 3.55868 -1.67694 0
M  V30 8122 H 767.961 4.77641 -1.34438 0
M  V30 8123 N 767.134 1.16236 1.06428 0
M  V30 8124 C 768.044 0.881976 2.1739 0
M  V30 8125 C 769.06 -0.145259 1.73393 0
M  V30 8126 O 770.236 0.0310558 2.01376 0
M  V30 8127 C 767.301 0.385496 3.4455 0
M  V30 8128 C 766.362 1.47779 4.03063 0
M  V30 8129 C 765.595 1.0049 5.24154 0
M  V30 8130 O 765.818 -0.145889 5.70213 0
M  V30 8131 O 764.752 1.79265 5.74585 0
M  V30 8132 H 768.578 1.80983 2.43883 0
M  V30 8133 H 766.163 0.942226 1.15942 0
M  V30 8134 H 768.045 0.115536 4.21242 0
M  V30 8135 H 766.72 -0.514369 3.19587 0
M  V30 8136 H 765.627 1.80147 3.27869 0
M  V30 8137 H 766.96 2.35291 4.32318 0
M  V30 8138 N 768.612 -1.24939 0.960631 0
M  V30 8139 C 769.542 -2.28 0.503815 0
M  V30 8140 C 770.523 -1.63959 -0.452928 0
M  V30 8141 O 771.708 -1.91009 -0.350585 0
M  V30 8142 C 768.838 -3.46643 -0.213535 0
M  V30 8143 C 767.792 -4.22903 0.658535 0
M  V30 8144 C 767.118 -5.34363 -0.189902 0
M  V30 8145 C 768.418 -4.84949 1.93963 0
M  V30 8146 H 770.112 -2.66462 1.36521 0
M  V30 8147 H 767.658 -1.28093 0.657897 0
M  V30 8148 H 769.611 -4.1787 -0.544286 0
M  V30 8149 H 768.335 -3.07187 -1.10923 0
M  V30 8150 H 766.994 -3.53467 0.972455 0
M  V30 8151 H 766.642 -4.91147 -1.08553 0
M  V30 8152 H 766.342 -5.86302 0.390331 0
M  V30 8153 H 767.866 -6.0842 -0.515484 0
M  V30 8154 H 769.28 -5.48288 1.67491 0
M  V30 8155 H 767.677 -5.47091 2.46601 0
M  V30 8156 H 768.747 -4.06799 2.639 0
M  V30 8157 N 770.09 -0.729906 -1.39679 0
M  V30 8158 C 771.318 -0.285709 -2.04918 0
M  V30 8159 C 771.733 1.07765 -1.55023 0
M  V30 8160 O 771.09 1.67999 -0.712923 0
M  V30 8161 C 771.141 -0.272793 -3.60469 0
M  V30 8162 O 770.862 -1.58233 -4.08527 0
M  V30 8163 C 772.363 0.188199 -4.429 0
M  V30 8164 H 769.583 -0.125758 -0.65911 0
M  V30 8165 H 772.127 -0.992129 -1.78821 0
M  V30 8166 H 770.282 0.384699 -3.85485 0
M  V30 8167 H 770.696 -1.49245 -5.02818 0
M  V30 8168 H 772.17 0.14608 -5.51807 0
M  V30 8169 H 772.647 1.2326 -4.21549 0
M  V30 8170 H 773.253 -0.439541 -4.23023 0
M  V30 8171 N 771.568 1.50203 -0.477153 0
M  V30 8172 C 772.814 2.02658 0.0758507 0
M  V30 8173 C 773.147 1.358 1.38824 0
M  V30 8174 O 772.422 0.485696 1.88338 0
M  V30 8175 C 772.705 3.59208 0.253339 0
M  V30 8176 C 772.558 4.36629 -1.0805 0
M  V30 8177 C 773.877 4.28469 1.00509 0
M  V30 8178 H 770.996 0.736538 0.0260921 0
M  V30 8179 H 773.638 1.79464 -0.623925 0
M  V30 8180 H 771.788 3.79101 0.849378 0
M  V30 8181 H 773.46 4.28292 -1.71358 0
M  V30 8182 H 771.703 4.0013 -1.67566 0
M  V30 8183 H 772.374 5.44449 -0.909883 0
M  V30 8184 H 774.85 4.13087 0.499818 0
M  V30 8185 H 773.726 5.37804 1.09808 0
M  V30 8186 H 773.987 3.92057 2.04314 0
M  V30 8187 N 773.046 0.209999 1.56195 0
M  V30 8188 C 774.323 -0.473214 1.89789 0
M  V30 8189 C 774.703 -1.78581 1.1257 0
M  V30 8190 O 774.051 -2.27325 0.231398 0
M  V30 8191 C 774.261 -0.677458 3.42362 0
M  V30 8192 C 775.609 -0.990114 4.12895 0
M  V30 8193 O 776.633 -0.764655 3.47896 0
M  V30 8194 O 775.492 -1.41737 5.278 0
M  V30 8195 H 772.586 -0.248622 0.788743 0
M  V30 8196 H 775.132 0.251324 1.67829 0
M  V30 8197 H 773.904 0.248878 3.90508 0
M  V30 8198 H 773.527 -1.45391 3.70064 0
M  V30 8199 N 774.524 -1.57472 -0.0634922 0
M  V30 8200 C 775.801 -1.78736 -0.794538 0
M  V30 8201 C 776.181 -0.799645 -1.95369 0
M  V30 8202 O 775.529 0.165521 -2.279 0
M  V30 8203 C 775.739 -3.25471 -1.25975 0
M  V30 8204 C 777.087 -3.89528 -1.68976 0
M  V30 8205 O 778.111 -3.29412 -1.35521 0
M  V30 8206 O 776.97 -4.95305 -2.30944 0
M  V30 8207 H 774.064 -0.733813 -0.381376 0
M  V30 8208 H 776.61 -1.69646 -0.0429258 0
M  V30 8209 H 775.382 -3.88922 -0.430721 0
M  V30 8210 H 775.005 -3.39317 -2.07243 0
M  V30 8211 N 776.003 0.335068 -1.53997 0
M  V30 8212 C 777.252 1.07182 -1.70865 0
M  V30 8213 C 777.565 1.89541 -0.483078 0
M  V30 8214 O 778.771 2.66219 -0.532879 0
M  V30 8215 C 777.227 1.95497 -3.02174 0
M  V30 8216 C 776.835 1.18304 -4.32097 0
M  V30 8217 C 778.579 2.68978 -3.28407 0
M  V30 8218 C 776.486 2.05699 -5.54474 0
M  V30 8219 H 775.416 0.403857 -0.636722 0
M  V30 8220 H 778.067 0.33076 -1.80494 0
M  V30 8221 H 776.449 2.73456 -2.86423 0
M  V30 8222 H 777.623 0.451969 -4.58578 0
M  V30 8223 H 775.938 0.565556 -4.12541 0
M  V30 8224 H 778.535 3.34651 -4.17029 0
M  V30 8225 H 778.878 3.36 -2.45784 0
M  V30 8226 H 779.411 1.98087 -3.44973 0
M  V30 8227 H 776.15 1.43204 -6.39666 0
M  V30 8228 H 775.67 2.76572 -5.32229 0
M  V30 8229 H 777.349 2.64554 -5.90441 0
M  V30 8230 N 777.481 1.45874 0.596531 0
M  V30 8231 C 778.414 1.49889 1.72071 0
M  V30 8232 C 779.392 0.354224 1.58695 0
M  V30 8233 O 780.576 0.556355 1.80103 0
M  V30 8234 C 777.703 1.3644 3.10003 0
M  V30 8235 C 776.749 2.54913 3.41938 0
M  V30 8236 S 777.582 4.17336 3.35545 0
M  V30 8237 C 778.738 4.06372 4.76039 0
M  V30 8238 H 778.971 2.45005 1.68404 0
M  V30 8239 H 776.504 1.33592 0.77412 0
M  V30 8240 H 778.462 1.29368 3.89582 0
M  V30 8241 H 777.123 0.427762 3.11174 0
M  V30 8242 H 776.316 2.41458 4.42396 0
M  V30 8243 H 775.918 2.58904 2.69898 0
M  V30 8244 H 778.21 3.72199 5.66105 0
M  V30 8245 H 779.153 5.0678 4.9455 0
M  V30 8246 H 779.561 3.37846 4.52239 0
M  V30 8247 N 778.959 -0.83999 1.33349 0
M  V30 8248 C 780.37 -1.41139 1.22216 0
M  V30 8249 C 780.721 -1.95551 -0.159398 0
M  V30 8250 O 779.846 -1.88721 -1.05893 0
M  V30 8251 C 780.441 -2.56564 2.21269 0
M  V30 8252 C 779 -3.09661 2.13979 0
M  V30 8253 C 778.147 -1.82457 2.08818 0
M  V30 8254 H 781.098 -0.645853 1.44964 0
M  V30 8255 H 781.119 -3.34163 1.81976 0
M  V30 8256 H 780.631 -2.16932 3.21811 0
M  V30 8257 H 778.732 -3.53841 1.16736 0
M  V30 8258 H 778.845 -3.6991 3.04472 0
M  V30 8259 H 777.209 -2.0266 1.54276 0
M  V30 8260 H 777.992 -1.45022 3.11165 0
M  V30 8261 N 780.437 -1.16799 -1.0581 0
M  V30 8262 C 781.4 -0.881396 -2.11575 0
M  V30 8263 C 782.4 0.12574 -1.60308 0
M  V30 8264 O 783.59 -0.105716 -1.73879 0
M  V30 8265 C 780.722 -0.319037 -3.39404 0
M  V30 8266 H 781.915 -1.81907 -2.38432 0
M  V30 8267 H 779.468 -0.977597 -1.21954 0
M  V30 8268 H 780.203 0.626082 -3.18199 0
M  V30 8269 H 779.988 -1.04481 -3.77923 0
M  V30 8270 H 781.478 -0.13663 -4.17376 0
M  V30 8271 N 781.915 1.24427 -0.967243 0
M  V30 8272 C 783.161 1.92772 -0.629812 0
M  V30 8273 C 783.494 1.75436 0.832827 0
M  V30 8274 O 782.769 1.10716 1.59913 0
M  V30 8275 C 783.052 3.45798 -1.00477 0
M  V30 8276 C 782.905 3.72304 -2.52407 0
M  V30 8277 C 784.224 4.36787 -0.538999 0
M  V30 8278 H 781.343 0.700099 -0.230282 0
M  V30 8279 H 783.985 1.46805 -1.20616 0
M  V30 8280 H 782.135 3.8508 -0.514336 0
M  V30 8281 H 783.807 3.42584 -3.08924 0
M  V30 8282 H 782.05 3.17472 -2.95625 0
M  V30 8283 H 782.721 4.7937 -2.73693 0
M  V30 8284 H 785.197 4.04877 -0.959874 0
M  V30 8285 H 784.073 5.4259 -0.829926 0
M  V30 8286 H 784.334 4.38527 0.560923 0
M  V30 8287 N 783.393 0.737304 1.3929 0
M  V30 8288 C 784.34 0.0988364 2.30588 0
M  V30 8289 C 785.31 -0.727206 1.49335 0
M  V30 8290 O 786.495 -0.686694 1.78014 0
M  V30 8291 C 783.635 -0.800734 3.35682 0
M  V30 8292 C 782.748 0.0381731 4.31983 0
M  V30 8293 C 781.883 -0.862884 5.24145 0
M  V30 8294 C 780.922 -0.0193639 6.12097 0
M  V30 8295 N 780.059 -0.87648 6.96608 0
M  V30 8296 H 784.899 0.883031 2.84617 0
M  V30 8297 H 782.436 0.447111 1.4014 0
M  V30 8298 H 784.394 -1.33676 3.95205 0
M  V30 8299 H 783.024 -1.55088 2.83103 0
M  V30 8300 H 782.076 0.691641 3.74059 0
M  V30 8301 H 783.388 0.690294 4.94 0
M  V30 8302 H 782.542 -1.46667 5.88705 0
M  V30 8303 H 781.281 -1.54878 4.62454 0
M  V30 8304 H 780.286 0.597202 5.46547 0
M  V30 8305 H 781.511 0.663348 6.75852 0
M  V30 8306 H 779.457 -1.54762 6.37483 0
M  V30 8307 H 779.374 -0.280892 7.55478 0
M  V30 8308 H 780.642 -1.46575 7.65595 0
M  V30 8309 N 784.871 -1.49948 0.485112 0
M  V30 8310 C 786.099 -2.06806 -0.0622824 0
M  V30 8311 C 786.514 -1.34736 -1.32256 0
M  V30 8312 O 785.871 -0.420836 -1.77582 0
M  V30 8313 C 785.922 -3.59934 -0.336096 0
M  V30 8314 O 785.643 -4.29289 0.874203 0
M  V30 8315 C 787.144 -4.33459 -0.928903 0
M  V30 8316 H 784.364 -0.670867 0.0133472 0
M  V30 8317 H 786.908 -1.92937 0.677917 0
M  V30 8318 H 785.063 -3.7356 -1.02625 0
M  V30 8319 H 785.477 -5.20735 0.627332 0
M  V30 8320 H 786.951 -5.41527 -1.07017 0
M  V30 8321 H 787.428 -3.94881 -1.92265 0
M  V30 8322 H 788.034 -4.24399 -0.276705 0
M  V30 8323 N 786.349 -0.21828 -1.56081 0
M  V30 8324 C 787.595 0.414921 -1.9851 0
M  V30 8325 C 787.928 1.59648 -1.10573 0
M  V30 8326 O 787.203 1.93818 -0.162695 0
M  V30 8327 C 787.486 0.852647 -3.4986 0
M  V30 8328 C 787.339 -0.33232 -4.48571 0
M  V30 8329 C 788.658 1.70998 -4.05521 0
M  V30 8330 H 785.777 0.149344 -0.72171 0
M  V30 8331 H 788.419 -0.313858 -1.8739 0
M  V30 8332 H 786.569 1.47362 -3.59467 0
M  V30 8333 H 788.241 -0.970418 -4.50977 0
M  V30 8334 H 786.484 -0.980302 -4.22578 0
M  V30 8335 H 787.155 0.0168407 -5.51997 0
M  V30 8336 H 789.631 1.18606 -3.98838 0
M  V30 8337 H 788.507 1.98517 -5.11744 0
M  V30 8338 H 788.768 2.67219 -3.52202 0
M  V30 8339 N 787.827 1.57504 0.0551401 0
M  V30 8340 C 789.076 1.87237 0.750009 0
M  V30 8341 C 789.389 0.813268 1.77891 0
M  V30 8342 O 790.595 0.99898 2.52453 0
M  V30 8343 C 789.051 3.32187 1.38491 0
M  V30 8344 C 788.659 4.46267 0.393707 0
M  V30 8345 C 790.403 3.71101 2.06117 0
M  V30 8346 C 788.31 5.82265 1.03547 0
M  V30 8347 H 787.24 0.698524 0.283866 0
M  V30 8348 H 789.891 1.835 0.00365997 0
M  V30 8349 H 788.273 3.30588 2.18008 0
M  V30 8350 H 789.447 4.59289 -0.372865 0
M  V30 8351 H 787.762 4.16015 -0.17902 0
M  V30 8352 H 790.359 4.70012 2.54937 0
M  V30 8353 H 790.702 3.01751 2.86796 0
M  V30 8354 H 791.235 3.74762 1.33409 0
M  V30 8355 H 787.974 6.54949 0.268644 0
M  V30 8356 H 787.494 5.73012 1.7725 0
M  V30 8357 H 789.173 6.28148 1.55047 0
M  V30 8358 N 789.305 -0.326896 1.54172 0
M  V30 8359 C 790.721 -0.671034 1.44808 0
M  V30 8360 C 790.921 -1.91781 0.618258 0
M  V30 8361 O 789.977 -2.52235 0.115751 0
M  V30 8362 C 791.29 -0.848147 2.88491 0
M  V30 8363 C 792.838 -0.945702 2.98371 0
M  V30 8364 C 793.313 -1.15501 4.43197 0
M  V30 8365 N 794.804 -1.22183 4.46795 0
M  V30 8366 C 795.539 -1.4016 5.56006 0
M  V30 8367 N 795.035 -1.55202 6.75192 0
M  V30 8368 N 796.828 -1.42841 5.43648 0
M  V30 8369 H 788.979 0.49262 2.06608 0
M  V30 8370 H 791.242 0.158574 0.934643 0
M  V30 8371 H 790.948 -0.00329969 3.517 0
M  V30 8372 H 790.822 -1.74497 3.34411 0
M  V30 8373 H 793.209 -1.78106 2.35292 0
M  V30 8374 H 793.29 -0.0254215 2.55787 0
M  V30 8375 H 792.934 -0.324521 5.06862 0
M  V30 8376 H 792.864 -2.08911 4.83388 0
M  V30 8377 H 795.355 -1.12016 3.60917 0
M  V30 8378 H 795.668 -1.68601 7.54184 0
M  V30 8379 H 794.013 -1.52306 6.78106 0
M  V30 8380 H 797.204 -1.30683 4.49488 0
M  V30 8381 H 797.377 -1.56509 6.28816 0
M  V30 8382 N 790.784 -1.46188 -0.588786 0
M  V30 8383 C 792.009 -1.5498 -1.37826 0
M  V30 8384 C 792.434 -0.189498 -1.87143 0
M  V30 8385 O 791.792 0.829293 -1.61222 0
M  V30 8386 C 791.84 -2.55369 -2.54596 0
M  V30 8387 O 790.944 -2.08452 -3.55839 0
M  V30 8388 H 790.285 -0.521741 -0.41071 0
M  V30 8389 H 792.815 -1.91708 -0.714779 0
M  V30 8390 H 792.825 -2.74782 -3.01594 0
M  V30 8391 H 791.5 -3.54155 -2.18052 0
M  V30 8392 H 790.077 -1.98999 -3.15363 0
M  V30 8393 N 792.262 0.832906 -1.33792 0
M  V30 8394 C 793.511 1.58351 -1.24932 0
M  V30 8395 C 793.824 1.94754 0.181703 0
M  V30 8396 O 795.03 2.6865 0.392375 0
M  V30 8397 C 793.486 2.85643 -2.18943 0
M  V30 8398 C 793.094 2.56581 -3.67247 0
M  V30 8399 C 794.838 3.63667 -2.18968 0
M  V30 8400 C 792.745 3.80006 -4.53155 0
M  V30 8401 H 791.675 0.594278 -0.464058 0
M  V30 8402 H 794.326 0.91786 -1.58895 0
M  V30 8403 H 792.708 3.53781 -1.77919 0
M  V30 8404 H 793.882 1.96617 -4.16747 0
M  V30 8405 H 792.197 1.91851 -3.6957 0
M  V30 8406 H 794.794 4.55293 -2.80379 0
M  V30 8407 H 795.137 3.99039 -1.18631 0
M  V30 8408 H 795.67 3.0246 -2.58384 0
M  V30 8409 H 792.409 3.4976 -5.5439 0
M  V30 8410 H 791.929 4.39288 -4.08395 0
M  V30 8411 H 793.608 4.47523 -4.6726 0
M  V30 8412 N 793.74 1.17359 1.05189 0
M  V30 8413 C 795.156 0.920861 1.30355 0
M  V30 8414 C 795.356 -0.419993 1.97074 0
M  V30 8415 O 794.412 -1.15696 2.24434 0
M  V30 8416 C 795.725 2.07818 2.1733 0
M  V30 8417 C 797.273 2.1152 2.30712 0
M  V30 8418 C 797.748 3.26637 3.21048 0
M  V30 8419 N 799.239 3.26426 3.28634 0
M  V30 8420 C 799.974 4.12141 3.98657 0
M  V30 8421 N 799.47 5.07966 4.71107 0
M  V30 8422 N 801.263 4.00091 3.94821 0
M  V30 8423 H 793.414 2.03666 0.602821 0
M  V30 8424 H 795.677 0.889294 0.328421 0
M  V30 8425 H 795.383 3.04727 1.75597 0
M  V30 8426 H 795.257 2.02922 3.17966 0
M  V30 8427 H 797.644 1.15196 2.71687 0
M  V30 8428 H 797.725 2.20477 1.29706 0
M  V30 8429 H 797.369 4.23227 2.80788 0
M  V30 8430 H 797.299 3.14917 4.2206 0
M  V30 8431 H 799.79 2.57045 2.77013 0
M  V30 8432 H 800.103 5.69766 5.22099 0
M  V30 8433 H 798.448 5.11936 4.7005 0
M  V30 8434 H 801.639 3.24523 3.37346 0
M  V30 8435 H 801.812 4.6711 4.49123 0
M  V30 8436 N 795.218 -1.23913 0.973828 0
M  V30 8437 C 796.467 -1.91455 0.63464 0
M  V30 8438 C 796.78 -1.76893 -0.834759 0
M  V30 8439 O 797.986 -2.3918 -1.28473 0
M  V30 8440 C 796.442 -3.43172 1.08447 0
M  V30 8441 C 796.05 -3.66409 2.57776 0
M  V30 8442 C 797.794 -4.1653 0.818721 0
M  V30 8443 C 795.701 -5.11728 2.9646 0
M  V30 8444 H 794.631 -0.716881 0.233661 0
M  V30 8445 H 797.282 -1.40457 1.18085 0
M  V30 8446 H 795.664 -3.93242 0.466524 0
M  V30 8447 H 796.838 -3.26913 3.24753 0
M  V30 8448 H 795.153 -3.06349 2.82027 0
M  V30 8449 H 797.75 -5.23603 1.08367 0
M  V30 8450 H 798.093 -4.15578 -0.245128 0
M  V30 8451 H 798.626 -3.72428 1.39793 0
M  V30 8452 H 795.365 -5.17806 4.01941 0
M  V30 8453 H 794.885 -5.52199 2.34172 0
M  V30 8454 H 796.564 -5.80009 2.86703 0
M  V30 8455 N 796.696 -0.74468 -1.38897 0
M  V30 8456 C 797.626 -0.126355 -2.33158 0
M  V30 8457 C 798.607 0.713517 -1.54412 0
M  V30 8458 O 799.792 0.656523 -1.82766 0
M  V30 8459 C 796.922 0.774375 -3.38557 0
M  V30 8460 C 795.876 0.0379214 -4.27983 0
M  V30 8461 C 795.202 1.05631 -5.24162 0
M  V30 8462 C 796.502 -1.12523 -5.10035 0
M  V30 8463 H 798.196 -0.913744 -2.85116 0
M  V30 8464 H 795.742 -0.440847 -1.37086 0
M  V30 8465 H 797.695 1.21655 -4.03458 0
M  V30 8466 H 796.419 1.59399 -2.85061 0
M  V30 8467 H 795.078 -0.384733 -3.64576 0
M  V30 8468 H 794.726 1.86975 -4.66958 0
M  V30 8469 H 794.426 0.568261 -5.84846 0
M  V30 8470 H 795.95 1.49799 -5.9194 0
M  V30 8471 H 797.364 -0.761037 -5.68226 0
M  V30 8472 H 795.761 -1.54355 -5.79909 0
M  V30 8473 H 796.831 -1.94237 -4.44297 0
M  V30 8474 N 798.174 1.49689 -0.493057 0
M  V30 8475 C 799.121 2.28976 0.28959 0
M  V30 8476 C 800.091 1.35011 0.967536 0
M  V30 8477 O 801.276 1.63964 0.975736 0
M  V30 8478 C 798.416 3.1748 1.35279 0
M  V30 8479 C 797.529 4.26496 0.687418 0
M  V30 8480 C 796.664 5.02226 1.73038 0
M  V30 8481 C 795.703 6.03089 1.04645 0
M  V30 8482 N 794.84 6.72014 2.03325 0
M  V30 8483 H 799.68 2.954 -0.392798 0
M  V30 8484 H 797.217 1.45657 -0.205554 0
M  V30 8485 H 799.175 3.67162 1.98111 0
M  V30 8486 H 797.805 2.53057 2.00405 0
M  V30 8487 H 796.857 3.80362 -0.0540001 0
M  V30 8488 H 798.169 4.98578 0.14864 0
M  V30 8489 H 797.323 5.55737 2.43395 0
M  V30 8490 H 796.062 4.29899 2.303 0
M  V30 8491 H 795.067 5.48817 0.328606 0
M  V30 8492 H 796.292 6.77398 0.480428 0
M  V30 8493 H 794.238 6.02464 2.59564 0
M  V30 8494 H 794.155 7.40046 1.54492 0
M  V30 8495 H 795.423 7.30133 2.72995 0
M  V30 8496 N 799.652 0.226554 1.55963 0
M  V30 8497 C 800.899 -0.403789 1.98433 0
M  V30 8498 C 801.227 -1.59416 1.1143 0
M  V30 8499 O 800.482 -1.95042 0.160389 0
M  V30 8500 C 800.781 -0.87642 3.46488 0
M  V30 8501 C 800.447 0.203973 4.50438 0
M  V30 8502 C 799.109 0.500754 4.78587 0
M  V30 8503 C 801.461 0.934396 5.12756 0
M  V30 8504 C 798.789 1.53239 5.66334 0
M  V30 8505 C 801.141 1.9554 6.0162 0
M  V30 8506 C 799.805 2.25905 6.28111 0
M  V30 8507 H 799.075 -0.147757 0.726119 0
M  V30 8508 H 801.722 0.330121 1.88633 0
M  V30 8509 H 800.027 -1.68918 3.53517 0
M  V30 8510 H 801.724 -1.37407 3.76723 0
M  V30 8511 H 798.314 -0.0374917 4.28584 0
M  V30 8512 H 802.498 0.718355 4.91074 0
M  V30 8513 H 797.754 1.77321 5.85122 0
M  V30 8514 H 801.928 2.52642 6.48957 0
M  V30 8515 H 799.555 3.05985 6.959 0
M  V30 8516 N 801.13 -1.57531 -0.0467866 0
M  V30 8517 C 802.06 -2.08425 -1.05268 0
M  V30 8518 C 803.041 -0.982941 -1.38825 0
M  V30 8519 O 804.226 -1.25716 -1.48018 0
M  V30 8520 C 801.356 -2.54897 -2.35891 0
M  V30 8521 C 800.31 -3.69132 -2.16623 0
M  V30 8522 C 799.636 -4.01747 -3.52851 0
M  V30 8523 C 800.936 -4.98243 -1.56689 0
M  V30 8524 H 802.63 -2.92716 -0.62908 0
M  V30 8525 H 800.176 -1.40816 -0.301156 0
M  V30 8526 H 802.129 -2.8912 -3.06574 0
M  V30 8527 H 800.853 -1.67666 -2.80278 0
M  V30 8528 H 799.512 -3.35231 -1.48377 0
M  V30 8529 H 799.16 -3.11608 -3.94853 0
M  V30 8530 H 798.86 -4.78681 -3.4079 0
M  V30 8531 H 800.384 -4.38487 -4.24925 0
M  V30 8532 H 801.798 -5.30535 -2.17268 0
M  V30 8533 H 800.195 -5.79669 -1.55255 0
M  V30 8534 H 801.265 -4.81986 -0.530827 0
M  V30 8535 N 802.608 0.318715 -1.54344 0
M  V30 8536 C 803.854 1.05765 -1.73037 0
M  V30 8537 C 804.187 1.87514 -0.505181 0
M  V30 8538 O 803.462 1.88021 0.497838 0
M  V30 8539 C 803.745 1.97836 -3.00887 0
M  V30 8540 C 803.598 1.19384 -4.33668 0
M  V30 8541 C 804.917 2.97285 -3.24514 0
M  V30 8542 H 802.036 0.383104 -0.629603 0
M  V30 8543 H 804.678 0.333864 -1.87044 0
M  V30 8544 H 802.828 2.59552 -2.89076 0
M  V30 8545 H 804.5 0.600906 -4.57369 0
M  V30 8546 H 802.743 0.496198 -4.30953 0
M  V30 8547 H 803.414 1.87014 -5.19355 0
M  V30 8548 H 805.89 2.45693 -3.35819 0
M  V30 8549 H 804.766 3.58887 -4.15321 0
M  V30 8550 H 805.027 3.70003 -2.41971 0
M  V30 8551 N 804.086 1.46499 0.581025 0
M  V30 8552 C 805.049 1.5677 1.672 0
M  V30 8553 C 806.049 0.444716 1.54528 0
M  V30 8554 O 807.239 0.709074 1.59116 0
M  V30 8555 C 804.371 1.4896 3.06633 0
M  V30 8556 H 805.564 2.54 1.5945 0
M  V30 8557 H 803.117 1.34334 0.799003 0
M  V30 8558 H 803.852 0.530168 3.19937 0
M  V30 8559 H 803.637 2.30439 3.17239 0
M  V30 8560 H 805.127 1.59237 3.86048 0
M  V30 8561 N 805.565 -0.825799 1.34232 0
M  V30 8562 C 806.512 -1.93651 1.2557 0
M  V30 8563 C 807.482 -1.65578 0.131536 0
M  V30 8564 O 808.667 -1.88231 0.312027 0
M  V30 8565 C 805.807 -3.29862 1.01415 0
M  V30 8566 C 804.92 -3.70247 2.22579 0
M  V30 8567 C 804.055 -4.95392 1.91731 0
M  V30 8568 C 803.094 -5.28349 3.09053 0
M  V30 8569 N 802.231 -6.44671 2.78107 0
M  V30 8570 H 807.071 -2.00392 2.20561 0
M  V30 8571 H 804.608 -0.980441 1.09662 0
M  V30 8572 H 806.566 -4.08356 0.854485 0
M  V30 8573 H 805.196 -3.22642 0.100936 0
M  V30 8574 H 804.248 -2.87169 2.49476 0
M  V30 8575 H 805.56 -3.90575 3.10246 0
M  V30 8576 H 804.714 -5.81665 1.72484 0
M  V30 8577 H 803.453 -4.77059 1.0132 0
M  V30 8578 H 802.458 -4.40574 3.289 0
M  V30 8579 H 803.683 -5.48622 4.00239 0
M  V30 8580 H 801.629 -6.278 1.9027 0
M  V30 8581 H 801.546 -6.65158 3.59306 0
M  V30 8582 H 802.814 -7.34022 2.62358 0
M  V30 8583 N 807.043 -1.17915 -1.04565 0
M  V30 8584 C 808.459 -0.927761 -1.29864 0
M  V30 8585 C 808.659 0.409536 -1.97294 0
M  V30 8586 O 807.715 1.14505 -2.25044 0
M  V30 8587 C 809.028 -2.08967 -2.16225 0
M  V30 8588 C 810.576 -2.12741 -2.29587 0
M  V30 8589 C 811.051 -3.28335 -3.19312 0
M  V30 8590 N 812.542 -3.28164 -3.26898 0
M  V30 8591 C 813.277 -4.14249 -3.96466 0
M  V30 8592 N 812.773 -5.10457 -4.68407 0
M  V30 8593 N 814.566 -4.02179 -3.92694 0
M  V30 8594 H 806.717 -2.03983 -0.592011 0
M  V30 8595 H 808.98 -0.891023 -0.323701 0
M  V30 8596 H 808.686 -3.05654 -1.73979 0
M  V30 8597 H 808.56 -2.04606 -3.16885 0
M  V30 8598 H 810.947 -1.16636 -2.71072 0
M  V30 8599 H 811.028 -2.21162 -1.28535 0
M  V30 8600 H 810.672 -4.2471 -2.78539 0
M  V30 8601 H 810.602 -3.17151 -4.20384 0
M  V30 8602 H 813.093 -2.58511 -2.75646 0
M  V30 8603 H 813.406 -5.72526 -5.1907 0
M  V30 8604 H 811.751 -5.14422 -4.67328 0
M  V30 8605 H 814.942 -3.26308 -3.3562 0
M  V30 8606 H 815.115 -4.69486 -4.4664 0
M  V30 8607 N 808.521 1.23394 -0.980386 0
M  V30 8608 C 809.468 2.24859 -0.520298 0
M  V30 8609 C 810.438 1.60144 0.440821 0
M  V30 8610 O 811.623 1.87593 0.348369 0
M  V30 8611 C 808.763 3.44675 0.171145 0
M  V30 8612 C 807.876 4.23947 -0.830233 0
M  V30 8613 C 807.011 5.31079 -0.113597 0
M  V30 8614 C 806.05 6.02058 -1.10419 0
M  V30 8615 N 805.187 7.00862 -0.416709 0
M  V30 8616 H 810.027 2.63579 -1.39032 0
M  V30 8617 H 807.564 1.29556 -0.696682 0
M  V30 8618 H 809.522 4.13024 0.588838 0
M  V30 8619 H 808.152 3.06755 1.00504 0
M  V30 8620 H 807.204 3.55016 -1.36631 0
M  V30 8621 H 808.516 4.72945 -1.58508 0
M  V30 8622 H 807.67 6.05622 0.36146 0
M  V30 8623 H 806.409 4.83022 0.673854 0
M  V30 8624 H 805.414 5.26307 -1.59 0
M  V30 8625 H 806.639 6.52203 -1.8923 0
M  V30 8626 H 804.585 6.55057 0.351535 0
M  V30 8627 H 804.502 7.47804 -1.11021 0
M  V30 8628 H 805.77 7.79492 0.0359606 0
M  V30 8629 N 809.999 0.752036 1.385 0
M  V30 8630 C 811.246 0.307503 2.00152 0
M  V30 8631 C 811.574 -1.11033 1.59693 0
M  V30 8632 O 810.829 -1.77455 0.825125 0
M  V30 8633 C 811.128 0.376155 3.55415 0
M  V30 8634 C 810.794 1.74942 4.15579 0
M  V30 8635 C 809.456 2.12525 4.31725 0
M  V30 8636 C 811.808 2.65031 4.48785 0
M  V30 8637 C 809.136 3.39671 4.78373 0
M  V30 8638 C 811.488 3.91567 4.96848 0
M  V30 8639 C 810.152 4.2922 5.11201 0
M  V30 8640 H 809.422 0.112523 0.732407 0
M  V30 8641 H 812.069 0.962213 1.65571 0
M  V30 8642 H 810.374 -0.362121 3.90123 0
M  V30 8643 H 812.071 0.0138065 4.00998 0
M  V30 8644 H 808.661 1.44726 4.03426 0
M  V30 8645 H 812.845 2.3726 4.35914 0
M  V30 8646 H 808.101 3.68765 4.8767 0
M  V30 8647 H 812.275 4.61517 5.21512 0
M  V30 8648 H 809.902 5.27805 5.47107 0
M  V30 8649 N 811.477 -1.49425 0.500989 0
M  V30 8650 C 812.424 -2.29126 -0.277443 0
M  V30 8651 C 813.394 -1.35522 -0.960363 0
M  V30 8652 O 814.579 -1.64479 -0.967027 0
M  V30 8653 C 811.719 -3.18193 -1.33593 0
M  V30 8654 C 810.832 -4.26854 -0.664791 0
M  V30 8655 C 809.967 -5.03137 -1.70372 0
M  V30 8656 C 809.006 -6.03635 -1.01445 0
M  V30 8657 N 808.143 -6.73083 -1.99758 0
M  V30 8658 H 812.983 -2.95187 0.408458 0
M  V30 8659 H 810.52 -1.45546 0.213275 0
M  V30 8660 H 812.478 -3.68207 -1.96161 0
M  V30 8661 H 811.108 -2.54116 -1.9906 0
M  V30 8662 H 810.16 -3.80328 0.0741708 0
M  V30 8663 H 811.472 -4.9865 -0.122197 0
M  V30 8664 H 810.626 -5.5702 -2.40445 0
M  V30 8665 H 809.365 -4.31114 -2.28017 0
M  V30 8666 H 808.37 -5.48984 -0.299496 0
M  V30 8667 H 809.595 -6.77644 -0.444497 0
M  V30 8668 H 807.541 -6.03832 -2.56365 0
M  V30 8669 H 807.458 -7.40855 -1.50565 0
M  V30 8670 H 808.726 -7.3157 -2.69119 0
M  V30 8671 N 812.955 -0.234822 -1.55841 0
M  V30 8672 C 813.865 0.680828 -2.24504 0
M  V30 8673 C 814.881 1.20306 -1.25708 0
M  V30 8674 O 816.057 1.24188 -1.58554 0
M  V30 8675 C 813.122 1.86636 -2.92178 0
M  V30 8676 C 812.183 1.3848 -4.06352 0
M  V30 8677 C 811.416 2.51382 -4.70789 0
M  V30 8678 O 811.639 3.69831 -4.34259 0
M  V30 8679 O 810.573 2.21828 -5.59532 0
M  V30 8680 H 814.399 0.12583 -3.03439 0
M  V30 8681 H 811.984 -0.00381817 -1.494 0
M  V30 8682 H 813.866 2.55845 -3.34845 0
M  V30 8683 H 812.541 2.40921 -2.16192 0
M  V30 8684 H 811.448 0.660341 -3.68226 0
M  V30 8685 H 812.781 0.888177 -4.8412 0
M  V30 8686 N 814.433 1.57553 0.0384317 0
M  V30 8687 C 815.661 1.93093 0.743141 0
M  V30 8688 C 816.076 0.833787 1.69391 0
M  V30 8689 O 815.433 -0.190532 1.81503 0
M  V30 8690 C 815.484 3.28533 1.50826 0
M  V30 8691 O 815.205 4.34032 0.595665 0
M  V30 8692 C 816.706 3.78297 2.31098 0
M  V30 8693 H 813.926 0.637486 0.20941 0
M  V30 8694 H 816.47 2.045 -0.00125154 0
M  V30 8695 H 814.625 3.18552 2.20462 0
M  V30 8696 H 815.039 5.12155 1.13124 0
M  V30 8697 H 816.513 4.75602 2.80191 0
M  V30 8698 H 816.99 3.09008 3.12107 0
M  V30 8699 H 817.596 3.91331 1.66555 0
M  V30 8700 N 815.911 -0.310526 1.54511 0
M  V30 8701 C 816.841 -1.38757 1.878 0
M  V30 8702 C 817.822 -1.53353 0.735991 0
M  V30 8703 O 819.007 -1.67018 0.990887 0
M  V30 8704 C 816.137 -2.75327 2.11689 0
M  V30 8705 C 815.091 -2.75506 3.27537 0
M  V30 8706 C 814.417 -4.15275 3.36824 0
M  V30 8707 C 815.717 -2.38093 4.64875 0
M  V30 8708 H 817.411 -1.11146 2.78005 0
M  V30 8709 H 814.957 -0.533232 1.33763 0
M  V30 8710 H 816.91 -3.50752 2.33562 0
M  V30 8711 H 815.634 -3.04443 1.18245 0
M  V30 8712 H 814.293 -2.02538 3.05572 0
M  V30 8713 H 813.941 -4.41553 2.40915 0
M  V30 8714 H 813.641 -4.16299 4.14692 0
M  V30 8715 H 815.165 -4.92493 3.60947 0
M  V30 8716 H 816.579 -3.03232 4.86542 0
M  V30 8717 H 814.976 -2.50345 5.45387 0
M  V30 8718 H 816.046 -1.33227 4.66239 0
M  V30 8719 N 817.389 -1.46805 -0.573248 0
M  V30 8720 C 818.805 -1.31969 -0.897577 0
M  V30 8721 C 819.005 -0.298171 -1.99282 0
M  V30 8722 O 818.061 0.295953 -2.5076 0
M  V30 8723 C 819.374 -2.70859 -1.30598 0
M  V30 8724 C 820.922 -2.79022 -1.4183 0
M  V30 8725 C 821.397 -4.18516 -1.86033 0
M  V30 8726 N 822.888 -4.2098 -1.9321 0
M  V30 8727 C 823.623 -5.25814 -2.28707 0
M  V30 8728 N 823.119 -6.40968 -2.6293 0
M  V30 8729 N 824.912 -5.13184 -2.29343 0
M  V30 8730 H 817.063 -2.11869 0.150094 0
M  V30 8731 H 819.326 -0.947989 0.00447895 0
M  V30 8732 H 819.032 -3.46965 -0.575161 0
M  V30 8733 H 818.906 -3.01585 -2.26554 0
M  V30 8734 H 821.293 -2.03198 -2.13996 0
M  V30 8735 H 821.374 -2.51969 -0.441024 0
M  V30 8736 H 821.018 -4.94839 -1.14442 0
M  V30 8737 H 820.948 -4.42982 -2.84735 0
M  V30 8738 H 823.439 -3.37898 -1.69214 0
M  V30 8739 H 823.752 -7.16729 -2.88996 0
M  V30 8740 H 822.097 -6.44314 -2.60547 0
M  V30 8741 H 825.288 -4.22255 -2.02036 0
M  V30 8742 H 825.461 -5.94996 -2.56679 0
M  V30 8743 N 818.867 0.818669 -1.34668 0
M  V30 8744 C 820.278 1.39177 -1.24446 0
M  V30 8745 C 820.629 1.9578 0.128268 0
M  V30 8746 O 819.754 1.90382 1.02877 0
M  V30 8747 C 820.349 2.53012 -2.25323 0
M  V30 8748 C 818.908 3.06218 -2.18878 0
M  V30 8749 C 818.055 1.79112 -2.11694 0
M  V30 8750 H 821.006 0.622709 -1.45973 0
M  V30 8751 H 821.027 3.31226 -1.8727 0
M  V30 8752 H 820.539 2.11784 -3.25221 0
M  V30 8753 H 818.64 3.51939 -1.22351 0
M  V30 8754 H 818.753 3.65019 -3.10319 0
M  V30 8755 H 817.117 2.0018 -1.57481 0
M  V30 8756 H 817.9 1.40053 -3.13433 0
M  V30 8757 N 820.346 1.18468 1.03938 0
M  V30 8758 C 821.576 1.0043 1.80547 0
M  V30 8759 C 821.984 -0.450407 1.83761 0
M  V30 8760 O 821.327 -1.32463 1.27276 0
M  V30 8761 C 821.389 1.48437 3.27424 0
M  V30 8762 C 821.053 2.96372 3.47869 0
M  V30 8763 C 822.05 3.94217 3.38953 0
M  V30 8764 C 819.735 3.34831 3.74424 0
M  V30 8765 C 821.729 5.28517 3.56298 0
M  V30 8766 C 819.416 4.69294 3.91416 0
M  V30 8767 C 820.414 5.65946 3.82354 0
M  V30 8768 O 820.102 6.97974 3.98858 0
M  V30 8769 H 819.834 0.354853 0.575374 0
M  V30 8770 H 822.388 1.57473 1.31876 0
M  V30 8771 H 820.618 0.857601 3.7707 0
M  V30 8772 H 822.307 1.2677 3.85596 0
M  V30 8773 H 823.073 3.6585 3.184 0
M  V30 8774 H 818.952 2.60161 3.80575 0
M  V30 8775 H 822.496 6.03943 3.49141 0
M  V30 8776 H 818.393 4.97361 4.11463 0
M  V30 8777 H 819.161 7.04895 4.1601 0
M  V30 8778 N 821.824 -1.22873 0.986916 0
M  V30 8779 C 823.101 -1.86939 0.575589 0
M  V30 8780 C 823.481 -1.88656 -0.947205 0
M  V30 8781 O 822.829 -1.3728 -1.82665 0
M  V30 8782 C 823.039 -3.28117 1.18914 0
M  V30 8783 C 824.387 -4.04659 1.28593 0
M  V30 8784 O 825.411 -3.3736 1.14308 0
M  V30 8785 O 824.27 -5.25112 1.51391 0
M  V30 8786 H 821.364 -0.803748 0.194724 0
M  V30 8787 H 823.91 -1.30698 1.08241 0
M  V30 8788 H 822.682 -3.21468 2.231 0
M  V30 8789 H 822.305 -3.91956 0.667535 0
M  V30 8790 N 823.302 -0.75937 -1.38099 0
M  V30 8791 C 824.548 -0.318584 -2.00282 0
M  V30 8792 C 824.881 1.09854 -1.60143 0
M  V30 8793 O 824.156 1.75344 -0.841702 0
M  V30 8794 C 824.439 -0.448047 -3.57302 0
M  V30 8795 C 824.292 -1.9067 -4.07388 0
M  V30 8796 C 825.611 0.155119 -4.39827 0
M  V30 8797 H 822.73 -0.117233 -0.727616 0
M  V30 8798 H 825.372 -0.960097 -1.63958 0
M  V30 8799 H 823.522 0.0981003 -3.88376 0
M  V30 8800 H 825.194 -2.5116 -3.86932 0
M  V30 8801 H 823.437 -2.41979 -3.6004 0
M  V30 8802 H 824.108 -1.94841 -5.1647 0
M  V30 8803 H 826.584 -0.31073 -4.14938 0
M  V30 8804 H 825.46 0.0343264 -5.48889 0
M  V30 8805 H 825.721 1.24407 -4.24235 0
M  V30 8806 N 824.78 1.49157 -0.508906 0
M  V30 8807 C 825.727 2.2927 0.265288 0
M  V30 8808 C 826.697 1.3603 0.953162 0
M  V30 8809 O 827.882 1.64989 0.958291 0
M  V30 8810 C 825.022 3.18897 1.31904 0
M  V30 8811 C 824.135 4.27201 0.642144 0
M  V30 8812 C 823.27 5.04033 1.67701 0
M  V30 8813 C 822.309 6.04165 0.982422 0
M  V30 8814 N 821.446 6.74133 1.96186 0
M  V30 8815 H 826.286 2.94967 -0.424107 0
M  V30 8816 H 823.823 1.45431 -0.220991 0
M  V30 8817 H 825.781 3.69242 1.94206 0
M  V30 8818 H 824.411 2.55168 1.97709 0
M  V30 8819 H 823.463 3.80283 -0.0943395 0
M  V30 8820 H 824.775 4.98708 0.0957507 0
M  V30 8821 H 823.929 5.58287 2.37487 0
M  V30 8822 H 822.668 4.32317 2.25728 0
M  V30 8823 H 821.673 5.49135 0.270378 0
M  V30 8824 H 822.898 6.7787 0.408554 0
M  V30 8825 H 820.844 6.05183 2.53159 0
M  V30 8826 H 820.761 7.41643 1.46634 0
M  V30 8827 H 822.029 7.32987 2.65236 0
M  V30 8828 N 826.258 0.243083 1.55714 0
M  V30 8829 C 827.535 -0.432851 1.90751 0
M  V30 8830 C 827.915 -1.76153 1.16333 0
M  V30 8831 O 827.263 -2.26783 0.279565 0
M  V30 8832 C 827.473 -0.604685 3.43722 0
M  V30 8833 C 828.821 -0.90231 4.14902 0
M  V30 8834 O 829.845 -0.690689 3.49439 0
M  V30 8835 O 828.704 -1.3051 5.30688 0
M  V30 8836 H 825.798 -0.231835 0.79384 0
M  V30 8837 H 828.344 0.286867 1.67258 0
M  V30 8838 H 827.116 0.331655 3.89892 0
M  V30 8839 H 826.739 -1.37509 3.73065 0
M  V30 8840 N 827.736 -1.57571 -0.0300757 0
M  V30 8841 C 828.982 -1.89506 -0.722159 0
M  V30 8842 C 829.315 -0.840699 -1.7506 0
M  V30 8843 O 828.59 0.144358 -1.93964 0
M  V30 8844 C 828.873 -3.32081 -1.39262 0
M  V30 8845 C 828.726 -4.48211 -0.377768 0
M  V30 8846 C 830.045 -3.73557 -2.32687 0
M  V30 8847 H 827.164 -0.689213 -0.261064 0
M  V30 8848 H 829.806 -1.89994 0.0150388 0
M  V30 8849 H 827.956 -3.31796 -2.02098 0
M  V30 8850 H 829.628 -4.6063 0.248591 0
M  V30 8851 H 827.871 -4.3274 0.303045 0
M  V30 8852 H 828.542 -5.44854 -0.885347 0
M  V30 8853 H 831.018 -3.75202 -1.79896 0
M  V30 8854 H 829.894 -4.74125 -2.7658 0
M  V30 8855 H 830.155 -3.05759 -3.19317 0
M  V30 8856 N 829.214 0.302327 -1.54673 0
M  V30 8857 C 830.463 1.03533 -1.73101 0
M  V30 8858 C 830.776 1.88473 -0.523174 0
M  V30 8859 O 831.982 2.65029 -0.589229 0
M  V30 8860 C 830.438 1.89043 -3.06252 0
M  V30 8861 C 830.046 1.09112 -4.3451 0
M  V30 8862 C 831.79 2.61951 -3.34039 0
M  V30 8863 C 829.697 1.93891 -5.58713 0
M  V30 8864 H 828.627 0.390261 -0.645145 0
M  V30 8865 H 831.278 0.2924 -1.81155 0
M  V30 8866 H 829.66 2.67319 -2.92159 0
M  V30 8867 H 830.834 0.354596 -4.59434 0
M  V30 8868 H 829.149 0.477923 -4.13648 0
M  V30 8869 H 831.746 3.25729 -4.24033 0
M  V30 8870 H 832.089 3.30711 -2.52855 0
M  V30 8871 H 832.622 1.90725 -3.49097 0
M  V30 8872 H 829.361 1.29604 -6.4256 0
M  V30 8873 H 828.881 2.6522 -5.37976 0
M  V30 8874 H 830.56 2.51971 -5.95919 0
M  V30 8875 N 830.692 1.47107 0.565454 0
M  V30 8876 C 831.602 1.61591 1.70075 0
M  V30 8877 C 832.618 0.498931 1.66693 0
M  V30 8878 O 833.794 0.765372 1.8629 0
M  V30 8879 C 830.859 1.61887 3.06583 0
M  V30 8880 C 829.92 2.84949 3.21096 0
M  V30 8881 C 829.153 2.85221 4.51093 0
M  V30 8882 O 829.376 1.94959 5.36048 0
M  V30 8883 O 828.31 3.76982 4.69221 0
M  V30 8884 H 832.136 2.57638 1.60799 0
M  V30 8885 H 829.721 1.30097 0.73451 0
M  V30 8886 H 831.603 1.64809 3.87835 0
M  V30 8887 H 830.278 0.69005 3.16259 0
M  V30 8888 H 829.185 2.87575 2.39273 0
M  V30 8889 H 830.518 3.77098 3.1632 0
M  V30 8890 N 832.17 -0.811516 1.35101 0
M  V30 8891 C 833.102 -1.93102 1.23468 0
M  V30 8892 C 834.115 -1.62021 0.159095 0
M  V30 8893 O 835.304 -1.73682 0.411945 0
M  V30 8894 C 832.404 -3.27345 0.877404 0
M  V30 8895 C 831.577 -3.86368 2.05033 0
M  V30 8896 C 830.636 -4.99009 1.66963 0
M  V30 8897 O 829.662 -5.16698 2.38772 0
M  V30 8898 N 830.864 -5.7749 0.590394 0
M  V30 8899 H 833.629 -2.0361 2.19916 0
M  V30 8900 H 831.19 -0.988687 1.28205 0
M  V30 8901 H 833.182 -4.00163 0.604298 0
M  V30 8902 H 831.752 -3.126 0.00275267 0
M  V30 8903 H 830.972 -3.05804 2.48752 0
M  V30 8904 H 832.26 -4.22533 2.83449 0
M  V30 8905 H 831.658 -5.657 -0.00633259 0
M  V30 8906 H 830.215 -6.50708 0.377055 0
M  V30 8907 N 833.648 -1.19017 -1.03309 0
M  V30 8908 C 834.878 -1.01387 -1.80012 0
M  V30 8909 C 835.286 0.440655 -1.83997 0
M  V30 8910 O 834.629 1.31786 -1.27977 0
M  V30 8911 C 834.691 -1.50171 -3.26633 0
M  V30 8912 C 834.355 -2.98213 -3.46292 0
M  V30 8913 C 835.352 -3.96009 -3.36857 0
M  V30 8914 C 833.037 -3.36812 -3.72643 0
M  V30 8915 C 835.031 -5.30399 -3.5349 0
M  V30 8916 C 832.718 -4.71363 -3.88922 0
M  V30 8917 C 833.716 -5.67966 -3.79347 0
M  V30 8918 O 833.404 -7.00079 -3.95151 0
M  V30 8919 H 833.136 -0.357899 -0.573484 0
M  V30 8920 H 835.69 -1.58171 -1.31039 0
M  V30 8921 H 833.92 -0.877586 -3.7661 0
M  V30 8922 H 835.609 -1.28814 -3.84918 0
M  V30 8923 H 836.375 -3.67534 -3.16455 0
M  V30 8924 H 832.254 -2.62175 -3.7919 0
M  V30 8925 H 835.798 -6.05786 -3.45933 0
M  V30 8926 H 831.695 -4.99536 -4.0882 0
M  V30 8927 H 832.463 -7.07092 -4.12266 0
M  V30 8928 N 835.127 1.22348 -0.993418 0
M  V30 8929 C 836.352 1.95666 -0.687727 0
M  V30 8930 C 836.777 1.72883 0.741161 0
M  V30 8931 O 836.135 1.00837 1.50671 0
M  V30 8932 C 836.183 3.46457 -0.99998 0
M  V30 8933 O 835.287 4.12281 -0.0989386 0
M  V30 8934 H 834.628 0.612102 -0.257346 0
M  V30 8935 H 837.158 1.55428 -1.33054 0
M  V30 8936 H 837.168 3.96976 -0.942035 0
M  V30 8937 H 835.843 3.62365 -2.04118 0
M  V30 8938 H 834.42 3.72295 -0.212413 0
M  V30 8939 N 836.605 0.766683 1.37694 0
M  V30 8940 C 837.568 0.155849 2.2867 0
M  V30 8941 C 838.568 -0.633509 1.47795 0
M  V30 8942 O 839.758 -0.457844 1.68076 0
M  V30 8943 C 836.89 -0.786965 3.31692 0
M  V30 8944 H 838.083 0.957748 2.84196 0
M  V30 8945 H 835.636 0.534554 1.46875 0
M  V30 8946 H 836.371 -1.61406 2.8128 0
M  V30 8947 H 836.156 -0.223182 3.91464 0
M  V30 8948 H 837.646 -1.20994 3.99688 0
M  V30 8949 N 838.083 -1.48885 0.516809 0
M  V30 8950 C 839.331 -2.02088 -0.0220166 0
M  V30 8951 C 839.652 -1.39735 -1.36011 0
M  V30 8952 O 838.922 -0.558119 -1.87781 0
M  V30 8953 H 837.502 -0.746917 -0.0111255 0
M  V30 8954 H 840.164 -1.8274 0.677647 0
M  V30 8955 H 839.26 -3.11786 -0.140067 0
M  V30 8956 N 839.561 -0.251338 -1.55583 0
M  V30 8957 C 840.511 0.660351 -2.18228 0
M  V30 8958 C 841.495 1.13596 -1.13951 0
M  V30 8959 O 842.687 1.08499 -1.39846 0
M  V30 8960 C 839.816 1.85498 -2.88869 0
M  V30 8961 C 838.902 1.39767 -4.00407 0
M  V30 8962 N 839.293 0.654876 -5.01543 0
M  V30 8963 C 837.591 1.68259 -4.13044 0
M  V30 8964 C 838.292 0.417521 -5.802 0
M  V30 8965 N 837.268 0.983032 -5.34638 0
M  V30 8966 H 841.07 0.0847425 -2.93778 0
M  V30 8967 H 838.584 -0.0538456 -1.62311 0
M  V30 8968 H 840.581 2.51916 -3.3218 0
M  V30 8969 H 839.241 2.43477 -2.14823 0
M  V30 8970 H 840.252 0.304545 -5.17004 0
M  V30 8971 H 836.929 2.27344 -3.50172 0
M  V30 8972 H 838.319 -0.175764 -6.7167 0
M  V30 8973 N 841.039 1.57585 0.0217189 0
M  V30 8974 C 841.969 2.10073 1.01939 0
M  V30 8975 C 842.95 1.0049 1.37243 0
M  V30 8976 O 844.135 1.28055 1.45999 0
M  V30 8977 C 841.265 2.58618 2.31806 0
M  V30 8978 C 840.219 3.72531 2.10724 0
M  V30 8979 C 839.545 4.07309 3.46415 0
M  V30 8980 C 840.845 5.00672 1.48743 0
M  V30 8981 H 842.539 2.9368 0.582432 0
M  V30 8982 H 840.085 1.41277 0.278715 0
M  V30 8983 H 842.038 2.9396 3.01936 0
M  V30 8984 H 840.762 1.72104 2.77575 0
M  V30 8985 H 839.421 3.37549 1.43025 0
M  V30 8986 H 839.069 3.17851 3.89846 0
M  V30 8987 H 838.769 4.84042 3.33132 0
M  V30 8988 H 840.293 4.45192 4.17895 0
M  V30 8989 H 841.707 5.33925 2.088 0
M  V30 8990 H 840.104 5.82065 1.46013 0
M  V30 8991 H 841.174 4.82769 0.45408 0
M  V30 8992 N 842.517 -0.29412 1.54831 0
M  V30 8993 C 843.794 -1.04847 1.65126 0
M  V30 8994 C 844.174 -2.04996 0.503986 0
M  V30 8995 O 843.522 -2.22996 -0.498496 0
M  V30 8996 C 843.732 -1.72418 3.03435 0
M  V30 8997 C 845.08 -2.24362 3.60481 0
M  V30 8998 O 846.104 -1.8244 3.05932 0
M  V30 8999 O 844.963 -3.01196 4.56008 0
M  V30 9000 H 842.057 -0.485032 0.669831 0
M  V30 9001 H 844.603 -0.291659 1.67175 0
M  V30 9002 H 843.375 -0.997351 3.78376 0
M  V30 9003 H 842.998 -2.54839 3.05193 0
M  V30 9004 N 843.995 -1.47404 -0.557645 0
M  V30 9005 C 844.928 -1.54399 -1.68036 0
M  V30 9006 C 845.906 -0.396175 -1.577 0
M  V30 9007 O 847.09 -0.603911 -1.78564 0
M  V30 9008 C 844.217 -1.44611 -3.06277 0
M  V30 9009 C 843.263 -2.63889 -3.35059 0
M  V30 9010 S 844.096 -4.26086 -3.24362 0
M  V30 9011 C 845.252 -4.1885 -4.65097 0
M  V30 9012 H 845.485 -2.49384 -1.61849 0
M  V30 9013 H 843.018 -1.35597 -0.738429 0
M  V30 9014 H 844.976 -1.39651 -3.86015 0
M  V30 9015 H 843.637 -0.510114 -3.0993 0
M  V30 9016 H 842.83 -2.53103 -4.35838 0
M  V30 9017 H 842.432 -2.65969 -2.62938 0
M  V30 9018 H 844.724 -3.87077 -5.56037 0
M  V30 9019 H 845.667 -5.19714 -4.8094 0
M  V30 9020 H 846.075 -3.49717 -4.43123 0
M  V30 9021 N 845.473 0.80434 -1.35529 0
M  V30 9022 C 846.403 1.93086 -1.31301 0
M  V30 9023 C 847.384 1.69068 -0.187044 0
M  V30 9024 O 848.569 1.90399 -0.382359 0
M  V30 9025 C 845.699 3.29867 -1.0865 0
M  V30 9026 C 844.653 3.68373 -2.17911 0
M  V30 9027 C 843.979 5.0334 -1.80423 0
M  V30 9028 C 845.279 3.78516 -3.59893 0
M  V30 9029 H 846.973 1.96882 -2.25561 0
M  V30 9030 H 844.519 0.945841 -1.08581 0
M  V30 9031 H 846.472 4.08281 -1.04331 0
M  V30 9032 H 845.196 3.2642 -0.108359 0
M  V30 9033 H 843.855 2.92247 -2.21331 0
M  V30 9034 H 843.503 4.96399 -0.812213 0
M  V30 9035 H 843.203 5.30074 -2.53565 0
M  V30 9036 H 844.727 5.84191 -1.77633 0
M  V30 9037 H 846.141 4.47155 -3.58783 0
M  V30 9038 H 844.538 4.16721 -4.31814 0
M  V30 9039 H 845.608 2.8001 -3.95882 0
M  V30 9040 N 846.951 1.19563 1.02676 0
M  V30 9041 C 848.199 0.997593 1.75763 0
M  V30 9042 C 848.52 -0.47253 1.89188 0
M  V30 9043 O 847.79 -1.34214 1.42701 0
M  V30 9044 H 846.37 0.366128 0.651122 0
M  V30 9045 H 849.032 1.50495 1.23844 0
M  V30 9046 H 848.128 1.44741 2.76508 0
M  V30 9047 N 848.429 -1.21819 0.999893 0
M  V30 9048 C 849.845 -1.42847 0.711824 0
M  V30 9049 C 850.045 -1.88391 -0.714928 0
M  V30 9050 O 849.101 -2.0422 -1.48494 0
M  V30 9051 C 850.414 -2.46417 1.72334 0
M  V30 9052 C 851.962 -2.60207 1.73958 0
M  V30 9053 C 852.437 -3.67005 2.73992 0
M  V30 9054 N 853.928 -3.7447 2.72628 0
M  V30 9055 C 854.663 -4.56718 3.46693 0
M  V30 9056 N 854.159 -5.42904 4.3038 0
M  V30 9057 N 855.952 -4.51094 3.35366 0
M  V30 9058 H 848.103 -0.905656 1.92124 0
M  V30 9059 H 850.366 -0.459893 0.828977 0
M  V30 9060 H 850.072 -2.19914 2.74465 0
M  V30 9061 H 849.946 -3.45137 1.52186 0
M  V30 9062 H 852.333 -2.8605 0.725217 0
M  V30 9063 H 852.414 -1.61739 1.98177 0
M  V30 9064 H 852.058 -3.41908 3.75582 0
M  V30 9065 H 851.988 -4.65058 2.4704 0
M  V30 9066 H 854.479 -3.12895 2.11909 0
M  V30 9067 H 854.792 -6.02704 4.83702 0
M  V30 9068 H 853.137 -5.42463 4.34464 0
M  V30 9069 H 856.328 -3.82791 2.69423 0
M  V30 9070 H 856.501 -5.1496 3.93344 0
M  V30 9071 N 849.908 -0.773975 -1.37286 0
M  V30 9072 C 851.157 -0.335977 -1.98882 0
M  V30 9073 C 851.47 1.09416 -1.62134 0
M  V30 9074 O 852.676 1.63366 -2.1685 0
M  V30 9075 C 851.132 -0.549756 -3.55676 0
M  V30 9076 C 850.74 -1.9903 -4.01361 0
M  V30 9077 C 852.484 -0.175493 -4.24137 0
M  V30 9078 C 850.391 -2.15156 -5.50874 0
M  V30 9079 H 849.321 -0.121877 -0.744085 0
M  V30 9080 H 851.972 -0.953419 -1.56787 0
M  V30 9081 H 850.354 0.137175 -3.95762 0
M  V30 9082 H 851.528 -2.71237 -3.72515 0
M  V30 9083 H 849.843 -2.32137 -3.4569 0
M  V30 9084 H 852.44 -0.274463 -5.33995 0
M  V30 9085 H 852.783 0.874524 -4.07011 0
M  V30 9086 H 853.316 -0.815058 -3.89361 0
M  V30 9087 H 850.055 -3.18485 -5.72929 0
M  V30 9088 H 849.575 -1.47435 -5.81397 0
M  V30 9089 H 851.254 -1.95124 -6.16876 0
M  V30 9090 N 851.386 1.48609 -0.524698 0
M  V30 9091 C 852.333 2.29539 0.240956 0
M  V30 9092 C 853.303 1.37033 0.938681 0
M  V30 9093 O 854.488 1.65996 0.940737 0
M  V30 9094 C 851.628 3.20278 1.28514 0
M  V30 9095 C 850.741 4.27858 0.596798 0
M  V30 9096 C 849.876 5.05784 1.62346 0
M  V30 9097 C 848.915 6.05173 0.918287 0
M  V30 9098 N 848.052 6.76176 1.89025 0
M  V30 9099 H 852.892 2.945 -0.455368 0
M  V30 9100 H 850.429 1.45188 -0.236403 0
M  V30 9101 H 852.387 3.71281 1.90279 0
M  V30 9102 H 851.017 2.57251 1.94992 0
M  V30 9103 H 850.069 3.80162 -0.134668 0
M  V30 9104 H 851.381 4.98782 0.0428506 0
M  V30 9105 H 850.535 5.60775 2.31553 0
M  V30 9106 H 849.274 4.34687 2.2113 0
M  V30 9107 H 848.279 5.49391 0.21212 0
M  V30 9108 H 849.504 6.78265 0.336633 0
M  V30 9109 H 847.45 6.07834 2.46726 0
M  V30 9110 H 847.367 7.43157 1.3876 0
M  V30 9111 H 848.635 7.35759 2.57446 0
M  V30 9112 N 852.864 0.259585 1.55447 0
M  V30 9113 C 854.089 -0.368317 2.04103 0
M  V30 9114 C 854.514 -1.49827 1.13725 0
M  V30 9115 O 853.872 -1.80814 0.132705 0
M  V30 9116 C 853.92 -0.841506 3.50644 0
M  V30 9117 O 853.024 -1.95008 3.63381 0
M  V30 9118 H 852.365 -0.0785227 0.659341 0
M  V30 9119 H 854.895 0.389349 2.00861 0
M  V30 9120 H 854.905 -1.14138 3.9171 0
M  V30 9121 H 853.58 -0.0147001 4.15897 0
M  V30 9122 H 852.157 -1.65393 3.34215 0
M  V30 9123 N 854.342 -1.57594 -0.0133615 0
M  V30 9124 C 855.272 -2.10611 -1.00823 0
M  V30 9125 C 856.253 -1.01217 -1.36708 0
M  V30 9126 O 857.438 -1.28827 -1.45318 0
M  V30 9127 C 854.568 -2.59844 -2.30431 0
M  V30 9128 C 853.522 -3.73644 -2.08745 0
M  V30 9129 C 852.848 -4.09141 -3.4425 0
M  V30 9130 C 854.148 -5.01454 -1.46086 0
M  V30 9131 H 855.842 -2.93985 -0.566849 0
M  V30 9132 H 853.388 -1.41423 -0.271219 0
M  V30 9133 H 855.341 -2.95557 -3.00373 0
M  V30 9134 H 854.065 -1.73573 -2.76658 0
M  V30 9135 H 852.724 -3.38303 -1.41232 0
M  V30 9136 H 852.372 -3.19914 -3.88155 0
M  V30 9137 H 852.072 -4.85802 -3.3056 0
M  V30 9138 H 853.596 -4.47402 -4.15528 0
M  V30 9139 H 855.01 -5.35024 -2.05966 0
M  V30 9140 H 853.407 -5.82832 -1.42924 0
M  V30 9141 H 854.477 -4.83003 -0.428471 0
M  V30 9142 N 855.82 0.285905 -1.54985 0
M  V30 9143 C 856.752 1.37505 -1.83371 0
M  V30 9144 C 857.765 1.46138 -0.717454 0
M  V30 9145 O 858.954 1.48186 -0.995142 0
M  V30 9146 C 856.054 2.7575 -1.97016 0
M  V30 9147 C 855.227 2.89866 -3.27561 0
M  V30 9148 C 854.286 4.08704 -3.31433 0
M  V30 9149 O 853.312 4.00073 -4.04883 0
M  V30 9150 N 854.514 5.20062 -2.57907 0
M  V30 9151 H 857.279 1.13505 -2.77375 0
M  V30 9152 H 854.84 0.476006 -1.54744 0
M  V30 9153 H 856.832 3.5352 -1.96991 0
M  V30 9154 H 855.402 2.9263 -1.09938 0
M  V30 9155 H 854.622 1.99085 -3.40234 0
M  V30 9156 H 855.91 2.96219 -4.13681 0
M  V30 9157 H 855.308 5.29958 -1.97891 0
M  V30 9158 H 853.865 5.96111 -2.63619 0
M  V30 9159 N 857.298 1.47698 0.54982 0
M  V30 9160 C 858.526 1.5833 1.33188 0
M  V30 9161 C 858.941 0.236193 1.87317 0
M  V30 9162 O 858.298 -0.77167 1.65383 0
M  V30 9163 C 858.349 2.61438 2.49664 0
M  V30 9164 O 858.07 3.9092 1.97771 0
M  V30 9165 C 859.571 2.82324 3.41772 0
M  V30 9166 H 856.791 0.53443 0.405741 0
M  V30 9167 H 859.335 1.93375 0.665309 0
M  V30 9168 H 857.49 2.29307 3.12245 0
M  V30 9169 H 857.904 4.47323 2.73866 0
M  V30 9170 H 859.378 3.58316 4.19897 0
M  V30 9171 H 859.855 1.90416 3.95776 0
M  V30 9172 H 860.461 3.15682 2.85 0
M  V30 9173 N 858.776 -0.797141 1.35954 0
M  V30 9174 C 860.192 -1.09408 1.16198 0
M  V30 9175 C 860.392 -2.01491 -0.0191682 0
M  V30 9176 O 859.448 -2.42977 -0.686902 0
M  V30 9177 C 860.761 -1.71597 2.46931 0
M  V30 9178 C 862.309 -1.83974 2.53224 0
M  V30 9179 C 862.784 -2.49579 3.84024 0
M  V30 9180 N 864.275 -2.57055 3.85327 0
M  V30 9181 C 865.01 -3.08608 4.83268 0
M  V30 9182 N 864.506 -3.60527 5.91601 0
M  V30 9183 N 866.299 -3.07249 4.70696 0
M  V30 9184 H 858.45 -0.185209 2.11591 0
M  V30 9185 H 860.713 -0.144768 0.936881 0
M  V30 9186 H 860.419 -1.11404 3.3359 0
M  V30 9187 H 860.293 -2.71193 2.62172 0
M  V30 9188 H 862.68 -2.43308 1.66988 0
M  V30 9189 H 862.761 -0.83207 2.41889 0
M  V30 9190 H 862.405 -1.90892 4.70662 0
M  V30 9191 H 862.335 -3.50902 3.92651 0
M  V30 9192 H 864.826 -2.20283 3.07057 0
M  V30 9193 H 865.139 -3.98192 6.62317 0
M  V30 9194 H 863.484 -3.587 5.95281 0
M  V30 9195 H 866.675 -2.65972 3.85197 0
M  V30 9196 H 866.848 -3.47119 5.47186 0
M  V30 9197 N 860.254 -1.20106 -1.0204 0
M  V30 9198 C 861.5 -1.01039 -1.75838 0
M  V30 9199 C 861.833 0.456819 -1.88751 0
M  V30 9200 O 861.108 1.33919 -1.41053 0
M  V30 9201 C 861.391 -1.69009 -3.17975 0
M  V30 9202 C 861.244 -3.2315 -3.1288 0
M  V30 9203 C 862.563 -1.42005 -4.16561 0
M  V30 9204 H 859.682 -0.368465 -0.638281 0
M  V30 9205 H 862.324 -1.48066 -1.19064 0
M  V30 9206 H 860.474 -1.29026 -3.66449 0
M  V30 9207 H 862.146 -3.72402 -2.72239 0
M  V30 9208 H 860.389 -3.54253 -2.50374 0
M  V30 9209 H 861.06 -3.65862 -4.13339 0
M  V30 9210 H 863.536 -1.76685 -3.76725 0
M  V30 9211 H 862.412 -1.92101 -5.14187 0
M  V30 9212 H 862.673 -0.346884 -4.40737 0
M  V30 9213 N 861.732 1.21287 -1.00634 0
M  V30 9214 C 863.009 1.86 -0.605257 0
M  V30 9215 C 863.389 1.90139 0.917072 0
M  V30 9216 O 862.737 1.40169 1.80458 0
M  V30 9217 C 862.947 3.26183 -1.24119 0
M  V30 9218 C 864.295 4.02562 -1.35015 0
M  V30 9219 O 865.319 3.35499 -1.19661 0
M  V30 9220 O 864.178 5.22638 -1.59726 0
M  V30 9221 H 861.272 0.800549 -0.207486 0
M  V30 9222 H 863.818 1.28959 -1.10307 0
M  V30 9223 H 862.59 3.17878 -2.28186 0
M  V30 9224 H 862.213 3.90845 -0.729807 0
M  V30 9225 N 863.21 0.781244 1.36873 0
M  V30 9226 C 864.142 0.132075 2.28819 0
M  V30 9227 C 865.155 -0.653925 1.49089 0
M  V30 9228 O 866.344 -0.490453 1.7163 0
M  V30 9229 C 863.444 -0.836297 3.28419 0
M  V30 9230 C 862.617 -0.102097 4.37281 0
M  V30 9231 C 861.676 -0.985217 5.16894 0
M  V30 9232 O 860.702 -0.445478 5.67454 0
M  V30 9233 N 861.904 -2.31043 5.3254 0
M  V30 9234 H 864.669 0.921838 2.85171 0
M  V30 9235 H 862.23 0.634427 1.48952 0
M  V30 9236 H 864.222 -1.43074 3.78566 0
M  V30 9237 H 862.792 -1.52698 2.72767 0
M  V30 9238 H 862.012 0.67335 3.88407 0
M  V30 9239 H 863.3 0.404862 5.07187 0
M  V30 9240 H 862.698 -2.77318 4.93063 0
M  V30 9241 H 861.255 -2.85472 5.8596 0
M  V30 9242 N 864.689 -1.48329 0.532571 0
M  V30 9243 C 865.938 -2.017 -0.00259705 0
M  V30 9244 C 866.251 -1.41469 -1.35077 0
M  V30 9245 O 867.457 -1.86354 -1.97445 0
M  V30 9246 C 865.913 -3.59858 -0.0550179 0
M  V30 9247 C 865.521 -4.29073 1.28842 0
M  V30 9248 C 867.265 -4.21066 -0.538878 0
M  V30 9249 C 865.172 -5.79171 1.19644 0
M  V30 9250 H 864.102 -0.753985 -0.00474081 0
M  V30 9251 H 866.753 -1.70565 0.676739 0
M  V30 9252 H 865.135 -3.87846 -0.799486 0
M  V30 9253 H 866.309 -4.12755 2.04865 0
M  V30 9254 H 864.624 -3.79748 1.70822 0
M  V30 9255 H 867.221 -5.31026 -0.6257 0
M  V30 9256 H 867.564 -3.86559 -1.54525 0
M  V30 9257 H 868.097 -3.97517 0.149984 0
M  V30 9258 H 864.836 -6.18257 2.17805 0
M  V30 9259 H 864.356 -5.97895 0.477609 0
M  V30 9260 H 866.035 -6.40875 0.888186 0
M  V30 9261 N 866.167 -0.267825 -1.55308 0
M  V30 9262 C 867.413 0.351556 -1.9973 0
M  V30 9263 C 867.746 1.56049 -1.15596 0
M  V30 9264 O 867.021 1.93203 -0.224274 0
M  V30 9265 C 867.304 0.74091 -3.52395 0
M  V30 9266 C 867.157 -0.474861 -4.47286 0
M  V30 9267 C 868.476 1.5801 -4.10756 0
M  V30 9268 H 865.595 0.126308 -0.726096 0
M  V30 9269 H 868.237 -0.373316 -1.86296 0
M  V30 9270 H 866.387 1.35851 -3.63973 0
M  V30 9271 H 868.059 -1.1134 -4.47662 0
M  V30 9272 H 866.302 -1.11425 -4.19246 0
M  V30 9273 H 866.973 -0.158782 -5.51772 0
M  V30 9274 H 869.449 1.05857 -4.0241 0
M  V30 9275 H 868.325 1.82135 -5.17801 0
M  V30 9276 H 868.586 2.55878 -3.60526 0
M  V30 9277 N 867.645 1.57599 0.00500368 0
M  V30 9278 C 868.893 1.89973 0.68953 0
M  V30 9279 C 869.214 0.868531 1.7459 0
M  V30 9280 O 868.484 -0.0947367 1.95671 0
M  V30 9281 H 867.064 0.701153 0.25767 0
M  V30 9282 H 869.726 1.94869 -0.0347392 0
M  V30 9283 H 868.822 2.89584 1.16394 0
M  V30 9284 N 869.123 -0.277682 1.55134 0
M  V30 9285 C 870.539 -0.624625 1.46869 0
M  V30 9286 C 870.739 -1.89717 0.678958 0
M  V30 9287 O 869.795 -2.51739 0.195939 0
M  V30 9288 C 871.108 -0.755937 2.91043 0
M  V30 9289 C 872.656 -0.850299 3.01229 0
M  V30 9290 C 873.131 -1.01343 4.46647 0
M  V30 9291 N 874.622 -1.07906 4.50456 0
M  V30 9292 C 875.357 -1.224 5.60184 0
M  V30 9293 N 874.853 -1.33642 6.79788 0
M  V30 9294 N 876.646 -1.25473 5.47917 0
M  V30 9295 H 868.797 0.558102 2.04937 0
M  V30 9296 H 871.06 0.188228 0.929125 0
M  V30 9297 H 870.766 0.108593 3.51532 0
M  V30 9298 H 870.64 -1.6377 3.39793 0
M  V30 9299 H 873.027 -1.7053 2.40839 0
M  V30 9300 H 873.108 0.0559681 2.55739 0
M  V30 9301 H 872.752 -0.163102 5.07638 0
M  V30 9302 H 872.682 -1.93427 4.89789 0
M  V30 9303 H 875.173 -1.00477 3.64298 0
M  V30 9304 H 875.486 -1.44522 7.59166 0
M  V30 9305 H 873.831 -1.30655 6.82608 0
M  V30 9306 H 877.022 -1.16317 4.53418 0
M  V30 9307 H 877.195 -1.36424 6.33476 0
M  V30 9308 N 870.601 -1.47988 -0.541979 0
M  V30 9309 C 871.849 -1.55086 -1.29587 0
M  V30 9310 C 872.17 -0.221304 -1.9374 0
M  V30 9311 O 871.44 0.756128 -1.80719 0
M  V30 9312 H 870.02 -0.571307 -0.481266 0
M  V30 9313 H 872.682 -1.8438 -0.631675 0
M  V30 9314 H 871.778 -2.32556 -2.08144 0
M  V30 9315 N 872.079 0.78992 -1.36375 0
M  V30 9316 C 873.49 1.36506 -1.2737 0
M  V30 9317 C 873.841 1.96008 0.086711 0
M  V30 9318 O 872.966 1.92521 0.988159 0
M  V30 9319 C 873.561 2.48175 -2.30639 0
M  V30 9320 C 872.12 3.01506 -2.25325 0
M  V30 9321 C 871.267 1.74581 -2.15445 0
M  V30 9322 H 874.218 0.591606 -1.47261 0
M  V30 9323 H 874.239 3.27179 -1.94253 0
M  V30 9324 H 873.751 2.04838 -3.2964 0
M  V30 9325 H 871.852 3.49265 -1.29788 0
M  V30 9326 H 871.965 3.58355 -3.17992 0
M  V30 9327 H 870.329 1.96794 -1.61692 0
M  V30 9328 H 871.112 1.33373 -3.16333 0
M  V30 9329 N 873.557 1.20646 1.01402 0
M  V30 9330 C 874.805 1.01618 1.74695 0
M  V30 9331 C 875.126 -0.452438 1.89679 0
M  V30 9332 O 874.396 -1.32693 1.44116 0
M  V30 9333 H 872.976 0.373013 0.647202 0
M  V30 9334 H 875.638 1.518 1.22241 0
M  V30 9335 H 874.734 1.47666 2.74957 0
M  V30 9336 N 875.035 -1.20752 1.01276 0
M  V30 9337 C 876.312 -1.85676 0.615112 0
M  V30 9338 C 876.692 -1.90623 -0.906976 0
M  V30 9339 O 876.04 -1.41124 -1.79712 0
M  V30 9340 C 876.25 -3.2552 1.25847 0
M  V30 9341 C 877.598 -4.0184 1.37148 0
M  V30 9342 O 878.622 -3.3486 1.21438 0
M  V30 9343 O 877.481 -5.21783 1.62495 0
M  V30 9344 H 874.575 -0.799437 0.211729 0
M  V30 9345 H 877.121 -1.28372 1.10989 0
M  V30 9346 H 875.893 -3.16664 2.29869 0
M  V30 9347 H 875.516 -3.90452 0.750524 0
M  V30 9348 N 876.513 -0.788492 -1.36457 0
M  V30 9349 C 877.929 -0.470063 -1.52521 0
M  V30 9350 C 878.129 1.01176 -1.74258 0
M  V30 9351 O 877.185 1.79726 -1.77355 0
M  V30 9352 C 878.498 -1.2997 -2.71161 0
M  V30 9353 C 880.046 -1.2933 -2.85031 0
M  V30 9354 C 880.521 -2.10665 -4.06674 0
M  V30 9355 N 882.012 -2.08107 -4.13819 0
M  V30 9356 C 882.747 -2.6781 -5.07016 0
M  V30 9357 N 882.243 -3.36369 -6.05663 0
M  V30 9358 N 884.036 -2.57549 -4.99625 0
M  V30 9359 H 876.187 -1.7484 -1.20602 0
M  V30 9360 H 878.45 -0.743159 -0.588574 0
M  V30 9361 H 878.156 -2.35051 -2.61618 0
M  V30 9362 H 878.03 -0.940367 -3.6529 0
M  V30 9363 H 880.417 -0.250414 -2.94036 0
M  V30 9364 H 880.498 -1.69239 -1.91812 0
M  V30 9365 H 880.142 -3.14984 -3.98431 0
M  V30 9366 H 880.072 -1.68128 -4.9904 0
M  V30 9367 H 882.563 -1.58208 -3.43189 0
M  V30 9368 H 882.876 -3.79258 -6.73338 0
M  V30 9369 H 881.221 -3.40471 -6.05891 0
M  V30 9370 H 884.412 -2.0359 -4.21508 0
M  V30 9371 H 884.585 -3.0437 -5.72069 0
M  V30 9372 N 877.991 1.48044 -0.54043 0
M  V30 9373 C 878.938 2.29781 0.216597 0
M  V30 9374 C 879.908 1.38021 0.924094 0
M  V30 9375 O 881.093 1.66985 0.923078 0
M  V30 9376 C 878.233 3.21623 1.2511 0
M  V30 9377 C 877.346 4.28467 0.551384 0
M  V30 9378 C 876.481 5.07477 1.56972 0
M  V30 9379 C 875.52 6.06113 0.854048 0
M  V30 9380 N 874.657 6.78143 1.81842 0
M  V30 9381 H 879.497 2.94001 -0.486578 0
M  V30 9382 H 877.034 1.44929 -0.251789 0
M  V30 9383 H 878.992 3.73279 1.8633 0
M  V30 9384 H 877.622 2.59305 1.92252 0
M  V30 9385 H 876.674 3.79997 -0.174982 0
M  V30 9386 H 877.986 4.98799 -0.0100542 0
M  V30 9387 H 877.14 5.63199 2.25592 0
M  V30 9388 H 875.879 4.37008 2.16507 0
M  V30 9389 H 874.884 5.49585 0.153838 0
M  V30 9390 H 876.109 6.78584 0.264675 0
M  V30 9391 H 874.055 6.10417 2.40265 0
M  V30 9392 H 873.972 7.44587 1.3087 0
M  V30 9393 H 875.24 7.38448 2.49628 0
M  V30 9394 N 879.47 0.276058 1.55163 0
M  V30 9395 C 880.433 -0.597924 2.21263 0
M  V30 9396 C 881.433 -1.0806 1.19078 0
M  V30 9397 O 882.623 -0.980626 1.43977 0
M  V30 9398 C 879.755 -1.82503 2.87933 0
M  V30 9399 H 880.948 -0.0207769 2.99893 0
M  V30 9400 H 878.501 0.0266823 1.56277 0
M  V30 9401 H 879.236 -2.44266 2.13318 0
M  V30 9402 H 879.021 -1.48683 3.62816 0
M  V30 9403 H 880.511 -2.44651 3.38431 0
M  V30 9404 N 880.948 -1.576 0.00335426 0
M  V30 9405 C 882.364 -1.55653 -0.352766 0
M  V30 9406 C 882.564 -1.00632 -1.74572 0
M  V30 9407 O 881.62 -0.641621 -2.44212 0
M  V30 9408 C 882.933 -2.99858 -0.224929 0
M  V30 9409 C 884.481 -3.11563 -0.299619 0
M  V30 9410 C 884.956 -4.57559 -0.200868 0
M  V30 9411 N 886.447 -4.62477 -0.258663 0
M  V30 9412 C 887.182 -5.73031 -0.205644 0
M  V30 9413 N 886.678 -6.92723 -0.103027 0
M  V30 9414 N 888.471 -5.61509 -0.257754 0
M  V30 9415 H 880.622 -1.91703 0.914539 0
M  V30 9416 H 882.885 -0.88068 0.350865 0
M  V30 9417 H 882.591 -3.43964 0.733595 0
M  V30 9418 H 882.465 -3.63547 -1.00564 0
M  V30 9419 H 884.852 -2.67384 -1.24859 0
M  V30 9420 H 884.933 -2.50644 0.511025 0
M  V30 9421 H 884.577 -5.02413 0.744572 0
M  V30 9422 H 884.507 -5.16428 -1.03004 0
M  V30 9423 H 886.998 -3.76375 -0.339168 0
M  V30 9424 H 887.311 -7.7277 -0.0685593 0
M  V30 9425 H 885.656 -6.94966 -0.0686069 0
M  V30 9426 H 888.847 -4.66892 -0.336142 0
M  V30 9427 H 889.02 -6.4765 -0.21297 0
M  V30 9428 N 882.426 0.269451 -1.5528 0
M  V30 9429 C 883.336 1.35511 -1.91505 0
M  V30 9430 C 884.352 1.53854 -0.812712 0
M  V30 9431 O 885.528 1.67912 -1.1121 0
M  V30 9432 C 882.593 2.6937 -2.18267 0
M  V30 9433 C 881.654 2.59743 -3.41807 0
M  V30 9434 C 880.887 3.87219 -3.67283 0
M  V30 9435 O 881.11 4.88066 -2.95208 0
M  V30 9436 O 880.044 3.87209 -4.60818 0
M  V30 9437 H 883.87 1.07785 -2.8393 0
M  V30 9438 H 881.455 0.468282 -1.41871 0
M  V30 9439 H 883.337 3.48513 -2.36889 0
M  V30 9440 H 882.012 2.96874 -1.29024 0
M  V30 9441 H 880.919 1.78964 -3.28516 0
M  V30 9442 H 882.252 2.37188 -4.3128 0
M  V30 9443 N 883.904 1.48273 0.534124 0
M  V30 9444 C 884.851 1.62487 1.6391 0
M  V30 9445 C 885.821 0.467062 1.59398 0
M  V30 9446 O 887.006 0.690029 1.77885 0
M  V30 9447 C 884.146 1.66671 3.02183 0
M  V30 9448 C 883.259 2.9353 3.16961 0
M  V30 9449 C 882.394 2.88902 4.45768 0
M  V30 9450 C 881.433 4.10483 4.54059 0
M  V30 9451 N 880.57 4.03956 5.74251 0
M  V30 9452 H 885.41 2.56851 1.51101 0
M  V30 9453 H 882.947 1.27381 0.735704 0
M  V30 9454 H 884.905 1.67079 3.82283 0
M  V30 9455 H 883.535 0.758011 3.13774 0
M  V30 9456 H 882.587 3.02886 2.3014 0
M  V30 9457 H 883.899 3.83501 3.18949 0
M  V30 9458 H 883.053 2.87688 5.34154 0
M  V30 9459 H 881.792 1.96652 4.46295 0
M  V30 9460 H 880.797 4.11977 3.64081 0
M  V30 9461 H 882.022 5.03887 4.55274 0
M  V30 9462 H 879.968 3.14525 5.75682 0
M  V30 9463 H 879.885 4.87628 5.77715 0
M  V30 9464 H 881.153 4.06795 6.64935 0
M  V30 9465 N 885.382 -0.782676 1.36792 0
M  V30 9466 C 886.63 -1.53778 1.31136 0
M  V30 9467 C 886.951 -1.94706 -0.107014 0
M  V30 9468 O 886.221 -1.65465 -1.04872 0
M  V30 9469 H 884.801 -0.570328 0.482426 0
M  V30 9470 H 887.463 -0.932181 1.71162 0
M  V30 9471 H 886.559 -2.44224 1.94321 0
M  V30 9472 N 886.86 -1.21182 -1.00761 0
M  V30 9473 C 888.137 -0.936297 -1.71735 0
M  V30 9474 C 888.517 0.552585 -2.03739 0
M  V30 9475 O 887.865 1.51672 -1.70903 0
M  V30 9476 C 888.075 -1.81867 -2.97868 0
M  V30 9477 C 889.423 -2.06594 -3.7095 0
M  V30 9478 O 890.447 -1.79194 -3.07844 0
M  V30 9479 O 889.306 -2.5292 -4.84452 0
M  V30 9480 H 886.4 -0.350867 -0.74888 0
M  V30 9481 H 888.946 -1.32098 -1.06527 0
M  V30 9482 H 887.718 -2.82643 -2.70607 0
M  V30 9483 H 887.341 -1.43463 -3.70815 0
M  V30 9484 N 888.338 1.20213 -1.01915 0
M  V30 9485 C 889.285 2.2309 -0.591571 0
M  V30 9486 C 890.255 1.61465 0.389649 0
M  V30 9487 O 891.44 1.88606 0.288511 0
M  V30 9488 C 888.58 3.45045 0.0614028 0
M  V30 9489 C 887.693 4.21091 -0.964688 0
M  V30 9490 C 886.828 5.30448 -0.282499 0
M  V30 9491 C 885.867 5.98241 -1.29517 0
M  V30 9492 N 885.004 6.99182 -0.639472 0
M  V30 9493 H 889.844 2.59023 -1.47347 0
M  V30 9494 H 887.381 1.27274 -0.737547 0
M  V30 9495 H 889.339 4.14688 0.45714 0
M  V30 9496 H 887.969 3.09797 0.906937 0
M  V30 9497 H 887.021 3.50489 -1.47857 0
M  V30 9498 H 888.333 4.67662 -1.73475 0
M  V30 9499 H 887.487 6.06466 0.168603 0
M  V30 9500 H 886.226 4.84922 0.519843 0
M  V30 9501 H 885.231 5.20982 -1.75663 0
M  V30 9502 H 886.456 6.45853 -2.09884 0
M  V30 9503 H 884.402 6.55844 0.142955 0
M  V30 9504 H 884.319 7.43893 -1.34756 0
M  V30 9505 H 885.587 7.79212 -0.212047 0
M  V30 9506 N 889.816 0.795718 1.36037 0
M  V30 9507 C 891.064 0.370291 1.98679 0
M  V30 9508 C 891.385 -1.06332 1.63458 0
M  V30 9509 O 890.655 -1.73394 0.911671 0
M  V30 9510 H 889.235 0.133928 0.734896 0
M  V30 9511 H 891.897 1.01915 1.6613 0
M  V30 9512 H 890.993 0.467207 3.08583 0
M  V30 9513 N 891.294 -1.47756 0.548274 0
M  V30 9514 C 892.705 -1.8636 0.112547 0
M  V30 9515 C 893.056 -1.45589 -1.31523 0
M  V30 9516 O 892.181 -0.854874 -1.98799 0
M  V30 9517 C 892.776 -3.38224 0.197473 0
M  V30 9518 C 891.335 -3.75954 -0.183163 0
M  V30 9519 C 890.482 -2.7181 0.549059 0
M  V30 9520 H 893.433 -1.394 0.758506 0
M  V30 9521 H 893.454 -3.75957 -0.586217 0
M  V30 9522 H 892.966 -3.67868 1.23673 0
M  V30 9523 H 891.067 -3.51926 -1.22387 0
M  V30 9524 H 891.18 -4.78801 0.169178 0
M  V30 9525 H 889.544 -2.54699 -0.00682862 0
M  V30 9526 H 890.327 -3.04296 1.5893 0
M  V30 9527 N 892.772 -0.284283 -1.55015 0
M  V30 9528 C 893.997 0.335799 -2.04664 0
M  V30 9529 C 894.422 1.47999 -1.16094 0
M  V30 9530 O 893.78 1.8058 -0.161454 0
M  V30 9531 C 893.828 0.785615 -3.51938 0
M  V30 9532 O 892.932 1.89202 -3.66437 0
M  V30 9533 H 892.273 0.0680233 -0.660506 0
M  V30 9534 H 894.803 -0.421255 -2.00216 0
M  V30 9535 H 894.813 1.07892 -3.93476 0
M  V30 9536 H 893.488 -0.0514675 -4.15868 0
M  V30 9537 H 892.065 1.60055 -3.36804 0
M  V30 9538 N 894.251 1.57596 -0.0117121 0
M  V30 9539 C 895.528 1.82323 0.708356 0
M  V30 9540 C 895.908 0.891947 1.91331 0
M  V30 9541 O 895.256 -0.0565984 2.2843 0
M  V30 9542 C 895.466 3.31111 1.10303 0
M  V30 9543 C 896.814 3.97147 1.50199 0
M  V30 9544 O 897.838 3.35503 1.1965 0
M  V30 9545 O 896.697 5.0576 2.07049 0
M  V30 9546 H 893.791 0.751173 0.345931 0
M  V30 9547 H 896.337 1.69657 -0.0380632 0
M  V30 9548 H 895.109 3.90534 0.24467 0
M  V30 9549 H 894.732 3.48818 1.90818 0
M  V30 9550 N 895.729 -0.261212 1.5542 0
M  V30 9551 C 896.692 -1.30645 1.8832 0
M  V30 9552 C 897.692 -1.41782 0.758588 0
M  V30 9553 O 898.882 -1.40729 1.02669 0
M  V30 9554 C 896.014 -2.6862 2.09895 0
M  V30 9555 H 897.207 -1.02698 2.81768 0
M  V30 9556 H 894.76 -0.499838 1.48092 0
M  V30 9557 H 895.495 -3.0173 1.18868 0
M  V30 9558 H 895.28 -2.61921 2.91787 0
M  V30 9559 H 896.77 -3.44121 2.36581 0
M  V30 9560 N 897.207 -1.48554 -0.526253 0
M  V30 9561 C 898.117 -1.66044 -1.65731 0
M  V30 9562 C 899.133 -0.542951 -1.65312 0
M  V30 9563 O 900.309 -0.814495 -1.84195 0
M  V30 9564 C 897.374 -1.69959 -3.02184 0
M  V30 9565 C 896.435 -2.93362 -3.13428 0
M  V30 9566 C 895.668 -2.97081 -4.43372 0
M  V30 9567 O 895.891 -2.09103 -5.3069 0
M  V30 9568 O 894.825 -3.8929 -4.59061 0
M  V30 9569 H 898.651 -2.61811 -1.53912 0
M  V30 9570 H 896.236 -1.31999 -0.699759 0
M  V30 9571 H 898.118 -1.75033 -3.83329 0
M  V30 9572 H 896.793 -0.773658 -3.14319 0
M  V30 9573 H 895.7 -2.93818 -2.31564 0
M  V30 9574 H 897.033 -3.85352 -3.06211 0
M  V30 9575 N 898.685 0.775411 -1.37205 0
M  V30 9576 C 899.931 1.53611 -1.32407 0
M  V30 9577 C 900.264 1.9398 0.0924103 0
M  V30 9578 O 899.539 1.63791 1.04893 0
M  V30 9579 C 899.822 2.80367 -2.25979 0
M  V30 9580 C 899.675 2.46275 -3.76389 0
M  V30 9581 C 900.994 3.82277 -2.18064 0
M  V30 9582 H 898.113 0.557278 -0.482297 0
M  V30 9583 H 900.755 0.889826 -1.67875 0
M  V30 9584 H 898.905 3.35515 -1.95862 0
M  V30 9585 H 900.577 1.9707 -4.17087 0
M  V30 9586 H 898.82 1.79023 -3.95137 0
M  V30 9587 H 899.491 3.36868 -4.37291 0
M  V30 9588 H 901.967 3.36613 -2.44604 0
M  V30 9589 H 900.843 4.68696 -2.85684 0
M  V30 9590 H 901.104 4.26272 -1.17239 0
M  V30 9591 N 900.163 1.21714 1.00117 0
M  V30 9592 C 901.409 1.03823 1.74208 0
M  V30 9593 C 901.742 -0.426733 1.89454 0
M  V30 9594 O 901.017 -1.31658 1.43166 0
M  V30 9595 C 901.3 1.74047 3.15246 0
M  V30 9596 C 901.153 3.28087 3.077 0
M  V30 9597 C 902.472 1.48614 4.14249 0
M  V30 9598 H 899.591 0.378573 0.632338 0
M  V30 9599 H 902.233 1.49942 1.16694 0
M  V30 9600 H 900.383 1.3484 3.64349 0
M  V30 9601 H 902.055 3.76686 2.6628 0
M  V30 9602 H 900.298 3.58191 2.44707 0
M  V30 9603 H 900.969 3.72392 4.07466 0
M  V30 9604 H 903.445 1.82656 3.73866 0
M  V30 9605 H 902.321 2.00257 5.11066 0
M  V30 9606 H 902.582 0.416957 4.40129 0
M  V30 9607 N 901.641 -1.19671 1.02551 0
M  V30 9608 C 902.918 -1.85014 0.634771 0
M  V30 9609 C 903.298 -1.91574 -0.886706 0
M  V30 9610 O 902.646 -1.43022 -1.78205 0
M  V30 9611 C 902.856 -3.24167 1.29292 0
M  V30 9612 C 904.204 -4.00363 1.41402 0
M  V30 9613 O 905.228 -3.33553 1.24983 0
M  V30 9614 O 904.087 -5.2003 1.6802 0
M  V30 9615 H 901.181 -0.797147 0.220196 0
M  V30 9616 H 903.727 -1.27188 1.12345 0
M  V30 9617 H 902.499 -3.14208 2.33215 0
M  V30 9618 H 902.122 -3.89634 0.791895 0
M  V30 9619 N 903.119 -0.802921 -1.35613 0
M  V30 9620 C 904.029 -0.212177 -2.33639 0
M  V30 9621 C 905.045 0.642871 -1.61689 0
M  V30 9622 O 906.221 0.555485 -1.93588 0
M  V30 9623 C 903.286 0.632406 -3.40883 0
M  V30 9624 C 902.347 -0.242708 -4.28613 0
M  V30 9625 C 901.58 0.56166 -5.30736 0
M  V30 9626 O 901.803 1.79664 -5.41366 0
M  V30 9627 O 900.737 -0.0455387 -6.01883 0
M  V30 9628 H 904.563 -1.023 -2.85952 0
M  V30 9629 H 902.148 -0.564636 -1.38319 0
M  V30 9630 H 904.03 1.11358 -4.0642 0
M  V30 9631 H 902.705 1.42089 -2.90848 0
M  V30 9632 H 901.612 -0.77094 -3.6607 0
M  V30 9633 H 902.945 -0.995046 -4.82037 0
M  V30 9634 N 904.597 1.47463 -0.556102 0
M  V30 9635 C 905.846 2.01678 -0.029492 0
M  V30 9636 C 906.159 1.436 1.32809 0
M  V30 9637 O 907.365 1.89472 1.94455 0
M  V30 9638 C 905.821 3.599 -0.00223937 0
M  V30 9639 C 905.429 4.26969 -1.35651 0
M  V30 9640 C 907.173 4.2187 0.471822 0
M  V30 9641 C 905.08 5.77194 -1.28843 0
M  V30 9642 H 904.01 0.753965 -0.00725504 0
M  V30 9643 H 906.661 1.69467 -0.703789 0
M  V30 9644 H 905.043 3.89068 0.737682 0
M  V30 9645 H 906.217 4.09444 -2.11406 0
M  V30 9646 H 904.532 3.76983 -1.76842 0
M  V30 9647 H 907.129 5.31955 0.541139 0
M  V30 9648 H 907.472 3.88968 1.48356 0
M  V30 9649 H 908.005 3.97228 -0.213207 0
M  V30 9650 H 904.744 6.14713 -2.27613 0
M  V30 9651 H 904.264 5.9706 -0.572668 0
M  V30 9652 H 905.943 6.3938 -0.990031 0
M  V30 9653 N 906.075 0.2925 1.54862 0
M  V30 9654 C 907.3 -0.32494 2.04839 0
M  V30 9655 C 907.725 -1.47381 1.16877 0
M  V30 9656 O 907.083 -1.80492 0.171028 0
M  V30 9657 C 907.131 -0.76694 3.5235 0
M  V30 9658 O 906.235 -1.87256 3.67436 0
M  V30 9659 H 905.576 -0.0645195 0.660858 0
M  V30 9660 H 908.106 0.431867 1.9999 0
M  V30 9661 H 908.116 -1.05804 3.94043 0
M  V30 9662 H 906.791 0.0735212 4.15835 0
M  V30 9663 H 905.368 -1.58266 3.37648 0
M  V30 9664 N 907.553 -1.57587 0.0200696 0
M  V30 9665 C 908.486 -2.05157 -0.999295 0
M  V30 9666 C 909.464 -0.945466 -1.32286 0
M  V30 9667 O 910.648 -1.21512 -1.44108 0
M  V30 9668 C 907.775 -2.46604 -2.32173 0
M  V30 9669 C 906.821 -3.68146 -2.15339 0
M  V30 9670 S 907.654 -5.15194 -1.46065 0
M  V30 9671 C 908.81 -5.59929 -2.79697 0
M  V30 9672 H 909.043 -2.91299 -0.59433 0
M  V30 9673 H 906.576 -1.53209 -0.191372 0
M  V30 9674 H 908.534 -2.7115 -3.08201 0
M  V30 9675 H 907.195 -1.60825 -2.69804 0
M  V30 9676 H 906.388 -3.94963 -3.13082 0
M  V30 9677 H 905.99 -3.43705 -1.47454 0
M  V30 9678 H 908.282 -5.63615 -3.75957 0
M  V30 9679 H 909.225 -6.59599 -2.57555 0
M  V30 9680 H 909.633 -4.87549 -2.84528 0
M  V30 9681 N 909.032 0.252966 -1.55557 0
M  V30 9682 C 909.965 1.33928 -1.84766 0
M  V30 9683 C 910.943 1.46653 -0.702254 0
M  V30 9684 O 912.127 1.62963 -0.947375 0
M  V30 9685 C 909.254 2.71348 -2.02701 0
M  V30 9686 C 908.3 2.75804 -3.25322 0
M  V30 9687 S 909.133 2.33025 -4.82141 0
M  V30 9688 C 910.289 3.72382 -5.03073 0
M  V30 9689 H 910.522 1.08951 -2.76617 0
M  V30 9690 H 908.055 0.45364 -1.47585 0
M  V30 9691 H 910.013 3.50478 -2.13718 0
M  V30 9692 H 908.674 2.93566 -1.11703 0
M  V30 9693 H 907.867 3.76713 -3.34819 0
M  V30 9694 H 907.469 2.04713 -3.12999 0
M  V30 9695 H 909.761 4.67828 -4.90044 0
M  V30 9696 H 910.704 3.67824 -6.05071 0
M  V30 9697 H 911.112 3.64614 -4.30949 0
M  V30 9698 N 910.51 1.48831 0.518367 0
M  V30 9699 C 911.758 1.57128 1.27103 0
M  V30 9700 C 912.079 0.252098 1.93364 0
M  V30 9701 O 911.349 -0.727281 1.819 0
M  V30 9702 H 909.929 0.578891 0.472116 0
M  V30 9703 H 912.591 1.85361 0.602262 0
M  V30 9704 H 911.687 2.35838 2.04418 0
M  V30 9705 N 911.988 -0.768124 1.37614 0
M  V30 9706 C 913.404 -1.06919 1.18493 0
M  V30 9707 C 913.604 -2.01486 0.0235753 0
M  V30 9708 O 912.66 -2.4438 -0.635209 0
M  V30 9709 C 913.973 -1.66321 2.50515 0
M  V30 9710 C 915.521 -1.78562 2.57069 0
M  V30 9711 C 915.996 -2.41377 3.89231 0
M  V30 9712 N 917.487 -2.48824 3.90693 0
M  V30 9713 C 918.222 -2.98288 4.89706 0
M  V30 9714 N 917.718 -3.47897 5.99115 0
M  V30 9715 N 919.511 -2.97196 4.77107 0
M  V30 9716 H 911.662 -0.140286 2.11936 0
M  V30 9717 H 913.925 -0.124863 0.939741 0
M  V30 9718 H 913.631 -1.04303 3.35878 0
M  V30 9719 H 913.505 -2.65571 2.67866 0
M  V30 9720 H 915.892 -2.39712 1.72111 0
M  V30 9721 H 915.973 -0.780574 2.43599 0
M  V30 9722 H 915.617 -1.80866 4.74605 0
M  V30 9723 H 915.547 -3.42495 4.00006 0
M  V30 9724 H 918.038 -2.1372 3.1166 0
M  V30 9725 H 918.351 -3.84053 6.70614 0
M  V30 9726 H 916.696 -3.45993 6.02755 0
M  V30 9727 H 919.887 -2.57741 3.90752 0
M  V30 9728 H 920.06 -3.35434 5.54426 0
M  V30 9729 N 913.466 -1.22244 -0.994698 0
M  V30 9730 C 914.712 -1.04746 -1.73655 0
M  V30 9731 C 915.045 0.41668 -1.89677 0
M  V30 9732 O 914.32 1.30897 -1.43862 0
M  V30 9733 C 914.603 -1.75716 -3.14318 0
M  V30 9734 C 914.456 -3.29714 -3.05955 0
M  V30 9735 C 915.775 -1.50809 -4.13455 0
M  V30 9736 H 912.894 -0.381921 -0.630322 0
M  V30 9737 H 915.536 -1.50559 -1.15897 0
M  V30 9738 H 913.686 -1.3677 -3.63629 0
M  V30 9739 H 915.358 -3.78093 -2.64279 0
M  V30 9740 H 913.601 -3.59484 -2.42804 0
M  V30 9741 H 914.272 -3.74547 -4.05485 0
M  V30 9742 H 916.748 -1.84636 -3.72892 0
M  V30 9743 H 915.624 -2.02964 -5.09997 0
M  V30 9744 H 915.885 -0.440292 -4.39902 0
M  V30 9745 N 914.944 1.19125 -1.03184 0
M  V30 9746 C 916.19 1.89163 -0.731111 0
M  V30 9747 C 916.523 1.79604 0.738662 0
M  V30 9748 O 915.798 1.19037 1.53819 0
M  V30 9749 C 916.081 3.39986 -1.18666 0
M  V30 9750 C 915.934 3.58401 -2.71788 0
M  V30 9751 C 917.253 4.33316 -0.769772 0
M  V30 9752 H 914.372 0.686908 -0.267069 0
M  V30 9753 H 917.014 1.40205 -1.28229 0
M  V30 9754 H 915.164 3.81813 -0.717736 0
M  V30 9755 H 916.836 3.25727 -3.26649 0
M  V30 9756 H 915.079 3.01355 -3.12038 0
M  V30 9757 H 915.75 4.64189 -2.98719 0
M  V30 9758 H 918.226 3.9922 -1.17314 0
M  V30 9759 H 917.102 5.37427 -1.11637 0
M  V30 9760 H 917.363 4.40884 0.327681 0
M  V30 9761 N 916.422 0.810101 1.35185 0
M  V30 9762 C 917.369 0.220927 2.2974 0
M  V30 9763 C 918.339 -0.647024 1.5298 0
M  V30 9764 O 919.524 -0.591367 1.81404 0
M  V30 9765 C 916.664 -0.62167 3.39454 0
M  V30 9766 C 915.777 0.267104 4.31173 0
M  V30 9767 C 914.912 -0.583833 5.27982 0
M  V30 9768 C 913.951 0.305123 6.11339 0
M  V30 9769 N 913.088 -0.505992 7.00274 0
M  V30 9770 H 917.928 1.03266 2.79536 0
M  V30 9771 H 915.465 0.520768 1.37573 0
M  V30 9772 H 917.423 -1.12539 4.01735 0
M  V30 9773 H 916.053 -1.39863 2.90926 0
M  V30 9774 H 915.105 0.88895 3.69867 0
M  V30 9775 H 916.417 0.951182 4.89647 0
M  V30 9776 H 915.571 -1.15254 5.95652 0
M  V30 9777 H 914.31 -1.30146 4.70014 0
M  V30 9778 H 913.315 0.886075 5.42613 0
M  V30 9779 H 914.54 1.02067 6.71386 0
M  V30 9780 H 912.486 -1.20753 6.4479 0
M  V30 9781 H 912.403 0.119966 7.55905 0
M  V30 9782 H 913.671 -1.05787 7.72288 0
M  V30 9783 N 917.9 -1.47166 0.563914 0
M  V30 9784 C 919.146 -2.02756 0.0424338 0
M  V30 9785 C 919.479 -1.43662 -1.3067 0
M  V30 9786 O 918.754 -0.594676 -1.85186 0
M  V30 9787 C 919.037 -3.60074 -0.0434793 0
M  V30 9788 C 918.89 -4.29587 1.33323 0
M  V30 9789 C 920.209 -4.336 -0.753568 0
M  V30 9790 H 917.328 -0.736806 0.0168946 0
M  V30 9791 H 919.97 -1.75521 0.727496 0
M  V30 9792 H 918.12 -3.83409 -0.626906 0
M  V30 9793 H 919.792 -4.17573 1.96037 0
M  V30 9794 H 918.035 -3.8968 1.9061 0
M  V30 9795 H 918.706 -5.38218 1.22576 0
M  V30 9796 H 921.182 -4.15299 -0.258126 0
M  V30 9797 H 920.058 -5.43291 -0.782659 0
M  V30 9798 H 920.319 -4.03302 -1.81108 0
M  V30 9799 N 919.378 -0.300708 -1.54705 0
M  V30 9800 C 920.288 0.584996 -2.27189 0
M  V30 9801 C 921.304 1.14866 -1.30697 0
M  V30 9802 O 922.48 1.17351 -1.63679 0
M  V30 9803 C 919.545 1.74076 -2.99831 0
M  V30 9804 C 918.606 1.2112 -4.1186 0
M  V30 9805 C 917.839 2.31188 -4.81028 0
M  V30 9806 O 918.062 3.5108 -4.49554 0
M  V30 9807 O 916.996 1.97897 -5.68437 0
M  V30 9808 H 920.822 -0.00298177 -3.037 0
M  V30 9809 H 918.407 -0.0671802 -1.49249 0
M  V30 9810 H 920.289 2.41413 -3.45395 0
M  V30 9811 H 918.964 2.31535 -2.26215 0
M  V30 9812 H 917.871 0.50357 -3.70695 0
M  V30 9813 H 919.204 0.682046 -4.87452 0
M  V30 9814 N 920.856 1.57574 -0.0284266 0
M  V30 9815 C 921.803 2.10176 0.953658 0
M  V30 9816 C 922.773 1.00367 1.32347 0
M  V30 9817 O 923.958 1.27783 1.4169 0
M  V30 9818 C 921.098 2.63287 2.231 0
M  V30 9819 C 920.211 3.87102 1.91771 0
M  V30 9820 C 919.346 4.28609 3.13795 0
M  V30 9821 C 918.385 5.45184 2.78282 0
M  V30 9822 N 917.522 5.81851 3.92929 0
M  V30 9823 H 922.362 2.93806 0.498176 0
M  V30 9824 H 919.899 1.45222 0.234302 0
M  V30 9825 H 921.857 2.9217 2.97813 0
M  V30 9826 H 920.487 1.82489 2.66266 0
M  V30 9827 H 919.539 3.64952 1.07303 0
M  V30 9828 H 920.851 4.71892 1.61615 0
M  V30 9829 H 920.005 4.58925 3.96829 0
M  V30 9830 H 918.744 3.42585 3.47112 0
M  V30 9831 H 917.749 5.14563 1.93661 0
M  V30 9832 H 918.974 6.32907 2.46182 0
M  V30 9833 H 916.92 4.98782 4.2609 0
M  V30 9834 H 916.837 6.6128 3.66395 0
M  V30 9835 H 918.105 6.16772 4.76669 0
M  V30 9836 N 922.334 -0.244713 1.55689 0
M  V30 9837 C 923.266 -1.32595 1.86952 0
M  V30 9838 C 924.279 -1.44185 0.755948 0
M  V30 9839 O 925.468 -1.45496 1.03408 0
M  V30 9840 C 922.568 -2.70429 2.04258 0
M  V30 9841 C 921.741 -2.8108 3.35131 0
M  V30 9842 C 920.8 -3.99773 3.42152 0
M  V30 9843 O 919.826 -3.89197 4.15348 0
M  V30 9844 N 921.028 -5.13041 2.71604 0
M  V30 9845 H 923.793 -1.06111 2.80287 0
M  V30 9846 H 921.354 -0.434811 1.55952 0
M  V30 9847 H 923.346 -3.48173 2.06295 0
M  V30 9848 H 921.916 -2.89612 1.17658 0
M  V30 9849 H 921.136 -1.89994 3.45392 0
M  V30 9850 H 922.424 -2.85147 4.21389 0
M  V30 9851 H 921.822 -5.24525 2.11872 0
M  V30 9852 H 920.379 -5.88912 2.79331 0
M  V30 9853 N 923.813 -1.49104 -0.510467 0
M  V30 9854 C 925.059 -1.58346 -1.26705 0
M  V30 9855 C 925.392 -0.265121 -1.92382 0
M  V30 9856 O 924.667 0.730558 -1.80258 0
M  V30 9857 C 924.95 -2.7359 -2.34137 0
M  V30 9858 C 924.803 -4.1519 -1.73024 0
M  V30 9859 C 926.122 -2.84511 -3.3577 0
M  V30 9860 H 923.241 -0.57637 -0.459311 0
M  V30 9861 H 925.883 -1.81353 -0.566658 0
M  V30 9862 H 924.033 -2.54105 -2.93876 0
M  V30 9863 H 925.705 -4.46167 -1.17186 0
M  V30 9864 H 923.948 -4.21279 -1.03473 0
M  V30 9865 H 924.619 -4.91683 -2.50903 0
M  V30 9866 H 927.095 -3.0222 -2.86011 0
M  V30 9867 H 925.971 -3.6684 -4.08313 0
M  V30 9868 H 926.232 -1.93471 -3.97519 0
M  V30 9869 N 925.291 0.760815 -1.38019 0
M  V30 9870 C 926.223 1.88387 -1.30549 0
M  V30 9871 C 927.236 1.61319 -0.219119 0
M  V30 9872 O 928.425 1.72033 -0.476122 0
M  V30 9873 C 925.525 3.23863 -0.998291 0
M  V30 9874 C 924.698 3.78492 -2.19232 0
M  V30 9875 C 923.757 4.92468 -1.85368 0
M  V30 9876 O 922.783 5.0748 -2.57785 0
M  V30 9877 N 923.985 5.74901 -0.804319 0
M  V30 9878 H 926.75 1.95308 -2.27322 0
M  V30 9879 H 924.311 0.940423 -1.31786 0
M  V30 9880 H 926.303 3.97644 -0.7524 0
M  V30 9881 H 924.873 3.12374 -0.11877 0
M  V30 9882 H 924.093 2.96361 -2.5993 0
M  V30 9883 H 925.381 4.11722 -2.98935 0
M  V30 9884 H 924.779 5.65333 -0.203628 0
M  V30 9885 H 923.336 6.48861 -0.618301 0
M  V30 9886 N 926.769 1.22769 0.988202 0
M  V30 9887 C 927.994 1.08239 1.76915 0
M  V30 9888 C 928.419 -0.362519 1.84574 0
M  V30 9889 O 927.777 -1.26202 1.30165 0
M  V30 9890 C 927.825 1.70363 3.17819 0
M  V30 9891 O 926.929 0.960484 4.01059 0
M  V30 9892 H 926.27 0.379872 0.544604 0
M  V30 9893 H 928.8 1.62663 1.24104 0
M  V30 9894 H 928.81 1.7528 3.6843 0
M  V30 9895 H 927.485 2.75505 3.1156 0
M  V30 9896 H 926.062 0.987667 3.59582 0
M  V30 9897 N 928.247 -1.18576 1.03814 0
M  V30 9898 C 929.496 -1.87822 0.735235 0
M  V30 9899 C 929.809 -1.81069 -0.739819 0
M  V30 9900 O 931.015 -2.45654 -1.15614 0
M  V30 9901 C 929.471 -3.36941 1.26486 0
M  V30 9902 C 929.079 -3.5223 2.76836 0
M  V30 9903 C 930.823 -4.11604 1.03836 0
M  V30 9904 C 928.73 -4.95294 3.23169 0
M  V30 9905 H 927.66 -0.703487 0.271333 0
M  V30 9906 H 930.311 -1.34 1.25365 0
M  V30 9907 H 928.693 -3.90217 0.674318 0
M  V30 9908 H 929.867 -3.09239 3.41625 0
M  V30 9909 H 928.182 -2.90969 2.97869 0
M  V30 9910 H 930.779 -5.17123 1.3597 0
M  V30 9911 H 931.122 -4.16293 -0.0244945 0
M  V30 9912 H 931.655 -3.64494 1.59338 0
M  V30 9913 H 928.394 -4.95772 4.28824 0
M  V30 9914 H 927.914 -5.3901 2.63113 0
M  V30 9915 H 929.593 -5.63996 3.17045 0
M  V30 9916 N 929.725 -0.817259 -1.34754 0
M  V30 9917 C 930.635 -0.236946 -2.334 0
M  V30 9918 C 931.651 0.625685 -1.62361 0
M  V30 9919 O 932.827 0.534921 -1.94166 0
M  V30 9920 C 929.892 0.596215 -3.41535 0
M  V30 9921 C 928.953 -0.288154 -4.28332 0
M  V30 9922 C 928.186 0.505337 -5.31302 0
M  V30 9923 O 928.409 1.73912 -5.43241 0
M  V30 9924 O 927.343 -0.109374 -6.01801 0
M  V30 9925 H 931.169 -1.05327 -2.84851 0
M  V30 9926 H 928.754 -0.579275 -1.37713 0
M  V30 9927 H 930.636 1.07041 -4.07578 0
M  V30 9928 H 929.311 1.38997 -2.92338 0
M  V30 9929 H 928.218 -0.809724 -3.65232 0
M  V30 9930 H 929.551 -1.04612 -4.80955 0
M  V30 9931 N 931.203 1.46865 -0.571711 0
M  V30 9932 C 932.153 2.27219 0.188503 0
M  V30 9933 C 933.137 1.35221 0.872019 0
M  V30 9934 O 934.329 1.59474 0.76793 0
M  V30 9935 C 931.458 3.21321 1.20862 0
M  V30 9936 C 930.544 4.20803 0.527783 0
M  V30 9937 N 930.935 5.04132 -0.410403 0
M  V30 9938 C 929.233 4.39128 0.779909 0
M  V30 9939 C 929.934 5.76071 -0.80728 0
M  V30 9940 N 928.91 5.43368 -0.158865 0
M  V30 9941 H 932.712 2.89034 -0.532611 0
M  V30 9942 H 930.226 1.57581 -0.392696 0
M  V30 9943 H 932.223 3.77586 1.76733 0
M  V30 9944 H 930.883 2.61065 1.93067 0
M  V30 9945 H 931.894 5.11911 -0.785351 0
M  V30 9946 H 928.571 3.90031 1.48937 0
M  V30 9947 H 929.961 6.53082 -1.57903 0
M  V30 9948 N 932.681 0.308908 1.54543 0
M  V30 9949 C 933.628 -0.563659 2.23811 0
M  V30 9950 C 934.598 -1.12332 1.22355 0
M  V30 9951 O 935.783 -1.16638 1.50997 0
M  V30 9952 C 932.923 -1.72585 2.98845 0
M  V30 9953 C 932.036 -1.19682 4.1509 0
M  V30 9954 C 931.171 -2.32351 4.77688 0
M  V30 9955 C 930.21 -1.76623 5.86064 0
M  V30 9956 N 929.347 -2.82896 6.42584 0
M  V30 9957 H 934.187 0.0336288 2.97981 0
M  V30 9958 H 931.724 0.0283666 1.47073 0
M  V30 9959 H 933.682 -2.40951 3.40586 0
M  V30 9960 H 932.312 -2.29464 2.27037 0
M  V30 9961 H 931.364 -0.405173 3.78236 0
M  V30 9962 H 932.676 -0.748923 4.93146 0
M  V30 9963 H 931.83 -3.0865 5.22322 0
M  V30 9964 H 930.569 -2.80472 3.98982 0
M  V30 9965 H 929.574 -0.988171 5.40847 0
M  V30 9966 H 930.799 -1.29398 6.66658 0
M  V30 9967 H 928.745 -3.30336 5.66758 0
M  V30 9968 H 928.662 -2.42626 7.16009 0
M  V30 9969 H 929.93 -3.59068 6.91875 0
M  V30 9970 N 934.159 -1.57557 0.0367827 0
M  V30 9971 C 935.089 -2.13712 -0.940719 0
M  V30 9972 C 936.07 -1.05515 -1.33419 0
M  V30 9973 O 937.255 -1.33385 -1.41146 0
M  V30 9974 C 934.385 -2.67043 -2.22048 0
M  V30 9975 C 933.339 -3.80096 -1.96752 0
M  V30 9976 C 932.665 -4.19886 -3.31059 0
M  V30 9977 C 933.965 -5.05848 -1.30058 0
M  V30 9978 H 935.659 -2.9564 -0.473033 0
M  V30 9979 H 933.205 -1.42214 -0.226089 0
M  V30 9980 H 935.158 -3.04964 -2.90818 0
M  V30 9981 H 933.882 -1.82287 -2.70996 0
M  V30 9982 H 932.541 -3.42625 -1.30398 0
M  V30 9983 H 932.189 -3.32101 -3.77781 0
M  V30 9984 H 931.889 -4.96073 -3.14937 0
M  V30 9985 H 933.413 -4.60395 -4.01084 0
M  V30 9986 H 934.827 -5.41306 -1.8884 0
M  V30 9987 H 933.224 -5.87084 -1.24309 0
M  V30 9988 H 934.294 -4.84122 -0.274591 0
M  V30 9989 N 935.637 0.236453 -1.55816 0
M  V30 9990 C 936.914 0.986463 -1.68903 0
M  V30 9991 C 937.294 2.02984 -0.579722 0
M  V30 9992 O 936.642 2.24693 0.415389 0
M  V30 9993 C 936.852 1.61038 -3.09625 0
M  V30 9994 C 938.2 2.10829 -3.6856 0
M  V30 9995 O 939.224 1.7096 -3.12492 0
M  V30 9996 O 938.083 2.84064 -4.66873 0
M  V30 9997 H 935.177 0.459837 -0.687371 0
M  V30 9998 H 937.723 0.229412 -1.68142 0
M  V30 9999 H 936.495 0.856232 -3.81817 0
M  V30 10000 H 936.118 2.43336 -3.14441 0
M  V30 10001 N 937.115 1.49373 0.502552 0
M  V30 10002 C 938.045 1.68839 1.61294 0
M  V30 10003 C 939.026 0.537096 1.61398 0
M  V30 10004 O 940.211 0.772764 1.78163 0
M  V30 10005 C 937.341 1.75347 2.99784 0
M  V30 10006 C 936.295 2.90251 3.14545 0
M  V30 10007 C 935.621 2.8187 4.54371 0
M  V30 10008 C 936.921 4.31207 2.94717 0
M  V30 10009 H 938.615 2.61803 1.45257 0
M  V30 10010 H 936.161 1.25987 0.697371 0
M  V30 10011 H 938.114 1.87552 3.77362 0
M  V30 10012 H 936.838 0.789814 3.16906 0
M  V30 10013 H 935.497 2.77646 2.39392 0
M  V30 10014 H 935.145 1.83416 4.68367 0
M  V30 10015 H 934.845 3.5899 4.65188 0
M  V30 10016 H 936.369 2.96081 5.34012 0
M  V30 10017 H 937.783 4.44501 3.62065 0
M  V30 10018 H 936.18 5.09536 3.17007 0
M  V30 10019 H 937.25 4.45759 1.90857 0
M  V30 10020 N 938.594 -0.753485 1.38421 0
M  V30 10021 C 939.524 -1.8808 1.38377 0
M  V30 10022 C 940.505 -1.68258 0.249664 0
M  V30 10023 O 941.69 -1.88848 0.45276 0
M  V30 10024 C 938.82 -3.25608 1.20818 0
M  V30 10025 C 937.774 -3.60032 2.31433 0
M  V30 10026 C 937.1 -4.96297 1.9898 0
M  V30 10027 C 938.4 -3.64898 3.73694 0
M  V30 10028 H 940.094 -1.88375 2.32713 0
M  V30 10029 H 937.64 -0.90489 1.12017 0
M  V30 10030 H 939.593 -4.04127 1.19412 0
M  V30 10031 H 938.317 -3.25793 0.229433 0
M  V30 10032 H 936.976 -2.83831 2.32025 0
M  V30 10033 H 936.624 -4.93043 0.995889 0
M  V30 10034 H 936.324 -5.20298 2.73063 0
M  V30 10035 H 937.848 -5.77196 1.99193 0
M  V30 10036 H 939.262 -4.33531 3.75132 0
M  V30 10037 H 937.659 -4.00407 4.46983 0
M  V30 10038 H 938.729 -2.65124 4.06002 0
M  V30 10039 N 940.072 -1.23292 -0.981677 0
M  V30 10040 C 941.002 -1.03738 -2.09191 0
M  V30 10041 C 941.983 0.0453041 -1.7004 0
M  V30 10042 O 943.168 -0.119092 -1.93834 0
M  V30 10043 C 940.298 -0.626426 -3.41604 0
M  V30 10044 C 939.252 -1.65631 -3.94652 0
M  V30 10045 C 938.578 -1.10084 -5.23245 0
M  V30 10046 C 939.878 -3.04903 -4.24066 0
M  V30 10047 H 941.572 -1.966 -2.25807 0
M  V30 10048 H 939.118 -0.946656 -1.0851 0
M  V30 10049 H 941.071 -0.476689 -4.18695 0
M  V30 10050 H 939.795 0.337873 -3.24848 0
M  V30 10051 H 938.454 -1.79402 -3.19704 0
M  V30 10052 H 938.102 -0.127562 -5.02838 0
M  V30 10053 H 937.802 -1.78896 -5.59705 0
M  V30 10054 H 939.326 -0.962928 -6.02959 0
M  V30 10055 H 940.74 -2.94441 -4.91912 0
M  V30 10056 H 939.137 -3.70941 -4.71724 0
M  V30 10057 H 940.207 -3.53991 -3.31389 0
M  V30 10058 N 941.55 1.18024 -1.04442 0
M  V30 10059 C 942.798 1.87727 -0.74854 0
M  V30 10060 C 943.119 1.80975 0.726156 0
M  V30 10061 O 942.389 1.23061 1.52423 0
M  V30 10062 H 940.969 0.694974 -0.273897 0
M  V30 10063 H 943.631 1.43213 -1.32197 0
M  V30 10064 H 942.727 2.93665 -1.05674 0
M  V30 10065 N 943.028 0.824394 1.34319 0
M  V30 10066 C 944.275 0.413167 1.9824 0
M  V30 10067 C 944.603 -1.02412 1.65354 0
M  V30 10068 O 943.858 -1.72831 0.91803 0
M  V30 10069 C 944.157 0.564024 3.52921 0
M  V30 10070 C 943.823 1.96725 4.05722 0
M  V30 10071 C 942.485 2.35111 4.19853 0
M  V30 10072 C 944.837 2.88447 4.34106 0
M  V30 10073 C 942.165 3.64551 4.59695 0
M  V30 10074 C 944.517 4.17353 4.75394 0
M  V30 10075 C 943.181 4.55714 4.8773 0
M  V30 10076 H 942.451 0.151188 0.725412 0
M  V30 10077 H 945.098 1.04863 1.60238 0
M  V30 10078 H 943.403 -0.154816 3.91494 0
M  V30 10079 H 945.1 0.226347 4.00361 0
M  V30 10080 H 941.69 1.65908 3.95187 0
M  V30 10081 H 945.874 2.60034 4.22725 0
M  V30 10082 H 941.13 3.94097 4.67437 0
M  V30 10083 H 945.304 4.88512 4.96315 0
M  V30 10084 H 942.931 5.56064 5.1836 0
M  V30 10085 N 944.506 -1.46559 0.579492 0
M  V30 10086 C 945.736 -2.06484 0.0692642 0
M  V30 10087 C 946.144 -1.4293 -1.23967 0
M  V30 10088 O 945.487 -0.527632 -1.75959 0
M  V30 10089 C 945.549 -3.59078 -0.174174 0
M  V30 10090 C 945.213 -4.44805 1.04867 0
M  V30 10091 C 946.21 -4.81543 1.95991 0
M  V30 10092 C 943.895 -4.8599 1.26961 0
M  V30 10093 C 945.889 -5.58288 3.0756 0
M  V30 10094 C 943.576 -5.62495 2.38836 0
M  V30 10095 C 944.574 -5.98558 3.28964 0
M  V30 10096 O 944.262 -6.73518 4.38896 0
M  V30 10097 H 943.994 -0.673917 0.0530331 0
M  V30 10098 H 946.548 -1.89223 0.79898 0
M  V30 10099 H 944.778 -3.74634 -0.958464 0
M  V30 10100 H 946.467 -4.00941 -0.632515 0
M  V30 10101 H 947.233 -4.50307 1.80136 0
M  V30 10102 H 943.112 -4.57372 0.577184 0
M  V30 10103 H 946.656 -5.86355 3.77933 0
M  V30 10104 H 942.553 -5.93145 2.54655 0
M  V30 10105 H 943.321 -6.91938 4.37223 0
M  V30 10106 N 945.984 -0.3171 -1.54377 0
M  V30 10107 C 947.209 0.292311 -2.0533 0
M  V30 10108 C 947.634 1.45503 -1.19207 0
M  V30 10109 O 946.992 1.80197 -0.199721 0
M  V30 10110 C 947.04 0.710787 -3.53525 0
M  V30 10111 O 946.144 1.81387 -3.70368 0
M  V30 10112 H 945.485 0.0539976 -0.661801 0
M  V30 10113 H 948.015 -0.463629 -1.99278 0
M  V30 10114 H 948.025 0.995216 -3.95676 0
M  V30 10115 H 946.7 -0.139668 -4.15665 0
M  V30 10116 H 945.277 1.52875 -3.40123 0
M  V30 10117 N 947.462 1.57535 -0.0451378 0
M  V30 10118 C 948.878 1.56533 0.311373 0
M  V30 10119 C 949.078 1.05225 1.71843 0
M  V30 10120 O 948.134 0.706144 2.42425 0
M  V30 10121 C 949.447 3.00349 0.145348 0
M  V30 10122 C 950.995 3.12248 0.216908 0
M  V30 10123 C 951.47 4.57931 0.0794834 0
M  V30 10124 N 952.961 4.63 0.135954 0
M  V30 10125 C 953.696 5.73375 0.0536426 0
M  V30 10126 N 953.192 6.92753 -0.0806725 0
M  V30 10127 N 954.985 5.61995 0.108789 0
M  V30 10128 H 947.136 1.89211 -0.965044 0
M  V30 10129 H 949.399 0.871068 -0.374091 0
M  V30 10130 H 949.105 3.41898 -0.824533 0
M  V30 10131 H 948.979 3.66086 0.908903 0
M  V30 10132 H 951.366 2.70601 1.17726 0
M  V30 10133 H 951.447 2.49201 -0.577299 0
M  V30 10134 H 951.091 5.00262 -0.877516 0
M  V30 10135 H 951.021 5.18977 0.892758 0
M  V30 10136 H 953.512 3.77142 0.23926 0
M  V30 10137 H 953.825 7.7268 -0.136351 0
M  V30 10138 H 952.17 6.94904 -0.115675 0
M  V30 10139 H 955.361 4.67619 0.212235 0
M  V30 10140 H 955.534 6.47987 0.0411822 0
M  V30 10141 N 948.94 -0.228186 1.55939 0
M  V30 10142 C 950.18 -0.960695 1.80416 0
M  V30 10143 C 950.544 -1.81795 0.617615 0
M  V30 10144 O 951.745 -2.58369 0.741545 0
M  V30 10145 C 950.016 -1.78298 3.09749 0
M  V30 10146 S 951.575 -2.57203 3.55517 0
M  V30 10147 H 948.393 -0.322825 0.633486 0
M  V30 10148 H 950.995 -0.226852 1.94179 0
M  V30 10149 H 949.699 -1.14323 3.94155 0
M  V30 10150 H 949.23 -2.55924 2.98775 0
M  V30 10151 H 951.245 -3.80632 3.1833 0
M  V30 10152 N 950.418 -1.49637 -0.494624 0
M  V30 10153 C 951.348 -1.69692 -1.60396 0
M  V30 10154 C 952.329 -0.545648 -1.61111 0
M  V30 10155 O 953.514 -0.782202 -1.77751 0
M  V30 10156 C 950.644 -1.76934 -2.9885 0
M  V30 10157 C 949.598 -2.91915 -3.13001 0
M  V30 10158 C 948.924 -2.84276 -4.5287 0
M  V30 10159 C 950.224 -4.32764 -2.92426 0
M  V30 10160 H 951.918 -2.6257 -1.43866 0
M  V30 10161 H 949.464 -1.26355 -0.690679 0
M  V30 10162 H 951.417 -1.8955 -3.76362 0
M  V30 10163 H 950.141 -0.806609 -3.16483 0
M  V30 10164 H 948.8 -2.78911 -2.37916 0
M  V30 10165 H 948.448 -1.85897 -4.67388 0
M  V30 10166 H 948.148 -3.61452 -4.63278 0
M  V30 10167 H 949.672 -2.98909 -5.32434 0
M  V30 10168 H 951.086 -4.46415 -3.59703 0
M  V30 10169 H 949.483 -5.1121 -3.143 0
M  V30 10170 H 950.553 -4.46765 -1.88491 0
M  V30 10171 N 951.896 0.746133 -1.38819 0
M  V30 10172 C 953.312 1.0502 -1.20179 0
M  V30 10173 C 953.512 2.01423 -0.0556271 0
M  V30 10174 O 952.568 2.45359 0.59625 0
M  V30 10175 C 953.881 1.62315 -2.53129 0
M  V30 10176 C 955.429 1.74449 -2.59878 0
M  V30 10177 C 955.904 2.35155 -3.93022 0
M  V30 10178 N 957.395 2.42577 -3.94602 0
M  V30 10179 C 958.13 2.9046 -4.94389 0
M  V30 10180 N 957.626 3.38322 -6.04574 0
M  V30 10181 N 959.419 2.89568 -4.81775 0
M  V30 10182 H 951.57 0.106551 -2.12133 0
M  V30 10183 H 953.833 0.109897 -0.941609 0
M  V30 10184 H 953.539 0.98946 -3.37495 0
M  V30 10185 H 953.413 2.61276 -2.72057 0
M  V30 10186 H 955.8 2.36943 -1.75903 0
M  V30 10187 H 955.881 0.741721 -2.4481 0
M  V30 10188 H 955.525 1.73292 -4.77422 0
M  V30 10189 H 955.455 3.36088 -4.05404 0
M  V30 10190 H 957.946 2.08735 -3.15021 0
M  V30 10191 H 958.259 3.73336 -6.76639 0
M  V30 10192 H 956.604 3.3636 -6.08184 0
M  V30 10193 H 959.795 2.51492 -3.94803 0
M  V30 10194 H 959.968 3.26571 -5.59692 0
M  V30 10195 N 953.375 1.23811 0.975125 0
M  V30 10196 C 954.6 1.10109 1.75757 0
M  V30 10197 C 955.025 -0.342922 1.84948 0
M  V30 10198 O 954.383 -1.24814 1.31496 0
M  V30 10199 C 954.431 1.73724 3.15994 0
M  V30 10200 O 953.535 1.00297 4.00018 0
M  V30 10201 H 952.876 0.385627 0.540544 0
M  V30 10202 H 955.406 1.63971 1.22372 0
M  V30 10203 H 955.416 1.79178 3.6655 0
M  V30 10204 H 954.091 2.78794 3.0862 0
M  V30 10205 H 952.668 1.02575 3.58515 0
M  V30 10206 N 954.853 -1.17469 1.05066 0
M  V30 10207 C 956.101 -1.87327 0.758485 0
M  V30 10208 C 956.422 -1.81358 -0.716549 0
M  V30 10209 O 955.692 -1.23868 -1.51768 0
M  V30 10210 H 954.272 -0.693512 0.277579 0
M  V30 10211 H 956.934 -1.4251 1.32954 0
M  V30 10212 H 956.03 -2.93101 1.0723 0
M  V30 10213 N 956.331 -0.831506 -1.3388 0
M  V30 10214 C 957.559 -0.436925 -2.02234 0
M  V30 10215 C 957.974 0.959689 -1.6259 0
M  V30 10216 O 957.331 1.62248 -0.835576 0
M  V30 10217 C 957.382 -0.539429 -3.57453 0
M  V30 10218 O 957.103 -1.88101 -3.95664 0
M  V30 10219 C 958.604 -0.140852 -4.43076 0
M  V30 10220 H 955.824 -0.174302 -0.647966 0
M  V30 10221 H 958.368 -1.12204 -1.70969 0
M  V30 10222 H 956.523 0.0976959 -3.87277 0
M  V30 10223 H 956.937 -1.86131 -4.90363 0
M  V30 10224 H 958.411 -0.26364 -5.5137 0
M  V30 10225 H 958.888 0.916505 -4.29531 0
M  V30 10226 H 959.494 -0.752117 -4.18597 0
M  V30 10227 N 957.809 1.4625 -0.587256 0
M  V30 10228 C 959.034 2.07252 -0.0784517 0
M  V30 10229 C 959.459 1.43239 1.21919 0
M  V30 10230 O 958.817 0.517791 1.73749 0
M  V30 10231 C 958.865 3.60534 0.0691037 0
M  V30 10232 O 957.969 3.96773 1.12448 0
M  V30 10233 H 957.31 0.660825 -0.064859 0
M  V30 10234 H 959.84 1.87819 -0.811491 0
M  V30 10235 H 959.85 4.0708 0.273826 0
M  V30 10236 H 958.525 4.06516 -0.878514 0
M  V30 10237 H 957.102 3.6193 0.897852 0
M  V30 10238 N 959.287 0.325282 1.54207 0
M  V30 10239 C 960.25 -0.527228 2.23054 0
M  V30 10240 C 961.25 -1.04217 1.22456 0
M  V30 10241 O 962.44 -0.934325 1.47024 0
M  V30 10242 C 959.572 -1.7325 2.93594 0
M  V30 10243 H 960.765 0.0746423 2.99807 0
M  V30 10244 H 958.318 0.0763872 1.56113 0
M  V30 10245 H 959.053 -2.37356 2.20981 0
M  V30 10246 H 958.838 -1.37065 3.67363 0
M  V30 10247 H 960.328 -2.3376 3.46043 0
M  V30 10248 N 960.765 -1.57509 0.0534917 0
M  V30 10249 C 961.99 -1.97511 -0.632794 0
M  V30 10250 C 962.415 -0.930947 -1.63447 0
M  V30 10251 O 961.773 0.105558 -1.80992 0
M  V30 10252 C 961.821 -3.3658 -1.29407 0
M  V30 10253 O 960.925 -3.3467 -2.40977 0
M  V30 10254 H 960.266 -0.643349 -0.16431 0
M  V30 10255 H 962.796 -2.04232 0.12258 0
M  V30 10256 H 962.806 -3.73359 -1.64521 0
M  V30 10257 H 961.481 -4.12113 -0.559976 0
M  V30 10258 H 960.058 -3.09639 -2.07793 0
M  V30 10259 N 962.243 0.219913 -1.56058 0
M  V30 10260 C 963.173 1.27572 -1.9557 0
M  V30 10261 C 964.154 1.48801 -0.824148 0
M  V30 10262 O 965.339 1.60957 -1.08658 0
M  V30 10263 C 962.469 2.62517 -2.27381 0
M  V30 10264 C 961.423 2.55941 -3.43042 0
M  V30 10265 C 960.749 3.94931 -3.60463 0
M  V30 10266 C 962.049 2.10584 -4.77966 0
M  V30 10267 H 963.743 0.947482 -2.84013 0
M  V30 10268 H 961.289 0.454337 -1.36645 0
M  V30 10269 H 963.242 3.36538 -2.53615 0
M  V30 10270 H 961.966 2.97031 -1.35794 0
M  V30 10271 H 960.625 1.84377 -3.1686 0
M  V30 10272 H 960.273 4.26756 -2.66249 0
M  V30 10273 H 959.973 3.91413 -4.38258 0
M  V30 10274 H 961.497 4.70611 -3.89046 0
M  V30 10275 H 962.911 2.74349 -5.03394 0
M  V30 10276 H 961.308 2.18122 -5.59055 0
M  V30 10277 H 962.378 1.05818 -4.73213 0
M  V30 10278 N 963.721 1.49897 0.486681 0
M  V30 10279 C 964.969 1.59789 1.23742 0
M  V30 10280 C 965.29 0.293056 1.92785 0
M  V30 10281 O 964.56 -0.688534 1.83401 0
M  V30 10282 H 963.14 0.588775 0.459731 0
M  V30 10283 H 965.802 1.86597 0.562808 0
M  V30 10284 H 964.898 2.40121 1.9937 0
M  V30 10285 N 965.199 -0.738761 1.39212 0
M  V30 10286 C 966.162 -1.83441 1.37412 0
M  V30 10287 C 967.162 -1.58484 0.271908 0
M  V30 10288 O 968.352 -1.65954 0.529609 0
M  V30 10289 C 965.484 -3.21167 1.143 0
M  V30 10290 H 966.677 -1.86441 2.34904 0
M  V30 10291 H 964.23 -0.942023 1.24722 0
M  V30 10292 H 964.965 -3.23829 0.174756 0
M  V30 10293 H 964.75 -3.40678 1.94116 0
M  V30 10294 H 966.24 -4.01231 1.15773 0
M  V30 10295 N 966.677 -1.24326 -0.968545 0
M  V30 10296 C 967.923 -1.08406 -1.71394 0
M  V30 10297 C 968.256 0.376353 -1.90518 0
M  V30 10298 O 967.531 1.27816 -1.46606 0
M  V30 10299 C 967.814 -1.82344 -3.1052 0
M  V30 10300 C 967.667 -3.3613 -2.98893 0
M  V30 10301 C 968.986 -1.59545 -4.10163 0
M  V30 10302 H 966.105 -0.395205 -0.622079 0
M  V30 10303 H 968.747 -1.52983 -1.12677 0
M  V30 10304 H 966.897 -1.44452 -3.60646 0
M  V30 10305 H 968.569 -3.83614 -2.56199 0
M  V30 10306 H 966.812 -3.64553 -2.35124 0
M  V30 10307 H 967.483 -3.83064 -3.97449 0
M  V30 10308 H 969.959 -1.92504 -3.68892 0
M  V30 10309 H 968.835 -2.13736 -5.05577 0
M  V30 10310 H 969.096 -0.533503 -4.38869 0
M  V30 10311 N 968.156 1.1691 -1.05688 0
M  V30 10312 C 969.088 2.20648 -0.620237 0
M  V30 10313 C 970.101 1.59652 0.318604 0
M  V30 10314 O 971.29 1.78157 0.110553 0
M  V30 10315 C 968.39 3.38716 0.111729 0
M  V30 10316 C 967.563 4.29277 -0.839062 0
M  V30 10317 C 966.622 5.25993 -0.147453 0
M  V30 10318 O 965.648 5.63787 -0.783151 0
M  V30 10319 N 966.85 5.69725 1.11327 0
M  V30 10320 H 969.615 2.58731 -1.51256 0
M  V30 10321 H 967.176 1.31858 -0.939412 0
M  V30 10322 H 969.168 4.00455 0.584657 0
M  V30 10323 H 967.738 2.99189 0.905784 0
M  V30 10324 H 966.958 3.64894 -1.4915 0
M  V30 10325 H 968.246 4.86669 -1.48428 0
M  V30 10326 H 967.644 5.41103 1.64999 0
M  V30 10327 H 966.201 6.33584 1.53018 0
M  V30 10328 N 969.634 0.838594 1.33437 0
M  V30 10329 C 970.88 0.434813 1.98084 0
M  V30 10330 C 971.213 -1.00331 1.66275 0
M  V30 10331 O 970.488 -1.70139 0.942501 0
M  V30 10332 C 970.771 0.655602 3.54082 0
M  V30 10333 C 970.624 2.14097 3.95578 0
M  V30 10334 C 971.943 0.101576 4.39983 0
M  V30 10335 H 969.062 0.159456 0.719544 0
M  V30 10336 H 971.704 1.05406 1.58081 0
M  V30 10337 H 969.854 0.128501 3.88287 0
M  V30 10338 H 971.526 2.73292 3.71631 0
M  V30 10339 H 969.769 2.62558 3.4532 0
M  V30 10340 H 970.44 2.24621 5.04231 0
M  V30 10341 H 972.916 0.552122 4.12421 0
M  V30 10342 H 971.792 0.28575 5.48156 0
M  V30 10343 H 972.053 -0.994616 4.30767 0
M  V30 10344 N 971.112 -1.45937 0.595003 0
M  V30 10345 C 972.523 -1.85908 0.171779 0
M  V30 10346 C 972.874 -1.497 -1.26824 0
M  V30 10347 O 971.999 -0.917688 -1.95978 0
M  V30 10348 C 972.594 -3.37425 0.304976 0
M  V30 10349 C 971.153 -3.76346 -0.0634635 0
M  V30 10350 C 970.3 -2.69926 0.635255 0
M  V30 10351 H 973.251 -1.36916 0.802471 0
M  V30 10352 H 973.272 -3.77632 -0.466313 0
M  V30 10353 H 972.784 -3.63747 1.35314 0
M  V30 10354 H 970.885 -3.55642 -1.11129 0
M  V30 10355 H 970.998 -4.78021 0.321419 0
M  V30 10356 H 969.362 -2.54592 0.0742054 0
M  V30 10357 H 970.145 -2.99086 1.68531 0
M  V30 10358 N 972.59 -0.333456 -1.54032 0
M  V30 10359 C 973.52 0.52051 -2.27625 0
M  V30 10360 C 974.501 1.1111 -1.28797 0
M  V30 10361 O 975.686 1.13438 -1.57625 0
M  V30 10362 C 972.816 1.67663 -3.04149 0
M  V30 10363 C 971.77 1.21487 -4.10396 0
M  V30 10364 C 971.096 2.45872 -4.74817 0
M  V30 10365 C 972.396 0.322603 -5.21303 0
M  V30 10366 H 974.09 -0.0933823 -2.99254 0
M  V30 10367 H 971.636 -0.0463526 -1.43925 0
M  V30 10368 H 973.589 2.28041 -3.54366 0
M  V30 10369 H 972.313 2.31727 -2.30153 0
M  V30 10370 H 970.972 0.633966 -3.61077 0
M  V30 10371 H 970.62 3.0832 -3.97426 0
M  V30 10372 H 970.32 2.15662 -5.46593 0
M  V30 10373 H 971.844 3.06994 -5.27814 0
M  V30 10374 H 973.258 0.832942 -5.67217 0
M  V30 10375 H 971.655 0.112843 -5.99994 0
M  V30 10376 H 972.725 -0.643954 -4.80605 0
M  V30 10377 N 974.068 1.57479 -0.061844 0
M  V30 10378 C 975.315 1.93108 0.60954 0
M  V30 10379 C 975.643 0.941086 1.70217 0
M  V30 10380 O 974.898 -0.044914 1.95648 0
M  V30 10381 C 975.197 3.35394 1.23474 0
M  V30 10382 C 974.863 4.50095 0.269247 0
M  V30 10383 C 973.525 4.812 0.00360316 0
M  V30 10384 C 975.877 5.19725 -0.391839 0
M  V30 10385 C 973.205 5.79276 -0.930383 0
M  V30 10386 C 975.557 6.18801 -1.31408 0
M  V30 10387 C 974.221 6.48328 -1.58829 0
M  V30 10388 H 973.491 0.706634 0.223046 0
M  V30 10389 H 976.138 1.91054 -0.1306 0
M  V30 10390 H 974.443 3.33866 2.05039 0
M  V30 10391 H 976.14 3.60247 1.76134 0
M  V30 10392 H 972.73 4.2583 0.486477 0
M  V30 10393 H 976.914 4.95898 -0.199713 0
M  V30 10394 H 972.17 6.00484 -1.15019 0
M  V30 10395 H 976.344 6.71862 -1.83234 0
M  V30 10396 H 973.971 7.24137 -2.31363 0
M  V30 10397 N 975.546 -0.211634 1.56173 0
M  V30 10398 C 976.823 -0.959467 1.70451 0
M  V30 10399 C 977.203 -2.02036 0.611942 0
M  V30 10400 O 976.551 -2.25325 -0.37959 0
M  V30 10401 C 976.761 -1.56092 3.12148 0
M  V30 10402 C 978.109 -2.04939 3.71867 0
M  V30 10403 O 979.133 -1.65966 3.15172 0
M  V30 10404 O 977.992 -2.766 4.71333 0
M  V30 10405 H 975.086 -0.448844 0.6946 0
M  V30 10406 H 977.632 -0.202633 1.68486 0
M  V30 10407 H 976.404 -0.79538 3.83131 0
M  V30 10408 H 976.027 -2.38303 3.18273 0
M  V30 10409 N 977.024 -1.50153 -0.478725 0
M  V30 10410 C 978.435 -1.53706 -1.05978 0
M  V30 10411 C 978.786 -0.336112 -1.933 0
M  V30 10412 O 977.911 0.551803 -2.09246 0
M  V30 10413 C 978.506 -2.78541 -1.92874 0
M  V30 10414 C 977.065 -2.848 -2.46102 0
M  V30 10415 C 976.212 -2.47902 -1.24257 0
M  V30 10416 H 979.163 -1.56528 -0.261664 0
M  V30 10417 H 979.184 -2.59964 -2.77847 0
M  V30 10418 H 978.696 -3.6593 -1.29293 0
M  V30 10419 H 976.797 -2.01744 -3.13257 0
M  V30 10420 H 976.91 -3.87511 -2.81731 0
M  V30 10421 H 975.274 -2.0017 -1.57493 0
M  V30 10422 H 976.057 -3.3759 -0.62351 0
M  V30 10423 N 978.502 0.731368 -1.39602 0
M  V30 10424 C 979.779 1.48308 -1.27531 0
M  V30 10425 C 980.159 2.10795 0.113482 0
M  V30 10426 O 979.507 1.98886 1.12501 0
M  V30 10427 C 979.717 2.53156 -2.40235 0
M  V30 10428 C 981.065 3.19436 -2.79725 0
M  V30 10429 O 982.089 2.6347 -2.39712 0
M  V30 10430 O 980.948 4.20714 -3.48801 0
M  V30 10431 H 978.042 0.658753 -0.499973 0
M  V30 10432 H 980.588 0.764884 -1.51485 0
M  V30 10433 H 979.36 2.05387 -3.33064 0
M  V30 10434 H 978.983 3.3253 -2.17966 0
M  V30 10435 N 979.98 1.24838 0.961938 0
M  V30 10436 C 981.229 1.0855 1.69999 0
M  V30 10437 C 981.542 -0.374645 1.91979 0
M  V30 10438 O 982.748 -0.657822 2.6341 0
M  V30 10439 C 981.204 1.89424 3.06017 0
M  V30 10440 C 980.812 3.39885 2.9186 0
M  V30 10441 C 982.556 1.81684 3.83655 0
M  V30 10442 C 980.463 4.13082 4.23223 0
M  V30 10443 H 979.393 0.402603 0.637516 0
M  V30 10444 H 982.044 1.4897 1.07146 0
M  V30 10445 H 980.426 1.41823 3.69733 0
M  V30 10446 H 981.6 3.95108 2.37121 0
M  V30 10447 H 979.915 3.4864 2.27683 0
M  V30 10448 H 982.512 2.3367 4.80939 0
M  V30 10449 H 982.855 0.783247 4.08865 0
M  V30 10450 H 983.388 2.26997 3.26676 0
M  V30 10451 H 980.127 5.16824 4.03204 0
M  V30 10452 H 979.647 3.62644 4.77755 0
M  V30 10453 H 981.326 4.20397 4.91808 0
M  V30 10454 N 981.458 -1.16348 1.06306 0
M  V30 10455 C 982.686 -1.90782 0.800614 0
M  V30 10456 C 983.101 -1.77439 -0.645033 0
M  V30 10457 O 982.458 -1.11912 -1.4416 0
M  V30 10458 C 982.509 -3.41484 1.18621 0
M  V30 10459 O 982.23 -3.54428 2.57512 0
M  V30 10460 C 983.731 -4.32968 0.951525 0
M  V30 10461 H 980.951 -0.604977 0.290247 0
M  V30 10462 H 983.495 -1.47476 1.41672 0
M  V30 10463 H 981.65 -3.82493 0.614633 0
M  V30 10464 H 982.064 -4.4788 2.72954 0
M  V30 10465 H 983.538 -5.37169 1.27095 0
M  V30 10466 H 984.015 -4.39055 -0.112734 0
M  V30 10467 H 984.621 -3.97687 1.50749 0
M  V30 10468 N 982.937 -0.845659 -1.3299 0
M  V30 10469 C 984.162 -0.457435 -2.02293 0
M  V30 10470 C 984.587 0.935634 -1.63179 0
M  V30 10471 O 983.945 1.61297 -0.827835 0
M  V30 10472 C 983.993 -0.593665 -3.5568 0
M  V30 10473 O 983.097 0.37729 -4.10671 0
M  V30 10474 H 982.438 -0.185022 -0.637701 0
M  V30 10475 H 984.968 -1.14237 -1.69738 0
M  V30 10476 H 984.978 -0.477834 -4.05192 0
M  V30 10477 H 983.653 -1.60957 -3.83491 0
M  V30 10478 H 982.23 0.218448 -3.7226 0
M  V30 10479 N 984.415 1.45619 -0.602734 0
M  V30 10480 C 985.692 1.9558 -0.0282472 0
M  V30 10481 C 986.072 1.54523 1.43826 0
M  V30 10482 O 985.42 0.805456 2.13833 0
M  V30 10483 C 985.63 3.48298 -0.221263 0
M  V30 10484 C 986.978 4.24483 -0.0995249 0
M  V30 10485 O 988.002 3.55879 -0.151132 0
M  V30 10486 O 986.861 5.46497 0.0194454 0
M  V30 10487 H 983.955 0.826104 0.0384897 0
M  V30 10488 H 986.501 1.55808 -0.672456 0
M  V30 10489 H 985.273 3.71134 -1.23997 0
M  V30 10490 H 984.896 3.94948 0.458437 0
M  V30 10491 N 985.893 0.34162 1.53853 0
M  V30 10492 C 987.123 -0.256557 2.05001 0
M  V30 10493 C 987.531 -1.44916 1.21639 0
M  V30 10494 O 986.874 -1.8207 0.244138 0
M  V30 10495 C 986.936 -0.737109 3.51862 0
M  V30 10496 C 986.6 0.335584 4.55766 0
M  V30 10497 C 987.597 1.17765 5.06387 0
M  V30 10498 C 985.282 0.488958 4.99914 0
M  V30 10499 C 987.276 2.15865 5.99734 0
M  V30 10500 C 984.963 1.47336 5.93073 0
M  V30 10501 C 985.961 2.30666 6.4287 0
M  V30 10502 O 985.649 3.2743 7.34197 0
M  V30 10503 H 985.381 -0.0536867 0.673865 0
M  V30 10504 H 987.935 0.49123 1.99439 0
M  V30 10505 H 986.165 -1.53611 3.54881 0
M  V30 10506 H 987.854 -1.25562 3.85991 0
M  V30 10507 H 988.62 1.07023 4.73044 0
M  V30 10508 H 984.499 -0.149807 4.60757 0
M  V30 10509 H 988.043 2.80945 6.38526 0
M  V30 10510 H 983.94 1.58134 6.25831 0
M  V30 10511 H 984.708 3.22879 7.52125 0
M  V30 10512 N 987.371 -1.57444 0.0701946 0
M  V30 10513 C 988.321 -2.09154 -0.90767 0
M  V30 10514 C 989.305 -1.00087 -1.25982 0
M  V30 10515 O 990.497 -1.26397 -1.23906 0
M  V30 10516 C 987.626 -2.65544 -2.17581 0
M  V30 10517 C 986.712 -3.81613 -1.85021 0
M  V30 10518 N 987.103 -4.90641 -1.22904 0
M  V30 10519 C 985.401 -3.90878 -2.1478 0
M  V30 10520 C 986.102 -5.71511 -1.084 0
M  V30 10521 N 985.078 -5.1973 -1.59318 0
M  V30 10522 H 988.88 -2.90839 -0.423051 0
M  V30 10523 H 986.394 -1.61848 -0.13374 0
M  V30 10524 H 988.391 -3.00904 -2.88552 0
M  V30 10525 H 987.051 -1.85304 -2.66632 0
M  V30 10526 H 988.062 -5.1004 -0.898878 0
M  V30 10527 H 984.739 -3.21611 -2.66219 0
M  V30 10528 H 986.129 -6.69214 -0.600183 0
M  V30 10529 N 988.849 0.203349 -1.56283 0
M  V30 10530 C 990.074 0.945548 -1.84592 0
M  V30 10531 C 990.499 1.7641 -0.652772 0
M  V30 10532 O 989.857 1.76867 0.398468 0
M  V30 10533 C 989.905 1.82416 -3.11057 0
M  V30 10534 O 989.009 2.92191 -2.9103 0
M  V30 10535 H 988.35 0.266739 -0.608068 0
M  V30 10536 H 990.88 0.211158 -2.03507 0
M  V30 10537 H 990.89 2.23044 -3.41636 0
M  V30 10538 H 989.565 1.22267 -3.97522 0
M  V30 10539 H 988.142 2.55378 -2.71728 0
M  V30 10540 N 990.327 1.50405 0.470755 0
M  V30 10541 C 991.738 1.54266 1.05162 0
M  V30 10542 C 992.089 0.346359 1.93119 0
M  V30 10543 O 991.214 -0.540699 2.09536 0
M  V30 10544 C 991.809 2.7956 1.91394 0
M  V30 10545 C 990.368 2.86101 2.44588 0
M  V30 10546 C 989.515 2.48557 1.22941 0
M  V30 10547 H 992.466 1.56665 0.253359 0
M  V30 10548 H 992.487 2.61434 2.76464 0
M  V30 10549 H 991.999 3.66611 1.27351 0
M  V30 10550 H 990.1 2.03403 3.12183 0
M  V30 10551 H 990.213 3.88999 2.79672 0
M  V30 10552 H 988.577 2.01003 1.56429 0
M  V30 10553 H 989.36 3.37916 0.605598 0
M  V30 10554 N 991.805 -0.723954 1.39988 0
M  V30 10555 C 993.051 -1.48591 1.38017 0
M  V30 10556 C 993.384 -1.94189 -0.0203522 0
M  V30 10557 O 992.659 -1.67572 -0.987422 0
M  V30 10558 C 992.942 -2.71786 2.36229 0
M  V30 10559 C 992.795 -2.32136 3.8527 0
M  V30 10560 C 994.114 -3.73921 2.32102 0
M  V30 10561 H 991.233 -0.538993 0.502648 0
M  V30 10562 H 993.875 -0.826908 1.71062 0
M  V30 10563 H 992.025 -3.28015 2.0818 0
M  V30 10564 H 993.697 -1.81454 4.24113 0
M  V30 10565 H 991.94 -1.64234 4.01509 0
M  V30 10566 H 992.611 -3.20406 4.49493 0
M  V30 10567 H 995.087 -3.27303 2.56928 0
M  V30 10568 H 993.963 -4.5777 3.02882 0
M  V30 10569 H 994.224 -4.21627 1.32979 0
M  V30 10570 N 993.283 -1.25346 -0.955304 0
M  V30 10571 C 994.56 -1.00829 -1.67609 0
M  V30 10572 C 994.94 0.465675 -2.059 0
M  V30 10573 O 994.288 1.44287 -1.77182 0
M  V30 10574 C 994.498 -1.94337 -2.89886 0
M  V30 10575 C 995.846 -2.22142 -3.61854 0
M  V30 10576 O 996.87 -1.9209 -2.99967 0
M  V30 10577 O 995.729 -2.73239 -4.73289 0
M  V30 10578 H 992.823 -0.382314 -0.733325 0
M  V30 10579 H 995.369 -1.36498 -1.00829 0
M  V30 10580 H 994.141 -2.93867 -2.58376 0
M  V30 10581 H 993.764 -1.59062 -3.64397 0
M  V30 10582 N 994.761 1.15782 -1.06922 0
M  V30 10583 C 995.711 2.18373 -0.655537 0
M  V30 10584 C 996.695 1.57745 0.317084 0
M  V30 10585 O 997.887 1.76511 0.131509 0
M  V30 10586 C 995.016 3.43263 -0.0502314 0
M  V30 10587 C 994.102 4.10954 -1.04773 0
M  V30 10588 N 994.493 4.542 -2.22567 0
M  V30 10589 C 992.791 4.3723 -0.880087 0
M  V30 10590 C 993.492 5.06641 -2.85815 0
M  V30 10591 N 992.468 4.99917 -2.13505 0
M  V30 10592 H 996.27 2.49533 -1.55276 0
M  V30 10593 H 993.784 1.32303 -0.941793 0
M  V30 10594 H 995.781 4.16063 0.264003 0
M  V30 10595 H 994.441 3.13588 0.842167 0
M  V30 10596 H 995.452 4.47727 -2.60309 0
M  V30 10597 H 992.129 4.17481 -0.0402148 0
M  V30 10598 H 993.519 5.50092 -3.85808 0
M  V30 10599 N 996.239 0.8527 1.3254 0
M  V30 10600 C 997.149 0.298744 2.3269 0
M  V30 10601 C 998.165 -0.582418 1.63963 0
M  V30 10602 O 999.341 -0.483253 1.95516 0
M  V30 10603 C 996.406 -0.505453 3.42996 0
M  V30 10604 C 995.467 0.401618 4.27417 0
M  V30 10605 C 994.7 -0.364294 5.32455 0
M  V30 10606 O 994.923 -1.59448 5.47661 0
M  V30 10607 O 993.857 0.268892 6.01299 0
M  V30 10608 H 997.683 1.12843 2.81958 0
M  V30 10609 H 995.268 0.615584 1.36128 0
M  V30 10610 H 997.15 -0.961974 4.10273 0
M  V30 10611 H 995.825 -1.31197 2.95921 0
M  V30 10612 H 994.732 0.906274 3.62957 0
M  V30 10613 H 996.065 1.17327 4.78012 0
M  V30 10614 N 997.718 -1.45297 0.610449 0
M  V30 10615 C 998.995 -1.95562 0.0386189 0
M  V30 10616 C 999.375 -1.55284 -1.43004 0
M  V30 10617 O 998.723 -0.816785 -2.13403 0
M  V30 10618 C 998.933 -3.48176 0.239731 0
M  V30 10619 C 1000.28 -4.24425 0.122035 0
M  V30 10620 O 1001.3 -3.55794 0.170003 0
M  V30 10621 O 1000.16 -5.46499 0.00953695 0
M  V30 10622 H 997.258 -0.826296 -0.0341081 0
M  V30 10623 H 999.804 -1.55449 0.68071 0
M  V30 10624 H 998.576 -3.70471 1.25963 0
M  V30 10625 H 998.199 -3.95186 -0.437486 0
M  V30 10626 N 999.196 -0.349774 -1.5367 0
M  V30 10627 C 1000.44 0.245862 -2.00196 0
M  V30 10628 C 1000.76 1.51154 -1.24144 0
M  V30 10629 O 1001.96 2.18481 -1.61178 0
M  V30 10630 C 1000.42 0.488665 -3.56567 0
M  V30 10631 C 1000.03 -0.761475 -4.41481 0
M  V30 10632 C 1001.77 1.04282 -4.11492 0
M  V30 10633 C 999.679 -0.489128 -5.89374 0
M  V30 10634 H 998.609 0.0956493 -0.747909 0
M  V30 10635 H 1001.26 -0.466068 -1.77483 0
M  V30 10636 H 999.642 1.26145 -3.75371 0
M  V30 10637 H 1000.82 -1.53585 -4.34452 0
M  V30 10638 H 999.131 -1.23771 -3.9758 0
M  V30 10639 H 1001.73 1.26164 -5.19603 0
M  V30 10640 H 1002.07 2.00023 -3.65098 0
M  V30 10641 H 1002.6 0.330582 -3.96424 0
M  V30 10642 H 999.343 -1.41643 -6.40014 0
M  V30 10643 H 998.863 0.247039 -5.99291 0
M  V30 10644 H 1000.54 -0.1087 -6.46909 0
M  V30 10645 N 1000.67 1.57404 -0.0785433 0
M  V30 10646 C 1001.9 1.98492 0.601292 0
M  V30 10647 C 1002.32 0.956832 1.61945 0
M  V30 10648 O 1001.68 -0.0767502 1.81137 0
M  V30 10649 C 1001.73 3.38596 1.24036 0
M  V30 10650 O 1000.83 3.38461 2.35622 0
M  V30 10651 H 1000.17 0.645882 0.154054 0
M  V30 10652 H 1002.7 2.04012 -0.155056 0
M  V30 10653 H 1002.71 3.75929 1.5856 0
M  V30 10654 H 1001.39 4.12952 0.494341 0
M  V30 10655 H 999.967 3.12906 2.02841 0
M  V30 10656 N 1002.15 -0.195058 1.56388 0
M  V30 10657 C 1003.4 -0.9168 1.80894 0
M  V30 10658 C 1003.73 -1.82907 0.652592 0
M  V30 10659 O 1003.01 -1.91382 -0.346853 0
M  V30 10660 C 1003.29 -1.733 3.15657 0
M  V30 10661 C 1003.14 -0.845449 4.41783 0
M  V30 10662 C 1004.46 -2.70557 3.47112 0
M  V30 10663 H 1001.58 -0.331861 0.658056 0
M  V30 10664 H 1004.22 -0.184174 1.89105 0
M  V30 10665 H 1002.37 -2.3576 3.08787 0
M  V30 10666 H 1004.04 -0.235557 4.60698 0
M  V30 10667 H 1002.29 -0.152172 4.33533 0
M  V30 10668 H 1002.96 -1.45152 5.32574 0
M  V30 10669 H 1005.43 -2.1823 3.54281 0
M  V30 10670 H 1004.31 -3.24749 4.42526 0
M  V30 10671 H 1004.57 -3.49605 2.70608 0
M  V30 10672 N 1003.63 -1.50653 -0.462772 0
M  V30 10673 C 1004.85 -1.66103 -1.24196 0
M  V30 10674 C 1005.28 -0.347421 -1.84864 0
M  V30 10675 O 1004.64 0.689673 -1.6767 0
M  V30 10676 C 1004.69 -2.76027 -2.32037 0
M  V30 10677 O 1003.79 -2.37859 -3.36893 0
M  V30 10678 H 1003.13 -0.554672 -0.365014 0
M  V30 10679 H 1005.66 -1.97076 -0.549734 0
M  V30 10680 H 1005.67 -2.99354 -2.77221 0
M  V30 10681 H 1004.35 -3.71361 -1.87253 0
M  V30 10682 H 1002.92 -2.2501 -2.97363 0
M  V30 10683 N 1005.11 0.71652 -1.4037 0
M  V30 10684 C 1006.07 1.81231 -1.40313 0
M  V30 10685 C 1007.07 1.58032 -0.297087 0
M  V30 10686 O 1008.26 1.65091 -0.555944 0
M  V30 10687 C 1005.39 3.19308 -1.19395 0
M  V30 10688 H 1006.59 1.8268 -2.3784 0
M  V30 10689 H 1004.14 0.922062 -1.26205 0
M  V30 10690 H 1004.87 3.2351 -0.226252 0
M  V30 10691 H 1004.66 3.37546 -1.99512 0
M  V30 10692 H 1006.15 3.99339 -1.22141 0
M  V30 10693 N 1006.59 1.25851 0.948643 0
M  V30 10694 C 1007.52 1.02549 2.04979 0
M  V30 10695 C 1008.53 -0.0115923 1.62796 0
M  V30 10696 O 1009.72 0.227643 1.77042 0
M  V30 10697 C 1006.82 0.529486 3.34738 0
M  V30 10698 C 1005.99 1.6341 4.05729 0
M  V30 10699 C 1005.05 1.13743 5.1376 0
M  V30 10700 O 1004.08 1.83303 5.38877 0
M  V30 10701 N 1005.28 -0.0181151 5.80497 0
M  V30 10702 H 1008.05 1.97365 2.25537 0
M  V30 10703 H 1005.61 1.17137 1.11761 0
M  V30 10704 H 1007.6 0.181566 4.04293 0
M  V30 10705 H 1006.17 -0.324893 3.10907 0
M  V30 10706 H 1005.39 2.15331 3.30191 0
M  V30 10707 H 1006.68 2.37603 4.49914 0
M  V30 10708 H 1006.07 -0.599198 5.62518 0
M  V30 10709 H 1004.63 -0.307019 6.51077 0
M  V30 10710 N 1008.06 -1.15214 1.07534 0
M  V30 10711 C 1009.29 -1.89922 0.820804 0
M  V30 10712 C 1009.71 -1.78114 -0.626177 0
M  V30 10713 O 1009.06 -1.13435 -1.42964 0
M  V30 10714 C 1009.12 -3.40207 1.22236 0
M  V30 10715 O 1008.84 -3.51676 2.61257 0
M  V30 10716 C 1010.34 -4.31934 0.997393 0
M  V30 10717 H 1007.56 -0.601865 0.296647 0
M  V30 10718 H 1010.1 -1.45965 1.43229 0
M  V30 10719 H 1008.26 -3.8182 0.655167 0
M  V30 10720 H 1008.67 -4.44959 2.77689 0
M  V30 10721 H 1010.14 -5.35791 1.32785 0
M  V30 10722 H 1010.62 -4.3915 -0.0661599 0
M  V30 10723 H 1011.23 -3.96066 1.54958 0
M  V30 10724 N 1009.54 -0.859717 -1.32086 0
M  V30 10725 C 1010.47 -0.323502 -2.31248 0
M  V30 10726 C 1011.45 0.580085 -1.59903 0
M  V30 10727 O 1012.64 0.499265 -1.87673 0
M  V30 10728 C 1009.77 0.484661 -3.43902 0
M  V30 10729 C 1008.72 -0.324933 -4.26765 0
M  V30 10730 C 1008.05 0.608281 -5.31229 0
M  V30 10731 C 1009.35 -1.55344 -4.98664 0
M  V30 10732 H 1011.04 -1.15209 -2.76346 0
M  V30 10733 H 1008.59 -0.555442 -1.32856 0
M  V30 10734 H 1010.54 0.870238 -4.12316 0
M  V30 10735 H 1009.27 1.34666 -2.97544 0
M  V30 10736 H 1007.92 -0.692328 -3.60003 0
M  V30 10737 H 1007.57 1.46727 -4.81124 0
M  V30 10738 H 1007.27 0.0705571 -5.87558 0
M  V30 10739 H 1008.8 0.990925 -6.02506 0
M  V30 10740 H 1010.21 -1.23987 -5.59732 0
M  V30 10741 H 1008.61 -2.02947 -5.64741 0
M  V30 10742 H 1009.68 -2.31192 -4.26237 0
M  V30 10743 N 1011.02 1.44971 -0.618145 0
M  V30 10744 C 1012.25 2.07039 -0.122395 0
M  V30 10745 C 1012.67 1.45793 1.18853 0
M  V30 10746 O 1012.03 0.55453 1.72611 0
M  V30 10747 C 1012.08 3.60599 -0.0073864 0
M  V30 10748 O 1011.18 3.99069 1.04007 0
M  V30 10749 H 1010.52 0.6593 -0.0788615 0
M  V30 10750 H 1013.05 1.86055 -0.851147 0
M  V30 10751 H 1013.06 4.07569 0.187417 0
M  V30 10752 H 1011.74 4.04561 -0.964544 0
M  V30 10753 H 1010.31 3.63753 0.820879 0
M  V30 10754 N 1012.5 0.357919 1.53482 0
M  V30 10755 C 1013.75 -0.235241 2.00324 0
M  V30 10756 C 1014.06 -1.50494 1.24944 0
M  V30 10757 O 1015.27 -2.17623 1.62335 0
M  V30 10758 C 1013.72 -0.469748 3.56821 0
M  V30 10759 C 1013.33 0.784877 4.41071 0
M  V30 10760 C 1015.07 -1.02098 4.12039 0
M  V30 10761 C 1012.98 0.520377 5.89106 0
M  V30 10762 H 1011.91 -0.0916816 0.748405 0
M  V30 10763 H 1014.56 0.475474 1.77233 0
M  V30 10764 H 1012.94 -1.24153 3.76035 0
M  V30 10765 H 1014.12 1.55886 4.33631 0
M  V30 10766 H 1012.43 1.25878 3.96918 0
M  V30 10767 H 1015.03 -1.23406 5.20264 0
M  V30 10768 H 1015.37 -1.98084 3.66154 0
M  V30 10769 H 1015.91 -0.309554 3.96594 0
M  V30 10770 H 1012.65 1.45035 6.39254 0
M  V30 10771 H 1012.17 -0.215254 5.99414 0
M  V30 10772 H 1013.84 0.143006 6.46842 0
M  V30 10773 N 1013.98 -1.5736 0.0868897 0
M  V30 10774 C 1015.2 -1.98809 -0.590757 0
M  V30 10775 C 1015.63 -0.965407 -1.61436 0
M  V30 10776 O 1014.98 0.067143 -1.81176 0
M  V30 10777 C 1015.03 -3.39249 -1.22238 0
M  V30 10778 O 1014.14 -3.39706 -2.33824 0
M  V30 10779 H 1013.48 -0.64669 -0.150626 0
M  V30 10780 H 1016.01 -2.03927 0.165873 0
M  V30 10781 H 1016.02 -3.76765 -1.56564 0
M  V30 10782 H 1014.69 -4.13208 -0.472434 0
M  V30 10783 H 1013.27 -3.13977 -2.01178 0
M  V30 10784 N 1015.45 0.186762 -1.56489 0
M  V30 10785 C 1016.87 0.537933 -1.50261 0
M  V30 10786 C 1017.07 1.85435 -0.788414 0
M  V30 10787 O 1016.13 2.50168 -0.342377 0
M  V30 10788 C 1017.44 0.584965 -2.94955 0
M  V30 10789 C 1018.99 0.673228 -3.05674 0
M  V30 10790 C 1019.46 0.751294 -4.51796 0
M  V30 10791 N 1020.95 0.814599 -4.55981 0
M  V30 10792 C 1021.69 0.895313 -5.66367 0
M  V30 10793 N 1021.18 0.937814 -6.86423 0
M  V30 10794 N 1022.98 0.933145 -5.543 0
M  V30 10795 H 1015.13 -0.676636 -2.01334 0
M  V30 10796 H 1017.39 -0.242079 -0.916571 0
M  V30 10797 H 1017.1 -0.313361 -3.50301 0
M  V30 10798 H 1016.97 1.4368 -3.48763 0
M  V30 10799 H 1019.36 1.56198 -2.50372 0
M  V30 10800 H 1019.44 -0.204976 -2.54977 0
M  V30 10801 H 1019.08 -0.133143 -5.07725 0
M  V30 10802 H 1019.01 1.64542 -5.00233 0
M  V30 10803 H 1021.5 0.790662 -3.69536 0
M  V30 10804 H 1021.82 1.00015 -7.66301 0
M  V30 10805 H 1020.16 0.906351 -6.89065 0
M  V30 10806 H 1023.35 0.896836 -4.59428 0
M  V30 10807 H 1023.53 0.992588 -6.40353 0
M  V30 10808 N 1016.93 1.50896 0.454776 0
M  V30 10809 C 1018.16 1.66759 1.23313 0
M  V30 10810 C 1018.58 0.35722 1.84677 0
M  V30 10811 O 1017.94 -0.680771 1.68033 0
M  V30 10812 C 1017.99 2.77254 2.3057 0
M  V30 10813 O 1017.09 2.39642 3.35627 0
M  V30 10814 H 1016.43 0.556599 0.362068 0
M  V30 10815 H 1018.96 1.97365 0.539274 0
M  V30 10816 H 1018.97 3.0082 2.75629 0
M  V30 10817 H 1017.65 3.72349 1.85281 0
M  V30 10818 H 1016.23 2.26584 2.96165 0
M  V30 10819 N 1018.41 -0.709066 1.40748 0
M  V30 10820 C 1019.66 -1.47119 1.39585 0
M  V30 10821 C 1019.99 -1.942 0.000245323 0
M  V30 10822 O 1019.26 -1.68609 -0.969593 0
M  V30 10823 C 1019.55 -2.69266 2.39099 0
M  V30 10824 C 1019.4 -2.28037 3.8771 0
M  V30 10825 C 1020.72 -3.71438 2.36055 0
M  V30 10826 H 1017.84 -0.533632 0.508336 0
M  V30 10827 H 1020.48 -0.808718 1.7193 0
M  V30 10828 H 1018.63 -3.25788 2.11647 0
M  V30 10829 H 1020.3 -1.76946 4.26014 0
M  V30 10830 H 1018.55 -1.59966 4.03229 0
M  V30 10831 H 1019.22 -3.15621 4.52866 0
M  V30 10832 H 1021.69 -3.24559 2.60385 0
M  V30 10833 H 1020.57 -4.54532 3.07721 0
M  V30 10834 H 1020.83 -4.20193 1.37443 0
M  V30 10835 N 1019.89 -1.26353 -0.941956 0
M  V30 10836 C 1021.11 -1.14731 -1.72776 0
M  V30 10837 C 1021.54 0.293766 -1.85792 0
M  V30 10838 O 1020.9 1.21284 -1.34759 0
M  V30 10839 C 1020.95 -1.82041 -3.11277 0
M  V30 10840 O 1020.05 -1.10867 -3.97218 0
M  V30 10841 H 1019.39 -0.399823 -0.53013 0
M  V30 10842 H 1021.92 -1.67157 -1.17981 0
M  V30 10843 H 1021.93 -1.88834 -3.61671 0
M  V30 10844 H 1020.61 -2.86879 -3.0112 0
M  V30 10845 H 1019.18 -1.12044 -3.55669 0
M  V30 10846 N 1021.37 1.14642 -1.08144 0
M  V30 10847 C 1022.6 1.89484 -0.830864 0
M  V30 10848 C 1023.01 1.78443 0.616722 0
M  V30 10849 O 1022.37 1.14191 1.42361 0
M  V30 10850 C 1022.42 3.39554 -1.24039 0
M  V30 10851 O 1022.14 3.50286 -2.63119 0
M  V30 10852 C 1023.64 4.31399 -1.02029 0
M  V30 10853 H 1020.86 0.600283 -0.299835 0
M  V30 10854 H 1023.4 1.45204 -1.44001 0
M  V30 10855 H 1021.56 3.81467 -0.675407 0
M  V30 10856 H 1021.97 4.43481 -2.80045 0
M  V30 10857 H 1023.45 5.35079 -1.35625 0
M  V30 10858 H 1023.92 4.39179 0.0428697 0
M  V30 10859 H 1024.53 3.95238 -1.57057 0
M  V30 10860 N 1022.85 0.866709 1.31628 0
M  V30 10861 C 1023.79 0.309128 2.30537 0
M  V30 10862 C 1024.79 -0.574028 1.59378 0
M  V30 10863 O 1025.99 -0.460491 1.7401 0
M  V30 10864 H 1022.37 0.081279 0.747595 0
M  V30 10865 H 1024.34 1.15734 2.75042 0
M  V30 10866 C 1023.09 -0.477287 3.44409 0
M  V30 10867 H 1022.41 0.19301 3.99334 0
M  V30 10868 H 1023.85 -0.832818 4.1574 0
M  V30 10869 C 1022.31 -1.66727 2.92752 0
M  V30 10870 O 1022.84 -2.76654 2.91248 0
M  V30 10871 N 1021.05 -1.49833 2.48995 0
M  V30 10872 H 1020.59 -0.604073 2.50417 0
M  V30 10873 H 1020.55 -2.29594 2.14788 0
M  V30 10874 N 1024.32 -1.44642 0.625825 0
M  V30 10875 C 1025.26 -2.27821 -0.131481 0
M  V30 10876 C 1026.23 -1.38224 -0.856324 0
M  V30 10877 O 1027.42 -1.67662 -0.861493 0
M  V30 10878 C 1024.55 -3.1703 -1.19204 0
M  V30 10879 C 1023.59 -4.22697 -0.568315 0
M  V30 10880 S 1024.42 -5.3169 0.637612 0
M  V30 10881 C 1025.58 -6.24468 -0.423088 0
M  V30 10882 H 1025.81 -2.91703 0.574177 0
M  V30 10883 H 1023.35 -1.4875 0.413844 0
M  V30 10884 H 1025.3 -3.6898 -1.79901 0
M  V30 10885 H 1023.97 -2.52379 -1.86986 0
M  V30 10886 H 1023.16 -4.8511 -1.36689 0
M  V30 10887 H 1022.76 -3.73983 -0.0360843 0
M  V30 10888 H 1025.05 -6.64967 -1.29713 0
M  V30 10889 H 1026 -7.07907 0.165338 0
M  V30 10890 H 1026.4 -5.59541 -0.746606 0
M  V30 10891 N 1025.8 -0.366053 -1.5329 0
M  V30 10892 C 1027.08 0.279902 -1.93587 0
M  V30 10893 C 1027.46 1.66352 -1.29963 0
M  V30 10894 O 1026.81 2.23845 -0.458895 0
M  V30 10895 C 1027.02 0.329634 -3.4744 0
M  V30 10896 C 1028.36 0.569754 -4.2076 0
M  V30 10897 O 1029.39 0.410823 -3.53823 0
M  V30 10898 O 1028.25 0.879262 -5.3938 0
M  V30 10899 H 1025.34 0.16802 -0.809752 0
M  V30 10900 H 1027.89 -0.418871 -1.64449 0
M  V30 10901 H 1026.66 -0.640434 -3.86023 0
M  V30 10902 H 1026.28 1.07428 -3.82812 0
M  V30 10903 O 1027.32 1.59777 -0.23528 0
M  V30 10904 H 1028.01 1.90647 0.342579 0
M  V30 END ATOM
M  V30 BEGIN BOND
M  V30 END BOND
M  V30 END CTAB
M  END
$$$$
