drugbank_target|P56601 Protoporphyrinogen oxidase (DB07338)
 OpenBabel12092120413D

  0  0  0     0  0            999 V3000
M  V30 BEGIN CTAB
M  V30 COUNTS 7025 7090 0 0 0
M  V30 BEGIN ATOM
M  V30 1 H -0.908 1.98254 -0.117106 0
M  V30 2 N 0 1.576 0 0
M  V30 3 C 0.933 2.03868 1.02534 0
M  V30 4 C 1.911 0.928543 1.3348 0
M  V30 5 O 3.095 1.19667 1.45644 0
M  V30 6 C 0.222 2.43627 2.35294 0
M  V30 7 C -0.732 3.65373 2.2001 0
M  V30 8 S 0.101 5.13292 1.52614 0
M  V30 9 C 1.257 5.56322 2.86805 0
M  V30 10 H 1.49 2.90518 0.631377 0
M  V30 11 H -0.977 1.52953 0.210867 0
M  V30 12 H 0.981 2.67203 3.11629 0
M  V30 13 H -0.358 1.57376 2.7183 0
M  V30 14 H -1.165 3.90944 3.18086 0
M  V30 15 H -1.563 3.418 1.51819 0
M  V30 16 H 0.729 5.58782 3.83104 0
M  V30 17 H 1.672 6.56266 2.65933 0
M  V30 18 H 2.08 4.83886 2.90714 0
M  V30 19 N 1.4781 -0.272755 1.55222 0
M  V30 20 C 2.4281 -1.33946 1.84506 0
M  V30 21 C 3.4121 -1.44682 0.70399 0
M  V30 22 O 4.6041 -1.48358 0.965338 0
M  V30 23 C 1.7331 -2.69968 2.12067 0
M  V30 24 C 0.8191 -2.63341 3.32434 0
M  V30 25 N 1.2101 -2.26335 4.52334 0
M  V30 26 C -0.4919 -2.94402 3.35028 0
M  V30 27 C 0.2091 -2.29705 5.34425 0
M  V30 28 N -0.8149 -2.68188 4.72838 0
M  V30 29 H 2.9871 -1.04343 2.74754 0
M  V30 30 H 0.5011 -0.481389 1.55101 0
M  V30 31 H 2.4981 -3.46916 2.31202 0
M  V30 32 H 1.1581 -3.00459 1.23103 0
M  V30 33 H 2.1691 -1.98309 4.78429 0
M  V30 34 H -1.1539 -3.29603 2.56257 0
M  V30 35 H 0.2361 -2.03653 6.40293 0
M  V30 36 N 2.9562 -1.48159 -0.537278 0
M  V30 37 C 3.9062 -1.5854 -1.63857 0
M  V30 38 C 4.8902 -0.442969 -1.54682 0
M  V30 39 O 6.0822 -0.69401 -1.62827 0
M  V30 40 C 3.2112 -1.62144 -3.02596 0
M  V30 41 C 2.2972 -2.81841 -3.16901 0
M  V30 42 N 2.6882 -4.06337 -3.01204 0
M  V30 43 C 0.9862 -2.79021 -3.47942 0
M  V30 44 C 1.6872 -4.86606 -3.18731 0
M  V30 45 N 0.6632 -4.19288 -3.45974 0
M  V30 46 H 4.4652 -2.5255 -1.50319 0
M  V30 47 H 1.9792 -1.4443 -0.742555 0
M  V30 48 H 3.9762 -1.67674 -3.81695 0
M  V30 49 H 2.6362 -0.69245 -3.17231 0
M  V30 50 H 3.6472 -4.36888 -2.78117 0
M  V30 51 H 0.3242 -1.95347 -3.6898 0
M  V30 52 H 1.7142 -5.95385 -3.11394 0
M  V30 53 N 4.4343 0.785586 -1.36625 0
M  V30 54 C 5.3673 1.90509 -1.25625 0
M  V30 55 C 6.3453 1.62 -0.139607 0
M  V30 56 O 7.5293 1.8591 -0.31141 0
M  V30 57 C 4.6563 3.25419 -0.939158 0
M  V30 58 C 3.7023 3.72856 -2.07077 0
M  V30 59 S 4.5353 3.88162 -3.68904 0
M  V30 60 C 5.6913 5.25942 -3.39317 0
M  V30 61 H 5.9243 1.99549 -2.20381 0
M  V30 62 H 3.4573 0.945226 -1.22085 0
M  V30 63 H 5.4153 4.03346 -0.763029 0
M  V30 64 H 4.0763 3.14099 -0.00931402 0
M  V30 65 H 3.2693 4.70624 -1.80357 0
M  V30 66 H 2.8713 3.01989 -2.20632 0
M  V30 67 H 5.1633 6.10651 -2.93447 0
M  V30 68 H 6.1063 5.57668 -4.36363 0
M  V30 69 H 6.5143 4.93224 -2.74573 0
M  V30 70 N 5.9124 1.20967 1.01018 0
M  V30 71 C 7.3234 1.02319 1.56165 0
M  V30 72 C 7.6744 -0.418546 1.91684 0
M  V30 73 O 6.7994 -1.30096 1.72928 0
M  V30 74 C 7.3944 1.85109 2.8376 0
M  V30 75 C 5.9534 1.70809 3.35412 0
M  V30 76 C 5.1004 1.82643 2.08655 0
M  V30 77 H 8.0514 1.35065 0.833255 0
M  V30 78 H 8.0724 1.35827 3.55431 0
M  V30 79 H 7.5844 2.90035 2.57878 0
M  V30 80 H 5.6854 0.685464 3.66241 0
M  V30 81 H 5.7984 2.52467 4.07182 0
M  V30 82 H 4.1624 1.25896 2.21409 0
M  V30 83 H 4.9454 2.89066 1.85191 0
M  V30 84 N 7.3905 -1.2043 1.01659 0
M  V30 85 C 8.8065 -1.41852 0.731442 0
M  V30 86 C 9.0065 -1.89358 -0.688898 0
M  V30 87 O 8.0625 -2.06247 -1.45666 0
M  V30 88 C 9.3755 -2.44019 1.75714 0
M  V30 89 C 10.9235 -2.57785 1.77527 0
M  V30 90 C 11.3985 -3.63194 2.79023 0
M  V30 91 N 12.8895 -3.70678 2.77763 0
M  V30 92 C 13.6245 -4.51897 3.52954 0
M  V30 93 N 13.1205 -5.36921 4.37821 0
M  V30 94 N 14.9135 -4.4643 3.41551 0
M  V30 95 H 7.0645 -0.879093 1.93354 0
M  V30 96 H 9.3275 -0.448425 0.835236 0
M  V30 97 H 9.0335 -2.1611 2.77469 0
M  V30 98 H 8.9075 -3.43007 1.56927 0
M  V30 99 H 11.2945 -2.85023 0.764569 0
M  V30 100 H 11.3755 -1.58992 2.00387 0
M  V30 101 H 11.0195 -3.36699 3.80258 0
M  V30 102 H 10.9495 -4.61609 2.53425 0
M  V30 103 H 13.4405 -3.09944 2.16201 0
M  V30 104 H 13.7535 -5.95981 4.91962 0
M  V30 105 H 12.0985 -5.36424 4.41899 0
M  V30 106 H 15.2895 -3.79042 2.74672 0
M  V30 107 H 15.4625 -5.09491 4.00404 0
M  V30 108 N 8.8686 -0.792821 -1.36206 0
M  V30 109 C 10.0966 -0.378825 -2.03402 0
M  V30 110 C 10.5116 1.00586 -1.59774 0
M  V30 111 O 9.8686 1.64574 -0.788764 0
M  V30 112 C 9.9196 -0.43683 -3.58851 0
M  V30 113 O 9.6406 -1.76691 -4.00889 0
M  V30 114 C 11.1416 -0.0138943 -4.43298 0
M  V30 115 H 8.3616 -0.155673 -0.652692 0
M  V30 116 H 10.9056 -1.07261 -1.74113 0
M  V30 117 H 9.0606 0.208575 -3.86838 0
M  V30 118 H 9.4746 -1.72011 -4.95492 0
M  V30 119 H 10.9486 -0.105615 -5.51899 0
M  V30 120 H 11.4256 1.03915 -4.2673 0
M  V30 121 H 12.0316 -0.63192 -4.20579 0
M  V30 122 N 10.3467 1.47872 -0.545128 0
M  V30 123 C 11.5747 2.06889 -0.021084 0
M  V30 124 C 11.9897 1.39955 1.2672 0
M  V30 125 O 11.3467 0.492036 1.75742 0
M  V30 126 C 11.3977 3.60996 0.190817 0
M  V30 127 O 11.1187 4.25419 -1.04644 0
M  V30 128 C 12.6197 4.36849 0.753521 0
M  V30 129 H 9.8397 0.669785 -0.0403635 0
M  V30 130 H 12.3837 1.90049 -0.755095 0
M  V30 131 H 10.5387 3.77391 0.87492 0
M  V30 132 H 10.9527 5.17785 -0.836611 0
M  V30 133 H 12.4267 5.45399 0.851139 0
M  V30 134 H 12.9037 4.02306 1.762 0
M  V30 135 H 13.5097 4.25169 0.105503 0
M  V30 136 N 11.8248 0.280983 1.55075 0
M  V30 137 C 13.0728 -0.333455 1.9933 0
M  V30 138 C 13.3938 -1.55937 1.17085 0
M  V30 139 O 12.6638 -1.94143 0.261805 0
M  V30 140 H 11.2438 -0.126197 0.736263 0
M  V30 141 H 13.9058 0.387678 1.91005 0
M  V30 142 H 13.0018 -0.619292 3.05894 0
M  V30 143 N 13.3029 -1.57598 0.00835791 0
M  V30 144 C 14.2359 -2.04409 -1.01451 0
M  V30 145 C 15.2139 -0.935609 -1.32985 0
M  V30 146 O 16.3979 -1.20437 -1.45007 0
M  V30 147 C 13.5249 -2.44872 -2.33999 0
M  V30 148 C 12.5709 -3.66535 -2.18069 0
M  V30 149 S 13.4039 -5.14095 -1.4989 0
M  V30 150 C 14.5599 -5.57835 -2.8385 0
M  V30 151 H 14.7929 -2.90849 -0.615961 0
M  V30 152 H 12.3259 -1.53063 -0.202752 0
M  V30 153 H 14.2839 -2.68852 -3.10208 0
M  V30 154 H 12.9449 -1.58815 -2.70992 0
M  V30 155 H 12.1379 -3.92626 -3.16008 0
M  V30 156 H 11.7399 -3.426 -1.50004 0
M  V30 157 H 14.0319 -5.60806 -3.80136 0
M  V30 158 H 14.9749 -6.57667 -2.62449 0
M  V30 159 H 15.3829 -4.85421 -2.88144 0
M  V30 160 N 14.781 0.264519 -1.55364 0
M  V30 161 C 15.729 1.34702 -1.89626 0
M  V30 162 C 16.723 1.50712 -0.773459 0
M  V30 163 O 17.929 1.52395 -0.957897 0
M  V30 164 H 14.304 0.450682 -0.601988 0
M  V30 165 H 16.275 1.0306 -2.80038 0
M  V30 166 C 15.024 2.6989 -2.19214 0
M  V30 167 H 14.347 2.58365 -3.05103 0
M  V30 168 H 15.787 3.44553 -2.47102 0
M  V30 169 C 14.246 3.21637 -1.00254 0
M  V30 170 O 14.776 4.00973 -0.241501 0
M  V30 171 N 12.982 2.7943 -0.797938 0
M  V30 172 H 12.529 2.15026 -1.4185 0
M  V30 173 H 12.487 3.144 -0.00363422 0
M  V30 174 N 16.2591 1.48442 0.529413 0
M  V30 175 C 17.5051 1.5672 1.28711 0
M  V30 176 C 17.8381 0.2406 1.92704 0
M  V30 177 O 17.1131 -0.753454 1.79313 0
M  V30 178 C 17.3961 2.70587 2.37603 0
M  V30 179 C 17.2491 4.12953 1.78297 0
M  V30 180 C 18.5681 2.80212 3.39366 0
M  V30 181 H 15.6871 0.570474 0.466613 0
M  V30 182 H 18.3291 1.80617 0.589706 0
M  V30 183 H 16.4791 2.50342 2.97088 0
M  V30 184 H 18.1511 4.44639 1.22858 0
M  V30 185 H 16.3941 4.19927 1.0883 0
M  V30 186 H 17.0651 4.88448 2.57144 0
M  V30 187 H 19.5411 2.98553 2.89836 0
M  V30 188 H 18.4171 3.61611 4.12951 0
M  V30 189 H 18.6781 1.88393 3.99951 0
M  V30 190 N 17.7372 -0.778329 1.37039 0
M  V30 191 C 18.7002 -1.87301 1.32102 0
M  V30 192 C 19.7002 -1.59198 0.226405 0
M  V30 193 O 20.8902 -1.67403 0.481861 0
M  V30 194 C 18.0222 -3.24309 1.05055 0
M  V30 195 H 19.2152 -1.93093 2.29467 0
M  V30 196 H 16.7682 -0.977358 1.21973 0
M  V30 197 H 17.5032 -3.24196 0.0819373 0
M  V30 198 H 17.2882 -3.46098 1.84279 0
M  V30 199 H 18.7782 -4.04382 1.04234 0
M  V30 200 N 19.2153 -1.21501 -1.00376 0
M  V30 201 C 20.4613 -1.03452 -1.74429 0
M  V30 202 C 20.7943 0.430764 -1.89362 0
M  V30 203 O 20.0693 1.31962 -1.42886 0
M  V30 204 C 20.3523 -1.73375 -3.15615 0
M  V30 205 C 20.2053 -3.27431 -3.08397 0
M  V30 206 C 21.5243 -1.47732 -4.14564 0
M  V30 207 H 18.6433 -0.377226 -0.633143 0
M  V30 208 H 21.2853 -1.49693 -1.17013 0
M  V30 209 H 19.4353 -1.34064 -3.64636 0
M  V30 210 H 21.1073 -3.76119 -2.67081 0
M  V30 211 H 19.3503 -3.5767 -2.45468 0
M  V30 212 H 20.0213 -3.71524 -4.08258 0
M  V30 213 H 22.4973 -1.8186 -3.74254 0
M  V30 214 H 21.3733 -1.99169 -5.11491 0
M  V30 215 H 21.6343 -0.407589 -4.40217 0
M  V30 216 N 20.6934 1.19889 -1.02296 0
M  V30 217 C 21.9394 1.89701 -0.717033 0
M  V30 218 C 22.2724 1.7905 0.751989 0
M  V30 219 O 21.5474 1.17891 1.547 0
M  V30 220 C 21.8304 3.40858 -1.16136 0
M  V30 221 C 21.6834 3.60411 -2.69117 0
M  V30 222 C 23.0024 4.33876 -0.737549 0
M  V30 223 H 20.1214 0.688874 -0.261957 0
M  V30 224 H 22.7634 1.41154 -1.27183 0
M  V30 225 H 20.9134 3.82335 -0.689342 0
M  V30 226 H 22.5854 3.28145 -3.2422 0
M  V30 227 H 20.8284 3.03665 -3.0979 0
M  V30 228 H 21.4994 4.66396 -2.95261 0
M  V30 229 H 23.9754 4.00081 -1.14344 0
M  V30 230 H 22.8514 5.38242 -1.0764 0
M  V30 231 H 23.1124 4.40628 0.360436 0
M  V30 232 N 22.1715 0.800033 1.35784 0
M  V30 233 C 23.4195 0.376597 1.9856 0
M  V30 234 C 23.7405 -1.05812 1.63795 0
M  V30 235 O 23.0105 -1.73103 0.917171 0
M  V30 236 H 21.5905 0.136261 0.734467 0
M  V30 237 H 24.2525 1.02442 1.65806 0
M  V30 238 H 23.3485 0.477002 3.08433 0
M  V30 239 N 23.6496 -1.47581 0.552962 0
M  V30 240 C 24.8976 -2.02082 0.0272703 0
M  V30 241 C 25.2186 -1.4301 -1.32563 0
M  V30 242 O 24.4886 -0.603745 -1.86365 0
M  V30 243 H 23.0686 -0.746966 0.00709182 0
M  V30 244 H 25.7306 -1.81033 0.722008 0
M  V30 245 H 24.8266 -3.12034 -0.0639951 0
M  V30 246 N 25.1277 -0.289203 -1.54924 0
M  V30 247 C 26.3757 0.322879 -1.99504 0
M  V30 248 C 26.6967 1.55313 -1.1791 0
M  V30 249 O 25.9667 1.94001 -0.272097 0
M  V30 250 H 24.5467 0.122291 -0.736922 0
M  V30 251 H 27.2087 -0.397802 -1.90797 0
M  V30 252 H 26.3047 0.603061 -3.06218 0
M  V30 253 N 26.6058 1.57591 -0.0167156 0
M  V30 254 C 27.8548 1.90461 0.663877 0
M  V30 255 C 28.1678 0.893515 1.73999 0
M  V30 256 O 29.3738 1.11302 2.47637 0
M  V30 257 C 27.8298 3.38155 1.23204 0
M  V30 258 C 27.4378 4.47597 0.189866 0
M  V30 259 C 29.1818 3.80111 1.88986 0
M  V30 260 C 27.0888 5.86379 0.768964 0
M  V30 261 H 26.0188 0.710738 0.251729 0
M  V30 262 H 28.6698 1.83326 -0.0799926 0
M  V30 263 H 27.0518 3.40182 2.02712 0
M  V30 264 H 28.2258 4.57112 -0.581846 0
M  V30 265 H 26.5408 4.14766 -0.368475 0
M  V30 266 H 29.1378 4.81145 2.33247 0
M  V30 267 H 29.4808 3.14511 2.72743 0
M  V30 268 H 30.0138 3.80454 1.16187 0
M  V30 269 H 26.7528 6.55493 -0.0301957 0
M  V30 270 H 26.2728 5.80496 1.50945 0
M  V30 271 H 27.9518 6.34563 1.26251 0
M  V30 272 N 28.0839 -0.256276 1.55502 0
M  V30 273 C 29.3089 -1.00766 1.81276 0
M  V30 274 C 29.7339 -1.78524 0.59252 0
M  V30 275 O 29.0919 -1.75413 -0.45827 0
M  V30 276 C 29.1399 -1.92869 3.04687 0
M  V30 277 O 28.2439 -3.019 2.80945 0
M  V30 278 H 27.5849 -0.287224 0.598664 0
M  V30 279 H 30.1149 -0.280109 2.02674 0
M  V30 280 H 30.1249 -2.34511 3.33869 0
M  V30 281 H 28.7999 -1.35689 3.93143 0
M  V30 282 H 27.3769 -2.64454 2.62904 0
M  V30 283 N 29.562 -1.4872 -0.521534 0
M  V30 284 C 30.81 -1.56857 -1.27437 0
M  V30 285 C 31.131 -0.247982 -1.93417 0
M  V30 286 O 30.401 0.731151 -1.81744 0
M  V30 287 H 28.981 -0.577885 -0.473347 0
M  V30 288 H 31.643 -1.85233 -0.606205 0
M  V30 289 H 30.739 -2.35402 -2.0492 0
M  V30 290 N 31.0401 0.771051 -1.3745 0
M  V30 291 C 31.9701 1.89827 -1.3597 0
M  V30 292 C 32.9511 1.68562 -0.228216 0
M  V30 293 O 34.1361 1.8941 -0.428675 0
M  V30 294 C 31.2661 3.2712 -1.16662 0
M  V30 295 C 30.2201 3.6295 -2.2683 0
M  V30 296 C 29.5461 4.98791 -1.92644 0
M  V30 297 C 30.8461 3.69627 -3.69017 0
M  V30 298 H 32.5401 1.91323 -2.30295 0
M  V30 299 H 30.0861 0.919082 -1.10855 0
M  V30 300 H 32.0391 4.05615 -1.14256 0
M  V30 301 H 30.7631 3.26059 -0.187926 0
M  V30 302 H 29.4221 2.86763 -2.28392 0
M  V30 303 H 29.0701 4.94271 -0.933021 0
M  V30 304 H 28.7701 5.23733 -2.66416 0
M  V30 305 H 30.2941 5.79685 -1.91826 0
M  V30 306 H 31.7081 4.38273 -3.69581 0
M  V30 307 H 30.1051 4.06067 -4.41848 0
M  V30 308 H 31.1751 2.70273 -4.02592 0
M  V30 309 N 32.5182 1.22032 0.997298 0
M  V30 310 C 33.4812 0.987909 2.06816 0
M  V30 311 C 34.4812 -0.0440084 1.6074 0
M  V30 312 O 35.6712 0.194053 1.73116 0
M  V30 313 C 32.8032 0.49132 3.37341 0
M  V30 314 H 33.9962 1.93803 2.28868 0
M  V30 315 H 31.5492 1.03838 1.16822 0
M  V30 316 H 32.2842 -0.463364 3.20973 0
M  V30 317 H 32.0692 1.23575 3.72118 0
M  V30 318 H 33.5592 0.348824 4.16141 0
M  V30 319 N 33.9963 -1.19345 1.0293 0
M  V30 320 C 35.2423 -1.89318 0.727083 0
M  V30 321 C 35.5753 -1.79446 -0.742483 0
M  V30 322 O 34.8503 -1.1871 -1.54072 0
M  V30 323 C 35.1333 -3.40238 1.17942 0
M  V30 324 C 34.9863 -3.58979 2.71024 0
M  V30 325 C 36.3053 -4.33479 0.760548 0
M  V30 326 H 33.4243 -0.687475 0.265606 0
M  V30 327 H 36.0663 -1.40477 1.2793 0
M  V30 328 H 34.2163 -3.81964 0.709608 0
M  V30 329 H 35.8883 -3.26421 3.25955 0
M  V30 330 H 34.1313 -3.02018 3.11396 0
M  V30 331 H 34.8023 -4.64823 2.9773 0
M  V30 332 H 37.2783 -3.99469 1.16464 0
M  V30 333 H 36.1543 -5.37664 1.10493 0
M  V30 334 H 36.4153 -4.40813 -0.337063 0
M  V30 335 N 35.4744 -0.807222 -1.35358 0
M  V30 336 C 36.4374 -0.223665 -2.28106 0
M  V30 337 C 37.4374 0.589354 -1.4961 0
M  V30 338 O 38.6274 0.407745 -1.69361 0
M  V30 339 C 35.7594 0.688149 -3.33882 0
M  V30 340 H 36.9524 -1.04169 -2.81227 0
M  V30 341 H 34.5054 -0.577921 -1.45223 0
M  V30 342 H 35.2404 1.52984 -2.85948 0
M  V30 343 H 35.0254 0.10687 -3.91954 0
M  V30 344 H 36.5154 1.09075 -4.03104 0
M  V30 345 N 36.9525 1.47285 -0.560781 0
M  V30 346 C 37.9025 2.27073 0.205384 0
M  V30 347 C 38.8865 1.34569 0.882044 0
M  V30 348 O 40.0785 1.58899 0.77976 0
M  V30 349 C 37.2075 3.20414 1.23247 0
M  V30 350 C 36.2935 4.20399 0.559041 0
M  V30 351 N 36.6845 5.04423 -0.372927 0
M  V30 352 C 34.9825 4.38536 0.812522 0
M  V30 353 C 35.6835 5.76655 -0.764446 0
M  V30 354 N 34.6595 5.43471 -0.11848 0
M  V30 355 H 38.4615 2.89422 -0.511117 0
M  V30 356 H 35.9755 1.57868 -0.380975 0
M  V30 357 H 37.9725 3.76262 1.79534 0
M  V30 358 H 36.6325 2.59623 1.95002 0
M  V30 359 H 37.6435 5.1248 -0.747287 0
M  V30 360 H 34.3205 3.88913 1.51832 0
M  V30 361 H 35.7105 6.54238 -1.53045 0
M  V30 362 N 38.4306 0.297415 1.54768 0
M  V30 363 C 39.3806 -0.595275 2.20092 0
M  V30 364 C 40.3646 -1.10163 1.17273 0
M  V30 365 O 41.5566 -1.043 1.43006 0
M  V30 366 C 38.6856 -1.7684 2.94249 0
M  V30 367 C 37.7716 -1.27818 4.0438 0
M  V30 368 N 38.1626 -0.505695 5.03266 0
M  V30 369 C 36.4606 -1.55923 4.17857 0
M  V30 370 C 37.1616 -0.245094 5.81183 0
M  V30 371 N 36.1376 -0.823881 5.3732 0
M  V30 372 H 39.9396 0.00250837 2.939 0
M  V30 373 H 37.4536 0.102007 1.62079 0
M  V30 374 H 39.4506 -2.41944 3.39513 0
M  V30 375 H 38.1106 -2.36992 2.21957 0
M  V30 376 H 39.1216 -0.150928 5.1768 0
M  V30 377 H 35.7986 -2.16849 3.56767 0
M  V30 378 H 37.1886 0.375084 6.70852 0
M  V30 379 N 39.9087 -1.5758 0.0250728 0
M  V30 380 C 40.8387 -2.13007 -0.956575 0
M  V30 381 C 41.8197 -1.0452 -1.342 0
M  V30 382 O 43.0047 -1.32332 -1.42133 0
M  V30 383 C 40.1347 -2.65386 -2.24026 0
M  V30 384 C 39.0887 -3.78623 -1.99571 0
M  V30 385 C 38.4147 -4.17414 -3.3417 0
M  V30 386 C 39.7147 -5.04867 -1.33814 0
M  V30 387 H 41.4087 -2.9528 -0.494991 0
M  V30 388 H 38.9547 -1.42042 -0.236651 0
M  V30 389 H 40.9077 -3.02794 -2.93076 0
M  V30 390 H 39.6317 -1.80268 -2.72343 0
M  V30 391 H 38.2907 -3.41646 -1.32941 0
M  V30 392 H 37.9387 -3.29284 -3.80238 0
M  V30 393 H 37.6387 -4.93719 -3.18615 0
M  V30 394 H 39.1627 -4.57402 -4.04495 0
M  V30 395 H 40.5767 -5.39888 -1.92857 0
M  V30 396 H 38.9737 -5.86144 -1.28669 0
M  V30 397 H 40.0437 -4.83904 -0.310561 0
M  V30 398 N 41.3868 0.248026 -1.55636 0
M  V30 399 C 42.8028 0.596483 -1.48035 0
M  V30 400 C 43.0028 1.88386 -0.715039 0
M  V30 401 O 42.0588 2.51319 -0.243944 0
M  V30 402 C 43.3718 0.700258 -2.92433 0
M  V30 403 C 44.9198 0.792659 -3.02797 0
M  V30 404 C 45.3948 0.928005 -4.485 0
M  V30 405 N 46.8858 0.992903 -4.52433 0
M  V30 406 C 47.6208 1.11687 -5.62418 0
M  V30 407 N 47.1168 1.20645 -6.82214 0
M  V30 408 N 48.9098 1.14994 -5.50212 0
M  V30 409 H 41.0608 -0.597109 -2.03834 0
M  V30 410 H 43.3238 -0.205925 -0.925364 0
M  V30 411 H 43.0298 -0.175658 -3.51261 0
M  V30 412 H 42.9038 1.57255 -3.42857 0
M  V30 413 H 45.2908 1.65903 -2.4405 0
M  V30 414 H 45.3718 -0.104762 -2.55585 0
M  V30 415 H 45.0158 0.0661971 -5.07857 0
M  V30 416 H 44.9458 1.84045 -4.93391 0
M  V30 417 H 47.4368 0.935064 -3.66149 0
M  V30 418 H 47.7498 1.30008 -7.61786 0
M  V30 419 H 46.0948 1.17605 -6.84977 0
M  V30 420 H 49.2858 1.07643 -4.55555 0
M  V30 421 H 49.4588 1.24311 -6.35965 0
M  V30 422 N 42.8649 1.48995 0.513639 0
M  V30 423 C 44.0899 1.61792 1.29762 0
M  V30 424 C 44.5149 0.284475 1.85936 0
M  V30 425 O 43.8729 -0.746185 1.65232 0
M  V30 426 C 43.9209 2.67993 2.41272 0
M  V30 427 O 43.0249 2.26287 3.44772 0
M  V30 428 H 42.3659 0.541963 0.38363 0
M  V30 429 H 44.8959 1.95097 0.616307 0
M  V30 430 H 44.9059 2.89772 2.87221 0
M  V30 431 H 43.5809 3.64791 1.9975 0
M  V30 432 H 42.1579 2.14788 3.04829 0
M  V30 433 N 44.343 -0.763751 1.37857 0
M  V30 434 C 45.759 -1.06542 1.18832 0
M  V30 435 C 45.959 -2.01478 0.0299722 0
M  V30 436 O 45.015 -2.4458 -0.627447 0
M  V30 437 C 46.328 -1.65525 2.51042 0
M  V30 438 C 47.876 -1.77745 2.57635 0
M  V30 439 C 48.351 -2.4014 3.89996 0
M  V30 440 N 49.842 -2.47582 3.91481 0
M  V30 441 C 50.577 -2.96732 4.9065 0
M  V30 442 N 50.073 -3.45993 6.00217 0
M  V30 443 N 51.866 -2.95679 4.78048 0
M  V30 444 H 44.017 -0.133556 2.1198 0
M  V30 445 H 46.28 -0.121879 0.940133 0
M  V30 446 H 45.986 -1.03236 3.36207 0
M  V30 447 H 45.86 -2.64719 2.68707 0
M  V30 448 H 48.247 -2.39164 1.72872 0
M  V30 449 H 48.328 -0.772836 2.43846 0
M  V30 450 H 47.972 -1.79358 4.75177 0
M  V30 451 H 47.902 -3.41223 4.01092 0
M  V30 452 H 50.393 -2.1273 3.12337 0
M  V30 453 H 50.706 -3.81922 6.7183 0
M  V30 454 H 49.051 -3.44077 6.03851 0
M  V30 455 H 52.242 -2.56499 3.91568 0
M  V30 456 H 52.415 -3.33672 5.55488 0
M  V30 457 N 45.8211 -1.22559 -0.990812 0
M  V30 458 C 47.0691 -1.04933 -1.72724 0
M  V30 459 C 47.3901 0.416158 -1.90508 0
M  V30 460 O 46.6601 1.29918 -1.46622 0
M  V30 461 H 45.2401 -0.385296 -0.639965 0
M  V30 462 H 47.9021 -1.54105 -1.19322 0
M  V30 463 H 46.9981 -1.52886 -2.72089 0
M  V30 464 N 47.2992 1.18797 -1.03562 0
M  V30 465 C 48.5272 1.92599 -0.755869 0
M  V30 466 C 48.9422 1.75886 0.686271 0
M  V30 467 O 48.2992 1.08517 1.46732 0
M  V30 468 C 48.3502 3.44159 -1.10619 0
M  V30 469 O 48.0712 3.60341 -2.4917 0
M  V30 470 C 49.5722 4.3507 -0.850214 0
M  V30 471 H 46.7922 0.611587 -0.276048 0
M  V30 472 H 49.3362 1.50742 -1.38192 0
M  V30 473 H 47.4912 3.83823 -0.525194 0
M  V30 474 H 47.9052 4.54128 -2.62427 0
M  V30 475 H 49.3792 5.39989 -1.14523 0
M  V30 476 H 49.8562 4.38673 0.215176 0
M  V30 477 H 50.4622 4.01097 -1.41426 0
M  V30 478 N 48.7773 0.814389 1.34928 0
M  V30 479 C 50.0543 0.321363 1.92942 0
M  V30 480 C 50.4343 -1.19014 1.74353 0
M  V30 481 O 49.7823 -1.99328 1.11716 0
M  V30 482 C 49.9923 0.741323 3.41036 0
M  V30 483 C 51.3403 0.735266 4.18185 0
M  V30 484 O 52.3643 0.68336 3.49584 0
M  V30 485 O 51.2233 0.800703 5.40602 0
M  V30 486 H 48.3173 0.0858893 0.822528 0
M  V30 487 H 50.8633 0.898609 1.43955 0
M  V30 488 H 49.6353 1.78276 3.4833 0
M  V30 489 H 49.2583 0.139307 3.97356 0
M  V30 490 N 50.2554 -1.46986 0.568584 0
M  V30 491 C 51.2184 -2.28624 -0.162366 0
M  V30 492 C 52.2184 -1.37596 -0.832103 0
M  V30 493 O 53.4084 -1.60115 -0.68622 0
M  V30 494 C 50.5404 -3.17596 -1.23878 0
M  V30 495 H 51.7334 -2.94722 0.554899 0
M  V30 496 H 49.2864 -1.52863 0.325976 0
M  V30 497 H 50.0214 -2.56214 -1.98808 0
M  V30 498 H 49.8064 -3.846 -0.763219 0
M  V30 499 H 51.2964 -3.79078 -1.75185 0
M  V30 500 N 51.7335 -0.305618 -1.54608 0
M  V30 501 C 52.9795 0.302746 -2.00528 0
M  V30 502 C 53.3125 1.53184 -1.19367 0
M  V30 503 O 52.5875 1.92598 -0.271321 0
M  V30 504 C 52.8705 0.654756 -3.54097 0
M  V30 505 C 52.7235 -0.583793 -4.45995 0
M  V30 506 C 54.0425 1.47947 -4.14487 0
M  V30 507 H 51.1615 0.108564 -0.72896 0
M  V30 508 H 53.8035 -0.418634 -1.85331 0
M  V30 509 H 51.9535 1.26935 -3.67178 0
M  V30 510 H 53.6255 -1.22224 -4.44814 0
M  V30 511 H 51.8685 -1.21615 -4.16404 0
M  V30 512 H 52.5395 -0.293287 -5.5122 0
M  V30 513 H 55.0155 0.96013 -4.04871 0
M  V30 514 H 53.8915 1.69454 -5.22088 0
M  V30 515 H 54.1525 2.47011 -3.66658 0
M  V30 516 N 53.2116 1.57565 -0.0334293 0
M  V30 517 C 54.1416 2.13511 0.945265 0
M  V30 518 C 55.1226 1.05231 1.33643 0
M  V30 519 O 56.3076 1.33084 1.41429 0
M  V30 520 C 53.4376 2.6657 2.22616 0
M  V30 521 C 52.3916 3.79676 1.97561 0
M  V30 522 C 51.7176 4.1918 3.31952 0
M  V30 523 C 53.0176 5.0557 1.31135 0
M  V30 524 H 54.7116 2.95538 0.479325 0
M  V30 525 H 52.2576 1.42166 0.229115 0
M  V30 526 H 54.2106 3.04344 2.91466 0
M  V30 527 H 52.9346 1.8171 2.71384 0
M  V30 528 H 51.5936 3.42347 1.31127 0
M  V30 529 H 51.2416 3.31296 3.78487 0
M  V30 530 H 50.9416 4.95402 3.15992 0
M  V30 531 H 52.4656 4.59541 4.02063 0
M  V30 532 H 53.8796 5.40903 1.89992 0
M  V30 533 H 52.2766 5.86818 1.25559 0
M  V30 534 H 53.3466 4.84062 0.284894 0
M  V30 535 N 54.6897 -0.239769 1.55765 0
M  V30 536 C 55.6197 -1.30052 1.9393 0
M  V30 537 C 56.6007 -1.49839 0.805132 0
M  V30 538 O 57.7857 -1.62328 1.06599 0
M  V30 539 C 54.9157 -2.65391 2.2402 0
M  V30 540 C 53.8697 -2.60289 3.39755 0
M  V30 541 C 53.1957 -3.99489 3.55405 0
M  V30 542 C 54.4957 -2.16654 4.75246 0
M  V30 543 H 56.1897 -0.983573 2.82783 0
M  V30 544 H 53.7357 -0.471701 1.36055 0
M  V30 545 H 55.6887 -3.3974 2.49308 0
M  V30 546 H 54.4127 -2.98736 1.32 0
M  V30 547 H 53.0717 -1.88398 3.14487 0
M  V30 548 H 52.7197 -4.30112 2.60793 0
M  V30 549 H 52.4197 -3.96962 4.33238 0
M  V30 550 H 53.9437 -4.75528 3.83022 0
M  V30 551 H 55.3577 -2.80737 4.99859 0
M  V30 552 H 53.7547 -2.25223 5.56232 0
M  V30 553 H 54.8247 -1.11835 4.71827 0
M  V30 554 N 56.1678 -1.49265 -0.50573 0
M  V30 555 C 57.0778 -1.68312 -1.63427 0
M  V30 556 C 58.0938 -0.565682 -1.64548 0
M  V30 557 O 59.2698 -0.839801 -1.83055 0
M  V30 558 C 56.3348 -1.74107 -2.99813 0
M  V30 559 C 55.3958 -2.97653 -3.09356 0
M  V30 560 C 54.6288 -3.03163 -4.39236 0
M  V30 561 O 54.8518 -2.16396 -5.27758 0
M  V30 562 O 53.7858 -3.9558 -4.53652 0
M  V30 563 H 57.6118 -2.63907 -1.50289 0
M  V30 564 H 55.1968 -1.32951 -0.681502 0
M  V30 565 H 57.0788 -1.803 -3.80881 0
M  V30 566 H 55.7538 -0.816901 -3.13223 0
M  V30 567 H 54.6608 -2.96981 -2.27493 0
M  V30 568 H 55.9938 -3.89535 -3.00871 0
M  V30 569 N 57.6459 0.756429 -1.3826 0
M  V30 570 C 58.8709 1.55077 -1.37717 0
M  V30 571 C 59.2959 1.88073 0.03164 0
M  V30 572 O 58.6539 1.50364 1.01293 0
M  V30 573 C 58.7019 2.8283 -2.23695 0
M  V30 574 O 57.8059 3.77862 -1.6521 0
M  V30 575 H 57.1469 0.469152 -0.469885 0
M  V30 576 H 59.6769 0.935019 -1.81985 0
M  V30 577 H 59.6869 3.31783 -2.37453 0
M  V30 578 H 58.3619 2.58144 -3.2609 0
M  V30 579 H 56.9389 3.36555 -1.60578 0
M  V30 580 N 59.124 1.23083 0.984299 0
M  V30 581 C 60.349 1.088 1.76571 0
M  V30 582 C 60.774 -0.356657 1.84688 0
M  V30 583 O 60.132 -1.25788 1.30565 0
M  V30 584 C 60.18 1.71371 3.17277 0
M  V30 585 O 59.284 0.973213 4.00752 0
M  V30 586 H 58.625 0.381599 0.543395 0
M  V30 587 H 61.155 1.63057 1.23587 0
M  V30 588 H 61.165 1.76449 3.67872 0
M  V30 589 H 59.84 2.76493 3.10684 0
M  V30 590 H 58.417 0.999078 3.59267 0
M  V30 591 N 60.6021 -1.18246 1.0419 0
M  V30 592 C 61.5651 -2.20128 0.638452 0
M  V30 593 C 62.5651 -1.57885 -0.304805 0
M  V30 594 O 63.7551 -1.73967 -0.0900369 0
M  V30 595 C 60.8871 -3.4084 -0.0637751 0
M  V30 596 H 62.0801 -2.57336 1.54007 0
M  V30 597 H 59.6331 -1.32152 0.834598 0
M  V30 598 H 60.3681 -3.09166 -0.979136 0
M  V30 599 H 60.1531 -3.8726 0.614198 0
M  V30 600 H 61.6431 -4.16274 -0.332512 0
M  V30 601 N 62.0802 -0.821533 -1.34494 0
M  V30 602 C 63.4962 -0.507117 -1.51329 0
M  V30 603 C 63.6962 0.968964 -1.76673 0
M  V30 604 O 62.7522 1.75348 -1.81685 0
M  V30 605 C 64.0652 -1.36544 -2.67911 0
M  V30 606 C 65.6132 -1.36242 -2.81793 0
M  V30 607 C 66.0882 -2.2052 -4.01416 0
M  V30 608 N 67.5792 -2.18136 -4.08621 0
M  V30 609 C 68.3142 -2.80095 -5.00334 0
M  V30 610 N 67.8102 -3.51039 -5.9728 0
M  V30 611 N 69.6032 -2.69656 -4.93196 0
M  V30 612 H 61.7542 -1.77729 -1.16302 0
M  V30 613 H 64.0172 -0.757291 -0.570276 0
M  V30 614 H 63.7232 -2.41361 -2.55808 0
M  V30 615 H 63.5972 -1.02917 -3.62888 0
M  V30 616 H 65.9842 -0.322041 -2.93338 0
M  V30 617 H 66.0652 -1.73866 -1.87628 0
M  V30 618 H 65.7092 -3.24607 -3.90631 0
M  V30 619 H 65.6392 -1.80247 -4.94791 0
M  V30 620 H 68.1302 -1.6653 -3.39229 0
M  V30 621 H 68.4432 -3.95565 -6.63889 0
M  V30 622 H 66.7882 -3.55145 -5.97409 0
M  V30 623 H 69.9792 -2.13808 -4.16418 0
M  V30 624 H 70.1522 -3.1823 -5.64476 0
M  V30 625 N 63.5583 1.46682 -0.576371 0
M  V30 626 C 64.4883 2.33028 0.148397 0
M  V30 627 C 65.4693 1.44961 0.889956 0
M  V30 628 O 66.6543 1.73789 0.866662 0
M  V30 629 C 63.7843 3.27117 1.1667 0
M  V30 630 C 62.7383 4.24575 0.540386 0
M  V30 631 C 62.0643 5.08126 1.6647 0
M  V30 632 C 63.3643 5.19722 -0.518331 0
M  V30 633 H 65.0583 2.93875 -0.572509 0
M  V30 634 H 62.6043 1.41315 -0.276768 0
M  V30 635 H 64.5573 3.86374 1.68204 0
M  V30 636 H 63.2813 2.64364 1.9178 0
M  V30 637 H 61.9403 3.66571 0.0461769 0
M  V30 638 H 61.5883 4.41762 2.40531 0
M  V30 639 H 61.2883 5.74122 1.25131 0
M  V30 640 H 62.8123 5.70246 2.18293 0
M  V30 641 H 64.2263 5.73232 -0.0883058 0
M  V30 642 H 62.6233 5.94026 -0.851679 0
M  V30 643 H 63.6933 4.64037 -1.40703 0
M  V30 644 N 65.0364 0.313813 1.54444 0
M  V30 645 C 66.2844 -0.291099 1.99993 0
M  V30 646 C 66.6054 -1.53418 1.20366 0
M  V30 647 O 65.8754 -1.93544 0.302927 0
M  V30 648 H 64.4554 -0.110552 0.738774 0
M  V30 649 H 67.1174 0.428106 1.9014 0
M  V30 650 H 66.2134 -0.554268 3.07139 0
M  V30 651 N 66.5145 -1.57545 0.0417849 0
M  V30 652 C 67.7625 -1.91937 -0.632829 0
M  V30 653 C 68.0835 -0.919978 -1.71934 0
M  V30 654 O 67.3535 0.0366064 -1.95866 0
M  V30 655 H 65.9335 -0.708493 -0.236742 0
M  V30 656 H 68.5955 -1.9468 0.0925745 0
M  V30 657 H 67.6915 -2.92912 -1.07746 0
M  V30 658 N 67.9926 0.231505 -1.5589 0
M  V30 659 C 68.9556 1.27028 -1.90779 0
M  V30 660 C 69.9556 1.40308 -0.785507 0
M  V30 661 O 71.1456 1.38744 -1.05336 0
M  V30 662 C 68.2776 2.64566 -2.14983 0
M  V30 663 H 69.4706 0.973017 -2.83677 0
M  V30 664 H 67.0236 0.471486 -1.49019 0
M  V30 665 H 67.7586 2.99406 -1.24604 0
M  V30 666 H 67.5436 2.56305 -2.96732 0
M  V30 667 H 69.0336 3.39543 -2.43105 0
M  V30 668 N 69.4707 1.49531 0.497807 0
M  V30 669 C 70.7167 1.59415 1.25358 0
M  V30 670 C 71.0497 0.281422 1.9215 0
M  V30 671 O 70.3247 -0.715249 1.80871 0
M  V30 672 C 70.6077 2.75566 2.3181 0
M  V30 673 C 70.4607 4.16642 1.69498 0
M  V30 674 C 71.7797 2.87347 3.33346 0
M  V30 675 H 68.8987 0.580244 0.454408 0
M  V30 676 H 71.5407 1.81827 0.551262 0
M  V30 677 H 69.6907 2.56587 2.91711 0
M  V30 678 H 71.3627 4.47145 1.13399 0
M  V30 679 H 69.6057 4.22141 0.998978 0
M  V30 680 H 70.2767 4.93792 2.46725 0
M  V30 681 H 72.7527 3.04634 2.83438 0
M  V30 682 H 71.6287 3.70289 4.05188 0
M  V30 683 H 71.8897 1.96834 3.95865 0
M  V30 684 N 70.9488 -0.749086 1.3866 0
M  V30 685 C 72.1968 -1.50535 1.34847 0
M  V30 686 C 72.5178 -1.94909 -0.0595016 0
M  V30 687 O 71.7878 -1.67973 -1.00806 0
M  V30 688 H 70.3678 -0.558395 0.49619 0
M  V30 689 H 73.0298 -0.890165 1.73384 0
M  V30 690 H 72.1258 -2.39413 2.00219 0
M  V30 691 N 72.4269 -1.23603 -0.977757 0
M  V30 692 C 73.6549 -1.09646 -1.75458 0
M  V30 693 C 74.0699 0.351859 -1.85492 0
M  V30 694 O 73.4269 1.24327 -1.336 0
M  V30 695 C 73.4779 -1.71895 -3.18016 0
M  V30 696 O 73.1989 -3.11063 -3.08498 0
M  V30 697 C 74.6999 -1.63415 -4.12081 0
M  V30 698 H 71.9199 -0.38359 -0.550545 0
M  V30 699 H 74.4639 -1.63507 -1.22824 0
M  V30 700 H 72.6189 -1.22061 -3.67668 0
M  V30 701 H 73.0329 -3.41305 -3.9826 0
M  V30 702 H 74.5069 -2.11669 -5.09804 0
M  V30 703 H 74.9839 -0.593462 -4.35172 0
M  V30 704 H 75.5899 -2.12628 -3.68334 0
M  V30 705 N 73.905 1.17692 -1.04816 0
M  V30 706 C 74.855 2.1952 -0.616042 0
M  V30 707 C 75.839 1.57147 0.345485 0
M  V30 708 O 77.031 1.76245 0.163325 0
M  V30 709 C 74.16 3.43298 0.0116917 0
M  V30 710 C 73.246 4.12777 -0.973435 0
M  V30 711 N 73.637 4.5814 -2.14339 0
M  V30 712 C 71.935 4.38747 -0.80108 0
M  V30 713 C 72.636 5.11713 -2.7663 0
M  V30 714 N 71.612 5.03686 -2.04453 0
M  V30 715 H 75.414 2.52293 -1.5075 0
M  V30 716 H 72.928 1.3398 -0.917776 0
M  V30 717 H 74.925 4.15519 0.339006 0
M  V30 718 H 73.585 3.12018 0.898593 0
M  V30 719 H 74.596 4.52349 -2.52191 0
M  V30 720 H 71.273 4.17485 0.0350934 0
M  V30 721 H 72.663 5.56962 -3.75823 0
M  V30 722 N 75.3831 0.828654 1.34056 0
M  V30 723 C 76.3461 0.259927 2.27721 0
M  V30 724 C 77.3461 -0.565478 1.50529 0
M  V30 725 O 78.5361 -0.38075 1.69988 0
M  V30 726 C 75.6681 -0.634944 3.34935 0
M  V30 727 H 76.8611 1.0863 2.79534 0
M  V30 728 H 74.4141 0.600951 1.44285 0
M  V30 729 H 75.1491 -1.48416 2.88346 0
M  V30 730 H 74.9341 -0.0444999 3.92075 0
M  V30 731 H 76.4241 -1.02648 4.04788 0
M  V30 732 N 76.8612 -1.46375 0.584142 0
M  V30 733 C 77.7912 -2.33103 -0.136037 0
M  V30 734 C 78.7722 -1.45431 -0.882255 0
M  V30 735 O 79.9572 -1.74246 -0.857434 0
M  V30 736 C 77.0872 -3.27731 -1.14933 0
M  V30 737 C 76.0412 -4.24855 -0.517862 0
M  V30 738 C 75.3672 -5.09001 -1.63773 0
M  V30 739 C 76.6672 -5.19439 0.545886 0
M  V30 740 H 78.3612 -2.93568 0.588086 0
M  V30 741 H 75.9072 -1.41166 0.284259 0
M  V30 742 H 77.8602 -3.87261 -1.66153 0
M  V30 743 H 76.5842 -2.65377 -1.90375 0
M  V30 744 H 75.2432 -3.6659 -0.0267361 0
M  V30 745 H 74.8912 -4.43031 -2.38185 0
M  V30 746 H 74.5912 -5.74777 -1.22085 0
M  V30 747 H 76.1152 -5.71396 -2.15266 0
M  V30 748 H 77.5292 -5.73177 0.118704 0
M  V30 749 H 75.9262 -5.93566 0.88317 0
M  V30 750 H 76.9962 -4.63285 1.43162 0
M  V30 751 N 78.3393 -0.321999 -1.54275 0
M  V30 752 C 79.3023 0.531975 -2.22941 0
M  V30 753 C 80.3023 1.04478 -1.22234 0
M  V30 754 O 81.4923 0.937452 -1.46825 0
M  V30 755 C 78.6243 1.73874 -2.93224 0
M  V30 756 H 79.8173 -0.0682612 -2.99822 0
M  V30 757 H 77.3703 -0.0730644 -1.56129 0
M  V30 758 H 78.1053 2.37825 -2.20476 0
M  V30 759 H 77.8903 1.37847 -3.6707 0
M  V30 760 H 79.3803 2.34496 -3.45545 0
M  V30 761 N 79.8174 1.5752 -0.0501392 0
M  V30 762 C 81.0654 1.9227 0.622642 0
M  V30 763 C 81.3864 0.929083 1.71444 0
M  V30 764 O 80.6564 -0.0262186 1.95882 0
M  V30 765 H 79.2364 0.709739 0.232981 0
M  V30 766 H 81.8984 1.94628 -0.102898 0
M  V30 767 H 80.9944 2.93479 1.06191 0
M  V30 768 N 81.2955 -0.223234 1.56011 0
M  V30 769 C 82.5255 -0.963413 1.82762 0
M  V30 770 C 82.9335 -1.78516 0.626804 0
M  V30 771 O 82.2765 -1.78974 -0.414014 0
M  V30 772 C 82.3385 -1.93126 3.0322 0
M  V30 773 C 82.0025 -1.2942 4.38291 0
M  V30 774 C 82.9995 -0.684916 5.15369 0
M  V30 775 C 80.6845 -1.30647 4.85012 0
M  V30 776 C 82.6785 -0.0963971 6.37327 0
M  V30 777 C 80.3655 -0.71411 6.06913 0
M  V30 778 C 81.3635 -0.110123 6.82911 0
M  V30 779 O 81.0515 0.47303 8.02507 0
M  V30 780 H 80.7835 -0.288011 0.611576 0
M  V30 781 H 83.3375 -0.244103 2.03944 0
M  V30 782 H 81.5675 -2.68952 2.77852 0
M  V30 783 H 83.2565 -2.53685 3.16857 0
M  V30 784 H 84.0225 -0.667774 4.80381 0
M  V30 785 H 79.9015 -1.76598 4.25833 0
M  V30 786 H 83.4455 0.375657 6.96588 0
M  V30 787 H 79.3425 -0.728659 6.41374 0
M  V30 788 H 80.1105 0.367186 8.17676 0
M  V30 789 N 82.7736 -1.49793 -0.48987 0
M  V30 790 C 83.7036 -1.70201 -1.59856 0
M  V30 791 C 84.6846 -0.55076 -1.60937 0
M  V30 792 O 85.8696 -0.787841 -1.77501 0
M  V30 793 C 82.9996 -1.77882 -2.98287 0
M  V30 794 C 81.9536 -2.92907 -3.12073 0
M  V30 795 C 81.2796 -2.85712 -4.51965 0
M  V30 796 C 82.5796 -4.3369 -2.91051 0
M  V30 797 H 84.2736 -2.63025 -1.43032 0
M  V30 798 H 81.8196 -1.26574 -0.686664 0
M  V30 799 H 83.7726 -1.90744 -3.75759 0
M  V30 800 H 82.4966 -0.816653 -3.16225 0
M  V30 801 H 81.1556 -2.79665 -2.37029 0
M  V30 802 H 80.8036 -1.8738 -4.66795 0
M  V30 803 H 80.5036 -3.62921 -4.62128 0
M  V30 804 H 82.0276 -3.00598 -5.31482 0
M  V30 805 H 83.4416 -4.47555 -3.58284 0
M  V30 806 H 81.8386 -5.12205 -3.12675 0
M  V30 807 H 82.9086 -4.47362 -1.87071 0
M  V30 808 N 84.2517 0.741722 -1.39055 0
M  V30 809 C 85.4977 1.50336 -1.36113 0
M  V30 810 C 85.8307 1.94148 0.0450796 0
M  V30 811 O 85.1057 1.66301 1.00868 0
M  V30 812 C 85.3887 2.74773 -2.32749 0
M  V30 813 C 85.2417 2.37023 -3.82283 0
M  V30 814 C 86.5607 3.76846 -2.27322 0
M  V30 815 H 83.6797 0.545351 -0.495743 0
M  V30 816 H 86.3217 0.848624 -1.69995 0
M  V30 817 H 84.4717 3.30639 -2.03986 0
M  V30 818 H 86.1437 1.8684 -4.21768 0
M  V30 819 H 84.3867 1.69334 -3.99385 0
M  V30 820 H 85.0577 3.26104 -4.45376 0
M  V30 821 H 87.5337 3.30548 -2.5274 0
M  V30 822 H 86.4097 4.6159 -2.97028 0
M  V30 823 H 86.6707 4.23286 -1.27599 0
M  V30 824 N 85.7298 1.2412 0.971189 0
M  V30 825 C 86.6398 1.04747 2.09917 0
M  V30 826 C 87.6558 -0.0107162 1.73997 0
M  V30 827 O 88.8318 0.186714 2.00533 0
M  V30 828 C 85.8968 0.650828 3.40537 0
M  V30 829 C 84.9578 1.7851 3.90426 0
M  V30 830 C 84.1908 1.40729 5.14812 0
M  V30 831 O 84.4138 0.29557 5.69634 0
M  V30 832 O 83.3478 2.23168 5.58999 0
M  V30 833 H 87.1738 1.99304 2.29154 0
M  V30 834 H 84.7588 1.02908 1.08307 0
M  V30 835 H 86.6408 0.440992 4.19086 0
M  V30 836 H 85.3158 -0.265649 3.22608 0
M  V30 837 H 84.2228 2.04966 3.12953 0
M  V30 838 H 85.5558 2.68023 4.12825 0
M  V30 839 N 87.2079 -1.17134 1.05439 0
M  V30 840 C 88.1399 -2.2078 0.615539 0
M  V30 841 C 89.1529 -1.59584 -0.322001 0
M  V30 842 O 90.3419 -1.78133 -0.114344 0
M  V30 843 C 87.4419 -3.38691 -0.118938 0
M  V30 844 C 86.6149 -4.29454 0.829924 0
M  V30 845 C 85.6739 -5.26024 0.136258 0
M  V30 846 O 84.6999 -5.63952 0.77115 0
M  V30 847 N 85.9019 -5.69487 -1.1254 0
M  V30 848 H 88.6669 -2.59052 1.50705 0
M  V30 849 H 86.2279 -1.32058 0.936603 0
M  V30 850 H 88.2199 -4.00329 -0.593179 0
M  V30 851 H 86.7899 -2.98996 -0.91215 0
M  V30 852 H 86.0099 -3.65211 1.48373 0
M  V30 853 H 87.2979 -4.86984 1.47392 0
M  V30 854 H 86.6959 -5.4075 -1.6615 0
M  V30 855 H 85.2529 -6.33257 -1.54366 0
M  V30 856 N 88.686 -0.835752 -1.33615 0
M  V30 857 C 89.934 -0.429109 -1.97492 0
M  V30 858 C 90.255 1.01433 -1.66543 0
M  V30 859 O 89.525 1.70611 -0.962744 0
M  V30 860 H 88.105 -0.155686 -0.730596 0
M  V30 861 H 90.767 -1.06802 -1.63031 0
M  V30 862 H 89.863 -0.55861 -3.0706 0
M  V30 863 N 90.1641 1.46063 -0.591896 0
M  V30 864 C 91.5751 1.85944 -0.167822 0
M  V30 865 C 91.9261 1.49429 1.27143 0
M  V30 866 O 91.0511 0.913515 1.96173 0
M  V30 867 C 91.6461 3.37489 -0.297794 0
M  V30 868 C 90.2051 3.76332 0.0714732 0
M  V30 869 C 89.3521 2.7006 -0.629509 0
M  V30 870 H 92.3031 1.37087 -0.799555 0
M  V30 871 H 92.3241 3.77532 0.474349 0
M  V30 872 H 91.8361 3.64034 -1.3454 0
M  V30 873 H 89.9371 3.55405 1.11886 0
M  V30 874 H 90.0501 4.78088 -0.311245 0
M  V30 875 H 88.4141 2.54607 -0.0687867 0
M  V30 876 H 89.1971 2.99444 -1.67894 0
M  V30 877 N 91.6422 0.330177 1.54103 0
M  V30 878 C 92.5902 -0.548226 2.26047 0
M  V30 879 C 93.5842 -1.11309 1.27698 0
M  V30 880 O 94.7902 -1.06036 1.45452 0
M  V30 881 H 91.1652 -0.195456 0.726155 0
M  V30 882 H 93.1362 0.0807567 2.98291 0
M  V30 883 C 91.8852 -1.69415 3.03634 0
M  V30 884 H 91.2082 -1.26876 3.79134 0
M  V30 885 H 92.6482 -2.28423 3.5721 0
M  V30 886 C 91.1072 -2.61569 2.12328 0
M  V30 887 O 91.6372 -3.63462 1.7105 0
M  V30 888 N 89.8432 -2.29952 1.77681 0
M  V30 889 H 89.3902 -1.47134 2.11446 0
M  V30 890 H 89.3482 -2.91871 1.16869 0
M  V30 891 N 93.1203 -1.57491 0.0584922 0
M  V30 892 C 94.3453 -1.97711 -0.62652 0
M  V30 893 C 94.7703 -0.936132 -1.63151 0
M  V30 894 O 94.1283 0.099811 -1.81025 0
M  V30 895 C 94.1763 -3.36989 -1.28338 0
M  V30 896 O 93.2803 -3.35433 -2.39913 0
M  V30 897 H 92.6213 -0.643868 -0.162266 0
M  V30 898 H 95.1513 -2.04193 0.129064 0
M  V30 899 H 95.1613 -3.73879 -1.63335 0
M  V30 900 H 93.8363 -4.12289 -0.546889 0
M  V30 901 H 92.4133 -3.10298 -2.06809 0
M  V30 902 N 94.5984 0.214957 -1.56127 0
M  V30 903 C 95.8454 0.938372 -1.79446 0
M  V30 904 C 96.1734 1.8407 -0.628378 0
M  V30 905 O 95.4284 1.91837 0.386925 0
M  V30 906 C 95.7274 1.80314 -3.0858 0
M  V30 907 C 95.3934 1.05349 -4.3842 0
M  V30 908 C 94.0554 0.846435 -4.73697 0
M  V30 909 C 96.4074 0.524588 -5.18553 0
M  V30 910 C 93.7354 0.098683 -5.86617 0
M  V30 911 C 96.0874 -0.209853 -6.32252 0
M  V30 912 C 94.7514 -0.428102 -6.66126 0
M  V30 913 H 94.0214 0.343375 -0.656639 0
M  V30 914 H 96.6684 0.206077 -1.90388 0
M  V30 915 H 94.9734 2.6035 -2.92789 0
M  V30 916 H 96.6704 2.36513 -3.23825 0
M  V30 917 H 93.2604 1.22486 -4.10725 0
M  V30 918 H 97.4444 0.672008 -4.91729 0
M  V30 919 H 92.7004 -0.0805753 -6.11347 0
M  V30 920 H 96.8744 -0.627157 -6.9357 0
M  V30 921 H 94.5014 -1.00944 -7.53468 0
M  V30 922 N 96.0765 1.50051 0.48192 0
M  V30 923 C 97.0065 1.71046 1.58951 0
M  V30 924 C 97.9875 0.559288 1.60642 0
M  V30 925 O 99.1725 0.797243 1.77081 0
M  V30 926 C 96.3025 1.79462 2.97339 0
M  V30 927 C 95.2565 2.94558 3.10515 0
M  V30 928 C 94.5825 2.88105 4.50444 0
M  V30 929 C 95.8825 4.35227 2.88747 0
M  V30 930 H 97.5765 2.6378 1.41635 0
M  V30 931 H 95.1225 1.26936 0.679942 0
M  V30 932 H 97.0755 1.92734 3.74742 0
M  V30 933 H 95.7995 0.833412 3.15788 0
M  V30 934 H 94.4585 2.80918 2.35543 0
M  V30 935 H 94.1065 1.89853 4.65795 0
M  V30 936 H 93.8065 3.65366 4.60197 0
M  V30 937 H 95.3305 3.03412 5.29881 0
M  V30 938 H 96.7445 4.49449 3.55905 0
M  V30 939 H 95.1415 5.13856 3.09955 0
M  V30 940 H 96.2115 4.48347 1.84696 0
M  V30 941 N 97.5546 -0.734337 1.39446 0
M  V30 942 C 98.8316 -1.48579 1.27215 0
M  V30 943 C 99.2116 -2.1077 -0.117968 0
M  V30 944 O 98.5596 -1.98646 -1.12924 0
M  V30 945 C 98.7696 -2.53667 2.39696 0
M  V30 946 C 100.118 -3.20031 2.79044 0
M  V30 947 O 101.142 -2.6398 2.39151 0
M  V30 948 O 100.001 -4.21455 3.47905 0
M  V30 949 H 97.0946 -0.659816 0.49857 0
M  V30 950 H 99.6406 -0.768106 1.51322 0
M  V30 951 H 98.4126 -2.06096 3.32626 0
M  V30 952 H 98.0356 -3.32994 2.17258 0
M  V30 953 N 99.0327 -1.24633 -0.964593 0
M  V30 954 C 100.449 -1.01239 -1.2338 0
M  V30 955 C 100.649 0.2769 -1.99588 0
M  V30 956 O 99.7047 0.992241 -2.32187 0
M  V30 957 C 101.018 -2.22937 -2.01791 0
M  V30 958 C 102.566 -2.27594 -2.14872 0
M  V30 959 C 103.041 -3.48921 -2.96678 0
M  V30 960 N 104.532 -3.49257 -3.04259 0
M  V30 961 C 105.267 -4.39795 -3.67924 0
M  V30 962 N 104.763 -5.40591 -4.33281 0
M  V30 963 N 106.556 -4.275 -3.64966 0
M  V30 964 H 98.7067 -2.0748 -0.454502 0
M  V30 965 H 100.97 -0.910647 -0.26349 0
M  V30 966 H 100.676 -3.16587 -1.53184 0
M  V30 967 H 100.55 -2.25306 -3.02518 0
M  V30 968 H 102.937 -1.34473 -2.6268 0
M  V30 969 H 103.018 -2.2925 -1.13482 0
M  V30 970 H 102.662 -4.42359 -2.49562 0
M  V30 971 H 102.592 -3.4451 -3.98272 0
M  V30 972 H 105.083 -2.76337 -2.57771 0
M  V30 973 H 105.396 -6.05904 -4.79687 0
M  V30 974 H 103.741 -5.44475 -4.3194 0
M  V30 975 H 106.932 -3.47987 -3.13086 0
M  V30 976 H 107.105 -4.98258 -4.14298 0
M  V30 977 N 100.511 1.16574 -1.06058 0
M  V30 978 C 101.421 2.2452 -0.680282 0
M  V30 979 C 102.437 1.71348 0.302604 0
M  V30 980 O 103.613 2.00822 0.152513 0
M  V30 981 C 100.678 3.46629 -0.0700315 0
M  V30 982 C 99.7388 4.14849 -1.10448 0
M  V30 983 C 98.9718 5.31129 -0.523256 0
M  V30 984 O 99.1948 5.66514 0.664709 0
M  V30 985 O 98.1288 5.88526 -1.26179 0
M  V30 986 H 101.955 2.59355 -1.58015 0
M  V30 987 H 99.5398 1.24043 -0.832694 0
M  V30 988 H 101.422 4.20543 0.268667 0
M  V30 989 H 100.097 3.13573 0.803353 0
M  V30 990 H 99.0038 3.42916 -1.49532 0
M  V30 991 H 100.337 4.51954 -1.94931 0
M  V30 992 N 101.989 0.842826 1.3317 0
M  V30 993 C 103.4 0.496651 1.79973 0
M  V30 994 C 103.751 -0.984641 1.69703 0
M  V30 995 O 102.876 -1.76743 1.24863 0
M  V30 996 C 103.471 0.894727 3.26772 0
M  V30 997 C 102.03 0.600629 3.71577 0
M  V30 998 C 101.177 1.10091 2.5451 0
M  V30 999 H 104.128 1.03116 1.20635 0
M  V30 1000 H 104.149 0.206347 3.7994 0
M  V30 1001 H 103.661 1.97287 3.34215 0
M  V30 1002 H 101.762 -0.467284 3.69658 0
M  V30 1003 H 101.875 1.15863 4.64879 0
M  V30 1004 H 100.239 0.52162 2.49301 0
M  V30 1005 H 101.022 2.18591 2.64713 0
M  V30 1006 N 103.467 -1.45747 0.599634 0
M  V30 1007 C 104.43 -2.28917 -0.113835 0
M  V30 1008 C 105.43 -1.3933 -0.802729 0
M  V30 1009 O 106.62 -1.61534 -0.652103 0
M  V30 1010 C 103.752 -3.20152 -1.17114 0
M  V30 1011 H 104.945 -2.93478 0.617289 0
M  V30 1012 H 102.498 -1.52137 0.358327 0
M  V30 1013 H 103.233 -2.60374 -1.93329 0
M  V30 1014 H 103.018 -3.86133 -0.681468 0
M  V30 1015 H 104.508 -3.82708 -1.67105 0
M  V30 1016 N 104.945 -0.338344 -1.53925 0
M  V30 1017 C 106.173 0.261298 -2.05243 0
M  V30 1018 C 106.588 1.44625 -1.21363 0
M  V30 1019 O 105.945 1.80811 -0.247736 0
M  V30 1020 C 105.996 0.681412 -3.5502 0
M  V30 1021 O 105.717 -0.456414 -4.35716 0
M  V30 1022 C 107.218 1.34232 -4.22489 0
M  V30 1023 H 104.438 0.0513685 -0.669031 0
M  V30 1024 H 106.982 -0.488822 -1.98572 0
M  V30 1025 H 105.137 1.38148 -3.61931 0
M  V30 1026 H 105.551 -0.122564 -5.24357 0
M  V30 1027 H 107.025 1.58708 -5.28693 0
M  V30 1028 H 107.502 2.29426 -3.74514 0
M  V30 1029 H 108.108 0.684424 -4.19757 0
M  V30 1030 N 106.423 1.57458 -0.0668435 0
M  V30 1031 C 107.839 1.56947 0.289772 0
M  V30 1032 C 108.039 1.07584 1.70376 0
M  V30 1033 O 107.095 0.739486 2.41429 0
M  V30 1034 C 108.408 3.0052 0.103943 0
M  V30 1035 C 109.956 3.12517 0.173857 0
M  V30 1036 C 110.431 4.57997 0.0163682 0
M  V30 1037 N 111.922 4.63144 0.0721352 0
M  V30 1038 C 112.657 5.73394 -0.0253794 0
M  V30 1039 N 112.153 6.92576 -0.176133 0
M  V30 1040 N 113.946 5.62091 0.0313305 0
M  V30 1041 H 106.097 1.87863 -0.991027 0
M  V30 1042 H 108.36 0.86583 -0.38606 0
M  V30 1043 H 108.066 3.40729 -0.871572 0
M  V30 1044 H 107.94 3.67304 0.858366 0
M  V30 1045 H 110.327 2.72197 1.13985 0
M  V30 1046 H 110.408 2.48381 -0.611586 0
M  V30 1047 H 110.052 4.99005 -0.946374 0
M  V30 1048 H 109.982 5.20158 0.821153 0
M  V30 1049 H 112.473 3.77436 0.187263 0
M  V30 1050 H 112.786 7.72418 -0.242821 0
M  V30 1051 H 111.131 6.94678 -0.211429 0
M  V30 1052 H 114.322 4.67867 0.147773 0
M  V30 1053 H 114.495 6.47982 -0.048121 0
M  V30 1054 N 107.901 -0.206675 1.56239 0
M  V30 1055 C 108.864 -1.23976 1.92776 0
M  V30 1056 C 109.864 -1.39041 0.807729 0
M  V30 1057 O 111.054 -1.37051 1.0753 0
M  V30 1058 C 108.186 -2.61112 2.19165 0
M  V30 1059 H 109.379 -0.927764 2.85189 0
M  V30 1060 H 106.932 -0.447718 1.4975 0
M  V30 1061 H 107.667 -2.97386 1.29352 0
M  V30 1062 H 107.452 -2.51552 3.00772 0
M  V30 1063 H 108.942 -3.35633 2.48476 0
M  V30 1064 N 109.379 -1.50304 -0.473955 0
M  V30 1065 C 110.309 -1.71886 -1.58042 0
M  V30 1066 C 111.29 -0.567799 -1.60344 0
M  V30 1067 O 112.475 -0.806623 -1.76656 0
M  V30 1068 C 109.605 -1.81036 -2.96384 0
M  V30 1069 C 108.559 -2.962 -3.08949 0
M  V30 1070 C 107.885 -2.9049 -4.48909 0
M  V30 1071 C 109.185 -4.36752 -2.86434 0
M  V30 1072 H 110.879 -2.64527 -1.40234 0
M  V30 1073 H 108.425 -1.27295 -0.673201 0
M  V30 1074 H 110.378 -1.94719 -3.73714 0
M  V30 1075 H 109.102 -0.850147 -3.15341 0
M  V30 1076 H 107.761 -2.82164 -2.3405 0
M  V30 1077 H 107.409 -1.92321 -4.64781 0
M  V30 1078 H 107.109 -3.67802 -4.58253 0
M  V30 1079 H 108.633 -3.06218 -5.28264 0
M  V30 1080 H 110.047 -4.5133 -3.53517 0
M  V30 1081 H 108.444 -5.15493 -3.07225 0
M  V30 1082 H 109.514 -4.49321 -1.82316 0
M  V30 1083 N 110.857 0.726932 -1.39834 0
M  V30 1084 C 111.82 1.82269 -1.38962 0
M  V30 1085 C 112.82 1.58248 -0.285334 0
M  V30 1086 O 114.01 1.65499 -0.54366 0
M  V30 1087 C 111.142 3.20186 -1.17019 0
M  V30 1088 H 112.335 1.84443 -2.36476 0
M  V30 1089 H 109.888 0.931416 -1.25516 0
M  V30 1090 H 110.623 3.23669 -0.202204 0
M  V30 1091 H 110.408 3.3902 -1.96998 0
M  V30 1092 H 111.898 4.00235 -1.1917 0
M  V30 1093 N 112.336 1.25143 0.95797 0
M  V30 1094 C 113.299 1.05321 2.03569 0
M  V30 1095 C 114.299 0.007152 1.60798 0
M  V30 1096 O 115.489 0.24903 1.72411 0
M  V30 1097 C 112.621 0.598394 3.35607 0
M  V30 1098 H 113.814 2.00986 2.22586 0
M  V30 1099 H 111.367 1.07502 1.13459 0
M  V30 1100 H 112.102 -0.361014 3.22284 0
M  V30 1101 H 111.887 1.35351 3.67998 0
M  V30 1102 H 113.377 0.48104 4.1482 0
M  V30 1103 N 113.814 -1.1601 1.06675 0
M  V30 1104 C 114.777 -2.18724 0.685001 0
M  V30 1105 C 115.777 -1.58496 -0.271246 0
M  V30 1106 O 116.967 -1.74119 -0.0531156 0
M  V30 1107 C 114.099 -3.40899 0.00853648 0
M  V30 1108 H 115.292 -2.54011 1.59431 0
M  V30 1109 H 112.845 -1.30352 0.862441 0
M  V30 1110 H 113.58 -3.11173 -0.913337 0
M  V30 1111 H 113.365 -3.8587 0.696204 0
M  V30 1112 H 114.855 -4.16886 -0.24414 0
M  V30 1113 N 115.292 -0.849877 -1.32721 0
M  V30 1114 C 116.222 -0.306308 -2.31482 0
M  V30 1115 C 117.203 0.591952 -1.59468 0
M  V30 1116 O 118.388 0.513199 -1.87296 0
M  V30 1117 C 115.518 0.510204 -3.43532 0
M  V30 1118 C 114.472 -0.293209 -4.26994 0
M  V30 1119 C 113.798 0.647743 -5.30762 0
M  V30 1120 C 115.098 -1.51634 -4.99804 0
M  V30 1121 H 116.792 -1.13153 -2.77195 0
M  V30 1122 H 114.338 -0.545553 -1.33266 0
M  V30 1123 H 116.291 0.900856 -4.11658 0
M  V30 1124 H 115.015 1.36874 -2.96535 0
M  V30 1125 H 113.674 -0.665555 -3.60508 0
M  V30 1126 H 113.322 1.50299 -4.8002 0
M  V30 1127 H 113.022 0.11422 -5.87489 0
M  V30 1128 H 114.546 1.03567 -6.01753 0
M  V30 1129 H 115.96 -1.19824 -5.60638 0
M  V30 1130 H 114.357 -1.98745 -5.66234 0
M  V30 1131 H 115.427 -2.28018 -4.27943 0
M  V30 1132 N 116.77 1.45427 -0.607355 0
M  V30 1133 C 117.718 2.32269 0.12411 0
M  V30 1134 C 118.712 1.45955 0.859854 0
M  V30 1135 O 119.918 1.6244 0.775447 0
M  V30 1136 H 116.293 0.749691 0.0588839 0
M  V30 1137 H 118.264 2.91743 -0.626762 0
M  V30 1138 C 117.013 3.29567 1.1082 0
M  V30 1139 H 116.336 3.95978 0.551492 0
M  V30 1140 H 117.776 3.93061 1.58995 0
M  V30 1141 C 116.235 2.56722 2.18164 0
M  V30 1142 O 116.765 2.34842 3.25902 0
M  V30 1143 N 114.971 2.16861 1.93442 0
M  V30 1144 H 114.518 2.34855 1.05834 0
M  V30 1145 H 114.476 1.68444 2.65469 0
M  V30 1146 N 118.248 0.346503 1.53744 0
M  V30 1147 C 119.178 -0.501193 2.28058 0
M  V30 1148 C 120.159 -1.10014 1.29734 0
M  V30 1149 O 121.344 -1.12097 1.58581 0
M  V30 1150 C 118.474 -1.65078 3.05559 0
M  V30 1151 C 117.428 -1.18003 4.11411 0
M  V30 1152 C 116.754 -2.41837 4.76884 0
M  V30 1153 C 118.054 -0.278394 5.21558 0
M  V30 1154 H 119.748 0.11875 2.99164 0
M  V30 1155 H 117.294 0.0585531 1.43881 0
M  V30 1156 H 119.247 -2.25028 3.56287 0
M  V30 1157 H 117.971 -2.29767 2.32109 0
M  V30 1158 H 116.63 -0.603331 3.61601 0
M  V30 1159 H 116.278 -3.0494 4.00026 0
M  V30 1160 H 115.978 -2.1102 5.48402 0
M  V30 1161 H 117.502 -3.02508 5.30397 0
M  V30 1162 H 118.916 -0.784823 5.67903 0
M  V30 1163 H 117.313 -0.0619707 6.00068 0
M  V30 1164 H 118.383 0.684677 4.80042 0
M  V30 1165 N 119.726 -1.57421 0.075193 0
M  V30 1166 C 120.636 -2.1642 -0.905511 0
M  V30 1167 C 121.652 -1.12828 -1.32461 0
M  V30 1168 O 122.828 -1.45109 -1.39661 0
M  V30 1169 C 119.893 -2.71693 -2.15369 0
M  V30 1170 C 118.954 -3.90171 -1.79068 0
M  V30 1171 C 118.187 -4.42798 -2.97936 0
M  V30 1172 O 118.41 -3.94416 -4.12058 0
M  V30 1173 O 117.344 -5.34085 -2.77555 0
M  V30 1174 H 121.17 -3.00588 -0.433626 0
M  V30 1175 H 118.755 -1.48664 -0.148067 0
M  V30 1176 H 120.637 -3.07104 -2.88557 0
M  V30 1177 H 119.312 -1.90582 -2.61649 0
M  V30 1178 H 118.219 -3.59606 -1.03122 0
M  V30 1179 H 119.552 -4.72584 -1.37569 0
M  V30 1180 N 121.204 0.198386 -1.56346 0
M  V30 1181 C 122.452 0.91747 -1.80075 0
M  V30 1182 C 122.773 1.83929 -0.647692 0
M  V30 1183 O 122.043 1.93029 0.334166 0
M  V30 1184 H 120.623 0.341774 -0.664228 0
M  V30 1185 H 123.285 0.204684 -1.93822 0
M  V30 1186 H 122.381 1.51055 -2.7311 0
M  V30 1187 N 122.682 1.50554 0.465978 0
M  V30 1188 C 124.098 1.38093 0.800154 0
M  V30 1189 C 124.298 0.440988 1.96615 0
M  V30 1190 O 123.354 -0.114499 2.5224 0
M  V30 1191 C 124.667 2.79565 1.10742 0
M  V30 1192 C 126.215 2.88516 1.21357 0
M  V30 1193 C 126.69 4.30833 1.55393 0
M  V30 1194 N 128.181 4.33807 1.62375 0
M  V30 1195 C 128.916 5.40927 1.90225 0
M  V30 1196 N 128.412 6.58247 2.16062 0
M  V30 1197 N 130.205 5.28376 1.9177 0
M  V30 1198 H 122.356 2.10237 -0.302366 0
M  V30 1199 H 124.619 0.945203 -0.0727746 0
M  V30 1200 H 124.325 3.50208 0.323661 0
M  V30 1201 H 124.199 3.17125 2.04234 0
M  V30 1202 H 126.586 2.1809 1.98799 0
M  V30 1203 H 126.667 2.54492 0.258321 0
M  V30 1204 H 126.311 5.01799 0.784889 0
M  V30 1205 H 126.241 4.62347 2.52076 0
M  V30 1206 H 128.732 3.49212 1.44427 0
M  V30 1207 H 129.045 7.3569 2.36601 0
M  V30 1208 H 127.39 6.61413 2.13444 0
M  V30 1209 H 130.581 4.35715 1.71085 0
M  V30 1210 H 130.754 6.11944 2.13139 0
M  V30 1211 N 124.16 -0.719506 1.40217 0
M  V30 1212 C 125.409 -1.47486 1.37589 0
M  V30 1213 C 125.722 -1.9559 -0.0201568 0
M  V30 1214 O 126.928 -2.70973 -0.169049 0
M  V30 1215 C 125.384 -2.66575 2.41796 0
M  V30 1216 C 124.992 -2.25358 3.87192 0
M  V30 1217 C 126.736 -3.4433 2.48269 0
M  V30 1218 C 124.643 -3.41262 4.83005 0
M  V30 1219 H 123.573 -0.553901 0.511576 0
M  V30 1220 H 126.224 -0.783427 1.65936 0
M  V30 1221 H 124.606 -3.3787 2.06543 0
M  V30 1222 H 125.78 -1.61509 4.31569 0
M  V30 1223 H 124.095 -1.60657 3.84159 0
M  V30 1224 H 126.692 -4.30569 3.17041 0
M  V30 1225 H 127.035 -3.87872 1.51198 0
M  V30 1226 H 127.568 -2.80076 2.82493 0
M  V30 1227 H 124.307 -3.02755 5.81394 0
M  V30 1228 H 123.827 -4.0404 4.43297 0
M  V30 1229 H 125.506 -4.07383 5.02641 0
M  V30 1230 N 125.638 -1.25649 -0.95132 0
M  V30 1231 C 127.054 -1.02542 -1.223 0
M  V30 1232 C 127.254 0.255715 -1.99871 0
M  V30 1233 O 126.31 0.967558 -2.33226 0
M  V30 1234 C 127.623 -2.25065 -1.99415 0
M  V30 1235 C 129.171 -2.29861 -2.12446 0
M  V30 1236 C 129.646 -3.52048 -2.92961 0
M  V30 1237 N 131.137 -3.52465 -3.00538 0
M  V30 1238 C 131.872 -4.43672 -3.63239 0
M  V30 1239 N 131.368 -5.45157 -4.27523 0
M  V30 1240 N 133.161 -4.31346 -3.60412 0
M  V30 1241 H 125.312 -2.07951 -0.432471 0
M  V30 1242 H 127.575 -0.91339 -0.253816 0
M  V30 1243 H 127.281 -3.18194 -1.49817 0
M  V30 1244 H 127.155 -2.28502 -3.00111 0
M  V30 1245 H 129.542 -1.37252 -2.61239 0
M  V30 1246 H 129.623 -2.3044 -1.11044 0
M  V30 1247 H 129.267 -4.44981 -2.44856 0
M  V30 1248 H 129.197 -3.48715 -3.94596 0
M  V30 1249 H 131.688 -2.79056 -2.54826 0
M  V30 1250 H 132.001 -6.10958 -4.73234 0
M  V30 1251 H 130.346 -5.49025 -4.26141 0
M  V30 1252 H 133.537 -3.51288 -3.09377 0
M  V30 1253 H 133.71 -5.02624 -4.0899 0
M  V30 1254 N 127.117 1.15442 -1.07289 0
M  V30 1255 C 128.08 2.18358 -0.696591 0
M  V30 1256 C 129.08 1.58637 0.262837 0
M  V30 1257 O 130.27 1.74145 0.0438809 0
M  V30 1258 C 127.402 3.4089 -0.0266151 0
M  V30 1259 H 128.595 2.53162 -1.60776 0
M  V30 1260 H 126.148 1.29893 -0.869342 0
M  V30 1261 H 126.883 3.11653 0.896822 0
M  V30 1262 H 126.668 3.85495 -0.716657 0
M  V30 1263 H 128.158 4.17009 0.222028 0
M  V30 1264 N 128.595 0.856903 1.32268 0
M  V30 1265 C 129.558 0.308171 2.27119 0
M  V30 1266 C 130.558 -0.533421 1.51695 0
M  V30 1267 O 131.748 -0.344607 1.70757 0
M  V30 1268 C 128.88 -0.563757 3.36206 0
M  V30 1269 H 130.073 1.14535 2.77167 0
M  V30 1270 H 127.626 0.631421 1.42978 0
M  V30 1271 H 128.361 -1.42266 2.91429 0
M  V30 1272 H 128.146 0.0386749 3.92081 0
M  V30 1273 H 129.636 -0.940386 4.06874 0
M  V30 1274 N 130.073 -1.45103 0.615059 0
M  V30 1275 C 131.35 -1.95549 0.0448276 0
M  V30 1276 C 131.73 -1.55737 -1.4251 0
M  V30 1277 O 131.078 -0.823556 -2.13143 0
M  V30 1278 C 131.288 -3.48098 0.250785 0
M  V30 1279 C 132.636 -4.24384 0.135509 0
M  V30 1280 O 133.66 -3.55738 0.181299 0
M  V30 1281 O 132.519 -5.46493 0.0268878 0
M  V30 1282 H 129.613 -0.8264 -0.0314845 0
M  V30 1283 H 132.159 -1.55232 0.685642 0
M  V30 1284 H 130.931 -3.7007 1.27139 0
M  V30 1285 H 130.554 -3.95323 -0.424937 0
M  V30 1286 N 131.551 -0.354651 -1.53558 0
M  V30 1287 C 132.962 0.126902 -1.86268 0
M  V30 1288 C 133.313 1.49075 -1.27558 0
M  V30 1289 O 132.438 2.08105 -0.5934 0
M  V30 1290 C 133.033 0.237046 -3.3797 0
M  V30 1291 C 131.592 0.662842 -3.70518 0
M  V30 1292 C 130.739 -0.196652 -2.76602 0
M  V30 1293 H 133.69 -0.573849 -1.47962 0
M  V30 1294 H 133.711 1.06259 -3.65362 0
M  V30 1295 H 133.223 -0.755725 -3.80671 0
M  V30 1296 H 131.324 1.66424 -3.33367 0
M  V30 1297 H 131.437 0.445034 -4.77029 0
M  V30 1298 H 129.801 0.332763 -2.52517 0
M  V30 1299 H 130.584 -1.18676 -3.22135 0
M  V30 1300 N 133.029 1.57378 -0.0835403 0
M  V30 1301 C 133.992 2.12252 0.864959 0
M  V30 1302 C 134.992 1.04916 1.21858 0
M  V30 1303 O 136.182 1.30853 1.14991 0
M  V30 1304 C 133.314 2.63358 2.16461 0
M  V30 1305 H 134.507 2.97371 0.388676 0
M  V30 1306 H 132.06 1.55423 0.165317 0
M  V30 1307 H 132.795 1.81727 2.686 0
M  V30 1308 H 132.58 3.41826 1.92087 0
M  V30 1309 H 134.07 3.05847 2.84337 0
M  V30 1310 N 134.507 -0.190092 1.56449 0
M  V30 1311 C 135.47 -1.21925 1.9408 0
M  V30 1312 C 136.47 -1.38176 0.822431 0
M  V30 1313 O 137.66 -1.35903 1.08977 0
M  V30 1314 C 134.792 -2.58773 2.21922 0
M  V30 1315 H 135.985 -0.897464 2.86157 0
M  V30 1316 H 133.538 -0.43181 1.50217 0
M  V30 1317 H 134.273 -2.95998 1.32499 0
M  V30 1318 H 134.058 -2.48348 3.03424 0
M  V30 1319 H 135.548 -3.32978 2.52022 0
M  V30 1320 N 135.985 -1.50799 -0.457987 0
M  V30 1321 C 136.932 -1.70617 -1.5543 0
M  V30 1322 C 137.902 -0.547562 -1.56815 0
M  V30 1323 O 139.087 -0.779647 -1.74144 0
M  V30 1324 C 136.227 -1.81831 -2.93311 0
M  V30 1325 C 135.34 -3.09278 -3.01615 0
M  V30 1326 C 134.475 -3.11209 -4.30491 0
M  V30 1327 C 133.514 -4.33055 -4.32585 0
M  V30 1328 N 132.651 -4.32652 -5.52952 0
M  V30 1329 H 137.491 -2.64207 -1.37836 0
M  V30 1330 H 135.028 -1.30959 -0.669937 0
M  V30 1331 H 136.986 -1.86314 -3.73287 0
M  V30 1332 H 135.616 -0.916685 -3.0951 0
M  V30 1333 H 134.668 -3.14203 -2.1443 0
M  V30 1334 H 135.98 -3.99233 -2.99022 0
M  V30 1335 H 135.134 -3.14494 -5.18824 0
M  V30 1336 H 133.873 -2.19106 -4.35711 0
M  V30 1337 H 132.878 -4.29969 -3.42647 0
M  V30 1338 H 134.103 -5.264 -4.29046 0
M  V30 1339 H 132.049 -3.43409 -5.58933 0
M  V30 1340 H 131.966 -5.16392 -5.52155 0
M  V30 1341 H 133.234 -4.40101 -6.43375 0
M  V30 1342 N 137.463 0.71206 -1.40597 0
M  V30 1343 C 138.879 1.02058 -1.22704 0
M  V30 1344 C 139.079 2.01228 -0.104729 0
M  V30 1345 O 138.135 2.4674 0.53624 0
M  V30 1346 C 139.448 1.56094 -2.57012 0
M  V30 1347 C 140.996 1.6806 -2.64054 0
M  V30 1348 C 141.471 2.25501 -3.9864 0
M  V30 1349 N 142.962 2.32882 -4.004 0
M  V30 1350 C 143.697 2.78317 -5.01325 0
M  V30 1351 N 143.193 3.23478 -6.12645 0
M  V30 1352 N 144.986 2.77733 -4.88693 0
M  V30 1353 H 137.137 0.0547896 -2.12329 0
M  V30 1354 H 139.4 0.0869027 -0.944008 0
M  V30 1355 H 139.106 0.906865 -3.39807 0
M  V30 1356 H 138.98 2.54564 -2.78347 0
M  V30 1357 H 141.367 2.32583 -1.81629 0
M  V30 1358 H 141.448 0.681802 -2.46546 0
M  V30 1359 H 141.092 1.61598 -4.81506 0
M  V30 1360 H 141.022 3.26102 -4.13479 0
M  V30 1361 H 143.513 2.00991 -3.20017 0
M  V30 1362 H 143.826 3.56725 -6.85542 0
M  V30 1363 H 142.171 3.21429 -6.16205 0
M  V30 1364 H 145.362 2.4179 -4.00818 0
M  V30 1365 H 145.535 3.12826 -5.67489 0
M  V30 1366 N 138.941 1.26152 0.944643 0
M  V30 1367 C 140.357 1.03189 1.21754 0
M  V30 1368 C 140.557 -0.245112 2.00004 0
M  V30 1369 O 139.613 -0.955176 2.33736 0
M  V30 1370 C 140.926 2.26119 1.98219 0
M  V30 1371 C 142.474 2.30984 2.11224 0
M  V30 1372 C 142.949 3.53597 2.91089 0
M  V30 1373 N 144.44 3.54053 2.98664 0
M  V30 1374 C 145.175 4.45593 3.60881 0
M  V30 1375 N 144.671 5.47416 4.24626 0
M  V30 1376 N 146.464 4.33252 3.58119 0
M  V30 1377 H 138.615 2.08177 0.421437 0
M  V30 1378 H 140.878 0.914723 0.248969 0
M  V30 1379 H 140.584 3.18984 1.48128 0
M  V30 1380 H 140.458 2.3009 2.98895 0
M  V30 1381 H 142.845 1.38635 2.60508 0
M  V30 1382 H 142.926 2.31026 1.09821 0
M  V30 1383 H 142.57 4.46273 2.42493 0
M  V30 1384 H 142.5 3.50802 3.92741 0
M  V30 1385 H 144.991 2.80403 2.53343 0
M  V30 1386 H 145.304 6.13459 4.69987 0
M  V30 1387 H 143.649 5.51278 4.23223 0
M  V30 1388 H 146.84 3.52924 3.0751 0
M  V30 1389 H 147.013 5.04786 4.06319 0
M  V30 1390 N 140.419 -1.14872 1.07899 0
M  V30 1391 C 141.649 -1.89386 0.825631 0
M  V30 1392 C 142.057 -1.78565 -0.625406 0
M  V30 1393 O 141.4 -1.13918 -1.44113 0
M  V30 1394 C 141.462 -3.40206 1.16191 0
M  V30 1395 C 141.126 -3.74812 2.61467 0
M  V30 1396 C 142.123 -3.75367 3.59716 0
M  V30 1397 C 139.808 -4.0495 2.97189 0
M  V30 1398 C 141.802 -4.05574 4.9172 0
M  V30 1399 C 139.489 -4.34821 4.29388 0
M  V30 1400 C 140.487 -4.35116 5.26463 0
M  V30 1401 O 140.175 -4.64267 6.56286 0
M  V30 1402 H 139.907 -0.606894 0.297751 0
M  V30 1403 H 142.461 -1.46438 1.44031 0
M  V30 1404 H 140.691 -3.8358 0.490214 0
M  V30 1405 H 142.38 -3.96018 0.890193 0
M  V30 1406 H 143.146 -3.52176 3.33462 0
M  V30 1407 H 139.025 -4.03876 2.22273 0
M  V30 1408 H 142.569 -4.05719 5.67484 0
M  V30 1409 H 138.466 -4.5748 4.55392 0
M  V30 1410 H 139.234 -4.82007 6.61522 0
M  V30 1411 N 141.898 -0.863906 -1.31812 0
M  V30 1412 C 143.144 -0.472535 -1.97218 0
M  V30 1413 C 143.477 0.971394 -1.68159 0
M  V30 1414 O 142.752 1.68309 -0.974798 0
M  V30 1415 C 143.035 -0.723054 -3.52766 0
M  V30 1416 C 142.888 -2.21608 -3.91421 0
M  V30 1417 C 144.207 -0.185522 -4.39709 0
M  V30 1418 H 141.326 -0.173158 -0.71637 0
M  V30 1419 H 143.968 -1.08403 -1.56041 0
M  V30 1420 H 142.118 -0.202577 -3.87971 0
M  V30 1421 H 143.79 -2.80334 -3.66347 0
M  V30 1422 H 142.033 -2.691 -3.40246 0
M  V30 1423 H 142.704 -2.34203 -4.99853 0
M  V30 1424 H 145.18 -0.630726 -4.11292 0
M  V30 1425 H 144.056 -0.390306 -5.47511 0
M  V30 1426 H 144.317 0.912229 -4.32586 0
M  V30 1427 N 143.376 1.44774 -0.622745 0
M  V30 1428 C 144.606 2.06187 -0.130532 0
M  V30 1429 C 145.014 1.46547 1.19669 0
M  V30 1430 O 144.357 0.579636 1.74316 0
M  V30 1431 C 144.419 3.59437 0.0674983 0
M  V30 1432 C 144.083 4.41496 -1.18026 0
M  V30 1433 C 145.08 4.75512 -2.102 0
M  V30 1434 C 142.765 4.82007 -1.41333 0
M  V30 1435 C 144.759 5.48912 -3.23998 0
M  V30 1436 C 142.446 5.55157 -2.55429 0
M  V30 1437 C 143.444 5.88528 -3.46589 0
M  V30 1438 O 143.132 6.60191 -4.58697 0
M  V30 1439 H 142.864 0.672045 -0.0730162 0
M  V30 1440 H 145.418 1.86768 -0.854802 0
M  V30 1441 H 143.648 3.77314 0.846825 0
M  V30 1442 H 145.337 4.02642 0.513209 0
M  V30 1443 H 146.103 4.4476 -1.93425 0
M  V30 1444 H 141.982 4.55457 -0.712709 0
M  V30 1445 H 145.526 5.74877 -3.95174 0
M  V30 1446 H 141.423 5.85324 -2.72151 0
M  V30 1447 H 142.191 6.78654 -4.57571 0
M  V30 1448 N 144.854 0.36279 1.53368 0
M  V30 1449 C 146.082 -0.228613 2.05633 0
M  V30 1450 C 146.497 -1.42676 1.23649 0
M  V30 1451 O 145.854 -1.80394 0.27647 0
M  V30 1452 C 145.905 -0.624845 3.56059 0
M  V30 1453 O 145.626 0.525675 4.34935 0
M  V30 1454 C 147.127 -1.27493 4.24571 0
M  V30 1455 H 144.347 -0.0407183 0.669763 0
M  V30 1456 H 146.891 0.520352 1.97769 0
M  V30 1457 H 145.046 -1.32373 3.64083 0
M  V30 1458 H 145.46 0.205969 5.24095 0
M  V30 1459 H 146.934 -1.50277 5.31151 0
M  V30 1460 H 147.411 -2.23439 3.78116 0
M  V30 1461 H 148.017 -0.617558 4.20792 0
M  V30 1462 N 146.332 -1.57332 0.0918853 0
M  V30 1463 C 147.748 -1.57389 -0.264766 0
M  V30 1464 C 147.948 -1.10281 -1.68643 0
M  V30 1465 O 147.004 -0.777801 -2.40222 0
M  V30 1466 C 148.317 -3.00648 -0.0561195 0
M  V30 1467 C 149.865 -3.12754 -0.124116 0
M  V30 1468 C 150.34 -4.57965 0.0564972 0
M  V30 1469 N 151.831 -4.632 0.00155611 0
M  V30 1470 C 152.566 -5.73281 0.116598 0
M  V30 1471 N 152.062 -6.92208 0.286294 0
M  V30 1472 N 153.855 -5.6207 0.0580973 0
M  V30 1473 H 146.006 -1.86262 1.02079 0
M  V30 1474 H 148.269 -0.859579 0.399786 0
M  V30 1475 H 147.975 -3.393 0.925669 0
M  V30 1476 H 147.849 -3.68623 -0.799823 0
M  V30 1477 H 150.236 -2.73976 -1.09641 0
M  V30 1478 H 150.317 -2.47377 0.651024 0
M  V30 1479 H 149.961 -4.97436 1.02564 0
M  V30 1480 H 149.891 -5.21399 -0.738297 0
M  V30 1481 H 152.382 -3.77686 -0.127192 0
M  V30 1482 H 152.695 -7.71934 0.365676 0
M  V30 1483 H 151.04 -6.94254 0.32192 0
M  V30 1484 H 154.231 -4.68043 -0.0733204 0
M  V30 1485 H 154.404 -6.47824 0.151203 0
M  V30 1486 N 147.81 0.181792 -1.56548 0
M  V30 1487 C 149.058 0.89832 -1.81038 0
M  V30 1488 C 149.379 1.83232 -0.667164 0
M  V30 1489 O 148.649 1.93372 0.313673 0
M  V30 1490 H 147.229 0.33471 -0.667816 0
M  V30 1491 H 149.891 0.184116 -1.94028 0
M  V30 1492 H 148.987 1.4815 -2.74696 0
M  V30 1493 N 149.288 1.51039 0.449983 0
M  V30 1494 C 150.704 1.38934 0.785462 0
M  V30 1495 C 150.904 0.461817 1.96136 0
M  V30 1496 O 149.96 -0.0877389 2.52348 0
M  V30 1497 C 151.273 2.80724 1.0777 0
M  V30 1498 C 152.821 2.89787 1.1829 0
M  V30 1499 C 153.296 4.32457 1.50815 0
M  V30 1500 N 154.787 4.35505 1.57764 0
M  V30 1501 C 155.522 5.42914 1.84477 0
M  V30 1502 N 155.018 6.60502 2.09068 0
M  V30 1503 N 156.811 5.3038 1.86155 0
M  V30 1504 H 148.962 2.09904 -0.324647 0
M  V30 1505 H 151.225 0.944378 -0.0827957 0
M  V30 1506 H 150.931 3.50531 0.286498 0
M  V30 1507 H 150.805 3.19273 2.00859 0
M  V30 1508 H 153.192 2.20186 1.96474 0
M  V30 1509 H 153.273 2.54752 0.231314 0
M  V30 1510 H 152.917 5.02603 0.731622 0
M  V30 1511 H 152.847 4.64995 2.47158 0
M  V30 1512 H 155.338 3.50724 1.40715 0
M  V30 1513 H 155.651 7.38158 2.28785 0
M  V30 1514 H 153.996 6.63639 2.06416 0
M  V30 1515 H 157.187 4.37505 1.66454 0
M  V30 1516 H 157.36 6.1417 2.06637 0
M  V30 1517 N 150.766 -0.704594 1.40972 0
M  V30 1518 C 151.696 -1.83124 1.44872 0
M  V30 1519 C 152.677 -1.67281 0.30838 0
M  V30 1520 O 153.862 -1.87149 0.518556 0
M  V30 1521 C 150.992 -3.21181 1.32136 0
M  V30 1522 C 149.946 -3.51714 2.43888 0
M  V30 1523 C 149.272 -4.89032 2.16222 0
M  V30 1524 C 150.572 -3.516 3.86232 0
M  V30 1525 H 152.266 -1.80117 2.39161 0
M  V30 1526 H 149.812 -0.865145 1.15114 0
M  V30 1527 H 151.765 -3.99702 1.33479 0
M  V30 1528 H 150.489 -3.24791 0.343279 0
M  V30 1529 H 149.148 -2.75539 2.41813 0
M  V30 1530 H 148.796 -4.89256 1.16778 0
M  V30 1531 H 148.496 -5.10426 2.911 0
M  V30 1532 H 150.02 -5.69873 2.19265 0
M  V30 1533 H 151.434 -4.2014 3.9007 0
M  V30 1534 H 149.831 -3.84523 4.60719 0
M  V30 1535 H 150.901 -2.50757 4.15029 0
M  V30 1536 N 152.244 -1.26651 -0.937939 0
M  V30 1537 C 153.66 -1.03834 -1.21205 0
M  V30 1538 C 153.86 0.234502 -2.00131 0
M  V30 1539 O 152.916 0.942767 -2.3424 0
M  V30 1540 C 154.229 -2.27167 -1.97017 0
M  V30 1541 C 155.777 -2.32101 -2.09996 0
M  V30 1542 C 156.252 -3.55136 -2.8921 0
M  V30 1543 N 157.743 -3.55632 -2.96783 0
M  V30 1544 C 158.478 -4.475 -3.58512 0
M  V30 1545 N 157.974 -5.4966 -4.21717 0
M  V30 1546 N 159.767 -4.35145 -3.55816 0
M  V30 1547 H 151.918 -2.08398 -0.410391 0
M  V30 1548 H 154.181 -0.916031 -0.244114 0
M  V30 1549 H 153.887 -3.19765 -1.46434 0
M  V30 1550 H 153.761 -2.31672 -2.97671 0
M  V30 1551 H 156.148 -1.40015 -2.59769 0
M  V30 1552 H 156.229 -2.31605 -1.08594 0
M  V30 1553 H 155.873 -4.47553 -2.40123 0
M  V30 1554 H 155.803 -3.5288 -3.90875 0
M  V30 1555 H 158.294 -2.81743 -2.51852 0
M  V30 1556 H 158.607 -6.15943 -4.66727 0
M  V30 1557 H 156.952 -5.53514 -4.20294 0
M  V30 1558 H 160.143 -3.5455 -3.05634 0
M  V30 1559 H 160.316 -5.06934 -4.03636 0
M  V30 1560 N 153.722 1.14298 -1.08507 0
M  V30 1561 C 154.947 1.8976 -0.837001 0
M  V30 1562 C 155.372 1.78097 0.605228 0
M  V30 1563 O 154.73 1.12188 1.4242 0
M  V30 1564 C 154.778 3.37685 -1.26495 0
M  V30 1565 O 153.882 4.10281 -0.417514 0
M  V30 1566 H 153.223 0.590365 -0.303917 0
M  V30 1567 H 155.753 1.44672 -1.44676 0
M  V30 1568 H 155.763 3.88501 -1.24625 0
M  V30 1569 H 154.438 3.45492 -2.31534 0
M  V30 1570 H 153.015 3.69536 -0.499722 0
M  V30 1571 N 155.201 0.870884 1.31352 0
M  V30 1572 C 156.447 0.482987 1.96965 0
M  V30 1573 C 156.78 -0.962462 1.68672 0
M  V30 1574 O 156.055 -1.6779 0.98371 0
M  V30 1575 C 156.338 0.741752 3.52378 0
M  V30 1576 C 156.191 2.2368 3.9024 0
M  V30 1577 C 157.51 0.208838 4.39604 0
M  V30 1578 H 154.629 0.176955 0.715441 0
M  V30 1579 H 157.271 1.09229 1.55464 0
M  V30 1580 H 155.421 0.223149 3.87859 0
M  V30 1581 H 157.093 2.82273 3.64856 0
M  V30 1582 H 155.336 2.70901 3.38814 0
M  V30 1583 H 156.007 2.3685 4.98604 0
M  V30 1584 H 158.483 0.652529 4.10952 0
M  V30 1585 H 157.359 0.419336 5.47296 0
M  V30 1586 H 157.62 -0.889275 4.33064 0
M  V30 1587 N 156.679 -1.44442 0.630414 0
M  V30 1588 C 158.09 -1.85434 0.217063 0
M  V30 1589 C 158.441 -1.52748 -1.23136 0
M  V30 1590 O 157.566 -0.965205 -1.93682 0
M  V30 1591 C 158.161 -3.36581 0.387168 0
M  V30 1592 C 156.72 -3.76389 0.0283297 0
M  V30 1593 C 155.867 -2.68296 0.700889 0
M  V30 1594 H 158.818 -1.34919 0.83562 0
M  V30 1595 H 158.839 -3.78657 -0.374086 0
M  V30 1596 H 158.351 -3.60339 1.44144 0
M  V30 1597 H 156.452 -3.58246 -1.02423 0
M  V30 1598 H 156.565 -4.77095 0.437892 0
M  V30 1599 H 154.929 -2.54335 0.136267 0
M  V30 1600 H 155.712 -2.94887 1.75774 0
M  V30 1601 N 158.157 -0.370918 -1.53173 0
M  V30 1602 C 159.12 0.460778 -2.24521 0
M  V30 1603 C 160.12 1.00536 -1.25496 0
M  V30 1604 O 161.31 0.890266 -1.49733 0
M  V30 1605 C 158.442 1.64457 -2.98608 0
M  V30 1606 H 159.635 -0.163613 -2.99453 0
M  V30 1607 H 157.188 -0.122699 -1.55818 0
M  V30 1608 H 157.923 2.30691 -2.2793 0
M  V30 1609 H 157.708 1.26099 -3.7127 0
M  V30 1610 H 159.198 2.23384 -3.5283 0
M  V30 1611 N 159.635 1.57281 -0.100228 0
M  V30 1612 C 160.86 1.99302 0.573881 0
M  V30 1613 C 161.285 0.979059 1.60611 0
M  V30 1614 O 160.643 -0.0517803 1.81226 0
M  V30 1615 C 160.691 3.40274 1.19358 0
M  V30 1616 O 159.795 3.41676 2.30935 0
M  V30 1617 H 159.136 0.647944 0.145138 0
M  V30 1618 H 161.666 2.03779 -0.183156 0
M  V30 1619 H 161.676 3.78078 1.53365 0
M  V30 1620 H 160.351 4.13594 0.437385 0
M  V30 1621 H 158.928 3.15672 1.98509 0
M  V30 1622 N 161.113 -0.173488 1.56642 0
M  V30 1623 C 162.524 -0.736155 1.71574 0
M  V30 1624 C 162.875 -1.82888 0.710389 0
M  V30 1625 O 162 -2.16017 -0.1287 0
M  V30 1626 C 162.595 -1.34211 3.11083 0
M  V30 1627 C 161.154 -1.85162 3.27707 0
M  V30 1628 C 160.301 -0.729765 2.67525 0
M  V30 1629 H 163.252 0.0518786 1.58615 0
M  V30 1630 H 163.273 -2.21178 3.09613 0
M  V30 1631 H 162.785 -0.546579 3.84232 0
M  V30 1632 H 160.886 -2.67366 2.59512 0
M  V30 1633 H 160.999 -1.99855 4.35425 0
M  V30 1634 H 159.363 -1.14965 2.27278 0
M  V30 1635 H 160.146 0.0538806 3.43258 0
M  V30 1636 N 162.591 -1.51276 -0.441967 0
M  V30 1637 C 164.002 -1.56244 -1.02199 0
M  V30 1638 C 164.353 -0.383149 -1.92422 0
M  V30 1639 O 163.478 0.500613 -2.1053 0
M  V30 1640 C 164.073 -2.83162 -1.86024 0
M  V30 1641 C 162.632 -2.90716 -2.39084 0
M  V30 1642 C 161.779 -2.50858 -1.18175 0
M  V30 1643 H 164.73 -1.5712 -0.223416 0
M  V30 1644 H 164.751 -2.66663 -2.71425 0
M  V30 1645 H 164.263 -3.68974 -1.20331 0
M  V30 1646 H 162.364 -2.09323 -3.08244 0
M  V30 1647 H 162.477 -3.94266 -2.72198 0
M  V30 1648 H 160.841 -2.03951 -1.52565 0
M  V30 1649 H 161.624 -3.3901 -0.541001 0
M  V30 1650 N 164.069 0.697108 -1.41344 0
M  V30 1651 C 165.032 1.79281 -1.42797 0
M  V30 1652 C 166.032 1.57607 -0.318837 0
M  V30 1653 O 167.222 1.64309 -0.578642 0
M  V30 1654 C 164.354 3.17632 -1.23785 0
M  V30 1655 H 165.547 1.79385 -2.40335 0
M  V30 1656 H 163.1 0.904582 -1.27464 0
M  V30 1657 H 163.835 3.23167 -0.270814 0
M  V30 1658 H 163.62 3.34765 -2.04144 0
M  V30 1659 H 165.11 3.97617 -1.27633 0
M  V30 1660 N 165.547 1.27147 0.931209 0
M  V30 1661 C 166.794 1.13278 1.67852 0
M  V30 1662 C 167.122 -0.32204 1.91815 0
M  V30 1663 O 166.377 -1.25224 1.50391 0
M  V30 1664 C 166.676 1.8579 3.05314 0
M  V30 1665 C 166.342 3.35657 3.01073 0
M  V30 1666 C 165.004 3.76536 2.99623 0
M  V30 1667 C 167.356 4.31299 2.92627 0
M  V30 1668 C 164.684 5.11426 2.87506 0
M  V30 1669 C 167.036 5.66242 2.82051 0
M  V30 1670 C 165.7 6.06418 2.7895 0
M  V30 1671 H 164.97 0.414515 0.614214 0
M  V30 1672 H 167.617 1.57712 1.08624 0
M  V30 1673 H 165.922 1.33854 3.68226 0
M  V30 1674 H 167.619 1.72491 3.62005 0
M  V30 1675 H 164.209 3.03146 3.02986 0
M  V30 1676 H 168.393 4.00692 2.92848 0
M  V30 1677 H 163.649 5.41705 2.83489 0
M  V30 1678 H 167.823 6.40026 2.74481 0
M  V30 1679 H 165.45 7.10895 2.69318 0
M  V30 1680 N 167.025 -1.13721 1.09112 0
M  V30 1681 C 167.955 -2.21148 0.749385 0
M  V30 1682 C 168.936 -1.6792 -0.271475 0
M  V30 1683 O 170.121 -1.93693 -0.140251 0
M  V30 1684 C 167.251 -3.46905 0.165659 0
M  V30 1685 C 166.205 -4.13203 1.11567 0
M  V30 1686 C 165.531 -5.33248 0.393809 0
M  V30 1687 C 166.831 -4.60912 2.45678 0
M  V30 1688 H 168.525 -2.4999 1.64758 0
M  V30 1689 H 166.071 -1.20156 0.793626 0
M  V30 1690 H 168.024 -4.21313 -0.085466 0
M  V30 1691 H 166.748 -3.17449 -0.767714 0
M  V30 1692 H 165.407 -3.40758 1.35202 0
M  V30 1693 H 165.055 -5.00054 -0.543599 0
M  V30 1694 H 164.755 -5.78552 1.02721 0
M  V30 1695 H 166.279 -6.10413 0.150908 0
M  V30 1696 H 167.693 -5.26759 2.26269 0
M  V30 1697 H 166.09 -5.16944 3.04776 0
M  V30 1698 H 167.16 -3.75603 3.06677 0
M  V30 1699 N 168.503 -0.877838 -1.30888 0
M  V30 1700 C 169.466 -0.344265 -2.266 0
M  V30 1701 C 170.466 0.50922 -1.52524 0
M  V30 1702 O 171.656 0.317398 -1.71284 0
M  V30 1703 C 168.788 0.510198 -3.37061 0
M  V30 1704 H 169.981 -1.1893 -2.7531 0
M  V30 1705 H 167.534 -0.654088 -1.41956 0
M  V30 1706 H 168.269 1.37612 -2.93655 0
M  V30 1707 H 168.054 -0.101047 -3.9197 0
M  V30 1708 H 169.544 0.875537 -4.08319 0
M  V30 1709 N 169.982 1.44106 -0.638065 0
M  V30 1710 C 171.207 2.0685 -0.150916 0
M  V30 1711 C 171.632 1.47417 1.16833 0
M  V30 1712 O 170.99 0.578264 1.71831 0
M  V30 1713 C 171.038 3.60555 -0.05708 0
M  V30 1714 O 170.142 4.00465 0.984972 0
M  V30 1715 H 169.483 0.658151 -0.0879399 0
M  V30 1716 H 172.013 1.84865 -0.876707 0
M  V30 1717 H 172.023 4.07789 0.131232 0
M  V30 1718 H 170.698 4.03193 -1.02021 0
M  V30 1719 H 169.275 3.64849 0.770672 0
M  V30 1720 N 171.46 0.379036 1.52974 0
M  V30 1721 C 172.737 -0.263479 1.93817 0
M  V30 1722 C 173.117 -1.65244 1.31368 0
M  V30 1723 O 172.465 -2.23448 0.477856 0
M  V30 1724 C 172.675 -0.300166 3.47707 0
M  V30 1725 C 174.023 -0.534061 4.21228 0
M  V30 1726 O 175.047 -0.38081 3.54159 0
M  V30 1727 O 173.906 -0.833501 5.40106 0
M  V30 1728 H 171 -0.161149 0.811147 0
M  V30 1729 H 173.546 0.432798 1.64088 0
M  V30 1730 H 172.318 0.673138 3.85467 0
M  V30 1731 H 171.941 -1.04179 3.83709 0
M  V30 1732 N 172.938 -1.57226 0.108567 0
M  V30 1733 C 174.187 -1.94008 -0.551703 0
M  V30 1734 C 174.5 -0.993442 -1.68494 0
M  V30 1735 O 175.706 -1.25551 -2.40726 0
M  V30 1736 C 174.162 -3.44763 -1.03279 0
M  V30 1737 C 173.77 -4.47943 0.0714193 0
M  V30 1738 C 175.514 -3.90483 -1.66503 0
M  V30 1739 C 173.421 -5.89865 -0.425779 0
M  V30 1740 H 172.351 -0.724206 -0.209863 0
M  V30 1741 H 175.002 -1.82547 0.186741 0
M  V30 1742 H 173.384 -3.51422 -1.82533 0
M  V30 1743 H 174.558 -4.52942 0.847365 0
M  V30 1744 H 172.873 -4.11913 0.609669 0
M  V30 1745 H 175.47 -4.93925 -2.04798 0
M  V30 1746 H 175.813 -3.29877 -2.53942 0
M  V30 1747 H 176.346 -3.86581 -0.938074 0
M  V30 1748 H 173.085 -6.54202 0.412316 0
M  V30 1749 H 172.605 -5.88309 -1.16843 0
M  V30 1750 H 174.284 -6.40844 -0.890397 0
M  V30 1751 N 174.416 0.165178 -1.56732 0
M  V30 1752 C 175.346 1.20651 -1.99914 0
M  V30 1753 C 176.327 1.45827 -0.875705 0
M  V30 1754 O 177.512 1.57057 -1.14223 0
M  V30 1755 C 174.642 2.54401 -2.36427 0
M  V30 1756 C 173.596 2.43782 -3.51787 0
M  V30 1757 C 172.922 3.82078 -3.7406 0
M  V30 1758 C 174.222 1.93732 -4.85041 0
M  V30 1759 H 175.916 0.847534 -2.87154 0
M  V30 1760 H 173.462 0.40625 -1.38151 0
M  V30 1761 H 175.415 3.27458 -2.65234 0
M  V30 1762 H 174.139 2.92098 -1.46103 0
M  V30 1763 H 172.798 1.73178 -3.23117 0
M  V30 1764 H 172.446 4.17179 -2.81017 0
M  V30 1765 H 172.146 3.7584 -4.51684 0
M  V30 1766 H 173.67 4.56712 -4.05274 0
M  V30 1767 H 175.084 2.56569 -5.12684 0
M  V30 1768 H 173.481 1.98428 -5.66345 0
M  V30 1769 H 174.551 0.891962 -4.76626 0
M  V30 1770 N 175.894 1.51508 0.433938 0
M  V30 1771 C 177.305 1.56784 1.01369 0
M  V30 1772 C 177.656 0.393349 1.92217 0
M  V30 1773 O 176.781 -0.489441 2.10792 0
M  V30 1774 C 177.376 2.84144 1.8452 0
M  V30 1775 C 175.935 2.9198 2.37539 0
M  V30 1776 C 175.082 2.51482 1.16843 0
M  V30 1777 H 178.033 1.57236 0.215081 0
M  V30 1778 H 178.054 2.68098 2.70007 0
M  V30 1779 H 177.566 3.69607 1.18373 0
M  V30 1780 H 175.667 2.10955 3.0713 0
M  V30 1781 H 175.78 3.95704 2.70103 0
M  V30 1782 H 174.144 2.04758 1.51481 0
M  V30 1783 H 174.927 3.39293 0.523015 0
M  V30 1784 N 177.372 -0.689602 1.41712 0
M  V30 1785 C 178.302 -1.81577 1.46806 0
M  V30 1786 C 179.283 -1.66945 0.326105 0
M  V30 1787 O 180.468 -1.86588 0.538377 0
M  V30 1788 C 177.598 -3.19762 1.35535 0
M  V30 1789 C 176.552 -3.49107 2.47605 0
M  V30 1790 C 175.878 -4.86711 2.21397 0
M  V30 1791 C 177.178 -3.47483 3.89939 0
M  V30 1792 H 178.872 -1.7757 2.41058 0
M  V30 1793 H 176.418 -0.852887 1.16025 0
M  V30 1794 H 178.371 -3.98263 1.3771 0
M  V30 1795 H 177.095 -3.24409 0.377708 0
M  V30 1796 H 175.754 -2.72959 2.44722 0
M  V30 1797 H 175.402 -4.8799 1.21961 0
M  V30 1798 H 175.102 -5.0731 2.96497 0
M  V30 1799 H 176.626 -5.67515 2.25297 0
M  V30 1800 H 178.04 -4.1598 3.94505 0
M  V30 1801 H 176.437 -3.79615 4.64771 0
M  V30 1802 H 177.507 -2.46341 4.17665 0
M  V30 1803 N 178.85 -1.27639 -0.924453 0
M  V30 1804 C 180.098 -1.13941 -1.66918 0
M  V30 1805 C 180.419 0.314589 -1.92446 0
M  V30 1806 O 179.689 1.21964 -1.53303 0
M  V30 1807 H 178.269 -0.418678 -0.618642 0
M  V30 1808 H 180.931 -1.60213 -1.10985 0
M  V30 1809 H 180.027 -1.67094 -2.63602 0
M  V30 1810 N 180.328 1.1314 -1.09713 0
M  V30 1811 C 181.291 2.16831 -0.742751 0
M  V30 1812 C 182.291 1.59159 0.229129 0
M  V30 1813 O 183.481 1.74199 0.00693237 0
M  V30 1814 C 180.613 3.40756 -0.0989168 0
M  V30 1815 H 181.806 2.49695 -1.66109 0
M  V30 1816 H 179.359 1.2802 -0.896699 0
M  V30 1817 H 180.094 3.13485 0.830514 0
M  V30 1818 H 179.879 3.83888 -0.798265 0
M  V30 1819 H 181.369 4.17386 0.133524 0
M  V30 1820 N 181.806 0.884767 1.30421 0
M  V30 1821 C 183.222 0.57874 1.48737 0
M  V30 1822 C 183.422 -0.883567 1.81095 0
M  V30 1823 O 182.478 -1.6648 1.89844 0
M  V30 1824 C 183.791 1.49171 2.61091 0
M  V30 1825 C 185.339 1.49532 2.74971 0
M  V30 1826 C 185.814 2.39421 3.90438 0
M  V30 1827 N 187.305 2.37383 3.97748 0
M  V30 1828 C 188.04 3.03647 4.86401 0
M  V30 1829 N 187.536 3.79136 5.79852 0
M  V30 1830 N 189.329 2.9288 4.79768 0
M  V30 1831 H 181.48 1.83075 1.0769 0
M  V30 1832 H 183.743 0.783637 0.533495 0
M  V30 1833 H 183.449 2.53291 2.44001 0
M  V30 1834 H 183.323 1.20113 3.57565 0
M  V30 1835 H 185.71 0.46163 2.91467 0
M  V30 1836 H 185.791 1.8262 1.79119 0
M  V30 1837 H 185.435 3.42874 3.74699 0
M  V30 1838 H 185.365 2.03649 4.85628 0
M  V30 1839 H 187.856 1.82525 3.30897 0
M  V30 1840 H 188.169 4.26789 6.4426 0
M  V30 1841 H 186.514 3.83243 5.79784 0
M  V30 1842 H 189.705 2.33433 4.05742 0
M  V30 1843 H 189.878 3.448 5.4865 0
M  V30 1844 N 183.284 -1.43765 0.645699 0
M  V30 1845 C 184.214 -2.33471 -0.0370477 0
M  V30 1846 C 185.195 -1.49042 -0.819779 0
M  V30 1847 O 186.38 -1.77726 -0.782758 0
M  V30 1848 C 183.51 -3.32311 -1.0093 0
M  V30 1849 C 182.464 -4.2667 -0.337201 0
M  V30 1850 C 181.79 -5.1549 -1.42037 0
M  V30 1851 C 183.09 -5.16657 0.765706 0
M  V30 1852 H 184.784 -2.90809 0.712069 0
M  V30 1853 H 182.33 -1.39834 0.343876 0
M  V30 1854 H 184.283 -3.9396 -1.49578 0
M  V30 1855 H 183.007 -2.73213 -1.78948 0
M  V30 1856 H 181.666 -3.66374 0.128771 0
M  V30 1857 H 181.314 -4.52735 -2.1918 0
M  V30 1858 H 181.014 -5.79438 -0.975966 0
M  V30 1859 H 182.538 -5.80012 -1.90838 0
M  V30 1860 H 183.952 -5.72158 0.361702 0
M  V30 1861 H 182.349 -5.89286 1.13413 0
M  V30 1862 H 183.419 -4.56796 1.62683 0
M  V30 1863 N 184.763 -0.387143 -1.52771 0
M  V30 1864 C 186.179 -0.037007 -1.59557 0
M  V30 1865 C 186.379 1.44801 -1.40124 0
M  V30 1866 O 185.435 2.21227 -1.21716 0
M  V30 1867 C 186.748 -0.512256 -2.96305 0
M  V30 1868 C 188.296 -0.468328 -3.09476 0
M  V30 1869 C 188.771 -0.919731 -4.4867 0
M  V30 1870 N 190.262 -0.875656 -4.54848 0
M  V30 1871 C 190.997 -1.19637 -5.6078 0
M  V30 1872 N 190.493 -1.58745 -6.74368 0
M  V30 1873 N 192.286 -1.11776 -5.50874 0
M  V30 1874 H 184.437 -1.35395 -1.63652 0
M  V30 1875 H 186.7 -0.554818 -0.768688 0
M  V30 1876 H 186.406 -1.54935 -3.15734 0
M  V30 1877 H 186.28 0.089805 -3.77093 0
M  V30 1878 H 188.667 0.559671 -2.89744 0
M  V30 1879 H 188.748 -1.10616 -2.30646 0
M  V30 1880 H 188.392 -1.94595 -4.69143 0
M  V30 1881 H 188.322 -0.258927 -5.25963 0
M  V30 1882 H 190.813 -0.587843 -3.733 0
M  V30 1883 H 191.126 -1.81586 -7.51163 0
M  V30 1884 H 189.471 -1.6263 -6.75705 0
M  V30 1885 H 192.662 -0.811264 -4.61016 0
M  V30 1886 H 192.835 -1.37103 -6.3333 0
M  V30 1887 N 186.241 1.57166 -0.116904 0
M  V30 1888 C 187.487 1.95412 0.542405 0
M  V30 1889 C 187.82 1.00019 1.66463 0
M  V30 1890 O 187.095 0.0370346 1.94465 0
M  V30 1891 C 187.378 3.43615 1.07708 0
M  V30 1892 C 187.231 4.49781 -0.0415868 0
M  V30 1893 C 188.55 3.93616 1.96861 0
M  V30 1894 H 185.669 0.710543 0.195696 0
M  V30 1895 H 188.311 1.89027 -0.192038 0
M  V30 1896 H 186.461 3.49187 1.70296 0
M  V30 1897 H 188.133 4.56308 -0.676793 0
M  V30 1898 H 186.376 4.28033 -0.705019 0
M  V30 1899 H 187.047 5.50733 0.373717 0
M  V30 1900 H 189.523 3.90335 1.44146 0
M  V30 1901 H 188.399 4.97838 2.3119 0
M  V30 1902 H 188.66 3.34188 2.89432 0
M  V30 1903 N 187.719 -0.156864 1.56817 0
M  V30 1904 C 188.682 -1.17781 1.96622 0
M  V30 1905 C 189.682 -1.36401 0.851555 0
M  V30 1906 O 190.872 -1.33561 1.11836 0
M  V30 1907 C 188.004 -2.54008 2.27361 0
M  V30 1908 H 189.197 -0.836564 2.87996 0
M  V30 1909 H 186.75 -0.39985 1.51099 0
M  V30 1910 H 187.485 -2.9312 1.38748 0
M  V30 1911 H 187.27 -2.41856 3.08623 0
M  V30 1912 H 188.76 -3.27558 2.59029 0
M  V30 1913 N 189.197 -1.51736 -0.425897 0
M  V30 1914 C 190.445 -1.64644 -1.17204 0
M  V30 1915 C 190.766 -0.370486 -1.91448 0
M  V30 1916 O 190.036 0.614088 -1.86026 0
M  V30 1917 H 188.616 -0.606819 -0.435638 0
M  V30 1918 H 191.278 -1.88713 -0.487177 0
M  V30 1919 H 190.374 -2.47958 -1.89534 0
M  V30 1920 N 190.675 0.682077 -1.42076 0
M  V30 1921 C 191.585 1.82535 -1.47371 0
M  V30 1922 C 192.601 1.7017 -0.363079 0
M  V30 1923 O 193.777 1.91848 -0.612875 0
M  V30 1924 C 190.842 3.18624 -1.36674 0
M  V30 1925 C 189.903 3.42999 -2.58167 0
M  V30 1926 C 189.136 4.72595 -2.4797 0
M  V30 1927 O 189.359 5.50006 -1.5116 0
M  V30 1928 O 188.293 4.98054 -3.37974 0
M  V30 1929 H 192.119 1.81023 -2.43853 0
M  V30 1930 H 189.704 0.836887 -1.2376 0
M  V30 1931 H 191.586 3.99847 -1.33043 0
M  V30 1932 H 190.261 3.20789 -0.433138 0
M  V30 1933 H 189.168 2.61653 -2.67373 0
M  V30 1934 H 190.501 3.45659 -3.50401 0
M  V30 1935 N 192.153 1.28127 0.917671 0
M  V30 1936 C 193.083 1.14248 2.03641 0
M  V30 1937 C 194.064 0.0412748 1.7005 0
M  V30 1938 O 195.249 0.217566 1.92977 0
M  V30 1939 C 192.379 0.799431 3.37974 0
M  V30 1940 C 191.333 1.85497 3.85713 0
M  V30 1941 C 190.659 1.36565 5.16966 0
M  V30 1942 C 191.959 3.26085 4.08002 0
M  V30 1943 H 193.653 2.07835 2.15511 0
M  V30 1944 H 191.199 1.00064 1.03553 0
M  V30 1945 H 193.152 0.689114 4.15727 0
M  V30 1946 H 191.876 -0.172145 3.26146 0
M  V30 1947 H 190.535 1.95437 3.10161 0
M  V30 1948 H 190.183 0.383253 5.01538 0
M  V30 1949 H 189.883 2.07143 5.49878 0
M  V30 1950 H 191.407 1.26848 5.97279 0
M  V30 1951 H 192.821 3.19089 4.76293 0
M  V30 1952 H 191.218 3.94462 4.52238 0
M  V30 1953 H 192.288 3.70394 3.12948 0
M  V30 1954 N 193.631 -1.12557 1.10312 0
M  V30 1955 C 194.878 -1.84038 0.844759 0
M  V30 1956 C 195.206 -1.84026 -0.629668 0
M  V30 1957 O 194.461 -1.28026 -1.48013 0
M  V30 1958 C 194.76 -3.31462 1.33669 0
M  V30 1959 C 194.426 -3.51647 2.82232 0
M  V30 1960 C 193.088 -3.56864 3.22802 0
M  V30 1961 C 195.44 -3.58867 3.77974 0
M  V30 1962 C 192.768 -3.66844 4.57867 0
M  V30 1963 C 195.12 -3.70375 5.1284 0
M  V30 1964 C 193.784 -3.73848 5.52986 0
M  V30 1965 H 193.054 -0.673444 0.309119 0
M  V30 1966 H 195.701 -1.32824 1.37949 0
M  V30 1967 H 194.006 -3.85091 0.721949 0
M  V30 1968 H 195.703 -3.85236 1.11329 0
M  V30 1969 H 192.293 -3.48249 2.49842 0
M  V30 1970 H 196.477 -3.54107 3.47738 0
M  V30 1971 H 191.733 -3.67804 4.88396 0
M  V30 1972 H 195.907 -3.74904 5.86873 0
M  V30 1973 H 193.534 -3.81333 6.57639 0
M  V30 1974 N 195.109 -0.891671 -1.2995 0
M  V30 1975 C 196.334 -0.527932 -2.00568 0
M  V30 1976 C 196.759 0.877969 -1.66353 0
M  V30 1977 O 196.117 1.58301 -0.883762 0
M  V30 1978 C 196.165 -0.717745 -3.53385 0
M  V30 1979 O 195.269 0.233376 -4.11739 0
M  V30 1980 H 194.61 -0.20722 -0.630837 0
M  V30 1981 H 197.14 -1.20105 -1.65638 0
M  V30 1982 H 197.15 -0.619307 -4.03272 0
M  V30 1983 H 195.825 -1.74276 -3.77625 0
M  V30 1984 H 194.402 0.0880706 -3.72796 0
M  V30 1985 N 196.587 1.43421 -0.653314 0
M  V30 1986 C 198.003 1.56341 -0.320886 0
M  V30 1987 C 198.203 1.63696 1.17499 0
M  V30 1988 O 197.259 1.59208 1.95982 0
M  V30 1989 C 198.572 2.82424 -1.03233 0
M  V30 1990 C 200.12 2.96168 -1.01259 0
M  V30 1991 C 200.595 4.25084 -1.70492 0
M  V30 1992 N 202.086 4.31948 -1.67257 0
M  V30 1993 C 202.821 5.30466 -2.17701 0
M  V30 1994 N 202.317 6.35261 -2.76434 0
M  V30 1995 N 204.11 5.2212 -2.082 0
M  V30 1996 H 196.261 1.3689 -1.62403 0
M  V30 1997 H 198.524 0.657455 -0.682977 0
M  V30 1998 H 198.23 2.83053 -2.08744 0
M  V30 1999 H 198.104 3.72653 -0.583948 0
M  V30 2000 H 200.491 2.9508 0.0341235 0
M  V30 2001 H 200.572 2.07229 -1.49966 0
M  V30 2002 H 200.216 4.26932 -2.7512 0
M  V30 2003 H 200.146 5.1292 -1.19251 0
M  V30 2004 H 202.637 3.56838 -1.24398 0
M  V30 2005 H 202.95 7.06754 -3.12601 0
M  V30 2006 H 201.295 6.35884 -2.80495 0
M  V30 2007 H 204.486 4.39166 -1.62021 0
M  V30 2008 H 204.659 5.98739 -2.47822 0
M  V30 2009 N 198.065 0.39524 1.52563 0
M  V30 2010 C 199.481 0.0454682 1.59535 0
M  V30 2011 C 199.681 -1.44056 1.4089 0
M  V30 2012 O 198.737 -2.20579 1.22888 0
M  V30 2013 C 200.05 0.527963 2.96029 0
M  V30 2014 C 201.598 0.484733 3.09224 0
M  V30 2015 C 202.073 0.943512 4.48176 0
M  V30 2016 N 203.564 0.899765 4.54377 0
M  V30 2017 C 204.299 1.22609 5.60138 0
M  V30 2018 N 203.795 1.62319 6.73516 0
M  V30 2019 N 205.588 1.14696 5.50274 0
M  V30 2020 H 197.739 1.36261 1.62931 0
M  V30 2021 H 200.002 0.558887 0.765735 0
M  V30 2022 H 199.708 1.56607 3.14908 0
M  V30 2023 H 199.582 -0.0698056 3.77135 0
M  V30 2024 H 201.969 -0.544298 2.90037 0
M  V30 2025 H 202.05 1.11838 2.30056 0
M  V30 2026 H 201.694 1.9708 4.68104 0
M  V30 2027 H 201.624 0.286817 5.25818 0
M  V30 2028 H 204.115 0.607632 3.72983 0
M  V30 2029 H 204.428 1.85567 7.5019 0
M  V30 2030 H 202.773 1.66211 6.74833 0
M  V30 2031 H 205.964 0.835701 4.6058 0
M  V30 2032 H 206.137 1.40459 6.32594 0
M  V30 2033 N 199.544 -1.57102 0.125237 0
M  V30 2034 C 200.507 -2.14471 -0.80838 0
M  V30 2035 C 201.507 -1.0811 -1.19033 0
M  V30 2036 O 202.697 -1.33856 -1.11482 0
M  V30 2037 C 199.829 -2.69005 -2.09402 0
M  V30 2038 H 201.022 -2.98297 -0.309696 0
M  V30 2039 H 198.575 -1.55807 -0.124051 0
M  V30 2040 H 199.31 -1.88785 -2.63687 0
M  V30 2041 H 199.095 -3.46799 -1.82957 0
M  V30 2042 H 200.585 -3.13278 -2.76128 0
M  V30 2043 N 201.022 0.148545 -1.56898 0
M  V30 2044 C 202.433 0.708766 -1.72723 0
M  V30 2045 C 202.784 1.81734 -0.739395 0
M  V30 2046 O 201.909 2.16194 0.0943169 0
M  V30 2047 C 202.504 1.29245 -3.13179 0
M  V30 2048 C 201.063 1.79925 -3.30611 0
M  V30 2049 C 200.21 0.687111 -2.68652 0
M  V30 2050 H 203.161 -0.0771063 -1.58513 0
M  V30 2051 H 203.182 2.16224 -3.13093 0
M  V30 2052 H 202.694 0.485382 -3.85053 0
M  V30 2053 H 200.795 2.63203 -2.63732 0
M  V30 2054 H 200.908 1.92903 -4.38549 0
M  V30 2055 H 199.272 1.11335 -2.29078 0
M  V30 2056 H 200.055 -0.108483 -3.43129 0
M  V30 2057 N 202.5 1.5196 0.417844 0
M  V30 2058 C 203.41 1.77554 1.53336 0
M  V30 2059 C 204.426 0.660655 1.6097 0
M  V30 2060 O 205.602 0.945099 1.77848 0
M  V30 2061 C 202.667 1.91291 2.89152 0
M  V30 2062 C 201.728 3.15183 2.91475 0
M  V30 2063 C 200.961 3.28256 4.20813 0
M  V30 2064 O 201.184 2.46798 5.14244 0
M  V30 2065 O 200.118 4.21356 4.29817 0
M  V30 2066 H 203.944 2.7222 1.34647 0
M  V30 2067 H 201.529 1.36698 0.602828 0
M  V30 2068 H 203.411 2.02199 3.69721 0
M  V30 2069 H 202.086 0.998129 3.07927 0
M  V30 2070 H 200.993 3.09739 2.09791 0
M  V30 2071 H 202.326 4.06414 2.77648 0
M  V30 2072 N 203.978 -0.674533 1.42435 0
M  V30 2073 C 205.226 -1.43175 1.42637 0
M  V30 2074 C 205.547 -1.94951 0.0438992 0
M  V30 2075 O 204.817 -1.7308 -0.917607 0
M  V30 2076 H 203.397 -0.531307 0.525092 0
M  V30 2077 H 206.059 -0.797006 1.77859 0
M  V30 2078 H 205.155 -2.28463 2.12629 0
M  V30 2079 N 205.456 -1.28612 -0.910864 0
M  V30 2080 C 206.702 -1.16106 -1.66274 0
M  V30 2081 C 207.035 0.289113 -1.92036 0
M  V30 2082 O 206.31 1.21 -1.52281 0
M  V30 2083 C 206.593 -1.96309 -3.01885 0
M  V30 2084 C 206.446 -3.49405 -2.8326 0
M  V30 2085 C 207.765 -1.78076 -4.02463 0
M  V30 2086 H 204.884 -0.423152 -0.603417 0
M  V30 2087 H 207.526 -1.57961 -1.05586 0
M  V30 2088 H 205.676 -1.60742 -3.53687 0
M  V30 2089 H 207.348 -3.94894 -2.38446 0
M  V30 2090 H 205.591 -3.74893 -2.18261 0
M  V30 2091 H 206.262 -4.00784 -3.79574 0
M  V30 2092 H 208.738 -2.0912 -3.59733 0
M  V30 2093 H 207.614 -2.36561 -4.95308 0
M  V30 2094 H 207.875 -0.733008 -4.35981 0
M  V30 2095 N 206.934 1.1197 -1.10907 0
M  V30 2096 C 208.211 1.79959 -0.766432 0
M  V30 2097 C 208.591 1.97466 0.746363 0
M  V30 2098 O 207.939 1.55491 1.67436 0
M  V30 2099 C 208.149 3.14009 -1.52314 0
M  V30 2100 C 209.497 3.89134 -1.69883 0
M  V30 2101 O 210.521 3.2368 -1.48692 0
M  V30 2102 O 209.38 5.06572 -2.05054 0
M  V30 2103 H 206.474 0.779208 -0.277062 0
M  V30 2104 H 209.02 1.18762 -1.21217 0
M  V30 2105 H 207.792 2.96587 -2.55249 0
M  V30 2106 H 207.415 3.82915 -1.07059 0
M  V30 2107 N 208.412 0.89855 1.29475 0
M  V30 2108 C 209.322 0.379974 2.31502 0
M  V30 2109 C 210.338 -0.524695 1.659 0
M  V30 2110 O 211.514 -0.414551 1.97087 0
M  V30 2111 C 208.579 -0.385138 3.44554 0
M  V30 2112 C 207.64 0.550914 4.2575 0
M  V30 2113 C 206.873 -0.177778 5.33404 0
M  V30 2114 O 207.096 -1.40189 5.52904 0
M  V30 2115 O 206.03 0.479106 5.9999 0
M  V30 2116 H 209.856 1.22639 2.77837 0
M  V30 2117 H 207.441 0.662834 1.33891 0
M  V30 2118 H 209.323 -0.817841 4.13388 0
M  V30 2119 H 207.998 -1.20763 3.0033 0
M  V30 2120 H 206.905 1.03271 3.59564 0
M  V30 2121 H 208.238 1.33979 4.73614 0
M  V30 2122 N 209.89 -1.43072 0.660911 0
M  V30 2123 C 211.115 -2.06584 0.183805 0
M  V30 2124 C 211.54 -1.49257 -1.14472 0
M  V30 2125 O 210.898 -0.605528 -1.70889 0
M  V30 2126 C 210.946 -3.60418 0.114434 0
M  V30 2127 O 210.05 -4.01981 -0.921137 0
M  V30 2128 H 209.391 -0.656669 0.0983994 0
M  V30 2129 H 211.921 -1.83447 0.906006 0
M  V30 2130 H 211.931 -4.07946 -0.0663394 0
M  V30 2131 H 210.606 -4.01519 1.08422 0
M  V30 2132 H 209.183 -3.66029 -0.71253 0
M  V30 2133 N 211.368 -0.403325 -1.52352 0
M  V30 2134 C 212.298 0.416205 -2.29761 0
M  V30 2135 C 213.279 1.05123 -1.33728 0
M  V30 2136 O 214.464 1.06134 -1.62632 0
M  V30 2137 C 211.594 1.53624 -3.11475 0
M  V30 2138 C 210.548 1.02653 -4.15507 0
M  V30 2139 C 209.874 2.23971 -4.85532 0
M  V30 2140 C 211.174 0.08463 -5.22231 0
M  V30 2141 H 212.868 -0.229701 -2.98518 0
M  V30 2142 H 210.414 -0.111913 -1.43564 0
M  V30 2143 H 212.367 2.1165 -3.64393 0
M  V30 2144 H 211.091 2.20994 -2.40477 0
M  V30 2145 H 209.75 0.46871 -3.63591 0
M  V30 2146 H 209.398 2.89883 -4.11068 0
M  V30 2147 H 209.098 1.90521 -5.55856 0
M  V30 2148 H 210.622 2.82614 -5.41259 0
M  V30 2149 H 212.036 0.573509 -5.70424 0
M  V30 2150 H 210.433 -0.160783 -5.99885 0
M  V30 2151 H 211.503 -0.86237 -4.7717 0
M  V30 2152 N 212.846 1.57033 -0.133567 0
M  V30 2153 C 213.809 2.14897 0.796995 0
M  V30 2154 C 214.809 1.0874 1.18458 0
M  V30 2155 O 215.999 1.34446 1.1077 0
M  V30 2156 C 213.131 2.70112 2.07973 0
M  V30 2157 H 214.324 2.98457 0.293873 0
M  V30 2158 H 211.877 1.55871 0.115787 0
M  V30 2159 H 212.612 1.9018 2.62682 0
M  V30 2160 H 212.397 3.47764 1.81115 0
M  V30 2161 H 213.887 3.14738 2.74462 0
M  V30 2162 N 214.325 -0.140222 1.56975 0
M  V30 2163 C 215.288 -1.15689 1.97861 0
M  V30 2164 C 216.288 -1.3549 0.865974 0
M  V30 2165 O 217.478 -1.32367 1.13246 0
M  V30 2166 C 214.61 -2.51582 2.30042 0
M  V30 2167 H 215.803 -0.805971 2.88867 0
M  V30 2168 H 213.356 -0.383801 1.51515 0
M  V30 2169 H 214.091 -2.91632 1.41849 0
M  V30 2170 H 213.876 -2.38569 3.11171 0
M  V30 2171 H 215.366 -3.24792 2.62488 0
M  V30 2172 N 215.803 -1.52179 -0.40978 0
M  V30 2173 C 217.05 -1.66206 -1.15679 0
M  V30 2174 C 217.378 -0.391674 -1.90516 0
M  V30 2175 O 216.633 0.62533 -1.8544 0
M  V30 2176 C 216.932 -2.83428 -2.17723 0
M  V30 2177 C 216.598 -4.21672 -1.59699 0
M  V30 2178 C 215.26 -4.59274 -1.43599 0
M  V30 2179 C 217.612 -5.07825 -1.17317 0
M  V30 2180 C 214.94 -5.80709 -0.836328 0
M  V30 2181 C 217.292 -6.29864 -0.587691 0
M  V30 2182 C 215.956 -6.66216 -0.413818 0
M  V30 2183 H 215.226 -0.608192 -0.423301 0
M  V30 2184 H 217.873 -1.86279 -0.444097 0
M  V30 2185 H 216.178 -2.57687 -2.95135 0
M  V30 2186 H 217.875 -2.91477 -2.75394 0
M  V30 2187 H 214.465 -3.9204 -1.73213 0
M  V30 2188 H 218.649 -4.79359 -1.28565 0
M  V30 2189 H 213.905 -6.07498 -0.689626 0
M  V30 2190 H 218.079 -6.95948 -0.250894 0
M  V30 2191 H 215.706 -7.60182 0.0529471 0
M  V30 2192 N 217.281 0.66697 -1.42791 0
M  V30 2193 C 218.529 1.42417 -1.43394 0
M  V30 2194 C 218.85 1.94925 -0.0542373 0
M  V30 2195 O 218.12 1.73564 0.908415 0
M  V30 2196 H 216.7 0.528515 -0.527902 0
M  V30 2197 H 219.362 0.787562 -1.78279 0
M  V30 2198 H 218.458 2.27333 -2.13837 0
M  V30 2199 N 218.759 1.29093 0.90403 0
M  V30 2200 C 220.175 1.07011 1.1841 0
M  V30 2201 C 220.375 -0.181358 2.00682 0
M  V30 2202 O 219.431 -0.880331 2.36657 0
M  V30 2203 C 220.744 2.32311 1.90924 0
M  V30 2204 C 222.292 2.37587 2.03768 0
M  V30 2205 C 222.767 3.62679 2.79693 0
M  V30 2206 N 224.258 3.63376 2.87249 0
M  V30 2207 C 224.993 4.56848 3.46522 0
M  V30 2208 N 224.489 5.60648 4.06996 0
M  V30 2209 N 226.282 4.44426 3.44154 0
M  V30 2210 H 218.433 2.09412 0.354993 0
M  V30 2211 H 220.696 0.922181 0.219742 0
M  V30 2212 H 220.402 3.23536 1.37905 0
M  V30 2213 H 220.276 2.39483 2.91424 0
M  V30 2214 H 222.663 1.46853 2.55965 0
M  V30 2215 H 222.744 2.34403 1.02415 0
M  V30 2216 H 222.388 4.53762 2.28173 0
M  V30 2217 H 222.318 3.63119 3.81381 0
M  V30 2218 H 224.809 2.88321 2.44293 0
M  V30 2219 H 225.122 6.28101 4.50232 0
M  V30 2220 H 223.467 5.64463 4.05471 0
M  V30 2221 H 226.658 3.62529 2.96126 0
M  V30 2222 H 226.831 5.17457 3.90054 0
M  V30 2223 N 220.237 -1.11381 1.11499 0
M  V30 2224 C 221.653 -1.35143 0.849031 0
M  V30 2225 C 221.853 -1.94515 -0.525938 0
M  V30 2226 O 220.909 -2.1785 -1.27662 0
M  V30 2227 C 222.222 -2.28249 1.95762 0
M  V30 2228 C 223.77 -2.41812 1.98736 0
M  V30 2229 C 224.245 -3.3824 3.088 0
M  V30 2230 N 225.736 -3.45803 3.08179 0
M  V30 2231 C 226.471 -4.20358 3.89982 0
M  V30 2232 N 225.967 -4.97884 4.8175 0
M  V30 2233 N 227.76 -4.15877 3.78157 0
M  V30 2234 H 219.911 -0.712062 2.00109 0
M  V30 2235 H 222.174 -0.376025 0.870235 0
M  V30 2236 H 221.88 -1.91817 2.94787 0
M  V30 2237 H 221.754 -3.28473 1.85433 0
M  V30 2238 H 224.141 -2.77518 1.00338 0
M  V30 2239 H 224.222 -1.41437 2.13141 0
M  V30 2240 H 223.866 -3.03261 4.07425 0
M  V30 2241 H 223.796 -4.38471 2.91635 0
M  V30 2242 H 226.287 -2.90506 2.41691 0
M  V30 2243 H 226.6 -5.52142 5.40702 0
M  V30 2244 H 224.945 -4.97043 4.85771 0
M  V30 2245 H 228.136 -3.544 3.05808 0
M  V30 2246 H 228.309 -4.73723 4.42143 0
M  V30 2247 N 221.715 -0.905404 -1.28997 0
M  V30 2248 C 222.665 -0.358713 -2.25161 0
M  V30 2249 C 223.649 0.524449 -1.52113 0
M  V30 2250 O 224.841 0.365534 -1.73184 0
M  V30 2251 C 221.97 0.407609 -3.40872 0
M  V30 2252 C 221.056 -0.490797 -4.21251 0
M  V30 2253 N 221.447 -1.60061 -4.79806 0
M  V30 2254 C 219.745 -0.289636 -4.45059 0
M  V30 2255 C 220.446 -2.15757 -5.40207 0
M  V30 2256 N 219.422 -1.44988 -5.23908 0
M  V30 2257 H 223.224 -1.20642 -2.67998 0
M  V30 2258 H 220.738 -0.757103 -1.43672 0
M  V30 2259 H 222.735 0.816046 -4.08835 0
M  V30 2260 H 221.395 1.25251 -2.9957 0
M  V30 2261 H 222.406 -1.98329 -4.7842 0
M  V30 2262 H 219.083 0.51643 -4.14294 0
M  V30 2263 H 220.473 -3.09069 -5.96595 0
M  V30 2264 N 223.193 1.4272 -0.668489 0
M  V30 2265 C 224.123 2.335 -0.000100175 0
M  V30 2266 C 225.104 1.50328 0.795964 0
M  V30 2267 O 226.289 1.78949 0.754385 0
M  V30 2268 C 223.419 3.33874 0.956302 0
M  V30 2269 C 222.373 4.27152 0.269278 0
M  V30 2270 C 221.699 5.17684 1.33818 0
M  V30 2271 C 222.999 5.15373 -0.847805 0
M  V30 2272 H 224.693 2.89639 -0.758244 0
M  V30 2273 H 222.239 1.39269 -0.366079 0
M  V30 2274 H 224.192 3.9629 1.43292 0
M  V30 2275 H 222.916 2.76025 1.74579 0
M  V30 2276 H 221.575 3.66123 -0.187042 0
M  V30 2277 H 221.223 4.56165 2.1195 0
M  V30 2278 H 220.923 5.80918 0.883659 0
M  V30 2279 H 222.447 5.82974 1.81586 0
M  V30 2280 H 223.861 5.7151 -0.452681 0
M  V30 2281 H 222.258 5.87407 -1.22773 0
M  V30 2282 H 223.328 4.5415 -1.69929 0
M  V30 2283 N 224.671 0.411399 1.52136 0
M  V30 2284 C 225.919 -0.163322 2.01439 0
M  V30 2285 C 226.24 -1.45453 1.29879 0
M  V30 2286 O 225.51 -1.91225 0.4254 0
M  V30 2287 H 224.09 -0.0633447 0.744309 0
M  V30 2288 H 226.752 0.548161 1.87033 0
M  V30 2289 H 225.848 -0.357817 3.10042 0
M  V30 2290 N 226.149 -1.5696 0.141893 0
M  V30 2291 C 227.099 -2.13074 -0.811383 0
M  V30 2292 C 228.083 -1.05726 -1.21288 0
M  V30 2293 O 229.275 -1.31914 -1.18015 0
M  V30 2294 C 226.404 -2.75186 -2.0525 0
M  V30 2295 C 225.49 -3.8965 -1.67432 0
M  V30 2296 N 225.881 -4.95733 -1.0041 0
M  V30 2297 C 224.179 -4.00262 -1.96739 0
M  V30 2298 C 224.88 -5.75858 -0.822345 0
M  V30 2299 N 223.856 -5.26452 -1.3546 0
M  V30 2300 H 227.658 -2.92465 -0.290031 0
M  V30 2301 H 225.172 -1.6229 -0.0598218 0
M  V30 2302 H 227.169 -3.13745 -2.74535 0
M  V30 2303 H 225.829 -1.97266 -2.57907 0
M  V30 2304 H 226.84 -5.13607 -0.665441 0
M  V30 2305 H 223.517 -3.33412 -2.51282 0
M  V30 2306 H 224.907 -6.71254 -0.294496 0
M  V30 2307 N 227.627 0.131896 -1.57047 0
M  V30 2308 C 229.043 0.485031 -1.52051 0
M  V30 2309 C 229.243 1.82563 -0.85281 0
M  V30 2310 O 228.299 2.48817 -0.429694 0
M  V30 2311 C 229.612 0.481409 -2.96821 0
M  V30 2312 C 231.16 0.565868 -3.07842 0
M  V30 2313 C 231.635 0.592762 -4.54148 0
M  V30 2314 N 233.126 0.654564 -4.58552 0
M  V30 2315 C 233.861 0.696608 -5.69153 0
M  V30 2316 N 233.357 0.697078 -6.89284 0
M  V30 2317 N 235.15 0.738639 -5.57226 0
M  V30 2318 H 227.301 -0.746664 -1.98843 0
M  V30 2319 H 229.564 -0.273999 -0.90754 0
M  V30 2320 H 229.27 -0.435731 -3.4899 0
M  V30 2321 H 229.144 1.3139 -3.53577 0
M  V30 2322 H 231.531 1.47343 -2.55684 0
M  V30 2323 H 231.612 -0.29406 -2.54104 0
M  V30 2324 H 231.256 -0.310701 -5.06949 0
M  V30 2325 H 231.186 1.46939 -5.05684 0
M  V30 2326 H 233.677 0.660887 -3.72076 0
M  V30 2327 H 233.99 0.731426 -7.69331 0
M  V30 2328 H 232.335 0.66471 -6.91814 0
M  V30 2329 H 235.526 0.735545 -4.62285 0
M  V30 2330 H 235.699 0.767938 -6.43434 0
M  V30 2331 N 229.106 1.52395 0.401703 0
M  V30 2332 C 230.069 1.75636 1.47257 0
M  V30 2333 C 231.069 0.62628 1.48103 0
M  V30 2334 O 232.259 0.894227 1.49497 0
M  V30 2335 C 229.391 1.84553 2.86624 0
M  V30 2336 H 230.584 2.71241 1.27938 0
M  V30 2337 H 228.137 1.42923 0.632662 0
M  V30 2338 H 228.872 0.908882 3.11303 0
M  V30 2339 H 228.657 2.66715 2.87412 0
M  V30 2340 H 230.147 2.04251 3.64241 0
M  V30 2341 N 230.584 -0.659388 1.43143 0
M  V30 2342 C 231.812 -1.44723 1.47861 0
M  V30 2343 C 232.227 -1.88563 0.0945886 0
M  V30 2344 O 231.584 -1.59108 -0.893915 0
M  V30 2345 C 231.635 -2.68627 2.41913 0
M  V30 2346 O 231.356 -2.26623 3.74932 0
M  V30 2347 C 232.857 -3.62045 2.55809 0
M  V30 2348 H 230.077 -0.444801 0.502387 0
M  V30 2349 H 232.621 -0.808916 1.87821 0
M  V30 2350 H 230.776 -3.28613 2.05164 0
M  V30 2351 H 231.19 -3.06745 4.2545 0
M  V30 2352 H 232.664 -4.45666 3.25708 0
M  V30 2353 H 233.141 -4.08981 1.60099 0
M  V30 2354 H 233.747 -3.07944 2.93344 0
M  V30 2355 N 232.062 -1.29571 -0.897171 0
M  V30 2356 C 232.994 -1.10724 -2.00681 0
M  V30 2357 C 234.007 -0.0540026 -1.6271 0
M  V30 2358 O 235.196 -0.298783 -1.75982 0
M  V30 2359 C 232.296 -0.663912 -3.32333 0
M  V30 2360 C 231.469 -1.79622 -3.98816 0
M  V30 2361 C 230.528 -1.34349 -5.0876 0
M  V30 2362 O 229.554 -2.04864 -5.31055 0
M  V30 2363 N 230.756 -0.215764 -5.80099 0
M  V30 2364 H 233.521 -2.06291 -2.17403 0
M  V30 2365 H 231.082 -1.21544 -1.06951 0
M  V30 2366 H 233.074 -0.344295 -4.03233 0
M  V30 2367 H 231.644 0.199375 -3.11964 0
M  V30 2368 H 230.864 -2.28459 -3.21248 0
M  V30 2369 H 232.152 -2.55535 -4.39976 0
M  V30 2370 H 231.55 0.372091 -5.64475 0
M  V30 2371 H 230.107 0.0444707 -6.51785 0
M  V30 2372 N 233.54 1.10788 -1.12088 0
M  V30 2373 C 234.786 1.82942 -0.875226 0
M  V30 2374 C 235.119 1.84779 0.597538 0
M  V30 2375 O 234.394 1.30578 1.44152 0
M  V30 2376 C 234.677 3.29789 -1.44606 0
M  V30 2377 C 234.53 3.36307 -2.98693 0
M  V30 2378 C 235.849 4.26064 -1.10261 0
M  V30 2379 H 232.968 0.664195 -0.319397 0
M  V30 2380 H 235.61 1.29867 -1.38689 0
M  V30 2381 H 233.76 3.75118 -1.01089 0
M  V30 2382 H 235.432 2.99487 -3.50864 0
M  V30 2383 H 233.675 2.76318 -3.34411 0
M  V30 2384 H 234.346 4.39694 -3.33726 0
M  V30 2385 H 236.822 3.88951 -1.4784 0
M  V30 2386 H 235.698 5.27183 -1.52869 0
M  V30 2387 H 235.959 4.42098 -0.0142953 0
M  V30 2388 N 235.018 0.912232 1.28515 0
M  V30 2389 C 235.948 0.416403 2.29757 0
M  V30 2390 C 236.929 -0.515194 1.6211 0
M  V30 2391 O 238.114 -0.423253 1.89532 0
M  V30 2392 C 235.244 -0.34572 3.45575 0
M  V30 2393 C 234.198 0.496599 4.25109 0
M  V30 2394 C 233.524 -0.393771 5.33248 0
M  V30 2395 C 234.824 1.75307 4.92001 0
M  V30 2396 H 236.518 1.26249 2.7148 0
M  V30 2397 H 234.064 0.608515 1.30511 0
M  V30 2398 H 236.017 -0.703422 4.15488 0
M  V30 2399 H 234.741 -1.2257 3.02728 0
M  V30 2400 H 233.4 0.8368 3.56922 0
M  V30 2401 H 233.048 -1.27225 4.86644 0
M  V30 2402 H 232.748 0.166209 5.87365 0
M  V30 2403 H 234.272 -0.747389 6.06009 0
M  V30 2404 H 235.686 1.46437 5.54283 0
M  V30 2405 H 234.083 2.25534 5.56106 0
M  V30 2406 H 235.153 2.48176 4.16577 0
M  V30 2407 N 236.496 -1.42363 0.676048 0
M  V30 2408 C 237.426 -2.33497 0.0124832 0
M  V30 2409 C 238.407 -1.50748 -0.787981 0
M  V30 2410 O 239.592 -1.79346 -0.744884 0
M  V30 2411 C 236.722 -3.34377 -0.938582 0
M  V30 2412 C 235.676 -4.27289 -0.246622 0
M  V30 2413 C 235.002 -5.18386 -1.31071 0
M  V30 2414 C 236.302 -5.14916 0.875125 0
M  V30 2415 H 237.996 -2.89233 0.773593 0
M  V30 2416 H 235.542 -1.39073 0.37346 0
M  V30 2417 H 237.495 -3.97044 -1.41188 0
M  V30 2418 H 236.219 -2.76947 -1.73113 0
M  V30 2419 H 234.878 -3.66018 0.206456 0
M  V30 2420 H 234.526 -4.57282 -2.09528 0
M  V30 2421 H 234.226 -5.81378 -0.852839 0
M  V30 2422 H 235.75 -5.83929 -1.78492 0
M  V30 2423 H 237.164 -5.71262 0.482983 0
M  V30 2424 H 235.561 -5.86747 1.25887 0
M  V30 2425 H 236.631 -4.53242 1.72335 0
M  V30 2426 N 237.974 -0.419461 -1.51915 0
M  V30 2427 C 239.251 0.211999 -1.94448 0
M  V30 2428 C 239.631 1.61703 -1.35703 0
M  V30 2429 O 238.979 2.22102 -0.536931 0
M  V30 2430 C 239.189 0.207872 -3.4838 0
M  V30 2431 C 240.537 0.422192 -4.22496 0
M  V30 2432 O 241.561 0.286778 -3.55044 0
M  V30 2433 O 240.42 0.690009 -5.42126 0
M  V30 2434 H 237.514 0.139586 -0.815135 0
M  V30 2435 H 240.06 -0.476151 -1.62883 0
M  V30 2436 H 238.832 -0.775102 -3.83546 0
M  V30 2437 H 238.455 0.939688 -3.86336 0
M  V30 2438 N 239.452 1.56882 -0.150215 0
M  V30 2439 C 240.415 2.1573 0.774157 0
M  V30 2440 C 241.415 1.0999 1.17298 0
M  V30 2441 O 242.605 1.35613 1.09338 0
M  V30 2442 C 239.737 2.72302 2.05096 0
M  V30 2443 H 240.93 2.98752 0.262201 0
M  V30 2444 H 238.483 1.55985 0.099248 0
M  V30 2445 H 239.218 1.92956 2.6065 0
M  V30 2446 H 239.003 3.49665 1.77416 0
M  V30 2447 H 240.493 3.17632 2.71109 0
M  V30 2448 N 240.93 -0.123565 1.57115 0
M  V30 2449 C 242.176 -0.833386 1.84885 0
M  V30 2450 C 242.509 -1.79742 0.735292 0
M  V30 2451 O 241.784 -1.92764 -0.25925 0
M  V30 2452 C 242.067 -1.5873 3.23228 0
M  V30 2453 C 241.92 -0.643183 4.45178 0
M  V30 2454 C 243.239 -2.54453 3.59085 0
M  V30 2455 H 240.358 -0.301518 0.6725 0
M  V30 2456 H 243 -0.097778 1.89748 0
M  V30 2457 H 241.15 -2.21438 3.19214 0
M  V30 2458 H 242.822 -0.0253015 4.61293 0
M  V30 2459 H 241.065 0.0456139 4.33776 0
M  V30 2460 H 241.736 -1.20724 5.38637 0
M  V30 2461 H 244.212 -2.01853 3.63861 0
M  V30 2462 H 243.088 -3.04238 4.5687 0
M  V30 2463 H 243.349 -3.36906 2.86264 0
M  V30 2464 N 242.408 -1.52605 -0.393616 0
M  V30 2465 C 243.34 -1.73303 -1.49995 0
M  V30 2466 C 244.353 -0.613473 -1.50799 0
M  V30 2467 O 245.542 -0.889049 -1.54784 0
M  V30 2468 C 242.642 -1.77245 -2.88855 0
M  V30 2469 C 241.815 -3.06483 -3.12069 0
M  V30 2470 C 240.874 -3.02033 -4.30886 0
M  V30 2471 O 239.9 -3.75907 -4.27414 0
M  V30 2472 N 241.102 -2.20897 -5.36828 0
M  V30 2473 H 243.867 -2.68756 -1.32629 0
M  V30 2474 H 241.428 -1.51036 -0.583083 0
M  V30 2475 H 243.42 -1.7178 -3.66434 0
M  V30 2476 H 241.99 -0.891993 -2.99603 0
M  V30 2477 H 241.21 -3.25474 -2.22396 0
M  V30 2478 H 242.498 -3.91947 -3.2443 0
M  V30 2479 H 241.896 -1.60336 -5.42502 0
M  V30 2480 H 240.453 -2.21275 -6.13091 0
M  V30 2481 N 243.887 0.651787 -1.4349 0
M  V30 2482 C 245.115 1.43937 -1.48626 0
M  V30 2483 C 245.53 1.8851 -0.104587 0
M  V30 2484 O 244.887 1.5958 0.885464 0
M  V30 2485 C 244.938 2.6734 -2.43334 0
M  V30 2486 O 244.659 2.24631 -3.76128 0
M  V30 2487 C 246.16 3.60683 -2.57726 0
M  V30 2488 H 243.38 0.44213 -0.504739 0
M  V30 2489 H 245.924 0.798944 -1.88248 0
M  V30 2490 H 244.079 3.2752 -2.06904 0
M  V30 2491 H 244.493 3.04485 -4.2707 0
M  V30 2492 H 245.967 4.43933 -3.28067 0
M  V30 2493 H 246.444 4.08126 -1.62265 0
M  V30 2494 H 247.05 3.06384 -2.94973 0
M  V30 2495 N 245.365 1.30045 0.890287 0
M  V30 2496 C 246.613 1.18327 1.63839 0
M  V30 2497 C 246.934 -0.263455 1.93212 0
M  V30 2498 O 246.204 -1.17856 1.56482 0
M  V30 2499 H 244.784 0.434933 0.607324 0
M  V30 2500 H 247.446 1.631 1.06698 0
M  V30 2501 H 246.542 1.74024 2.59079 0
M  V30 2502 N 246.843 -1.10192 1.12674 0
M  V30 2503 C 248.092 -1.81573 0.8783 0
M  V30 2504 C 248.405 -1.86249 -0.597557 0
M  V30 2505 O 249.611 -2.5386 -0.962681 0
M  V30 2506 C 248.067 -3.26149 1.52167 0
M  V30 2507 C 247.675 -3.29763 3.03249 0
M  V30 2508 C 249.419 -4.0234 1.3536 0
M  V30 2509 C 247.326 -4.68815 3.60508 0
M  V30 2510 H 246.256 -0.680394 0.324931 0
M  V30 2511 H 248.907 -1.23902 1.35353 0
M  V30 2512 H 247.289 -3.83832 0.974104 0
M  V30 2513 H 248.463 -2.8189 3.6452 0
M  V30 2514 H 246.778 -2.67059 3.19481 0
M  V30 2515 H 249.375 -5.05058 1.75559 0
M  V30 2516 H 249.718 -4.15235 0.297554 0
M  V30 2517 H 250.251 -3.51079 1.87052 0
M  V30 2518 H 246.99 -4.61121 4.65884 0
M  V30 2519 H 246.51 -5.17045 3.04014 0
M  V30 2520 H 248.189 -5.37785 3.59717 0
M  V30 2521 N 248.321 -0.919034 -1.28029 0
M  V30 2522 C 249.551 -0.570143 -1.98577 0
M  V30 2523 C 249.959 0.854172 -1.68821 0
M  V30 2524 O 249.302 1.57807 -0.940351 0
M  V30 2525 C 249.364 -0.705734 -3.52505 0
M  V30 2526 C 249.028 -2.10057 -4.05863 0
M  V30 2527 C 250.025 -3.07385 -4.19298 0
M  V30 2528 C 247.71 -2.41517 -4.40426 0
M  V30 2529 C 249.704 -4.34287 -4.66555 0
M  V30 2530 C 247.391 -3.68657 -4.87376 0
M  V30 2531 C 248.389 -4.64856 -5.00398 0
M  V30 2532 O 248.077 -5.89735 -5.46322 0
M  V30 2533 H 247.809 -0.215592 -0.6407 0
M  V30 2534 H 250.363 -1.23583 -1.64062 0
M  V30 2535 H 248.593 0.0170414 -3.86696 0
M  V30 2536 H 250.282 -0.363172 -4.04272 0
M  V30 2537 H 251.048 -2.84398 -3.92865 0
M  V30 2538 H 246.927 -1.67389 -4.29537 0
M  V30 2539 H 250.471 -5.09377 -4.76635 0
M  V30 2540 H 246.368 -3.91466 -5.13249 0
M  V30 2541 H 247.136 -5.92599 -5.64596 0
M  V30 2542 N 249.799 1.42003 -0.683588 0
M  V30 2543 C 250.762 2.29191 -0.0198243 0
M  V30 2544 C 251.762 1.43773 0.72013 0
M  V30 2545 O 252.952 1.65061 0.556815 0
M  V30 2546 C 250.084 3.26435 0.982487 0
M  V30 2547 H 251.277 2.8938 -0.787345 0
M  V30 2548 H 248.83 1.49789 -0.446418 0
M  V30 2549 H 249.565 2.71203 1.77819 0
M  V30 2550 H 249.35 3.89449 0.455182 0
M  V30 2551 H 250.84 3.918 1.44508 0
M  V30 2552 N 251.277 0.427512 1.51691 0
M  V30 2553 C 252.525 -0.141948 2.01601 0
M  V30 2554 C 252.846 -1.44067 1.31414 0
M  V30 2555 O 252.116 -1.90763 0.445658 0
M  V30 2556 H 250.696 -0.0554468 0.744939 0
M  V30 2557 H 253.358 0.567968 1.86441 0
M  V30 2558 H 252.454 -0.324913 3.10404 0
M  V30 2559 N 252.755 -1.56801 0.158532 0
M  V30 2560 C 254.032 -1.88131 -0.535357 0
M  V30 2561 C 254.412 -1.06638 -1.82186 0
M  V30 2562 O 253.76 -0.156533 -2.27963 0
M  V30 2563 C 253.97 -3.39949 -0.789653 0
M  V30 2564 C 255.318 -4.09416 -1.12533 0
M  V30 2565 O 256.342 -3.45194 -0.878622 0
M  V30 2566 O 255.201 -5.22855 -1.59014 0
M  V30 2567 H 252.295 -0.780143 -0.27442 0
M  V30 2568 H 254.841 -1.68564 0.19601 0
M  V30 2569 H 253.613 -3.91115 0.120353 0
M  V30 2570 H 253.236 -3.65084 -1.57479 0
M  V30 2571 N 254.233 0.115231 -1.57178 0
M  V30 2572 C 255.479 0.82357 -1.85325 0
M  V30 2573 C 255.812 1.79349 -0.744814 0
M  V30 2574 O 255.087 1.92899 0.249024 0
M  V30 2575 C 255.37 1.57014 -3.24066 0
M  V30 2576 C 255.223 0.619565 -4.45513 0
M  V30 2577 C 256.542 2.52545 -3.60429 0
M  V30 2578 H 253.661 0.297948 -0.674089 0
M  V30 2579 H 256.303 0.0877138 -1.89797 0
M  V30 2580 H 254.453 2.19742 -3.20383 0
M  V30 2581 H 256.125 0.000837639 -4.613 0
M  V30 2582 H 254.368 -0.0686174 -4.33746 0
M  V30 2583 H 255.039 1.17866 -5.3927 0
M  V30 2584 H 257.515 1.9992 -3.64926 0
M  V30 2585 H 256.391 3.01811 -4.58477 0
M  V30 2586 H 256.652 3.35383 -2.88047 0
M  V30 2587 N 255.711 1.52812 0.385517 0
M  V30 2588 C 256.621 1.80766 1.49535 0
M  V30 2589 C 257.637 0.694651 1.59532 0
M  V30 2590 O 258.813 0.982611 1.75803 0
M  V30 2591 C 255.878 1.97381 2.85029 0
M  V30 2592 C 254.939 3.21295 2.84724 0
M  V30 2593 C 254.172 3.37108 4.13756 0
M  V30 2594 O 254.395 2.5765 5.08893 0
M  V30 2595 O 253.329 4.30378 4.20783 0
M  V30 2596 H 257.155 2.75015 1.28842 0
M  V30 2597 H 254.74 1.37946 0.573697 0
M  V30 2598 H 256.622 2.09996 3.65349 0
M  V30 2599 H 255.297 1.06322 3.05741 0
M  V30 2600 H 254.204 3.1412 2.03174 0
M  V30 2601 H 255.537 4.12212 2.68965 0
M  V30 2602 N 257.189 -0.644168 1.43834 0
M  V30 2603 C 258.121 -1.76955 1.45669 0
M  V30 2604 C 259.134 -1.58956 0.351666 0
M  V30 2605 O 260.323 -1.6751 0.616644 0
M  V30 2606 C 257.423 -3.14507 1.26248 0
M  V30 2607 C 256.596 -3.59083 2.49757 0
M  V30 2608 C 255.655 -4.75467 2.25427 0
M  V30 2609 O 254.681 -4.84444 2.98836 0
M  V30 2610 N 255.883 -5.66289 1.27661 0
M  V30 2611 H 258.648 -1.75856 2.42682 0
M  V30 2612 H 256.209 -0.828312 1.39106 0
M  V30 2613 H 258.201 -3.90067 1.0784 0
M  V30 2614 H 256.771 -3.10325 0.376478 0
M  V30 2615 H 255.991 -2.7387 2.8353 0
M  V30 2616 H 257.279 -3.85613 3.31934 0
M  V30 2617 H 256.677 -5.61718 0.670064 0
M  V30 2618 H 255.234 -6.41533 1.15234 0
M  V30 2619 N 258.668 -1.30515 -0.883378 0
M  V30 2620 C 259.598 -1.19607 -2.00541 0
M  V30 2621 C 260.579 -0.086346 -1.69881 0
M  V30 2622 O 261.764 -0.268654 -1.92333 0
M  V30 2623 C 258.894 -0.888758 -3.35736 0
M  V30 2624 C 257.848 -1.95659 -3.8066 0
M  V30 2625 C 257.174 -1.50224 -5.13164 0
M  V30 2626 C 258.474 -3.36788 -3.99213 0
M  V30 2627 H 260.168 -2.13476 -2.09925 0
M  V30 2628 H 257.714 -1.02775 -1.00863 0
M  V30 2629 H 259.667 -0.799094 -4.13754 0
M  V30 2630 H 258.391 0.0856125 -3.26488 0
M  V30 2631 H 257.05 -2.03591 -3.04871 0
M  V30 2632 H 256.698 -0.516092 -5.00345 0
M  V30 2633 H 256.398 -2.2165 -5.44192 0
M  V30 2634 H 257.922 -1.42639 -5.93706 0
M  V30 2635 H 259.336 -3.31605 -4.67665 0
M  V30 2636 H 257.733 -4.06314 -4.41621 0
M  V30 2637 H 258.803 -3.78561 -3.03017 0
M  V30 2638 N 260.146 1.09593 -1.13257 0
M  V30 2639 C 261.371 1.8604 -0.916732 0
M  V30 2640 C 261.796 1.80504 0.529146 0
M  V30 2641 O 261.154 1.18127 1.37534 0
M  V30 2642 C 261.202 3.32017 -1.40703 0
M  V30 2643 O 260.306 4.08141 -0.591153 0
M  V30 2644 H 259.647 0.576943 -0.328683 0
M  V30 2645 H 262.177 1.38405 -1.50682 0
M  V30 2646 H 262.187 3.82865 -1.4099 0
M  V30 2647 H 260.862 3.35361 -2.45979 0
M  V30 2648 H 259.439 3.67084 -0.656005 0
M  V30 2649 N 261.624 0.925811 1.2754 0
M  V30 2650 C 262.87 0.566092 1.94739 0
M  V30 2651 C 263.203 -0.890057 1.72603 0
M  V30 2652 O 262.478 -1.63467 1.05399 0
M  V30 2653 C 262.761 0.89054 3.48915 0
M  V30 2654 C 262.614 2.4003 3.80402 0
M  V30 2655 C 263.933 0.395101 4.38323 0
M  V30 2656 H 261.052 0.20714 0.707292 0
M  V30 2657 H 263.694 1.15725 1.50691 0
M  V30 2658 H 261.844 0.387452 3.86563 0
M  V30 2659 H 263.516 2.97494 3.52555 0
M  V30 2660 H 261.759 2.85028 3.2702 0
M  V30 2661 H 262.43 2.57785 4.8811 0
M  V30 2662 H 264.906 0.826241 4.07814 0
M  V30 2663 H 263.782 0.651086 5.45025 0
M  V30 2664 H 264.043 -0.704798 4.36446 0
M  V30 2665 N 263.102 -1.41638 0.69111 0
M  V30 2666 C 264.065 -2.29178 0.0319786 0
M  V30 2667 C 265.065 -1.44153 -0.712496 0
M  V30 2668 O 266.255 -1.65354 -0.548053 0
M  V30 2669 C 263.387 -3.26952 -0.965161 0
M  V30 2670 H 264.58 -2.88959 0.802681 0
M  V30 2671 H 262.133 -1.4955 0.454356 0
M  V30 2672 H 262.868 -2.72142 -1.76378 0
M  V30 2673 H 262.653 -3.89685 -0.434522 0
M  V30 2674 H 264.143 -3.92561 -1.42428 0
M  V30 2675 N 264.58 -0.43555 -1.51462 0
M  V30 2676 C 265.543 0.365137 -2.26273 0
M  V30 2677 C 266.543 0.951227 -1.29647 0
M  V30 2678 O 267.733 0.825958 -1.53374 0
M  V30 2679 C 264.865 1.51645 -3.05314 0
M  V30 2680 H 266.058 -0.290474 -2.9849 0
M  V30 2681 H 263.611 -0.188676 -1.55157 0
M  V30 2682 H 264.346 2.20816 -2.3751 0
M  V30 2683 H 264.131 1.10238 -3.76284 0
M  V30 2684 H 265.621 2.08218 -3.61987 0
M  V30 2685 N 266.058 1.56714 -0.166846 0
M  V30 2686 C 267.286 2.0112 0.485644 0
M  V30 2687 C 267.701 1.04705 1.57106 0
M  V30 2688 O 267.058 0.0471923 1.82439 0
M  V30 2689 C 267.109 3.45361 1.06808 0
M  V30 2690 O 266.83 4.38092 0.0259995 0
M  V30 2691 C 268.331 4.05145 1.79924 0
M  V30 2692 H 265.551 0.65931 0.124704 0
M  V30 2693 H 268.095 2.02746 -0.267262 0
M  V30 2694 H 266.25 3.44524 1.7715 0
M  V30 2695 H 266.664 5.22519 0.455398 0
M  V30 2696 H 268.138 5.08009 2.15942 0
M  V30 2697 H 268.615 3.46982 2.69258 0
M  V30 2698 H 269.221 4.09672 1.14234 0
M  V30 2699 N 267.536 -0.106894 1.57237 0
M  V30 2700 C 268.783 -0.812526 1.85484 0
M  V30 2701 C 269.111 -1.79304 0.753687 0
M  V30 2702 O 268.366 -1.94047 -0.253853 0
M  V30 2703 C 268.665 -1.58628 3.20268 0
M  V30 2704 C 268.331 -0.748967 4.44636 0
M  V30 2705 C 266.993 -0.518104 4.78403 0
M  V30 2706 C 269.345 -0.166122 5.20935 0
M  V30 2707 C 266.673 0.305659 5.85903 0
M  V30 2708 C 269.025 0.644899 6.29304 0
M  V30 2709 C 267.689 0.885965 6.61594 0
M  V30 2710 H 266.959 -0.297324 0.678734 0
M  V30 2711 H 269.606 -0.0744332 1.91355 0
M  V30 2712 H 267.911 -2.39562 3.10028 0
M  V30 2713 H 269.608 -2.13643 3.39349 0
M  V30 2714 H 266.198 -0.939006 4.18187 0
M  V30 2715 H 270.382 -0.33167 4.95191 0
M  V30 2716 H 265.638 0.501528 6.0934 0
M  V30 2717 H 269.812 1.10345 6.87602 0
M  V30 2718 H 267.439 1.52609 7.44725 0
M  V30 2719 N 269.014 -1.53014 -0.377408 0
M  V30 2720 C 270.425 -1.60438 -0.954798 0
M  V30 2721 C 270.776 -0.464418 -1.90624 0
M  V30 2722 O 269.901 0.41087 -2.12464 0
M  V30 2723 C 270.496 -2.90797 -1.73847 0
M  V30 2724 C 269.055 -3.00595 -2.26538 0
M  V30 2725 C 268.202 -2.55645 -1.07429 0
M  V30 2726 H 271.153 -1.57926 -0.156575 0
M  V30 2727 H 271.174 -2.77935 -2.5987 0
M  V30 2728 H 270.686 -3.73746 -1.04574 0
M  V30 2729 H 268.787 -2.22208 -2.99089 0
M  V30 2730 H 268.9 -4.05456 -2.5523 0
M  V30 2731 H 267.264 -2.10239 -1.43777 0
M  V30 2732 H 268.047 -3.41 -0.396728 0
M  V30 2733 N 270.492 0.636531 -1.44174 0
M  V30 2734 C 271.425 1.76139 -1.45087 0
M  V30 2735 C 272.403 1.59611 -0.310326 0
M  V30 2736 O 273.587 1.81568 -0.506477 0
M  V30 2737 C 270.714 3.13648 -1.27839 0
M  V30 2738 C 269.76 3.48838 -2.45386 0
M  V30 2739 S 270.593 3.46927 -4.07924 0
M  V30 2740 C 271.749 4.87064 -3.9309 0
M  V30 2741 H 271.982 1.75096 -2.40268 0
M  V30 2742 H 269.515 0.810666 -1.31406 0
M  V30 2743 H 271.473 3.93002 -1.18575 0
M  V30 2744 H 270.134 3.12235 -0.341787 0
M  V30 2745 H 269.327 4.48886 -2.29167 0
M  V30 2746 H 268.929 2.76935 -2.51362 0
M  V30 2747 H 271.221 5.76153 -3.56446 0
M  V30 2748 H 272.164 5.08337 -4.92949 0
M  V30 2749 H 272.572 4.61384 -3.25246 0
M  V30 2750 N 271.97 1.30982 0.876444 0
M  V30 2751 C 272.9 1.20668 1.99903 0
M  V30 2752 C 273.881 0.095354 1.69833 0
M  V30 2753 O 275.066 0.27885 1.92188 0
M  V30 2754 C 272.196 0.90655 3.3526 0
M  V30 2755 C 271.15 1.97675 3.79617 0
M  V30 2756 C 270.476 1.52943 5.1236 0
M  V30 2757 C 271.776 3.389 3.97422 0
M  V30 2758 H 273.47 2.14586 2.0879 0
M  V30 2759 H 271.016 1.03308 1.00317 0
M  V30 2760 H 272.969 0.821025 4.13324 0
M  V30 2761 H 271.693 -0.0682969 3.26529 0
M  V30 2762 H 270.352 2.05205 3.03787 0
M  V30 2763 H 270 0.54262 5.00065 0
M  V30 2764 H 269.7 2.24532 5.43009 0
M  V30 2765 H 271.224 1.45786 5.92941 0
M  V30 2766 H 272.638 3.34081 4.659 0
M  V30 2767 H 271.035 4.0865 4.3946 0
M  V30 2768 H 272.105 3.80163 3.01006 0
M  V30 2769 N 273.449 -1.08991 1.13837 0
M  V30 2770 C 274.695 -1.81526 0.90422 0
M  V30 2771 C 275.028 -1.85706 -0.568066 0
M  V30 2772 O 274.303 -1.32855 -1.42056 0
M  V30 2773 C 274.586 -3.27447 1.49835 0
M  V30 2774 C 274.439 -3.31512 3.04006 0
M  V30 2775 C 275.758 -4.24256 1.17025 0
M  V30 2776 H 272.877 -0.659029 0.329923 0
M  V30 2777 H 275.519 -1.27644 1.40737 0
M  V30 2778 H 273.669 -3.73462 1.07044 0
M  V30 2779 H 275.341 -2.93867 3.55584 0
M  V30 2780 H 273.584 -2.70963 3.38765 0
M  V30 2781 H 274.255 -4.34329 3.40679 0
M  V30 2782 H 276.731 -3.86549 1.54009 0
M  V30 2783 H 275.607 -5.24684 1.61237 0
M  V30 2784 H 275.868 -4.42019 0.0846274 0
M  V30 2785 N 274.927 -0.932562 -1.27047 0
M  V30 2786 C 275.874 -0.434072 -2.26681 0
M  V30 2787 C 276.844 0.501639 -1.58344 0
M  V30 2788 O 278.029 0.419734 -1.86126 0
M  V30 2789 C 275.169 0.30261 -3.43771 0
M  V30 2790 C 274.282 -0.667774 -4.26808 0
M  V30 2791 C 273.417 0.0892393 -5.31125 0
M  V30 2792 C 272.456 -0.873532 -6.05835 0
M  V30 2793 N 271.593 -0.148832 -7.01942 0
M  V30 2794 H 276.433 -1.28868 -2.68695 0
M  V30 2795 H 273.97 -0.646713 -1.32121 0
M  V30 2796 H 275.928 0.746092 -4.10474 0
M  V30 2797 H 274.558 1.12142 -3.02695 0
M  V30 2798 H 273.61 -1.22978 -3.59973 0
M  V30 2799 H 274.922 -1.40337 -4.78651 0
M  V30 2800 H 274.076 0.592409 -6.03801 0
M  V30 2801 H 272.815 0.85777 -4.80097 0
M  V30 2802 H 271.82 -1.38791 -5.31994 0
M  V30 2803 H 273.045 -1.64193 -6.58952 0
M  V30 2804 H 270.991 0.601365 -6.53238 0
M  V30 2805 H 270.908 -0.82391 -7.51497 0
M  V30 2806 H 272.176 0.333527 -7.78786 0
M  V30 2807 N 276.405 1.4127 -0.698611 0
M  V30 2808 C 277.338 2.28195 0.0153898 0
M  V30 2809 C 278.316 1.42402 0.784883 0
M  V30 2810 O 279.5 1.71828 0.775067 0
M  V30 2811 C 276.627 3.22685 1.02918 0
M  V30 2812 C 275.673 4.25041 0.352501 0
M  V30 2813 S 276.506 5.27757 -0.907322 0
M  V30 2814 C 277.662 6.25812 0.104796 0
M  V30 2815 H 277.895 2.88403 -0.721858 0
M  V30 2816 H 275.428 1.46452 -0.488996 0
M  V30 2817 H 277.386 3.77655 1.60893 0
M  V30 2818 H 276.047 2.61566 1.73902 0
M  V30 2819 H 275.24 4.91437 1.11828 0
M  V30 2820 H 274.842 3.73682 -0.154254 0
M  V30 2821 H 277.134 6.70705 0.957103 0
M  V30 2822 H 278.077 7.06149 -0.525323 0
M  V30 2823 H 278.485 5.62615 0.460931 0
M  V30 2824 N 277.883 0.443576 1.51229 0
M  V30 2825 C 278.793 -0.370721 2.31652 0
M  V30 2826 C 279.809 -1.02186 1.40833 0
M  V30 2827 O 280.985 -1.01586 1.73903 0
M  V30 2828 C 278.05 -1.45376 3.14749 0
M  V30 2829 C 277.111 -0.822099 4.21355 0
M  V30 2830 C 276.344 -1.85353 5.0048 0
M  V30 2831 O 276.567 -3.07656 4.80316 0
M  V30 2832 O 275.501 -1.4406 5.84406 0
M  V30 2833 H 279.327 0.286002 3.0235 0
M  V30 2834 H 276.912 0.20598 1.47973 0
M  V30 2835 H 278.794 -2.08173 3.66391 0
M  V30 2836 H 277.469 -2.09445 2.46809 0
M  V30 2837 H 276.376 -0.155909 3.73775 0
M  V30 2838 H 277.709 -0.224797 4.91686 0
M  V30 2839 N 279.361 -1.56624 0.175154 0
M  V30 2840 C 280.777 -1.58571 -0.180966 0
M  V30 2841 C 280.977 -1.19065 -1.6256 0
M  V30 2842 O 280.033 -0.904044 -2.35761 0
M  V30 2843 C 281.346 -3.00522 0.103326 0
M  V30 2844 C 282.894 -3.12972 0.0418426 0
M  V30 2845 C 283.369 -4.57022 0.299175 0
M  V30 2846 N 284.86 -4.62541 0.247086 0
M  V30 2847 C 285.595 -5.71857 0.420318 0
M  V30 2848 N 285.091 -6.89717 0.652816 0
M  V30 2849 N 286.884 -5.60972 0.355957 0
M  V30 2850 H 279.035 -1.80589 1.11809 0
M  V30 2851 H 281.298 -0.837178 0.444788 0
M  V30 2852 H 281.004 -3.33916 1.10422 0
M  V30 2853 H 280.878 -3.72344 -0.603299 0
M  V30 2854 H 283.265 -2.79403 -0.949636 0
M  V30 2855 H 283.346 -2.43578 0.781238 0
M  V30 2856 H 282.99 -4.913 1.28788 0
M  V30 2857 H 282.92 -5.24579 -0.460876 0
M  V30 2858 H 285.411 -3.77829 0.0731895 0
M  V30 2859 H 285.724 -7.68911 0.774347 0
M  V30 2860 H 284.069 -6.91572 0.689476 0
M  V30 2861 H 287.26 -4.67773 0.174882 0
M  V30 2862 H 287.433 -6.46111 0.494388 0
M  V30 2863 N 280.839 0.0985539 -1.57292 0
M  V30 2864 C 281.749 1.13824 -2.05137 0
M  V30 2865 C 282.765 1.44076 -0.975604 0
M  V30 2866 O 283.941 1.54786 -1.28853 0
M  V30 2867 C 281.006 2.43969 -2.46333 0
M  V30 2868 C 280.067 2.2093 -3.68087 0
M  V30 2869 C 279.3 3.44869 -4.0731 0
M  V30 2870 O 279.523 4.52972 -3.46659 0
M  V30 2871 O 278.457 3.34661 -5.00285 0
M  V30 2872 H 282.283 0.761881 -2.93988 0
M  V30 2873 H 279.868 0.310818 -1.46131 0
M  V30 2874 H 281.75 3.20609 -2.73473 0
M  V30 2875 H 280.425 2.81038 -1.60621 0
M  V30 2876 H 279.332 1.42081 -3.46069 0
M  V30 2877 H 280.665 1.88755 -4.54568 0
M  V30 2878 N 282.317 1.53212 0.369288 0
M  V30 2879 C 283.267 1.75769 1.45222 0
M  V30 2880 C 284.251 0.612136 1.48801 0
M  V30 2881 O 285.443 0.870674 1.54105 0
M  V30 2882 C 282.572 1.94769 2.82701 0
M  V30 2883 C 281.658 3.15315 2.83615 0
M  V30 2884 N 282.049 4.37295 2.54178 0
M  V30 2885 C 280.347 3.15962 3.14776 0
M  V30 2886 C 281.048 5.19015 2.62675 0
M  V30 2887 N 280.024 4.55142 2.97232 0
M  V30 2888 H 283.826 2.67691 1.2132 0
M  V30 2889 H 281.34 1.51787 0.577438 0
M  V30 2890 H 283.337 2.09056 3.60696 0
M  V30 2891 H 281.997 1.04073 3.07569 0
M  V30 2892 H 283.008 4.65091 2.27839 0
M  V30 2893 H 279.685 2.35144 3.44983 0
M  V30 2894 H 281.075 6.26305 2.43294 0
M  V30 2895 N 283.795 -0.628877 1.44509 0
M  V30 2896 C 285.211 -0.947305 1.28446 0
M  V30 2897 C 285.411 -2.00275 0.221872 0
M  V30 2898 O 284.467 -2.49447 -0.391471 0
M  V30 2899 C 285.78 -1.40843 2.65676 0
M  V30 2900 C 287.328 -1.52379 2.73404 0
M  V30 2901 C 287.803 -2.01875 4.11109 0
M  V30 2902 N 289.294 -2.09142 4.13296 0
M  V30 2903 C 290.029 -2.48615 5.16699 0
M  V30 2904 N 289.525 -2.87209 6.30462 0
M  V30 2905 N 291.318 -2.48768 5.04054 0
M  V30 2906 H 283.469 0.0690977 2.12288 0
M  V30 2907 H 285.732 -0.0317164 0.947469 0
M  V30 2908 H 285.438 -0.707206 3.44516 0
M  V30 2909 H 285.312 -2.37902 2.92716 0
M  V30 2910 H 287.699 -2.21598 1.9488 0
M  V30 2911 H 287.78 -0.536898 2.50102 0
M  V30 2912 H 287.424 -1.3325 4.90109 0
M  V30 2913 H 287.354 -3.0144 4.31789 0
M  V30 2914 H 289.845 -1.81991 3.31191 0
M  V30 2915 H 290.158 -3.16149 7.05174 0
M  V30 2916 H 288.503 -2.84955 6.33897 0
M  V30 2917 H 291.694 -2.18009 4.14234 0
M  V30 2918 H 291.867 -2.79207 5.84763 0
M  V30 2919 N 285.273 -1.31445 -0.869486 0
M  V30 2920 C 286.498 -1.24256 -1.66058 0
M  V30 2921 C 286.923 0.188928 -1.87149 0
M  V30 2922 O 286.281 1.13522 -1.4136 0
M  V30 2923 C 286.329 -1.9924 -3.00559 0
M  V30 2924 O 285.433 -1.33007 -3.90362 0
M  V30 2925 H 284.774 -0.428973 -0.506831 0
M  V30 2926 H 287.304 -1.73521 -1.08404 0
M  V30 2927 H 287.314 -2.08854 -3.50491 0
M  V30 2928 H 285.989 -3.03342 -2.84528 0
M  V30 2929 H 284.566 -1.31848 -3.48813 0
M  V30 2930 N 286.751 1.08385 -1.14413 0
M  V30 2931 C 287.681 2.17321 -0.854044 0
M  V30 2932 C 288.662 1.69024 0.191049 0
M  V30 2933 O 289.847 1.94141 0.0476779 0
M  V30 2934 C 286.977 3.45719 -0.330983 0
M  V30 2935 C 285.931 4.07409 -1.31155 0
M  V30 2936 C 285.257 5.30762 -0.64778 0
M  V30 2937 C 286.557 4.48665 -2.67388 0
M  V30 2938 H 288.251 2.41845 -1.76498 0
M  V30 2939 H 285.797 1.16233 -0.850051 0
M  V30 2940 H 287.75 4.21241 -0.115645 0
M  V30 2941 H 286.474 3.2075 0.615381 0
M  V30 2942 H 285.133 3.33919 -1.51306 0
M  V30 2943 H 284.781 5.02078 0.304398 0
M  V30 2944 H 284.481 5.72992 -1.30207 0
M  V30 2945 H 286.005 6.08998 -0.441972 0
M  V30 2946 H 287.419 5.15364 -2.51143 0
M  V30 2947 H 285.816 5.01814 -3.29093 0
M  V30 2948 H 286.886 3.60543 -3.24248 0
M  V30 2949 N 288.23 0.939286 1.26551 0
M  V30 2950 C 289.479 0.581601 1.93133 0
M  V30 2951 C 289.792 -0.883224 1.74524 0
M  V30 2952 O 290.998 -1.3502 2.35546 0
M  V30 2953 C 289.454 0.989425 3.46032 0
M  V30 2954 C 289.062 2.47573 3.73379 0
M  V30 2955 C 290.806 0.703544 4.18629 0
M  V30 2956 C 288.713 2.82235 5.19709 0
M  V30 2957 H 287.643 0.213803 0.723052 0
M  V30 2958 H 290.294 1.14167 1.4366 0
M  V30 2959 H 288.676 0.357902 3.94379 0
M  V30 2960 H 289.85 3.15614 3.35744 0
M  V30 2961 H 288.165 2.73471 3.1401 0
M  V30 2962 H 290.762 0.938869 5.26393 0
M  V30 2963 H 291.105 -0.359639 4.14744 0
M  V30 2964 H 291.638 1.2947 3.76141 0
M  V30 2965 H 288.377 3.87509 5.28694 0
M  V30 2966 H 287.897 2.18854 5.58447 0
M  V30 2967 H 289.576 2.70599 5.87695 0
M  V30 2968 N 289.708 -1.40897 0.706093 0
M  V30 2969 C 290.638 -2.33418 0.0620085 0
M  V30 2970 C 291.619 -1.52385 -0.755827 0
M  V30 2971 O 292.804 -1.80886 -0.706674 0
M  V30 2972 C 289.934 -3.36293 -0.867445 0
M  V30 2973 C 288.888 -4.27716 -0.155932 0
M  V30 2974 C 288.214 -5.2105 -1.20046 0
M  V30 2975 C 289.514 -5.12944 0.984149 0
M  V30 2976 H 291.208 -2.87527 0.83477 0
M  V30 2977 H 288.754 -1.38249 0.402875 0
M  V30 2978 H 290.707 -3.99949 -1.32735 0
M  V30 2979 H 289.431 -2.80556 -1.67199 0
M  V30 2980 H 288.09 -3.65498 0.284047 0
M  V30 2981 H 287.738 -4.61624 -1.99781 0
M  V30 2982 H 287.438 -5.83056 -0.729328 0
M  V30 2983 H 288.962 -5.87584 -1.66066 0
M  V30 2984 H 290.376 -5.70109 0.604048 0
M  V30 2985 H 288.773 -5.83945 1.38304 0
M  V30 2986 H 289.843 -4.49485 1.81911 0
M  V30 2987 N 291.186 -0.45159 -1.50991 0
M  V30 2988 C 292.434 0.109857 -2.01801 0
M  V30 2989 C 292.755 1.41958 -1.3369 0
M  V30 2990 O 292.025 1.9003 -0.475951 0
M  V30 2991 H 290.605 0.0435884 -0.745727 0
M  V30 2992 H 293.267 -0.597557 -1.85514 0
M  V30 2993 H 292.363 0.275489 -3.10882 0
M  V30 2994 N 292.664 1.56529 -0.183458 0
M  V30 2995 C 293.627 2.17324 0.728223 0
M  V30 2996 C 294.627 1.12453 1.14939 0
M  V30 2997 O 295.817 1.37902 1.06437 0
M  V30 2998 C 292.949 2.76591 1.99274 0
M  V30 2999 H 294.142 2.99241 0.198772 0
M  V30 3000 H 291.695 1.5616 0.0661391 0
M  V30 3001 H 292.43 1.98441 2.56499 0
M  V30 3002 H 292.215 3.5335 1.69959 0
M  V30 3003 H 293.705 3.23311 2.6431 0
M  V30 3004 N 294.142 -0.090211 1.57342 0
M  V30 3005 C 295.391 -0.791531 1.8552 0
M  V30 3006 C 295.704 -1.79659 0.773441 0
M  V30 3007 O 296.91 -2.54616 0.942497 0
M  V30 3008 C 295.366 -1.45856 3.2902 0
M  V30 3009 C 294.974 -0.493017 4.45279 0
M  V30 3010 C 296.718 -2.14332 3.66418 0
M  V30 3011 C 294.625 -1.16491 5.79814 0
M  V30 3012 H 293.555 -0.299356 0.692027 0
M  V30 3013 H 296.206 -0.0445343 1.83446 0
M  V30 3014 H 294.588 -2.25318 3.2565 0
M  V30 3015 H 295.762 0.270464 4.60006 0
M  V30 3016 H 294.077 0.0863061 4.16311 0
M  V30 3017 H 296.674 -2.65344 4.64216 0
M  V30 3018 H 297.017 -2.93447 2.95287 0
M  V30 3019 H 297.55 -1.41724 3.71698 0
M  V30 3020 H 294.289 -0.41447 6.54188 0
M  V30 3021 H 293.809 -1.8997 5.68921 0
M  V30 3022 H 295.488 -1.69001 6.24538 0
M  V30 3023 N 295.62 -1.53406 -0.361157 0
M  V30 3024 C 297.036 -1.43277 -0.703124 0
M  V30 3025 C 297.236 -0.575384 -1.9311 0
M  V30 3026 O 296.292 -0.0595362 -2.5243 0
M  V30 3027 C 297.605 -2.8653 -0.9122 0
M  V30 3028 C 299.153 -2.96191 -1.01193 0
M  V30 3029 C 299.628 -4.40514 -1.25345 0
M  V30 3030 N 301.119 -4.43962 -1.32105 0
M  V30 3031 C 301.854 -5.52746 -1.5251 0
M  V30 3032 N 301.35 -6.71567 -1.70203 0
M  V30 3033 N 303.143 -5.40331 -1.54916 0
M  V30 3034 H 295.294 -2.07654 0.446475 0
M  V30 3035 H 297.557 -0.937944 0.137715 0
M  V30 3036 H 297.263 -3.51605 -0.0816414 0
M  V30 3037 H 297.137 -3.30441 -1.81903 0
M  V30 3038 H 299.524 -2.31266 -1.83303 0
M  V30 3039 H 299.605 -2.55667 -0.0823929 0
M  V30 3040 H 299.249 -5.06014 -0.437346 0
M  V30 3041 H 299.179 -4.78614 -2.19627 0
M  V30 3042 H 301.67 -3.58332 -1.20028 0
M  V30 3043 H 301.983 -7.50241 -1.85359 0
M  V30 3044 H 300.328 -6.74545 -1.67373 0
M  V30 3045 H 303.519 -4.46465 -1.40663 0
M  V30 3046 H 303.692 -6.25173 -1.70477 0
M  V30 3047 N 297.098 0.621204 -1.44841 0
M  V30 3048 C 298.061 1.71459 -1.521 0
M  V30 3049 C 299.061 1.55696 -0.401933 0
M  V30 3050 O 300.251 1.61011 -0.664925 0
M  V30 3051 C 297.383 3.10624 -1.40447 0
M  V30 3052 H 298.576 1.66394 -2.49506 0
M  V30 3053 H 296.129 0.835745 -1.3208 0
M  V30 3054 H 296.864 3.21277 -0.441737 0
M  V30 3055 H 296.649 3.23473 -2.21602 0
M  V30 3056 H 298.139 3.90293 -1.4853 0
M  V30 3057 N 298.576 1.31904 0.862503 0
M  V30 3058 C 299.508 1.16005 1.97675 0
M  V30 3059 C 300.521 0.0971234 1.6251 0
M  V30 3060 O 301.71 0.345337 1.75128 0
M  V30 3061 C 298.81 0.751791 3.30456 0
M  V30 3062 C 297.983 1.90133 3.93914 0
M  V30 3063 C 297.042 1.4779 5.05019 0
M  V30 3064 O 296.068 2.18872 5.25437 0
M  V30 3065 N 297.27 0.369491 5.79323 0
M  V30 3066 H 300.035 2.11982 2.11857 0
M  V30 3067 H 297.596 1.24337 1.03691 0
M  V30 3068 H 299.588 0.451084 4.02178 0
M  V30 3069 H 298.158 -0.116593 3.12382 0
M  V30 3070 H 297.378 2.36896 3.15078 0
M  V30 3071 H 298.666 2.67111 4.33047 0
M  V30 3072 H 298.064 -0.222299 5.65263 0
M  V30 3073 H 296.621 0.128354 6.51674 0
M  V30 3074 N 300.054 -1.07777 1.14986 0
M  V30 3075 C 301.001 -2.14867 0.842672 0
M  V30 3076 C 301.971 -1.6486 -0.202552 0
M  V30 3077 O 303.156 -1.90668 -0.0710568 0
M  V30 3078 C 300.296 -3.43486 0.333363 0
M  V30 3079 C 299.409 -4.07306 1.43965 0
M  V30 3080 C 298.544 -5.23744 0.886914 0
M  V30 3081 C 297.583 -5.79517 1.97043 0
M  V30 3082 N 296.72 -6.87291 1.4344 0
M  V30 3083 H 301.56 -2.40485 1.75986 0
M  V30 3084 H 299.097 -1.1801 0.878179 0
M  V30 3085 H 301.055 -4.17195 0.0198163 0
M  V30 3086 H 299.685 -3.18133 -0.546916 0
M  V30 3087 H 298.737 -3.31293 1.86946 0
M  V30 3088 H 300.049 -4.44771 2.25788 0
M  V30 3089 H 299.203 -6.04419 0.525651 0
M  V30 3090 H 297.942 -4.87685 0.0377957 0
M  V30 3091 H 296.947 -4.97491 2.34057 0
M  V30 3092 H 298.172 -6.17632 2.82325 0
M  V30 3093 H 296.118 -6.5318 0.607567 0
M  V30 3094 H 296.035 -7.23617 2.18895 0
M  V30 3095 H 297.303 -7.71682 1.10124 0
M  V30 3096 N 301.532 -0.945985 -1.26051 0
M  V30 3097 C 302.495 -0.463897 -2.24456 0
M  V30 3098 C 303.495 0.427655 -1.55009 0
M  V30 3099 O 304.685 0.226157 -1.72726 0
M  V30 3100 C 301.817 0.330812 -3.39291 0
M  V30 3101 H 303.01 -1.33357 -2.68619 0
M  V30 3102 H 300.563 -0.728416 -1.38289 0
M  V30 3103 H 301.298 1.21852 -3.00537 0
M  V30 3104 H 301.083 -0.308679 -3.90883 0
M  V30 3105 H 302.573 0.657865 -4.12386 0
M  V30 3106 N 303.011 1.40521 -0.713556 0
M  V30 3107 C 303.943 2.29191 -0.0203126 0
M  V30 3108 C 304.956 1.45723 0.725864 0
M  V30 3109 O 306.145 1.69033 0.573581 0
M  V30 3110 C 303.245 3.2395 0.995486 0
M  V30 3111 C 302.418 4.36262 0.315256 0
M  V30 3112 C 301.477 5.11474 1.23616 0
M  V30 3113 O 300.503 5.64606 0.721719 0
M  V30 3114 N 301.705 5.20638 2.56743 0
M  V30 3115 H 304.47 2.89327 -0.781652 0
M  V30 3116 H 302.031 1.51869 -0.561022 0
M  V30 3117 H 304.023 3.71137 1.61368 0
M  V30 3118 H 302.593 2.64995 1.6582 0
M  V30 3119 H 301.813 3.91228 -0.483106 0
M  V30 3120 H 303.101 5.08558 -0.157004 0
M  V30 3121 H 302.499 4.7895 3.01037 0
M  V30 3122 H 301.056 5.71339 3.13712 0
M  V30 3123 N 304.489 0.459591 1.5075 0
M  V30 3124 C 305.905 0.113092 1.59199 0
M  V30 3125 C 306.105 -1.37951 1.46874 0
M  V30 3126 O 305.161 -2.15168 1.32132 0
M  V30 3127 C 306.474 0.653043 2.93523 0
M  V30 3128 C 308.022 0.615449 3.0689 0
M  V30 3129 C 308.497 1.13275 4.43771 0
M  V30 3130 N 309.988 1.09167 4.50152 0
M  V30 3131 C 310.723 1.46256 5.54434 0
M  V30 3132 N 310.219 1.90739 6.66026 0
M  V30 3133 N 312.012 1.37932 5.44914 0
M  V30 3134 H 304.163 1.43049 1.57005 0
M  V30 3135 H 306.426 0.590861 0.741341 0
M  V30 3136 H 306.132 1.69822 3.07983 0
M  V30 3137 H 306.006 0.0902132 3.77092 0
M  V30 3138 H 308.393 -0.420793 2.92084 0
M  V30 3139 H 308.474 1.21495 2.25106 0
M  V30 3140 H 308.118 2.16757 4.59324 0
M  V30 3141 H 308.048 0.509576 5.24129 0
M  V30 3142 H 310.539 0.76528 3.7007 0
M  V30 3143 H 310.852 2.17218 7.41644 0
M  V30 3144 H 309.197 1.94683 6.67176 0
M  V30 3145 H 312.388 1.0303 4.56621 0
M  V30 3146 H 312.561 1.67164 6.26067 0
M  V30 3147 N 305.967 -1.56429 0.191757 0
M  V30 3148 C 306.899 -2.16154 -0.762245 0
M  V30 3149 C 307.912 -1.12247 -1.17917 0
M  V30 3150 O 309.101 -1.39353 -1.11548 0
M  V30 3151 C 306.201 -2.70606 -2.04024 0
M  V30 3152 C 305.374 -3.99381 -1.78364 0
M  V30 3153 C 304.433 -4.38692 -2.90578 0
M  V30 3154 O 303.459 -5.06179 -2.6033 0
M  V30 3155 N 304.661 -4.01922 -4.18854 0
M  V30 3156 H 307.426 -2.98643 -0.251526 0
M  V30 3157 H 304.987 -1.61897 0.00967373 0
M  V30 3158 H 306.979 -2.93891 -2.78227 0
M  V30 3159 H 305.549 -1.9259 -2.46227 0
M  V30 3160 H 304.769 -3.84262 -0.879581 0
M  V30 3161 H 306.057 -4.83445 -1.58614 0
M  V30 3162 H 305.455 -3.47631 -4.46283 0
M  V30 3163 H 304.012 -4.30165 -4.89695 0
M  V30 3164 N 307.445 0.0818655 -1.57387 0
M  V30 3165 C 308.408 1.08265 -2.02018 0
M  V30 3166 C 309.408 1.32183 -0.915664 0
M  V30 3167 O 310.598 1.28073 -1.18081 0
M  V30 3168 C 307.73 2.42871 -2.39221 0
M  V30 3169 H 308.923 0.698204 -2.91659 0
M  V30 3170 H 306.476 0.327303 -1.52835 0
M  V30 3171 H 307.211 2.86167 -1.52575 0
M  V30 3172 H 306.996 2.26855 -3.19811 0
M  V30 3173 H 308.486 3.14826 -2.74362 0
M  V30 3174 N 308.923 1.53595 0.353017 0
M  V30 3175 C 309.886 1.80232 1.41594 0
M  V30 3176 C 310.886 0.673081 1.46035 0
M  V30 3177 O 312.076 0.941335 1.46576 0
M  V30 3178 C 309.208 1.93578 2.80607 0
M  V30 3179 H 310.401 2.75174 1.19244 0
M  V30 3180 H 307.954 1.44864 0.586872 0
M  V30 3181 H 308.689 1.00746 3.08254 0
M  V30 3182 H 308.474 2.75724 2.78781 0
M  V30 3183 H 309.964 2.15735 3.57558 0
M  V30 3184 N 310.401 -0.613514 1.45168 0
M  V30 3185 C 311.331 -1.7354 1.56225 0
M  V30 3186 C 312.312 -1.64981 0.41414 0
M  V30 3187 O 313.497 -1.83472 0.636526 0
M  V30 3188 C 310.627 -3.12128 1.52295 0
M  V30 3189 C 309.581 -3.35491 2.65762 0
M  V30 3190 C 308.907 -4.74291 2.46885 0
M  V30 3191 C 310.207 -3.26325 4.0781 0
M  V30 3192 H 311.901 -1.64543 2.50132 0
M  V30 3193 H 309.447 -0.790185 1.20383 0
M  V30 3194 H 311.4 -3.90404 1.58628 0
M  V30 3195 H 310.124 -3.2195 0.549139 0
M  V30 3196 H 308.783 -2.59603 2.58847 0
M  V30 3197 H 308.431 -4.80839 1.47657 0
M  V30 3198 H 308.131 -4.9088 3.22972 0
M  V30 3199 H 309.655 -5.54775 2.55063 0
M  V30 3200 H 311.069 -3.94483 4.16 0
M  V30 3201 H 309.466 -3.54445 4.8424 0
M  V30 3202 H 310.536 -2.23855 4.30136 0
M  V30 3203 N 311.879 -1.3236 -0.855495 0
M  V30 3204 C 313.29 -1.2056 -1.42556 0
M  V30 3205 C 313.641 0.182209 -1.95352 0
M  V30 3206 O 312.766 1.08088 -1.87472 0
M  V30 3207 C 313.361 -2.1826 -2.59129 0
M  V30 3208 C 311.92 -2.10351 -3.12137 0
M  V30 3209 C 311.067 -2.06674 -1.84882 0
M  V30 3210 H 314.018 -1.442 -0.662727 0
M  V30 3211 H 314.039 -1.78064 -3.36264 0
M  V30 3212 H 313.551 -3.19257 -2.20673 0
M  V30 3213 H 311.652 -1.12599 -3.55179 0
M  V30 3214 H 311.765 -3.00135 -3.73438 0
M  V30 3215 H 310.129 -1.51901 -2.04446 0
M  V30 3216 H 310.912 -3.09451 -1.48643 0
M  V30 3217 N 313.357 1.07166 -1.15556 0
M  V30 3218 C 314.32 2.12589 -0.856644 0
M  V30 3219 C 315.32 1.6015 0.14444 0
M  V30 3220 O 316.51 1.7399 -0.0854163 0
M  V30 3221 C 313.642 3.39753 -0.279405 0
M  V30 3222 H 314.835 2.40539 -1.79112 0
M  V30 3223 H 312.388 1.23086 -0.963298 0
M  V30 3224 H 313.123 3.17447 0.663174 0
M  V30 3225 H 312.908 3.79117 -1.00063 0
M  V30 3226 H 314.398 4.17507 -0.0879113 0
M  V30 3227 N 314.835 0.952656 1.25548 0
M  V30 3228 C 316.083 0.605176 1.92826 0
M  V30 3229 C 316.404 -0.860261 1.74999 0
M  V30 3230 O 315.674 -1.6125 1.11244 0
M  V30 3231 H 314.254 0.220832 0.713612 0
M  V30 3232 H 316.916 1.21047 1.52754 0
M  V30 3233 H 316.012 0.832798 3.00784 0
M  V30 3234 N 316.313 -1.40141 0.720998 0
M  V30 3235 C 317.541 -2.05096 0.272656 0
M  V30 3236 C 317.956 -1.54334 -1.0875 0
M  V30 3237 O 317.313 -0.702211 -1.6845 0
M  V30 3238 C 317.364 -3.60636 0.249835 0
M  V30 3239 O 317.085 -4.09526 1.55629 0
M  V30 3240 C 318.586 -4.42772 -0.216396 0
M  V30 3241 H 315.806 -0.659897 0.121558 0
M  V30 3242 H 318.35 -1.79449 0.980723 0
M  V30 3243 H 316.505 -3.85232 -0.409237 0
M  V30 3244 H 316.919 -5.03758 1.4604 0
M  V30 3245 H 318.393 -5.51702 -0.181212 0
M  V30 3246 H 318.87 -4.20756 -1.25941 0
M  V30 3247 H 319.476 -4.23294 0.412596 0
M  V30 3248 N 317.792 -0.46758 -1.50504 0
M  V30 3249 C 318.755 0.317059 -2.26996 0
M  V30 3250 C 319.755 0.923513 -1.31635 0
M  V30 3251 O 320.945 0.793239 -1.55091 0
M  V30 3252 C 318.077 1.45134 -3.08462 0
M  V30 3253 H 319.27 -0.353723 -2.97807 0
M  V30 3254 H 316.823 -0.221545 -1.54722 0
M  V30 3255 H 317.558 2.15728 -2.4214 0
M  V30 3256 H 317.343 1.02232 -3.78538 0
M  V30 3257 H 318.833 2.00493 -3.66323 0
M  V30 3258 N 319.27 1.56325 -0.20005 0
M  V30 3259 C 320.681 1.8408 0.31167 0
M  V30 3260 C 321.032 1.12087 1.61031 0
M  V30 3261 O 320.157 0.38332 2.12978 0
M  V30 3262 C 320.752 3.33932 0.57226 0
M  V30 3263 C 319.311 3.6208 1.02834 0
M  V30 3264 C 318.458 2.77186 0.079634 0
M  V30 3265 H 321.409 1.52939 -0.423729 0
M  V30 3266 H 321.43 3.52971 1.42096 0
M  V30 3267 H 320.942 3.86303 -0.37308 0
M  V30 3268 H 319.043 3.15147 1.98778 0
M  V30 3269 H 319.156 4.7023 0.917624 0
M  V30 3270 H 317.52 2.47951 0.582448 0
M  V30 3271 H 318.303 3.32347 -0.860238 0
M  V30 3272 N 320.748 -0.0735177 1.57428 0
M  V30 3273 C 321.695 -1.08756 2.0357 0
M  V30 3274 C 322.665 -1.38559 0.916 0
M  V30 3275 O 323.85 -1.49656 1.18354 0
M  V30 3276 C 320.99 -2.39657 2.48311 0
M  V30 3277 C 320.103 -2.16399 3.73892 0
M  V30 3278 C 319.238 -3.40852 4.07423 0
M  V30 3279 C 318.277 -3.1295 5.2605 0
M  V30 3280 N 317.414 -4.29729 5.55228 0
M  V30 3281 H 322.254 -0.687104 2.8997 0
M  V30 3282 H 319.791 -0.327709 1.43403 0
M  V30 3283 H 321.749 -3.16081 2.72303 0
M  V30 3284 H 320.379 -2.77508 1.64891 0
M  V30 3285 H 319.431 -1.30676 3.57251 0
M  V30 3286 H 320.743 -1.91788 4.60455 0
M  V30 3287 H 319.897 -4.25671 4.32306 0
M  V30 3288 H 318.636 -3.68537 3.19425 0
M  V30 3289 H 317.641 -2.26526 5.00965 0
M  V30 3290 H 318.866 -2.86589 6.15665 0
M  V30 3291 H 316.812 -4.57448 4.70188 0
M  V30 3292 H 316.729 -4.08385 6.36206 0
M  V30 3293 H 317.997 -5.1555 5.84661 0
M  V30 3294 N 322.226 -1.5378 -0.344866 0
M  V30 3295 C 323.156 -1.84662 -1.42906 0
M  V30 3296 C 324.137 -0.701648 -1.54955 0
M  V30 3297 O 325.322 -0.953438 -1.69184 0
M  V30 3298 C 322.452 -2.05503 -2.79974 0
M  V30 3299 C 321.406 -3.21318 -2.82734 0
M  V30 3300 C 320.732 -3.2749 -4.22675 0
M  V30 3301 C 322.032 -4.59456 -2.48389 0
M  V30 3302 H 323.726 -2.75461 -1.17311 0
M  V30 3303 H 321.272 -1.32542 -0.562896 0
M  V30 3304 H 323.225 -2.25691 -3.55867 0
M  V30 3305 H 321.949 -1.11434 -3.07002 0
M  V30 3306 H 320.608 -3.00984 -2.09294 0
M  V30 3307 H 320.256 -2.31019 -4.4681 0
M  V30 3308 H 319.956 -4.05316 -4.25433 0
M  V30 3309 H 321.48 -3.49887 -5.00412 0
M  V30 3310 H 322.894 -4.79667 -3.13995 0
M  V30 3311 H 321.291 -5.39675 -2.62432 0
M  V30 3312 H 322.361 -4.63155 -1.4358 0
M  V30 3313 N 323.704 0.605807 -1.45491 0
M  V30 3314 C 324.929 1.39625 -1.53361 0
M  V30 3315 C 325.354 1.87351 -0.167645 0
M  V30 3316 O 324.712 1.60243 0.848051 0
M  V30 3317 C 324.76 2.57559 -2.5238 0
M  V30 3318 O 323.864 3.58248 -2.04285 0
M  V30 3319 H 323.205 0.416771 -0.516912 0
M  V30 3320 H 325.735 0.737103 -1.90861 0
M  V30 3321 H 325.745 3.0478 -2.71244 0
M  V30 3322 H 324.42 2.22171 -3.51586 0
M  V30 3323 H 322.997 3.17664 -1.95305 0
M  V30 3324 N 325.182 1.32811 0.848464 0
M  V30 3325 C 326.43 1.23479 1.59991 0
M  V30 3326 C 326.751 -0.201853 1.93952 0
M  V30 3327 O 326.021 -1.12818 1.60153 0
M  V30 3328 H 324.601 0.454034 0.593179 0
M  V30 3329 H 327.263 1.66412 1.01455 0
M  V30 3330 H 326.359 1.82178 2.53412 0
M  V30 3331 N 326.66 -1.06551 1.16123 0
M  V30 3332 C 327.623 -2.12132 0.867906 0
M  V30 3333 C 328.623 -1.60224 -0.135944 0
M  V30 3334 O 329.813 -1.73943 0.0946422 0
M  V30 3335 C 326.945 -3.396 0.297419 0
M  V30 3336 H 328.138 -2.39586 1.80385 0
M  V30 3337 H 325.691 -1.22574 0.969812 0
M  V30 3338 H 326.426 -3.17794 -0.64633 0
M  V30 3339 H 326.211 -3.78581 1.02073 0
M  V30 3340 H 327.701 -4.17455 0.110052 0
M  V30 3341 N 328.138 -0.959301 -1.25041 0
M  V30 3342 C 329.068 -0.501388 -2.28053 0
M  V30 3343 C 330.049 0.454673 -1.63911 0
M  V30 3344 O 331.234 0.352618 -1.90972 0
M  V30 3345 C 328.364 0.217224 -3.4662 0
M  V30 3346 C 327.318 -0.654034 -4.22973 0
M  V30 3347 C 326.644 0.195589 -5.34342 0
M  V30 3348 C 327.944 -1.93447 -4.85155 0
M  V30 3349 H 329.638 -1.36238 -2.66608 0
M  V30 3350 H 327.184 -0.656534 -1.28163 0
M  V30 3351 H 329.137 0.548732 -4.17812 0
M  V30 3352 H 327.861 1.1125 -3.07068 0
M  V30 3353 H 326.52 -0.968693 -3.5357 0
M  V30 3354 H 326.168 1.09076 -4.91031 0
M  V30 3355 H 325.868 -0.384091 -5.86343 0
M  V30 3356 H 327.392 0.521958 -6.08365 0
M  V30 3357 H 328.806 -1.66908 -5.48466 0
M  V30 3358 H 327.203 -2.46018 -5.47353 0
M  V30 3359 H 328.273 -2.63466 -4.07079 0
M  V30 3360 N 329.616 1.39756 -0.72842 0
M  V30 3361 C 330.841 2.05472 -0.282159 0
M  V30 3362 C 331.266 1.54549 1.07221 0
M  V30 3363 O 330.624 0.686372 1.67805 0
M  V30 3364 C 330.672 3.59462 -0.286264 0
M  V30 3365 O 329.776 4.05918 0.728298 0
M  V30 3366 H 329.117 0.651226 -0.129618 0
M  V30 3367 H 331.647 1.78915 -0.992499 0
M  V30 3368 H 331.657 4.07798 -0.128373 0
M  V30 3369 H 330.332 3.95889 -1.27456 0
M  V30 3370 H 328.909 3.69012 0.537081 0
M  V30 3371 N 331.094 0.475555 1.50254 0
M  V30 3372 C 332.322 -0.0754493 2.06762 0
M  V30 3373 C 332.737 -1.33111 1.33891 0
M  V30 3374 O 332.094 -1.77846 0.40952 0
M  V30 3375 C 332.145 -0.359008 3.59713 0
M  V30 3376 O 331.866 0.846851 4.29837 0
M  V30 3377 C 333.367 -0.956484 4.32858 0
M  V30 3378 H 330.587 0.00907525 0.670939 0
M  V30 3379 H 333.131 0.665618 1.93364 0
M  V30 3380 H 331.286 -1.05001 3.72899 0
M  V30 3381 H 331.7 0.594162 5.21124 0
M  V30 3382 H 333.174 -1.10463 5.40834 0
M  V30 3383 H 333.651 -1.94775 3.93649 0
M  V30 3384 H 334.257 -0.303723 4.24214 0
M  V30 3385 N 332.573 -1.56217 0.208337 0
M  V30 3386 C 333.82 -1.97949 -0.42692 0
M  V30 3387 C 334.148 -1.09562 -1.60706 0
M  V30 3388 O 333.403 -0.137616 -1.95216 0
M  V30 3389 C 333.702 -3.45441 -0.916797 0
M  V30 3390 C 333.368 -4.50646 0.151391 0
M  V30 3391 C 332.03 -4.79139 0.444867 0
M  V30 3392 C 334.382 -5.13811 0.874492 0
M  V30 3393 C 331.71 -5.68084 1.46619 0
M  V30 3394 C 334.062 -6.03861 1.88506 0
M  V30 3395 C 332.726 -6.30704 2.18559 0
M  V30 3396 H 331.996 -0.724345 -0.156221 0
M  V30 3397 H 334.643 -1.89006 0.308084 0
M  V30 3398 H 332.948 -3.51521 -1.73032 0
M  V30 3399 H 334.645 -3.75094 -1.41794 0
M  V30 3400 H 331.235 -4.28511 -0.0875068 0
M  V30 3401 H 335.419 -4.91879 0.660996 0
M  V30 3402 H 330.675 -5.87151 1.7048 0
M  V30 3403 H 334.849 -6.51861 2.45051 0
M  V30 3404 H 332.476 -6.99424 2.97843 0
M  V30 3405 N 334.051 0.0651679 -1.57465 0
M  V30 3406 C 335.328 0.79644 -1.78651 0
M  V30 3407 C 335.708 1.95454 -0.797566 0
M  V30 3408 O 335.056 2.27882 0.167946 0
M  V30 3409 C 335.266 1.26322 -3.25337 0
M  V30 3410 C 336.614 1.6939 -3.89348 0
M  V30 3411 O 337.638 1.35872 -3.29268 0
M  V30 3412 O 336.497 2.31471 -4.95059 0
M  V30 3413 H 333.591 0.382157 -0.733407 0
M  V30 3414 H 336.137 0.0447311 -1.69641 0
M  V30 3415 H 334.909 0.434859 -3.88876 0
M  V30 3416 H 334.532 2.07604 -3.39096 0
M  V30 3417 N 335.529 1.53961 0.336706 0
M  V30 3418 C 336.777 1.71197 1.07405 0
M  V30 3419 C 337.098 0.481475 1.88962 0
M  V30 3420 O 336.368 -0.504585 1.8929 0
M  V30 3421 H 334.948 0.631185 0.399517 0
M  V30 3422 H 337.61 1.91232 0.376323 0
M  V30 3423 H 336.706 2.58587 1.74755 0
M  V30 3424 N 337.007 -0.598083 1.45811 0
M  V30 3425 C 338.255 -1.35413 1.50026 0
M  V30 3426 C 338.576 -1.94444 0.147177 0
M  V30 3427 O 337.846 -1.77701 -0.824571 0
M  V30 3428 H 336.426 -0.502727 0.552517 0
M  V30 3429 H 339.088 -0.701606 1.81834 0
M  V30 3430 H 338.184 -2.16871 2.2444 0
M  V30 3431 N 338.485 -1.33259 -0.841409 0
M  V30 3432 C 339.415 -1.25926 -1.96634 0
M  V30 3433 C 340.396 -0.140349 -1.6952 0
M  V30 3434 O 341.581 -0.329707 -1.91381 0
M  V30 3435 C 338.711 -0.99512 -3.32738 0
M  V30 3436 C 337.665 -2.0767 -3.74242 0
M  V30 3437 C 336.991 -1.66474 -5.08125 0
M  V30 3438 C 338.291 -3.49318 -3.88297 0
M  V30 3439 H 339.985 -2.20046 -2.03027 0
M  V30 3440 H 337.531 -1.05931 -0.975425 0
M  V30 3441 H 339.484 -0.930323 -4.11002 0
M  V30 3442 H 338.208 -0.0183004 -3.26595 0
M  V30 3443 H 336.867 -2.13187 -2.98239 0
M  V30 3444 H 336.515 -0.675012 -4.9845 0
M  V30 3445 H 336.215 -2.3885 -5.36865 0
M  V30 3446 H 337.739 -1.61455 -5.88867 0
M  V30 3447 H 339.153 -3.46316 -4.56879 0
M  V30 3448 H 337.55 -4.20158 -4.28471 0
M  V30 3449 H 338.62 -3.8801 -2.9082 0
M  V30 3450 N 339.963 1.05934 -1.16686 0
M  V30 3451 C 340.895 2.13468 -0.834503 0
M  V30 3452 C 341.908 1.62013 0.15984 0
M  V30 3453 O 343.097 1.7838 -0.0654228 0
M  V30 3454 C 340.197 3.3817 -0.222361 0
M  V30 3455 C 339.37 4.18928 -1.25771 0
M  V30 3456 C 338.429 5.21985 -0.664703 0
M  V30 3457 O 337.455 5.53334 -1.33453 0
M  V30 3458 N 338.657 5.77919 0.546834 0
M  V30 3459 H 341.422 2.42578 -1.75999 0
M  V30 3460 H 338.983 1.21967 -1.06469 0
M  V30 3461 H 340.975 4.04266 0.187472 0
M  V30 3462 H 339.545 3.06655 0.606758 0
M  V30 3463 H 338.765 3.48433 -1.84358 0
M  V30 3464 H 340.053 4.69687 -1.95631 0
M  V30 3465 H 339.451 5.54721 1.10912 0
M  V30 3466 H 338.008 6.45573 0.898829 0
M  V30 3467 N 341.441 0.965919 1.2453 0
M  V30 3468 C 342.687 0.62776 1.92839 0
M  V30 3469 C 343.02 -0.834694 1.75347 0
M  V30 3470 O 342.295 -1.60031 1.10546 0
M  V30 3471 C 342.578 1.00109 3.45905 0
M  V30 3472 C 342.431 2.52011 3.72573 0
M  V30 3473 C 343.75 0.53435 4.36844 0
M  V30 3474 H 340.869 0.229537 0.700344 0
M  V30 3475 H 343.511 1.2046 1.46933 0
M  V30 3476 H 341.661 0.510238 3.85135 0
M  V30 3477 H 343.333 3.08559 3.42912 0
M  V30 3478 H 341.576 2.95287 3.17786 0
M  V30 3479 H 342.247 2.73183 4.79661 0
M  V30 3480 H 344.723 0.955565 4.04979 0
M  V30 3481 H 343.599 0.824152 5.42678 0
M  V30 3482 H 343.86 -0.565589 4.38467 0
M  V30 3483 N 342.919 -1.39368 0.735821 0
M  V30 3484 C 343.849 -2.33234 0.111506 0
M  V30 3485 C 344.83 -1.53954 -0.723334 0
M  V30 3486 O 346.015 -1.82344 -0.668147 0
M  V30 3487 C 343.145 -3.38057 -0.795917 0
M  V30 3488 C 342.099 -4.2795 -0.065172 0
M  V30 3489 C 341.425 -5.23479 -1.08967 0
M  V30 3490 C 342.725 -5.10741 1.09273 0
M  V30 3491 H 344.419 -2.85692 0.895571 0
M  V30 3492 H 341.965 -1.37364 0.432109 0
M  V30 3493 H 343.918 -4.02675 -1.24221 0
M  V30 3494 H 342.642 -2.8404 -1.61211 0
M  V30 3495 H 341.301 -3.64813 0.361511 0
M  V30 3496 H 340.949 -4.65758 -1.89944 0
M  V30 3497 H 340.649 -5.84472 -0.605489 0
M  V30 3498 H 342.173 -5.90974 -1.53565 0
M  V30 3499 H 343.587 -5.68699 0.724841 0
M  V30 3500 H 341.984 -5.8088 1.50659 0
M  V30 3501 H 343.054 -4.45525 1.91404 0
M  V30 3502 N 344.397 -0.483516 -1.5 0
M  V30 3503 C 345.646 0.0689102 -2.01582 0
M  V30 3504 C 345.959 1.39655 -1.36952 0
M  V30 3505 O 347.165 2.03465 -1.79762 0
M  V30 3506 C 345.621 0.173302 -3.59483 0
M  V30 3507 C 345.229 -1.14665 -4.33077 0
M  V30 3508 C 346.973 0.677024 -4.19066 0
M  V30 3509 C 344.88 -1.00537 -5.82792 0
M  V30 3510 H 343.81 0.0295277 -0.753422 0
M  V30 3511 H 346.461 -0.620295 -1.72698 0
M  V30 3512 H 344.843 0.926569 -3.85007 0
M  V30 3513 H 346.017 -1.91184 -4.19268 0
M  V30 3514 H 344.332 -1.58244 -3.85159 0
M  V30 3515 H 346.929 0.799952 -5.28682 0
M  V30 3516 H 347.272 1.67151 -3.81269 0
M  V30 3517 H 347.805 -0.0192083 -3.97795 0
M  V30 3518 H 344.544 -1.9736 -6.25083 0
M  V30 3519 H 344.064 -0.280776 -5.99142 0
M  V30 3520 H 345.743 -0.677 -6.43448 0
M  V30 3521 N 345.875 1.56104 -0.216619 0
M  V30 3522 C 347.152 1.89988 0.465165 0
M  V30 3523 C 347.532 1.13326 1.78102 0
M  V30 3524 O 346.88 0.241033 2.27225 0
M  V30 3525 C 347.09 3.42646 0.662939 0
M  V30 3526 C 348.438 4.13311 0.972602 0
M  V30 3527 O 349.462 3.48217 0.749901 0
M  V30 3528 O 348.321 5.28396 1.39499 0
M  V30 3529 H 345.415 0.78979 0.245276 0
M  V30 3530 H 347.961 1.67721 -0.258436 0
M  V30 3531 H 346.733 3.90399 -0.26543 0
M  V30 3532 H 346.356 3.70677 1.43821 0
M  V30 3533 N 347.353 -0.0568162 1.57498 0
M  V30 3534 C 348.316 -1.05038 2.03715 0
M  V30 3535 C 349.316 -1.30709 0.936577 0
M  V30 3536 O 350.506 -1.26178 1.20103 0
M  V30 3537 C 347.638 -2.39034 2.43055 0
M  V30 3538 H 348.831 -0.651715 2.92733 0
M  V30 3539 H 346.384 -0.302947 1.53336 0
M  V30 3540 H 347.119 -2.83703 1.57108 0
M  V30 3541 H 346.904 -2.21739 3.2338 0
M  V30 3542 H 348.394 -3.10421 2.79336 0
M  V30 3543 N 348.832 -1.54138 -0.328536 0
M  V30 3544 C 349.762 -1.86167 -1.40939 0
M  V30 3545 C 350.743 -0.718044 -1.54202 0
M  V30 3546 O 351.928 -0.971328 -1.68163 0
M  V30 3547 C 349.058 -2.08461 -2.77779 0
M  V30 3548 C 348.012 -3.24299 -2.7931 0
M  V30 3549 C 347.338 -3.31955 -4.19178 0
M  V30 3550 C 348.638 -4.62065 -2.43502 0
M  V30 3551 H 350.332 -2.76689 -1.14383 0
M  V30 3552 H 347.878 -1.33132 -0.548806 0
M  V30 3553 H 349.831 -2.29453 -3.53454 0
M  V30 3554 H 348.555 -1.14684 -3.05802 0
M  V30 3555 H 347.214 -3.03187 -2.0609 0
M  V30 3556 H 346.862 -2.35745 -4.44335 0
M  V30 3557 H 346.562 -4.09805 -4.2111 0
M  V30 3558 H 348.086 -3.55175 -4.96672 0
M  V30 3559 H 349.5 -4.8297 -3.08889 0
M  V30 3560 H 347.897 -5.42429 -2.56693 0
M  V30 3561 H 348.967 -4.64652 -1.38659 0
M  V30 3562 N 350.31 0.590341 -1.46126 0
M  V30 3563 C 351.273 1.68194 -1.55703 0
M  V30 3564 C 352.273 1.54808 -0.434868 0
M  V30 3565 O 353.463 1.59564 -0.698928 0
M  V30 3566 C 350.595 3.07575 -1.47005 0
M  V30 3567 H 351.788 1.61064 -2.52979 0
M  V30 3568 H 349.341 0.807541 -1.33823 0
M  V30 3569 H 350.076 3.20268 -0.509785 0
M  V30 3570 H 349.861 3.187 -2.28414 0
M  V30 3571 H 351.351 3.87055 -1.56776 0
M  V30 3572 N 351.788 1.33704 0.83433 0
M  V30 3573 C 352.751 1.24244 1.92603 0
M  V30 3574 C 353.751 0.160383 1.59998 0
M  V30 3575 O 354.941 0.412228 1.69252 0
M  V30 3576 C 352.073 0.91555 3.28376 0
M  V30 3577 H 353.266 2.21287 2.02416 0
M  V30 3578 H 350.819 1.17827 1.02696 0
M  V30 3579 H 351.554 -0.0521886 3.24258 0
M  V30 3580 H 351.339 1.69811 3.53422 0
M  V30 3581 H 352.829 0.874231 4.08347 0
M  V30 3582 N 353.266 -1.05314 1.17247 0
M  V30 3583 C 354.491 -1.82509 0.985148 0
M  V30 3584 C 354.916 -1.82343 -0.461788 0
M  V30 3585 O 354.274 -1.23151 -1.33055 0
M  V30 3586 C 354.322 -3.26566 1.52929 0
M  V30 3587 O 353.426 -4.05666 0.742225 0
M  V30 3588 H 352.767 -0.564347 0.349869 0
M  V30 3589 H 355.297 -1.32718 1.55715 0
M  V30 3590 H 355.307 -3.77369 1.55103 0
M  V30 3591 H 353.982 -3.26001 2.58256 0
M  V30 3592 H 352.559 -3.64397 0.791794 0
M  V30 3593 N 354.744 -0.972509 -1.24016 0
M  V30 3594 C 355.674 -0.525548 -2.27509 0
M  V30 3595 C 356.655 0.437262 -1.64384 0
M  V30 3596 O 357.84 0.332343 -1.91335 0
M  V30 3597 C 354.97 0.180448 -3.46831 0
M  V30 3598 C 353.924 -0.698859 -4.22256 0
M  V30 3599 C 353.25 0.138903 -5.3452 0
M  V30 3600 C 354.55 -1.98582 -4.83076 0
M  V30 3601 H 356.244 -1.39058 -2.65148 0
M  V30 3602 H 353.79 -0.67009 -1.27459 0
M  V30 3603 H 355.743 0.504387 -4.18371 0
M  V30 3604 H 354.467 1.07987 -3.08231 0
M  V30 3605 H 353.126 -1.00614 -3.52523 0
M  V30 3606 H 352.774 1.03862 -4.9216 0
M  V30 3607 H 352.474 -0.446259 -5.85903 0
M  V30 3608 H 353.998 0.457404 -6.08884 0
M  V30 3609 H 355.412 -1.72715 -5.46665 0
M  V30 3610 H 353.809 -2.5181 -5.44713 0
M  V30 3611 H 354.879 -2.67769 -4.04262 0
M  V30 3612 N 356.222 1.38976 -0.743202 0
M  V30 3613 C 357.47 1.99948 -0.29417 0
M  V30 3614 C 357.791 1.59279 1.12495 0
M  V30 3615 O 357.061 0.844808 1.76748 0
M  V30 3616 H 355.641 0.739473 -0.105774 0
M  V30 3617 H 358.303 1.699 -0.954986 0
M  V30 3618 H 357.399 3.10142 -0.349056 0
M  V30 3619 N 357.7 0.491464 1.49741 0
M  V30 3620 C 358.977 -0.118984 1.95238 0
M  V30 3621 C 359.357 -1.55044 1.43264 0
M  V30 3622 O 358.705 -2.19287 0.642287 0
M  V30 3623 C 358.915 -0.0414187 3.48975 0
M  V30 3624 C 360.263 -0.220133 4.24029 0
M  V30 3625 O 361.287 -0.117055 3.56008 0
M  V30 3626 O 360.146 -0.430567 5.44801 0
M  V30 3627 H 357.24 -0.100536 0.820866 0
M  V30 3628 H 359.786 0.553322 1.60426 0
M  V30 3629 H 358.558 0.957214 3.79412 0
M  V30 3630 H 358.181 -0.754292 3.9038 0
M  V30 3631 N 359.178 -1.55987 0.224894 0
M  V30 3632 C 360.141 -2.19178 -0.670348 0
M  V30 3633 C 361.141 -1.15461 -1.11917 0
M  V30 3634 O 362.331 -1.40675 -1.02743 0
M  V30 3635 C 359.463 -2.81777 -1.9187 0
M  V30 3636 H 360.656 -2.99662 -0.119364 0
M  V30 3637 H 358.209 -1.5628 -0.0247128 0
M  V30 3638 H 358.944 -2.05172 -2.51147 0
M  V30 3639 H 358.729 -3.57732 -1.60531 0
M  V30 3640 H 360.219 -3.30205 -2.55645 0
M  V30 3641 N 360.656 0.0484629 -1.57525 0
M  V30 3642 C 361.619 1.03956 -2.04269 0
M  V30 3643 C 362.619 1.30211 -0.943496 0
M  V30 3644 O 363.809 1.25539 -1.20771 0
M  V30 3645 C 360.941 2.37742 -2.44319 0
M  V30 3646 H 362.134 0.636182 -2.93075 0
M  V30 3647 H 359.687 0.294811 -1.53494 0
M  V30 3648 H 360.422 2.82866 -1.5861 0
M  V30 3649 H 360.207 2.20021 -3.24551 0
M  V30 3650 H 361.697 3.08936 -2.80978 0
M  V30 3651 N 362.134 1.5431 0.320358 0
M  V30 3652 C 363.084 1.803 1.39556 0
M  V30 3653 C 364.068 0.659166 1.46778 0
M  V30 3654 O 365.26 0.91926 1.51257 0
M  V30 3655 C 362.389 2.03665 2.76361 0
M  V30 3656 C 361.475 3.24178 2.73439 0
M  V30 3657 N 361.866 4.4516 2.40137 0
M  V30 3658 C 360.164 3.25816 3.04565 0
M  V30 3659 C 360.865 5.27109 2.4603 0
M  V30 3660 N 359.841 4.64368 2.82601 0
M  V30 3661 H 363.643 2.71416 1.12742 0
M  V30 3662 H 361.157 1.53548 0.528856 0
M  V30 3663 H 363.154 2.20425 3.53862 0
M  V30 3664 H 361.814 1.13805 3.04103 0
M  V30 3665 H 362.825 4.72104 2.12927 0
M  V30 3666 H 359.502 2.46001 3.37328 0
M  V30 3667 H 360.892 6.33728 2.23246 0
M  V30 3668 N 363.613 -0.582584 1.46437 0
M  V30 3669 C 364.859 -1.34278 1.51978 0
M  V30 3670 C 365.192 -1.93446 0.170973 0
M  V30 3671 O 364.467 -1.76481 -0.817608 0
M  V30 3672 C 364.75 -2.47203 2.61845 0
M  V30 3673 C 364.603 -1.93069 4.06257 0
M  V30 3674 C 365.922 -3.49247 2.67795 0
M  V30 3675 H 363.041 -0.486876 0.553282 0
M  V30 3676 H 365.683 -0.654437 1.78374 0
M  V30 3677 H 363.833 -3.0592 2.39469 0
M  V30 3678 H 365.505 -1.38808 4.3992 0
M  V30 3679 H 363.748 -1.23898 4.1573 0
M  V30 3680 H 364.419 -2.74586 4.7886 0
M  V30 3681 H 366.895 -3.00411 2.8791 0
M  V30 3682 H 365.771 -4.25719 3.46489 0
M  V30 3683 H 366.032 -4.06482 1.73852 0
M  V30 3684 N 365.091 -1.34144 -0.827227 0
M  V30 3685 C 366.339 -1.26009 -1.58007 0
M  V30 3686 C 366.66 0.170971 -1.94249 0
M  V30 3687 O 365.93 1.10256 -1.61927 0
M  V30 3688 H 364.51 -0.463414 -0.585881 0
M  V30 3689 H 367.172 -1.68005 -0.987951 0
M  V30 3690 H 366.268 -1.86187 -2.50481 0
M  V30 3691 N 366.569 1.04691 -1.17803 0
M  V30 3692 C 367.532 2.10724 -0.901545 0
M  V30 3693 C 368.532 1.6042 0.110437 0
M  V30 3694 O 369.722 1.7377 -0.122303 0
M  V30 3695 C 366.854 3.39084 -0.351409 0
M  V30 3696 H 368.047 2.36686 -1.84174 0
M  V30 3697 H 365.6 1.21015 -0.98919 0
M  V30 3698 H 366.335 3.18782 0.59569 0
M  V30 3699 H 366.12 3.76909 -1.08083 0
M  V30 3700 H 367.61 4.17227 -0.176451 0
M  V30 3701 N 368.047 0.979072 1.23499 0
M  V30 3702 C 369.463 0.687475 1.44034 0
M  V30 3703 C 369.663 -0.746801 1.8715 0
M  V30 3704 O 368.719 -1.51939 2.0167 0
M  V30 3705 C 370.032 1.68127 2.49307 0
M  V30 3706 C 371.58 1.69516 2.63122 0
M  V30 3707 C 372.055 2.67723 3.71603 0
M  V30 3708 N 373.546 2.66233 3.79044 0
M  V30 3709 C 374.281 3.38891 4.62537 0
M  V30 3710 N 373.777 4.21103 5.50131 0
M  V30 3711 N 375.57 3.27661 4.56721 0
M  V30 3712 H 367.721 1.90559 0.938135 0
M  V30 3713 H 369.984 0.821051 0.473897 0
M  V30 3714 H 369.69 2.70693 2.2454 0
M  V30 3715 H 369.564 1.46306 3.4767 0
M  V30 3716 H 371.951 0.676561 2.8724 0
M  V30 3717 H 372.032 1.95404 1.65079 0
M  V30 3718 H 371.676 3.69724 3.48233 0
M  V30 3719 H 371.606 2.39111 4.69184 0
M  V30 3720 H 374.097 2.06568 3.16446 0
M  V30 3721 H 374.41 4.73403 6.10827 0
M  V30 3722 H 372.755 4.25195 5.49759 0
M  V30 3723 H 375.946 2.62887 3.87309 0
M  V30 3724 H 376.119 3.84547 5.21562 0
M  V30 3725 N 369.525 -1.3858 0.750561 0
M  V30 3726 C 370.771 -2.00481 0.305825 0
M  V30 3727 C 371.104 -1.5944 -1.10872 0
M  V30 3728 O 370.379 -0.83052 -1.75877 0
M  V30 3729 C 370.662 -3.5758 0.425287 0
M  V30 3730 C 370.515 -4.08594 1.88072 0
M  V30 3731 C 371.834 -4.39719 -0.183122 0
M  V30 3732 H 368.953 -0.728348 0.112598 0
M  V30 3733 H 371.595 -1.64566 0.949638 0
M  V30 3734 H 369.745 -3.88306 -0.122828 0
M  V30 3735 H 371.417 -3.88523 2.48691 0
M  V30 3736 H 369.66 -3.61574 2.39681 0
M  V30 3737 H 370.331 -5.177 1.91548 0
M  V30 3738 H 372.807 -4.15128 0.284303 0
M  V30 3739 H 371.683 -5.48856 -0.0692757 0
M  V30 3740 H 371.944 -4.23434 -1.27106 0
M  V30 3741 N 371.003 -0.499398 -1.49478 0
M  V30 3742 C 371.913 0.284489 -2.32869 0
M  V30 3743 C 372.929 0.968885 -1.44529 0
M  V30 3744 O 374.105 0.95062 -1.77553 0
M  V30 3745 C 371.17 1.33594 -3.19928 0
M  V30 3746 C 370.231 0.665149 -4.24116 0
M  V30 3747 C 369.464 1.6665 -5.07014 0
M  V30 3748 O 369.687 2.89618 -4.91404 0
M  V30 3749 O 368.621 1.22271 -5.8935 0
M  V30 3750 H 372.447 -0.39802 -3.01081 0
M  V30 3751 H 370.032 -0.260758 -1.47107 0
M  V30 3752 H 371.914 1.94431 -3.73864 0
M  V30 3753 H 370.589 2.0014 -2.54412 0
M  V30 3754 H 369.496 0.0170769 -3.74096 0
M  V30 3755 H 370.829 0.0421555 -4.92182 0
M  V30 3756 N 372.481 1.55866 -0.233164 0
M  V30 3757 C 373.729 1.9821 0.394593 0
M  V30 3758 C 374.05 1.12234 1.59463 0
M  V30 3759 O 373.32 0.201981 1.94856 0
M  V30 3760 H 371.9 0.732034 0.148778 0
M  V30 3761 H 374.562 1.92107 -0.32876 0
M  V30 3762 H 373.658 3.03845 0.713063 0
M  V30 3763 N 373.959 -0.0401083 1.57549 0
M  V30 3764 C 374.889 -1.04384 2.08869 0
M  V30 3765 C 375.87 -1.38407 0.988817 0
M  V30 3766 O 377.055 -1.47483 1.26342 0
M  V30 3767 C 374.185 -2.34808 2.55895 0
M  V30 3768 C 373.139 -2.15057 3.70047 0
M  V30 3769 C 372.465 -3.51145 4.03239 0
M  V30 3770 C 373.765 -1.54576 4.98902 0
M  V30 3771 H 375.459 -0.616666 2.92981 0
M  V30 3772 H 373.005 -0.295184 1.40942 0
M  V30 3773 H 374.958 -3.05346 2.90417 0
M  V30 3774 H 373.682 -2.79565 1.68853 0
M  V30 3775 H 372.341 -1.46954 3.35857 0
M  V30 3776 H 371.989 -3.93529 3.13279 0
M  V30 3777 H 371.689 -3.38758 4.80122 0
M  V30 3778 H 373.213 -4.23062 4.40285 0
M  V30 3779 H 374.627 -2.15017 5.31451 0
M  V30 3780 H 373.024 -1.52796 5.80322 0
M  V30 3781 H 374.094 -0.51039 4.82206 0
M  V30 3782 N 375.437 -1.54477 -0.31217 0
M  V30 3783 C 376.4 -1.83923 -1.36766 0
M  V30 3784 C 377.4 -0.711563 -1.44199 0
M  V30 3785 O 378.59 -0.979866 -1.44029 0
M  V30 3786 C 375.722 -2.0095 -2.75376 0
M  V30 3787 H 376.915 -2.78239 -1.11906 0
M  V30 3788 H 374.468 -1.46369 -0.548257 0
M  V30 3789 H 375.203 -1.08883 -3.05475 0
M  V30 3790 H 374.988 -2.83018 -2.71373 0
M  V30 3791 H 376.478 -2.2514 -3.51713 0
M  V30 3792 N 376.915 0.57481 -1.46744 0
M  V30 3793 C 378.331 0.898981 -1.31873 0
M  V30 3794 C 378.531 1.99313 -0.29605 0
M  V30 3795 O 377.587 2.50728 0.298621 0
M  V30 3796 C 378.9 1.30886 -2.7072 0
M  V30 3797 C 380.448 1.42127 -2.78871 0
M  V30 3798 C 380.923 1.86478 -4.18318 0
M  V30 3799 N 382.414 1.93658 -4.20774 0
M  V30 3800 C 383.149 2.29267 -5.2557 0
M  V30 3801 N 382.645 2.63612 -6.40688 0
M  V30 3802 N 384.438 2.29889 -5.1294 0
M  V30 3803 H 376.589 -0.147839 -2.11885 0
M  V30 3804 H 378.852 -0.00347013 -0.947994 0
M  V30 3805 H 378.558 0.578853 -3.46904 0
M  V30 3806 H 378.432 2.26874 -3.01343 0
M  V30 3807 H 380.819 2.14213 -2.0297 0
M  V30 3808 H 380.9 0.443705 -2.51922 0
M  V30 3809 H 380.544 1.14968 -4.94717 0
M  V30 3810 H 380.474 2.85207 -4.42679 0
M  V30 3811 H 382.965 1.69574 -3.37718 0
M  V30 3812 H 383.278 2.89759 -7.16421 0
M  V30 3813 H 381.623 2.61232 -6.44036 0
M  V30 3814 H 384.814 2.02485 -4.22039 0
M  V30 3815 H 384.987 2.57312 -5.94722 0
M  V30 3816 N 378.394 1.34581 0.820102 0
M  V30 3817 C 379.304 1.28471 1.96297 0
M  V30 3818 C 380.32 0.191902 1.72939 0
M  V30 3819 O 381.496 0.418879 1.96996 0
M  V30 3820 C 378.561 1.04281 3.30645 0
M  V30 3821 C 377.622 2.22745 3.66992 0
M  V30 3822 C 376.855 1.997 4.9493 0
M  V30 3823 O 377.078 0.956656 5.6232 0
M  V30 3824 O 376.012 2.86723 5.2922 0
M  V30 3825 H 379.838 2.24624 2.04396 0
M  V30 3826 H 377.423 1.14816 0.955913 0
M  V30 3827 H 379.305 0.925841 4.11104 0
M  V30 3828 H 377.98 0.111697 3.23507 0
M  V30 3829 H 376.887 2.40003 2.86966 0
M  V30 3830 H 378.22 3.14257 3.78819 0
M  V30 3831 N 379.872 -1.04064 1.18357 0
M  V30 3832 C 381.149 -1.74252 0.888581 0
M  V30 3833 C 381.529 -2.02138 -0.60856 0
M  V30 3834 O 380.877 -1.66656 -1.56327 0
M  V30 3835 C 381.087 -3.0277 1.73584 0
M  V30 3836 C 382.435 -3.76506 1.96286 0
M  V30 3837 O 383.459 -3.12668 1.70637 0
M  V30 3838 O 382.318 -4.91243 2.39464 0
M  V30 3839 H 379.412 -0.758271 0.330082 0
M  V30 3840 H 381.958 -1.1013 1.2911 0
M  V30 3841 H 380.73 -2.78299 2.75073 0
M  V30 3842 H 380.353 -3.74631 1.33183 0
M  V30 3843 N 381.35 -0.985608 -1.22978 0
M  V30 3844 C 382.598 -0.656087 -1.91154 0
M  V30 3845 C 382.919 0.813561 -1.77218 0
M  V30 3846 O 382.189 1.58244 -1.1548 0
M  V30 3847 H 380.769 -0.239674 -0.707506 0
M  V30 3848 H 383.431 -1.25054 -1.49491 0
M  V30 3849 H 382.527 -0.912253 -2.9847 0
M  V30 3850 N 382.828 1.3818 -0.7579 0
M  V30 3851 C 384.076 1.99624 -0.315361 0
M  V30 3852 C 384.397 1.60464 1.10799 0
M  V30 3853 O 383.667 0.863507 1.75842 0
M  V30 3854 H 382.247 0.73831 -0.113611 0
M  V30 3855 H 384.909 1.68878 -0.972952 0
M  V30 3856 H 384.005 3.09754 -0.381931 0
M  V30 3857 N 384.306 0.507319 1.49211 0
M  V30 3858 C 385.552 -0.0269732 2.03382 0
M  V30 3859 C 385.907 -1.34111 1.37957 0
M  V30 3860 O 385.2 -1.84733 0.508351 0
M  V30 3861 C 385.394 -0.229513 3.56662 0
M  V30 3862 C 385.223 1.06344 4.36945 0
M  V30 3863 C 383.993 1.617 4.78729 0
M  V30 3864 C 386.191 1.96833 4.75143 0
M  V30 3865 N 384.173 2.8552 5.43463 0
M  V30 3866 C 385.544 3.0523 5.39661 0
M  V30 3867 C 387.599 1.97434 4.57082 0
M  V30 3868 C 386.302 4.14265 5.88028 0
M  V30 3869 C 388.328 3.05448 5.06414 0
M  V30 3870 C 387.69 4.12564 5.70938 0
M  V30 3871 H 383.789 0.0310673 0.781383 0
M  V30 3872 H 386.373 0.683579 1.82305 0
M  V30 3873 H 384.544 -0.909127 3.7761 0
M  V30 3874 H 386.276 -0.761377 3.97473 0
M  V30 3875 H 383.031 1.16132 4.59141 0
M  V30 3876 H 383.455 3.48499 5.80412 0
M  V30 3877 H 388.097 1.15924 4.06597 0
M  V30 3878 H 385.815 4.96569 6.3753 0
M  V30 3879 H 389.401 3.06941 4.94246 0
M  V30 3880 H 388.281 4.94767 6.0842 0
M  V30 3881 N 385.784 -1.5574 0.241426 0
M  V30 3882 C 387.2 -1.59196 -0.113548 0
M  V30 3883 C 387.4 -1.25852 -1.57364 0
M  V30 3884 O 386.456 -1.00322 -2.31715 0
M  V30 3885 C 387.769 -2.99814 0.230695 0
M  V30 3886 C 389.317 -3.12513 0.174547 0
M  V30 3887 C 389.792 -4.55342 0.492744 0
M  V30 3888 N 391.283 -4.61076 0.443043 0
M  V30 3889 C 392.018 -5.6956 0.662484 0
M  V30 3890 N 391.514 -6.86328 0.944761 0
M  V30 3891 N 393.307 -5.58957 0.593564 0
M  V30 3892 H 385.458 -1.75685 1.19368 0
M  V30 3893 H 387.721 -0.81756 0.479896 0
M  V30 3894 H 387.427 -3.28932 1.24485 0
M  V30 3895 H 387.301 -3.74568 -0.444833 0
M  V30 3896 H 389.688 -2.83179 -0.830277 0
M  V30 3897 H 389.769 -2.40045 0.883845 0
M  V30 3898 H 389.413 -4.85396 1.4951 0
M  V30 3899 H 389.343 -5.26062 -0.23797 0
M  V30 3900 H 391.834 -3.77179 0.233374 0
M  V30 3901 H 392.147 -7.64935 1.09977 0
M  V30 3902 H 390.492 -6.88025 0.982175 0
M  V30 3903 H 393.683 -4.66611 0.373123 0
M  V30 3904 H 393.856 -6.43433 0.767981 0
M  V30 3905 N 387.262 0.0317525 -1.57568 0
M  V30 3906 C 388.192 1.03274 -2.0942 0
M  V30 3907 C 389.173 1.3788 -0.996143 0
M  V30 3908 O 390.358 1.46811 -1.27122 0
M  V30 3909 C 387.488 2.33448 -2.57137 0
M  V30 3910 C 386.442 2.13091 -3.71182 0
M  V30 3911 C 385.768 3.49001 -4.05095 0
M  V30 3912 C 387.068 1.51928 -4.99715 0
M  V30 3913 H 388.762 0.60112 -2.93303 0
M  V30 3914 H 386.308 0.287705 -1.41097 0
M  V30 3915 H 388.261 3.03802 -2.92032 0
M  V30 3916 H 386.985 2.78665 -1.70333 0
M  V30 3917 H 385.644 1.45171 -3.36632 0
M  V30 3918 H 385.292 3.91862 -3.15362 0
M  V30 3919 H 384.992 3.36207 -4.81911 0
M  V30 3920 H 386.516 4.20721 -4.42522 0
M  V30 3921 H 387.93 2.12196 -5.32584 0
M  V30 3922 H 386.327 1.49716 -5.81124 0
M  V30 3923 H 387.397 0.484811 -4.8247 0
M  V30 3924 N 388.74 1.54641 0.303973 0
M  V30 3925 C 389.989 1.7299 1.03717 0
M  V30 3926 C 390.302 0.521168 1.88529 0
M  V30 3927 O 391.508 0.586408 2.65092 0
M  V30 3928 C 389.964 3.06051 1.89369 0
M  V30 3929 C 389.572 4.34393 1.09574 0
M  V30 3930 C 391.316 3.3376 2.62306 0
M  V30 3931 C 389.223 5.58506 1.94486 0
M  V30 3932 H 388.153 0.64473 0.390947 0
M  V30 3933 H 390.804 1.81124 0.294328 0
M  V30 3934 H 389.186 2.91874 2.67629 0
M  V30 3935 H 390.36 4.59396 0.359485 0
M  V30 3936 H 388.675 4.13597 0.482324 0
M  V30 3937 H 391.272 4.23687 3.26181 0
M  V30 3938 H 391.615 2.52503 3.3098 0
M  V30 3939 H 392.148 3.48894 1.91097 0
M  V30 3940 H 388.887 6.42422 1.30287 0
M  V30 3941 H 388.407 5.37694 2.65792 0
M  V30 3942 H 390.086 5.95651 2.52605 0
M  V30 3943 N 390.218 -0.567019 1.47046 0
M  V30 3944 C 391.467 -1.32091 1.5243 0
M  V30 3945 C 391.78 -1.94704 0.187021 0
M  V30 3946 O 392.986 -2.7124 0.118771 0
M  V30 3947 C 391.442 -2.39479 2.68659 0
M  V30 3948 C 391.05 -1.831 4.08874 0
M  V30 3949 C 392.794 -3.16111 2.83327 0
M  V30 3950 C 390.701 -2.8821 5.16419 0
M  V30 3951 H 389.631 -0.496629 0.56734 0
M  V30 3952 H 392.282 -0.603354 1.73297 0
M  V30 3953 H 390.664 -3.14105 2.41152 0
M  V30 3954 H 391.838 -1.14913 4.46242 0
M  V30 3955 H 390.153 -1.19085 3.99008 0
M  V30 3956 H 392.75 -3.94585 3.60842 0
M  V30 3957 H 393.093 -3.69686 1.91411 0
M  V30 3958 H 393.626 -2.48595 3.10556 0
M  V30 3959 H 390.365 -2.39504 6.10179 0
M  V30 3960 H 389.885 -3.54839 4.8358 0
M  V30 3961 H 391.564 -3.51881 5.42945 0
M  V30 3962 N 391.696 -1.35014 -0.812953 0
M  V30 3963 C 392.606 -1.2951 -1.95613 0
M  V30 3964 C 393.622 -0.20107 -1.72834 0
M  V30 3965 O 394.798 -0.42932 -1.96771 0
M  V30 3966 C 391.863 -1.06033 -3.30088 0
M  V30 3967 C 390.924 -2.24688 -3.65805 0
M  V30 3968 C 390.157 -2.02322 -4.93864 0
M  V30 3969 O 390.38 -0.986464 -5.61805 0
M  V30 3970 O 389.314 -2.89525 -5.27692 0
M  V30 3971 H 393.14 -2.25705 -2.03202 0
M  V30 3972 H 390.725 -1.15321 -0.949811 0
M  V30 3973 H 392.607 -0.94763 -4.10607 0
M  V30 3974 H 391.282 -0.128852 -3.23443 0
M  V30 3975 H 390.189 -2.41521 -2.85689 0
M  V30 3976 H 391.522 -3.16261 -3.77147 0
M  V30 3977 N 393.175 1.03435 -1.18907 0
M  V30 3978 C 394.085 2.15075 -0.937015 0
M  V30 3979 C 395.101 1.73706 0.101085 0
M  V30 3980 O 396.277 2.01232 -0.0822948 0
M  V30 3981 C 393.342 3.43458 -0.473057 0
M  V30 3982 C 392.403 3.99172 -1.57989 0
M  V30 3983 C 391.636 5.21427 -1.13797 0
M  V30 3984 O 391.859 5.704 0.000725941 0
M  V30 3985 O 390.793 5.69837 -1.9383 0
M  V30 3986 H 394.619 2.39198 -1.87131 0
M  V30 3987 H 392.204 1.13506 -0.971427 0
M  V30 3988 H 394.086 4.20811 -0.222702 0
M  V30 3989 H 392.761 3.20793 0.432869 0
M  V30 3990 H 391.668 3.23178 -1.88433 0
M  V30 3991 H 393.001 4.2619 -2.46217 0
M  V30 3992 N 394.653 0.992116 1.22453 0
M  V30 3993 C 395.603 0.512969 2.22155 0
M  V30 3994 C 396.587 -0.418416 1.55364 0
M  V30 3995 O 397.779 -0.245363 1.75291 0
M  V30 3996 C 394.908 -0.171822 3.4287 0
M  V30 3997 C 393.994 0.779822 4.16869 0
M  V30 3998 N 394.385 1.92734 4.6764 0
M  V30 3999 C 392.683 0.59554 4.42006 0
M  V30 4000 C 393.384 2.52458 5.24061 0
M  V30 4001 N 392.36 1.80735 5.12675 0
M  V30 4002 H 396.162 1.38817 2.5905 0
M  V30 4003 H 393.676 0.854277 1.38115 0
M  V30 4004 H 395.673 -0.532469 4.13486 0
M  V30 4005 H 394.333 -1.04317 3.07487 0
M  V30 4006 H 395.344 2.30816 4.63621 0
M  V30 4007 H 392.021 -0.229805 4.16867 0
M  V30 4008 H 393.411 3.49433 5.73887 0
M  V30 4009 N 396.131 -1.37776 0.765217 0
M  V30 4010 C 397.379 -1.99454 0.325943 0
M  V30 4011 C 397.7 -1.61049 -1.09947 0
M  V30 4012 O 396.97 -0.872821 -1.75381 0
M  V30 4013 H 395.55 -0.737697 0.117525 0
M  V30 4014 H 398.212 -1.68359 0.981895 0
M  V30 4015 H 397.308 -3.09547 0.398353 0
M  V30 4016 N 397.609 -0.515225 -1.4894 0
M  V30 4017 C 399.025 -0.172099 -1.58669 0
M  V30 4018 C 399.225 1.32405 -1.51892 0
M  V30 4019 O 398.281 2.10116 -1.40027 0
M  V30 4020 C 399.594 -0.761533 -2.90897 0
M  V30 4021 C 401.142 -0.728926 -3.04394 0
M  V30 4022 C 401.617 -1.29667 -4.39261 0
M  V30 4023 N 403.108 -1.25799 -4.4579 0
M  V30 4024 C 403.843 -1.66733 -5.48623 0
M  V30 4025 N 403.339 -2.15327 -6.58488 0
M  V30 4026 N 405.132 -1.58061 -5.39419 0
M  V30 4027 H 397.283 -1.48778 -1.51588 0
M  V30 4028 H 399.546 -0.617968 -0.718901 0
M  V30 4029 H 399.252 -1.81136 -3.01468 0
M  V30 4030 H 399.126 -0.230106 -3.76497 0
M  V30 4031 H 401.513 0.312098 -2.93445 0
M  V30 4032 H 401.594 -1.29766 -2.20442 0
M  V30 4033 H 401.238 -2.33655 -4.50963 0
M  V30 4034 H 401.168 -0.703752 -5.21876 0
M  V30 4035 H 403.659 -0.902102 -3.66975 0
M  V30 4036 H 403.972 -2.44594 -7.33071 0
M  V30 4037 H 402.317 -2.19311 -6.59491 0
M  V30 4038 H 405.508 -1.19906 -4.52482 0
M  V30 4039 H 405.681 -1.90284 -6.19432 0
M  V30 4040 N 399.087 1.5561 -0.249682 0
M  V30 4041 C 400.503 1.59254 0.105103 0
M  V30 4042 C 400.703 1.26685 1.56694 0
M  V30 4043 O 399.759 1.0155 2.31179 0
M  V30 4044 C 401.072 2.99687 -0.246592 0
M  V30 4045 C 402.62 3.12416 -0.191118 0
M  V30 4046 C 403.095 4.55074 -0.516885 0
M  V30 4047 N 404.586 4.60835 -0.467489 0
M  V30 4048 C 405.321 5.69201 -0.69268 0
M  V30 4049 N 404.817 6.85817 -0.981146 0
M  V30 4050 N 406.61 5.58635 -0.623198 0
M  V30 4051 H 398.761 1.75049 -1.20298 0
M  V30 4052 H 401.024 0.815003 -0.484225 0
M  V30 4053 H 400.73 3.28267 -1.26228 0
M  V30 4054 H 400.604 3.74798 0.424962 0
M  V30 4055 H 402.991 2.83615 0.815247 0
M  V30 4056 H 403.072 2.39573 -0.896563 0
M  V30 4057 H 402.716 4.84596 -1.52082 0
M  V30 4058 H 402.646 5.26181 0.210068 0
M  V30 4059 H 405.137 3.7705 -0.253373 0
M  V30 4060 H 405.45 7.64341 -1.14032 0
M  V30 4061 H 403.795 6.87494 -1.01865 0
M  V30 4062 H 406.986 4.66406 -0.397863 0
M  V30 4063 H 407.159 6.43017 -0.802093 0
M  V30 4064 N 400.565 -0.0233959 1.57583 0
M  V30 4065 C 401.528 -1.00693 2.05897 0
M  V30 4066 C 402.528 -1.28693 0.964092 0
M  V30 4067 O 403.718 -1.23602 1.22753 0
M  V30 4068 C 400.85 -2.33825 2.4807 0
M  V30 4069 H 402.043 -0.589476 2.9405 0
M  V30 4070 H 399.596 -0.270354 1.53944 0
M  V30 4071 H 400.331 -2.80307 1.6309 0
M  V30 4072 H 400.116 -2.1483 3.2801 0
M  V30 4073 H 401.606 -3.04426 2.85857 0
M  V30 4074 N 402.043 -1.548 -0.295768 0
M  V30 4075 C 402.953 -1.89177 -1.38742 0
M  V30 4076 C 403.969 -0.786481 -1.55211 0
M  V30 4077 O 405.145 -1.08344 -1.69775 0
M  V30 4078 C 402.21 -2.13663 -2.73036 0
M  V30 4079 C 401.271 -3.37349 -2.65508 0
M  V30 4080 C 400.504 -3.60658 -3.93398 0
M  V30 4081 O 400.727 -2.86882 -4.93006 0
M  V30 4082 O 399.661 -4.54179 -3.94975 0
M  V30 4083 H 403.487 -2.82059 -1.12589 0
M  V30 4084 H 401.072 -1.41056 -0.492295 0
M  V30 4085 H 402.954 -2.3094 -3.52484 0
M  V30 4086 H 401.629 -1.23967 -2.99022 0
M  V30 4087 H 400.536 -3.25431 -1.84514 0
M  V30 4088 H 401.869 -4.27192 -2.44474 0
M  V30 4089 N 403.521 0.559213 -1.47345 0
M  V30 4090 C 404.451 1.67622 -1.62558 0
M  V30 4091 C 405.432 1.63331 -0.475087 0
M  V30 4092 O 406.617 1.80983 -0.704182 0
M  V30 4093 C 403.747 3.0626 -1.63774 0
M  V30 4094 C 402.701 3.25397 -2.7803 0
M  V30 4095 C 402.027 4.64801 -2.64318 0
M  V30 4096 C 403.327 3.10965 -4.19641 0
M  V30 4097 H 405.021 1.55146 -2.56067 0
M  V30 4098 H 402.567 0.744961 -1.23233 0
M  V30 4099 H 404.52 3.84247 -1.73008 0
M  V30 4100 H 403.244 3.1969 -0.66825 0
M  V30 4101 H 401.903 2.49817 -2.68304 0
M  V30 4102 H 401.551 4.75028 -1.65401 0
M  V30 4103 H 401.251 4.78555 -3.40968 0
M  V30 4104 H 402.775 5.44926 -2.75478 0
M  V30 4105 H 404.189 3.78772 -4.30354 0
M  V30 4106 H 402.586 3.36229 -4.97062 0
M  V30 4107 H 403.656 2.07736 -4.38148 0
M  V30 4108 N 404.999 1.35443 0.805782 0
M  V30 4109 C 406.224 1.32037 1.59941 0
M  V30 4110 C 406.649 -0.0994215 1.87837 0
M  V30 4111 O 406.007 -1.06648 1.46615 0
M  V30 4112 C 406.055 2.13354 2.90711 0
M  V30 4113 O 405.159 1.5148 3.83572 0
M  V30 4114 H 404.5 0.452666 0.485787 0
M  V30 4115 H 407.03 1.78496 1.00002 0
M  V30 4116 H 407.04 2.25338 3.40128 0
M  V30 4117 H 405.715 3.16572 2.69732 0
M  V30 4118 H 404.292 1.4834 3.42125 0
M  V30 4119 N 406.477 -1.02803 1.19454 0
M  V30 4120 C 407.723 -1.76478 0.999171 0
M  V30 4121 C 408.056 -1.88456 -0.468828 0
M  V30 4122 O 407.331 -1.40198 -1.34814 0
M  V30 4123 C 407.614 -3.19044 1.66981 0
M  V30 4124 C 407.467 -3.14932 3.21151 0
M  V30 4125 C 408.786 -4.17456 1.39349 0
M  V30 4126 H 405.905 -0.640614 0.364393 0
M  V30 4127 H 408.547 -1.20005 1.47305 0
M  V30 4128 H 406.697 -3.67263 1.2669 0
M  V30 4129 H 408.369 -2.74605 3.70661 0
M  V30 4130 H 406.612 -2.52625 3.52652 0
M  V30 4131 H 407.283 -4.1566 3.63223 0
M  V30 4132 H 409.759 -3.77842 1.74283 0
M  V30 4133 H 408.635 -5.154 1.88823 0
M  V30 4134 H 408.896 -4.40949 0.318813 0
M  V30 4135 N 407.956 -0.998596 -1.21925 0
M  V30 4136 C 408.919 -0.558679 -2.22287 0
M  V30 4137 C 409.919 0.361525 -1.56683 0
M  V30 4138 O 411.109 0.152695 -1.73529 0
M  V30 4139 C 408.241 0.18661 -3.40389 0
M  V30 4140 H 409.434 -1.4463 -2.62721 0
M  V30 4141 H 406.987 -0.786413 -1.35075 0
M  V30 4142 H 407.722 1.08996 -3.05435 0
M  V30 4143 H 407.507 -0.474188 -3.89222 0
M  V30 4144 H 408.997 0.482367 -4.14805 0
M  V30 4145 N 409.434 1.37368 -0.772513 0
M  V30 4146 C 410.366 2.28899 -0.117502 0
M  V30 4147 C 411.379 1.4867 0.663405 0
M  V30 4148 O 412.568 1.71314 0.501372 0
M  V30 4149 C 409.668 3.2788 0.857192 0
M  V30 4150 C 408.841 4.37207 0.129938 0
M  V30 4151 C 407.9 5.16257 1.01811 0
M  V30 4152 O 406.926 5.67159 0.481601 0
M  V30 4153 N 408.128 5.31058 2.3443 0
M  V30 4154 H 410.893 2.85752 -0.903662 0
M  V30 4155 H 408.454 1.49353 -0.62493 0
M  V30 4156 H 410.446 3.77647 1.45482 0
M  V30 4157 H 409.016 2.7179 1.54432 0
M  V30 4158 H 408.236 3.88827 -0.648605 0
M  V30 4159 H 409.524 5.07434 -0.372559 0
M  V30 4160 H 408.922 4.91287 2.80452 0
M  V30 4161 H 407.479 5.84131 2.89197 0
M  V30 4162 N 410.912 0.523116 1.48665 0
M  V30 4163 C 412.158 -0.0134963 2.02796 0
M  V30 4164 C 412.491 -1.34582 1.40004 0
M  V30 4165 O 411.766 -1.86756 0.543381 0
M  V30 4166 C 412.049 -0.14276 3.59817 0
M  V30 4167 C 411.902 1.21425 4.331 0
M  V30 4168 C 413.221 -0.872856 4.31357 0
M  V30 4169 H 410.34 -0.00343074 0.736992 0
M  V30 4170 H 412.982 0.678816 1.7746 0
M  V30 4171 H 411.132 -0.732401 3.81534 0
M  V30 4172 H 412.804 1.84447 4.2282 0
M  V30 4173 H 411.047 1.79791 3.94788 0
M  V30 4174 H 411.718 1.07687 5.41394 0
M  V30 4175 H 414.194 -0.372555 4.14429 0
M  V30 4176 H 413.07 -0.932185 5.40927 0
M  V30 4177 H 413.331 -1.92161 3.98154 0
M  V30 4178 N 412.39 -1.55475 0.257931 0
M  V30 4179 C 413.636 -1.99502 -0.364266 0
M  V30 4180 C 413.969 -1.146 -1.56782 0
M  V30 4181 O 413.244 -0.211968 -1.93342 0
M  V30 4182 C 413.527 -3.51917 -0.763333 0
M  V30 4183 C 413.38 -4.4758 0.446371 0
M  V30 4184 C 414.699 -4.09742 -1.60623 0
M  V30 4185 H 411.818 -0.725277 -0.130929 0
M  V30 4186 H 414.46 -1.8653 0.361446 0
M  V30 4187 H 412.61 -3.63101 -1.38166 0
M  V30 4188 H 414.282 -4.48362 1.08487 0
M  V30 4189 H 412.525 -4.19947 1.08753 0
M  V30 4190 H 413.196 -5.51862 0.123645 0
M  V30 4191 H 415.672 -4.01727 -1.08418 0
M  V30 4192 H 414.548 -5.16631 -1.85429 0
M  V30 4193 H 414.809 -3.58889 -2.58169 0
M  V30 4194 N 413.868 0.0150385 -1.57593 0
M  V30 4195 C 414.798 1.01047 -2.10503 0
M  V30 4196 C 415.779 1.36816 -1.01071 0
M  V30 4197 O 416.964 1.45455 -1.28672 0
M  V30 4198 C 414.094 2.30708 -2.59598 0
M  V30 4199 C 413.048 2.09142 -3.73421 0
M  V30 4200 C 412.374 3.44685 -4.08774 0
M  V30 4201 C 413.674 1.46619 -5.01298 0
M  V30 4202 H 415.368 0.569978 -2.93925 0
M  V30 4203 H 412.914 0.272724 -1.41394 0
M  V30 4204 H 414.867 3.00687 -2.95238 0
M  V30 4205 H 413.591 2.76843 -1.73279 0
M  V30 4206 H 412.25 1.41592 -3.38153 0
M  V30 4207 H 411.898 3.88495 -3.195 0
M  V30 4208 H 411.598 3.31077 -4.8545 0
M  V30 4209 H 413.122 4.16004 -4.4696 0
M  V30 4210 H 414.536 2.06535 -5.34805 0
M  V30 4211 H 412.933 1.43544 -5.82679 0
M  V30 4212 H 414.003 0.433611 -4.82957 0
M  V30 4213 N 415.346 1.54954 0.287554 0
M  V30 4214 C 416.309 1.86076 1.33823 0
M  V30 4215 C 417.309 0.734414 1.43049 0
M  V30 4216 O 418.499 1.00266 1.42452 0
M  V30 4217 C 415.631 2.05305 2.72144 0
M  V30 4218 H 416.824 2.79984 1.07465 0
M  V30 4219 H 414.377 1.47223 0.524902 0
M  V30 4220 H 415.112 1.1373 3.03704 0
M  V30 4221 H 414.897 2.873 2.66836 0
M  V30 4222 H 416.387 2.30706 3.48087 0
M  V30 4223 N 416.824 -0.551391 1.4764 0
M  V30 4224 C 417.787 -1.64007 1.60107 0
M  V30 4225 C 418.787 -1.53601 0.47576 0
M  V30 4226 O 419.977 -1.57655 0.740988 0
M  V30 4227 C 417.109 -3.03569 1.55108 0
M  V30 4228 H 418.302 -1.543 2.57161 0
M  V30 4229 H 415.855 -0.771776 1.35917 0
M  V30 4230 H 416.59 -3.18804 0.594519 0
M  V30 4231 H 416.375 -3.12532 2.36783 0
M  V30 4232 H 417.865 -3.82762 1.66982 0
M  V30 4233 N 418.302 -1.35869 -0.798587 0
M  V30 4234 C 419.713 -1.26498 -1.37314 0
M  V30 4235 C 420.064 0.0991899 -1.95949 0
M  V30 4236 O 419.189 1.0004 -1.91888 0
M  V30 4237 C 419.784 -2.29054 -2.49639 0
M  V30 4238 C 418.343 -2.234 -3.02935 0
M  V30 4239 C 417.49 -2.14329 -1.75949 0
M  V30 4240 H 420.441 -1.46881 -0.600971 0
M  V30 4241 H 420.462 -1.92166 -3.28409 0
M  V30 4242 H 419.974 -3.2833 -2.06933 0
M  V30 4243 H 418.075 -1.27562 -3.50084 0
M  V30 4244 H 418.188 -3.15703 -3.60372 0
M  V30 4245 H 416.552 -1.60435 -1.9782 0
M  V30 4246 H 417.335 -3.15477 -1.35384 0
M  V30 4247 N 419.78 1.02168 -1.19998 0
M  V30 4248 C 420.743 2.08765 -0.94604 0
M  V30 4249 C 421.743 1.60618 0.0763846 0
M  V30 4250 O 422.933 1.73472 -0.159135 0
M  V30 4251 C 420.065 3.38262 -0.423255 0
M  V30 4252 H 421.258 2.32726 -1.89153 0
M  V30 4253 H 418.811 1.1889 -1.01464 0
M  V30 4254 H 419.546 3.19974 0.527938 0
M  V30 4255 H 419.331 3.74532 -1.16053 0
M  V30 4256 H 420.821 4.16759 -0.264911 0
M  V30 4257 N 421.258 1.00505 1.21394 0
M  V30 4258 C 422.208 0.536503 2.21598 0
M  V30 4259 C 423.192 -0.401914 1.55799 0
M  V30 4260 O 424.384 -0.226757 1.75541 0
M  V30 4261 C 421.513 -0.135446 3.43033 0
M  V30 4262 C 420.599 0.823992 4.16018 0
M  V30 4263 N 420.99 1.97683 4.6557 0
M  V30 4264 C 419.288 0.642387 4.4135 0
M  V30 4265 C 419.989 2.58003 5.21354 0
M  V30 4266 N 418.965 1.86162 5.1073 0
M  V30 4267 H 422.767 1.41557 2.57563 0
M  V30 4268 H 420.281 0.868878 1.37202 0
M  V30 4269 H 422.278 -0.488584 4.14027 0
M  V30 4270 H 420.938 -1.01049 3.08576 0
M  V30 4271 H 421.949 2.3572 4.61147 0
M  V30 4272 H 418.626 -0.185578 4.17087 0
M  V30 4273 H 420.016 3.555 5.70149 0
M  V30 4274 N 422.737 -1.36956 0.779787 0
M  V30 4275 C 423.7 -2.2851 0.177662 0
M  V30 4276 C 424.7 -1.48393 -0.619377 0
M  V30 4277 O 425.89 -1.68505 -0.441785 0
M  V30 4278 C 423.022 -3.32428 -0.755279 0
M  V30 4279 H 424.215 -2.83269 0.984823 0
M  V30 4280 H 421.768 -1.46358 0.548544 0
M  V30 4281 H 422.503 -2.82808 -1.58714 0
M  V30 4282 H 422.288 -3.91659 -0.185817 0
M  V30 4283 H 423.778 -4.00824 -1.17174 0
M  V30 4284 N 424.215 -0.530993 -1.48385 0
M  V30 4285 C 425.443 -0.00134122 -2.069 0
M  V30 4286 C 425.858 1.2805 -1.3874 0
M  V30 4287 O 425.215 1.76204 -0.475244 0
M  V30 4288 C 425.266 0.225256 -3.60798 0
M  V30 4289 O 424.987 -1.0058 -4.26398 0
M  V30 4290 C 426.488 0.795172 -4.3611 0
M  V30 4291 H 423.708 -0.0339704 -0.67014 0
M  V30 4292 H 426.252 -0.736926 -1.90761 0
M  V30 4293 H 424.407 0.910891 -3.76539 0
M  V30 4294 H 424.821 -0.787165 -5.1856 0
M  V30 4295 H 426.295 0.903143 -5.44562 0
M  V30 4296 H 426.772 1.80031 -4.00606 0
M  V30 4297 H 427.378 0.146069 -4.25049 0
M  V30 4298 N 425.693 1.55336 -0.266172 0
M  V30 4299 C 426.656 2.20878 0.612001 0
M  V30 4300 C 427.656 1.18388 1.08816 0
M  V30 4301 O 428.846 1.4335 0.989774 0
M  V30 4302 C 425.978 2.86765 1.84332 0
M  V30 4303 H 427.171 2.99873 0.0398718 0
M  V30 4304 H 424.724 1.56291 -0.0167309 0
M  V30 4305 H 425.459 2.11759 2.45619 0
M  V30 4306 H 425.244 3.61862 1.5099 0
M  V30 4307 H 426.734 3.36867 2.46801 0
M  V30 4308 N 427.171 -0.0066808 1.57599 0
M  V30 4309 C 428.118 -1.00024 2.08 0
M  V30 4310 C 429.088 -1.34549 0.973943 0
M  V30 4311 O 430.273 -1.44502 1.24595 0
M  V30 4312 C 427.413 -2.2891 2.58252 0
M  V30 4313 C 426.526 -2.00346 3.82734 0
M  V30 4314 C 425.661 -3.23265 4.21513 0
M  V30 4315 C 424.7 -2.90357 5.3885 0
M  V30 4316 N 423.837 -4.05793 5.72954 0
M  V30 4317 H 428.677 -0.563499 2.92624 0
M  V30 4318 H 426.214 -0.266592 1.44664 0
M  V30 4319 H 428.172 -3.04247 2.85464 0
M  V30 4320 H 426.802 -2.70265 1.76512 0
M  V30 4321 H 425.854 -1.15406 3.62471 0
M  V30 4322 H 427.166 -1.72086 4.68175 0
M  V30 4323 H 426.32 -4.06953 4.49971 0
M  V30 4324 H 425.059 -3.54657 3.34768 0
M  V30 4325 H 424.064 -2.05075 5.10122 0
M  V30 4326 H 425.289 -2.60219 6.27266 0
M  V30 4327 H 423.235 -4.37094 4.89167 0
M  V30 4328 H 423.152 -3.81034 6.52954 0
M  V30 4329 H 424.42 -4.90289 6.06001 0
M  V30 4330 N 428.649 -1.55105 -0.279332 0
M  V30 4331 C 429.579 -1.90557 -1.34945 0
M  V30 4332 C 430.56 -0.766738 -1.51839 0
M  V30 4333 O 431.745 -1.02434 -1.64988 0
M  V30 4334 C 428.875 -2.17193 -2.71006 0
M  V30 4335 C 427.829 -3.33021 -2.68851 0
M  V30 4336 C 427.155 -3.45123 -4.08405 0
M  V30 4337 C 428.455 -4.69578 -2.28678 0
M  V30 4338 H 430.149 -2.80188 -1.05522 0
M  V30 4339 H 427.695 -1.34811 -0.506173 0
M  V30 4340 H 429.648 -2.40581 -3.45975 0
M  V30 4341 H 428.372 -1.24355 -3.01999 0
M  V30 4342 H 427.031 -3.0959 -1.9634 0
M  V30 4343 H 426.679 -2.49762 -4.3661 0
M  V30 4344 H 426.379 -4.22995 -4.07859 0
M  V30 4345 H 427.903 -3.70796 -4.85121 0
M  V30 4346 H 429.317 -4.92553 -2.93368 0
M  V30 4347 H 427.714 -5.5032 -2.39306 0
M  V30 4348 H 428.784 -4.68828 -1.23807 0
M  V30 4349 N 430.127 0.543554 -1.4793 0
M  V30 4350 C 431.057 1.65888 -1.64327 0
M  V30 4351 C 432.038 1.62818 -0.492383 0
M  V30 4352 O 433.223 1.80226 -0.723338 0
M  V30 4353 C 430.353 3.04506 -1.67013 0
M  V30 4354 C 429.307 3.2243 -2.81466 0
M  V30 4355 C 428.633 4.61972 -2.69233 0
M  V30 4356 C 429.933 3.06496 -4.22915 0
M  V30 4357 H 431.627 1.52421 -2.57698 0
M  V30 4358 H 429.173 0.731849 -1.24016 0
M  V30 4359 H 431.126 3.82391 -1.77074 0
M  V30 4360 H 429.85 3.18964 -0.70212 0
M  V30 4361 H 428.509 2.46957 -2.70938 0
M  V30 4362 H 428.157 4.73247 -1.7043 0
M  V30 4363 H 427.857 4.74911 -3.46025 0
M  V30 4364 H 429.381 5.41974 -2.81242 0
M  V30 4365 H 430.795 3.74186 -4.34348 0
M  V30 4366 H 429.192 3.30938 -5.006 0
M  V30 4367 H 430.262 2.03077 -4.40327 0
M  V30 4368 N 431.605 1.3629 0.791371 0
M  V30 4369 C 433.021 1.16661 1.08914 0
M  V30 4370 C 433.221 -0.0106266 2.01497 0
M  V30 4371 O 432.277 -0.676596 2.43266 0
M  V30 4372 C 433.59 2.47656 1.70549 0
M  V30 4373 C 435.138 2.54002 1.82899 0
M  V30 4374 C 435.613 3.85078 2.47949 0
M  V30 4375 N 437.104 3.86413 2.5542 0
M  V30 4376 C 437.839 4.84572 3.06557 0
M  V30 4377 N 437.335 5.93124 3.58016 0
M  V30 4378 N 439.128 4.71994 3.05251 0
M  V30 4379 H 431.279 2.11668 0.176238 0
M  V30 4380 H 433.542 0.937486 0.140796 0
M  V30 4381 H 433.248 3.34059 1.09989 0
M  V30 4382 H 433.122 2.63319 2.70079 0
M  V30 4383 H 435.509 1.68018 2.42598 0
M  V30 4384 H 435.59 2.42239 0.821808 0
M  V30 4385 H 435.234 4.71467 1.88895 0
M  V30 4386 H 435.164 3.94135 3.49235 0
M  V30 4387 H 437.655 3.07988 2.18979 0
M  V30 4388 H 437.968 6.63999 3.95381 0
M  V30 4389 H 436.313 5.96796 3.56173 0
M  V30 4390 H 439.504 3.86321 2.64336 0
M  V30 4391 H 439.677 5.48653 3.44796 0
M  V30 4392 N 433.083 -1.0153 1.20538 0
M  V30 4393 C 434.494 -1.56598 1.01657 0
M  V30 4394 C 434.845 -1.91505 -0.426668 0
M  V30 4395 O 433.97 -1.72375 -1.30827 0
M  V30 4396 C 434.565 -2.84542 1.83905 0
M  V30 4397 C 433.124 -3.36133 1.69386 0
M  V30 4398 C 432.271 -2.09427 1.81757 0
M  V30 4399 H 435.222 -0.838974 1.34711 0
M  V30 4400 H 435.243 -3.56004 1.34319 0
M  V30 4401 H 434.755 -2.59105 2.8894 0
M  V30 4402 H 432.856 -3.66528 0.669933 0
M  V30 4403 H 432.969 -4.08248 2.50739 0
M  V30 4404 H 431.333 -2.21941 1.24957 0
M  V30 4405 H 432.116 -1.86414 2.88279 0
M  V30 4406 N 434.561 -1.01147 -1.20859 0
M  V30 4407 C 435.491 -0.597663 -2.25722 0
M  V30 4408 C 436.472 0.384744 -1.65692 0
M  V30 4409 O 437.657 0.271303 -1.92296 0
M  V30 4410 C 434.787 0.0700149 -3.47229 0
M  V30 4411 C 433.741 -0.832843 -4.19819 0
M  V30 4412 C 433.067 -0.0312202 -5.34691 0
M  V30 4413 C 434.367 -2.1385 -4.76514 0
M  V30 4414 H 436.061 -1.47423 -2.60589 0
M  V30 4415 H 433.607 -0.710301 -1.25263 0
M  V30 4416 H 435.56 0.37103 -4.19763 0
M  V30 4417 H 434.284 0.981259 -3.11511 0
M  V30 4418 H 432.943 -1.11778 -3.49144 0
M  V30 4419 H 432.591 0.881515 -4.95215 0
M  V30 4420 H 432.291 -0.632434 -5.84187 0
M  V30 4421 H 433.815 0.26346 -6.10031 0
M  V30 4422 H 435.229 -1.9002 -5.40893 0
M  V30 4423 H 433.626 -2.69012 -5.36426 0
M  V30 4424 H 434.696 -2.80495 -3.95538 0
M  V30 4425 N 436.039 1.36541 -0.78704 0
M  V30 4426 C 437.316 1.9355 -0.282424 0
M  V30 4427 C 437.696 1.71919 1.22503 0
M  V30 4428 O 437.044 1.07677 2.01539 0
M  V30 4429 C 437.254 3.4246 -0.672462 0
M  V30 4430 C 438.602 4.19582 -0.650863 0
M  V30 4431 O 439.626 3.50889 -0.612789 0
M  V30 4432 O 438.485 5.42106 -0.691623 0
M  V30 4433 H 435.579 0.824091 -0.0693 0
M  V30 4434 H 438.125 1.45736 -0.869423 0
M  V30 4435 H 436.897 3.51851 -1.71221 0
M  V30 4436 H 436.52 3.97556 -0.0592211 0
M  V30 4437 N 437.518 0.538854 1.48102 0
M  V30 4438 C 438.795 -0.0568108 1.95517 0
M  V30 4439 C 439.175 -1.50408 1.48124 0
M  V30 4440 O 438.523 -2.17133 0.711727 0
M  V30 4441 C 438.733 0.0696262 3.48931 0
M  V30 4442 C 440.081 -0.0851202 4.24515 0
M  V30 4443 O 441.105 -0.0037347 3.562 0
M  V30 4444 O 439.964 -0.257025 5.45895 0
M  V30 4445 H 437.058 -0.0743695 0.823649 0
M  V30 4446 H 439.604 0.604081 1.58584 0
M  V30 4447 H 438.376 1.07744 3.76174 0
M  V30 4448 H 437.999 -0.629714 3.92582 0
M  V30 4449 N 438.996 -1.55193 0.274407 0
M  V30 4450 C 439.959 -2.212 -0.600279 0
M  V30 4451 C 440.959 -1.18963 -1.08187 0
M  V30 4452 O 442.149 -1.43873 -0.982158 0
M  V30 4453 C 439.281 -2.87739 -1.82809 0
M  V30 4454 H 440.474 -2.9989 -0.0239682 0
M  V30 4455 H 438.027 -1.5628 0.0250192 0
M  V30 4456 H 438.762 -2.13058 -2.44493 0
M  V30 4457 H 438.547 -3.62658 -1.49069 0
M  V30 4458 H 440.037 -3.38171 -2.45011 0
M  V30 4459 N 440.474 -0.00167713 -1.576 0
M  V30 4460 C 441.404 0.988091 -2.11563 0
M  V30 4461 C 442.385 1.35736 -1.02517 0
M  V30 4462 O 443.57 1.44082 -1.30208 0
M  V30 4463 C 440.7 2.27941 -2.62031 0
M  V30 4464 C 439.654 2.0517 -3.75619 0
M  V30 4465 C 438.98 3.4033 -4.12407 0
M  V30 4466 C 440.28 1.41294 -5.02825 0
M  V30 4467 H 441.974 0.538771 -2.94513 0
M  V30 4468 H 439.52 0.257712 -1.41675 0
M  V30 4469 H 441.473 2.97539 -2.9841 0
M  V30 4470 H 440.197 2.74989 -1.76205 0
M  V30 4471 H 438.856 1.37998 -3.39635 0
M  V30 4472 H 438.504 3.85085 -3.23603 0
M  V30 4473 H 438.204 3.25909 -4.88935 0
M  V30 4474 H 439.728 4.1124 -4.51347 0
M  V30 4475 H 441.142 2.00851 -5.36965 0
M  V30 4476 H 439.539 1.37356 -5.84169 0
M  V30 4477 H 440.609 0.382362 -4.8339 0
M  V30 4478 N 441.952 1.55251 0.271103 0
M  V30 4479 C 442.915 1.87484 1.31842 0
M  V30 4480 C 443.915 0.749545 1.42262 0
M  V30 4481 O 445.105 1.01771 1.4138 0
M  V30 4482 C 442.237 2.0818 2.69951 0
M  V30 4483 H 443.43 2.81108 1.0449 0
M  V30 4484 H 440.983 1.47771 0.509258 0
M  V30 4485 H 441.718 1.16944 3.02481 0
M  V30 4486 H 441.503 2.90114 2.63774 0
M  V30 4487 H 442.993 2.34385 3.4562 0
M  V30 4488 N 443.43 -0.535701 1.48216 0
M  V30 4489 C 444.393 -1.623 1.61838 0
M  V30 4490 C 445.393 -1.53087 0.492024 0
M  V30 4491 O 446.583 -1.5686 0.757668 0
M  V30 4492 C 443.715 -3.01907 1.58319 0
M  V30 4493 H 444.908 -1.51564 2.58783 0
M  V30 4494 H 442.461 -0.757317 1.36727 0
M  V30 4495 H 443.196 -3.18155 0.628299 0
M  V30 4496 H 442.981 -3.10003 2.40085 0
M  V30 4497 H 444.471 -3.80969 1.71033 0
M  V30 4498 N 444.908 -1.36708 -0.784132 0
M  V30 4499 C 445.838 -1.34153 -1.91116 0
M  V30 4500 C 446.819 -0.212121 -1.68772 0
M  V30 4501 O 448.004 -0.410581 -1.8981 0
M  V30 4502 C 445.134 -1.13535 -3.28218 0
M  V30 4503 C 444.088 -2.23356 -3.65097 0
M  V30 4504 C 443.414 -1.87875 -5.00607 0
M  V30 4505 C 444.714 -3.65473 -3.73131 0
M  V30 4506 H 446.408 -2.28459 -1.93512 0
M  V30 4507 H 443.954 -1.09973 -0.929618 0
M  V30 4508 H 445.907 -1.10381 -4.06687 0
M  V30 4509 H 444.631 -0.156804 -3.26223 0
M  V30 4510 H 443.29 -2.25645 -2.88929 0
M  V30 4511 H 442.938 -0.885814 -4.95139 0
M  V30 4512 H 442.638 -2.61406 -5.26252 0
M  V30 4513 H 444.162 -1.86286 -5.81489 0
M  V30 4514 H 445.576 -3.65382 -4.41779 0
M  V30 4515 H 443.973 -4.37953 -4.10265 0
M  V30 4516 H 445.043 -3.99995 -2.74102 0
M  V30 4517 N 446.386 1.0089 -1.21074 0
M  V30 4518 C 447.632 1.74866 -1.02712 0
M  V30 4519 C 447.965 1.89178 0.438787 0
M  V30 4520 O 447.24 1.42325 1.32567 0
M  V30 4521 C 447.523 3.16347 -1.72036 0
M  V30 4522 C 447.376 3.09782 -3.26121 0
M  V30 4523 C 448.695 4.15187 -1.45973 0
M  V30 4524 H 445.814 0.634736 -0.374539 0
M  V30 4525 H 448.456 1.17646 -1.49196 0
M  V30 4526 H 446.606 3.65201 -1.32517 0
M  V30 4527 H 448.278 2.68673 -3.74983 0
M  V30 4528 H 446.521 2.46982 -3.56626 0
M  V30 4529 H 447.192 4.09829 -3.6979 0
M  V30 4530 H 449.668 3.75022 -1.80272 0
M  V30 4531 H 448.544 5.12331 -1.96999 0
M  V30 4532 H 448.805 4.40386 -0.388924 0
M  V30 4533 N 447.864 1.01787 1.20321 0
M  V30 4534 C 448.827 0.593972 2.2137 0
M  V30 4535 C 449.827 -0.336553 1.57239 0
M  V30 4536 O 451.017 -0.125069 1.7375 0
M  V30 4537 C 448.149 -0.132433 3.40643 0
M  V30 4538 H 449.342 1.48791 2.60387 0
M  V30 4539 H 446.895 0.807803 1.33807 0
M  V30 4540 H 447.63 -1.04123 3.0713 0
M  V30 4541 H 447.415 0.53605 3.88418 0
M  V30 4542 H 448.905 -0.416314 4.1552 0
M  V30 4543 N 449.342 -1.36122 0.79427 0
M  V30 4544 C 450.59 -1.98718 0.368177 0
M  V30 4545 C 450.911 -1.63345 -1.06506 0
M  V30 4546 O 450.181 -0.909825 -1.73491 0
M  V30 4547 H 448.761 -0.735038 0.133146 0
M  V30 4548 H 451.423 -1.66239 1.01739 0
M  V30 4549 H 450.519 -3.08633 0.463923 0
M  V30 4550 N 450.82 -0.546701 -1.47814 0
M  V30 4551 C 452.069 -0.0166497 -2.01693 0
M  V30 4552 C 452.382 1.33721 -1.42752 0
M  V30 4553 O 453.588 1.95658 -1.8823 0
M  V30 4554 C 452.044 0.0206769 -3.59894 0
M  V30 4555 C 451.652 -1.3293 -4.27824 0
M  V30 4556 C 453.396 0.498674 -4.21561 0
M  V30 4557 C 451.303 -1.25165 -5.78003 0
M  V30 4558 H 450.233 -0.0024541 -0.753996 0
M  V30 4559 H 452.884 -0.692984 -1.69912 0
M  V30 4560 H 451.266 0.76244 -3.88591 0
M  V30 4561 H 452.44 -2.08795 -4.10781 0
M  V30 4562 H 450.755 -1.74438 -3.78101 0
M  V30 4563 H 453.352 0.575 -5.31599 0
M  V30 4564 H 453.695 1.5083 -3.88016 0
M  V30 4565 H 454.228 -0.18791 -3.97356 0
M  V30 4566 H 450.967 -2.23695 -6.1615 0
M  V30 4567 H 450.487 -0.53464 -5.97412 0
M  V30 4568 H 452.166 -0.949299 -6.39998 0
M  V30 4569 N 452.299 1.55045 -0.282633 0
M  V30 4570 C 453.262 2.21515 0.588539 0
M  V30 4571 C 454.262 1.19535 1.07554 0
M  V30 4572 O 455.452 1.44391 0.974514 0
M  V30 4573 C 452.584 2.88704 1.8128 0
M  V30 4574 H 453.777 2.99899 0.00806397 0
M  V30 4575 H 451.33 1.56265 -0.0333067 0
M  V30 4576 H 452.065 2.14352 2.43359 0
M  V30 4577 H 451.85 3.63443 1.47144 0
M  V30 4578 H 453.34 3.39465 2.43214 0
M  V30 4579 N 453.777 0.010035 1.57597 0
M  V30 4580 C 455.007 -0.682422 1.95004 0
M  V30 4581 C 455.415 -1.67278 0.884014 0
M  V30 4582 O 454.758 -1.83129 -0.144672 0
M  V30 4583 C 454.82 -1.46141 3.28456 0
M  V30 4584 C 454.484 -0.631523 4.52615 0
M  V30 4585 C 455.481 0.0850905 5.1983 0
M  V30 4586 C 453.166 -0.574539 4.99003 0
M  V30 4587 C 455.16 0.847566 6.3174 0
M  V30 4588 C 452.847 0.191655 6.10799 0
M  V30 4589 C 453.845 0.901432 6.77025 0
M  V30 4590 O 453.533 1.65511 7.86677 0
M  V30 4591 H 453.265 -0.194361 0.647456 0
M  V30 4592 H 455.819 0.060312 2.05311 0
M  V30 4593 H 454.049 -2.24885 3.14585 0
M  V30 4594 H 455.738 -2.04016 3.50902 0
M  V30 4595 H 456.504 0.0502812 4.84974 0
M  V30 4596 H 452.383 -1.11654 4.47274 0
M  V30 4597 H 455.927 1.4021 6.83364 0
M  V30 4598 H 451.824 0.228249 6.45096 0
M  V30 4599 H 452.592 1.57287 8.03245 0
M  V30 4600 N 455.255 -1.55392 -0.262866 0
M  V30 4601 C 456.218 -1.88181 -1.30846 0
M  V30 4602 C 457.218 -0.757079 -1.41862 0
M  V30 4603 O 458.408 -1.02519 -1.40838 0
M  V30 4604 C 455.54 -2.09609 -2.68844 0
M  V30 4605 H 456.733 -2.81659 -1.02997 0
M  V30 4606 H 454.286 -1.48039 -0.501414 0
M  V30 4607 H 455.021 -1.18547 -3.01856 0
M  V30 4608 H 454.806 -2.91508 -2.62231 0
M  V30 4609 H 456.296 -2.36215 -3.44372 0
M  V30 4610 N 456.733 0.527833 -1.48498 0
M  V30 4611 C 458.144 1.10975 -1.50138 0
M  V30 4612 C 458.495 1.943 -0.272378 0
M  V30 4613 O 457.62 2.07319 0.620301 0
M  V30 4614 C 458.215 2.01927 -2.72049 0
M  V30 4615 C 456.774 2.55332 -2.76554 0
M  V30 4616 C 455.921 1.32341 -2.43683 0
M  V30 4617 H 458.872 0.312986 -1.55583 0
M  V30 4618 H 458.893 2.86244 -2.50689 0
M  V30 4619 H 458.405 1.41254 -3.61481 0
M  V30 4620 H 456.506 3.19721 -1.91336 0
M  V30 4621 H 456.619 2.94319 -3.78038 0
M  V30 4622 H 454.983 1.63989 -1.94884 0
M  V30 4623 H 455.766 0.734165 -3.35358 0
M  V30 4624 N 458.211 1.37122 0.776871 0
M  V30 4625 C 459.46 1.31373 1.53049 0
M  V30 4626 C 459.773 -0.101016 1.95339 0
M  V30 4627 O 460.979 -0.280953 2.70042 0
M  V30 4628 C 459.435 2.30567 2.76346 0
M  V30 4629 C 459.043 3.77543 2.41175 0
M  V30 4630 C 460.787 2.33818 3.54301 0
M  V30 4631 C 458.694 4.68481 3.60943 0
M  V30 4632 H 457.624 0.488234 0.574581 0
M  V30 4633 H 460.275 1.62554 0.851372 0
M  V30 4634 H 458.657 1.92396 3.46121 0
M  V30 4635 H 459.831 4.24521 1.79216 0
M  V30 4636 H 458.146 3.77187 1.76405 0
M  V30 4637 H 460.743 2.98965 4.4331 0
M  V30 4638 H 461.086 1.3503 3.93793 0
M  V30 4639 H 461.619 2.7067 2.91518 0
M  V30 4640 H 458.358 5.68378 3.26537 0
M  V30 4641 H 457.878 4.2621 4.22025 0
M  V30 4642 H 459.557 4.85366 4.27819 0
M  V30 4643 N 459.689 -1.00246 1.21608 0
M  V30 4644 C 460.652 -2.07233 0.979133 0
M  V30 4645 C 461.652 -1.6072 -0.0508219 0
M  V30 4646 O 462.842 -1.73196 0.186712 0
M  V30 4647 C 459.974 -3.37546 0.477016 0
M  V30 4648 H 461.167 -2.29687 1.92831 0
M  V30 4649 H 458.72 -1.17261 1.03342 0
M  V30 4650 H 459.455 -3.20773 -0.476966 0
M  V30 4651 H 459.24 -3.72638 1.21997 0
M  V30 4652 H 460.73 -4.16285 0.331181 0
M  V30 4653 N 461.167 -1.02423 -1.1978 0
M  V30 4654 C 462.413 -0.719051 -1.89625 0
M  V30 4655 C 462.746 0.750083 -1.7913 0
M  V30 4656 O 462.021 1.54574 -1.18056 0
M  V30 4657 C 462.304 -1.16499 -3.40735 0
M  V30 4658 C 462.157 -2.695 -3.60125 0
M  V30 4659 C 463.476 -0.742166 -4.33797 0
M  V30 4660 H 460.595 -0.26269 -0.688595 0
M  V30 4661 H 463.237 -1.27333 -1.41018 0
M  V30 4662 H 461.387 -0.69341 -3.82262 0
M  V30 4663 H 463.059 -3.24569 -3.278 0
M  V30 4664 H 461.302 -3.10113 -3.03336 0
M  V30 4665 H 461.973 -2.95757 -4.66081 0
M  V30 4666 H 464.449 -1.1477 -3.99959 0
M  V30 4667 H 463.325 -1.08213 -5.38127 0
M  V30 4668 H 463.586 0.355747 -4.40666 0
M  V30 4669 N 462.645 1.35699 -0.801477 0
M  V30 4670 C 463.891 1.99208 -0.380022 0
M  V30 4671 C 464.224 1.63445 1.04878 0
M  V30 4672 O 463.499 0.895223 1.72673 0
M  V30 4673 C 463.782 3.55755 -0.557708 0
M  V30 4674 C 463.635 4.01332 -2.03107 0
M  V30 4675 C 464.954 4.40096 0.0197968 0
M  V30 4676 H 462.073 0.723667 -0.139552 0
M  V30 4677 H 464.715 1.60928 -1.01006 0
M  V30 4678 H 462.865 3.88494 -0.0213741 0
M  V30 4679 H 464.537 3.79026 -2.62939 0
M  V30 4680 H 462.78 3.52429 -2.52936 0
M  V30 4681 H 463.451 5.10234 -2.1063 0
M  V30 4682 H 465.927 4.13786 -0.438179 0
M  V30 4683 H 464.803 5.48735 -0.134477 0
M  V30 4684 H 465.064 4.2786 1.11303 0
M  V30 4685 N 464.123 0.554532 1.47522 0
M  V30 4686 C 465.073 -0.215008 2.26984 0
M  V30 4687 C 466.057 -0.88774 1.34194 0
M  V30 4688 O 467.249 -0.786489 1.58567 0
M  V30 4689 C 464.378 -1.24604 3.19889 0
M  V30 4690 C 463.464 -0.576857 4.20159 0
M  V30 4691 N 463.855 0.351541 5.04577 0
M  V30 4692 C 462.153 -0.831104 4.38188 0
M  V30 4693 C 462.854 0.739995 5.76974 0
M  V30 4694 N 461.83 0.0954407 5.43516 0
M  V30 4695 H 465.632 0.498843 2.89636 0
M  V30 4696 H 463.146 0.374279 1.58028 0
M  V30 4697 H 465.143 -1.81128 3.75498 0
M  V30 4698 H 463.803 -1.96101 2.58794 0
M  V30 4699 H 464.814 0.725556 5.12792 0
M  V30 4700 H 461.491 -1.53479 3.88266 0
M  V30 4701 H 462.881 1.50271 6.5488 0
M  V30 4702 N 465.601 -1.54893 0.290851 0
M  V30 4703 C 466.531 -2.26103 -0.583084 0
M  V30 4704 C 467.512 -1.25684 -1.14619 0
M  V30 4705 O 468.697 -1.54436 -1.17741 0
M  V30 4706 C 465.827 -2.99409 -1.75987 0
M  V30 4707 C 464.781 -4.0689 -1.32758 0
M  V30 4708 C 464.107 -4.67856 -2.58872 0
M  V30 4709 C 465.407 -5.20215 -0.46624 0
M  V30 4710 H 467.101 -2.99398 0.0108214 0
M  V30 4711 H 464.647 -1.43998 0.00664468 0
M  V30 4712 H 466.6 -3.47943 -2.37727 0
M  V30 4713 H 465.324 -2.23675 -2.37985 0
M  V30 4714 H 463.983 -3.59191 -0.733299 0
M  V30 4715 H 463.631 -3.88772 -3.19163 0
M  V30 4716 H 463.331 -5.40438 -2.30653 0
M  V30 4717 H 464.855 -5.19147 -3.21433 0
M  V30 4718 H 466.269 -5.64704 -0.989047 0
M  V30 4719 H 464.666 -5.99455 -0.27826 0
M  V30 4720 H 465.736 -4.82198 0.511173 0
M  V30 4721 N 467.08 -0.0183926 -1.57589 0
M  V30 4722 C 468.328 0.661253 -1.90976 0
M  V30 4723 C 468.649 1.73281 -0.894353 0
M  V30 4724 O 467.919 1.9579 0.0656788 0
M  V30 4725 H 466.499 0.247233 -0.704901 0
M  V30 4726 H 469.161 -0.0636639 -1.94796 0
M  V30 4727 H 468.257 1.12083 -2.9128 0
M  V30 4728 N 468.558 1.5553 0.254621 0
M  V30 4729 C 469.805 1.77 0.983736 0
M  V30 4730 C 470.133 0.58133 1.85609 0
M  V30 4731 O 469.388 -0.435621 1.9079 0
M  V30 4732 C 469.687 3.03891 1.88109 0
M  V30 4733 C 469.353 4.35597 1.16472 0
M  V30 4734 C 468.015 4.7139 0.966714 0
M  V30 4735 C 470.367 5.1705 0.656387 0
M  V30 4736 C 467.695 5.86176 0.247942 0
M  V30 4737 C 470.047 6.32581 -0.0488807 0
M  V30 4738 C 468.711 6.67 -0.258438 0
M  V30 4739 H 467.981 0.647688 0.359974 0
M  V30 4740 H 470.628 1.89802 0.254463 0
M  V30 4741 H 468.933 2.86068 2.67717 0
M  V30 4742 H 470.63 3.17701 2.44677 0
M  V30 4743 H 467.22 4.07475 1.32899 0
M  V30 4744 H 471.404 4.8986 0.796933 0
M  V30 4745 H 466.66 6.11354 0.075035 0
M  V30 4746 H 470.834 6.94942 -0.450444 0
M  V30 4747 H 468.461 7.55793 -0.817358 0
M  V30 4748 N 470.036 -0.519951 1.48776 0
M  V30 4749 C 471.313 -1.28123 1.47797 0
M  V30 4750 C 471.693 -2.10196 0.195157 0
M  V30 4751 O 471.041 -2.13167 -0.822925 0
M  V30 4752 C 471.251 -2.15413 2.74587 0
M  V30 4753 C 472.599 -2.75225 3.23321 0
M  V30 4754 O 473.623 -2.25694 2.75574 0
M  V30 4755 O 472.482 -3.65346 4.06429 0
M  V30 4756 H 469.576 -0.578793 0.590701 0
M  V30 4757 H 472.122 -0.535779 1.6102 0
M  V30 4758 H 470.894 -1.54617 3.59457 0
M  V30 4759 H 470.517 -2.97186 2.64132 0
M  V30 4760 N 471.514 -1.37532 -0.769588 0
M  V30 4761 C 472.477 -1.33292 -1.86456 0
M  V30 4762 C 473.477 -0.236537 -1.59051 0
M  V30 4763 O 474.667 -0.492511 -1.67093 0
M  V30 4764 C 471.799 -1.07118 -3.23633 0
M  V30 4765 H 472.992 -2.30692 -1.91628 0
M  V30 4766 H 470.545 -1.22593 -0.969572 0
M  V30 4767 H 471.28 -0.102578 -3.24138 0
M  V30 4768 H 471.065 -1.86479 -3.44917 0
M  V30 4769 H 472.555 -1.06806 -4.03711 0
M  V30 4770 N 472.992 0.995999 -1.22138 0
M  V30 4771 C 474.24 1.73167 -1.042 0
M  V30 4772 C 474.561 1.90329 0.42423 0
M  V30 4773 O 473.831 1.4607 1.30539 0
M  V30 4774 H 472.411 0.641593 -0.38258 0
M  V30 4775 H 475.073 1.19974 -1.53598 0
M  V30 4776 H 474.169 2.72734 -1.51731 0
M  V30 4777 N 474.47 1.03057 1.19235 0
M  V30 4778 C 475.698 0.747697 1.92917 0
M  V30 4779 C 476.113 -0.69372 1.75593 0
M  V30 4780 O 475.47 -1.47191 1.07894 0
M  V30 4781 C 475.521 1.09159 3.44625 0
M  V30 4782 O 475.242 2.47641 3.61394 0
M  V30 4783 C 476.743 0.831763 4.35427 0
M  V30 4784 H 473.963 0.273453 0.612751 0
M  V30 4785 H 476.507 1.37552 1.51327 0
M  V30 4786 H 474.662 0.508919 3.84043 0
M  V30 4787 H 475.076 2.60499 4.55237 0
M  V30 4788 H 476.55 1.12233 5.4047 0
M  V30 4789 H 477.027 -0.233769 4.38577 0
M  V30 4790 H 477.633 1.39725 4.01693 0
M  V30 4791 N 475.948 -1.35272 0.808662 0
M  V30 4792 C 476.878 -2.32315 0.234981 0
M  V30 4793 C 477.859 -1.57572 -0.64071 0
M  V30 4794 O 479.044 -1.8563 -0.570551 0
M  V30 4795 C 476.174 -3.41801 -0.615601 0
M  V30 4796 C 475.128 -4.27694 0.161767 0
M  V30 4797 C 474.454 -5.28519 -0.810649 0
M  V30 4798 C 475.754 -5.04231 1.36193 0
M  V30 4799 H 477.448 -2.80543 1.04575 0
M  V30 4800 H 474.994 -1.3488 0.504315 0
M  V30 4801 H 476.947 -4.08693 -1.02702 0
M  V30 4802 H 475.671 -2.92186 -1.45928 0
M  V30 4803 H 474.33 -3.62384 0.554382 0
M  V30 4804 H 473.978 -4.75171 -1.64988 0
M  V30 4805 H 473.678 -5.8686 -0.294822 0
M  V30 4806 H 475.202 -5.98283 -1.22023 0
M  V30 4807 H 476.616 -5.64058 1.02528 0
M  V30 4808 H 475.013 -5.72077 1.81239 0
M  V30 4809 H 476.083 -4.34753 2.14751 0
M  V30 4810 N 477.426 -0.562348 -1.47226 0
M  V30 4811 C 478.837 -0.130325 -1.86245 0
M  V30 4812 C 479.188 1.30128 -1.46838 0
M  V30 4813 O 478.313 1.97974 -0.873805 0
M  V30 4814 C 478.908 -0.229738 -3.3802 0
M  V30 4815 C 477.467 0.14728 -3.76112 0
M  V30 4816 C 476.614 -0.574971 -2.71274 0
M  V30 4817 H 479.565 -0.771773 -1.3867 0
M  V30 4818 H 479.586 0.550316 -3.76499 0
M  V30 4819 H 479.098 -1.27178 -3.66671 0
M  V30 4820 H 477.199 1.19023 -3.53078 0
M  V30 4821 H 477.312 -0.214858 -4.78618 0
M  V30 4822 H 475.676 -0.0174756 -2.54694 0
M  V30 4823 H 476.459 -1.61827 -3.02766 0
M  V30 4824 N 478.904 1.54736 -0.299062 0
M  V30 4825 C 479.867 2.22127 0.565012 0
M  V30 4826 C 480.867 1.20669 1.06281 0
M  V30 4827 O 482.057 1.45417 0.959145 0
M  V30 4828 C 479.189 2.90611 1.78208 0
M  V30 4829 H 480.382 2.99891 -0.0237448 0
M  V30 4830 H 477.935 1.5622 -0.0498788 0
M  V30 4831 H 478.67 2.16921 2.41072 0
M  V30 4832 H 478.455 3.64984 1.43281 0
M  V30 4833 H 479.945 3.42026 2.396 0
M  V30 4834 N 480.382 0.0267497 1.57577 0
M  V30 4835 C 481.793 -0.512413 1.79531 0
M  V30 4836 C 482.144 -1.72391 0.936791 0
M  V30 4837 O 481.269 -2.15903 0.146543 0
M  V30 4838 C 481.864 -0.936378 3.25603 0
M  V30 4839 C 480.423 -1.42067 3.4856 0
M  V30 4840 C 479.57 -0.384278 2.74624 0
M  V30 4841 H 482.521 0.252797 1.56674 0
M  V30 4842 H 482.542 -1.80088 3.35184 0
M  V30 4843 H 482.054 -0.0544332 3.88062 0
M  V30 4844 H 480.155 -2.32262 2.9135 0
M  V30 4845 H 480.268 -1.42968 4.57271 0
M  V30 4846 H 478.632 -0.851855 2.40032 0
M  V30 4847 H 479.415 0.489159 3.39797 0
M  V30 4848 N 481.861 -1.55662 -0.24637 0
M  V30 4849 C 483.138 -1.68272 -0.997198 0
M  V30 4850 C 483.518 -0.566785 -2.03349 0
M  V30 4851 O 482.866 0.429688 -2.24424 0
M  V30 4852 C 483.076 -3.08594 -1.63006 0
M  V30 4853 C 484.424 -3.6721 -2.13171 0
M  V30 4854 O 485.448 -3.11397 -1.72946 0
M  V30 4855 O 484.307 -4.65054 -2.87031 0
M  V30 4856 H 481.401 -0.684429 -0.464205 0
M  V30 4857 H 483.947 -1.67993 -0.240114 0
M  V30 4858 H 482.719 -3.81264 -0.880527 0
M  V30 4859 H 482.342 -3.12886 -2.45333 0
M  V30 4860 N 483.339 0.512053 -1.4905 0
M  V30 4861 C 484.587 1.26436 -1.57665 0
M  V30 4862 C 484.908 1.93255 -0.260293 0
M  V30 4863 O 484.178 1.82206 0.719564 0
M  V30 4864 H 482.758 0.469658 -0.580888 0
M  V30 4865 H 485.42 0.594398 -1.85615 0
M  V30 4866 H 484.516 2.03417 -2.36702 0
M  V30 4867 N 484.817 1.37938 0.762283 0
M  V30 4868 C 486.064 1.33668 1.52115 0
M  V30 4869 C 486.392 -0.0759538 1.94352 0
M  V30 4870 O 485.647 -1.05121 1.6507 0
M  V30 4871 C 485.946 2.23042 2.79261 0
M  V30 4872 C 485.612 3.71159 2.56031 0
M  V30 4873 C 484.274 4.11523 2.49404 0
M  V30 4874 C 486.626 4.64955 2.35513 0
M  V30 4875 C 483.954 5.43784 2.20263 0
M  V30 4876 C 486.306 5.97464 2.07894 0
M  V30 4877 C 484.97 6.36922 1.99718 0
M  V30 4878 H 484.24 0.489127 0.556629 0
M  V30 4879 H 486.887 1.70224 0.877262 0
M  V30 4880 H 485.192 1.79512 3.48256 0
M  V30 4881 H 486.889 2.17047 3.37182 0
M  V30 4882 H 483.479 3.39153 2.62056 0
M  V30 4883 H 487.663 4.34623 2.39617 0
M  V30 4884 H 482.919 5.73307 2.12435 0
M  V30 4885 H 487.093 6.6969 1.91019 0
M  V30 4886 H 484.72 7.39331 1.76902 0
M  V30 4887 N 486.295 -0.989507 1.22664 0
M  V30 4888 C 487.543 -1.72612 1.05117 0
M  V30 4889 C 487.864 -1.90552 -0.414131 0
M  V30 4890 O 487.134 -1.4676 -1.29762 0
M  V30 4891 H 485.714 -0.639555 0.385977 0
M  V30 4892 H 488.376 -1.19158 1.54232 0
M  V30 4893 H 487.472 -2.71926 1.53175 0
M  V30 4894 N 487.773 -1.03688 -1.18687 0
M  V30 4895 C 489.02 -0.73803 -1.88572 0
M  V30 4896 C 489.348 0.733973 -1.8012 0
M  V30 4897 O 488.603 1.55098 -1.19344 0
M  V30 4898 C 488.902 -1.14477 -3.3857 0
M  V30 4899 C 488.568 -2.61641 -3.67226 0
M  V30 4900 C 487.23 -3.01846 -3.74757 0
M  V30 4901 C 489.582 -3.56812 -3.79914 0
M  V30 4902 C 486.91 -4.36118 -3.92451 0
M  V30 4903 C 489.262 -4.90799 -3.99123 0
M  V30 4904 C 487.926 -5.3068 -4.04888 0
M  V30 4905 H 487.196 -0.270064 -0.690034 0
M  V30 4906 H 489.843 -1.3012 -1.40503 0
M  V30 4907 H 488.148 -0.500337 -3.88592 0
M  V30 4908 H 489.845 -0.89095 -3.90977 0
M  V30 4909 H 486.435 -2.29498 -3.61979 0
M  V30 4910 H 490.619 -3.26899 -3.73431 0
M  V30 4911 H 485.875 -4.66542 -3.95157 0
M  V30 4912 H 490.049 -5.64451 -4.07882 0
M  V30 4913 H 487.676 -6.34733 -4.18351 0
M  V30 4914 N 489.251 1.34841 -0.815825 0
M  V30 4915 C 490.181 2.32187 -0.247298 0
M  V30 4916 C 491.162 1.5791 0.632344 0
M  V30 4917 O 492.347 1.8593 0.560698 0
M  V30 4918 C 489.477 3.42122 0.597466 0
M  V30 4919 C 488.431 4.27602 -0.184446 0
M  V30 4920 C 487.757 5.28942 0.782609 0
M  V30 4921 C 489.057 5.03502 -1.38865 0
M  V30 4922 H 490.751 2.79985 -1.06061 0
M  V30 4923 H 488.297 1.34611 -0.511461 0
M  V30 4924 H 490.25 4.09232 1.00533 0
M  V30 4925 H 488.974 2.92956 1.44376 0
M  V30 4926 H 487.633 3.62085 -0.573592 0
M  V30 4927 H 487.281 4.7604 1.62466 0
M  V30 4928 H 486.981 5.87008 0.263695 0
M  V30 4929 H 488.505 5.98922 1.18848 0
M  V30 4930 H 489.919 5.63506 -1.05518 0
M  V30 4931 H 488.316 5.71108 -1.8427 0
M  V30 4932 H 489.386 4.33608 -2.17054 0
M  V30 4933 N 490.729 0.570148 1.46925 0
M  V30 4934 C 491.975 0.0510284 2.02736 0
M  V30 4935 C 492.308 -1.3006 1.44215 0
M  V30 4936 O 491.583 -1.84932 0.602521 0
M  V30 4937 C 491.866 -0.028215 3.60089 0
M  V30 4938 C 491.719 1.35142 4.29018 0
M  V30 4939 C 493.038 -0.735181 4.33916 0
M  V30 4940 H 490.157 0.0200178 0.736728 0
M  V30 4941 H 492.799 0.73493 1.75211 0
M  V30 4942 H 490.949 -0.610648 3.83671 0
M  V30 4943 H 492.621 1.97806 4.16738 0
M  V30 4944 H 490.864 1.9226 3.88868 0
M  V30 4945 H 491.535 1.24857 5.37694 0
M  V30 4946 H 494.011 -0.240519 4.15404 0
M  V30 4947 H 492.887 -0.759622 5.43618 0
M  V30 4948 H 493.148 -1.79397 4.04066 0
M  V30 4949 N 492.207 -1.54576 0.307264 0
M  V30 4950 C 493.618 -1.8579 -0.184121 0
M  V30 4951 C 493.969 -1.22914 -1.52927 0
M  V30 4952 O 493.094 -0.529126 -2.09831 0
M  V30 4953 C 493.689 -3.37081 -0.340862 0
M  V30 4954 C 492.248 -3.68304 -0.776465 0
M  V30 4955 C 491.395 -2.77076 0.111503 0
M  V30 4956 H 494.346 -1.49656 0.528078 0
M  V30 4957 H 494.367 -3.61922 -1.17443 0
M  V30 4958 H 493.879 -3.82815 0.638309 0
M  V30 4959 H 491.98 -3.28092 -1.76596 0
M  V30 4960 H 492.093 -4.75434 -0.591512 0
M  V30 4961 H 490.457 -2.51374 -0.410256 0
M  V30 4962 H 491.24 -3.25632 1.08714 0
M  V30 4963 N 493.685 -0.035106 -1.57561 0
M  V30 4964 C 494.648 0.929819 -2.09492 0
M  V30 4965 C 495.648 1.25026 -1.01119 0
M  V30 4966 O 496.838 1.18961 -1.27255 0
M  V30 4967 C 493.97 2.24457 -2.56577 0
M  V30 4968 H 495.163 0.479935 -2.96035 0
M  V30 4969 H 492.716 0.213033 -1.54841 0
M  V30 4970 H 493.451 2.74061 -1.73382 0
M  V30 4971 H 493.236 2.02508 -3.35757 0
M  V30 4972 H 494.726 2.93607 -2.96959 0
M  V30 4973 N 495.163 1.55791 0.238111 0
M  V30 4974 C 496.073 1.94196 1.31625 0
M  V30 4975 C 497.089 0.843545 1.52185 0
M  V30 4976 O 498.265 1.1457 1.65637 0
M  V30 4977 C 495.33 2.2365 2.64918 0
M  V30 4978 C 494.391 3.46971 2.52804 0
M  V30 4979 C 493.624 3.7501 3.79741 0
M  V30 4980 O 493.847 3.04982 4.82019 0
M  V30 4981 O 492.781 4.68525 3.77846 0
M  V30 4982 H 496.607 2.86044 1.02043 0
M  V30 4983 H 494.192 1.42786 0.439603 0
M  V30 4984 H 496.074 2.43863 3.4367 0
M  V30 4985 H 494.749 1.34979 2.94215 0
M  V30 4986 H 493.656 3.32055 1.72309 0
M  V30 4987 H 494.989 4.35971 2.28451 0
M  V30 4988 N 496.642 -0.504142 1.49319 0
M  V30 4989 C 497.552 -1.63248 1.68486 0
M  V30 4990 C 498.568 -1.64488 0.567432 0
M  V30 4991 O 499.744 -1.82966 0.841749 0
M  V30 4992 C 496.809 -2.99627 1.74426 0
M  V30 4993 C 495.87 -3.09039 2.97982 0
M  V30 4994 C 495.103 -4.38913 3.0363 0
M  V30 4995 O 495.326 -5.27528 2.16958 0
M  V30 4996 O 494.26 -4.53231 3.96062 0
M  V30 4997 H 498.086 -1.50008 2.64067 0
M  V30 4998 H 495.671 -0.680086 1.33023 0
M  V30 4999 H 497.553 -3.80689 1.80705 0
M  V30 5000 H 496.228 -3.13136 0.820233 0
M  V30 5001 H 495.135 -2.27177 2.97223 0
M  V30 5002 H 496.468 -3.00456 3.89855 0
M  V30 5003 N 498.12 -1.38341 -0.754957 0
M  V30 5004 C 499.052 -1.31347 -1.87831 0
M  V30 5005 C 500.065 -0.225955 -1.61224 0
M  V30 5006 O 501.254 -0.48341 -1.7183 0
M  V30 5007 C 498.354 -1.01201 -3.23437 0
M  V30 5008 C 497.527 -2.20834 -3.77559 0
M  V30 5009 C 496.586 -1.87454 -4.91678 0
M  V30 5010 O 495.612 -2.59934 -5.06382 0
M  V30 5011 N 496.814 -0.828682 -5.74555 0
M  V30 5012 H 499.579 -2.28147 -1.94342 0
M  V30 5013 H 497.14 -1.32184 -0.934828 0
M  V30 5014 H 499.132 -0.769249 -3.97322 0
M  V30 5015 H 497.702 -0.132011 -3.12321 0
M  V30 5016 H 496.922 -2.61184 -2.95256 0
M  V30 5017 H 498.21 -3.00678 -4.10451 0
M  V30 5018 H 497.608 -0.227591 -5.65242 0
M  V30 5019 H 496.165 -0.645802 -6.48593 0
M  V30 5020 N 499.598 0.982988 -1.23187 0
M  V30 5021 C 501.014 1.2487 -0.993967 0
M  V30 5022 C 501.214 1.99155 0.306498 0
M  V30 5023 O 500.27 2.30688 1.0266 0
M  V30 5024 C 501.583 2.05078 -2.19917 0
M  V30 5025 C 503.131 2.18227 -2.2438 0
M  V30 5026 C 503.606 3.01825 -3.44479 0
M  V30 5027 N 505.097 3.09411 -3.44702 0
M  V30 5028 C 505.832 3.74412 -4.34285 0
M  V30 5029 N 505.328 4.41259 -5.341 0
M  V30 5030 N 507.121 3.71273 -4.22035 0
M  V30 5031 H 499.272 0.485253 -2.06783 0
M  V30 5032 H 501.535 0.276979 -0.906635 0
M  V30 5033 H 501.241 1.57867 -3.14279 0
M  V30 5034 H 501.115 3.05829 -2.2079 0
M  V30 5035 H 503.502 2.64648 -1.30559 0
M  V30 5036 H 503.583 1.16873 -2.2754 0
M  V30 5037 H 503.227 2.56102 -4.38605 0
M  V30 5038 H 503.157 4.03342 -3.38559 0
M  V30 5039 H 505.648 2.61845 -2.7248 0
M  V30 5040 H 505.961 4.88629 -5.98717 0
M  V30 5041 H 504.306 4.39975 -5.38002 0
M  V30 5042 H 507.497 3.18217 -3.43301 0
M  V30 5043 H 507.67 4.21649 -4.92053 0
M  V30 5044 N 501.076 1.04316 1.18135 0
M  V30 5045 C 502.492 0.762858 1.40188 0
M  V30 5046 C 502.692 -0.646547 1.90846 0
M  V30 5047 O 501.748 -1.41036 2.0944 0
M  V30 5048 C 503.061 1.81106 2.40044 0
M  V30 5049 C 504.609 1.83226 2.53766 0
M  V30 5050 C 505.084 2.87044 3.56889 0
M  V30 5051 N 506.575 2.85951 3.64398 0
M  V30 5052 C 507.31 3.62932 4.43923 0
M  V30 5053 N 506.806 4.49672 5.27036 0
M  V30 5054 N 508.599 3.51411 4.38711 0
M  V30 5055 H 500.75 1.95264 0.835805 0
M  V30 5056 H 503.013 0.845017 0.429709 0
M  V30 5057 H 502.719 2.82214 2.09876 0
M  V30 5058 H 502.593 1.64529 3.39426 0
M  V30 5059 H 504.98 0.827869 2.8325 0
M  V30 5060 H 505.061 2.03879 1.54489 0
M  V30 5061 H 504.705 3.87663 3.28145 0
M  V30 5062 H 504.635 2.63645 4.5585 0
M  V30 5063 H 507.126 2.23051 3.05052 0
M  V30 5064 H 507.439 5.05116 5.84874 0
M  V30 5065 H 505.784 4.53738 5.26447 0
M  V30 5066 H 508.975 2.83047 3.72829 0
M  V30 5067 H 509.148 4.11654 5.00445 0
M  V30 5068 N 502.554 -1.34406 0.822964 0
M  V30 5069 C 503.487 -2.27407 0.190124 0
M  V30 5070 C 504.465 -1.4889 -0.653486 0
M  V30 5071 O 505.649 -1.78109 -0.617216 0
M  V30 5072 C 502.776 -3.3064 -0.734477 0
M  V30 5073 C 501.822 -4.26488 0.0316099 0
M  V30 5074 S 502.655 -5.17445 1.3788 0
M  V30 5075 C 503.811 -6.24214 0.45907 0
M  V30 5076 H 504.044 -2.80733 0.978586 0
M  V30 5077 H 501.577 -1.41455 0.618866 0
M  V30 5078 H 503.535 -3.90607 -1.26238 0
M  V30 5079 H 502.196 -2.76161 -1.49646 0
M  V30 5080 H 501.389 -4.9951 -0.671285 0
M  V30 5081 H 500.991 -3.70775 0.490066 0
M  V30 5082 H 503.283 -6.76599 -0.349357 0
M  V30 5083 H 504.226 -6.98551 1.15896 0
M  V30 5084 H 504.634 -5.6448 0.0474825 0
M  V30 5085 N 504.032 -0.577932 -1.46621 0
M  V30 5086 C 504.962 0.145917 -2.33044 0
M  V30 5087 C 505.943 0.888412 -1.45056 0
M  V30 5088 O 507.128 0.864812 -1.73881 0
M  V30 5089 C 504.258 1.16322 -3.27241 0
M  V30 5090 C 503.212 0.535868 -4.24632 0
M  V30 5091 C 502.538 1.65929 -5.08303 0
M  V30 5092 C 503.838 -0.523861 -5.19666 0
M  V30 5093 H 505.532 -0.575636 -2.93814 0
M  V30 5094 H 503.078 -0.278272 -1.41286 0
M  V30 5095 H 505.031 1.67793 -3.86553 0
M  V30 5096 H 503.755 1.91498 -2.64567 0
M  V30 5097 H 502.414 0.0422759 -3.66576 0
M  V30 5098 H 502.062 2.40061 -4.42018 0
M  V30 5099 H 501.762 1.2452 -5.74255 0
M  V30 5100 H 503.286 2.17686 -5.70478 0
M  V30 5101 H 504.7 -0.0944059 -5.73222 0
M  V30 5102 H 503.097 -0.858 -5.93935 0
M  V30 5103 H 504.167 -1.41197 -4.63887 0
M  V30 5104 N 505.51 1.54411 -0.315457 0
M  V30 5105 C 506.758 2.00023 0.288971 0
M  V30 5106 C 507.079 1.20529 1.5329 0
M  V30 5107 O 506.349 0.304986 1.93511 0
M  V30 5108 H 504.929 0.738891 0.109766 0
M  V30 5109 H 507.591 1.90094 -0.430129 0
M  V30 5110 H 506.687 3.07198 0.550999 0
M  V30 5111 N 506.988 0.0434614 1.5754 0
M  V30 5112 C 507.951 -0.918696 2.09982 0
M  V30 5113 C 508.951 -1.24488 1.01781 0
M  V30 5114 O 510.141 -1.18284 1.27885 0
M  V30 5115 C 507.273 -2.23093 2.57764 0
M  V30 5116 H 508.466 -0.464229 2.96285 0
M  V30 5117 H 506.019 -0.204818 1.54952 0
M  V30 5118 H 506.754 -2.73137 1.74832 0
M  V30 5119 H 506.539 -2.00724 3.36827 0
M  V30 5120 H 508.029 -2.92028 2.98512 0
M  V30 5121 N 508.466 -1.55915 -0.229846 0
M  V30 5122 C 509.715 -1.77742 -0.953455 0
M  V30 5123 C 510.028 -0.610524 -1.85828 0
M  V30 5124 O 511.234 -0.712219 -2.61992 0
M  V30 5125 C 509.69 -3.14738 -1.74551 0
M  V30 5126 C 509.298 -4.39126 -0.887242 0
M  V30 5127 C 511.042 -3.45895 -2.46084 0
M  V30 5128 C 508.949 -5.67149 -1.67617 0
M  V30 5129 H 507.879 -0.662648 -0.359741 0
M  V30 5130 H 510.53 -1.82322 -0.207576 0
M  V30 5131 H 508.912 -3.04311 -2.53399 0
M  V30 5132 H 510.086 -4.60588 -0.139892 0
M  V30 5133 H 508.401 -4.15427 -0.284443 0
M  V30 5134 H 510.998 -4.38767 -3.05594 0
M  V30 5135 H 511.341 -2.68007 -3.18556 0
M  V30 5136 H 511.874 -3.57614 -1.74233 0
M  V30 5137 H 508.613 -6.47906 -0.994881 0
M  V30 5138 H 508.133 -5.49763 -2.39836 0
M  V30 5139 H 509.812 -6.07025 -2.23898 0
M  V30 5140 N 509.944 0.496216 -1.49584 0
M  V30 5141 C 510.894 1.59422 -1.62999 0
M  V30 5142 C 511.878 1.53402 -0.485457 0
M  V30 5143 O 513.07 1.60851 -0.738649 0
M  V30 5144 C 510.199 2.98009 -1.70427 0
M  V30 5145 C 509.285 3.09008 -2.90473 0
M  V30 5146 N 509.676 2.89884 -4.14489 0
M  V30 5147 C 507.974 3.40115 -2.8851 0
M  V30 5148 C 508.675 3.0519 -4.95211 0
M  V30 5149 N 507.651 3.3428 -4.2867 0
M  V30 5150 H 511.453 1.43297 -2.56599 0
M  V30 5151 H 508.967 0.702443 -1.46422 0
M  V30 5152 H 510.964 3.76926 -1.78136 0
M  V30 5153 H 509.624 3.152 -0.77967 0
M  V30 5154 H 510.635 2.65963 -4.44392 0
M  V30 5155 H 507.312 3.63452 -2.05448 0
M  V30 5156 H 508.702 2.94856 -6.03746 0
M  V30 5157 N 511.423 1.38739 0.74761 0
M  V30 5158 C 512.386 1.36241 1.84312 0
M  V30 5159 C 513.386 0.261811 1.58654 0
M  V30 5160 O 514.576 0.519031 1.66288 0
M  V30 5161 C 511.708 1.12253 3.21888 0
M  V30 5162 H 512.901 2.33712 1.87933 0
M  V30 5163 H 510.454 1.2412 0.949946 0
M  V30 5164 H 511.189 0.154133 3.23934 0
M  V30 5165 H 510.974 1.91943 3.41907 0
M  V30 5166 H 512.464 1.13215 4.0196 0
M  V30 5167 N 512.901 -0.976442 1.23707 0
M  V30 5168 C 514.126 -1.75875 1.09922 0
M  V30 5169 C 514.551 -1.84911 -0.34489 0
M  V30 5170 O 513.909 -1.31363 -1.24954 0
M  V30 5171 C 513.957 -3.16179 1.73388 0
M  V30 5172 O 513.061 -4.00124 0.99871 0
M  V30 5173 H 512.402 -0.540954 0.385052 0
M  V30 5174 H 514.932 -1.22546 1.6384 0
M  V30 5175 H 514.942 -3.66741 1.78788 0
M  V30 5176 H 513.617 -3.08917 2.78466 0
M  V30 5177 H 512.194 -3.58624 1.02193 0
M  V30 5178 N 514.379 -1.04941 -1.1758 0
M  V30 5179 C 515.607 -0.778294 -1.91703 0
M  V30 5180 C 516.022 0.665697 -1.76675 0
M  V30 5181 O 515.379 1.45456 -1.10222 0
M  V30 5182 C 515.43 -1.14628 -3.42845 0
M  V30 5183 O 515.151 -2.53359 -3.57409 0
M  V30 5184 C 516.652 -0.900931 -4.34049 0
M  V30 5185 H 513.872 -0.283167 -0.608323 0
M  V30 5186 H 516.416 -1.39942 -1.49119 0
M  V30 5187 H 514.571 -0.569953 -3.83184 0
M  V30 5188 H 514.985 -2.67709 -4.51035 0
M  V30 5189 H 516.459 -1.20817 -5.38616 0
M  V30 5190 H 516.936 0.163966 -4.38894 0
M  V30 5191 H 517.542 -1.46097 -3.99419 0
M  V30 5192 N 515.857 1.33968 -0.830081 0
M  V30 5193 C 517.085 2.0228 -0.434773 0
M  V30 5194 C 517.5 1.62487 0.961419 0
M  V30 5195 O 516.857 0.833849 1.62337 0
M  V30 5196 C 516.908 3.5751 -0.535625 0
M  V30 5197 O 516.629 3.95864 -1.87679 0
M  V30 5198 C 518.13 4.43091 -0.136137 0
M  V30 5199 H 515.35 0.648151 -0.173613 0
M  V30 5200 H 517.894 1.71089 -1.12022 0
M  V30 5201 H 516.049 3.87266 0.101817 0
M  V30 5202 H 516.463 4.9056 -1.85609 0
M  V30 5203 H 517.937 5.51398 -0.257772 0
M  V30 5204 H 518.414 4.29433 0.921076 0
M  V30 5205 H 519.02 4.18677 -0.747662 0
M  V30 5206 N 517.335 0.585699 1.46312 0
M  V30 5207 C 518.582 0.0724211 2.0237 0
M  V30 5208 C 518.91 -1.28868 1.45683 0
M  V30 5209 O 518.165 -1.85853 0.612945 0
M  V30 5210 C 518.464 -0.0401312 3.57377 0
M  V30 5211 C 518.13 1.25376 4.33119 0
M  V30 5212 C 516.792 1.60824 4.5353 0
M  V30 5213 C 519.144 2.10987 4.76586 0
M  V30 5214 C 516.472 2.81676 5.14661 0
M  V30 5215 C 518.824 3.31068 5.39052 0
M  V30 5216 C 517.488 3.66794 5.5769 0
M  V30 5217 H 516.758 0.0265007 0.740526 0
M  V30 5218 H 519.405 0.762935 1.75646 0
M  V30 5219 H 517.71 -0.813791 3.83255 0
M  V30 5220 H 519.407 -0.453078 3.98432 0
M  V30 5221 H 515.997 0.967808 4.1753 0
M  V30 5222 H 520.181 1.84904 4.60569 0
M  V30 5223 H 515.437 3.0949 5.27282 0
M  V30 5224 H 519.611 3.97672 5.71691 0
M  V30 5225 H 517.238 4.60529 6.04828 0
M  V30 5226 N 518.813 -1.54241 0.323641 0
M  V30 5227 C 520.224 -1.85975 -0.164405 0
M  V30 5228 C 520.575 -1.24529 -1.51615 0
M  V30 5229 O 519.7 -0.551351 -2.09258 0
M  V30 5230 C 520.295 -3.37424 -0.305091 0
M  V30 5231 C 518.854 -3.69107 -0.737358 0
M  V30 5232 C 518.001 -2.76942 0.140884 0
M  V30 5233 H 520.952 -1.49088 0.543922 0
M  V30 5234 H 520.973 -3.63147 -1.13598 0
M  V30 5235 H 520.485 -3.82116 0.678876 0
M  V30 5236 H 518.586 -3.29947 -1.73107 0
M  V30 5237 H 518.699 -4.76035 -0.541053 0
M  V30 5238 H 517.063 -2.51795 -0.383572 0
M  V30 5239 H 517.846 -3.24461 1.12162 0
M  V30 5240 N 520.291 -0.0518155 -1.57515 0
M  V30 5241 C 521.538 0.621823 -1.92716 0
M  V30 5242 C 521.866 1.70813 -0.930229 0
M  V30 5243 O 521.121 1.95616 0.0573708 0
M  V30 5244 C 521.42 1.25607 -3.34601 0
M  V30 5245 C 521.086 0.297901 -4.49915 0
M  V30 5246 C 519.748 0.034243 -4.81188 0
M  V30 5247 C 522.1 -0.358738 -5.19964 0
M  V30 5248 C 519.428 -0.893479 -5.79857 0
M  V30 5249 C 521.78 -1.27466 -6.19625 0
M  V30 5250 C 520.444 -1.54698 -6.49326 0
M  V30 5251 H 519.714 0.227541 -0.705199 0
M  V30 5252 H 522.361 -0.118432 -1.91133 0
M  V30 5253 H 520.666 2.07161 -3.32553 0
M  V30 5254 H 522.363 1.78424 -3.59118 0
M  V30 5255 H 518.953 0.513581 -4.25512 0
M  V30 5256 H 523.137 -0.168133 -4.96015 0
M  V30 5257 H 518.393 -1.11193 -6.01204 0
M  V30 5258 H 522.567 -1.78953 -6.73015 0
M  V30 5259 H 520.194 -2.26748 -7.25596 0
M  V30 5260 N 521.769 1.56035 0.221574 0
M  V30 5261 C 523.185 1.49026 0.571271 0
M  V30 5262 C 523.385 0.746912 1.87146 0
M  V30 5263 O 522.441 0.286566 2.50869 0
M  V30 5264 C 523.754 2.93579 0.650522 0
M  V30 5265 C 525.302 3.04099 0.741151 0
M  V30 5266 C 525.777 4.5001 0.851747 0
M  V30 5267 N 527.268 4.54053 0.915968 0
M  V30 5268 C 528.003 5.64232 1.02125 0
M  V30 5269 N 527.499 6.84164 1.09049 0
M  V30 5270 N 529.292 5.52084 1.05639 0
M  V30 5271 H 521.443 2.02791 -0.63162 0
M  V30 5272 H 523.706 0.921736 -0.221602 0
M  V30 5273 H 523.412 3.50912 -0.235253 0
M  V30 5274 H 523.286 3.45476 1.51413 0
M  V30 5275 H 525.673 2.4683 1.61737 0
M  V30 5276 H 525.754 2.55371 -0.148128 0
M  V30 5277 H 525.398 5.07896 -0.0200117 0
M  V30 5278 H 525.328 4.96444 1.75644 0
M  V30 5279 H 527.819 3.67683 0.872782 0
M  V30 5280 H 528.132 7.63883 1.1706 0
M  V30 5281 H 526.477 6.86875 1.05962 0
M  V30 5282 H 529.668 4.57317 0.998953 0
M  V30 5283 H 529.841 6.37983 1.13498 0
M  V30 5284 N 523.247 -0.488276 1.49845 0
M  V30 5285 C 524.21 -1.57069 1.66919 0
M  V30 5286 C 525.21 -1.51445 0.540479 0
M  V30 5287 O 526.4 -1.5437 0.807188 0
M  V30 5288 C 523.532 -2.96718 1.67844 0
M  V30 5289 H 524.725 -1.43254 2.63474 0
M  V30 5290 H 522.278 -0.713435 1.39068 0
M  V30 5291 H 523.013 -3.15996 0.7292 0
M  V30 5292 H 522.798 -3.02208 2.49826 0
M  V30 5293 H 524.288 -3.75335 1.83066 0
M  V30 5294 N 524.725 -1.39134 -0.740242 0
M  V30 5295 C 525.635 -1.39697 -1.88473 0
M  V30 5296 C 526.651 -0.292403 -1.71526 0
M  V30 5297 O 527.827 -0.533021 -1.94219 0
M  V30 5298 C 524.892 -1.23382 -3.24003 0
M  V30 5299 C 523.953 -2.43763 -3.53381 0
M  V30 5300 C 523.186 -2.28216 -4.82445 0
M  V30 5301 O 523.409 -1.28288 -5.55786 0
M  V30 5302 O 522.343 -3.1709 -5.11603 0
M  V30 5303 H 526.169 -2.36159 -1.90952 0
M  V30 5304 H 523.754 -1.20194 -0.887346 0
M  V30 5305 H 525.636 -1.16395 -4.05006 0
M  V30 5306 H 524.311 -0.300121 -3.22306 0
M  V30 5307 H 523.218 -2.56325 -2.72485 0
M  V30 5308 H 524.551 -3.35808 -3.59852 0
M  V30 5309 N 526.204 0.969867 -1.24223 0
M  V30 5310 C 527.452 1.70918 -1.0785 0
M  V30 5311 C 527.773 1.91186 0.383763 0
M  V30 5312 O 527.043 1.48806 1.27411 0
M  V30 5313 H 525.623 0.633334 -0.396103 0
M  V30 5314 H 528.285 1.16689 -1.56108 0
M  V30 5315 H 527.381 2.69455 -1.57482 0
M  V30 5316 N 527.682 1.05563 1.17022 0
M  V30 5317 C 528.93 0.76642 1.87004 0
M  V30 5318 C 529.251 -0.708854 1.8166 0
M  V30 5319 O 528.521 -1.51242 1.2451 0
M  V30 5320 H 527.101 0.280516 0.692329 0
M  V30 5321 H 529.763 1.33557 1.41945 0
M  V30 5322 H 528.859 1.08472 2.92644 0
M  V30 5323 N 529.16 -1.33526 0.837174 0
M  V30 5324 C 530.576 -1.50727 0.524743 0
M  V30 5325 C 530.776 -1.77792 -0.948279 0
M  V30 5326 O 529.832 -1.83719 -1.73216 0
M  V30 5327 C 531.145 -2.66299 1.39661 0
M  V30 5328 C 532.693 -2.80183 1.39521 0
M  V30 5329 C 533.168 -3.98815 2.25189 0
M  V30 5330 N 534.659 -4.06047 2.2289 0
M  V30 5331 C 535.394 -4.97032 2.85915 0
M  V30 5332 N 534.89 -5.93143 3.57985 0
M  V30 5333 N 536.683 -4.90015 2.75394 0
M  V30 5334 H 528.834 -1.1422 1.79074 0
M  V30 5335 H 531.097 -0.561399 0.763894 0
M  V30 5336 H 530.803 -2.52974 2.4433 0
M  V30 5337 H 530.677 -3.61663 1.07145 0
M  V30 5338 H 533.064 -2.92942 0.356253 0
M  V30 5339 H 533.145 -1.85586 1.76044 0
M  V30 5340 H 532.789 -3.86817 3.29143 0
M  V30 5341 H 532.719 -4.92654 1.86009 0
M  V30 5342 H 535.21 -3.37262 1.70478 0
M  V30 5343 H 535.523 -6.59227 4.03286 0
M  V30 5344 H 533.868 -5.93223 3.62093 0
M  V30 5345 H 537.059 -4.13894 2.18654 0
M  V30 5346 H 537.232 -5.60724 3.24796 0
M  V30 5347 N 530.638 -0.59345 -1.46 0
M  V30 5348 C 531.884 -0.0832754 -2.02629 0
M  V30 5349 C 532.217 1.27749 -1.46266 0
M  V30 5350 O 531.492 1.8395 -0.631866 0
M  V30 5351 C 531.775 -0.0290756 -3.60088 0
M  V30 5352 C 531.628 -1.41951 -4.26814 0
M  V30 5353 C 532.947 0.666055 -4.35031 0
M  V30 5354 H 530.066 -0.031736 -0.736316 0
M  V30 5355 H 532.708 -0.762711 -1.74019 0
M  V30 5356 H 530.858 0.549532 -3.84594 0
M  V30 5357 H 532.53 -2.04411 -4.13538 0
M  V30 5358 H 530.773 -1.98422 -3.8576 0
M  V30 5359 H 531.444 -1.33395 -5.3564 0
M  V30 5360 H 533.92 0.174401 -4.15734 0
M  V30 5361 H 532.796 0.673041 -5.44758 0
M  V30 5362 H 533.057 1.72946 -4.06869 0
M  V30 5363 N 532.116 1.54067 -0.331816 0
M  V30 5364 C 533.046 2.27569 0.522932 0
M  V30 5365 C 534.027 1.28679 1.11247 0
M  V30 5366 O 535.212 1.57504 1.13605 0
M  V30 5367 C 532.342 3.0397 1.67987 0
M  V30 5368 C 531.296 4.10267 1.21924 0
M  V30 5369 C 530.622 4.74555 2.46377 0
M  V30 5370 C 531.922 5.21268 0.32815 0
M  V30 5371 H 533.616 2.99264 -0.0901977 0
M  V30 5372 H 531.162 1.4393 -0.044821 0
M  V30 5373 H 533.115 3.54123 2.28418 0
M  V30 5374 H 531.839 2.29906 2.31971 0
M  V30 5375 H 530.498 3.61009 0.637809 0
M  V30 5376 H 530.146 3.97098 3.08743 0
M  V30 5377 H 529.846 5.46363 2.16243 0
M  V30 5378 H 531.37 5.27487 3.07555 0
M  V30 5379 H 532.784 5.67128 0.838978 0
M  V30 5380 H 531.181 5.99982 0.119228 0
M  V30 5381 H 532.251 4.80673 -0.638839 0
M  V30 5382 N 533.594 0.0601682 1.57485 0
M  V30 5383 C 534.824 -0.620037 1.97076 0
M  V30 5384 C 535.232 -1.64381 0.936784 0
M  V30 5385 O 534.575 -1.83497 -0.0863377 0
M  V30 5386 C 534.637 -1.35617 3.32939 0
M  V30 5387 C 534.301 -0.487208 4.54396 0
M  V30 5388 C 535.298 0.250428 5.19297 0
M  V30 5389 C 532.983 -0.415494 5.00579 0
M  V30 5390 C 534.977 1.04812 6.28723 0
M  V30 5391 C 532.664 0.385879 6.0988 0
M  V30 5392 C 533.662 1.11637 6.73815 0
M  V30 5393 O 533.35 1.90454 7.81014 0
M  V30 5394 H 533.082 -0.173664 0.653312 0
M  V30 5395 H 535.636 0.1256 2.05016 0
M  V30 5396 H 533.866 -2.14763 3.2158 0
M  V30 5397 H 535.555 -1.92749 3.57215 0
M  V30 5398 H 536.321 0.204546 4.84568 0
M  V30 5399 H 532.2 -0.973679 4.506 0
M  V30 5400 H 535.744 1.6188 6.78558 0
M  V30 5401 H 531.641 0.433366 6.44044 0
M  V30 5402 H 532.409 1.82762 7.97835 0
M  V30 5403 N 535.072 -1.5615 -0.213296 0
M  V30 5404 C 536.297 -1.83986 -0.957282 0
M  V30 5405 C 536.722 -0.641526 -1.76822 0
M  V30 5406 O 536.08 0.409722 -1.7661 0
M  V30 5407 C 536.128 -3.09889 -1.84393 0
M  V30 5408 O 535.232 -2.89163 -2.94038 0
M  V30 5409 H 534.573 -0.606357 -0.270605 0
M  V30 5410 H 537.103 -2.03369 -0.224111 0
M  V30 5411 H 537.113 -3.40209 -2.25215 0
M  V30 5412 H 535.788 -3.96735 -1.24795 0
M  V30 5413 H 534.365 -2.70097 -2.57103 0
M  V30 5414 N 536.55 0.480323 -1.50102 0
M  V30 5415 C 537.79 1.24301 -1.62261 0
M  V30 5416 C 538.154 1.89452 -0.311758 0
M  V30 5417 O 539.355 2.67022 -0.308696 0
M  V30 5418 C 537.626 2.26588 -2.76392 0
M  V30 5419 S 539.185 3.11919 -3.08629 0
M  V30 5420 H 536.003 0.42215 -0.57211 0
M  V30 5421 H 538.605 0.541591 -1.87848 0
M  V30 5422 H 537.309 1.7729 -3.70131 0
M  V30 5423 H 536.84 3.01371 -2.52862 0
M  V30 5424 H 538.855 4.27598 -2.51742 0
M  V30 5425 N 538.028 1.39524 0.732853 0
M  V30 5426 C 538.961 1.32806 1.85574 0
M  V30 5427 C 539.939 0.201354 1.61348 0
M  V30 5428 O 541.123 0.38216 1.84585 0
M  V30 5429 C 538.25 1.06271 3.21596 0
M  V30 5430 C 537.296 2.21161 3.64678 0
M  V30 5431 S 538.129 3.83454 3.73796 0
M  V30 5432 C 539.285 3.59149 5.12604 0
M  V30 5433 H 539.518 2.27838 1.9099 0
M  V30 5434 H 537.051 1.25605 0.897927 0
M  V30 5435 H 539.009 0.916461 4.00139 0
M  V30 5436 H 537.67 0.129223 3.13834 0
M  V30 5437 H 536.863 1.98193 4.63396 0
M  V30 5438 H 536.465 2.32 2.93346 0
M  V30 5439 H 538.757 3.16547 5.99003 0
M  V30 5440 H 539.7 4.57335 5.40602 0
M  V30 5441 H 540.108 2.93203 4.82382 0
M  V30 5442 N 539.506 -0.963266 1.24736 0
M  V30 5443 C 540.752 -1.70933 1.09131 0
M  V30 5444 C 541.085 -1.90676 -0.368273 0
M  V30 5445 O 540.36 -1.47147 -1.27193 0
M  V30 5446 C 540.643 -3.09744 1.83658 0
M  V30 5447 C 540.496 -2.97465 3.37394 0
M  V30 5448 C 541.815 -4.09483 1.61282 0
M  V30 5449 H 538.934 -0.620398 0.397838 0
M  V30 5450 H 541.576 -1.12028 1.53459 0
M  V30 5451 H 539.726 -3.60031 1.4598 0
M  V30 5452 H 541.398 -2.54571 3.84696 0
M  V30 5453 H 539.641 -2.33576 3.65547 0
M  V30 5454 H 540.312 -3.95822 3.84745 0
M  V30 5455 H 542.788 -3.68073 1.94066 0
M  V30 5456 H 541.664 -5.04666 2.15878 0
M  V30 5457 H 541.925 -4.38639 0.552102 0
M  V30 5458 N 540.985 -1.06182 -1.16461 0
M  V30 5459 C 542.233 -0.776326 -1.86595 0
M  V30 5460 C 542.554 0.69921 -1.82033 0
M  V30 5461 O 541.824 1.50579 -1.2531 0
M  V30 5462 H 540.404 -0.284184 -0.690832 0
M  V30 5463 H 543.066 -1.34308 -1.41235 0
M  V30 5464 H 542.162 -1.10022 -2.92064 0
M  V30 5465 N 542.463 1.3308 -0.844243 0
M  V30 5466 C 543.711 1.97215 -0.441676 0
M  V30 5467 C 544.032 1.67185 1.0037 0
M  V30 5468 O 543.302 0.973588 1.69994 0
M  V30 5469 H 541.882 0.72959 -0.160335 0
M  V30 5470 H 544.544 1.62348 -1.07838 0
M  V30 5471 H 543.64 3.06698 -0.57815 0
M  V30 5472 N 543.941 0.601185 1.45683 0
M  V30 5473 C 544.904 -0.111398 2.28929 0
M  V30 5474 C 545.904 -0.801246 1.39416 0
M  V30 5475 O 547.094 -0.650383 1.61603 0
M  V30 5476 C 544.226 -1.16773 3.20276 0
M  V30 5477 H 545.419 0.620412 2.93413 0
M  V30 5478 H 542.972 0.359946 1.52099 0
M  V30 5479 H 543.707 -1.93051 2.60579 0
M  V30 5480 H 543.492 -0.677358 3.86205 0
M  V30 5481 H 544.982 -1.66698 3.82886 0
M  V30 5482 N 545.419 -1.53889 0.339982 0
M  V30 5483 C 546.835 -1.59595 -0.0120752 0
M  V30 5484 C 547.035 -1.35605 -1.49042 0
M  V30 5485 O 546.091 -1.14856 -2.24865 0
M  V30 5486 C 547.404 -2.9774 0.420898 0
M  V30 5487 C 548.952 -3.1077 0.37294 0
M  V30 5488 C 549.427 -4.51286 0.781327 0
M  V30 5489 N 550.918 -4.57325 0.735374 0
M  V30 5490 C 551.653 -5.64194 1.02336 0
M  V30 5491 N 551.149 -6.7893 1.37933 0
M  V30 5492 N 552.942 -5.54051 0.947838 0
M  V30 5493 H 545.093 -1.67738 1.30299 0
M  V30 5494 H 547.356 -0.785385 0.530918 0
M  V30 5495 H 547.062 -3.20349 1.45152 0
M  V30 5496 H 546.936 -3.76639 -0.205721 0
M  V30 5497 H 549.323 -2.87886 -0.648505 0
M  V30 5498 H 549.404 -2.33939 1.03472 0
M  V30 5499 H 549.048 -4.74905 1.80077 0
M  V30 5500 H 548.978 -5.26511 0.0970679 0
M  V30 5501 H 551.469 -3.74931 0.472773 0
M  V30 5502 H 551.782 -7.56392 1.58402 0
M  V30 5503 H 550.127 -6.80386 1.41774 0
M  V30 5504 H 553.318 -4.63293 0.669115 0
M  V30 5505 H 553.491 -6.37246 1.17563 0
M  V30 5506 N 546.897 -0.0685191 -1.57451 0
M  V30 5507 C 547.829 0.929372 -2.09512 0
M  V30 5508 C 548.842 1.26354 -1.02657 0
M  V30 5509 O 550.031 1.2213 -1.30179 0
M  V30 5510 C 547.131 2.24612 -2.53777 0
M  V30 5511 C 546.304 2.09128 -3.84167 0
M  V30 5512 C 545.363 3.24079 -4.14559 0
M  V30 5513 O 544.389 2.99215 -4.8421 0
M  V30 5514 N 545.591 4.49077 -3.67845 0
M  V30 5515 H 548.356 0.484901 -2.95751 0
M  V30 5516 H 545.917 0.11729 -1.61475 0
M  V30 5517 H 547.909 3.00412 -2.71172 0
M  V30 5518 H 546.479 2.60569 -1.72692 0
M  V30 5519 H 545.699 1.17815 -3.76182 0
M  V30 5520 H 546.987 1.9603 -4.69521 0
M  V30 5521 H 546.385 4.72165 -3.11571 0
M  V30 5522 H 544.942 5.21915 -3.90446 0
M  V30 5523 N 548.375 1.56261 0.205012 0
M  V30 5524 C 549.786 1.70056 0.770574 0
M  V30 5525 C 550.137 0.673398 1.84282 0
M  V30 5526 O 549.262 -0.172196 2.15714 0
M  V30 5527 C 549.857 3.08316 1.40451 0
M  V30 5528 C 548.416 3.2391 1.91727 0
M  V30 5529 C 547.563 2.66001 0.783516 0
M  V30 5530 H 550.514 1.58688 -0.019911 0
M  V30 5531 H 550.535 3.05094 2.27371 0
M  V30 5532 H 550.047 3.83053 0.623882 0
M  V30 5533 H 548.148 2.54072 2.7254 0
M  V30 5534 H 548.261 4.3131 2.08588 0
M  V30 5535 H 546.625 2.24915 1.19521 0
M  V30 5536 H 547.408 3.43297 0.0152883 0
M  V30 5537 N 549.853 -0.472356 1.50355 0
M  V30 5538 C 551.101 -1.22211 1.60962 0
M  V30 5539 C 551.422 -1.92497 0.311439 0
M  V30 5540 O 550.692 -1.8405 -0.671002 0
M  V30 5541 H 549.272 -0.454092 0.593135 0
M  V30 5542 H 551.934 -0.544977 1.87126 0
M  V30 5543 H 551.03 -1.9707 2.42012 0
M  V30 5544 N 551.331 -1.39911 -0.725443 0
M  V30 5545 C 552.261 -1.42138 -1.85254 0
M  V30 5546 C 553.242 -0.283513 -1.67721 0
M  V30 5547 O 554.427 -0.490717 -1.87898 0
M  V30 5548 C 551.557 -1.27354 -3.23107 0
M  V30 5549 C 550.511 -2.3864 -3.55296 0
M  V30 5550 C 549.837 -2.08939 -4.92188 0
M  V30 5551 C 551.137 -3.8097 -3.57295 0
M  V30 5552 H 552.831 -2.36461 -1.83648 0
M  V30 5553 H 550.377 -1.13817 -0.882138 0
M  V30 5554 H 552.33 -1.2753 -4.01639 0
M  V30 5555 H 551.054 -0.295025 -3.25265 0
M  V30 5556 H 549.713 -2.37696 -2.79099 0
M  V30 5557 H 549.361 -1.09502 -4.90936 0
M  V30 5558 H 549.061 -2.83491 -5.14691 0
M  V30 5559 H 550.585 -2.10781 -5.73065 0
M  V30 5560 H 551.999 -3.8379 -4.25885 0
M  V30 5561 H 550.396 -4.5496 -3.9132 0
M  V30 5562 H 551.466 -4.11261 -2.5689 0
M  V30 5563 N 552.809 0.956637 -1.25245 0
M  V30 5564 C 554.055 1.70352 -1.10036 0
M  V30 5565 C 554.388 1.90869 0.358156 0
M  V30 5566 O 553.663 1.47819 1.26411 0
M  V30 5567 C 553.946 3.08766 -1.85298 0
M  V30 5568 C 553.799 2.95672 -3.38966 0
M  V30 5569 C 555.118 4.08622 -1.63451 0
M  V30 5570 H 552.237 0.618279 -0.401123 0
M  V30 5571 H 554.879 1.11212 -1.54051 0
M  V30 5572 H 553.029 3.59252 -1.47887 0
M  V30 5573 H 554.701 2.52527 -3.86041 0
M  V30 5574 H 552.944 2.31634 -3.6678 0
M  V30 5575 H 553.615 3.93776 -3.86839 0
M  V30 5576 H 556.091 3.67038 -1.96015 0
M  V30 5577 H 554.967 5.03514 -2.18551 0
M  V30 5578 H 555.228 4.3834 -0.575357 0
M  V30 5579 N 554.287 1.06798 1.15896 0
M  V30 5580 C 555.197 0.694564 2.24083 0
M  V30 5581 C 556.213 -0.291687 1.71538 0
M  V30 5582 O 557.389 -0.139723 2.00915 0
M  V30 5583 C 554.454 0.0921014 3.46578 0
M  V30 5584 C 553.515 1.13087 4.14137 0
M  V30 5585 C 552.748 0.557064 5.30785 0
M  V30 5586 O 552.971 -0.628623 5.66925 0
M  V30 5587 O 551.905 1.29924 5.8771 0
M  V30 5588 H 555.731 1.59663 2.58344 0
M  V30 5589 H 553.316 0.840575 1.2351 0
M  V30 5590 H 555.198 -0.241884 4.20705 0
M  V30 5591 H 553.873 -0.78337 3.14078 0
M  V30 5592 H 552.78 1.51712 3.41957 0
M  V30 5593 H 554.113 1.97805 4.50704 0
M  V30 5594 N 555.766 -1.3263 0.851289 0
M  V30 5595 C 556.698 -2.27824 0.250757 0
M  V30 5596 C 557.711 -1.52285 -0.575598 0
M  V30 5597 O 558.9 -1.73946 -0.400638 0
M  V30 5598 C 556 -3.3232 -0.664571 0
M  V30 5599 C 555.173 -4.37221 0.125187 0
M  V30 5600 C 554.232 -5.21314 -0.715385 0
M  V30 5601 O 553.258 -5.69002 -0.150111 0
M  V30 5602 N 554.46 -5.43823 -2.03069 0
M  V30 5603 H 557.225 -2.79997 1.06873 0
M  V30 5604 H 554.786 -1.45455 0.710943 0
M  V30 5605 H 556.778 -3.85486 -1.23216 0
M  V30 5606 H 555.348 -2.80331 -1.38323 0
M  V30 5607 H 554.568 -3.84384 0.874199 0
M  V30 5608 H 555.856 -5.04399 0.667774 0
M  V30 5609 H 555.254 -5.06803 -2.51332 0
M  V30 5610 H 553.811 -5.99998 -2.54648 0
M  V30 5611 N 557.244 -0.608902 -1.45362 0
M  V30 5612 C 558.521 -0.0365378 -1.95566 0
M  V30 5613 C 558.901 1.43169 -1.55131 0
M  V30 5614 O 558.249 2.1349 -0.814513 0
M  V30 5615 C 558.459 -0.236026 -3.48201 0
M  V30 5616 C 559.807 -0.117518 -4.24437 0
M  V30 5617 O 560.831 -0.166217 -3.55812 0
M  V30 5618 O 559.69 -0.00372127 -5.465 0
M  V30 5619 H 556.784 0.0349874 -0.82626 0
M  V30 5620 H 559.33 -0.679055 -1.55521 0
M  V30 5621 H 558.102 -1.25569 -3.70605 0
M  V30 5622 H 557.725 0.441691 -3.95139 0
M  V30 5623 N 558.722 1.53707 -0.348139 0
M  V30 5624 C 559.632 2.28881 0.514857 0
M  V30 5625 C 560.648 1.34168 1.10793 0
M  V30 5626 O 561.824 1.6721 1.12262 0
M  V30 5627 C 558.889 3.05042 1.64774 0
M  V30 5628 C 557.95 4.15389 1.08398 0
M  V30 5629 C 557.183 4.87909 2.16287 0
M  V30 5630 O 557.406 4.60137 3.3709 0
M  V30 5631 O 556.34 5.74254 1.80323 0
M  V30 5632 H 560.166 3.03547 -0.0963699 0
M  V30 5633 H 557.751 1.48972 -0.113043 0
M  V30 5634 H 559.633 3.52656 2.30677 0
M  V30 5635 H 558.308 2.33228 2.24469 0
M  V30 5636 H 557.215 3.72068 0.389341 0
M  V30 5637 H 558.548 4.89318 0.531829 0
M  V30 5638 N 560.2 0.0768682 1.57412 0
M  V30 5639 C 561.477 -0.632359 1.85096 0
M  V30 5640 C 561.857 -1.87479 0.9703 0
M  V30 5641 O 561.205 -2.28469 0.0379062 0
M  V30 5642 C 561.415 -0.965174 3.35388 0
M  V30 5643 C 562.763 -1.33648 4.03018 0
M  V30 5644 O 563.787 -1.05675 3.40164 0
M  V30 5645 O 562.646 -1.85959 5.13889 0
M  V30 5646 H 559.74 -0.314574 0.764835 0
M  V30 5647 H 562.286 0.108184 1.69355 0
M  V30 5648 H 561.058 -0.0829745 3.91212 0
M  V30 5649 H 560.681 -1.76231 3.5641 0
M  V30 5650 N 561.678 -1.56367 -0.196722 0
M  V30 5651 C 562.641 -1.93561 -1.22746 0
M  V30 5652 C 563.641 -0.816566 -1.38524 0
M  V30 5653 O 564.831 -1.084 -1.36363 0
M  V30 5654 C 561.963 -2.20823 -2.59712 0
M  V30 5655 H 563.156 -2.85774 -0.909586 0
M  V30 5656 H 560.709 -1.50032 -0.438174 0
M  V30 5657 H 561.444 -1.31243 -2.96557 0
M  V30 5658 H 561.229 -3.02368 -2.49632 0
M  V30 5659 H 562.719 -2.50608 -3.34044 0
M  V30 5660 N 563.156 0.464375 -1.50603 0
M  V30 5661 C 564.086 1.56944 -1.72889 0
M  V30 5662 C 565.067 1.59979 -0.577997 0
M  V30 5663 O 566.252 1.76138 -0.817855 0
M  V30 5664 C 563.382 2.95225 -1.8292 0
M  V30 5665 C 562.336 3.07056 -2.98162 0
M  V30 5666 C 561.662 4.47051 -2.93343 0
M  V30 5667 C 562.962 2.83648 -4.38567 0
M  V30 5668 H 564.656 1.38547 -2.65415 0
M  V30 5669 H 562.202 0.665082 -1.27721 0
M  V30 5670 H 564.155 3.72467 -1.97095 0
M  V30 5671 H 562.879 3.14793 -0.870209 0
M  V30 5672 H 561.538 2.32248 -2.83648 0
M  V30 5673 H 561.186 4.63547 -1.95276 0
M  V30 5674 H 560.886 4.55902 -3.70712 0
M  V30 5675 H 562.41 5.26304 -3.09575 0
M  V30 5676 H 563.824 3.50636 -4.53572 0
M  V30 5677 H 562.221 3.03937 -5.17438 0
M  V30 5678 H 563.291 1.79451 -4.50472 0
M  V30 5679 N 564.634 1.40294 0.718013 0
M  V30 5680 C 565.597 1.4012 1.81381 0
M  V30 5681 C 566.597 0.295405 1.58063 0
M  V30 5682 O 567.787 0.554187 1.6515 0
M  V30 5683 C 564.919 1.19056 3.19435 0
M  V30 5684 H 566.112 2.37645 1.82933 0
M  V30 5685 H 563.665 1.26107 0.923405 0
M  V30 5686 H 564.4 0.222809 3.23534 0
M  V30 5687 H 564.185 1.99152 3.37758 0
M  V30 5688 H 565.675 1.21716 3.99468 0
M  V30 5689 N 566.112 -0.949982 1.2575 0
M  V30 5690 C 567.075 -2.02894 1.06615 0
M  V30 5691 C 568.075 -1.60791 0.0173905 0
M  V30 5692 O 569.265 -1.72249 0.260003 0
M  V30 5693 C 566.397 -3.35219 0.619751 0
M  V30 5694 H 567.59 -2.21302 2.02399 0
M  V30 5695 H 565.143 -1.12772 1.08223 0
M  V30 5696 H 565.878 -3.22508 -0.340486 0
M  V30 5697 H 565.663 -3.67129 1.37692 0
M  V30 5698 H 567.153 -4.14505 0.507443 0
M  V30 5699 N 567.59 -1.07411 -1.15328 0
M  V30 5700 C 568.52 -0.716472 -2.22236 0
M  V30 5701 C 569.501 0.296373 -1.67498 0
M  V30 5702 O 570.686 0.168989 -1.93463 0
M  V30 5703 C 567.816 -0.114142 -3.47112 0
M  V30 5704 C 566.77 -1.05421 -4.14814 0
M  V30 5705 C 566.096 -0.314604 -5.33774 0
M  V30 5706 C 567.396 -2.38808 -4.64508 0
M  V30 5707 H 569.09 -1.61029 -2.52408 0
M  V30 5708 H 566.636 -0.775702 -1.21321 0
M  V30 5709 H 568.589 0.148001 -4.2114 0
M  V30 5710 H 567.313 0.814755 -3.16274 0
M  V30 5711 H 565.972 -1.30128 -3.42728 0
M  V30 5712 H 565.62 0.617772 -4.99192 0
M  V30 5713 H 565.32 -0.941209 -5.80013 0
M  V30 5714 H 566.844 -0.0602747 -6.1057 0
M  V30 5715 H 568.258 -2.18424 -5.3006 0
M  V30 5716 H 566.655 -2.97069 -5.21412 0
M  V30 5717 H 567.725 -3.01067 -3.80114 0
M  V30 5718 N 569.068 1.32177 -0.85831 0
M  V30 5719 C 570.031 2.27086 -0.310588 0
M  V30 5720 C 571.031 1.51751 0.531806 0
M  V30 5721 O 572.221 1.70794 0.34279 0
M  V30 5722 C 569.353 3.36266 0.560179 0
M  V30 5723 H 570.546 2.77045 -1.1483 0
M  V30 5724 H 568.099 1.42911 -0.632942 0
M  V30 5725 H 568.834 2.9158 1.41956 0
M  V30 5726 H 568.619 3.92077 -0.0428473 0
M  V30 5727 H 570.109 4.06974 0.936056 0
M  V30 5728 N 570.547 0.616602 1.45037 0
M  V30 5729 C 571.963 0.280994 1.57107 0
M  V30 5730 C 572.163 -1.21627 1.60653 0
M  V30 5731 O 571.219 -1.9997 1.54169 0
M  V30 5732 C 572.532 0.960116 2.8496 0
M  V30 5733 C 574.08 0.936884 2.98649 0
M  V30 5734 C 574.555 1.59619 4.29285 0
M  V30 5735 N 576.046 1.5621 4.36065 0
M  V30 5736 C 576.781 2.04131 5.35834 0
M  V30 5737 N 576.277 2.60177 6.4209 0
M  V30 5738 N 578.07 1.94845 5.27249 0
M  V30 5739 H 570.221 1.58867 1.40979 0
M  V30 5740 H 572.484 0.666024 0.674623 0
M  V30 5741 H 572.19 2.01473 2.88273 0
M  V30 5742 H 572.064 0.488921 3.74018 0
M  V30 5743 H 574.451 -0.109209 2.94898 0
M  V30 5744 H 574.532 1.44643 2.10979 0
M  V30 5745 H 574.176 2.64166 4.33796 0
M  V30 5746 H 574.106 1.06159 5.15789 0
M  V30 5747 H 576.597 1.15276 3.59889 0
M  V30 5748 H 576.91 2.94513 7.1448 0
M  V30 5749 H 575.255 2.64221 6.42816 0
M  V30 5750 H 578.446 1.50792 4.43147 0
M  V30 5751 H 578.619 2.32504 6.04852 0
M  V30 5752 N 572.025 -1.5352 0.356285 0
M  V30 5753 C 572.935 -2.29151 -0.502712 0
M  V30 5754 C 573.951 -1.34753 -1.1008 0
M  V30 5755 O 575.127 -1.67803 -1.11374 0
M  V30 5756 C 572.192 -3.05911 -1.63154 0
M  V30 5757 C 571.253 -4.15958 -1.06194 0
M  V30 5758 C 570.486 -4.8905 -2.13696 0
M  V30 5759 O 570.709 -4.61919 -3.34645 0
M  V30 5760 O 569.643 -5.75202 -1.77275 0
M  V30 5761 H 573.469 -3.03492 0.112466 0
M  V30 5762 H 571.054 -1.4891 0.120942 0
M  V30 5763 H 572.936 -3.53874 -2.28804 0
M  V30 5764 H 571.611 -2.34415 -2.23229 0
M  V30 5765 H 570.518 -3.7227 -0.369603 0
M  V30 5766 H 571.851 -4.89593 -0.505872 0
M  V30 5767 N 573.503 -0.0852151 -1.57369 0
M  V30 5768 C 574.413 0.891712 -2.16992 0
M  V30 5769 C 575.429 1.3174 -1.13669 0
M  V30 5770 O 576.605 1.38735 -1.45995 0
M  V30 5771 C 573.67 2.13635 -2.73059 0
M  V30 5772 C 572.731 1.7658 -3.91303 0
M  V30 5773 C 571.964 2.95111 -4.44686 0
M  V30 5774 O 572.187 4.09539 -3.97032 0
M  V30 5775 O 571.121 2.74149 -5.35841 0
M  V30 5776 H 574.947 0.414477 -3.00858 0
M  V30 5777 H 572.532 0.138598 -1.48756 0
M  V30 5778 H 574.414 2.86595 -3.08935 0
M  V30 5779 H 573.089 2.6043 -1.92244 0
M  V30 5780 H 571.996 1.00831 -3.60255 0
M  V30 5781 H 573.329 1.34557 -4.7345 0
M  V30 5782 N 574.981 1.5647 0.188427 0
M  V30 5783 C 575.911 1.98101 1.23606 0
M  V30 5784 C 576.892 0.853961 1.47111 0
M  V30 5785 O 578.077 1.11879 1.58735 0
M  V30 5786 C 575.207 2.32624 2.57882 0
M  V30 5787 C 574.161 3.48129 2.48978 0
M  V30 5788 C 573.487 3.68347 3.87588 0
M  V30 5789 C 574.787 4.82112 2.00911 0
M  V30 5790 H 576.481 2.85864 0.890068 0
M  V30 5791 H 574.027 1.37532 0.426714 0
M  V30 5792 H 575.98 2.60343 3.3136 0
M  V30 5793 H 574.704 1.41751 2.94235 0
M  V30 5794 H 573.363 3.20511 1.77956 0
M  V30 5795 H 573.011 2.74793 4.21305 0
M  V30 5796 H 572.711 4.46055 3.82503 0
M  V30 5797 H 574.235 3.98449 4.62678 0
M  V30 5798 H 575.649 5.08819 2.64151 0
M  V30 5799 H 574.046 5.63337 2.06814 0
M  V30 5800 H 575.116 4.75249 0.96262 0
M  V30 5801 N 576.459 -0.456382 1.50847 0
M  V30 5802 C 577.406 -1.55249 1.70782 0
M  V30 5803 C 578.376 -1.56757 0.549231 0
M  V30 5804 O 579.561 -1.74061 0.7815 0
M  V30 5805 C 576.701 -2.93118 1.82143 0
M  V30 5806 C 575.814 -3.01285 3.09598 0
M  V30 5807 C 574.949 -4.30159 3.11667 0
M  V30 5808 C 573.988 -4.32124 4.33515 0
M  V30 5809 N 573.125 -5.52492 4.3324 0
M  V30 5810 H 577.965 -1.37555 2.64353 0
M  V30 5811 H 575.502 -0.668543 1.3103 0
M  V30 5812 H 577.46 -3.73088 1.86711 0
M  V30 5813 H 576.09 -3.09413 0.919978 0
M  V30 5814 H 575.142 -2.14096 3.14431 0
M  V30 5815 H 576.454 -2.98597 3.99551 0
M  V30 5816 H 575.608 -5.18489 3.15046 0
M  V30 5817 H 574.347 -4.35477 2.1957 0
M  V30 5818 H 573.352 -3.42189 4.30333 0
M  V30 5819 H 574.577 -4.28485 5.26856 0
M  V30 5820 H 572.523 -5.58567 3.44004 0
M  V30 5821 H 572.44 -5.51605 5.16979 0
M  V30 5822 H 573.708 -6.42906 4.40786 0
M  V30 5823 N 577.937 -1.40673 -0.710563 0
M  V30 5824 C 578.9 -1.4108 -1.80635 0
M  V30 5825 C 579.9 -0.303783 -1.57904 0
M  V30 5826 O 581.09 -0.562937 -1.64853 0
M  V30 5827 C 578.222 -1.20748 -3.18799 0
M  V30 5828 H 579.415 -2.38612 -1.81671 0
M  V30 5829 H 576.968 -1.26595 -0.916704 0
M  V30 5830 H 577.703 -0.239964 -3.23411 0
M  V30 5831 H 577.488 -2.00941 -3.36698 0
M  V30 5832 H 578.978 -1.23833 -3.98817 0
M  V30 5833 N 579.415 0.9433 -1.26252 0
M  V30 5834 C 580.345 2.05902 -1.10122 0
M  V30 5835 C 581.326 1.70099 -0.00700552 0
M  V30 5836 O 582.511 1.93377 -0.178641 0
M  V30 5837 C 579.641 3.39516 -0.731175 0
M  V30 5838 C 578.595 3.89372 -1.77688 0
M  V30 5839 C 577.921 5.19613 -1.26122 0
M  V30 5840 C 579.221 4.14489 -3.17799 0
M  V30 5841 H 580.915 2.19655 -2.03451 0
M  V30 5842 H 578.461 1.05548 -0.979576 0
M  V30 5843 H 580.414 4.17031 -0.605215 0
M  V30 5844 H 579.138 3.25733 0.23782 0
M  V30 5845 H 577.797 3.14036 -1.89148 0
M  V30 5846 H 577.445 5.02208 -0.282128 0
M  V30 5847 H 577.145 5.53939 -1.96023 0
M  V30 5848 H 578.669 5.99713 -1.14789 0
M  V30 5849 H 580.083 4.82625 -3.09428 0
M  V30 5850 H 578.48 4.60094 -3.85271 0
M  V30 5851 H 579.55 3.20347 -3.64014 0
M  V30 5852 N 580.893 1.08022 1.14757 0
M  V30 5853 C 581.856 0.71048 2.1791 0
M  V30 5854 C 582.856 -0.252731 1.58801 0
M  V30 5855 O 584.046 -0.0327915 1.74169 0
M  V30 5856 C 581.178 0.0483203 3.40866 0
M  V30 5857 H 582.371 1.62384 2.52134 0
M  V30 5858 H 579.924 0.877595 1.29337 0
M  V30 5859 H 580.659 -0.876959 3.12218 0
M  V30 5860 H 580.444 0.741189 3.85031 0
M  V30 5861 H 581.934 -0.195471 4.17142 0
M  V30 5862 N 582.371 -1.3172 0.865308 0
M  V30 5863 C 583.619 -1.96487 0.472995 0
M  V30 5864 C 583.94 -1.68761 -0.976975 0
M  V30 5865 O 583.21 -1.00051 -1.68424 0
M  V30 5866 H 581.79 -0.726947 0.171922 0
M  V30 5867 H 584.452 -1.60612 1.10407 0
M  V30 5868 H 583.548 -3.0574 0.62687 0
M  V30 5869 N 583.85 -0.624285 -1.44708 0
M  V30 5870 C 585.096 -0.126237 -2.02407 0
M  V30 5871 C 585.428 1.24618 -1.48943 0
M  V30 5872 O 584.704 1.82569 -0.670742 0
M  V30 5873 C 584.986 -0.105449 -3.59946 0
M  V30 5874 C 584.84 -1.50972 -4.23707 0
M  V30 5875 C 586.159 0.573629 -4.36346 0
M  V30 5876 H 583.278 -0.0473472 -0.735478 0
M  V30 5877 H 585.92 -0.799452 -1.72362 0
M  V30 5878 H 584.07 0.46783 -3.85673 0
M  V30 5879 H 585.742 -2.13136 -4.0911 0
M  V30 5880 H 583.985 -2.0656 -3.81465 0
M  V30 5881 H 584.656 -1.44727 -5.32689 0
M  V30 5882 H 587.132 0.0861787 -4.16011 0
M  V30 5883 H 586.008 0.557338 -5.46063 0
M  V30 5884 H 586.269 1.64276 -4.10446 0
M  V30 5885 N 585.328 1.53329 -0.364422 0
M  V30 5886 C 586.556 2.05657 0.226424 0
M  V30 5887 C 586.971 1.23801 1.42544 0
M  V30 5888 O 586.328 0.27839 1.80364 0
M  V30 5889 C 586.379 3.56125 0.621056 0
M  V30 5890 O 586.1 4.34879 -0.530304 0
M  V30 5891 C 587.601 4.24706 1.27041 0
M  V30 5892 H 584.821 0.669806 0.0400056 0
M  V30 5893 H 587.365 1.97714 -0.522456 0
M  V30 5894 H 585.52 3.64223 1.31985 0
M  V30 5895 H 585.934 5.24073 -0.211546 0
M  V30 5896 H 587.408 5.3131 1.49711 0
M  V30 5897 H 587.885 3.78354 2.23036 0
M  V30 5898 H 588.491 4.20858 0.613079 0
M  V30 5899 N 586.806 0.0935595 1.57322 0
M  V30 5900 C 587.769 -0.851426 2.12799 0
M  V30 5901 C 588.769 -1.21187 1.0569 0
M  V30 5902 O 589.959 -1.14156 1.31583 0
M  V30 5903 C 587.091 -2.14779 2.64731 0
M  V30 5904 H 588.284 -0.369733 2.97612 0
M  V30 5905 H 585.837 -0.155417 1.55525 0
M  V30 5906 H 586.572 -2.67437 1.83434 0
M  V30 5907 H 586.357 -1.89907 3.43042 0
M  V30 5908 H 587.847 -2.82383 3.07651 0
M  V30 5909 N 588.284 -1.56567 -0.180126 0
M  V30 5910 C 589.7 -1.50488 -0.531559 0
M  V30 5911 C 589.9 -0.796267 -1.851 0
M  V30 5912 O 588.956 -0.352978 -2.50021 0
M  V30 5913 C 590.269 -2.95201 -0.572456 0
M  V30 5914 C 591.817 -3.05957 -0.660264 0
M  V30 5915 C 592.292 -4.5211 -0.732135 0
M  V30 5916 N 593.783 -4.56322 -0.795262 0
M  V30 5917 C 594.518 -5.66742 -0.871296 0
M  V30 5918 N 594.014 -6.86815 -0.908708 0
M  V30 5919 N 595.807 -5.54691 -0.909639 0
M  V30 5920 H 587.958 -2.01045 0.685165 0
M  V30 5921 H 590.221 -0.915536 0.245962 0
M  V30 5922 H 589.927 -3.50165 0.328208 0
M  V30 5923 H 589.801 -3.49369 -1.422 0
M  V30 5924 H 592.188 -2.51032 -1.55136 0
M  V30 5925 H 592.269 -2.54888 0.215783 0
M  V30 5926 H 591.913 -5.07664 0.154664 0
M  V30 5927 H 591.843 -5.00926 -1.6242 0
M  V30 5928 H 594.334 -3.69868 -0.77499 0
M  V30 5929 H 594.647 -7.66718 -0.967654 0
M  V30 5930 H 592.992 -6.89443 -0.877132 0
M  V30 5931 H 596.183 -4.59804 -0.877353 0
M  V30 5932 H 596.356 -6.40768 -0.965434 0
M  V30 5933 N 589.762 0.448376 -1.51087 0
M  V30 5934 C 591.173 1.0286 -1.5581 0
M  V30 5935 C 591.524 1.92583 -0.374989 0
M  V30 5936 O 590.649 2.10316 0.509533 0
M  V30 5937 C 591.244 1.87223 -2.8237 0
M  V30 5938 C 589.803 2.40314 -2.897 0
M  V30 5939 C 588.95 1.19238 -2.50355 0
M  V30 5940 H 591.901 0.230075 -1.57023 0
M  V30 5941 H 591.922 2.72553 -2.6551 0
M  V30 5942 H 591.434 1.21894 -3.68461 0
M  V30 5943 H 589.535 3.09129 -2.08014 0
M  V30 5944 H 589.648 2.73866 -3.93108 0
M  V30 5945 H 588.012 1.53428 -2.03303 0
M  V30 5946 H 588.795 0.555367 -3.38778 0
M  V30 5947 N 591.24 1.41047 0.703093 0
M  V30 5948 C 592.465 1.43537 1.49706 0
M  V30 5949 C 592.89 0.0401853 1.88057 0
M  V30 5950 O 592.248 -0.954785 1.54122 0
M  V30 5951 C 592.296 2.3433 2.74084 0
M  V30 5952 O 591.4 1.79515 3.71279 0
M  V30 5953 H 590.741 0.487454 0.450871 0
M  V30 5954 H 593.271 1.85422 0.86486 0
M  V30 5955 H 593.281 2.49947 3.22476 0
M  V30 5956 H 591.956 3.35708 2.45506 0
M  V30 5957 H 590.533 1.7331 3.30179 0
M  V30 5958 N 592.718 -0.936591 1.26751 0
M  V30 5959 C 593.965 -1.68331 1.12566 0
M  V30 5960 C 594.293 -1.91677 -0.330168 0
M  V30 5961 O 593.548 -1.49859 -1.2586 0
M  V30 5962 C 593.847 -3.06099 1.84494 0
M  V30 5963 C 593.513 -3.02493 3.34378 0
M  V30 5964 C 592.175 -3.01217 3.75262 0
M  V30 5965 C 594.527 -2.94453 4.30055 0
M  V30 5966 C 591.855 -2.89672 5.10203 0
M  V30 5967 C 594.207 -2.84449 5.65041 0
M  V30 5968 C 592.871 -2.81518 6.0523 0
M  V30 5969 H 592.141 -0.615965 0.411907 0
M  V30 5970 H 594.788 -1.09292 1.5725 0
M  V30 5971 H 593.093 -3.6879 1.32292 0
M  V30 5972 H 594.79 -3.62733 1.70955 0
M  V30 5973 H 591.38 -3.04269 3.01858 0
M  V30 5974 H 595.564 -2.94544 3.99447 0
M  V30 5975 H 590.82 -2.85783 5.40498 0
M  V30 5976 H 594.994 -2.77192 6.38856 0
M  V30 5977 H 592.621 -2.72329 7.09747 0
M  V30 5978 N 594.196 -1.08629 -1.14182 0
M  V30 5979 C 595.424 -0.838889 -1.8913 0
M  V30 5980 C 595.839 0.609153 -1.78703 0
M  V30 5981 O 595.196 1.41876 -1.14794 0
M  V30 5982 C 595.247 -1.25477 -3.39025 0
M  V30 5983 O 594.968 -2.64601 -3.49167 0
M  V30 5984 C 596.469 -1.03856 -4.30963 0
M  V30 5985 H 593.689 -0.302377 -0.599007 0
M  V30 5986 H 596.233 -1.44615 -1.44592 0
M  V30 5987 H 594.388 -0.691571 -3.81177 0
M  V30 5988 H 594.802 -2.81922 -4.42289 0
M  V30 5989 H 596.276 -1.37892 -5.345 0
M  V30 5990 H 596.753 0.0242522 -4.39193 0
M  V30 5991 H 597.359 -1.58731 -3.94569 0
M  V30 5992 N 595.674 1.31259 -0.872281 0
M  V30 5993 C 597.09 1.49283 -0.564521 0
M  V30 5994 C 597.29 1.80243 0.900807 0
M  V30 5995 O 596.346 1.88246 1.68284 0
M  V30 5996 C 597.659 2.62503 -1.46673 0
M  V30 5997 C 599.207 2.76386 -1.46901 0
M  V30 5998 C 599.682 3.92705 -2.35684 0
M  V30 5999 N 601.173 3.99995 -2.33577 0
M  V30 6000 C 601.908 4.89276 -2.98992 0
M  V30 6001 N 601.404 5.83443 -3.73585 0
M  V30 6002 N 603.197 4.82541 -2.88289 0
M  V30 6003 H 595.348 1.09432 -1.82039 0
M  V30 6004 H 597.611 0.540949 -0.77851 0
M  V30 6005 H 597.317 2.46407 -2.50951 0
M  V30 6006 H 597.191 3.58695 -1.16696 0
M  V30 6007 H 599.578 2.91894 -0.433796 0
M  V30 6008 H 599.659 1.80853 -1.80903 0
M  V30 6009 H 599.303 3.77954 -3.39283 0
M  V30 6010 H 599.233 4.87549 -1.99006 0
M  V30 6011 H 601.724 3.32624 -1.7936 0
M  V30 6012 H 602.037 6.48303 -4.20622 0
M  V30 6013 H 600.382 5.83415 -3.77694 0
M  V30 6014 H 603.573 4.07951 -2.2955 0
M  V30 6015 H 603.746 5.51916 -3.39549 0
M  V30 6016 N 597.152 0.631951 1.44375 0
M  V30 6017 C 598.398 0.13697 2.02337 0
M  V30 6018 C 598.731 -1.23826 1.49602 0
M  V30 6019 O 598.006 -1.8221 0.680415 0
M  V30 6020 C 598.289 0.124536 3.59885 0
M  V30 6021 C 598.142 1.53217 4.229 0
M  V30 6022 C 599.461 -0.550481 4.36644 0
M  V30 6023 H 596.58 0.051247 0.735216 0
M  V30 6024 H 599.222 0.808581 1.71936 0
M  V30 6025 H 597.372 -0.44737 3.85916 0
M  V30 6026 H 599.044 2.15303 4.07973 0
M  V30 6027 H 597.287 2.0858 3.80364 0
M  V30 6028 H 597.958 1.4755 5.31914 0
M  V30 6029 H 600.434 -0.0641154 4.16051 0
M  V30 6030 H 599.31 -0.528371 5.46351 0
M  V30 6031 H 599.571 -1.62097 4.11311 0
M  V30 6032 N 598.631 -1.53133 0.372548 0
M  V30 6033 C 599.878 -2.01356 -0.214959 0
M  V30 6034 C 600.206 -1.2596 -1.48204 0
M  V30 6035 O 599.461 -0.343511 -1.92662 0
M  V30 6036 C 599.76 -3.53206 -0.545938 0
M  V30 6037 C 599.426 -4.46511 0.627624 0
M  V30 6038 C 598.088 -4.71737 0.949615 0
M  V30 6039 C 600.44 -5.01666 1.41353 0
M  V30 6040 C 597.768 -5.4937 2.05936 0
M  V30 6041 C 600.12 -5.80511 2.51375 0
M  V30 6042 C 598.784 -6.04022 2.84101 0
M  V30 6043 H 598.054 -0.736813 -0.078659 0
M  V30 6044 H 600.701 -1.84682 0.506447 0
M  V30 6045 H 599.006 -3.67864 -1.34845 0
M  V30 6046 H 600.703 -3.87997 -1.01287 0
M  V30 6047 H 597.293 -4.27029 0.366635 0
M  V30 6048 H 601.477 -4.82117 1.17802 0
M  V30 6049 H 596.733 -5.65803 2.31682 0
M  V30 6050 H 600.907 -6.22255 3.12684 0
M  V30 6051 H 598.534 -6.63962 3.70214 0
M  V30 6052 N 600.109 -0.101901 -1.5727 0
M  V30 6053 C 601.525 0.254739 -1.57554 0
M  V30 6054 C 601.725 1.67937 -1.11352 0
M  V30 6055 O 600.781 2.39722 -0.793081 0
M  V30 6056 C 602.094 0.036975 -3.00677 0
M  V30 6057 C 603.642 0.104199 -3.12827 0
M  V30 6058 C 604.117 -0.0856565 -4.5792 0
M  V30 6059 N 605.608 -0.0310498 -4.6319 0
M  V30 6060 C 606.343 -0.153099 -5.73196 0
M  V30 6061 N 605.839 -0.330364 -6.92012 0
M  V30 6062 N 607.632 -0.0938854 -5.62022 0
M  V30 6063 H 599.783 -1.03263 -1.85609 0
M  V30 6064 H 602.046 -0.405251 -0.857016 0
M  V30 6065 H 601.752 -0.947254 -3.38703 0
M  V30 6066 H 601.626 0.776335 -3.69124 0
M  V30 6067 H 604.013 1.07894 -2.74669 0
M  V30 6068 H 604.094 -0.666762 -2.46957 0
M  V30 6069 H 603.738 -1.05729 -4.96773 0
M  V30 6070 H 603.668 0.705082 -5.21858 0
M  V30 6071 H 606.159 0.103141 -3.77759 0
M  V30 6072 H 606.472 -0.41482 -7.71686 0
M  V30 6073 H 604.817 -0.366119 -6.94035 0
M  V30 6074 H 608.008 0.0435168 -4.6808 0
M  V30 6075 H 608.181 -0.19245 -6.47714 0
M  V30 6076 N 601.587 1.56661 0.17182 0
M  V30 6077 C 602.833 1.8313 0.88516 0
M  V30 6078 C 603.188 0.682376 1.79893 0
M  V30 6079 O 602.481 -0.321215 1.88888 0
M  V30 6080 C 602.675 3.13435 1.71736 0
M  V30 6081 C 602.504 4.40892 0.885659 0
M  V30 6082 C 601.274 5.02177 0.560939 0
M  V30 6083 C 603.472 5.13797 0.227454 0
M  V30 6084 N 601.454 6.13229 -0.286953 0
M  V30 6085 C 602.825 6.18127 -0.481625 0
M  V30 6086 C 604.88 4.97687 0.145567 0
M  V30 6087 C 603.583 7.08092 -1.26482 0
M  V30 6088 C 605.609 5.88096 -0.624298 0
M  V30 6089 C 604.971 6.91888 -1.32174 0
M  V30 6090 H 601.07 0.721107 0.302536 0
M  V30 6091 H 603.654 1.94104 0.152178 0
M  V30 6092 H 601.825 3.03653 2.42176 0
M  V30 6093 H 603.557 3.27903 2.37196 0
M  V30 6094 H 600.312 4.65145 0.890902 0
M  V30 6095 H 600.736 6.73359 -0.701193 0
M  V30 6096 H 605.378 4.17451 0.670426 0
M  V30 6097 H 603.096 7.87774 -1.80103 0
M  V30 6098 H 606.682 5.77702 -0.689321 0
M  V30 6099 H 605.562 7.60637 -1.90791 0
M  V30 6100 N 603.065 -0.440357 1.51323 0
M  V30 6101 C 604.476 -1.02032 1.56353 0
M  V30 6102 C 604.827 -1.92382 0.385197 0
M  V30 6103 O 603.952 -2.10583 -0.498373 0
M  V30 6104 C 604.547 -1.85723 2.83359 0
M  V30 6105 C 603.106 -2.38774 2.90971 0
M  V30 6106 C 602.253 -1.17908 2.50984 0
M  V30 6107 H 605.204 -0.221744 1.57143 0
M  V30 6108 H 605.225 -2.71141 2.66951 0
M  V30 6109 H 604.737 -1.19939 3.69102 0
M  V30 6110 H 602.838 -3.08021 2.09651 0
M  V30 6111 H 602.951 -2.71778 3.94555 0
M  V30 6112 H 601.315 -1.52347 2.04114 0
M  V30 6113 H 602.098 -0.537393 3.39068 0
M  V30 6114 N 604.543 -1.41418 -0.695603 0
M  V30 6115 C 605.473 -1.46035 -1.82197 0
M  V30 6116 C 606.454 -0.319025 -1.67082 0
M  V30 6117 O 607.639 -0.530462 -1.86815 0
M  V30 6118 C 604.769 -1.34179 -3.20333 0
M  V30 6119 C 603.723 -2.46123 -3.50154 0
M  V30 6120 C 603.049 -2.19332 -4.87645 0
M  V30 6121 C 604.349 -3.88463 -3.49133 0
M  V30 6122 H 606.043 -2.40303 -1.78591 0
M  V30 6123 H 603.589 -1.15663 -0.857797 0
M  V30 6124 H 605.542 -1.36021 -3.98844 0
M  V30 6125 H 604.266 -0.363952 -3.24566 0
M  V30 6126 H 602.925 -2.43563 -2.73994 0
M  V30 6127 H 602.573 -1.19891 -4.88503 0
M  V30 6128 H 602.273 -2.94344 -5.08562 0
M  V30 6129 H 603.797 -2.22889 -5.68465 0
M  V30 6130 H 605.211 -3.92738 -4.17648 0
M  V30 6131 H 603.608 -4.63158 -3.81582 0
M  V30 6132 H 604.678 -4.16617 -2.48109 0
M  V30 6133 N 606.021 0.929856 -1.27246 0
M  V30 6134 C 607.269 1.674 -1.13233 0
M  V30 6135 C 607.59 1.92311 0.322744 0
M  V30 6136 O 606.86 1.52784 1.22612 0
M  V30 6137 H 605.44 0.620411 -0.416052 0
M  V30 6138 H 608.102 1.11663 -1.59741 0
M  V30 6139 H 607.198 2.64308 -1.65975 0
M  V30 6140 N 607.499 1.09233 1.13605 0
M  V30 6141 C 608.748 0.82205 1.84188 0
M  V30 6142 C 609.061 -0.654548 1.84323 0
M  V30 6143 O 610.267 -1.04029 2.50779 0
M  V30 6144 C 608.723 1.42066 3.30674 0
M  V30 6145 C 608.331 2.92965 3.38933 0
M  V30 6146 C 610.075 1.22924 4.06313 0
M  V30 6147 C 607.982 3.45922 4.79679 0
M  V30 6148 H 606.912 0.303854 0.690064 0
M  V30 6149 H 609.563 1.31479 1.28006 0
M  V30 6150 H 607.945 0.855613 3.86646 0
M  V30 6151 H 609.119 3.55679 2.92966 0
M  V30 6152 H 607.434 3.11118 2.76757 0
M  V30 6153 H 610.031 1.59945 5.10217 0
M  V30 6154 H 610.374 0.169726 4.15954 0
M  V30 6155 H 610.907 1.76168 3.56665 0
M  V30 6156 H 607.646 4.51484 4.75229 0
M  V30 6157 H 607.166 2.87971 5.26149 0
M  V30 6158 H 608.845 3.43009 5.48592 0
M  V30 6159 N 608.977 -1.30795 0.87923 0
M  V30 6160 C 610.388 -1.78535 0.546093 0
M  V30 6161 C 610.739 -1.72354 -0.937467 0
M  V30 6162 O 609.864 -1.2969 -1.73233 0
M  V30 6163 C 610.459 -3.24181 0.9845 0
M  V30 6164 C 609.018 -3.69779 0.702871 0
M  V30 6165 C 608.165 -2.51377 1.17068 0
M  V30 6166 H 611.116 -1.17746 1.06403 0
M  V30 6167 H 611.137 -3.79227 0.311045 0
M  V30 6168 H 610.649 -3.28647 2.06429 0
M  V30 6169 H 608.75 -3.70806 -0.365166 0
M  V30 6170 H 608.863 -4.61507 1.28639 0
M  V30 6171 H 607.227 -2.47768 0.590172 0
M  V30 6172 H 608.01 -2.58584 2.25808 0
M  V30 6173 N 610.455 -0.639598 -1.44038 0
M  V30 6174 C 611.387 0.0987684 -2.28987 0
M  V30 6175 C 612.4 0.80058 -1.41755 0
M  V30 6176 O 613.589 0.660611 -1.65826 0
M  V30 6177 C 610.689 1.16242 -3.18341 0
M  V30 6178 C 609.862 0.541447 -4.34036 0
M  V30 6179 C 608.921 1.50017 -5.04362 0
M  V30 6180 O 607.947 1.01403 -5.60095 0
M  V30 6181 N 609.149 2.83441 -5.06598 0
M  V30 6182 H 611.914 -0.630305 -2.92997 0
M  V30 6183 H 609.475 -0.481376 -1.54578 0
M  V30 6184 H 611.467 1.80429 -3.62253 0
M  V30 6185 H 610.037 1.79362 -2.56024 0
M  V30 6186 H 609.257 -0.27923 -3.9321 0
M  V30 6187 H 610.545 0.107379 -5.08687 0
M  V30 6188 H 609.943 3.2551 -4.62666 0
M  V30 6189 H 608.5 3.42966 -5.54272 0
M  V30 6190 N 611.933 1.52934 -0.380664 0
M  V30 6191 C 613.163 2.05587 0.204302 0
M  V30 6192 C 613.571 1.25288 1.41773 0
M  V30 6193 O 612.914 0.290394 1.8139 0
M  V30 6194 C 612.976 3.53624 0.647324 0
M  V30 6195 C 612.64 4.54765 -0.451465 0
M  V30 6196 C 613.637 5.03226 -1.30614 0
M  V30 6197 C 611.322 4.98508 -0.616025 0
M  V30 6198 C 613.316 5.94046 -2.31058 0
M  V30 6199 C 611.003 5.89131 -1.62381 0
M  V30 6200 C 612.001 6.36792 -2.46952 0
M  V30 6201 O 611.689 7.25626 -3.46009 0
M  V30 6202 H 611.421 0.675013 0.0365198 0
M  V30 6203 H 613.975 1.98125 -0.541827 0
M  V30 6204 H 612.205 3.58676 1.44529 0
M  V30 6205 H 613.894 3.89061 1.15698 0
M  V30 6206 H 614.66 4.70167 -1.19027 0
M  V30 6207 H 610.539 4.60989 0.0324987 0
M  V30 6208 H 614.083 6.3117 -2.97104 0
M  V30 6209 H 609.98 6.21603 -1.7401 0
M  V30 6210 H 610.748 7.43664 -3.41916 0
M  V30 6211 N 613.412 0.11024 1.57214 0
M  V30 6212 C 614.36 -0.860586 2.16094 0
M  V30 6213 C 615.354 -1.28156 1.1078 0
M  V30 6214 O 616.56 -1.25433 1.29099 0
M  V30 6215 H 612.935 -0.295606 0.691463 0
M  V30 6216 H 614.906 -0.33942 2.96463 0
M  V30 6217 C 613.655 -2.10421 2.768 0
M  V30 6218 H 612.978 -1.7892 3.5753 0
M  V30 6219 H 614.418 -2.76375 3.21547 0
M  V30 6220 C 612.877 -2.88823 1.73444 0
M  V30 6221 O 613.407 -3.839 1.18251 0
M  V30 6222 N 611.613 -2.52649 1.43586 0
M  V30 6223 H 611.16 -1.754 1.8866 0
M  V30 6224 H 611.118 -3.05403 0.746735 0
M  V30 6225 N 614.89 -1.56749 -0.16351 0
M  V30 6226 C 615.82 -2.00042 -1.20438 0
M  V30 6227 C 616.801 -0.877256 -1.45733 0
M  V30 6228 O 617.986 -1.1439 -1.56935 0
M  V30 6229 C 615.116 -2.36697 -2.54149 0
M  V30 6230 C 614.07 -3.52046 -2.43408 0
M  V30 6231 C 613.396 -3.74466 -3.81679 0
M  V30 6232 C 614.696 -4.85247 -1.93216 0
M  V30 6233 H 616.39 -2.87244 -0.844477 0
M  V30 6234 H 613.936 -1.38194 -0.40478 0
M  V30 6235 H 615.889 -2.65582 -3.27176 0
M  V30 6236 H 614.613 -1.46414 -2.91943 0
M  V30 6237 H 613.272 -3.23301 -1.72834 0
M  V30 6238 H 612.92 -2.81461 -4.1688 0
M  V30 6239 H 612.62 -4.52084 -3.75359 0
M  V30 6240 H 614.144 -4.0576 -4.5628 0
M  V30 6241 H 615.558 -5.12957 -2.56023 0
M  V30 6242 H 613.955 -5.66556 -1.97825 0
M  V30 6243 H 615.025 -4.7672 -0.88689 0
M  V30 6244 N 616.368 0.432326 -1.51554 0
M  V30 6245 C 617.616 1.17901 -1.64146 0
M  V30 6246 C 617.937 1.91604 -0.362367 0
M  V30 6247 O 617.207 1.85764 0.621968 0
M  V30 6248 H 615.787 0.438206 -0.604966 0
M  V30 6249 H 618.449 0.495172 -1.88505 0
M  V30 6250 H 617.545 1.90584 -2.47152 0
M  V30 6251 N 617.846 1.41785 0.688094 0
M  V30 6252 C 618.796 1.40684 1.79421 0
M  V30 6253 C 619.78 0.280096 1.58443 0
M  V30 6254 O 620.972 0.521332 1.69148 0
M  V30 6255 C 618.101 1.29874 3.17785 0
M  V30 6256 C 617.187 2.47442 3.44432 0
M  V30 6257 N 617.578 3.72895 3.41736 0
M  V30 6258 C 615.876 2.41416 3.75013 0
M  V30 6259 C 616.577 4.50912 3.67496 0
M  V30 6260 N 615.553 3.81131 3.87608 0
M  V30 6261 H 619.355 2.35591 1.7571 0
M  V30 6262 H 616.869 1.35946 0.888393 0
M  V30 6263 H 618.866 1.27168 3.97031 0
M  V30 6264 H 617.526 0.359587 3.22703 0
M  V30 6265 H 618.537 4.05676 3.21943 0
M  V30 6266 H 615.214 1.56011 3.87256 0
M  V30 6267 H 616.604 5.59865 3.71484 0
M  V30 6268 N 619.324 -0.923095 1.27737 0
M  V30 6269 C 620.254 -2.04124 1.13383 0
M  V30 6270 C 621.235 -1.70066 0.0340658 0
M  V30 6271 O 622.42 -1.93068 0.209383 0
M  V30 6272 C 619.55 -3.3831 0.785097 0
M  V30 6273 C 618.504 -3.86496 1.8386 0
M  V30 6274 C 617.83 -5.1754 1.34373 0
M  V30 6275 C 619.13 -4.09381 3.24353 0
M  V30 6276 H 620.824 -2.1639 2.06919 0
M  V30 6277 H 618.37 -1.03976 0.996243 0
M  V30 6278 H 620.323 -4.16016 0.671485 0
M  V30 6279 H 619.047 -3.2607 -0.185969 0
M  V30 6280 H 617.706 -3.10987 1.9412 0
M  V30 6281 H 617.354 -5.01696 0.361989 0
M  V30 6282 H 617.054 -5.50751 2.04811 0
M  V30 6283 H 618.578 -5.97811 1.24315 0
M  V30 6284 H 619.992 -4.77641 3.17067 0
M  V30 6285 H 618.389 -4.53906 3.92542 0
M  V30 6286 H 619.459 -3.14515 3.69064 0
M  V30 6287 N 620.802 -1.09834 -1.13024 0
M  V30 6288 C 621.712 -0.753731 -2.22162 0
M  V30 6289 C 622.728 0.246105 -1.72251 0
M  V30 6290 O 623.904 0.0864051 -2.01215 0
M  V30 6291 C 620.969 -0.183958 -3.46212 0
M  V30 6292 C 620.03 -1.24028 -4.10993 0
M  V30 6293 C 619.263 -0.697597 -5.29121 0
M  V30 6294 O 619.486 0.478092 -5.68393 0
M  V30 6295 O 618.42 -1.4546 -5.84059 0
M  V30 6296 H 622.246 -1.66456 -2.5402 0
M  V30 6297 H 619.831 -0.873026 -1.21238 0
M  V30 6298 H 621.713 0.130257 -4.21199 0
M  V30 6299 H 620.388 0.699823 -3.16045 0
M  V30 6300 H 619.295 -1.60725 -3.37814 0
M  V30 6301 H 620.628 -2.09685 -4.45301 0
M  V30 6302 N 622.28 1.30327 -0.886154 0
M  V30 6303 C 623.696 1.48676 -0.580323 0
M  V30 6304 C 623.896 1.81189 0.881639 0
M  V30 6305 O 622.952 1.90021 1.66278 0
M  V30 6306 C 624.265 2.60932 -1.49449 0
M  V30 6307 C 625.813 2.74812 -1.49824 0
M  V30 6308 C 626.288 3.90183 -2.39836 0
M  V30 6309 N 627.779 3.97495 -2.37806 0
M  V30 6310 C 628.514 4.86078 -3.04165 0
M  V30 6311 N 628.01 5.79448 -3.79753 0
M  V30 6312 N 629.803 4.79456 -2.93391 0
M  V30 6313 H 621.954 1.07495 -1.8319 0
M  V30 6314 H 624.217 0.532661 -0.784204 0
M  V30 6315 H 623.923 2.43731 -2.5355 0
M  V30 6316 H 623.797 3.57437 -1.20494 0
M  V30 6317 H 626.184 2.91418 -0.464731 0
M  V30 6318 H 626.265 1.78924 -1.82811 0
M  V30 6319 H 625.909 3.74334 -3.43273 0
M  V30 6320 H 625.839 4.85411 -2.04166 0
M  V30 6321 H 628.33 3.30703 -1.82877 0
M  V30 6322 H 628.643 6.43805 -4.27475 0
M  V30 6323 H 626.988 5.79376 -3.8386 0
M  V30 6324 H 630.179 4.05494 -2.33864 0
M  V30 6325 H 630.352 5.48283 -3.45383 0
M  V30 6326 N 623.758 0.647228 1.43697 0
M  V30 6327 C 625.004 0.158422 2.0218 0
M  V30 6328 C 625.337 -1.22233 1.50907 0
M  V30 6329 O 624.612 -1.81478 0.699702 0
M  V30 6330 C 624.895 0.1627 3.59732 0
M  V30 6331 C 624.748 1.57694 4.21251 0
M  V30 6332 C 626.067 -0.504138 4.37203 0
M  V30 6333 H 623.186 0.059042 0.734631 0
M  V30 6334 H 625.828 0.826772 1.71069 0
M  V30 6335 H 623.978 -0.406414 3.86368 0
M  V30 6336 H 625.65 2.19618 4.05667 0
M  V30 6337 H 623.893 2.12603 3.7813 0
M  V30 6338 H 624.564 1.53183 5.3032 0
M  V30 6339 H 627.04 -0.0199841 4.16095 0
M  V30 6340 H 625.916 -0.470394 5.46881 0
M  V30 6341 H 626.177 -1.57726 4.13007 0
M  V30 6342 N 625.236 -1.5273 0.388769 0
M  V30 6343 C 626.199 -2.25043 -0.434544 0
M  V30 6344 C 627.199 -1.26661 -0.990644 0
M  V30 6345 O 628.389 -1.50762 -0.872731 0
M  V30 6346 C 625.521 -3.00507 -1.60961 0
M  V30 6347 H 626.714 -2.99242 0.198549 0
M  V30 6348 H 624.267 -1.55664 0.140875 0
M  V30 6349 H 625.002 -2.30607 -2.28015 0
M  V30 6350 H 624.787 -3.72716 -1.21757 0
M  V30 6351 H 626.277 -3.55413 -2.19251 0
M  V30 6352 N 626.714 -0.118576 -1.57153 0
M  V30 6353 C 627.677 0.817464 -2.14127 0
M  V30 6354 C 628.677 1.1949 -1.07604 0
M  V30 6355 O 629.867 1.12048 -1.33382 0
M  V30 6356 C 626.999 2.10541 -2.68115 0
M  V30 6357 H 628.192 0.322339 -2.98163 0
M  V30 6358 H 625.745 0.130655 -1.55753 0
M  V30 6359 H 626.48 2.64485 -1.87665 0
M  V30 6360 H 626.265 1.84425 -3.4602 0
M  V30 6361 H 627.755 2.77453 -3.12105 0
M  V30 6362 N 628.193 1.56834 0.155195 0
M  V30 6363 C 629.442 1.82088 0.867567 0
M  V30 6364 C 629.755 0.69849 1.82703 0
M  V30 6365 O 630.961 0.836407 2.58295 0
M  V30 6366 C 629.417 3.22707 1.59336 0
M  V30 6367 C 629.025 4.42859 0.676719 0
M  V30 6368 C 630.769 3.57242 2.293 0
M  V30 6369 C 628.676 5.74501 1.40367 0
M  V30 6370 H 627.606 0.679057 0.327715 0
M  V30 6371 H 630.257 1.83105 0.120351 0
M  V30 6372 H 628.639 3.16054 2.38591 0
M  V30 6373 H 629.813 4.60731 -0.0800196 0
M  V30 6374 H 628.128 4.16311 0.0859129 0
M  V30 6375 H 630.725 4.52847 2.84312 0
M  V30 6376 H 631.068 2.82901 3.05406 0
M  V30 6377 H 631.601 3.6552 1.56972 0
M  V30 6378 H 628.34 6.51915 0.684623 0
M  V30 6379 H 627.86 5.60579 2.13332 0
M  V30 6380 H 629.539 6.17016 1.94681 0
M  V30 6381 N 629.671 -0.424282 1.51781 0
M  V30 6382 C 630.948 -1.18464 1.55646 0
M  V30 6383 C 631.328 -2.08529 0.328438 0
M  V30 6384 O 630.676 -2.17969 -0.685693 0
M  V30 6385 C 630.886 -1.97514 2.87731 0
M  V30 6386 C 632.234 -2.54106 3.40169 0
M  V30 6387 O 633.258 -2.07711 2.89369 0
M  V30 6388 O 632.117 -3.38759 4.28841 0
M  V30 6389 H 629.211 -0.540055 0.626314 0
M  V30 6390 H 631.757 -0.432291 1.64102 0
M  V30 6391 H 630.529 -1.31444 3.68562 0
M  V30 6392 H 630.152 -2.79787 2.82498 0
M  V30 6393 N 631.149 -1.42148 -0.680565 0
M  V30 6394 C 632.112 -1.4488 -1.77602 0
M  V30 6395 C 633.112 -0.337209 -1.57224 0
M  V30 6396 O 634.302 -0.597778 -1.63622 0
M  V30 6397 C 631.434 -1.27483 -3.16166 0
M  V30 6398 H 632.627 -2.42412 -1.76568 0
M  V30 6399 H 630.18 -1.28511 -0.889645 0
M  V30 6400 H 630.915 -0.30851 -3.22829 0
M  V30 6401 H 630.7 -2.08037 -3.3236 0
M  V30 6402 H 632.19 -1.32265 -3.96101 0
M  V30 6403 N 632.627 0.916307 -1.28225 0
M  V30 6404 C 633.59 1.99996 -1.11957 0
M  V30 6405 C 634.59 1.60688 -0.0600152 0
M  V30 6406 O 635.78 1.71499 -0.30558 0
M  V30 6407 C 632.912 3.33458 -0.708411 0
M  V30 6408 H 634.105 2.15858 -2.08196 0
M  V30 6409 H 631.658 1.09863 -1.11175 0
M  V30 6410 H 632.393 3.23297 0.254859 0
M  V30 6411 H 632.178 3.63349 -1.47377 0
M  V30 6412 H 633.668 4.13014 -0.617164 0
M  V30 6413 N 634.105 1.10431 1.1244 0
M  V30 6414 C 635.035 0.775143 2.20258 0
M  V30 6415 C 636.016 -0.25186 1.68225 0
M  V30 6416 O 637.201 -0.117637 1.93843 0
M  V30 6417 C 634.331 0.206133 3.46688 0
M  V30 6418 C 633.285 1.16382 4.11873 0
M  V30 6419 C 632.611 0.456014 5.32752 0
M  V30 6420 C 633.911 2.5104 4.58013 0
M  V30 6421 H 635.605 1.67665 2.4805 0
M  V30 6422 H 633.151 0.807595 1.19222 0
M  V30 6423 H 635.104 -0.036291 4.21384 0
M  V30 6424 H 633.828 -0.730614 3.18323 0
M  V30 6425 H 632.487 1.39169 3.39157 0
M  V30 6426 H 632.135 -0.485203 5.00654 0
M  V30 6427 H 631.835 1.09466 5.77314 0
M  V30 6428 H 633.359 0.222135 6.10196 0
M  V30 6429 H 634.773 2.32401 5.24083 0
M  V30 6430 H 633.17 3.10789 5.13352 0
M  V30 6431 H 634.24 3.11039 3.71998 0
M  V30 6432 N 635.583 -1.29855 0.893053 0
M  V30 6433 C 636.515 -2.26911 0.32311 0
M  V30 6434 C 637.528 -1.54039 -0.526858 0
M  V30 6435 O 638.717 -1.75132 -0.345095 0
M  V30 6436 C 635.817 -3.34266 -0.558509 0
M  V30 6437 C 634.99 -4.36601 0.264222 0
M  V30 6438 C 634.049 -5.23326 -0.549171 0
M  V30 6439 O 633.075 -5.69192 0.0309883 0
M  V30 6440 N 634.277 -5.50008 -1.85664 0
M  V30 6441 H 637.042 -2.76455 1.15726 0
M  V30 6442 H 634.603 -1.4312 0.756859 0
M  V30 6443 H 636.595 -3.89211 -1.1089 0
M  V30 6444 H 635.165 -2.8459 -1.29334 0
M  V30 6445 H 634.385 -3.81409 0.996046 0
M  V30 6446 H 635.673 -5.02019 0.827906 0
M  V30 6447 H 635.071 -5.14542 -2.35081 0
M  V30 6448 H 633.628 -6.07796 -2.35431 0
M  V30 6449 N 637.061 -0.65484 -1.43351 0
M  V30 6450 C 638.477 -0.32255 -1.56307 0
M  V30 6451 C 638.677 1.17324 -1.63821 0
M  V30 6452 O 637.733 1.95813 -1.59417 0
M  V30 6453 C 639.046 -1.03533 -2.82314 0
M  V30 6454 C 640.594 -1.01574 -2.9606 0
M  V30 6455 C 641.069 -1.70945 -4.24902 0
M  V30 6456 N 642.56 -1.67716 -4.3177 0
M  V30 6457 C 643.295 -2.18265 -5.30234 0
M  V30 6458 N 642.791 -2.7711 -6.34966 0
M  V30 6459 N 644.584 -2.08756 -5.21898 0
M  V30 6460 H 636.735 -1.62549 -1.36717 0
M  V30 6461 H 638.998 -0.683676 -0.656727 0
M  V30 6462 H 638.704 -2.09045 -2.8283 0
M  V30 6463 H 638.578 -0.587913 -3.7259 0
M  V30 6464 H 640.965 0.0309834 -2.95084 0
M  V30 6465 H 641.046 -1.50186 -2.07069 0
M  V30 6466 H 640.69 -2.75574 -4.26639 0
M  V30 6467 H 640.62 -1.19797 -5.12793 0
M  V30 6468 H 643.111 -1.24777 -3.56706 0
M  V30 6469 H 643.424 -3.13353 -7.06421 0
M  V30 6470 H 641.769 -2.81171 -6.35585 0
M  V30 6471 H 644.96 -1.62488 -4.38994 0
M  V30 6472 H 645.133 -2.48459 -5.98475 0
M  V30 6473 N 638.539 1.52521 -0.396863 0
M  V30 6474 C 639.469 2.29582 0.425941 0
M  V30 6475 C 640.45 1.33281 1.05689 0
M  V30 6476 O 641.635 1.62181 1.06823 0
M  V30 6477 C 638.765 3.10821 1.54943 0
M  V30 6478 C 637.719 4.15069 1.04413 0
M  V30 6479 C 637.045 4.84578 2.26028 0
M  V30 6480 C 638.345 5.22191 0.106767 0
M  V30 6481 H 640.039 2.98612 -0.217045 0
M  V30 6482 H 637.585 1.43611 -0.105826 0
M  V30 6483 H 639.538 3.63492 2.13193 0
M  V30 6484 H 638.262 2.39538 2.22011 0
M  V30 6485 H 636.921 3.63389 0.484118 0
M  V30 6486 H 636.569 4.09835 2.91623 0
M  V30 6487 H 636.269 5.55043 1.92876 0
M  V30 6488 H 637.793 5.40056 2.84906 0
M  V30 6489 H 639.207 5.70176 0.597685 0
M  V30 6490 H 637.604 5.99947 -0.135352 0
M  V30 6491 H 638.674 4.77531 -0.842134 0
M  V30 6492 N 640.017 0.126909 1.57088 0
M  V30 6493 C 641.428 -0.397201 1.82426 0
M  V30 6494 C 641.779 -1.66084 1.04453 0
M  V30 6495 O 640.904 -2.14534 0.283552 0
M  V30 6496 C 641.499 -0.727411 3.30899 0
M  V30 6497 C 640.058 -1.19612 3.56889 0
M  V30 6498 C 639.205 -0.20885 2.76512 0
M  V30 6499 H 642.156 0.351924 1.54749 0
M  V30 6500 H 642.177 -1.58407 3.45959 0
M  V30 6501 H 641.689 0.19247 3.87622 0
M  V30 6502 H 639.79 -2.13263 3.05532 0
M  V30 6503 H 639.903 -1.13598 4.65438 0
M  V30 6504 H 638.267 -0.697479 2.44964 0
M  V30 6505 H 639.05 0.704267 3.35998 0
M  V30 6506 N 641.495 -1.56914 -0.146875 0
M  V30 6507 C 642.743 -1.82994 -0.85777 0
M  V30 6508 C 643.064 -0.707814 -1.817 0
M  V30 6509 O 642.334 0.270521 -1.94023 0
M  V30 6510 H 640.914 -0.675106 -0.319751 0
M  V30 6511 H 643.576 -1.9439 -0.140849 0
M  V30 6512 H 642.672 -2.77928 -1.41994 0
M  V30 6513 N 642.974 0.416227 -1.52004 0
M  V30 6514 C 643.904 1.51365 -1.77795 0
M  V30 6515 C 644.885 1.58059 -0.628601 0
M  V30 6516 O 646.07 1.73447 -0.873478 0
M  V30 6517 C 643.2 2.89256 -1.92219 0
M  V30 6518 C 642.154 2.97415 -3.0778 0
M  V30 6519 C 641.48 4.37492 -3.07417 0
M  V30 6520 C 642.78 2.69551 -4.47369 0
M  V30 6521 H 644.474 1.30033 -2.69688 0
M  V30 6522 H 642.02 0.624112 -1.29772 0
M  V30 6523 H 643.973 3.66008 -2.08845 0
M  V30 6524 H 642.697 3.11866 -0.969917 0
M  V30 6525 H 641.356 2.23107 -2.90893 0
M  V30 6526 H 641.004 4.571 -2.09925 0
M  V30 6527 H 640.704 4.43877 -3.85029 0
M  V30 6528 H 642.228 5.16188 -3.26162 0
M  V30 6529 H 643.642 3.36028 -4.64497 0
M  V30 6530 H 642.039 2.87321 -5.26846 0
M  V30 6531 H 643.109 1.65029 -4.55953 0
M  V30 6532 N 644.452 1.42507 0.673017 0
M  V30 6533 C 645.402 1.4258 1.77919 0
M  V30 6534 C 646.386 0.296885 1.58137 0
M  V30 6535 O 647.578 0.539243 1.68586 0
M  V30 6536 C 644.707 1.33238 3.1639 0
M  V30 6537 C 643.793 2.51081 3.41788 0
M  V30 6538 N 644.184 3.76498 3.37761 0
M  V30 6539 C 642.482 2.4538 3.72431 0
M  V30 6540 C 643.183 4.54784 3.62693 0
M  V30 6541 N 642.159 3.8522 3.83544 0
M  V30 6542 H 645.961 2.37442 1.73201 0
M  V30 6543 H 643.475 1.36881 0.873924 0
M  V30 6544 H 645.472 1.31372 3.9566 0
M  V30 6545 H 644.132 0.393794 3.22303 0
M  V30 6546 H 645.143 4.09068 3.17622 0
M  V30 6547 H 641.82 1.60109 3.85579 0
M  V30 6548 H 643.21 5.63774 3.65525 0
M  V30 6549 N 645.93 -0.909495 1.28709 0
M  V30 6550 C 646.86 -2.0291 1.15542 0
M  V30 6551 C 647.841 -1.7002 0.0521017 0
M  V30 6552 O 649.026 -1.92835 0.229849 0
M  V30 6553 C 646.156 -3.37458 0.820935 0
M  V30 6554 C 645.11 -3.84524 1.87949 0
M  V30 6555 C 644.436 -5.16086 1.39854 0
M  V30 6556 C 645.736 -4.05918 3.28676 0
M  V30 6557 H 647.43 -2.14183 2.09203 0
M  V30 6558 H 644.976 -1.02913 1.00722 0
M  V30 6559 H 646.929 -4.1528 0.715571 0
M  V30 6560 H 645.653 -3.26249 -0.151374 0
M  V30 6561 H 644.312 -3.08911 1.97408 0
M  V30 6562 H 643.96 -5.01284 0.41518 0
M  V30 6563 H 643.66 -5.48547 2.1064 0
M  V30 6564 H 645.184 -5.96459 1.30649 0
M  V30 6565 H 646.598 -4.74252 3.22115 0
M  V30 6566 H 644.995 -4.49717 3.97334 0
M  V30 6567 H 646.065 -3.10583 3.72379 0
M  V30 6568 N 647.408 -1.11026 -1.11852 0
M  V30 6569 C 648.657 -0.851249 -1.82857 0
M  V30 6570 C 648.97 0.62514 -1.85341 0
M  V30 6571 O 650.176 1.00026 -2.52403 0
M  V30 6572 C 648.632 -1.47309 -3.28372 0
M  V30 6573 C 648.24 -2.9832 -3.34229 0
M  V30 6574 C 649.984 -1.29373 -4.04306 0
M  V30 6575 C 647.891 -3.53509 -4.74115 0
M  V30 6576 H 646.821 -0.314794 -0.685143 0
M  V30 6577 H 649.472 -1.33499 -1.25898 0
M  V30 6578 H 647.854 -0.917017 -3.85236 0
M  V30 6579 H 649.028 -3.60295 -2.87271 0
M  V30 6580 H 647.343 -3.15482 -2.71772 0
M  V30 6581 H 649.94 -1.68042 -5.07608 0
M  V30 6582 H 650.283 -0.235879 -4.15631 0
M  V30 6583 H 650.816 -1.8182 -3.53817 0
M  V30 6584 H 647.555 -4.58987 -4.67986 0
M  V30 6585 H 647.075 -2.96305 -5.21501 0
M  V30 6586 H 648.754 -3.51693 -5.43066 0
M  V30 6587 N 648.886 1.2938 -0.899927 0
M  V30 6588 C 650.134 1.95164 -0.524924 0
M  V30 6589 C 650.455 1.71292 0.931888 0
M  V30 6590 O 649.725 1.04481 1.65712 0
M  V30 6591 H 648.305 0.722133 -0.191135 0
M  V30 6592 H 650.967 1.57628 -1.14627 0
M  V30 6593 H 650.063 3.0397 -0.707711 0
M  V30 6594 N 650.364 0.662433 1.43002 0
M  V30 6595 C 651.312 -0.035345 2.32573 0
M  V30 6596 C 652.306 -0.803505 1.49131 0
M  V30 6597 O 653.512 -0.712865 1.65282 0
M  V30 6598 H 649.887 -0.0302194 0.751393 0
M  V30 6599 H 651.858 0.737686 2.89138 0
M  V30 6600 C 650.607 -0.981575 3.33557 0
M  V30 6601 H 649.93 -0.399914 3.97795 0
M  V30 6602 H 651.37 -1.43873 3.98844 0
M  V30 6603 C 649.829 -2.08204 2.64863 0
M  V30 6604 O 650.359 -3.16698 2.47113 0
M  V30 6605 N 648.565 -1.85022 2.24088 0
M  V30 6606 H 648.112 -0.967909 2.38724 0
M  V30 6607 H 648.07 -2.58845 1.78457 0
M  V30 6608 N 651.842 -1.52309 0.404946 0
M  V30 6609 C 652.805 -2.25491 -0.410651 0
M  V30 6610 C 653.805 -1.27704 -0.977154 0
M  V30 6611 O 654.995 -1.51679 -0.856691 0
M  V30 6612 C 652.127 -3.02197 -1.57765 0
M  V30 6613 H 653.32 -2.99015 0.230277 0
M  V30 6614 H 650.873 -1.55506 0.157377 0
M  V30 6615 H 651.608 -2.33013 -2.25556 0
M  V30 6616 H 651.393 -3.73987 -1.17797 0
M  V30 6617 H 652.883 -3.57719 -2.15469 0
M  V30 6618 N 653.32 -0.135238 -1.57019 0
M  V30 6619 C 654.55 0.525303 -1.9981 0
M  V30 6620 C 654.958 1.59724 -1.01415 0
M  V30 6621 O 654.301 1.837 -0.00130938 0
M  V30 6622 C 654.363 1.19578 -3.3903 0
M  V30 6623 C 654.027 0.269855 -4.56203 0
M  V30 6624 C 655.024 -0.497905 -5.1751 0
M  V30 6625 C 652.709 0.176188 -5.01991 0
M  V30 6626 C 654.703 -1.3469 -6.23007 0
M  V30 6627 C 652.39 -0.676422 -6.07345 0
M  V30 6628 C 653.388 -1.43658 -6.67721 0
M  V30 6629 O 653.076 -2.27501 -7.71037 0
M  V30 6630 H 652.808 0.142296 -0.660854 0
M  V30 6631 H 655.362 -0.223272 -2.04183 0
M  V30 6632 H 653.592 1.99176 -3.3146 0
M  V30 6633 H 655.281 1.75486 -3.66005 0
M  V30 6634 H 656.047 -0.435507 -4.83041 0
M  V30 6635 H 651.926 0.757583 -4.54733 0
M  V30 6636 H 655.47 -1.9407 -6.70062 0
M  V30 6637 H 651.367 -0.740154 -6.41243 0
M  V30 6638 H 652.135 -2.20619 -7.88206 0
M  V30 6639 N 654.798 1.5699 0.138552 0
M  V30 6640 C 655.745 1.98899 1.17081 0
M  V30 6641 C 656.715 0.857922 1.42228 0
M  V30 6642 O 657.9 1.12065 1.54422 0
M  V30 6643 C 655.04 2.38189 2.4972 0
M  V30 6644 C 654.153 3.64624 2.31674 0
M  V30 6645 C 653.288 3.9298 3.57407 0
M  V30 6646 C 652.327 5.1266 3.34435 0
M  V30 6647 N 651.464 5.36983 4.5232 0
M  V30 6648 H 656.304 2.86881 0.80642 0
M  V30 6649 H 653.841 1.41925 0.386727 0
M  V30 6650 H 655.799 2.59 3.2707 0
M  V30 6651 H 654.429 1.53275 2.84089 0
M  V30 6652 H 653.481 3.51542 1.45337 0
M  V30 6653 H 654.793 4.52131 2.10664 0
M  V30 6654 H 653.947 4.14335 4.43183 0
M  V30 6655 H 652.686 3.03912 3.8143 0
M  V30 6656 H 651.691 4.9117 2.47048 0
M  V30 6657 H 652.916 6.03288 3.11802 0
M  V30 6658 H 650.862 4.50871 4.76499 0
M  V30 6659 H 650.779 6.18775 4.34343 0
M  V30 6660 H 652.047 5.62842 5.39285 0
M  V30 6661 N 656.276 -0.40816 1.52223 0
M  V30 6662 C 657.524 -1.15274 1.66001 0
M  V30 6663 C 657.845 -1.91003 0.392803 0
M  V30 6664 O 657.115 -1.8673 -0.592336 0
M  V30 6665 H 655.695 -0.428526 0.611861 0
M  V30 6666 H 658.357 -0.46512 1.89269 0
M  V30 6667 H 657.453 -1.86628 2.50153 0
M  V30 6668 N 657.755 -1.42862 -0.66545 0
M  V30 6669 C 659.001 -1.44043 -1.42757 0
M  V30 6670 C 659.334 -0.0599629 -1.94107 0
M  V30 6671 O 658.609 0.917286 -1.71511 0
M  V30 6672 C 658.892 -2.47266 -2.61786 0
M  V30 6673 C 658.745 -3.94539 -2.16007 0
M  V30 6674 C 660.064 -2.47365 -3.64003 0
M  V30 6675 H 657.183 -0.524506 -0.517748 0
M  V30 6676 H 659.825 -1.74335 -0.755466 0
M  V30 6677 H 657.975 -2.21565 -3.19126 0
M  V30 6678 H 659.647 -4.31254 -1.63762 0
M  V30 6679 H 657.89 -4.07957 -1.47491 0
M  V30 6680 H 658.561 -4.62357 -3.01546 0
M  V30 6681 H 661.037 -2.70243 -3.16399 0
M  V30 6682 H 659.913 -3.21552 -4.44854 0
M  V30 6683 H 660.174 -1.50299 -4.15767 0
M  V30 6684 N 659.233 0.902656 -1.29189 0
M  V30 6685 C 660.481 1.6496 -1.16758 0
M  V30 6686 C 660.802 1.92952 0.28188 0
M  V30 6687 O 660.072 1.55351 1.19344 0
M  V30 6688 H 658.652 0.611447 -0.429118 0
M  V30 6689 H 661.314 1.0825 -1.62074 0
M  V30 6690 H 660.41 2.60728 -1.71544 0
M  V30 6691 N 660.711 1.11618 1.11262 0
M  V30 6692 C 661.641 0.79846 2.19424 0
M  V30 6693 C 662.622 -0.234003 1.68483 0
M  V30 6694 O 663.807 -0.0970704 1.93957 0
M  V30 6695 C 660.937 0.242892 3.4645 0
M  V30 6696 C 659.891 1.20744 4.10615 0
M  V30 6697 C 659.217 0.512494 5.32238 0
M  V30 6698 C 660.517 2.55884 4.55325 0
M  V30 6699 H 662.211 1.70286 2.46258 0
M  V30 6700 H 659.757 0.820195 1.18359 0
M  V30 6701 H 661.71 0.00840447 4.21399 0
M  V30 6702 H 660.434 -0.696811 3.1908 0
M  V30 6703 H 659.093 1.42759 3.37662 0
M  V30 6704 H 658.741 -0.432075 5.01141 0
M  V30 6705 H 658.441 1.15583 5.7612 0
M  V30 6706 H 659.965 0.286842 6.09926 0
M  V30 6707 H 661.379 2.37946 5.21588 0
M  V30 6708 H 659.776 3.16216 5.10027 0
M  V30 6709 H 660.846 3.14968 3.68678 0
M  V30 6710 N 662.189 -1.289 0.906776 0
M  V30 6711 C 663.137 -2.29477 0.379873 0
M  V30 6712 C 664.131 -1.61068 -0.524747 0
M  V30 6713 O 665.337 -1.75344 -0.406765 0
M  V30 6714 H 661.712 -0.744742 0.10423 0
M  V30 6715 H 663.683 -2.71353 1.24137 0
M  V30 6716 C 662.432 -3.45713 -0.371154 0
M  V30 6717 H 661.755 -3.98551 0.315716 0
M  V30 6718 H 663.195 -4.18105 -0.704581 0
M  V30 6719 C 661.654 -2.9774 -1.57646 0
M  V30 6720 O 662.184 -2.99618 -2.67567 0
M  V30 6721 N 660.39 -2.53485 -1.42105 0
M  V30 6722 H 659.937 -2.52156 -0.526783 0
M  V30 6723 H 659.895 -2.21747 -2.22881 0
M  V30 6724 N 663.667 -0.670007 -1.42649 0
M  V30 6725 C 664.944 -0.119451 -1.95235 0
M  V30 6726 C 665.324 1.36461 -1.61064 0
M  V30 6727 O 664.672 2.09843 -0.904329 0
M  V30 6728 C 664.882 -0.383498 -3.46887 0
M  V30 6729 C 666.23 -0.297431 -4.23557 0
M  V30 6730 O 667.254 -0.31698 -3.54787 0
M  V30 6731 O 666.113 -0.235507 -5.45992 0
M  V30 6732 H 663.207 -8.85474e-05 -0.827 0
M  V30 6733 H 665.753 -0.744406 -1.52501 0
M  V30 6734 H 664.525 -1.41174 -3.64946 0
M  V30 6735 H 664.148 0.273702 -3.96657 0
M  V30 6736 N 665.145 1.52092 -0.413018 0
M  V30 6737 C 666.385 2.03765 0.160975 0
M  V30 6738 C 666.749 1.29174 1.4205 0
M  V30 6739 O 667.95 1.71093 2.07318 0
M  V30 6740 C 666.221 3.55167 0.398871 0
M  V30 6741 S 667.78 4.28619 0.939755 0
M  V30 6742 H 664.598 0.709685 0.0432281 0
M  V30 6743 H 667.2 1.87102 -0.566831 0
M  V30 6744 H 665.904 4.07034 -0.524544 0
M  V30 6745 H 665.435 3.7608 1.15444 0
M  V30 6746 H 667.45 4.43773 2.21991 0
M  V30 6747 N 666.623 0.143563 1.56945 0
M  V30 6748 C 667.872 -0.50835 1.95189 0
M  V30 6749 C 668.185 -1.66239 1.03073 0
M  V30 6750 O 669.391 -2.3787 1.30882 0
M  V30 6751 C 667.847 -0.955735 3.46978 0
M  V30 6752 C 667.455 0.171183 4.47673 0
M  V30 6753 C 669.199 -1.57763 3.94095 0
M  V30 6754 C 667.106 -0.294279 5.90667 0
M  V30 6755 H 666.036 -0.193679 0.728701 0
M  V30 6756 H 668.687 0.227357 1.82086 0
M  V30 6757 H 667.069 -1.7466 3.55401 0
M  V30 6758 H 668.243 0.948049 4.50942 0
M  V30 6759 H 666.558 0.701273 4.10452 0
M  V30 6760 H 669.155 -1.93745 4.98364 0
M  V30 6761 H 669.498 -2.46531 3.35452 0
M  V30 6762 H 670.031 -0.851728 3.88575 0
M  V30 6763 H 666.77 0.557939 6.53121 0
M  V30 6764 H 666.29 -1.0371 5.90766 0
M  V30 6765 H 667.969 -0.747426 6.42668 0
M  V30 6766 N 668.101 -1.57061 -0.130224 0
M  V30 6767 C 669.517 -1.52103 -0.483413 0
M  V30 6768 C 669.717 -0.854752 -1.82473 0
M  V30 6769 O 668.773 -0.432342 -2.48771 0
M  V30 6770 C 670.086 -2.96872 -0.47825 0
M  V30 6771 C 671.634 -3.07902 -0.562592 0
M  V30 6772 C 672.109 -4.54211 -0.587929 0
M  V30 6773 N 673.6 -4.58621 -0.649684 0
M  V30 6774 C 674.335 -5.69227 -0.690551 0
M  V30 6775 N 673.831 -6.89358 -0.689743 0
M  V30 6776 N 675.624 -5.57304 -0.732708 0
M  V30 6777 H 667.775 -1.98764 0.748779 0
M  V30 6778 H 670.038 -0.907248 0.274965 0
M  V30 6779 H 669.744 -3.48944 0.439444 0
M  V30 6780 H 669.618 -3.53716 -1.31013 0
M  V30 6781 H 672.005 -2.5584 -1.47071 0
M  V30 6782 H 672.086 -2.54073 0.296764 0
M  V30 6783 H 671.73 -5.06915 0.316096 0
M  V30 6784 H 671.66 -5.0584 -1.46401 0
M  V30 6785 H 674.151 -3.72146 -0.656927 0
M  V30 6786 H 674.464 -7.69408 -0.723239 0
M  V30 6787 H 672.809 -6.91884 -0.657347 0
M  V30 6788 H 676 -4.62363 -0.730625 0
M  V30 6789 H 676.173 -6.43515 -0.76109 0
M  V30 6790 N 669.579 0.400081 -1.52437 0
M  V30 6791 C 670.527 1.50851 -1.7705 0
M  V30 6792 C 671.521 1.56928 -0.637969 0
M  V30 6793 O 672.727 1.60226 -0.820212 0
M  V30 6794 H 669.102 0.50186 -0.560036 0
M  V30 6795 H 671.073 1.27281 -2.69893 0
M  V30 6796 C 669.822 2.88117 -1.94638 0
M  V30 6797 H 669.145 2.84187 -2.81208 0
M  V30 6798 H 670.585 3.64942 -2.15855 0
M  V30 6799 C 669.044 3.29206 -0.715899 0
M  V30 6800 O 669.574 4.01544 0.111944 0
M  V30 6801 N 667.78 2.85363 -0.549191 0
M  V30 6802 H 667.327 2.26664 -1.22397 0
M  V30 6803 H 667.285 3.13214 0.27278 0
M  V30 6804 N 671.057 1.43213 0.657864 0
M  V30 6805 C 672.02 1.47687 1.75275 0
M  V30 6806 C 673.02 0.362179 1.56668 0
M  V30 6807 O 674.21 0.623734 1.62651 0
M  V30 6808 C 671.342 1.32497 3.14098 0
M  V30 6809 H 672.535 2.4519 1.7269 0
M  V30 6810 H 670.088 1.2991 0.869087 0
M  V30 6811 H 670.823 0.359831 3.22298 0
M  V30 6812 H 670.608 2.13299 3.29008 0
M  V30 6813 H 672.098 1.38549 3.93946 0
M  V30 6814 N 672.536 -0.895792 1.29666 0
M  V30 6815 C 673.499 -1.98189 1.15124 0
M  V30 6816 C 674.499 -1.60572 0.0855717 0
M  V30 6817 O 675.689 -1.70991 0.332826 0
M  V30 6818 C 672.821 -3.32289 0.761372 0
M  V30 6819 H 674.014 -2.12518 2.11603 0
M  V30 6820 H 671.567 -1.0808 1.12908 0
M  V30 6821 H 672.302 -3.23662 -0.203393 0
M  V30 6822 H 672.087 -3.60958 1.53139 0
M  V30 6823 H 673.577 -4.1198 0.682792 0
M  V30 6824 N 674.014 -1.12206 -1.10668 0
M  V30 6825 C 674.946 -0.74552 -2.16736 0
M  V30 6826 C 675.959 0.226696 -1.61214 0
M  V30 6827 O 677.148 0.0083936 -1.78498 0
M  V30 6828 C 674.248 -0.0823368 -3.388 0
M  V30 6829 C 673.421 -1.08341 -4.2377 0
M  V30 6830 C 672.48 -0.448292 -5.24287 0
M  V30 6831 O 671.506 -1.10458 -5.58379 0
M  V30 6832 N 672.708 0.785336 -5.75163 0
M  V30 6833 H 675.473 -1.65818 -2.49649 0
M  V30 6834 H 673.034 -1.01335 -1.26265 0
M  V30 6835 H 675.026 0.354476 -4.03145 0
M  V30 6836 H 673.596 0.733041 -3.03884 0
M  V30 6837 H 672.816 -1.69792 -3.55759 0
M  V30 6838 H 674.104 -1.76042 -4.77375 0
M  V30 6839 H 673.502 1.33755 -5.4966 0
M  V30 6840 H 672.059 1.16501 -6.41304 0
M  V30 6841 N 675.492 1.28418 -0.913599 0
M  V30 6842 C 676.422 2.29713 -0.418847 0
M  V30 6843 C 677.403 1.62165 0.513469 0
M  V30 6844 O 678.588 1.89576 0.421235 0
M  V30 6845 C 675.718 3.45612 0.342042 0
M  V30 6846 C 674.672 4.25056 -0.501123 0
M  V30 6847 C 673.998 5.3329 0.388097 0
M  V30 6848 C 675.298 4.91814 -1.75831 0
M  V30 6849 H 676.992 2.71346 -1.26538 0
M  V30 6850 H 674.538 1.30446 -0.609903 0
M  V30 6851 H 676.491 4.15562 0.699 0
M  V30 6852 H 675.215 3.02858 1.22248 0
M  V30 6853 H 673.874 3.56833 -0.840598 0
M  V30 6854 H 673.522 4.8678 1.26707 0
M  V30 6855 H 673.222 5.87347 -0.172459 0
M  V30 6856 H 674.746 6.06088 0.74094 0
M  V30 6857 H 676.16 5.54126 -1.47026 0
M  V30 6858 H 674.557 5.55866 -2.26126 0
M  V30 6859 H 675.627 4.16313 -2.4862 0
M  V30 6860 N 676.97 0.677563 1.42291 0
M  V30 6861 C 677.933 0.0101085 2.29198 0
M  V30 6862 C 678.933 -0.726219 1.43467 0
M  V30 6863 O 680.123 -0.563807 1.64824 0
M  V30 6864 C 677.255 -0.996316 3.26016 0
M  V30 6865 H 678.448 0.775071 2.89711 0
M  V30 6866 H 676.001 0.440065 1.49977 0
M  V30 6867 H 676.736 -1.78967 2.70446 0
M  V30 6868 H 676.521 -0.471687 3.89253 0
M  V30 6869 H 678.011 -1.46167 3.91184 0
M  V30 6870 N 678.448 -1.51871 0.421078 0
M  V30 6871 C 679.725 -1.9447 -0.20993 0
M  V30 6872 C 680.105 -1.35875 -1.61558 0
M  V30 6873 O 679.453 -0.539294 -2.22045 0
M  V30 6874 C 679.663 -3.48402 -0.204165 0
M  V30 6875 C 681.011 -4.2254 -0.417696 0
M  V30 6876 O 682.035 -3.55074 -0.282999 0
M  V30 6877 O 680.894 -5.422 -0.684239 0
M  V30 6878 H 677.988 -0.815283 -0.138718 0
M  V30 6879 H 680.534 -1.62832 0.477884 0
M  V30 6880 H 679.306 -3.83464 0.779183 0
M  V30 6881 H 678.929 -3.86436 -0.935576 0
M  V30 6882 N 679.926 -0.151884 -1.56866 0
M  V30 6883 C 680.889 0.771861 -2.15812 0
M  V30 6884 C 681.889 1.17181 -1.10115 0
M  V30 6885 O 683.079 1.09194 -1.35729 0
M  V30 6886 C 680.211 2.04806 -2.7252 0
M  V30 6887 H 681.404 0.259021 -2.98779 0
M  V30 6888 H 678.957 0.097588 -1.55995 0
M  V30 6889 H 679.692 2.60445 -1.93233 0
M  V30 6890 H 679.477 1.77044 -3.49854 0
M  V30 6891 H 680.967 2.70771 -3.1792 0
M  V30 6892 N 681.404 1.57128 0.121893 0
M  V30 6893 C 682.334 2.03165 1.15092 0
M  V30 6894 C 683.315 0.915587 1.43356 0
M  V30 6895 O 684.5 1.1851 1.53847 0
M  V30 6896 C 681.63 2.43352 2.47784 0
M  V30 6897 C 680.584 3.58376 2.33989 0
M  V30 6898 C 679.91 3.84454 3.71617 0
M  V30 6899 C 681.21 4.90199 1.80283 0
M  V30 6900 H 682.904 2.89382 0.768023 0
M  V30 6901 H 680.45 1.39218 0.367998 0
M  V30 6902 H 682.403 2.74163 3.20019 0
M  V30 6903 H 681.127 1.54103 2.87958 0
M  V30 6904 H 679.786 3.2777 1.64202 0
M  V30 6905 H 679.434 2.92414 4.09271 0
M  V30 6906 H 679.134 4.61877 3.6324 0
M  V30 6907 H 680.658 4.17714 4.45362 0
M  V30 6908 H 682.072 5.19565 2.42333 0
M  V30 6909 H 680.469 5.71601 1.82735 0
M  V30 6910 H 681.539 4.78904 0.760184 0
M  V30 6911 N 682.882 -0.391992 1.52647 0
M  V30 6912 C 684.128 -1.139 1.67793 0
M  V30 6913 C 684.461 -1.89711 0.41514 0
M  V30 6914 O 683.736 -1.85431 -0.586979 0
M  V30 6915 C 684.019 -2.11966 2.91105 0
M  V30 6916 C 683.872 -1.39939 4.27478 0
M  V30 6917 C 685.191 -3.1243 3.09961 0
M  V30 6918 H 682.31 -0.412707 0.610608 0
M  V30 6919 H 684.952 -0.422725 1.85238 0
M  V30 6920 H 683.102 -2.73048 2.76364 0
M  V30 6921 H 684.774 -0.818439 4.53982 0
M  V30 6922 H 683.017 -0.701246 4.28095 0
M  V30 6923 H 683.688 -2.1158 5.09841 0
M  V30 6924 H 686.164 -2.61435 3.23714 0
M  V30 6925 H 685.04 -3.78294 3.97725 0
M  V30 6926 H 685.301 -3.81127 2.24042 0
M  V30 6927 N 684.36 -1.4356 -0.65026 0
M  V30 6928 C 685.323 -1.48615 -1.74489 0
M  V30 6929 C 686.323 -0.370483 -1.56474 0
M  V30 6930 O 687.513 -0.632351 -1.62317 0
M  V30 6931 C 684.645 -1.34161 -3.13391 0
M  V30 6932 H 685.838 -2.46103 -1.71387 0
M  V30 6933 H 683.391 -1.30369 -0.862186 0
M  V30 6934 H 684.126 -0.376918 -3.22102 0
M  V30 6935 H 683.911 -2.1504 -3.27872 0
M  V30 6936 H 685.401 -1.40637 -3.93206 0
M  V30 6937 N 685.838 0.888903 -1.30139 0
M  V30 6938 C 687.086 1.63713 -1.18501 0
M  V30 6939 C 687.407 1.9324 0.261399 0
M  V30 6940 O 686.677 1.56608 1.17689 0
M  V30 6941 H 685.257 0.606861 -0.435579 0
M  V30 6942 H 687.919 1.06525 -1.63213 0
M  V30 6943 H 687.015 2.58894 -1.743 0
M  V30 6944 N 687.317 1.12792 1.10072 0
M  V30 6945 C 688.265 0.794523 2.18609 0
M  V30 6946 C 689.259 -0.220271 1.67962 0
M  V30 6947 O 690.465 -0.0780938 1.79831 0
M  V30 6948 H 686.84 0.239123 0.712969 0
M  V30 6949 H 688.811 1.71823 2.43966 0
M  V30 6950 C 687.56 0.269548 3.46654 0
M  V30 6951 H 686.883 1.04171 3.8599 0
M  V30 6952 H 688.323 0.0746242 4.23934 0
M  V30 6953 C 686.782 -1.00333 3.21613 0
M  V30 6954 O 687.312 -2.08042 3.4363 0
M  V30 6955 N 685.518 -0.931763 2.75257 0
M  V30 6956 H 685.065 -0.0551197 2.57541 0
M  V30 6957 H 685.023 -1.78405 2.58881 0
M  V30 6958 N 688.795 -1.27931 0.920396 0
M  V30 6959 C 690.023 -1.98805 0.573087 0
M  V30 6960 C 690.438 -1.68724 -0.847201 0
M  V30 6961 O 689.795 -0.943699 -1.56207 0
M  V30 6962 C 689.846 -3.52971 0.780633 0
M  V30 6963 O 689.567 -3.81994 2.14504 0
M  V30 6964 C 691.068 -4.411 0.44105 0
M  V30 6965 H 688.288 -0.634651 0.21785 0
M  V30 6966 H 690.832 -1.62965 1.23542 0
M  V30 6967 H 688.987 -3.87048 0.165204 0
M  V30 6968 H 689.401 -4.76609 2.18962 0
M  V30 6969 H 690.875 -5.48312 0.637006 0
M  V30 6970 H 691.352 -4.34758 -0.62306 0
M  V30 6971 H 691.958 -4.12532 1.0343 0
M  V30 6972 N 690.273 -0.685099 -1.4193 0
M  V30 6973 C 691.498 -0.218842 -2.06242 0
M  V30 6974 C 691.923 1.11923 -1.51178 0
M  V30 6975 O 691.281 1.69837 -0.634446 0
M  V30 6976 C 691.329 -0.175592 -3.60172 0
M  V30 6977 O 690.433 0.852776 -4.03487 0
M  V30 6978 H 689.774 -0.109531 -0.654904 0
M  V30 6979 H 692.304 -0.937013 -1.81882 0
M  V30 6980 H 692.314 -0.00291151 -4.08 0
M  V30 6981 H 690.989 -1.15222 -3.99621 0
M  V30 6982 H 689.566 0.650301 -3.67186 0
M  V30 6983 N 691.751 1.51645 -0.429126 0
M  V30 6984 C 692.701 2.24388 0.404217 0
M  V30 6985 C 693.685 1.26294 0.996933 0
M  V30 6986 O 694.877 1.51428 0.916434 0
M  V30 6987 C 692.006 3.08338 1.50938 0
M  V30 6988 C 691.092 4.13857 0.926464 0
M  V30 6989 N 691.483 5.05749 0.0719732 0
M  V30 6990 C 689.781 4.29695 1.19491 0
M  V30 6991 C 690.482 5.81143 -0.254528 0
M  V30 6992 N 689.458 5.42408 0.359763 0
M  V30 6993 H 693.26 2.92794 -0.254697 0
M  V30 6994 H 690.774 1.60606 -0.240712 0
M  V30 6995 H 692.771 3.59022 2.11918 0
M  V30 6996 H 691.431 2.41475 2.17072 0
M  V30 6997 H 692.442 5.17066 -0.293854 0
M  V30 6998 H 689.119 3.74059 1.85434 0
M  V30 6999 H 690.509 6.65159 -0.949365 0
M  V30 7000 N 693.229 0.160201 1.56784 0
M  V30 7001 C 694.192 -0.760405 2.16219 0
M  V30 7002 C 695.192 -1.16595 1.10735 0
M  V30 7003 O 696.382 -1.08472 1.36306 0
M  V30 7004 C 693.514 -2.03358 2.73603 0
M  V30 7005 H 694.707 -0.243173 2.98912 0
M  V30 7006 H 692.26 -0.0893139 1.56045 0
M  V30 7007 H 692.995 -2.59416 1.94612 0
M  V30 7008 H 692.78 -1.75186 3.50788 0
M  V30 7009 H 694.27 -2.69081 3.19351 0
M  V30 7010 N 694.707 -1.5719 -0.113559 0
M  V30 7011 C 696.118 -1.74259 -0.670116 0
M  V30 7012 C 696.469 -0.779694 -1.80042 0
M  V30 7013 O 695.594 0.0461353 -2.16351 0
M  V30 7014 C 696.189 -3.15981 -1.22236 0
M  V30 7015 C 694.748 -3.34537 -1.72516 0
M  V30 7016 C 693.895 -2.70116 -0.627098 0
M  V30 7017 H 696.846 -1.58301 0.112396 0
M  V30 7018 H 696.867 -3.17832 -2.09197 0
M  V30 7019 H 696.379 -3.86038 -0.39949 0
M  V30 7020 H 694.48 -2.6953 -2.57263 0
M  V30 7021 H 694.593 -4.42737 -1.83086 0
M  V30 7022 H 692.957 -2.31501 -1.06204 0
M  V30 7023 H 693.74 -3.42802 0.184889 0
M  V30 7024 O 696.224 0.257811 -1.59429 0
M  V30 7025 H 696.915 0.901882 -1.71423 0
M  V30 END ATOM
M  V30 BEGIN BOND
M  V30 END BOND
M  V30 END CTAB
M  END
$$$$
