drugbank_target|P56937 3-keto-steroid reductase (DB00157)
 OpenBabel12092119263D

  0  0  0     0  0            999 V3000
M  V30 BEGIN CTAB
M  V30 COUNTS 5412 5466 0 0 0
M  V30 BEGIN ATOM
M  V30 1 H -0.908 1.98254 -0.117106 0
M  V30 2 N 0 1.576 0 0
M  V30 3 C 0.933 2.03868 1.02534 0
M  V30 4 C 1.911 0.928543 1.3348 0
M  V30 5 O 3.095 1.19667 1.45644 0
M  V30 6 C 0.222 2.43627 2.35294 0
M  V30 7 C -0.732 3.65373 2.2001 0
M  V30 8 S 0.101 5.13292 1.52614 0
M  V30 9 C 1.257 5.56322 2.86805 0
M  V30 10 H 1.49 2.90518 0.631377 0
M  V30 11 H -0.977 1.52953 0.210867 0
M  V30 12 H 0.981 2.67203 3.11629 0
M  V30 13 H -0.358 1.57376 2.7183 0
M  V30 14 H -1.165 3.90944 3.18086 0
M  V30 15 H -1.563 3.418 1.51819 0
M  V30 16 H 0.729 5.58782 3.83104 0
M  V30 17 H 1.672 6.56266 2.65933 0
M  V30 18 H 2.08 4.83886 2.90714 0
M  V30 19 N 1.4781 -0.272755 1.55222 0
M  V30 20 C 2.8941 -0.619959 1.47067 0
M  V30 21 C 3.0941 -1.895 0.684978 0
M  V30 22 O 2.1501 -2.51675 0.203931 0
M  V30 23 C 3.4631 -0.746693 2.91282 0
M  V30 24 C 5.0111 -0.840731 3.01497 0
M  V30 25 C 5.4861 -0.99924 4.46967 0
M  V30 26 N 6.9771 -1.06476 4.50796 0
M  V30 27 C 7.7121 -1.20621 5.6057 0
M  V30 28 N 7.2081 -1.31483 6.80209 0
M  V30 29 N 9.0011 -1.23733 5.48312 0
M  V30 30 H 1.1521 0.564606 2.04758 0
M  V30 31 H 3.4151 0.191177 0.928523 0
M  V30 32 H 3.1211 0.119753 3.51496 0
M  V30 33 H 2.9951 -1.6269 3.40311 0
M  V30 34 H 5.3821 -1.69764 2.41379 0
M  V30 35 H 5.4631 0.0640874 2.5572 0
M  V30 36 H 5.1071 -0.146984 5.07687 0
M  V30 37 H 5.0371 -1.91871 4.90401 0
M  V30 38 H 7.5281 -0.993196 3.64615 0
M  V30 39 H 7.8411 -1.42111 7.59621 0
M  V30 40 H 6.1861 -1.28487 6.8302 0
M  V30 41 H 9.3771 -1.14877 4.53785 0
M  V30 42 H 9.5501 -1.34412 6.33906 0
M  V30 43 N 2.9562 -1.48159 -0.537278 0
M  V30 44 C 3.9032 -1.62138 -1.64256 0
M  V30 45 C 4.8732 -0.463668 -1.59497 0
M  V30 46 O 6.0582 -0.686241 -1.78032 0
M  V30 47 C 3.1982 -1.66028 -3.02537 0
M  V30 48 C 2.3112 -2.92855 -3.17585 0
M  V30 49 C 1.4462 -2.87952 -4.46382 0
M  V30 50 C 0.4852 -4.09516 -4.54932 0
M  V30 51 N -0.3778 -4.02733 -5.75109 0
M  V30 52 H 4.4622 -2.56529 -1.51647 0
M  V30 53 H 1.9992 -1.27224 -0.738414 0
M  V30 54 H 3.9572 -1.66265 -3.82638 0
M  V30 55 H 2.5872 -0.751331 -3.13934 0
M  V30 56 H 1.6392 -3.02395 -2.30784 0
M  V30 57 H 2.9512 -3.82822 -3.19764 0
M  V30 58 H 2.1052 -2.8655 -5.34765 0
M  V30 59 H 0.8442 -1.95702 -4.46712 0
M  V30 60 H -0.1508 -4.11201 -3.64957 0
M  V30 61 H 1.0742 -5.02917 -4.56346 0
M  V30 62 H -0.9798 -3.13299 -5.76351 0
M  V30 63 H -1.0628 -4.86397 -5.78752 0
M  V30 64 H 0.2052 -4.05379 -6.65799 0
M  V30 65 N 4.4343 0.785586 -1.36625 0
M  V30 66 C 5.6803 1.54591 -1.31261 0
M  V30 67 C 6.0133 1.93906 0.106823 0
M  V30 68 O 5.2883 1.63007 1.06108 0
M  V30 69 C 5.5713 2.82038 -2.23889 0
M  V30 70 C 5.4243 2.49066 -3.74548 0
M  V30 71 C 6.7433 3.83887 -2.15217 0
M  V30 72 H 3.8623 0.560846 -0.478143 0
M  V30 73 H 6.5043 0.902278 -1.67209 0
M  V30 74 H 4.6543 3.36961 -1.93363 0
M  V30 75 H 6.3263 2.00164 -4.15611 0
M  V30 76 H 4.5693 1.81954 -3.93796 0
M  V30 77 H 5.2403 3.40109 -4.34776 0
M  V30 78 H 7.7163 3.38421 -2.42096 0
M  V30 79 H 6.5923 4.70806 -2.82193 0
M  V30 80 H 6.8533 4.27131 -1.14068 0
M  V30 81 N 5.9124 1.20967 1.01018 0
M  V30 82 C 7.1584 1.02526 1.74975 0
M  V30 83 C 7.4914 -0.4408 1.89131 0
M  V30 84 O 6.7664 -1.32718 1.42184 0
M  V30 85 C 7.0494 1.71699 3.1653 0
M  V30 86 C 6.9024 3.25791 3.10129 0
M  V30 87 C 8.2214 1.45531 4.15342 0
M  V30 88 H 5.3404 0.373863 0.635134 0
M  V30 89 H 7.9824 1.49071 1.17805 0
M  V30 90 H 6.1324 1.32128 3.65341 0
M  V30 91 H 7.8044 3.74697 2.69072 0
M  V30 92 H 6.0474 3.56363 2.47362 0
M  V30 93 H 6.7184 3.69353 4.10222 0
M  V30 94 H 9.1944 1.79872 3.75213 0
M  V30 95 H 8.0704 1.96453 5.1254 0
M  V30 96 H 8.3314 0.384237 4.40427 0
M  V30 97 N 7.3905 -1.2043 1.01659 0
M  V30 98 C 8.3205 -2.25466 0.607226 0
M  V30 99 C 9.3015 -1.65853 -0.377716 0
M  V30 100 O 10.4865 -1.92409 -0.263149 0
M  V30 101 C 7.6165 -3.47256 -0.0552949 0
M  V30 102 C 6.5705 -4.19462 0.850632 0
M  V30 103 C 5.8965 -5.34673 0.0538859 0
M  V30 104 C 7.1965 -4.75603 2.15868 0
M  V30 105 H 8.8905 -2.59962 1.48526 0
M  V30 106 H 6.4365 -1.2496 0.715605 0
M  V30 107 H 8.3895 -4.19917 -0.353233 0
M  V30 108 H 7.1135 -3.11924 -0.968045 0
M  V30 109 H 5.7725 -3.48667 1.13257 0
M  V30 110 H 5.4205 -4.95585 -0.860514 0
M  V30 111 H 5.1205 -5.83913 0.657192 0
M  V30 112 H 6.6445 -6.10138 -0.237598 0
M  V30 113 H 8.0585 -5.40083 1.92311 0
M  V30 114 H 6.4555 -5.3528 2.71284 0
M  V30 115 H 7.5255 -3.94346 2.82169 0
M  V30 116 N 8.8686 -0.792821 -1.36206 0
M  V30 117 C 10.1176 -0.363353 -1.984 0
M  V30 118 C 10.4306 1.07172 -1.63626 0
M  V30 119 O 11.6366 1.60362 -2.19081 0
M  V30 120 C 10.0926 -0.59872 -3.54885 0
M  V30 121 C 9.7006 -2.04543 -3.9858 0
M  V30 122 C 11.4446 -0.233926 -4.23855 0
M  V30 123 C 9.3516 -2.22727 -5.47856 0
M  V30 124 H 8.2816 -0.13212 -0.742334 0
M  V30 125 H 10.9326 -0.974935 -1.55458 0
M  V30 126 H 9.3146 0.0826222 -3.95914 0
M  V30 127 H 10.4886 -2.76345 -3.68741 0
M  V30 128 H 8.8036 -2.36879 -3.42458 0
M  V30 129 H 11.4006 -0.348027 -5.33566 0
M  V30 130 H 11.7436 0.818351 -4.08177 0
M  V30 131 H 12.2766 -0.868639 -3.882 0
M  V30 132 H 9.0156 -3.2635 -5.68486 0
M  V30 133 H 8.5356 -1.55434 -5.7931 0
M  V30 134 H 10.2146 -2.03607 -6.14128 0
M  V30 135 N 10.3467 1.47872 -0.545128 0
M  V30 136 C 11.5747 2.06889 -0.021084 0
M  V30 137 C 11.9897 1.39955 1.2672 0
M  V30 138 O 11.3467 0.492036 1.75742 0
M  V30 139 C 11.3977 3.60996 0.190817 0
M  V30 140 O 11.1187 4.25419 -1.04644 0
M  V30 141 C 12.6197 4.36849 0.753521 0
M  V30 142 H 9.8397 0.669785 -0.0403635 0
M  V30 143 H 12.3837 1.90049 -0.755095 0
M  V30 144 H 10.5387 3.77391 0.87492 0
M  V30 145 H 10.9527 5.17785 -0.836611 0
M  V30 146 H 12.4267 5.45399 0.851139 0
M  V30 147 H 12.9037 4.02306 1.762 0
M  V30 148 H 13.5097 4.25169 0.105503 0
M  V30 149 N 11.8248 0.280983 1.55075 0
M  V30 150 C 13.0728 -0.333455 1.9933 0
M  V30 151 C 13.3938 -1.55937 1.17085 0
M  V30 152 O 12.6638 -1.94143 0.261805 0
M  V30 153 H 11.2438 -0.126197 0.736263 0
M  V30 154 H 13.9058 0.387678 1.91005 0
M  V30 155 H 13.0018 -0.619292 3.05894 0
M  V30 156 N 13.3029 -1.57598 0.00835791 0
M  V30 157 C 14.2659 -2.07884 -0.965242 0
M  V30 158 C 15.2659 -0.989825 -1.26725 0
M  V30 159 O 16.4559 -1.25218 -1.21104 0
M  V30 160 C 13.5879 -2.52731 -2.28779 0
M  V30 161 H 14.7809 -2.95178 -0.530112 0
M  V30 162 H 12.3339 -1.54458 -0.239283 0
M  V30 163 H 13.0689 -1.68705 -2.76964 0
M  V30 164 H 12.8539 -3.32272 -2.08177 0
M  V30 165 H 14.3439 -2.91933 -2.98605 0
M  V30 166 N 14.781 0.264519 -1.55364 0
M  V30 167 C 16.006 1.01726 -1.80739 0
M  V30 168 C 16.431 1.78836 -0.583044 0
M  V30 169 O 15.789 1.75167 0.467566 0
M  V30 170 C 15.837 1.94482 -3.03659 0
M  V30 171 O 14.941 3.03386 -2.7934 0
M  V30 172 H 14.282 0.290395 -0.597132 0
M  V30 173 H 16.812 0.290854 -2.02522 0
M  V30 174 H 16.822 2.36278 -3.32621 0
M  V30 175 H 15.497 1.37772 -3.92418 0
M  V30 176 H 14.074 2.65844 -2.61498 0
M  V30 177 N 16.2591 1.48442 0.529413 0
M  V30 178 C 17.4841 1.60406 1.31471 0
M  V30 179 C 17.9091 0.264738 1.86228 0
M  V30 180 O 17.2671 -0.763668 1.64432 0
M  V30 181 C 17.3151 2.65419 2.44101 0
M  V30 182 O 16.4191 2.22618 3.47153 0
M  V30 183 H 15.7601 0.537863 0.389357 0
M  V30 184 H 18.2901 1.94432 0.636965 0
M  V30 185 H 18.3001 2.86709 2.90279 0
M  V30 186 H 16.9751 3.62652 2.03608 0
M  V30 187 H 15.5521 2.11543 3.0709 0
M  V30 188 N 17.7372 -0.778329 1.37039 0
M  V30 189 C 18.9852 -1.53361 1.31623 0
M  V30 190 C 19.3062 -1.94739 -0.100831 0
M  V30 191 O 18.5762 -1.65797 -1.04347 0
M  V30 192 H 17.1562 -0.568794 0.484234 0
M  V30 193 H 19.8182 -0.926742 1.71457 0
M  V30 194 H 18.9142 -2.43606 1.95096 0
M  V30 195 N 19.2153 -1.21501 -1.00376 0
M  V30 196 C 20.4643 -1.02718 -1.73586 0
M  V30 197 C 20.7773 0.439589 -1.90596 0
M  V30 198 O 21.9833 0.746848 -2.61026 0
M  V30 199 C 20.4393 -1.78929 -3.1227 0
M  V30 200 C 20.0473 -3.29783 -3.03228 0
M  V30 201 C 21.7913 -1.68557 -3.89601 0
M  V30 202 C 19.6983 -3.98479 -4.36999 0
M  V30 203 H 18.6283 -0.380733 -0.650814 0
M  V30 204 H 21.2793 -1.45248 -1.1214 0
M  V30 205 H 19.6613 -1.29192 -3.74333 0
M  V30 206 H 20.8353 -3.86832 -2.50395 0
M  V30 207 H 19.1503 -3.40711 -2.39385 0
M  V30 208 H 21.7473 -2.17211 -4.88593 0
M  V30 209 H 22.0903 -0.644021 -4.11288 0
M  V30 210 H 22.6233 -2.15778 -3.34193 0
M  V30 211 H 19.3623 -5.02841 -4.20513 0
M  V30 212 H 18.8823 -3.46219 -4.89788 0
M  V30 213 H 20.5613 -4.03462 -5.05794 0
M  V30 214 N 20.6934 1.19889 -1.02296 0
M  V30 215 C 21.9414 1.89046 -0.714558 0
M  V30 216 C 22.2624 1.79636 0.758681 0
M  V30 217 O 21.5324 1.20292 1.54618 0
M  V30 218 H 20.1124 0.699802 -0.261317 0
M  V30 219 H 22.7744 1.45574 -1.29592 0
M  V30 220 H 21.8704 2.95524 -1.0036 0
M  V30 221 N 22.1715 0.800033 1.35784 0
M  V30 222 C 23.1015 0.220184 2.3246 0
M  V30 223 C 24.0825 -0.65073 1.57161 0
M  V30 224 O 25.2675 -0.582359 1.85263 0
M  V30 225 C 22.3975 -0.637353 3.41402 0
M  V30 226 C 21.3515 0.134531 4.27789 0
M  V30 227 C 20.6775 -0.844285 5.27992 0
M  V30 228 C 21.9775 1.32979 5.05088 0
M  V30 229 H 23.6715 1.02787 2.81203 0
M  V30 230 H 21.2175 0.495717 1.35199 0
M  V30 231 H 23.1705 -1.05302 4.08031 0
M  V30 232 H 21.8945 -1.47785 2.91251 0
M  V30 233 H 20.5535 0.531296 3.6273 0
M  V30 234 H 20.2015 -1.68011 4.74111 0
M  V30 235 H 19.9015 -0.332184 5.8666 0
M  V30 236 H 21.4255 -1.2583 5.97494 0
M  V30 237 H 22.8395 0.98934 5.64699 0
M  V30 238 H 21.2365 1.77593 5.7322 0
M  V30 239 H 22.3065 2.11978 4.36111 0
M  V30 240 N 23.6496 -1.47581 0.552962 0
M  V30 241 C 24.6126 -2.28439 -0.186605 0
M  V30 242 C 25.6126 -1.36706 -0.84665 0
M  V30 243 O 26.8026 -1.59378 -0.703164 0
M  V30 244 C 23.9346 -3.16264 -1.2724 0
M  V30 245 H 25.1276 -2.95294 0.523609 0
M  V30 246 H 22.6806 -1.532 0.309745 0
M  V30 247 H 23.4156 -2.54091 -2.01514 0
M  V30 248 H 23.2006 -3.83769 -0.803968 0
M  V30 249 H 24.6906 -3.77198 -1.79196 0
M  V30 250 N 25.1277 -0.289203 -1.54924 0
M  V30 251 C 26.0577 0.58549 -2.2604 0
M  V30 252 C 27.0387 1.14753 -1.25562 0
M  V30 253 O 28.2237 1.17906 -1.54311 0
M  V30 254 C 25.3537 1.76305 -2.99222 0
M  V30 255 C 24.3077 1.33191 -4.06748 0
M  V30 256 C 23.6337 2.5937 -4.6758 0
M  V30 257 C 24.9337 0.471775 -5.20165 0
M  V30 258 H 26.6277 -0.00763532 -2.99399 0
M  V30 259 H 24.1737 -0.00511229 -1.43999 0
M  V30 260 H 26.1267 2.38097 -3.47689 0
M  V30 261 H 24.8507 2.38223 -2.23422 0
M  V30 262 H 23.5097 0.737121 -3.59113 0
M  V30 263 H 23.1577 3.19576 -3.88433 0
M  V30 264 H 22.8577 2.31228 -5.40192 0
M  V30 265 H 24.3817 3.21985 -5.18804 0
M  V30 266 H 25.7957 0.995056 -5.64599 0
M  V30 267 H 24.1927 0.284639 -5.99425 0
M  V30 268 H 25.2627 -0.506041 -4.82252 0
M  V30 269 N 26.6058 1.57591 -0.0167156 0
M  V30 270 C 27.8458 1.93145 0.668902 0
M  V30 271 C 28.2098 0.892406 1.7 0
M  V30 272 O 29.4108 1.13373 2.43721 0
M  V30 273 C 27.6818 3.33678 1.28039 0
M  V30 274 S 29.2408 3.91142 1.9888 0
M  V30 275 H 26.0588 0.67593 0.220545 0
M  V30 276 H 28.6608 1.95347 -0.0774105 0
M  V30 277 H 27.3648 4.07126 0.517339 0
M  V30 278 H 26.8958 3.3489 2.06427 0
M  V30 279 H 28.9108 3.73571 3.26587 0
M  V30 280 N 28.0839 -0.256276 1.55502 0
M  V30 281 C 29.0309 -1.31714 1.89526 0
M  V30 282 C 30.0009 -1.4828 0.748479 0
M  V30 283 O 31.1859 -1.62416 1.00128 0
M  V30 284 C 28.3259 -2.66933 2.18725 0
M  V30 285 C 27.4389 -2.58452 3.4616 0
M  V30 286 C 26.5739 -3.85961 3.64976 0
M  V30 287 C 25.6129 -3.72059 4.86044 0
M  V30 288 N 24.7499 -4.9144 5.01429 0
M  V30 289 H 29.5899 -1.01998 2.80001 0
M  V30 290 H 27.1269 -0.492413 1.38613 0
M  V30 291 H 29.0849 -3.4563 2.33657 0
M  V30 292 H 27.7149 -2.94816 1.31466 0
M  V30 293 H 26.7669 -1.71374 3.3961 0
M  V30 294 H 28.0789 -2.44085 4.34999 0
M  V30 295 H 27.2329 -4.73101 3.79816 0
M  V30 296 H 25.9719 -4.03215 2.74353 0
M  V30 297 H 24.9769 -2.83302 4.7119 0
M  V30 298 H 26.2019 -3.56309 5.78118 0
M  V30 299 H 24.1479 -5.09072 4.13741 0
M  V30 300 H 24.0649 -4.79668 5.84341 0
M  V30 301 H 25.3329 -5.80104 5.20672 0
M  V30 302 N 29.562 -1.4872 -0.521534 0
M  V30 303 C 30.978 -1.35028 -0.850855 0
M  V30 304 C 31.178 -0.367712 -1.98116 0
M  V30 305 O 30.234 0.208037 -2.51642 0
M  V30 306 C 31.547 -2.75263 -1.21041 0
M  V30 307 C 33.095 -2.83813 -1.31981 0
M  V30 308 C 33.57 -4.24769 -1.71276 0
M  V30 309 N 35.061 -4.27482 -1.78363 0
M  V30 310 C 35.796 -5.33494 -2.1017 0
M  V30 311 N 35.292 -6.49775 -2.40343 0
M  V30 312 N 37.085 -5.20894 -2.11248 0
M  V30 313 H 29.236 -2.11214 0.22413 0
M  V30 314 H 31.499 -0.947252 0.0376439 0
M  V30 315 H 31.205 -3.48765 -0.453415 0
M  V30 316 H 31.079 -3.09327 -2.15863 0
M  V30 317 H 33.466 -2.10561 -2.06756 0
M  V30 318 H 33.547 -2.53358 -0.352596 0
M  V30 319 H 33.191 -4.9854 -0.970588 0
M  V30 320 H 33.121 -4.52673 -2.69062 0
M  V30 321 H 35.612 -3.43611 -1.57288 0
M  V30 322 H 35.925 -7.26402 -2.63743 0
M  V30 323 H 34.27 -6.53035 -2.37844 0
M  V30 324 H 37.461 -4.29065 -1.87139 0
M  V30 325 H 37.634 -6.03612 -2.35704 0
M  V30 326 N 31.0401 0.771051 -1.3745 0
M  V30 327 C 31.9701 1.89827 -1.3597 0
M  V30 328 C 32.9511 1.68562 -0.228216 0
M  V30 329 O 34.1361 1.8941 -0.428675 0
M  V30 330 C 31.2661 3.2712 -1.16662 0
M  V30 331 C 30.2201 3.6295 -2.2683 0
M  V30 332 C 29.5461 4.98791 -1.92644 0
M  V30 333 C 30.8461 3.69627 -3.69017 0
M  V30 334 H 32.5401 1.91323 -2.30295 0
M  V30 335 H 30.0861 0.919082 -1.10855 0
M  V30 336 H 32.0391 4.05615 -1.14256 0
M  V30 337 H 30.7631 3.26059 -0.187926 0
M  V30 338 H 29.4221 2.86763 -2.28392 0
M  V30 339 H 29.0701 4.94271 -0.933021 0
M  V30 340 H 28.7701 5.23733 -2.66416 0
M  V30 341 H 30.2941 5.79685 -1.91826 0
M  V30 342 H 31.7081 4.38273 -3.69581 0
M  V30 343 H 30.1051 4.06067 -4.41848 0
M  V30 344 H 31.1751 2.70273 -4.02592 0
M  V30 345 N 32.5182 1.22032 0.997298 0
M  V30 346 C 33.4482 1.01065 2.10495 0
M  V30 347 C 34.4292 -0.0669542 1.69968 0
M  V30 348 O 35.6142 0.0943987 1.9397 0
M  V30 349 C 32.7442 0.582874 3.42374 0
M  V30 350 C 31.6982 1.60592 3.96729 0
M  V30 351 C 31.0242 1.03412 5.24605 0
M  V30 352 C 32.3242 2.99478 4.27914 0
M  V30 353 H 34.0182 1.93708 2.28292 0
M  V30 354 H 31.5642 0.932761 1.09707 0
M  V30 355 H 33.5172 0.423332 4.19268 0
M  V30 356 H 32.2412 -0.379213 3.24391 0
M  V30 357 H 30.9002 1.75316 3.21963 0
M  V30 358 H 30.5482 0.063518 5.0296 0
M  V30 359 H 30.2482 1.71754 5.61938 0
M  V30 360 H 31.7722 0.886066 6.04137 0
M  V30 361 H 33.1862 2.88153 4.95622 0
M  V30 362 H 31.5832 3.64903 4.76409 0
M  V30 363 H 32.6532 3.49742 3.3587 0
M  V30 364 N 33.9963 -1.19345 1.0293 0
M  V30 365 C 34.9593 -2.20793 0.615069 0
M  V30 366 C 35.9593 -1.57553 -0.321533 0
M  V30 367 O 37.1493 -1.73862 -0.108483 0
M  V30 368 C 34.2813 -3.40754 -0.0999222 0
M  V30 369 H 35.4743 -2.58955 1.51269 0
M  V30 370 H 33.0273 -1.3303 0.820534 0
M  V30 371 H 33.7623 -3.0811 -1.01187 0
M  V30 372 H 33.5473 -3.87889 0.57309 0
M  V30 373 H 35.0373 -4.15898 -0.376645 0
M  V30 374 N 35.4744 -0.807222 -1.35358 0
M  V30 375 C 36.3844 -0.219594 -2.3357 0
M  V30 376 C 37.4004 0.637734 -1.61892 0
M  V30 377 O 38.5764 0.549336 -1.93763 0
M  V30 378 C 35.6414 0.62158 -3.41083 0
M  V30 379 C 34.7024 -0.256315 -4.28534 0
M  V30 380 C 33.9354 0.544807 -5.30912 0
M  V30 381 O 34.1584 1.77944 -5.41934 0
M  V30 382 O 33.0924 -0.0646478 -6.01865 0
M  V30 383 H 36.9184 -1.03208 -2.85625 0
M  V30 384 H 34.5034 -0.569025 -1.38139 0
M  V30 385 H 36.3854 1.10067 -4.06772 0
M  V30 386 H 35.0604 1.41165 -2.91297 0
M  V30 387 H 33.9674 -0.782559 -3.65823 0
M  V30 388 H 35.3004 -1.01034 -4.81719 0
M  V30 389 N 36.9525 1.47285 -0.560781 0
M  V30 390 C 38.2295 1.9558 0.0277798 0
M  V30 391 C 38.6095 1.5034 1.48192 0
M  V30 392 O 37.9575 0.743882 2.16052 0
M  V30 393 C 38.1675 3.48789 -0.121418 0
M  V30 394 C 39.5155 4.24594 0.0220912 0
M  V30 395 O 40.5395 3.56166 -0.0491439 0
M  V30 396 O 39.3985 5.46217 0.175958 0
M  V30 397 H 36.4925 0.824663 0.0621342 0
M  V30 398 H 39.0385 1.5767 -0.627556 0
M  V30 399 H 37.8105 3.74533 -1.13316 0
M  V30 400 H 37.4335 3.93473 0.571366 0
M  V30 401 N 38.4306 0.297415 1.54768 0
M  V30 402 C 39.7076 -0.365847 1.92148 0
M  V30 403 C 40.0876 -1.71975 1.22424 0
M  V30 404 O 39.4356 -2.25666 0.358739 0
M  V30 405 C 39.6456 -0.484056 3.45627 0
M  V30 406 C 40.9936 -0.756594 4.17805 0
M  V30 407 O 42.0176 -0.568007 3.51642 0
M  V30 408 O 40.8766 -1.11863 5.34929 0
M  V30 409 H 37.9706 -0.203919 0.801465 0
M  V30 410 H 40.5166 0.34521 1.66152 0
M  V30 411 H 39.2886 0.467865 3.88493 0
M  V30 412 H 38.9116 -1.24372 3.77647 0
M  V30 413 N 39.9087 -1.5758 0.0250728 0
M  V30 414 C 40.8187 -2.1343 -0.973905 0
M  V30 415 C 41.8347 -1.08556 -1.35984 0
M  V30 416 O 43.0107 -1.40592 -1.44207 0
M  V30 417 C 40.0757 -2.64703 -2.23904 0
M  V30 418 C 39.1367 -3.84276 -1.91391 0
M  V30 419 C 38.3697 -4.33095 -3.11873 0
M  V30 420 O 38.5927 -3.81107 -4.24398 0
M  V30 421 O 37.5267 -5.24984 -2.94406 0
M  V30 422 H 41.3527 -2.99057 -0.529036 0
M  V30 423 H 38.9377 -1.48118 -0.195288 0
M  V30 424 H 40.8197 -2.97769 -2.98181 0
M  V30 425 H 39.4947 -1.82161 -2.6758 0
M  V30 426 H 38.4017 -3.56143 -1.14511 0
M  V30 427 H 39.7347 -4.67968 -1.52534 0
M  V30 428 N 41.3868 0.248026 -1.55636 0
M  V30 429 C 42.3168 1.31079 -1.93237 0
M  V30 430 C 43.2978 1.50264 -0.797174 0
M  V30 431 O 44.4828 1.62891 -1.05737 0
M  V30 432 C 41.6128 2.66575 -2.22609 0
M  V30 433 C 40.5668 2.62087 -3.3837 0
M  V30 434 C 39.8928 4.01369 -3.53281 0
M  V30 435 C 41.1928 2.19171 -4.7409 0
M  V30 436 H 42.8868 0.998556 -2.82257 0
M  V30 437 H 40.4328 0.47891 -1.35803 0
M  V30 438 H 42.3858 3.41057 -2.47503 0
M  V30 439 H 41.1098 2.99432 -1.30414 0
M  V30 440 H 39.7688 1.90063 -3.13483 0
M  V30 441 H 39.4168 4.31489 -2.58508 0
M  V30 442 H 39.1168 3.99254 -4.31127 0
M  V30 443 H 40.6408 4.77552 -3.80495 0
M  V30 444 H 42.0548 2.83384 -4.98363 0
M  V30 445 H 40.4518 2.2817 -5.5503 0
M  V30 446 H 41.5218 1.14336 -4.71227 0
M  V30 447 N 42.8649 1.48995 0.513639 0
M  V30 448 C 43.8149 1.61127 1.61314 0
M  V30 449 C 44.7989 0.467521 1.53958 0
M  V30 450 O 45.9909 0.719826 1.61702 0
M  V30 451 C 43.1199 1.66937 2.99978 0
M  V30 452 C 42.2059 2.86847 3.12377 0
M  V30 453 N 42.5969 4.11078 2.94701 0
M  V30 454 C 40.8949 2.84521 3.43459 0
M  V30 455 C 41.5959 4.91615 3.10949 0
M  V30 456 N 40.5719 4.24739 3.3926 0
M  V30 457 H 44.3739 2.54909 1.46282 0
M  V30 458 H 41.8879 1.45593 0.719483 0
M  V30 459 H 43.8849 1.73725 3.78979 0
M  V30 460 H 42.5449 0.742831 3.16089 0
M  V30 461 H 43.5559 4.41258 2.71131 0
M  V30 462 H 40.2329 2.01192 3.65825 0
M  V30 463 H 41.6229 6.00264 3.01882 0
M  V30 464 N 44.343 -0.763751 1.37857 0
M  V30 465 C 45.273 -1.89103 1.36975 0
M  V30 466 C 46.254 -1.68439 0.237152 0
M  V30 467 O 47.439 -1.8918 0.438713 0
M  V30 468 C 44.569 -3.26496 1.18395 0
M  V30 469 C 43.523 -3.61741 2.28751 0
M  V30 470 C 42.849 -4.97762 1.95286 0
M  V30 471 C 44.149 -3.67665 3.70972 0
M  V30 472 H 45.843 -1.90099 2.31307 0
M  V30 473 H 43.389 -0.91319 1.11341 0
M  V30 474 H 45.342 -4.05003 1.16406 0
M  V30 475 H 44.066 -3.25955 0.205215 0
M  V30 476 H 42.725 -2.85547 2.29909 0
M  V30 477 H 42.373 -4.93769 0.959221 0
M  V30 478 H 42.073 -5.22313 2.69189 0
M  V30 479 H 43.597 -5.7866 1.94898 0
M  V30 480 H 45.011 -4.36307 3.719 0
M  V30 481 H 43.408 -4.03718 4.43995 0
M  V30 482 H 44.478 -2.68134 4.0402 0
M  V30 483 N 45.8211 -1.22559 -0.990812 0
M  V30 484 C 47.0611 -1.06302 -1.74583 0
M  V30 485 C 47.4251 0.394737 -1.87898 0
M  V30 486 O 48.6261 0.678214 -2.60103 0
M  V30 487 C 46.8971 -1.75699 -3.11231 0
M  V30 488 S 48.4561 -1.74882 -4.02445 0
M  V30 489 H 45.2741 -0.380639 -0.600529 0
M  V30 490 H 47.8761 -1.55532 -1.18449 0
M  V30 491 H 46.5801 -2.80923 -2.99183 0
M  V30 492 H 46.1111 -1.26708 -3.72436 0
M  V30 493 H 48.1261 -0.799997 -4.89709 0
M  V30 494 N 47.2992 1.18797 -1.03562 0
M  V30 495 C 48.2292 2.24472 -0.643019 0
M  V30 496 C 49.2102 1.66433 0.351283 0
M  V30 497 O 50.3952 1.92803 0.232505 0
M  V30 498 C 47.5252 3.473 4.24935e-05 0
M  V30 499 C 46.4792 4.18055 -0.917257 0
M  V30 500 C 45.8052 5.34519 -0.138941 0
M  V30 501 C 47.1052 4.72109 -2.23407 0
M  V30 502 H 48.7992 2.57566 -1.52643 0
M  V30 503 H 46.3452 1.23806 -0.735394 0
M  V30 504 H 48.2982 4.20426 0.286383 0
M  V30 505 H 47.0222 3.13424 0.918299 0
M  V30 506 H 45.6812 3.46821 -1.1879 0
M  V30 507 H 45.3292 4.96891 0.781562 0
M  V30 508 H 45.0292 5.82794 -0.750005 0
M  V30 509 H 46.5532 6.10438 0.1405 0
M  V30 510 H 47.9672 5.36955 -2.00879 0
M  V30 511 H 46.3642 5.30897 -2.79765 0
M  V30 512 H 47.4342 3.89807 -2.88407 0
M  V30 513 N 48.7773 0.814389 1.34928 0
M  V30 514 C 49.7403 0.235759 2.27984 0
M  V30 515 C 50.7403 -0.581412 1.49921 0
M  V30 516 O 51.9303 -0.398758 1.69575 0
M  V30 517 C 49.0623 -0.670433 3.34242 0
M  V30 518 H 50.2553 1.05659 2.80671 0
M  V30 519 H 47.8083 0.585614 1.44915 0
M  V30 520 H 48.5433 -1.51466 2.86755 0
M  V30 521 H 48.3283 -0.0860822 3.92005 0
M  V30 522 H 49.8183 -1.06935 4.03676 0
M  V30 523 N 50.2554 -1.46986 0.568584 0
M  V30 524 C 51.4954 -2.04336 0.0512999 0
M  V30 525 C 51.8594 -1.43214 -1.27881 0
M  V30 526 O 53.0604 -1.91679 -1.88448 0
M  V30 527 C 51.3314 -3.57389 -0.0282328 0
M  V30 528 S 52.8904 -4.36056 -0.489991 0
M  V30 529 H 49.7084 -0.71034 0.0306349 0
M  V30 530 H 52.3104 -1.80212 0.757891 0
M  V30 531 H 51.0144 -3.99395 0.944011 0
M  V30 532 H 50.5454 -3.86028 -0.75803 0
M  V30 533 H 52.5604 -4.6441 -1.74752 0
M  V30 534 N 51.7335 -0.305618 -1.54608 0
M  V30 535 C 53.1495 0.0476228 -1.59529 0
M  V30 536 C 53.3495 1.52025 -1.32252 0
M  V30 537 O 52.4055 2.27368 -1.09818 0
M  V30 538 C 53.7185 -0.354471 -2.98603 0
M  V30 539 C 55.2665 -0.303622 -3.11524 0
M  V30 540 C 55.7415 -0.680608 -4.52915 0
M  V30 541 N 57.2325 -0.63332 -4.5885 0
M  V30 542 C 57.9675 -0.897432 -5.66334 0
M  V30 543 N 57.4635 -1.22775 -6.81834 0
M  V30 544 N 59.2565 -0.824186 -5.56025 0
M  V30 545 H 51.4075 -1.2653 -1.70599 0
M  V30 546 H 53.6705 -0.513291 -0.797017 0
M  V30 547 H 53.3765 -1.3798 -3.23503 0
M  V30 548 H 53.2505 0.289568 -3.76087 0
M  V30 549 H 55.6375 0.712472 -2.8637 0
M  V30 550 H 55.7185 -0.982348 -2.36185 0
M  V30 551 H 55.3625 -1.69453 -4.78799 0
M  V30 552 H 55.2925 0.0202385 -5.26596 0
M  V30 553 H 57.7835 -0.389138 -3.75891 0
M  V30 554 H 58.0965 -1.41513 -7.59733 0
M  V30 555 H 56.4415 -1.26583 -6.83375 0
M  V30 556 H 59.6325 -0.565748 -4.64669 0
M  V30 557 H 59.8055 -1.03338 -6.39707 0
M  V30 558 N 53.2116 1.57565 -0.0334293 0
M  V30 559 C 54.1596 2.1164 0.96496 0
M  V30 560 C 55.1536 1.04398 1.33407 0
M  V30 561 O 56.3596 1.22828 1.3158 0
M  V30 562 H 52.7346 0.676222 0.32898 0
M  V30 563 H 54.7056 2.94455 0.483614 0
M  V30 564 C 53.4546 2.66207 2.23672 0
M  V30 565 H 52.7776 3.48378 1.96145 0
M  V30 566 H 54.2176 3.07685 2.9173 0
M  V30 567 C 52.6766 1.59151 2.96939 0
M  V30 568 O 53.2066 0.993858 3.89211 0
M  V30 569 N 51.4126 1.31093 2.59351 0
M  V30 570 H 50.9596 1.7988 1.84393 0
M  V30 571 H 50.9176 0.596889 3.08682 0
M  V30 572 N 54.6897 -0.239769 1.55765 0
M  V30 573 C 55.6227 -1.32356 1.85895 0
M  V30 574 C 56.6007 -1.46053 0.714662 0
M  V30 575 O 57.7847 -1.62154 0.961157 0
M  V30 576 C 54.9117 -2.6962 2.04994 0
M  V30 577 C 53.9577 -2.73036 3.27648 0
M  V30 578 S 54.7907 -2.28929 4.84099 0
M  V30 579 C 55.9467 -3.68103 5.06212 0
M  V30 580 H 56.1797 -1.06601 2.77531 0
M  V30 581 H 53.7127 -0.441112 1.47965 0
M  V30 582 H 55.6707 -3.48653 2.16682 0
M  V30 583 H 54.3317 -2.92609 1.14188 0
M  V30 584 H 53.5247 -3.7386 3.38 0
M  V30 585 H 53.1267 -2.02052 3.14723 0
M  V30 586 H 55.4187 -4.63656 4.93993 0
M  V30 587 H 56.3617 -3.6268 6.08168 0
M  V30 588 H 56.7697 -3.60947 4.34025 0
M  V30 589 N 56.1678 -1.49265 -0.50573 0
M  V30 590 C 57.3928 -1.62478 -1.28902 0
M  V30 591 C 57.8178 -0.294332 -1.85783 0
M  V30 592 O 57.1758 0.737412 -1.65626 0
M  V30 593 C 57.2238 -2.69268 -2.39848 0
M  V30 594 O 56.3278 -2.28113 -3.43567 0
M  V30 595 H 55.6688 -0.54399 -0.380751 0
M  V30 596 H 58.1988 -1.95421 -0.605952 0
M  V30 597 H 58.2088 -2.91291 -2.85681 0
M  V30 598 H 56.8838 -3.65846 -1.97812 0
M  V30 599 H 55.4608 -2.16401 -3.03685 0
M  V30 600 N 57.6459 0.756429 -1.3826 0
M  V30 601 C 58.5929 1.87011 -1.35261 0
M  V30 602 C 59.5629 1.64695 -0.215616 0
M  V30 603 O 60.7479 1.864 -0.407399 0
M  V30 604 C 57.8879 3.24275 -1.18068 0
M  V30 605 C 57.0009 3.58442 -2.41129 0
M  V30 606 C 56.1359 4.84994 -2.16689 0
M  V30 607 C 55.1749 5.11939 -3.35537 0
M  V30 608 N 54.3119 6.29685 -3.10549 0
M  V30 609 H 59.1519 1.8891 -2.30472 0
M  V30 610 H 56.6889 0.923373 -1.14509 0
M  V30 611 H 58.6469 4.03479 -1.06116 0
M  V30 612 H 57.2769 3.21711 -0.264973 0
M  V30 613 H 56.3289 2.74103 -2.63764 0
M  V30 614 H 57.6409 3.74283 -3.29717 0
M  V30 615 H 56.7949 5.72135 -2.01857 0
M  V30 616 H 55.5339 4.71286 -1.25462 0
M  V30 617 H 54.5389 4.23268 -3.50891 0
M  V30 618 H 55.7639 5.27546 -4.27635 0
M  V30 619 H 53.7099 6.17306 -2.21967 0
M  V30 620 H 53.6269 6.46014 -3.92686 0
M  V30 621 H 54.8949 7.19722 -2.99367 0
M  V30 622 N 59.124 1.23083 0.984299 0
M  V30 623 C 60.087 1.00979 2.05757 0
M  V30 624 C 61.087 -0.0269573 1.60777 0
M  V30 625 O 62.277 0.212403 1.729 0
M  V30 626 C 59.409 0.527072 3.36801 0
M  V30 627 H 60.602 1.9622 2.26799 0
M  V30 628 H 58.155 1.05072 1.15714 0
M  V30 629 H 58.89 -0.429294 3.21446 0
M  V30 630 H 58.675 1.27515 3.70786 0
M  V30 631 H 60.165 0.392942 4.15747 0
M  V30 632 N 60.6021 -1.18246 1.0419 0
M  V30 633 C 61.5121 -2.25574 0.644476 0
M  V30 634 C 62.5281 -1.70845 -0.329826 0
M  V30 635 O 63.7041 -2.00554 -0.184443 0
M  V30 636 C 60.7691 -3.46697 0.014877 0
M  V30 637 C 59.8301 -4.16554 1.03834 0
M  V30 638 C 59.0631 -5.31894 0.438692 0
M  V30 639 O 59.2861 -5.65385 -0.754752 0
M  V30 640 O 58.2201 -5.90459 1.168 0
M  V30 641 H 62.0461 -2.61836 1.53869 0
M  V30 642 H 59.6311 -1.25352 0.812854 0
M  V30 643 H 61.5131 -4.20062 -0.335538 0
M  V30 644 H 60.1881 -3.12255 -0.853138 0
M  V30 645 H 59.0951 -3.45251 1.44057 0
M  V30 646 H 60.4281 -4.54998 1.87716 0
M  V30 647 N 62.0802 -0.821533 -1.34494 0
M  V30 648 C 63.0432 -0.247847 -2.27856 0
M  V30 649 C 64.0432 0.573453 -1.50227 0
M  V30 650 O 65.2332 0.389759 -1.69784 0
M  V30 651 C 62.3652 0.652698 -3.34593 0
M  V30 652 H 63.5582 -1.07146 -2.80107 0
M  V30 653 H 61.1112 -0.593291 -1.44602 0
M  V30 654 H 61.8462 1.49943 -2.87555 0
M  V30 655 H 61.6312 0.065292 -3.92046 0
M  V30 656 H 63.1212 1.04793 -4.04238 0
M  V30 657 N 63.5583 1.46682 -0.576371 0
M  V30 658 C 64.8043 2.02712 -0.0596221 0
M  V30 659 C 65.1373 1.44765 1.29448 0
M  V30 660 O 64.4123 0.610355 1.84675 0
M  V30 661 C 64.6953 3.60098 0.0129503 0
M  V30 662 C 64.5483 4.28441 -1.3696 0
M  V30 663 C 65.8673 4.34224 0.71678 0
M  V30 664 H 62.9863 0.736637 -0.0231407 0
M  V30 665 H 65.6283 1.74898 -0.742351 0
M  V30 666 H 63.7783 3.83926 0.594378 0
M  V30 667 H 65.4503 4.15896 -1.9957 0
M  V30 668 H 63.6933 3.8805 -1.93907 0
M  V30 669 H 64.3643 5.3716 -1.27135 0
M  V30 670 H 66.8403 4.15503 0.222908 0
M  V30 671 H 65.7163 5.43936 0.73657 0
M  V30 672 H 65.9773 4.04823 1.77682 0
M  V30 673 N 65.0364 0.313813 1.54444 0
M  V30 674 C 66.2764 -0.292389 2.02298 0
M  V30 675 C 66.6404 -1.50105 1.19719 0
M  V30 676 O 67.8414 -2.17947 1.5733 0
M  V30 677 C 66.1124 -0.627682 3.51845 0
M  V30 678 S 67.6714 -1.21493 4.21646 0
M  V30 679 H 64.4894 -0.0890247 0.705405 0
M  V30 680 H 67.0914 0.444668 1.90376 0
M  V30 681 H 65.7954 0.260265 4.09574 0
M  V30 682 H 65.3264 -1.39519 3.67829 0
M  V30 683 H 67.3414 -2.5022 4.28491 0
M  V30 684 N 66.5145 -1.57545 0.0417849 0
M  V30 685 C 67.4775 -2.09885 -0.92093 0
M  V30 686 C 68.4775 -1.01648 -1.24596 0
M  V30 687 O 69.6675 -1.27759 -1.1842 0
M  V30 688 C 66.7995 -2.57527 -2.23367 0
M  V30 689 H 67.9925 -2.96236 -0.467382 0
M  V30 690 H 65.5455 -1.5493 -0.206467 0
M  V30 691 H 66.2805 -1.74542 -2.73323 0
M  V30 692 H 66.0655 -3.36613 -2.01083 0
M  V30 693 H 67.5555 -2.98201 -2.92346 0
M  V30 694 N 67.9926 0.231505 -1.5589 0
M  V30 695 C 68.9556 1.27028 -1.90779 0
M  V30 696 C 69.9556 1.40308 -0.785507 0
M  V30 697 O 71.1456 1.38744 -1.05336 0
M  V30 698 C 68.2776 2.64566 -2.14983 0
M  V30 699 H 69.4706 0.973017 -2.83677 0
M  V30 700 H 67.0236 0.471486 -1.49019 0
M  V30 701 H 67.7586 2.99406 -1.24604 0
M  V30 702 H 67.5436 2.56305 -2.96732 0
M  V30 703 H 69.0336 3.39543 -2.43105 0
M  V30 704 N 69.4707 1.49531 0.497807 0
M  V30 705 C 70.4007 1.6935 1.60757 0
M  V30 706 C 71.3817 0.542218 1.61227 0
M  V30 707 O 72.5667 0.778417 1.77917 0
M  V30 708 C 69.6967 1.76298 2.99226 0
M  V30 709 C 68.6507 2.91248 3.13622 0
M  V30 710 C 67.9767 2.83312 4.53474 0
M  V30 711 C 69.2767 4.3214 2.93346 0
M  V30 712 H 70.9707 2.62263 1.44425 0
M  V30 713 H 68.5167 1.26208 0.693367 0
M  V30 714 H 70.4697 1.88749 3.76765 0
M  V30 715 H 69.1937 0.799871 3.16654 0
M  V30 716 H 67.8527 2.78404 2.38509 0
M  V30 717 H 67.5007 1.84902 4.67782 0
M  V30 718 H 67.2007 3.60465 4.64046 0
M  V30 719 H 68.7247 2.97775 5.33069 0
M  V30 720 H 70.1387 4.45649 3.60652 0
M  V30 721 H 68.5357 5.1054 3.15387 0
M  V30 722 H 69.6057 4.46363 1.89441 0
M  V30 723 N 70.9488 -0.749086 1.3866 0
M  V30 724 C 71.8788 -1.8764 1.38973 0
M  V30 725 C 72.8598 -1.68178 0.255004 0
M  V30 726 O 74.0448 -1.88704 0.458754 0
M  V30 727 C 71.1748 -3.25222 1.21851 0
M  V30 728 C 70.1288 -3.59295 2.32575 0
M  V30 729 C 69.4548 -4.95663 2.00555 0
M  V30 730 C 70.7548 -3.63709 3.7485 0
M  V30 731 H 72.4488 -1.87635 2.3331 0
M  V30 732 H 69.9948 -0.901329 1.12303 0
M  V30 733 H 71.9478 -4.03746 1.20695 0
M  V30 734 H 70.6718 -3.25719 0.239775 0
M  V30 735 H 69.3308 -2.83093 2.32925 0
M  V30 736 H 68.9788 -4.92724 1.01154 0
M  V30 737 H 68.6788 -5.19429 2.74714 0
M  V30 738 H 70.2028 -5.7656 2.01024 0
M  V30 739 H 71.6168 -4.32338 3.76506 0
M  V30 740 H 70.0138 -3.98986 4.48252 0
M  V30 741 H 71.0838 -2.63834 4.06841 0
M  V30 742 N 72.4269 -1.23603 -0.977757 0
M  V30 743 C 73.3899 -1.02069 -2.05218 0
M  V30 744 C 74.3899 0.0184305 -1.60789 0
M  V30 745 O 75.5799 -0.221569 -1.72785 0
M  V30 746 C 72.7119 -0.544926 -3.36517 0
M  V30 747 H 73.9049 -1.9742 -2.25755 0
M  V30 748 H 71.4579 -1.05684 -1.15155 0
M  V30 749 H 72.1929 0.412241 -3.21669 0
M  V30 750 H 71.9779 -1.2948 -3.70105 0
M  V30 751 H 73.4679 -0.414985 -4.15533 0
M  V30 752 N 73.905 1.17692 -1.04816 0
M  V30 753 C 75.13 1.92327 -0.776207 0
M  V30 754 C 75.555 1.76082 0.661581 0
M  V30 755 O 74.913 1.076 1.45917 0
M  V30 756 C 74.961 3.41539 -1.15687 0
M  V30 757 O 74.065 4.11402 -0.286775 0
M  V30 758 H 73.406 0.599735 -0.284981 0
M  V30 759 H 75.936 1.49201 -1.4 0
M  V30 760 H 75.946 3.92269 -1.12202 0
M  V30 761 H 74.621 3.52684 -2.20425 0
M  V30 762 H 73.198 3.70939 -0.381903 0
M  V30 763 N 75.3831 0.828654 1.34056 0
M  V30 764 C 76.3331 0.226828 2.26869 0
M  V30 765 C 77.3171 -0.612243 1.48796 0
M  V30 766 O 78.5091 -0.465884 1.70759 0
M  V30 767 C 75.6381 -0.605654 3.37915 0
M  V30 768 C 74.7241 0.244361 4.23395 0
M  V30 769 N 75.1151 1.31815 4.88322 0
M  V30 770 C 73.4131 0.0296616 4.4599 0
M  V30 771 C 74.1141 1.83895 5.51867 0
M  V30 772 N 73.0901 1.14196 5.3147 0
M  V30 773 H 76.8921 1.04811 2.74576 0
M  V30 774 H 74.4061 0.67205 1.47842 0
M  V30 775 H 76.4031 -1.05302 4.03382 0
M  V30 776 H 75.0631 -1.42504 2.91758 0
M  V30 777 H 76.0741 1.70099 4.8917 0
M  V30 778 H 72.7511 -0.757097 4.10578 0
M  V30 779 H 74.1411 2.7376 6.136 0
M  V30 780 N 76.8612 -1.46375 0.584142 0
M  V30 781 C 78.2722 -1.86031 0.157959 0
M  V30 782 C 78.6232 -1.48753 -1.27933 0
M  V30 783 O 77.7482 -0.903098 -1.96655 0
M  V30 784 C 78.3432 -3.37642 0.279892 0
M  V30 785 C 76.9022 -3.76289 -0.09143 0
M  V30 786 C 76.0492 -2.7039 0.615178 0
M  V30 787 H 79.0002 -1.37509 0.792274 0
M  V30 788 H 79.0212 -3.77275 -0.494364 0
M  V30 789 H 78.5332 -3.64742 1.32607 0
M  V30 790 H 76.6342 -3.54806 -1.13769 0
M  V30 791 H 76.7472 -4.78246 0.285886 0
M  V30 792 H 75.1112 -2.5464 0.0552833 0
M  V30 793 H 75.8942 -3.0033 1.66303 0
M  V30 794 N 78.3393 -0.321999 -1.54275 0
M  V30 795 C 79.5673 0.283052 -2.04955 0
M  V30 796 C 79.9823 1.45904 -1.19823 0
M  V30 797 O 79.3393 1.81063 -0.228545 0
M  V30 798 C 79.3903 0.719028 -3.54277 0
M  V30 799 O 79.1113 -0.410175 -4.36176 0
M  V30 800 C 80.6123 1.38705 -4.21041 0
M  V30 801 H 77.8323 0.0584616 -0.668448 0
M  V30 802 H 80.3763 -0.467734 -1.99079 0
M  V30 803 H 78.5313 1.41979 -3.60445 0
M  V30 804 H 78.9453 -0.0669416 -5.24457 0
M  V30 805 H 80.4193 1.64306 -5.2698 0
M  V30 806 H 80.8963 2.33385 -3.72059 0
M  V30 807 H 81.5023 0.728906 -4.19007 0
M  V30 808 N 79.8174 1.5752 -0.0501392 0
M  V30 809 C 80.7804 2.1037 0.909786 0
M  V30 810 C 81.7804 1.02308 1.24056 0
M  V30 811 O 82.9704 1.28385 1.17741 0
M  V30 812 C 80.1024 2.58708 2.21998 0
M  V30 813 H 81.2954 2.96479 0.451665 0
M  V30 814 H 78.8484 1.55038 0.198248 0
M  V30 815 H 79.5834 1.75989 2.72394 0
M  V30 816 H 79.3684 3.37675 1.99295 0
M  V30 817 H 80.8584 2.99747 2.9076 0
M  V30 818 N 81.2955 -0.223234 1.56011 0
M  V30 819 C 82.2055 -1.29766 1.95443 0
M  V30 820 C 83.2215 -1.51373 0.858028 0
M  V30 821 O 84.3975 -1.64536 1.16146 0
M  V30 822 C 81.4625 -2.62772 2.26167 0
M  V30 823 C 80.5235 -2.49482 3.49367 0
M  V30 824 C 79.7565 -3.76145 3.78616 0
M  V30 825 O 79.9795 -4.79087 3.09568 0
M  V30 826 O 78.9135 -3.73358 4.72109 0
M  V30 827 H 82.7395 -0.99309 2.87004 0
M  V30 828 H 80.3245 -0.425958 1.43199 0
M  V30 829 H 82.2065 -3.41327 2.47131 0
M  V30 830 H 80.8815 -2.92913 1.37781 0
M  V30 831 H 79.7885 -1.69133 3.33684 0
M  V30 832 H 81.1215 -2.2428 4.38131 0
M  V30 833 N 82.7736 -1.49793 -0.48987 0
M  V30 834 C 84.0196 -1.60078 -1.24511 0
M  V30 835 C 84.3526 -0.291608 -1.91998 0
M  V30 836 O 83.6276 0.705647 -1.81248 0
M  V30 837 C 83.9106 -2.76791 -2.30345 0
M  V30 838 C 83.7636 -4.17535 -1.67286 0
M  V30 839 C 85.0826 -2.89111 -3.31817 0
M  V30 840 H 82.2016 -0.582645 -0.451324 0
M  V30 841 H 84.8436 -1.82117 -0.541612 0
M  V30 842 H 82.9936 -2.5813 -2.90346 0
M  V30 843 H 84.6656 -4.4774 -1.11026 0
M  V30 844 H 82.9086 -4.22665 -0.976577 0
M  V30 845 H 83.5796 -4.95094 -2.44103 0
M  V30 846 H 86.0556 -3.06133 -2.81819 0
M  V30 847 H 84.9316 -3.72433 -4.03219 0
M  V30 848 H 85.1926 -1.9893 -3.94815 0
M  V30 849 N 84.2517 0.741722 -1.39055 0
M  V30 850 C 85.4797 1.53098 -1.39171 0
M  V30 851 C 85.8947 1.88794 0.0155099 0
M  V30 852 O 85.2517 1.53626 0.985159 0
M  V30 853 C 85.3027 2.82274 -2.2584 0
M  V30 854 O 85.0237 2.48097 -3.61081 0
M  V30 855 C 86.5247 3.76343 -2.34266 0
M  V30 856 H 83.7447 0.473335 -0.4756 0
M  V30 857 H 86.2887 0.917045 -1.82785 0
M  V30 858 H 84.4437 3.40015 -1.85656 0
M  V30 859 H 84.8577 3.31029 -4.06842 0
M  V30 860 H 86.3317 4.63898 -2.9917 0
M  V30 861 H 86.8087 4.17619 -1.35982 0
M  V30 862 H 87.4147 3.24523 -2.74891 0
M  V30 863 N 85.7298 1.2412 0.971189 0
M  V30 864 C 86.9788 1.07284 1.70801 0
M  V30 865 C 87.2918 -0.388902 1.91695 0
M  V30 866 O 88.4978 -0.677379 2.62914 0
M  V30 867 C 86.9538 1.87145 3.07416 0
M  V30 868 C 86.5618 3.37707 2.94377 0
M  V30 869 C 88.3058 1.78828 3.84995 0
M  V30 870 C 86.2128 4.09925 4.26281 0
M  V30 871 H 85.1428 0.397854 0.64049 0
M  V30 872 H 87.7938 1.4817 1.0825 0
M  V30 873 H 86.1758 1.39071 3.70777 0
M  V30 874 H 87.3498 3.93335 2.4005 0
M  V30 875 H 85.6648 3.46938 2.30267 0
M  V30 876 H 88.2618 2.30089 4.82662 0
M  V30 877 H 88.6048 0.75284 4.09436 0
M  V30 878 H 89.1378 2.24563 3.28354 0
M  V30 879 H 85.8768 5.13813 4.07033 0
M  V30 880 H 85.3968 3.59083 4.80437 0
M  V30 881 H 87.0758 4.1673 4.94919 0
M  V30 882 N 87.2079 -1.17134 1.05439 0
M  V30 883 C 88.4539 -1.87733 0.767077 0
M  V30 884 C 88.7869 -1.8098 -0.704253 0
M  V30 885 O 88.0619 -1.21951 -1.5152 0
M  V30 886 C 88.3449 -3.37659 1.25133 0
M  V30 887 C 88.1979 -3.53149 2.78578 0
M  V30 888 C 89.5169 -4.31768 0.852324 0
M  V30 889 H 86.6359 -0.681687 0.280129 0
M  V30 890 H 89.2779 -1.37732 1.30881 0
M  V30 891 H 87.4279 -3.80373 0.790469 0
M  V30 892 H 89.0999 -3.19434 3.32806 0
M  V30 893 H 87.3429 -2.95345 3.17732 0
M  V30 894 H 88.0139 -4.58403 3.07523 0
M  V30 895 H 90.4899 -3.96909 1.24911 0
M  V30 896 H 89.3659 -5.35199 1.21873 0
M  V30 897 H 89.6269 -4.41429 -0.243485 0
M  V30 898 N 88.686 -0.835752 -1.33615 0
M  V30 899 C 89.618 -0.224151 -2.28101 0
M  V30 900 C 90.631 0.593331 -1.51603 0
M  V30 901 O 91.82 0.420911 -1.73466 0
M  V30 902 C 88.92 0.703309 -3.31522 0
M  V30 903 C 88.093 -0.0741528 -4.37337 0
M  V30 904 C 87.152 0.776176 -5.20444 0
M  V30 905 O 86.178 0.216506 -5.68788 0
M  V30 906 N 87.38 2.09401 -5.41416 0
M  V30 907 H 90.145 -1.03598 -2.81225 0
M  V30 908 H 87.706 -0.69392 -1.46275 0
M  V30 909 H 89.698 1.27707 -3.84022 0
M  V30 910 H 88.268 1.41585 -2.78698 0
M  V30 911 H 87.488 -0.82928 -3.85378 0
M  V30 912 H 88.776 -0.608863 -5.05144 0
M  V30 913 H 88.174 2.57229 -5.03835 0
M  V30 914 H 86.731 2.61633 -5.96985 0
M  V30 915 N 90.1641 1.46063 -0.591896 0
M  V30 916 C 91.4101 2.02638 -0.0811191 0
M  V30 917 C 91.7431 1.4613 1.27905 0
M  V30 918 O 91.0181 0.629908 1.84017 0
M  V30 919 C 91.3011 3.60091 -0.0252436 0
M  V30 920 C 91.1541 4.26965 -1.41496 0
M  V30 921 C 92.4731 4.3496 0.670685 0
M  V30 922 H 89.5921 0.73635 -0.0309524 0
M  V30 923 H 92.2341 1.741 -0.760859 0
M  V30 924 H 90.3841 3.84535 0.553624 0
M  V30 925 H 92.0561 4.13756 -2.0397 0
M  V30 926 H 90.2991 3.85971 -1.98011 0
M  V30 927 H 90.9701 5.35781 -1.32825 0
M  V30 928 H 93.4461 4.15716 0.178825 0
M  V30 929 H 92.3221 5.44686 0.678837 0
M  V30 930 H 92.5831 4.06685 1.73379 0
M  V30 931 N 91.6422 0.330177 1.54103 0
M  V30 932 C 92.9192 -0.325007 1.92881 0
M  V30 933 C 93.2992 -1.6934 1.26045 0
M  V30 934 O 92.6472 -2.24855 0.406526 0
M  V30 935 C 92.8572 -0.410634 3.46576 0
M  V30 936 C 94.2052 -0.667801 4.19316 0
M  V30 937 O 95.2292 -0.49329 3.52768 0
M  V30 938 O 94.0882 -1.00491 5.37181 0
M  V30 939 H 91.1822 -0.186873 0.80561 0
M  V30 940 H 93.7282 0.380376 1.65382 0
M  V30 941 H 92.5002 0.550164 3.87413 0
M  V30 942 H 92.1232 -1.16333 3.802 0
M  V30 943 N 93.1203 -1.57491 0.0584922 0
M  V30 944 C 94.3663 -1.93264 -0.614558 0
M  V30 945 C 94.6993 -0.937717 -1.7006 0
M  V30 946 O 93.9743 0.0351652 -1.94468 0
M  V30 947 C 94.2573 -3.3938 -1.20386 0
M  V30 948 C 94.1103 -4.49625 -0.125375 0
M  V30 949 C 95.4293 -3.86039 -2.11334 0
M  V30 950 H 92.5483 -0.702791 -0.221933 0
M  V30 951 H 95.1903 -1.8961 0.12175 0
M  V30 952 H 93.3403 -3.42626 -1.83139 0
M  V30 953 H 95.0123 -4.58506 0.506971 0
M  V30 954 H 93.2553 -4.30354 0.545672 0
M  V30 955 H 93.9263 -5.48967 -0.577861 0
M  V30 956 H 96.4023 -3.84716 -1.58534 0
M  V30 957 H 95.2783 -4.88914 -2.49507 0
M  V30 958 H 95.5393 -3.23215 -3.01636 0
M  V30 959 N 94.5984 0.214957 -1.56127 0
M  V30 960 C 95.8234 0.95924 -1.83884 0
M  V30 961 C 96.2484 1.7689 -0.639644 0
M  V30 962 O 95.6064 1.76566 0.411601 0
M  V30 963 C 95.6544 1.84723 -3.09693 0
M  V30 964 O 94.7584 2.94346 -2.8885 0
M  V30 965 H 94.0994 0.27125 -0.606069 0
M  V30 966 H 96.6294 0.226276 -2.03345 0
M  V30 967 H 96.6394 2.25576 -3.39969 0
M  V30 968 H 95.3144 1.25218 -3.96602 0
M  V30 969 H 93.8914 2.57391 -2.69823 0
M  V30 970 N 96.0765 1.50051 0.48192 0
M  V30 971 C 97.0245 1.68635 1.60203 0
M  V30 972 C 98.0185 0.552184 1.60148 0
M  V30 973 O 99.2245 0.732377 1.64427 0
M  V30 974 H 95.5995 0.532081 0.531407 0
M  V30 975 H 97.5705 2.62616 1.41688 0
M  V30 976 C 96.3195 1.78775 2.9822 0
M  V30 977 H 95.6425 2.6543 2.98976 0
M  V30 978 H 97.0825 1.95806 3.7608 0
M  V30 979 C 95.5415 0.536849 3.32595 0
M  V30 980 O 96.0715 -0.328897 4.00351 0
M  V30 981 N 94.2775 0.394091 2.87915 0
M  V30 982 H 93.8245 1.09962 2.32951 0
M  V30 983 H 93.7825 -0.441737 3.11281 0
M  V30 984 N 97.5546 -0.734337 1.39446 0
M  V30 985 C 98.4846 -1.86155 1.40955 0
M  V30 986 C 99.4656 -1.67898 0.272827 0
M  V30 987 O 100.651 -1.88207 0.478743 0
M  V30 988 C 97.7806 -3.23912 1.25294 0
M  V30 989 C 96.7346 -3.56808 2.36373 0
M  V30 990 C 96.0606 -4.93508 2.058 0
M  V30 991 C 97.3606 -3.59713 3.78687 0
M  V30 992 H 99.0546 -1.8515 2.35287 0
M  V30 993 H 96.6006 -0.889367 1.13253 0
M  V30 994 H 98.5536 -4.02443 1.2497 0
M  V30 995 H 97.2776 -3.25446 0.274308 0
M  V30 996 H 95.9366 -2.80606 2.35914 0
M  V30 997 H 95.5846 -4.91623 1.06374 0
M  V30 998 H 95.2846 -5.16486 2.80208 0
M  V30 999 H 96.8086 -5.74396 2.07128 0
M  V30 1000 H 98.2226 -4.2832 3.81071 0
M  V30 1001 H 96.6196 -3.94209 4.52459 0
M  V30 1002 H 97.6896 -2.59504 4.09617 0
M  V30 1003 N 99.0327 -1.24633 -0.964593 0
M  V30 1004 C 99.9647 -0.999302 -2.06268 0
M  V30 1005 C 100.978 0.0323226 -1.62768 0
M  V30 1006 O 102.167 -0.205079 -1.77318 0
M  V30 1007 C 99.2667 -0.486816 -3.35385 0
M  V30 1008 C 98.4397 -1.5823 -4.07777 0
M  V30 1009 C 97.4987 -1.07191 -5.15166 0
M  V30 1010 O 96.5247 -1.76426 -5.41168 0
M  V30 1011 N 97.7267 0.0920373 -5.80427 0
M  V30 1012 H 100.492 -1.94477 -2.28033 0
M  V30 1013 H 98.0527 -1.15704 -1.13244 0
M  V30 1014 H 100.045 -0.130066 -4.04491 0
M  V30 1015 H 98.6147 0.364459 -3.10468 0
M  V30 1016 H 97.8347 -2.11109 -3.32906 0
M  V30 1017 H 99.1227 -2.31854 -4.52903 0
M  V30 1018 H 98.5207 0.670784 -5.61709 0
M  V30 1019 H 97.0777 0.389905 -6.50633 0
M  V30 1020 N 100.511 1.16574 -1.06058 0
M  V30 1021 C 101.736 1.91493 -0.796562 0
M  V30 1022 C 102.161 1.76773 0.642868 0
M  V30 1023 O 101.519 1.09142 1.44768 0
M  V30 1024 C 101.567 3.40293 -1.19303 0
M  V30 1025 O 100.671 4.11074 -0.330394 0
M  V30 1026 H 100.012 0.596678 -0.291326 0
M  V30 1027 H 102.542 1.47708 -1.41575 0
M  V30 1028 H 102.552 3.91057 -1.16356 0
M  V30 1029 H 101.227 3.50326 -2.24153 0
M  V30 1030 H 99.8038 3.70513 -0.421225 0
M  V30 1031 N 101.989 0.842826 1.3317 0
M  V30 1032 C 103.235 0.441099 1.97945 0
M  V30 1033 C 103.568 -0.998024 1.66593 0
M  V30 1034 O 102.843 -1.69839 0.947898 0
M  V30 1035 C 103.126 0.666841 3.53872 0
M  V30 1036 C 102.979 2.15352 3.94897 0
M  V30 1037 C 104.298 0.115544 4.39948 0
M  V30 1038 H 101.417 0.161739 0.719034 0
M  V30 1039 H 104.059 1.05907 1.57746 0
M  V30 1040 H 102.209 0.140828 3.88245 0
M  V30 1041 H 103.881 2.7447 3.70761 0
M  V30 1042 H 102.124 2.63653 3.44484 0
M  V30 1043 H 102.795 2.26221 5.03516 0
M  V30 1044 H 105.271 0.565213 4.12243 0
M  V30 1045 H 104.147 0.303152 5.48062 0
M  V30 1046 H 104.408 -0.980935 4.3108 0
M  V30 1047 N 103.467 -1.45747 0.599634 0
M  V30 1048 C 104.714 -2.02292 0.0917284 0
M  V30 1049 C 105.042 -1.46906 -1.27472 0
M  V30 1050 O 104.297 -0.630652 -1.8526 0
M  V30 1051 C 104.596 -3.57399 -0.00602758 0
M  V30 1052 C 104.262 -4.31902 1.29503 0
M  V30 1053 C 102.924 -4.51974 1.65144 0
M  V30 1054 C 105.276 -4.74551 2.15525 0
M  V30 1055 C 102.604 -5.11949 2.86574 0
M  V30 1056 C 104.956 -5.35868 3.36196 0
M  V30 1057 C 103.62 -5.54165 3.72099 0
M  V30 1058 H 102.89 -0.740239 0.0335658 0
M  V30 1059 H 105.537 -1.7491 0.779661 0
M  V30 1060 H 103.842 -3.84014 -0.777183 0
M  V30 1061 H 105.539 -3.98846 -0.415038 0
M  V30 1062 H 102.129 -4.16588 1.00761 0
M  V30 1063 H 106.313 -4.58784 1.8929 0
M  V30 1064 H 101.569 -5.24305 3.14507 0
M  V30 1065 H 105.743 -5.6787 4.03109 0
M  V30 1066 H 103.37 -6.00406 4.6628 0
M  V30 1067 N 104.945 -0.338344 -1.53925 0
M  V30 1068 C 106.361 0.0137736 -1.59594 0
M  V30 1069 C 106.561 1.49186 -1.35447 0
M  V30 1070 O 105.617 2.24987 -1.14616 0
M  V30 1071 C 106.93 -0.41773 -2.97784 0
M  V30 1072 C 108.478 -0.369633 -3.1081 0
M  V30 1073 C 108.953 -0.776524 -4.51369 0
M  V30 1074 N 110.444 -0.730506 -4.57403 0
M  V30 1075 C 111.179 -1.01736 -5.64303 0
M  V30 1076 N 110.675 -1.3721 -6.79077 0
M  V30 1077 N 112.468 -0.941942 -5.54151 0
M  V30 1078 H 104.619 -1.3012 -1.67876 0
M  V30 1079 H 106.882 -0.530082 -0.78595 0
M  V30 1080 H 106.588 -1.44811 -3.20504 0
M  V30 1081 H 106.462 0.209729 -3.76616 0
M  V30 1082 H 108.849 0.651568 -2.87817 0
M  V30 1083 H 108.93 -1.03223 -2.34049 0
M  V30 1084 H 108.574 -1.79571 -4.75096 0
M  V30 1085 H 108.504 -0.0914649 -5.26521 0
M  V30 1086 H 110.995 -0.468783 -3.74981 0
M  V30 1087 H 111.308 -1.57597 -7.5656 0
M  V30 1088 H 109.653 -1.4105 -6.80536 0
M  V30 1089 H 112.844 -0.664184 -4.63364 0
M  V30 1090 H 113.017 -1.16884 -6.37371 0
M  V30 1091 N 106.423 1.57458 -0.0668435 0
M  V30 1092 C 107.386 2.11323 0.887422 0
M  V30 1093 C 108.386 1.03618 1.22964 0
M  V30 1094 O 109.576 1.29626 1.16373 0
M  V30 1095 C 106.708 2.61048 2.19242 0
M  V30 1096 H 107.901 2.96942 0.420194 0
M  V30 1097 H 105.454 1.55239 0.181793 0
M  V30 1098 H 106.189 1.78868 2.70512 0
M  V30 1099 H 105.974 3.39769 1.95702 0
M  V30 1100 H 107.464 3.02814 2.87565 0
M  V30 1101 N 107.901 -0.206675 1.56239 0
M  V30 1102 C 109.126 -0.949474 1.8439 0
M  V30 1103 C 109.551 -1.76549 0.649016 0
M  V30 1104 O 108.909 -1.76782 -0.402231 0
M  V30 1105 C 108.957 -1.83078 3.10668 0
M  V30 1106 O 108.061 -2.9281 2.90407 0
M  V30 1107 H 107.402 -0.268033 0.607499 0
M  V30 1108 H 109.932 -0.215488 2.03462 0
M  V30 1109 H 109.942 -2.2377 3.41161 0
M  V30 1110 H 108.617 -1.23112 3.97261 0
M  V30 1111 H 107.194 -2.55956 2.71184 0
M  V30 1112 N 109.379 -1.50304 -0.473955 0
M  V30 1113 C 110.326 -1.68959 -1.57231 0
M  V30 1114 C 111.296 -0.530899 -1.57387 0
M  V30 1115 O 112.481 -0.761133 -1.74961 0
M  V30 1116 C 109.621 -1.7871 -2.95223 0
M  V30 1117 C 108.734 -3.06061 -3.04878 0
M  V30 1118 C 107.869 -3.06626 -4.33767 0
M  V30 1119 C 106.908 -4.28443 -4.37154 0
M  V30 1120 N 106.045 -4.26763 -5.5751 0
M  V30 1121 H 110.885 -2.6273 -1.40631 0
M  V30 1122 H 108.422 -1.30241 -0.683789 0
M  V30 1123 H 110.38 -1.82344 -3.75242 0
M  V30 1124 H 109.01 -0.883806 -3.10465 0
M  V30 1125 H 108.062 -3.11911 -2.17751 0
M  V30 1126 H 109.374 -3.96039 -3.0324 0
M  V30 1127 H 108.528 -3.08973 -5.22131 0
M  V30 1128 H 107.267 -2.14473 -4.3801 0
M  V30 1129 H 106.272 -4.2631 -3.47188 0
M  V30 1130 H 107.497 -5.2182 -4.34605 0
M  V30 1131 H 105.443 -3.37462 -5.62544 0
M  V30 1132 H 105.36 -5.10507 -5.57601 0
M  V30 1133 H 106.628 -4.33253 -6.48006 0
M  V30 1134 N 110.857 0.726932 -1.39834 0
M  V30 1135 C 111.767 1.87131 -1.41489 0
M  V30 1136 C 112.783 1.71239 -0.308757 0
M  V30 1137 O 113.959 1.93701 -0.551529 0
M  V30 1138 C 111.024 3.22811 -1.26468 0
M  V30 1139 C 110.085 3.51039 -2.47124 0
M  V30 1140 C 109.318 4.80245 -2.3281 0
M  V30 1141 O 109.541 5.54537 -1.33585 0
M  V30 1142 O 108.475 5.08554 -3.21957 0
M  V30 1143 H 112.301 1.8869 -2.3797 0
M  V30 1144 H 109.886 0.875837 -1.21035 0
M  V30 1145 H 111.768 4.03877 -1.20255 0
M  V30 1146 H 110.443 3.22005 -0.330862 0
M  V30 1147 H 109.35 2.70027 -2.58914 0
M  V30 1148 H 110.683 3.56632 -3.39227 0
M  V30 1149 N 112.336 1.25143 0.95797 0
M  V30 1150 C 113.266 1.07711 2.07173 0
M  V30 1151 C 114.247 -0.0128462 1.70095 0
M  V30 1152 O 115.432 0.156061 1.93572 0
M  V30 1153 C 112.562 0.691503 3.40346 0
M  V30 1154 C 111.516 1.73132 3.9142 0
M  V30 1155 C 110.842 1.20049 5.21049 0
M  V30 1156 C 112.142 3.1294 4.1817 0
M  V30 1157 H 113.836 2.00873 2.22014 0
M  V30 1158 H 111.382 0.967191 1.06684 0
M  V30 1159 H 113.335 0.556505 4.17709 0
M  V30 1160 H 112.059 -0.275819 3.25433 0
M  V30 1161 H 110.718 1.8547 3.16222 0
M  V30 1162 H 110.366 0.223499 5.02503 0
M  V30 1163 H 110.066 1.89545 5.56189 0
M  V30 1164 H 111.59 1.07782 6.01012 0
M  V30 1165 H 113.004 3.03775 4.86203 0
M  V30 1166 H 111.401 3.79875 4.64559 0
M  V30 1167 H 112.471 3.6025 3.24573 0
M  V30 1168 N 113.814 -1.1601 1.06675 0
M  V30 1169 C 114.761 -2.20525 0.680967 0
M  V30 1170 C 115.731 -1.62904 -0.324283 0
M  V30 1171 O 116.916 -1.89615 -0.212294 0
M  V30 1172 C 114.056 -3.45013 0.0776551 0
M  V30 1173 C 113.169 -4.16863 1.13355 0
M  V30 1174 C 112.304 -5.2888 0.49597 0
M  V30 1175 C 111.343 -5.92537 1.53513 0
M  V30 1176 N 110.48 -6.96038 0.920631 0
M  V30 1177 H 115.32 -2.52876 1.57663 0
M  V30 1178 H 112.857 -1.24199 0.788223 0
M  V30 1179 H 114.815 -4.16193 -0.289704 0
M  V30 1180 H 113.445 -3.132 -0.781393 0
M  V30 1181 H 112.497 -3.44248 1.61857 0
M  V30 1182 H 113.809 -4.60294 1.92174 0
M  V30 1183 H 112.963 -6.06653 0.0758604 0
M  V30 1184 H 111.702 -4.86622 -0.324062 0
M  V30 1185 H 110.707 -5.13482 1.9651 0
M  V30 1186 H 111.932 -6.36873 2.35733 0
M  V30 1187 H 109.878 -6.55888 0.12138 0
M  V30 1188 H 109.795 -7.3786 1.64616 0
M  V30 1189 H 111.063 -7.77725 0.525795 0
M  V30 1190 N 115.292 -0.849877 -1.32721 0
M  V30 1191 C 116.224 -0.248332 -2.27851 0
M  V30 1192 C 117.237 0.577218 -1.52224 0
M  V30 1193 O 118.426 0.402489 -1.73903 0
M  V30 1194 C 115.526 0.668107 -3.32249 0
M  V30 1195 C 114.699 -0.120534 -4.37234 0
M  V30 1196 C 113.758 0.720932 -5.21238 0
M  V30 1197 O 112.784 0.156166 -5.68986 0
M  V30 1198 N 113.986 2.03647 -5.43607 0
M  V30 1199 H 116.751 -1.06575 -2.80111 0
M  V30 1200 H 114.312 -0.709395 -1.45531 0
M  V30 1201 H 116.304 1.23627 -3.85355 0
M  V30 1202 H 114.874 1.38621 -2.80184 0
M  V30 1203 H 114.094 -0.870108 -3.84477 0
M  V30 1204 H 115.382 -0.662406 -5.0447 0
M  V30 1205 H 114.78 2.51871 -5.06535 0
M  V30 1206 H 113.337 2.55287 -5.99727 0
M  V30 1207 N 116.77 1.45427 -0.607355 0
M  V30 1208 C 118.186 1.57283 -0.270985 0
M  V30 1209 C 118.386 1.59875 1.22647 0
M  V30 1210 O 117.442 1.52893 2.00948 0
M  V30 1211 C 118.755 2.85566 -0.941952 0
M  V30 1212 C 120.303 2.9924 -0.917849 0
M  V30 1213 C 120.778 4.30293 -1.56882 0
M  V30 1214 N 122.269 4.37051 -1.5343 0
M  V30 1215 C 123.004 5.37123 -2.00715 0
M  V30 1216 N 122.5 6.43734 -2.56084 0
M  V30 1217 N 124.293 5.28479 -1.91484 0
M  V30 1218 H 116.444 1.41988 -1.57966 0
M  V30 1219 H 118.707 0.67885 -0.661715 0
M  V30 1220 H 118.413 2.8955 -1.99633 0
M  V30 1221 H 118.287 3.74322 -0.465096 0
M  V30 1222 H 120.674 2.94822 0.127984 0
M  V30 1223 H 120.755 2.11895 -1.43297 0
M  V30 1224 H 120.399 4.35469 -2.61398 0
M  V30 1225 H 120.329 5.16454 -1.02873 0
M  V30 1226 H 122.82 3.60615 -1.12982 0
M  V30 1227 H 123.133 7.16341 -2.89958 0
M  V30 1228 H 121.478 6.44485 -2.60122 0
M  V30 1229 H 124.669 4.44098 -1.47967 0
M  V30 1230 H 124.842 6.0632 -2.28648 0
M  V30 1231 N 118.248 0.346503 1.53744 0
M  V30 1232 C 119.495 -0.249104 2.00962 0
M  V30 1233 C 119.823 -1.5032 1.23426 0
M  V30 1234 O 119.078 -1.93217 0.310761 0
M  V30 1235 C 119.377 -0.605809 3.52228 0
M  V30 1236 C 119.043 0.551747 4.47512 0
M  V30 1237 C 117.705 0.86941 4.73281 0
M  V30 1238 C 120.057 1.32818 5.03993 0
M  V30 1239 C 117.385 1.96582 5.52786 0
M  V30 1240 C 119.737 2.41486 5.84694 0
M  V30 1241 C 118.401 2.73808 6.08757 0
M  V30 1242 H 117.671 -0.0911538 0.735372 0
M  V30 1243 H 120.318 0.475027 1.85515 0
M  V30 1244 H 118.623 -1.4107 3.65522 0
M  V30 1245 H 120.32 -1.07858 3.86222 0
M  V30 1246 H 116.91 0.294102 4.2759 0
M  V30 1247 H 121.094 1.09602 4.84047 0
M  V30 1248 H 116.35 2.22045 5.69654 0
M  V30 1249 H 120.524 3.02078 6.27473 0
M  V30 1250 H 118.151 3.58892 6.7015 0
M  V30 1251 N 119.726 -1.57421 0.075193 0
M  V30 1252 C 120.658 -2.09904 -0.920483 0
M  V30 1253 C 121.671 -1.03191 -1.25918 0
M  V30 1254 O 122.86 -1.30695 -1.21577 0
M  V30 1255 C 119.96 -2.54726 -2.23534 0
M  V30 1256 C 119.133 -3.8505 -2.07498 0
M  V30 1257 C 118.192 -4.15929 -3.22319 0
M  V30 1258 O 117.218 -4.85474 -2.9716 0
M  V30 1259 N 118.42 -3.69745 -4.47514 0
M  V30 1260 H 121.185 -2.95954 -0.472359 0
M  V30 1261 H 118.746 -1.61523 -0.110444 0
M  V30 1262 H 120.738 -2.72443 -2.9926 0
M  V30 1263 H 119.308 -1.73795 -2.59835 0
M  V30 1264 H 118.528 -3.76679 -1.16219 0
M  V30 1265 H 119.816 -4.70348 -1.94038 0
M  V30 1266 H 119.214 -3.13569 -4.7084 0
M  V30 1267 H 117.771 -3.92655 -5.20255 0
M  V30 1268 N 121.204 0.198386 -1.56346 0
M  V30 1269 C 122.62 0.549085 -1.49857 0
M  V30 1270 C 122.82 1.86016 -0.774611 0
M  V30 1271 O 121.876 2.50416 -0.323776 0
M  V30 1272 C 123.189 0.606868 -2.94512 0
M  V30 1273 C 124.737 0.695925 -3.05165 0
M  V30 1274 C 125.212 0.784848 -4.51225 0
M  V30 1275 N 126.703 0.848463 -4.55363 0
M  V30 1276 C 127.438 0.937378 -5.65686 0
M  V30 1277 N 126.934 0.9888 -6.85707 0
M  V30 1278 N 128.727 0.974312 -5.53592 0
M  V30 1279 H 120.878 -0.661655 -2.01831 0
M  V30 1280 H 123.141 -0.235261 -0.918344 0
M  V30 1281 H 122.847 -0.28732 -3.50524 0
M  V30 1282 H 122.721 1.46268 -3.47686 0
M  V30 1283 H 125.108 1.58055 -2.49204 0
M  V30 1284 H 125.189 -0.186022 -2.55123 0
M  V30 1285 H 124.833 -0.0954072 -5.0781 0
M  V30 1286 H 124.763 1.68255 -4.98997 0
M  V30 1287 H 127.254 0.818103 -3.68938 0
M  V30 1288 H 127.567 1.05707 -7.65536 0
M  V30 1289 H 125.912 0.957534 -6.88372 0
M  V30 1290 H 129.103 0.930954 -4.58749 0
M  V30 1291 H 129.276 1.04015 -6.39597 0
M  V30 1292 N 122.682 1.50554 0.465978 0
M  V30 1293 C 123.612 1.72722 1.57128 0
M  V30 1294 C 124.593 0.576294 1.6004 0
M  V30 1295 O 125.778 0.81598 1.76225 0
M  V30 1296 C 122.908 1.82605 2.95419 0
M  V30 1297 C 121.862 2.97835 3.07373 0
M  V30 1298 C 121.188 2.92867 4.47363 0
M  V30 1299 C 122.488 4.38265 2.84114 0
M  V30 1300 H 124.182 2.65267 1.38829 0
M  V30 1301 H 121.728 1.2765 0.666441 0
M  V30 1302 H 123.681 1.96698 3.72677 0
M  V30 1303 H 122.405 0.866858 3.14886 0
M  V30 1304 H 121.064 2.83401 2.3255 0
M  V30 1305 H 120.712 1.94783 4.63755 0
M  V30 1306 H 120.412 3.70227 4.56296 0
M  V30 1307 H 121.936 3.09015 5.26633 0
M  V30 1308 H 123.35 4.53198 3.51118 0
M  V30 1309 H 121.747 5.17115 3.04487 0
M  V30 1310 H 122.817 4.50281 1.7993 0
M  V30 1311 N 124.16 -0.719506 1.40217 0
M  V30 1312 C 125.437 -1.47221 1.28784 0
M  V30 1313 C 125.817 -2.10883 -0.0956067 0
M  V30 1314 O 125.165 -1.99833 -1.10811 0
M  V30 1315 C 125.375 -2.5111 2.42373 0
M  V30 1316 C 126.723 -3.17053 2.82423 0
M  V30 1317 O 127.747 -2.61429 2.41937 0
M  V30 1318 O 126.606 -4.17742 3.52355 0
M  V30 1319 H 123.7 -0.654491 0.50554 0
M  V30 1320 H 126.246 -0.752014 1.52128 0
M  V30 1321 H 125.018 -2.02556 3.34793 0
M  V30 1322 H 124.641 -3.3067 2.20778 0
M  V30 1323 N 125.638 -1.25649 -0.95132 0
M  V30 1324 C 126.878 -1.11802 -1.71113 0
M  V30 1325 C 127.242 0.334758 -1.89059 0
M  V30 1326 O 128.443 0.595121 -2.62129 0
M  V30 1327 C 126.714 -1.85512 -3.05483 0
M  V30 1328 S 128.273 -1.87597 -3.96677 0
M  V30 1329 H 125.091 -0.399552 -0.588115 0
M  V30 1330 H 127.693 -1.59222 -1.1344 0
M  V30 1331 H 126.397 -2.90299 -2.90094 0
M  V30 1332 H 125.928 -1.38493 -3.68216 0
M  V30 1333 H 127.943 -0.955389 -4.86916 0
M  V30 1334 N 127.117 1.15442 -1.07289 0
M  V30 1335 C 128.366 1.85557 -0.790669 0
M  V30 1336 C 128.679 1.83186 0.685739 0
M  V30 1337 O 129.885 2.48977 1.0827 0
M  V30 1338 C 128.341 3.33038 -1.36433 0
M  V30 1339 C 127.949 3.43856 -2.8717 0
M  V30 1340 C 129.693 4.0834 -1.1601 0
M  V30 1341 C 127.6 4.85482 -3.3773 0
M  V30 1342 H 126.53 0.695122 -0.292098 0
M  V30 1343 H 129.181 1.30219 -1.29287 0
M  V30 1344 H 127.563 3.88043 -0.789864 0
M  V30 1345 H 128.737 2.98961 -3.50655 0
M  V30 1346 H 127.052 2.81998 -3.06376 0
M  V30 1347 H 129.649 5.12859 -1.51262 0
M  V30 1348 H 129.992 4.16182 -0.0991007 0
M  V30 1349 H 130.525 3.59603 -1.70089 0
M  V30 1350 H 127.264 4.82823 -4.43353 0
M  V30 1351 H 126.784 5.30961 -2.78999 0
M  V30 1352 H 128.463 5.54335 -3.33648 0
M  V30 1353 N 128.595 0.856903 1.32268 0
M  V30 1354 C 129.825 0.47475 2.01071 0
M  V30 1355 C 130.233 -0.933746 1.64553 0
M  V30 1356 O 129.576 -1.62114 0.863989 0
M  V30 1357 C 129.638 0.536746 3.55471 0
M  V30 1358 C 129.302 1.90453 4.15423 0
M  V30 1359 C 130.299 2.87029 4.33486 0
M  V30 1360 C 127.984 2.20229 4.51447 0
M  V30 1361 C 129.978 4.11532 4.86744 0
M  V30 1362 C 127.665 3.44984 5.0441 0
M  V30 1363 C 128.663 4.40452 5.22007 0
M  V30 1364 O 128.351 5.62998 5.73837 0
M  V30 1365 H 128.083 0.184778 0.650256 0
M  V30 1366 H 130.637 1.15615 1.69771 0
M  V30 1367 H 128.867 -0.20152 3.86175 0
M  V30 1368 H 130.556 0.169875 4.05544 0
M  V30 1369 H 131.322 2.6533 4.05986 0
M  V30 1370 H 127.201 1.46705 4.37034 0
M  V30 1371 H 130.745 4.86056 5.00395 0
M  V30 1372 H 126.642 3.66532 5.31342 0
M  V30 1373 H 127.41 5.64987 5.92226 0
M  V30 1374 N 130.073 -1.45103 0.615059 0
M  V30 1375 C 131.003 -2.33339 -0.0865619 0
M  V30 1376 C 131.984 -1.4727 -0.851209 0
M  V30 1377 O 133.169 -1.76026 -0.820281 0
M  V30 1378 C 130.299 -3.30095 -1.07956 0
M  V30 1379 C 129.253 -4.25858 -0.427628 0
M  V30 1380 C 128.579 -5.12361 -1.5294 0
M  V30 1381 C 129.879 -5.18165 0.655944 0
M  V30 1382 H 131.573 -2.92254 0.650224 0
M  V30 1383 H 129.119 -1.40532 0.314138 0
M  V30 1384 H 131.072 -3.90698 -1.57901 0
M  V30 1385 H 129.796 -2.69355 -1.84703 0
M  V30 1386 H 128.455 -3.66564 0.0510292 0
M  V30 1387 H 128.103 -4.47984 -2.28734 0
M  V30 1388 H 127.803 -5.77238 -1.09865 0
M  V30 1389 H 129.327 -5.75833 -2.03098 0
M  V30 1390 H 130.741 -5.72796 0.240257 0
M  V30 1391 H 129.138 -5.91559 1.00888 0
M  V30 1392 H 130.208 -4.60144 1.52957 0
M  V30 1393 N 131.551 -0.354651 -1.53558 0
M  V30 1394 C 132.499 0.512195 -2.26891 0
M  V30 1395 C 133.493 1.09263 -1.29452 0
M  V30 1396 O 134.699 1.03709 -1.47121 0
M  V30 1397 H 131.074 0.183878 -0.729173 0
M  V30 1398 H 133.045 -0.128202 -2.98124 0
M  V30 1399 C 131.794 1.64563 -3.06291 0
M  V30 1400 H 131.117 1.20829 -3.81104 0
M  V30 1401 H 132.557 2.22711 -3.60799 0
M  V30 1402 C 131.016 2.58158 -2.16462 0
M  V30 1403 O 131.546 3.60695 -1.76811 0
M  V30 1404 N 129.752 2.27096 -1.81317 0
M  V30 1405 H 129.299 1.43751 -2.1376 0
M  V30 1406 H 129.257 2.89975 -1.21498 0
M  V30 1407 N 133.029 1.57378 -0.0835403 0
M  V30 1408 C 133.992 2.12252 0.864959 0
M  V30 1409 C 134.992 1.04916 1.21858 0
M  V30 1410 O 136.182 1.30853 1.14991 0
M  V30 1411 C 133.314 2.63358 2.16461 0
M  V30 1412 H 134.507 2.97371 0.388676 0
M  V30 1413 H 132.06 1.55423 0.165317 0
M  V30 1414 H 132.795 1.81727 2.686 0
M  V30 1415 H 132.58 3.41826 1.92087 0
M  V30 1416 H 134.07 3.05847 2.84337 0
M  V30 1417 N 134.507 -0.190092 1.56449 0
M  V30 1418 C 135.755 -0.907908 1.80559 0
M  V30 1419 C 136.076 -1.83583 0.657438 0
M  V30 1420 O 135.346 -1.93203 -0.323924 0
M  V30 1421 H 133.926 -0.338247 0.666032 0
M  V30 1422 H 136.588 -0.194403 1.93928 0
M  V30 1423 H 135.684 -1.49604 2.73907 0
M  V30 1424 N 135.985 -1.50799 -0.457987 0
M  V30 1425 C 137.234 -1.6168 -1.20593 0
M  V30 1426 C 137.547 -0.32888 -1.92815 0
M  V30 1427 O 138.753 -0.316773 -2.69646 0
M  V30 1428 C 137.209 -2.8545 -2.19195 0
M  V30 1429 C 136.817 -4.21168 -1.52715 0
M  V30 1430 C 138.561 -3.05681 -2.94549 0
M  V30 1431 C 136.468 -5.3611 -2.4968 0
M  V30 1432 H 135.398 -0.602134 -0.453818 0
M  V30 1433 H 138.049 -1.77245 -0.475031 0
M  V30 1434 H 136.431 -2.63472 -2.95632 0
M  V30 1435 H 137.605 -4.53449 -0.819775 0
M  V30 1436 H 135.92 -4.06648 -0.895922 0
M  V30 1437 H 138.517 -3.88727 -3.67145 0
M  V30 1438 H 138.86 -2.17929 -3.54701 0
M  V30 1439 H 139.393 -3.27901 -2.25223 0
M  V30 1440 H 136.132 -6.26057 -1.94249 0
M  V30 1441 H 135.652 -5.0823 -3.18532 0
M  V30 1442 H 137.331 -5.6722 -3.11241 0
M  V30 1443 N 137.463 0.71206 -1.40597 0
M  V30 1444 C 138.396 1.83582 -1.35546 0
M  V30 1445 C 139.374 1.61032 -0.225284 0
M  V30 1446 O 140.558 1.83998 -0.409519 0
M  V30 1447 C 137.685 3.19983 -1.11034 0
M  V30 1448 C 136.731 3.61355 -2.2655 0
M  V30 1449 S 137.564 3.68062 -3.88961 0
M  V30 1450 C 138.72 5.07216 -3.66719 0
M  V30 1451 H 138.953 1.87586 -2.30648 0
M  V30 1452 H 136.486 0.879182 -1.26924 0
M  V30 1453 H 138.444 3.98734 -0.975761 0
M  V30 1454 H 137.105 3.13608 -0.175798 0
M  V30 1455 H 136.298 4.60403 -2.0505 0
M  V30 1456 H 135.9 2.8987 -2.36329 0
M  V30 1457 H 138.192 5.94238 -3.25404 0
M  V30 1458 H 139.135 5.33753 -4.6531 0
M  V30 1459 H 139.543 4.77976 -3.00332 0
M  V30 1460 N 138.941 1.26152 0.944643 0
M  V30 1461 C 140.352 1.10454 1.50522 0
M  V30 1462 C 140.703 -0.31635 1.93633 0
M  V30 1463 O 139.828 -1.20746 1.79581 0
M  V30 1464 C 140.423 1.99891 2.73549 0
M  V30 1465 C 138.982 1.88348 3.25886 0
M  V30 1466 C 138.129 1.93447 1.9868 0
M  V30 1467 H 141.08 1.39292 0.760489 0
M  V30 1468 H 141.101 1.54477 3.47732 0
M  V30 1469 H 140.613 3.03297 2.42141 0
M  V30 1470 H 138.714 0.878636 3.62092 0
M  V30 1471 H 138.827 2.73696 3.93227 0
M  V30 1472 H 137.191 1.37456 2.14425 0
M  V30 1473 H 137.974 2.98476 1.69607 0
M  V30 1474 N 140.419 -1.14872 1.07899 0
M  V30 1475 C 141.367 -2.21857 0.698727 0
M  V30 1476 C 142.361 -1.66845 -0.293086 0
M  V30 1477 O 143.567 -1.79321 -0.156204 0
M  V30 1478 H 139.942 -0.722691 0.207899 0
M  V30 1479 H 141.913 -2.51205 1.61054 0
M  V30 1480 C 140.662 -3.47498 0.11858 0
M  V30 1481 H 139.985 -3.90154 0.872914 0
M  V30 1482 H 141.425 -4.23858 -0.109759 0
M  V30 1483 C 139.884 -3.16947 -1.1422 0
M  V30 1484 O 140.414 -3.3426 -2.22785 0
M  V30 1485 N 138.62 -2.70946 -1.05055 0
M  V30 1486 H 138.167 -2.57058 -0.167038 0
M  V30 1487 H 138.125 -2.50879 -1.89491 0
M  V30 1488 N 141.898 -0.863906 -1.31812 0
M  V30 1489 C 143.309 -0.52522 -1.7916 0
M  V30 1490 C 143.66 0.957518 -1.71248 0
M  V30 1491 O 142.785 1.74734 -1.27659 0
M  V30 1492 C 143.38 -0.9466 -3.25307 0
M  V30 1493 C 141.939 -0.659668 -3.70574 0
M  V30 1494 C 141.086 -1.14126 -2.52726 0
M  V30 1495 H 144.037 -1.05022 -1.1898 0
M  V30 1496 H 144.058 -0.266766 -3.79564 0
M  V30 1497 H 143.57 -2.02579 -3.31034 0
M  V30 1498 H 141.671 0.408416 -3.70355 0
M  V30 1499 H 141.784 -1.23245 -4.62977 0
M  V30 1500 H 140.148 -0.561216 -2.4844 0
M  V30 1501 H 140.931 -2.22775 -2.61201 0
M  V30 1502 N 143.376 1.44774 -0.622745 0
M  V30 1503 C 144.308 2.28856 0.125485 0
M  V30 1504 C 145.321 1.40811 0.817069 0
M  V30 1505 O 146.51 1.65044 0.679918 0
M  V30 1506 C 143.61 3.16963 1.19949 0
M  V30 1507 C 142.783 4.33374 0.592064 0
M  V30 1508 C 141.842 5.02577 1.55893 0
M  V30 1509 O 140.868 5.58873 1.07933 0
M  V30 1510 N 142.07 5.03256 2.89334 0
M  V30 1511 H 144.835 2.93713 -0.596068 0
M  V30 1512 H 142.396 1.55129 -0.463303 0
M  V30 1513 H 144.388 3.60123 1.84644 0
M  V30 1514 H 142.958 2.53913 1.82337 0
M  V30 1515 H 142.178 3.93509 -0.233322 0
M  V30 1516 H 143.466 5.08527 0.166738 0
M  V30 1517 H 142.864 4.58836 3.30887 0
M  V30 1518 H 141.421 5.50232 3.49412 0
M  V30 1519 N 144.854 0.36279 1.53368 0
M  V30 1520 C 145.784 -0.476976 2.28576 0
M  V30 1521 C 146.765 -1.08631 1.30894 0
M  V30 1522 O 147.95 -1.10409 1.59761 0
M  V30 1523 C 145.08 -1.61828 3.07293 0
M  V30 1524 C 144.034 -1.13633 4.1264 0
M  V30 1525 C 143.36 -2.36766 4.79423 0
M  V30 1526 C 144.66 -0.223061 5.21823 0
M  V30 1527 H 146.354 0.150474 2.99022 0
M  V30 1528 H 143.9 0.0738103 1.43811 0
M  V30 1529 H 145.853 -2.21237 3.58653 0
M  V30 1530 H 144.577 -2.27292 2.34533 0
M  V30 1531 H 143.236 -0.564945 3.62221 0
M  V30 1532 H 142.884 -3.0068 4.03238 0
M  V30 1533 H 142.584 -2.05192 5.50609 0
M  V30 1534 H 144.108 -2.96865 5.33576 0
M  V30 1535 H 145.522 -0.724545 5.68703 0
M  V30 1536 H 143.919 0.001678 6.001 0
M  V30 1537 H 144.989 0.735553 4.79289 0
M  V30 1538 N 146.332 -1.57332 0.0918853 0
M  V30 1539 C 147.28 -2.15075 -0.885747 0
M  V30 1540 C 148.274 -1.09277 -1.29441 0
M  V30 1541 O 149.48 -1.27627 -1.26931 0
M  V30 1542 H 145.855 -0.687966 -0.303656 0
M  V30 1543 H 147.826 -2.96047 -0.373995 0
M  V30 1544 C 146.575 -2.74325 -2.13638 0
M  V30 1545 H 145.898 -3.55418 -1.8308 0
M  V30 1546 H 147.338 -3.183 -2.80109 0
M  V30 1547 C 145.797 -1.70062 -2.90827 0
M  V30 1548 O 146.327 -1.13763 -3.85254 0
M  V30 1549 N 144.533 -1.40628 -2.54307 0
M  V30 1550 H 144.08 -1.866 -1.7759 0
M  V30 1551 H 144.038 -0.711043 -3.06254 0
M  V30 1552 N 147.81 0.181792 -1.56548 0
M  V30 1553 C 149.059 0.898348 -1.8059 0
M  V30 1554 C 149.372 1.83862 -0.667379 0
M  V30 1555 O 150.578 2.59678 -0.792446 0
M  V30 1556 C 149.034 1.64791 -3.19956 0
M  V30 1557 C 148.642 0.751789 -4.41647 0
M  V30 1558 C 150.386 2.35331 -3.53298 0
M  V30 1559 C 148.293 1.50098 -5.72035 0
M  V30 1560 H 147.223 0.339194 -0.673397 0
M  V30 1561 H 149.874 0.151413 -1.82874 0
M  V30 1562 H 148.256 2.43921 -3.11959 0
M  V30 1563 H 149.43 -0.0018076 -4.608 0
M  V30 1564 H 147.745 0.156562 -4.16106 0
M  V30 1565 H 150.342 2.91958 -4.47956 0
M  V30 1566 H 150.685 3.10164 -2.77676 0
M  V30 1567 H 151.218 1.63154 -3.62803 0
M  V30 1568 H 147.957 0.795175 -6.50659 0
M  V30 1569 H 147.477 2.22817 -5.56878 0
M  V30 1570 H 149.156 2.05125 -6.13622 0
M  V30 1571 N 149.288 1.51039 0.449983 0
M  V30 1572 C 150.235 1.71439 1.54523 0
M  V30 1573 C 151.205 0.555871 1.56522 0
M  V30 1574 O 152.39 0.788871 1.73728 0
M  V30 1575 C 149.53 1.83384 2.92343 0
M  V30 1576 C 148.643 3.10873 2.9997 0
M  V30 1577 C 147.778 3.13488 4.28834 0
M  V30 1578 C 146.817 4.35343 4.30282 0
M  V30 1579 N 145.954 4.35579 5.5065 0
M  V30 1580 H 150.794 2.64934 1.36433 0
M  V30 1581 H 148.331 1.31312 0.662982 0
M  V30 1582 H 150.289 1.88291 3.72293 0
M  V30 1583 H 148.919 0.933086 3.0902 0
M  V30 1584 H 147.971 3.15336 2.12761 0
M  V30 1585 H 149.283 4.00814 2.96901 0
M  V30 1586 H 148.437 3.17241 5.17149 0
M  V30 1587 H 147.176 2.21414 4.34543 0
M  V30 1588 H 146.181 4.3178 3.40362 0
M  V30 1589 H 147.406 5.28668 4.26248 0
M  V30 1590 H 145.352 3.46369 5.57104 0
M  V30 1591 H 145.269 5.19313 5.49409 0
M  V30 1592 H 146.537 4.43507 6.41032 0
M  V30 1593 N 150.766 -0.704594 1.40972 0
M  V30 1594 C 151.729 -1.80035 1.41845 0
M  V30 1595 C 152.729 -1.57774 0.310474 0
M  V30 1596 O 153.919 -1.64613 0.56992 0
M  V30 1597 C 151.051 -3.18284 1.22098 0
M  V30 1598 H 152.244 -1.80658 2.3938 0
M  V30 1599 H 149.797 -0.911329 1.26982 0
M  V30 1600 H 150.532 -3.23306 0.253672 0
M  V30 1601 H 150.317 -3.35843 2.02366 0
M  V30 1602 H 151.807 -3.98289 1.25522 0
M  V30 1603 N 152.244 -1.26651 -0.937939 0
M  V30 1604 C 153.174 -1.10993 -2.05433 0
M  V30 1605 C 154.155 -0.0142161 -1.70094 0
M  V30 1606 O 155.34 -0.186837 -1.93299 0
M  V30 1607 C 152.47 -0.745561 -3.39203 0
M  V30 1608 C 151.424 -1.79337 -3.88616 0
M  V30 1609 C 150.75 -1.28324 -5.19073 0
M  V30 1610 C 152.05 -3.19553 -4.13138 0
M  V30 1611 H 153.744 -2.0438 -2.1879 0
M  V30 1612 H 151.29 -0.984041 -1.05131 0
M  V30 1613 H 153.243 -0.622888 -4.16771 0
M  V30 1614 H 151.967 0.22401 -3.25831 0
M  V30 1615 H 150.626 -1.90477 -3.13231 0
M  V30 1616 H 150.274 -0.303414 -5.02084 0
M  V30 1617 H 149.974 -1.98369 -5.53103 0
M  V30 1618 H 151.498 -1.1733 -5.99221 0
M  V30 1619 H 152.912 -3.11471 -4.81309 0
M  V30 1620 H 151.309 -3.87218 -4.58457 0
M  V30 1621 H 152.379 -3.65368 -3.18801 0
M  V30 1622 N 153.722 1.14298 -1.08507 0
M  V30 1623 C 154.969 1.85359 -0.815373 0
M  V30 1624 C 155.297 1.83001 0.658865 0
M  V30 1625 O 154.552 1.25655 1.50031 0
M  V30 1626 C 154.851 3.33547 -1.28379 0
M  V30 1627 C 154.517 3.56093 -2.76602 0
M  V30 1628 C 153.179 3.61955 -3.17084 0
M  V30 1629 C 155.531 3.64834 -3.72217 0
M  V30 1630 C 152.859 3.74082 -4.51973 0
M  V30 1631 C 155.211 3.78487 -5.06883 0
M  V30 1632 C 153.875 3.82598 -5.46969 0
M  V30 1633 H 153.145 0.678276 -0.298366 0
M  V30 1634 H 155.792 1.35002 -1.35819 0
M  V30 1635 H 154.097 3.86191 -0.660593 0
M  V30 1636 H 155.794 3.86959 -1.05186 0
M  V30 1637 H 152.384 3.52179 -2.4427 0
M  V30 1638 H 156.568 3.59595 -3.42061 0
M  V30 1639 H 151.824 3.75527 -4.82483 0
M  V30 1640 H 155.998 3.84193 -5.80834 0
M  V30 1641 H 153.625 3.91747 -6.51489 0
M  V30 1642 N 155.201 0.870884 1.31352 0
M  V30 1643 C 156.448 0.482273 1.96673 0
M  V30 1644 C 156.776 -0.965638 1.68836 0
M  V30 1645 O 156.031 -1.69514 0.977937 0
M  V30 1646 C 156.33 0.687157 3.50732 0
M  V30 1647 C 155.996 2.108 3.9859 0
M  V30 1648 C 154.658 2.49656 4.1137 0
M  V30 1649 C 157.01 3.03459 4.23748 0
M  V30 1650 C 154.338 3.80412 4.46659 0
M  V30 1651 C 156.69 4.3373 4.60501 0
M  V30 1652 C 155.354 4.725 4.71487 0
M  V30 1653 H 154.624 0.176476 0.719679 0
M  V30 1654 H 157.271 1.10405 1.56471 0
M  V30 1655 H 155.576 -0.0177476 3.91796 0
M  V30 1656 H 157.273 0.366284 3.99324 0
M  V30 1657 H 153.863 1.79633 3.8914 0
M  V30 1658 H 158.047 2.74665 4.13368 0
M  V30 1659 H 153.303 4.1021 4.53362 0
M  V30 1660 H 157.477 5.05578 4.78919 0
M  V30 1661 H 155.104 5.73859 4.98588 0
M  V30 1662 N 156.679 -1.44442 0.630414 0
M  V30 1663 C 157.927 -2.01653 0.134351 0
M  V30 1664 C 158.248 -1.49836 -1.24796 0
M  V30 1665 O 157.518 -0.701684 -1.82902 0
M  V30 1666 H 156.098 -0.74554 0.0466769 0
M  V30 1667 H 158.76 -1.76952 0.816955 0
M  V30 1668 H 157.856 -3.11935 0.101498 0
M  V30 1669 N 158.157 -0.370918 -1.53173 0
M  V30 1670 C 159.087 0.464847 -2.28826 0
M  V30 1671 C 160.068 1.07936 -1.31468 0
M  V30 1672 O 161.253 1.0956 -1.60344 0
M  V30 1673 C 158.383 1.60196 -3.08147 0
M  V30 1674 C 157.337 1.11443 -4.13237 0
M  V30 1675 C 156.663 2.3422 -4.80672 0
M  V30 1676 C 157.963 0.195384 -5.21934 0
M  V30 1677 H 159.657 -0.166329 -2.98938 0
M  V30 1678 H 157.203 -0.0814359 -1.4377 0
M  V30 1679 H 159.156 2.19332 -3.59822 0
M  V30 1680 H 157.88 2.26045 -2.35735 0
M  V30 1681 H 156.539 0.545727 -3.62515 0
M  V30 1682 H 156.187 2.98537 -4.04827 0
M  V30 1683 H 155.887 2.02269 -5.51689 0
M  V30 1684 H 157.411 2.94032 -5.35143 0
M  V30 1685 H 158.825 0.694375 -5.69079 0
M  V30 1686 H 157.222 -0.0335027 -6.00091 0
M  V30 1687 H 158.292 -0.760961 -4.78892 0
M  V30 1688 N 159.635 1.57281 -0.100228 0
M  V30 1689 C 160.882 1.94537 0.562268 0
M  V30 1690 C 161.21 0.982315 1.67871 0
M  V30 1691 O 160.465 0.00280936 1.957 0
M  V30 1692 C 160.764 3.38305 1.15259 0
M  V30 1693 C 160.43 4.50618 0.159409 0
M  V30 1694 C 159.092 4.81066 -0.113741 0
M  V30 1695 C 161.444 5.18615 -0.518461 0
M  V30 1696 C 158.772 5.76835 -1.07137 0
M  V30 1697 C 161.124 6.15412 -1.46459 0
M  V30 1698 C 159.788 6.44262 -1.74592 0
M  V30 1699 H 159.058 0.711863 0.205748 0
M  V30 1700 H 161.705 1.90679 -0.17715 0
M  V30 1701 H 160.01 3.38766 1.96836 0
M  V30 1702 H 161.707 3.64435 1.67297 0
M  V30 1703 H 158.297 4.2689 0.382491 0
M  V30 1704 H 162.481 4.95264 -0.320581 0
M  V30 1705 H 157.737 5.975 -1.29628 0
M  V30 1706 H 161.911 6.67194 -1.99564 0
M  V30 1707 H 159.538 7.1828 -2.48953 0
M  V30 1708 N 161.113 -0.173488 1.56642 0
M  V30 1709 C 162.338 -0.910149 1.86363 0
M  V30 1710 C 162.763 -1.75132 0.686318 0
M  V30 1711 O 162.121 -1.77595 -0.364643 0
M  V30 1712 C 162.169 -1.76447 3.14482 0
M  V30 1713 O 161.273 -2.86584 2.96553 0
M  V30 1714 H 160.614 -0.255086 0.613047 0
M  V30 1715 H 163.144 -0.172283 2.03873 0
M  V30 1716 H 163.154 -2.16483 3.45831 0
M  V30 1717 H 161.829 -1.14658 3.99783 0
M  V30 1718 H 160.406 -2.50146 2.76553 0
M  V30 1719 N 162.591 -1.51276 -0.441967 0
M  V30 1720 C 164.007 -1.39349 -0.778083 0
M  V30 1721 C 164.207 -0.472212 -1.95889 0
M  V30 1722 O 163.263 0.0743551 -2.5239 0
M  V30 1723 C 164.576 -2.81292 -1.0628 0
M  V30 1724 C 166.124 -2.9041 -1.16751 0
M  V30 1725 C 166.599 -4.33251 -1.48519 0
M  V30 1726 N 168.09 -4.36336 -1.55453 0
M  V30 1727 C 168.825 -5.43885 -1.81596 0
M  V30 1728 N 168.321 -6.61601 -2.05562 0
M  V30 1729 N 170.114 -5.3136 -1.8334 0
M  V30 1730 H 162.265 -2.09729 0.335774 0
M  V30 1731 H 164.528 -0.943925 0.0878028 0
M  V30 1732 H 164.234 -3.50678 -0.267905 0
M  V30 1733 H 164.108 -3.20334 -1.99163 0
M  V30 1734 H 166.495 -2.21225 -1.95304 0
M  V30 1735 H 166.576 -2.54871 -0.217801 0
M  V30 1736 H 166.22 -5.02984 -0.704958 0
M  V30 1737 H 166.15 -4.66299 -2.44689 0
M  V30 1738 H 168.641 -3.51466 -1.38853 0
M  V30 1739 H 168.954 -7.39361 -2.24867 0
M  V30 1740 H 167.299 -6.64725 -2.02894 0
M  V30 1741 H 170.49 -4.38382 -1.64132 0
M  V30 1742 H 170.663 -6.15258 -2.03377 0
M  V30 1743 N 164.069 0.697108 -1.41344 0
M  V30 1744 C 165.016 1.81106 -1.43071 0
M  V30 1745 C 165.986 1.63632 -0.285275 0
M  V30 1746 O 167.171 1.84504 -0.486091 0
M  V30 1747 C 164.311 3.18975 -1.31715 0
M  V30 1748 C 163.424 3.47892 -2.56115 0
M  V30 1749 C 162.559 4.75367 -2.37064 0
M  V30 1750 C 161.598 4.97247 -3.56948 0
M  V30 1751 N 160.735 6.15947 -3.36977 0
M  V30 1752 H 165.575 1.78965 -2.38276 0
M  V30 1753 H 163.112 0.873975 -1.18322 0
M  V30 1754 H 165.07 3.98615 -1.23133 0
M  V30 1755 H 163.7 3.20297 -0.401183 0
M  V30 1756 H 162.752 2.62669 -2.75153 0
M  V30 1757 H 164.064 3.59962 -3.45295 0
M  V30 1758 H 163.218 5.63059 -2.25941 0
M  V30 1759 H 161.957 4.65541 -1.45338 0
M  V30 1760 H 160.962 4.08004 -3.68527 0
M  V30 1761 H 162.187 5.08934 -4.49626 0
M  V30 1762 H 160.133 6.07336 -2.47949 0
M  V30 1763 H 160.05 6.28777 -4.19732 0
M  V30 1764 H 161.318 7.06377 -3.29623 0
M  V30 1765 N 165.547 1.27147 0.931209 0
M  V30 1766 C 166.793 1.13446 1.68101 0
M  V30 1767 C 167.126 -0.319628 1.91552 0
M  V30 1768 O 166.401 -1.23407 1.50336 0
M  V30 1769 C 166.684 1.91482 3.0497 0
M  V30 1770 C 166.537 3.44855 2.88782 0
M  V30 1771 C 167.856 1.71651 4.05246 0
M  V30 1772 H 164.975 0.413498 0.610072 0
M  V30 1773 H 167.617 1.56261 1.08086 0
M  V30 1774 H 165.767 1.55095 3.56199 0
M  V30 1775 H 167.439 3.9105 2.44698 0
M  V30 1776 H 165.682 3.71373 2.24198 0
M  V30 1777 H 166.353 3.94694 3.85902 0
M  V30 1778 H 168.829 2.0337 3.63015 0
M  V30 1779 H 167.705 2.28651 4.99009 0
M  V30 1780 H 167.966 0.663555 4.37092 0
M  V30 1781 N 167.025 -1.13721 1.09112 0
M  V30 1782 C 168.274 -1.84275 0.82009 0
M  V30 1783 C 168.587 -1.84253 -0.656509 0
M  V30 1784 O 169.793 -2.50668 -1.04296 0
M  V30 1785 C 168.249 -3.30825 1.41714 0
M  V30 1786 C 167.857 -3.39244 2.92605 0
M  V30 1787 C 169.601 -4.06443 1.22492 0
M  V30 1788 C 167.508 -4.80047 3.45411 0
M  V30 1789 H 166.438 -0.690387 0.30312 0
M  V30 1790 H 169.089 -1.28146 1.31343 0
M  V30 1791 H 167.471 -3.86737 0.851498 0
M  V30 1792 H 168.645 -2.93344 3.55367 0
M  V30 1793 H 166.96 -2.77088 3.10823 0
M  V30 1794 H 169.557 -5.10387 1.59402 0
M  V30 1795 H 169.9 -4.15972 0.165299 0
M  V30 1796 H 170.433 -3.56852 1.75788 0
M  V30 1797 H 167.172 -4.75709 4.50978 0
M  V30 1798 H 166.692 -5.26455 2.87411 0
M  V30 1799 H 168.371 -5.48957 3.42425 0
M  V30 1800 N 168.503 -0.877838 -1.30888 0
M  V30 1801 C 169.453 -0.310872 -2.25871 0
M  V30 1802 C 170.437 0.556596 -1.50966 0
M  V30 1803 O 171.629 0.402187 -1.7237 0
M  V30 1804 C 168.758 0.479821 -3.3993 0
M  V30 1805 C 167.844 -0.401333 -4.22197 0
M  V30 1806 N 168.235 -1.49848 -4.83093 0
M  V30 1807 C 166.533 -0.195167 -4.45573 0
M  V30 1808 C 167.234 -2.0425 -5.44662 0
M  V30 1809 N 166.21 -1.33843 -5.26865 0
M  V30 1810 H 170.012 -1.1493 -2.70496 0
M  V30 1811 H 167.526 -0.726458 -1.45246 0
M  V30 1812 H 169.523 0.902582 -4.07012 0
M  V30 1813 H 168.183 1.31577 -2.96846 0
M  V30 1814 H 169.194 -1.88137 -4.82519 0
M  V30 1815 H 165.871 0.604192 -4.13105 0
M  V30 1816 H 167.261 -2.96345 -6.03017 0
M  V30 1817 N 169.982 1.44106 -0.638065 0
M  V30 1818 C 170.915 2.27924 0.112161 0
M  V30 1819 C 171.893 1.38945 0.844574 0
M  V30 1820 O 173.077 1.68386 0.847248 0
M  V30 1821 C 170.204 3.18029 1.16512 0
M  V30 1822 C 169.25 4.23163 0.532458 0
M  V30 1823 S 170.083 5.31131 -0.682666 0
M  V30 1824 C 171.239 6.24805 0.37013 0
M  V30 1825 H 171.472 2.91205 -0.598887 0
M  V30 1826 H 169.005 1.48394 -0.426441 0
M  V30 1827 H 170.963 3.70492 1.76766 0
M  V30 1828 H 169.624 2.53955 1.8484 0
M  V30 1829 H 168.817 4.86252 1.32571 0
M  V30 1830 H 168.419 3.74 0.00437644 0
M  V30 1831 H 170.711 6.66042 1.24071 0
M  V30 1832 H 171.654 7.07741 -0.225349 0
M  V30 1833 H 172.062 5.60154 0.699141 0
M  V30 1834 N 171.46 0.379036 1.52974 0
M  V30 1835 C 172.707 -0.206421 2.01445 0
M  V30 1836 C 173.035 -1.47668 1.26587 0
M  V30 1837 O 172.29 -1.92514 0.351675 0
M  V30 1838 C 172.589 -0.53096 3.53434 0
M  V30 1839 C 172.255 0.646546 4.46241 0
M  V30 1840 C 170.917 0.969604 4.7133 0
M  V30 1841 C 173.269 1.43479 5.01062 0
M  V30 1842 C 170.597 2.08263 5.48492 0
M  V30 1843 C 172.949 2.53834 5.7944 0
M  V30 1844 C 171.613 2.86659 6.02812 0
M  V30 1845 H 170.883 -0.0755349 0.73714 0
M  V30 1846 H 173.53 0.514271 1.84465 0
M  V30 1847 H 171.835 -1.33285 3.68432 0
M  V30 1848 H 173.532 -0.996417 3.88423 0
M  V30 1849 H 170.122 0.384734 4.2687 0
M  V30 1850 H 174.306 1.19844 4.81613 0
M  V30 1851 H 169.562 2.34078 5.64816 0
M  V30 1852 H 173.736 3.15319 6.20924 0
M  V30 1853 H 171.363 3.73026 6.62387 0
M  V30 1854 N 172.938 -1.57226 0.108567 0
M  V30 1855 C 174.163 -1.99604 -0.563303 0
M  V30 1856 C 174.588 -0.987563 -1.6009 0
M  V30 1857 O 173.946 0.0421687 -1.81251 0
M  V30 1858 C 173.994 -3.40902 -1.17552 0
M  V30 1859 O 173.098 -3.42896 -2.2912 0
M  V30 1860 H 172.439 -0.648704 -0.1417 0
M  V30 1861 H 174.969 -2.03679 0.193961 0
M  V30 1862 H 174.979 -3.78886 -1.51357 0
M  V30 1863 H 173.654 -4.1382 -0.415445 0
M  V30 1864 H 172.231 -3.1672 -1.96832 0
M  V30 1865 N 174.416 0.165178 -1.56732 0
M  V30 1866 C 175.644 0.896218 -1.86482 0
M  V30 1867 C 176.059 1.75555 -0.694675 0
M  V30 1868 O 175.416 1.79379 0.33607 0
M  V30 1869 C 175.467 1.76792 -3.1532 0
M  V30 1870 O 175.188 0.943239 -4.27825 0
M  V30 1871 C 176.689 2.6081 -3.58459 0
M  V30 1872 H 173.909 0.260064 -0.618553 0
M  V30 1873 H 176.453 0.163428 -2.03846 0
M  V30 1874 H 174.608 2.45398 -2.99764 0
M  V30 1875 H 175.022 1.53998 -5.01383 0
M  V30 1876 H 176.496 3.17579 -4.51495 0
M  V30 1877 H 176.973 3.35977 -2.82872 0
M  V30 1878 H 177.579 1.97526 -3.76648 0
M  V30 1879 N 175.894 1.51508 0.433938 0
M  V30 1880 C 176.857 1.72473 1.50949 0
M  V30 1881 C 177.857 0.594725 1.49398 0
M  V30 1882 O 179.047 0.862315 1.5136 0
M  V30 1883 C 176.179 1.78431 2.90474 0
M  V30 1884 H 177.372 2.68467 1.33662 0
M  V30 1885 H 174.925 1.41549 0.662836 0
M  V30 1886 H 175.66 0.842645 3.13161 0
M  V30 1887 H 175.445 2.60558 2.93005 0
M  V30 1888 H 176.935 1.96479 3.68491 0
M  V30 1889 N 177.372 -0.689602 1.41712 0
M  V30 1890 C 178.282 -1.83314 1.46401 0
M  V30 1891 C 179.298 -1.7036 0.35405 0
M  V30 1892 O 180.474 -1.92171 0.602692 0
M  V30 1893 C 177.539 -3.19344 1.34982 0
M  V30 1894 C 176.6 -3.44363 2.56344 0
M  V30 1895 C 175.833 -4.73904 2.45461 0
M  V30 1896 O 176.056 -5.508 1.48241 0
M  V30 1897 O 174.99 -4.99839 3.35328 0
M  V30 1898 H 178.816 -1.82314 2.42889 0
M  V30 1899 H 176.401 -0.843438 1.23315 0
M  V30 1900 H 178.283 -4.00547 1.3092 0
M  V30 1901 H 176.958 -3.21014 0.41612 0
M  V30 1902 H 175.865 -2.63067 2.65982 0
M  V30 1903 H 177.198 -3.47512 3.48563 0
M  V30 1904 N 178.85 -1.27639 -0.924453 0
M  V30 1905 C 180.098 -1.13941 -1.66918 0
M  V30 1906 C 180.419 0.314589 -1.92446 0
M  V30 1907 O 179.689 1.21964 -1.53303 0
M  V30 1908 H 178.269 -0.418678 -0.618642 0
M  V30 1909 H 180.931 -1.60213 -1.10985 0
M  V30 1910 H 180.027 -1.67094 -2.63602 0
M  V30 1911 N 180.328 1.1314 -1.09713 0
M  V30 1912 C 181.258 2.20748 -0.761102 0
M  V30 1913 C 182.239 1.68061 0.262566 0
M  V30 1914 O 183.424 1.93765 0.129977 0
M  V30 1915 C 180.554 3.46812 -0.184054 0
M  V30 1916 C 179.508 4.12606 -1.13757 0
M  V30 1917 C 178.834 5.33031 -0.422083 0
M  V30 1918 C 180.134 4.59603 -2.48118 0
M  V30 1919 H 181.828 2.49113 -1.66082 0
M  V30 1920 H 179.374 1.19734 -0.799987 0
M  V30 1921 H 181.327 4.21353 0.0631215 0
M  V30 1922 H 180.051 3.17851 0.750868 0
M  V30 1923 H 178.71 3.40036 -1.37007 0
M  V30 1924 H 178.358 5.00335 0.517072 0
M  V30 1925 H 178.058 5.77999 -1.05788 0
M  V30 1926 H 179.582 6.10325 -0.183277 0
M  V30 1927 H 180.996 5.25552 -2.29059 0
M  V30 1928 H 179.393 5.15321 -3.07514 0
M  V30 1929 H 180.463 3.73971 -3.08665 0
M  V30 1930 N 181.806 0.884767 1.30421 0
M  V30 1931 C 182.736 0.367574 2.30589 0
M  V30 1932 C 183.717 -0.549464 1.60981 0
M  V30 1933 O 184.902 -0.46336 1.88591 0
M  V30 1934 C 182.032 -0.418944 3.44764 0
M  V30 1935 C 180.986 0.406316 4.26067 0
M  V30 1936 C 180.312 -0.506793 5.32293 0
M  V30 1937 C 181.612 1.64832 4.95608 0
M  V30 1938 H 183.306 1.20462 2.74097 0
M  V30 1939 H 180.852 0.580695 1.31772 0
M  V30 1940 H 182.805 -0.791395 4.13902 0
M  V30 1941 H 181.529 -1.28964 3.0006 0
M  V30 1942 H 180.188 0.760903 3.58617 0
M  V30 1943 H 179.836 -1.37519 4.83836 0
M  V30 1944 H 179.536 0.0415828 5.87585 0
M  V30 1945 H 181.06 -0.875764 6.04287 0
M  V30 1946 H 182.474 1.34646 5.57264 0
M  V30 1947 H 180.871 2.13688 5.60765 0
M  V30 1948 H 181.941 2.39284 4.21748 0
M  V30 1949 N 183.284 -1.43765 0.645699 0
M  V30 1950 C 184.512 -2.06253 0.163556 0
M  V30 1951 C 184.927 -1.48352 -1.16778 0
M  V30 1952 O 184.284 -0.611932 -1.71935 0
M  V30 1953 C 184.335 -3.61453 0.0583186 0
M  V30 1954 O 184.056 -4.172 1.33702 0
M  V30 1955 C 185.557 -4.41002 -0.450795 0
M  V30 1956 H 182.777 -0.665413 0.0864077 0
M  V30 1957 H 185.321 -1.84396 0.884222 0
M  V30 1958 H 183.476 -3.82522 -0.612865 0
M  V30 1959 H 183.89 -5.10791 1.19131 0
M  V30 1960 H 185.364 -5.49966 -0.473403 0
M  V30 1961 H 185.841 -4.13488 -1.48068 0
M  V30 1962 H 186.447 -4.24886 0.187637 0
M  V30 1963 N 184.763 -0.387143 -1.52771 0
M  V30 1964 C 185.695 0.484089 -2.2403 0
M  V30 1965 C 186.708 1.02849 -1.26198 0
M  V30 1966 O 187.897 0.931186 -1.52286 0
M  V30 1967 C 184.997 1.68337 -2.94136 0
M  V30 1968 C 184.17 1.26672 -4.18656 0
M  V30 1969 C 183.229 2.33045 -4.7178 0
M  V30 1970 O 182.255 1.94541 -5.34923 0
M  V30 1971 N 183.457 3.64929 -4.5145 0
M  V30 1972 H 186.222 -0.126404 -2.99433 0
M  V30 1973 H 183.783 -0.213392 -1.60488 0
M  V30 1974 H 185.775 2.39019 -3.26577 0
M  V30 1975 H 184.345 2.20025 -2.22053 0
M  V30 1976 H 183.565 0.388878 -3.92277 0
M  V30 1977 H 184.853 0.964964 -4.99566 0
M  V30 1978 H 184.251 3.98974 -4.01044 0
M  V30 1979 H 182.808 4.31651 -4.88386 0
M  V30 1980 N 186.241 1.57166 -0.116904 0
M  V30 1981 C 187.489 1.94737 0.540533 0
M  V30 1982 C 187.81 1.00096 1.67349 0
M  V30 1983 O 187.08 0.0568854 1.95817 0
M  V30 1984 H 185.66 0.718981 0.202669 0
M  V30 1985 H 188.322 1.94017 -0.185353 0
M  V30 1986 H 187.418 2.97719 0.936483 0
M  V30 1987 N 187.719 -0.156864 1.56817 0
M  V30 1988 C 188.996 -0.899244 1.73704 0
M  V30 1989 C 189.376 -1.99771 0.682254 0
M  V30 1990 O 188.724 -2.26515 -0.300522 0
M  V30 1991 C 188.934 -1.45075 3.17418 0
M  V30 1992 C 190.282 -1.91802 3.7881 0
M  V30 1993 O 191.306 -1.54838 3.20786 0
M  V30 1994 O 190.165 -2.5994 4.80722 0
M  V30 1995 H 187.259 -0.424267 0.709878 0
M  V30 1996 H 189.805 -0.143561 1.69092 0
M  V30 1997 H 188.577 -0.660846 3.85679 0
M  V30 1998 H 188.2 -2.27021 3.26416 0
M  V30 1999 N 189.197 -1.51736 -0.425897 0
M  V30 2000 C 190.144 -1.73875 -1.51776 0
M  V30 2001 C 191.114 -0.580702 -1.55618 0
M  V30 2002 O 192.299 -0.81641 -1.72451 0
M  V30 2003 C 189.439 -1.88012 -2.89388 0
M  V30 2004 C 188.552 -3.15606 -2.94986 0
M  V30 2005 C 187.687 -3.20271 -4.23793 0
M  V30 2006 C 186.726 -4.42134 -4.23302 0
M  V30 2007 N 185.863 -4.44284 -5.43651 0
M  V30 2008 H 190.703 -2.67071 -1.32201 0
M  V30 2009 H 188.24 -1.32351 -0.642008 0
M  V30 2010 H 190.198 -1.9419 -3.69251 0
M  V30 2011 H 188.828 -0.98213 -3.07496 0
M  V30 2012 H 187.88 -3.18681 -2.07717 0
M  V30 2013 H 189.192 -4.05486 -2.90486 0
M  V30 2014 H 188.346 -3.25428 -5.12036 0
M  V30 2015 H 187.085 -2.28299 -4.30965 0
M  V30 2016 H 186.09 -4.3714 -3.3345 0
M  V30 2017 H 187.315 -5.35382 -4.17783 0
M  V30 2018 H 185.261 -3.55188 -5.51523 0
M  V30 2019 H 185.178 -5.27988 -5.41078 0
M  V30 2020 H 186.446 -4.53649 -6.33895 0
M  V30 2021 N 190.675 0.682077 -1.42076 0
M  V30 2022 C 191.924 1.43786 -1.41451 0
M  V30 2023 C 192.237 1.95574 -0.0317074 0
M  V30 2024 O 193.443 2.71326 0.0971462 0
M  V30 2025 C 191.899 2.60071 -2.48779 0
M  V30 2026 C 191.507 2.15013 -3.93031 0
M  V30 2027 C 193.251 3.37626 -2.57311 0
M  V30 2028 C 191.158 3.28336 -4.91883 0
M  V30 2029 H 190.088 0.540143 -0.526082 0
M  V30 2030 H 192.739 0.739157 -1.67955 0
M  V30 2031 H 191.121 3.32275 -2.15429 0
M  V30 2032 H 192.295 1.5001 -4.35699 0
M  V30 2033 H 190.61 1.50416 -3.88284 0
M  V30 2034 H 193.207 4.22012 -3.28345 0
M  V30 2035 H 193.55 3.83727 -1.61429 0
M  V30 2036 H 194.083 2.72488 -2.89819 0
M  V30 2037 H 190.822 2.87234 -5.89217 0
M  V30 2038 H 190.342 3.92145 -4.53853 0
M  V30 2039 H 192.021 3.93913 -5.13265 0
M  V30 2040 N 192.153 1.28127 0.917671 0
M  V30 2041 C 193.381 1.17892 1.70026 0
M  V30 2042 C 193.796 -0.262958 1.8696 0
M  V30 2043 O 193.153 -1.17811 1.3938 0
M  V30 2044 C 193.204 1.86872 3.09453 0
M  V30 2045 O 192.925 3.25428 2.93306 0
M  V30 2046 C 194.426 1.8289 4.03815 0
M  V30 2047 H 191.646 0.40942 0.531617 0
M  V30 2048 H 194.19 1.69181 1.14883 0
M  V30 2049 H 192.345 1.39464 3.61426 0
M  V30 2050 H 192.759 3.59918 3.81523 0
M  V30 2051 H 194.233 2.35751 4.99125 0
M  V30 2052 H 194.71 0.800412 4.31845 0
M  V30 2053 H 195.316 2.29959 3.57769 0
M  V30 2054 N 193.631 -1.12557 1.10312 0
M  V30 2055 C 194.594 -2.16434 0.75424 0
M  V30 2056 C 195.594 -1.59278 -0.220685 0
M  V30 2057 O 196.784 -1.742 0.00230591 0
M  V30 2058 C 193.916 -3.40699 0.116987 0
M  V30 2059 H 195.109 -2.48811 1.67431 0
M  V30 2060 H 192.662 -1.27542 0.903475 0
M  V30 2061 H 193.397 -3.13921 -0.813877 0
M  V30 2062 H 193.182 -3.83459 0.818613 0
M  V30 2063 H 194.672 -4.17451 -0.111387 0
M  V30 2064 N 195.109 -0.891671 -1.2995 0
M  V30 2065 C 196.386 -0.433307 -1.9074 0
M  V30 2066 C 196.766 1.08646 -1.80995 0
M  V30 2067 O 196.114 1.92476 -1.23147 0
M  V30 2068 C 196.324 -0.938895 -3.36134 0
M  V30 2069 C 197.672 -0.977829 -4.13187 0
M  V30 2070 O 198.696 -0.886015 -3.45005 0
M  V30 2071 O 197.555 -1.11453 -5.35015 0
M  V30 2072 H 194.649 -0.133699 -0.816121 0
M  V30 2073 H 197.195 -0.981011 -1.38471 0
M  V30 2074 H 195.967 -1.98281 -3.37343 0
M  V30 2075 H 195.59 -0.37074 -3.95868 0
M  V30 2076 N 196.587 1.43421 -0.653314 0
M  V30 2077 C 197.835 2.01414 -0.166415 0
M  V30 2078 C 198.156 1.51803 1.22397 0
M  V30 2079 O 197.426 0.730693 1.81763 0
M  V30 2080 H 196.006 0.744703 -0.0585319 0
M  V30 2081 H 198.668 1.75629 -0.845003 0
M  V30 2082 H 197.764 3.11734 -0.151111 0
M  V30 2083 N 198.065 0.39524 1.52563 0
M  V30 2084 C 198.995 -0.428384 2.29537 0
M  V30 2085 C 199.976 -1.05831 1.33169 0
M  V30 2086 O 201.161 -1.06995 1.62067 0
M  V30 2087 C 198.291 -1.55274 3.10656 0
M  V30 2088 C 197.245 -1.04855 4.14957 0
M  V30 2089 C 196.571 -2.26543 4.84337 0
M  V30 2090 C 197.871 -0.112324 5.22179 0
M  V30 2091 H 199.565 0.213867 2.98635 0
M  V30 2092 H 197.111 0.104298 1.43622 0
M  V30 2093 H 199.064 -2.1358 3.63265 0
M  V30 2094 H 197.788 -2.22266 2.39302 0
M  V30 2095 H 196.447 -0.487985 3.63338 0
M  V30 2096 H 196.095 -2.92059 4.09525 0
M  V30 2097 H 195.795 -1.93466 5.54837 0
M  V30 2098 H 197.319 -2.85481 5.39753 0
M  V30 2099 H 198.733 -0.603752 5.70112 0
M  V30 2100 H 197.13 0.128968 5.99961 0
M  V30 2101 H 198.2 0.837052 4.77621 0
M  V30 2102 N 199.544 -1.57102 0.125237 0
M  V30 2103 C 200.476 -2.12726 -0.853237 0
M  V30 2104 C 201.489 -1.07145 -1.22571 0
M  V30 2105 O 202.678 -1.34497 -1.17358 0
M  V30 2106 C 199.778 -2.61709 -2.15317 0
M  V30 2107 C 198.951 -3.91456 -1.95143 0
M  V30 2108 C 198.01 -4.25973 -3.08923 0
M  V30 2109 O 197.036 -4.94682 -2.81564 0
M  V30 2110 N 198.238 -3.83795 -4.35524 0
M  V30 2111 H 201.003 -2.97307 -0.377964 0
M  V30 2112 H 198.564 -1.61792 -0.0590011 0
M  V30 2113 H 200.556 -2.81826 -2.90441 0
M  V30 2114 H 199.126 -1.81974 -2.54174 0
M  V30 2115 H 198.346 -3.80185 -1.04177 0
M  V30 2116 H 199.634 -4.76283 -1.78976 0
M  V30 2117 H 199.032 -3.2839 -4.60626 0
M  V30 2118 H 197.589 -4.09008 -5.07499 0
M  V30 2119 N 201.022 0.148545 -1.56898 0
M  V30 2120 C 201.932 1.20293 -2.01412 0
M  V30 2121 C 202.948 1.47107 -0.929273 0
M  V30 2122 O 204.124 1.58807 -1.23863 0
M  V30 2123 C 201.189 2.51682 -2.38447 0
M  V30 2124 C 200.25 2.32529 -3.60872 0
M  V30 2125 C 199.483 3.57653 -3.96132 0
M  V30 2126 O 199.706 4.63771 -3.32073 0
M  V30 2127 O 198.64 3.50408 -4.89385 0
M  V30 2128 H 202.466 0.855025 -2.91416 0
M  V30 2129 H 200.051 0.357151 -1.45068 0
M  V30 2130 H 201.933 3.29147 -2.63135 0
M  V30 2131 H 200.608 2.86006 -1.51599 0
M  V30 2132 H 199.515 1.53019 -3.41373 0
M  V30 2133 H 200.848 2.03121 -4.48333 0
M  V30 2134 N 202.5 1.5196 0.417844 0
M  V30 2135 C 203.746 1.65836 1.16732 0
M  V30 2136 C 204.079 0.382881 1.90388 0
M  V30 2137 O 203.354 -0.618368 1.84408 0
M  V30 2138 C 203.637 2.87466 2.16876 0
M  V30 2139 C 203.49 4.25041 1.47174 0
M  V30 2140 C 204.809 3.04613 3.17646 0
M  V30 2141 H 201.928 0.603515 0.423011 0
M  V30 2142 H 204.57 1.84494 0.454105 0
M  V30 2143 H 202.72 2.71689 2.777 0
M  V30 2144 H 204.392 4.52527 0.895376 0
M  V30 2145 H 202.635 4.26843 0.773806 0
M  V30 2146 H 203.306 5.06176 2.20204 0
M  V30 2147 H 205.782 3.1923 2.66892 0
M  V30 2148 H 204.658 3.91247 3.8499 0
M  V30 2149 H 204.919 2.17541 3.84874 0
M  V30 2150 N 203.978 -0.674533 1.42435 0
M  V30 2151 C 205.225 -1.43459 1.42919 0
M  V30 2152 C 205.553 -1.94446 0.0457312 0
M  V30 2153 O 204.808 -1.7132 -0.94593 0
M  V30 2154 C 205.107 -2.64767 2.40069 0
M  V30 2155 C 204.773 -2.3232 3.86443 0
M  V30 2156 C 203.435 -2.23182 4.26314 0
M  V30 2157 C 205.787 -2.05977 4.78773 0
M  V30 2158 C 203.115 -1.85827 5.56494 0
M  V30 2159 C 205.467 -1.70125 6.09295 0
M  V30 2160 C 204.131 -1.59498 6.48164 0
M  V30 2161 H 203.401 -0.524952 0.522978 0
M  V30 2162 H 206.048 -0.769097 1.75377 0
M  V30 2163 H 204.353 -3.36349 2.00939 0
M  V30 2164 H 206.05 -3.22949 2.37707 0
M  V30 2165 H 202.64 -2.40334 3.54877 0
M  V30 2166 H 206.824 -2.11969 4.48757 0
M  V30 2167 H 202.08 -1.76168 5.8547 0
M  V30 2168 H 206.254 -1.48767 6.80324 0
M  V30 2169 H 203.881 -1.30322 7.48946 0
M  V30 2170 N 205.456 -1.28612 -0.910864 0
M  V30 2171 C 206.366 -1.14643 -2.0468 0
M  V30 2172 C 207.382 -0.0723121 -1.7385 0
M  V30 2173 O 208.558 -0.282178 -1.99413 0
M  V30 2174 C 205.623 -0.812561 -3.37044 0
M  V30 2175 C 204.684 -1.96935 -3.81465 0
M  V30 2176 C 203.917 -1.65131 -5.07511 0
M  V30 2177 O 204.14 -0.567013 -5.67575 0
M  V30 2178 O 203.074 -2.49585 -5.47714 0
M  V30 2179 H 206.9 -2.1001 -2.19384 0
M  V30 2180 H 204.485 -1.07958 -1.03274 0
M  V30 2181 H 206.367 -0.640441 -4.16505 0
M  V30 2182 H 205.042 0.111426 -3.23508 0
M  V30 2183 H 203.949 -2.19664 -3.02818 0
M  V30 2184 H 205.282 -2.87414 -3.99567 0
M  V30 2185 N 206.934 1.1197 -1.10907 0
M  V30 2186 C 208.162 1.87402 -0.876824 0
M  V30 2187 C 208.577 1.79894 0.573025 0
M  V30 2188 O 207.934 1.17629 1.39534 0
M  V30 2189 C 207.985 3.36428 -1.32282 0
M  V30 2190 O 207.706 3.43765 -2.71582 0
M  V30 2191 C 209.207 4.28783 -1.12518 0
M  V30 2192 H 206.427 0.592793 -0.314384 0
M  V30 2193 H 208.971 1.41649 -1.47499 0
M  V30 2194 H 207.126 3.79706 -0.768229 0
M  V30 2195 H 207.54 4.3652 -2.90776 0
M  V30 2196 H 209.014 5.31613 -1.48633 0
M  V30 2197 H 209.491 4.39153 -0.0642394 0
M  V30 2198 H 210.097 3.91291 -1.66648 0
M  V30 2199 N 208.412 0.89855 1.29475 0
M  V30 2200 C 209.36 0.365253 2.29714 0
M  V30 2201 C 210.354 -0.534993 1.6073 0
M  V30 2202 O 211.56 -0.417921 1.75081 0
M  V30 2203 H 207.935 0.0994853 0.74539 0
M  V30 2204 H 209.906 1.22406 2.72138 0
M  V30 2205 C 208.655 -0.393159 3.4547 0
M  V30 2206 H 207.978 0.290332 3.98744 0
M  V30 2207 H 209.418 -0.731189 4.17648 0
M  V30 2208 C 207.877 -1.59539 2.9673 0
M  V30 2209 O 208.407 -2.69469 2.97908 0
M  V30 2210 N 206.613 -1.43716 2.52575 0
M  V30 2211 H 206.16 -0.542828 2.51816 0
M  V30 2212 H 206.118 -2.24288 2.20323 0
M  V30 2213 N 209.89 -1.43072 0.660911 0
M  V30 2214 C 211.136 -2.0202 0.177708 0
M  V30 2215 C 211.469 -1.52066 -1.20787 0
M  V30 2216 O 210.744 -0.716987 -1.80802 0
M  V30 2217 C 211.027 -3.59561 0.197019 0
M  V30 2218 C 210.88 -4.19727 1.61706 0
M  V30 2219 C 212.199 -4.37664 -0.462396 0
M  V30 2220 H 209.318 -0.734034 0.0660494 0
M  V30 2221 H 211.96 -1.70272 0.843058 0
M  V30 2222 H 210.11 -3.86739 -0.369527 0
M  V30 2223 H 211.782 -4.03553 2.23479 0
M  V30 2224 H 210.025 -3.76084 2.16201 0
M  V30 2225 H 210.696 -5.28834 1.58237 0
M  V30 2226 H 213.172 -4.16095 0.0197215 0
M  V30 2227 H 212.048 -5.47305 -0.418188 0
M  V30 2228 H 212.309 -4.14493 -1.53778 0
M  V30 2229 N 211.368 -0.403325 -1.52352 0
M  V30 2230 C 212.615 0.174347 -2.01748 0
M  V30 2231 C 212.943 1.45636 -1.2892 0
M  V30 2232 O 212.198 1.9193 -0.382258 0
M  V30 2233 C 212.497 0.474665 -3.54234 0
M  V30 2234 C 212.163 -0.717458 -4.45155 0
M  V30 2235 C 210.825 -1.04447 -4.69728 0
M  V30 2236 C 213.177 -1.51432 -4.98716 0
M  V30 2237 C 210.505 -2.16963 -5.45109 0
M  V30 2238 C 212.857 -2.6302 -5.75329 0
M  V30 2239 C 211.521 -2.96213 -5.98175 0
M  V30 2240 H 210.791 0.0637981 -0.738248 0
M  V30 2241 H 213.438 -0.543553 -1.83624 0
M  V30 2242 H 211.743 1.27406 -3.70506 0
M  V30 2243 H 213.44 0.934496 -3.89959 0
M  V30 2244 H 210.03 -0.452596 -4.26204 0
M  V30 2245 H 214.214 -1.27491 -4.79645 0
M  V30 2246 H 209.47 -2.43034 -5.61021 0
M  V30 2247 H 213.644 -3.25158 -6.15829 0
M  V30 2248 H 211.271 -3.83516 -6.56368 0
M  V30 2249 N 212.846 1.57033 -0.133567 0
M  V30 2250 C 214.094 1.953 0.519848 0
M  V30 2251 C 214.415 1.01866 1.66278 0
M  V30 2252 O 213.685 0.0776513 1.95746 0
M  V30 2253 H 212.265 0.721091 0.195032 0
M  V30 2254 H 214.927 1.93809 -0.205921 0
M  V30 2255 H 214.023 2.98695 0.904854 0
M  V30 2256 N 214.325 -0.140222 1.56975 0
M  V30 2257 C 215.275 -1.17827 1.95194 0
M  V30 2258 C 216.259 -1.38195 0.824075 0
M  V30 2259 O 217.451 -1.39643 1.0876 0
M  V30 2260 C 214.58 -2.51024 2.34184 0
M  V30 2261 C 213.666 -2.3422 3.53556 0
M  V30 2262 N 214.057 -1.87185 4.69889 0
M  V30 2263 C 212.355 -2.64949 3.58773 0
M  V30 2264 C 213.056 -1.83586 5.5197 0
M  V30 2265 N 212.032 -2.2715 4.93866 0
M  V30 2266 H 215.834 -0.806817 2.82609 0
M  V30 2267 H 213.348 -0.348208 1.58623 0
M  V30 2268 H 215.345 -3.26074 2.59772 0
M  V30 2269 H 214.005 -2.88945 1.48124 0
M  V30 2270 H 215.016 -1.57048 4.93514 0
M  V30 2271 H 211.693 -3.067 2.8327 0
M  V30 2272 H 213.083 -1.48655 6.55249 0
M  V30 2273 N 215.803 -1.52179 -0.40978 0
M  V30 2274 C 217.05 -1.66206 -1.15679 0
M  V30 2275 C 217.378 -0.391674 -1.90516 0
M  V30 2276 O 216.633 0.62533 -1.8544 0
M  V30 2277 C 216.932 -2.83428 -2.17723 0
M  V30 2278 C 216.598 -4.21672 -1.59699 0
M  V30 2279 C 215.26 -4.59274 -1.43599 0
M  V30 2280 C 217.612 -5.07825 -1.17317 0
M  V30 2281 C 214.94 -5.80709 -0.836328 0
M  V30 2282 C 217.292 -6.29864 -0.587691 0
M  V30 2283 C 215.956 -6.66216 -0.413818 0
M  V30 2284 H 215.226 -0.608192 -0.423301 0
M  V30 2285 H 217.873 -1.86279 -0.444097 0
M  V30 2286 H 216.178 -2.57687 -2.95135 0
M  V30 2287 H 217.875 -2.91477 -2.75394 0
M  V30 2288 H 214.465 -3.9204 -1.73213 0
M  V30 2289 H 218.649 -4.79359 -1.28565 0
M  V30 2290 H 213.905 -6.07498 -0.689626 0
M  V30 2291 H 218.079 -6.95948 -0.250894 0
M  V30 2292 H 215.706 -7.60182 0.0529471 0
M  V30 2293 N 217.281 0.66697 -1.42791 0
M  V30 2294 C 218.53 1.42278 -1.42968 0
M  V30 2295 C 218.843 1.9553 -0.0524489 0
M  V30 2296 O 220.049 2.71414 0.068363 0
M  V30 2297 C 218.505 2.57418 -2.51524 0
M  V30 2298 C 218.113 2.10832 -3.9529 0
M  V30 2299 C 219.857 3.34878 -2.60877 0
M  V30 2300 C 217.764 3.23101 -4.95338 0
M  V30 2301 H 216.694 0.534533 -0.531781 0
M  V30 2302 H 219.345 0.721302 -1.68729 0
M  V30 2303 H 217.727 3.29971 -2.18941 0
M  V30 2304 H 218.901 1.4538 -4.37266 0
M  V30 2305 H 217.216 1.46289 -3.89857 0
M  V30 2306 H 219.813 4.18505 -3.32802 0
M  V30 2307 H 220.156 3.81993 -1.6549 0
M  V30 2308 H 220.689 2.69398 -2.92693 0
M  V30 2309 H 217.428 2.80969 -5.9223 0
M  V30 2310 H 216.948 3.87309 -4.57987 0
M  V30 2311 H 218.627 3.88447 -5.17415 0
M  V30 2312 N 218.759 1.29093 0.90403 0
M  V30 2313 C 219.689 1.16401 2.02418 0
M  V30 2314 C 220.67 0.0593085 1.69997 0
M  V30 2315 O 221.855 0.238021 1.92736 0
M  V30 2316 C 218.985 0.835233 3.37107 0
M  V30 2317 C 217.939 1.89578 3.83724 0
M  V30 2318 C 217.265 1.42041 5.15489 0
M  V30 2319 C 218.565 3.30394 4.04521 0
M  V30 2320 H 220.259 2.10109 2.13295 0
M  V30 2321 H 217.805 1.01157 1.02486 0
M  V30 2322 H 219.758 0.733169 4.14973 0
M  V30 2323 H 218.482 -0.137543 3.2631 0
M  V30 2324 H 217.141 1.98715 3.08071 0
M  V30 2325 H 216.789 0.436426 5.01103 0
M  V30 2326 H 216.489 2.12964 5.4765 0
M  V30 2327 H 218.013 1.33176 5.959 0
M  V30 2328 H 219.427 3.24123 4.72882 0
M  V30 2329 H 217.824 3.99237 4.48029 0
M  V30 2330 H 218.894 3.73692 3.09002 0
M  V30 2331 N 220.237 -1.11381 1.11499 0
M  V30 2332 C 221.486 -1.82494 0.858993 0
M  V30 2333 C 221.799 -1.85605 -0.617278 0
M  V30 2334 O 223.005 -2.52824 -0.989552 0
M  V30 2335 C 221.461 -3.27745 1.48699 0
M  V30 2336 C 221.069 -3.32961 2.99735 0
M  V30 2337 C 222.813 -4.03754 1.31085 0
M  V30 2338 C 220.72 -4.72612 3.55516 0
M  V30 2339 H 219.65 -0.683802 0.317696 0
M  V30 2340 H 222.301 -1.25331 1.34031 0
M  V30 2341 H 220.683 -3.84844 0.933339 0
M  V30 2342 H 221.857 -2.85741 3.61509 0
M  V30 2343 H 220.172 -2.70433 3.16631 0
M  V30 2344 H 222.769 -5.06891 1.70192 0
M  V30 2345 H 223.112 -4.15527 0.253496 0
M  V30 2346 H 223.645 -3.53043 1.83318 0
M  V30 2347 H 220.384 -4.66036 4.60967 0
M  V30 2348 H 219.904 -5.2024 2.98513 0
M  V30 2349 H 221.583 -5.4157 3.53992 0
M  V30 2350 N 221.715 -0.905404 -1.28997 0
M  V30 2351 C 223.131 -0.60233 -1.47798 0
M  V30 2352 C 223.331 0.854645 -1.82478 0
M  V30 2353 O 222.387 1.63439 -1.92468 0
M  V30 2354 C 223.7 -1.53306 -2.58685 0
M  V30 2355 C 225.248 -1.53887 -2.72558 0
M  V30 2356 C 225.723 -2.45602 -3.86579 0
M  V30 2357 N 227.214 -2.43681 -3.93921 0
M  V30 2358 C 227.949 -3.11347 -4.81509 0
M  V30 2359 N 227.445 -3.88313 -5.73746 0
M  V30 2360 N 229.238 -3.00476 -4.75048 0
M  V30 2361 H 221.389 -1.84765 -1.04764 0
M  V30 2362 H 223.652 -0.792025 -0.520961 0
M  V30 2363 H 223.358 -2.57141 -2.39941 0
M  V30 2364 H 223.232 -1.25787 -3.55609 0
M  V30 2365 H 225.619 -0.507941 -2.90696 0
M  V30 2366 H 225.7 -1.85447 -1.76191 0
M  V30 2367 H 225.344 -3.48792 -3.69197 0
M  V30 2368 H 225.274 -2.11349 -4.82327 0
M  V30 2369 H 227.765 -1.87767 -3.27951 0
M  V30 2370 H 228.078 -4.36985 -6.37389 0
M  V30 2371 H 226.423 -3.92419 -5.73614 0
M  V30 2372 H 229.614 -2.39858 -4.01977 0
M  V30 2373 H 229.787 -3.53485 -5.43095 0
M  V30 2374 N 223.193 1.4272 -0.668489 0
M  V30 2375 C 224.103 2.34596 0.0139753 0
M  V30 2376 C 225.119 1.5474 0.795703 0
M  V30 2377 O 226.295 1.87334 0.739466 0
M  V30 2378 C 223.36 3.33202 0.957982 0
M  V30 2379 C 222.421 4.28957 0.17149 0
M  V30 2380 C 221.654 5.22853 1.07053 0
M  V30 2381 O 221.877 5.21531 2.31001 0
M  V30 2382 O 220.811 5.9952 0.534727 0
M  V30 2383 H 224.637 2.9448 -0.742661 0
M  V30 2384 H 222.222 1.43117 -0.428705 0
M  V30 2385 H 224.104 3.93796 1.50008 0
M  V30 2386 H 222.779 2.758 1.69458 0
M  V30 2387 H 221.686 3.71796 -0.414558 0
M  V30 2388 H 223.019 4.89383 -0.52586 0
M  V30 2389 N 224.671 0.411399 1.52136 0
M  V30 2390 C 225.601 -0.404015 2.29978 0
M  V30 2391 C 226.582 -1.04412 1.34284 0
M  V30 2392 O 227.767 -1.0527 1.63192 0
M  V30 2393 C 224.897 -1.5197 3.12286 0
M  V30 2394 C 223.851 -1.00448 4.16046 0
M  V30 2395 C 223.177 -2.21393 4.86712 0
M  V30 2396 C 224.477 -0.0569336 5.22269 0
M  V30 2397 H 226.171 0.245529 2.98392 0
M  V30 2398 H 223.717 0.119525 1.43503 0
M  V30 2399 H 225.67 -2.09715 3.6551 0
M  V30 2400 H 224.394 -2.19716 2.41646 0
M  V30 2401 H 223.053 -0.449421 3.63835 0
M  V30 2402 H 222.701 -2.87699 4.12599 0
M  V30 2403 H 222.401 -1.87571 5.56858 0
M  V30 2404 H 223.925 -2.7974 5.4275 0
M  V30 2405 H 225.339 -0.54325 5.7072 0
M  V30 2406 H 223.736 0.192594 5.99791 0
M  V30 2407 H 224.806 0.887663 4.76706 0
M  V30 2408 N 226.149 -1.5696 0.141893 0
M  V30 2409 C 227.059 -2.20066 -0.812905 0
M  V30 2410 C 228.075 -1.18344 -1.27557 0
M  V30 2411 O 229.251 -1.50902 -1.33381 0
M  V30 2412 C 226.316 -2.80583 -2.03652 0
M  V30 2413 C 225.377 -3.97414 -1.62359 0
M  V30 2414 C 224.61 -4.55036 -2.78887 0
M  V30 2415 O 224.833 -4.11538 -3.94959 0
M  V30 2416 O 223.767 -5.45376 -2.54653 0
M  V30 2417 H 227.593 -3.02157 -0.305746 0
M  V30 2418 H 225.178 -1.49159 -0.0848799 0
M  V30 2419 H 227.06 -3.19067 -2.75272 0
M  V30 2420 H 225.735 -2.01508 -2.5333 0
M  V30 2421 H 224.642 -3.63656 -0.877775 0
M  V30 2422 H 225.975 -4.77994 -1.17401 0
M  V30 2423 N 227.627 0.131896 -1.57047 0
M  V30 2424 C 229.038 0.690407 -1.73465 0
M  V30 2425 C 229.389 1.8094 -0.758629 0
M  V30 2426 O 228.514 2.16282 0.0713813 0
M  V30 2427 C 229.109 1.25916 -3.14532 0
M  V30 2428 C 227.668 1.76409 -3.32501 0
M  V30 2429 C 226.815 0.658579 -2.69366 0
M  V30 2430 H 229.766 -0.0939144 -1.58422 0
M  V30 2431 H 229.787 2.12892 -3.15369 0
M  V30 2432 H 229.299 0.444515 -3.85546 0
M  V30 2433 H 227.4 2.60391 -2.66509 0
M  V30 2434 H 227.513 1.88241 -4.4057 0
M  V30 2435 H 225.877 1.08899 -2.30246 0
M  V30 2436 H 226.66 -0.14487 -3.42994 0
M  V30 2437 N 229.106 1.52395 0.401703 0
M  V30 2438 C 230.036 1.79231 1.49661 0
M  V30 2439 C 231.017 0.643654 1.57452 0
M  V30 2440 O 232.202 0.889989 1.72606 0
M  V30 2441 C 229.332 1.94971 2.87409 0
M  V30 2442 C 228.286 3.10604 2.94465 0
M  V30 2443 C 227.612 3.11577 4.34538 0
M  V30 2444 C 228.912 4.49921 2.6527 0
M  V30 2445 H 230.606 2.70917 1.27454 0
M  V30 2446 H 228.152 1.30362 0.6117 0
M  V30 2447 H 230.105 2.12328 3.63999 0
M  V30 2448 H 228.829 0.999632 3.10926 0
M  V30 2449 H 227.488 2.93009 2.20321 0
M  V30 2450 H 227.136 2.14277 4.55076 0
M  V30 2451 H 226.836 3.89247 4.40183 0
M  V30 2452 H 228.36 3.31073 5.13053 0
M  V30 2453 H 229.774 4.67683 3.31581 0
M  V30 2454 H 228.171 5.29564 2.82281 0
M  V30 2455 H 229.241 4.57507 1.60671 0
M  V30 2456 N 230.584 -0.659388 1.43143 0
M  V30 2457 C 231.514 -1.78422 1.50625 0
M  V30 2458 C 232.495 -1.66216 0.361443 0
M  V30 2459 O 233.68 -1.85404 0.577834 0
M  V30 2460 C 230.81 -3.16815 1.42287 0
M  V30 2461 C 229.764 -3.43777 2.54954 0
M  V30 2462 C 229.09 -4.81905 2.31671 0
M  V30 2463 C 230.39 -3.39134 3.97222 0
M  V30 2464 H 232.084 -1.72417 2.44771 0
M  V30 2465 H 229.63 -0.828084 1.17808 0
M  V30 2466 H 231.583 -3.95253 1.46127 0
M  V30 2467 H 230.307 -3.23534 0.446435 0
M  V30 2468 H 228.966 -2.67707 2.50457 0
M  V30 2469 H 228.614 -4.85294 1.32284 0
M  V30 2470 H 228.314 -5.00906 3.07192 0
M  V30 2471 H 229.838 -5.62609 2.37284 0
M  V30 2472 H 231.252 -4.07518 4.03239 0
M  V30 2473 H 229.649 -3.69671 4.72719 0
M  V30 2474 H 230.719 -2.37426 4.22797 0
M  V30 2475 N 232.062 -1.29571 -0.897171 0
M  V30 2476 C 233.302 -1.18959 -1.66217 0
M  V30 2477 C 233.666 0.254271 -1.90309 0
M  V30 2478 O 234.867 0.483407 -2.64417 0
M  V30 2479 C 233.138 -1.98302 -2.9734 0
M  V30 2480 S 234.697 -2.04253 -3.88364 0
M  V30 2481 H 231.515 -0.424137 -0.570639 0
M  V30 2482 H 234.117 -1.6389 -1.06585 0
M  V30 2483 H 232.821 -3.02342 -2.77521 0
M  V30 2484 H 232.352 -1.53986 -3.62011 0
M  V30 2485 H 234.367 -1.16105 -4.82425 0
M  V30 2486 N 233.54 1.10788 -1.12088 0
M  V30 2487 C 234.49 2.15158 -0.754401 0
M  V30 2488 C 235.474 1.59026 0.244846 0
M  V30 2489 O 236.666 1.76927 0.0509097 0
M  V30 2490 C 233.795 3.42677 -0.206657 0
M  V30 2491 C 232.881 4.05751 -1.23398 0
M  V30 2492 N 233.272 4.43582 -2.43041 0
M  V30 2493 C 231.57 4.32764 -1.07848 0
M  V30 2494 C 232.271 4.93085 -3.08613 0
M  V30 2495 N 231.247 4.89664 -2.36072 0
M  V30 2496 H 235.049 2.42195 -1.6649 0
M  V30 2497 H 232.563 1.27872 -1.00112 0
M  V30 2498 H 234.56 4.16834 0.0740646 0
M  V30 2499 H 233.22 3.17101 0.698342 0
M  V30 2500 H 234.231 4.35395 -2.80449 0
M  V30 2501 H 230.908 4.16863 -0.230483 0
M  V30 2502 H 232.298 5.31933 -4.10483 0
M  V30 2503 N 235.018 0.912232 1.28515 0
M  V30 2504 C 236.243 0.559774 1.99703 0
M  V30 2505 C 236.668 -0.851393 1.67729 0
M  V30 2506 O 236.026 -1.56875 0.908834 0
M  V30 2507 C 236.074 0.773874 3.52198 0
M  V30 2508 O 235.178 -0.167842 4.12058 0
M  V30 2509 H 234.519 0.21723 0.627461 0
M  V30 2510 H 237.049 1.22725 1.63706 0
M  V30 2511 H 237.059 0.683386 4.02236 0
M  V30 2512 H 235.734 1.80261 3.74805 0
M  V30 2513 H 234.311 -0.0287509 3.72889 0
M  V30 2514 N 236.496 -1.42363 0.676048 0
M  V30 2515 C 237.773 -1.95183 0.127726 0
M  V30 2516 C 238.153 -1.61641 -1.35777 0
M  V30 2517 O 237.501 -0.913216 -2.09458 0
M  V30 2518 C 237.711 -3.46721 0.398199 0
M  V30 2519 C 239.059 -4.23427 0.315383 0
M  V30 2520 O 240.083 -3.54649 0.332016 0
M  V30 2521 O 238.942 -5.45888 0.25865 0
M  V30 2522 H 236.036 -0.826992 0.00359427 0
M  V30 2523 H 238.582 -1.52184 0.750864 0
M  V30 2524 H 237.354 -3.64344 1.4272 0
M  V30 2525 H 236.977 -3.96769 -0.256885 0
M  V30 2526 N 237.974 -0.419461 -1.51915 0
M  V30 2527 C 238.922 0.415502 -2.28859 0
M  V30 2528 C 239.916 1.03674 -1.3397 0
M  V30 2529 O 241.122 0.973757 -1.51387 0
M  V30 2530 H 237.497 0.152786 -0.736315 0
M  V30 2531 H 239.468 -0.254531 -2.97312 0
M  V30 2532 C 238.217 1.51425 -3.12995 0
M  V30 2533 H 237.54 1.04556 -3.85886 0
M  V30 2534 H 238.98 2.07208 -3.6992 0
M  V30 2535 C 237.439 2.48745 -2.27217 0
M  V30 2536 O 237.969 3.52871 -1.9195 0
M  V30 2537 N 236.175 2.19202 -1.90785 0
M  V30 2538 H 235.722 1.34556 -2.19664 0
M  V30 2539 H 235.68 2.84561 -1.33687 0
M  V30 2540 N 239.452 1.56882 -0.150215 0
M  V30 2541 C 240.863 1.82995 0.370076 0
M  V30 2542 C 241.214 1.06907 1.64515 0
M  V30 2543 O 240.339 0.315369 2.1409 0
M  V30 2544 C 240.934 3.31942 0.678208 0
M  V30 2545 C 239.493 3.58625 1.14301 0
M  V30 2546 C 238.64 2.76792 0.167778 0
M  V30 2547 H 241.591 1.54209 -0.374858 0
M  V30 2548 H 241.612 3.48272 1.53254 0
M  V30 2549 H 241.124 3.87294 -0.249991 0
M  V30 2550 H 239.225 3.08664 2.08704 0
M  V30 2551 H 239.338 4.67073 1.06676 0
M  V30 2552 H 237.702 2.45972 0.661037 0
M  V30 2553 H 238.485 3.34916 -0.754069 0
M  V30 2554 N 240.93 -0.123565 1.57115 0
M  V30 2555 C 242.155 -0.850398 1.89164 0
M  V30 2556 C 242.58 -1.7286 0.741688 0
M  V30 2557 O 241.938 -1.78665 -0.307958 0
M  V30 2558 C 241.986 -1.66353 3.19936 0
M  V30 2559 O 241.09 -2.77004 3.0552 0
M  V30 2560 H 240.431 -0.235454 0.620852 0
M  V30 2561 H 242.961 -0.107335 2.04318 0
M  V30 2562 H 242.971 -2.05372 3.52543 0
M  V30 2563 H 241.646 -1.01881 4.03228 0
M  V30 2564 H 240.223 -2.41221 2.84371 0
M  V30 2565 N 242.408 -1.52605 -0.393616 0
M  V30 2566 C 243.34 -1.73303 -1.49995 0
M  V30 2567 C 244.353 -0.613473 -1.50799 0
M  V30 2568 O 245.542 -0.889049 -1.54784 0
M  V30 2569 C 242.642 -1.77245 -2.88855 0
M  V30 2570 C 241.815 -3.06483 -3.12069 0
M  V30 2571 C 240.874 -3.02033 -4.30886 0
M  V30 2572 O 239.9 -3.75907 -4.27414 0
M  V30 2573 N 241.102 -2.20897 -5.36828 0
M  V30 2574 H 243.867 -2.68756 -1.32629 0
M  V30 2575 H 241.428 -1.51036 -0.583083 0
M  V30 2576 H 243.42 -1.7178 -3.66434 0
M  V30 2577 H 241.99 -0.891993 -2.99603 0
M  V30 2578 H 241.21 -3.25474 -2.22396 0
M  V30 2579 H 242.498 -3.91947 -3.2443 0
M  V30 2580 H 241.896 -1.60336 -5.42502 0
M  V30 2581 H 240.453 -2.21275 -6.13091 0
M  V30 2582 N 243.887 0.651787 -1.4349 0
M  V30 2583 C 244.817 1.77621 -1.51569 0
M  V30 2584 C 245.798 1.66022 -0.370253 0
M  V30 2585 O 246.983 1.85095 -0.587658 0
M  V30 2586 C 244.113 3.16056 -1.43966 0
M  V30 2587 C 243.067 3.4242 -2.56774 0
M  V30 2588 C 242.393 4.8067 -2.34223 0
M  V30 2589 C 243.693 3.37023 -3.99015 0
M  V30 2590 H 245.387 1.71117 -2.45681 0
M  V30 2591 H 242.933 0.821825 -1.18246 0
M  V30 2592 H 244.886 3.94472 -1.48221 0
M  V30 2593 H 243.61 3.23293 -0.463586 0
M  V30 2594 H 242.269 2.66375 -2.51873 0
M  V30 2595 H 241.917 4.84585 -1.34856 0
M  V30 2596 H 241.617 4.9927 -3.09844 0
M  V30 2597 H 243.141 5.61342 -2.40265 0
M  V30 2598 H 244.555 4.05374 -4.05395 0
M  V30 2599 H 242.952 3.67159 -4.74673 0
M  V30 2600 H 244.022 2.3518 -4.2405 0
M  V30 2601 N 245.365 1.30045 0.890287 0
M  V30 2602 C 246.614 1.17929 1.63633 0
M  V30 2603 C 246.927 -0.266204 1.9378 0
M  V30 2604 O 248.133 -0.508804 2.6669 0
M  V30 2605 C 246.589 2.06317 2.94892 0
M  V30 2606 C 246.197 3.55745 2.72305 0
M  V30 2607 C 247.941 2.0295 3.72843 0
M  V30 2608 C 245.848 4.36205 3.99348 0
M  V30 2609 H 244.778 0.437782 0.613892 0
M  V30 2610 H 247.429 1.54754 0.986075 0
M  V30 2611 H 245.811 1.6237 3.61182 0
M  V30 2612 H 246.985 4.07805 2.1455 0
M  V30 2613 H 245.3 3.6088 2.07737 0
M  V30 2614 H 247.897 2.60319 4.67053 0
M  V30 2615 H 248.24 1.0117 4.0382 0
M  V30 2616 H 248.773 2.4499 3.13408 0
M  V30 2617 H 245.512 5.38659 3.73533 0
M  V30 2618 H 245.032 3.8891 4.56628 0
M  V30 2619 H 246.711 4.47362 4.67415 0
M  V30 2620 N 246.843 -1.10192 1.12674 0
M  V30 2621 C 248.089 -1.82658 0.894847 0
M  V30 2622 C 248.444 -1.83666 -0.573107 0
M  V30 2623 O 247.737 -1.28816 -1.41835 0
M  V30 2624 C 247.931 -3.28552 1.4067 0
M  V30 2625 C 247.76 -3.41756 2.92289 0
M  V30 2626 C 246.53 -3.54021 3.60551 0
M  V30 2627 C 248.728 -3.34949 3.90274 0
M  V30 2628 N 246.71 -3.55827 5.0026 0
M  V30 2629 C 248.081 -3.43531 5.16127 0
M  V30 2630 C 250.136 -3.18565 3.8265 0
M  V30 2631 C 248.839 -3.37416 6.3525 0
M  V30 2632 C 250.865 -3.13772 5.01299 0
M  V30 2633 C 250.227 -3.22938 6.26012 0
M  V30 2634 H 246.326 -0.683044 0.380756 0
M  V30 2635 H 248.91 -1.31752 1.43351 0
M  V30 2636 H 247.081 -3.77946 0.895055 0
M  V30 2637 H 248.813 -3.88991 1.11661 0
M  V30 2638 H 245.568 -3.57135 3.1105 0
M  V30 2639 H 245.992 -3.60335 5.73138 0
M  V30 2640 H 250.634 -3.10354 2.87124 0
M  V30 2641 H 248.352 -3.44391 7.3104 0
M  V30 2642 H 251.938 -3.02242 4.97133 0
M  V30 2643 H 250.818 -3.19235 7.16281 0
M  V30 2644 N 248.321 -0.919034 -1.28029 0
M  V30 2645 C 249.549 -0.570971 -1.98866 0
M  V30 2646 C 249.964 0.848996 -1.68634 0
M  V30 2647 O 249.321 1.56307 -0.942036 0
M  V30 2648 C 249.372 -0.776876 -3.53054 0
M  V30 2649 O 249.093 -2.14097 -3.82222 0
M  V30 2650 C 250.594 -0.436356 -4.41147 0
M  V30 2651 H 247.814 -0.217175 -0.634883 0
M  V30 2652 H 250.358 -1.23368 -1.63097 0
M  V30 2653 H 248.513 -0.161085 -3.87065 0
M  V30 2654 H 248.927 -2.18455 -4.76841 0
M  V30 2655 H 250.401 -0.63117 -5.4838 0
M  V30 2656 H 250.878 0.627686 -4.34692 0
M  V30 2657 H 251.484 -1.02991 -4.12641 0
M  V30 2658 N 249.799 1.42003 -0.683588 0
M  V30 2659 C 251.024 2.06265 -0.216647 0
M  V30 2660 C 251.449 1.51059 1.12083 0
M  V30 2661 O 250.807 0.632638 1.69904 0
M  V30 2662 C 250.855 3.60191 -0.171759 0
M  V30 2663 O 249.959 4.03396 0.857069 0
M  V30 2664 H 249.3 0.65502 -0.108834 0
M  V30 2665 H 251.83 1.81982 -0.935077 0
M  V30 2666 H 251.84 4.08 0.0014303 0
M  V30 2667 H 250.515 3.99743 -1.14796 0
M  V30 2668 H 249.092 3.67117 0.654208 0
M  V30 2669 N 251.277 0.427512 1.51691 0
M  V30 2670 C 252.502 -0.143601 2.06902 0
M  V30 2671 C 252.927 -1.36536 1.29382 0
M  V30 2672 O 252.285 -1.78289 0.329043 0
M  V30 2673 C 252.333 -0.454207 3.57728 0
M  V30 2674 O 251.437 -1.54228 3.82475 0
M  V30 2675 H 250.778 -0.00617128 0.663971 0
M  V30 2676 H 253.308 0.606014 1.95419 0
M  V30 2677 H 253.318 -0.707525 4.01818 0
M  V30 2678 H 251.993 0.438812 4.13579 0
M  V30 2679 H 250.57 -1.2797 3.50254 0
M  V30 2680 N 252.755 -1.56801 0.158532 0
M  V30 2681 C 254.171 -1.5837 -0.197774 0
M  V30 2682 C 254.371 -1.17334 -1.63814 0
M  V30 2683 O 253.427 -0.878988 -2.36707 0
M  V30 2684 C 254.74 -3.00615 0.0714459 0
M  V30 2685 C 256.288 -3.12999 0.00864533 0
M  V30 2686 C 256.763 -4.57313 0.250685 0
M  V30 2687 N 258.254 -4.62777 0.198014 0
M  V30 2688 C 258.989 -5.72271 0.359642 0
M  V30 2689 N 258.485 -6.90371 0.579625 0
M  V30 2690 N 260.278 -5.61318 0.296438 0
M  V30 2691 H 252.429 -1.81765 1.09887 0
M  V30 2692 H 254.692 -0.841849 0.435884 0
M  V30 2693 H 254.398 -3.35068 1.06874 0
M  V30 2694 H 254.272 -3.71683 -0.642757 0
M  V30 2695 H 256.659 -2.7838 -0.979217 0
M  V30 2696 H 256.74 -2.44393 0.755359 0
M  V30 2697 H 256.384 -4.92639 1.2357 0
M  V30 2698 H 256.314 -5.24061 -0.516489 0
M  V30 2699 H 258.805 -3.77885 0.0331115 0
M  V30 2700 H 259.118 -7.69689 0.69275 0
M  V30 2701 H 257.463 -6.92264 0.616087 0
M  V30 2702 H 260.654 -4.67932 0.125258 0
M  V30 2703 H 260.827 -6.46599 0.425831 0
M  V30 2704 N 254.233 0.115231 -1.57178 0
M  V30 2705 C 255.458 0.840354 -1.89612 0
M  V30 2706 C 255.883 1.72464 -0.750845 0
M  V30 2707 O 255.241 1.78826 0.298478 0
M  V30 2708 C 255.289 1.64654 -3.20814 0
M  V30 2709 O 254.393 2.7538 -3.06985 0
M  V30 2710 H 253.734 0.232158 -0.622092 0
M  V30 2711 H 256.264 0.0964977 -2.04372 0
M  V30 2712 H 256.274 2.03499 -3.53627 0
M  V30 2713 H 254.949 0.997416 -4.03763 0
M  V30 2714 H 253.526 2.3971 -2.85646 0
M  V30 2715 N 255.711 1.52812 0.385517 0
M  V30 2716 C 256.674 1.77188 1.45386 0
M  V30 2717 C 257.674 0.641953 1.4743 0
M  V30 2718 O 258.864 0.910033 1.4854 0
M  V30 2719 C 255.996 1.87582 2.8465 0
M  V30 2720 H 257.189 2.72583 1.25054 0
M  V30 2721 H 254.742 1.43586 0.617467 0
M  V30 2722 H 255.477 0.941849 3.10322 0
M  V30 2723 H 255.262 2.69748 2.84567 0
M  V30 2724 H 256.752 2.08102 3.62054 0
M  V30 2725 N 257.189 -0.644168 1.43834 0
M  V30 2726 C 258.605 -0.960875 1.27434 0
M  V30 2727 C 258.805 -2.00499 0.200618 0
M  V30 2728 O 257.861 -2.49018 -0.417906 0
M  V30 2729 C 259.174 -1.43653 2.64167 0
M  V30 2730 C 260.722 -1.55271 2.71772 0
M  V30 2731 C 261.197 -2.06224 4.08944 0
M  V30 2732 N 262.688 -2.13513 4.11055 0
M  V30 2733 C 263.423 -2.54081 5.14033 0
M  V30 2734 N 262.919 -2.9388 6.27381 0
M  V30 2735 N 264.712 -2.54101 5.01387 0
M  V30 2736 H 256.863 0.0465779 2.12349 0
M  V30 2737 H 259.126 -0.0417638 0.94708 0
M  V30 2738 H 258.832 -0.743706 3.43747 0
M  V30 2739 H 258.706 -2.40993 2.90176 0
M  V30 2740 H 261.093 -2.23653 1.92519 0
M  V30 2741 H 261.174 -0.563395 2.49519 0
M  V30 2742 H 260.818 -1.38441 4.88668 0
M  V30 2743 H 260.748 -3.06003 4.28567 0
M  V30 2744 H 263.239 -1.85493 3.29242 0
M  V30 2745 H 263.552 -3.2361 7.01781 0
M  V30 2746 H 261.897 -2.91663 6.30839 0
M  V30 2747 H 265.088 -2.22391 4.11898 0
M  V30 2748 H 265.261 -2.85394 5.81768 0
M  V30 2749 N 258.668 -1.30515 -0.883378 0
M  V30 2750 C 259.615 -1.17032 -1.98927 0
M  V30 2751 C 260.585 -0.0594241 -1.65994 0
M  V30 2752 O 261.77 -0.229895 -1.8941 0
M  V30 2753 C 258.91 -0.869777 -3.33959 0
M  V30 2754 C 258.023 -2.06271 -3.79574 0
M  V30 2755 C 257.158 -1.70011 -5.03259 0
M  V30 2756 C 256.197 -2.8579 -5.41286 0
M  V30 2757 N 255.334 -2.49816 -6.56153 0
M  V30 2758 H 260.174 -2.1164 -2.09792 0
M  V30 2759 H 257.711 -1.05296 -1.02719 0
M  V30 2760 H 259.669 -0.676138 -4.11685 0
M  V30 2761 H 258.299 0.0394332 -3.22776 0
M  V30 2762 H 257.351 -2.36755 -2.97744 0
M  V30 2763 H 258.663 -2.92971 -4.03694 0
M  V30 2764 H 257.817 -1.47032 -5.88614 0
M  V30 2765 H 256.556 -0.804829 -4.81013 0
M  V30 2766 H 255.561 -3.09434 -4.54456 0
M  V30 2767 H 256.786 -3.76008 -5.65504 0
M  V30 2768 H 254.732 -1.62795 -6.35479 0
M  V30 2769 H 254.649 -3.30048 -6.8015 0
M  V30 2770 H 255.917 -2.30197 -7.44735 0
M  V30 2771 N 260.146 1.09593 -1.13257 0
M  V30 2772 C 261.371 1.8604 -0.916732 0
M  V30 2773 C 261.796 1.80504 0.529146 0
M  V30 2774 O 261.154 1.18127 1.37534 0
M  V30 2775 C 261.202 3.32017 -1.40703 0
M  V30 2776 O 260.306 4.08141 -0.591153 0
M  V30 2777 H 259.647 0.576943 -0.328683 0
M  V30 2778 H 262.177 1.38405 -1.50682 0
M  V30 2779 H 262.187 3.82865 -1.4099 0
M  V30 2780 H 260.862 3.35361 -2.45979 0
M  V30 2781 H 259.439 3.67084 -0.656005 0
M  V30 2782 N 261.624 0.925811 1.2754 0
M  V30 2783 C 262.572 0.413897 2.28888 0
M  V30 2784 C 263.566 -0.500779 1.61829 0
M  V30 2785 O 264.772 -0.38069 1.75928 0
M  V30 2786 H 261.147 0.115274 0.743112 0
M  V30 2787 H 263.118 1.28151 2.69481 0
M  V30 2788 C 261.867 -0.319792 3.46226 0
M  V30 2789 H 261.19 0.374846 3.98039 0
M  V30 2790 H 262.63 -0.642435 4.19105 0
M  V30 2791 C 261.089 -1.53209 3.00048 0
M  V30 2792 O 261.619 -2.6309 3.03557 0
M  V30 2793 N 259.825 -1.38326 2.55566 0
M  V30 2794 H 259.372 -0.489292 2.5291 0
M  V30 2795 H 259.33 -2.19564 2.25031 0
M  V30 2796 N 263.102 -1.41638 0.69111 0
M  V30 2797 C 264.349 -2.01299 0.220193 0
M  V30 2798 C 264.677 -1.54715 -1.17871 0
M  V30 2799 O 263.932 -0.747193 -1.80874 0
M  V30 2800 C 264.231 -3.56714 0.221277 0
M  V30 2801 C 263.897 -4.22792 1.56709 0
M  V30 2802 C 262.559 -4.40557 1.93554 0
M  V30 2803 C 264.911 -4.59883 2.45268 0
M  V30 2804 C 262.239 -4.92688 3.18552 0
M  V30 2805 C 264.591 -5.13403 3.69595 0
M  V30 2806 C 263.255 -5.29379 4.06589 0
M  V30 2807 H 262.525 -0.736606 0.0805743 0
M  V30 2808 H 265.172 -1.69598 0.889319 0
M  V30 2809 H 263.477 -3.8818 -0.531391 0
M  V30 2810 H 265.174 -4.00678 -0.160547 0
M  V30 2811 H 261.764 -4.09336 1.2705 0
M  V30 2812 H 265.948 -4.45817 2.18084 0
M  V30 2813 H 261.204 -5.03242 3.47214 0
M  V30 2814 H 265.378 -5.41084 4.38407 0
M  V30 2815 H 263.005 -5.69537 5.03519 0
M  V30 2816 N 264.58 -0.43555 -1.51462 0
M  V30 2817 C 265.805 0.132627 -2.06976 0
M  V30 2818 C 266.23 1.35848 -1.30104 0
M  V30 2819 O 265.588 1.78112 -0.338493 0
M  V30 2820 C 265.636 0.43523 -3.57964 0
M  V30 2821 O 264.74 1.52198 -3.83288 0
M  V30 2822 H 264.081 0.00265 -0.663995 0
M  V30 2823 H 266.611 -0.616369 -1.95095 0
M  V30 2824 H 266.621 0.686206 -4.02188 0
M  V30 2825 H 265.296 -0.460739 -4.1334 0
M  V30 2826 H 263.873 1.2611 -3.50928 0
M  V30 2827 N 266.058 1.56714 -0.166846 0
M  V30 2828 C 266.988 2.20754 0.760913 0
M  V30 2829 C 267.969 1.16178 1.24244 0
M  V30 2830 O 269.154 1.44592 1.29641 0
M  V30 2831 C 266.284 2.84478 1.99223 0
M  V30 2832 C 265.238 3.95053 1.64672 0
M  V30 2833 C 264.564 4.45805 2.95232 0
M  V30 2834 C 265.864 5.14865 0.878155 0
M  V30 2835 H 267.558 2.98537 0.22713 0
M  V30 2836 H 265.104 1.43596 0.107805 0
M  V30 2837 H 267.057 3.27951 2.64624 0
M  V30 2838 H 265.781 2.04056 2.55007 0
M  V30 2839 H 264.44 3.52228 1.01641 0
M  V30 2840 H 264.088 3.62181 3.49047 0
M  V30 2841 H 263.788 5.204 2.7287 0
M  V30 2842 H 265.312 4.91962 3.6167 0
M  V30 2843 H 266.726 5.55059 1.43466 0
M  V30 2844 H 265.123 5.95348 0.753738 0
M  V30 2845 H 266.193 4.84735 -0.126377 0
M  V30 2846 N 267.536 -0.106894 1.57237 0
M  V30 2847 C 268.446 -1.14911 2.0453 0
M  V30 2848 C 269.462 -1.44592 0.96795 0
M  V30 2849 O 270.638 -1.55468 1.2803 0
M  V30 2850 C 267.703 -2.45272 2.45036 0
M  V30 2851 C 266.764 -2.22879 3.66911 0
M  V30 2852 C 265.997 -3.47024 4.05475 0
M  V30 2853 O 266.22 -4.54804 3.44252 0
M  V30 2854 O 265.154 -3.3731 4.98504 0
M  V30 2855 H 268.98 -0.777461 2.9358 0
M  V30 2856 H 266.565 -0.318563 1.45964 0
M  V30 2857 H 268.447 -3.22055 2.71769 0
M  V30 2858 H 267.122 -2.81886 1.59129 0
M  V30 2859 H 266.029 -1.43915 3.45311 0
M  V30 2860 H 267.362 -1.91163 4.53561 0
M  V30 2861 N 269.014 -1.53014 -0.377408 0
M  V30 2862 C 270.291 -1.59215 -1.13622 0
M  V30 2863 C 270.671 -0.392407 -2.07421 0
M  V30 2864 O 270.019 0.618342 -2.19975 0
M  V30 2865 C 270.229 -2.93669 -1.88573 0
M  V30 2866 C 271.577 -3.47822 -2.43526 0
M  V30 2867 O 272.601 -2.9562 -1.98715 0
M  V30 2868 O 271.46 -4.39055 -3.25412 0
M  V30 2869 H 268.554 -0.642625 -0.52054 0
M  V30 2870 H 271.1 -1.65353 -0.381625 0
M  V30 2871 H 269.872 -3.7243 -1.20048 0
M  V30 2872 H 269.495 -2.90968 -2.70968 0
M  V30 2873 N 270.492 0.636531 -1.44174 0
M  V30 2874 C 271.739 1.39619 -1.46672 0
M  V30 2875 C 272.067 1.94257 -0.0972691 0
M  V30 2876 O 271.322 1.73768 0.900175 0
M  V30 2877 C 271.621 2.58309 -2.47005 0
M  V30 2878 C 271.287 2.21992 -3.92467 0
M  V30 2879 C 269.949 2.118 -4.32081 0
M  V30 2880 C 272.301 1.9321 -4.84065 0
M  V30 2881 C 269.629 1.71007 -5.61225 0
M  V30 2882 C 271.981 1.53911 -6.13591 0
M  V30 2883 C 270.645 1.42257 -6.52165 0
M  V30 2884 H 269.915 0.510902 -0.536712 0
M  V30 2885 H 272.562 0.722328 -1.77355 0
M  V30 2886 H 270.867 3.30903 -2.09786 0
M  V30 2887 H 272.564 3.16533 -2.46186 0
M  V30 2888 H 269.154 2.30841 -3.61124 0
M  V30 2889 H 273.338 1.99997 -4.54219 0
M  V30 2890 H 268.594 1.60583 -5.89935 0
M  V30 2891 H 272.768 1.30677 -6.8403 0
M  V30 2892 H 270.395 1.10419 -7.52138 0
M  V30 2893 N 271.97 1.30982 0.876444 0
M  V30 2894 C 272.902 1.13902 1.98894 0
M  V30 2895 C 273.915 0.0798815 1.62604 0
M  V30 2896 O 275.104 0.326743 1.75484 0
M  V30 2897 C 272.204 0.716699 3.31235 0
M  V30 2898 C 271.377 1.85945 3.95908 0
M  V30 2899 C 270.436 1.42426 5.06558 0
M  V30 2900 O 269.462 2.13287 5.27729 0
M  V30 2901 N 270.664 0.308025 5.79682 0
M  V30 2902 H 273.429 2.09724 2.14094 0
M  V30 2903 H 270.99 1.2323 1.05004 0
M  V30 2904 H 272.982 0.408403 4.02634 0
M  V30 2905 H 271.552 -0.149719 3.12241 0
M  V30 2906 H 270.772 2.33541 3.17573 0
M  V30 2907 H 272.06 2.62503 4.35855 0
M  V30 2908 H 271.458 -0.282241 5.64995 0
M  V30 2909 H 270.015 0.0592282 6.51773 0
M  V30 2910 N 273.449 -1.08991 1.13837 0
M  V30 2911 C 274.399 -2.1393 0.788535 0
M  V30 2912 C 275.383 -1.59396 -0.219516 0
M  V30 2913 O 276.575 -1.76985 -0.0227557 0
M  V30 2914 C 273.704 -3.42305 0.261147 0
M  V30 2915 C 272.79 -4.03736 1.29837 0
M  V30 2916 N 273.181 -4.39659 2.50067 0
M  V30 2917 C 271.479 -4.30993 1.1472 0
M  V30 2918 C 272.18 -4.88113 3.16419 0
M  V30 2919 N 271.156 -4.85846 2.43832 0
M  V30 2920 H 274.958 -2.39516 1.70322 0
M  V30 2921 H 272.472 -1.26263 1.02134 0
M  V30 2922 H 274.469 -4.16899 -0.0077405 0
M  V30 2923 H 273.129 -3.18172 -0.647805 0
M  V30 2924 H 274.14 -4.30878 2.8734 0
M  V30 2925 H 270.817 -4.16444 0.296773 0
M  V30 2926 H 272.207 -5.25336 4.18894 0
M  V30 2927 N 274.927 -0.932562 -1.27047 0
M  V30 2928 C 276.152 -0.591474 -1.98787 0
M  V30 2929 C 276.577 0.824601 -1.69062 0
M  V30 2930 O 275.935 1.5541 -0.933677 0
M  V30 2931 C 275.983 -0.829808 -3.50922 0
M  V30 2932 O 275.087 0.102266 -4.12273 0
M  V30 2933 H 274.428 -0.227185 -0.623926 0
M  V30 2934 H 276.958 -1.25314 -1.61733 0
M  V30 2935 H 276.968 -0.747292 -4.01098 0
M  V30 2936 H 275.643 -1.86201 -3.7189 0
M  V30 2937 H 274.22 -0.0305761 -3.72887 0
M  V30 2938 N 276.405 1.4127 -0.698611 0
M  V30 2939 C 277.352 2.30773 -0.0352094 0
M  V30 2940 C 278.322 1.47273 0.768111 0
M  V30 2941 O 279.507 1.76053 0.735524 0
M  V30 2942 C 276.647 3.33346 0.893 0
M  V30 2943 C 275.76 4.31924 0.0809695 0
M  V30 2944 C 274.895 5.21566 1.0071 0
M  V30 2945 C 273.934 6.11811 0.188155 0
M  V30 2946 N 273.071 6.93926 1.06825 0
M  V30 2947 H 277.911 2.86943 -0.804207 0
M  V30 2948 H 275.448 1.4132 -0.408294 0
M  V30 2949 H 277.406 3.91368 1.44523 0
M  V30 2950 H 276.036 2.78719 1.62836 0
M  V30 2951 H 275.088 3.75825 -0.588224 0
M  V30 2952 H 276.4 4.95716 -0.553801 0
M  V30 2953 H 275.554 5.84437 1.62845 0
M  V30 2954 H 274.293 4.58008 1.67572 0
M  V30 2955 H 273.298 5.47986 -0.446254 0
M  V30 2956 H 274.523 6.77425 -0.476716 0
M  V30 2957 H 272.469 6.32973 1.72283 0
M  V30 2958 H 272.386 7.54416 0.489123 0
M  V30 2959 H 273.654 7.61262 1.67632 0
M  V30 2960 N 277.883 0.443576 1.51229 0
M  V30 2961 C 279.131 -0.120557 2.0174 0
M  V30 2962 C 279.452 -1.42665 1.32935 0
M  V30 2963 O 278.722 -1.9028 0.465866 0
M  V30 2964 H 277.302 -0.0475426 0.745486 0
M  V30 2965 H 279.964 0.587711 1.85828 0
M  V30 2966 H 279.06 -0.291972 3.10731 0
M  V30 2967 N 279.361 -1.56624 0.175154 0
M  V30 2968 C 280.308 -2.18149 -0.753634 0
M  V30 2969 C 281.278 -1.12265 -1.22417 0
M  V30 2970 O 282.463 -1.40432 -1.29165 0
M  V30 2971 C 279.603 -2.82933 -1.97592 0
M  V30 2972 C 278.716 -4.03289 -1.5486 0
M  V30 2973 C 277.851 -4.55988 -2.72485 0
M  V30 2974 C 276.89 -5.68746 -2.26262 0
M  V30 2975 N 276.027 -6.15938 -3.36994 0
M  V30 2976 H 280.867 -2.9717 -0.222195 0
M  V30 2977 H 278.404 -1.46774 -0.0979422 0
M  V30 2978 H 280.362 -3.18653 -2.69288 0
M  V30 2979 H 278.992 -2.06509 -2.481 0
M  V30 2980 H 278.044 -3.73364 -0.728246 0
M  V30 2981 H 279.356 -4.849 -1.16933 0
M  V30 2982 H 278.51 -4.9391 -3.52332 0
M  V30 2983 H 277.249 -3.73443 -3.13674 0
M  V30 2984 H 276.254 -5.30372 -1.44863 0
M  V30 2985 H 277.479 -6.53095 -1.86127 0
M  V30 2986 H 275.425 -5.36321 -3.77751 0
M  V30 2987 H 275.342 -6.92548 -3.03172 0
M  V30 2988 H 276.61 -6.58511 -4.17114 0
M  V30 2989 N 280.839 0.0985539 -1.57292 0
M  V30 2990 C 281.749 1.13824 -2.05137 0
M  V30 2991 C 282.765 1.44076 -0.975604 0
M  V30 2992 O 283.941 1.54786 -1.28853 0
M  V30 2993 C 281.006 2.43969 -2.46333 0
M  V30 2994 C 280.067 2.2093 -3.68087 0
M  V30 2995 C 279.3 3.44869 -4.0731 0
M  V30 2996 O 279.523 4.52972 -3.46659 0
M  V30 2997 O 278.457 3.34661 -5.00285 0
M  V30 2998 H 282.283 0.761881 -2.93988 0
M  V30 2999 H 279.868 0.310818 -1.46131 0
M  V30 3000 H 281.75 3.20609 -2.73473 0
M  V30 3001 H 280.425 2.81038 -1.60621 0
M  V30 3002 H 279.332 1.42081 -3.46069 0
M  V30 3003 H 280.665 1.88755 -4.54568 0
M  V30 3004 N 282.317 1.53212 0.369288 0
M  V30 3005 C 283.728 1.60943 0.946276 0
M  V30 3006 C 284.079 0.47452 1.90375 0
M  V30 3007 O 283.204 -0.399597 2.12679 0
M  V30 3008 C 283.799 2.91715 1.72302 0
M  V30 3009 C 282.358 3.01792 2.24941 0
M  V30 3010 C 281.505 2.56211 1.06072 0
M  V30 3011 H 284.456 1.58007 0.148198 0
M  V30 3012 H 284.477 2.79309 2.58393 0
M  V30 3013 H 283.989 3.74295 1.0259 0
M  V30 3014 H 282.09 2.23791 2.97906 0
M  V30 3015 H 282.203 4.06803 2.53077 0
M  V30 3016 H 280.567 2.10998 1.4266 0
M  V30 3017 H 281.35 3.41206 0.378639 0
M  V30 3018 N 283.795 -0.628877 1.44509 0
M  V30 3019 C 285.025 -1.41349 1.50678 0
M  V30 3020 C 285.433 -1.88745 0.131075 0
M  V30 3021 O 284.776 -1.61592 -0.87371 0
M  V30 3022 C 284.838 -2.66608 2.41165 0
M  V30 3023 C 284.502 -2.40993 3.88293 0
M  V30 3024 C 285.499 -2.0268 4.78766 0
M  V30 3025 C 283.184 -2.54563 4.33016 0
M  V30 3026 C 285.178 -1.78269 6.11963 0
M  V30 3027 C 282.865 -2.29766 5.6626 0
M  V30 3028 C 283.863 -1.91678 6.55552 0
M  V30 3029 O 283.551 -1.67158 7.86329 0
M  V30 3030 H 283.283 -0.439851 0.51333 0
M  V30 3031 H 285.837 -0.776084 1.90174 0
M  V30 3032 H 284.067 -3.32994 1.96601 0
M  V30 3033 H 285.756 -3.28615 2.38259 0
M  V30 3034 H 286.522 -1.91751 4.45485 0
M  V30 3035 H 282.401 -2.83179 3.63773 0
M  V30 3036 H 285.945 -1.48465 6.81619 0
M  V30 3037 H 281.842 -2.40306 5.99102 0
M  V30 3038 H 282.61 -1.81386 7.98149 0
M  V30 3039 N 285.273 -1.31445 -0.869486 0
M  V30 3040 C 286.498 -1.24256 -1.66058 0
M  V30 3041 C 286.923 0.188928 -1.87149 0
M  V30 3042 O 286.281 1.13522 -1.4136 0
M  V30 3043 C 286.329 -1.9924 -3.00559 0
M  V30 3044 O 285.433 -1.33007 -3.90362 0
M  V30 3045 H 284.774 -0.428973 -0.506831 0
M  V30 3046 H 287.304 -1.73521 -1.08404 0
M  V30 3047 H 287.314 -2.08854 -3.50491 0
M  V30 3048 H 285.989 -3.03342 -2.84528 0
M  V30 3049 H 284.566 -1.31848 -3.48813 0
M  V30 3050 N 286.751 1.08385 -1.14413 0
M  V30 3051 C 287.976 1.85057 -0.936413 0
M  V30 3052 C 288.401 1.81055 0.509971 0
M  V30 3053 O 287.759 1.1958 1.36273 0
M  V30 3054 C 287.807 3.30505 -1.44217 0
M  V30 3055 O 286.911 4.07491 -0.634409 0
M  V30 3056 H 286.252 0.573425 -0.334784 0
M  V30 3057 H 288.782 1.36799 -1.52142 0
M  V30 3058 H 288.792 3.81348 -1.45043 0
M  V30 3059 H 287.467 3.32734 -2.49522 0
M  V30 3060 H 286.044 3.66368 -0.694902 0
M  V30 3061 N 288.23 0.939286 1.26551 0
M  V30 3062 C 289.455 0.602008 1.98471 0
M  V30 3063 C 289.88 -0.815624 1.69497 0
M  V30 3064 O 289.238 -1.54912 0.941905 0
M  V30 3065 C 289.286 0.848407 3.50477 0
M  V30 3066 O 288.39 -0.0804009 4.12322 0
M  V30 3067 H 287.731 0.23049 0.622712 0
M  V30 3068 H 290.261 1.2617 1.61066 0
M  V30 3069 H 290.271 0.768553 4.00696 0
M  V30 3070 H 288.946 1.88171 3.70897 0
M  V30 3071 H 287.523 0.0503508 3.72866 0
M  V30 3072 N 289.708 -1.40897 0.706093 0
M  V30 3073 C 290.655 -2.30751 0.0474474 0
M  V30 3074 C 291.625 -1.47678 -0.76029 0
M  V30 3075 O 292.81 -1.76441 -0.726177 0
M  V30 3076 C 289.95 -3.33815 -0.875309 0
M  V30 3077 C 289.063 -4.31961 -0.0580623 0
M  V30 3078 C 288.198 -5.22093 -0.979425 0
M  V30 3079 C 287.237 -6.11902 -0.155706 0
M  V30 3080 N 286.374 -6.94482 -1.03144 0
M  V30 3081 H 291.214 -2.86513 0.819413 0
M  V30 3082 H 288.751 -1.41102 0.415783 0
M  V30 3083 H 290.709 -3.92129 -1.42446 0
M  V30 3084 H 289.339 -2.79579 -1.61356 0
M  V30 3085 H 288.391 -3.75507 0.608147 0
M  V30 3086 H 289.703 -4.95415 0.580082 0
M  V30 3087 H 288.857 -5.85292 -1.59744 0
M  V30 3088 H 287.596 -4.5889 -1.65141 0
M  V30 3089 H 286.601 -5.47742 0.475309 0
M  V30 3090 H 287.826 -6.77162 0.512635 0
M  V30 3091 H 285.772 -6.33877 -1.68924 0
M  V30 3092 H 285.689 -7.54665 -0.449108 0
M  V30 3093 H 286.957 -7.6214 -1.63593 0
M  V30 3094 N 291.186 -0.45159 -1.50991 0
M  V30 3095 C 292.416 0.108177 -2.06317 0
M  V30 3096 C 292.824 1.35774 -1.31765 0
M  V30 3097 O 292.167 1.79838 -0.374694 0
M  V30 3098 C 292.229 0.481659 -3.56259 0
M  V30 3099 C 291.893 -0.663114 -4.52163 0
M  V30 3100 C 292.89 -1.53947 -4.96585 0
M  V30 3101 C 290.575 -0.8479 -4.95092 0
M  V30 3102 C 292.569 -2.58518 -5.82621 0
M  V30 3103 C 290.256 -1.89686 -5.80915 0
M  V30 3104 C 291.254 -2.76388 -6.24579 0
M  V30 3105 O 290.942 -3.79482 -7.08695 0
M  V30 3106 H 290.674 0.00499183 -0.675982 0
M  V30 3107 H 293.228 -0.633659 -1.95381 0
M  V30 3108 H 291.458 1.27641 -3.65027 0
M  V30 3109 H 293.147 0.974233 -3.94035 0
M  V30 3110 H 293.913 -1.4083 -4.64103 0
M  V30 3111 H 289.792 -0.18258 -4.60638 0
M  V30 3112 H 293.336 -3.26224 -6.16623 0
M  V30 3113 H 289.233 -2.02817 -6.12809 0
M  V30 3114 H 290.001 -3.76234 -7.26905 0
M  V30 3115 N 292.664 1.56529 -0.183458 0
M  V30 3116 C 293.627 2.17324 0.728223 0
M  V30 3117 C 294.627 1.12453 1.14939 0
M  V30 3118 O 295.817 1.37902 1.06437 0
M  V30 3119 C 292.949 2.76591 1.99274 0
M  V30 3120 H 294.142 2.99241 0.198772 0
M  V30 3121 H 291.695 1.5616 0.0661391 0
M  V30 3122 H 292.43 1.98441 2.56499 0
M  V30 3123 H 292.215 3.5335 1.69959 0
M  V30 3124 H 293.705 3.23311 2.6431 0
M  V30 3125 N 294.142 -0.090211 1.57342 0
M  V30 3126 C 295.37 -0.806224 1.90546 0
M  V30 3127 C 295.785 -1.72041 0.777644 0
M  V30 3128 O 295.142 -1.80778 -0.250103 0
M  V30 3129 C 295.193 -1.61546 3.23396 0
M  V30 3130 O 294.914 -0.738043 4.31839 0
M  V30 3131 C 296.415 -2.4341 3.70495 0
M  V30 3132 H 293.635 -0.230256 0.630257 0
M  V30 3133 H 296.179 -0.0659843 2.04394 0
M  V30 3134 H 294.334 -2.30816 3.11131 0
M  V30 3135 H 294.748 -1.29901 5.08159 0
M  V30 3136 H 296.222 -2.95676 4.66133 0
M  V30 3137 H 296.699 -3.22098 2.98579 0
M  V30 3138 H 297.305 -1.79331 3.85643 0
M  V30 3139 N 295.62 -1.53406 -0.361157 0
M  V30 3140 C 296.897 -1.60411 -1.11927 0
M  V30 3141 C 297.277 -0.414385 -2.06993 0
M  V30 3142 O 296.625 0.594976 -2.20618 0
M  V30 3143 C 296.835 -2.95652 -1.85448 0
M  V30 3144 C 298.183 -3.50386 -2.39823 0
M  V30 3145 O 299.207 -2.97711 -1.95568 0
M  V30 3146 O 298.066 -4.42482 -3.20737 0
M  V30 3147 H 295.16 -0.64811 -0.513695 0
M  V30 3148 H 297.706 -1.65749 -0.364065 0
M  V30 3149 H 296.478 -3.73682 -1.16091 0
M  V30 3150 H 296.101 -2.93825 -2.67866 0
M  V30 3151 N 297.098 0.621204 -1.44841 0
M  V30 3152 C 298.028 1.74366 -1.55303 0
M  V30 3153 C 299.009 1.65199 -0.405385 0
M  V30 3154 O 300.194 1.83807 -0.626787 0
M  V30 3155 C 297.324 3.12931 -1.50637 0
M  V30 3156 C 296.278 3.36896 -2.63979 0
M  V30 3157 C 295.604 4.75594 -2.44366 0
M  V30 3158 C 296.904 3.28483 -4.06074 0
M  V30 3159 H 298.598 1.65867 -2.49256 0
M  V30 3160 H 296.144 0.796558 -1.19962 0
M  V30 3161 H 298.097 3.9124 -1.56555 0
M  V30 3162 H 296.821 3.22237 -0.532057 0
M  V30 3163 H 295.48 2.60972 -2.57467 0
M  V30 3164 H 295.128 4.81616 -1.45105 0
M  V30 3165 H 294.828 4.92586 -3.20364 0
M  V30 3166 H 296.352 5.5612 -2.52117 0
M  V30 3167 H 297.766 3.96684 -4.13902 0
M  V30 3168 H 296.163 3.57008 -4.82354 0
M  V30 3169 H 297.233 2.26133 -4.28943 0
M  V30 3170 N 298.576 1.31904 0.862503 0
M  V30 3171 C 299.506 1.22782 1.98612 0
M  V30 3172 C 300.487 0.113362 1.69722 0
M  V30 3173 O 301.672 0.299218 1.91881 0
M  V30 3174 C 298.802 0.942058 3.34279 0
M  V30 3175 C 297.756 2.0169 3.77499 0
M  V30 3176 C 297.082 1.58369 5.10709 0
M  V30 3177 C 298.382 3.43096 3.93805 0
M  V30 3178 H 300.076 2.16788 2.06502 0
M  V30 3179 H 297.622 1.04366 0.992154 0
M  V30 3180 H 299.575 0.864818 4.1243 0
M  V30 3181 H 298.299 -0.0336603 3.26583 0
M  V30 3182 H 296.958 2.08416 3.01593 0
M  V30 3183 H 296.606 0.595628 4.99461 0
M  V30 3184 H 296.306 2.30279 5.40597 0
M  V30 3185 H 297.83 1.52067 5.91361 0
M  V30 3186 H 299.244 3.39003 4.62331 0
M  V30 3187 H 297.641 4.13288 4.35101 0
M  V30 3188 H 298.711 3.83334 2.96957 0
M  V30 3189 N 300.054 -1.07777 1.14986 0
M  V30 3190 C 301.279 -1.84558 0.946213 0
M  V30 3191 C 301.704 -1.81323 -0.500362 0
M  V30 3192 O 301.062 -1.20301 -1.35637 0
M  V30 3193 C 301.11 -3.29736 1.45968 0
M  V30 3194 O 300.214 -4.07149 0.65601 0
M  V30 3195 H 299.555 -0.571641 0.33782 0
M  V30 3196 H 302.085 -1.35991 1.52865 0
M  V30 3197 H 302.095 -3.80574 1.47063 0
M  V30 3198 H 300.77 -3.31406 2.51283 0
M  V30 3199 H 299.347 -3.65994 0.714322 0
M  V30 3200 N 301.532 -0.945985 -1.26051 0
M  V30 3201 C 302.778 -0.597002 -1.93814 0
M  V30 3202 C 303.111 0.862484 -1.73997 0
M  V30 3203 O 302.386 1.61769 -1.07986 0
M  V30 3204 C 302.669 -0.945937 -3.47454 0
M  V30 3205 C 302.522 -2.46052 -3.76535 0
M  V30 3206 C 303.841 -0.464785 -4.37639 0
M  V30 3207 H 300.96 -0.218366 -0.703907 0
M  V30 3208 H 303.602 -1.18107 -1.48831 0
M  V30 3209 H 301.752 -0.448902 -3.85898 0
M  V30 3210 H 303.424 -3.03065 -3.47778 0
M  V30 3211 H 301.667 -2.90194 -3.22444 0
M  V30 3212 H 302.338 -2.65517 -4.83947 0
M  V30 3213 H 304.814 -0.891016 -4.06448 0
M  V30 3214 H 303.69 -0.737712 -5.4392 0
M  V30 3215 H 303.951 0.635274 -4.37512 0
M  V30 3216 N 303.011 1.40521 -0.713556 0
M  V30 3217 C 303.974 2.29098 -0.0684347 0
M  V30 3218 C 304.974 1.45268 0.689472 0
M  V30 3219 O 306.164 1.66205 0.521677 0
M  V30 3220 C 303.296 3.28446 0.913024 0
M  V30 3221 H 304.489 2.87645 -0.84855 0
M  V30 3222 H 302.042 1.48809 -0.47809 0
M  V30 3223 H 302.777 2.74913 1.72027 0
M  V30 3224 H 302.562 3.90327 0.372472 0
M  V30 3225 H 304.052 3.94777 1.36165 0
M  V30 3226 N 304.489 0.459591 1.5075 0
M  V30 3227 C 305.419 -0.330644 2.31147 0
M  V30 3228 C 306.4 -1.00087 1.37538 0
M  V30 3229 O 307.585 -1.00025 1.66459 0
M  V30 3230 C 304.715 -1.41958 3.16962 0
M  V30 3231 C 303.669 -0.871608 4.19031 0
M  V30 3232 C 302.995 -2.05797 4.9351 0
M  V30 3233 C 304.295 0.109251 5.22186 0
M  V30 3234 H 305.989 0.340336 2.97459 0
M  V30 3235 H 303.535 0.165119 1.4305 0
M  V30 3236 H 305.488 -1.9798 3.71997 0
M  V30 3237 H 304.212 -2.11917 2.48513 0
M  V30 3238 H 302.871 -0.333442 3.6508 0
M  V30 3239 H 302.519 -2.74427 4.21544 0
M  V30 3240 H 302.219 -1.6976 5.62544 0
M  V30 3241 H 303.743 -2.62331 5.51375 0
M  V30 3242 H 305.157 -0.361405 5.7216 0
M  V30 3243 H 303.554 0.383316 5.98875 0
M  V30 3244 H 304.624 1.03887 4.73641 0
M  V30 3245 N 305.967 -1.56429 0.191757 0
M  V30 3246 C 306.915 -2.20273 -0.747174 0
M  V30 3247 C 307.909 -1.17288 -1.22229 0
M  V30 3248 O 309.115 -1.35441 -1.18557 0
M  V30 3249 H 305.49 -0.705885 -0.259289 0
M  V30 3250 H 307.461 -2.97826 -0.184963 0
M  V30 3251 C 306.21 -2.87356 -1.95759 0
M  V30 3252 H 305.533 -3.66341 -1.60106 0
M  V30 3253 H 306.973 -3.3547 -2.59299 0
M  V30 3254 C 305.432 -1.88213 -2.79423 0
M  V30 3255 O 305.962 -1.38033 -3.7724 0
M  V30 3256 N 304.168 -1.56516 -2.44849 0
M  V30 3257 H 303.715 -1.97516 -1.65364 0
M  V30 3258 H 303.673 -0.904369 -3.01112 0
M  V30 3259 N 307.445 0.0818655 -1.57387 0
M  V30 3260 C 308.861 0.436412 -1.53517 0
M  V30 3261 C 309.061 1.79758 -0.910459 0
M  V30 3262 O 308.117 2.47324 -0.508636 0
M  V30 3263 C 309.43 0.386734 -2.98203 0
M  V30 3264 C 310.978 0.467644 -3.09487 0
M  V30 3265 C 311.453 0.447978 -4.55804 0
M  V30 3266 N 312.944 0.508348 -4.60402 0
M  V30 3267 C 313.679 0.515184 -5.71081 0
M  V30 3268 N 313.175 0.477435 -6.91153 0
M  V30 3269 N 314.968 0.560988 -5.59294 0
M  V30 3270 H 307.119 -0.809546 -1.96367 0
M  V30 3271 H 309.382 -0.302733 -0.898363 0
M  V30 3272 H 309.088 -0.546539 -3.47427 0
M  V30 3273 H 308.962 1.20075 -3.57578 0
M  V30 3274 H 311.349 1.39134 -2.60242 0
M  V30 3275 H 311.43 -0.374753 -2.5304 0
M  V30 3276 H 311.074 -0.471826 -5.05704 0
M  V30 3277 H 311.004 1.30777 -5.10103 0
M  V30 3278 H 313.495 0.54218 -3.7399 0
M  V30 3279 H 313.808 0.486299 -7.71268 0
M  V30 3280 H 312.153 0.444278 -6.93579 0
M  V30 3281 H 315.344 0.5881 -4.64391 0
M  V30 3282 H 315.517 0.562846 -6.45551 0
M  V30 3283 N 308.923 1.53595 0.353017 0
M  V30 3284 C 309.871 1.81605 1.45335 0
M  V30 3285 C 310.865 0.685923 1.54892 0
M  V30 3286 O 312.071 0.869095 1.57628 0
M  V30 3287 H 308.446 0.575204 0.484401 0
M  V30 3288 H 310.417 2.73679 1.18921 0
M  V30 3289 C 309.166 2.03406 2.81995 0
M  V30 3290 H 308.489 2.89814 2.75405 0
M  V30 3291 H 309.929 2.26975 3.58132 0
M  V30 3292 C 308.388 0.816794 3.26849 0
M  V30 3293 O 308.918 0.0115856 4.01698 0
M  V30 3294 N 307.124 0.636682 2.8354 0
M  V30 3295 H 306.671 1.2931 2.22793 0
M  V30 3296 H 306.629 -0.176336 3.13905 0
M  V30 3297 N 310.401 -0.613514 1.45168 0
M  V30 3298 C 311.648 -1.37268 1.48875 0
M  V30 3299 C 311.976 -1.94077 0.128161 0
M  V30 3300 O 311.231 -1.75178 -0.872416 0
M  V30 3301 C 311.53 -2.54347 2.51083 0
M  V30 3302 C 311.196 -2.1572 3.95949 0
M  V30 3303 C 309.858 -2.04899 4.35396 0
M  V30 3304 C 312.21 -1.85485 4.87078 0
M  V30 3305 C 309.538 -1.62057 5.63875 0
M  V30 3306 C 311.89 -1.4413 6.15962 0
M  V30 3307 C 310.554 -1.31863 6.54346 0
M  V30 3308 H 309.824 -0.502299 0.544773 0
M  V30 3309 H 312.471 -0.694021 1.78481 0
M  V30 3310 H 310.776 -3.27524 2.15024 0
M  V30 3311 H 312.473 -3.12577 2.51191 0
M  V30 3312 H 309.063 -2.25066 3.64751 0
M  V30 3313 H 313.247 -1.92745 4.57343 0
M  V30 3314 H 308.503 -1.51177 5.92415 0
M  V30 3315 H 312.677 -1.19778 6.86022 0
M  V30 3316 H 310.304 -0.984392 7.538 0
M  V30 3317 N 311.879 -1.3236 -0.855495 0
M  V30 3318 C 312.827 -1.2118 -1.9854 0
M  V30 3319 C 313.821 -0.116788 -1.68997 0
M  V30 3320 O 315.027 -0.279657 -1.77814 0
M  V30 3321 H 311.402 -0.375608 -0.651477 0
M  V30 3322 H 313.373 -2.16743 -2.05098 0
M  V30 3323 C 312.122 -0.950849 -3.34446 0
M  V30 3324 H 311.445 -1.78563 -3.57708 0
M  V30 3325 H 312.885 -0.912863 -4.14057 0
M  V30 3326 C 311.344 0.346404 -3.35114 0
M  V30 3327 O 311.874 1.35855 -3.7803 0
M  V30 3328 N 310.08 0.36808 -2.88259 0
M  V30 3329 H 309.627 -0.456102 -2.5353 0
M  V30 3330 H 309.585 1.23591 -2.89089 0
M  V30 3331 N 313.357 1.07166 -1.15556 0
M  V30 3332 C 314.289 2.14341 -0.811815 0
M  V30 3333 C 315.302 1.61835 0.177015 0
M  V30 3334 O 316.491 1.78439 -0.0464996 0
M  V30 3335 C 313.591 3.38387 -0.186481 0
M  V30 3336 C 312.764 4.20238 -1.21321 0
M  V30 3337 C 311.823 5.2266 -0.609302 0
M  V30 3338 O 310.849 5.54719 -1.27576 0
M  V30 3339 N 312.051 5.77306 0.608099 0
M  V30 3340 H 314.816 2.44431 -1.73417 0
M  V30 3341 H 312.377 1.23089 -1.0517 0
M  V30 3342 H 314.369 4.04044 0.230339 0
M  V30 3343 H 312.939 3.05994 0.639249 0
M  V30 3344 H 312.159 3.50369 -1.80652 0
M  V30 3345 H 313.447 4.71736 -1.90638 0
M  V30 3346 H 312.845 5.53513 1.1679 0
M  V30 3347 H 311.402 6.44583 0.96725 0
M  V30 3348 N 314.835 0.952656 1.25548 0
M  V30 3349 C 315.767 0.428609 2.25157 0
M  V30 3350 C 316.78 -0.454428 1.56329 0
M  V30 3351 O 317.969 -0.263023 1.76552 0
M  V30 3352 C 315.069 -0.401972 3.36508 0
M  V30 3353 C 314.242 0.467601 4.34893 0
M  V30 3354 C 313.301 -0.30445 5.25319 0
M  V30 3355 O 312.327 0.296473 5.68427 0
M  V30 3356 N 313.529 -1.59805 5.5807 0
M  V30 3357 H 316.294 1.28497 2.70756 0
M  V30 3358 H 313.855 0.822798 1.39433 0
M  V30 3359 H 315.847 -0.926134 3.9396 0
M  V30 3360 H 314.417 -1.15918 2.90313 0
M  V30 3361 H 313.637 1.17288 3.76347 0
M  V30 3362 H 314.925 1.06119 4.97611 0
M  V30 3363 H 314.323 -2.10823 5.24948 0
M  V30 3364 H 312.88 -2.06822 6.18116 0
M  V30 3365 N 316.313 -1.40141 0.720998 0
M  V30 3366 C 317.561 -2.0039 0.262323 0
M  V30 3367 C 317.882 -1.57469 -1.15015 0
M  V30 3368 O 317.152 -0.816582 -1.78069 0
M  V30 3369 H 315.732 -0.741063 0.093996 0
M  V30 3370 H 318.394 -1.71398 0.927835 0
M  V30 3371 H 317.49 -3.10658 0.299671 0
M  V30 3372 N 317.792 -0.46758 -1.50504 0
M  V30 3373 C 318.722 0.318381 -2.31319 0
M  V30 3374 C 319.703 0.993564 -1.38066 0
M  V30 3375 O 320.888 0.991411 -1.66987 0
M  V30 3376 C 318.018 1.40275 -3.17711 0
M  V30 3377 C 316.972 0.849373 -4.19487 0
M  V30 3378 C 316.298 2.03177 -4.94594 0
M  V30 3379 C 317.598 -0.136942 -5.2212 0
M  V30 3380 H 319.292 -0.356106 -2.97275 0
M  V30 3381 H 316.838 -0.172703 -1.42961 0
M  V30 3382 H 318.791 1.96004 -3.73042 0
M  V30 3383 H 317.515 2.10596 -2.49634 0
M  V30 3384 H 316.174 0.314076 -3.65252 0
M  V30 3385 H 315.822 2.72187 -4.22993 0
M  V30 3386 H 315.522 1.66774 -5.63436 0
M  V30 3387 H 317.046 2.59403 -5.52759 0
M  V30 3388 H 318.46 0.331056 -5.72343 0
M  V30 3389 H 316.857 -0.41507 -5.98663 0
M  V30 3390 H 317.927 -1.06398 -4.73083 0
M  V30 3391 N 319.27 1.56325 -0.20005 0
M  V30 3392 C 320.5 2.01811 0.442232 0
M  V30 3393 C 320.908 1.07932 1.55394 0
M  V30 3394 O 320.251 0.0772685 1.83537 0
M  V30 3395 C 320.313 3.43685 1.05457 0
M  V30 3396 C 319.977 4.56928 0.0809833 0
M  V30 3397 C 320.974 5.15009 -0.711471 0
M  V30 3398 C 318.659 5.0229 -0.0315364 0
M  V30 3399 C 320.653 6.16904 -1.60336 0
M  V30 3400 C 318.34 6.04028 -0.926981 0
M  V30 3401 C 319.338 6.6121 -1.71146 0
M  V30 3402 O 319.026 7.60971 -2.59189 0
M  V30 3403 H 318.758 0.666173 0.114848 0
M  V30 3404 H 321.312 2.03085 -0.307511 0
M  V30 3405 H 319.542 3.39413 1.85299 0
M  V30 3406 H 321.231 3.72948 1.60201 0
M  V30 3407 H 321.997 4.80827 -0.634873 0
M  V30 3408 H 317.876 4.57476 0.568902 0
M  V30 3409 H 321.42 6.61464 -2.21611 0
M  V30 3410 H 317.317 6.37634 -1.00468 0
M  V30 3411 H 318.085 7.7841 -2.53023 0
M  V30 3412 N 320.748 -0.0735177 1.57428 0
M  V30 3413 C 321.973 -0.789787 1.91774 0
M  V30 3414 C 322.398 -1.70413 0.796306 0
M  V30 3415 O 321.756 -1.79555 -0.250961 0
M  V30 3416 C 321.804 -1.5609 3.25067 0
M  V30 3417 O 320.908 -2.67144 3.14178 0
M  V30 3418 H 320.249 -0.215582 0.628029 0
M  V30 3419 H 322.779 -0.0422781 2.04556 0
M  V30 3420 H 322.789 -1.94052 3.58898 0
M  V30 3421 H 321.464 -0.890015 4.06265 0
M  V30 3422 H 320.041 -2.32052 2.91901 0
M  V30 3423 N 322.226 -1.5378 -0.344866 0
M  V30 3424 C 323.174 -1.82373 -1.4437 0
M  V30 3425 C 324.168 -0.694128 -1.54526 0
M  V30 3426 O 325.374 -0.877442 -1.57165 0
M  V30 3427 H 321.749 -0.577765 -0.481344 0
M  V30 3428 H 323.72 -2.74306 -1.17468 0
M  V30 3429 C 322.469 -2.04898 -2.80913 0
M  V30 3430 H 321.792 -2.9127 -2.73865 0
M  V30 3431 H 323.232 -2.28871 -3.56923 0
M  V30 3432 C 321.691 -0.834116 -3.26411 0
M  V30 3433 O 322.221 -0.0328885 -4.01687 0
M  V30 3434 N 320.427 -0.65171 -2.83198 0
M  V30 3435 H 319.974 -1.30489 -2.22104 0
M  V30 3436 H 319.932 0.159686 -3.13994 0
M  V30 3437 N 323.704 0.605807 -1.45491 0
M  V30 3438 C 324.95 1.36679 -1.49823 0
M  V30 3439 C 325.283 1.93693 -0.140175 0
M  V30 3440 O 324.558 1.75158 0.845581 0
M  V30 3441 C 324.841 2.51337 -2.57879 0
M  V30 3442 C 324.694 1.99508 -4.03134 0
M  V30 3443 C 326.013 3.53463 -2.62205 0
M  V30 3444 H 323.132 0.495617 -0.545466 0
M  V30 3445 H 325.774 0.682732 -1.7731 0
M  V30 3446 H 323.924 3.09691 -2.34571 0
M  V30 3447 H 325.596 1.45789 -4.37656 0
M  V30 3448 H 323.839 1.30496 -4.13707 0
M  V30 3449 H 324.51 2.82169 -4.74431 0
M  V30 3450 H 326.986 3.04953 -2.83095 0
M  V30 3451 H 325.862 4.31178 -3.39672 0
M  V30 3452 H 326.123 4.09197 -1.67363 0
M  V30 3453 N 325.182 1.32811 0.848464 0
M  V30 3454 C 326.145 1.22194 1.9391 0
M  V30 3455 C 327.145 0.143404 1.60159 0
M  V30 3456 O 328.335 0.394253 1.6968 0
M  V30 3457 C 325.467 0.88067 3.29328 0
M  V30 3458 H 326.66 2.19127 2.04752 0
M  V30 3459 H 324.213 1.16731 1.0394 0
M  V30 3460 H 324.948 -0.0865776 3.24184 0
M  V30 3461 H 324.733 1.66052 3.55203 0
M  V30 3462 H 326.223 0.830871 4.09251 0
M  V30 3463 N 326.66 -1.06551 1.16123 0
M  V30 3464 C 327.9 -1.80889 0.951766 0
M  V30 3465 C 328.264 -1.85062 -0.511465 0
M  V30 3466 O 329.465 -2.55353 -0.83954 0
M  V30 3467 C 327.736 -3.21609 1.55893 0
M  V30 3468 S 329.295 -4.12593 1.49373 0
M  V30 3469 H 326.113 -0.623156 0.342341 0
M  V30 3470 H 328.715 -1.27943 1.47821 0
M  V30 3471 H 327.419 -3.16165 2.61664 0
M  V30 3472 H 326.95 -3.79631 1.0317 0
M  V30 3473 H 328.965 -4.93753 0.492196 0
M  V30 3474 N 328.138 -0.959301 -1.25041 0
M  V30 3475 C 329.549 -0.65667 -1.74771 0
M  V30 3476 C 329.9 0.827852 -1.77879 0
M  V30 3477 O 329.025 1.64783 -1.40269 0
M  V30 3478 C 329.62 -1.1853 -3.1739 0
M  V30 3479 C 328.179 -0.932734 -3.6466 0
M  V30 3480 C 327.326 -1.32558 -2.43564 0
M  V30 3481 H 330.277 -1.13558 -1.10862 0
M  V30 3482 H 330.298 -0.547582 -3.76539 0
M  V30 3483 H 329.81 -2.26576 -3.15095 0
M  V30 3484 H 327.911 0.13257 -3.72364 0
M  V30 3485 H 328.024 -1.57248 -4.52559 0
M  V30 3486 H 326.388 -0.743956 -2.43593 0
M  V30 3487 H 327.171 -2.41537 -2.43957 0
M  V30 3488 N 329.616 1.39756 -0.72842 0
M  V30 3489 C 330.864 2.00248 -0.272946 0
M  V30 3490 C 331.185 1.58077 1.14178 0
M  V30 3491 O 330.455 0.826014 1.77634 0
M  V30 3492 H 329.035 0.740554 -0.0979247 0
M  V30 3493 H 331.697 1.70903 -0.936912 0
M  V30 3494 H 330.793 3.10495 -0.316142 0
M  V30 3495 N 331.094 0.475555 1.50254 0
M  V30 3496 C 332.322 -0.0754493 2.06762 0
M  V30 3497 C 332.737 -1.33111 1.33891 0
M  V30 3498 O 332.094 -1.77846 0.40952 0
M  V30 3499 C 332.145 -0.359008 3.59713 0
M  V30 3500 O 331.866 0.846851 4.29837 0
M  V30 3501 C 333.367 -0.956484 4.32858 0
M  V30 3502 H 330.587 0.00907525 0.670939 0
M  V30 3503 H 333.131 0.665618 1.93364 0
M  V30 3504 H 331.286 -1.05001 3.72899 0
M  V30 3505 H 331.7 0.594162 5.21124 0
M  V30 3506 H 333.174 -1.10463 5.40834 0
M  V30 3507 H 333.651 -1.94775 3.93649 0
M  V30 3508 H 334.257 -0.303723 4.24214 0
M  V30 3509 N 332.573 -1.56217 0.208337 0
M  V30 3510 C 333.536 -2.18455 -0.693557 0
M  V30 3511 C 334.536 -1.14268 -1.13135 0
M  V30 3512 O 335.726 -1.39577 -1.0423 0
M  V30 3513 C 332.858 -2.79727 -1.94848 0
M  V30 3514 H 334.051 -2.99519 -0.15114 0
M  V30 3515 H 331.604 -1.56245 -0.041287 0
M  V30 3516 H 332.339 -2.02497 -2.53309 0
M  V30 3517 H 332.124 -3.56009 -1.64316 0
M  V30 3518 H 333.614 -3.27475 -2.59133 0
M  V30 3519 N 334.051 0.0651679 -1.57465 0
M  V30 3520 C 334.981 1.07693 -2.07182 0
M  V30 3521 C 335.962 1.39962 -0.966673 0
M  V30 3522 O 337.147 1.49475 -1.2398 0
M  V30 3523 C 334.277 2.3885 -2.52127 0
M  V30 3524 C 333.231 2.20917 -3.66579 0
M  V30 3525 C 332.557 3.57515 -3.97601 0
M  V30 3526 C 333.857 1.62493 -4.9638 0
M  V30 3527 H 335.551 0.663199 -2.91962 0
M  V30 3528 H 333.097 0.317569 -1.40455 0
M  V30 3529 H 335.05 3.09928 -2.85522 0
M  V30 3530 H 333.774 2.82215 -1.64384 0
M  V30 3531 H 332.433 1.52279 -3.33477 0
M  V30 3532 H 332.081 3.98463 -3.06979 0
M  V30 3533 H 331.781 3.46353 -4.74672 0
M  V30 3534 H 333.305 4.30013 -4.33499 0
M  V30 3535 H 334.719 2.23445 -5.27963 0
M  V30 3536 H 333.116 1.62009 -5.77818 0
M  V30 3537 H 334.186 0.587041 -4.81333 0
M  V30 3538 N 335.529 1.53961 0.336706 0
M  V30 3539 C 336.757 1.75483 1.09605 0
M  V30 3540 C 337.172 0.4972 1.82136 0
M  V30 3541 O 336.529 -0.53149 1.74589 0
M  V30 3542 C 336.58 2.93943 2.10428 0
M  V30 3543 O 336.301 4.14842 1.40846 0
M  V30 3544 C 337.802 3.27571 2.98684 0
M  V30 3545 H 335.022 0.586166 0.326574 0
M  V30 3546 H 337.566 2.00808 0.38683 0
M  V30 3547 H 335.721 2.70929 2.76905 0
M  V30 3548 H 336.135 4.81383 2.08255 0
M  V30 3549 H 337.609 4.13791 3.6535 0
M  V30 3550 H 338.086 2.44168 3.65074 0
M  V30 3551 H 338.692 3.52615 2.37787 0
M  V30 3552 N 337.007 -0.598083 1.45811 0
M  V30 3553 C 337.955 -1.72932 1.55555 0
M  V30 3554 C 338.949 -1.63984 0.424921 0
M  V30 3555 O 340.155 -1.69663 0.601205 0
M  V30 3556 H 336.53 -0.571489 0.488779 0
M  V30 3557 H 338.501 -1.61842 2.50699 0
M  V30 3558 C 337.25 -3.11318 1.54843 0
M  V30 3559 H 336.573 -3.18867 2.41172 0
M  V30 3560 H 338.013 -3.90274 1.65717 0
M  V30 3561 C 336.472 -3.3578 0.274427 0
M  V30 3562 O 337.002 -3.9654 -0.641778 0
M  V30 3563 N 335.208 -2.90119 0.167139 0
M  V30 3564 H 334.755 -2.40855 0.913596 0
M  V30 3565 H 334.713 -3.0686 -0.684435 0
M  V30 3566 N 338.485 -1.33259 -0.841409 0
M  V30 3567 C 339.415 -1.25926 -1.96634 0
M  V30 3568 C 340.396 -0.140349 -1.6952 0
M  V30 3569 O 341.581 -0.329707 -1.91381 0
M  V30 3570 C 338.711 -0.99512 -3.32738 0
M  V30 3571 C 337.665 -2.0767 -3.74242 0
M  V30 3572 C 336.991 -1.66474 -5.08125 0
M  V30 3573 C 338.291 -3.49318 -3.88297 0
M  V30 3574 H 339.985 -2.20046 -2.03027 0
M  V30 3575 H 337.531 -1.05931 -0.975425 0
M  V30 3576 H 339.484 -0.930323 -4.11002 0
M  V30 3577 H 338.208 -0.0183004 -3.26595 0
M  V30 3578 H 336.867 -2.13187 -2.98239 0
M  V30 3579 H 336.515 -0.675012 -4.9845 0
M  V30 3580 H 336.215 -2.3885 -5.36865 0
M  V30 3581 H 337.739 -1.61455 -5.88867 0
M  V30 3582 H 339.153 -3.46316 -4.56879 0
M  V30 3583 H 337.55 -4.20158 -4.28471 0
M  V30 3584 H 338.62 -3.8801 -2.9082 0
M  V30 3585 N 339.963 1.05934 -1.16686 0
M  V30 3586 C 341.191 1.8249 -0.974929 0
M  V30 3587 C 341.606 1.82679 0.476861 0
M  V30 3588 O 340.963 1.2486 1.33103 0
M  V30 3589 C 341.014 3.28943 -1.49929 0
M  V30 3590 O 340.735 3.28886 -2.89423 0
M  V30 3591 C 342.236 4.22215 -1.35089 0
M  V30 3592 H 339.456 0.575295 -0.345365 0
M  V30 3593 H 342 1.33631 -1.548 0
M  V30 3594 H 340.155 3.751 -0.968423 0
M  V30 3595 H 340.569 4.20493 -3.13506 0
M  V30 3596 H 342.043 5.22987 -1.76603 0
M  V30 3597 H 342.52 4.38195 -0.296935 0
M  V30 3598 H 343.126 3.81907 -1.87155 0
M  V30 3599 N 341.441 0.965919 1.2453 0
M  V30 3600 C 342.671 0.643451 1.96324 0
M  V30 3601 C 343.079 -0.790927 1.71875 0
M  V30 3602 O 342.422 -1.54208 0.998273 0
M  V30 3603 C 342.484 0.836078 3.49643 0
M  V30 3604 C 342.148 2.24975 3.97788 0
M  V30 3605 C 343.145 3.22735 4.07601 0
M  V30 3606 C 340.83 2.57697 4.31158 0
M  V30 3607 C 342.824 4.51303 4.50116 0
M  V30 3608 C 340.511 3.86492 4.73357 0
M  V30 3609 C 341.509 4.83107 4.828 0
M  V30 3610 O 341.197 6.09605 5.24058 0
M  V30 3611 H 340.929 0.239223 0.632257 0
M  V30 3612 H 343.483 1.29587 1.59362 0
M  V30 3613 H 341.713 0.12649 3.86493 0
M  V30 3614 H 343.402 0.512965 4.02646 0
M  V30 3615 H 344.168 2.98783 3.82039 0
M  V30 3616 H 340.047 1.83216 4.23028 0
M  V30 3617 H 343.591 5.26716 4.57401 0
M  V30 3618 H 339.488 4.10245 4.98366 0
M  V30 3619 H 340.256 6.13146 5.42213 0
M  V30 3620 N 342.919 -1.39368 0.735821 0
M  V30 3621 C 344.167 -2.00101 0.283562 0
M  V30 3622 C 344.488 -1.5868 -1.13338 0
M  V30 3623 O 343.758 -0.835423 -1.77193 0
M  V30 3624 H 342.338 -0.740024 0.101851 0
M  V30 3625 H 345 -1.70404 0.945962 0
M  V30 3626 H 344.096 -3.10323 0.332604 0
M  V30 3627 N 344.397 -0.483516 -1.5 0
M  V30 3628 C 345.646 0.0689102 -2.01582 0
M  V30 3629 C 345.959 1.39655 -1.36952 0
M  V30 3630 O 347.165 2.03465 -1.79762 0
M  V30 3631 C 345.621 0.173302 -3.59483 0
M  V30 3632 C 345.229 -1.14665 -4.33077 0
M  V30 3633 C 346.973 0.677024 -4.19066 0
M  V30 3634 C 344.88 -1.00537 -5.82792 0
M  V30 3635 H 343.81 0.0295277 -0.753422 0
M  V30 3636 H 346.461 -0.620295 -1.72698 0
M  V30 3637 H 344.843 0.926569 -3.85007 0
M  V30 3638 H 346.017 -1.91184 -4.19268 0
M  V30 3639 H 344.332 -1.58244 -3.85159 0
M  V30 3640 H 346.929 0.799952 -5.28682 0
M  V30 3641 H 347.272 1.67151 -3.81269 0
M  V30 3642 H 347.805 -0.0192083 -3.97795 0
M  V30 3643 H 344.544 -1.9736 -6.25083 0
M  V30 3644 H 344.064 -0.280776 -5.99142 0
M  V30 3645 H 345.743 -0.677 -6.43448 0
M  V30 3646 N 345.875 1.56104 -0.216619 0
M  V30 3647 C 346.805 2.23063 0.690296 0
M  V30 3648 C 347.786 1.20072 1.20485 0
M  V30 3649 O 348.971 1.48643 1.24976 0
M  V30 3650 C 346.101 2.90672 1.90072 0
M  V30 3651 C 345.055 4.00092 1.5202 0
M  V30 3652 C 344.381 4.54972 2.80899 0
M  V30 3653 C 345.681 5.17398 0.71391 0
M  V30 3654 H 347.375 2.99109 0.132038 0
M  V30 3655 H 344.921 1.43866 0.0620664 0
M  V30 3656 H 346.874 3.36204 2.54057 0
M  V30 3657 H 345.598 2.12066 2.48386 0
M  V30 3658 H 344.257 3.55283 0.903839 0
M  V30 3659 H 343.905 3.73102 3.37348 0
M  V30 3660 H 343.605 5.28817 2.56176 0
M  V30 3661 H 345.129 5.0322 3.45836 0
M  V30 3662 H 346.543 5.59342 1.25735 0
M  V30 3663 H 344.94 5.97444 0.563951 0
M  V30 3664 H 346.01 4.84088 -0.280527 0
M  V30 3665 N 347.353 -0.0568162 1.57498 0
M  V30 3666 C 348.764 -0.606858 1.76562 0
M  V30 3667 C 349.115 -1.77114 0.844094 0
M  V30 3668 O 348.24 -2.16376 0.0318911 0
M  V30 3669 C 348.835 -1.10766 3.20182 0
M  V30 3670 C 347.394 -1.60344 3.40539 0
M  V30 3671 C 346.541 -0.529311 2.72201 0
M  V30 3672 H 349.492 0.169393 1.57793 0
M  V30 3673 H 349.513 -1.97602 3.25167 0
M  V30 3674 H 349.025 -0.26006 3.87228 0
M  V30 3675 H 347.126 -2.47379 2.78629 0
M  V30 3676 H 347.239 -1.67006 4.4905 0
M  V30 3677 H 345.603 -0.977893 2.35179 0
M  V30 3678 H 346.386 0.308352 3.41912 0
M  V30 3679 N 348.832 -1.54138 -0.328536 0
M  V30 3680 C 350.243 -1.63395 -0.903272 0
M  V30 3681 C 350.594 -0.524828 -1.8905 0
M  V30 3682 O 349.719 0.343068 -2.13663 0
M  V30 3683 C 350.314 -2.9618 -1.64507 0
M  V30 3684 C 348.873 -3.0765 -2.1686 0
M  V30 3685 C 348.02 -2.58933 -0.992416 0
M  V30 3686 H 350.971 -1.58344 -0.106253 0
M  V30 3687 H 350.992 -2.86061 -2.50897 0
M  V30 3688 H 350.504 -3.76884 -0.926302 0
M  V30 3689 H 348.605 -2.31611 -2.91868 0
M  V30 3690 H 348.718 -4.1337 -2.42202 0
M  V30 3691 H 347.082 -2.14706 -1.37016 0
M  V30 3692 H 347.865 -3.42089 -0.288041 0
M  V30 3693 N 350.31 0.590341 -1.46126 0
M  V30 3694 C 351.557 1.34882 -1.5104 0
M  V30 3695 C 351.885 1.93849 -0.159021 0
M  V30 3696 O 351.14 1.76544 0.844436 0
M  V30 3697 C 351.439 2.5032 -2.55097 0
M  V30 3698 C 351.105 2.09394 -3.99331 0
M  V30 3699 C 349.767 1.97947 -4.38601 0
M  V30 3700 C 352.119 1.77712 -4.89967 0
M  V30 3701 C 349.447 1.53065 -5.66381 0
M  V30 3702 C 351.799 1.34312 -6.18177 0
M  V30 3703 C 350.463 1.21436 -6.56361 0
M  V30 3704 H 349.733 0.493568 -0.552695 0
M  V30 3705 H 352.38 0.665539 -1.79563 0
M  V30 3706 H 350.685 3.24062 -2.20207 0
M  V30 3707 H 352.382 3.08541 -2.56132 0
M  V30 3708 H 348.972 2.19235 -3.68285 0
M  V30 3709 H 353.156 1.85445 -4.60352 0
M  V30 3710 H 348.412 1.41733 -5.94745 0
M  V30 3711 H 352.586 1.08849 -6.87841 0
M  V30 3712 H 350.213 0.864345 -7.5527 0
M  V30 3713 N 351.788 1.33704 0.83433 0
M  V30 3714 C 353.037 1.24763 1.58484 0
M  V30 3715 C 353.35 -0.183775 1.94735 0
M  V30 3716 O 354.556 -0.395234 2.68608 0
M  V30 3717 C 353.012 2.18638 2.85876 0
M  V30 3718 C 352.62 3.66974 2.56971 0
M  V30 3719 C 354.364 2.18581 3.63899 0
M  V30 3720 C 352.271 4.5275 3.80488 0
M  V30 3721 H 351.201 0.463425 0.594772 0
M  V30 3722 H 353.852 1.58797 0.919551 0
M  V30 3723 H 352.234 1.77542 3.5397 0
M  V30 3724 H 353.408 4.16538 1.9706 0
M  V30 3725 H 351.723 3.69366 1.92244 0
M  V30 3726 H 354.32 2.79894 4.55591 0
M  V30 3727 H 354.663 1.18207 3.99165 0
M  V30 3728 H 355.196 2.58062 3.02735 0
M  V30 3729 H 351.935 5.54017 3.5035 0
M  V30 3730 H 351.455 4.07927 4.39722 0
M  V30 3731 H 353.134 4.66784 4.4802 0
M  V30 3732 N 353.266 -1.05314 1.17247 0
M  V30 3733 C 354.512 -1.78699 0.971513 0
M  V30 3734 C 354.867 -1.85932 -0.494692 0
M  V30 3735 O 354.16 -1.34716 -1.36243 0
M  V30 3736 C 354.354 -3.2229 1.54479 0
M  V30 3737 C 354.183 -3.29052 3.06521 0
M  V30 3738 C 352.953 -3.3841 3.75242 0
M  V30 3739 C 355.151 -3.18095 4.04129 0
M  V30 3740 N 353.133 -3.34289 5.14902 0
M  V30 3741 C 354.504 -3.21331 5.30232 0
M  V30 3742 C 356.559 -3.02049 3.95817 0
M  V30 3743 C 355.262 -3.10169 6.4899 0
M  V30 3744 C 357.288 -2.92228 5.14156 0
M  V30 3745 C 356.65 -2.96096 6.39145 0
M  V30 3746 H 352.749 -0.66628 0.409383 0
M  V30 3747 H 355.333 -1.25553 1.4881 0
M  V30 3748 H 353.504 -3.7381 1.05455 0
M  V30 3749 H 355.236 -3.83905 1.28059 0
M  V30 3750 H 351.991 -3.43621 3.25917 0
M  V30 3751 H 352.415 -3.35702 5.87906 0
M  V30 3752 H 357.057 -2.97897 3.00029 0
M  V30 3753 H 354.775 -3.13076 7.44989 0
M  V30 3754 H 358.361 -2.80885 5.09505 0
M  V30 3755 H 357.241 -2.88568 7.29176 0
M  V30 3756 N 354.744 -0.972509 -1.24016 0
M  V30 3757 C 355.972 -0.654803 -1.96265 0
M  V30 3758 C 356.387 0.776708 -1.72083 0
M  V30 3759 O 355.744 1.52171 -1.00748 0
M  V30 3760 C 355.795 -0.92592 -3.49441 0
M  V30 3761 O 355.516 -2.30116 -3.72798 0
M  V30 3762 C 357.017 -0.623068 -4.38899 0
M  V30 3763 H 354.237 -0.243907 -0.6251 0
M  V30 3764 H 356.781 -1.30175 -1.57717 0
M  V30 3765 H 354.936 -0.325108 -3.86033 0
M  V30 3766 H 355.35 -2.38483 -4.67147 0
M  V30 3767 H 356.824 -0.863189 -5.45209 0
M  V30 3768 H 357.301 0.442754 -4.36963 0
M  V30 3769 H 357.907 -1.204 -4.07902 0
M  V30 3770 N 356.222 1.38976 -0.743202 0
M  V30 3771 C 357.152 2.33171 -0.123873 0
M  V30 3772 C 358.133 1.54336 0.71516 0
M  V30 3773 O 359.318 1.82696 0.658467 0
M  V30 3774 C 356.448 3.38474 0.777978 0
M  V30 3775 C 355.402 4.27979 0.0424758 0
M  V30 3776 C 354.728 5.2405 1.06189 0
M  V30 3777 C 356.028 5.10155 -1.1198 0
M  V30 3778 H 357.722 2.85213 -0.910709 0
M  V30 3779 H 355.268 1.37133 -0.439388 0
M  V30 3780 H 357.221 4.03328 1.22084 0
M  V30 3781 H 355.945 2.84891 1.59702 0
M  V30 3782 H 354.604 3.64616 -0.380853 0
M  V30 3783 H 354.252 4.66758 1.87472 0
M  V30 3784 H 353.952 5.84785 0.574485 0
M  V30 3785 H 355.476 5.9178 1.50428 0
M  V30 3786 H 356.89 5.68307 -0.75499 0
M  V30 3787 H 355.287 5.80073 -1.53738 0
M  V30 3788 H 356.357 4.44504 -1.93764 0
M  V30 3789 N 357.7 0.491464 1.49741 0
M  V30 3790 C 358.63 -0.28154 2.31796 0
M  V30 3791 C 359.611 -0.971473 1.3963 0
M  V30 3792 O 360.796 -0.964719 1.68543 0
M  V30 3793 C 357.926 -1.35203 3.19902 0
M  V30 3794 C 356.88 -0.782529 4.20786 0
M  V30 3795 C 356.206 -1.95283 4.97764 0
M  V30 3796 C 357.506 0.21999 5.21837 0
M  V30 3797 H 359.2 0.403355 2.96671 0
M  V30 3798 H 356.746 0.195425 1.42668 0
M  V30 3799 H 358.699 -1.90045 3.76113 0
M  V30 3800 H 357.423 -2.06598 2.52953 0
M  V30 3801 H 356.082 -0.255928 3.65706 0
M  V30 3802 H 355.73 -2.65423 4.2727 0
M  V30 3803 H 355.43 -1.57789 5.66018 0
M  V30 3804 H 356.954 -2.50577 5.56816 0
M  V30 3805 H 358.368 -0.23996 5.72798 0
M  V30 3806 H 356.765 0.51026 5.97927 0
M  V30 3807 H 357.835 1.13911 4.7133 0
M  V30 3808 N 359.178 -1.55987 0.224894 0
M  V30 3809 C 360.111 -2.16413 -0.723929 0
M  V30 3810 C 361.089 -1.10952 -1.18863 0
M  V30 3811 O 362.273 -1.39225 -1.27077 0
M  V30 3812 C 359.4 -2.74711 -1.98121 0
M  V30 3813 C 358.446 -3.9303 -1.6562 0
M  V30 3814 S 359.279 -5.29817 -0.778058 0
M  V30 3815 C 360.435 -5.91555 -2.04483 0
M  V30 3816 H 360.668 -2.96555 -0.210347 0
M  V30 3817 H 358.201 -1.54397 0.00955457 0
M  V30 3818 H 360.159 -3.08938 -2.70311 0
M  V30 3819 H 358.82 -1.94555 -2.46591 0
M  V30 3820 H 358.013 -4.32334 -2.59043 0
M  V30 3821 H 357.615 -3.59966 -1.01491 0
M  V30 3822 H 359.907 -6.07732 -2.99446 0
M  V30 3823 H 360.85 -6.87498 -1.69563 0
M  V30 3824 H 361.258 -5.20419 -2.18688 0
M  V30 3825 N 360.656 0.0484629 -1.57525 0
M  V30 3826 C 362.067 0.597486 -1.76881 0
M  V30 3827 C 362.418 1.76664 -0.853475 0
M  V30 3828 O 361.543 2.16357 -0.0433656 0
M  V30 3829 C 362.138 1.09066 -3.20765 0
M  V30 3830 C 360.697 1.58535 -3.41385 0
M  V30 3831 C 359.844 0.514868 -2.72478 0
M  V30 3832 H 362.795 -0.177758 -1.57701 0
M  V30 3833 H 362.816 1.95875 -3.2621 0
M  V30 3834 H 362.328 0.239521 -3.8736 0
M  V30 3835 H 360.429 2.45898 -2.79937 0
M  V30 3836 H 360.542 1.64622 -4.49929 0
M  V30 3837 H 358.906 0.965407 -2.35695 0
M  V30 3838 H 359.689 -0.32648 -3.41744 0
M  V30 3839 N 362.134 1.5431 0.320358 0
M  V30 3840 C 363.097 1.83195 1.3774 0
M  V30 3841 C 364.097 0.703906 1.44575 0
M  V30 3842 O 365.287 0.972214 1.44546 0
M  V30 3843 C 362.419 1.99487 2.76438 0
M  V30 3844 H 363.612 2.77642 1.1338 0
M  V30 3845 H 361.165 1.46076 0.556012 0
M  V30 3846 H 361.9 1.07262 3.06048 0
M  V30 3847 H 361.685 2.81575 2.7287 0
M  V30 3848 H 363.175 2.23271 3.52902 0
M  V30 3849 N 363.613 -0.582584 1.46437 0
M  V30 3850 C 364.862 -1.337 1.5102 0
M  V30 3851 C 365.175 -1.94891 0.166359 0
M  V30 3852 O 366.381 -2.71351 0.0899954 0
M  V30 3853 C 364.837 -2.42315 2.66104 0
M  V30 3854 C 364.445 -1.87427 4.06909 0
M  V30 3855 C 366.189 -3.19099 2.79958 0
M  V30 3856 C 364.096 -2.93672 5.13333 0
M  V30 3857 H 363.026 -0.502619 0.562041 0
M  V30 3858 H 365.677 -0.621701 1.72647 0
M  V30 3859 H 364.059 -3.16645 2.37807 0
M  V30 3860 H 365.233 -1.19639 4.44998 0
M  V30 3861 H 363.548 -1.2331 3.97723 0
M  V30 3862 H 366.145 -3.9839 3.56636 0
M  V30 3863 H 366.488 -3.71695 1.87479 0
M  V30 3864 H 367.021 -2.51875 3.07902 0
M  V30 3865 H 363.76 -2.45962 6.07604 0
M  V30 3866 H 363.28 -3.59948 4.79789 0
M  V30 3867 H 364.959 -3.5762 5.39182 0
M  V30 3868 N 365.091 -1.34144 -0.827227 0
M  V30 3869 C 366.021 -1.28005 -1.95287 0
M  V30 3870 C 367.002 -0.158321 -1.69362 0
M  V30 3871 O 368.187 -0.349987 -1.9102 0
M  V30 3872 C 365.317 -1.03036 -3.31664 0
M  V30 3873 C 364.271 -2.11628 -3.72019 0
M  V30 3874 C 363.597 -1.71854 -5.0633 0
M  V30 3875 C 364.897 -3.53417 -3.8457 0
M  V30 3876 H 366.591 -2.22187 -2.00682 0
M  V30 3877 H 364.137 -1.0696 -0.964135 0
M  V30 3878 H 366.09 -0.973863 -4.09993 0
M  V30 3879 H 364.814 -0.0529391 -3.26557 0
M  V30 3880 H 363.473 -2.16339 -2.95961 0
M  V30 3881 H 363.121 -0.727841 -4.97706 0
M  V30 3882 H 362.821 -2.44531 -5.34302 0
M  V30 3883 H 364.345 -1.67692 -5.87122 0
M  V30 3884 H 365.759 -3.51142 -4.5318 0
M  V30 3885 H 364.156 -4.24679 -4.2399 0
M  V30 3886 H 365.226 -3.91072 -2.86689 0
M  V30 3887 N 366.569 1.04691 -1.17803 0
M  V30 3888 C 367.499 2.14494 -0.92275 0
M  V30 3889 C 368.48 1.69546 0.137179 0
M  V30 3890 O 369.665 1.94195 -0.0141108 0
M  V30 3891 C 366.795 3.44491 -0.440803 0
M  V30 3892 C 365.749 4.03031 -1.4405 0
M  V30 3893 C 365.075 5.28432 -0.81631 0
M  V30 3894 C 366.375 4.39932 -2.81527 0
M  V30 3895 H 368.069 2.36107 -1.84103 0
M  V30 3896 H 365.615 1.1347 -0.886599 0
M  V30 3897 H 367.568 4.2066 -0.249602 0
M  V30 3898 H 366.292 3.22546 0.513025 0
M  V30 3899 H 364.951 3.28937 -1.61853 0
M  V30 3900 H 364.599 5.02792 0.144511 0
M  V30 3901 H 364.299 5.68559 -1.48371 0
M  V30 3902 H 365.823 6.07284 -0.635496 0
M  V30 3903 H 367.237 5.07113 -2.67412 0
M  V30 3904 H 365.634 4.9109 -3.44892 0
M  V30 3905 H 366.704 3.50045 -3.35554 0
M  V30 3906 N 368.047 0.979072 1.23499 0
M  V30 3907 C 368.977 0.537606 2.27227 0
M  V30 3908 C 369.958 -0.428539 1.64613 0
M  V30 3909 O 371.143 -0.322191 1.91509 0
M  V30 3910 C 368.273 -0.162052 3.46922 0
M  V30 3911 C 367.227 0.721242 4.21879 0
M  V30 3912 C 366.553 -0.110555 5.34586 0
M  V30 3913 C 367.853 2.01141 4.82016 0
M  V30 3914 H 369.547 1.40462 2.64406 0
M  V30 3915 H 367.093 0.67684 1.27102 0
M  V30 3916 H 369.046 -0.482192 4.18632 0
M  V30 3917 H 367.77 -1.06351 3.08799 0
M  V30 3918 H 366.429 1.02482 3.51984 0
M  V30 3919 H 366.077 -1.0125 4.92704 0
M  V30 3920 H 365.777 0.477325 5.85658 0
M  V30 3921 H 367.301 -0.425107 6.09118 0
M  V30 3922 H 368.715 1.75612 5.45741 0
M  V30 3923 H 367.112 2.54695 5.43369 0
M  V30 3924 H 368.182 2.69909 4.02836 0
M  V30 3925 N 369.525 -1.3858 0.750561 0
M  V30 3926 C 370.941 -1.53759 0.427824 0
M  V30 3927 C 371.141 -1.71401 -1.05943 0
M  V30 3928 O 370.197 -1.72331 -1.84549 0
M  V30 3929 C 371.51 -2.74642 1.22443 0
M  V30 3930 C 373.058 -2.88489 1.2142 0
M  V30 3931 C 373.533 -4.12329 1.9937 0
M  V30 3932 N 375.024 -4.194 1.96616 0
M  V30 3933 C 375.759 -5.14209 2.53727 0
M  V30 3934 N 375.255 -6.14709 3.19539 0
M  V30 3935 N 377.048 -5.06537 2.43673 0
M  V30 3936 H 369.199 -1.25377 1.71447 0
M  V30 3937 H 371.462 -0.608844 0.726645 0
M  V30 3938 H 371.168 -2.68 2.27747 0
M  V30 3939 H 371.042 -3.67745 0.839273 0
M  V30 3940 H 373.429 -2.94614 0.169232 0
M  V30 3941 H 373.51 -1.96406 1.63885 0
M  V30 3942 H 373.154 -4.06966 3.03877 0
M  V30 3943 H 373.084 -5.03486 1.54302 0
M  V30 3944 H 375.575 -3.47421 1.48684 0
M  V30 3945 H 375.888 -6.8354 3.60545 0
M  V30 3946 H 374.233 -6.1505 3.23633 0
M  V30 3947 H 377.424 -4.26962 1.91889 0
M  V30 3948 H 377.597 -5.80245 2.88479 0
M  V30 3949 N 371.003 -0.499398 -1.49478 0
M  V30 3950 C 372.25 0.0456899 -2.02448 0
M  V30 3951 C 372.578 1.37142 -1.37921 0
M  V30 3952 O 371.833 1.89111 -0.503544 0
M  V30 3953 C 372.132 0.248424 -3.56536 0
M  V30 3954 C 371.798 -0.999107 -4.39692 0
M  V30 3955 C 370.46 -1.34108 -4.62135 0
M  V30 3956 C 372.812 -1.82842 -4.88076 0
M  V30 3957 C 370.14 -2.51191 -5.30208 0
M  V30 3958 C 372.492 -2.99076 -5.57437 0
M  V30 3959 C 371.156 -3.33655 -5.78127 0
M  V30 3960 H 370.426 0.0167191 -0.740811 0
M  V30 3961 H 373.073 -0.65923 -1.79795 0
M  V30 3962 H 371.378 1.03586 -3.77859 0
M  V30 3963 H 373.075 0.684605 -3.95113 0
M  V30 3964 H 369.665 -0.722729 -4.22463 0
M  V30 3965 H 373.849 -1.57737 -4.70566 0
M  V30 3966 H 369.105 -2.78221 -5.44429 0
M  V30 3967 H 373.279 -3.63664 -5.93904 0
M  V30 3968 H 370.906 -4.24483 -6.30649 0
M  V30 3969 N 372.481 1.55866 -0.233164 0
M  V30 3970 C 373.728 1.98603 0.395374 0
M  V30 3971 C 374.056 1.12105 1.58942 0
M  V30 3972 O 373.311 0.168656 1.94972 0
M  V30 3973 C 373.61 3.46856 0.861724 0
M  V30 3974 C 373.276 4.50348 -0.223066 0
M  V30 3975 C 371.938 4.78371 -0.521038 0
M  V30 3976 C 374.29 5.12355 -0.956124 0
M  V30 3977 C 371.618 5.6568 -1.55638 0
M  V30 3978 C 373.97 6.00786 -1.98089 0
M  V30 3979 C 372.634 6.27148 -2.28565 0
M  V30 3980 H 371.904 0.726739 0.144677 0
M  V30 3981 H 374.551 1.88491 -0.338114 0
M  V30 3982 H 372.856 3.5423 1.67418 0
M  V30 3983 H 374.553 3.77302 1.35809 0
M  V30 3984 H 371.143 4.28596 0.0193234 0
M  V30 3985 H 375.327 4.90765 -0.739166 0
M  V30 3986 H 370.583 5.84365 -1.798 0
M  V30 3987 H 374.757 6.4788 -2.55391 0
M  V30 3988 H 372.384 6.94597 -3.08932 0
M  V30 3989 N 373.959 -0.0401083 1.57549 0
M  V30 3990 C 374.922 -1.02871 2.04817 0
M  V30 3991 C 375.922 -1.29708 0.950388 0
M  V30 3992 O 377.112 -1.24897 1.21435 0
M  V30 3993 C 374.244 -2.36443 2.45576 0
M  V30 3994 H 375.437 -0.620631 2.93408 0
M  V30 3995 H 372.99 -0.286667 1.53649 0
M  V30 3996 H 373.725 -2.82021 1.60108 0
M  V30 3997 H 373.51 -2.18296 3.25713 0
M  V30 3998 H 375 -3.07441 2.82612 0
M  V30 3999 N 375.437 -1.54477 -0.31217 0
M  V30 4000 C 376.385 -1.85395 -1.40469 0
M  V30 4001 C 377.379 -0.726749 -1.53019 0
M  V30 4002 O 378.585 -0.910582 -1.55269 0
M  V30 4003 H 374.96 -0.587845 -0.46898 0
M  V30 4004 H 376.931 -2.76736 -1.11623 0
M  V30 4005 C 375.68 -2.10811 -2.76503 0
M  V30 4006 H 375.003 -2.97014 -2.67625 0
M  V30 4007 H 376.443 -2.3639 -3.51988 0
M  V30 4008 C 374.902 -0.903165 -3.24568 0
M  V30 4009 O 375.432 -0.118085 -4.01526 0
M  V30 4010 N 373.638 -0.711634 -2.81752 0
M  V30 4011 H 373.185 -1.35171 -2.19286 0
M  V30 4012 H 373.143 0.0930473 -3.14262 0
M  V30 4013 N 376.915 0.57481 -1.46744 0
M  V30 4014 C 377.878 1.66533 -1.57478 0
M  V30 4015 C 378.878 1.54338 -0.451263 0
M  V30 4016 O 380.068 1.58814 -0.715813 0
M  V30 4017 C 377.2 3.05999 -1.50259 0
M  V30 4018 H 378.393 1.58372 -2.54673 0
M  V30 4019 H 375.946 0.793301 -1.34672 0
M  V30 4020 H 376.681 3.19709 -0.543725 0
M  V30 4021 H 376.466 3.16259 -2.31781 0
M  V30 4022 H 377.956 3.8537 -1.60872 0
M  V30 4023 N 378.394 1.34581 0.820102 0
M  V30 4024 C 379.641 1.27096 1.57648 0
M  V30 4025 C 379.969 -0.158317 1.93855 0
M  V30 4026 O 379.224 -1.12028 1.60463 0
M  V30 4027 C 379.523 2.10997 2.8847 0
M  V30 4028 C 379.189 3.59966 2.71543 0
M  V30 4029 C 377.851 4.00575 2.66634 0
M  V30 4030 C 380.203 4.54548 2.55021 0
M  V30 4031 C 377.531 5.33953 2.43128 0
M  V30 4032 C 379.883 5.88109 2.33047 0
M  V30 4033 C 378.547 6.27878 2.26552 0
M  V30 4034 H 377.817 0.465078 0.576874 0
M  V30 4035 H 380.464 1.6635 0.948671 0
M  V30 4036 H 378.769 1.6458 3.55557 0
M  V30 4037 H 380.466 2.0255 3.46084 0
M  V30 4038 H 377.056 3.27733 2.76205 0
M  V30 4039 H 381.24 4.24069 2.57835 0
M  V30 4040 H 376.496 5.63781 2.3656 0
M  V30 4041 H 380.67 6.60985 2.19251 0
M  V30 4042 H 378.297 7.31162 2.081 0
M  V30 4043 N 379.872 -1.04064 1.18357 0
M  V30 4044 C 381.1 -1.80916 1.00384 0
M  V30 4045 C 381.515 -1.83414 -0.447738 0
M  V30 4046 O 380.872 -1.26962 -1.31099 0
M  V30 4047 C 380.923 -3.26516 1.55144 0
M  V30 4048 O 380.644 -3.2424 2.94618 0
M  V30 4049 C 382.145 -4.20013 1.41789 0
M  V30 4050 H 379.365 -0.569728 0.354474 0
M  V30 4051 H 381.909 -1.31151 1.56906 0
M  V30 4052 H 380.064 -3.73512 1.02798 0
M  V30 4053 H 380.478 -4.15452 3.20156 0
M  V30 4054 H 381.952 -5.20111 1.84901 0
M  V30 4055 H 382.429 -4.37667 0.36661 0
M  V30 4056 H 383.035 -3.78881 1.93207 0
M  V30 4057 N 381.35 -0.985608 -1.22978 0
M  V30 4058 C 382.28 -0.549649 -2.26939 0
M  V30 4059 C 383.261 0.419803 -1.64838 0
M  V30 4060 O 384.446 0.31203 -1.91677 0
M  V30 4061 C 381.576 0.143652 -3.47003 0
M  V30 4062 C 380.53 -0.743606 -4.21491 0
M  V30 4063 C 379.856 0.0822027 -5.34637 0
M  V30 4064 C 381.156 -2.03694 -4.80943 0
M  V30 4065 H 382.85 -1.41862 -2.63658 0
M  V30 4066 H 380.396 -0.683571 -1.26741 0
M  V30 4067 H 382.349 0.459985 -4.18882 0
M  V30 4068 H 381.073 1.04711 -3.09359 0
M  V30 4069 H 379.732 -1.04347 -3.51436 0
M  V30 4070 H 379.38 0.986359 -4.93234 0
M  V30 4071 H 379.08 -0.508377 -5.85397 0
M  V30 4072 H 380.604 0.392797 -6.09335 0
M  V30 4073 H 382.018 -1.78504 -5.44802 0
M  V30 4074 H 380.415 -2.57573 -5.42011 0
M  V30 4075 H 381.485 -2.72042 -4.01399 0
M  V30 4076 N 382.828 1.3818 -0.7579 0
M  V30 4077 C 384.056 2.04301 -0.326937 0
M  V30 4078 C 384.471 1.57163 1.0462 0
M  V30 4079 O 383.828 0.746626 1.66529 0
M  V30 4080 C 383.879 3.59846 -0.345363 0
M  V30 4081 O 383.6 4.05256 -1.66432 0
M  V30 4082 C 385.101 4.4319 0.098927 0
M  V30 4083 H 382.321 0.656443 -0.139012 0
M  V30 4084 H 384.865 1.76786 -1.02796 0
M  V30 4085 H 383.02 3.86182 0.306955 0
M  V30 4086 H 383.434 4.99709 -1.59345 0
M  V30 4087 H 384.908 5.51989 0.0348745 0
M  V30 4088 H 385.385 4.23947 1.14741 0
M  V30 4089 H 385.991 4.22051 -0.52468 0
M  V30 4090 N 384.306 0.507319 1.49211 0
M  V30 4091 C 385.717 0.0611118 1.866 0
M  V30 4092 C 386.068 -1.35488 1.41907 0
M  V30 4093 O 385.193 -2.0108 0.799726 0
M  V30 4094 C 385.788 0.104125 3.3864 0
M  V30 4095 C 384.347 -0.28677 3.75306 0
M  V30 4096 C 383.494 0.473893 2.73221 0
M  V30 4097 H 386.445 0.719775 1.41439 0
M  V30 4098 H 386.466 -0.689672 3.74198 0
M  V30 4099 H 385.978 1.13482 3.71138 0
M  V30 4100 H 384.079 -1.32046 3.48417 0
M  V30 4101 H 384.192 0.0370745 4.79086 0
M  V30 4102 H 382.556 -0.0770644 2.54583 0
M  V30 4103 H 383.339 1.50478 3.08563 0
M  V30 4104 N 385.784 -1.5574 0.241426 0
M  V30 4105 C 387.014 -2.02913 -0.38857 0
M  V30 4106 C 387.422 -1.12014 -1.52478 0
M  V30 4107 O 386.765 -0.125903 -1.83268 0
M  V30 4108 C 386.827 -3.4636 -0.963075 0
M  V30 4109 C 386.491 -4.56982 0.0401916 0
M  V30 4110 C 387.488 -5.12941 0.847766 0
M  V30 4111 C 385.173 -5.0203 0.164699 0
M  V30 4112 C 387.167 -6.12437 1.76636 0
M  V30 4113 C 384.854 -6.01358 1.0868 0
M  V30 4114 C 385.852 -6.5644 1.88616 0
M  V30 4115 O 385.54 -7.53831 2.79273 0
M  V30 4116 H 385.272 -0.668983 -0.0971452 0
M  V30 4117 H 387.826 -2.02198 0.361248 0
M  V30 4118 H 386.056 -3.44206 -1.76235 0
M  V30 4119 H 387.745 -3.77065 -1.50257 0
M  V30 4120 H 388.511 -4.78974 0.762133 0
M  V30 4121 H 384.39 -4.58824 -0.447411 0
M  V30 4122 H 387.934 -6.55355 2.39071 0
M  V30 4123 H 383.831 -6.34746 1.17338 0
M  V30 4124 H 384.599 -7.71428 2.73572 0
M  V30 4125 N 387.262 0.0317525 -1.57568 0
M  V30 4126 C 388.21 1.05165 -2.07468 0
M  V30 4127 C 389.204 1.3761 -0.98792 0
M  V30 4128 O 390.41 1.36546 -1.17282 0
M  V30 4129 H 386.785 0.35666 -0.66204 0
M  V30 4130 H 388.756 0.604958 -2.92203 0
M  V30 4131 C 387.505 2.34488 -2.56731 0
M  V30 4132 H 386.828 2.10383 -3.39969 0
M  V30 4133 H 388.268 3.04203 -2.95358 0
M  V30 4134 C 386.727 3.03266 -1.46736 0
M  V30 4135 O 387.257 3.92988 -0.832069 0
M  V30 4136 N 385.463 2.6455 -1.20256 0
M  V30 4137 H 385.01 1.91674 -1.72102 0
M  V30 4138 H 384.968 3.10886 -0.468737 0
M  V30 4139 N 388.74 1.54641 0.303973 0
M  V30 4140 C 389.988 1.73437 1.0375 0
M  V30 4141 C 390.309 0.521449 1.87899 0
M  V30 4142 O 389.579 -0.46432 1.90318 0
M  V30 4143 H 388.159 0.639518 0.386039 0
M  V30 4144 H 390.821 1.91988 0.335675 0
M  V30 4145 H 389.917 2.62235 1.69231 0
M  V30 4146 N 390.218 -0.567019 1.47046 0
M  V30 4147 C 391.446 -1.35027 1.56765 0
M  V30 4148 C 391.861 -1.8758 0.214316 0
M  V30 4149 O 391.218 -1.64471 -0.790919 0
M  V30 4150 C 391.269 -2.52698 2.58507 0
M  V30 4151 O 390.99 -2.0232 3.88585 0
M  V30 4152 C 392.491 -3.45043 2.78316 0
M  V30 4153 H 389.711 -0.41195 0.529658 0
M  V30 4154 H 392.255 -0.687832 1.92585 0
M  V30 4155 H 390.41 -3.149 2.25648 0
M  V30 4156 H 390.824 -2.79068 4.44096 0
M  V30 4157 H 392.298 -4.2405 3.53391 0
M  V30 4158 H 392.775 -3.97971 1.85784 0
M  V30 4159 H 393.381 -2.88665 3.12334 0
M  V30 4160 N 391.696 -1.35014 -0.812953 0
M  V30 4161 C 392.606 -1.2951 -1.95613 0
M  V30 4162 C 393.622 -0.20107 -1.72834 0
M  V30 4163 O 394.798 -0.42932 -1.96771 0
M  V30 4164 C 391.863 -1.06033 -3.30088 0
M  V30 4165 C 390.924 -2.24688 -3.65805 0
M  V30 4166 C 390.157 -2.02322 -4.93864 0
M  V30 4167 O 390.38 -0.986464 -5.61805 0
M  V30 4168 O 389.314 -2.89525 -5.27692 0
M  V30 4169 H 393.14 -2.25705 -2.03202 0
M  V30 4170 H 390.725 -1.15321 -0.949811 0
M  V30 4171 H 392.607 -0.94763 -4.10607 0
M  V30 4172 H 391.282 -0.128852 -3.23443 0
M  V30 4173 H 390.189 -2.41521 -2.85689 0
M  V30 4174 H 391.522 -3.16261 -3.77147 0
M  V30 4175 N 393.175 1.03435 -1.18907 0
M  V30 4176 C 394.138 2.09756 -0.923844 0
M  V30 4177 C 395.138 1.60528 0.093416 0
M  V30 4178 O 396.328 1.73631 -0.140727 0
M  V30 4179 C 393.46 3.38692 -0.387354 0
M  V30 4180 H 394.653 2.34719 -1.86674 0
M  V30 4181 H 392.206 1.19959 -1.00197 0
M  V30 4182 H 392.941 3.19396 0.561845 0
M  V30 4183 H 392.726 3.75742 -1.12074 0
M  V30 4184 H 394.216 4.17016 -0.220694 0
M  V30 4185 N 394.653 0.992116 1.22453 0
M  V30 4186 C 395.583 0.561677 2.26644 0
M  V30 4187 C 396.564 -0.411055 1.65059 0
M  V30 4188 O 397.749 -0.301861 1.9184 0
M  V30 4189 C 394.879 -0.125247 3.47074 0
M  V30 4190 C 393.833 0.765948 4.21091 0
M  V30 4191 C 393.159 -0.0538484 5.34673 0
M  V30 4192 C 394.459 2.06242 4.79856 0
M  V30 4193 H 396.153 1.43259 2.62902 0
M  V30 4194 H 393.699 0.690283 1.26377 0
M  V30 4195 H 395.652 -0.437764 4.1912 0
M  V30 4196 H 394.376 -1.03069 3.0991 0
M  V30 4197 H 393.035 1.0621 3.50878 0
M  V30 4198 H 392.683 -0.960188 4.9375 0
M  V30 4199 H 392.383 0.539415 5.85119 0
M  V30 4200 H 393.907 -0.360477 6.09535 0
M  V30 4201 H 395.321 1.8139 5.43848 0
M  V30 4202 H 393.718 2.60444 5.40638 0
M  V30 4203 H 394.788 2.74167 3.99951 0
M  V30 4204 N 396.131 -1.37776 0.765217 0
M  V30 4205 C 397.377 -2.00145 0.327072 0
M  V30 4206 C 397.71 -1.60607 -1.09175 0
M  V30 4207 O 396.985 -0.849127 -1.74986 0
M  V30 4208 C 397.268 -3.57109 0.46319 0
M  V30 4209 C 397.121 -4.06576 1.92395 0
M  V30 4210 C 398.44 -4.39888 -0.136473 0
M  V30 4211 H 395.559 -0.727113 0.120316 0
M  V30 4212 H 398.201 -1.63549 0.967039 0
M  V30 4213 H 396.351 -3.88414 -0.0816358 0
M  V30 4214 H 398.023 -3.85864 2.52798 0
M  V30 4215 H 396.266 -3.59011 2.43503 0
M  V30 4216 H 396.937 -5.15639 1.97028 0
M  V30 4217 H 399.413 -4.14803 0.328317 0
M  V30 4218 H 398.289 -5.48899 -0.0110582 0
M  V30 4219 H 398.55 -4.24758 -1.22608 0
M  V30 4220 N 397.609 -0.515225 -1.4894 0
M  V30 4221 C 398.855 0.016187 -2.03394 0
M  V30 4222 C 399.21 1.33377 -1.38666 0
M  V30 4223 O 398.503 1.84461 -0.518141 0
M  V30 4224 C 398.697 0.210595 -3.56779 0
M  V30 4225 C 398.526 -1.08659 -4.36375 0
M  V30 4226 C 397.296 -1.64237 -4.77864 0
M  V30 4227 C 399.494 -1.9935 -4.74093 0
M  V30 4228 N 397.476 -2.88398 -5.41941 0
M  V30 4229 C 398.847 -3.08088 -5.38035 0
M  V30 4230 C 400.902 -1.99856 -4.56029 0
M  V30 4231 C 399.605 -4.17377 -5.85823 0
M  V30 4232 C 401.631 -3.08129 -5.04787 0
M  V30 4233 C 400.993 -4.15586 -5.68742 0
M  V30 4234 H 397.092 -0.0352107 -0.781207 0
M  V30 4235 H 399.676 -0.693237 -1.8194 0
M  V30 4236 H 397.847 0.889088 -3.78087 0
M  V30 4237 H 399.579 0.740287 -3.97872 0
M  V30 4238 H 396.334 -1.18566 -4.58518 0
M  V30 4239 H 396.758 -3.51572 -5.78555 0
M  V30 4240 H 401.4 -1.18079 -4.05977 0
M  V30 4241 H 399.118 -4.99943 -6.34888 0
M  V30 4242 H 402.704 -3.09557 -4.92611 0
M  V30 4243 H 401.584 -4.97987 -6.05787 0
M  V30 4244 N 399.087 1.5561 -0.249682 0
M  V30 4245 C 400.017 2.24477 0.642826 0
M  V30 4246 C 400.998 1.22601 1.17911 0
M  V30 4247 O 402.183 1.5126 1.21795 0
M  V30 4248 C 399.313 2.94638 1.83863 0
M  V30 4249 C 398.267 4.03227 1.435 0
M  V30 4250 C 397.593 4.60828 2.71186 0
M  V30 4251 C 398.893 5.18796 0.604002 0
M  V30 4252 H 400.587 2.99321 0.0685625 0
M  V30 4253 H 398.133 1.43965 0.0315363 0
M  V30 4254 H 400.086 3.41517 2.46868 0
M  V30 4255 H 398.81 2.17287 2.43832 0
M  V30 4256 H 397.469 3.57121 0.828275 0
M  V30 4257 H 397.117 3.80174 3.29358 0
M  V30 4258 H 396.817 5.34132 2.44901 0
M  V30 4259 H 398.341 5.10442 3.35084 0
M  V30 4260 H 399.755 5.61883 1.13842 0
M  V30 4261 H 398.152 5.98506 0.437097 0
M  V30 4262 H 399.222 4.83384 -0.383147 0
M  V30 4263 N 400.565 -0.0233959 1.57583 0
M  V30 4264 C 401.812 -0.713063 1.8953 0
M  V30 4265 C 402.14 -1.75056 0.847673 0
M  V30 4266 O 401.395 -1.95119 -0.150636 0
M  V30 4267 C 401.694 -1.41428 3.28227 0
M  V30 4268 C 401.36 -0.512222 4.47981 0
M  V30 4269 C 400.022 -0.263785 4.80476 0
M  V30 4270 C 402.374 0.110248 5.21083 0
M  V30 4271 C 399.702 0.615804 5.83459 0
M  V30 4272 C 402.054 0.977573 6.25001 0
M  V30 4273 C 400.718 1.23542 6.55968 0
M  V30 4274 H 399.988 -0.260928 0.69354 0
M  V30 4275 H 402.635 0.0271047 1.91481 0
M  V30 4276 H 400.94 -2.22791 3.22291 0
M  V30 4277 H 402.637 -1.95355 3.50196 0
M  V30 4278 H 399.227 -0.716013 4.22577 0
M  V30 4279 H 403.411 -0.0687137 4.96252 0
M  V30 4280 H 398.667 0.82382 6.05824 0
M  V30 4281 H 402.841 1.46638 6.80786 0
M  V30 4282 H 400.468 1.91871 7.35588 0
M  V30 4283 N 402.043 -1.548 -0.295768 0
M  V30 4284 C 402.993 -1.82497 -1.3667 0
M  V30 4285 C 403.977 -0.682434 -1.45711 0
M  V30 4286 O 405.169 -0.943207 -1.49775 0
M  V30 4287 C 402.298 -2.08036 -2.73086 0
M  V30 4288 C 401.384 -3.28488 -2.68247 0
M  V30 4289 N 401.775 -4.48924 -2.33025 0
M  V30 4290 C 400.073 -3.3062 -2.99343 0
M  V30 4291 C 400.774 -5.30956 -2.37613 0
M  V30 4292 N 399.75 -4.68805 -2.75178 0
M  V30 4293 H 403.552 -2.73175 -1.0841 0
M  V30 4294 H 401.066 -1.5437 -0.504361 0
M  V30 4295 H 403.063 -2.26027 -3.5031 0
M  V30 4296 H 401.723 -1.18629 -3.02254 0
M  V30 4297 H 402.734 -4.75432 -2.05389 0
M  V30 4298 H 399.411 -2.51336 -3.33371 0
M  V30 4299 H 400.801 -6.37199 -2.13135 0
M  V30 4300 N 403.521 0.559213 -1.47345 0
M  V30 4301 C 404.453 1.68161 -1.55738 0
M  V30 4302 C 405.466 1.56636 -0.443744 0
M  V30 4303 O 406.655 1.6363 -0.713258 0
M  V30 4304 C 403.755 3.06611 -1.4437 0
M  V30 4305 C 402.928 3.4391 -2.70268 0
M  V30 4306 C 401.987 4.61515 -2.52765 0
M  V30 4307 O 401.013 4.66197 -3.26572 0
M  V30 4308 N 402.215 5.57883 -1.6046 0
M  V30 4309 H 404.98 1.61408 -2.52522 0
M  V30 4310 H 402.541 0.7458 -1.43699 0
M  V30 4311 H 404.533 3.83117 -1.30398 0
M  V30 4312 H 403.103 3.07602 -0.556766 0
M  V30 4313 H 402.323 2.56873 -2.99015 0
M  V30 4314 H 403.611 3.65605 -3.53851 0
M  V30 4315 H 403.009 5.56855 -0.996422 0
M  V30 4316 H 401.566 6.33723 -1.52441 0
M  V30 4317 N 404.999 1.35443 0.805782 0
M  V30 4318 C 405.946 1.28431 1.91766 0
M  V30 4319 C 406.916 0.156102 1.65365 0
M  V30 4320 O 408.101 0.339936 1.87747 0
M  V30 4321 C 405.241 1.06301 3.2832 0
M  V30 4322 C 404.354 2.2805 3.66902 0
M  V30 4323 C 403.489 1.99064 4.92491 0
M  V30 4324 C 402.528 3.16863 5.23703 0
M  V30 4325 N 401.665 2.87647 6.40471 0
M  V30 4326 H 406.505 2.23511 1.97096 0
M  V30 4327 H 404.042 1.11105 0.964054 0
M  V30 4328 H 406 0.915012 4.07042 0
M  V30 4329 H 404.63 0.148822 3.22457 0
M  V30 4330 H 403.682 2.53711 2.83434 0
M  V30 4331 H 404.994 3.1601 3.85927 0
M  V30 4332 H 404.148 1.81099 5.7904 0
M  V30 4333 H 402.887 1.0839 4.75503 0
M  V30 4334 H 401.892 3.35404 4.35642 0
M  V30 4335 H 403.117 4.08339 5.4262 0
M  V30 4336 H 401.063 1.99568 6.24907 0
M  V30 4337 H 400.98 3.69141 6.59751 0
M  V30 4338 H 402.248 2.73226 7.30047 0
M  V30 4339 N 406.477 -1.02803 1.19454 0
M  V30 4340 C 407.888 -1.57667 0.999899 0
M  V30 4341 C 408.239 -1.91041 -0.446956 0
M  V30 4342 O 407.364 -1.70978 -1.32648 0
M  V30 4343 C 407.959 -2.86477 1.80877 0
M  V30 4344 C 406.518 -3.37911 1.65811 0
M  V30 4345 C 405.665 -2.11343 1.79526 0
M  V30 4346 H 408.616 -0.853214 1.33813 0
M  V30 4347 H 408.637 -3.57408 1.30536 0
M  V30 4348 H 408.149 -2.62155 2.86175 0
M  V30 4349 H 406.25 -3.67218 0.63102 0
M  V30 4350 H 406.363 -4.10885 2.46395 0
M  V30 4351 H 404.727 -2.23254 1.22596 0
M  V30 4352 H 405.51 -1.89461 2.86285 0
M  V30 4353 N 407.956 -0.998596 -1.21925 0
M  V30 4354 C 408.866 -0.562736 -2.27751 0
M  V30 4355 C 409.882 0.391203 -1.69545 0
M  V30 4356 O 411.058 0.256625 -1.99758 0
M  V30 4357 C 408.123 0.11012 -3.46525 0
M  V30 4358 C 407.184 -0.887495 -4.20026 0
M  V30 4359 C 406.417 -0.246654 -5.3313 0
M  V30 4360 O 406.64 0.958088 -5.62296 0
M  V30 4361 O 405.574 -0.954374 -5.94286 0
M  V30 4362 H 409.4 -1.44329 -2.67213 0
M  V30 4363 H 406.985 -0.767135 -1.28201 0
M  V30 4364 H 408.867 0.486756 -4.18579 0
M  V30 4365 H 407.542 0.965154 -3.08976 0
M  V30 4366 H 406.449 -1.31517 -3.5022 0
M  V30 4367 H 407.782 -1.71191 -4.6147 0
M  V30 4368 N 409.434 1.37368 -0.772513 0
M  V30 4369 C 410.659 2.0447 -0.347386 0
M  V30 4370 C 411.084 1.57882 1.0225 0
M  V30 4371 O 410.442 0.73941 1.65537 0
M  V30 4372 C 410.49 3.58369 -0.400479 0
M  V30 4373 O 409.594 4.0803 0.598789 0
M  V30 4374 H 408.935 0.646773 -0.15027 0
M  V30 4375 H 411.465 1.75667 -1.04892 0
M  V30 4376 H 411.475 4.07183 -0.258045 0
M  V30 4377 H 410.15 3.91633 -1.39986 0
M  V30 4378 H 408.727 3.70534 0.419411 0
M  V30 4379 N 410.912 0.523116 1.48665 0
M  V30 4380 C 411.842 -0.23231 2.32342 0
M  V30 4381 C 412.823 -0.941637 1.41659 0
M  V30 4382 O 414.008 -0.928751 1.70552 0
M  V30 4383 C 411.138 -1.28387 3.22698 0
M  V30 4384 C 410.092 -0.693098 4.22351 0
M  V30 4385 C 409.418 -1.8468 5.01794 0
M  V30 4386 C 410.718 0.33063 5.21252 0
M  V30 4387 H 412.412 0.466192 2.95748 0
M  V30 4388 H 409.958 0.225643 1.42221 0
M  V30 4389 H 411.911 -1.82024 3.80059 0
M  V30 4390 H 410.635 -2.01186 2.57278 0
M  V30 4391 H 409.294 -0.178299 3.66166 0
M  V30 4392 H 408.942 -2.56301 4.32804 0
M  V30 4393 H 408.642 -1.45747 5.69238 0
M  V30 4394 H 410.166 -2.38709 5.62006 0
M  V30 4395 H 411.58 -0.118407 5.73178 0
M  V30 4396 H 409.977 0.636974 5.9671 0
M  V30 4397 H 411.047 1.23883 4.68808 0
M  V30 4398 N 412.39 -1.55475 0.257931 0
M  V30 4399 C 413.338 -2.23244 -0.653076 0
M  V30 4400 C 414.332 -1.22366 -1.17144 0
M  V30 4401 O 415.538 -1.40347 -1.12706 0
M  V30 4402 H 411.913 -0.716247 -0.229117 0
M  V30 4403 H 413.884 -2.98343 -0.0584788 0
M  V30 4404 C 412.633 -2.95401 -1.83395 0
M  V30 4405 H 411.956 -3.72802 -1.44424 0
M  V30 4406 H 413.396 -3.46165 -2.44838 0
M  V30 4407 C 411.855 -1.99895 -2.71189 0
M  V30 4408 O 412.385 -1.53909 -3.71046 0
M  V30 4409 N 410.591 -1.6676 -2.3799 0
M  V30 4410 H 410.138 -2.04352 -1.56837 0
M  V30 4411 H 410.096 -1.03127 -2.97005 0
M  V30 4412 N 413.868 0.0150385 -1.57593 0
M  V30 4413 C 415.279 0.559832 -1.78109 0
M  V30 4414 C 415.63 1.74814 -0.890756 0
M  V30 4415 O 414.755 2.16216 -0.0892482 0
M  V30 4416 C 415.35 1.02238 -3.23006 0
M  V30 4417 C 413.909 1.51258 -3.44671 0
M  V30 4418 C 413.056 0.456955 -2.73509 0
M  V30 4419 H 416.007 -0.211169 -1.57289 0
M  V30 4420 H 416.028 1.88912 -3.30292 0
M  V30 4421 H 415.54 0.157302 -3.87781 0
M  V30 4422 H 413.641 2.39905 -2.8509 0
M  V30 4423 H 413.754 1.55042 -4.5332 0
M  V30 4424 H 412.118 0.915196 -2.37689 0
M  V30 4425 H 412.901 -0.398896 -3.40975 0
M  V30 4426 N 415.346 1.54954 0.287554 0
M  V30 4427 C 416.276 1.89839 1.35954 0
M  V30 4428 C 417.257 0.758675 1.52244 0
M  V30 4429 O 418.442 1.01557 1.65529 0
M  V30 4430 C 415.572 2.15753 2.72154 0
M  V30 4431 C 414.526 3.3159 2.70614 0
M  V30 4432 C 413.852 3.42952 4.10229 0
M  V30 4433 C 415.152 4.68359 2.31165 0
M  V30 4434 H 416.846 2.79625 1.07007 0
M  V30 4435 H 414.392 1.3454 0.513316 0
M  V30 4436 H 416.345 2.38743 3.47246 0
M  V30 4437 H 415.069 1.22752 3.02654 0
M  V30 4438 H 413.728 3.08545 1.97979 0
M  V30 4439 H 413.376 2.47443 4.37928 0
M  V30 4440 H 413.076 4.20826 4.10097 0
M  V30 4441 H 414.6 3.68218 4.87081 0
M  V30 4442 H 416.014 4.9099 2.95976 0
M  V30 4443 H 414.411 5.49044 2.42221 0
M  V30 4444 H 415.481 4.68165 1.26291 0
M  V30 4445 N 416.824 -0.551391 1.4764 0
M  V30 4446 C 418.073 -1.30467 1.53822 0
M  V30 4447 C 418.386 -1.94495 0.207661 0
M  V30 4448 O 419.592 -2.71099 0.147533 0
M  V30 4449 C 418.048 -2.36616 2.71184 0
M  V30 4450 C 417.656 -1.78754 4.10793 0
M  V30 4451 C 419.4 -3.13088 2.86663 0
M  V30 4452 C 417.307 -2.82717 5.19447 0
M  V30 4453 H 416.237 -0.490584 0.572576 0
M  V30 4454 H 418.888 -0.58494 1.73927 0
M  V30 4455 H 417.27 -3.11529 2.4447 0
M  V30 4456 H 418.444 -1.10173 4.47435 0
M  V30 4457 H 416.759 -1.14846 4.00249 0
M  V30 4458 H 419.356 -3.90736 3.65007 0
M  V30 4459 H 419.699 -3.67635 1.95321 0
M  V30 4460 H 420.232 -2.45288 3.13175 0
M  V30 4461 H 416.971 -2.33018 6.12685 0
M  V30 4462 H 416.491 -3.4969 4.87316 0
M  V30 4463 H 418.17 -3.46102 5.46646 0
M  V30 4464 N 418.302 -1.35869 -0.798587 0
M  V30 4465 C 419.249 -1.29446 -1.91082 0
M  V30 4466 C 420.219 -0.16487 -1.6528 0
M  V30 4467 O 421.404 -0.349888 -1.87564 0
M  V30 4468 C 418.544 -1.0804 -3.27752 0
M  V30 4469 C 417.657 -2.29993 -3.65687 0
M  V30 4470 C 416.792 -2.01673 -4.91428 0
M  V30 4471 C 415.831 -3.19636 -5.22015 0
M  V30 4472 N 414.968 -2.91039 -6.38937 0
M  V30 4473 H 419.808 -2.24553 -1.95907 0
M  V30 4474 H 417.345 -1.11615 -0.958148 0
M  V30 4475 H 419.303 -0.936586 -4.06551 0
M  V30 4476 H 417.933 -0.16592 -3.22373 0
M  V30 4477 H 416.985 -2.55211 -2.82085 0
M  V30 4478 H 418.297 -3.18052 -3.84245 0
M  V30 4479 H 417.451 -1.84168 -5.78072 0
M  V30 4480 H 416.19 -1.10911 -4.74921 0
M  V30 4481 H 415.195 -3.37709 -4.33858 0
M  V30 4482 H 416.42 -4.11211 -5.40447 0
M  V30 4483 H 414.366 -2.0288 -6.2384 0
M  V30 4484 H 414.283 -3.72635 -6.57784 0
M  V30 4485 H 415.551 -2.77093 -7.28587 0
M  V30 4486 N 419.78 1.02168 -1.19998 0
M  V30 4487 C 421.01 1.79036 -1.031 0
M  V30 4488 C 421.418 1.84409 0.423078 0
M  V30 4489 O 420.761 1.29228 1.30559 0
M  V30 4490 C 420.823 3.25185 -1.53281 0
M  V30 4491 C 420.487 3.43431 -3.01503 0
M  V30 4492 C 421.484 3.33063 -3.99206 0
M  V30 4493 C 419.169 3.69412 -3.40353 0
M  V30 4494 C 421.163 3.48413 -5.33748 0
M  V30 4495 C 418.85 3.84406 -4.75053 0
M  V30 4496 C 419.848 3.7391 -5.71559 0
M  V30 4497 O 419.536 3.88452 -7.03818 0
M  V30 4498 H 419.268 0.570043 -0.363355 0
M  V30 4499 H 421.822 1.29524 -1.59414 0
M  V30 4500 H 420.052 3.75756 -0.913483 0
M  V30 4501 H 421.741 3.83671 -1.32481 0
M  V30 4502 H 422.507 3.12934 -3.70537 0
M  V30 4503 H 418.386 3.76671 -2.65782 0
M  V30 4504 H 421.93 3.40137 -6.09059 0
M  V30 4505 H 417.827 4.04035 -5.03415 0
M  V30 4506 H 418.595 4.055 -7.10993 0
M  V30 4507 N 421.258 1.00505 1.21394 0
M  V30 4508 C 422.188 0.585684 2.26035 0
M  V30 4509 C 423.169 -0.393525 1.65485 0
M  V30 4510 O 424.354 -0.281497 1.92149 0
M  V30 4511 C 421.484 -0.0884283 3.47187 0
M  V30 4512 C 420.438 0.810567 4.20254 0
M  V30 4513 C 419.764 0.00286382 5.347 0
M  V30 4514 C 421.064 2.1132 4.77641 0
M  V30 4515 H 422.758 1.46039 2.61368 0
M  V30 4516 H 420.304 0.703648 1.25638 0
M  V30 4517 H 422.257 -0.393286 4.19561 0
M  V30 4518 H 420.981 -0.997766 3.10986 0
M  V30 4519 H 419.64 1.09925 3.49731 0
M  V30 4520 H 419.288 -0.907765 4.94741 0
M  V30 4521 H 418.988 0.601444 5.84514 0
M  V30 4522 H 420.512 -0.295808 6.09883 0
M  V30 4523 H 421.926 1.87148 5.41893 0
M  V30 4524 H 420.323 2.66164 5.37845 0
M  V30 4525 H 421.393 2.78393 3.9702 0
M  V30 4526 N 422.737 -1.36956 0.779787 0
M  V30 4527 C 423.962 -2.04283 0.358224 0
M  V30 4528 C 424.387 -1.58422 -1.01411 0
M  V30 4529 O 423.745 -0.748179 -1.65142 0
M  V30 4530 C 423.793 -3.58152 0.419479 0
M  V30 4531 O 422.897 -4.08342 -0.577142 0
M  V30 4532 H 422.238 -0.645967 0.153698 0
M  V30 4533 H 424.768 -1.75108 1.05822 0
M  V30 4534 H 424.778 -4.07041 0.279636 0
M  V30 4535 H 423.453 -3.90886 1.42061 0
M  V30 4536 H 422.03 -3.70751 -0.399755 0
M  V30 4537 N 424.215 -0.530993 -1.48385 0
M  V30 4538 C 425.178 0.220497 -2.28137 0
M  V30 4539 C 426.178 0.866851 -1.35434 0
M  V30 4540 O 427.368 0.726746 -1.58316 0
M  V30 4541 C 424.5 1.31921 -3.1434 0
M  V30 4542 H 425.693 -0.479714 -2.96038 0
M  V30 4543 H 423.246 -0.286968 -1.53643 0
M  V30 4544 H 423.981 2.05264 -2.51072 0
M  V30 4545 H 423.766 0.86085 -3.82533 0
M  V30 4546 H 425.256 1.84776 -3.74497 0
M  V30 4547 N 425.693 1.55336 -0.266172 0
M  V30 4548 C 426.921 2.03801 0.356756 0
M  V30 4549 C 427.336 1.14485 1.50129 0
M  V30 4550 O 426.693 0.163121 1.8177 0
M  V30 4551 C 426.744 3.51455 0.846281 0
M  V30 4552 O 426.465 4.37371 -0.252663 0
M  V30 4553 C 427.966 4.15767 1.53794 0
M  V30 4554 H 425.186 0.665906 0.0825218 0
M  V30 4555 H 427.73 2.00636 -0.39566 0
M  V30 4556 H 425.885 3.55092 1.54881 0
M  V30 4557 H 426.299 5.24358 0.122173 0
M  V30 4558 H 427.773 5.20714 1.83198 0
M  V30 4559 H 428.25 3.63404 2.46646 0
M  V30 4560 H 428.856 4.16107 0.879488 0
M  V30 4561 N 427.171 -0.0066808 1.57599 0
M  V30 4562 C 428.399 -0.704087 1.94551 0
M  V30 4563 C 428.814 -1.67677 0.867746 0
M  V30 4564 O 428.171 -1.8185 -0.153925 0
M  V30 4565 C 428.222 -1.44177 3.31505 0
M  V30 4566 O 427.943 -0.508097 4.35144 0
M  V30 4567 C 429.444 -2.23429 3.82876 0
M  V30 4568 H 426.664 -0.196523 0.641576 0
M  V30 4569 H 429.208 0.042453 2.04456 0
M  V30 4570 H 427.363 -2.13999 3.22929 0
M  V30 4571 H 427.777 -1.02782 5.14331 0
M  V30 4572 H 429.251 -2.70552 4.8115 0
M  V30 4573 H 429.728 -3.05818 3.15233 0
M  V30 4574 H 430.334 -1.58636 3.94607 0
M  V30 4575 N 428.649 -1.55105 -0.279332 0
M  V30 4576 C 429.897 -1.75066 -1.00977 0
M  V30 4577 C 430.218 -0.551276 -1.87045 0
M  V30 4578 O 429.488 0.433984 -1.91032 0
M  V30 4579 H 428.068 -0.645578 -0.375816 0
M  V30 4580 H 430.73 -1.92497 -0.305089 0
M  V30 4581 H 429.826 -2.64894 -1.65038 0
M  V30 4582 N 430.127 0.543554 -1.4793 0
M  V30 4583 C 431.374 1.30008 -1.55255 0
M  V30 4584 C 431.702 1.93245 -0.220612 0
M  V30 4585 O 430.957 1.79141 0.787843 0
M  V30 4586 C 431.256 2.42078 -2.62932 0
M  V30 4587 C 430.922 1.96583 -4.0579 0
M  V30 4588 C 429.584 1.83893 -4.44676 0
M  V30 4589 C 431.936 1.62034 -4.95373 0
M  V30 4590 C 429.264 1.34969 -5.70964 0
M  V30 4591 C 431.616 1.14577 -6.22137 0
M  V30 4592 C 430.28 1.00493 -6.59892 0
M  V30 4593 H 429.55 0.475735 -0.568117 0
M  V30 4594 H 432.197 0.608075 -1.81589 0
M  V30 4595 H 430.502 3.16892 -2.30406 0
M  V30 4596 H 432.199 3.00236 -2.65818 0
M  V30 4597 H 428.789 2.07407 -3.75074 0
M  V30 4598 H 432.973 1.70705 -4.66019 0
M  V30 4599 H 428.229 1.2274 -5.98953 0
M  V30 4600 H 432.403 0.869109 -6.90955 0
M  V30 4601 H 430.03 0.623624 -7.57638 0
M  V30 4602 N 431.605 1.3629 0.791371 0
M  V30 4603 C 432.853 1.30154 1.5461 0
M  V30 4604 C 433.174 -0.119409 1.94634 0
M  V30 4605 O 432.444 -1.05924 1.64794 0
M  V30 4606 H 431.024 0.478784 0.573389 0
M  V30 4607 H 433.686 1.70565 0.94306 0
M  V30 4608 H 432.782 1.92762 2.45457 0
M  V30 4609 N 433.083 -1.0153 1.20538 0
M  V30 4610 C 434.499 -1.27461 0.96051 0
M  V30 4611 C 434.699 -1.98273 -0.359193 0
M  V30 4612 O 433.755 -2.27886 -1.0874 0
M  V30 4613 C 435.068 -2.10837 2.14402 0
M  V30 4614 C 436.616 -2.24099 2.18515 0
M  V30 4615 C 437.091 -3.10852 3.36355 0
M  V30 4616 N 438.582 -3.18441 3.36377 0
M  V30 4617 C 439.317 -3.85795 4.24205 0
M  V30 4618 N 438.813 -4.55264 5.22213 0
M  V30 4619 N 440.606 -3.82331 4.12043 0
M  V30 4620 H 432.757 -0.539907 2.05423 0
M  V30 4621 H 435.02 -0.30092 0.898972 0
M  V30 4622 H 434.726 -1.66144 3.09983 0
M  V30 4623 H 434.6 -3.11576 2.12604 0
M  V30 4624 H 436.987 -2.68016 1.23497 0
M  V30 4625 H 437.068 -1.22865 2.24361 0
M  V30 4626 H 436.712 -2.6764 4.31661 0
M  V30 4627 H 436.642 -4.12177 3.27746 0
M  V30 4628 H 439.133 -2.68978 2.65442 0
M  V30 4629 H 439.446 -5.04331 5.85551 0
M  V30 4630 H 437.791 -4.54085 5.26148 0
M  V30 4631 H 440.982 -3.27207 3.34743 0
M  V30 4632 H 441.155 -4.34547 4.807 0
M  V30 4633 N 434.561 -1.01147 -1.20859 0
M  V30 4634 C 435.509 -0.57059 -2.25493 0
M  V30 4635 C 436.503 0.388109 -1.64894 0
M  V30 4636 O 437.709 0.258592 -1.78133 0
M  V30 4637 H 434.084 -0.166191 -0.733406 0
M  V30 4638 H 436.055 -1.46411 -2.60012 0
M  V30 4639 C 434.804 0.0805241 -3.47607 0
M  V30 4640 H 434.127 -0.648156 -3.94511 0
M  V30 4641 H 435.567 0.352197 -4.22535 0
M  V30 4642 C 434.026 1.32175 -3.09889 0
M  V30 4643 O 434.556 2.41553 -3.20959 0
M  V30 4644 N 432.762 1.20392 -2.64488 0
M  V30 4645 H 432.309 0.313905 -2.5568 0
M  V30 4646 H 432.267 2.03541 -2.39621 0
M  V30 4647 N 436.039 1.36541 -0.78704 0
M  V30 4648 C 437.269 2.03266 -0.369662 0
M  V30 4649 C 437.677 1.59481 1.01796 0
M  V30 4650 O 437.02 0.778612 1.66383 0
M  V30 4651 C 437.082 3.57779 -0.351371 0
M  V30 4652 C 436.746 4.24756 -1.68617 0
M  V30 4653 C 437.743 4.47811 -2.64124 0
M  V30 4654 C 435.428 4.62277 -1.96481 0
M  V30 4655 C 437.422 5.07464 -3.85693 0
M  V30 4656 C 435.109 5.21649 -3.18317 0
M  V30 4657 C 436.107 5.44182 -4.12741 0
M  V30 4658 O 435.795 6.02307 -5.32429 0
M  V30 4659 H 435.527 0.658977 -0.150751 0
M  V30 4660 H 438.081 1.75548 -1.0664 0
M  V30 4661 H 436.311 3.84606 0.401847 0
M  V30 4662 H 438 4.05879 0.0410147 0
M  V30 4663 H 438.766 4.19221 -2.43883 0
M  V30 4664 H 434.645 4.44065 -1.23805 0
M  V30 4665 H 438.189 5.24968 -4.59407 0
M  V30 4666 H 434.086 5.49664 -3.38437 0
M  V30 4667 H 434.854 6.20775 -5.33461 0
M  V30 4668 N 437.518 0.538854 1.48102 0
M  V30 4669 C 438.767 0.0059532 2.01699 0
M  V30 4670 C 439.08 -1.34476 1.42041 0
M  V30 4671 O 440.286 -1.96653 1.87189 0
M  V30 4672 C 438.742 -0.0397627 3.59878 0
M  V30 4673 C 438.35 1.30659 4.28523 0
M  V30 4674 C 440.094 -0.521024 4.2129 0
M  V30 4675 C 438.001 1.22098 5.78659 0
M  V30 4676 H 436.931 -0.00154456 0.753998 0
M  V30 4677 H 439.582 0.683963 1.70277 0
M  V30 4678 H 437.964 -0.783037 3.88181 0
M  V30 4679 H 439.138 2.06613 4.11883 0
M  V30 4680 H 437.453 1.7243 3.79021 0
M  V30 4681 H 440.05 -0.603184 5.31287 0
M  V30 4682 H 440.393 -1.52885 3.8721 0
M  V30 4683 H 440.926 0.166834 3.9745 0
M  V30 4684 H 437.665 2.20424 6.17328 0
M  V30 4685 H 437.185 0.50295 5.97688 0
M  V30 4686 H 438.864 0.915345 6.40492 0
M  V30 4687 N 438.996 -1.55193 0.274407 0
M  V30 4688 C 439.929 -2.18606 -0.654712 0
M  V30 4689 C 440.907 -1.14677 -1.15273 0
M  V30 4690 O 442.091 -1.43198 -1.22583 0
M  V30 4691 C 439.218 -2.80875 -1.89281 0
M  V30 4692 C 438.264 -3.981 -1.53032 0
M  V30 4693 S 439.097 -5.32025 -0.609107 0
M  V30 4694 C 440.253 -5.97761 -1.85559 0
M  V30 4695 H 440.486 -2.97074 -0.115894 0
M  V30 4696 H 438.019 -1.54288 0.05867 0
M  V30 4697 H 439.977 -3.17381 -2.60345 0
M  V30 4698 H 438.638 -2.02302 -2.40277 0
M  V30 4699 H 437.831 -4.40356 -2.45158 0
M  V30 4700 H 437.433 -3.63013 -0.899874 0
M  V30 4701 H 439.725 -6.16951 -2.7996 0
M  V30 4702 H 440.668 -6.92545 -1.47605 0
M  V30 4703 H 441.076 -5.27113 -2.02021 0
M  V30 4704 N 440.474 -0.00167713 -1.576 0
M  V30 4705 C 441.702 0.693759 -1.94922 0
M  V30 4706 C 442.117 1.67215 -0.876626 0
M  V30 4707 O 441.474 1.81929 0.144279 0
M  V30 4708 C 441.525 1.42416 -3.32265 0
M  V30 4709 O 441.246 0.485014 -4.35407 0
M  V30 4710 C 442.747 2.21395 -3.84056 0
M  V30 4711 H 439.967 0.193118 -0.642609 0
M  V30 4712 H 442.511 -0.0532952 -2.04431 0
M  V30 4713 H 440.666 2.12284 -3.24059 0
M  V30 4714 H 441.08 1.00053 -5.14868 0
M  V30 4715 H 442.554 2.67996 -4.82578 0
M  V30 4716 H 443.031 3.04142 -3.16851 0
M  V30 4717 H 443.637 1.56542 -3.95443 0
M  V30 4718 N 441.952 1.55251 0.271103 0
M  V30 4719 C 442.884 1.84675 1.35749 0
M  V30 4720 C 443.897 0.731366 1.45447 0
M  V30 4721 O 445.086 1.00924 1.4723 0
M  V30 4722 C 442.186 1.99638 2.73857 0
M  V30 4723 C 441.359 3.30312 2.86727 0
M  V30 4724 C 440.418 3.35318 4.05522 0
M  V30 4725 O 439.444 4.08682 3.96191 0
M  V30 4726 N 440.646 2.62857 5.17577 0
M  V30 4727 H 443.411 2.78445 1.10853 0
M  V30 4728 H 440.972 1.55191 0.461218 0
M  V30 4729 H 442.964 2.00355 3.51625 0
M  V30 4730 H 441.534 1.12725 2.91568 0
M  V30 4731 H 440.754 3.42118 1.95829 0
M  V30 4732 H 442.042 4.16488 2.92258 0
M  V30 4733 H 441.44 2.02939 5.28046 0
M  V30 4734 H 439.997 2.69295 5.93568 0
M  V30 4735 N 443.43 -0.535701 1.48216 0
M  V30 4736 C 444.377 -1.64083 1.62312 0
M  V30 4737 C 445.347 -1.59448 0.465365 0
M  V30 4738 O 446.532 -1.77959 0.688135 0
M  V30 4739 C 443.672 -3.0236 1.66349 0
M  V30 4740 C 442.785 -3.17273 2.93193 0
M  V30 4741 C 441.92 -4.46075 2.88427 0
M  V30 4742 C 440.959 -4.54496 4.1 0
M  V30 4743 N 440.096 -5.7468 4.03345 0
M  V30 4744 H 444.936 -1.51374 2.5669 0
M  V30 4745 H 442.473 -0.737059 1.27302 0
M  V30 4746 H 444.431 -3.82461 1.66672 0
M  V30 4747 H 443.061 -3.13854 0.754672 0
M  V30 4748 H 442.113 -2.30462 3.02641 0
M  V30 4749 H 443.425 -3.19357 3.83162 0
M  V30 4750 H 442.579 -5.3446 2.87119 0
M  V30 4751 H 441.318 -4.46504 1.96177 0
M  V30 4752 H 440.323 -3.64519 4.11589 0
M  V30 4753 H 441.548 -4.5581 5.03402 0
M  V30 4754 H 439.494 -5.76017 3.13912 0
M  V30 4755 H 439.411 -5.78234 4.87013 0
M  V30 4756 H 440.679 -6.65367 4.06087 0
M  V30 4757 N 444.908 -1.36708 -0.784132 0
M  V30 4758 C 445.841 -1.25827 -1.90375 0
M  V30 4759 C 446.819 -0.141331 -1.61985 0
M  V30 4760 O 448.003 -0.313389 -1.85877 0
M  V30 4761 C 445.13 -0.942621 -3.25319 0
M  V30 4762 C 444.176 -2.07474 -3.72635 0
M  V30 4763 S 445.009 -3.69317 -3.8777 0
M  V30 4764 C 446.165 -3.39876 -5.25581 0
M  V30 4765 H 446.398 -2.20593 -1.99314 0
M  V30 4766 H 443.931 -1.22186 -0.943926 0
M  V30 4767 H 445.889 -0.767321 -4.03265 0
M  V30 4768 H 444.55 -0.0126566 -3.14097 0
M  V30 4769 H 443.743 -1.80858 -4.70432 0
M  V30 4770 H 443.345 -2.20953 -3.01754 0
M  V30 4771 H 445.637 -2.94097 -6.10339 0
M  V30 4772 H 446.58 -4.36956 -5.57203 0
M  V30 4773 H 446.988 -2.75098 -4.92931 0
M  V30 4774 N 446.386 1.0089 -1.21074 0
M  V30 4775 C 447.663 1.71834 -0.934469 0
M  V30 4776 C 448.043 2.0368 0.554753 0
M  V30 4777 O 447.391 1.70742 1.51854 0
M  V30 4778 C 447.601 2.98061 -1.8155 0
M  V30 4779 C 448.949 3.7117 -2.06199 0
M  V30 4780 O 449.973 3.08034 -1.78867 0
M  V30 4781 O 448.832 4.84721 -2.52404 0
M  V30 4782 H 445.926 0.749253 -0.35007 0
M  V30 4783 H 448.472 1.06668 -1.31985 0
M  V30 4784 H 447.244 2.70908 -2.82355 0
M  V30 4785 H 446.867 3.70968 -1.43068 0
M  V30 4786 N 447.864 1.01787 1.20321 0
M  V30 4787 C 448.794 0.609625 2.25401 0
M  V30 4788 C 449.775 -0.375951 1.65893 0
M  V30 4789 O 450.96 -0.261101 1.92437 0
M  V30 4790 C 448.09 -0.0515995 3.47262 0
M  V30 4791 C 447.044 0.855095 4.19371 0
M  V30 4792 C 446.37 0.0595757 5.34667 0
M  V30 4793 C 447.67 2.16374 4.75373 0
M  V30 4794 H 449.364 1.48803 2.59804 0
M  V30 4795 H 446.91 0.716934 1.24884 0
M  V30 4796 H 448.863 -0.348764 4.19954 0
M  V30 4797 H 447.587 -0.964726 3.12027 0
M  V30 4798 H 446.246 1.13628 3.48546 0
M  V30 4799 H 445.894 -0.85524 4.95676 0
M  V30 4800 H 445.594 0.663406 5.83843 0
M  V30 4801 H 447.118 -0.231105 6.10162 0
M  V30 4802 H 448.532 1.92885 5.39878 0
M  V30 4803 H 446.929 2.71853 5.34991 0
M  V30 4804 H 447.999 2.82589 3.94045 0
M  V30 4805 N 449.342 -1.36122 0.79427 0
M  V30 4806 C 450.619 -1.93398 0.292685 0
M  V30 4807 C 450.999 -1.72567 -1.21589 0
M  V30 4808 O 450.347 -1.08745 -2.00965 0
M  V30 4809 C 450.557 -3.42099 0.690614 0
M  V30 4810 C 451.905 -4.19231 0.673105 0
M  V30 4811 O 452.929 -3.50559 0.631389 0
M  V30 4812 O 451.788 -5.41732 0.720362 0
M  V30 4813 H 448.882 -0.823712 0.0736693 0
M  V30 4814 H 451.428 -1.45273 0.87714 0
M  V30 4815 H 450.2 -3.50938 1.73085 0
M  V30 4816 H 449.823 -3.97519 0.0803036 0
M  V30 4817 N 450.82 -0.546701 -1.47814 0
M  V30 4818 C 451.73 0.21026 -2.33656 0
M  V30 4819 C 452.746 0.922413 -1.47538 0
M  V30 4820 O 453.922 0.893652 -1.80488 0
M  V30 4821 C 450.987 1.23348 -3.24016 0
M  V30 4822 C 450.048 0.529883 -4.26017 0
M  V30 4823 C 449.281 1.50435 -5.12059 0
M  V30 4824 O 449.504 2.73837 -5.00369 0
M  V30 4825 O 448.438 1.03459 -5.92942 0
M  V30 4826 H 452.264 -0.493605 -2.99662 0
M  V30 4827 H 449.849 -0.307427 -1.46203 0
M  V30 4828 H 451.731 1.82438 -3.79861 0
M  V30 4829 H 450.406 1.91945 -2.60651 0
M  V30 4830 H 449.313 -0.101948 -3.73961 0
M  V30 4831 H 450.646 -0.11445 -4.92067 0
M  V30 4832 N 452.299 1.55045 -0.282633 0
M  V30 4833 C 453.576 1.9179 0.384166 0
M  V30 4834 C 453.956 1.20778 1.73136 0
M  V30 4835 O 453.304 0.33719 2.25998 0
M  V30 4836 C 453.514 3.45149 0.517014 0
M  V30 4837 C 454.862 4.17064 0.796427 0
M  V30 4838 O 455.886 3.51084 0.601535 0
M  V30 4839 O 454.745 5.33837 1.16962 0
M  V30 4840 H 451.839 0.799483 0.211558 0
M  V30 4841 H 454.385 1.66474 -0.32934 0
M  V30 4842 H 453.157 3.88922 -0.430772 0
M  V30 4843 H 452.78 3.76443 1.2797 0
M  V30 4844 N 453.777 0.010035 1.57597 0
M  V30 4845 C 455.005 -0.683413 1.95287 0
M  V30 4846 C 455.42 -1.66747 0.885481 0
M  V30 4847 O 454.777 -1.82003 -0.134629 0
M  V30 4848 C 454.828 -1.40652 3.33015 0
M  V30 4849 O 454.549 -0.461916 4.35658 0
M  V30 4850 C 456.05 -2.19356 3.85225 0
M  V30 4851 H 453.27 -0.189708 0.643624 0
M  V30 4852 H 455.814 0.0641359 2.04399 0
M  V30 4853 H 453.969 -2.10562 3.2518 0
M  V30 4854 H 454.383 -0.973215 5.15392 0
M  V30 4855 H 455.857 -2.65433 4.83993 0
M  V30 4856 H 456.334 -3.02457 3.18459 0
M  V30 4857 H 456.94 -1.54442 3.96267 0
M  V30 4858 N 455.255 -1.55392 -0.262866 0
M  V30 4859 C 456.218 -1.88181 -1.30846 0
M  V30 4860 C 457.218 -0.757079 -1.41862 0
M  V30 4861 O 458.408 -1.02519 -1.40838 0
M  V30 4862 C 455.54 -2.09609 -2.68844 0
M  V30 4863 H 456.733 -2.81659 -1.02997 0
M  V30 4864 H 454.286 -1.48039 -0.501414 0
M  V30 4865 H 455.021 -1.18547 -3.01856 0
M  V30 4866 H 454.806 -2.91508 -2.62231 0
M  V30 4867 H 456.296 -2.36215 -3.44372 0
M  V30 4868 N 456.733 0.527833 -1.48498 0
M  V30 4869 C 457.643 1.65907 -1.65867 0
M  V30 4870 C 458.659 1.6537 -0.541192 0
M  V30 4871 O 459.835 1.84282 -0.812534 0
M  V30 4872 C 456.9 3.02364 -1.69637 0
M  V30 4873 C 455.961 3.1374 -2.93028 0
M  V30 4874 C 455.194 4.43688 -2.96609 0
M  V30 4875 O 455.417 5.30913 -2.08538 0
M  V30 4876 O 454.351 4.59475 -3.88802 0
M  V30 4877 H 458.177 1.5419 -2.61647 0
M  V30 4878 H 455.762 0.701163 -1.31924 0
M  V30 4879 H 457.644 3.83515 -1.74625 0
M  V30 4880 H 456.319 3.14401 -0.770312 0
M  V30 4881 H 455.226 2.31877 -2.93571 0
M  V30 4882 H 456.559 3.06621 -3.85026 0
M  V30 4883 N 458.211 1.37122 0.776871 0
M  V30 4884 C 459.158 1.3247 1.88998 0
M  V30 4885 C 460.128 0.191143 1.64997 0
M  V30 4886 O 461.313 0.379683 1.86984 0
M  V30 4887 C 458.453 1.13241 3.25992 0
M  V30 4888 C 457.566 2.35782 3.61982 0
M  V30 4889 C 456.701 2.09465 4.88158 0
M  V30 4890 C 455.74 3.279 5.16864 0
M  V30 4891 N 454.877 3.01167 6.34226 0
M  V30 4892 H 459.717 2.27642 1.9231 0
M  V30 4893 H 457.254 1.13125 0.94027 0
M  V30 4894 H 459.212 1.00115 4.0501 0
M  V30 4895 H 457.842 0.217186 3.22069 0
M  V30 4896 H 456.894 2.59666 2.77989 0
M  V30 4897 H 458.206 3.24125 3.79137 0
M  V30 4898 H 457.36 1.93341 5.75069 0
M  V30 4899 H 456.099 1.18452 4.73097 0
M  V30 4900 H 455.104 3.44569 4.2843 0
M  V30 4901 H 456.329 4.19757 5.33836 0
M  V30 4902 H 454.275 2.12779 6.20533 0
M  V30 4903 H 454.192 3.83052 6.51772 0
M  V30 4904 H 455.46 2.88649 7.24087 0
M  V30 4905 N 459.689 -1.00246 1.21608 0
M  V30 4906 C 460.936 -1.74061 1.03485 0
M  V30 4907 C 461.264 -1.89658 -0.431308 0
M  V30 4908 O 460.519 -1.42976 -1.33627 0
M  V30 4909 C 460.818 -3.15448 1.68009 0
M  V30 4910 C 460.484 -3.19792 3.17874 0
M  V30 4911 C 459.146 -3.20685 3.58768 0
M  V30 4912 C 461.498 -3.16835 4.13842 0
M  V30 4913 C 458.826 -3.16309 4.94131 0
M  V30 4914 C 461.178 -3.14001 5.49169 0
M  V30 4915 C 459.842 -3.13204 5.89457 0
M  V30 4916 H 459.112 -0.636934 0.378677 0
M  V30 4917 H 461.759 -1.17473 1.51236 0
M  V30 4918 H 460.064 -3.75284 1.12557 0
M  V30 4919 H 461.761 -3.71285 1.51487 0
M  V30 4920 H 458.351 -3.19842 2.85305 0
M  V30 4921 H 462.535 -3.15303 3.83272 0
M  V30 4922 H 457.791 -3.14032 5.24589 0
M  V30 4923 H 461.965 -3.10667 6.23265 0
M  V30 4924 H 459.592 -3.09568 6.94314 0
M  V30 4925 N 461.167 -1.02423 -1.1978 0
M  V30 4926 C 462.397 -0.736387 -1.93031 0
M  V30 4927 C 462.805 0.708023 -1.75453 0
M  V30 4928 O 462.148 1.4927 -1.07071 0
M  V30 4929 C 462.21 -1.00194 -3.45255 0
M  V30 4930 C 461.874 -2.43698 -3.86601 0
M  V30 4931 C 462.871 -3.41814 -3.91738 0
M  V30 4932 C 460.556 -2.77975 -4.18372 0
M  V30 4933 C 462.55 -4.72265 -4.28071 0
M  V30 4934 C 460.237 -4.08636 -4.54378 0
M  V30 4935 C 461.235 -5.05592 -4.59201 0
M  V30 4936 O 460.923 -6.33914 -4.94376 0
M  V30 4937 H 460.655 -0.269116 -0.620123 0
M  V30 4938 H 463.209 -1.37043 -1.52998 0
M  V30 4939 H 461.439 -0.310747 -3.85449 0
M  V30 4940 H 463.128 -0.704488 -3.9974 0
M  V30 4941 H 463.894 -3.16671 -3.67348 0
M  V30 4942 H 459.773 -2.0319 -4.13805 0
M  V30 4943 H 463.317 -5.4794 -4.3175 0
M  V30 4944 H 459.214 -4.33556 -4.78226 0
M  V30 4945 H 459.982 -6.38317 -5.12341 0
M  V30 4946 N 462.645 1.35699 -0.801477 0
M  V30 4947 C 463.577 2.28598 -0.166028 0
M  V30 4948 C 464.59 1.50044 0.631721 0
M  V30 4949 O 465.779 1.72339 0.464921 0
M  V30 4950 C 462.879 3.29625 0.787451 0
M  V30 4951 C 462.052 4.37384 0.037171 0
M  V30 4952 C 461.111 5.183 0.908375 0
M  V30 4953 O 460.137 5.68053 0.361189 0
M  V30 4954 N 461.339 5.35912 2.23112 0
M  V30 4955 H 464.104 2.83771 -0.964071 0
M  V30 4956 H 461.665 1.47994 -0.656469 0
M  V30 4957 H 463.657 3.80648 1.37439 0
M  V30 4958 H 462.227 2.75004 1.48632 0
M  V30 4959 H 461.447 3.87364 -0.730935 0
M  V30 4960 H 462.735 5.0653 -0.480109 0
M  V30 4961 H 462.133 4.97125 2.69968 0
M  V30 4962 H 460.69 5.90133 2.76741 0
M  V30 4963 N 464.123 0.554532 1.47522 0
M  V30 4964 C 465.07 -0.19466 2.29978 0
M  V30 4965 C 466.04 -0.910882 1.38896 0
M  V30 4966 O 467.225 -0.907102 1.67858 0
M  V30 4967 C 464.365 -1.22035 3.22802 0
M  V30 4968 C 463.478 -0.510474 4.28973 0
M  V30 4969 C 462.613 -1.52123 5.08952 0
M  V30 4970 C 461.652 -0.796173 6.069 0
M  V30 4971 N 460.789 -1.75363 6.79847 0
M  V30 4972 H 465.629 0.51461 2.93523 0
M  V30 4973 H 463.166 0.265607 1.44682 0
M  V30 4974 H 465.124 -1.8276 3.7504 0
M  V30 4975 H 463.754 -1.89769 2.61127 0
M  V30 4976 H 462.806 0.211234 3.79813 0
M  V30 4977 H 464.118 0.0576503 4.98767 0
M  V30 4978 H 463.272 -2.20207 5.65326 0
M  V30 4979 H 462.011 -2.12327 4.39054 0
M  V30 4980 H 461.016 -0.101388 5.49707 0
M  V30 4981 H 462.241 -0.199911 6.78806 0
M  V30 4982 H 460.187 -2.3443 6.12682 0
M  V30 4983 H 460.104 -1.23759 7.45801 0
M  V30 4984 H 461.372 -2.4257 7.40797 0
M  V30 4985 N 465.601 -1.54893 0.290851 0
M  V30 4986 C 466.531 -2.26103 -0.583084 0
M  V30 4987 C 467.512 -1.25684 -1.14619 0
M  V30 4988 O 468.697 -1.54436 -1.17741 0
M  V30 4989 C 465.827 -2.99409 -1.75987 0
M  V30 4990 C 464.781 -4.0689 -1.32758 0
M  V30 4991 C 464.107 -4.67856 -2.58872 0
M  V30 4992 C 465.407 -5.20215 -0.46624 0
M  V30 4993 H 467.101 -2.99398 0.0108214 0
M  V30 4994 H 464.647 -1.43998 0.00664468 0
M  V30 4995 H 466.6 -3.47943 -2.37727 0
M  V30 4996 H 465.324 -2.23675 -2.37985 0
M  V30 4997 H 463.983 -3.59191 -0.733299 0
M  V30 4998 H 463.631 -3.88772 -3.19163 0
M  V30 4999 H 463.331 -5.40438 -2.30653 0
M  V30 5000 H 464.855 -5.19147 -3.21433 0
M  V30 5001 H 466.269 -5.64704 -0.989047 0
M  V30 5002 H 464.666 -5.99455 -0.27826 0
M  V30 5003 H 465.736 -4.82198 0.511173 0
M  V30 5004 N 467.08 -0.0183926 -1.57589 0
M  V30 5005 C 468.01 0.965596 -2.12599 0
M  V30 5006 C 468.991 1.34641 -1.0395 0
M  V30 5007 O 470.176 1.42693 -1.31729 0
M  V30 5008 C 467.306 2.25149 -2.64434 0
M  V30 5009 C 466.26 2.01175 -3.77773 0
M  V30 5010 C 465.586 3.35937 -4.15994 0
M  V30 5011 C 466.886 1.35953 -5.04296 0
M  V30 5012 H 468.58 0.507504 -2.95067 0
M  V30 5013 H 466.126 0.242671 -1.41941 0
M  V30 5014 H 468.079 2.94357 -3.01549 0
M  V30 5015 H 466.803 2.73105 -1.79112 0
M  V30 5016 H 465.462 1.34388 -3.4108 0
M  V30 5017 H 465.11 3.81631 -3.27669 0
M  V30 5018 H 464.81 3.20705 -4.92364 0
M  V30 5019 H 466.334 4.0643 -4.55683 0
M  V30 5020 H 467.748 1.95144 -5.39065 0
M  V30 5021 H 466.145 1.31152 -5.85593 0
M  V30 5022 H 467.215 0.331071 -4.83768 0
M  V30 5023 N 468.558 1.5553 0.254621 0
M  V30 5024 C 469.468 1.92789 1.33677 0
M  V30 5025 C 470.484 0.827356 1.53071 0
M  V30 5026 O 471.66 1.12807 1.66843 0
M  V30 5027 C 468.725 2.20827 2.67275 0
M  V30 5028 C 467.786 3.4427 2.5647 0
M  V30 5029 C 467.019 3.70961 3.83697 0
M  V30 5030 O 467.242 2.99852 4.85227 0
M  V30 5031 O 466.176 4.64491 3.82794 0
M  V30 5032 H 470.002 2.84945 1.05071 0
M  V30 5033 H 467.587 1.42312 0.454723 0
M  V30 5034 H 469.469 2.40204 3.46237 0
M  V30 5035 H 468.144 1.31851 2.9563 0
M  V30 5036 H 467.051 3.30209 1.75821 0
M  V30 5037 H 468.384 4.33524 2.33062 0
M  V30 5038 N 470.036 -0.519951 1.48776 0
M  V30 5039 C 470.966 -1.63253 1.66945 0
M  V30 5040 C 471.947 -1.62014 0.518224 0
M  V30 5041 O 473.132 -1.79053 0.751919 0
M  V30 5042 C 470.262 -3.0181 1.71836 0
M  V30 5043 C 469.216 -3.17911 2.8656 0
M  V30 5044 C 468.542 -4.5763 2.76548 0
M  V30 5045 C 469.842 -2.99729 4.27738 0
M  V30 5046 H 471.536 -1.48302 2.6009 0
M  V30 5047 H 469.082 -0.712026 1.25165 0
M  V30 5048 H 471.035 -3.79525 1.83135 0
M  V30 5049 H 469.759 -3.17806 0.752775 0
M  V30 5050 H 468.418 -2.42616 2.74833 0
M  V30 5051 H 468.066 -4.70476 1.77937 0
M  V30 5052 H 467.766 -4.69346 3.53536 0
M  V30 5053 H 469.29 -5.37431 2.89828 0
M  V30 5054 H 470.704 -3.67228 4.40246 0
M  V30 5055 H 469.101 -3.22932 5.05801 0
M  V30 5056 H 470.171 -1.96047 4.43502 0
M  V30 5057 N 471.514 -1.37532 -0.769588 0
M  V30 5058 C 472.424 -1.35668 -1.91393 0
M  V30 5059 C 473.44 -0.255954 -1.72107 0
M  V30 5060 O 474.616 -0.491704 -1.95305 0
M  V30 5061 C 471.681 -1.16481 -3.26547 0
M  V30 5062 C 470.742 -2.36212 -3.58472 0
M  V30 5063 C 469.975 -2.17932 -4.87177 0
M  V30 5064 O 470.198 -1.1647 -5.58382 0
M  V30 5065 O 469.132 -3.06167 -5.18214 0
M  V30 5066 H 472.958 -2.32055 -1.95918 0
M  V30 5067 H 470.543 -1.18284 -0.912641 0
M  V30 5068 H 472.425 -1.07778 -4.07384 0
M  V30 5069 H 471.1 -0.231687 -3.2287 0
M  V30 5070 H 470.007 -2.50488 -2.77861 0
M  V30 5071 H 471.34 -3.281 -3.66894 0
M  V30 5072 N 472.992 0.995999 -1.22138 0
M  V30 5073 C 473.939 2.08551 -0.988687 0
M  V30 5074 C 474.909 1.65864 0.0885021 0
M  V30 5075 O 476.094 1.90704 -0.0604589 0
M  V30 5076 C 473.234 3.40374 -0.569191 0
M  V30 5077 C 472.347 3.96421 -1.71681 0
M  V30 5078 C 471.482 5.1639 -1.2456 0
M  V30 5079 C 470.521 5.64567 -2.36497 0
M  V30 5080 N 469.658 6.75777 -1.90445 0
M  V30 5081 H 474.498 2.2779 -1.92135 0
M  V30 5082 H 472.035 1.1168 -0.957388 0
M  V30 5083 H 473.993 4.16068 -0.307166 0
M  V30 5084 H 472.623 3.21145 0.326462 0
M  V30 5085 H 471.675 3.17628 -2.09324 0
M  V30 5086 H 472.987 4.2816 -2.55891 0
M  V30 5087 H 472.141 5.99362 -0.940774 0
M  V30 5088 H 470.88 4.86266 -0.373662 0
M  V30 5089 H 469.885 4.80185 -2.67772 0
M  V30 5090 H 471.11 5.96716 -3.24202 0
M  V30 5091 H 469.056 6.47443 -1.05609 0
M  V30 5092 H 468.973 7.06818 -2.68223 0
M  V30 5093 H 470.241 7.62262 -1.63022 0
M  V30 5094 N 474.47 1.03057 1.19235 0
M  V30 5095 C 475.42 0.583386 2.2041 0
M  V30 5096 C 476.404 -0.368776 1.56617 0
M  V30 5097 O 477.596 -0.189471 1.75983 0
M  V30 5098 C 474.725 -0.0626534 3.43243 0
M  V30 5099 C 473.811 0.91205 4.14177 0
M  V30 5100 N 474.202 2.07514 4.61272 0
M  V30 5101 C 472.5 0.735859 4.39888 0
M  V30 5102 C 473.201 2.69003 5.15764 0
M  V30 5103 N 472.177 1.96954 5.06666 0
M  V30 5104 H 475.979 1.46988 2.54503 0
M  V30 5105 H 473.493 0.897785 1.35328 0
M  V30 5106 H 475.49 -0.400653 4.1497 0
M  V30 5107 H 474.15 -0.944813 3.1065 0
M  V30 5108 H 475.161 2.45448 4.56043 0
M  V30 5109 H 471.838 -0.0970656 4.17387 0
M  V30 5110 H 473.228 3.67514 5.6248 0
M  V30 5111 N 475.948 -1.35272 0.808662 0
M  V30 5112 C 477.197 -1.97963 0.386483 0
M  V30 5113 C 477.51 -1.64866 -1.05255 0
M  V30 5114 O 478.716 -2.20937 -1.57794 0
M  V30 5115 C 477.172 -3.54162 0.640096 0
M  V30 5116 C 476.78 -3.96166 2.0918 0
M  V30 5117 C 478.524 -4.23553 0.283376 0
M  V30 5118 C 476.431 -5.4522 2.29106 0
M  V30 5119 H 475.361 -0.740742 0.140774 0
M  V30 5120 H 478.012 -1.5431 0.993012 0
M  V30 5121 H 476.394 -3.95983 -0.0364117 0
M  V30 5122 H 477.568 -3.65491 2.80629 0
M  V30 5123 H 475.883 -3.3967 2.40859 0
M  V30 5124 H 478.48 -5.33124 0.410273 0
M  V30 5125 H 478.823 -4.09105 -0.770659 0
M  V30 5126 H 479.356 -3.8716 0.913884 0
M  V30 5127 H 476.095 -5.64638 3.32962 0
M  V30 5128 H 475.615 -5.77457 1.62184 0
M  V30 5129 H 477.294 -6.1171 2.1076 0
M  V30 5130 N 477.426 -0.562348 -1.47226 0
M  V30 5131 C 478.842 -0.222492 -1.58042 0
M  V30 5132 C 479.042 1.27505 -1.56028 0
M  V30 5133 O 478.098 2.05555 -1.46641 0
M  V30 5134 C 479.411 -0.853694 -2.88327 0
M  V30 5135 C 480.959 -0.825397 -3.01921 0
M  V30 5136 C 481.434 -1.43576 -4.34914 0
M  V30 5137 N 482.925 -1.39918 -4.41562 0
M  V30 5138 C 483.66 -1.84103 -5.43041 0
M  V30 5139 N 483.156 -2.36167 -6.51304 0
M  V30 5140 N 484.949 -1.75142 -5.34118 0
M  V30 5141 H 477.1 -1.53525 -1.46778 0
M  V30 5142 H 479.363 -0.640527 -0.698877 0
M  V30 5143 H 479.069 -1.90635 -2.95552 0
M  V30 5144 H 478.943 -0.34977 -3.75575 0
M  V30 5145 H 481.33 0.218583 -2.94289 0
M  V30 5146 H 481.411 -1.36713 -2.16202 0
M  V30 5147 H 481.055 -2.47884 -4.43301 0
M  V30 5148 H 480.985 -0.869427 -5.19373 0
M  V30 5149 H 483.476 -1.0184 -3.63919 0
M  V30 5150 H 483.789 -2.67793 -7.24919 0
M  V30 5151 H 482.134 -2.40181 -6.52179 0
M  V30 5152 H 485.325 -1.34241 -4.48439 0
M  V30 5153 H 485.498 -2.09895 -6.13065 0
M  V30 5154 N 478.904 1.54736 -0.299062 0
M  V30 5155 C 480.15 2.00397 0.311244 0
M  V30 5156 C 480.483 1.18716 1.53688 0
M  V30 5157 O 479.758 0.263154 1.92712 0
M  V30 5158 C 480.041 3.53817 0.669761 0
M  V30 5159 C 479.894 4.46239 -0.564882 0
M  V30 5160 C 481.213 4.13856 1.49702 0
M  V30 5161 H 478.332 0.728493 0.111653 0
M  V30 5162 H 480.974 1.85506 -0.410774 0
M  V30 5163 H 479.124 3.66637 1.28491 0
M  V30 5164 H 480.796 4.45328 -1.20337 0
M  V30 5165 H 479.039 4.16916 -1.19849 0
M  V30 5166 H 479.71 5.5134 -0.269918 0
M  V30 5167 H 482.186 4.04461 0.977284 0
M  V30 5168 H 481.062 5.21365 1.71666 0
M  V30 5169 H 481.323 3.65608 2.48563 0
M  V30 5170 N 480.382 0.0267497 1.57577 0
M  V30 5171 C 481.61 -0.662661 1.96001 0
M  V30 5172 C 482.025 -1.65799 0.903117 0
M  V30 5173 O 481.382 -1.82135 -0.115317 0
M  V30 5174 C 481.433 -1.37112 3.34488 0
M  V30 5175 O 481.154 -0.415683 4.36123 0
M  V30 5176 C 482.655 -2.15257 3.8753 0
M  V30 5177 H 479.875 -0.18287 0.6456 0
M  V30 5178 H 482.419 0.0858116 2.0432 0
M  V30 5179 H 480.574 -2.07101 3.27395 0
M  V30 5180 H 480.988 -0.918496 5.16395 0
M  V30 5181 H 482.462 -2.60285 4.86781 0
M  V30 5182 H 482.939 -2.99063 3.21649 0
M  V30 5183 H 483.545 -1.50231 3.97883 0
M  V30 5184 N 481.861 -1.55662 -0.24637 0
M  V30 5185 C 483.11 -1.7672 -0.972254 0
M  V30 5186 C 483.423 -0.59078 -1.86465 0
M  V30 5187 O 484.629 -0.684391 -2.62732 0
M  V30 5188 C 483.085 -3.12869 -1.7788 0
M  V30 5189 C 482.693 -4.38161 -0.933768 0
M  V30 5190 C 484.437 -3.43265 -2.49738 0
M  V30 5191 C 482.344 -5.6534 -1.73623 0
M  V30 5192 H 481.274 -0.658795 -0.366749 0
M  V30 5193 H 483.925 -1.82092 -0.226902 0
M  V30 5194 H 482.307 -3.01606 -2.56612 0
M  V30 5195 H 483.481 -4.60413 -0.188736 0
M  V30 5196 H 481.796 -4.15102 -0.328488 0
M  V30 5197 H 484.393 -4.35501 -3.10231 0
M  V30 5198 H 484.736 -2.64614 -3.2138 0
M  V30 5199 H 485.269 -3.55746 -1.78016 0
M  V30 5200 H 482.008 -6.46814 -1.06354 0
M  V30 5201 H 481.528 -5.47188 -2.45653 0
M  V30 5202 H 483.207 -6.04616 -2.30323 0
M  V30 5203 N 483.339 0.512053 -1.4905 0
M  V30 5204 C 484.271 1.63121 -1.6101 0
M  V30 5205 C 485.284 1.55145 -0.493352 0
M  V30 5206 O 486.473 1.61278 -0.764955 0
M  V30 5207 C 483.573 3.01863 -1.54052 0
M  V30 5208 C 482.746 3.35138 -2.81072 0
M  V30 5209 C 481.805 4.5324 -2.67319 0
M  V30 5210 O 480.831 4.55571 -3.41238 0
M  V30 5211 N 482.033 5.52495 -1.78127 0
M  V30 5212 H 484.798 1.53292 -2.5753 0
M  V30 5213 H 482.359 0.699706 -1.45999 0
M  V30 5214 H 484.351 3.78774 -1.42521 0
M  V30 5215 H 482.921 3.05675 -0.654345 0
M  V30 5216 H 482.141 2.4723 -3.07036 0
M  V30 5217 H 483.429 3.54162 -3.65304 0
M  V30 5218 H 482.827 5.53403 -1.17308 0
M  V30 5219 H 481.384 6.28553 -1.72525 0
M  V30 5220 N 484.817 1.37938 0.762283 0
M  V30 5221 C 485.764 1.34467 1.87583 0
M  V30 5222 C 486.734 0.208633 1.64785 0
M  V30 5223 O 487.919 0.399494 1.86571 0
M  V30 5224 C 485.059 1.16692 3.24772 0
M  V30 5225 C 484.172 2.39608 3.59461 0
M  V30 5226 C 483.307 2.14631 4.85908 0
M  V30 5227 C 482.346 3.33364 5.13357 0
M  V30 5228 N 481.483 3.07877 6.30996 0
M  V30 5229 H 486.323 2.29669 1.89885 0
M  V30 5230 H 483.86 1.14116 0.928219 0
M  V30 5231 H 485.818 1.04405 4.03925 0
M  V30 5232 H 484.448 0.251333 3.2182 0
M  V30 5233 H 483.5 2.626 2.75219 0
M  V30 5234 H 484.812 3.28128 3.75678 0
M  V30 5235 H 483.966 1.99429 5.72986 0
M  V30 5236 H 482.705 1.23463 4.71814 0
M  V30 5237 H 481.71 3.49094 4.24751 0
M  V30 5238 H 482.935 4.25395 5.29354 0
M  V30 5239 H 480.881 2.19348 6.18241 0
M  V30 5240 H 480.798 3.89944 6.47673 0
M  V30 5241 H 482.066 2.96313 7.20985 0
M  V30 5242 N 486.295 -0.989507 1.22664 0
M  V30 5243 C 487.523 -1.76496 1.07967 0
M  V30 5244 C 487.938 -1.85148 -0.369543 0
M  V30 5245 O 487.295 -1.32408 -1.25596 0
M  V30 5246 C 487.346 -3.19642 1.68853 0
M  V30 5247 O 487.067 -3.11453 3.08105 0
M  V30 5248 C 488.568 -4.13621 1.59475 0
M  V30 5249 H 485.788 -0.55418 0.378319 0
M  V30 5250 H 488.332 -1.24378 1.62328 0
M  V30 5251 H 486.487 -3.68816 1.18547 0
M  V30 5252 H 486.901 -4.01499 3.37489 0
M  V30 5253 H 488.375 -5.11801 2.06795 0
M  V30 5254 H 488.852 -4.35718 0.55191 0
M  V30 5255 H 489.458 -3.70346 2.09103 0
M  V30 5256 N 487.773 -1.03688 -1.18687 0
M  V30 5257 C 489.05 -0.652397 -1.84399 0
M  V30 5258 C 489.43 0.868386 -1.92412 0
M  V30 5259 O 488.778 1.76832 -1.44716 0
M  V30 5260 C 488.988 -1.3238 -3.22919 0
M  V30 5261 C 490.336 -1.45216 -3.98996 0
M  V30 5262 O 491.36 -1.2816 -3.32345 0
M  V30 5263 O 490.219 -1.72975 -5.18403 0
M  V30 5264 H 487.313 -0.227793 -0.795009 0
M  V30 5265 H 489.859 -1.13553 -1.2611 0
M  V30 5266 H 488.631 -2.36202 -3.11968 0
M  V30 5267 H 488.254 -0.829039 -3.88861 0
M  V30 5268 N 489.251 1.34841 -0.815825 0
M  V30 5269 C 490.199 2.31549 -0.220888 0
M  V30 5270 C 491.193 1.5707 0.634457 0
M  V30 5271 O 492.399 1.72125 0.526589 0
M  V30 5272 H 488.774 0.750153 -0.0526782 0
M  V30 5273 H 490.745 2.7926 -1.05149 0
M  V30 5274 C 489.494 3.42335 0.608427 0
M  V30 5275 H 488.817 3.9978 -0.0404121 0
M  V30 5276 H 490.257 4.12258 0.990931 0
M  V30 5277 C 488.716 2.86173 1.77782 0
M  V30 5278 O 489.246 2.80474 2.87571 0
M  V30 5279 N 487.452 2.43093 1.59229 0
M  V30 5280 H 486.999 2.47928 0.699237 0
M  V30 5281 H 486.957 2.05866 2.37627 0
M  V30 5282 N 490.729 0.570148 1.46925 0
M  V30 5283 C 491.661 -0.207909 2.28255 0
M  V30 5284 C 492.674 -0.867301 1.37774 0
M  V30 5285 O 493.863 -0.738976 1.62485 0
M  V30 5286 C 490.963 -1.31298 3.12433 0
M  V30 5287 C 490.136 -0.747915 4.30958 0
M  V30 5288 C 489.195 -1.7391 4.9663 0
M  V30 5289 O 488.221 -1.2801 5.54619 0
M  V30 5290 N 489.423 -3.07288 4.92498 0
M  V30 5291 H 492.188 0.489794 2.95671 0
M  V30 5292 H 489.749 0.407076 1.56699 0
M  V30 5293 H 491.741 -1.97507 3.53232 0
M  V30 5294 H 490.311 -1.91373 2.47175 0
M  V30 5295 H 489.531 0.0913066 3.94094 0
M  V30 5296 H 490.819 -0.349958 5.07595 0
M  V30 5297 H 490.217 -3.47213 4.46609 0
M  V30 5298 H 488.774 -3.69021 5.37277 0
M  V30 5299 N 492.207 -1.54576 0.307264 0
M  V30 5300 C 493.17 -2.22423 -0.553224 0
M  V30 5301 C 494.17 -1.21231 -1.05639 0
M  V30 5302 O 495.36 -1.45923 -0.951419 0
M  V30 5303 C 492.492 -2.91552 -1.76664 0
M  V30 5304 H 493.685 -2.99874 0.0396484 0
M  V30 5305 H 491.238 -1.56192 0.0581629 0
M  V30 5306 H 491.973 -2.18196 -2.39918 0
M  V30 5307 H 491.758 -3.65738 -1.41343 0
M  V30 5308 H 493.248 -3.43292 -2.37783 0
M  V30 5309 N 493.685 -0.035106 -1.57561 0
M  V30 5310 C 495.101 0.321334 -1.56332 0
M  V30 5311 C 495.301 1.72509 -1.04129 0
M  V30 5312 O 494.357 2.4287 -0.690694 0
M  V30 5313 C 495.67 0.164469 -3.0025 0
M  V30 5314 C 497.218 0.236786 -3.12103 0
M  V30 5315 C 497.693 0.10864 -4.57871 0
M  V30 5316 N 499.184 0.165433 -4.62904 0
M  V30 5317 C 499.919 0.0901506 -5.73329 0
M  V30 5318 N 499.415 -0.0365606 -6.9279 0
M  V30 5319 N 501.208 0.144572 -5.61914 0
M  V30 5320 H 493.359 -0.952976 -1.89821 0
M  V30 5321 H 495.622 -0.368537 -0.873432 0
M  V30 5322 H 495.328 -0.802746 -3.42416 0
M  V30 5323 H 495.202 0.932194 -3.655 0
M  V30 5324 H 497.589 1.19446 -2.69845 0
M  V30 5325 H 497.67 -0.561419 -2.49563 0
M  V30 5326 H 497.314 -0.845644 -5.00811 0
M  V30 5327 H 497.244 0.925786 -5.18398 0
M  V30 5328 H 499.735 0.263269 -3.76982 0
M  V30 5329 H 500.048 -0.0871487 -7.72751 0
M  V30 5330 H 498.393 -0.0714256 -6.94963 0
M  V30 5331 H 501.584 0.242006 -4.67474 0
M  V30 5332 H 501.757 0.0824413 -6.47948 0
M  V30 5333 N 495.163 1.55791 0.238111 0
M  V30 5334 C 496.093 1.94068 1.29846 0
M  V30 5335 C 497.074 0.806726 1.49753 0
M  V30 5336 O 498.259 1.06772 1.62214 0
M  V30 5337 C 495.389 2.24302 2.65153 0
M  V30 5338 C 494.343 3.40032 2.59927 0
M  V30 5339 C 493.669 3.55829 3.99111 0
M  V30 5340 C 494.969 4.75476 2.16148 0
M  V30 5341 H 496.663 2.82887 0.980563 0
M  V30 5342 H 494.209 1.36105 0.470253 0
M  V30 5343 H 496.162 2.4967 3.39475 0
M  V30 5344 H 494.886 1.32318 2.98596 0
M  V30 5345 H 493.545 3.14687 1.88063 0
M  V30 5346 H 493.193 2.6125 4.29834 0
M  V30 5347 H 492.893 4.3366 3.96501 0
M  V30 5348 H 494.417 3.83528 4.7512 0
M  V30 5349 H 495.831 5.00158 2.80205 0
M  V30 5350 H 494.228 5.56472 2.24631 0
M  V30 5351 H 495.298 4.71946 1.11333 0
M  V30 5352 N 496.642 -0.504142 1.49319 0
M  V30 5353 C 497.867 -1.28729 1.62615 0
M  V30 5354 C 498.292 -1.85752 0.296309 0
M  V30 5355 O 497.65 -1.65704 -0.735649 0
M  V30 5356 C 497.698 -2.39561 2.69524 0
M  V30 5357 O 496.802 -3.43324 2.28478 0
M  V30 5358 H 496.143 -0.380172 0.544395 0
M  V30 5359 H 498.673 -0.603872 1.95485 0
M  V30 5360 H 498.683 -2.8537 2.91595 0
M  V30 5361 H 497.358 -1.97423 3.66056 0
M  V30 5362 H 495.935 -3.03455 2.16725 0
M  V30 5363 N 498.12 -1.38341 -0.754957 0
M  V30 5364 C 499.368 -1.34208 -1.51105 0
M  V30 5365 C 499.689 0.0677634 -1.94882 0
M  V30 5366 O 498.959 1.01517 -1.67544 0
M  V30 5367 H 497.539 -0.493819 -0.560493 0
M  V30 5368 H 500.201 -1.73005 -0.897507 0
M  V30 5369 H 499.297 -1.99203 -2.4026 0
M  V30 5370 N 499.598 0.982988 -1.23187 0
M  V30 5371 C 500.823 1.76455 -1.08988 0
M  V30 5372 C 501.248 1.84726 0.354691 0
M  V30 5373 O 500.606 1.30699 1.25649 0
M  V30 5374 C 500.654 3.17094 -1.71708 0
M  V30 5375 O 499.758 4.00648 -0.977477 0
M  V30 5376 H 499.099 0.542988 -0.382177 0
M  V30 5377 H 501.629 1.23413 -1.63188 0
M  V30 5378 H 501.639 3.67684 -1.76841 0
M  V30 5379 H 500.314 3.10389 -2.76823 0
M  V30 5380 H 498.891 3.59161 -1.0029 0
M  V30 5381 N 501.076 1.04316 1.18135 0
M  V30 5382 C 502.316 0.756937 1.89868 0
M  V30 5383 C 502.68 -0.702609 1.78682 0
M  V30 5384 O 503.881 -1.10255 2.45148 0
M  V30 5385 C 502.152 1.21327 3.36176 0
M  V30 5386 S 503.711 1.05307 4.25976 0
M  V30 5387 H 500.529 0.275143 0.655604 0
M  V30 5388 H 503.131 1.33597 1.42731 0
M  V30 5389 H 501.835 2.27086 3.41848 0
M  V30 5390 H 501.366 0.628137 3.88353 0
M  V30 5391 H 503.381 -0.0280093 4.96192 0
M  V30 5392 N 502.554 -1.34406 0.822964 0
M  V30 5393 C 503.484 -2.32052 0.259608 0
M  V30 5394 C 504.465 -1.58243 -0.623961 0
M  V30 5395 O 505.65 -1.86224 -0.55083 0
M  V30 5396 C 502.78 -3.42434 -0.579314 0
M  V30 5397 C 501.734 -4.27499 0.20712 0
M  V30 5398 C 501.06 -5.29349 -0.754547 0
M  V30 5399 C 502.36 -5.02758 1.41533 0
M  V30 5400 H 504.054 -2.79418 1.07545 0
M  V30 5401 H 501.6 -1.34338 0.518593 0
M  V30 5402 H 503.553 -4.0976 -0.983612 0
M  V30 5403 H 502.277 -2.93717 -1.4282 0
M  V30 5404 H 500.936 -3.61776 0.592787 0
M  V30 5405 H 500.584 -4.76895 -1.59939 0
M  V30 5406 H 500.284 -5.8714 -0.232561 0
M  V30 5407 H 501.808 -5.99544 -1.1567 0
M  V30 5408 H 503.222 -5.62938 1.08504 0
M  V30 5409 H 501.619 -5.70123 1.87296 0
M  V30 5410 H 502.689 -4.32451 2.1935 0
M  V30 5411 O 504.071 -0.718724 -1.44626 0
M  V30 5412 H 504.762 -0.264938 -1.9188 0
M  V30 END ATOM
M  V30 BEGIN BOND
M  V30 END BOND
M  V30 END CTAB
M  END
$$$$
