drugbank_target|P57059 Serine/threonine-protein kinase SIK1 (DB08912; DB12010)
 OpenBabel12092120583D

  0  0  0     0  0            999 V3000
M  V30 BEGIN CTAB
M  V30 COUNTS 11931 12074 0 0 0
M  V30 BEGIN ATOM
M  V30 1 H -0.908 1.98254 -0.117106 0
M  V30 2 N 0 1.576 0 0
M  V30 3 C 0.933 2.03868 1.02534 0
M  V30 4 C 1.911 0.928543 1.3348 0
M  V30 5 O 3.095 1.19667 1.45644 0
M  V30 6 C 0.222 2.43627 2.35294 0
M  V30 7 C -0.732 3.65373 2.2001 0
M  V30 8 S 0.101 5.13292 1.52614 0
M  V30 9 C 1.257 5.56322 2.86805 0
M  V30 10 H 1.49 2.90518 0.631377 0
M  V30 11 H -0.977 1.52953 0.210867 0
M  V30 12 H 0.981 2.67203 3.11629 0
M  V30 13 H -0.358 1.57376 2.7183 0
M  V30 14 H -1.165 3.90944 3.18086 0
M  V30 15 H -1.563 3.418 1.51819 0
M  V30 16 H 0.729 5.58782 3.83104 0
M  V30 17 H 1.672 6.56266 2.65933 0
M  V30 18 H 2.08 4.83886 2.90714 0
M  V30 19 N 1.4781 -0.272755 1.55222 0
M  V30 20 C 2.7241 -1.00581 1.761 0
M  V30 21 C 3.0571 -1.85932 0.560625 0
M  V30 22 O 2.3321 -1.89416 -0.441801 0
M  V30 23 C 2.6151 -1.88816 3.06628 0
M  V30 24 C 2.4681 -1.06457 4.37021 0
M  V30 25 C 3.7871 -2.8752 3.33197 0
M  V30 26 H 0.9061 -0.364244 0.640699 0
M  V30 27 H 3.5481 -0.278189 1.87952 0
M  V30 28 H 1.6981 -2.50856 2.96654 0
M  V30 29 H 3.3701 -0.464863 4.58952 0
M  V30 30 H 1.6131 -0.368043 4.32236 0
M  V30 31 H 2.2841 -1.71514 5.24678 0
M  V30 32 H 4.7601 -2.35615 3.42965 0
M  V30 33 H 3.6361 -3.46399 4.25792 0
M  V30 34 H 3.8971 -3.62657 2.52849 0
M  V30 35 N 2.9562 -1.48159 -0.537278 0
M  V30 36 C 4.2052 -1.5506 -1.28993 0
M  V30 37 C 4.5182 -0.226211 -1.94288 0
M  V30 38 O 5.7242 -0.173395 -2.70946 0
M  V30 39 C 4.1802 -2.73429 -2.34018 0
M  V30 40 C 3.7882 -4.1248 -1.74825 0
M  V30 41 C 5.5322 -2.89638 -3.10339 0
M  V30 42 C 3.4392 -5.22121 -2.77747 0
M  V30 43 H 2.3692 -0.577231 -0.485098 0
M  V30 44 H 5.0202 -1.74478 -0.568317 0
M  V30 45 H 3.4022 -2.47431 -3.09182 0
M  V30 46 H 4.5762 -4.48466 -1.05899 0
M  V30 47 H 2.8912 -4.01327 -1.11022 0
M  V30 48 H 5.4882 -3.68718 -3.87235 0
M  V30 49 H 5.8312 -1.9882 -3.65754 0
M  V30 50 H 6.3642 -3.15502 -2.42288 0
M  V30 51 H 3.1032 -6.1488 -2.27161 0
M  V30 52 H 2.6232 -4.90631 -3.45024 0
M  V30 53 H 4.3022 -5.49924 -3.4087 0
M  V30 54 N 4.4343 0.785586 -1.36625 0
M  V30 55 C 5.3673 1.90509 -1.25625 0
M  V30 56 C 6.3453 1.62 -0.139607 0
M  V30 57 O 7.5293 1.8591 -0.31141 0
M  V30 58 C 4.6563 3.25419 -0.939158 0
M  V30 59 C 3.7023 3.72856 -2.07077 0
M  V30 60 S 4.5353 3.88162 -3.68904 0
M  V30 61 C 5.6913 5.25942 -3.39317 0
M  V30 62 H 5.9243 1.99549 -2.20381 0
M  V30 63 H 3.4573 0.945226 -1.22085 0
M  V30 64 H 5.4153 4.03346 -0.763029 0
M  V30 65 H 4.0763 3.14099 -0.00931402 0
M  V30 66 H 3.2693 4.70624 -1.80357 0
M  V30 67 H 2.8713 3.01989 -2.20632 0
M  V30 68 H 5.1633 6.10651 -2.93447 0
M  V30 69 H 6.1063 5.57668 -4.36363 0
M  V30 70 H 6.5143 4.93224 -2.74573 0
M  V30 71 N 5.9124 1.20967 1.01018 0
M  V30 72 C 7.1374 1.0503 1.78839 0
M  V30 73 C 7.5624 -0.395752 1.8389 0
M  V30 74 O 6.9204 -1.28529 1.27867 0
M  V30 75 C 6.9684 1.64602 3.2084 0
M  V30 76 O 6.0724 0.887988 4.02726 0
M  V30 77 H 5.4134 0.369987 0.551367 0
M  V30 78 H 7.9434 1.60399 1.27018 0
M  V30 79 H 7.9534 1.68607 3.71532 0
M  V30 80 H 6.6284 2.69841 3.16479 0
M  V30 81 H 5.2054 0.922648 3.61305 0
M  V30 82 N 7.3905 -1.2043 1.01659 0
M  V30 83 C 8.3005 -2.2689 0.596484 0
M  V30 84 C 9.3165 -1.70107 -0.36599 0
M  V30 85 O 10.4925 -2.00117 -0.226942 0
M  V30 86 C 7.5575 -3.4665 -0.0586659 0
M  V30 87 C 6.6185 -4.18662 0.949751 0
M  V30 88 C 5.8515 -5.32705 0.32577 0
M  V30 89 O 6.0745 -5.63656 -0.874509 0
M  V30 90 O 5.0085 -5.92803 1.04249 0
M  V30 91 H 8.8345 -2.65041 1.4828 0
M  V30 92 H 6.4195 -1.27048 0.786082 0
M  V30 93 H 8.3015 -4.19256 -0.424564 0
M  V30 94 H 6.9765 -3.10375 -0.91918 0
M  V30 95 H 5.8835 -3.48229 1.36702 0
M  V30 96 H 7.2165 -4.58878 1.78023 0
M  V30 97 N 8.8686 -0.792821 -1.36206 0
M  V30 98 C 10.1156 -0.366786 -1.99151 0
M  V30 99 C 10.4436 1.06243 -1.62919 0
M  V30 100 O 9.6986 1.74927 -0.877442 0
M  V30 101 C 9.9976 -0.481501 -3.54142 0
M  V30 102 C 9.6636 -1.87202 -4.10203 0
M  V30 103 C 8.3256 -2.25248 -4.25226 0
M  V30 104 C 10.6776 -2.78237 -4.40719 0
M  V30 105 C 8.0056 -3.53723 -4.68078 0
M  V30 106 C 10.3576 -4.06144 -4.85005 0
M  V30 107 C 9.0216 -4.44207 -4.98234 0
M  V30 108 H 8.2916 -0.134217 -0.728743 0
M  V30 109 H 10.9386 -1.01094 -1.62641 0
M  V30 110 H 9.2436 0.246146 -3.91026 0
M  V30 111 H 10.9406 -0.132844 -4.0078 0
M  V30 112 H 7.5306 -1.56639 -3.98951 0
M  V30 113 H 11.7146 -2.50097 -4.28679 0
M  V30 114 H 6.9706 -3.8308 -4.76508 0
M  V30 115 H 11.1446 -4.76796 -5.07581 0
M  V30 116 H 8.7716 -5.43814 -5.31197 0
M  V30 117 N 10.3467 1.47872 -0.545128 0
M  V30 118 C 11.5717 2.07391 -0.0190611 0
M  V30 119 C 11.9967 1.39688 1.25971 0
M  V30 120 O 11.3547 0.467816 1.7516 0
M  V30 121 C 11.4027 3.60188 0.172335 0
M  V30 122 O 10.5067 3.9339 1.23766 0
M  V30 123 H 9.8477 0.662411 -0.0459059 0
M  V30 124 H 12.3777 1.90066 -0.757365 0
M  V30 125 H 12.3877 4.06129 0.390305 0
M  V30 126 H 11.0627 4.08865 -0.761725 0
M  V30 127 H 9.6397 3.5921 1.00114 0
M  V30 128 N 11.8248 0.280983 1.55075 0
M  V30 129 C 12.7878 -0.590896 2.21452 0
M  V30 130 C 13.7878 -1.07682 1.19421 0
M  V30 131 O 14.9778 -0.97605 1.44288 0
M  V30 132 C 12.1098 -1.81587 2.88511 0
M  V30 133 H 13.3028 -0.0112554 2.99898 0
M  V30 134 H 10.8558 0.0316438 1.56268 0
M  V30 135 H 11.5908 -2.43587 2.14093 0
M  V30 136 H 11.3758 -1.4753 3.63287 0
M  V30 137 H 12.8658 -2.43575 3.39206 0
M  V30 138 N 13.3029 -1.57598 0.00835791 0
M  V30 139 C 14.5799 -1.82172 -0.712235 0
M  V30 140 C 14.9599 -0.887873 -1.9152 0
M  V30 141 O 14.3079 0.06146 -2.28417 0
M  V30 142 C 14.5179 -3.30875 -1.11008 0
M  V30 143 C 15.8659 -3.96826 -1.51044 0
M  V30 144 O 16.8899 -3.35248 -1.20364 0
M  V30 145 O 15.7489 -5.05318 -2.08125 0
M  V30 146 H 12.8429 -0.750435 -0.347529 0
M  V30 147 H 15.3889 -1.69665 0.0344523 0
M  V30 148 H 14.1609 -3.90481 -0.252982 0
M  V30 149 H 13.7839 -3.48412 -1.9156 0
M  V30 150 N 14.781 0.264519 -1.55364 0
M  V30 151 C 16.192 0.834936 -1.6699 0
M  V30 152 C 16.543 1.86718 -0.602552 0
M  V30 153 O 15.668 2.14899 0.254425 0
M  V30 154 C 16.263 1.5212 -3.02729 0
M  V30 155 C 14.822 2.03954 -3.16354 0
M  V30 156 C 13.969 0.884498 -2.62815 0
M  V30 157 H 16.92 0.0406869 -1.58648 0
M  V30 158 H 16.941 2.38853 -2.96191 0
M  V30 159 H 16.453 0.769668 -3.80392 0
M  V30 160 H 14.554 2.82041 -2.43482 0
M  V30 161 H 14.667 2.24902 -4.23032 0
M  V30 162 H 13.031 1.2802 -2.20188 0
M  V30 163 H 13.814 0.14634 -3.42988 0
M  V30 164 N 16.2591 1.48442 0.529413 0
M  V30 165 C 17.2221 1.62524 1.61612 0
M  V30 166 C 18.2221 0.498509 1.52877 0
M  V30 167 O 19.4121 0.76431 1.56537 0
M  V30 168 C 16.5441 1.59597 3.01233 0
M  V30 169 H 17.7371 2.59423 1.50465 0
M  V30 170 H 15.2901 1.37047 0.751514 0
M  V30 171 H 16.0251 0.641781 3.17886 0
M  V30 172 H 15.8101 2.41397 3.08982 0
M  V30 173 H 17.3001 1.72646 3.80241 0
M  V30 174 N 17.7372 -0.778329 1.37039 0
M  V30 175 C 18.9852 -1.53361 1.31623 0
M  V30 176 C 19.3062 -1.94739 -0.100831 0
M  V30 177 O 18.5762 -1.65797 -1.04347 0
M  V30 178 H 17.1562 -0.568794 0.484234 0
M  V30 179 H 19.8182 -0.926742 1.71457 0
M  V30 180 H 18.9142 -2.43606 1.95096 0
M  V30 181 N 19.2153 -1.21501 -1.00376 0
M  V30 182 C 20.1473 -0.933174 -2.09343 0
M  V30 183 C 21.1603 0.0840896 -1.62583 0
M  V30 184 O 22.3493 -0.148563 -1.77881 0
M  V30 185 C 19.4493 -0.379869 -3.36764 0
M  V30 186 C 18.6223 -1.45176 -4.12605 0
M  V30 187 C 17.6813 -0.907476 -5.18316 0
M  V30 188 O 16.7073 -1.5912 -5.46507 0
M  V30 189 N 17.9093 0.276649 -5.7984 0
M  V30 190 H 20.6743 -1.87124 -2.34104 0
M  V30 191 H 18.2353 -1.12043 -1.16867 0
M  V30 192 H 20.2273 -0.00131488 -4.047 0
M  V30 193 H 18.7973 0.463048 -3.09151 0
M  V30 194 H 18.0173 -2.00411 -3.39454 0
M  V30 195 H 19.3053 -2.17328 -4.6005 0
M  V30 196 H 18.7033 0.849147 -5.59291 0
M  V30 197 H 17.2603 0.596702 -6.49063 0
M  V30 198 N 20.6934 1.19889 -1.02296 0
M  V30 199 C 21.9414 1.89046 -0.714558 0
M  V30 200 C 22.2624 1.79636 0.758681 0
M  V30 201 O 21.5324 1.20292 1.54618 0
M  V30 202 H 20.1124 0.699802 -0.261317 0
M  V30 203 H 22.7744 1.45574 -1.29592 0
M  V30 204 H 21.8704 2.95524 -1.0036 0
M  V30 205 N 22.1715 0.800033 1.35784 0
M  V30 206 C 23.1035 0.163596 2.28615 0
M  V30 207 C 24.1165 -0.633317 1.49976 0
M  V30 208 O 25.3055 -0.466754 1.72289 0
M  V30 209 C 22.4055 -0.790958 3.29541 0
M  V30 210 C 21.5785 -0.0418255 4.3738 0
M  V30 211 C 20.6375 -0.91389 5.18203 0
M  V30 212 O 19.6635 -0.367234 5.68014 0
M  V30 213 N 20.8655 -2.23682 5.35674 0
M  V30 214 H 23.6305 0.96105 2.83873 0
M  V30 215 H 21.1915 0.654894 1.48063 0
M  V30 216 H 23.1835 -1.37844 3.80501 0
M  V30 217 H 21.7535 -1.48925 2.74846 0
M  V30 218 H 20.9735 0.726813 3.87442 0
M  V30 219 H 22.2615 0.474719 5.06581 0
M  V30 220 H 21.6595 -2.70497 4.96838 0
M  V30 221 H 20.2165 -2.77369 5.89839 0
M  V30 222 N 23.6496 -1.47581 0.552962 0
M  V30 223 C 24.8976 -2.02082 0.0272703 0
M  V30 224 C 25.2186 -1.4301 -1.32563 0
M  V30 225 O 24.4886 -0.603745 -1.86365 0
M  V30 226 H 23.0686 -0.746966 0.00709182 0
M  V30 227 H 25.7306 -1.81033 0.722008 0
M  V30 228 H 24.8266 -3.12034 -0.0639951 0
M  V30 229 N 25.1277 -0.289203 -1.54924 0
M  V30 230 C 26.0597 0.625583 -2.20497 0
M  V30 231 C 27.0727 1.10667 -1.19402 0
M  V30 232 O 28.2617 1.02615 -1.46056 0
M  V30 233 C 25.3617 1.86702 -2.82835 0
M  V30 234 C 24.5347 1.5304 -4.09753 0
M  V30 235 C 23.5937 2.62576 -4.56005 0
M  V30 236 O 22.6197 2.28167 -5.21468 0
M  V30 237 N 23.8217 3.92901 -4.27328 0
M  V30 238 H 26.5867 0.0642801 -2.99631 0
M  V30 239 H 24.1477 -0.110896 -1.6152 0
M  V30 240 H 26.1397 2.59304 -3.10715 0
M  V30 241 H 24.7097 2.33702 -2.07611 0
M  V30 242 H 23.9297 0.637564 -3.8901 0
M  V30 243 H 25.2177 1.28072 -4.92418 0
M  V30 244 H 24.6157 4.23671 -3.74859 0
M  V30 245 H 23.1727 4.61837 -4.59946 0
M  V30 246 N 26.6058 1.57591 -0.0167156 0
M  V30 247 C 27.5378 2.06343 0.997753 0
M  V30 248 C 28.5508 0.984469 1.29661 0
M  V30 249 O 29.7398 1.26093 1.26344 0
M  V30 250 C 26.8398 2.46255 2.32834 0
M  V30 251 C 26.0128 3.77083 2.21646 0
M  V30 252 C 25.0718 4.0368 3.37534 0
M  V30 253 O 24.0978 4.7411 3.14973 0
M  V30 254 N 25.2998 3.52881 4.60929 0
M  V30 255 H 28.0648 2.93997 0.581875 0
M  V30 256 H 25.6258 1.61002 0.170316 0
M  V30 257 H 27.6178 2.61149 3.09166 0
M  V30 258 H 26.1878 1.64032 2.66106 0
M  V30 259 H 25.4078 3.72106 1.30119 0
M  V30 260 H 26.6958 4.62822 2.11361 0
M  V30 261 H 26.0938 2.95878 4.82154 0
M  V30 262 H 24.6508 3.73076 5.34469 0
M  V30 263 N 28.0839 -0.256276 1.55502 0
M  V30 264 C 29.0309 -1.31714 1.89526 0
M  V30 265 C 30.0009 -1.4828 0.748479 0
M  V30 266 O 31.1859 -1.62416 1.00128 0
M  V30 267 C 28.3259 -2.66933 2.18725 0
M  V30 268 C 27.4389 -2.58452 3.4616 0
M  V30 269 C 26.5739 -3.85961 3.64976 0
M  V30 270 C 25.6129 -3.72059 4.86044 0
M  V30 271 N 24.7499 -4.9144 5.01429 0
M  V30 272 H 29.5899 -1.01998 2.80001 0
M  V30 273 H 27.1269 -0.492413 1.38613 0
M  V30 274 H 29.0849 -3.4563 2.33657 0
M  V30 275 H 27.7149 -2.94816 1.31466 0
M  V30 276 H 26.7669 -1.71374 3.3961 0
M  V30 277 H 28.0789 -2.44085 4.34999 0
M  V30 278 H 27.2329 -4.73101 3.79816 0
M  V30 279 H 25.9719 -4.03215 2.74353 0
M  V30 280 H 24.9769 -2.83302 4.7119 0
M  V30 281 H 26.2019 -3.56309 5.78118 0
M  V30 282 H 24.1479 -5.09072 4.13741 0
M  V30 283 H 24.0649 -4.79668 5.84341 0
M  V30 284 H 25.3329 -5.80104 5.20672 0
M  V30 285 N 29.562 -1.4872 -0.521534 0
M  V30 286 C 30.973 -1.50607 -1.10337 0
M  V30 287 C 31.324 -0.280612 -1.94183 0
M  V30 288 O 30.449 0.611507 -2.0758 0
M  V30 289 C 31.044 -2.72903 -2.00772 0
M  V30 290 C 29.603 -2.77634 -2.54158 0
M  V30 291 C 28.75 -2.44241 -1.31307 0
M  V30 292 H 31.701 -1.55714 -0.306388 0
M  V30 293 H 31.722 -2.519 -2.85178 0
M  V30 294 H 31.234 -3.62077 -1.39721 0
M  V30 295 H 29.335 -1.92689 -3.18907 0
M  V30 296 H 29.448 -3.79283 -2.92714 0
M  V30 297 H 27.812 -1.95577 -1.63161 0
M  V30 298 H 28.595 -3.35666 -0.719943 0
M  V30 299 N 31.0401 0.771051 -1.3745 0
M  V30 300 C 31.9701 1.89827 -1.3597 0
M  V30 301 C 32.9511 1.68562 -0.228216 0
M  V30 302 O 34.1361 1.8941 -0.428675 0
M  V30 303 C 31.2661 3.2712 -1.16662 0
M  V30 304 C 30.2201 3.6295 -2.2683 0
M  V30 305 C 29.5461 4.98791 -1.92644 0
M  V30 306 C 30.8461 3.69627 -3.69017 0
M  V30 307 H 32.5401 1.91323 -2.30295 0
M  V30 308 H 30.0861 0.919082 -1.10855 0
M  V30 309 H 32.0391 4.05615 -1.14256 0
M  V30 310 H 30.7631 3.26059 -0.187926 0
M  V30 311 H 29.4221 2.86763 -2.28392 0
M  V30 312 H 29.0701 4.94271 -0.933021 0
M  V30 313 H 28.7701 5.23733 -2.66416 0
M  V30 314 H 30.2941 5.79685 -1.91826 0
M  V30 315 H 31.7081 4.38273 -3.69581 0
M  V30 316 H 30.1051 4.06067 -4.41848 0
M  V30 317 H 31.1751 2.70273 -4.02592 0
M  V30 318 N 32.5182 1.22032 0.997298 0
M  V30 319 C 33.9342 0.979326 1.26021 0
M  V30 320 C 34.1342 -0.32972 1.98784 0
M  V30 321 O 33.1902 -1.05345 2.29475 0
M  V30 322 C 34.5032 2.17509 2.07631 0
M  V30 323 C 36.0512 2.21817 2.2083 0
M  V30 324 C 36.5262 3.40933 3.05825 0
M  V30 325 N 38.0172 3.41067 3.13412 0
M  V30 326 C 38.7522 4.29885 3.79455 0
M  V30 327 N 38.2482 5.28914 4.47462 0
M  V30 328 N 40.0412 4.17673 3.76173 0
M  V30 329 H 32.1922 2.06202 0.509352 0
M  V30 330 H 34.4552 0.90334 0.287541 0
M  V30 331 H 34.1612 3.12415 1.61524 0
M  V30 332 H 34.0352 2.17206 3.08385 0
M  V30 333 H 36.4222 1.27462 2.66153 0
M  V30 334 H 36.5032 2.2616 1.1952 0
M  V30 335 H 36.1472 4.35586 2.61203 0
M  V30 336 H 36.0772 3.33829 4.07266 0
M  V30 337 H 38.5682 2.69406 2.65007 0
M  V30 338 H 38.8812 5.92973 4.95583 0
M  V30 339 H 37.2262 5.32831 4.46224 0
M  V30 340 H 40.4172 3.39564 3.22202 0
M  V30 341 H 40.5902 4.87098 4.27363 0
M  V30 342 N 33.9963 -1.19345 1.0293 0
M  V30 343 C 35.2423 -1.89318 0.727083 0
M  V30 344 C 35.5753 -1.79446 -0.742483 0
M  V30 345 O 34.8503 -1.1871 -1.54072 0
M  V30 346 C 35.1333 -3.40238 1.17942 0
M  V30 347 C 34.9863 -3.58979 2.71024 0
M  V30 348 C 36.3053 -4.33479 0.760548 0
M  V30 349 H 33.4243 -0.687475 0.265606 0
M  V30 350 H 36.0663 -1.40477 1.2793 0
M  V30 351 H 34.2163 -3.81964 0.709608 0
M  V30 352 H 35.8883 -3.26421 3.25955 0
M  V30 353 H 34.1313 -3.02018 3.11396 0
M  V30 354 H 34.8023 -4.64823 2.9773 0
M  V30 355 H 37.2783 -3.99469 1.16464 0
M  V30 356 H 36.1543 -5.37664 1.10493 0
M  V30 357 H 36.4153 -4.40813 -0.337063 0
M  V30 358 N 35.4744 -0.807222 -1.35358 0
M  V30 359 C 36.7224 -0.387122 -1.98358 0
M  V30 360 C 37.0434 1.04942 -1.64354 0
M  V30 361 O 36.3134 1.72615 -0.926339 0
M  V30 362 H 34.8934 -0.140154 -0.733734 0
M  V30 363 H 37.5554 -1.0332 -1.6526 0
M  V30 364 H 36.6514 -0.493352 -3.08176 0
M  V30 365 N 36.9525 1.47285 -0.560781 0
M  V30 366 C 38.1995 2.02464 -0.038062 0
M  V30 367 C 38.5275 1.43474 1.31322 0
M  V30 368 O 37.7825 0.581311 1.86867 0
M  V30 369 C 38.0815 3.57258 0.100784 0
M  V30 370 C 37.7475 4.35184 -1.18007 0
M  V30 371 C 36.4095 4.56194 -1.53103 0
M  V30 372 C 38.7615 4.80098 -2.02867 0
M  V30 373 C 36.0895 5.19367 -2.729 0
M  V30 374 C 38.4415 5.44593 -3.21871 0
M  V30 375 C 37.1055 5.63835 -3.57276 0
M  V30 376 H 36.3755 0.740869 -0.0139279 0
M  V30 377 H 39.0225 1.76916 -0.733012 0
M  V30 378 H 37.3275 3.81819 0.878724 0
M  V30 379 H 39.0245 3.97606 0.520639 0
M  V30 380 H 35.6145 4.19113 -0.8968 0
M  V30 381 H 39.7985 4.63642 -1.7706 0
M  V30 382 H 35.0545 5.32459 -3.00496 0
M  V30 383 H 39.2285 5.78358 -3.87911 0
M  V30 384 H 36.8555 6.12557 -4.50197 0
M  V30 385 N 38.4306 0.297415 1.54768 0
M  V30 386 C 39.6606 -0.315165 2.04182 0
M  V30 387 C 40.0686 -1.4834 1.17439 0
M  V30 388 O 39.4116 -1.82695 0.191891 0
M  V30 389 C 39.4736 -0.837583 3.49607 0
M  V30 390 C 39.1376 0.204912 4.5654 0
M  V30 391 C 40.1346 1.03214 5.09552 0
M  V30 392 C 37.8196 0.345578 5.0111 0
M  V30 393 C 39.8136 1.986 6.05671 0
M  V30 394 C 37.5006 1.30289 5.97049 0
M  V30 395 C 38.4986 2.12159 6.49213 0
M  V30 396 O 38.1866 3.06268 7.43273 0
M  V30 397 H 37.9186 -0.0729646 0.672051 0
M  V30 398 H 40.4726 0.433907 2.00765 0
M  V30 399 H 38.7026 -1.63712 3.50336 0
M  V30 400 H 40.3916 -1.36566 3.82236 0
M  V30 401 H 41.1576 0.934312 4.75916 0
M  V30 402 H 37.0366 -0.28171 4.60138 0
M  V30 403 H 40.5806 2.62542 6.46311 0
M  V30 404 H 36.4776 1.40145 6.30103 0
M  V30 405 H 37.2456 3.01205 7.61064 0
M  V30 406 N 39.9087 -1.5758 0.0250728 0
M  V30 407 C 41.1857 -1.82917 -0.692873 0
M  V30 408 C 41.5657 -0.908137 -1.90568 0
M  V30 409 O 40.9137 0.0372298 -2.2847 0
M  V30 410 C 41.1237 -3.32034 -1.07492 0
M  V30 411 C 42.4717 -3.98406 -1.46826 0
M  V30 412 O 43.4957 -3.36505 -1.16801 0
M  V30 413 O 42.3547 -5.07497 -2.02754 0
M  V30 414 H 39.4487 -0.754079 -0.33955 0
M  V30 415 H 41.9947 -1.69619 0.0524456 0
M  V30 416 H 40.7667 -3.90728 -0.211552 0
M  V30 417 H 40.3897 -3.50424 -1.87854 0
M  V30 418 N 41.3868 0.248026 -1.55636 0
M  V30 419 C 42.6358 0.974134 -1.76617 0
M  V30 420 C 42.9488 1.86528 -0.588796 0
M  V30 421 O 44.1548 2.62805 -0.681594 0
M  V30 422 C 42.6108 1.78213 -3.12679 0
M  V30 423 C 42.2188 0.93843 -4.38061 0
M  V30 424 C 43.9628 2.50104 -3.42999 0
M  V30 425 C 41.8698 1.74225 -5.65155 0
M  V30 426 H 40.7998 0.36745 -0.658405 0
M  V30 427 H 43.4508 0.22884 -1.82067 0
M  V30 428 H 41.8328 2.56933 -3.01333 0
M  V30 429 H 43.0068 0.193635 -4.60393 0
M  V30 430 H 41.3218 0.332905 -4.15067 0
M  V30 431 H 43.9188 3.10694 -4.3517 0
M  V30 432 H 44.2618 3.21662 -2.64271 0
M  V30 433 H 44.7948 1.78395 -3.55556 0
M  V30 434 H 41.5338 1.07043 -6.46701 0
M  V30 435 H 41.0538 2.46235 -5.46926 0
M  V30 436 H 42.7328 2.30967 -6.0437 0
M  V30 437 N 42.8649 1.48995 0.513639 0
M  V30 438 C 43.7749 1.67443 1.64317 0
M  V30 439 C 44.7909 0.556947 1.64846 0
M  V30 440 O 45.9669 0.830082 1.83498 0
M  V30 441 C 43.0319 1.72515 3.00732 0
M  V30 442 C 42.0929 2.96009 3.1093 0
M  V30 443 C 41.3259 3.00829 4.40837 0
M  V30 444 O 41.5489 2.13594 5.28898 0
M  V30 445 O 40.4829 3.93168 4.55744 0
M  V30 446 H 44.3089 2.63106 1.51687 0
M  V30 447 H 41.8939 1.32588 0.688543 0
M  V30 448 H 43.7759 1.78277 3.81831 0
M  V30 449 H 42.4509 0.800278 3.13651 0
M  V30 450 H 41.3579 2.9577 2.29065 0
M  V30 451 H 42.6909 3.87934 3.02933 0
M  V30 452 N 44.343 -0.763751 1.37857 0
M  V30 453 C 45.759 -1.06542 1.18832 0
M  V30 454 C 45.959 -2.01478 0.0299722 0
M  V30 455 O 45.015 -2.4458 -0.627447 0
M  V30 456 C 46.328 -1.65525 2.51042 0
M  V30 457 C 47.876 -1.77745 2.57635 0
M  V30 458 C 48.351 -2.4014 3.89996 0
M  V30 459 N 49.842 -2.47582 3.91481 0
M  V30 460 C 50.577 -2.96732 4.9065 0
M  V30 461 N 50.073 -3.45993 6.00217 0
M  V30 462 N 51.866 -2.95679 4.78048 0
M  V30 463 H 44.017 -0.133556 2.1198 0
M  V30 464 H 46.28 -0.121879 0.940133 0
M  V30 465 H 45.986 -1.03236 3.36207 0
M  V30 466 H 45.86 -2.64719 2.68707 0
M  V30 467 H 48.247 -2.39164 1.72872 0
M  V30 468 H 48.328 -0.772836 2.43846 0
M  V30 469 H 47.972 -1.79358 4.75177 0
M  V30 470 H 47.902 -3.41223 4.01092 0
M  V30 471 H 50.393 -2.1273 3.12337 0
M  V30 472 H 50.706 -3.81922 6.7183 0
M  V30 473 H 49.051 -3.44077 6.03851 0
M  V30 474 H 52.242 -2.56499 3.91568 0
M  V30 475 H 52.415 -3.33672 5.55488 0
M  V30 476 N 45.8211 -1.22559 -0.990812 0
M  V30 477 C 47.0491 -1.07779 -1.76611 0
M  V30 478 C 47.4641 0.371513 -1.85109 0
M  V30 479 O 46.8211 1.25737 -1.32274 0
M  V30 480 C 46.8721 -1.68512 -3.19822 0
M  V30 481 O 46.5931 -3.07774 -3.1178 0
M  V30 482 C 48.0941 -1.59035 -4.13791 0
M  V30 483 H 45.3141 -0.377729 -0.554583 0
M  V30 484 H 47.8581 -1.62195 -1.24551 0
M  V30 485 H 46.0131 -1.18154 -3.68942 0
M  V30 486 H 46.4271 -3.37062 -4.01858 0
M  V30 487 H 47.9011 -2.0625 -5.1202 0
M  V30 488 H 48.3781 -0.547273 -4.35777 0
M  V30 489 H 48.9841 -2.08709 -3.70568 0
M  V30 490 N 47.2992 1.18797 -1.03562 0
M  V30 491 C 48.2292 2.24472 -0.643019 0
M  V30 492 C 49.2102 1.66433 0.351283 0
M  V30 493 O 50.3952 1.92803 0.232505 0
M  V30 494 C 47.5252 3.473 4.24935e-05 0
M  V30 495 C 46.4792 4.18055 -0.917257 0
M  V30 496 C 45.8052 5.34519 -0.138941 0
M  V30 497 C 47.1052 4.72109 -2.23407 0
M  V30 498 H 48.7992 2.57566 -1.52643 0
M  V30 499 H 46.3452 1.23806 -0.735394 0
M  V30 500 H 48.2982 4.20426 0.286383 0
M  V30 501 H 47.0222 3.13424 0.918299 0
M  V30 502 H 45.6812 3.46821 -1.1879 0
M  V30 503 H 45.3292 4.96891 0.781562 0
M  V30 504 H 45.0292 5.82794 -0.750005 0
M  V30 505 H 46.5532 6.10438 0.1405 0
M  V30 506 H 47.9672 5.36955 -2.00879 0
M  V30 507 H 46.3642 5.30897 -2.79765 0
M  V30 508 H 47.4342 3.89807 -2.88407 0
M  V30 509 N 48.7773 0.814389 1.34928 0
M  V30 510 C 50.0253 0.397636 1.9815 0
M  V30 511 C 50.3463 -1.04069 1.64908 0
M  V30 512 O 49.6163 -1.72121 0.93548 0
M  V30 513 H 48.1963 0.144043 0.732981 0
M  V30 514 H 50.8583 1.04195 1.6471 0
M  V30 515 H 49.9543 0.509688 3.0791 0
M  V30 516 N 50.2554 -1.46986 0.568584 0
M  V30 517 C 51.2024 -2.30153 -0.172707 0
M  V30 518 C 52.1724 -1.39759 -0.897586 0
M  V30 519 O 53.3574 -1.68716 -0.891044 0
M  V30 520 C 50.4974 -3.23952 -1.1895 0
M  V30 521 C 49.6104 -4.29441 -0.469517 0
M  V30 522 C 48.7454 -5.1038 -1.47259 0
M  V30 523 C 47.7844 -6.07632 -0.738225 0
M  V30 524 N 46.9214 -6.8149 -1.68868 0
M  V30 525 H 51.7614 -2.93019 0.542596 0
M  V30 526 H 49.2984 -1.44422 0.279401 0
M  V30 527 H 51.2564 -3.76767 -1.79173 0
M  V30 528 H 49.8864 -2.62926 -1.87269 0
M  V30 529 H 48.9384 -3.79594 0.247467 0
M  V30 530 H 50.2504 -4.98689 0.105241 0
M  V30 531 H 49.4044 -5.67402 -2.14803 0
M  V30 532 H 48.1434 -4.4106 -2.08128 0
M  V30 533 H 47.1484 -5.49778 -0.0489293 0
M  V30 534 H 48.3734 -6.78966 -0.135129 0
M  V30 535 H 46.3194 -6.14891 -2.28573 0
M  V30 536 H 46.2364 -7.46948 -1.16636 0
M  V30 537 H 47.5044 -7.43078 -2.3549 0
M  V30 538 N 51.7335 -0.305618 -1.54608 0
M  V30 539 C 52.9815 0.301701 -1.99835 0
M  V30 540 C 53.3025 1.54054 -1.19551 0
M  V30 541 O 52.5725 1.93702 -0.292658 0
M  V30 542 H 51.1525 0.114468 -0.738178 0
M  V30 543 H 53.8145 -0.418016 -1.90364 0
M  V30 544 H 52.9105 0.570548 -3.06841 0
M  V30 545 N 53.2116 1.57565 -0.0334293 0
M  V30 546 C 54.1596 2.1164 0.96496 0
M  V30 547 C 55.1536 1.04398 1.33407 0
M  V30 548 O 56.3596 1.22828 1.3158 0
M  V30 549 H 52.7346 0.676222 0.32898 0
M  V30 550 H 54.7056 2.94455 0.483614 0
M  V30 551 C 53.4546 2.66207 2.23672 0
M  V30 552 H 52.7776 3.48378 1.96145 0
M  V30 553 H 54.2176 3.07685 2.9173 0
M  V30 554 C 52.6766 1.59151 2.96939 0
M  V30 555 O 53.2066 0.993858 3.89211 0
M  V30 556 N 51.4126 1.31093 2.59351 0
M  V30 557 H 50.9596 1.7988 1.84393 0
M  V30 558 H 50.9176 0.596889 3.08682 0
M  V30 559 N 54.6897 -0.239769 1.55765 0
M  V30 560 C 55.9367 -0.966801 1.7793 0
M  V30 561 C 56.2647 -1.85046 0.599015 0
M  V30 562 O 55.5197 -1.91197 -0.417395 0
M  V30 563 C 55.8187 -1.852 3.05672 0
M  V30 564 C 55.4847 -1.1231 4.36689 0
M  V30 565 C 54.1467 -0.921689 4.72291 0
M  V30 566 C 56.4987 -0.607019 5.17653 0
M  V30 567 C 53.8267 -0.191996 5.86386 0
M  V30 568 C 56.1787 0.109241 6.32506 0
M  V30 569 C 54.8427 0.322073 6.66723 0
M  V30 570 H 54.1127 -0.353778 0.651093 0
M  V30 571 H 56.7597 -0.23634 1.90036 0
M  V30 572 H 55.0647 -2.64975 2.8861 0
M  V30 573 H 56.7617 -2.41635 3.20021 0
M  V30 574 H 53.3517 -1.29004 4.08725 0
M  V30 575 H 57.5357 -0.750153 4.90598 0
M  V30 576 H 52.7917 -0.0166949 6.11398 0
M  V30 577 H 56.9657 0.516737 6.9448 0
M  V30 578 H 54.5927 0.88944 7.54979 0
M  V30 579 N 56.1678 -1.49265 -0.50573 0
M  V30 580 C 57.1308 -1.65075 -1.59006 0
M  V30 581 C 58.1308 -0.522768 -1.52065 0
M  V30 582 O 59.3208 -0.789117 -1.55302 0
M  V30 583 C 56.4528 -1.64369 -2.98656 0
M  V30 584 H 57.6458 -2.61784 -1.46319 0
M  V30 585 H 55.1988 -1.38226 -0.729616 0
M  V30 586 H 55.9338 -0.692272 -3.16825 0
M  V30 587 H 55.7188 -2.46282 -3.05103 0
M  V30 588 H 57.2088 -1.78674 -3.77446 0
M  V30 589 N 57.6459 0.756429 -1.3826 0
M  V30 590 C 58.8919 1.51772 -1.34511 0
M  V30 591 C 59.2249 1.94089 0.0656691 0
M  V30 592 O 58.4999 1.65221 1.02626 0
M  V30 593 C 58.7829 2.77226 -2.29821 0
M  V30 594 C 58.6359 2.41065 -3.79747 0
M  V30 595 C 59.9549 3.79236 -2.23312 0
M  V30 596 H 57.0739 0.550578 -0.489931 0
M  V30 597 H 59.7159 0.866607 -1.69086 0
M  V30 598 H 57.8659 3.32784 -2.00467 0
M  V30 599 H 59.5379 1.91303 -4.19763 0
M  V30 600 H 57.7809 1.7356 -3.97567 0
M  V30 601 H 58.4519 3.3081 -4.41892 0
M  V30 602 H 60.9279 3.3321 -2.49219 0
M  V30 603 H 59.8039 4.64714 -2.92116 0
M  V30 604 H 60.0649 4.24615 -1.23102 0
M  V30 605 N 59.124 1.23083 0.984299 0
M  V30 606 C 60.37 1.06214 1.72761 0
M  V30 607 C 60.703 -0.400584 1.90024 0
M  V30 608 O 59.978 -1.29672 1.44967 0
M  V30 609 C 60.261 1.78375 3.12817 0
M  V30 610 C 60.114 3.32296 3.03149 0
M  V30 611 C 61.433 1.54309 4.12161 0
M  V30 612 H 58.552 0.387251 0.627061 0
M  V30 613 H 61.194 1.51536 1.14616 0
M  V30 614 H 59.344 1.39848 3.62457 0
M  V30 615 H 61.016 3.8032 2.61064 0
M  V30 616 H 59.259 3.6153 2.39747 0
M  V30 617 H 59.93 3.77972 4.02295 0
M  V30 618 H 62.406 1.87791 3.71314 0
M  V30 619 H 61.282 2.07281 5.08258 0
M  V30 620 H 61.543 0.477572 4.39513 0
M  V30 621 N 60.6021 -1.18246 1.0419 0
M  V30 622 C 61.5491 -2.2192 0.634037 0
M  V30 623 C 62.5191 -1.62179 -0.358765 0
M  V30 624 O 63.7041 -1.89122 -0.252466 0
M  V30 625 C 60.8441 -3.451 0.00445535 0
M  V30 626 C 59.9571 -4.19174 1.04487 0
M  V30 627 C 59.0921 -5.29813 0.383676 0
M  V30 628 C 58.1311 -5.9566 1.4091 0
M  V30 629 N 57.2681 -6.97834 0.772784 0
M  V30 630 H 62.1081 -2.56164 1.52263 0
M  V30 631 H 59.6451 -1.25843 0.761701 0
M  V30 632 H 61.6031 -4.15485 -0.377919 0
M  V30 633 H 60.2331 -3.11472 -0.847652 0
M  V30 634 H 59.2851 -3.47604 1.54518 0
M  V30 635 H 60.5971 -4.64267 1.82368 0
M  V30 636 H 59.7511 -6.06677 -0.0528366 0
M  V30 637 H 58.4901 -4.85825 -0.427208 0
M  V30 638 H 57.4951 -5.17535 1.85574 0
M  V30 639 H 58.7201 -6.4173 2.22171 0
M  V30 640 H 56.6661 -6.55998 -0.0177708 0
M  V30 641 H 56.5831 -7.41186 1.48928 0
M  V30 642 H 57.8511 -7.78665 0.36071 0
M  V30 643 N 62.0802 -0.821533 -1.34494 0
M  V30 644 C 63.0102 -0.257138 -2.3208 0
M  V30 645 C 63.9912 0.625645 -1.58176 0
M  V30 646 O 65.1762 0.552811 -1.86166 0
M  V30 647 C 62.3062 0.582958 -3.42372 0
M  V30 648 C 61.2602 -0.202571 -4.2752 0
M  V30 649 C 60.5862 0.760179 -5.29269 0
M  V30 650 C 61.8862 -1.40998 -5.02908 0
M  V30 651 H 63.5802 -1.07247 -2.79532 0
M  V30 652 H 61.1262 -0.517163 -1.34393 0
M  V30 653 H 63.0792 0.987972 -4.09655 0
M  V30 654 H 61.8032 1.43133 -2.93565 0
M  V30 655 H 60.4622 -0.588936 -3.61838 0
M  V30 656 H 60.1102 1.60447 -4.76724 0
M  V30 657 H 59.8102 0.238809 -5.87115 0
M  V30 658 H 61.3342 1.16308 -5.9942 0
M  V30 659 H 62.7482 -1.07905 -5.63054 0
M  V30 660 H 61.1452 -1.86689 -5.70322 0
M  V30 661 H 62.2152 -2.1889 -4.32684 0
M  V30 662 N 63.5583 1.46682 -0.576371 0
M  V30 663 C 64.5213 2.28707 0.150239 0
M  V30 664 C 65.5213 1.38035 0.824794 0
M  V30 665 O 66.7113 1.60476 0.677719 0
M  V30 666 C 63.8433 3.18248 1.22192 0
M  V30 667 H 65.0363 2.94423 -0.570521 0
M  V30 668 H 62.5893 1.52688 -0.334078 0
M  V30 669 H 63.3243 2.57265 1.97447 0
M  V30 670 H 63.1093 3.85 0.742812 0
M  V30 671 H 64.5993 3.80001 1.73172 0
M  V30 672 N 65.0364 0.313813 1.54444 0
M  V30 673 C 66.4524 -0.0391619 1.59552 0
M  V30 674 C 66.6524 -1.51322 1.33056 0
M  V30 675 O 65.7084 -2.26782 1.11022 0
M  V30 676 C 67.0214 0.370302 2.98411 0
M  V30 677 C 68.5694 0.320139 3.11358 0
M  V30 678 C 69.0444 0.704617 4.52547 0
M  V30 679 N 70.5354 0.657645 4.58508 0
M  V30 680 C 71.2704 0.927453 5.6585 0
M  V30 681 N 70.7664 1.26389 6.81174 0
M  V30 682 N 72.5594 0.853662 5.5558 0
M  V30 683 H 64.7104 1.27433 1.69925 0
M  V30 684 H 66.9734 0.517511 0.794284 0
M  V30 685 H 66.6794 1.39694 3.22767 0
M  V30 686 H 66.5534 -0.269619 3.76235 0
M  V30 687 H 68.9404 -0.697275 2.86744 0
M  V30 688 H 69.0214 0.99486 2.35661 0
M  V30 689 H 68.6654 1.7199 4.77893 0
M  V30 690 H 68.5954 0.00768843 5.26599 0
M  V30 691 H 71.0864 0.409067 3.75679 0
M  V30 692 H 71.3994 1.4554 7.58972 0
M  V30 693 H 69.7444 1.30206 6.82694 0
M  V30 694 H 72.9354 0.590383 4.64362 0
M  V30 695 H 73.1084 1.0673 6.3915 0
M  V30 696 N 66.5145 -1.57545 0.0417849 0
M  V30 697 C 67.4645 -2.07483 -0.945247 0
M  V30 698 C 68.4485 -0.977983 -1.27767 0
M  V30 699 O 69.6405 -1.24142 -1.26166 0
M  V30 700 C 66.7695 -2.61576 -2.22335 0
M  V30 701 C 65.8555 -3.78213 -1.91874 0
M  V30 702 N 66.2465 -4.88344 -1.31733 0
M  V30 703 C 64.5445 -3.8694 -2.21796 0
M  V30 704 C 65.2455 -5.69462 -1.1869 0
M  V30 705 N 64.2215 -5.16771 -1.68666 0
M  V30 706 H 68.0235 -2.90029 -0.475441 0
M  V30 707 H 65.5375 -1.61581 -0.162911 0
M  V30 708 H 67.5345 -2.95651 -2.93932 0
M  V30 709 H 66.1945 -1.80465 -2.69931 0
M  V30 710 H 67.2055 -5.08335 -0.990729 0
M  V30 711 H 63.8825 -3.16757 -2.71977 0
M  V30 712 H 65.2725 -6.68023 -0.720793 0
M  V30 713 N 67.9926 0.231505 -1.5589 0
M  V30 714 C 69.4086 0.580748 -1.48659 0
M  V30 715 C 69.6086 1.87617 -0.73498 0
M  V30 716 O 68.6646 2.51046 -0.270586 0
M  V30 717 C 69.9776 0.669202 -2.93159 0
M  V30 718 C 71.5256 0.760499 -3.03621 0
M  V30 719 C 72.0006 0.880383 -4.49459 0
M  V30 720 N 73.4916 0.944861 -4.53461 0
M  V30 721 C 74.2266 1.05716 -5.63571 0
M  V30 722 N 73.7226 1.13403 -6.83456 0
M  V30 723 N 75.5156 1.09152 -5.514 0
M  V30 724 H 67.6666 -0.618695 -2.03189 0
M  V30 725 H 69.9296 -0.215728 -0.923128 0
M  V30 726 H 69.6356 -0.212904 -3.51055 0
M  V30 727 H 69.5096 1.5361 -3.44505 0
M  V30 728 H 71.8966 1.63305 -2.45796 0
M  V30 729 H 71.9776 -0.131864 -2.5546 0
M  V30 730 H 71.6216 0.0123284 -5.07899 0
M  V30 731 H 71.5516 1.78802 -4.95316 0
M  V30 732 H 74.0426 0.896176 -3.6712 0
M  V30 733 H 74.3556 1.21921 -7.63122 0
M  V30 734 H 72.7006 1.10333 -6.86186 0
M  V30 735 H 75.8916 1.02805 -4.56671 0
M  V30 736 H 76.0646 1.17558 -6.37247 0
M  V30 737 N 69.4707 1.49531 0.497807 0
M  V30 738 C 70.7167 1.59415 1.25358 0
M  V30 739 C 71.0497 0.281422 1.9215 0
M  V30 740 O 70.3247 -0.715249 1.80871 0
M  V30 741 C 70.6077 2.75566 2.3181 0
M  V30 742 C 70.4607 4.16642 1.69498 0
M  V30 743 C 71.7797 2.87347 3.33346 0
M  V30 744 H 68.8987 0.580244 0.454408 0
M  V30 745 H 71.5407 1.81827 0.551262 0
M  V30 746 H 69.6907 2.56587 2.91711 0
M  V30 747 H 71.3627 4.47145 1.13399 0
M  V30 748 H 69.6057 4.22141 0.998978 0
M  V30 749 H 70.2767 4.93792 2.46725 0
M  V30 750 H 72.7527 3.04634 2.83438 0
M  V30 751 H 71.6287 3.70289 4.05188 0
M  V30 752 H 71.8897 1.96834 3.95865 0
M  V30 753 N 70.9488 -0.749086 1.3866 0
M  V30 754 C 72.1768 -1.53834 1.38358 0
M  V30 755 C 72.5918 -1.88783 -0.0255219 0
M  V30 756 O 71.9488 -1.53101 -0.993292 0
M  V30 757 C 71.9998 -2.83468 2.2434 0
M  V30 758 O 71.7208 -2.50008 3.5976 0
M  V30 759 C 73.2218 -3.7758 2.32267 0
M  V30 760 H 70.4418 -0.47585 0.473083 0
M  V30 761 H 72.9858 -0.926726 1.82297 0
M  V30 762 H 71.1408 -3.40995 1.83851 0
M  V30 763 H 71.5548 -3.33182 4.05081 0
M  V30 764 H 73.0288 -4.65478 2.96706 0
M  V30 765 H 73.5058 -4.18334 1.33765 0
M  V30 766 H 74.1118 -3.25976 2.73166 0
M  V30 767 N 72.4269 -1.23603 -0.977757 0
M  V30 768 C 73.3739 -1.01954 -2.07061 0
M  V30 769 C 74.3439 0.0638697 -1.65977 0
M  V30 770 O 75.5289 -0.0887624 -1.90593 0
M  V30 771 C 72.6689 -0.619658 -3.39491 0
M  V30 772 C 71.7819 -1.77547 -3.93829 0
M  V30 773 C 70.9169 -1.32212 -5.14484 0
M  V30 774 C 69.9559 -2.44852 -5.60994 0
M  V30 775 N 69.0929 -2.00456 -6.72876 0
M  V30 776 H 73.9329 -1.95495 -2.24913 0
M  V30 777 H 71.4699 -0.973861 -1.10247 0
M  V30 778 H 73.4279 -0.368898 -4.15566 0
M  V30 779 H 72.0579 0.278752 -3.21594 0
M  V30 780 H 71.1099 -2.14016 -3.14486 0
M  V30 781 H 72.4219 -2.62219 -4.24314 0
M  V30 782 H 71.5759 -1.02965 -5.97899 0
M  V30 783 H 70.3149 -0.445808 -4.85658 0
M  V30 784 H 69.3199 -2.74871 -4.76157 0
M  V30 785 H 70.5449 -3.33024 -5.91837 0
M  V30 786 H 68.4909 -1.15208 -6.45804 0
M  V30 787 H 68.4079 -2.78687 -7.02759 0
M  V30 788 H 69.6759 -1.7432 -7.59758 0
M  V30 789 N 73.905 1.17692 -1.04816 0
M  V30 790 C 75.133 1.91786 -0.776254 0
M  V30 791 C 75.548 1.76604 0.667577 0
M  V30 792 O 74.905 1.10067 1.45573 0
M  V30 793 C 74.956 3.42967 -1.14263 0
M  V30 794 O 74.677 3.57678 -2.52978 0
M  V30 795 C 76.178 4.34144 -0.896311 0
M  V30 796 H 73.398 0.608624 -0.282519 0
M  V30 797 H 75.942 1.49268 -1.39783 0
M  V30 798 H 74.097 3.83245 -0.565874 0
M  V30 799 H 74.511 4.51319 -2.67229 0
M  V30 800 H 75.985 5.38744 -1.20244 0
M  V30 801 H 76.462 4.38876 0.168636 0
M  V30 802 H 77.068 3.99574 -1.45672 0
M  V30 803 N 75.3831 0.828654 1.34056 0
M  V30 804 C 76.3151 0.212052 2.28217 0
M  V30 805 C 77.3281 -0.601362 1.51286 0
M  V30 806 O 78.5171 -0.430104 1.73241 0
M  V30 807 C 75.6171 -0.72088 3.31144 0
M  V30 808 C 74.7901 0.0509587 4.3737 0
M  V30 809 C 73.8491 -0.803766 5.20025 0
M  V30 810 O 72.8751 -0.246667 5.68665 0
M  V30 811 N 74.0771 -2.1227 5.40298 0
M  V30 812 H 76.8421 1.02105 2.81771 0
M  V30 813 H 74.4031 0.686153 1.46641 0
M  V30 814 H 76.3951 -1.29742 3.8334 0
M  V30 815 H 74.9651 -1.43061 2.77943 0
M  V30 816 H 74.1851 0.808831 3.85813 0
M  V30 817 H 75.4731 0.582065 5.0546 0
M  V30 818 H 74.8711 -2.59898 5.02464 0
M  V30 819 H 73.4281 -2.64796 5.95589 0
M  V30 820 N 76.8612 -1.46375 0.584142 0
M  V30 821 C 78.1072 -2.02678 0.0703716 0
M  V30 822 C 78.4402 -1.4545 -1.28678 0
M  V30 823 O 77.7152 -0.62014 -1.84349 0
M  V30 824 C 77.9982 -3.60099 0.00614674 0
M  V30 825 C 77.8512 -4.27709 1.3923 0
M  V30 826 C 79.1702 -4.34598 -0.693742 0
M  V30 827 H 76.2892 -0.736504 0.027047 0
M  V30 828 H 78.9312 -1.74501 0.751615 0
M  V30 829 H 77.0812 -3.84236 -0.574009 0
M  V30 830 H 78.7532 -4.14832 2.01773 0
M  V30 831 H 76.9962 -3.87016 1.95962 0
M  V30 832 H 77.6672 -5.36478 1.29982 0
M  V30 833 H 80.1432 -4.15615 -0.200869 0
M  V30 834 H 79.0192 -5.44318 -0.707714 0
M  V30 835 H 79.2802 -4.05759 -1.75533 0
M  V30 836 N 78.3393 -0.321999 -1.54275 0
M  V30 837 C 79.3023 0.531975 -2.22941 0
M  V30 838 C 80.3023 1.04478 -1.22234 0
M  V30 839 O 81.4923 0.937452 -1.46825 0
M  V30 840 C 78.6243 1.73874 -2.93224 0
M  V30 841 H 79.8173 -0.0682612 -2.99822 0
M  V30 842 H 77.3703 -0.0730644 -1.56129 0
M  V30 843 H 78.1053 2.37825 -2.20476 0
M  V30 844 H 77.8903 1.37847 -3.6707 0
M  V30 845 H 79.3803 2.34496 -3.45545 0
M  V30 846 N 79.8174 1.5752 -0.0501392 0
M  V30 847 C 81.0664 1.91827 0.623328 0
M  V30 848 C 81.3794 0.930222 1.72065 0
M  V30 849 O 82.5854 1.1653 2.4522 0
M  V30 850 C 81.0414 3.40692 1.16003 0
M  V30 851 C 80.6494 4.479 0.0948811 0
M  V30 852 C 82.3934 3.84034 1.80881 0
M  V30 853 C 80.3004 5.87879 0.644411 0
M  V30 854 H 79.2304 0.715918 0.236596 0
M  V30 855 H 81.8814 1.83115 -0.118861 0
M  V30 856 H 80.2634 3.44405 1.9545 0
M  V30 857 H 81.4374 4.55775 -0.678675 0
M  V30 858 H 79.7524 4.13892 -0.45637 0
M  V30 859 H 82.3494 4.85984 2.22988 0
M  V30 860 H 82.6924 3.20225 2.6601 0
M  V30 861 H 83.2254 3.82833 1.0809 0
M  V30 862 H 79.9644 6.55282 -0.169229 0
M  V30 863 H 79.4844 5.83567 1.38598 0
M  V30 864 H 81.1634 6.37098 1.12763 0
M  V30 865 N 81.2955 -0.223234 1.56011 0
M  V30 866 C 82.2425 -1.27664 1.92277 0
M  V30 867 C 83.2125 -1.46659 0.779763 0
M  V30 868 O 84.3975 -1.60256 1.03551 0
M  V30 869 C 81.5375 -2.62234 2.24338 0
M  V30 870 C 80.6505 -2.51051 3.51564 0
M  V30 871 C 79.7855 -3.78133 3.7308 0
M  V30 872 C 78.8245 -3.61665 4.93827 0
M  V30 873 N 77.9615 -4.80693 5.11741 0
M  V30 874 H 82.8015 -0.960358 2.82101 0
M  V30 875 H 80.3385 -0.462901 1.39627 0
M  V30 876 H 82.2965 -3.40596 2.40936 0
M  V30 877 H 80.9265 -2.91961 1.3769 0
M  V30 878 H 79.9785 -1.64132 3.43169 0
M  V30 879 H 81.2905 -2.34803 4.40079 0
M  V30 880 H 80.4445 -4.64938 3.89766 0
M  V30 881 H 79.1835 -3.97304 2.82844 0
M  V30 882 H 78.1885 -2.73244 4.77093 0
M  V30 883 H 79.4135 -3.43966 5.85546 0
M  V30 884 H 77.3595 -5.00181 4.24446 0
M  V30 885 H 77.2765 -4.67165 5.94384 0
M  V30 886 H 78.5445 -5.6893 5.3286 0
M  V30 887 N 82.7736 -1.49793 -0.48987 0
M  V30 888 C 84.0226 -1.59085 -1.23995 0
M  V30 889 C 84.3356 -0.287907 -1.9347 0
M  V30 890 O 85.5416 -0.259506 -2.70257 0
M  V30 891 C 83.9976 -2.80736 -2.252 0
M  V30 892 C 83.6056 -4.17833 -1.61614 0
M  V30 893 C 85.3496 -2.99364 -3.00967 0
M  V30 894 C 83.2566 -5.30693 -2.60996 0
M  V30 895 H 82.1866 -0.592372 -0.466488 0
M  V30 896 H 84.8376 -1.76197 -0.51252 0
M  V30 897 H 83.2196 -2.57142 -3.01154 0
M  V30 898 H 84.3936 -4.51608 -0.915774 0
M  V30 899 H 82.7086 -4.04656 -0.981977 0
M  V30 900 H 85.3056 -3.80851 -3.75308 0
M  V30 901 H 85.6486 -2.10356 -3.59244 0
M  V30 902 H 86.1816 -3.2305 -2.32128 0
M  V30 903 H 82.9206 -6.21796 -2.07485 0
M  V30 904 H 82.4406 -5.01359 -3.2924 0
M  V30 905 H 84.1196 -5.6049 -3.23202 0
M  V30 906 N 84.2517 0.741722 -1.39055 0
M  V30 907 C 85.5007 1.49656 -1.35225 0
M  V30 908 C 85.8137 1.95533 0.0512708 0
M  V30 909 O 87.0197 2.7067 0.212138 0
M  V30 910 C 85.4757 2.70389 -2.37525 0
M  V30 911 C 85.0837 2.31489 -3.83558 0
M  V30 912 C 86.8277 3.48236 -2.42759 0
M  V30 913 C 84.7347 3.48903 -4.77515 0
M  V30 914 H 83.6647 0.56197 -0.502699 0
M  V30 915 H 86.3157 0.809727 -1.64668 0
M  V30 916 H 84.6977 3.41113 -2.01142 0
M  V30 917 H 85.8717 1.68354 -4.28945 0
M  V30 918 H 84.1867 1.66749 -3.81554 0
M  V30 919 H 86.7837 4.35558 -3.1015 0
M  V30 920 H 87.1267 3.90229 -1.45008 0
M  V30 921 H 87.6597 2.84535 -2.78002 0
M  V30 922 H 84.3987 3.11966 -5.76504 0
M  V30 923 H 83.9187 4.11041 -4.36813 0
M  V30 924 H 85.5977 4.15328 -4.96096 0
M  V30 925 N 85.7298 1.2412 0.971189 0
M  V30 926 C 87.0068 0.986867 1.6888 0
M  V30 927 C 87.3868 -0.491857 2.0529 0
M  V30 928 O 86.7348 -1.46531 1.75331 0
M  V30 929 C 86.9448 1.9063 2.92338 0
M  V30 930 C 88.2928 2.17515 3.64654 0
M  V30 931 O 89.3168 1.88254 3.02388 0
M  V30 932 O 88.1758 2.6719 4.7673 0
M  V30 933 H 85.2698 0.372944 0.738134 0
M  V30 934 H 87.8158 1.35203 1.02559 0
M  V30 935 H 86.5878 2.90552 2.62097 0
M  V30 936 H 86.2108 1.54408 3.66393 0
M  V30 937 N 87.2079 -1.17134 1.05439 0
M  V30 938 C 88.1549 -2.21235 0.657539 0
M  V30 939 C 89.1249 -1.62551 -0.341543 0
M  V30 940 O 90.3099 -1.89379 -0.232393 0
M  V30 941 C 87.4499 -3.45076 0.0410575 0
M  V30 942 C 86.5629 -4.18042 1.08927 0
M  V30 943 C 85.6979 -5.29376 0.439848 0
M  V30 944 C 84.7369 -5.94132 1.4722 0
M  V30 945 N 83.8739 -6.96975 0.846756 0
M  V30 946 H 88.7139 -2.54534 1.54972 0
M  V30 947 H 86.2509 -1.25028 0.775006 0
M  V30 948 H 88.2089 -4.15862 -0.33383 0
M  V30 949 H 86.8389 -3.12353 -0.814568 0
M  V30 950 H 85.8909 -3.45945 1.58196 0
M  V30 951 H 87.2029 -4.62306 1.87282 0
M  V30 952 H 86.3569 -6.06699 0.0115125 0
M  V30 953 H 85.0959 -4.86251 -0.375656 0
M  V30 954 H 84.1009 -5.15538 1.91052 0
M  V30 955 H 85.3259 -6.39337 2.28965 0
M  V30 956 H 83.2719 -6.5598 0.0518075 0
M  V30 957 H 83.1889 -7.39565 1.5678 0
M  V30 958 H 84.4569 -7.78239 0.443277 0
M  V30 959 N 88.686 -0.835752 -1.33615 0
M  V30 960 C 89.914 -0.443344 -2.02094 0
M  V30 961 C 90.329 0.954522 -1.62894 0
M  V30 962 O 89.686 1.61982 -0.840723 0
M  V30 963 C 89.737 -0.550775 -3.5728 0
M  V30 964 O 89.458 -1.89356 -3.95065 0
M  V30 965 C 90.959 -0.154919 -4.43029 0
M  V30 966 H 88.179 -0.176359 -0.647409 0
M  V30 967 H 90.723 -1.12746 -1.70612 0
M  V30 968 H 88.878 0.0853997 -3.87306 0
M  V30 969 H 89.292 -1.87687 -4.89769 0
M  V30 970 H 90.766 -0.281144 -5.51284 0
M  V30 971 H 91.243 0.902863 -4.2982 0
M  V30 972 H 91.849 -0.765404 -4.18356 0
M  V30 973 N 90.1641 1.46063 -0.591896 0
M  V30 974 C 91.5801 1.57561 -0.254288 0
M  V30 975 C 91.7801 1.58565 1.24336 0
M  V30 976 O 90.8361 1.50753 2.02558 0
M  V30 977 C 92.1491 2.86549 -0.911611 0
M  V30 978 C 93.6971 3.00197 -0.886059 0
M  V30 979 C 94.1721 4.31933 -1.5231 0
M  V30 980 N 95.6631 4.38654 -1.48786 0
M  V30 981 C 96.3981 5.39222 -1.95006 0
M  V30 982 N 95.8941 6.46414 -2.49241 0
M  V30 983 N 97.6871 5.3048 -1.85868 0
M  V30 984 H 89.8381 1.43655 -1.56451 0
M  V30 985 H 92.1011 0.68583 -0.654478 0
M  V30 986 H 91.8071 2.91651 -1.96551 0
M  V30 987 H 91.6811 3.74794 -0.425368 0
M  V30 988 H 94.0681 2.9467 0.159246 0
M  V30 989 H 94.1491 2.13403 -1.41041 0
M  V30 990 H 93.7931 4.38217 -2.56765 0
M  V30 991 H 93.7231 5.17516 -0.973891 0
M  V30 992 H 96.2141 3.61793 -1.09151 0
M  V30 993 H 96.5271 7.19376 -2.82344 0
M  V30 994 H 94.8721 6.47208 -2.53272 0
M  V30 995 H 98.0631 4.45643 -1.43248 0
M  V30 996 H 98.2361 6.08711 -2.22204 0
M  V30 997 N 91.6422 0.330177 1.54103 0
M  V30 998 C 92.5722 -0.525353 2.27513 0
M  V30 999 C 93.5532 -1.11383 1.2856 0
M  V30 1000 O 94.7382 -1.13773 1.57383 0
M  V30 1001 C 91.8682 -1.6831 3.03791 0
M  V30 1002 C 90.8222 -1.2236 4.10137 0
M  V30 1003 C 90.1482 -2.46882 4.74293 0
M  V30 1004 C 91.4482 -0.333697 5.21233 0
M  V30 1005 H 93.1422 0.087013 2.99274 0
M  V30 1006 H 90.6882 0.0432893 1.43935 0
M  V30 1007 H 92.6412 -2.28795 3.5388 0
M  V30 1008 H 91.3652 -2.32216 2.29659 0
M  V30 1009 H 90.0242 -0.64165 3.60941 0
M  V30 1010 H 89.6722 -3.09165 3.96769 0
M  V30 1011 H 89.3722 -2.16825 5.46133 0
M  V30 1012 H 90.8962 -3.08117 5.27159 0
M  V30 1013 H 92.3102 -0.845013 5.67038 0
M  V30 1014 H 90.7072 -0.125612 5.99969 0
M  V30 1015 H 91.7772 0.633724 4.80741 0
M  V30 1016 N 93.1203 -1.57491 0.0584922 0
M  V30 1017 C 94.3973 -1.84346 -0.653918 0
M  V30 1018 C 94.7773 -0.948355 -1.88599 0
M  V30 1019 O 94.1253 -0.0112403 -2.28497 0
M  V30 1020 C 94.3353 -3.34239 -1.00425 0
M  V30 1021 C 95.6833 -4.01431 -1.38342 0
M  V30 1022 O 96.7073 -3.38907 -1.09637 0
M  V30 1023 O 95.5663 -5.11683 -1.91943 0
M  V30 1024 H 92.6603 -0.761112 -0.323478 0
M  V30 1025 H 95.2063 -1.6947 0.0884125 0
M  V30 1026 H 93.9783 -3.91089 -0.128625 0
M  V30 1027 H 93.6013 -3.54329 -1.80378 0
M  V30 1028 N 94.5984 0.214957 -1.56127 0
M  V30 1029 C 95.8234 0.95924 -1.83884 0
M  V30 1030 C 96.2484 1.7689 -0.639644 0
M  V30 1031 O 95.6064 1.76566 0.411601 0
M  V30 1032 C 95.6544 1.84723 -3.09693 0
M  V30 1033 O 94.7584 2.94346 -2.8885 0
M  V30 1034 H 94.0994 0.27125 -0.606069 0
M  V30 1035 H 96.6294 0.226276 -2.03345 0
M  V30 1036 H 96.6394 2.25576 -3.39969 0
M  V30 1037 H 95.3144 1.25218 -3.96602 0
M  V30 1038 H 93.8914 2.57391 -2.69823 0
M  V30 1039 N 96.0765 1.50051 0.48192 0
M  V30 1040 C 97.3015 1.64508 1.26301 0
M  V30 1041 C 97.7265 0.323851 1.85291 0
M  V30 1042 O 97.0845 -0.710969 1.66778 0
M  V30 1043 C 97.1325 2.7305 2.35533 0
M  V30 1044 O 96.2365 2.3355 3.39895 0
M  V30 1045 H 95.5775 0.549978 0.372048 0
M  V30 1046 H 98.1075 1.9636 0.574786 0
M  V30 1047 H 98.1175 2.95799 2.8101 0
M  V30 1048 H 96.7925 3.68946 1.91967 0
M  V30 1049 H 95.3695 2.21205 3.00204 0
M  V30 1050 N 97.5546 -0.734337 1.39446 0
M  V30 1051 C 98.5026 -1.86971 1.38364 0
M  V30 1052 C 99.4966 -1.67288 0.266687 0
M  V30 1053 O 100.703 -1.74621 0.436755 0
M  V30 1054 H 97.0776 -0.615474 0.432082 0
M  V30 1055 H 99.0486 -1.85 2.34132 0
M  V30 1056 C 97.7976 -3.2466 1.24465 0
M  V30 1057 H 97.1206 -3.40402 2.09682 0
M  V30 1058 H 98.5606 -4.04292 1.27764 0
M  V30 1059 C 97.0196 -3.36867 -0.0468674 0
M  V30 1060 O 97.5496 -3.88618 -1.01681 0
M  V30 1061 N 95.7556 -2.90391 -0.110145 0
M  V30 1062 H 95.3026 -2.48466 0.679868 0
M  V30 1063 H 95.2606 -2.98939 -0.973799 0
M  V30 1064 N 99.0327 -1.24633 -0.964593 0
M  V30 1065 C 99.9627 -1.06611 -2.07741 0
M  V30 1066 C 100.944 0.0218666 -1.70086 0
M  V30 1067 O 102.129 -0.145793 -1.93652 0
M  V30 1068 C 99.2587 -0.673444 -3.40708 0
M  V30 1069 C 98.2127 -1.71054 -3.92332 0
M  V30 1070 C 97.5387 -1.17285 -5.21678 0
M  V30 1071 C 98.8387 -3.10718 -4.19824 0
M  V30 1072 H 100.533 -1.99693 -2.23076 0
M  V30 1073 H 98.0787 -0.96152 -1.07195 0
M  V30 1074 H 100.032 -0.534345 -4.17998 0
M  V30 1075 H 98.7557 0.293073 -3.25282 0
M  V30 1076 H 97.4147 -1.83791 -3.17201 0
M  V30 1077 H 97.0627 -0.196847 -5.02615 0
M  V30 1078 H 96.7627 -1.86592 -5.57187 0
M  V30 1079 H 98.2867 -1.04593 -6.01575 0
M  V30 1080 H 99.7007 -3.01192 -4.87808 0
M  V30 1081 H 98.0977 -3.77406 -4.66567 0
M  V30 1082 H 99.1677 -3.58524 -3.26479 0
M  V30 1083 N 100.511 1.16574 -1.06058 0
M  V30 1084 C 101.421 2.2452 -0.680282 0
M  V30 1085 C 102.437 1.71348 0.302604 0
M  V30 1086 O 103.613 2.00822 0.152513 0
M  V30 1087 C 100.678 3.46629 -0.0700315 0
M  V30 1088 C 99.7388 4.14849 -1.10448 0
M  V30 1089 C 98.9718 5.31129 -0.523256 0
M  V30 1090 O 99.1948 5.66514 0.664709 0
M  V30 1091 O 98.1288 5.88526 -1.26179 0
M  V30 1092 H 101.955 2.59355 -1.58015 0
M  V30 1093 H 99.5398 1.24043 -0.832694 0
M  V30 1094 H 101.422 4.20543 0.268667 0
M  V30 1095 H 100.097 3.13573 0.803353 0
M  V30 1096 H 99.0038 3.42916 -1.49532 0
M  V30 1097 H 100.337 4.51954 -1.94931 0
M  V30 1098 N 101.989 0.842826 1.3317 0
M  V30 1099 C 102.936 0.276885 2.29133 0
M  V30 1100 C 103.906 -0.609527 1.54512 0
M  V30 1101 O 105.091 -0.546955 1.82792 0
M  V30 1102 C 102.231 -0.538707 3.40869 0
M  V30 1103 C 101.344 0.372169 4.30394 0
M  V30 1104 C 100.479 -0.454908 5.29249 0
M  V30 1105 C 99.5179 0.45411 6.10413 0
M  V30 1106 N 98.6549 -0.335075 7.013 0
M  V30 1107 H 103.495 1.10052 2.76934 0
M  V30 1108 H 101.032 0.554161 1.36262 0
M  V30 1109 H 102.99 -1.02709 4.0436 0
M  V30 1110 H 101.62 -1.32727 2.9425 0
M  V30 1111 H 100.672 0.97888 3.6759 0
M  V30 1112 H 101.984 1.0703 4.87182 0
M  V30 1113 H 101.138 -1.00695 5.98285 0
M  V30 1114 H 99.8769 -1.18646 4.73048 0
M  V30 1115 H 98.8819 1.01813 5.40291 0
M  V30 1116 H 100.107 1.18409 6.68697 0
M  V30 1117 H 98.0529 -1.04994 6.47543 0
M  V30 1118 H 97.9699 0.304262 7.55387 0
M  V30 1119 H 99.2379 -0.869224 7.74638 0
M  V30 1120 N 103.467 -1.45747 0.599634 0
M  V30 1121 C 104.716 -2.01502 0.0893511 0
M  V30 1122 C 105.029 -1.4748 -1.28488 0
M  V30 1123 O 106.235 -1.95161 -1.88745 0
M  V30 1124 C 104.691 -3.59735 0.109082 0
M  V30 1125 C 104.299 -4.22754 1.48267 0
M  V30 1126 C 106.043 -4.23085 -0.346374 0
M  V30 1127 C 103.95 -5.73115 1.45921 0
M  V30 1128 H 102.88 -0.753417 0.0296347 0
M  V30 1129 H 105.531 -1.67303 0.753788 0
M  V30 1130 H 103.913 -3.91087 -0.621854 0
M  V30 1131 H 105.087 -4.02987 2.23468 0
M  V30 1132 H 103.402 -3.71567 1.87955 0
M  V30 1133 H 105.999 -5.33327 -0.38298 0
M  V30 1134 H 106.342 -3.93201 -1.36743 0
M  V30 1135 H 106.875 -3.9642 0.331038 0
M  V30 1136 H 103.614 -6.07685 2.45762 0
M  V30 1137 H 103.134 -5.95097 0.749665 0
M  V30 1138 H 104.813 -6.3616 1.17941 0
M  V30 1139 N 104.945 -0.338344 -1.53925 0
M  V30 1140 C 106.175 0.260919 -2.04946 0
M  V30 1141 C 106.583 1.45174 -1.2133 0
M  V30 1142 O 105.926 1.82122 -0.240262 0
M  V30 1143 C 105.988 0.744596 -3.51704 0
M  V30 1144 C 105.652 -0.325883 -4.55837 0
M  V30 1145 C 106.649 -1.16687 -5.06636 0
M  V30 1146 C 104.334 -0.478317 -5.00017 0
M  V30 1147 C 106.328 -2.14588 -6.00192 0
M  V30 1148 C 104.015 -1.46073 -5.93385 0
M  V30 1149 C 105.013 -2.29297 -6.4336 0
M  V30 1150 O 104.701 -3.25867 -7.34892 0
M  V30 1151 H 104.433 0.0551207 -0.673749 0
M  V30 1152 H 106.987 -0.486984 -1.99544 0
M  V30 1153 H 105.217 1.54366 -3.54553 0
M  V30 1154 H 106.906 1.26383 -3.85723 0
M  V30 1155 H 107.672 -1.06016 -4.73271 0
M  V30 1156 H 103.551 0.159613 -4.60724 0
M  V30 1157 H 107.095 -2.79585 -6.39123 0
M  V30 1158 H 102.992 -1.56802 -6.26166 0
M  V30 1159 H 103.76 -3.21278 -7.5281 0
M  V30 1160 N 106.423 1.57458 -0.0668435 0
M  V30 1161 C 107.839 1.56947 0.289772 0
M  V30 1162 C 108.039 1.07584 1.70376 0
M  V30 1163 O 107.095 0.739486 2.41429 0
M  V30 1164 C 108.408 3.0052 0.103943 0
M  V30 1165 C 109.956 3.12517 0.173857 0
M  V30 1166 C 110.431 4.57997 0.0163682 0
M  V30 1167 N 111.922 4.63144 0.0721352 0
M  V30 1168 C 112.657 5.73394 -0.0253794 0
M  V30 1169 N 112.153 6.92576 -0.176133 0
M  V30 1170 N 113.946 5.62091 0.0313305 0
M  V30 1171 H 106.097 1.87863 -0.991027 0
M  V30 1172 H 108.36 0.86583 -0.38606 0
M  V30 1173 H 108.066 3.40729 -0.871572 0
M  V30 1174 H 107.94 3.67304 0.858366 0
M  V30 1175 H 110.327 2.72197 1.13985 0
M  V30 1176 H 110.408 2.48381 -0.611586 0
M  V30 1177 H 110.052 4.99005 -0.946374 0
M  V30 1178 H 109.982 5.20158 0.821153 0
M  V30 1179 H 112.473 3.77436 0.187263 0
M  V30 1180 H 112.786 7.72418 -0.242821 0
M  V30 1181 H 111.131 6.94678 -0.211429 0
M  V30 1182 H 114.322 4.67867 0.147773 0
M  V30 1183 H 114.495 6.47982 -0.048121 0
M  V30 1184 N 107.901 -0.206675 1.56239 0
M  V30 1185 C 108.811 -1.27686 1.96808 0
M  V30 1186 C 109.827 -1.50455 0.874035 0
M  V30 1187 O 111.003 -1.63295 1.17884 0
M  V30 1188 C 108.068 -2.60358 2.28942 0
M  V30 1189 C 107.129 -2.45762 3.51994 0
M  V30 1190 C 106.362 -3.72108 3.82585 0
M  V30 1191 O 106.585 -4.75776 3.14631 0
M  V30 1192 O 105.519 -3.6833 4.76043 0
M  V30 1193 H 109.345 -0.962593 2.88041 0
M  V30 1194 H 106.93 -0.410746 1.43643 0
M  V30 1195 H 108.812 -3.38687 2.50737 0
M  V30 1196 H 107.487 -2.91435 1.4088 0
M  V30 1197 H 106.394 -1.65584 3.35459 0
M  V30 1198 H 107.727 -2.19621 4.40486 0
M  V30 1199 N 109.379 -1.50304 -0.473955 0
M  V30 1200 C 110.625 -1.61389 -1.22806 0
M  V30 1201 C 110.958 -0.311955 -1.91678 0
M  V30 1202 O 110.233 0.686384 -1.81986 0
M  V30 1203 C 110.516 -2.79219 -2.27396 0
M  V30 1204 C 110.369 -4.19286 -1.62848 0
M  V30 1205 C 111.688 -2.92614 -3.28732 0
M  V30 1206 H 108.807 -0.587399 -0.445119 0
M  V30 1207 H 111.449 -1.82681 -0.522265 0
M  V30 1208 H 109.599 -2.61195 -2.87592 0
M  V30 1209 H 111.271 -4.48892 -1.06271 0
M  V30 1210 H 109.514 -4.23677 -0.931693 0
M  V30 1211 H 110.185 -4.97655 -2.38838 0
M  V30 1212 H 112.661 -3.09105 -2.78556 0
M  V30 1213 H 111.537 -3.76688 -3.99246 0
M  V30 1214 H 111.798 -2.03107 -3.92683 0
M  V30 1215 N 110.857 0.726932 -1.39834 0
M  V30 1216 C 111.789 1.85147 -1.35104 0
M  V30 1217 C 112.802 1.60736 -0.258392 0
M  V30 1218 O 113.991 1.70821 -0.517931 0
M  V30 1219 C 111.091 3.21332 -1.07697 0
M  V30 1220 C 110.264 3.73033 -2.28396 0
M  V30 1221 C 109.323 4.87802 -1.97322 0
M  V30 1222 O 108.349 5.01043 -2.70083 0
M  V30 1223 N 109.551 5.72768 -0.944273 0
M  V30 1224 H 112.316 1.89706 -2.32017 0
M  V30 1225 H 109.877 0.908006 -1.3404 0
M  V30 1226 H 111.869 3.95691 -0.849144 0
M  V30 1227 H 110.439 3.11992 -0.194909 0
M  V30 1228 H 109.659 2.89934 -2.6708 0
M  V30 1229 H 110.947 4.0431 -3.08887 0
M  V30 1230 H 110.345 5.64669 -0.341427 0
M  V30 1231 H 108.902 6.4716 -0.776346 0
M  V30 1232 N 112.336 1.25143 0.95797 0
M  V30 1233 C 113.266 1.07711 2.07173 0
M  V30 1234 C 114.247 -0.0128462 1.70095 0
M  V30 1235 O 115.432 0.156061 1.93572 0
M  V30 1236 C 112.562 0.691503 3.40346 0
M  V30 1237 C 111.516 1.73132 3.9142 0
M  V30 1238 C 110.842 1.20049 5.21049 0
M  V30 1239 C 112.142 3.1294 4.1817 0
M  V30 1240 H 113.836 2.00873 2.22014 0
M  V30 1241 H 111.382 0.967191 1.06684 0
M  V30 1242 H 113.335 0.556505 4.17709 0
M  V30 1243 H 112.059 -0.275819 3.25433 0
M  V30 1244 H 110.718 1.8547 3.16222 0
M  V30 1245 H 110.366 0.223499 5.02503 0
M  V30 1246 H 110.066 1.89545 5.56189 0
M  V30 1247 H 111.59 1.07782 6.01012 0
M  V30 1248 H 113.004 3.03775 4.86203 0
M  V30 1249 H 111.401 3.79875 4.64559 0
M  V30 1250 H 112.471 3.6025 3.24573 0
M  V30 1251 N 113.814 -1.1601 1.06675 0
M  V30 1252 C 114.747 -2.1947 0.625168 0
M  V30 1253 C 115.725 -1.58699 -0.354041 0
M  V30 1254 O 116.909 -1.86669 -0.262098 0
M  V30 1255 C 114.036 -3.38598 -0.0829593 0
M  V30 1256 C 113.082 -4.1787 0.853611 0
M  V30 1257 S 113.915 -4.81135 2.35094 0
M  V30 1258 C 115.071 -6.03639 1.65441 0
M  V30 1259 H 115.304 -2.56587 1.50168 0
M  V30 1260 H 112.837 -1.26862 0.880078 0
M  V30 1261 H 114.795 -4.07621 -0.485288 0
M  V30 1262 H 113.456 -2.99839 -0.935716 0
M  V30 1263 H 112.649 -5.03078 0.304755 0
M  V30 1264 H 112.251 -3.54361 1.196 0
M  V30 1265 H 114.543 -6.70632 0.962201 0
M  V30 1266 H 115.486 -6.63081 2.48454 0
M  V30 1267 H 115.894 -5.52965 1.13534 0
M  V30 1268 N 115.292 -0.849877 -1.32721 0
M  V30 1269 C 116.239 -0.289033 -2.28983 0
M  V30 1270 C 117.209 0.601324 -1.54833 0
M  V30 1271 O 118.394 0.537253 -1.8308 0
M  V30 1272 C 115.534 0.520623 -3.4115 0
M  V30 1273 C 114.647 -0.394989 -4.3019 0
M  V30 1274 C 113.782 0.426834 -5.29482 0
M  V30 1275 C 112.821 -0.486476 -6.10164 0
M  V30 1276 N 111.958 0.297879 -7.01468 0
M  V30 1277 H 116.798 -1.11519 -2.76347 0
M  V30 1278 H 114.335 -0.56138 -1.35967 0
M  V30 1279 H 116.293 1.00563 -4.04899 0
M  V30 1280 H 114.923 1.31165 -2.9495 0
M  V30 1281 H 113.975 -0.99836 -3.67065 0
M  V30 1282 H 115.287 -1.09612 -4.86607 0
M  V30 1283 H 114.441 0.975205 -5.98811 0
M  V30 1284 H 113.18 1.16136 -4.73671 0
M  V30 1285 H 112.185 -1.04677 -5.39743 0
M  V30 1286 H 113.41 -1.21953 -6.6806 0
M  V30 1287 H 111.356 1.01558 -6.48091 0
M  V30 1288 H 111.273 -0.344318 -7.55216 0
M  V30 1289 H 112.541 0.828131 -7.75089 0
M  V30 1290 N 116.77 1.45427 -0.607355 0
M  V30 1291 C 117.7 2.3329 0.0989352 0
M  V30 1292 C 118.681 1.46816 0.859007 0
M  V30 1293 O 119.866 1.75588 0.829604 0
M  V30 1294 C 116.996 3.29518 1.09705 0
M  V30 1295 C 115.95 4.25626 0.450206 0
M  V30 1296 C 115.276 5.11542 1.55655 0
M  V30 1297 C 116.576 5.18505 -0.628455 0
M  V30 1298 H 118.27 2.92595 -0.634716 0
M  V30 1299 H 115.816 1.40696 -0.306681 0
M  V30 1300 H 117.769 3.89855 1.59971 0
M  V30 1301 H 116.493 2.68372 1.86129 0
M  V30 1302 H 115.152 3.66586 -0.0315886 0
M  V30 1303 H 114.8 4.46765 2.31107 0
M  V30 1304 H 114.5 5.76647 1.12925 0
M  V30 1305 H 116.024 5.74748 2.06148 0
M  V30 1306 H 117.438 5.72916 -0.209877 0
M  V30 1307 H 115.835 5.92085 -0.977489 0
M  V30 1308 H 116.905 4.60948 -1.50514 0
M  V30 1309 N 118.248 0.346503 1.53744 0
M  V30 1310 C 119.178 -0.501193 2.28058 0
M  V30 1311 C 120.159 -1.10014 1.29734 0
M  V30 1312 O 121.344 -1.12097 1.58581 0
M  V30 1313 C 118.474 -1.65078 3.05559 0
M  V30 1314 C 117.428 -1.18003 4.11411 0
M  V30 1315 C 116.754 -2.41837 4.76884 0
M  V30 1316 C 118.054 -0.278394 5.21558 0
M  V30 1317 H 119.748 0.11875 2.99164 0
M  V30 1318 H 117.294 0.0585531 1.43881 0
M  V30 1319 H 119.247 -2.25028 3.56287 0
M  V30 1320 H 117.971 -2.29767 2.32109 0
M  V30 1321 H 116.63 -0.603331 3.61601 0
M  V30 1322 H 116.278 -3.0494 4.00026 0
M  V30 1323 H 115.978 -2.1102 5.48402 0
M  V30 1324 H 117.502 -3.02508 5.30397 0
M  V30 1325 H 118.916 -0.784823 5.67903 0
M  V30 1326 H 117.313 -0.0619707 6.00068 0
M  V30 1327 H 118.383 0.684677 4.80042 0
M  V30 1328 N 119.726 -1.57421 0.075193 0
M  V30 1329 C 120.674 -2.14124 -0.908508 0
M  V30 1330 C 121.668 -1.07898 -1.30592 0
M  V30 1331 O 122.874 -1.26273 -1.28277 0
M  V30 1332 H 119.249 -0.684707 -0.310935 0
M  V30 1333 H 121.22 -2.95634 -0.405374 0
M  V30 1334 C 119.969 -2.72044 -2.16535 0
M  V30 1335 H 119.292 -3.53456 -1.86839 0
M  V30 1336 H 120.732 -3.15311 -2.83469 0
M  V30 1337 C 119.191 -1.66968 -2.92615 0
M  V30 1338 O 119.721 -1.0967 -3.86439 0
M  V30 1339 N 117.927 -1.37923 -2.55784 0
M  V30 1340 H 117.474 -1.84706 -1.79559 0
M  V30 1341 H 117.432 -0.67852 -3.06991 0
M  V30 1342 N 121.204 0.198386 -1.56346 0
M  V30 1343 C 122.154 1.2499 -1.90687 0
M  V30 1344 C 123.138 1.41158 -0.772217 0
M  V30 1345 O 124.33 1.43584 -1.03502 0
M  V30 1346 C 121.459 2.59542 -2.24706 0
M  V30 1347 C 120.545 2.47181 -3.44619 0
M  V30 1348 N 120.936 2.04495 -4.62618 0
M  V30 1349 C 119.234 2.78082 -3.48692 0
M  V30 1350 C 119.935 2.03945 -5.44776 0
M  V30 1351 N 118.911 2.45323 -4.85095 0
M  V30 1352 H 122.713 0.911149 -2.7942 0
M  V30 1353 H 120.227 0.40684 -1.57221 0
M  V30 1354 H 122.224 3.3549 -2.47491 0
M  V30 1355 H 120.884 2.94244 -1.37298 0
M  V30 1356 H 121.895 1.75256 -4.87345 0
M  V30 1357 H 118.572 3.17002 -2.71691 0
M  V30 1358 H 119.962 1.72872 -6.4928 0
M  V30 1359 N 122.682 1.50554 0.465978 0
M  V30 1360 C 124.093 1.54599 1.04671 0
M  V30 1361 C 124.444 0.352488 1.93008 0
M  V30 1362 O 123.569 -0.534044 2.09707 0
M  V30 1363 C 124.164 2.80166 1.90505 0
M  V30 1364 C 122.723 2.86876 2.43678 0
M  V30 1365 C 121.87 2.48947 1.22151 0
M  V30 1366 H 124.821 1.56744 0.248384 0
M  V30 1367 H 124.842 2.62311 2.75633 0
M  V30 1368 H 124.354 3.67013 1.26186 0
M  V30 1369 H 122.455 2.04393 3.11536 0
M  V30 1370 H 122.568 3.89885 2.78436 0
M  V30 1371 H 120.932 2.01498 1.5579 0
M  V30 1372 H 121.715 3.38107 0.594866 0
M  V30 1373 N 124.16 -0.719506 1.40217 0
M  V30 1374 C 125.11 -1.8251 1.36653 0
M  V30 1375 C 126.094 -1.59028 0.244732 0
M  V30 1376 O 127.286 -1.70268 0.483524 0
M  V30 1377 C 124.415 -3.20599 1.22763 0
M  V30 1378 C 123.501 -3.49858 2.39708 0
M  V30 1379 N 123.892 -3.49957 3.6519 0
M  V30 1380 C 122.19 -3.80297 2.33002 0
M  V30 1381 C 122.891 -3.77449 4.42614 0
M  V30 1382 N 121.867 -3.96002 3.72402 0
M  V30 1383 H 125.669 -1.80914 2.31619 0
M  V30 1384 H 123.183 -0.918455 1.33933 0
M  V30 1385 H 125.18 -3.99766 1.18292 0
M  V30 1386 H 123.84 -3.23424 0.287614 0
M  V30 1387 H 124.851 -3.309 3.98404 0
M  V30 1388 H 121.528 -3.90635 1.47346 0
M  V30 1389 H 122.918 -3.83863 5.51451 0
M  V30 1390 N 125.638 -1.25649 -0.95132 0
M  V30 1391 C 126.887 -1.09988 -1.69073 0
M  V30 1392 C 127.2 0.358355 -1.92289 0
M  V30 1393 O 128.406 0.635466 -2.63958 0
M  V30 1394 C 126.862 -1.92012 -3.044 0
M  V30 1395 C 126.47 -3.42347 -2.88968 0
M  V30 1396 C 128.214 -1.8493 -3.82101 0
M  V30 1397 C 126.121 -4.16655 -4.19705 0
M  V30 1398 H 125.051 -0.407993 -0.63408 0
M  V30 1399 H 127.702 -1.49873 -1.05879 0
M  V30 1400 H 126.084 -1.44952 -3.68517 0
M  V30 1401 H 127.258 -3.97104 -2.33762 0
M  V30 1402 H 125.573 -3.50557 -2.24719 0
M  V30 1403 H 128.17 -2.37739 -4.78941 0
M  V30 1404 H 128.513 -0.817883 -4.08187 0
M  V30 1405 H 129.046 -2.29758 -3.2474 0
M  V30 1406 H 125.785 -5.20224 -3.98807 0
M  V30 1407 H 125.305 -3.66681 -4.74663 0
M  V30 1408 H 126.984 -4.24551 -4.88227 0
M  V30 1409 N 127.117 1.15442 -1.07289 0
M  V30 1410 C 128.366 1.85557 -0.790669 0
M  V30 1411 C 128.679 1.83186 0.685739 0
M  V30 1412 O 129.885 2.48977 1.0827 0
M  V30 1413 C 128.341 3.33038 -1.36433 0
M  V30 1414 C 127.949 3.43856 -2.8717 0
M  V30 1415 C 129.693 4.0834 -1.1601 0
M  V30 1416 C 127.6 4.85482 -3.3773 0
M  V30 1417 H 126.53 0.695122 -0.292098 0
M  V30 1418 H 129.181 1.30219 -1.29287 0
M  V30 1419 H 127.563 3.88043 -0.789864 0
M  V30 1420 H 128.737 2.98961 -3.50655 0
M  V30 1421 H 127.052 2.81998 -3.06376 0
M  V30 1422 H 129.649 5.12859 -1.51262 0
M  V30 1423 H 129.992 4.16182 -0.0991007 0
M  V30 1424 H 130.525 3.59603 -1.70089 0
M  V30 1425 H 127.264 4.82823 -4.43353 0
M  V30 1426 H 126.784 5.30961 -2.78999 0
M  V30 1427 H 128.463 5.54335 -3.33648 0
M  V30 1428 N 128.595 0.856903 1.32268 0
M  V30 1429 C 129.542 0.301172 2.28827 0
M  V30 1430 C 130.512 -0.593104 1.5515 0
M  V30 1431 O 131.697 -0.527537 1.83362 0
M  V30 1432 C 128.837 -0.502523 3.41422 0
M  V30 1433 C 127.95 0.417797 4.29975 0
M  V30 1434 C 127.085 -0.398749 5.29701 0
M  V30 1435 C 126.124 0.518827 6.09897 0
M  V30 1436 N 125.261 -0.260674 7.01616 0
M  V30 1437 H 130.101 1.12983 2.75751 0
M  V30 1438 H 127.638 0.568582 1.35667 0
M  V30 1439 H 129.596 -0.984141 4.05426 0
M  V30 1440 H 128.226 -1.29599 2.95642 0
M  V30 1441 H 127.278 1.01781 3.66531 0
M  V30 1442 H 128.59 1.12191 4.86019 0
M  V30 1443 H 127.744 -0.943435 5.9932 0
M  V30 1444 H 126.483 -1.13622 4.7428 0
M  V30 1445 H 125.488 1.07538 5.39181 0
M  V30 1446 H 126.713 1.25495 6.67404 0
M  V30 1447 H 124.659 -0.981198 6.4862 0
M  V30 1448 H 124.576 0.384364 7.55022 0
M  V30 1449 H 125.844 -0.787014 7.75517 0
M  V30 1450 N 130.073 -1.45103 0.615059 0
M  V30 1451 C 131.003 -2.33339 -0.0865619 0
M  V30 1452 C 131.984 -1.4727 -0.851209 0
M  V30 1453 O 133.169 -1.76026 -0.820281 0
M  V30 1454 C 130.299 -3.30095 -1.07956 0
M  V30 1455 C 129.253 -4.25858 -0.427628 0
M  V30 1456 C 128.579 -5.12361 -1.5294 0
M  V30 1457 C 129.879 -5.18165 0.655944 0
M  V30 1458 H 131.573 -2.92254 0.650224 0
M  V30 1459 H 129.119 -1.40532 0.314138 0
M  V30 1460 H 131.072 -3.90698 -1.57901 0
M  V30 1461 H 129.796 -2.69355 -1.84703 0
M  V30 1462 H 128.455 -3.66564 0.0510292 0
M  V30 1463 H 128.103 -4.47984 -2.28734 0
M  V30 1464 H 127.803 -5.77238 -1.09865 0
M  V30 1465 H 129.327 -5.75833 -2.03098 0
M  V30 1466 H 130.741 -5.72796 0.240257 0
M  V30 1467 H 129.138 -5.91559 1.00888 0
M  V30 1468 H 130.208 -4.60144 1.52957 0
M  V30 1469 N 131.551 -0.354651 -1.53558 0
M  V30 1470 C 132.781 0.239167 -2.05211 0
M  V30 1471 C 133.189 1.43879 -1.22863 0
M  V30 1472 O 132.532 1.81857 -0.259565 0
M  V30 1473 C 132.594 0.707251 -3.52474 0
M  V30 1474 C 132.258 -0.374212 -4.55465 0
M  V30 1475 C 133.255 -1.22054 -5.0537 0
M  V30 1476 C 130.94 -0.531323 -4.99482 0
M  V30 1477 C 132.934 -2.20942 -5.97882 0
M  V30 1478 C 130.621 -1.52358 -5.91802 0
M  V30 1479 C 131.619 -2.36108 -6.40892 0
M  V30 1480 O 131.307 -3.33643 -7.31394 0
M  V30 1481 H 131.039 0.0479716 -0.674296 0
M  V30 1482 H 133.593 -0.508121 -1.99016 0
M  V30 1483 H 131.823 1.50596 -3.56171 0
M  V30 1484 H 133.512 1.22285 -3.87042 0
M  V30 1485 H 134.278 -1.1103 -4.7212 0
M  V30 1486 H 130.157 0.110738 -4.60867 0
M  V30 1487 H 133.701 -2.86348 -6.36121 0
M  V30 1488 H 129.598 -1.63434 -6.24467 0
M  V30 1489 H 130.366 -3.29244 -7.4936 0
M  V30 1490 N 133.029 1.57378 -0.0835403 0
M  V30 1491 C 133.961 2.10389 0.909338 0
M  V30 1492 C 134.974 1.03858 1.25369 0
M  V30 1493 O 136.163 1.31338 1.20882 0
M  V30 1494 C 133.263 2.55908 2.2218 0
M  V30 1495 C 132.436 3.86145 2.05453 0
M  V30 1496 C 131.495 4.17633 3.20108 0
M  V30 1497 O 130.521 4.87043 2.94581 0
M  V30 1498 N 131.723 3.72113 4.45547 0
M  V30 1499 H 134.488 2.962 0.456657 0
M  V30 1500 H 132.049 1.61579 0.101877 0
M  V30 1501 H 134.041 2.74027 2.97811 0
M  V30 1502 H 132.611 1.75171 2.58909 0
M  V30 1503 H 131.831 3.7729 1.1422 0
M  V30 1504 H 133.119 4.7137 1.91541 0
M  V30 1505 H 132.517 3.16062 4.69171 0
M  V30 1506 H 131.074 3.95409 5.18165 0
M  V30 1507 N 134.507 -0.190092 1.56449 0
M  V30 1508 C 135.753 -0.911052 1.81184 0
M  V30 1509 C 136.086 -1.82699 0.658396 0
M  V30 1510 O 135.361 -1.91491 -0.340775 0
M  V30 1511 C 135.644 -1.72297 3.16205 0
M  V30 1512 C 135.497 -0.831419 4.42049 0
M  V30 1513 C 136.816 -2.69454 3.47969 0
M  V30 1514 H 133.935 -0.32977 0.659106 0
M  V30 1515 H 136.577 -0.178169 1.89163 0
M  V30 1516 H 134.727 -2.34778 3.09534 0
M  V30 1517 H 136.399 -0.220929 4.60771 0
M  V30 1518 H 134.642 -0.138406 4.33579 0
M  V30 1519 H 135.313 -1.43461 5.33032 0
M  V30 1520 H 137.789 -2.17104 3.54972 0
M  V30 1521 H 136.665 -3.23342 4.43555 0
M  V30 1522 H 136.926 -3.48744 2.71717 0
M  V30 1523 N 135.985 -1.50799 -0.457987 0
M  V30 1524 C 136.918 -1.65273 -1.57353 0
M  V30 1525 C 137.896 -0.500578 -1.54703 0
M  V30 1526 O 139.08 -0.721781 -1.74134 0
M  V30 1527 C 136.207 -1.64737 -2.95938 0
M  V30 1528 C 135.253 -2.8567 -3.16693 0
M  V30 1529 S 136.086 -4.46791 -2.95191 0
M  V30 1530 C 137.242 -4.48968 -4.36095 0
M  V30 1531 H 137.475 -2.59633 -1.44838 0
M  V30 1532 H 135.008 -1.40225 -0.64625 0
M  V30 1533 H 136.966 -1.65112 -3.7583 0
M  V30 1534 H 135.627 -0.715899 -3.05833 0
M  V30 1535 H 134.82 -2.81637 -4.17967 0
M  V30 1536 H 134.422 -2.8293 -2.44594 0
M  V30 1537 H 136.714 -4.23337 -5.28954 0
M  V30 1538 H 137.657 -5.50664 -4.45168 0
M  V30 1539 H 138.065 -3.78522 -4.18786 0
M  V30 1540 N 137.463 0.71206 -1.40597 0
M  V30 1541 C 138.373 1.8562 -1.43466 0
M  V30 1542 C 139.389 1.70902 -0.326902 0
M  V30 1543 O 140.565 1.93105 -0.572043 0
M  V30 1544 C 137.63 3.21451 -1.29884 0
M  V30 1545 C 136.691 3.48398 -2.50833 0
M  V30 1546 C 135.924 4.77749 -2.3789 0
M  V30 1547 O 136.147 5.53089 -1.39459 0
M  V30 1548 O 135.081 5.05111 -3.27333 0
M  V30 1549 H 138.907 1.86155 -2.39958 0
M  V30 1550 H 136.492 0.86295 -1.21957 0
M  V30 1551 H 138.374 4.02579 -1.24531 0
M  V30 1552 H 137.049 3.21636 -0.364997 0
M  V30 1553 H 135.956 2.67265 -2.61763 0
M  V30 1554 H 137.289 3.53014 -3.4299 0
M  V30 1555 N 138.941 1.26152 0.944643 0
M  V30 1556 C 140.169 1.14259 1.72489 0
M  V30 1557 C 140.584 -0.302555 1.8636 0
M  V30 1558 O 139.941 -1.20741 1.36849 0
M  V30 1559 C 139.992 1.80266 3.13347 0
M  V30 1560 O 139.713 3.19133 3.00143 0
M  V30 1561 C 141.214 1.74283 4.07603 0
M  V30 1562 H 138.434 0.398051 0.540181 0
M  V30 1563 H 140.978 1.66706 1.18446 0
M  V30 1564 H 139.133 1.31766 3.64303 0
M  V30 1565 H 139.547 3.51744 3.89071 0
M  V30 1566 H 141.021 2.25111 5.04013 0
M  V30 1567 H 141.498 0.708631 4.33446 0
M  V30 1568 H 142.104 2.22319 3.62567 0
M  V30 1569 N 140.419 -1.14872 1.07899 0
M  V30 1570 C 141.366 -2.19791 0.704319 0
M  V30 1571 C 142.336 -1.63238 -0.306987 0
M  V30 1572 O 143.521 -1.8983 -0.192171 0
M  V30 1573 C 140.661 -3.44911 0.114244 0
M  V30 1574 C 139.774 -4.15637 1.1777 0
M  V30 1575 C 138.909 -5.28324 0.552037 0
M  V30 1576 C 137.948 -5.90875 1.59789 0
M  V30 1577 N 137.085 -6.95022 0.994404 0
M  V30 1578 H 141.925 -2.5119 1.60336 0
M  V30 1579 H 139.462 -1.23356 0.801352 0
M  V30 1580 H 141.42 -4.16477 -0.245544 0
M  V30 1581 H 140.05 -3.14011 -0.74813 0
M  V30 1582 H 139.102 -3.42512 1.65499 0
M  V30 1583 H 140.414 -4.5823 1.97046 0
M  V30 1584 H 139.568 -6.06538 0.1402 0
M  V30 1585 H 138.307 -4.86939 -0.272431 0
M  V30 1586 H 137.312 -5.11369 2.01945 0
M  V30 1587 H 138.537 -6.34337 2.42474 0
M  V30 1588 H 136.483 -6.55722 0.190939 0
M  V30 1589 H 136.4 -7.36073 1.72432 0
M  V30 1590 H 137.668 -7.77123 0.608253 0
M  V30 1591 N 141.898 -0.863906 -1.31812 0
M  V30 1592 C 143.175 -0.39275 -1.91616 0
M  V30 1593 C 143.555 1.12461 -1.7865 0
M  V30 1594 O 142.903 1.95045 -1.19037 0
M  V30 1595 C 143.113 -0.867385 -3.38049 0
M  V30 1596 C 144.461 -0.889966 -4.15168 0
M  V30 1597 O 145.485 -0.812635 -3.46806 0
M  V30 1598 O 144.344 -1.00079 -5.37258 0
M  V30 1599 H 141.438 -0.116358 -0.818773 0
M  V30 1600 H 143.984 -0.951418 -1.40521 0
M  V30 1601 H 142.756 -1.91081 -3.41473 0
M  V30 1602 H 142.379 -0.286687 -3.96565 0
M  V30 1603 N 143.376 1.44774 -0.622745 0
M  V30 1604 C 144.309 2.27792 0.136329 0
M  V30 1605 C 145.287 1.38041 0.859264 0
M  V30 1606 O 146.471 1.67478 0.86506 0
M  V30 1607 C 143.598 3.16776 1.19878 0
M  V30 1608 C 142.644 4.22575 0.57731 0
M  V30 1609 S 143.477 5.31825 -0.626294 0
M  V30 1610 C 144.633 6.24377 0.436378 0
M  V30 1611 H 144.866 2.91824 -0.567967 0
M  V30 1612 H 142.399 1.48838 -0.410677 0
M  V30 1613 H 144.357 3.68596 1.80686 0
M  V30 1614 H 143.018 2.5198 1.87523 0
M  V30 1615 H 142.211 4.84818 1.37721 0
M  V30 1616 H 141.813 3.73974 0.0440439 0
M  V30 1617 H 144.105 6.64689 1.31128 0
M  V30 1618 H 145.048 7.07941 -0.150271 0
M  V30 1619 H 145.456 5.59381 0.758513 0
M  V30 1620 N 144.854 0.36279 1.53368 0
M  V30 1621 C 145.784 -0.476976 2.28576 0
M  V30 1622 C 146.765 -1.08631 1.30894 0
M  V30 1623 O 147.95 -1.10409 1.59761 0
M  V30 1624 C 145.08 -1.61828 3.07293 0
M  V30 1625 C 144.034 -1.13633 4.1264 0
M  V30 1626 C 143.36 -2.36766 4.79423 0
M  V30 1627 C 144.66 -0.223061 5.21823 0
M  V30 1628 H 146.354 0.150474 2.99022 0
M  V30 1629 H 143.9 0.0738103 1.43811 0
M  V30 1630 H 145.853 -2.21237 3.58653 0
M  V30 1631 H 144.577 -2.27292 2.34533 0
M  V30 1632 H 143.236 -0.564945 3.62221 0
M  V30 1633 H 142.884 -3.0068 4.03238 0
M  V30 1634 H 142.584 -2.05192 5.50609 0
M  V30 1635 H 144.108 -2.96865 5.33576 0
M  V30 1636 H 145.522 -0.724545 5.68703 0
M  V30 1637 H 143.919 0.001678 6.001 0
M  V30 1638 H 144.989 0.735553 4.79289 0
M  V30 1639 N 146.332 -1.57332 0.0918853 0
M  V30 1640 C 147.562 -1.98286 -0.580205 0
M  V30 1641 C 147.97 -0.969713 -1.6246 0
M  V30 1642 O 147.313 0.0493501 -1.83634 0
M  V30 1643 C 147.375 -3.35603 -1.28882 0
M  V30 1644 C 147.039 -4.55285 -0.395559 0
M  V30 1645 C 148.036 -5.18687 0.355002 0
M  V30 1646 C 145.721 -5.01314 -0.314556 0
M  V30 1647 C 147.715 -6.26484 1.17458 0
M  V30 1648 C 145.402 -6.08979 0.508677 0
M  V30 1649 C 146.4 -6.71429 1.2519 0
M  V30 1650 O 146.088 -7.77018 2.06151 0
M  V30 1651 H 145.82 -0.656678 -0.160466 0
M  V30 1652 H 148.374 -2.04721 0.16688 0
M  V30 1653 H 146.604 -3.25842 -2.08241 0
M  V30 1654 H 148.293 -3.61026 -1.85512 0
M  V30 1655 H 149.059 -4.84058 0.302134 0
M  V30 1656 H 144.938 -4.5247 -0.882697 0
M  V30 1657 H 148.482 -6.75159 1.75518 0
M  V30 1658 H 144.379 -6.4304 0.563037 0
M  V30 1659 H 145.147 -7.93991 1.98799 0
M  V30 1660 N 147.81 0.181792 -1.56548 0
M  V30 1661 C 149.059 0.898348 -1.8059 0
M  V30 1662 C 149.372 1.83862 -0.667379 0
M  V30 1663 O 150.578 2.59678 -0.792446 0
M  V30 1664 C 149.034 1.64791 -3.19956 0
M  V30 1665 C 148.642 0.751789 -4.41647 0
M  V30 1666 C 150.386 2.35331 -3.53298 0
M  V30 1667 C 148.293 1.50098 -5.72035 0
M  V30 1668 H 147.223 0.339194 -0.673397 0
M  V30 1669 H 149.874 0.151413 -1.82874 0
M  V30 1670 H 148.256 2.43921 -3.11959 0
M  V30 1671 H 149.43 -0.0018076 -4.608 0
M  V30 1672 H 147.745 0.156562 -4.16106 0
M  V30 1673 H 150.342 2.91958 -4.47956 0
M  V30 1674 H 150.685 3.10164 -2.77676 0
M  V30 1675 H 151.218 1.63154 -3.62803 0
M  V30 1676 H 147.957 0.795175 -6.50659 0
M  V30 1677 H 147.477 2.22817 -5.56878 0
M  V30 1678 H 149.156 2.05125 -6.13622 0
M  V30 1679 N 149.288 1.51039 0.449983 0
M  V30 1680 C 150.534 1.63322 1.20223 0
M  V30 1681 C 150.867 0.34241 1.91158 0
M  V30 1682 O 150.142 -0.657344 1.83055 0
M  V30 1683 C 150.425 2.82801 2.22925 0
M  V30 1684 C 150.278 4.21823 1.56157 0
M  V30 1685 C 151.597 2.97807 3.24035 0
M  V30 1686 H 148.716 0.594407 0.435718 0
M  V30 1687 H 151.358 1.83489 0.493136 0
M  V30 1688 H 149.508 2.65738 2.834 0
M  V30 1689 H 151.18 4.50526 0.991162 0
M  V30 1690 H 149.423 4.25105 0.864172 0
M  V30 1691 H 150.094 5.01391 2.30891 0
M  V30 1692 H 152.57 3.13497 2.73603 0
M  V30 1693 H 151.446 3.82992 3.93202 0
M  V30 1694 H 151.707 2.09328 3.89402 0
M  V30 1695 N 150.766 -0.704594 1.40972 0
M  V30 1696 C 151.994 -1.49354 1.43182 0
M  V30 1697 C 152.409 -1.88768 0.0345508 0
M  V30 1698 O 151.766 -1.56184 -0.944081 0
M  V30 1699 C 151.817 -2.76187 2.33244 0
M  V30 1700 O 151.538 -2.38436 3.67532 0
M  V30 1701 C 153.039 -3.7 2.44162 0
M  V30 1702 H 150.259 -0.460559 0.487982 0
M  V30 1703 H 152.803 -0.868261 1.85153 0
M  V30 1704 H 150.958 -3.34974 1.94606 0
M  V30 1705 H 151.372 -3.20126 4.15475 0
M  V30 1706 H 152.846 -4.55803 3.11364 0
M  V30 1707 H 153.323 -4.13867 1.47006 0
M  V30 1708 H 153.929 -3.17121 2.83398 0
M  V30 1709 N 152.244 -1.26651 -0.937939 0
M  V30 1710 C 153.154 -1.10276 -2.07066 0
M  V30 1711 C 154.17 -0.0354197 -1.73964 0
M  V30 1712 O 155.346 -0.239816 -1.99967 0
M  V30 1713 C 152.411 -0.740887 -3.38691 0
M  V30 1714 C 151.472 -1.88799 -3.85556 0
M  V30 1715 C 150.705 -1.54329 -5.10899 0
M  V30 1716 O 150.928 -0.446494 -5.6865 0
M  V30 1717 O 149.862 -2.37911 -5.52885 0
M  V30 1718 H 153.688 -2.05309 -2.23789 0
M  V30 1719 H 151.273 -1.05743 -1.0554 0
M  V30 1720 H 153.155 -0.55195 -4.1777 0
M  V30 1721 H 151.83 0.180022 -3.23199 0
M  V30 1722 H 150.737 -2.13191 -3.07409 0
M  V30 1723 H 152.07 -2.78874 -4.05574 0
M  V30 1724 N 153.722 1.14298 -1.08507 0
M  V30 1725 C 154.969 1.85359 -0.815373 0
M  V30 1726 C 155.297 1.83001 0.658865 0
M  V30 1727 O 154.552 1.25655 1.50031 0
M  V30 1728 C 154.851 3.33547 -1.28379 0
M  V30 1729 C 154.517 3.56093 -2.76602 0
M  V30 1730 C 153.179 3.61955 -3.17084 0
M  V30 1731 C 155.531 3.64834 -3.72217 0
M  V30 1732 C 152.859 3.74082 -4.51973 0
M  V30 1733 C 155.211 3.78487 -5.06883 0
M  V30 1734 C 153.875 3.82598 -5.46969 0
M  V30 1735 H 153.145 0.678276 -0.298366 0
M  V30 1736 H 155.792 1.35002 -1.35819 0
M  V30 1737 H 154.097 3.86191 -0.660593 0
M  V30 1738 H 155.794 3.86959 -1.05186 0
M  V30 1739 H 152.384 3.52179 -2.4427 0
M  V30 1740 H 156.568 3.59595 -3.42061 0
M  V30 1741 H 151.824 3.75527 -4.82483 0
M  V30 1742 H 155.998 3.84193 -5.80834 0
M  V30 1743 H 153.625 3.91747 -6.51489 0
M  V30 1744 N 155.201 0.870884 1.31352 0
M  V30 1745 C 156.164 0.332243 2.26779 0
M  V30 1746 C 157.164 -0.517302 1.52252 0
M  V30 1747 O 158.354 -0.326477 1.71113 0
M  V30 1748 C 155.486 -0.528066 3.36785 0
M  V30 1749 H 156.679 1.17469 2.75937 0
M  V30 1750 H 154.232 0.64655 1.423 0
M  V30 1751 H 154.967 -1.39167 2.92922 0
M  V30 1752 H 154.752 0.0802582 3.92018 0
M  V30 1753 H 156.242 -0.897179 4.07849 0
M  V30 1754 N 156.679 -1.44442 0.630414 0
M  V30 1755 C 157.626 -2.30678 -0.0749355 0
M  V30 1756 C 158.596 -1.4344 -0.837502 0
M  V30 1757 O 159.781 -1.72343 -0.818684 0
M  V30 1758 C 156.921 -3.28706 -1.05103 0
M  V30 1759 C 156.034 -4.31046 -0.286954 0
M  V30 1760 C 155.169 -5.16167 -1.2548 0
M  V30 1761 C 154.208 -6.10216 -0.479843 0
M  V30 1762 N 153.345 -6.88039 -1.39811 0
M  V30 1763 H 158.185 -2.90454 0.666386 0
M  V30 1764 H 155.722 -1.43107 0.340404 0
M  V30 1765 H 157.68 -3.84027 -1.63031 0
M  V30 1766 H 156.31 -2.70632 -1.75949 0
M  V30 1767 H 155.362 -3.78203 0.408243 0
M  V30 1768 H 156.674 -4.97794 0.316657 0
M  V30 1769 H 155.828 -5.76002 -1.90544 0
M  V30 1770 H 154.567 -4.49491 -1.89233 0
M  V30 1771 H 153.572 -5.49491 0.184295 0
M  V30 1772 H 154.797 -6.78928 0.152965 0
M  V30 1773 H 152.743 -6.24032 -2.02287 0
M  V30 1774 H 152.66 -7.51223 -0.848508 0
M  V30 1775 H 153.928 -7.52397 -2.03762 0
M  V30 1776 N 158.157 -0.370918 -1.53173 0
M  V30 1777 C 159.105 0.488101 -2.27421 0
M  V30 1778 C 160.099 1.07884 -1.30604 0
M  V30 1779 O 161.305 1.02143 -1.48212 0
M  V30 1780 H 157.68 0.176134 -0.731082 0
M  V30 1781 H 159.651 -0.159815 -2.97972 0
M  V30 1782 C 158.4 1.61306 -3.08019 0
M  V30 1783 H 157.723 1.1678 -3.82364 0
M  V30 1784 H 159.163 2.18872 -3.63141 0
M  V30 1785 C 157.622 2.55848 -2.19188 0
M  V30 1786 O 158.152 3.58799 -1.80626 0
M  V30 1787 N 156.358 2.2516 -1.83715 0
M  V30 1788 H 155.905 1.41476 -2.15273 0
M  V30 1789 H 155.863 2.8867 -1.24567 0
M  V30 1790 N 159.635 1.57281 -0.100228 0
M  V30 1791 C 160.883 1.94153 0.561157 0
M  V30 1792 C 161.204 0.983157 1.68401 0
M  V30 1793 O 160.474 0.0361132 1.95867 0
M  V30 1794 H 159.054 0.716791 0.210283 0
M  V30 1795 H 161.716 1.94202 -0.164765 0
M  V30 1796 H 160.812 2.96709 0.968008 0
M  V30 1797 N 161.113 -0.173488 1.56642 0
M  V30 1798 C 162.023 -1.23482 1.99473 0
M  V30 1799 C 163.039 -1.48567 0.905752 0
M  V30 1800 O 164.215 -1.60758 1.21321 0
M  V30 1801 C 161.28 -2.55444 2.34413 0
M  V30 1802 C 160.341 -2.38241 3.57127 0
M  V30 1803 C 159.574 -3.63909 3.90392 0
M  V30 1804 O 159.797 -4.68996 3.24653 0
M  V30 1805 O 158.731 -3.58149 4.83749 0
M  V30 1806 H 162.557 -0.901279 2.90018 0
M  V30 1807 H 160.142 -0.380185 1.44482 0
M  V30 1808 H 162.024 -3.33292 2.57865 0
M  V30 1809 H 160.699 -2.88382 1.4703 0
M  V30 1810 H 159.606 -1.58431 3.38896 0
M  V30 1811 H 160.939 -2.10228 4.45045 0
M  V30 1812 N 162.591 -1.51276 -0.441967 0
M  V30 1813 C 163.524 -1.66933 -1.55591 0
M  V30 1814 C 164.502 -0.516958 -1.54163 0
M  V30 1815 O 165.686 -0.740209 -1.73358 0
M  V30 1816 C 162.813 -1.67866 -2.94174 0
M  V30 1817 C 161.859 -2.89013 -3.13646 0
M  V30 1818 S 162.692 -4.49897 -2.90436 0
M  V30 1819 C 163.848 -4.53568 -4.31308 0
M  V30 1820 H 164.081 -2.61155 -1.42076 0
M  V30 1821 H 161.614 -1.40902 -0.631341 0
M  V30 1822 H 163.572 -1.69089 -3.74058 0
M  V30 1823 H 162.233 -0.748296 -3.05056 0
M  V30 1824 H 161.426 -2.86054 -4.14957 0
M  V30 1825 H 161.028 -2.85509 -2.4158 0
M  V30 1826 H 163.32 -4.28924 -5.24434 0
M  V30 1827 H 164.263 -5.55355 -4.39303 0
M  V30 1828 H 164.671 -3.82943 -4.14747 0
M  V30 1829 N 164.069 0.697108 -1.41344 0
M  V30 1830 C 165.316 1.45714 -1.40619 0
M  V30 1831 C 165.644 1.94494 -0.0147907 0
M  V30 1832 O 164.899 1.69794 0.973066 0
M  V30 1833 C 165.198 2.68553 -2.35826 0
M  V30 1834 C 164.864 2.38438 -3.82698 0
M  V30 1835 C 163.526 2.29936 -4.22709 0
M  V30 1836 C 165.878 2.13567 -4.75435 0
M  V30 1837 C 163.206 1.94656 -5.53467 0
M  V30 1838 C 165.558 1.79797 -6.06511 0
M  V30 1839 C 164.222 1.69789 -6.45545 0
M  V30 1840 H 163.492 0.533206 -0.51456 0
M  V30 1841 H 166.139 0.796901 -1.74131 0
M  V30 1842 H 164.444 3.39503 -1.95563 0
M  V30 1843 H 166.141 3.2669 -2.32539 0
M  V30 1844 H 162.731 2.4595 -3.51008 0
M  V30 1845 H 166.915 2.19082 -4.45328 0
M  V30 1846 H 162.171 1.8546 -5.82593 0
M  V30 1847 H 166.345 1.59572 -6.77872 0
M  V30 1848 H 163.972 1.4222 -7.46778 0
M  V30 1849 N 165.547 1.27147 0.931209 0
M  V30 1850 C 166.824 1.0401 1.65654 0
M  V30 1851 C 167.204 -0.426297 2.06751 0
M  V30 1852 O 166.552 -1.40879 1.79904 0
M  V30 1853 C 166.762 1.99834 2.86125 0
M  V30 1854 C 168.11 2.29007 3.57549 0
M  V30 1855 O 169.134 1.97779 2.96246 0
M  V30 1856 O 167.993 2.82222 4.67989 0
M  V30 1857 H 165.087 0.396239 0.725895 0
M  V30 1858 H 167.633 1.38397 0.982056 0
M  V30 1859 H 166.405 2.98744 2.52721 0
M  V30 1860 H 166.028 1.65987 3.61295 0
M  V30 1861 N 167.025 -1.13721 1.09112 0
M  V30 1862 C 168.255 -1.88499 0.845671 0
M  V30 1863 C 168.663 -1.79218 -0.606432 0
M  V30 1864 O 168.006 -1.1544 -1.42896 0
M  V30 1865 C 168.068 -3.38954 1.19793 0
M  V30 1866 C 167.732 -3.72018 2.65428 0
M  V30 1867 C 168.729 -3.7153 3.63677 0
M  V30 1868 C 166.414 -4.01775 3.01467 0
M  V30 1869 C 168.408 -4.00336 4.95994 0
M  V30 1870 C 166.095 -4.30243 4.33975 0
M  V30 1871 C 167.093 -4.29508 5.31048 0
M  V30 1872 O 166.781 -4.5728 6.61173 0
M  V30 1873 H 166.513 -0.603702 0.304171 0
M  V30 1874 H 169.067 -1.44903 1.45576 0
M  V30 1875 H 167.297 -3.83039 0.530871 0
M  V30 1876 H 168.986 -3.95052 0.932146 0
M  V30 1877 H 169.752 -3.4862 3.37179 0
M  V30 1878 H 165.631 -4.01496 2.26544 0
M  V30 1879 H 169.175 -3.99678 5.71755 0
M  V30 1880 H 165.072 -4.52625 4.60219 0
M  V30 1881 H 165.84 -4.74964 6.66597 0
M  V30 1882 N 168.503 -0.877838 -1.30888 0
M  V30 1883 C 169.433 -0.35534 -2.3078 0
M  V30 1884 C 170.414 0.557994 -1.60687 0
M  V30 1885 O 171.599 0.473355 -1.88343 0
M  V30 1886 C 168.729 0.437221 -3.44537 0
M  V30 1887 C 167.683 -0.383715 -4.26276 0
M  V30 1888 C 167.009 0.535014 -5.32017 0
M  V30 1889 C 168.309 -1.62201 -4.96476 0
M  V30 1890 H 170.003 -1.19007 -2.74732 0
M  V30 1891 H 167.549 -0.573698 -1.32078 0
M  V30 1892 H 169.502 0.813334 -4.13477 0
M  V30 1893 H 168.226 1.30553 -2.99372 0
M  V30 1894 H 166.885 -0.741874 -3.59015 0
M  V30 1895 H 166.533 1.40083 -4.831 0
M  V30 1896 H 166.233 -0.0104211 -5.87599 0
M  V30 1897 H 167.757 0.907799 -6.03814 0
M  V30 1898 H 169.171 -1.31689 -5.5797 0
M  V30 1899 H 167.568 -2.10711 -5.61891 0
M  V30 1900 H 168.638 -2.37044 -4.23011 0
M  V30 1901 N 169.982 1.44106 -0.638065 0
M  V30 1902 C 171.21 2.06336 -0.152615 0
M  V30 1903 C 171.625 1.47731 1.17563 0
M  V30 1904 O 170.982 0.602806 1.72257 0
M  V30 1905 C 171.033 3.61479 -0.0391491 0
M  V30 1906 O 170.754 4.17903 -1.31487 0
M  V30 1907 C 172.255 4.40757 0.474176 0
M  V30 1908 H 169.475 0.665862 -0.0828776 0
M  V30 1909 H 172.019 1.84862 -0.87443 0
M  V30 1910 H 170.174 3.82191 0.633142 0
M  V30 1911 H 170.588 5.11416 -1.16421 0
M  V30 1912 H 172.062 5.49707 0.502562 0
M  V30 1913 H 172.539 4.12697 1.50258 0
M  V30 1914 H 173.145 4.24979 -0.165102 0
M  V30 1915 N 171.46 0.379036 1.52974 0
M  V30 1916 C 172.685 -0.209353 2.06341 0
M  V30 1917 C 173.11 -1.40583 1.24972 0
M  V30 1918 O 172.468 -1.79246 0.272155 0
M  V30 1919 C 172.516 -0.567786 3.56102 0
M  V30 1920 O 171.62 -1.66318 3.77375 0
M  V30 1921 H 170.961 -0.0272919 0.663439 0
M  V30 1922 H 173.491 0.543536 1.97248 0
M  V30 1923 H 173.501 -0.835003 3.99364 0
M  V30 1924 H 172.176 0.307013 4.14765 0
M  V30 1925 H 170.753 -1.39048 3.46006 0
M  V30 1926 N 172.938 -1.57226 0.108567 0
M  V30 1927 C 173.886 -2.16002 -0.862885 0
M  V30 1928 C 174.88 -1.10644 -1.28274 0
M  V30 1929 O 176.086 -1.28966 -1.2557 0
M  V30 1930 H 172.461 -0.691148 -0.296342 0
M  V30 1931 H 174.432 -2.96427 -0.342575 0
M  V30 1932 C 173.181 -2.76576 -2.10716 0
M  V30 1933 H 172.504 -3.5734 -1.793 0
M  V30 1934 H 173.944 -3.21253 -2.76717 0
M  V30 1935 C 172.403 -1.73137 -2.89007 0
M  V30 1936 O 172.933 -1.17842 -3.84026 0
M  V30 1937 N 171.139 -1.43317 -2.52801 0
M  V30 1938 H 170.686 -1.88473 -1.75601 0
M  V30 1939 H 170.644 -0.743485 -3.05483 0
M  V30 1940 N 174.416 0.165178 -1.56732 0
M  V30 1941 C 175.664 0.879068 -1.8198 0
M  V30 1942 C 175.985 1.82514 -0.686561 0
M  V30 1943 O 175.255 1.93694 0.293146 0
M  V30 1944 H 173.835 0.327608 -0.671329 0
M  V30 1945 H 176.497 0.163526 -1.94213 0
M  V30 1946 H 175.593 1.45228 -2.76252 0
M  V30 1947 N 175.894 1.51508 0.433938 0
M  V30 1948 C 176.844 1.69451 1.52546 0
M  V30 1949 C 177.828 0.548474 1.51263 0
M  V30 1950 O 179.02 0.804529 1.57659 0
M  V30 1951 C 176.149 1.82604 2.90707 0
M  V30 1952 C 175.235 3.03002 2.96733 0
M  V30 1953 N 175.626 4.26121 2.72496 0
M  V30 1954 C 173.924 3.02327 3.27894 0
M  V30 1955 C 174.625 5.07407 2.84452 0
M  V30 1956 N 173.601 4.42126 3.16269 0
M  V30 1957 H 177.403 2.62305 1.32564 0
M  V30 1958 H 174.917 1.49202 0.641297 0
M  V30 1959 H 176.914 1.93569 3.69238 0
M  V30 1960 H 175.574 0.909339 3.11707 0
M  V30 1961 H 176.585 4.55009 2.4736 0
M  V30 1962 H 173.262 2.20301 3.54646 0
M  V30 1963 H 174.652 6.15422 2.69639 0
M  V30 1964 N 177.372 -0.689602 1.41712 0
M  V30 1965 C 178.302 -1.81577 1.46806 0
M  V30 1966 C 179.283 -1.66945 0.326105 0
M  V30 1967 O 180.468 -1.86588 0.538377 0
M  V30 1968 C 177.598 -3.19762 1.35535 0
M  V30 1969 C 176.552 -3.49107 2.47605 0
M  V30 1970 C 175.878 -4.86711 2.21397 0
M  V30 1971 C 177.178 -3.47483 3.89939 0
M  V30 1972 H 178.872 -1.7757 2.41058 0
M  V30 1973 H 176.418 -0.852887 1.16025 0
M  V30 1974 H 178.371 -3.98263 1.3771 0
M  V30 1975 H 177.095 -3.24409 0.377708 0
M  V30 1976 H 175.754 -2.72959 2.44722 0
M  V30 1977 H 175.402 -4.8799 1.21961 0
M  V30 1978 H 175.102 -5.0731 2.96497 0
M  V30 1979 H 176.626 -5.67515 2.25297 0
M  V30 1980 H 178.04 -4.1598 3.94505 0
M  V30 1981 H 176.437 -3.79615 4.64771 0
M  V30 1982 H 177.507 -2.46341 4.17665 0
M  V30 1983 N 178.85 -1.27639 -0.924453 0
M  V30 1984 C 180.075 -1.17101 -1.71179 0
M  V30 1985 C 180.5 0.268134 -1.86179 0
M  V30 1986 O 179.858 1.19415 -1.36418 0
M  V30 1987 C 179.906 -1.86313 -3.08739 0
M  V30 1988 O 179.01 -1.16331 -3.95652 0
M  V30 1989 H 178.351 -0.407091 -0.524569 0
M  V30 1990 H 180.881 -1.68767 -1.15666 0
M  V30 1991 H 180.891 -1.938 -3.59034 0
M  V30 1992 H 179.566 -2.91001 -2.97138 0
M  V30 1993 H 178.143 -1.16935 -3.54091 0
M  V30 1994 N 180.328 1.1314 -1.09713 0
M  V30 1995 C 181.238 2.22242 -0.751367 0
M  V30 1996 C 182.254 1.72224 0.247938 0
M  V30 1997 O 183.43 2.01205 0.0885463 0
M  V30 1998 C 180.495 3.46231 -0.180274 0
M  V30 1999 C 179.556 4.11125 -1.2359 0
M  V30 2000 C 178.789 5.29195 -0.691966 0
M  V30 2001 O 179.012 5.68342 0.48414 0
M  V30 2002 O 177.946 5.84214 -1.44838 0
M  V30 2003 H 181.772 2.54197 -1.66186 0
M  V30 2004 H 179.357 1.21331 -0.871735 0
M  V30 2005 H 181.239 4.21185 0.134739 0
M  V30 2006 H 179.914 3.1597 0.703185 0
M  V30 2007 H 178.821 3.37985 -1.60366 0
M  V30 2008 H 180.154 4.45524 -2.09211 0
M  V30 2009 N 181.806 0.884767 1.30421 0
M  V30 2010 C 182.754 0.340869 2.30089 0
M  V30 2011 C 183.748 -0.55201 1.60154 0
M  V30 2012 O 184.954 -0.436467 1.74628 0
M  V30 2013 H 181.329 0.0915739 0.746404 0
M  V30 2014 H 183.3 1.19513 2.73421 0
M  V30 2015 C 182.049 -0.429779 3.45034 0
M  V30 2016 H 181.372 0.248024 3.9903 0
M  V30 2017 H 182.812 -0.775445 4.16849 0
M  V30 2018 C 181.271 -1.62677 2.95022 0
M  V30 2019 O 181.801 -2.72614 2.95033 0
M  V30 2020 N 180.007 -1.46387 2.51036 0
M  V30 2021 H 179.554 -0.569506 2.51226 0
M  V30 2022 H 179.512 -2.26612 2.17932 0
M  V30 2023 N 183.284 -1.43765 0.645699 0
M  V30 2024 C 184.194 -2.34544 -0.0512957 0
M  V30 2025 C 185.21 -1.53455 -0.82022 0
M  V30 2026 O 186.386 -1.86133 -0.769176 0
M  V30 2027 C 183.451 -3.31636 -1.01087 0
M  V30 2028 C 182.512 -4.2863 -0.239712 0
M  V30 2029 C 181.745 -5.21084 -1.15358 0
M  V30 2030 O 181.968 -5.1779 -2.39269 0
M  V30 2031 O 180.902 -5.98593 -0.630038 0
M  V30 2032 H 184.728 -2.95624 0.695718 0
M  V30 2033 H 182.313 -1.43781 0.405882 0
M  V30 2034 H 184.195 -3.9136 -1.56254 0
M  V30 2035 H 182.87 -2.73069 -1.73824 0
M  V30 2036 H 181.777 -3.72408 0.355356 0
M  V30 2037 H 183.11 -4.90157 0.447936 0
M  V30 2038 N 184.763 -0.387143 -1.52771 0
M  V30 2039 C 185.726 0.436939 -2.24997 0
M  V30 2040 C 186.726 0.991991 -1.26555 0
M  V30 2041 O 187.916 0.874335 -1.50669 0
M  V30 2042 C 185.048 1.61281 -3.00335 0
M  V30 2043 H 186.241 -0.195365 -2.99263 0
M  V30 2044 H 183.794 -0.139218 -1.55679 0
M  V30 2045 H 184.529 2.2826 -2.30364 0
M  V30 2046 H 184.314 1.22154 -3.72587 0
M  V30 2047 H 185.804 2.19629 -3.5518 0
M  V30 2048 N 186.241 1.57166 -0.116904 0
M  V30 2049 C 187.657 1.5779 0.239693 0
M  V30 2050 C 187.857 1.1295 1.66867 0
M  V30 2051 O 186.913 0.81592 2.38954 0
M  V30 2052 C 188.226 3.00699 0.00828202 0
M  V30 2053 C 189.774 3.12912 0.0743438 0
M  V30 2054 C 190.249 4.57817 -0.129348 0
M  V30 2055 N 191.74 4.63139 -0.075247 0
M  V30 2056 C 192.475 5.73023 -0.207788 0
M  V30 2057 N 191.971 6.91665 -0.396382 0
M  V30 2058 N 193.764 5.61906 -0.14751 0
M  V30 2059 H 185.915 1.84615 -1.05029 0
M  V30 2060 H 188.178 0.85311 -0.41341 0
M  V30 2061 H 187.884 3.37784 -0.979531 0
M  V30 2062 H 187.758 3.69848 0.741077 0
M  V30 2063 H 190.145 2.75686 1.05268 0
M  V30 2064 H 190.226 2.4631 -0.690297 0
M  V30 2065 H 189.87 4.95742 -1.10465 0
M  V30 2066 H 189.8 5.22507 0.655253 0
M  V30 2067 H 192.291 3.7784 0.0670898 0
M  V30 2068 H 192.604 7.71255 -0.488437 0
M  V30 2069 H 190.949 6.93654 -0.432329 0
M  V30 2070 H 194.14 4.681 -0.00115036 0
M  V30 2071 H 194.313 6.47501 -0.254247 0
M  V30 2072 N 187.719 -0.156864 1.56817 0
M  V30 2073 C 188.666 -1.19394 1.97519 0
M  V30 2074 C 189.636 -1.4322 0.841265 0
M  V30 2075 O 190.821 -1.55719 1.10255 0
M  V30 2076 C 187.961 -2.52483 2.35258 0
M  V30 2077 C 187.074 -2.35914 3.61896 0
M  V30 2078 C 186.209 -3.61969 3.88782 0
M  V30 2079 C 185.248 -3.40395 5.08722 0
M  V30 2080 N 184.385 -4.58556 5.31668 0
M  V30 2081 H 189.225 -0.839845 2.85921 0
M  V30 2082 H 186.762 -0.403264 1.41464 0
M  V30 2083 H 188.72 -3.30071 2.55165 0
M  V30 2084 H 187.35 -2.85859 1.49949 0
M  V30 2085 H 186.402 -1.49429 3.49821 0
M  V30 2086 H 187.714 -2.15926 4.49641 0
M  V30 2087 H 186.868 -4.47989 4.09135 0
M  V30 2088 H 185.607 -3.84951 2.9944 0
M  V30 2089 H 184.612 -2.52763 4.88253 0
M  V30 2090 H 185.837 -3.18822 5.99608 0
M  V30 2091 H 183.783 -4.81729 4.45279 0
M  V30 2092 H 183.7 -4.41535 6.13664 0
M  V30 2093 H 184.968 -5.45817 5.5651 0
M  V30 2094 N 189.197 -1.51736 -0.425897 0
M  V30 2095 C 190.144 -1.73875 -1.51776 0
M  V30 2096 C 191.114 -0.580702 -1.55618 0
M  V30 2097 O 192.299 -0.81641 -1.72451 0
M  V30 2098 C 189.439 -1.88012 -2.89388 0
M  V30 2099 C 188.552 -3.15606 -2.94986 0
M  V30 2100 C 187.687 -3.20271 -4.23793 0
M  V30 2101 C 186.726 -4.42134 -4.23302 0
M  V30 2102 N 185.863 -4.44284 -5.43651 0
M  V30 2103 H 190.703 -2.67071 -1.32201 0
M  V30 2104 H 188.24 -1.32351 -0.642008 0
M  V30 2105 H 190.198 -1.9419 -3.69251 0
M  V30 2106 H 188.828 -0.98213 -3.07496 0
M  V30 2107 H 187.88 -3.18681 -2.07717 0
M  V30 2108 H 189.192 -4.05486 -2.90486 0
M  V30 2109 H 188.346 -3.25428 -5.12036 0
M  V30 2110 H 187.085 -2.28299 -4.30965 0
M  V30 2111 H 186.09 -4.3714 -3.3345 0
M  V30 2112 H 187.315 -5.35382 -4.17783 0
M  V30 2113 H 185.261 -3.55188 -5.51523 0
M  V30 2114 H 185.178 -5.27988 -5.41078 0
M  V30 2115 H 186.446 -4.53649 -6.33895 0
M  V30 2116 N 190.675 0.682077 -1.42076 0
M  V30 2117 C 191.922 1.44215 -1.42156 0
M  V30 2118 C 192.25 1.94468 -0.0354186 0
M  V30 2119 O 191.505 1.70816 0.955002 0
M  V30 2120 C 191.804 2.66036 -2.38662 0
M  V30 2121 C 191.47 2.34366 -3.85206 0
M  V30 2122 C 190.132 2.25439 -4.25124 0
M  V30 2123 C 192.484 2.08513 -4.77673 0
M  V30 2124 C 189.812 1.88775 -5.55501 0
M  V30 2125 C 192.164 1.73354 -6.08384 0
M  V30 2126 C 190.828 1.62933 -6.47309 0
M  V30 2127 H 190.098 0.527718 -0.520187 0
M  V30 2128 H 192.745 0.778387 -1.74967 0
M  V30 2129 H 191.05 3.3741 -1.99152 0
M  V30 2130 H 192.747 3.24205 -2.35991 0
M  V30 2131 H 189.337 2.42213 -3.53597 0
M  V30 2132 H 193.521 2.14346 -4.47626 0
M  V30 2133 H 188.777 1.7927 -5.84527 0
M  V30 2134 H 192.951 1.52373 -6.79526 0
M  V30 2135 H 190.578 1.34292 -7.48244 0
M  V30 2136 N 192.153 1.28127 0.917671 0
M  V30 2137 C 193.399 1.16232 1.66918 0
M  V30 2138 C 193.754 -0.28701 1.90247 0
M  V30 2139 O 193.047 -1.20586 1.48895 0
M  V30 2140 C 193.241 1.89018 3.03327 0
M  V30 2141 C 193.07 3.4088 2.9331 0
M  V30 2142 C 191.84 4.10214 2.95047 0
M  V30 2143 C 194.038 4.36689 2.71675 0
M  V30 2144 N 192.02 5.48571 2.75577 0
M  V30 2145 C 193.391 5.62382 2.6101 0
M  V30 2146 C 195.446 4.26661 2.56641 0
M  V30 2147 C 194.149 6.79189 2.36843 0
M  V30 2148 C 196.175 5.432 2.33853 0
M  V30 2149 C 195.537 6.67855 2.23939 0
M  V30 2150 H 191.636 0.48024 0.617166 0
M  V30 2151 H 194.22 1.61727 1.08409 0
M  V30 2152 H 192.391 1.45963 3.59929 0
M  V30 2153 H 194.123 1.69541 3.67475 0
M  V30 2154 H 190.878 3.61762 3.05655 0
M  V30 2155 H 191.302 6.21287 2.68945 0
M  V30 2156 H 195.944 3.30998 2.63059 0
M  V30 2157 H 193.662 7.74926 2.29164 0
M  V30 2158 H 197.248 5.37328 2.23091 0
M  V30 2159 H 196.128 7.56511 2.06546 0
M  V30 2160 N 193.631 -1.12557 1.10312 0
M  V30 2161 C 194.563 -2.17971 0.708625 0
M  V30 2162 C 195.576 -1.60806 -0.254027 0
M  V30 2163 O 196.765 -1.78458 -0.0386891 0
M  V30 2164 C 193.865 -3.38891 0.0248198 0
M  V30 2165 C 193.038 -4.25548 1.01132 0
M  V30 2166 C 192.097 -5.24972 0.35924 0
M  V30 2167 O 191.123 -5.60174 1.00965 0
M  V30 2168 N 192.325 -5.73747 -0.882847 0
M  V30 2169 H 195.09 -2.52427 1.61557 0
M  V30 2170 H 192.651 -1.27967 0.991771 0
M  V30 2171 H 194.643 -4.02485 -0.422852 0
M  V30 2172 H 193.213 -3.02596 -0.784514 0
M  V30 2173 H 192.433 -3.58589 1.6373 0
M  V30 2174 H 193.721 -4.80294 1.67914 0
M  V30 2175 H 193.119 -5.4731 -1.43065 0
M  V30 2176 H 191.676 -6.39234 -1.27369 0
M  V30 2177 N 195.109 -0.891671 -1.2995 0
M  V30 2178 C 196.358 -0.509521 -1.95158 0
M  V30 2179 C 196.671 0.947388 -1.71125 0
M  V30 2180 O 197.877 1.43669 -2.30372 0
M  V30 2181 C 196.333 -0.860315 -3.49466 0
M  V30 2182 C 195.941 -2.33545 -3.8231 0
M  V30 2183 C 197.685 -0.547687 -4.20952 0
M  V30 2184 C 195.592 -2.62752 -5.29826 0
M  V30 2185 H 194.522 -0.18682 -0.730489 0
M  V30 2186 H 197.173 -1.08756 -1.47798 0
M  V30 2187 H 195.555 -0.211285 -3.95436 0
M  V30 2188 H 196.729 -3.02936 -3.47227 0
M  V30 2189 H 195.044 -2.61629 -3.23944 0
M  V30 2190 H 197.641 -0.742854 -5.29515 0
M  V30 2191 H 197.984 0.51332 -4.13123 0
M  V30 2192 H 198.517 -1.1542 -3.80688 0
M  V30 2193 H 195.256 -3.6762 -5.42712 0
M  V30 2194 H 194.776 -1.97977 -5.66185 0
M  V30 2195 H 196.455 -2.48601 -5.97333 0
M  V30 2196 N 196.587 1.43421 -0.653314 0
M  V30 2197 C 197.517 2.33487 0.0246656 0
M  V30 2198 C 198.498 1.49475 0.811863 0
M  V30 2199 O 199.683 1.78139 0.773322 0
M  V30 2200 C 196.813 3.32841 0.99166 0
M  V30 2201 C 195.767 4.26842 0.314568 0
M  V30 2202 C 195.093 5.16236 1.39302 0
M  V30 2203 C 196.393 5.16243 -0.793095 0
M  V30 2204 H 198.087 2.90427 -0.727481 0
M  V30 2205 H 195.633 1.39649 -0.351287 0
M  V30 2206 H 197.586 3.94747 1.47487 0
M  V30 2207 H 196.31 2.74158 1.77497 0
M  V30 2208 H 194.969 3.663 -0.148199 0
M  V30 2209 H 194.617 4.53891 2.16776 0
M  V30 2210 H 194.317 5.79948 0.945223 0
M  V30 2211 H 195.841 5.81015 1.87759 0
M  V30 2212 H 197.255 5.71958 -0.392039 0
M  V30 2213 H 195.652 5.88676 -1.16536 0
M  V30 2214 H 196.722 4.55927 -1.65103 0
M  V30 2215 N 198.065 0.39524 1.52563 0
M  V30 2216 C 199.29 -0.187456 2.06551 0
M  V30 2217 C 199.715 -1.39249 1.26457 0
M  V30 2218 O 199.073 -1.78947 0.291151 0
M  V30 2219 C 199.121 -0.529985 3.56684 0
M  V30 2220 O 198.225 -1.62307 3.79118 0
M  V30 2221 H 197.566 -0.0202537 0.663691 0
M  V30 2222 H 200.096 0.564426 1.96661 0
M  V30 2223 H 200.106 -0.792598 4.00227 0
M  V30 2224 H 198.781 0.350987 4.14416 0
M  V30 2225 H 197.358 -1.3537 3.47461 0
M  V30 2226 N 199.544 -1.57102 0.125237 0
M  V30 2227 C 200.507 -2.14471 -0.80838 0
M  V30 2228 C 201.507 -1.0811 -1.19033 0
M  V30 2229 O 202.697 -1.33856 -1.11482 0
M  V30 2230 C 199.829 -2.69005 -2.09402 0
M  V30 2231 H 201.022 -2.98297 -0.309696 0
M  V30 2232 H 198.575 -1.55807 -0.124051 0
M  V30 2233 H 199.31 -1.88785 -2.63687 0
M  V30 2234 H 199.095 -3.46799 -1.82957 0
M  V30 2235 H 200.585 -3.13278 -2.76128 0
M  V30 2236 N 201.022 0.148545 -1.56898 0
M  V30 2237 C 202.268 0.862694 -1.83536 0
M  V30 2238 C 202.601 1.80889 -0.706604 0
M  V30 2239 O 201.876 1.92328 0.289885 0
M  V30 2240 C 202.159 1.63853 -3.20662 0
M  V30 2241 C 202.012 0.713925 -4.44098 0
M  V30 2242 C 203.331 2.60133 -3.54991 0
M  V30 2243 H 200.45 0.312179 -0.667618 0
M  V30 2244 H 203.092 0.127953 -1.89569 0
M  V30 2245 H 201.242 2.26489 -3.1565 0
M  V30 2246 H 202.914 0.098686 -4.61194 0
M  V30 2247 H 201.157 0.0234019 -4.33794 0
M  V30 2248 H 201.828 1.29278 -5.36648 0
M  V30 2249 H 204.304 2.07616 -3.60603 0
M  V30 2250 H 203.18 3.11468 -4.51972 0
M  V30 2251 H 203.441 3.41417 -2.80868 0
M  V30 2252 N 202.5 1.5196 0.417844 0
M  V30 2253 C 203.41 1.77554 1.53336 0
M  V30 2254 C 204.426 0.660655 1.6097 0
M  V30 2255 O 205.602 0.945099 1.77848 0
M  V30 2256 C 202.667 1.91291 2.89152 0
M  V30 2257 C 201.728 3.15183 2.91475 0
M  V30 2258 C 200.961 3.28256 4.20813 0
M  V30 2259 O 201.184 2.46798 5.14244 0
M  V30 2260 O 200.118 4.21356 4.29817 0
M  V30 2261 H 203.944 2.7222 1.34647 0
M  V30 2262 H 201.529 1.36698 0.602828 0
M  V30 2263 H 203.411 2.02199 3.69721 0
M  V30 2264 H 202.086 0.998129 3.07927 0
M  V30 2265 H 200.993 3.09739 2.09791 0
M  V30 2266 H 202.326 4.06414 2.77648 0
M  V30 2267 N 203.978 -0.674533 1.42435 0
M  V30 2268 C 205.208 -1.46071 1.46105 0
M  V30 2269 C 205.616 -1.89067 0.0709605 0
M  V30 2270 O 204.959 -1.58731 -0.924677 0
M  V30 2271 C 205.021 -2.74145 2.32561 0
M  V30 2272 C 204.685 -2.53224 3.8043 0
M  V30 2273 C 205.682 -2.17809 4.72075 0
M  V30 2274 C 203.367 -2.6821 4.24698 0
M  V30 2275 C 205.361 -1.97648 6.05982 0
M  V30 2276 C 203.048 -2.47665 5.58664 0
M  V30 2277 C 204.046 -2.12437 6.49122 0
M  V30 2278 O 203.734 -1.9209 7.80613 0
M  V30 2279 H 203.466 -0.455959 0.499076 0
M  V30 2280 H 206.02 -0.836193 1.87609 0
M  V30 2281 H 204.25 -3.3908 1.85908 0
M  V30 2282 H 205.939 -3.36028 2.27683 0
M  V30 2283 H 206.705 -2.05826 4.39159 0
M  V30 2284 H 202.584 -2.94609 3.54579 0
M  V30 2285 H 206.128 -1.70075 6.7655 0
M  V30 2286 H 202.025 -2.59244 5.91154 0
M  V30 2287 H 202.793 -2.06686 7.91974 0
M  V30 2288 N 205.456 -1.28612 -0.910864 0
M  V30 2289 C 206.696 -1.1719 -1.67469 0
M  V30 2290 C 207.06 0.274441 -1.90028 0
M  V30 2291 O 208.261 0.511425 -2.6389 0
M  V30 2292 C 206.532 -1.95137 -2.99427 0
M  V30 2293 S 208.091 -2.00122 -3.90508 0
M  V30 2294 H 204.909 -0.41806 -0.575106 0
M  V30 2295 H 207.511 -1.6275 -1.08317 0
M  V30 2296 H 206.215 -2.99381 -2.80712 0
M  V30 2297 H 205.746 -1.50137 -3.63624 0
M  V30 2298 H 207.761 -1.10981 -4.8363 0
M  V30 2299 N 206.934 1.1197 -1.10907 0
M  V30 2300 C 207.884 2.15946 -0.731538 0
M  V30 2301 C 208.868 1.58758 0.261699 0
M  V30 2302 O 210.06 1.76863 0.0696722 0
M  V30 2303 C 207.189 3.42877 -0.170299 0
M  V30 2304 C 206.275 4.07037 -1.19087 0
M  V30 2305 N 206.666 4.46135 -2.38322 0
M  V30 2306 C 204.964 4.33884 -1.03252 0
M  V30 2307 C 205.665 4.96331 -3.03366 0
M  V30 2308 N 204.641 4.9214 -2.30865 0
M  V30 2309 H 208.443 2.43947 -1.63912 0
M  V30 2310 H 205.957 1.28927 -0.987505 0
M  V30 2311 H 207.954 4.16732 0.118271 0
M  V30 2312 H 206.614 3.16343 0.731935 0
M  V30 2313 H 207.625 4.38345 -2.75815 0
M  V30 2314 H 204.302 4.17084 -0.186256 0
M  V30 2315 H 205.692 5.36257 -4.04818 0
M  V30 2316 N 208.412 0.89855 1.29475 0
M  V30 2317 C 209.689 0.443416 1.90508 0
M  V30 2318 C 210.069 -1.07685 1.81569 0
M  V30 2319 O 209.417 -1.9182 1.24166 0
M  V30 2320 C 209.627 0.956708 3.35631 0
M  V30 2321 C 210.975 0.999728 4.12663 0
M  V30 2322 O 211.999 0.904299 3.4453 0
M  V30 2323 O 210.858 1.14289 5.34416 0
M  V30 2324 H 207.952 0.138025 0.815401 0
M  V30 2325 H 210.498 0.98834 1.37949 0
M  V30 2326 H 209.27 2.00067 3.36287 0
M  V30 2327 H 208.893 0.391728 3.95666 0
M  V30 2328 N 209.89 -1.43072 0.660911 0
M  V30 2329 C 210.84 -2.27948 -0.04847 0
M  V30 2330 C 211.824 -1.40325 -0.787246 0
M  V30 2331 O 213.016 -1.63893 -0.668446 0
M  V30 2332 C 210.145 -3.28143 -1.00881 0
M  V30 2333 C 209.231 -4.23252 -0.268108 0
M  V30 2334 N 209.622 -5.00656 0.719528 0
M  V30 2335 C 207.92 -4.43092 -0.508493 0
M  V30 2336 C 208.621 -5.70019 1.15988 0
M  V30 2337 N 207.597 -5.41364 0.492584 0
M  V30 2338 H 211.399 -2.85213 0.709279 0
M  V30 2339 H 208.913 -1.54869 0.488822 0
M  V30 2340 H 210.91 -3.87736 -1.53188 0
M  V30 2341 H 209.57 -2.7244 -1.76654 0
M  V30 2342 H 210.581 -5.06115 1.09855 0
M  V30 2343 H 207.258 -3.98449 -1.24679 0
M  V30 2344 H 208.648 -6.4214 1.97751 0
M  V30 2345 N 211.368 -0.403325 -1.52352 0
M  V30 2346 C 212.318 0.442244 -2.2367 0
M  V30 2347 C 213.302 1.01823 -1.24583 0
M  V30 2348 O 214.494 0.942005 -1.49851 0
M  V30 2349 C 211.623 1.5615 -3.05732 0
M  V30 2350 C 210.709 0.996575 -4.12225 0
M  V30 2351 N 211.1 0.157804 -5.05554 0
M  V30 2352 C 209.398 1.26767 -4.27605 0
M  V30 2353 C 210.099 -0.155853 -5.81491 0
M  V30 2354 N 209.075 0.451775 -5.41719 0
M  V30 2355 H 212.877 -0.204964 -2.93184 0
M  V30 2356 H 210.391 -0.213418 -1.60992 0
M  V30 2357 H 212.388 2.17981 -3.55373 0
M  V30 2358 H 211.048 2.21139 -2.37755 0
M  V30 2359 H 212.059 -0.206049 -5.1749 0
M  V30 2360 H 208.736 1.91757 -3.70858 0
M  V30 2361 H 210.126 -0.836329 -6.66675 0
M  V30 2362 N 212.846 1.57033 -0.133567 0
M  V30 2363 C 214.095 1.94861 0.520768 0
M  V30 2364 C 214.408 1.02012 1.66892 0
M  V30 2365 O 215.614 1.29365 2.38699 0
M  V30 2366 C 214.07 3.46362 0.977809 0
M  V30 2367 C 213.678 4.47773 -0.142674 0
M  V30 2368 C 215.422 3.93083 1.60269 0
M  V30 2369 C 213.329 5.90468 0.331883 0
M  V30 2370 H 212.259 0.727453 0.198315 0
M  V30 2371 H 214.91 1.82227 -0.215759 0
M  V30 2372 H 213.292 3.54282 1.7692 0
M  V30 2373 H 214.466 4.51536 -0.919317 0
M  V30 2374 H 212.781 4.10891 -0.675124 0
M  V30 2375 H 215.378 4.97121 1.96914 0
M  V30 2376 H 215.721 3.33876 2.48662 0
M  V30 2377 H 216.254 3.88025 0.876453 0
M  V30 2378 H 212.993 6.53463 -0.516341 0
M  V30 2379 H 212.513 5.90094 1.07469 0
M  V30 2380 H 214.192 6.42179 0.788332 0
M  V30 2381 N 214.325 -0.140222 1.56975 0
M  V30 2382 C 215.571 -0.852949 1.83991 0
M  V30 2383 C 215.904 -1.80512 0.716187 0
M  V30 2384 O 215.179 -1.92479 -0.279681 0
M  V30 2385 C 215.462 -1.6215 3.21527 0
M  V30 2386 C 215.315 -0.690363 4.4447 0
M  V30 2387 C 216.634 -2.58247 3.56366 0
M  V30 2388 H 213.753 -0.308634 0.669264 0
M  V30 2389 H 216.395 -0.117898 1.89634 0
M  V30 2390 H 214.545 -2.24812 3.16847 0
M  V30 2391 H 216.217 -0.0742264 4.6124 0
M  V30 2392 H 214.46 -0.000396433 4.338 0
M  V30 2393 H 215.131 -1.2643 5.37326 0
M  V30 2394 H 217.607 -2.05701 3.61699 0
M  V30 2395 H 216.483 -3.09067 4.53617 0
M  V30 2396 H 216.744 -3.39923 2.82674 0
M  V30 2397 N 215.803 -1.52179 -0.40978 0
M  V30 2398 C 216.753 -1.71857 -1.49831 0
M  V30 2399 C 217.737 -0.572469 -1.50372 0
M  V30 2400 O 218.929 -0.829509 -1.56359 0
M  V30 2401 C 216.058 -1.87206 -2.87765 0
M  V30 2402 C 215.144 -3.07685 -2.91875 0
M  V30 2403 N 215.535 -4.30403 -2.65683 0
M  V30 2404 C 213.833 -3.07505 -3.23043 0
M  V30 2405 C 214.534 -5.11868 -2.76344 0
M  V30 2406 N 213.51 -4.47101 -3.09195 0
M  V30 2407 H 217.312 -2.64381 -1.28375 0
M  V30 2408 H 214.826 -1.50203 -0.617479 0
M  V30 2409 H 216.823 -1.99419 -3.66111 0
M  V30 2410 H 215.483 -0.958814 -3.10221 0
M  V30 2411 H 216.494 -4.58887 -2.4009 0
M  V30 2412 H 213.171 -2.25915 -3.51096 0
M  V30 2413 H 214.561 -6.19634 -2.59814 0
M  V30 2414 N 217.281 0.66697 -1.42791 0
M  V30 2415 C 218.697 0.981027 -1.25889 0
M  V30 2416 C 218.897 2.00793 -0.168695 0
M  V30 2417 O 217.953 2.48321 0.45747 0
M  V30 2418 C 219.266 1.47838 -2.61848 0
M  V30 2419 C 220.814 1.59575 -2.69267 0
M  V30 2420 C 221.289 2.12704 -4.05612 0
M  V30 2421 N 222.78 2.20026 -4.07606 0
M  V30 2422 C 223.515 2.62227 -5.09926 0
M  V30 2423 N 223.011 3.03824 -6.22626 0
M  V30 2424 N 224.804 2.62045 -4.97281 0
M  V30 2425 H 216.955 -0.0127891 -2.12396 0
M  V30 2426 H 219.218 0.0568258 -0.946295 0
M  V30 2427 H 218.924 0.798299 -3.4252 0
M  V30 2428 H 218.798 2.45579 -2.86305 0
M  V30 2429 H 221.185 2.26687 -1.88936 0
M  V30 2430 H 221.266 0.60302 -2.48591 0
M  V30 2431 H 220.91 1.46198 -4.86404 0
M  V30 2432 H 220.84 3.12782 -4.23645 0
M  V30 2433 H 223.331 1.90708 -3.2625 0
M  V30 2434 H 223.644 3.34734 -6.96544 0
M  V30 2435 H 221.989 3.01662 -6.26119 0
M  V30 2436 H 225.18 2.28916 -4.08308 0
M  V30 2437 H 225.353 2.94613 -5.77154 0
M  V30 2438 N 218.759 1.29093 0.90403 0
M  V30 2439 C 220.036 1.075 1.63411 0
M  V30 2440 C 220.416 -0.382346 2.07609 0
M  V30 2441 O 219.764 -1.37031 1.82851 0
M  V30 2442 C 219.974 2.05858 2.81822 0
M  V30 2443 C 221.322 2.36539 3.52611 0
M  V30 2444 O 222.346 2.04019 2.91984 0
M  V30 2445 O 221.205 2.92085 4.61897 0
M  V30 2446 H 218.299 0.411547 0.717327 0
M  V30 2447 H 220.845 1.40449 0.952479 0
M  V30 2448 H 219.617 3.04037 2.46327 0
M  V30 2449 H 219.24 1.73613 3.57693 0
M  V30 2450 N 220.237 -1.11381 1.11499 0
M  V30 2451 C 221.167 -2.19509 0.796125 0
M  V30 2452 C 222.148 -1.68458 -0.235796 0
M  V30 2453 O 223.333 -1.93947 -0.0991344 0
M  V30 2454 C 220.463 -3.46475 0.239205 0
M  V30 2455 C 219.417 -4.10744 1.20307 0
M  V30 2456 C 218.743 -5.32293 0.50683 0
M  V30 2457 C 220.043 -4.55597 2.55399 0
M  V30 2458 H 221.737 -2.46439 1.70024 0
M  V30 2459 H 219.283 -1.18446 0.818935 0
M  V30 2460 H 221.236 -4.214 0.00392006 0
M  V30 2461 H 219.96 -3.19006 -0.700206 0
M  V30 2462 H 218.619 -3.37813 1.42399 0
M  V30 2463 H 218.267 -5.01095 -0.437408 0
M  V30 2464 H 217.967 -5.76243 1.1497 0
M  V30 2465 H 219.491 -6.09956 0.280351 0
M  V30 2466 H 220.905 -5.21841 2.37391 0
M  V30 2467 H 219.302 -5.10363 3.15673 0
M  V30 2468 H 220.372 -3.69013 3.14575 0
M  V30 2469 N 221.715 -0.905404 -1.28997 0
M  V30 2470 C 222.662 -0.385892 -2.27551 0
M  V30 2471 C 223.632 0.535113 -1.57244 0
M  V30 2472 O 224.817 0.459119 -1.85194 0
M  V30 2473 C 221.957 0.375461 -3.43051 0
M  V30 2474 C 221.07 -0.577092 -4.28128 0
M  V30 2475 C 220.205 0.201879 -5.30816 0
M  V30 2476 C 219.244 -0.744829 -6.07551 0
M  V30 2477 N 218.381 9.42587e-05 -7.021 0
M  V30 2478 H 223.221 -1.23139 -2.71368 0
M  V30 2479 H 220.758 -0.618542 -1.33463 0
M  V30 2480 H 222.716 0.832992 -4.088 0
M  V30 2481 H 221.346 1.18537 -3.00248 0
M  V30 2482 H 220.398 -1.15315 -3.62501 0
M  V30 2483 H 221.71 -1.30152 -4.8152 0
M  V30 2484 H 220.864 0.720351 -6.02408 0
M  V30 2485 H 219.603 0.959413 -4.7817 0
M  V30 2486 H 218.608 -1.27475 -5.34818 0
M  V30 2487 H 219.833 -1.50178 -6.62286 0
M  V30 2488 H 217.779 0.739791 -6.51815 0
M  V30 2489 H 217.696 -0.664321 -7.53076 0
M  V30 2490 H 218.964 0.498644 -7.77903 0
M  V30 2491 N 223.193 1.4272 -0.668489 0
M  V30 2492 C 224.421 2.05966 -0.196348 0
M  V30 2493 C 224.836 1.50191 1.14403 0
M  V30 2494 O 224.193 0.639208 1.7094 0
M  V30 2495 C 224.244 3.61314 -0.115815 0
M  V30 2496 O 223.965 4.1502 -1.40322 0
M  V30 2497 C 225.466 4.41663 0.380579 0
M  V30 2498 H 222.686 0.663954 -0.0969829 0
M  V30 2499 H 225.23 1.82966 -0.913446 0
M  V30 2500 H 223.385 3.83448 0.551931 0
M  V30 2501 H 223.799 5.08832 -1.27243 0
M  V30 2502 H 225.273 5.5065 0.385848 0
M  V30 2503 H 225.75 4.15792 1.41471 0
M  V30 2504 H 226.356 4.24534 -0.255209 0
M  V30 2505 N 224.671 0.411399 1.52136 0
M  V30 2506 C 225.581 -0.419774 2.30814 0
M  V30 2507 C 226.597 -1.0515 1.38634 0
M  V30 2508 O 227.773 -1.05252 1.71709 0
M  V30 2509 C 224.838 -1.52019 3.11594 0
M  V30 2510 C 223.899 -0.91129 4.19516 0
M  V30 2511 C 223.132 -1.95927 4.96436 0
M  V30 2512 O 223.355 -3.17775 4.73683 0
M  V30 2513 O 222.289 -1.56423 5.81219 0
M  V30 2514 H 226.115 0.221805 3.02889 0
M  V30 2515 H 223.7 0.174547 1.48377 0
M  V30 2516 H 225.582 -2.15898 3.61892 0
M  V30 2517 H 224.257 -2.14633 2.42311 0
M  V30 2518 H 223.164 -0.235157 3.7336 0
M  V30 2519 H 224.497 -0.32904 4.91099 0
M  V30 2520 N 226.149 -1.5696 0.141893 0
M  V30 2521 C 227.097 -2.17784 -0.816874 0
M  V30 2522 C 228.091 -1.1334 -1.25899 0
M  V30 2523 O 229.297 -1.316 -1.22806 0
M  V30 2524 H 225.672 -0.697278 -0.281615 0
M  V30 2525 H 227.643 -2.97087 -0.279621 0
M  V30 2526 C 226.392 -2.80983 -2.04802 0
M  V30 2527 H 225.715 -3.61062 -1.7168 0
M  V30 2528 H 227.155 -3.2705 -2.69841 0
M  V30 2529 C 225.614 -1.79228 -2.8527 0
M  V30 2530 O 226.144 -1.25962 -3.8144 0
M  V30 2531 N 224.35 -1.48647 -2.49704 0
M  V30 2532 H 223.897 -1.92155 -1.71564 0
M  V30 2533 H 223.855 -0.808115 -3.03837 0
M  V30 2534 N 227.627 0.131896 -1.57047 0
M  V30 2535 C 228.557 1.16384 -2.02428 0
M  V30 2536 C 229.538 1.43936 -0.90644 0
M  V30 2537 O 230.723 1.54599 -1.17528 0
M  V30 2538 C 227.853 2.49328 -2.4177 0
M  V30 2539 C 226.807 2.36266 -3.56879 0
M  V30 2540 C 226.133 3.74057 -3.8208 0
M  V30 2541 C 227.433 1.834 -4.89042 0
M  V30 2542 H 229.127 0.786433 -2.88887 0
M  V30 2543 H 226.673 0.376855 -1.38981 0
M  V30 2544 H 228.626 3.21759 -2.7212 0
M  V30 2545 H 227.35 2.88934 -1.52266 0
M  V30 2546 H 226.009 1.66286 -3.26718 0
M  V30 2547 H 225.657 4.11125 -2.89803 0
M  V30 2548 H 225.357 3.66174 -4.59554 0
M  V30 2549 H 226.881 4.48012 -4.1487 0
M  V30 2550 H 228.295 2.45636 -5.18011 0
M  V30 2551 H 226.692 1.8637 -5.70426 0
M  V30 2552 H 227.762 0.790662 -4.7841 0
M  V30 2553 N 229.106 1.52395 0.401703 0
M  V30 2554 C 230.036 1.79231 1.49661 0
M  V30 2555 C 231.017 0.643654 1.57452 0
M  V30 2556 O 232.202 0.889989 1.72606 0
M  V30 2557 C 229.332 1.94971 2.87409 0
M  V30 2558 C 228.286 3.10604 2.94465 0
M  V30 2559 C 227.612 3.11577 4.34538 0
M  V30 2560 C 228.912 4.49921 2.6527 0
M  V30 2561 H 230.606 2.70917 1.27454 0
M  V30 2562 H 228.152 1.30362 0.6117 0
M  V30 2563 H 230.105 2.12328 3.63999 0
M  V30 2564 H 228.829 0.999632 3.10926 0
M  V30 2565 H 227.488 2.93009 2.20321 0
M  V30 2566 H 227.136 2.14277 4.55076 0
M  V30 2567 H 226.836 3.89247 4.40183 0
M  V30 2568 H 228.36 3.31073 5.13053 0
M  V30 2569 H 229.774 4.67683 3.31581 0
M  V30 2570 H 228.171 5.29564 2.82281 0
M  V30 2571 H 229.241 4.57507 1.60671 0
M  V30 2572 N 230.584 -0.659388 1.43143 0
M  V30 2573 C 231.514 -1.78422 1.50625 0
M  V30 2574 C 232.495 -1.66216 0.361443 0
M  V30 2575 O 233.68 -1.85404 0.577834 0
M  V30 2576 C 230.81 -3.16815 1.42287 0
M  V30 2577 C 229.764 -3.43777 2.54954 0
M  V30 2578 C 229.09 -4.81905 2.31671 0
M  V30 2579 C 230.39 -3.39134 3.97222 0
M  V30 2580 H 232.084 -1.72417 2.44771 0
M  V30 2581 H 229.63 -0.828084 1.17808 0
M  V30 2582 H 231.583 -3.95253 1.46127 0
M  V30 2583 H 230.307 -3.23534 0.446435 0
M  V30 2584 H 228.966 -2.67707 2.50457 0
M  V30 2585 H 228.614 -4.85294 1.32284 0
M  V30 2586 H 228.314 -5.00906 3.07192 0
M  V30 2587 H 229.838 -5.62609 2.37284 0
M  V30 2588 H 231.252 -4.07518 4.03239 0
M  V30 2589 H 229.649 -3.69671 4.72719 0
M  V30 2590 H 230.719 -2.37426 4.22797 0
M  V30 2591 N 232.062 -1.29571 -0.897171 0
M  V30 2592 C 233.339 -1.08365 -1.62839 0
M  V30 2593 C 233.719 0.371331 -2.07808 0
M  V30 2594 O 233.067 1.3606 -1.83576 0
M  V30 2595 C 233.277 -2.0735 -2.80726 0
M  V30 2596 C 234.625 -2.38406 -3.51351 0
M  V30 2597 O 235.649 -2.05564 -2.90898 0
M  V30 2598 O 234.508 -2.9453 -4.60341 0
M  V30 2599 H 231.602 -0.415345 -0.715134 0
M  V30 2600 H 234.148 -1.40952 -0.945018 0
M  V30 2601 H 232.92 -3.05339 -2.44711 0
M  V30 2602 H 232.543 -1.75507 -3.56767 0
M  V30 2603 N 233.54 1.10788 -1.12088 0
M  V30 2604 C 234.788 1.8231 -0.872205 0
M  V30 2605 C 235.109 1.85419 0.603709 0
M  V30 2606 O 234.379 1.32963 1.43867 0
M  V30 2607 H 232.959 0.675137 -0.319686 0
M  V30 2608 H 235.621 1.34068 -1.41463 0
M  V30 2609 H 234.717 2.85955 -1.25045 0
M  V30 2610 N 235.018 0.912232 1.28515 0
M  V30 2611 C 235.966 0.389597 2.29314 0
M  V30 2612 C 236.96 -0.517915 1.61289 0
M  V30 2613 O 238.166 -0.399328 1.75515 0
M  V30 2614 H 234.541 0.107386 0.744293 0
M  V30 2615 H 236.512 1.25286 2.70825 0
M  V30 2616 C 235.261 -0.356496 3.45868 0
M  V30 2617 H 234.584 0.332608 3.98414 0
M  V30 2618 H 236.024 -0.686851 4.184 0
M  V30 2619 C 234.483 -1.56383 2.98406 0
M  V30 2620 O 235.013 -2.66294 3.00749 0
M  V30 2621 N 233.219 -1.41029 2.54085 0
M  V30 2622 H 232.766 -0.516089 2.52377 0
M  V30 2623 H 232.724 -2.21939 2.22689 0
M  V30 2624 N 236.496 -1.42363 0.676048 0
M  V30 2625 C 237.429 -2.28141 -0.0516916 0
M  V30 2626 C 238.407 -1.41135 -0.807439 0
M  V30 2627 O 239.591 -1.70573 -0.802305 0
M  V30 2628 C 236.718 -3.21007 -1.08039 0
M  V30 2629 C 235.764 -4.24426 -0.420076 0
M  V30 2630 S 236.597 -5.29134 0.823246 0
M  V30 2631 C 237.753 -6.25566 -0.204344 0
M  V30 2632 H 237.986 -2.89515 0.675884 0
M  V30 2633 H 235.519 -1.47211 0.465635 0
M  V30 2634 H 237.477 -3.75048 -1.66881 0
M  V30 2635 H 236.138 -2.58766 -1.78042 0
M  V30 2636 H 235.331 -4.89596 -1.19633 0
M  V30 2637 H 234.933 -3.7388 0.0947845 0
M  V30 2638 H 237.225 -6.69098 -1.06369 0
M  V30 2639 H 238.168 -7.06895 0.412915 0
M  V30 2640 H 238.576 -5.61811 -0.55038 0
M  V30 2641 N 237.974 -0.419461 -1.51915 0
M  V30 2642 C 239.251 0.211999 -1.94448 0
M  V30 2643 C 239.631 1.61703 -1.35703 0
M  V30 2644 O 238.979 2.22102 -0.536931 0
M  V30 2645 C 239.189 0.207872 -3.4838 0
M  V30 2646 C 240.537 0.422192 -4.22496 0
M  V30 2647 O 241.561 0.286778 -3.55044 0
M  V30 2648 O 240.42 0.690009 -5.42126 0
M  V30 2649 H 237.514 0.139586 -0.815135 0
M  V30 2650 H 240.06 -0.476151 -1.62883 0
M  V30 2651 H 238.832 -0.775102 -3.83546 0
M  V30 2652 H 238.455 0.939688 -3.86336 0
M  V30 2653 N 239.452 1.56882 -0.150215 0
M  V30 2654 C 240.701 1.95403 0.500071 0
M  V30 2655 C 241.014 1.03777 1.658 0
M  V30 2656 O 242.22 1.31889 2.37313 0
M  V30 2657 C 240.676 3.4738 0.941018 0
M  V30 2658 C 240.284 4.47596 -0.190158 0
M  V30 2659 C 242.028 3.9476 1.56091 0
M  V30 2660 C 239.935 5.90787 0.269237 0
M  V30 2661 H 238.865 0.729515 0.190588 0
M  V30 2662 H 241.516 1.81988 -0.235074 0
M  V30 2663 H 239.898 3.56138 1.73152 0
M  V30 2664 H 241.072 4.50536 -0.967157 0
M  V30 2665 H 239.387 4.10151 -0.718666 0
M  V30 2666 H 241.984 4.99181 1.9163 0
M  V30 2667 H 242.327 3.36494 2.45107 0
M  V30 2668 H 242.86 3.88932 0.835249 0
M  V30 2669 H 239.599 6.52879 -0.585621 0
M  V30 2670 H 239.119 5.912 1.01204 0
M  V30 2671 H 240.798 6.42979 0.720176 0
M  V30 2672 N 240.93 -0.123565 1.57115 0
M  V30 2673 C 241.877 -1.15177 2.00007 0
M  V30 2674 C 242.847 -1.41403 0.871454 0
M  V30 2675 O 244.032 -1.53346 1.13533 0
M  V30 2676 C 241.172 -2.47436 2.40561 0
M  V30 2677 C 240.285 -2.28184 3.66819 0
M  V30 2678 C 239.42 -3.53641 3.96373 0
M  V30 2679 C 238.459 -3.29528 5.15827 0
M  V30 2680 N 237.596 -4.47175 5.41275 0
M  V30 2681 H 242.436 -0.779008 2.87638 0
M  V30 2682 H 239.973 -0.373166 1.42288 0
M  V30 2683 H 241.931 -3.24584 2.62109 0
M  V30 2684 H 240.561 -2.82614 1.55978 0
M  V30 2685 H 239.613 -1.41976 3.52912 0
M  V30 2686 H 240.925 -2.0634 4.5412 0
M  V30 2687 H 240.079 -4.39209 4.18545 0
M  V30 2688 H 238.818 -3.78512 3.07538 0
M  V30 2689 H 237.823 -2.42349 4.93505 0
M  V30 2690 H 239.048 -3.06031 6.06236 0
M  V30 2691 H 236.994 -4.72175 4.55397 0
M  V30 2692 H 236.911 -4.28419 6.22891 0
M  V30 2693 H 238.179 -5.3389 5.67963 0
M  V30 2694 N 242.408 -1.52605 -0.393616 0
M  V30 2695 C 243.338 -1.80022 -1.48709 0
M  V30 2696 C 244.319 -0.651995 -1.57108 0
M  V30 2697 O 245.504 -0.89913 -1.72132 0
M  V30 2698 C 242.634 -1.96492 -2.86371 0
M  V30 2699 C 241.588 -3.12161 -2.92813 0
M  V30 2700 C 240.914 -3.13877 -4.3288 0
M  V30 2701 C 242.214 -4.51322 -2.6288 0
M  V30 2702 H 243.908 -2.71589 -1.26015 0
M  V30 2703 H 241.454 -1.30684 -0.604778 0
M  V30 2704 H 243.407 -2.14255 -3.62867 0
M  V30 2705 H 242.131 -1.01611 -3.10391 0
M  V30 2706 H 240.79 -2.94173 -2.18764 0
M  V30 2707 H 240.438 -2.16687 -4.53933 0
M  V30 2708 H 240.138 -3.91576 -4.38112 0
M  V30 2709 H 241.662 -3.33789 -5.1129 0
M  V30 2710 H 243.076 -4.69435 -3.29096 0
M  V30 2711 H 241.473 -5.31053 -2.79468 0
M  V30 2712 H 242.543 -4.58353 -1.58242 0
M  V30 2713 N 243.887 0.651787 -1.4349 0
M  V30 2714 C 244.85 1.74647 -1.48429 0
M  V30 2715 C 245.85 1.56513 -0.368817 0
M  V30 2716 O 247.04 1.62385 -0.630623 0
M  V30 2717 C 244.172 3.13533 -1.33827 0
M  V30 2718 H 245.365 1.71649 -2.4592 0
M  V30 2719 H 242.918 0.863573 -1.30277 0
M  V30 2720 H 243.653 3.22142 -0.37349 0
M  V30 2721 H 243.438 3.28101 -2.14691 0
M  V30 2722 H 244.928 3.93356 -1.40218 0
M  V30 2723 N 245.365 1.30045 0.890287 0
M  V30 2724 C 246.642 1.09227 1.62262 0
M  V30 2725 C 247.022 -0.360305 2.08002 0
M  V30 2726 O 246.37 -1.35084 1.84295 0
M  V30 2727 C 246.58 2.08835 2.79623 0
M  V30 2728 C 247.928 2.40266 3.50082 0
M  V30 2729 O 248.952 2.07104 2.89804 0
M  V30 2730 O 247.811 2.96967 4.58773 0
M  V30 2731 H 244.905 0.419132 0.712922 0
M  V30 2732 H 247.451 1.41451 0.937529 0
M  V30 2733 H 246.223 3.06633 2.43089 0
M  V30 2734 H 245.846 1.77397 3.55832 0
M  V30 2735 N 246.843 -1.10192 1.12674 0
M  V30 2736 C 248.09 -1.82205 0.883606 0
M  V30 2737 C 248.418 -1.8532 -0.590492 0
M  V30 2738 O 247.673 -1.31137 -1.45264 0
M  V30 2739 C 247.972 -3.28552 1.4067 0
M  V30 2740 C 247.638 -3.45582 2.89627 0
M  V30 2741 C 246.3 -3.49937 3.30299 0
M  V30 2742 C 248.652 -3.50768 3.85501 0
M  V30 2743 C 245.98 -3.57049 4.65546 0
M  V30 2744 C 248.332 -3.59414 5.20581 0
M  V30 2745 C 246.996 -3.62034 5.60792 0
M  V30 2746 H 246.266 -0.666735 0.323334 0
M  V30 2747 H 248.913 -1.29868 1.40736 0
M  V30 2748 H 247.218 -3.83473 0.80347 0
M  V30 2749 H 248.915 -3.82788 1.19475 0
M  V30 2750 H 245.505 -3.42871 2.57172 0
M  V30 2751 H 249.689 -3.46651 3.55171 0
M  V30 2752 H 244.945 -3.57361 4.96088 0
M  V30 2753 H 249.119 -3.62371 5.94693 0
M  V30 2754 H 246.746 -3.67298 6.6558 0
M  V30 2755 N 248.321 -0.919034 -1.28029 0
M  V30 2756 C 249.569 -0.553838 -1.94363 0
M  V30 2757 C 249.89 0.906357 -1.72656 0
M  V30 2758 O 249.16 1.64143 -1.0693 0
M  V30 2759 H 247.74 -0.201834 -0.719216 0
M  V30 2760 H 250.402 -1.16954 -1.55909 0
M  V30 2761 H 249.498 -0.752758 -3.02886 0
M  V30 2762 N 249.799 1.42003 -0.683588 0
M  V30 2763 C 251.046 2.01413 -0.209514 0
M  V30 2764 C 251.374 1.54088 1.1869 0
M  V30 2765 O 250.629 0.737591 1.81268 0
M  V30 2766 C 250.928 3.56827 -0.202357 0
M  V30 2767 C 250.594 4.23617 -1.54464 0
M  V30 2768 C 249.256 4.41577 -1.91215 0
M  V30 2769 C 251.608 4.61178 -2.42826 0
M  V30 2770 C 248.936 4.9437 -3.15935 0
M  V30 2771 C 251.288 5.15355 -3.66867 0
M  V30 2772 C 249.952 5.31528 -4.03776 0
M  V30 2773 H 249.222 0.737023 -0.0766668 0
M  V30 2774 H 251.869 1.70067 -0.880312 0
M  V30 2775 H 250.174 3.87892 0.551969 0
M  V30 2776 H 251.871 4.00588 0.181793 0
M  V30 2777 H 248.461 4.10004 -1.24877 0
M  V30 2778 H 252.645 4.46968 -2.15717 0
M  V30 2779 H 247.901 5.05076 -3.44541 0
M  V30 2780 H 252.075 5.43402 -4.35531 0
M  V30 2781 H 249.702 5.72199 -5.00492 0
M  V30 2782 N 251.277 0.427512 1.51691 0
M  V30 2783 C 252.525 -0.141948 2.01601 0
M  V30 2784 C 252.846 -1.44067 1.31414 0
M  V30 2785 O 252.116 -1.90763 0.445658 0
M  V30 2786 H 250.696 -0.0554468 0.744939 0
M  V30 2787 H 253.358 0.567968 1.86441 0
M  V30 2788 H 252.454 -0.324913 3.10404 0
M  V30 2789 N 252.755 -1.56801 0.158532 0
M  V30 2790 C 253.703 -2.18638 -0.793729 0
M  V30 2791 C 254.697 -1.14669 -1.24689 0
M  V30 2792 O 255.903 -1.32895 -1.21403 0
M  V30 2793 H 252.278 -0.700226 -0.274204 0
M  V30 2794 H 254.249 -2.97367 -0.248095 0
M  V30 2795 C 252.998 -2.83139 -2.0181 0
M  V30 2796 H 252.321 -3.62863 -1.67841 0
M  V30 2797 H 253.761 -3.29894 -2.66357 0
M  V30 2798 C 252.22 -1.82244 -2.83353 0
M  V30 2799 O 252.75 -1.3 -3.80083 0
M  V30 2800 N 250.956 -1.51288 -2.48114 0
M  V30 2801 H 250.503 -1.93964 -1.69516 0
M  V30 2802 H 250.461 -0.840296 -3.02963 0
M  V30 2803 N 254.233 0.115231 -1.57178 0
M  V30 2804 C 255.48 0.822351 -1.8505 0
M  V30 2805 C 255.808 1.79701 -0.744168 0
M  V30 2806 O 255.063 1.93909 0.26414 0
M  V30 2807 C 255.362 1.60324 -3.19423 0
M  V30 2808 C 255.028 0.772536 -4.44233 0
M  V30 2809 C 253.69 0.543468 -4.78121 0
M  V30 2810 C 256.042 0.193746 -5.2084 0
M  V30 2811 C 253.37 -0.274583 -5.86057 0
M  V30 2812 C 255.722 -0.611517 -6.29637 0
M  V30 2813 C 254.386 -0.850867 -6.62055 0
M  V30 2814 H 253.656 0.30092 -0.677147 0
M  V30 2815 H 256.303 0.0845802 -1.91313 0
M  V30 2816 H 254.608 2.41203 -3.08753 0
M  V30 2817 H 256.305 2.1544 -3.38211 0
M  V30 2818 H 252.895 0.96117 -4.17683 0
M  V30 2819 H 257.079 0.357926 -4.95008 0
M  V30 2820 H 252.335 -0.469206 -6.09597 0
M  V30 2821 H 256.509 -1.06697 -6.88178 0
M  V30 2822 H 254.136 -1.48657 -7.45523 0
M  V30 2823 N 255.711 1.52812 0.385517 0
M  V30 2824 C 256.941 1.71658 1.14966 0
M  V30 2825 C 257.349 0.436253 1.84102 0
M  V30 2826 O 256.692 -0.599313 1.73649 0
M  V30 2827 C 256.754 2.81309 2.23843 0
M  V30 2828 C 256.418 4.22313 1.74644 0
M  V30 2829 C 257.415 5.05352 1.22129 0
M  V30 2830 C 255.1 4.68648 1.80761 0
M  V30 2831 C 257.094 6.32807 0.763838 0
M  V30 2832 C 254.781 5.96086 1.34627 0
M  V30 2833 C 255.779 6.77996 0.825264 0
M  V30 2834 O 255.467 8.03045 0.370669 0
M  V30 2835 H 255.199 0.578022 0.350523 0
M  V30 2836 H 257.753 2.00263 0.456509 0
M  V30 2837 H 255.983 2.48133 2.96592 0
M  V30 2838 H 257.672 2.88524 2.85497 0
M  V30 2839 H 258.438 4.70736 1.16758 0
M  V30 2840 H 254.317 4.04979 2.20256 0
M  V30 2841 H 257.861 6.96689 0.356494 0
M  V30 2842 H 253.758 6.30205 1.39686 0
M  V30 2843 H 254.526 8.17021 0.491829 0
M  V30 2844 N 257.189 -0.644168 1.43834 0
M  V30 2845 C 258.136 -1.75671 1.49694 0
M  V30 2846 C 259.106 -1.6246 0.345809 0
M  V30 2847 O 260.291 -1.82573 0.554234 0
M  V30 2848 C 257.431 -3.13867 1.43463 0
M  V30 2849 C 256.544 -3.38147 2.6885 0
M  V30 2850 C 255.679 -4.66241 2.54544 0
M  V30 2851 C 254.718 -4.83657 3.75157 0
M  V30 2852 N 253.855 -6.03016 3.59605 0
M  V30 2853 H 258.695 -1.69998 2.44754 0
M  V30 2854 H 256.232 -0.829458 1.21484 0
M  V30 2855 H 258.19 -3.9377 1.37843 0
M  V30 2856 H 256.82 -3.18588 0.519783 0
M  V30 2857 H 255.872 -2.52276 2.84712 0
M  V30 2858 H 257.184 -3.46899 3.58417 0
M  V30 2859 H 256.338 -5.54285 2.46683 0
M  V30 2860 H 255.077 -4.59826 1.62516 0
M  V30 2861 H 254.082 -3.94046 3.83416 0
M  V30 2862 H 255.307 -4.91896 4.68204 0
M  V30 2863 H 253.253 -5.97715 2.7032 0
M  V30 2864 H 253.17 -6.12766 4.42779 0
M  V30 2865 H 254.438 -6.93657 3.55613 0
M  V30 2866 N 258.668 -1.30515 -0.883378 0
M  V30 2867 C 259.893 -1.22487 -1.67367 0
M  V30 2868 C 260.318 0.208767 -1.86938 0
M  V30 2869 O 259.676 1.15015 -1.40148 0
M  V30 2870 C 259.724 -1.96041 -3.02655 0
M  V30 2871 O 258.828 -1.28859 -3.91751 0
M  V30 2872 H 258.169 -0.423573 -0.511353 0
M  V30 2873 H 260.699 -1.72362 -1.10239 0
M  V30 2874 H 260.709 -2.05124 -3.52687 0
M  V30 2875 H 259.384 -3.00307 -2.8773 0
M  V30 2876 H 257.961 -1.28141 -3.50192 0
M  V30 2877 N 260.146 1.09593 -1.13257 0
M  V30 2878 C 261.394 1.81375 -0.891492 0
M  V30 2879 C 261.715 1.86049 0.584009 0
M  V30 2880 O 260.985 1.34481 1.42449 0
M  V30 2881 H 259.565 0.671708 -0.326828 0
M  V30 2882 H 262.227 1.3256 -1.42877 0
M  V30 2883 H 261.323 2.84612 -1.28071 0
M  V30 2884 N 261.624 0.925811 1.2754 0
M  V30 2885 C 262.534 0.428993 2.30644 0
M  V30 2886 C 263.55 -0.489387 1.66976 0
M  V30 2887 O 264.726 -0.372653 1.97922 0
M  V30 2888 C 261.791 -0.311967 3.45294 0
M  V30 2889 C 260.852 0.641098 4.24486 0
M  V30 2890 C 260.085 -0.0645955 5.33661 0
M  V30 2891 O 260.308 -1.28429 5.55754 0
M  V30 2892 O 259.242 0.606265 5.98839 0
M  V30 2893 H 263.068 1.28504 2.75173 0
M  V30 2894 H 260.653 0.691086 1.32455 0
M  V30 2895 H 262.535 -0.729972 4.15029 0
M  V30 2896 H 261.21 -1.14365 3.02824 0
M  V30 2897 H 260.117 1.10874 3.57292 0
M  V30 2898 H 261.45 1.43995 4.70666 0
M  V30 2899 N 263.102 -1.41638 0.69111 0
M  V30 2900 C 264.513 -1.84346 0.295517 0
M  V30 2901 C 264.864 -1.57833 -1.16547 0
M  V30 2902 O 263.989 -1.04648 -1.89414 0
M  V30 2903 C 264.584 -3.34636 0.529575 0
M  V30 2904 C 263.143 -3.7593 0.187944 0
M  V30 2905 C 262.29 -2.65082 0.814052 0
M  V30 2906 H 265.241 -1.31253 0.892092 0
M  V30 2907 H 265.262 -3.79903 -0.213148 0
M  V30 2908 H 264.774 -3.53901 1.59297 0
M  V30 2909 H 262.875 -3.62268 -0.871367 0
M  V30 2910 H 262.988 -4.74808 0.63985 0
M  V30 2911 H 261.352 -2.53528 0.244017 0
M  V30 2912 H 262.135 -2.87167 1.88123 0
M  V30 2913 N 264.58 -0.43555 -1.51462 0
M  V30 2914 C 265.51 0.367376 -2.30592 0
M  V30 2915 C 266.491 1.02263 -1.35928 0
M  V30 2916 O 267.676 1.02661 -1.64847 0
M  V30 2917 C 264.806 1.46983 -3.14664 0
M  V30 2918 C 263.76 0.938161 -4.17591 0
M  V30 2919 C 263.086 2.13622 -4.90173 0
M  V30 2920 C 264.386 -0.0261621 -5.22293 0
M  V30 2921 H 266.08 -0.292969 -2.97963 0
M  V30 2922 H 263.626 -0.14234 -1.43295 0
M  V30 2923 H 265.579 2.03873 -3.688 0
M  V30 2924 H 264.303 2.15843 -2.4511 0
M  V30 2925 H 262.962 0.391481 -3.64504 0
M  V30 2926 H 262.61 2.81098 -4.17124 0
M  V30 2927 H 262.31 1.78688 -5.59772 0
M  V30 2928 H 263.834 2.7107 -5.47132 0
M  V30 2929 H 265.248 0.452384 -5.71512 0
M  V30 2930 H 263.645 -0.287992 -5.99409 0
M  V30 2931 H 264.715 -0.963391 -4.75233 0
M  V30 2932 N 266.058 1.56714 -0.166846 0
M  V30 2933 C 267.283 2.01557 0.488833 0
M  V30 2934 C 267.708 1.0463 1.56314 0
M  V30 2935 O 267.066 0.0251304 1.81283 0
M  V30 2936 C 267.114 3.4503 1.04818 0
M  V30 2937 O 266.218 3.51163 2.16236 0
M  V30 2938 H 265.559 0.653516 0.117526 0
M  V30 2939 H 268.089 2.02818 -0.269421 0
M  V30 2940 H 268.099 3.84243 1.37191 0
M  V30 2941 H 266.774 4.15077 0.261572 0
M  V30 2942 H 265.351 3.23807 1.84942 0
M  V30 2943 N 267.536 -0.106894 1.57237 0
M  V30 2944 C 268.764 -0.826389 1.8968 0
M  V30 2945 C 269.179 -1.72856 0.759353 0
M  V30 2946 O 268.536 -1.80503 -0.269263 0
M  V30 2947 C 268.587 -1.64967 3.21665 0
M  V30 2948 O 268.308 -0.783804 4.31031 0
M  V30 2949 C 269.809 -2.47326 3.67892 0
M  V30 2950 H 267.029 -0.236927 0.627779 0
M  V30 2951 H 269.573 -0.0876593 2.04312 0
M  V30 2952 H 267.728 -2.34103 3.08666 0
M  V30 2953 H 268.142 -1.35284 5.06753 0
M  V30 2954 H 269.616 -3.00604 4.6297 0
M  V30 2955 H 270.093 -3.25247 2.95146 0
M  V30 2956 H 270.699 -1.83411 3.83719 0
M  V30 2957 N 269.014 -1.53014 -0.377408 0
M  V30 2958 C 270.26 -1.69821 -1.11948 0
M  V30 2959 C 270.615 -0.438581 -1.87335 0
M  V30 2960 O 269.908 0.568094 -1.82984 0
M  V30 2961 C 270.102 -2.87982 -2.11663 0
M  V30 2962 C 269.931 -4.25315 -1.46072 0
M  V30 2963 C 268.701 -4.90354 -1.21986 0
M  V30 2964 C 270.899 -5.06281 -0.904664 0
M  V30 2965 N 268.881 -6.11641 -0.526215 0
M  V30 2966 C 270.252 -6.19069 -0.339726 0
M  V30 2967 C 272.307 -4.91395 -0.8022 0
M  V30 2968 C 271.01 -7.18598 0.317669 0
M  V30 2969 C 273.036 -5.91187 -0.158606 0
M  V30 2970 C 272.398 -7.03289 0.39551 0
M  V30 2971 H 268.497 -0.674785 -0.395207 0
M  V30 2972 H 271.081 -1.90389 -0.407437 0
M  V30 2973 H 269.252 -2.68974 -2.80192 0
M  V30 2974 H 270.984 -2.93669 -2.78461 0
M  V30 2975 H 267.739 -4.49286 -1.49798 0
M  V30 2976 H 268.163 -6.76719 -0.195098 0
M  V30 2977 H 272.805 -4.04925 -1.21639 0
M  V30 2978 H 270.523 -8.04669 0.743836 0
M  V30 2979 H 274.109 -5.81744 -0.0804138 0
M  V30 2980 H 272.989 -7.79183 0.885648 0
M  V30 2981 N 270.492 0.636531 -1.44174 0
M  V30 2982 C 271.732 1.40781 -1.48189 0
M  V30 2983 C 272.096 1.91688 -0.10944 0
M  V30 2984 O 273.297 2.68789 -0.0242741 0
M  V30 2985 C 271.568 2.54575 -2.50851 0
M  V30 2986 S 273.127 3.4284 -2.73873 0
M  V30 2987 H 269.945 0.480345 -0.524204 0
M  V30 2988 H 272.547 0.737416 -1.81059 0
M  V30 2989 H 271.251 2.15478 -3.49281 0
M  V30 2990 H 270.782 3.26447 -2.19536 0
M  V30 2991 H 272.797 4.51846 -2.05059 0
M  V30 2992 N 271.97 1.30982 0.876444 0
M  V30 2993 C 273.218 1.20058 1.62575 0
M  V30 2994 C 273.539 -0.242947 1.93481 0
M  V30 2995 O 272.809 -1.1619 1.57724 0
M  V30 2996 H 271.389 0.44135 0.602677 0
M  V30 2997 H 274.051 1.64222 1.04962 0
M  V30 2998 H 273.147 1.76762 2.57219 0
M  V30 2999 N 273.449 -1.08991 1.13837 0
M  V30 3000 C 274.674 -1.85551 0.926585 0
M  V30 3001 C 275.099 -1.80782 -0.519566 0
M  V30 3002 O 274.457 -1.18855 -1.36906 0
M  V30 3003 C 274.505 -3.31266 1.42462 0
M  V30 3004 O 273.609 -4.07822 0.612789 0
M  V30 3005 H 272.95 -0.575192 0.331738 0
M  V30 3006 H 275.48 -1.37604 1.51414 0
M  V30 3007 H 275.49 -3.82112 1.43019 0
M  V30 3008 H 274.165 -3.34052 2.47754 0
M  V30 3009 H 272.742 -3.66731 0.675463 0
M  V30 3010 N 274.927 -0.932562 -1.27047 0
M  V30 3011 C 276.338 -0.619451 -1.76124 0
M  V30 3012 C 276.689 0.865397 -1.76083 0
M  V30 3013 O 275.814 1.67722 -1.36742 0
M  V30 3014 C 276.409 -1.11771 -3.19832 0
M  V30 3015 C 274.968 -0.855174 -3.66557 0
M  V30 3016 C 274.115 -1.27362 -2.46321 0
M  V30 3017 H 277.066 -1.11181 -1.13245 0
M  V30 3018 H 277.087 -0.46759 -3.77616 0
M  V30 3019 H 276.599 -2.19842 -3.1983 0
M  V30 3020 H 274.7 0.211524 -3.71999 0
M  V30 3021 H 274.813 -1.47613 -4.55793 0
M  V30 3022 H 273.177 -0.692119 -2.45116 0
M  V30 3023 H 273.96 -2.36307 -2.49025 0
M  V30 3024 N 276.405 1.4127 -0.698611 0
M  V30 3025 C 277.816 1.84187 -0.305289 0
M  V30 3026 C 278.167 1.58449 1.15708 0
M  V30 3027 O 277.292 1.05651 1.88856 0
M  V30 3028 C 277.887 3.3435 -0.547314 0
M  V30 3029 C 276.446 3.75826 -0.207878 0
M  V30 3030 C 275.593 2.64647 -0.828099 0
M  V30 3031 H 278.544 1.30778 -0.89904 0
M  V30 3032 H 278.565 3.8001 0.192998 0
M  V30 3033 H 278.077 3.53051 -1.61172 0
M  V30 3034 H 276.178 3.62725 0.852143 0
M  V30 3035 H 276.291 4.74462 -0.665021 0
M  V30 3036 H 274.655 2.53395 -0.257458 0
M  V30 3037 H 275.438 2.86165 -1.89643 0
M  V30 3038 N 277.883 0.443576 1.51229 0
M  V30 3039 C 279.113 -0.119117 2.06256 0
M  V30 3040 C 279.521 -1.36471 1.31043 0
M  V30 3041 O 278.864 -1.80034 0.365151 0
M  V30 3042 C 278.926 -0.500546 3.55998 0
M  V30 3043 C 278.59 0.639125 4.52509 0
M  V30 3044 C 279.587 1.51311 4.97394 0
M  V30 3045 C 277.272 0.821632 4.95535 0
M  V30 3046 C 279.266 2.55425 5.83984 0
M  V30 3047 C 276.953 1.86603 5.81913 0
M  V30 3048 C 277.951 2.73072 6.26036 0
M  V30 3049 O 277.639 3.75718 7.10698 0
M  V30 3050 H 277.371 -0.00857665 0.675946 0
M  V30 3051 H 279.925 0.623288 1.95715 0
M  V30 3052 H 278.155 -1.29575 3.64345 0
M  V30 3053 H 279.844 -0.995116 3.93513 0
M  V30 3054 H 280.61 1.38367 4.64844 0
M  V30 3055 H 276.489 0.158149 4.60729 0
M  V30 3056 H 280.033 3.22949 6.18344 0
M  V30 3057 H 275.93 1.99564 6.13876 0
M  V30 3058 H 276.698 3.72374 7.2889 0
M  V30 3059 N 279.361 -1.56624 0.175154 0
M  V30 3060 C 280.324 -2.16934 -0.739738 0
M  V30 3061 C 281.324 -1.11842 -1.15533 0
M  V30 3062 O 282.514 -1.37335 -1.07167 0
M  V30 3063 C 279.646 -2.75531 -2.00738 0
M  V30 3064 H 280.839 -2.99131 -0.214639 0
M  V30 3065 H 278.392 -1.56123 -0.0744197 0
M  V30 3066 H 279.127 -1.97078 -2.57548 0
M  V30 3067 H 278.912 -3.52444 -1.71831 0
M  V30 3068 H 280.402 -3.21904 -2.66021 0
M  V30 3069 N 280.839 0.0985539 -1.57292 0
M  V30 3070 C 281.802 1.10402 -2.00858 0
M  V30 3071 C 282.802 1.33146 -0.901593 0
M  V30 3072 O 283.992 1.29318 -1.16716 0
M  V30 3073 C 281.124 2.45394 -2.36632 0
M  V30 3074 H 282.317 0.729099 -2.90902 0
M  V30 3075 H 279.87 0.343495 -1.52479 0
M  V30 3076 H 280.605 2.87769 -1.49531 0
M  V30 3077 H 280.39 2.30235 -3.17387 0
M  V30 3078 H 281.88 3.17718 -2.71007 0
M  V30 3079 N 282.317 1.53212 0.369288 0
M  V30 3080 C 283.728 1.60943 0.946276 0
M  V30 3081 C 284.079 0.47452 1.90375 0
M  V30 3082 O 283.204 -0.399597 2.12679 0
M  V30 3083 C 283.799 2.91715 1.72302 0
M  V30 3084 C 282.358 3.01792 2.24941 0
M  V30 3085 C 281.505 2.56211 1.06072 0
M  V30 3086 H 284.456 1.58007 0.148198 0
M  V30 3087 H 284.477 2.79309 2.58393 0
M  V30 3088 H 283.989 3.74295 1.0259 0
M  V30 3089 H 282.09 2.23791 2.97906 0
M  V30 3090 H 282.203 4.06803 2.53077 0
M  V30 3091 H 280.567 2.10998 1.4266 0
M  V30 3092 H 281.35 3.41206 0.378639 0
M  V30 3093 N 283.795 -0.628877 1.44509 0
M  V30 3094 C 284.705 -1.7694 1.54044 0
M  V30 3095 C 285.721 -1.68705 0.425987 0
M  V30 3096 O 286.897 -1.89442 0.683656 0
M  V30 3097 C 283.962 -3.13332 1.48405 0
M  V30 3098 C 283.023 -3.33181 2.70719 0
M  V30 3099 C 282.256 -4.63067 2.6534 0
M  V30 3100 O 282.479 -5.44017 1.71469 0
M  V30 3101 O 281.413 -4.85167 3.56226 0
M  V30 3102 H 285.239 -1.71848 2.50403 0
M  V30 3103 H 282.824 -0.790378 1.26781 0
M  V30 3104 H 284.706 -3.94634 1.47791 0
M  V30 3105 H 283.381 -3.1896 0.551898 0
M  V30 3106 H 282.288 -2.51549 2.769 0
M  V30 3107 H 283.621 -3.32416 3.62988 0
M  V30 3108 N 285.273 -1.31445 -0.869486 0
M  V30 3109 C 286.519 -1.21337 -1.62496 0
M  V30 3110 C 286.852 0.227872 -1.92858 0
M  V30 3111 O 286.127 1.16094 -1.56053 0
M  V30 3112 C 286.41 -2.05814 -2.95487 0
M  V30 3113 C 286.263 -3.5824 -2.72 0
M  V30 3114 C 287.582 -1.9079 -3.96594 0
M  V30 3115 H 284.701 -0.442135 -0.589649 0
M  V30 3116 H 287.343 -1.6124 -1.00507 0
M  V30 3117 H 285.493 -1.71913 -3.48394 0
M  V30 3118 H 287.165 -4.0228 -2.25762 0
M  V30 3119 H 285.408 -3.81647 -2.06224 0
M  V30 3120 H 286.079 -4.12657 -3.66631 0
M  V30 3121 H 288.555 -2.20459 -3.52898 0
M  V30 3122 H 287.431 -2.52199 -4.87531 0
M  V30 3123 H 287.692 -0.871341 -4.33428 0
M  V30 3124 N 286.751 1.08385 -1.14413 0
M  V30 3125 C 287.998 1.80776 -0.912482 0
M  V30 3126 C 288.326 1.86236 0.560934 0
M  V30 3127 O 287.581 1.33431 1.43159 0
M  V30 3128 C 287.88 3.26273 -1.45879 0
M  V30 3129 C 287.546 3.4093 -2.95089 0
M  V30 3130 C 286.208 3.44638 -3.35824 0
M  V30 3131 C 288.56 3.44591 -3.91033 0
M  V30 3132 C 285.888 3.49597 -4.71167 0
M  V30 3133 C 288.24 3.51086 -5.26233 0
M  V30 3134 C 286.904 3.53067 -5.6648 0
M  V30 3135 H 286.174 0.661507 -0.333901 0
M  V30 3136 H 288.821 1.27613 -1.42784 0
M  V30 3137 H 287.126 3.82146 -0.864376 0
M  V30 3138 H 288.823 3.80839 -1.2555 0
M  V30 3139 H 285.413 3.38736 -2.62594 0
M  V30 3140 H 289.597 3.40957 -3.60641 0
M  V30 3141 H 284.853 3.49424 -5.0171 0
M  V30 3142 H 289.027 3.52864 -6.00383 0
M  V30 3143 H 286.654 3.56662 -6.71339 0
M  V30 3144 N 288.23 0.939286 1.26551 0
M  V30 3145 C 289.14 0.453432 2.30176 0
M  V30 3146 C 290.156 -0.471649 1.67486 0
M  V30 3147 O 291.332 -0.35164 1.98306 0
M  V30 3148 C 288.397 -0.275326 3.45605 0
M  V30 3149 C 287.458 0.686084 4.23782 0
M  V30 3150 C 286.691 -0.00798994 5.33699 0
M  V30 3151 O 286.914 -1.22528 5.57085 0
M  V30 3152 O 285.848 0.669746 5.98162 0
M  V30 3153 H 289.674 1.31416 2.73795 0
M  V30 3154 H 287.259 0.705095 1.31715 0
M  V30 3155 H 289.141 -0.685911 4.1578 0
M  V30 3156 H 287.816 -1.11147 3.0402 0
M  V30 3157 H 286.723 1.14658 3.56096 0
M  V30 3158 H 288.056 1.48979 4.69112 0
M  V30 3159 N 289.708 -1.40897 0.706093 0
M  V30 3160 C 290.956 -2.00657 0.241054 0
M  V30 3161 C 291.277 -1.56241 -1.16678 0
M  V30 3162 O 290.547 -0.79765 -1.78926 0
M  V30 3163 H 289.127 -0.742018 0.0861308 0
M  V30 3164 H 291.789 -1.72372 0.909604 0
M  V30 3165 H 290.885 -3.10958 0.266705 0
M  V30 3166 N 291.186 -0.45159 -1.50991 0
M  V30 3167 C 292.133 0.352625 -2.2809 0
M  V30 3168 C 293.103 1.0044 -1.32291 0
M  V30 3169 O 294.288 1.02058 -1.6121 0
M  V30 3170 C 291.428 1.43983 -3.13629 0
M  V30 3171 C 290.541 0.804772 -4.24438 0
M  V30 3172 C 289.676 1.86822 -4.97263 0
M  V30 3173 C 288.715 1.21236 -5.99973 0
M  V30 3174 N 287.852 2.2178 -6.66152 0
M  V30 3175 H 292.692 -0.311186 -2.96371 0
M  V30 3176 H 290.229 -0.165308 -1.46168 0
M  V30 3177 H 292.187 2.08161 -3.61559 0
M  V30 3178 H 290.817 2.07307 -2.47434 0
M  V30 3179 H 289.869 0.0509129 -3.80366 0
M  V30 3180 H 291.181 0.286076 -4.97979 0
M  V30 3181 H 290.335 2.58628 -5.48813 0
M  V30 3182 H 289.074 2.42068 -4.23385 0
M  V30 3183 H 288.079 0.479828 -5.47702 0
M  V30 3184 H 289.304 0.667051 -6.75816 0
M  V30 3185 H 287.25 2.76079 -5.95077 0
M  V30 3186 H 287.167 1.74841 -7.35504 0
M  V30 3187 H 288.435 2.93026 -7.22327 0
M  V30 3188 N 292.664 1.56529 -0.183458 0
M  V30 3189 C 293.574 2.22144 0.754272 0
M  V30 3190 C 294.59 1.21684 1.24374 0
M  V30 3191 O 295.766 1.54385 1.29333 0
M  V30 3192 C 292.831 2.85884 1.96141 0
M  V30 3193 C 291.892 4.01579 1.51765 0
M  V30 3194 C 291.125 4.6227 2.66725 0
M  V30 3195 O 291.348 4.21865 3.83909 0
M  V30 3196 O 290.282 5.51936 2.40104 0
M  V30 3197 H 294.108 3.02861 0.225527 0
M  V30 3198 H 291.693 1.49331 0.0453032 0
M  V30 3199 H 293.575 3.26253 2.66715 0
M  V30 3200 H 292.25 2.08154 2.47899 0
M  V30 3201 H 291.157 3.65856 0.781049 0
M  V30 3202 H 292.49 4.80938 1.04686 0
M  V30 3203 N 294.142 -0.090211 1.57342 0
M  V30 3204 C 295.372 -0.805055 1.90269 0
M  V30 3205 C 295.78 -1.72561 0.775842 0
M  V30 3206 O 295.123 -1.81839 -0.260843 0
M  V30 3207 C 295.185 -1.66734 3.18497 0
M  V30 3208 C 294.849 -0.918092 4.47683 0
M  V30 3209 C 295.846 -0.245674 5.19319 0
M  V30 3210 C 293.531 -0.890724 4.94339 0
M  V30 3211 C 295.525 0.444088 6.35851 0
M  V30 3212 C 293.212 -0.197179 6.10782 0
M  V30 3213 C 294.21 0.469044 6.81388 0
M  V30 3214 O 293.898 1.15146 7.95611 0
M  V30 3215 H 293.63 -0.235143 0.633785 0
M  V30 3216 H 296.184 -0.0703805 2.05279 0
M  V30 3217 H 294.414 -2.44437 2.99646 0
M  V30 3218 H 296.103 -2.25919 3.37217 0
M  V30 3219 H 296.869 -0.258246 4.84312 0
M  V30 3220 H 292.748 -1.39873 4.39268 0
M  V30 3221 H 296.292 0.964667 6.90898 0
M  V30 3222 H 292.189 -0.18247 6.45242 0
M  V30 3223 H 292.957 1.05885 8.11622 0
M  V30 3224 N 295.62 -1.53406 -0.361157 0
M  V30 3225 C 296.53 -1.83122 -1.4664 0
M  V30 3226 C 297.546 -0.719943 -1.58407 0
M  V30 3227 O 298.722 -1.01046 -1.74218 0
M  V30 3228 C 295.787 -2.01891 -2.81853 0
M  V30 3229 C 294.848 -3.25784 -2.79577 0
M  V30 3230 C 294.081 -3.43648 -4.0834 0
M  V30 3231 O 294.304 -2.65714 -5.0473 0
M  V30 3232 O 293.238 -4.37018 -4.13883 0
M  V30 3233 H 297.064 -2.7703 -1.24451 0
M  V30 3234 H 294.649 -1.38841 -0.551678 0
M  V30 3235 H 296.531 -2.15782 -3.61962 0
M  V30 3236 H 295.206 -1.11173 -3.0401 0
M  V30 3237 H 294.113 -3.17312 -1.98151 0
M  V30 3238 H 295.446 -4.16439 -2.62373 0
M  V30 3239 N 297.098 0.621204 -1.44841 0
M  V30 3240 C 298.346 1.37783 -1.47852 0
M  V30 3241 C 298.667 1.94653 -0.116224 0
M  V30 3242 O 297.937 1.76367 0.852737 0
M  V30 3243 H 296.517 0.511453 -0.544449 0
M  V30 3244 H 299.179 0.730446 -1.80694 0
M  V30 3245 H 298.275 2.20414 -2.20961 0
M  V30 3246 N 298.576 1.31904 0.862503 0
M  V30 3247 C 299.987 1.19803 1.43193 0
M  V30 3248 C 300.338 -0.192567 1.95253 0
M  V30 3249 O 299.463 -1.09081 1.86896 0
M  V30 3250 C 300.058 2.16883 2.60283 0
M  V30 3251 C 298.617 2.08692 3.13248 0
M  V30 3252 C 297.764 2.05691 1.85975 0
M  V30 3253 H 300.715 1.43846 0.670365 0
M  V30 3254 H 300.736 1.76278 3.37204 0
M  V30 3255 H 300.248 3.18083 2.22363 0
M  V30 3256 H 298.349 1.10713 3.55771 0
M  V30 3257 H 298.462 2.9815 3.75025 0
M  V30 3258 H 296.826 1.50814 2.05249 0
M  V30 3259 H 297.609 3.08659 1.50282 0
M  V30 3260 N 300.054 -1.07777 1.14986 0
M  V30 3261 C 300.986 -2.14769 0.800436 0
M  V30 3262 C 301.999 -1.61739 -0.185595 0
M  V30 3263 O 303.188 -1.78462 0.0370358 0
M  V30 3264 C 300.288 -3.38481 0.168533 0
M  V30 3265 C 299.461 -4.20876 1.1909 0
M  V30 3266 C 298.52 -5.22976 0.581575 0
M  V30 3267 O 297.546 -5.55388 1.24633 0
M  V30 3268 N 298.748 -5.76976 -0.638706 0
M  V30 3269 H 301.513 -2.45348 1.72118 0
M  V30 3270 H 299.074 -1.23645 1.04515 0
M  V30 3271 H 301.066 -4.03916 -0.251764 0
M  V30 3272 H 299.636 -3.05651 -0.655467 0
M  V30 3273 H 298.856 -3.51322 1.78791 0
M  V30 3274 H 300.144 -4.7274 1.88133 0
M  V30 3275 H 299.542 -5.52886 -1.19723 0
M  V30 3276 H 298.099 -6.44061 -1.00142 0
M  V30 3277 N 301.532 -0.945985 -1.26051 0
M  V30 3278 C 302.462 -0.477172 -2.28572 0
M  V30 3279 C 303.443 0.472032 -1.63419 0
M  V30 3280 O 304.628 0.372853 -1.90587 0
M  V30 3281 C 301.758 0.253975 -3.4637 0
M  V30 3282 C 300.712 -0.609135 -4.23643 0
M  V30 3283 C 300.038 0.252252 -5.34105 0
M  V30 3284 C 301.338 -1.8829 -4.8718 0
M  V30 3285 H 303.032 -1.33402 -2.68038 0
M  V30 3286 H 300.578 -0.642904 -1.28852 0
M  V30 3287 H 302.531 0.593016 -4.17207 0
M  V30 3288 H 301.255 1.145 -3.05871 0
M  V30 3289 H 299.914 -0.931138 -3.54578 0
M  V30 3290 H 299.562 1.14278 -4.89846 0
M  V30 3291 H 299.262 -0.32188 -5.86718 0
M  V30 3292 H 300.786 0.586454 -6.07777 0
M  V30 3293 H 302.2 -1.61081 -5.50205 0
M  V30 3294 H 300.597 -2.40199 -5.49931 0
M  V30 3295 H 301.667 -2.59134 -4.09851 0
M  V30 3296 N 303.011 1.40521 -0.713556 0
M  V30 3297 C 304.288 1.94775 -0.17943 0
M  V30 3298 C 304.668 1.65184 1.31444 0
M  V30 3299 O 304.016 0.968429 2.06963 0
M  V30 3300 C 304.226 3.45543 -0.489986 0
M  V30 3301 C 305.574 4.22442 -0.427536 0
M  V30 3302 O 306.598 3.53644 -0.425929 0
M  V30 3303 O 305.457 5.4501 -0.403292 0
M  V30 3304 H 302.551 0.826606 -0.0255192 0
M  V30 3305 H 305.097 1.5014 -0.790949 0
M  V30 3306 H 303.869 3.60432 -1.5233 0
M  V30 3307 H 303.492 3.97311 0.151598 0
M  V30 3308 N 304.489 0.459591 1.5075 0
M  V30 3309 C 305.738 -0.100971 2.01447 0
M  V30 3310 C 306.051 -1.41816 1.34713 0
M  V30 3311 O 307.257 -2.06299 1.76502 0
M  V30 3312 C 305.713 -0.23047 3.59161 0
M  V30 3313 C 305.321 1.0776 4.34847 0
M  V30 3314 C 307.065 -0.743608 4.17936 0
M  V30 3315 C 304.972 0.91253 5.84317 0
M  V30 3316 H 303.902 -0.0415102 0.752856 0
M  V30 3317 H 306.553 0.592742 1.73663 0
M  V30 3318 H 304.935 -0.987703 3.83485 0
M  V30 3319 H 306.109 1.8449 4.22256 0
M  V30 3320 H 304.424 1.52097 3.87628 0
M  V30 3321 H 307.021 -0.883959 5.27343 0
M  V30 3322 H 307.364 -1.73196 3.78562 0
M  V30 3323 H 307.897 -0.04408 3.97776 0
M  V30 3324 H 304.636 1.87391 6.28144 0
M  V30 3325 H 304.156 0.185422 5.99513 0
M  V30 3326 H 305.835 0.574547 6.44444 0
M  V30 3327 N 305.967 -1.56429 0.191757 0
M  V30 3328 C 307.213 -1.98541 -0.441943 0
M  V30 3329 C 307.568 -1.07646 -1.59468 0
M  V30 3330 O 306.861 -0.120191 -1.91223 0
M  V30 3331 C 307.055 -3.44449 -0.953384 0
M  V30 3332 C 306.884 -4.49456 0.148262 0
M  V30 3333 C 305.654 -5.01668 0.604781 0
M  V30 3334 C 307.852 -5.05336 0.95602 0
M  V30 3335 N 305.834 -5.90334 1.6846 0
M  V30 3336 C 307.205 -5.9064 1.88531 0
M  V30 3337 C 309.26 -4.87779 0.998811 0
M  V30 3338 C 307.963 -6.60264 2.85383 0
M  V30 3339 C 309.989 -5.58139 1.95537 0
M  V30 3340 C 309.351 -6.43187 2.8721 0
M  V30 3341 H 305.45 -0.771247 -0.129236 0
M  V30 3342 H 308.034 -1.92426 0.296682 0
M  V30 3343 H 306.205 -3.5107 -1.66146 0
M  V30 3344 H 307.937 -3.73533 -1.55741 0
M  V30 3345 H 304.692 -4.73183 0.198736 0
M  V30 3346 H 305.116 -6.39371 2.22561 0
M  V30 3347 H 309.758 -4.21705 0.304048 0
M  V30 3348 H 307.476 -7.25538 3.55837 0
M  V30 3349 H 311.062 -5.46532 1.99484 0
M  V30 3350 H 309.942 -6.96674 3.60022 0
M  V30 3351 N 307.445 0.0818655 -1.57387 0
M  V30 3352 C 308.67 0.799946 -1.91352 0
M  V30 3353 C 309.095 1.70833 -0.787258 0
M  V30 3354 O 308.453 1.79419 0.26048 0
M  V30 3355 C 308.501 1.57812 -3.24234 0
M  V30 3356 O 307.605 2.68806 -3.12757 0
M  V30 3357 H 306.946 0.21891 -0.626877 0
M  V30 3358 H 309.476 0.0531256 -2.04531 0
M  V30 3359 H 309.486 1.95952 -3.57864 0
M  V30 3360 H 308.161 0.911548 -4.05788 0
M  V30 3361 H 306.738 2.33597 -2.90666 0
M  V30 3362 N 308.923 1.53595 0.353017 0
M  V30 3363 C 309.853 1.83902 1.43883 0
M  V30 3364 C 310.834 0.693421 1.55324 0
M  V30 3365 O 312.019 0.944452 1.69687 0
M  V30 3366 C 309.149 2.04016 2.8106 0
M  V30 3367 C 308.103 3.19814 2.84434 0
M  V30 3368 C 307.429 3.25244 4.24406 0
M  V30 3369 C 308.729 4.58133 2.50822 0
M  V30 3370 H 310.423 2.74835 1.1877 0
M  V30 3371 H 307.969 1.32242 0.569917 0
M  V30 3372 H 309.922 2.238 3.57059 0
M  V30 3373 H 308.646 1.09804 3.07588 0
M  V30 3374 H 307.305 2.9987 2.10887 0
M  V30 3375 H 306.953 2.28646 4.48029 0
M  V30 3376 H 306.653 4.03054 4.27576 0
M  V30 3377 H 308.177 3.47228 5.0226 0
M  V30 3378 H 309.591 4.77995 3.16534 0
M  V30 3379 H 307.988 5.38276 2.6529 0
M  V30 3380 H 309.058 4.62387 1.46034 0
M  V30 3381 N 310.401 -0.613514 1.45168 0
M  V30 3382 C 311.649 -1.36997 1.48581 0
M  V30 3383 C 311.97 -1.94589 0.126545 0
M  V30 3384 O 311.24 -1.76816 -0.843372 0
M  V30 3385 H 309.82 -0.508558 0.547154 0
M  V30 3386 H 312.482 -0.720853 1.81079 0
M  V30 3387 H 311.578 -2.1924 2.22127 0
M  V30 3388 N 311.879 -1.3236 -0.855495 0
M  V30 3389 C 313.125 -1.23054 -1.612 0
M  V30 3390 C 313.458 0.207404 -1.93089 0
M  V30 3391 O 312.733 1.14432 -1.57275 0
M  V30 3392 C 313.016 -2.08937 -2.93287 0
M  V30 3393 C 312.869 -3.61105 -2.68185 0
M  V30 3394 C 314.188 -1.94986 -3.94549 0
M  V30 3395 H 311.307 -0.448364 -0.584926 0
M  V30 3396 H 313.949 -1.62297 -0.987917 0
M  V30 3397 H 312.099 -1.75599 -3.46551 0
M  V30 3398 H 313.771 -4.04652 -2.21483 0
M  V30 3399 H 312.014 -3.83813 -2.02164 0
M  V30 3400 H 312.685 -4.16522 -3.62234 0
M  V30 3401 H 315.161 -2.24189 -3.5054 0
M  V30 3402 H 314.037 -2.57356 -4.84829 0
M  V30 3403 H 314.298 -0.917263 -4.3248 0
M  V30 3404 N 313.357 1.07166 -1.15556 0
M  V30 3405 C 314.603 1.80065 -0.932984 0
M  V30 3406 C 314.936 1.86586 0.53845 0
M  V30 3407 O 314.211 1.35098 1.39924 0
M  V30 3408 C 314.494 3.25022 -1.55025 0
M  V30 3409 C 314.347 3.26634 -3.09242 0
M  V30 3410 C 315.666 4.22341 -1.2376 0
M  V30 3411 H 312.785 0.653697 -0.340366 0
M  V30 3412 H 315.427 1.25389 -1.4275 0
M  V30 3413 H 313.577 3.71712 -1.12972 0
M  V30 3414 H 315.249 2.88173 -3.60214 0
M  V30 3415 H 313.492 2.65539 -3.43033 0
M  V30 3416 H 314.163 4.28854 -3.47546 0
M  V30 3417 H 316.639 3.8405 -1.60139 0
M  V30 3418 H 315.515 5.22053 -1.69564 0
M  V30 3419 H 315.776 4.41828 -0.154938 0
M  V30 3420 N 314.835 0.952656 1.25548 0
M  V30 3421 C 315.765 0.489287 2.28316 0
M  V30 3422 C 316.746 -0.463359 1.63667 0
M  V30 3423 O 317.931 -0.36274 1.90782 0
M  V30 3424 C 315.061 -0.235603 3.465 0
M  V30 3425 C 314.015 0.631593 4.23314 0
M  V30 3426 C 313.341 -0.223923 5.34231 0
M  V30 3427 C 314.641 1.90871 4.86174 0
M  V30 3428 H 316.335 1.34822 2.67326 0
M  V30 3429 H 313.881 0.649728 1.28509 0
M  V30 3430 H 315.834 -0.570882 4.17515 0
M  V30 3431 H 314.558 -1.12877 3.06474 0
M  V30 3432 H 313.217 0.949929 3.54079 0
M  V30 3433 H 312.865 -1.11678 4.90446 0
M  V30 3434 H 312.565 0.35299 5.86539 0
M  V30 3435 H 314.089 -0.554214 6.0808 0
M  V30 3436 H 315.503 1.63997 5.49343 0
M  V30 3437 H 313.9 2.43112 5.4865 0
M  V30 3438 H 314.97 2.61304 4.08471 0
M  V30 3439 N 316.313 -1.40141 0.720998 0
M  V30 3440 C 317.543 -2.04798 0.27226 0
M  V30 3441 C 317.951 -1.54442 -1.09289 0
M  V30 3442 O 317.294 -0.698342 -1.69908 0
M  V30 3443 C 317.356 -3.59048 0.18027 0
M  V30 3444 C 317.02 -4.32317 1.48159 0
M  V30 3445 C 318.017 -4.59902 2.42458 0
M  V30 3446 C 315.702 -4.71125 1.74202 0
M  V30 3447 C 317.696 -5.25288 3.61042 0
M  V30 3448 C 315.383 -5.36242 2.93066 0
M  V30 3449 C 316.381 -5.63254 3.86308 0
M  V30 3450 O 316.069 -6.27024 5.03086 0
M  V30 3451 H 315.801 -0.665419 0.119139 0
M  V30 3452 H 318.355 -1.80436 0.981432 0
M  V30 3453 H 316.585 -3.82251 -0.58489 0
M  V30 3454 H 318.274 -4.05221 -0.234618 0
M  V30 3455 H 319.04 -4.30379 2.23604 0
M  V30 3456 H 314.919 -4.49466 1.02477 0
M  V30 3457 H 318.463 -5.46289 4.33837 0
M  V30 3458 H 314.36 -5.65185 3.11826 0
M  V30 3459 H 315.128 -6.4552 5.03235 0
M  V30 3460 N 317.792 -0.46758 -1.50504 0
M  V30 3461 C 319.038 0.0887532 -2.02606 0
M  V30 3462 C 319.371 1.39686 -1.34913 0
M  V30 3463 O 318.646 1.88644 -0.473694 0
M  V30 3464 C 318.929 0.276206 -3.59039 0
M  V30 3465 C 318.782 -1.05267 -4.37309 0
M  V30 3466 C 320.101 1.03235 -4.27821 0
M  V30 3467 H 317.22 0.0307814 -0.736357 0
M  V30 3468 H 319.862 -0.612485 -1.79857 0
M  V30 3469 H 318.012 0.8735 -3.78553 0
M  V30 3470 H 319.684 -1.68628 -4.29374 0
M  V30 3471 H 317.927 -1.65015 -4.01189 0
M  V30 3472 H 318.598 -0.875197 -5.45018 0
M  V30 3473 H 321.074 0.526111 -4.12761 0
M  V30 3474 H 319.95 1.1323 -5.37094 0
M  V30 3475 H 320.211 2.06806 -3.90748 0
M  V30 3476 N 319.27 1.56325 -0.20005 0
M  V30 3477 C 320.2 2.22318 0.713916 0
M  V30 3478 C 321.181 1.18788 1.21752 0
M  V30 3479 O 322.366 1.47309 1.26545 0
M  V30 3480 C 319.496 2.88639 1.93144 0
M  V30 3481 C 318.45 3.98457 1.56255 0
M  V30 3482 C 317.776 4.51967 2.85709 0
M  V30 3483 C 319.076 5.16612 0.768747 0
M  V30 3484 H 320.77 2.98952 0.163755 0
M  V30 3485 H 318.316 1.43792 0.0773219 0
M  V30 3486 H 320.269 3.33491 2.57608 0
M  V30 3487 H 318.993 2.09419 2.50621 0
M  V30 3488 H 317.652 3.54305 0.941471 0
M  V30 3489 H 317.3 3.69503 3.41287 0
M  V30 3490 H 317 5.26071 2.6177 0
M  V30 3491 H 318.524 4.99523 3.51154 0
M  V30 3492 H 319.938 5.57977 1.3166 0
M  V30 3493 H 318.335 5.96812 0.627286 0
M  V30 3494 H 319.405 4.84358 -0.229168 0
M  V30 3495 N 320.748 -0.0735177 1.57428 0
M  V30 3496 C 321.994 -0.774145 1.87443 0
M  V30 3497 C 322.327 -1.77311 0.792103 0
M  V30 3498 O 321.602 -1.93492 -0.197793 0
M  V30 3499 C 321.885 -1.48367 3.28115 0
M  V30 3500 C 321.738 -0.501227 4.46999 0
M  V30 3501 C 323.057 -2.429 3.66998 0
M  V30 3502 H 320.176 -0.279971 0.681752 0
M  V30 3503 H 322.818 -0.0373616 1.89963 0
M  V30 3504 H 320.968 -2.11171 3.26097 0
M  V30 3505 H 322.64 0.121468 4.6114 0
M  V30 3506 H 320.883 0.183593 4.33411 0
M  V30 3507 H 321.554 -1.03526 5.42205 0
M  V30 3508 H 324.03 -1.90175 3.70098 0
M  V30 3509 H 322.906 -2.89549 4.66318 0
M  V30 3510 H 323.167 -3.27628 2.96837 0
M  V30 3511 N 322.226 -1.5378 -0.344866 0
M  V30 3512 C 323.466 -1.72677 -1.09371 0
M  V30 3513 C 323.83 -0.479084 -1.85927 0
M  V30 3514 O 325.031 -0.54505 -2.63216 0
M  V30 3515 C 323.302 -2.95457 -2.01097 0
M  V30 3516 S 324.861 -3.35158 -2.83222 0
M  V30 3517 H 321.679 -0.607402 -0.369573 0
M  V30 3518 H 324.281 -1.91922 -0.372307 0
M  V30 3519 H 322.985 -3.84437 -1.43655 0
M  V30 3520 H 322.516 -2.78673 -2.77678 0
M  V30 3521 H 324.531 -2.88789 -4.03504 0
M  V30 3522 N 323.704 0.605807 -1.45491 0
M  V30 3523 C 324.952 1.36207 -1.49305 0
M  V30 3524 C 325.273 1.94519 -0.136863 0
M  V30 3525 O 324.543 1.77261 0.833983 0
M  V30 3526 H 323.123 0.50565 -0.549843 0
M  V30 3527 H 325.785 0.711239 -1.81459 0
M  V30 3528 H 324.881 2.18058 -2.23287 0
M  V30 3529 N 325.182 1.32811 0.848464 0
M  V30 3530 C 326.407 1.26882 1.6406 0
M  V30 3531 C 326.832 -0.15913 1.87426 0
M  V30 3532 O 326.19 -1.11258 1.43148 0
M  V30 3533 C 326.238 2.03997 2.97351 0
M  V30 3534 O 325.342 1.39201 3.88197 0
M  V30 3535 H 324.683 0.436982 0.499943 0
M  V30 3536 H 327.213 1.75224 1.0563 0
M  V30 3537 H 327.223 2.14403 3.47124 0
M  V30 3538 H 325.898 3.0783 2.79666 0
M  V30 3539 H 324.475 1.37381 3.46671 0
M  V30 3540 N 326.66 -1.06551 1.16123 0
M  V30 3541 C 327.59 -2.15935 0.88851 0
M  V30 3542 C 328.571 -1.69306 -0.164135 0
M  V30 3543 O 329.756 -1.94193 -0.0167857 0
M  V30 3544 C 326.886 -3.45149 0.385942 0
M  V30 3545 C 325.84 -4.05271 1.3762 0
M  V30 3546 C 325.166 -5.29664 0.732137 0
M  V30 3547 C 326.466 -4.44355 2.74493 0
M  V30 3548 H 328.16 -2.39006 1.80323 0
M  V30 3549 H 325.706 -1.14866 0.868435 0
M  V30 3550 H 327.659 -4.21004 0.182647 0
M  V30 3551 H 326.383 -3.21689 -0.564274 0
M  V30 3552 H 325.042 -3.3147 1.56599 0
M  V30 3553 H 324.69 -5.02499 -0.224483 0
M  V30 3554 H 324.39 -5.70848 1.39307 0
M  V30 3555 H 325.914 -6.08218 0.538802 0
M  V30 3556 H 327.328 -5.11303 2.59311 0
M  V30 3557 H 325.725 -4.96515 3.37035 0
M  V30 3558 H 326.795 -3.55339 3.29943 0
M  V30 3559 N 328.138 -0.959301 -1.25041 0
M  V30 3560 C 329.549 -0.65667 -1.74771 0
M  V30 3561 C 329.9 0.827852 -1.77879 0
M  V30 3562 O 329.025 1.64783 -1.40269 0
M  V30 3563 C 329.62 -1.1853 -3.1739 0
M  V30 3564 C 328.179 -0.932734 -3.6466 0
M  V30 3565 C 327.326 -1.32558 -2.43564 0
M  V30 3566 H 330.277 -1.13558 -1.10862 0
M  V30 3567 H 330.298 -0.547582 -3.76539 0
M  V30 3568 H 329.81 -2.26576 -3.15095 0
M  V30 3569 H 327.911 0.13257 -3.72364 0
M  V30 3570 H 328.024 -1.57248 -4.52559 0
M  V30 3571 H 326.388 -0.743956 -2.43593 0
M  V30 3572 H 327.171 -2.41537 -2.43957 0
M  V30 3573 N 329.616 1.39756 -0.72842 0
M  V30 3574 C 330.863 2.00645 -0.273487 0
M  V30 3575 C 331.191 1.57786 1.13727 0
M  V30 3576 O 330.446 0.794886 1.7883 0
M  V30 3577 C 330.745 3.56002 -0.315776 0
M  V30 3578 C 330.411 4.18489 -1.67863 0
M  V30 3579 C 329.073 4.3527 -2.05166 0
M  V30 3580 C 331.425 4.53219 -2.57375 0
M  V30 3581 C 328.753 4.84069 -3.31503 0
M  V30 3582 C 331.105 5.03423 -3.83077 0
M  V30 3583 C 329.769 5.18413 -4.20481 0
M  V30 3584 H 329.039 0.734211 -0.100076 0
M  V30 3585 H 331.686 1.6718 -0.933972 0
M  V30 3586 H 329.991 3.89452 0.428285 0
M  V30 3587 H 331.688 4.00963 0.0542575 0
M  V30 3588 H 328.278 4.05824 -1.37858 0
M  V30 3589 H 332.462 4.39878 -2.29827 0
M  V30 3590 H 327.718 4.93859 -3.60435 0
M  V30 3591 H 331.892 5.2927 -4.52599 0
M  V30 3592 H 329.519 5.55987 -5.18443 0
M  V30 3593 N 331.094 0.475555 1.50254 0
M  V30 3594 C 332.371 -0.139685 1.95101 0
M  V30 3595 C 332.751 -1.56555 1.41611 0
M  V30 3596 O 332.099 -2.19956 0.618993 0
M  V30 3597 C 332.309 -0.0784298 3.48912 0
M  V30 3598 C 333.657 -0.265095 4.23772 0
M  V30 3599 O 334.681 -0.154808 3.55863 0
M  V30 3600 O 333.54 -0.488327 5.44314 0
M  V30 3601 H 330.634 -0.109236 0.819754 0
M  V30 3602 H 333.18 0.536276 1.61004 0
M  V30 3603 H 331.952 0.916918 3.80405 0
M  V30 3604 H 331.575 -0.795655 3.89558 0
M  V30 3605 N 332.573 -1.56217 0.208337 0
M  V30 3606 C 333.821 -1.97558 -0.426076 0
M  V30 3607 C 334.142 -1.09683 -1.61229 0
M  V30 3608 O 333.412 -0.170956 -1.95153 0
M  V30 3609 H 331.992 -0.729575 -0.160405 0
M  V30 3610 H 334.654 -1.92606 0.298155 0
M  V30 3611 H 333.75 -3.02672 -0.761312 0
M  V30 3612 N 334.051 0.0651679 -1.57465 0
M  V30 3613 C 335.462 0.616213 -1.76238 0
M  V30 3614 C 335.813 1.7756 -0.834689 0
M  V30 3615 O 334.938 2.1639 -0.0204156 0
M  V30 3616 C 335.533 1.12462 -3.1959 0
M  V30 3617 C 334.092 1.62147 -3.39684 0
M  V30 3618 C 333.239 0.543739 -2.71917 0
M  V30 3619 H 336.19 -0.161022 -1.57881 0
M  V30 3620 H 336.211 1.99324 -3.24114 0
M  V30 3621 H 335.723 0.280592 -3.87084 0
M  V30 3622 H 333.824 2.48854 -2.77313 0
M  V30 3623 H 333.937 1.69385 -4.48158 0
M  V30 3624 H 332.301 0.990352 -2.34657 0
M  V30 3625 H 333.084 -0.290216 -3.42071 0
M  V30 3626 N 335.529 1.53961 0.336706 0
M  V30 3627 C 336.477 1.83136 1.43401 0
M  V30 3628 C 337.471 0.702313 1.54156 0
M  V30 3629 O 338.677 0.885765 1.56698 0
M  V30 3630 H 335.052 0.580309 0.478273 0
M  V30 3631 H 337.023 2.74925 1.16012 0
M  V30 3632 C 335.772 2.06385 2.79822 0
M  V30 3633 H 335.095 2.92718 2.72316 0
M  V30 3634 H 336.535 2.30761 3.55704 0
M  V30 3635 C 334.994 0.851414 3.25964 0
M  V30 3636 O 335.524 0.0541904 4.01663 0
M  V30 3637 N 333.73 0.66672 2.82848 0
M  V30 3638 H 333.277 1.31665 2.21409 0
M  V30 3639 H 333.235 -0.143032 3.14074 0
M  V30 3640 N 337.007 -0.598083 1.45811 0
M  V30 3641 C 337.937 -1.71873 1.58057 0
M  V30 3642 C 338.918 -1.64533 0.431615 0
M  V30 3643 O 340.103 -1.82787 0.65595 0
M  V30 3644 C 337.233 -3.10495 1.55597 0
M  V30 3645 C 336.187 -3.32654 2.69305 0
M  V30 3646 C 335.513 -4.71646 2.51902 0
M  V30 3647 C 336.813 -3.21981 4.11248 0
M  V30 3648 H 338.507 -1.61881 2.51863 0
M  V30 3649 H 336.053 -0.777372 1.21214 0
M  V30 3650 H 338.006 -3.88699 1.6276 0
M  V30 3651 H 336.73 -3.2135 0.583255 0
M  V30 3652 H 335.389 -2.56843 2.61586 0
M  V30 3653 H 335.037 -4.79246 1.52748 0
M  V30 3654 H 334.737 -4.87426 3.2816 0
M  V30 3655 H 336.261 -5.52038 2.60933 0
M  V30 3656 H 337.675 -3.90049 4.20161 0
M  V30 3657 H 336.072 -3.49289 4.87972 0
M  V30 3658 H 337.142 -2.1928 4.32486 0
M  V30 3659 N 338.485 -1.33259 -0.841409 0
M  V30 3660 C 339.896 -1.22066 -1.41269 0
M  V30 3661 C 340.247 0.161479 -1.95534 0
M  V30 3662 O 339.372 1.06094 -1.88608 0
M  V30 3663 C 339.967 -2.20996 -2.568 0
M  V30 3664 C 338.526 -2.13649 -3.09888 0
M  V30 3665 C 337.673 -2.08623 -1.82679 0
M  V30 3666 H 340.624 -1.44895 -0.647395 0
M  V30 3667 H 340.645 -1.81621 -3.34356 0
M  V30 3668 H 340.157 -3.2158 -2.17274 0
M  V30 3669 H 338.258 -1.16359 -3.53965 0
M  V30 3670 H 338.371 -3.04079 -3.70234 0
M  V30 3671 H 336.735 -1.54061 -2.02824 0
M  V30 3672 H 337.518 -3.1101 -1.45353 0
M  V30 3673 N 339.963 1.05934 -1.16686 0
M  V30 3674 C 341.191 1.8249 -0.974929 0
M  V30 3675 C 341.606 1.82679 0.476861 0
M  V30 3676 O 340.963 1.2486 1.33103 0
M  V30 3677 C 341.014 3.28943 -1.49929 0
M  V30 3678 O 340.735 3.28886 -2.89423 0
M  V30 3679 C 342.236 4.22215 -1.35089 0
M  V30 3680 H 339.456 0.575295 -0.345365 0
M  V30 3681 H 342 1.33631 -1.548 0
M  V30 3682 H 340.155 3.751 -0.968423 0
M  V30 3683 H 340.569 4.20493 -3.13506 0
M  V30 3684 H 342.043 5.22987 -1.76603 0
M  V30 3685 H 342.52 4.38195 -0.296935 0
M  V30 3686 H 343.126 3.81907 -1.87155 0
M  V30 3687 N 341.441 0.965919 1.2453 0
M  V30 3688 C 342.371 0.513476 2.27784 0
M  V30 3689 C 343.352 -0.445974 1.6415 0
M  V30 3690 O 344.537 -0.342485 1.91156 0
M  V30 3691 C 341.667 -0.198839 3.4673 0
M  V30 3692 C 340.621 0.676456 4.2262 0
M  V30 3693 C 339.947 -0.167248 5.34438 0
M  V30 3694 C 341.247 1.96017 4.84123 0
M  V30 3695 H 342.941 1.3765 2.65881 0
M  V30 3696 H 340.487 0.663321 1.27813 0
M  V30 3697 H 342.44 -0.526567 4.18097 0
M  V30 3698 H 341.164 -1.0962 3.07654 0
M  V30 3699 H 339.823 0.98743 3.53052 0
M  V30 3700 H 339.471 -1.0647 4.91603 0
M  V30 3701 H 339.171 0.415181 5.86131 0
M  V30 3702 H 340.695 -0.489688 6.08633 0
M  V30 3703 H 342.109 1.69814 5.47573 0
M  V30 3704 H 340.506 2.48918 5.4604 0
M  V30 3705 H 341.576 2.65622 4.05676 0
M  V30 3706 N 342.919 -1.39368 0.735821 0
M  V30 3707 C 344.335 -1.54204 0.411492 0
M  V30 3708 C 344.535 -1.70268 -1.07755 0
M  V30 3709 O 343.591 -1.70364 -1.86366 0
M  V30 3710 C 344.904 -2.75925 1.19523 0
M  V30 3711 C 346.452 -2.89761 1.18354 0
M  V30 3712 C 346.927 -4.14421 1.94986 0
M  V30 3713 N 348.418 -4.21462 1.92156 0
M  V30 3714 C 349.153 -5.16871 2.48258 0
M  V30 3715 N 348.649 -6.18063 3.13001 0
M  V30 3716 N 350.442 -5.09093 2.38287 0
M  V30 3717 H 342.593 -1.27189 1.70108 0
M  V30 3718 H 344.856 -0.616517 0.720147 0
M  V30 3719 H 344.562 -2.70401 2.24892 0
M  V30 3720 H 344.436 -3.68614 0.800222 0
M  V30 3721 H 346.823 -2.94777 0.137975 0
M  V30 3722 H 346.904 -1.98133 1.61793 0
M  V30 3723 H 346.548 -4.10166 2.99543 0
M  V30 3724 H 346.478 -5.05095 1.48953 0
M  V30 3725 H 348.969 -3.48979 1.44991 0
M  V30 3726 H 349.282 -6.87326 3.53275 0
M  V30 3727 H 347.627 -6.18448 3.17091 0
M  V30 3728 H 350.818 -4.28973 1.8735 0
M  V30 3729 H 350.991 -5.83272 2.82308 0
M  V30 3730 N 344.397 -0.483516 -1.5 0
M  V30 3731 C 345.329 0.340634 -2.26655 0
M  V30 3732 C 346.342 0.946152 -1.32483 0
M  V30 3733 O 347.531 0.832453 -1.579 0
M  V30 3734 C 344.631 1.4929 -3.04246 0
M  V30 3735 C 343.804 0.997903 -4.25865 0
M  V30 3736 C 342.863 2.02569 -4.85646 0
M  V30 3737 O 341.889 1.60128 -5.46212 0
M  V30 3738 N 343.091 3.3548 -4.73744 0
M  V30 3739 H 345.856 -0.316577 -2.98023 0
M  V30 3740 H 343.417 -0.315024 -1.58806 0
M  V30 3741 H 345.409 2.17766 -3.41116 0
M  V30 3742 H 343.979 2.05458 -2.35597 0
M  V30 3743 H 343.199 0.138617 -3.93956 0
M  V30 3744 H 344.487 0.645305 -5.04691 0
M  V30 3745 H 343.885 3.72661 -4.25605 0
M  V30 3746 H 342.442 3.99718 -5.14848 0
M  V30 3747 N 345.875 1.56104 -0.216619 0
M  V30 3748 C 347.291 1.58995 0.13886 0
M  V30 3749 C 347.491 1.23333 1.59346 0
M  V30 3750 O 346.547 0.966234 2.33281 0
M  V30 3751 C 347.86 3.00143 -0.182968 0
M  V30 3752 C 349.408 3.12751 -0.124807 0
M  V30 3753 C 349.883 4.56068 -0.420241 0
M  V30 3754 N 351.374 4.61723 -0.369634 0
M  V30 3755 C 352.109 5.70542 -0.571789 0
M  V30 3756 N 351.605 6.87744 -0.835453 0
M  V30 3757 N 353.398 5.59831 -0.504563 0
M  V30 3758 H 345.549 1.77562 -1.16557 0
M  V30 3759 H 347.812 0.825091 -0.466828 0
M  V30 3760 H 347.518 3.30871 -1.19237 0
M  V30 3761 H 347.392 3.73813 0.504367 0
M  V30 3762 H 349.779 2.81822 0.875223 0
M  V30 3763 H 349.86 2.41421 -0.845544 0
M  V30 3764 H 349.504 4.87713 -1.41769 0
M  V30 3765 H 349.434 5.25617 0.321631 0
M  V30 3766 H 351.925 3.77502 -0.173338 0
M  V30 3767 H 352.238 7.66587 -0.977938 0
M  V30 3768 H 350.583 6.895 -0.872592 0
M  V30 3769 H 353.774 4.67145 -0.298842 0
M  V30 3770 H 353.947 6.44573 -0.665519 0
M  V30 3771 N 347.353 -0.0568162 1.57498 0
M  V30 3772 C 348.599 -0.75422 1.88253 0
M  V30 3773 C 348.932 -1.76461 0.810865 0
M  V30 3774 O 348.207 -1.93691 -0.177259 0
M  V30 3775 C 348.49 -1.44878 3.2967 0
M  V30 3776 C 348.343 -0.453789 4.47505 0
M  V30 3777 C 349.662 -2.38994 3.69554 0
M  V30 3778 H 346.781 -0.272724 0.684683 0
M  V30 3779 H 349.423 -0.0172113 1.89992 0
M  V30 3780 H 347.573 -2.077 3.28318 0
M  V30 3781 H 349.245 0.170371 4.60985 0
M  V30 3782 H 347.488 0.229552 4.33192 0
M  V30 3783 H 348.159 -0.977699 5.43273 0
M  V30 3784 H 350.635 -1.86239 3.72095 0
M  V30 3785 H 349.511 -2.84587 4.69363 0
M  V30 3786 H 349.772 -3.24461 3.00296 0
M  V30 3787 N 348.832 -1.54138 -0.328536 0
M  V30 3788 C 349.762 -1.86167 -1.40939 0
M  V30 3789 C 350.743 -0.718044 -1.54202 0
M  V30 3790 O 351.928 -0.971328 -1.68163 0
M  V30 3791 C 349.058 -2.08461 -2.77779 0
M  V30 3792 C 348.012 -3.24299 -2.7931 0
M  V30 3793 C 347.338 -3.31955 -4.19178 0
M  V30 3794 C 348.638 -4.62065 -2.43502 0
M  V30 3795 H 350.332 -2.76689 -1.14383 0
M  V30 3796 H 347.878 -1.33132 -0.548806 0
M  V30 3797 H 349.831 -2.29453 -3.53454 0
M  V30 3798 H 348.555 -1.14684 -3.05802 0
M  V30 3799 H 347.214 -3.03187 -2.0609 0
M  V30 3800 H 346.862 -2.35745 -4.44335 0
M  V30 3801 H 346.562 -4.09805 -4.2111 0
M  V30 3802 H 348.086 -3.55175 -4.96672 0
M  V30 3803 H 349.5 -4.8297 -3.08889 0
M  V30 3804 H 347.897 -5.42429 -2.56693 0
M  V30 3805 H 348.967 -4.64652 -1.38659 0
M  V30 3806 N 350.31 0.590341 -1.46126 0
M  V30 3807 C 351.22 1.72793 -1.58681 0
M  V30 3808 C 352.236 1.67516 -0.470566 0
M  V30 3809 O 353.412 1.87562 -0.733642 0
M  V30 3810 C 350.477 3.09287 -1.5666 0
M  V30 3811 C 349.538 3.25886 -2.79458 0
M  V30 3812 C 348.771 4.55869 -2.77524 0
M  V30 3813 O 348.994 5.3928 -1.85832 0
M  V30 3814 O 347.928 4.75552 -3.68964 0
M  V30 3815 H 351.754 1.65149 -2.54872 0
M  V30 3816 H 349.339 0.756486 -1.28832 0
M  V30 3817 H 351.221 3.90577 -1.58202 0
M  V30 3818 H 349.896 3.17385 -0.636271 0
M  V30 3819 H 348.803 2.44119 -2.83472 0
M  V30 3820 H 350.136 3.22675 -3.71674 0
M  V30 3821 N 351.788 1.33704 0.83433 0
M  V30 3822 C 353.036 1.25169 1.58673 0
M  V30 3823 C 353.357 -0.18127 1.94156 0
M  V30 3824 O 352.627 -1.11113 1.6134 0
M  V30 3825 H 351.207 0.4603 0.58833 0
M  V30 3826 H 353.869 1.67478 0.996847 0
M  V30 3827 H 352.965 1.84856 2.51465 0
M  V30 3828 N 353.266 -1.05314 1.17247 0
M  V30 3829 C 354.682 -1.30452 0.919473 0
M  V30 3830 C 354.882 -1.9703 -0.42209 0
M  V30 3831 O 353.938 -2.24311 -1.15935 0
M  V30 3832 C 355.251 -2.17551 2.07586 0
M  V30 3833 C 356.799 -2.30937 2.11275 0
M  V30 3834 C 357.274 -3.21396 3.26296 0
M  V30 3835 N 358.765 -3.28981 3.26076 0
M  V30 3836 C 359.5 -3.99095 4.11716 0
M  V30 3837 N 358.996 -4.71648 5.07465 0
M  V30 3838 N 360.789 -3.95247 3.9967 0
M  V30 3839 H 352.94 -0.604988 2.03602 0
M  V30 3840 H 355.203 -0.329368 0.888944 0
M  V30 3841 H 354.909 -1.75921 3.0454 0
M  V30 3842 H 354.783 -3.18182 2.02584 0
M  V30 3843 H 357.17 -2.71809 1.14907 0
M  V30 3844 H 357.251 -1.2994 2.20339 0
M  V30 3845 H 356.895 -2.81238 4.22927 0
M  V30 3846 H 356.825 -4.22395 3.14467 0
M  V30 3847 H 359.316 -2.77286 2.5675 0
M  V30 3848 H 359.629 -5.22705 5.6921 0
M  V30 3849 H 357.974 -4.70594 5.11435 0
M  V30 3850 H 361.165 -3.37691 3.24164 0
M  V30 3851 H 361.338 -4.4962 4.66632 0
M  V30 3852 N 354.744 -0.972509 -1.24016 0
M  V30 3853 C 355.991 -0.637034 -1.92219 0
M  V30 3854 C 356.319 0.828418 -1.75976 0
M  V30 3855 O 355.574 1.61206 -1.10955 0
M  V30 3856 C 355.873 -0.963694 -3.44162 0
M  V30 3857 C 355.539 -2.41807 -3.80579 0
M  V30 3858 C 354.201 -2.81556 -3.9023 0
M  V30 3859 C 356.553 -3.36172 -3.98293 0
M  V30 3860 C 353.881 -4.14702 -4.15017 0
M  V30 3861 C 356.233 -4.68952 -4.24578 0
M  V30 3862 C 354.897 -5.08472 -4.32449 0
M  V30 3863 H 354.167 -0.233107 -0.703379 0
M  V30 3864 H 356.814 -1.2249 -1.47202 0
M  V30 3865 H 355.119 -0.29365 -3.90698 0
M  V30 3866 H 356.816 -0.682449 -3.9515 0
M  V30 3867 H 353.406 -2.09988 -3.73635 0
M  V30 3868 H 357.59 -3.06644 -3.90234 0
M  V30 3869 H 352.846 -4.4494 -4.19331 0
M  V30 3870 H 357.02 -5.42037 -4.37229 0
M  V30 3871 H 354.647 -6.11665 -4.51409 0
M  V30 3872 N 356.222 1.38976 -0.743202 0
M  V30 3873 C 357.638 1.53984 -0.419664 0
M  V30 3874 C 357.838 1.70837 1.0685 0
M  V30 3875 O 356.894 1.7135 1.8546 0
M  V30 3876 C 358.207 2.75287 -1.20985 0
M  V30 3877 C 359.755 2.89129 -1.19889 0
M  V30 3878 C 360.23 4.13381 -1.97181 0
M  V30 3879 N 361.721 4.20437 -1.94389 0
M  V30 3880 C 362.456 5.15547 -2.50996 0
M  V30 3881 N 361.952 6.16395 -3.16274 0
M  V30 3882 N 363.745 5.07822 -2.40984 0
M  V30 3883 H 355.896 1.26285 -1.7078 0
M  V30 3884 H 358.159 0.612689 -0.723406 0
M  V30 3885 H 357.865 2.69204 -2.26323 0
M  V30 3886 H 357.739 3.68184 -0.819759 0
M  V30 3887 H 360.126 2.947 -0.153606 0
M  V30 3888 H 360.207 1.97272 -1.62841 0
M  V30 3889 H 359.851 4.08572 -3.01714 0
M  V30 3890 H 359.781 5.04298 -1.51629 0
M  V30 3891 H 362.272 3.48205 -1.46839 0
M  V30 3892 H 362.585 6.85443 -3.56915 0
M  V30 3893 H 360.93 6.16758 -3.20367 0
M  V30 3894 H 364.121 4.27973 -1.89622 0
M  V30 3895 H 364.294 5.81767 -2.85397 0
M  V30 3896 N 357.7 0.491464 1.49741 0
M  V30 3897 C 358.949 -0.0582189 2.01616 0
M  V30 3898 C 359.262 -1.38927 1.3769 0
M  V30 3899 O 360.468 -2.02509 1.80838 0
M  V30 3900 C 358.924 -0.154235 3.59569 0
M  V30 3901 C 358.532 1.1696 4.32463 0
M  V30 3902 C 360.276 -0.65479 4.1942 0
M  V30 3903 C 358.183 1.03627 5.8225 0
M  V30 3904 H 357.113 -0.0255317 0.753568 0
M  V30 3905 H 359.764 0.629445 1.72367 0
M  V30 3906 H 358.146 -0.906138 3.85493 0
M  V30 3907 H 359.32 1.93405 4.18248 0
M  V30 3908 H 357.635 1.60285 3.84315 0
M  V30 3909 H 360.232 -0.771903 5.29099 0
M  V30 3910 H 360.575 -1.65127 3.8215 0
M  V30 3911 H 361.108 0.040304 3.9778 0
M  V30 3912 H 357.847 2.00672 6.24028 0
M  V30 3913 H 357.367 0.312546 5.98985 0
M  V30 3914 H 359.046 0.711114 6.4308 0
M  V30 3915 N 359.178 -1.55987 0.224894 0
M  V30 3916 C 360.589 -1.84553 -0.282345 0
M  V30 3917 C 360.94 -1.14634 -1.59227 0
M  V30 3918 O 360.065 -0.417155 -2.12341 0
M  V30 3919 C 360.66 -3.348 -0.519062 0
M  V30 3920 C 359.219 -3.63671 -0.970604 0
M  V30 3921 C 358.366 -2.77277 -0.0355261 0
M  V30 3922 H 361.317 -1.52245 0.448006 0
M  V30 3923 H 361.338 -3.55187 -1.36463 0
M  V30 3924 H 360.85 -3.8566 0.43449 0
M  V30 3925 H 358.951 -3.1827 -1.9374 0
M  V30 3926 H 359.064 -4.71631 -0.842698 0
M  V30 3927 H 357.428 -2.48846 -0.542927 0
M  V30 3928 H 358.211 -3.30937 0.913003 0
M  V30 3929 N 360.656 0.0484629 -1.57525 0
M  V30 3930 C 361.903 0.743125 -1.88372 0
M  V30 3931 C 362.231 1.76383 -0.819715 0
M  V30 3932 O 361.486 1.94855 0.181659 0
M  V30 3933 C 361.785 1.46632 -3.25935 0
M  V30 3934 C 361.451 0.583427 -4.4711 0
M  V30 3935 C 360.113 0.340191 -4.79996 0
M  V30 3936 C 362.465 -0.0273345 -5.21193 0
M  V30 3937 C 359.793 -0.522903 -5.84365 0
M  V30 3938 C 362.145 -0.878017 -6.26477 0
M  V30 3939 C 360.809 -1.1309 -6.5785 0
M  V30 3940 H 360.079 0.271929 -0.689301 0
M  V30 3941 H 362.726 0.00336166 -1.915 0
M  V30 3942 H 361.031 2.2789 -3.18706 0
M  V30 3943 H 362.728 2.00902 -3.47044 0
M  V30 3944 H 359.318 0.783151 -4.21384 0
M  V30 3945 H 363.502 0.147654 -4.9608 0
M  V30 3946 H 358.758 -0.727335 -6.07058 0
M  V30 3947 H 362.932 -1.35789 -6.83033 0
M  V30 3948 H 360.559 -1.80144 -7.38547 0
M  V30 3949 N 362.134 1.5431 0.320358 0
M  V30 3950 C 363.381 1.72668 1.05792 0
M  V30 3951 C 363.709 0.502084 1.87908 0
M  V30 3952 O 362.964 -0.516149 1.88771 0
M  V30 3953 C 363.263 2.95639 2.00828 0
M  V30 3954 C 362.929 4.30265 1.34843 0
M  V30 3955 C 361.591 4.66865 1.16578 0
M  V30 3956 C 363.943 5.13801 0.875095 0
M  V30 3957 C 361.271 5.84597 0.496336 0
M  V30 3958 C 363.623 6.32219 0.219463 0
M  V30 3959 C 362.287 6.67495 0.0246915 0
M  V30 3960 H 361.557 0.631837 0.387121 0
M  V30 3961 H 364.204 1.88552 0.334735 0
M  V30 3962 H 362.509 2.74456 2.79609 0
M  V30 3963 H 364.206 3.07038 2.57932 0
M  V30 3964 H 360.796 4.01472 1.50061 0
M  V30 3965 H 364.98 4.86039 1.00398 0
M  V30 3966 H 360.236 6.10486 0.334264 0
M  V30 3967 H 364.41 6.96227 -0.155291 0
M  V30 3968 H 362.037 7.5858 -0.496065 0
M  V30 3969 N 363.613 -0.582584 1.46437 0
M  V30 3970 C 364.546 -1.70633 1.51524 0
M  V30 3971 C 365.524 -1.58349 0.369351 0
M  V30 3972 O 366.708 -1.79563 0.573516 0
M  V30 3973 C 363.835 -3.08687 1.39392 0
M  V30 3974 C 362.881 -3.3949 2.58164 0
M  V30 3975 S 363.714 -3.31548 4.20519 0
M  V30 3976 C 364.87 -4.72139 4.10896 0
M  V30 3977 H 365.103 -1.66058 2.46601 0
M  V30 3978 H 362.636 -0.761337 1.34324 0
M  V30 3979 H 364.594 -3.8833 1.33079 0
M  V30 3980 H 363.255 -3.10751 0.457436 0
M  V30 3981 H 362.448 -4.40071 2.45669 0
M  V30 3982 H 362.05 -2.67415 2.61468 0
M  V30 3983 H 364.342 -5.62527 3.77584 0
M  V30 3984 H 365.285 -4.89692 5.11476 0
M  V30 3985 H 365.693 -4.48995 3.42146 0
M  V30 3986 N 365.091 -1.34144 -0.827227 0
M  V30 3987 C 366.316 -1.29476 -1.62021 0
M  V30 3988 C 366.741 0.129292 -1.87655 0
M  V30 3989 O 366.099 1.08967 -1.449 0
M  V30 3990 C 366.147 -2.08702 -2.94068 0
M  V30 3991 O 365.251 -1.45359 -3.85933 0
M  V30 3992 H 364.592 -0.444881 -0.492927 0
M  V30 3993 H 367.122 -1.76882 -1.02829 0
M  V30 3994 H 367.132 -2.19898 -3.43669 0
M  V30 3995 H 365.807 -3.12241 -2.74734 0
M  V30 3996 H 364.384 -1.42879 -3.44442 0
M  V30 3997 N 366.569 1.04691 -1.17803 0
M  V30 3998 C 367.501 2.12571 -0.857097 0
M  V30 3999 C 368.514 1.62174 0.142647 0
M  V30 4000 O 369.703 1.78301 -0.0843387 0
M  V30 4001 C 366.803 3.37915 -0.258216 0
M  V30 4002 C 365.976 4.1757 -1.30207 0
M  V30 4003 C 365.035 5.2125 -0.720029 0
M  V30 4004 O 364.061 5.51888 -1.39314 0
M  V30 4005 N 365.263 5.78466 0.485507 0
M  V30 4006 H 368.028 2.40698 -1.78562 0
M  V30 4007 H 365.589 1.20831 -1.07757 0
M  V30 4008 H 367.581 4.04442 0.144584 0
M  V30 4009 H 366.151 3.07281 0.574199 0
M  V30 4010 H 365.371 3.46458 -1.88043 0
M  V30 4011 H 366.659 4.67586 -2.00601 0
M  V30 4012 H 366.057 5.55866 1.05022 0
M  V30 4013 H 364.614 6.4649 0.830307 0
M  V30 4014 N 368.047 0.979072 1.23499 0
M  V30 4015 C 369.324 0.563674 1.87302 0
M  V30 4016 C 369.704 -0.959199 1.88049 0
M  V30 4017 O 369.052 -1.83535 1.36114 0
M  V30 4018 C 369.262 1.16822 3.28867 0
M  V30 4019 C 370.61 1.26014 4.0547 0
M  V30 4020 O 371.634 1.12158 3.38082 0
M  V30 4021 O 370.493 1.48044 5.26066 0
M  V30 4022 H 367.587 0.189602 0.804972 0
M  V30 4023 H 370.133 1.07407 1.31384 0
M  V30 4024 H 368.905 2.21049 3.22883 0
M  V30 4025 H 368.528 0.642564 3.92373 0
M  V30 4026 N 369.525 -1.3858 0.750561 0
M  V30 4027 C 370.765 -2.02032 0.310258 0
M  V30 4028 C 371.129 -1.58288 -1.08668 0
M  V30 4029 O 372.33 -2.14049 -1.62593 0
M  V30 4030 C 370.601 -3.54856 0.425647 0
M  V30 4031 S 372.16 -4.38748 0.0674797 0
M  V30 4032 H 368.978 -0.700705 0.120554 0
M  V30 4033 H 371.58 -1.69134 0.980512 0
M  V30 4034 H 370.284 -3.84182 1.44335 0
M  V30 4035 H 369.815 -3.92527 -0.261894 0
M  V30 4036 H 371.83 -4.82835 -1.14388 0
M  V30 4037 N 371.003 -0.499398 -1.49478 0
M  V30 4038 C 371.913 0.284489 -2.32869 0
M  V30 4039 C 372.929 0.968885 -1.44529 0
M  V30 4040 O 374.105 0.95062 -1.77553 0
M  V30 4041 C 371.17 1.33594 -3.19928 0
M  V30 4042 C 370.231 0.665149 -4.24116 0
M  V30 4043 C 369.464 1.6665 -5.07014 0
M  V30 4044 O 369.687 2.89618 -4.91404 0
M  V30 4045 O 368.621 1.22271 -5.8935 0
M  V30 4046 H 372.447 -0.39802 -3.01081 0
M  V30 4047 H 370.032 -0.260758 -1.47107 0
M  V30 4048 H 371.914 1.94431 -3.73864 0
M  V30 4049 H 370.589 2.0014 -2.54412 0
M  V30 4050 H 369.496 0.0170769 -3.74096 0
M  V30 4051 H 370.829 0.0421555 -4.92182 0
M  V30 4052 N 372.481 1.55866 -0.233164 0
M  V30 4053 C 373.706 2.03449 0.402906 0
M  V30 4054 C 374.131 1.11166 1.51736 0
M  V30 4055 O 373.489 0.101996 1.81013 0
M  V30 4056 C 373.537 3.49165 0.9009 0
M  V30 4057 O 372.641 3.60019 2.01147 0
M  V30 4058 H 371.982 0.657913 0.0897025 0
M  V30 4059 H 374.512 2.01493 -0.355201 0
M  V30 4060 H 374.522 3.89716 1.2077 0
M  V30 4061 H 373.197 4.15813 0.0852889 0
M  V30 4062 H 371.774 3.3136 1.71042 0
M  V30 4063 N 373.959 -0.0401083 1.57549 0
M  V30 4064 C 374.889 -1.04384 2.08869 0
M  V30 4065 C 375.87 -1.38407 0.988817 0
M  V30 4066 O 377.055 -1.47483 1.26342 0
M  V30 4067 C 374.185 -2.34808 2.55895 0
M  V30 4068 C 373.139 -2.15057 3.70047 0
M  V30 4069 C 372.465 -3.51145 4.03239 0
M  V30 4070 C 373.765 -1.54576 4.98902 0
M  V30 4071 H 375.459 -0.616666 2.92981 0
M  V30 4072 H 373.005 -0.295184 1.40942 0
M  V30 4073 H 374.958 -3.05346 2.90417 0
M  V30 4074 H 373.682 -2.79565 1.68853 0
M  V30 4075 H 372.341 -1.46954 3.35857 0
M  V30 4076 H 371.989 -3.93529 3.13279 0
M  V30 4077 H 371.689 -3.38758 4.80122 0
M  V30 4078 H 373.213 -4.23062 4.40285 0
M  V30 4079 H 374.627 -2.15017 5.31451 0
M  V30 4080 H 373.024 -1.52796 5.80322 0
M  V30 4081 H 374.094 -0.51039 4.82206 0
M  V30 4082 N 375.437 -1.54477 -0.31217 0
M  V30 4083 C 376.686 -1.72438 -1.04633 0
M  V30 4084 C 376.999 -0.511163 -1.88803 0
M  V30 4085 O 378.205 -0.572341 -2.65399 0
M  V30 4086 C 376.661 -3.05043 -1.9099 0
M  V30 4087 C 376.269 -4.33806 -1.11877 0
M  V30 4088 C 378.013 -3.32364 -2.64073 0
M  V30 4089 C 375.92 -5.57467 -1.97445 0
M  V30 4090 H 374.85 -0.642647 -0.394361 0
M  V30 4091 H 377.501 -1.80966 -0.303929 0
M  V30 4092 H 375.883 -2.90451 -2.69173 0
M  V30 4093 H 377.057 -4.59199 -0.383843 0
M  V30 4094 H 375.372 -4.13336 -0.504252 0
M  V30 4095 H 377.969 -4.21951 -3.28423 0
M  V30 4096 H 378.312 -2.50745 -3.32314 0
M  V30 4097 H 378.845 -3.47875 -1.92944 0
M  V30 4098 H 375.584 -6.41722 -1.33692 0
M  V30 4099 H 375.104 -5.36277 -2.6864 0
M  V30 4100 H 376.783 -5.94303 -2.5576 0
M  V30 4101 N 376.915 0.57481 -1.46744 0
M  V30 4102 C 378.331 0.898981 -1.31873 0
M  V30 4103 C 378.531 1.99313 -0.29605 0
M  V30 4104 O 377.587 2.50728 0.298621 0
M  V30 4105 C 378.9 1.30886 -2.7072 0
M  V30 4106 C 380.448 1.42127 -2.78871 0
M  V30 4107 C 380.923 1.86478 -4.18318 0
M  V30 4108 N 382.414 1.93658 -4.20774 0
M  V30 4109 C 383.149 2.29267 -5.2557 0
M  V30 4110 N 382.645 2.63612 -6.40688 0
M  V30 4111 N 384.438 2.29889 -5.1294 0
M  V30 4112 H 376.589 -0.147839 -2.11885 0
M  V30 4113 H 378.852 -0.00347013 -0.947994 0
M  V30 4114 H 378.558 0.578853 -3.46904 0
M  V30 4115 H 378.432 2.26874 -3.01343 0
M  V30 4116 H 380.819 2.14213 -2.0297 0
M  V30 4117 H 380.9 0.443705 -2.51922 0
M  V30 4118 H 380.544 1.14968 -4.94717 0
M  V30 4119 H 380.474 2.85207 -4.42679 0
M  V30 4120 H 382.965 1.69574 -3.37718 0
M  V30 4121 H 383.278 2.89759 -7.16421 0
M  V30 4122 H 381.623 2.61232 -6.44036 0
M  V30 4123 H 384.814 2.02485 -4.22039 0
M  V30 4124 H 384.987 2.57312 -5.94722 0
M  V30 4125 N 378.394 1.34581 0.820102 0
M  V30 4126 C 379.81 1.14325 1.11364 0
M  V30 4127 C 380.01 -0.0533648 2.01429 0
M  V30 4128 O 379.066 -0.728044 2.41776 0
M  V30 4129 C 380.379 2.43983 1.75764 0
M  V30 4130 C 381.927 2.50065 1.88246 0
M  V30 4131 C 382.402 3.79732 2.56061 0
M  V30 4132 N 383.893 3.80908 2.63558 0
M  V30 4133 C 384.628 4.77961 3.16766 0
M  V30 4134 N 384.124 5.85397 3.70517 0
M  V30 4135 N 385.917 4.65413 3.15194 0
M  V30 4136 H 378.068 2.11246 0.221096 0
M  V30 4137 H 380.331 0.934289 0.160649 0
M  V30 4138 H 380.037 3.31651 1.1705 0
M  V30 4139 H 379.911 2.57531 2.75604 0
M  V30 4140 H 382.298 1.62834 2.46108 0
M  V30 4141 H 382.379 2.40442 0.873006 0
M  V30 4142 H 382.023 4.67354 1.98853 0
M  V30 4143 H 381.953 3.86639 3.57516 0
M  V30 4144 H 384.444 3.03274 2.25463 0
M  V30 4145 H 384.757 6.55463 4.09376 0
M  V30 4146 H 383.102 5.89107 3.68752 0
M  V30 4147 H 386.293 3.80627 2.72471 0
M  V30 4148 H 386.466 5.41216 3.56356 0
M  V30 4149 N 379.872 -1.04064 1.18357 0
M  V30 4150 C 380.805 -2.11618 0.854 0
M  V30 4151 C 381.783 -1.61555 -0.184043 0
M  V30 4152 O 382.967 -1.88395 -0.0630048 0
M  V30 4153 C 380.094 -3.37574 0.27597 0
M  V30 4154 C 379.14 -4.06485 1.2912 0
M  V30 4155 S 379.973 -4.53543 2.84709 0
M  V30 4156 C 381.129 -5.82732 2.28417 0
M  V30 4157 H 381.362 -2.39247 1.76488 0
M  V30 4158 H 378.895 -1.16832 1.00944 0
M  V30 4159 H 380.853 -4.10468 -0.051026 0
M  V30 4160 H 379.514 -3.0806 -0.613028 0
M  V30 4161 H 378.707 -4.97024 0.835633 0
M  V30 4162 H 378.309 -3.39708 1.56443 0
M  V30 4163 H 380.601 -6.56677 1.66677 0
M  V30 4164 H 381.544 -6.33052 3.17256 0
M  V30 4165 H 381.952 -5.37838 1.71436 0
M  V30 4166 N 381.35 -0.985608 -1.22978 0
M  V30 4167 C 382.28 -0.549649 -2.26939 0
M  V30 4168 C 383.261 0.419803 -1.64838 0
M  V30 4169 O 384.446 0.31203 -1.91677 0
M  V30 4170 C 381.576 0.143652 -3.47003 0
M  V30 4171 C 380.53 -0.743606 -4.21491 0
M  V30 4172 C 379.856 0.0822027 -5.34637 0
M  V30 4173 C 381.156 -2.03694 -4.80943 0
M  V30 4174 H 382.85 -1.41862 -2.63658 0
M  V30 4175 H 380.396 -0.683571 -1.26741 0
M  V30 4176 H 382.349 0.459985 -4.18882 0
M  V30 4177 H 381.073 1.04711 -3.09359 0
M  V30 4178 H 379.732 -1.04347 -3.51436 0
M  V30 4179 H 379.38 0.986359 -4.93234 0
M  V30 4180 H 379.08 -0.508377 -5.85397 0
M  V30 4181 H 380.604 0.392797 -6.09335 0
M  V30 4182 H 382.018 -1.78504 -5.44802 0
M  V30 4183 H 380.415 -2.57573 -5.42011 0
M  V30 4184 H 381.485 -2.72042 -4.01399 0
M  V30 4185 N 382.828 1.3818 -0.7579 0
M  V30 4186 C 384.074 2.00316 -0.316453 0
M  V30 4187 C 384.407 1.60026 1.10025 0
M  V30 4188 O 383.682 0.839835 1.75434 0
M  V30 4189 C 383.965 3.57349 -0.444245 0
M  V30 4190 C 383.818 4.07591 -1.90236 0
M  V30 4191 C 385.137 4.3981 0.1598 0
M  V30 4192 H 382.256 0.727741 -0.116459 0
M  V30 4193 H 384.898 1.6406 -0.958352 0
M  V30 4194 H 383.048 3.88365 0.102233 0
M  V30 4195 H 384.72 3.87199 -2.50748 0
M  V30 4196 H 382.963 3.60297 -2.41595 0
M  V30 4197 H 383.634 5.16677 -1.94291 0
M  V30 4198 H 386.11 4.14971 -0.306314 0
M  V30 4199 H 384.986 5.48885 0.0401675 0
M  V30 4200 H 385.247 4.24102 1.24859 0
M  V30 4201 N 384.306 0.507319 1.49211 0
M  V30 4202 C 385.552 -0.0350047 2.0277 0
M  V30 4203 C 385.885 -1.3606 1.38569 0
M  V30 4204 O 385.16 -1.87321 0.523542 0
M  V30 4205 C 385.443 -0.180916 3.59645 0
M  V30 4206 C 385.296 1.16825 4.34364 0
M  V30 4207 C 386.615 -0.918558 4.30407 0
M  V30 4208 H 383.734 -0.0112473 0.736914 0
M  V30 4209 H 386.376 0.659956 1.7817 0
M  V30 4210 H 384.526 -0.772826 3.80736 0
M  V30 4211 H 386.198 1.79952 4.24753 0
M  V30 4212 H 384.441 1.75594 3.96673 0
M  V30 4213 H 385.112 1.01939 5.42506 0
M  V30 4214 H 387.588 -0.41649 4.1401 0
M  V30 4215 H 386.464 -0.989505 5.39907 0
M  V30 4216 H 386.725 -1.96373 3.96093 0
M  V30 4217 N 385.784 -1.5574 0.241426 0
M  V30 4218 C 387.061 -1.90704 -0.434881 0
M  V30 4219 C 387.441 -1.16145 -1.76277 0
M  V30 4220 O 386.789 -0.277152 -2.26813 0
M  V30 4221 C 386.999 -3.43657 -0.608343 0
M  V30 4222 C 388.347 -4.14806 -0.906725 0
M  V30 4223 O 389.371 -3.49366 -0.694408 0
M  V30 4224 O 388.23 -5.30548 -1.31075 0
M  V30 4225 H 385.324 -0.793592 -0.23268 0
M  V30 4226 H 387.87 -1.67288 0.285086 0
M  V30 4227 H 386.642 -3.89927 0.327505 0
M  V30 4228 H 386.265 -3.72918 -1.37906 0
M  V30 4229 N 387.262 0.0317525 -1.57568 0
M  V30 4230 C 388.673 0.578692 -1.77505 0
M  V30 4231 C 389.024 1.75749 -0.872164 0
M  V30 4232 O 388.149 2.16298 -0.0663106 0
M  V30 4233 C 388.744 1.05658 -3.21904 0
M  V30 4234 C 387.303 1.54906 -3.43047 0
M  V30 4235 C 386.45 0.485939 -2.73009 0
M  V30 4236 H 389.401 -0.194475 -1.57504 0
M  V30 4237 H 389.422 1.92404 -3.28269 0
M  V30 4238 H 388.934 0.198422 -3.87592 0
M  V30 4239 H 387.035 2.42915 -2.82529 0
M  V30 4240 H 387.148 1.59841 -4.5165 0
M  V30 4241 H 385.512 0.940354 -2.36705 0
M  V30 4242 H 386.295 -0.362709 -3.41379 0
M  V30 4243 N 388.74 1.54641 0.303973 0
M  V30 4244 C 389.703 1.84646 1.35789 0
M  V30 4245 C 390.703 0.7192 1.4382 0
M  V30 4246 O 391.893 0.987491 1.43507 0
M  V30 4247 C 389.025 2.02407 2.74307 0
M  V30 4248 H 390.218 2.78829 1.10429 0
M  V30 4249 H 387.771 1.46658 0.540487 0
M  V30 4250 H 388.506 1.10502 3.04893 0
M  V30 4251 H 388.291 2.84453 2.69868 0
M  V30 4252 H 389.781 2.27002 3.50514 0
M  V30 4253 N 390.218 -0.567019 1.47046 0
M  V30 4254 C 391.634 -0.891975 1.32348 0
M  V30 4255 C 391.834 -1.99154 0.306616 0
M  V30 4256 O 390.89 -2.50883 -0.28532 0
M  V30 4257 C 392.203 -1.29449 2.7141 0
M  V30 4258 C 393.751 -1.40646 2.79621 0
M  V30 4259 C 394.226 -1.84257 4.19301 0
M  V30 4260 N 395.717 -1.91424 4.21795 0
M  V30 4261 C 396.452 -2.26476 5.26779 0
M  V30 4262 N 395.948 -2.60211 6.42077 0
M  V30 4263 N 397.741 -2.27166 5.14152 0
M  V30 4264 H 389.892 0.159074 2.11803 0
M  V30 4265 H 392.155 0.00849752 0.947962 0
M  V30 4266 H 391.861 -0.560448 3.47206 0
M  V30 4267 H 391.735 -2.25273 3.02542 0
M  V30 4268 H 394.122 -2.13133 2.04104 0
M  V30 4269 H 394.203 -0.430339 2.52154 0
M  V30 4270 H 393.847 -1.12343 4.95319 0
M  V30 4271 H 393.777 -2.82855 4.44185 0
M  V30 4272 H 396.268 -1.6778 3.38612 0
M  V30 4273 H 396.581 -2.85956 7.17948 0
M  V30 4274 H 394.926 -2.57813 6.45413 0
M  V30 4275 H 398.117 -2.00244 4.23107 0
M  V30 4276 H 398.29 -2.54154 5.96079 0
M  V30 4277 N 391.696 -1.35014 -0.812953 0
M  V30 4278 C 393.112 -1.14914 -1.10757 0
M  V30 4279 C 393.312 0.0426818 -2.01455 0
M  V30 4280 O 392.368 0.715212 -2.42159 0
M  V30 4281 C 393.681 -2.44911 -1.74468 0
M  V30 4282 C 395.229 -2.5106 -1.86917 0
M  V30 4283 C 395.704 -3.81085 -2.54044 0
M  V30 4284 N 397.195 -3.82301 -2.61535 0
M  V30 4285 C 397.93 -4.79634 -3.14227 0
M  V30 4286 N 397.426 -5.87353 -3.67407 0
M  V30 4287 N 399.219 -4.67078 -3.12721 0
M  V30 4288 H 391.37 -2.1136 -0.20989 0
M  V30 4289 H 393.633 -0.935128 -0.155692 0
M  V30 4290 H 393.339 -3.32267 -1.15289 0
M  V30 4291 H 393.213 -2.58989 -2.74234 0
M  V30 4292 H 395.6 -1.64137 -2.45241 0
M  V30 4293 H 395.681 -2.40901 -0.860242 0
M  V30 4294 H 395.325 -4.68402 -1.96372 0
M  V30 4295 H 395.255 -3.88529 -3.55461 0
M  V30 4296 H 397.746 -3.04465 -2.23851 0
M  V30 4297 H 398.059 -6.57624 -4.05894 0
M  V30 4298 H 396.404 -5.91054 -3.65623 0
M  V30 4299 H 399.595 -3.82067 -2.70449 0
M  V30 4300 H 399.768 -5.43098 -3.53481 0
M  V30 4301 N 393.175 1.03435 -1.18907 0
M  V30 4302 C 394.424 1.76143 -0.982669 0
M  V30 4303 C 394.737 1.89416 0.487953 0
M  V30 4304 O 395.943 2.59041 0.813036 0
M  V30 4305 C 394.399 3.16722 -1.70924 0
M  V30 4306 C 394.007 3.11522 -3.21959 0
M  V30 4307 C 395.751 3.93764 -1.58588 0
M  V30 4308 C 393.658 4.46999 -3.87228 0
M  V30 4309 H 392.588 0.660292 -0.364047 0
M  V30 4310 H 395.239 1.158 -1.42347 0
M  V30 4311 H 393.621 3.775 -1.19623 0
M  V30 4312 H 394.795 2.60158 -3.80335 0
M  V30 4313 H 393.11 2.47978 -3.34508 0
M  V30 4314 H 395.707 4.93963 -2.04707 0
M  V30 4315 H 396.05 4.12794 -0.539142 0
M  V30 4316 H 396.583 3.39576 -2.07203 0
M  V30 4317 H 393.322 4.33174 -4.91976 0
M  V30 4318 H 392.842 4.98441 -3.33642 0
M  V30 4319 H 394.521 5.15898 -3.90459 0
M  V30 4320 N 394.653 0.992116 1.22453 0
M  V30 4321 C 395.881 0.685944 1.95198 0
M  V30 4322 C 396.296 -0.749233 1.73297 0
M  V30 4323 O 395.653 -1.50549 1.03156 0
M  V30 4324 C 395.704 0.981395 3.47924 0
M  V30 4325 O 395.425 2.36018 3.6909 0
M  V30 4326 C 396.926 0.692815 4.37853 0
M  V30 4327 H 394.146 0.253821 0.621141 0
M  V30 4328 H 396.69 1.32668 1.55626 0
M  V30 4329 H 394.845 0.386481 3.85467 0
M  V30 4330 H 395.259 2.45884 4.63294 0
M  V30 4331 H 396.733 0.949818 5.43767 0
M  V30 4332 H 397.21 -0.373181 4.37612 0
M  V30 4333 H 397.816 1.26874 4.05935 0
M  V30 4334 N 396.131 -1.37776 0.765217 0
M  V30 4335 C 397.38 -1.99092 0.323307 0
M  V30 4336 C 397.693 -1.61434 -1.10446 0
M  V30 4337 O 398.899 -2.15805 -1.64743 0
M  V30 4338 C 397.355 -3.56019 0.527098 0
M  V30 4339 C 396.963 -4.0262 1.96471 0
M  V30 4340 C 398.707 -4.2424 0.148483 0
M  V30 4341 C 396.614 -5.52233 2.11644 0
M  V30 4342 H 395.544 -0.744846 0.117137 0
M  V30 4343 H 398.195 -1.57391 0.943417 0
M  V30 4344 H 396.577 -3.95667 -0.162372 0
M  V30 4345 H 397.751 -3.74234 2.68859 0
M  V30 4346 H 396.066 -3.47161 2.29931 0
M  V30 4347 H 398.663 -5.34159 0.240456 0
M  V30 4348 H 399.006 -4.06446 -0.900422 0
M  V30 4349 H 399.539 -3.89872 0.79025 0
M  V30 4350 H 396.278 -5.74945 3.1483 0
M  V30 4351 H 395.798 -5.82324 1.4373 0
M  V30 4352 H 397.477 -6.18106 1.91193 0
M  V30 4353 N 397.609 -0.515225 -1.4894 0
M  V30 4354 C 398.572 0.244681 -2.2789 0
M  V30 4355 C 399.572 0.881166 -1.34507 0
M  V30 4356 O 400.762 0.743497 -1.57537 0
M  V30 4357 C 397.894 1.35247 -3.12923 0
M  V30 4358 H 399.087 -0.448289 -2.96531 0
M  V30 4359 H 396.64 -0.270656 -1.53939 0
M  V30 4360 H 397.375 2.07916 -2.48881 0
M  V30 4361 H 397.16 0.901374 -3.81599 0
M  V30 4362 H 398.65 1.88737 -3.72516 0
M  V30 4363 N 399.087 1.5561 -0.249682 0
M  V30 4364 C 400.019 2.18834 0.681496 0
M  V30 4365 C 401.032 1.16546 1.1367 0
M  V30 4366 O 402.221 1.43397 1.06299 0
M  V30 4367 C 399.321 2.77992 1.9384 0
M  V30 4368 C 398.494 4.05725 1.63419 0
M  V30 4369 C 397.553 4.49174 2.74096 0
M  V30 4370 O 396.579 5.15492 2.41364 0
M  V30 4371 N 397.781 4.17191 4.03649 0
M  V30 4372 H 400.546 2.9937 0.140514 0
M  V30 4373 H 398.107 1.6175 -0.0697541 0
M  V30 4374 H 400.099 3.04015 2.67127 0
M  V30 4375 H 398.669 2.01596 2.38909 0
M  V30 4376 H 397.889 3.87261 0.736358 0
M  V30 4377 H 399.177 4.88999 1.40562 0
M  V30 4378 H 398.575 3.63955 4.33074 0
M  V30 4379 H 397.132 4.48043 4.73393 0
M  V30 4380 N 400.565 -0.0233959 1.57583 0
M  V30 4381 C 401.814 -0.712133 1.8871 0
M  V30 4382 C 402.127 -1.76217 0.848944 0
M  V30 4383 O 403.333 -2.50389 1.04964 0
M  V30 4384 C 401.789 -1.3177 3.3491 0
M  V30 4385 C 401.397 -0.303715 4.46969 0
M  V30 4386 C 403.141 -1.98598 3.75179 0
M  V30 4387 C 401.048 -0.917945 5.84233 0
M  V30 4388 H 399.978 -0.269735 0.704101 0
M  V30 4389 H 402.629 0.0333114 1.8347 0
M  V30 4390 H 401.011 -2.11304 3.34913 0
M  V30 4391 H 402.185 0.465325 4.58445 0
M  V30 4392 H 400.5 0.2628 4.1557 0
M  V30 4393 H 403.097 -2.45416 4.75053 0
M  V30 4394 H 403.44 -2.80659 3.07468 0
M  V30 4395 H 403.973 -1.25831 3.77374 0
M  V30 4396 H 400.712 -0.136633 6.55358 0
M  V30 4397 H 400.232 -1.65669 5.76467 0
M  V30 4398 H 401.911 -1.4236 6.31144 0
M  V30 4399 N 402.043 -1.548 -0.295768 0
M  V30 4400 C 403.459 -1.4613 -0.641722 0
M  V30 4401 C 403.659 -0.656771 -1.90496 0
M  V30 4402 O 402.715 -0.166547 -2.5195 0
M  V30 4403 C 404.028 -2.90141 -0.789852 0
M  V30 4404 C 405.576 -3.00216 -0.885396 0
M  V30 4405 C 406.051 -4.45434 -1.06548 0
M  V30 4406 N 407.542 -4.49166 -1.13156 0
M  V30 4407 C 408.277 -5.58717 -1.28929 0
M  V30 4408 N 407.773 -6.78182 -1.41567 0
M  V30 4409 N 409.566 -5.46415 -1.31859 0
M  V30 4410 H 401.717 -2.05574 0.534147 0
M  V30 4411 H 403.98 -0.931259 0.177372 0
M  V30 4412 H 403.686 -3.51635 0.0675598 0
M  V30 4413 H 403.56 -3.37859 -1.67724 0
M  V30 4414 H 405.947 -2.38833 -1.73329 0
M  V30 4415 H 406.028 -2.55787 0.0261185 0
M  V30 4416 H 405.672 -5.07413 -0.222335 0
M  V30 4417 H 405.602 -4.87499 -1.9913 0
M  V30 4418 H 408.093 -3.631 -1.04721 0
M  V30 4419 H 408.406 -7.57428 -1.53372 0
M  V30 4420 H 406.751 -6.81037 -1.38613 0
M  V30 4421 H 409.942 -4.5203 -1.21601 0
M  V30 4422 H 410.115 -6.31841 -1.43808 0
M  V30 4423 N 403.521 0.559213 -1.47345 0
M  V30 4424 C 404.453 1.68161 -1.55738 0
M  V30 4425 C 405.466 1.56636 -0.443744 0
M  V30 4426 O 406.655 1.6363 -0.713258 0
M  V30 4427 C 403.755 3.06611 -1.4437 0
M  V30 4428 C 402.928 3.4391 -2.70268 0
M  V30 4429 C 401.987 4.61515 -2.52765 0
M  V30 4430 O 401.013 4.66197 -3.26572 0
M  V30 4431 N 402.215 5.57883 -1.6046 0
M  V30 4432 H 404.98 1.61408 -2.52522 0
M  V30 4433 H 402.541 0.7458 -1.43699 0
M  V30 4434 H 404.533 3.83117 -1.30398 0
M  V30 4435 H 403.103 3.07602 -0.556766 0
M  V30 4436 H 402.323 2.56873 -2.99015 0
M  V30 4437 H 403.611 3.65605 -3.53851 0
M  V30 4438 H 403.009 5.56855 -0.996422 0
M  V30 4439 H 401.566 6.33723 -1.52441 0
M  V30 4440 N 404.999 1.35443 0.805782 0
M  V30 4441 C 405.949 1.24972 1.90699 0
M  V30 4442 C 406.933 0.144806 1.60247 0
M  V30 4443 O 408.125 0.376102 1.72958 0
M  V30 4444 C 405.254 1.02475 3.27649 0
M  V30 4445 C 404.34 2.17361 3.64164 0
M  V30 4446 N 404.731 3.42591 3.72109 0
M  V30 4447 C 403.029 2.08765 3.94123 0
M  V30 4448 C 403.73 4.18144 4.04389 0
M  V30 4449 N 402.706 3.4691 4.18515 0
M  V30 4450 H 406.508 2.19852 1.95044 0
M  V30 4451 H 404.022 1.27928 1.00041 0
M  V30 4452 H 406.019 0.930617 4.06381 0
M  V30 4453 H 404.679 0.0848009 3.24589 0
M  V30 4454 H 405.69 3.76932 3.55166 0
M  V30 4455 H 402.367 1.22629 3.99084 0
M  V30 4456 H 403.757 5.26367 4.17597 0
M  V30 4457 N 406.477 -1.02803 1.19454 0
M  V30 4458 C 407.893 -1.28473 0.946937 0
M  V30 4459 C 408.093 -1.97881 -0.380202 0
M  V30 4460 O 407.149 -2.26719 -1.11151 0
M  V30 4461 C 408.462 -2.13099 2.12154 0
M  V30 4462 C 410.01 -2.26404 2.16126 0
M  V30 4463 C 410.485 -3.14402 3.33039 0
M  V30 4464 N 411.976 -3.21991 3.32981 0
M  V30 4465 C 412.711 -3.90272 4.20089 0
M  V30 4466 N 412.207 -4.60777 5.17355 0
M  V30 4467 N 414 -3.8668 4.07964 0
M  V30 4468 H 406.151 -0.561665 2.04839 0
M  V30 4469 H 408.414 -0.310438 0.89573 0
M  V30 4470 H 408.12 -1.69422 3.08203 0
M  V30 4471 H 407.994 -3.13813 2.09287 0
M  V30 4472 H 410.381 -2.69311 1.20647 0
M  V30 4473 H 410.462 -1.25237 2.23045 0
M  V30 4474 H 410.106 -2.72204 4.28798 0
M  V30 4475 H 410.036 -4.1563 3.23356 0
M  V30 4476 H 412.527 -2.71778 2.62574 0
M  V30 4477 H 412.84 -5.10513 5.80169 0
M  V30 4478 H 411.185 -4.5964 5.21302 0
M  V30 4479 H 414.376 -3.30739 3.31254 0
M  V30 4480 H 414.549 -4.39621 4.76064 0
M  V30 4481 N 407.956 -0.998596 -1.21925 0
M  V30 4482 C 409.202 -0.688337 -1.91399 0
M  V30 4483 C 409.557 0.771805 -1.76241 0
M  V30 4484 O 408.85 1.55153 -1.1242 0
M  V30 4485 C 409.044 -1.03648 -3.42041 0
M  V30 4486 C 408.873 -2.52892 -3.71855 0
M  V30 4487 C 407.643 -3.19389 -3.91559 0
M  V30 4488 C 409.841 -3.5103 -3.75875 0
M  V30 4489 N 407.823 -4.5805 -4.08734 0
M  V30 4490 C 409.194 -4.75174 -3.98259 0
M  V30 4491 C 411.249 -3.45257 -3.58751 0
M  V30 4492 C 409.952 -5.94247 -4.05294 0
M  V30 4493 C 411.978 -4.63712 -3.67049 0
M  V30 4494 C 411.34 -5.86658 -3.89887 0
M  V30 4495 H 407.439 -0.303251 -0.720807 0
M  V30 4496 H 410.023 -1.27977 -1.46731 0
M  V30 4497 H 408.194 -0.473569 -3.85502 0
M  V30 4498 H 409.926 -0.681619 -3.98919 0
M  V30 4499 H 406.681 -2.69846 -3.89205 0
M  V30 4500 H 407.105 -5.29989 -4.21237 0
M  V30 4501 H 411.747 -2.51215 -3.40075 0
M  V30 4502 H 409.465 -6.88687 -4.22772 0
M  V30 4503 H 413.051 -4.6084 -3.5513 0
M  V30 4504 H 411.931 -6.76786 -3.96144 0
M  V30 4505 N 409.434 1.37368 -0.772513 0
M  V30 4506 C 410.367 2.27956 -0.105593 0
M  V30 4507 C 411.345 1.46362 0.708295 0
M  V30 4508 O 412.529 1.75695 0.682895 0
M  V30 4509 C 409.656 3.27687 0.856686 0
M  V30 4510 C 408.702 4.26312 0.1267 0
M  V30 4511 S 409.535 5.22206 -1.1858 0
M  V30 4512 C 410.691 6.25488 -0.227081 0
M  V30 4513 H 410.924 2.84171 -0.87372 0
M  V30 4514 H 408.457 1.43654 -0.565939 0
M  V30 4515 H 410.415 3.85653 1.40648 0
M  V30 4516 H 409.076 2.70417 1.59793 0
M  V30 4517 H 408.269 4.96674 0.856212 0
M  V30 4518 H 407.871 3.72339 -0.352117 0
M  V30 4519 H 410.163 6.74836 0.600231 0
M  V30 4520 H 411.106 7.02371 -0.898899 0
M  V30 4521 H 411.514 5.64267 0.162053 0
M  V30 4522 N 410.912 0.523116 1.48665 0
M  V30 4523 C 412.328 0.180511 1.58576 0
M  V30 4524 C 412.528 -1.31597 1.52592 0
M  V30 4525 O 411.584 -2.0937 1.4114 0
M  V30 4526 C 412.897 0.776949 2.90489 0
M  V30 4527 C 414.445 0.745058 3.04003 0
M  V30 4528 C 414.92 1.31995 4.38567 0
M  V30 4529 N 416.411 1.28162 4.45117 0
M  V30 4530 C 417.146 1.6964 5.47731 0
M  V30 4531 N 416.642 2.18816 6.57337 0
M  V30 4532 N 418.435 1.6092 5.38573 0
M  V30 4533 H 410.586 1.4958 1.50797 0
M  V30 4534 H 412.849 0.621772 0.715614 0
M  V30 4535 H 412.555 1.82732 3.00503 0
M  V30 4536 H 412.429 0.25007 3.7637 0
M  V30 4537 H 414.816 -0.296532 2.93606 0
M  V30 4538 H 414.897 1.30933 2.1975 0
M  V30 4539 H 414.541 2.36043 4.49718 0
M  V30 4540 H 414.471 0.731418 5.21496 0
M  V30 4541 H 416.962 0.92155 3.66491 0
M  V30 4542 H 417.275 2.48478 7.31764 0
M  V30 4543 H 415.62 2.22805 6.58318 0
M  V30 4544 H 418.811 1.22304 4.5184 0
M  V30 4545 H 418.984 1.93567 6.18414 0
M  V30 4546 N 412.39 -1.55475 0.257931 0
M  V30 4547 C 413.353 -2.20551 -0.623706 0
M  V30 4548 C 414.353 -1.17809 -1.09443 0
M  V30 4549 O 415.543 -1.42823 -0.997362 0
M  V30 4550 C 412.675 -2.85784 -1.8585 0
M  V30 4551 H 413.868 -2.99848 -0.0557743 0
M  V30 4552 H 411.421 -1.56298 0.0084422 0
M  V30 4553 H 412.156 -2.10453 -2.46739 0
M  V30 4554 H 411.941 -3.61057 -1.52907 0
M  V30 4555 H 413.431 -3.35553 -2.48584 0
M  V30 4556 N 413.868 0.0150385 -1.57593 0
M  V30 4557 C 414.778 1.02791 -2.10882 0
M  V30 4558 C 415.794 1.38702 -1.0506 0
M  V30 4559 O 416.97 1.47739 -1.36877 0
M  V30 4560 C 414.035 2.30568 -2.58919 0
M  V30 4561 C 413.096 2.01108 -3.79281 0
M  V30 4562 C 412.329 3.22794 -4.25018 0
M  V30 4563 O 412.552 4.33959 -3.70183 0
M  V30 4564 O 411.486 3.07672 -5.17322 0
M  V30 4565 H 415.312 0.604973 -2.97613 0
M  V30 4566 H 412.897 0.23292 -1.47573 0
M  V30 4567 H 414.779 3.05662 -2.90084 0
M  V30 4568 H 413.454 2.72129 -1.75293 0
M  V30 4569 H 412.361 1.23537 -3.53114 0
M  V30 4570 H 413.694 1.64394 -4.63935 0
M  V30 4571 N 415.346 1.54954 0.287554 0
M  V30 4572 C 416.757 1.65732 0.859634 0
M  V30 4573 C 417.108 0.574767 1.87592 0
M  V30 4574 O 416.233 -0.286299 2.14498 0
M  V30 4575 C 416.828 3.00438 1.56597 0
M  V30 4576 C 415.387 3.13292 2.08627 0
M  V30 4577 C 414.534 2.61473 0.923416 0
M  V30 4578 H 417.485 1.5857 0.0642338 0
M  V30 4579 H 417.506 2.92613 2.43224 0
M  V30 4580 H 417.018 3.79207 0.826053 0
M  V30 4581 H 415.119 2.39268 2.85625 0
M  V30 4582 H 415.232 4.19647 2.31157 0
M  V30 4583 H 413.596 2.18264 1.31275 0
M  V30 4584 H 414.379 3.42733 0.197241 0
M  V30 4585 N 416.824 -0.551391 1.4764 0
M  V30 4586 C 418.064 -1.31901 1.56145 0
M  V30 4587 C 418.428 -1.90724 0.221013 0
M  V30 4588 O 419.629 -2.6819 0.180945 0
M  V30 4589 C 417.9 -2.39517 2.65267 0
M  V30 4590 S 419.459 -3.26289 2.93395 0
M  V30 4591 H 416.277 -0.448965 0.551318 0
M  V30 4592 H 418.879 -0.630599 1.85051 0
M  V30 4593 H 417.583 -1.94747 3.6125 0
M  V30 4594 H 417.114 -3.13092 2.38195 0
M  V30 4595 H 419.129 -4.39122 2.31055 0
M  V30 4596 N 418.302 -1.35869 -0.798587 0
M  V30 4597 C 419.232 -1.32118 -1.92528 0
M  V30 4598 C 420.213 -0.194209 -1.68988 0
M  V30 4599 O 421.398 -0.390426 -1.90235 0
M  V30 4600 C 418.528 -1.10047 -3.29404 0
M  V30 4601 C 417.482 -2.19471 -3.67446 0
M  V30 4602 C 416.808 -1.82555 -5.02571 0
M  V30 4603 C 418.108 -3.61495 -3.76987 0
M  V30 4604 H 419.802 -2.26394 -1.95924 0
M  V30 4605 H 417.348 -1.08981 -0.94123 0
M  V30 4606 H 419.301 -1.06061 -4.07835 0
M  V30 4607 H 418.025 -0.122195 -3.26371 0
M  V30 4608 H 416.684 -2.22568 -2.91306 0
M  V30 4609 H 416.332 -0.833249 -4.9605 0
M  V30 4610 H 416.032 -2.5581 -5.28995 0
M  V30 4611 H 417.556 -1.80108 -5.83432 0
M  V30 4612 H 418.97 -3.60676 -4.4563 0
M  V30 4613 H 417.367 -4.33577 -4.14887 0
M  V30 4614 H 418.437 -3.97065 -2.78329 0
M  V30 4615 N 419.78 1.02168 -1.19998 0
M  V30 4616 C 421.191 1.57135 -1.00825 0
M  V30 4617 C 421.542 1.91276 0.436818 0
M  V30 4618 O 420.667 1.71679 1.3174 0
M  V30 4619 C 421.262 2.85514 -1.82393 0
M  V30 4620 C 419.821 3.37027 -1.67601 0
M  V30 4621 C 418.968 2.10388 -1.80644 0
M  V30 4622 H 421.919 0.846106 -1.34264 0
M  V30 4623 H 421.94 3.56711 -1.32429 0
M  V30 4624 H 421.452 2.60634 -2.87561 0
M  V30 4625 H 419.553 3.66878 -0.650485 0
M  V30 4626 H 419.666 4.09572 -2.4857 0
M  V30 4627 H 418.03 2.22601 -1.23778 0
M  V30 4628 H 418.813 1.8794 -2.87286 0
M  V30 4629 N 421.258 1.00505 1.21394 0
M  V30 4630 C 422.506 0.686415 1.90086 0
M  V30 4631 C 422.827 -0.785264 1.7849 0
M  V30 4632 O 422.097 -1.56387 1.17983 0
M  V30 4633 H 420.677 0.2509 0.703604 0
M  V30 4634 H 423.339 1.27417 1.47482 0
M  V30 4635 H 422.435 0.959621 2.96981 0
M  V30 4636 N 422.737 -1.36956 0.779787 0
M  V30 4637 C 424.148 -1.82094 0.412156 0
M  V30 4638 C 424.499 -1.64926 -1.06273 0
M  V30 4639 O 423.624 -1.16483 -1.82375 0
M  V30 4640 C 424.219 -3.3059 0.741319 0
M  V30 4641 C 422.778 -3.73974 0.426641 0
M  V30 4642 C 421.925 -2.59368 0.980987 0
M  V30 4643 H 424.876 -1.25314 0.973758 0
M  V30 4644 H 424.897 -3.80489 0.028887 0
M  V30 4645 H 424.409 -3.43054 1.81482 0
M  V30 4646 H 422.51 -3.67076 -0.639215 0
M  V30 4647 H 422.623 -4.69778 0.940515 0
M  V30 4648 H 420.987 -2.51463 0.404757 0
M  V30 4649 H 421.77 -2.74621 2.06005 0
M  V30 4650 N 424.215 -0.530993 -1.48385 0
M  V30 4651 C 425.178 0.220497 -2.28137 0
M  V30 4652 C 426.178 0.866851 -1.35434 0
M  V30 4653 O 427.368 0.726746 -1.58316 0
M  V30 4654 C 424.5 1.31921 -3.1434 0
M  V30 4655 H 425.693 -0.479714 -2.96038 0
M  V30 4656 H 423.246 -0.286968 -1.53643 0
M  V30 4657 H 423.981 2.05264 -2.51072 0
M  V30 4658 H 423.766 0.86085 -3.82533 0
M  V30 4659 H 425.256 1.84776 -3.74497 0
M  V30 4660 N 425.693 1.55336 -0.266172 0
M  V30 4661 C 426.933 2.01303 0.354459 0
M  V30 4662 C 427.297 1.15046 1.53715 0
M  V30 4663 O 428.498 1.50554 2.22681 0
M  V30 4664 C 426.769 3.49748 0.735579 0
M  V30 4665 S 428.328 4.1771 1.34401 0
M  V30 4666 H 425.146 0.702333 0.110674 0
M  V30 4667 H 427.748 1.91653 -0.385916 0
M  V30 4668 H 426.452 4.10181 -0.134196 0
M  V30 4669 H 425.983 3.63364 1.50764 0
M  V30 4670 H 427.998 4.20594 2.63278 0
M  V30 4671 N 427.171 -0.0066808 1.57599 0
M  V30 4672 C 428.582 -0.550379 1.78403 0
M  V30 4673 C 428.933 -1.74339 0.900014 0
M  V30 4674 O 428.058 -2.16166 0.100713 0
M  V30 4675 C 428.653 -1.00523 3.23544 0
M  V30 4676 C 427.212 -1.49428 3.45468 0
M  V30 4677 C 426.359 -0.442444 2.73748 0
M  V30 4678 H 429.31 0.219508 1.57175 0
M  V30 4679 H 429.331 -1.87157 3.31289 0
M  V30 4680 H 428.843 -0.136735 3.87859 0
M  V30 4681 H 426.944 -2.3839 2.86358 0
M  V30 4682 H 427.057 -1.52635 4.54136 0
M  V30 4683 H 425.421 -0.902578 2.38171 0
M  V30 4684 H 426.204 0.416973 3.40758 0
M  V30 4685 N 428.649 -1.55105 -0.279332 0
M  V30 4686 C 429.612 -1.86783 -1.32834 0
M  V30 4687 C 430.612 -0.74199 -1.42657 0
M  V30 4688 O 431.802 -1.0102 -1.41918 0
M  V30 4689 C 428.934 -2.06746 -2.71052 0
M  V30 4690 H 430.127 -2.8055 -1.05979 0
M  V30 4691 H 427.68 -1.47499 -0.517087 0
M  V30 4692 H 428.415 -1.15339 -3.03097 0
M  V30 4693 H 428.2 -2.88711 -2.65309 0
M  V30 4694 H 429.69 -2.32549 -3.46858 0
M  V30 4695 N 430.127 0.543554 -1.4793 0
M  V30 4696 C 431.374 1.30008 -1.55255 0
M  V30 4697 C 431.702 1.93245 -0.220612 0
M  V30 4698 O 430.957 1.79141 0.787843 0
M  V30 4699 C 431.256 2.42078 -2.62932 0
M  V30 4700 C 430.922 1.96583 -4.0579 0
M  V30 4701 C 429.584 1.83893 -4.44676 0
M  V30 4702 C 431.936 1.62034 -4.95373 0
M  V30 4703 C 429.264 1.34969 -5.70964 0
M  V30 4704 C 431.616 1.14577 -6.22137 0
M  V30 4705 C 430.28 1.00493 -6.59892 0
M  V30 4706 H 429.55 0.475735 -0.568117 0
M  V30 4707 H 432.197 0.608075 -1.81589 0
M  V30 4708 H 430.502 3.16892 -2.30406 0
M  V30 4709 H 432.199 3.00236 -2.65818 0
M  V30 4710 H 428.789 2.07407 -3.75074 0
M  V30 4711 H 432.973 1.70705 -4.66019 0
M  V30 4712 H 428.229 1.2274 -5.98953 0
M  V30 4713 H 432.403 0.869109 -6.90955 0
M  V30 4714 H 430.03 0.623624 -7.57638 0
M  V30 4715 N 431.605 1.3629 0.791371 0
M  V30 4716 C 432.83 1.33726 1.58531 0
M  V30 4717 C 433.255 -0.0794933 1.87932 0
M  V30 4718 O 432.613 -1.05087 1.47738 0
M  V30 4719 C 432.661 2.16425 2.88431 0
M  V30 4720 O 431.765 1.5554 3.81944 0
M  V30 4721 H 431.106 0.457793 0.480959 0
M  V30 4722 H 433.636 1.79547 0.981031 0
M  V30 4723 H 433.646 2.28933 3.37718 0
M  V30 4724 H 432.321 3.19415 2.66359 0
M  V30 4725 H 430.898 1.51961 3.40532 0
M  V30 4726 N 433.083 -1.0153 1.20538 0
M  V30 4727 C 434.046 -2.0826 0.957098 0
M  V30 4728 C 435.046 -1.60657 -0.0678655 0
M  V30 4729 O 436.236 -1.73385 0.168332 0
M  V30 4730 C 433.368 -3.38033 0.441188 0
M  V30 4731 H 434.561 -2.31719 1.90384 0
M  V30 4732 H 432.114 -1.1835 1.02093 0
M  V30 4733 H 432.849 -3.20249 -0.510961 0
M  V30 4734 H 432.634 -3.73911 1.18038 0
M  V30 4735 H 434.124 -4.16613 0.287009 0
M  V30 4736 N 434.561 -1.01147 -1.20859 0
M  V30 4737 C 435.511 -0.548247 -2.2131 0
M  V30 4738 C 436.495 0.393646 -1.5601 0
M  V30 4739 O 437.687 0.217445 -1.75659 0
M  V30 4740 C 434.816 0.117252 -3.431 0
M  V30 4741 C 433.902 -0.846043 -4.15575 0
M  V30 4742 N 434.293 -2.00149 -4.64515 0
M  V30 4743 C 432.591 -0.665783 -4.41003 0
M  V30 4744 C 433.292 -2.60764 -5.19978 0
M  V30 4745 N 432.268 -1.88868 -5.09735 0
M  V30 4746 H 436.07 -1.42921 -2.56809 0
M  V30 4747 H 433.584 -0.876142 -1.36739 0
M  V30 4748 H 435.581 0.46662 -4.1428 0
M  V30 4749 H 434.241 0.994115 -3.09107 0
M  V30 4750 H 435.252 -2.38162 -4.5989 0
M  V30 4751 H 431.929 0.163456 -4.1718 0
M  V30 4752 H 433.319 -3.58519 -5.68255 0
M  V30 4753 N 436.039 1.36541 -0.78704 0
M  V30 4754 C 437.264 2.0409 -0.369053 0
M  V30 4755 C 437.689 1.58957 1.00569 0
M  V30 4756 O 437.047 0.756926 1.64743 0
M  V30 4757 C 437.095 3.57924 -0.438466 0
M  V30 4758 O 436.199 4.08642 0.555479 0
M  V30 4759 H 435.54 0.645142 -0.157122 0
M  V30 4760 H 438.07 1.74545 -1.06749 0
M  V30 4761 H 438.08 4.06887 -0.301218 0
M  V30 4762 H 436.755 3.90127 -1.44132 0
M  V30 4763 H 435.332 3.70958 0.380088 0
M  V30 4764 N 437.518 0.538854 1.48102 0
M  V30 4765 C 438.748 0.0122958 2.06596 0
M  V30 4766 C 439.156 -1.27861 1.39457 0
M  V30 4767 O 438.499 -1.77348 0.478907 0
M  V30 4768 C 438.561 -0.273131 3.58461 0
M  V30 4769 C 438.225 0.92561 4.47528 0
M  V30 4770 C 439.222 1.82637 4.86765 0
M  V30 4771 C 436.907 1.13511 4.89306 0
M  V30 4772 C 438.901 2.92047 5.66558 0
M  V30 4773 C 436.588 2.23233 5.68868 0
M  V30 4774 C 437.586 3.12333 6.07402 0
M  V30 4775 O 437.274 4.20155 6.85365 0
M  V30 4776 H 437.006 0.0344283 0.675123 0
M  V30 4777 H 439.56 0.746494 1.91355 0
M  V30 4778 H 437.79 -1.06141 3.71848 0
M  V30 4779 H 439.479 -0.742842 3.99045 0
M  V30 4780 H 440.245 1.67649 4.55103 0
M  V30 4781 H 436.124 0.450835 4.5879 0
M  V30 4782 H 439.668 3.6162 5.96554 0
M  V30 4783 H 435.565 2.38201 5.99942 0
M  V30 4784 H 436.333 4.17975 7.03732 0
M  V30 4785 N 438.996 -1.55193 0.274407 0
M  V30 4786 C 440.224 -2.03987 -0.345943 0
M  V30 4787 C 440.639 -1.15279 -1.4952 0
M  V30 4788 O 439.996 -0.172759 -1.8168 0
M  V30 4789 C 440.047 -3.51898 -0.827631 0
M  V30 4790 O 439.768 -4.37231 0.275855 0
M  V30 4791 C 441.269 -4.16577 -1.51587 0
M  V30 4792 H 438.489 -0.666335 -0.0789892 0
M  V30 4793 H 441.033 -2.00423 0.406294 0
M  V30 4794 H 439.188 -3.55909 -1.52996 0
M  V30 4795 H 439.602 -5.24415 -0.0943638 0
M  V30 4796 H 441.076 -5.21678 -1.80433 0
M  V30 4797 H 441.553 -3.64707 -2.44716 0
M  V30 4798 H 442.159 -4.16568 -0.857409 0
M  V30 4799 N 440.474 -0.00167713 -1.576 0
M  V30 4800 C 441.699 0.69739 -1.95323 0
M  V30 4801 C 442.124 1.6642 -0.876706 0
M  V30 4802 O 441.482 1.80548 0.165007 0
M  V30 4803 C 441.53 1.40403 -3.32144 0
M  V30 4804 O 440.634 2.5185 -3.26566 0
M  V30 4805 H 439.975 0.185373 -0.637599 0
M  V30 4806 H 442.505 -0.0553665 -2.04525 0
M  V30 4807 H 442.515 1.76707 -3.67748 0
M  V30 4808 H 441.19 0.695167 -4.10049 0
M  V30 4809 H 439.767 2.17861 -3.0264 0
M  V30 4810 N 441.952 1.55251 0.271103 0
M  V30 4811 C 442.9 1.89054 1.35504 0
M  V30 4812 C 443.894 0.767064 1.51038 0
M  V30 4813 O 445.1 0.951429 1.528 0
M  V30 4814 H 441.475 0.600072 0.45323 0
M  V30 4815 H 443.446 2.79598 1.04247 0
M  V30 4816 C 442.195 2.18068 2.70817 0
M  V30 4817 H 441.518 3.04005 2.59656 0
M  V30 4818 H 442.958 2.4564 3.45597 0
M  V30 4819 C 441.417 0.988901 3.2206 0
M  V30 4820 O 441.947 0.224501 4.01072 0
M  V30 4821 N 440.153 0.786085 2.79766 0
M  V30 4822 H 439.7 1.40937 2.15626 0
M  V30 4823 H 439.658 -0.00969349 3.14399 0
M  V30 4824 N 443.43 -0.535701 1.48216 0
M  V30 4825 C 444.36 -1.65014 1.65204 0
M  V30 4826 C 445.341 -1.62554 0.501011 0
M  V30 4827 O 446.526 -1.7984 0.732886 0
M  V30 4828 C 443.656 -3.03616 1.68626 0
M  V30 4829 C 442.61 -3.20932 2.83172 0
M  V30 4830 C 441.936 -4.60537 2.71679 0
M  V30 4831 C 443.236 -3.04249 4.24535 0
M  V30 4832 H 444.93 -1.51053 2.58502 0
M  V30 4833 H 442.476 -0.725262 1.24402 0
M  V30 4834 H 444.429 -3.81446 1.79099 0
M  V30 4835 H 443.153 -3.18587 0.719026 0
M  V30 4836 H 441.812 -2.45517 2.72244 0
M  V30 4837 H 441.46 -4.72336 1.72937 0
M  V30 4838 H 441.16 -4.73069 3.48538 0
M  V30 4839 H 442.684 -5.40475 2.84112 0
M  V30 4840 H 444.098 -3.71877 4.36326 0
M  V30 4841 H 442.495 -3.28278 5.02348 0
M  V30 4842 H 443.565 -2.00739 4.41397 0
M  V30 4843 N 444.908 -1.36708 -0.784132 0
M  V30 4844 C 446.156 -1.30972 -1.53918 0
M  V30 4845 C 446.477 0.109086 -1.94695 0
M  V30 4846 O 445.747 1.05048 -1.65353 0
M  V30 4847 H 444.327 -0.481819 -0.570841 0
M  V30 4848 H 446.989 -1.71063 -0.934002 0
M  V30 4849 H 446.085 -1.94061 -2.44431 0
M  V30 4850 N 446.386 1.0089 -1.21074 0
M  V30 4851 C 447.663 1.71834 -0.934469 0
M  V30 4852 C 448.043 2.0368 0.554753 0
M  V30 4853 O 447.391 1.70742 1.51854 0
M  V30 4854 C 447.601 2.98061 -1.8155 0
M  V30 4855 C 448.949 3.7117 -2.06199 0
M  V30 4856 O 449.973 3.08034 -1.78867 0
M  V30 4857 O 448.832 4.84721 -2.52404 0
M  V30 4858 H 445.926 0.749253 -0.35007 0
M  V30 4859 H 448.472 1.06668 -1.31985 0
M  V30 4860 H 447.244 2.70908 -2.82355 0
M  V30 4861 H 446.867 3.70968 -1.43068 0
M  V30 4862 N 447.864 1.01787 1.20321 0
M  V30 4863 C 449.094 0.72614 1.93419 0
M  V30 4864 C 449.502 -0.717317 1.75075 0
M  V30 4865 O 448.845 -1.49836 1.06278 0
M  V30 4866 C 448.907 0.983621 3.45782 0
M  V30 4867 C 448.571 2.41645 3.87888 0
M  V30 4868 C 449.568 3.39732 3.93545 0
M  V30 4869 C 447.253 2.75752 4.19841 0
M  V30 4870 C 449.247 4.69988 4.30569 0
M  V30 4871 C 446.934 4.06221 4.56539 0
M  V30 4872 C 447.932 5.0315 4.61876 0
M  V30 4873 O 447.62 6.31284 4.97731 0
M  V30 4874 H 447.352 0.265824 0.621541 0
M  V30 4875 H 449.906 1.3623 1.53722 0
M  V30 4876 H 448.136 0.290301 3.85609 0
M  V30 4877 H 449.825 0.683279 4.00108 0
M  V30 4878 H 450.591 3.14718 3.69022 0
M  V30 4879 H 446.47 2.00993 4.14877 0
M  V30 4880 H 450.014 5.45642 4.3465 0
M  V30 4881 H 445.911 4.31013 4.80518 0
M  V30 4882 H 446.679 6.35591 5.15719 0
M  V30 4883 N 449.342 -1.36122 0.79427 0
M  V30 4884 C 450.619 -1.93398 0.292685 0
M  V30 4885 C 450.999 -1.72567 -1.21589 0
M  V30 4886 O 450.347 -1.08745 -2.00965 0
M  V30 4887 C 450.557 -3.42099 0.690614 0
M  V30 4888 C 451.905 -4.19231 0.673105 0
M  V30 4889 O 452.929 -3.50559 0.631389 0
M  V30 4890 O 451.788 -5.41732 0.720362 0
M  V30 4891 H 448.882 -0.823712 0.0736693 0
M  V30 4892 H 451.428 -1.45273 0.87714 0
M  V30 4893 H 450.2 -3.50938 1.73085 0
M  V30 4894 H 449.823 -3.97519 0.0803036 0
M  V30 4895 N 450.82 -0.546701 -1.47814 0
M  V30 4896 C 451.73 0.21026 -2.33656 0
M  V30 4897 C 452.746 0.922413 -1.47538 0
M  V30 4898 O 453.922 0.893652 -1.80488 0
M  V30 4899 C 450.987 1.23348 -3.24016 0
M  V30 4900 C 450.048 0.529883 -4.26017 0
M  V30 4901 C 449.281 1.50435 -5.12059 0
M  V30 4902 O 449.504 2.73837 -5.00369 0
M  V30 4903 O 448.438 1.03459 -5.92942 0
M  V30 4904 H 452.264 -0.493605 -2.99662 0
M  V30 4905 H 449.849 -0.307427 -1.46203 0
M  V30 4906 H 451.731 1.82438 -3.79861 0
M  V30 4907 H 450.406 1.91945 -2.60651 0
M  V30 4908 H 449.313 -0.101948 -3.73961 0
M  V30 4909 H 450.646 -0.11445 -4.92067 0
M  V30 4910 N 452.299 1.55045 -0.282633 0
M  V30 4911 C 453.231 2.2023 0.634924 0
M  V30 4912 C 454.244 1.18931 1.11172 0
M  V30 4913 O 455.433 1.4562 1.03233 0
M  V30 4914 C 452.533 2.82041 1.87899 0
M  V30 4915 C 451.706 4.091 1.54776 0
M  V30 4916 C 450.765 4.54887 2.64507 0
M  V30 4917 O 449.791 5.20496 2.30375 0
M  V30 4918 N 450.993 4.25659 3.94709 0
M  V30 4919 H 453.758 2.99601 0.0769811 0
M  V30 4920 H 451.319 1.61565 -0.104048 0
M  V30 4921 H 453.311 3.09613 2.60619 0
M  V30 4922 H 451.881 2.06618 2.3458 0
M  V30 4923 H 451.101 3.88736 0.654049 0
M  V30 4924 H 452.389 4.9187 1.30158 0
M  V30 4925 H 451.787 3.7306 4.25256 0
M  V30 4926 H 450.344 4.57984 4.63782 0
M  V30 4927 N 453.777 0.010035 1.57597 0
M  V30 4928 C 454.74 -0.963029 2.07986 0
M  V30 4929 C 455.74 -1.26619 0.991173 0
M  V30 4930 O 456.93 -1.2097 1.25347 0
M  V30 4931 C 454.062 -2.2851 2.52974 0
M  V30 4932 H 455.255 -0.526971 2.95234 0
M  V30 4933 H 452.808 -0.237639 1.54483 0
M  V30 4934 H 453.543 -2.76784 1.69 0
M  V30 4935 H 453.328 -2.07824 3.32493 0
M  V30 4936 H 454.818 -2.98294 2.9225 0
M  V30 4937 N 455.255 -1.55392 -0.262866 0
M  V30 4938 C 456.185 -1.91978 -1.32917 0
M  V30 4939 C 457.166 -0.7828 -1.51017 0
M  V30 4940 O 458.351 -1.04178 -1.63892 0
M  V30 4941 C 455.481 -2.20055 -2.68687 0
M  V30 4942 C 454.435 -3.35854 -2.65304 0
M  V30 4943 C 453.761 -3.49435 -4.04721 0
M  V30 4944 C 455.061 -4.71977 -2.23685 0
M  V30 4945 H 456.755 -2.81292 -1.02544 0
M  V30 4946 H 454.301 -1.3534 -0.491846 0
M  V30 4947 H 456.254 -2.44237 -3.43404 0
M  V30 4948 H 454.978 -1.27551 -3.00663 0
M  V30 4949 H 453.637 -3.11655 -1.93045 0
M  V30 4950 H 453.285 -2.54379 -4.33936 0
M  V30 4951 H 452.985 -4.27297 -4.0335 0
M  V30 4952 H 454.509 -3.7592 -4.81161 0
M  V30 4953 H 455.923 -4.95637 -2.88127 0
M  V30 4954 H 454.32 -5.52828 -2.33456 0
M  V30 4955 H 455.39 -4.70115 -1.18827 0
M  V30 4956 N 456.733 0.527833 -1.48498 0
M  V30 4957 C 457.981 1.28101 -1.56316 0
M  V30 4958 C 458.302 1.9352 -0.239781 0
M  V30 4959 O 457.572 1.81433 0.738849 0
M  V30 4960 H 456.152 0.475793 -0.575873 0
M  V30 4961 H 458.814 0.614052 -1.84974 0
M  V30 4962 H 457.91 2.05916 -2.34532 0
M  V30 4963 N 458.211 1.37122 0.776871 0
M  V30 4964 C 459.46 1.31373 1.53049 0
M  V30 4965 C 459.773 -0.101016 1.95339 0
M  V30 4966 O 460.979 -0.280953 2.70042 0
M  V30 4967 C 459.435 2.30567 2.76346 0
M  V30 4968 C 459.043 3.77543 2.41175 0
M  V30 4969 C 460.787 2.33818 3.54301 0
M  V30 4970 C 458.694 4.68481 3.60943 0
M  V30 4971 H 457.624 0.488234 0.574581 0
M  V30 4972 H 460.275 1.62554 0.851372 0
M  V30 4973 H 458.657 1.92396 3.46121 0
M  V30 4974 H 459.831 4.24521 1.79216 0
M  V30 4975 H 458.146 3.77187 1.76405 0
M  V30 4976 H 460.743 2.98965 4.4331 0
M  V30 4977 H 461.086 1.3503 3.93793 0
M  V30 4978 H 461.619 2.7067 2.91518 0
M  V30 4979 H 458.358 5.68378 3.26537 0
M  V30 4980 H 457.878 4.2621 4.22025 0
M  V30 4981 H 459.557 4.85366 4.27819 0
M  V30 4982 N 459.689 -1.00246 1.21608 0
M  V30 4983 C 460.622 -2.08794 0.920892 0
M  V30 4984 C 461.6 -1.62059 -0.132552 0
M  V30 4985 O 462.784 -1.885 -0.0030366 0
M  V30 4986 C 459.911 -3.36525 0.383226 0
M  V30 4987 C 458.957 -4.02172 1.41987 0
M  V30 4988 S 459.79 -4.44256 2.98994 0
M  V30 4989 C 460.946 -5.7517 2.4684 0
M  V30 4990 H 461.179 -2.33511 1.8401 0
M  V30 4991 H 458.712 -1.13562 1.04609 0
M  V30 4992 H 460.67 -4.10423 0.0795871 0
M  V30 4993 H 459.331 -3.09854 -0.514711 0
M  V30 4994 H 458.524 -4.94114 0.993335 0
M  V30 4995 H 458.126 -3.34559 1.67171 0
M  V30 4996 H 460.418 -6.51042 1.87484 0
M  V30 4997 H 461.361 -6.22638 3.37235 0
M  V30 4998 H 461.769 -5.32112 1.88461 0
M  V30 4999 N 461.167 -1.02423 -1.1978 0
M  V30 5000 C 462.099 -0.559152 -2.22275 0
M  V30 5001 C 463.112 0.36251 -1.58713 0
M  V30 5002 O 464.301 0.159641 -1.77785 0
M  V30 5003 C 461.401 0.205094 -3.38279 0
M  V30 5004 C 460.574 -0.720361 -4.31427 0
M  V30 5005 C 459.633 -0.00234368 -5.262 0
M  V30 5006 O 458.659 -0.627378 -5.65732 0
M  V30 5007 N 459.861 1.26996 -5.66438 0
M  V30 5008 H 462.626 -1.44064 -2.62804 0
M  V30 5009 H 460.187 -0.902692 -1.34399 0
M  V30 5010 H 462.179 0.694868 -3.9869 0
M  V30 5011 H 460.749 0.987947 -2.96578 0
M  V30 5012 H 459.969 -1.39031 -3.68869 0
M  V30 5013 H 461.257 -1.3495 -4.90577 0
M  V30 5014 H 460.655 1.79858 -5.36347 0
M  V30 5015 H 459.212 1.70432 -6.29123 0
M  V30 5016 N 462.645 1.35699 -0.801477 0
M  V30 5017 C 463.873 2.03157 -0.391768 0
M  V30 5018 C 464.288 1.60412 0.995668 0
M  V30 5019 O 463.645 0.799228 1.64069 0
M  V30 5020 C 463.696 3.58566 -0.459671 0
M  V30 5021 O 463.417 3.99756 -1.7924 0
M  V30 5022 C 464.918 4.4328 -0.0421205 0
M  V30 5023 H 462.138 0.651688 -0.159825 0
M  V30 5024 H 464.682 1.73426 -1.08368 0
M  V30 5025 H 462.837 3.86963 0.183939 0
M  V30 5026 H 463.251 4.94387 -1.75162 0
M  V30 5027 H 464.725 5.51821 -0.140754 0
M  V30 5028 H 465.202 4.27383 1.01196 0
M  V30 5029 H 465.808 4.20168 -0.658687 0
M  V30 5030 N 464.123 0.554532 1.47522 0
M  V30 5031 C 465.053 -0.182974 2.32782 0
M  V30 5032 C 466.034 -0.911377 1.43624 0
M  V30 5033 O 467.219 -0.892366 1.72483 0
M  V30 5034 C 464.349 -1.21513 3.25349 0
M  V30 5035 C 463.303 -0.603355 4.23726 0
M  V30 5036 C 462.629 -1.73995 5.05598 0
M  V30 5037 C 463.929 0.441121 5.20434 0
M  V30 5038 H 465.623 0.52882 2.94693 0
M  V30 5039 H 463.169 0.255759 1.41711 0
M  V30 5040 H 465.122 -1.73922 3.83835 0
M  V30 5041 H 463.846 -1.95683 2.61487 0
M  V30 5042 H 462.505 -0.10059 3.66462 0
M  V30 5043 H 462.153 -2.47063 4.38143 0
M  V30 5044 H 461.853 -1.3364 5.72201 0
M  V30 5045 H 463.377 -2.26735 5.66942 0
M  V30 5046 H 464.791 0.00319931 5.733 0
M  V30 5047 H 463.188 0.763402 5.95224 0
M  V30 5048 H 464.258 1.33799 4.66075 0
M  V30 5049 N 465.601 -1.54893 0.290851 0
M  V30 5050 C 466.849 -1.99538 -0.320756 0
M  V30 5051 C 467.17 -1.18075 -1.55188 0
M  V30 5052 O 466.44 -0.274162 -1.93972 0
M  V30 5053 H 465.02 -0.737052 -0.121507 0
M  V30 5054 H 467.682 -1.90755 0.399832 0
M  V30 5055 H 466.778 -3.06282 -0.599802 0
M  V30 5056 N 467.08 -0.0183926 -1.57589 0
M  V30 5057 C 468.326 0.663543 -1.91638 0
M  V30 5058 C 468.659 1.72392 -0.894134 0
M  V30 5059 O 467.934 1.94316 0.0846449 0
M  V30 5060 C 468.217 1.28984 -3.36207 0
M  V30 5061 C 468.07 0.239761 -4.49161 0
M  V30 5062 C 469.389 2.2109 -3.80536 0
M  V30 5063 H 466.508 0.239746 -0.696915 0
M  V30 5064 H 469.15 -0.073456 -1.89858 0
M  V30 5065 H 467.3 1.91799 -3.37854 0
M  V30 5066 H 468.972 -0.390119 -4.59647 0
M  V30 5067 H 467.215 -0.435972 -4.31604 0
M  V30 5068 H 467.886 0.717383 -5.47319 0
M  V30 5069 H 470.362 1.68273 -3.80557 0
M  V30 5070 H 469.238 2.61869 -4.82406 0
M  V30 5071 H 469.499 3.09764 -3.15434 0
M  V30 5072 N 468.558 1.5553 0.254621 0
M  V30 5073 C 469.835 1.6774 1.00611 0
M  V30 5074 C 470.215 0.555993 2.03647 0
M  V30 5075 O 469.563 -0.441583 2.24193 0
M  V30 5076 C 469.773 3.07725 1.6464 0
M  V30 5077 C 471.121 3.66074 2.15116 0
M  V30 5078 O 472.145 3.10476 1.74595 0
M  V30 5079 O 471.004 4.63526 2.89493 0
M  V30 5080 H 468.098 0.681958 0.467828 0
M  V30 5081 H 470.644 1.67863 0.24902 0
M  V30 5082 H 469.416 3.80792 0.900734 0
M  V30 5083 H 469.039 3.1158 2.46989 0
M  V30 5084 N 470.036 -0.519951 1.48776 0
M  V30 5085 C 471.452 -0.849418 1.35119 0
M  V30 5086 C 471.652 -1.98077 0.36982 0
M  V30 5087 O 470.708 -2.51664 -0.205359 0
M  V30 5088 C 472.021 -1.20748 2.75391 0
M  V30 5089 C 473.569 -1.31679 2.83954 0
M  V30 5090 C 474.044 -1.70824 4.24951 0
M  V30 5091 N 475.535 -1.77908 4.27672 0
M  V30 5092 C 476.27 -2.09603 5.33717 0
M  V30 5093 N 475.766 -2.39652 6.5003 0
M  V30 5094 N 477.559 -2.10694 5.21119 0
M  V30 5095 H 469.71 0.226377 2.1119 0
M  V30 5096 H 471.973 0.0386519 0.947212 0
M  V30 5097 H 471.679 -0.449703 3.48813 0
M  V30 5098 H 471.553 -2.15534 3.09556 0
M  V30 5099 H 473.94 -2.06532 2.10781 0
M  V30 5100 H 474.021 -0.3499 2.53396 0
M  V30 5101 H 473.665 -0.965282 4.98643 0
M  V30 5102 H 473.595 -2.6858 4.52959 0
M  V30 5103 H 476.086 -1.56923 3.43779 0
M  V30 5104 H 476.399 -2.6297 7.26682 0
M  V30 5105 H 474.744 -2.37149 6.53288 0
M  V30 5106 H 477.935 -1.86682 4.29264 0
M  V30 5107 H 478.108 -2.35062 6.03863 0
M  V30 5108 N 471.514 -1.37532 -0.769588 0
M  V30 5109 C 472.446 -1.29347 -1.89214 0
M  V30 5110 C 473.459 -0.208842 -1.61455 0
M  V30 5111 O 474.648 -0.465158 -1.72333 0
M  V30 5112 C 471.748 -0.977649 -3.24492 0
M  V30 5113 C 470.921 -2.16817 -3.7988 0
M  V30 5114 C 469.98 -1.82229 -4.93639 0
M  V30 5115 O 469.006 -2.54548 -5.09111 0
M  V30 5116 N 470.208 -0.767696 -5.75401 0
M  V30 5117 H 472.973 -2.26073 -1.96751 0
M  V30 5118 H 470.534 -1.31185 -0.948795 0
M  V30 5119 H 472.526 -0.727065 -3.98115 0
M  V30 5120 H 471.096 -0.0988777 -3.12444 0
M  V30 5121 H 470.316 -2.58038 -2.9801 0
M  V30 5122 H 471.604 -2.96308 -4.13617 0
M  V30 5123 H 471.002 -0.167626 -5.65452 0
M  V30 5124 H 469.559 -0.576973 -6.49241 0
M  V30 5125 N 472.992 0.995999 -1.22138 0
M  V30 5126 C 474.408 1.25917 -0.980667 0
M  V30 5127 C 474.608 1.98819 0.327604 0
M  V30 5128 O 473.664 2.29587 1.05101 0
M  V30 5129 C 474.977 2.07399 -2.17729 0
M  V30 5130 C 476.525 2.20594 -2.22052 0
M  V30 5131 C 477 3.05462 -3.41258 0
M  V30 5132 N 478.491 3.13049 -3.41401 0
M  V30 5133 C 479.226 3.78997 -4.30289 0
M  V30 5134 N 478.722 4.46899 -5.2939 0
M  V30 5135 N 480.515 3.75728 -4.18073 0
M  V30 5136 H 472.666 0.507158 -2.06256 0
M  V30 5137 H 474.929 0.28658 -0.903646 0
M  V30 5138 H 474.635 1.61191 -3.12586 0
M  V30 5139 H 474.509 3.08154 -2.17534 0
M  V30 5140 H 476.896 2.66017 -1.27745 0
M  V30 5141 H 476.977 1.1928 -2.26287 0
M  V30 5142 H 476.621 2.60739 -4.35864 0
M  V30 5143 H 476.551 4.06911 -3.34262 0
M  V30 5144 H 479.042 2.64721 -2.69688 0
M  V30 5145 H 479.355 4.94952 -5.935 0
M  V30 5146 H 477.7 4.45657 -5.33306 0
M  V30 5147 H 480.891 3.2184 -3.39907 0
M  V30 5148 H 481.064 4.26845 -4.87553 0
M  V30 5149 N 474.47 1.03057 1.19235 0
M  V30 5150 C 475.698 0.747697 1.92917 0
M  V30 5151 C 476.113 -0.69372 1.75593 0
M  V30 5152 O 475.47 -1.47191 1.07894 0
M  V30 5153 C 475.521 1.09159 3.44625 0
M  V30 5154 O 475.242 2.47641 3.61394 0
M  V30 5155 C 476.743 0.831763 4.35427 0
M  V30 5156 H 473.963 0.273453 0.612751 0
M  V30 5157 H 476.507 1.37552 1.51327 0
M  V30 5158 H 474.662 0.508919 3.84043 0
M  V30 5159 H 475.076 2.60499 4.55237 0
M  V30 5160 H 476.55 1.12233 5.4047 0
M  V30 5161 H 477.027 -0.233769 4.38577 0
M  V30 5162 H 477.633 1.39725 4.01693 0
M  V30 5163 N 475.948 -1.35272 0.808662 0
M  V30 5164 C 477.194 -1.99003 0.390581 0
M  V30 5165 C 477.527 -1.63999 -1.0401 0
M  V30 5166 O 476.802 -0.904368 -1.72196 0
M  V30 5167 C 477.085 -3.55454 0.576566 0
M  V30 5168 C 476.938 -4.00249 2.05233 0
M  V30 5169 C 478.257 -4.401 0.00354277 0
M  V30 5170 H 475.376 -0.722917 0.143388 0
M  V30 5171 H 478.018 -1.6039 1.01858 0
M  V30 5172 H 476.168 -3.88477 0.0419766 0
M  V30 5173 H 477.84 -3.77626 2.64946 0
M  V30 5174 H 476.083 -3.51082 2.54801 0
M  V30 5175 H 476.754 -5.0911 2.13333 0
M  V30 5176 H 479.23 -4.13548 0.460117 0
M  V30 5177 H 478.106 -5.48656 0.163575 0
M  V30 5178 H 478.367 -4.28444 -1.09032 0
M  V30 5179 N 477.426 -0.562348 -1.47226 0
M  V30 5180 C 478.336 0.185466 -2.33866 0
M  V30 5181 C 479.352 0.906713 -1.48508 0
M  V30 5182 O 480.528 0.874458 -1.81425 0
M  V30 5183 C 477.593 1.19904 -3.25306 0
M  V30 5184 C 476.654 0.484669 -4.26555 0
M  V30 5185 C 475.887 1.44996 -5.13626 0
M  V30 5186 O 476.11 2.68515 -5.03245 0
M  V30 5187 O 475.044 0.971642 -5.94006 0
M  V30 5188 H 478.87 -0.525361 -2.99121 0
M  V30 5189 H 476.455 -0.322916 -1.45868 0
M  V30 5190 H 478.337 1.78399 -3.81774 0
M  V30 5191 H 477.012 1.8917 -2.62672 0
M  V30 5192 H 475.919 -0.141605 -3.73832 0
M  V30 5193 H 477.252 -0.166634 -4.91918 0
M  V30 5194 N 478.904 1.54736 -0.299062 0
M  V30 5195 C 480.129 2.04975 0.316254 0
M  V30 5196 C 480.554 1.17501 1.46885 0
M  V30 5197 O 479.912 0.178678 1.80417 0
M  V30 5198 C 479.96 3.52672 0.751997 0
M  V30 5199 O 479.064 3.68226 1.85697 0
M  V30 5200 H 478.405 0.661126 0.0617175 0
M  V30 5201 H 480.935 1.99805 -0.440341 0
M  V30 5202 H 480.945 3.94488 1.04133 0
M  V30 5203 H 479.62 4.158 -0.0911482 0
M  V30 5204 H 478.197 3.38316 1.56834 0
M  V30 5205 N 480.382 0.0267497 1.57577 0
M  V30 5206 C 481.312 -0.954308 2.13108 0
M  V30 5207 C 482.293 -1.34088 1.04663 0
M  V30 5208 O 483.478 -1.41992 1.32484 0
M  V30 5209 C 480.608 -2.23744 2.65624 0
M  V30 5210 C 479.562 -1.99168 3.78835 0
M  V30 5211 C 478.888 -3.33726 4.17769 0
M  V30 5212 C 480.188 -1.33277 5.0501 0
M  V30 5213 H 481.882 -0.491848 2.95332 0
M  V30 5214 H 479.428 -0.23514 1.42067 0
M  V30 5215 H 481.381 -2.92754 3.03106 0
M  V30 5216 H 480.105 -2.72151 1.80558 0
M  V30 5217 H 478.764 -1.32577 3.41788 0
M  V30 5218 H 478.412 -3.79888 3.29688 0
M  V30 5219 H 478.112 -3.18089 4.94058 0
M  V30 5220 H 479.636 -4.04008 4.57832 0
M  V30 5221 H 481.05 -1.92283 5.40093 0
M  V30 5222 H 479.447 -1.28045 5.8628 0
M  V30 5223 H 480.517 -0.305411 4.83937 0
M  V30 5224 N 481.861 -1.55662 -0.24637 0
M  V30 5225 C 482.793 -1.86811 -1.32794 0
M  V30 5226 C 483.806 -0.754413 -1.44265 0
M  V30 5227 O 484.995 -1.03253 -1.45606 0
M  V30 5228 C 482.095 -2.0397 -2.70646 0
M  V30 5229 C 481.268 -3.34832 -2.81436 0
M  V30 5230 C 480.327 -3.41727 -4.00136 0
M  V30 5231 O 479.353 -4.14934 -3.89639 0
M  V30 5232 N 480.555 -2.71058 -5.1333 0
M  V30 5233 H 483.32 -2.80174 -1.06409 0
M  V30 5234 H 480.881 -1.55906 -0.43647 0
M  V30 5235 H 482.873 -2.05924 -3.48393 0
M  V30 5236 H 481.443 -1.1735 -2.89738 0
M  V30 5237 H 480.663 -3.4519 -1.90361 0
M  V30 5238 H 481.951 -4.21085 -2.85595 0
M  V30 5239 H 481.349 -2.11314 -5.2475 0
M  V30 5240 H 479.906 -2.78704 -5.89209 0
M  V30 5241 N 483.339 0.512053 -1.4905 0
M  V30 5242 C 484.287 1.63568 -1.65373 0
M  V30 5243 C 485.281 1.61228 -0.519806 0
M  V30 5244 O 486.487 1.65869 -0.699101 0
M  V30 5245 H 482.862 0.542019 -0.521267 0
M  V30 5246 H 484.833 1.4695 -2.59708 0
M  V30 5247 C 483.582 3.01761 -1.7273 0
M  V30 5248 H 482.905 3.04263 -2.59353 0
M  V30 5249 H 484.345 3.79948 -1.8819 0
M  V30 5250 C 482.804 3.33609 -0.46973 0
M  V30 5251 O 483.334 3.99607 0.409492 0
M  V30 5252 N 481.54 2.88651 -0.336003 0
M  V30 5253 H 481.087 2.35119 -1.05247 0
M  V30 5254 H 481.045 3.10328 0.504363 0
M  V30 5255 N 484.817 1.37938 0.762283 0
M  V30 5256 C 486.042 1.37059 1.55659 0
M  V30 5257 C 486.467 -0.0396123 1.88058 0
M  V30 5258 O 485.825 -1.01929 1.49934 0
M  V30 5259 C 485.873 2.22494 2.83776 0
M  V30 5260 O 484.977 1.63607 3.78559 0
M  V30 5261 H 484.318 0.467892 0.47114 0
M  V30 5262 H 486.848 1.81587 0.942725 0
M  V30 5263 H 486.858 2.36045 3.32786 0
M  V30 5264 H 485.533 3.24993 2.59524 0
M  V30 5265 H 484.11 1.5915 3.37233 0
M  V30 5266 N 486.295 -0.989507 1.22664 0
M  V30 5267 C 487.52 -1.77031 1.08051 0
M  V30 5268 C 487.945 -1.84535 -0.364483 0
M  V30 5269 O 487.303 -1.3003 -1.2634 0
M  V30 5270 C 487.351 -3.18 1.70024 0
M  V30 5271 O 486.455 -4.01161 0.956216 0
M  V30 5272 H 485.796 -0.545008 0.379292 0
M  V30 5273 H 488.326 -1.24277 1.62531 0
M  V30 5274 H 488.336 -3.68616 1.74888 0
M  V30 5275 H 487.011 -3.11853 2.75174 0
M  V30 5276 H 485.588 -3.59687 0.98384 0
M  V30 5277 N 487.773 -1.03688 -1.18687 0
M  V30 5278 C 489.003 -0.756819 -1.92239 0
M  V30 5279 C 489.411 0.689374 -1.76194 0
M  V30 5280 O 488.754 1.48126 -1.08648 0
M  V30 5281 C 488.816 -1.03851 -3.44173 0
M  V30 5282 C 488.48 -2.47785 -3.83994 0
M  V30 5283 C 489.477 -3.4595 -3.88091 0
M  V30 5284 C 487.162 -2.82397 -4.154 0
M  V30 5285 C 489.156 -4.76779 -4.23038 0
M  V30 5286 C 486.843 -4.13433 -4.50018 0
M  V30 5287 C 487.841 -5.10434 -4.53813 0
M  V30 5288 O 487.529 -6.39122 -4.87625 0
M  V30 5289 H 487.261 -0.275678 -0.617234 0
M  V30 5290 H 489.815 -1.38658 -1.51536 0
M  V30 5291 H 488.045 -0.351612 -3.85098 0
M  V30 5292 H 489.734 -0.746846 -3.9897 0
M  V30 5293 H 490.5 -3.20549 -3.63969 0
M  V30 5294 H 486.379 -2.07568 -4.11627 0
M  V30 5295 H 489.923 -5.52488 -4.25914 0
M  V30 5296 H 485.82 -4.38604 -4.736 0
M  V30 5297 H 486.588 -6.43715 -5.05542 0
M  V30 5298 N 489.251 1.34841 -0.815825 0
M  V30 5299 C 490.199 2.31549 -0.220888 0
M  V30 5300 C 491.193 1.5707 0.634457 0
M  V30 5301 O 492.399 1.72125 0.526589 0
M  V30 5302 H 488.774 0.750153 -0.0526782 0
M  V30 5303 H 490.745 2.7926 -1.05149 0
M  V30 5304 C 489.494 3.42335 0.608427 0
M  V30 5305 H 488.817 3.9978 -0.0404121 0
M  V30 5306 H 490.257 4.12258 0.990931 0
M  V30 5307 C 488.716 2.86173 1.77782 0
M  V30 5308 O 489.246 2.80474 2.87571 0
M  V30 5309 N 487.452 2.43093 1.59229 0
M  V30 5310 H 486.999 2.47928 0.699237 0
M  V30 5311 H 486.957 2.05866 2.37627 0
M  V30 5312 N 490.729 0.570148 1.46925 0
M  V30 5313 C 491.679 -0.190921 2.27199 0
M  V30 5314 C 492.663 -0.873457 1.35128 0
M  V30 5315 O 493.855 -0.769627 1.59392 0
M  V30 5316 C 490.984 -1.21204 3.21192 0
M  V30 5317 C 490.07 -0.532261 4.20747 0
M  V30 5318 N 490.461 0.405038 5.04176 0
M  V30 5319 C 488.759 -0.784582 4.39045 0
M  V30 5320 C 489.46 0.801149 5.76157 0
M  V30 5321 N 488.436 0.153082 5.43384 0
M  V30 5322 H 492.238 0.529535 2.8909 0
M  V30 5323 H 489.752 0.391019 1.57622 0
M  V30 5324 H 491.749 -1.77135 3.77398 0
M  V30 5325 H 490.409 -1.93345 2.6086 0
M  V30 5326 H 491.42 0.779903 5.11994 0
M  V30 5327 H 488.097 -1.49352 3.89872 0
M  V30 5328 H 489.487 1.57208 6.5325 0
M  V30 5329 N 492.207 -1.54576 0.307264 0
M  V30 5330 C 493.454 -2.00263 -0.300167 0
M  V30 5331 C 493.782 -1.19561 -1.53413 0
M  V30 5332 O 493.037 -0.261487 -1.93945 0
M  V30 5333 C 493.336 -3.50572 -0.695253 0
M  V30 5334 C 493.002 -4.48771 0.437679 0
M  V30 5335 C 491.664 -4.7534 0.748681 0
M  V30 5336 C 494.016 -5.0721 1.19949 0
M  V30 5337 C 491.344 -5.5761 1.8245 0
M  V30 5338 C 493.696 -5.90651 2.26527 0
M  V30 5339 C 492.36 -6.15528 2.58227 0
M  V30 5340 H 491.63 -0.732814 -0.109839 0
M  V30 5341 H 494.277 -1.86664 0.427661 0
M  V30 5342 H 492.582 -3.61814 -1.50326 0
M  V30 5343 H 494.279 -3.83352 -1.17653 0
M  V30 5344 H 490.869 -4.282 0.185187 0
M  V30 5345 H 495.053 -4.86679 0.972474 0
M  V30 5346 H 490.309 -5.75121 2.07476 0
M  V30 5347 H 494.483 -6.34957 2.86011 0
M  V30 5348 H 492.11 -6.79066 3.4172 0
M  V30 5349 N 493.685 -0.035106 -1.57561 0
M  V30 5350 C 494.648 0.929819 -2.09492 0
M  V30 5351 C 495.648 1.25026 -1.01119 0
M  V30 5352 O 496.838 1.18961 -1.27255 0
M  V30 5353 C 493.97 2.24457 -2.56577 0
M  V30 5354 H 495.163 0.479935 -2.96035 0
M  V30 5355 H 492.716 0.213033 -1.54841 0
M  V30 5356 H 493.451 2.74061 -1.73382 0
M  V30 5357 H 493.236 2.02508 -3.35757 0
M  V30 5358 H 494.726 2.93607 -2.96959 0
M  V30 5359 N 495.163 1.55791 0.238111 0
M  V30 5360 C 496.126 1.90239 1.27835 0
M  V30 5361 C 497.126 0.779552 1.4064 0
M  V30 5362 O 498.316 1.04747 1.3919 0
M  V30 5363 C 495.448 2.13859 2.65475 0
M  V30 5364 H 496.641 2.83262 0.985034 0
M  V30 5365 H 494.194 1.48818 0.477799 0
M  V30 5366 H 494.929 1.23334 2.99932 0
M  V30 5367 H 494.714 2.95643 2.57561 0
M  V30 5368 H 496.204 2.41664 3.40571 0
M  V30 5369 N 496.642 -0.504142 1.49319 0
M  V30 5370 C 497.891 -1.25507 1.57895 0
M  V30 5371 C 498.204 -1.93735 0.269433 0
M  V30 5372 O 499.41 -2.70492 0.233706 0
M  V30 5373 C 497.866 -2.27869 2.78574 0
M  V30 5374 C 497.474 -1.65594 4.16272 0
M  V30 5375 C 499.218 -3.0381 2.96479 0
M  V30 5376 C 497.125 -2.66048 5.28178 0
M  V30 5377 H 496.055 -0.47212 0.587894 0
M  V30 5378 H 498.706 -0.52931 1.757 0
M  V30 5379 H 497.088 -3.03594 2.54257 0
M  V30 5380 H 498.262 -0.958826 4.50714 0
M  V30 5381 H 496.577 -1.02055 4.037 0
M  V30 5382 H 499.174 -3.78925 3.77253 0
M  V30 5383 H 499.517 -3.61235 2.06918 0
M  V30 5384 H 500.05 -2.352 3.20821 0
M  V30 5385 H 496.789 -2.13408 6.19788 0
M  V30 5386 H 496.309 -3.34009 4.98195 0
M  V30 5387 H 497.988 -3.28536 5.57381 0
M  V30 5388 N 498.12 -1.38341 -0.754957 0
M  V30 5389 C 499.35 -1.37504 -1.54195 0
M  V30 5390 C 499.758 0.0373787 -1.89163 0
M  V30 5391 O 499.101 1.01402 -1.53178 0
M  V30 5392 C 499.163 -2.16488 -2.87008 0
M  V30 5393 C 498.827 -3.65311 -2.74585 0
M  V30 5394 C 499.824 -4.58834 -2.44474 0
M  V30 5395 C 497.509 -4.08649 -2.9208 0
M  V30 5396 C 499.503 -5.93675 -2.32011 0
M  V30 5397 C 497.19 -5.43571 -2.79237 0
M  V30 5398 C 498.188 -6.35898 -2.49245 0
M  V30 5399 O 497.876 -7.68338 -2.36458 0
M  V30 5400 H 497.608 -0.472159 -0.483779 0
M  V30 5401 H 500.162 -1.82515 -0.94221 0
M  V30 5402 H 498.392 -1.66194 -3.49166 0
M  V30 5403 H 500.081 -2.08076 -3.4851 0
M  V30 5404 H 500.847 -4.26657 -2.30627 0
M  V30 5405 H 496.726 -3.37134 -3.14422 0
M  V30 5406 H 500.27 -6.65706 -2.08522 0
M  V30 5407 H 496.167 -5.75345 -2.92657 0
M  V30 5408 H 496.935 -7.78845 -2.5168 0
M  V30 5409 N 499.598 0.982988 -1.23187 0
M  V30 5410 C 500.828 1.75666 -1.08743 0
M  V30 5411 C 501.236 1.85662 0.364195 0
M  V30 5412 O 500.579 1.33317 1.26382 0
M  V30 5413 C 500.641 3.20144 -1.63549 0
M  V30 5414 C 500.305 3.33665 -3.12277 0
M  V30 5415 C 501.302 3.20194 -4.096 0
M  V30 5416 C 498.987 3.58397 -3.51933 0
M  V30 5417 C 500.981 3.31256 -5.44563 0
M  V30 5418 C 498.668 3.69098 -4.87042 0
M  V30 5419 C 499.666 3.55537 -5.83166 0
M  V30 5420 O 499.354 3.65864 -7.1582 0
M  V30 5421 H 499.086 0.558194 -0.381307 0
M  V30 5422 H 501.64 1.24387 -1.63454 0
M  V30 5423 H 499.87 3.72659 -1.03256 0
M  V30 5424 H 501.559 3.79262 -1.4462 0
M  V30 5425 H 502.325 3.00987 -3.80305 0
M  V30 5426 H 498.204 3.68025 -2.77631 0
M  V30 5427 H 501.748 3.20588 -6.19572 0
M  V30 5428 H 497.645 3.87814 -5.16014 0
M  V30 5429 H 498.413 3.82675 -7.23534 0
M  V30 5430 N 501.076 1.04316 1.18135 0
M  V30 5431 C 502.006 0.657299 2.24058 0
M  V30 5432 C 502.987 -0.340678 1.66654 0
M  V30 5433 O 504.172 -0.220223 1.92947 0
M  V30 5434 C 501.302 0.0220715 3.47293 0
M  V30 5435 C 500.256 0.943857 4.17463 0
M  V30 5436 C 499.582 0.172973 5.3442 0
M  V30 5437 C 500.882 2.26409 4.70677 0
M  V30 5438 H 502.576 1.5428 2.56589 0
M  V30 5439 H 500.122 0.743263 1.23335 0
M  V30 5440 H 502.075 -0.259607 4.206 0
M  V30 5441 H 500.799 -0.898323 3.14003 0
M  V30 5442 H 499.458 1.20996 3.46057 0
M  V30 5443 H 499.106 -0.749907 4.97379 0
M  V30 5444 H 498.806 0.787098 5.82304 0
M  V30 5445 H 500.33 -0.101628 6.10515 0
M  V30 5446 H 501.744 2.04294 5.35665 0
M  V30 5447 H 500.141 2.8314 5.29105 0
M  V30 5448 H 501.211 2.90883 3.87962 0
M  V30 5449 N 502.554 -1.34406 0.822964 0
M  V30 5450 C 503.484 -2.32052 0.259608 0
M  V30 5451 C 504.465 -1.58243 -0.623961 0
M  V30 5452 O 505.65 -1.86224 -0.55083 0
M  V30 5453 C 502.78 -3.42434 -0.579314 0
M  V30 5454 C 501.734 -4.27499 0.20712 0
M  V30 5455 C 501.06 -5.29349 -0.754547 0
M  V30 5456 C 502.36 -5.02758 1.41533 0
M  V30 5457 H 504.054 -2.79418 1.07545 0
M  V30 5458 H 501.6 -1.34338 0.518593 0
M  V30 5459 H 503.553 -4.0976 -0.983612 0
M  V30 5460 H 502.277 -2.93717 -1.4282 0
M  V30 5461 H 500.936 -3.61776 0.592787 0
M  V30 5462 H 500.584 -4.76895 -1.59939 0
M  V30 5463 H 500.284 -5.8714 -0.232561 0
M  V30 5464 H 501.808 -5.99544 -1.1567 0
M  V30 5465 H 503.222 -5.62938 1.08504 0
M  V30 5466 H 501.619 -5.70123 1.87296 0
M  V30 5467 H 502.689 -4.32451 2.1935 0
M  V30 5468 N 504.032 -0.577932 -1.46621 0
M  V30 5469 C 504.962 0.145917 -2.33044 0
M  V30 5470 C 505.943 0.888412 -1.45056 0
M  V30 5471 O 507.128 0.864812 -1.73881 0
M  V30 5472 C 504.258 1.16322 -3.27241 0
M  V30 5473 C 503.212 0.535868 -4.24632 0
M  V30 5474 C 502.538 1.65929 -5.08303 0
M  V30 5475 C 503.838 -0.523861 -5.19666 0
M  V30 5476 H 505.532 -0.575636 -2.93814 0
M  V30 5477 H 503.078 -0.278272 -1.41286 0
M  V30 5478 H 505.031 1.67793 -3.86553 0
M  V30 5479 H 503.755 1.91498 -2.64567 0
M  V30 5480 H 502.414 0.0422759 -3.66576 0
M  V30 5481 H 502.062 2.40061 -4.42018 0
M  V30 5482 H 501.762 1.2452 -5.74255 0
M  V30 5483 H 503.286 2.17686 -5.70478 0
M  V30 5484 H 504.7 -0.0944059 -5.73222 0
M  V30 5485 H 503.097 -0.858 -5.93935 0
M  V30 5486 H 504.167 -1.41197 -4.63887 0
M  V30 5487 N 505.51 1.54411 -0.315457 0
M  V30 5488 C 506.42 2.27737 0.56329 0
M  V30 5489 C 507.436 1.31787 1.13614 0
M  V30 5490 O 508.612 1.64791 1.15784 0
M  V30 5491 C 505.677 3.01478 1.71207 0
M  V30 5492 C 504.738 4.12997 1.17185 0
M  V30 5493 C 503.971 4.83212 2.26588 0
M  V30 5494 O 504.194 4.52884 3.46775 0
M  V30 5495 O 503.128 5.70299 1.92463 0
M  V30 5496 H 506.954 3.03683 -0.0319614 0
M  V30 5497 H 504.539 1.49178 -0.0814188 0
M  V30 5498 H 506.421 3.47683 2.38106 0
M  V30 5499 H 505.096 2.28414 2.29366 0
M  V30 5500 H 504.003 3.71159 0.468174 0
M  V30 5501 H 505.336 4.8808 0.635501 0
M  V30 5502 N 506.988 0.0434614 1.5754 0
M  V30 5503 C 508.404 -0.313039 1.565 0
M  V30 5504 C 508.604 -1.71954 1.05043 0
M  V30 5505 O 507.66 -2.425 0.703564 0
M  V30 5506 C 508.973 -0.148544 3.00333 0
M  V30 5507 C 510.521 -0.220231 3.12224 0
M  V30 5508 C 510.996 -0.0843565 4.57922 0
M  V30 5509 N 512.487 -0.140881 4.62986 0
M  V30 5510 C 513.222 -0.0597443 5.73369 0
M  V30 5511 N 512.718 0.0733004 6.92761 0
M  V30 5512 N 514.511 -0.11477 5.61983 0
M  V30 5513 H 506.662 0.96303 1.89313 0
M  V30 5514 H 508.925 0.373164 0.871466 0
M  V30 5515 H 508.631 0.820894 3.41986 0
M  V30 5516 H 508.505 -0.912798 3.65989 0
M  V30 5517 H 510.892 -1.18014 2.70475 0
M  V30 5518 H 510.973 0.574646 2.49262 0
M  V30 5519 H 510.617 0.872192 5.00355 0
M  V30 5520 H 510.547 -0.898281 5.18882 0
M  V30 5521 H 513.038 -0.243273 3.77116 0
M  V30 5522 H 513.351 0.128128 7.72694 0
M  V30 5523 H 511.696 0.10828 6.94916 0
M  V30 5524 H 514.887 -0.217212 4.67596 0
M  V30 5525 H 515.06 -0.0480779 6.47982 0
M  V30 5526 N 508.466 -1.55915 -0.229846 0
M  V30 5527 C 509.396 -1.94754 -1.28815 0
M  V30 5528 C 510.377 -0.814657 -1.49323 0
M  V30 5529 O 511.562 -1.07631 -1.61645 0
M  V30 5530 C 508.692 -2.25705 -2.63959 0
M  V30 5531 C 507.646 -3.41406 -2.5812 0
M  V30 5532 C 506.972 -3.57941 -3.97218 0
M  V30 5533 C 508.272 -4.76616 -2.13623 0
M  V30 5534 H 509.966 -2.83404 -0.965547 0
M  V30 5535 H 507.512 -1.36353 -0.463028 0
M  V30 5536 H 509.465 -2.51467 -3.38146 0
M  V30 5537 H 508.189 -1.339 -2.9789 0
M  V30 5538 H 506.848 -3.1568 -1.86391 0
M  V30 5539 H 506.496 -2.63526 -4.28443 0
M  V30 5540 H 506.196 -4.35757 -3.94195 0
M  V30 5541 H 507.72 -3.86042 -4.73079 0
M  V30 5542 H 509.134 -5.01637 -2.77549 0
M  V30 5543 H 507.531 -5.57655 -2.21677 0
M  V30 5544 H 508.601 -4.7253 -1.08829 0
M  V30 5545 N 509.944 0.496216 -1.49584 0
M  V30 5546 C 510.891 1.59722 -1.66606 0
M  V30 5547 C 511.861 1.58158 -0.507477 0
M  V30 5548 O 513.046 1.76072 -0.735076 0
M  V30 5549 C 510.186 2.97844 -1.74308 0
M  V30 5550 C 509.299 3.09388 -3.01502 0
M  V30 5551 C 508.434 4.38271 -3.00153 0
M  V30 5552 C 507.473 4.43466 -4.21906 0
M  V30 5553 N 506.61 5.63784 -4.1844 0
M  V30 5554 H 511.45 1.44515 -2.60613 0
M  V30 5555 H 508.987 0.703048 -1.29212 0
M  V30 5556 H 510.945 3.77907 -1.76754 0
M  V30 5557 H 509.575 3.11743 -0.837619 0
M  V30 5558 H 508.627 2.22357 -3.08645 0
M  V30 5559 H 509.939 3.09085 -3.91494 0
M  V30 5560 H 509.093 5.2666 -3.01188 0
M  V30 5561 H 507.832 4.41146 -2.07947 0
M  V30 5562 H 506.837 3.53478 -4.21109 0
M  V30 5563 H 508.062 4.42303 -5.1531 0
M  V30 5564 H 506.008 5.67491 -3.29074 0
M  V30 5565 H 505.925 5.65118 -5.02173 0
M  V30 5566 H 507.193 6.54367 -4.23585 0
M  V30 5567 N 511.423 1.38739 0.74761 0
M  V30 5568 C 512.333 1.38696 1.89211 0
M  V30 5569 C 513.349 0.283303 1.71678 0
M  V30 5570 O 514.525 0.522713 1.94498 0
M  V30 5571 C 511.59 1.21662 3.24653 0
M  V30 5572 C 510.651 2.41886 3.54669 0
M  V30 5573 C 509.884 2.25655 4.83648 0
M  V30 5574 O 510.107 1.25339 5.56459 0
M  V30 5575 O 509.041 3.14372 5.13277 0
M  V30 5576 H 512.867 2.35143 1.92202 0
M  V30 5577 H 510.452 1.19721 0.893708 0
M  V30 5578 H 512.334 1.14246 4.05618 0
M  V30 5579 H 511.009 0.283024 3.2246 0
M  V30 5580 H 509.916 2.54877 2.73841 0
M  V30 5581 H 511.249 3.33895 3.61628 0
M  V30 5582 N 512.901 -0.976442 1.23707 0
M  V30 5583 C 514.131 -1.75087 1.09673 0
M  V30 5584 C 514.539 -1.85852 -0.354344 0
M  V30 5585 O 513.882 -1.33985 -1.25673 0
M  V30 5586 C 513.944 -3.19272 1.65245 0
M  V30 5587 C 513.608 -3.32004 3.14042 0
M  V30 5588 C 514.605 -3.18017 4.11292 0
M  V30 5589 C 512.29 -3.56525 3.53829 0
M  V30 5590 C 514.284 -3.28363 5.46312 0
M  V30 5591 C 511.971 -3.6651 4.88993 0
M  V30 5592 C 512.969 -3.52439 5.85043 0
M  V30 5593 O 512.657 -3.62063 7.1775 0
M  V30 5594 H 512.389 -0.556164 0.384262 0
M  V30 5595 H 514.943 -1.23518 1.64111 0
M  V30 5596 H 513.173 -3.72107 1.05231 0
M  V30 5597 H 514.862 -3.7849 1.46629 0
M  V30 5598 H 515.628 -2.98966 3.81896 0
M  V30 5599 H 511.507 -3.66547 2.79579 0
M  V30 5600 H 515.051 -3.17297 6.21263 0
M  V30 5601 H 510.948 -3.85072 5.18063 0
M  V30 5602 H 511.716 -3.78833 7.25553 0
M  V30 5603 N 514.379 -1.04941 -1.1758 0
M  V30 5604 C 515.795 -0.770282 -1.39781 0
M  V30 5605 C 515.995 0.636417 -1.91186 0
M  V30 5606 O 515.051 1.39923 -2.10185 0
M  V30 5607 C 516.364 -1.82376 -2.3908 0
M  V30 5608 C 517.912 -1.84569 -2.52791 0
M  V30 5609 C 518.387 -2.88933 -3.55361 0
M  V30 5610 N 519.878 -2.8788 -3.62877 0
M  V30 5611 C 520.613 -3.65282 -4.41992 0
M  V30 5612 N 520.109 -4.52461 -5.24643 0
M  V30 5613 N 521.902 -3.53732 -4.36841 0
M  V30 5614 H 514.053 -1.95705 -0.825438 0
M  V30 5615 H 516.316 -0.847284 -0.425222 0
M  V30 5616 H 516.022 -2.83323 -2.08376 0
M  V30 5617 H 515.896 -1.66327 -3.38549 0
M  V30 5618 H 518.283 -0.842879 -2.82807 0
M  V30 5619 H 518.364 -2.04696 -1.53406 0
M  V30 5620 H 518.008 -3.89398 -3.26085 0
M  V30 5621 H 517.938 -2.66059 -4.54445 0
M  V30 5622 H 520.429 -2.24666 -3.03864 0
M  V30 5623 H 520.742 -5.08211 -5.82187 0
M  V30 5624 H 519.087 -4.56524 -5.24033 0
M  V30 5625 H 522.278 -2.85021 -3.71323 0
M  V30 5626 H 522.451 -4.14302 -4.98255 0
M  V30 5627 N 515.857 1.33968 -0.830081 0
M  V30 5628 C 516.805 2.31301 -0.245435 0
M  V30 5629 C 517.799 1.57734 0.617762 0
M  V30 5630 O 519.005 1.72674 0.508303 0
M  V30 5631 H 515.38 0.749552 -0.0606316 0
M  V30 5632 H 517.351 2.78129 -1.08105 0
M  V30 5633 C 516.1 3.42961 0.572084 0
M  V30 5634 H 515.423 3.99714 -0.0828118 0
M  V30 5635 H 516.863 4.13286 0.94715 0
M  V30 5636 C 515.322 2.88043 1.74737 0
M  V30 5637 O 515.852 2.83508 2.8458 0
M  V30 5638 N 514.058 2.44768 1.56642 0
M  V30 5639 H 513.605 2.48656 0.672901 0
M  V30 5640 H 513.563 2.08375 2.3543 0
M  V30 5641 N 517.335 0.585699 1.46312 0
M  V30 5642 C 518.298 -0.135673 2.28798 0
M  V30 5643 C 519.298 -0.815988 1.38558 0
M  V30 5644 O 520.488 -0.667487 1.60904 0
M  V30 5645 C 517.62 -1.20163 3.1902 0
M  V30 5646 H 518.813 0.589257 2.94054 0
M  V30 5647 H 516.366 0.343794 1.52472 0
M  V30 5648 H 517.101 -1.95804 2.58517 0
M  V30 5649 H 516.886 -0.718282 3.85465 0
M  V30 5650 H 518.376 -1.70749 3.81096 0
M  V30 5651 N 518.813 -1.54241 0.323641 0
M  V30 5652 C 519.745 -2.21836 -0.576311 0
M  V30 5653 C 520.758 -1.21837 -1.07979 0
M  V30 5654 O 521.947 -1.48306 -0.99336 0
M  V30 5655 C 519.047 -2.86923 -1.80356 0
M  V30 5656 C 518.22 -4.1306 -1.43875 0
M  V30 5657 C 517.279 -4.6174 -2.52353 0
M  V30 5658 O 516.305 -5.26421 -2.16494 0
M  V30 5659 N 517.507 -4.35974 -3.83284 0
M  V30 5660 H 520.272 -2.997 0.00247987 0
M  V30 5661 H 517.833 -1.61233 0.146848 0
M  V30 5662 H 519.825 -3.16414 -2.52318 0
M  V30 5663 H 518.395 -2.12765 -2.29019 0
M  V30 5664 H 517.615 -3.90334 -0.550752 0
M  V30 5665 H 518.903 -4.95148 -1.17071 0
M  V30 5666 H 518.301 -3.84203 -4.15216 0
M  V30 5667 H 516.858 -4.70119 -4.51477 0
M  V30 5668 N 520.291 -0.0518155 -1.57515 0
M  V30 5669 C 521.531 0.625712 -1.94587 0
M  V30 5670 C 521.895 1.6797 -0.930053 0
M  V30 5671 O 523.096 2.41135 -1.18774 0
M  V30 5672 C 521.367 1.20574 -3.36447 0
M  V30 5673 S 522.926 1.90118 -3.95475 0
M  V30 5674 H 519.744 0.205434 -0.680675 0
M  V30 5675 H 522.346 -0.120906 -1.95126 0
M  V30 5676 H 521.05 0.426521 -4.08178 0
M  V30 5677 H 520.581 1.98916 -3.39405 0
M  V30 5678 H 522.596 3.18184 -3.80753 0
M  V30 5679 N 521.769 1.56035 0.221574 0
M  V30 5680 C 522.732 1.91584 1.2581 0
M  V30 5681 C 523.732 0.794425 1.39805 0
M  V30 5682 O 524.922 1.06217 1.38071 0
M  V30 5683 C 522.054 2.16663 2.63192 0
M  V30 5684 H 523.247 2.8429 0.954935 0
M  V30 5685 H 520.8 1.49316 0.461988 0
M  V30 5686 H 521.535 1.26508 2.98607 0
M  V30 5687 H 521.32 2.98358 2.5441 0
M  V30 5688 H 522.81 2.45262 3.37988 0
M  V30 5689 N 523.247 -0.488276 1.49845 0
M  V30 5690 C 524.663 -0.820566 1.3689 0
M  V30 5691 C 524.863 -1.97248 0.411752 0
M  V30 5692 O 523.919 -2.52042 -0.151931 0
M  V30 5693 C 525.232 -1.1488 2.77891 0
M  V30 5694 C 526.78 -1.25626 2.86683 0
M  V30 5695 C 527.255 -1.61772 4.28479 0
M  V30 5696 N 528.746 -1.68797 4.31349 0
M  V30 5697 C 529.481 -1.98235 5.38043 0
M  V30 5698 N 528.977 -2.2581 6.54967 0
M  V30 5699 N 530.77 -1.99593 5.2547 0
M  V30 5700 H 522.921 0.271123 2.10662 0
M  V30 5701 H 525.184 0.058735 0.946179 0
M  V30 5702 H 524.89 -0.375614 3.49688 0
M  V30 5703 H 524.764 -2.08919 3.14058 0
M  V30 5704 H 527.151 -2.02014 2.15114 0
M  V30 5705 H 527.232 -0.296072 2.54081 0
M  V30 5706 H 526.876 -0.859295 5.00578 0
M  V30 5707 H 526.806 -2.58912 4.58554 0
M  V30 5708 H 529.297 -1.49595 3.4703 0
M  V30 5709 H 529.61 -2.47497 7.32096 0
M  V30 5710 H 527.955 -2.23239 6.58171 0
M  V30 5711 H 531.146 -1.77535 4.33127 0
M  V30 5712 H 531.319 -2.222 6.08713 0
M  V30 5713 N 524.725 -1.39134 -0.740242 0
M  V30 5714 C 526.136 -1.32208 -1.31825 0
M  V30 5715 C 526.487 0.0159919 -1.96193 0
M  V30 5716 O 525.612 0.918111 -1.95958 0
M  V30 5717 C 526.207 -2.39436 -2.39699 0
M  V30 5718 C 524.766 -2.36048 -2.93187 0
M  V30 5719 C 523.913 -2.21599 -1.66701 0
M  V30 5720 H 526.864 -1.49298 -0.538133 0
M  V30 5721 H 526.885 -2.05922 -3.19963 0
M  V30 5722 H 526.397 -3.36811 -1.92821 0
M  V30 5723 H 524.498 -1.42295 -3.44359 0
M  V30 5724 H 524.611 -3.30704 -3.46658 0
M  V30 5725 H 522.975 -1.68681 -1.90837 0
M  V30 5726 H 523.758 -3.20936 -1.21882 0
M  V30 5727 N 526.204 0.969867 -1.24223 0
M  V30 5728 C 527.452 1.70918 -1.0785 0
M  V30 5729 C 527.773 1.91186 0.383763 0
M  V30 5730 O 527.043 1.48806 1.27411 0
M  V30 5731 H 525.623 0.633334 -0.396103 0
M  V30 5732 H 528.285 1.16689 -1.56108 0
M  V30 5733 H 527.381 2.69455 -1.57482 0
M  V30 5734 N 527.682 1.05563 1.17022 0
M  V30 5735 C 529.093 0.793475 1.69 0
M  V30 5736 C 529.444 -0.683882 1.83895 0
M  V30 5737 O 528.569 -1.53116 1.5292 0
M  V30 5738 C 529.164 1.43376 3.06967 0
M  V30 5739 C 527.723 1.21956 3.56095 0
M  V30 5740 C 526.87 1.51494 2.3226 0
M  V30 5741 H 529.821 1.22008 1.01487 0
M  V30 5742 H 529.842 0.845068 3.70997 0
M  V30 5743 H 529.354 2.50899 2.96093 0
M  V30 5744 H 527.455 0.163749 3.7224 0
M  V30 5745 H 527.568 1.92713 4.38633 0
M  V30 5746 H 525.932 0.935175 2.3691 0
M  V30 5747 H 526.715 2.60159 2.23992 0
M  V30 5748 N 529.16 -1.33526 0.837174 0
M  V30 5749 C 530.123 -2.27551 0.274421 0
M  V30 5750 C 531.123 -1.50886 -0.555881 0
M  V30 5751 O 532.313 -1.70227 -0.369918 0
M  V30 5752 C 529.445 -3.35332 -0.613605 0
M  V30 5753 H 530.638 -2.78837 1.10408 0
M  V30 5754 H 528.191 -1.439 0.610126 0
M  V30 5755 H 528.926 -2.89285 -1.46577 0
M  V30 5756 H 528.711 -3.92095 -0.0195341 0
M  V30 5757 H 530.201 -4.05433 -1.00068 0
M  V30 5758 N 530.638 -0.59345 -1.46 0
M  V30 5759 C 532.054 -0.255965 -1.57534 0
M  V30 5760 C 532.254 1.24167 -1.58697 0
M  V30 5761 O 531.31 2.02398 -1.50968 0
M  V30 5762 C 532.623 -0.91466 -2.86451 0
M  V30 5763 C 534.171 -0.889253 -3.00102 0
M  V30 5764 C 534.646 -1.52769 -4.3177 0
M  V30 5765 N 536.137 -1.49253 -4.38495 0
M  V30 5766 C 536.872 -1.9558 -5.39014 0
M  V30 5767 N 536.368 -2.49929 -6.46148 0
M  V30 5768 N 538.161 -1.86432 -5.30282 0
M  V30 5769 H 530.312 -1.56604 -1.43489 0
M  V30 5770 H 532.575 -0.655207 -0.685133 0
M  V30 5771 H 532.281 -1.96861 -2.91442 0
M  V30 5772 H 532.155 -0.429356 -3.74748 0
M  V30 5773 H 534.542 0.156111 -2.94687 0
M  V30 5774 H 534.623 -1.41268 -2.13253 0
M  V30 5775 H 534.267 -2.57231 -4.37944 0
M  V30 5776 H 534.197 -0.979398 -5.17412 0
M  V30 5777 H 536.688 -1.09536 -3.61677 0
M  V30 5778 H 537.001 -2.83109 -7.19075 0
M  V30 5779 H 535.346 -2.53961 -6.46938 0
M  V30 5780 H 538.537 -1.43722 -4.4549 0
M  V30 5781 H 538.71 -2.22852 -6.08474 0
M  V30 5782 N 532.116 1.54067 -0.331816 0
M  V30 5783 C 533.048 2.22139 0.564538 0
M  V30 5784 C 534.061 1.22408 1.07332 0
M  V30 5785 O 535.25 1.4883 0.985481 0
M  V30 5786 C 532.35 2.87876 1.78831 0
M  V30 5787 C 531.523 4.13817 1.41682 0
M  V30 5788 C 530.582 4.63072 2.49901 0
M  V30 5789 O 529.608 5.27562 2.13699 0
M  V30 5790 N 530.81 4.38001 3.80967 0
M  V30 5791 H 533.575 2.99694 -0.0183736 0
M  V30 5792 H 531.136 1.61153 -0.155396 0
M  V30 5793 H 533.128 3.17747 2.50637 0
M  V30 5794 H 531.698 2.13977 2.27887 0
M  V30 5795 H 530.918 3.9062 0.530044 0
M  V30 5796 H 532.206 4.95762 1.14443 0
M  V30 5797 H 531.604 3.864 4.13173 0
M  V30 5798 H 530.161 4.72507 4.48977 0
M  V30 5799 N 533.594 0.0601682 1.57485 0
M  V30 5800 C 535.005 -0.474217 1.80577 0
M  V30 5801 C 535.356 -1.70365 0.973147 0
M  V30 5802 O 534.481 -2.15544 0.192306 0
M  V30 5803 C 535.076 -0.867102 3.27516 0
M  V30 5804 C 533.635 -1.34642 3.51495 0
M  V30 5805 C 532.782 -0.32594 2.75378 0
M  V30 5806 H 535.733 0.285973 1.56102 0
M  V30 5807 H 535.754 -1.72938 3.38929 0
M  V30 5808 H 535.266 0.0278927 3.8809 0
M  V30 5809 H 533.367 -2.2603 2.96212 0
M  V30 5810 H 533.48 -1.33237 4.60201 0
M  V30 5811 H 531.844 -0.800749 2.41785 0
M  V30 5812 H 532.627 0.561125 3.38683 0
M  V30 5813 N 535.072 -1.5615 -0.213296 0
M  V30 5814 C 536.488 -1.49327 -0.56336 0
M  V30 5815 C 536.688 -0.756826 -1.86747 0
M  V30 5816 O 535.744 -0.299866 -2.50713 0
M  V30 5817 C 537.057 -2.9392 -0.634944 0
M  V30 5818 C 538.605 -3.04487 -0.725013 0
M  V30 5819 C 539.08 -4.50456 -0.82787 0
M  V30 5820 N 540.571 -4.54533 -0.891876 0
M  V30 5821 C 541.306 -5.64766 -0.991315 0
M  V30 5822 N 540.802 -6.84733 -1.05419 0
M  V30 5823 N 542.595 -5.52637 -1.02709 0
M  V30 5824 H 534.746 -2.02453 0.642366 0
M  V30 5825 H 537.009 -0.920548 0.226487 0
M  V30 5826 H 536.715 -3.50783 0.253859 0
M  V30 5827 H 536.589 -3.46274 -1.49579 0
M  V30 5828 H 538.976 -2.47685 -1.60425 0
M  V30 5829 H 539.057 -2.55289 0.161669 0
M  V30 5830 H 538.701 -5.07878 0.0469464 0
M  V30 5831 H 538.631 -4.97369 -1.73009 0
M  V30 5832 H 541.122 -3.68141 -0.85327 0
M  V30 5833 H 541.435 -7.64493 -1.13007 0
M  V30 5834 H 539.78 -6.87427 -1.02318 0
M  V30 5835 H 542.971 -4.5784 -0.974687 0
M  V30 5836 H 543.144 -6.38576 -1.10113 0
M  V30 5837 N 536.55 0.480323 -1.50102 0
M  V30 5838 C 537.961 1.06142 -1.53593 0
M  V30 5839 C 538.312 1.93335 -0.334055 0
M  V30 5840 O 537.437 2.09188 0.55403 0
M  V30 5841 C 538.032 1.9317 -2.78336 0
M  V30 5842 C 536.591 2.46405 -2.84538 0
M  V30 5843 C 535.738 1.24521 -2.4777 0
M  V30 5844 H 538.689 0.26333 -1.565 0
M  V30 5845 H 538.71 2.78123 -2.59669 0
M  V30 5846 H 538.222 1.29683 -3.65792 0
M  V30 5847 H 536.323 3.13472 -2.01411 0
M  V30 5848 H 536.436 2.82143 -3.87211 0
M  V30 5849 H 534.8 1.57706 -2.00003 0
M  V30 5850 H 535.583 0.627102 -3.37524 0
M  V30 5851 N 538.028 1.39524 0.732853 0
M  V30 5852 C 539.444 1.21176 1.03868 0
M  V30 5853 C 539.644 0.0748448 2.01361 0
M  V30 5854 O 538.7 -0.57281 2.45917 0
M  V30 5855 C 540.013 2.54667 1.59892 0
M  V30 5856 C 541.561 2.6153 1.71962 0
M  V30 5857 C 542.036 3.95248 2.31394 0
M  V30 5858 N 543.527 3.96899 2.38801 0
M  V30 5859 C 544.262 4.97138 2.85729 0
M  V30 5860 N 543.758 6.07775 3.32537 0
M  V30 5861 N 545.551 4.84516 2.84957 0
M  V30 5862 H 537.702 2.12225 0.086304 0
M  V30 5863 H 539.965 0.942614 0.100907 0
M  V30 5864 H 539.671 3.38423 0.95721 0
M  V30 5865 H 539.545 2.74538 2.58668 0
M  V30 5866 H 541.932 1.78156 2.35254 0
M  V30 5867 H 542.013 2.45507 0.718327 0
M  V30 5868 H 541.657 4.79054 1.68729 0
M  V30 5869 H 541.587 4.08593 3.32204 0
M  V30 5870 H 544.078 3.16998 2.05719 0
M  V30 5871 H 544.391 6.8017 3.66862 0
M  V30 5872 H 542.736 6.11366 3.30541 0
M  V30 5873 H 545.927 3.97185 2.47713 0
M  V30 5874 H 546.1 5.62783 3.21215 0
M  V30 5875 N 539.506 -0.963266 1.24736 0
M  V30 5876 C 540.731 -1.74699 1.11781 0
M  V30 5877 C 541.156 -1.85267 -0.325258 0
M  V30 5878 O 540.514 -1.32681 -1.23553 0
M  V30 5879 C 540.562 -3.14322 1.76731 0
M  V30 5880 O 539.666 -3.99043 1.04109 0
M  V30 5881 H 539.007 -0.53684 0.390767 0
M  V30 5882 H 541.537 -1.20801 1.65131 0
M  V30 5883 H 541.547 -3.64824 1.82668 0
M  V30 5884 H 540.222 -3.05946 2.81726 0
M  V30 5885 H 538.799 -3.5752 1.05991 0
M  V30 5886 N 540.985 -1.06182 -1.16461 0
M  V30 5887 C 542.21 -0.798599 -1.91408 0
M  V30 5888 C 542.635 0.640987 -1.76842 0
M  V30 5889 O 541.993 1.44652 -1.09296 0
M  V30 5890 C 542.041 -1.19665 -3.40165 0
M  V30 5891 O 541.145 -0.334768 -4.11039 0
M  V30 5892 H 540.486 -0.291961 -0.596368 0
M  V30 5893 H 543.016 -1.41732 -1.47557 0
M  V30 5894 H 543.026 -1.16772 -3.90933 0
M  V30 5895 H 541.701 -2.24526 -3.50087 0
M  V30 5896 H 540.278 -0.425168 -3.70468 0
M  V30 5897 N 542.463 1.3308 -0.844243 0
M  V30 5898 C 543.74 1.92178 -0.364261 0
M  V30 5899 C 544.12 1.76961 1.15101 0
M  V30 5900 O 543.468 1.16128 1.9679 0
M  V30 5901 C 543.678 3.393 -0.817106 0
M  V30 5902 C 545.026 4.16444 -0.828236 0
M  V30 5903 O 546.05 3.47975 -0.761062 0
M  V30 5904 O 544.909 5.38685 -0.920926 0
M  V30 5905 H 542.003 0.820411 -0.10419 0
M  V30 5906 H 544.549 1.41918 -0.930453 0
M  V30 5907 H 543.321 3.44272 -1.85991 0
M  V30 5908 H 542.944 3.96947 -0.227785 0
M  V30 5909 N 543.941 0.601185 1.45683 0
M  V30 5910 C 544.871 -0.108824 2.33246 0
M  V30 5911 C 545.852 -0.865223 1.46451 0
M  V30 5912 O 547.037 -0.83704 1.75235 0
M  V30 5913 C 544.167 -1.11101 3.2905 0
M  V30 5914 C 543.121 -0.468244 4.25431 0
M  V30 5915 C 542.447 -1.57822 5.10878 0
M  V30 5916 C 543.747 0.606469 5.18767 0
M  V30 5917 H 545.441 0.622306 2.92861 0
M  V30 5918 H 542.987 0.300714 1.40825 0
M  V30 5919 H 544.94 -1.61622 3.89174 0
M  V30 5920 H 543.664 -1.87265 2.67581 0
M  V30 5921 H 542.323 0.0160484 3.66596 0
M  V30 5922 H 541.971 -2.32998 4.45781 0
M  V30 5923 H 541.671 -1.15369 5.76163 0
M  V30 5924 H 543.195 -2.08583 5.73869 0
M  V30 5925 H 544.609 0.185589 5.73 0
M  V30 5926 H 543.006 0.952381 5.92494 0
M  V30 5927 H 544.076 1.48559 4.61582 0
M  V30 5928 N 545.419 -1.53889 0.339982 0
M  V30 5929 C 546.644 -2.05741 -0.261798 0
M  V30 5930 C 547.069 -1.21354 -1.43718 0
M  V30 5931 O 546.427 -0.22645 -1.7988 0
M  V30 5932 C 546.475 -3.54542 -0.658228 0
M  V30 5933 O 545.579 -3.7302 -1.75869 0
M  V30 5934 H 544.92 -0.662529 -0.0441672 0
M  V30 5935 H 547.45 -1.98568 0.493161 0
M  V30 5936 H 547.46 -3.9711 -0.936368 0
M  V30 5937 H 546.135 -4.15412 0.201358 0
M  V30 5938 H 544.712 -3.42355 -1.47809 0
M  V30 5939 N 546.897 -0.0685191 -1.57451 0
M  V30 5940 C 548.145 0.60016 -1.92983 0
M  V30 5941 C 548.466 1.70348 -0.949028 0
M  V30 5942 O 547.736 1.959 0.00335647 0
M  V30 5943 H 546.316 0.224682 -0.712409 0
M  V30 5944 H 548.978 -0.125605 -1.94495 0
M  V30 5945 H 548.074 1.02759 -2.94698 0
M  V30 5946 N 548.375 1.56261 0.205012 0
M  V30 5947 C 549.305 1.96779 1.257 0
M  V30 5948 C 550.286 0.838309 1.48008 0
M  V30 5949 O 551.471 1.10189 1.59913 0
M  V30 5950 C 548.601 2.29876 2.60335 0
M  V30 5951 C 547.555 3.45469 2.52656 0
M  V30 5952 C 546.881 3.64215 3.91473 0
M  V30 5953 C 548.181 4.79954 2.06014 0
M  V30 5954 H 549.875 2.84904 0.920338 0
M  V30 5955 H 547.421 1.37072 0.441277 0
M  V30 5956 H 549.374 2.56814 3.34102 0
M  V30 5957 H 548.098 1.38622 2.95722 0
M  V30 5958 H 546.757 3.18605 1.81345 0
M  V30 5959 H 546.405 2.70309 4.24196 0
M  V30 5960 H 546.105 4.41973 3.87213 0
M  V30 5961 H 547.629 3.93519 4.66878 0
M  V30 5962 H 549.043 5.05989 2.69533 0
M  V30 5963 H 547.44 5.61111 2.12777 0
M  V30 5964 H 548.51 4.74201 1.01297 0
M  V30 5965 N 549.853 -0.472356 1.50355 0
M  V30 5966 C 550.763 -1.59637 1.7191 0
M  V30 5967 C 551.779 -1.63247 0.602195 0
M  V30 5968 O 552.955 -1.81139 0.880369 0
M  V30 5969 C 550.02 -2.9586 1.80742 0
M  V30 5970 C 549.081 -3.02649 3.04471 0
M  V30 5971 C 548.314 -4.32374 3.12872 0
M  V30 5972 O 548.537 -5.22807 2.28099 0
M  V30 5973 O 547.471 -4.44728 4.05587 0
M  V30 5974 H 551.297 -1.44373 2.67189 0
M  V30 5975 H 548.882 -0.651717 1.34436 0
M  V30 5976 H 550.764 -3.7677 1.88739 0
M  V30 5977 H 549.439 -3.11325 0.88647 0
M  V30 5978 H 548.346 -2.20821 3.01975 0
M  V30 5979 H 549.679 -2.92119 3.9614 0
M  V30 5980 N 551.331 -1.39911 -0.725443 0
M  V30 5981 C 552.577 -1.37858 -1.48738 0
M  V30 5982 C 552.91 0.0224187 -1.94187 0
M  V30 5983 O 552.185 0.989204 -1.67466 0
M  V30 5984 C 552.468 -2.3594 -2.72038 0
M  V30 5985 C 552.321 -3.85023 -2.32546 0
M  V30 5986 C 553.64 -2.31704 -3.74167 0
M  V30 5987 H 550.759 -0.502074 -0.539528 0
M  V30 5988 H 553.401 -1.70974 -0.828728 0
M  V30 5989 H 551.551 -2.0783 -3.28236 0
M  V30 5990 H 553.223 -4.2392 -1.81905 0
M  V30 5991 H 551.466 -4.01334 -1.64661 0
M  V30 5992 H 552.137 -4.49152 -3.20884 0
M  V30 5993 H 554.613 -2.5658 -3.27576 0
M  V30 5994 H 553.489 -3.02395 -4.58092 0
M  V30 5995 H 553.75 -1.3253 -4.21768 0
M  V30 5996 N 552.809 0.956637 -1.25245 0
M  V30 5997 C 554.22 1.51569 -1.09012 0
M  V30 5998 C 554.571 1.93322 0.334813 0
M  V30 5999 O 553.696 1.78421 1.22454 0
M  V30 6000 C 554.291 2.75444 -1.97271 0
M  V30 6001 C 552.85 3.27669 -1.8523 0
M  V30 6002 C 551.997 2.00517 -1.91542 0
M  V30 6003 H 554.948 0.773746 -1.3856 0
M  V30 6004 H 554.969 3.4919 -1.51151 0
M  V30 6005 H 554.481 2.45024 -3.00973 0
M  V30 6006 H 552.582 3.62914 -0.844045 0
M  V30 6007 H 552.695 3.9582 -2.69932 0
M  V30 6008 H 551.059 2.15727 -1.35404 0
M  V30 6009 H 551.842 1.72448 -2.96844 0
M  V30 6010 N 554.287 1.06798 1.15896 0
M  V30 6011 C 555.219 0.641263 2.20046 0
M  V30 6012 C 556.232 -0.303355 1.59949 0
M  V30 6013 O 557.421 -0.0935478 1.78255 0
M  V30 6014 C 554.521 -0.0794029 3.38807 0
M  V30 6015 C 553.694 0.879986 4.28457 0
M  V30 6016 C 552.753 0.197638 5.25829 0
M  V30 6017 O 551.779 0.836913 5.63014 0
M  V30 6018 N 552.981 -1.05886 5.70761 0
M  V30 6019 H 555.746 1.53718 2.57276 0
M  V30 6020 H 553.307 0.951951 1.30956 0
M  V30 6021 H 555.299 -0.546418 4.00994 0
M  V30 6022 H 553.869 -0.877193 3.0004 0
M  V30 6023 H 553.089 1.52625 3.63454 0
M  V30 6024 H 554.377 1.53065 4.8523 0
M  V30 6025 H 553.775 -1.59828 5.42652 0
M  V30 6026 H 552.332 -1.46965 6.35015 0
M  V30 6027 N 555.766 -1.3263 0.851289 0
M  V30 6028 C 556.676 -2.32722 0.296268 0
M  V30 6029 C 557.692 -1.63901 -0.584162 0
M  V30 6030 O 558.868 -1.95465 -0.485334 0
M  V30 6031 C 555.933 -3.42942 -0.509103 0
M  V30 6032 C 554.994 -4.2746 0.397069 0
M  V30 6033 C 554.227 -5.32416 -0.36996 0
M  V30 6034 O 554.45 -5.47491 -1.6003 0
M  V30 6035 O 553.384 -6.01327 0.262493 0
M  V30 6036 H 557.21 -2.82078 1.12543 0
M  V30 6037 H 554.795 -1.36194 0.614135 0
M  V30 6038 H 556.677 -4.1017 -0.96634 0
M  V30 6039 H 555.352 -2.95781 -1.31512 0
M  V30 6040 H 554.259 -3.63053 0.902411 0
M  V30 6041 H 555.592 -4.78136 1.16818 0
M  V30 6042 N 557.244 -0.608902 -1.45362 0
M  V30 6043 C 558.492 -0.104401 -2.0183 0
M  V30 6044 C 558.813 1.27007 -1.47967 0
M  V30 6045 O 558.083 1.83924 -0.674455 0
M  V30 6046 H 556.663 -0.0356042 -0.746151 0
M  V30 6047 H 559.325 -0.790596 -1.78145 0
M  V30 6048 H 558.421 -0.0551793 -3.12051 0
M  V30 6049 N 558.722 1.53707 -0.348139 0
M  V30 6050 C 559.652 2.28111 0.498766 0
M  V30 6051 C 560.633 1.29851 1.09876 0
M  V30 6052 O 561.818 1.587 1.11928 0
M  V30 6053 C 558.948 3.05735 1.64753 0
M  V30 6054 C 557.902 4.11537 1.17565 0
M  V30 6055 C 557.228 4.77142 2.4133 0
M  V30 6056 C 558.528 5.21587 0.272844 0
M  V30 6057 H 560.222 2.99152 -0.121934 0
M  V30 6058 H 557.768 1.43875 -0.0600842 0
M  V30 6059 H 559.721 3.56526 2.24649 0
M  V30 6060 H 558.445 2.32354 2.2952 0
M  V30 6061 H 557.104 3.61665 0.599483 0
M  V30 6062 H 556.752 4.0035 3.04514 0
M  V30 6063 H 556.452 5.48626 2.10436 0
M  V30 6064 H 557.976 5.30719 3.01943 0
M  V30 6065 H 559.39 5.67986 0.778779 0
M  V30 6066 H 557.787 6.00074 0.0555849 0
M  V30 6067 H 558.857 4.79969 -0.689785 0
M  V30 6068 N 560.2 0.0768682 1.57412 0
M  V30 6069 C 561.425 -0.603404 1.98428 0
M  V30 6070 C 561.85 -1.62047 0.955108 0
M  V30 6071 O 561.208 -1.81129 -0.0786778 0
M  V30 6072 C 561.256 -1.24396 3.38464 0
M  V30 6073 O 560.36 -2.35982 3.3821 0
M  V30 6074 H 559.701 -0.154741 0.645718 0
M  V30 6075 H 562.231 0.152885 2.04028 0
M  V30 6076 H 562.241 -1.5896 3.7576 0
M  V30 6077 H 560.916 -0.498735 4.12899 0
M  V30 6078 H 559.493 -2.03173 3.1269 0
M  V30 6079 N 561.678 -1.56367 -0.196722 0
M  V30 6080 C 562.906 -1.84639 -0.933608 0
M  V30 6081 C 563.321 -0.659164 -1.76919 0
M  V30 6082 O 562.678 0.372142 -1.78665 0
M  V30 6083 C 562.729 -3.11694 -1.83109 0
M  V30 6084 O 562.45 -4.25838 -1.02924 0
M  V30 6085 C 563.951 -3.53132 -2.67979 0
M  V30 6086 H 561.171 -0.613188 -0.272473 0
M  V30 6087 H 563.715 -2.03475 -0.204465 0
M  V30 6088 H 561.87 -2.94759 -2.51387 0
M  V30 6089 H 562.284 -4.98178 -1.64069 0
M  V30 6090 H 563.758 -4.45005 -3.26611 0
M  V30 6091 H 564.235 -2.76045 -3.41608 0
M  V30 6092 H 564.841 -3.72592 -2.05074 0
M  V30 6093 N 563.156 0.464375 -1.50603 0
M  V30 6094 C 564.433 1.22549 -1.5245 0
M  V30 6095 C 564.813 2.09327 -0.273035 0
M  V30 6096 O 564.161 2.16074 0.743242 0
M  V30 6097 C 564.371 2.05074 -2.82393 0
M  V30 6098 C 565.719 2.63036 -3.33313 0
M  V30 6099 O 566.743 2.1531 -2.8376 0
M  V30 6100 O 565.602 3.5001 -4.19709 0
M  V30 6101 H 562.696 0.556471 -0.611775 0
M  V30 6102 H 565.242 0.475648 -1.62898 0
M  V30 6103 H 564.014 1.41169 -3.64948 0
M  V30 6104 H 563.637 2.87179 -2.7498 0
M  V30 6105 N 564.634 1.40294 0.718013 0
M  V30 6106 C 566.045 1.34289 1.29705 0
M  V30 6107 C 566.396 0.0152228 1.96194 0
M  V30 6108 O 565.521 -0.88682 1.97394 0
M  V30 6109 C 566.116 2.43219 2.3586 0
M  V30 6110 C 564.675 2.40682 2.89394 0
M  V30 6111 C 563.822 2.24223 1.63154 0
M  V30 6112 H 566.773 1.50135 0.514312 0
M  V30 6113 H 566.794 2.10986 3.16647 0
M  V30 6114 H 566.306 3.39836 1.87439 0
M  V30 6115 H 564.407 1.47756 3.42051 0
M  V30 6116 H 564.52 3.36177 3.41353 0
M  V30 6117 H 562.884 1.71696 1.88129 0
M  V30 6118 H 563.667 3.22834 1.16761 0
M  V30 6119 N 566.112 -0.949982 1.2575 0
M  V30 6120 C 567.359 -1.69515 1.10774 0
M  V30 6121 C 567.687 -1.91316 -0.350479 0
M  V30 6122 O 566.942 -1.48515 -1.27443 0
M  V30 6123 C 567.241 -3.08039 1.81237 0
M  V30 6124 C 566.907 -3.06023 3.31151 0
M  V30 6125 C 565.569 -3.0518 3.72047 0
M  V30 6126 C 567.921 -2.98998 4.26907 0
M  V30 6127 C 565.249 -2.95067 5.07102 0
M  V30 6128 C 567.601 -2.90426 5.61992 0
M  V30 6129 C 566.265 -2.87922 6.0221 0
M  V30 6130 H 565.535 -0.6203 0.405351 0
M  V30 6131 H 568.182 -1.10953 1.56082 0
M  V30 6132 H 566.487 -3.70172 1.28373 0
M  V30 6133 H 568.184 -3.64526 1.67098 0
M  V30 6134 H 564.774 -3.07453 2.98614 0
M  V30 6135 H 568.958 -2.98764 3.963 0
M  V30 6136 H 564.214 -2.915 5.37436 0
M  V30 6137 H 568.388 -2.83952 6.35881 0
M  V30 6138 H 566.015 -2.79841 7.06819 0
M  V30 6139 N 567.59 -1.07411 -1.15328 0
M  V30 6140 C 569.006 -0.799759 -1.38116 0
M  V30 6141 C 569.206 0.59572 -1.92493 0
M  V30 6142 O 568.262 1.35433 -2.13106 0
M  V30 6143 C 569.575 -1.87407 -2.35158 0
M  V30 6144 C 571.123 -1.89889 -2.48819 0
M  V30 6145 C 571.598 -2.96406 -3.49153 0
M  V30 6146 N 573.089 -2.95512 -3.56689 0
M  V30 6147 C 573.824 -3.74575 -4.34144 0
M  V30 6148 N 573.32 -4.63488 -5.14928 0
M  V30 6149 N 575.113 -3.62919 -4.29239 0
M  V30 6150 H 567.264 -1.97411 -0.78374 0
M  V30 6151 H 569.527 -0.856113 -0.407154 0
M  V30 6152 H 569.233 -2.8768 -2.0232 0
M  V30 6153 H 569.107 -1.73471 -3.34944 0
M  V30 6154 H 571.494 -0.902677 -2.80955 0
M  V30 6155 H 571.575 -2.07904 -1.49029 0
M  V30 6156 H 571.219 -3.96227 -3.17752 0
M  V30 6157 H 571.149 -2.75638 -4.48699 0
M  V30 6158 H 573.64 -2.31061 -2.99031 0
M  V30 6159 H 573.953 -5.20445 -5.71276 0
M  V30 6160 H 572.298 -4.67537 -5.14232 0
M  V30 6161 H 575.489 -2.92833 -3.65194 0
M  V30 6162 H 575.662 -4.24777 -4.89355 0
M  V30 6163 N 569.068 1.32177 -0.85831 0
M  V30 6164 C 570.479 1.79381 -0.517621 0
M  V30 6165 C 570.83 1.70841 0.964769 0
M  V30 6166 O 569.955 1.26917 1.75274 0
M  V30 6167 C 570.55 3.25706 -0.932801 0
M  V30 6168 C 569.109 3.70851 -0.643953 0
M  V30 6169 C 568.256 2.53208 -1.13054 0
M  V30 6170 H 571.207 1.19424 -1.04516 0
M  V30 6171 H 571.228 3.79673 -0.250674 0
M  V30 6172 H 570.74 3.31889 -2.01174 0
M  V30 6173 H 568.841 3.70178 0.424112 0
M  V30 6174 H 568.954 4.63495 -1.21281 0
M  V30 6175 H 567.318 2.48676 -0.550679 0
M  V30 6176 H 568.101 2.62143 -2.21666 0
M  V30 6177 N 570.547 0.616602 1.45037 0
M  V30 6178 C 571.51 -0.0871112 2.29034 0
M  V30 6179 C 572.51 -0.786414 1.40258 0
M  V30 6180 O 573.7 -0.633207 1.62284 0
M  V30 6181 C 570.832 -1.13369 3.21497 0
M  V30 6182 H 572.025 0.651497 2.92738 0
M  V30 6183 H 569.578 0.376058 1.51709 0
M  V30 6184 H 570.313 -1.90277 2.62612 0
M  V30 6185 H 570.098 -0.636358 3.86902 0
M  V30 6186 H 571.588 -1.62627 3.84633 0
M  V30 6187 N 572.025 -1.5352 0.356285 0
M  V30 6188 C 572.955 -2.28372 -0.486661 0
M  V30 6189 C 573.936 -1.30432 -1.09185 0
M  V30 6190 O 575.121 -1.59291 -1.11085 0
M  V30 6191 C 572.251 -3.06604 -1.63129 0
M  V30 6192 C 571.205 -4.12154 -1.15381 0
M  V30 6193 C 570.531 -4.78415 -2.38796 0
M  V30 6194 C 571.831 -5.21724 -0.245179 0
M  V30 6195 H 573.525 -2.99083 0.137797 0
M  V30 6196 H 571.071 -1.43841 0.0677134 0
M  V30 6197 H 573.024 -3.57712 -2.22755 0
M  V30 6198 H 571.748 -2.33568 -2.28284 0
M  V30 6199 H 570.407 -3.61978 -0.580294 0
M  V30 6200 H 570.055 -4.01959 -3.02387 0
M  V30 6201 H 569.755 -5.49734 -2.07524 0
M  V30 6202 H 571.279 -5.32313 -2.99125 0
M  V30 6203 H 572.693 -5.68391 -0.748646 0
M  V30 6204 H 571.09 -6.00095 -0.0237608 0
M  V30 6205 H 572.16 -4.79596 0.715229 0
M  V30 6206 N 573.503 -0.0852151 -1.57369 0
M  V30 6207 C 574.433 0.874556 -2.16503 0
M  V30 6208 C 575.414 1.30111 -1.09568 0
M  V30 6209 O 576.599 1.36977 -1.37662 0
M  V30 6210 C 573.729 2.13731 -2.73745 0
M  V30 6211 C 572.683 1.84971 -3.85966 0
M  V30 6212 C 572.009 3.17991 -4.29867 0
M  V30 6213 C 573.309 1.14442 -5.09608 0
M  V30 6214 H 575.003 0.381899 -2.96954 0
M  V30 6215 H 572.549 0.18225 -1.42842 0
M  V30 6216 H 574.502 2.81302 -3.13763 0
M  V30 6217 H 573.226 2.65263 -1.90534 0
M  V30 6218 H 571.885 1.19801 -3.46473 0
M  V30 6219 H 571.533 3.6739 -3.4356 0
M  V30 6220 H 571.233 2.99534 -5.05523 0
M  V30 6221 H 572.757 3.86737 -4.72511 0
M  V30 6222 H 574.171 1.72105 -5.46857 0
M  V30 6223 H 572.568 1.06197 -5.90629 0
M  V30 6224 H 573.638 0.12559 -4.84737 0
M  V30 6225 N 574.981 1.5647 0.188427 0
M  V30 6226 C 576.221 1.82803 0.914469 0
M  V30 6227 C 576.585 0.663681 1.80165 0
M  V30 6228 O 577.786 0.807059 2.56398 0
M  V30 6229 C 576.057 3.14187 1.70357 0
M  V30 6230 S 577.616 3.61947 2.48072 0
M  V30 6231 H 574.434 0.641497 0.306599 0
M  V30 6232 H 577.036 1.94694 0.177361 0
M  V30 6233 H 575.74 3.96937 1.04255 0
M  V30 6234 H 575.271 3.05192 2.48237 0
M  V30 6235 H 577.286 3.27913 3.72407 0
M  V30 6236 N 576.459 -0.456382 1.50847 0
M  V30 6237 C 577.87 -1.03685 1.55262 0
M  V30 6238 C 578.221 -1.92779 0.364771 0
M  V30 6239 O 577.346 -2.10043 -0.52068 0
M  V30 6240 C 577.941 -1.88718 2.81374 0
M  V30 6241 C 576.5 -2.41847 2.88422 0
M  V30 6242 C 575.647 -1.20564 2.49719 0
M  V30 6243 H 578.598 -0.238399 1.56899 0
M  V30 6244 H 578.619 -2.73957 2.6406 0
M  V30 6245 H 578.131 -1.23847 3.67809 0
M  V30 6246 H 576.232 -3.10228 2.06372 0
M  V30 6247 H 576.345 -2.75947 3.9165 0
M  V30 6248 H 574.709 -1.54504 2.02486 0
M  V30 6249 H 575.492 -0.573326 3.38479 0
M  V30 6250 N 577.937 -1.40673 -0.710563 0
M  V30 6251 C 578.869 -1.37256 -1.83558 0
M  V30 6252 C 579.882 -0.277133 -1.60424 0
M  V30 6253 O 581.071 -0.537831 -1.70205 0
M  V30 6254 C 578.171 -1.1144 -3.20054 0
M  V30 6255 C 577.344 -2.32734 -3.70342 0
M  V30 6256 C 576.403 -2.03002 -4.85465 0
M  V30 6257 O 575.429 -2.75912 -4.97857 0
M  V30 6258 N 576.631 -1.01105 -5.71627 0
M  V30 6259 H 579.396 -2.34215 -1.86985 0
M  V30 6260 H 576.957 -1.35091 -0.892301 0
M  V30 6261 H 578.949 -0.895265 -3.94673 0
M  V30 6262 H 577.519 -0.231307 -3.11743 0
M  V30 6263 H 576.739 -2.70446 -2.86798 0
M  V30 6264 H 578.027 -3.13584 -4.00678 0
M  V30 6265 H 577.425 -0.407303 -5.64232 0
M  V30 6266 H 575.982 -0.85182 -6.4621 0
M  V30 6267 N 579.415 0.9433 -1.26252 0
M  V30 6268 C 580.826 1.50404 -1.10614 0
M  V30 6269 C 581.177 1.93666 0.31429 0
M  V30 6270 O 580.302 1.79709 1.20555 0
M  V30 6271 C 580.897 2.73336 -2.00182 0
M  V30 6272 C 579.456 3.25686 -1.88695 0
M  V30 6273 C 578.603 1.98474 -1.93658 0
M  V30 6274 H 581.554 0.759006 -1.39373 0
M  V30 6275 H 581.575 3.47567 -1.54847 0
M  V30 6276 H 581.087 2.41818 -3.03555 0
M  V30 6277 H 579.188 3.61998 -0.882489 0
M  V30 6278 H 579.301 3.92935 -2.74115 0
M  V30 6279 H 577.665 2.14278 -1.37684 0
M  V30 6280 H 578.448 1.6929 -2.98657 0
M  V30 6281 N 580.893 1.08022 1.14757 0
M  V30 6282 C 581.825 0.664566 2.19354 0
M  V30 6283 C 582.838 -0.286374 1.60261 0
M  V30 6284 O 584.027 -0.0746362 1.78344 0
M  V30 6285 C 581.127 -0.0434634 3.38872 0
M  V30 6286 C 580.3 0.925381 4.27499 0
M  V30 6287 C 579.359 0.253398 5.2559 0
M  V30 6288 O 578.385 0.896581 5.62094 0
M  V30 6289 N 579.587 -0.998263 5.71852 0
M  V30 6290 H 582.352 1.56438 2.55631 0
M  V30 6291 H 579.913 0.965788 1.29939 0
M  V30 6292 H 581.905 -0.503857 4.01551 0
M  V30 6293 H 580.475 -0.845321 3.00954 0
M  V30 6294 H 579.695 1.56472 3.61815 0
M  V30 6295 H 580.983 1.58203 4.8358 0
M  V30 6296 H 580.381 -1.54063 5.44317 0
M  V30 6297 H 578.938 -1.40222 6.36538 0
M  V30 6298 N 582.371 -1.3172 0.865308 0
M  V30 6299 C 583.599 -2.01057 0.488251 0
M  V30 6300 C 584.014 -1.64979 -0.918 0
M  V30 6301 O 583.371 -0.876597 -1.60069 0
M  V30 6302 C 583.422 -3.55964 0.630224 0
M  V30 6303 O 583.143 -3.90749 1.98109 0
M  V30 6304 C 584.644 -4.42574 0.253567 0
M  V30 6305 H 581.864 -0.64332 0.190736 0
M  V30 6306 H 584.408 -1.68058 1.16519 0
M  V30 6307 H 582.563 -3.874 0.000895422 0
M  V30 6308 H 582.977 -4.85467 1.9855 0
M  V30 6309 H 584.451 -5.50521 0.403875 0
M  V30 6310 H 584.928 -4.31724 -0.806895 0
M  V30 6311 H 585.534 -4.16547 0.858404 0
M  V30 6312 N 583.85 -0.624285 -1.44708 0
M  V30 6313 C 584.779 0.0717025 -2.3339 0
M  V30 6314 C 585.76 0.841814 -1.47809 0
M  V30 6315 O 586.946 0.809056 -1.76544 0
M  V30 6316 C 584.076 1.05852 -3.30776 0
M  V30 6317 C 583.029 0.400503 -4.26122 0
M  V30 6318 C 582.356 1.49674 -5.13324 0
M  V30 6319 C 583.656 -0.688924 -5.17737 0
M  V30 6320 H 585.35 -0.668819 -2.91834 0
M  V30 6321 H 582.896 -0.32308 -1.40329 0
M  V30 6322 H 584.849 1.5541 -3.91696 0
M  V30 6323 H 583.572 1.82984 -2.70526 0
M  V30 6324 H 582.231 -0.0743687 -3.66525 0
M  V30 6325 H 581.88 2.25877 -4.49431 0
M  V30 6326 H 581.58 1.06188 -5.77926 0
M  V30 6327 H 583.104 1.99427 -5.77115 0
M  V30 6328 H 584.518 -0.276724 -5.72632 0
M  V30 6329 H 582.915 -1.04652 -5.90904 0
M  V30 6330 H 583.985 -1.55884 -4.5916 0
M  V30 6331 N 585.328 1.53329 -0.364422 0
M  V30 6332 C 586.574 2.01537 0.225969 0
M  V30 6333 C 586.907 1.25128 1.48515 0
M  V30 6334 O 586.182 0.344653 1.91422 0
M  V30 6335 C 586.465 3.56339 0.519092 0
M  V30 6336 C 586.318 4.43441 -0.753639 0
M  V30 6337 C 587.637 4.19833 1.32015 0
M  V30 6338 H 584.756 0.732573 0.0806548 0
M  V30 6339 H 587.398 1.83597 -0.489084 0
M  V30 6340 H 585.548 3.71756 1.12825 0
M  V30 6341 H 587.22 4.39823 -1.39116 0
M  V30 6342 H 585.463 4.11457 -1.37424 0
M  V30 6343 H 586.134 5.49699 -0.503517 0
M  V30 6344 H 588.61 4.08242 0.804859 0
M  V30 6345 H 587.486 5.28177 1.49399 0
M  V30 6346 H 587.747 3.75821 2.32832 0
M  V30 6347 N 586.806 0.0935595 1.57322 0
M  V30 6348 C 587.738 -0.895923 2.10964 0
M  V30 6349 C 588.751 -1.24705 1.04654 0
M  V30 6350 O 589.94 -1.20044 1.32105 0
M  V30 6351 C 587.04 -2.20546 2.57318 0
M  V30 6352 C 586.213 -2.0299 3.87445 0
M  V30 6353 C 585.272 -3.17443 4.19662 0
M  V30 6354 O 584.298 -2.91474 4.88909 0
M  V30 6355 N 585.5 -4.43168 3.74943 0
M  V30 6356 H 588.265 -0.437788 2.96485 0
M  V30 6357 H 585.826 -0.0915863 1.61641 0
M  V30 6358 H 587.818 -2.9606 2.75917 0
M  V30 6359 H 586.388 -2.57789 1.76816 0
M  V30 6360 H 585.608 -1.11815 3.78009 0
M  V30 6361 H 586.896 -1.88535 4.7258 0
M  V30 6362 H 586.294 -4.67149 3.19043 0
M  V30 6363 H 584.851 -5.15637 3.987 0
M  V30 6364 N 588.284 -1.56567 -0.180126 0
M  V30 6365 C 589.509 -1.85975 -0.918041 0
M  V30 6366 C 589.934 -0.678888 -1.75422 0
M  V30 6367 O 589.292 0.372168 -1.77439 0
M  V30 6368 C 589.34 -3.13731 -1.77779 0
M  V30 6369 O 588.444 -2.95335 -2.87838 0
M  V30 6370 H 587.785 -0.61196 -0.257683 0
M  V30 6371 H 590.315 -2.03798 -0.180923 0
M  V30 6372 H 590.325 -3.4491 -2.17948 0
M  V30 6373 H 589 -3.99293 -1.16352 0
M  V30 6374 H 587.577 -2.7549 -2.51316 0
M  V30 6375 N 589.762 0.448376 -1.51087 0
M  V30 6376 C 591.008 1.20049 -1.6345 0
M  V30 6377 C 591.341 1.91121 -0.344444 0
M  V30 6378 O 590.616 1.83125 0.655396 0
M  V30 6379 C 590.899 2.22624 -2.83038 0
M  V30 6380 C 590.752 1.55708 -4.21989 0
M  V30 6381 C 592.071 3.23718 -2.98152 0
M  V30 6382 H 589.19 0.435085 -0.59487 0
M  V30 6383 H 591.832 0.491183 -1.83541 0
M  V30 6384 H 589.982 2.83117 -2.66039 0
M  V30 6385 H 591.654 0.986367 -4.50631 0
M  V30 6386 H 589.897 0.859647 -4.25197 0
M  V30 6387 H 590.568 2.30357 -5.01637 0
M  V30 6388 H 593.044 2.73269 -3.13788 0
M  V30 6389 H 591.92 3.92795 -3.83411 0
M  V30 6390 H 592.181 3.89179 -2.09743 0
M  V30 6391 N 591.24 1.41047 0.703093 0
M  V30 6392 C 592.17 1.45067 1.82969 0
M  V30 6393 C 593.151 0.31016 1.67248 0
M  V30 6394 O 594.336 0.520548 1.87093 0
M  V30 6395 C 591.466 1.32478 3.2104 0
M  V30 6396 C 590.42 2.44262 3.51454 0
M  V30 6397 C 589.746 2.16742 4.88801 0
M  V30 6398 C 591.046 3.86606 3.51189 0
M  V30 6399 H 592.74 2.39353 1.79863 0
M  V30 6400 H 590.286 1.15206 0.863919 0
M  V30 6401 H 592.239 1.33904 3.99559 0
M  V30 6402 H 590.963 0.346735 3.24754 0
M  V30 6403 H 589.622 2.42107 2.75282 0
M  V30 6404 H 589.27 1.17299 4.89132 0
M  V30 6405 H 588.97 2.91643 5.10116 0
M  V30 6406 H 590.494 2.19872 5.69639 0
M  V30 6407 H 591.908 3.90517 4.19725 0
M  V30 6408 H 590.305 4.61128 3.84033 0
M  V30 6409 H 591.375 4.15296 2.50315 0
M  V30 6410 N 592.718 -0.936591 1.26751 0
M  V30 6411 C 593.65 -2.03991 1.045 0
M  V30 6412 C 594.663 -1.628 0.00394261 0
M  V30 6413 O 595.852 -1.76817 0.244526 0
M  V30 6414 C 592.952 -3.34218 0.561403 0
M  V30 6415 C 592.125 -4.04151 1.67274 0
M  V30 6416 C 591.184 -5.12651 1.1864 0
M  V30 6417 O 590.21 -5.37104 1.88437 0
M  V30 6418 N 591.412 -5.80488 0.037278 0
M  V30 6419 H 594.177 -2.23644 1.99508 0
M  V30 6420 H 591.738 -1.10638 1.18198 0
M  V30 6421 H 593.73 -4.04101 0.220136 0
M  V30 6422 H 592.3 -3.11203 -0.295211 0
M  V30 6423 H 591.52 -3.28121 2.18472 0
M  V30 6424 H 592.808 -4.47626 2.41885 0
M  V30 6425 H 592.206 -5.63064 -0.545494 0
M  V30 6426 H 590.763 -6.5134 -0.244877 0
M  V30 6427 N 594.196 -1.08629 -1.14182 0
M  V30 6428 C 595.159 -0.722027 -2.1753 0
M  V30 6429 C 596.159 0.244305 -1.58933 0
M  V30 6430 O 597.349 0.0235545 -1.74184 0
M  V30 6431 C 594.481 -0.0663966 -3.40835 0
M  V30 6432 H 595.674 -1.63719 -2.51269 0
M  V30 6433 H 593.227 -0.884442 -1.28869 0
M  V30 6434 H 593.962 0.860389 -3.12678 0
M  V30 6435 H 593.747 -0.761598 -3.84632 0
M  V30 6436 H 595.237 0.173346 -4.1724 0
M  V30 6437 N 595.674 1.31259 -0.872281 0
M  V30 6438 C 596.584 2.32221 -0.333255 0
M  V30 6439 C 597.6 1.6481 0.558013 0
M  V30 6440 O 598.776 1.96212 0.454175 0
M  V30 6441 C 595.841 3.43708 0.454479 0
M  V30 6442 C 594.902 4.26774 -0.465024 0
M  V30 6443 C 594.135 5.32937 0.28521 0
M  V30 6444 O 594.358 5.49968 1.513 0
M  V30 6445 O 593.292 6.00834 -0.358126 0
M  V30 6446 H 597.118 2.80252 -1.17016 0
M  V30 6447 H 594.703 1.352 -0.635724 0
M  V30 6448 H 596.585 4.11656 0.900963 0
M  V30 6449 H 595.26 2.97836 1.26789 0
M  V30 6450 H 594.167 3.61571 -0.960055 0
M  V30 6451 H 595.5 4.76217 -1.2441 0
M  V30 6452 N 597.152 0.631951 1.44375 0
M  V30 6453 C 598.085 -0.121822 2.27875 0
M  V30 6454 C 599.063 -0.850457 1.38586 0
M  V30 6455 O 600.247 -0.854378 1.68026 0
M  V30 6456 C 597.374 -1.17859 3.17533 0
M  V30 6457 C 596.42 -0.550391 4.22934 0
M  V30 6458 S 597.253 0.660145 5.31415 0
M  V30 6459 C 598.409 -0.396613 6.24642 0
M  V30 6460 H 598.642 0.586537 2.91457 0
M  V30 6461 H 596.175 0.420146 1.48574 0
M  V30 6462 H 598.133 -1.78335 3.69739 0
M  V30 6463 H 596.794 -1.85915 2.53169 0
M  V30 6464 H 595.987 -1.34631 4.85685 0
M  V30 6465 H 595.589 -0.0202306 3.73995 0
M  V30 6466 H 597.881 -1.26893 6.65511 0
M  V30 6467 H 598.824 0.195345 7.0783 0
M  V30 6468 H 599.232 -0.72288 5.59852 0
M  V30 6469 N 598.631 -1.53133 0.372548 0
M  V30 6470 C 599.908 -1.93704 -0.271693 0
M  V30 6471 C 600.288 -1.30667 -1.65799 0
M  V30 6472 O 599.636 -0.46838 -2.23648 0
M  V30 6473 C 599.846 -3.47576 -0.314903 0
M  V30 6474 C 601.194 -4.20998 -0.551912 0
M  V30 6475 O 602.218 -3.53994 -0.39582 0
M  V30 6476 O 601.077 -5.39748 -0.85639 0
M  V30 6477 H 598.171 -0.810457 -0.164586 0
M  V30 6478 H 600.717 -1.6427 0.425838 0
M  V30 6479 H 599.489 -3.85749 0.656792 0
M  V30 6480 H 599.112 -3.83264 -1.05804 0
M  V30 6481 N 600.109 -0.101901 -1.5727 0
M  V30 6482 C 601.349 0.563489 -1.96479 0
M  V30 6483 C 601.713 1.64926 -0.983021 0
M  V30 6484 O 602.914 2.37234 -1.26386 0
M  V30 6485 C 601.185 1.09809 -3.40113 0
M  V30 6486 S 602.744 1.7744 -4.01323 0
M  V30 6487 H 599.562 0.183675 -0.686866 0
M  V30 6488 H 602.164 -0.182922 -1.94642 0
M  V30 6489 H 600.868 0.296447 -4.09328 0
M  V30 6490 H 600.399 1.88018 -3.45562 0
M  V30 6491 H 602.414 3.0591 -3.90683 0
M  V30 6492 N 601.587 1.56661 0.17182 0
M  V30 6493 C 602.497 1.99604 1.2327 0
M  V30 6494 C 603.513 0.907333 1.4847 0
M  V30 6495 O 604.689 1.21492 1.60629 0
M  V30 6496 C 601.754 2.34685 2.55194 0
M  V30 6497 C 600.815 3.57381 2.3786 0
M  V30 6498 C 600.048 3.90779 3.63494 0
M  V30 6499 O 600.271 3.25152 4.6865 0
M  V30 6500 O 599.205 4.84129 3.57634 0
M  V30 6501 H 603.031 2.90114 0.898192 0
M  V30 6502 H 600.616 1.44522 0.378647 0
M  V30 6503 H 602.498 2.5822 3.33017 0
M  V30 6504 H 601.173 1.47336 2.88225 0
M  V30 6505 H 600.08 3.39064 1.5807 0
M  V30 6506 H 601.413 4.45268 2.09754 0
M  V30 6507 N 603.065 -0.440357 1.51323 0
M  V30 6508 C 603.995 -1.54174 1.75364 0
M  V30 6509 C 604.976 -1.59039 0.603375 0
M  V30 6510 O 606.161 -1.74815 0.845774 0
M  V30 6511 C 603.291 -2.92277 1.87593 0
M  V30 6512 C 602.245 -3.02274 3.03009 0
M  V30 6513 C 601.571 -4.42327 3.00418 0
M  V30 6514 C 602.871 -2.76634 4.43024 0
M  V30 6515 H 604.565 -1.34307 2.67585 0
M  V30 6516 H 602.111 -0.644678 1.28763 0
M  V30 6517 H 604.064 -3.69284 2.02995 0
M  V30 6518 H 602.788 -3.13369 0.920179 0
M  V30 6519 H 601.447 -2.27706 2.87307 0
M  V30 6520 H 601.095 -4.60382 2.02626 0
M  V30 6521 H 600.795 -4.49946 3.77918 0
M  V30 6522 H 602.319 -5.21312 3.17909 0
M  V30 6523 H 603.733 -3.43376 4.59093 0
M  V30 6524 H 602.13 -2.95666 5.22208 0
M  V30 6525 H 603.2 -1.72262 4.5327 0
M  V30 6526 N 604.543 -1.41418 -0.695603 0
M  V30 6527 C 605.475 -1.39195 -1.82092 0
M  V30 6528 C 606.488 -0.294132 -1.60121 0
M  V30 6529 O 607.677 -0.555854 -1.69625 0
M  V30 6530 C 604.777 -1.14828 -3.18854 0
M  V30 6531 C 603.95 -2.36649 -3.67853 0
M  V30 6532 C 603.009 -2.08139 -4.83285 0
M  V30 6533 O 602.035 -2.81177 -4.94902 0
M  V30 6534 N 603.237 -1.07162 -5.70523 0
M  V30 6535 H 606.002 -2.36185 -1.84491 0
M  V30 6536 H 603.563 -1.3603 -0.877923 0
M  V30 6537 H 605.555 -0.937075 -3.93702 0
M  V30 6538 H 604.125 -0.264358 -3.1148 0
M  V30 6539 H 603.345 -2.73472 -2.83913 0
M  V30 6540 H 604.633 -3.17816 -3.97329 0
M  V30 6541 H 604.031 -0.467124 -5.63768 0
M  V30 6542 H 602.588 -0.920311 -6.4527 0
M  V30 6543 N 606.021 0.929856 -1.27246 0
M  V30 6544 C 607.246 1.71674 -1.16374 0
M  V30 6545 C 607.671 1.86064 0.276024 0
M  V30 6546 O 607.029 1.3591 1.19992 0
M  V30 6547 C 607.077 3.09526 -1.85003 0
M  V30 6548 O 606.181 3.96142 -1.14653 0
M  V30 6549 H 605.522 0.52629 -0.404863 0
M  V30 6550 H 608.052 1.16381 -1.68276 0
M  V30 6551 H 608.062 3.59852 -1.92276 0
M  V30 6552 H 606.737 2.98369 -2.89739 0
M  V30 6553 H 605.314 3.54584 -1.15433 0
M  V30 6554 N 607.499 1.09233 1.13605 0
M  V30 6555 C 608.724 0.849067 1.89224 0
M  V30 6556 C 609.149 -0.593875 1.78479 0
M  V30 6557 O 608.507 -1.41703 1.13092 0
M  V30 6558 C 608.555 1.28642 3.36873 0
M  V30 6559 O 607.659 0.44363 4.10007 0
M  V30 6560 H 607 0.30767 0.588417 0
M  V30 6561 H 609.53 1.45595 1.43748 0
M  V30 6562 H 609.54 1.27096 3.87699 0
M  V30 6563 H 608.215 2.33729 3.44011 0
M  V30 6564 H 606.792 0.523241 3.69211 0
M  V30 6565 N 608.977 -1.30795 0.87923 0
M  V30 6566 C 609.907 -2.30742 0.357796 0
M  V30 6567 C 610.888 -1.60747 -0.556283 0
M  V30 6568 O 612.073 -1.88393 -0.47135 0
M  V30 6569 C 609.203 -3.44583 -0.433555 0
M  V30 6570 C 608.157 -4.26235 0.388251 0
M  V30 6571 C 607.483 -5.32073 -0.529352 0
M  V30 6572 C 608.783 -4.96303 1.62729 0
M  V30 6573 H 610.477 -2.74605 1.19299 0
M  V30 6574 H 608.023 -1.32017 0.575104 0
M  V30 6575 H 609.976 -4.13563 -0.808934 0
M  V30 6576 H 608.7 -2.99511 -1.30234 0
M  V30 6577 H 607.359 -3.58936 0.745695 0
M  V30 6578 H 607.007 -4.83249 -1.39569 0
M  V30 6579 H 606.707 -5.87598 0.0166741 0
M  V30 6580 H 608.231 -6.0391 -0.901373 0
M  V30 6581 H 609.645 -5.5783 1.32283 0
M  V30 6582 H 608.042 -5.61666 2.11309 0
M  V30 6583 H 609.112 -4.22758 2.37494 0
M  V30 6584 N 610.455 -0.639598 -1.44038 0
M  V30 6585 C 611.387 0.0987684 -2.28987 0
M  V30 6586 C 612.4 0.80058 -1.41755 0
M  V30 6587 O 613.589 0.660611 -1.65826 0
M  V30 6588 C 610.689 1.16242 -3.18341 0
M  V30 6589 C 609.862 0.541447 -4.34036 0
M  V30 6590 C 608.921 1.50017 -5.04362 0
M  V30 6591 O 607.947 1.01403 -5.60095 0
M  V30 6592 N 609.149 2.83441 -5.06598 0
M  V30 6593 H 611.914 -0.630305 -2.92997 0
M  V30 6594 H 609.475 -0.481376 -1.54578 0
M  V30 6595 H 611.467 1.80429 -3.62253 0
M  V30 6596 H 610.037 1.79362 -2.56024 0
M  V30 6597 H 609.257 -0.27923 -3.9321 0
M  V30 6598 H 610.545 0.107379 -5.08687 0
M  V30 6599 H 609.943 3.2551 -4.62666 0
M  V30 6600 H 608.5 3.42966 -5.54272 0
M  V30 6601 N 611.933 1.52934 -0.380664 0
M  V30 6602 C 613.179 2.02443 0.197089 0
M  V30 6603 C 613.534 1.26249 1.45186 0
M  V30 6604 O 612.827 0.351964 1.8834 0
M  V30 6605 C 613.021 3.5349 0.527199 0
M  V30 6606 C 612.85 4.44312 -0.694027 0
M  V30 6607 C 611.62 4.90582 -1.21068 0
M  V30 6608 C 613.818 4.8995 -1.56377 0
M  V30 6609 N 611.8 5.65451 -2.39036 0
M  V30 6610 C 613.171 5.63313 -2.58995 0
M  V30 6611 C 615.226 4.72002 -1.58488 0
M  V30 6612 C 613.929 6.20635 -3.63599 0
M  V30 6613 C 615.955 5.30201 -2.61995 0
M  V30 6614 C 615.317 6.03463 -3.63335 0
M  V30 6615 H 611.416 0.781241 0.0344357 0
M  V30 6616 H 614 1.87387 -0.528609 0
M  V30 6617 H 612.171 3.68677 1.22196 0
M  V30 6618 H 613.903 3.89707 1.09135 0
M  V30 6619 H 610.658 4.67249 -0.772995 0
M  V30 6620 H 611.082 6.07541 -2.98701 0
M  V30 6621 H 615.724 4.14873 -0.814891 0
M  V30 6622 H 613.442 6.76852 -4.41472 0
M  V30 6623 H 617.028 5.182 -2.645 0
M  V30 6624 H 615.908 6.47693 -4.42113 0
M  V30 6625 N 613.412 0.11024 1.57214 0
M  V30 6626 C 614.823 -0.416527 1.81994 0
M  V30 6627 C 615.174 -1.67183 1.02686 0
M  V30 6628 O 614.299 -2.14823 0.260782 0
M  V30 6629 C 614.894 -0.762466 3.30109 0
M  V30 6630 C 613.453 -1.23391 3.556 0
M  V30 6631 C 612.6 -0.238166 2.76275 0
M  V30 6632 H 615.551 0.335491 1.55113 0
M  V30 6633 H 615.572 -1.62068 3.44259 0
M  V30 6634 H 615.084 0.151346 3.87805 0
M  V30 6635 H 613.185 -2.16492 3.03253 0
M  V30 6636 H 613.298 -1.18528 4.64207 0
M  V30 6637 H 611.662 -0.723421 2.4421 0
M  V30 6638 H 612.445 0.668591 3.36727 0
M  V30 6639 N 614.89 -1.56749 -0.16351 0
M  V30 6640 C 615.82 -2.00042 -1.20438 0
M  V30 6641 C 616.801 -0.877256 -1.45733 0
M  V30 6642 O 617.986 -1.1439 -1.56935 0
M  V30 6643 C 615.116 -2.36697 -2.54149 0
M  V30 6644 C 614.07 -3.52046 -2.43408 0
M  V30 6645 C 613.396 -3.74466 -3.81679 0
M  V30 6646 C 614.696 -4.85247 -1.93216 0
M  V30 6647 H 616.39 -2.87244 -0.844477 0
M  V30 6648 H 613.936 -1.38194 -0.40478 0
M  V30 6649 H 615.889 -2.65582 -3.27176 0
M  V30 6650 H 614.613 -1.46414 -2.91943 0
M  V30 6651 H 613.272 -3.23301 -1.72834 0
M  V30 6652 H 612.92 -2.81461 -4.1688 0
M  V30 6653 H 612.62 -4.52084 -3.75359 0
M  V30 6654 H 614.144 -4.0576 -4.5628 0
M  V30 6655 H 615.558 -5.12957 -2.56023 0
M  V30 6656 H 613.955 -5.66556 -1.97825 0
M  V30 6657 H 615.025 -4.7672 -0.88689 0
M  V30 6658 N 616.368 0.432326 -1.51554 0
M  V30 6659 C 617.615 1.18134 -1.64471 0
M  V30 6660 C 617.943 1.91076 -0.363349 0
M  V30 6661 O 617.198 1.84492 0.65279 0
M  V30 6662 C 617.497 2.21907 -2.80164 0
M  V30 6663 C 617.163 1.65941 -4.19255 0
M  V30 6664 C 615.825 1.50401 -4.57092 0
M  V30 6665 C 618.177 1.24843 -5.06027 0
M  V30 6666 C 615.505 0.922443 -5.79403 0
M  V30 6667 C 617.857 0.68113 -6.28922 0
M  V30 6668 C 616.521 0.512673 -6.65528 0
M  V30 6669 H 615.791 0.432283 -0.601841 0
M  V30 6670 H 618.438 0.471701 -1.856 0
M  V30 6671 H 616.743 2.98928 -2.53277 0
M  V30 6672 H 618.44 2.79691 -2.87357 0
M  V30 6673 H 615.03 1.79014 -3.89425 0
M  V30 6674 H 619.214 1.35667 -4.77397 0
M  V30 6675 H 614.47 0.779733 -6.06408 0
M  V30 6676 H 618.644 0.35418 -6.95499 0
M  V30 6677 H 616.271 0.0599084 -7.60176 0
M  V30 6678 N 617.846 1.41785 0.688094 0
M  V30 6679 C 619.093 1.41544 1.44816 0
M  V30 6680 C 619.421 0.0271746 1.94481 0
M  V30 6681 O 618.676 -0.962235 1.7041 0
M  V30 6682 C 618.975 2.37532 2.67046 0
M  V30 6683 C 618.641 3.84209 2.35996 0
M  V30 6684 C 617.303 4.24165 2.27239 0
M  V30 6685 C 619.655 4.76785 2.10536 0
M  V30 6686 C 616.983 5.54695 1.91128 0
M  V30 6687 C 619.335 6.07644 1.75931 0
M  V30 6688 C 617.999 6.46613 1.65675 0
M  V30 6689 H 617.269 0.517945 0.529919 0
M  V30 6690 H 619.916 1.74635 0.785797 0
M  V30 6691 H 618.221 1.9772 3.38251 0
M  V30 6692 H 619.918 2.34615 3.25203 0
M  V30 6693 H 616.508 3.52567 2.4371 0
M  V30 6694 H 620.692 4.46714 2.16242 0
M  V30 6695 H 615.948 5.83762 1.81746 0
M  V30 6696 H 620.122 6.78874 1.55252 0
M  V30 6697 H 617.749 7.47668 1.37463 0
M  V30 6698 N 619.324 -0.923095 1.27737 0
M  V30 6699 C 620.735 -1.48626 1.12993 0
M  V30 6700 C 621.086 -1.94142 -0.283439 0
M  V30 6701 O 620.211 -1.81605 -1.17681 0
M  V30 6702 C 620.806 -2.70117 2.04505 0
M  V30 6703 C 619.365 -3.22642 1.93853 0
M  V30 6704 C 618.512 -1.95368 1.96791 0
M  V30 6705 H 621.463 -0.736737 1.40563 0
M  V30 6706 H 621.484 -3.4506 1.60356 0
M  V30 6707 H 620.996 -2.36959 3.07363 0
M  V30 6708 H 619.097 -3.60549 0.939968 0
M  V30 6709 H 619.21 -3.88525 2.80331 0
M  V30 6710 H 617.574 -2.12061 1.41076 0
M  V30 6711 H 618.357 -1.64517 3.01312 0
M  V30 6712 N 620.802 -1.09834 -1.13024 0
M  V30 6713 C 622.048 -0.83819 -1.84668 0
M  V30 6714 C 622.381 0.634645 -1.83537 0
M  V30 6715 O 621.656 1.46753 -1.27647 0
M  V30 6716 C 621.939 -1.37933 -3.32636 0
M  V30 6717 C 621.792 -2.91857 -3.42257 0
M  V30 6718 C 623.111 -1.01654 -4.28199 0
M  V30 6719 H 620.23 -0.30595 -0.670495 0
M  V30 6720 H 622.872 -1.36044 -1.32635 0
M  V30 6721 H 621.022 -0.935111 -3.77078 0
M  V30 6722 H 622.694 -3.44759 -3.06495 0
M  V30 6723 H 620.937 -3.28776 -2.83 0
M  V30 6724 H 621.608 -3.24799 -4.46329 0
M  V30 6725 H 624.084 -1.39973 -3.9185 0
M  V30 6726 H 622.96 -1.42217 -5.30156 0
M  V30 6727 H 623.221 0.0747794 -4.42037 0
M  V30 6728 N 622.28 1.30327 -0.886154 0
M  V30 6729 C 623.557 1.90922 -0.425217 0
M  V30 6730 C 623.937 1.80533 1.09413 0
M  V30 6731 O 623.285 1.2233 1.92996 0
M  V30 6732 C 623.495 3.36529 -0.924638 0
M  V30 6733 C 624.843 4.13598 -0.960305 0
M  V30 6734 O 625.867 3.45377 -0.871382 0
M  V30 6735 O 624.726 5.35482 -1.09184 0
M  V30 6736 H 621.82 0.81668 -0.130238 0
M  V30 6737 H 624.366 1.38886 -0.975132 0
M  V30 6738 H 623.138 3.38181 -1.96849 0
M  V30 6739 H 622.761 3.96021 -0.353955 0
M  V30 6740 N 623.758 0.647228 1.43697 0
M  V30 6741 C 624.721 -0.0385101 2.29168 0
M  V30 6742 C 625.721 -0.756487 1.41894 0
M  V30 6743 O 626.911 -0.598641 1.63591 0
M  V30 6744 C 624.043 -1.06524 3.23829 0
M  V30 6745 H 625.236 0.713445 2.9129 0
M  V30 6746 H 622.789 0.408153 1.50877 0
M  V30 6747 H 623.524 -1.84664 2.66589 0
M  V30 6748 H 623.309 -0.554147 3.88164 0
M  V30 6749 H 624.799 -1.54432 3.87996 0
M  V30 6750 N 625.236 -1.5273 0.388769 0
M  V30 6751 C 626.461 -2.0647 -0.19621 0
M  V30 6752 C 626.886 -1.25865 -1.39784 0
M  V30 6753 O 626.244 -0.283562 -1.79069 0
M  V30 6754 C 626.292 -3.56456 -0.5451 0
M  V30 6755 O 625.396 -3.78426 -1.63912 0
M  V30 6756 H 624.737 -0.663599 -0.023067 0
M  V30 6757 H 627.267 -1.96898 0.556084 0
M  V30 6758 H 627.277 -3.99888 -0.809557 0
M  V30 6759 H 625.952 -4.14561 0.333417 0
M  V30 6760 H 624.529 -3.46884 -1.36842 0
M  V30 6761 N 626.714 -0.118576 -1.57153 0
M  V30 6762 C 627.954 0.542618 -1.97066 0
M  V30 6763 C 628.318 1.63874 -1.00046 0
M  V30 6764 O 629.519 2.3588 -1.28895 0
M  V30 6765 C 627.79 1.06196 -3.41258 0
M  V30 6766 S 629.349 1.73174 -4.03183 0
M  V30 6767 H 626.167 0.17638 -0.688775 0
M  V30 6768 H 628.769 -0.203556 -1.94437 0
M  V30 6769 H 627.473 0.253016 -4.09619 0
M  V30 6770 H 627.004 1.84342 -3.47536 0
M  V30 6771 H 629.019 3.01749 -3.93906 0
M  V30 6772 N 628.193 1.56834 0.155195 0
M  V30 6773 C 629.418 1.87412 0.888337 0
M  V30 6774 C 629.843 0.70671 1.74319 0
M  V30 6775 O 629.201 -0.343892 1.78009 0
M  V30 6776 C 629.249 3.1652 1.72765 0
M  V30 6777 O 628.353 2.99877 2.83103 0
M  V30 6778 H 627.694 0.615983 0.247914 0
M  V30 6779 H 630.224 2.04061 0.148478 0
M  V30 6780 H 630.234 3.48334 2.12433 0
M  V30 6781 H 628.909 4.01094 1.09985 0
M  V30 6782 H 627.486 2.79453 2.46902 0
M  V30 6783 N 629.671 -0.424282 1.51781 0
M  V30 6784 C 630.919 -1.17028 1.64769 0
M  V30 6785 C 631.24 -1.91409 0.372523 0
M  V30 6786 O 630.51 -1.86091 -0.612108 0
M  V30 6787 H 629.09 -0.434992 0.607282 0
M  V30 6788 H 631.752 -0.485169 1.88765 0
M  V30 6789 H 630.848 -1.8927 2.4816 0
M  V30 6790 N 631.149 -1.42148 -0.680565 0
M  V30 6791 C 632.395 -1.42521 -1.44277 0
M  V30 6792 C 632.728 -0.0393718 -1.9416 0
M  V30 6793 O 632.003 0.935425 -1.70529 0
M  V30 6794 C 632.286 -2.44475 -2.64394 0
M  V30 6795 C 632.139 -3.92226 -2.20179 0
M  V30 6796 C 633.458 -2.43491 -3.66606 0
M  V30 6797 H 630.577 -0.518985 -0.523282 0
M  V30 6798 H 633.219 -1.73524 -0.773914 0
M  V30 6799 H 631.369 -2.18168 -3.21458 0
M  V30 6800 H 633.041 -4.29493 -1.68327 0
M  V30 6801 H 631.284 -4.0637 -1.5181 0
M  V30 6802 H 631.955 -4.59133 -3.06433 0
M  V30 6803 H 634.431 -2.66872 -3.19247 0
M  V30 6804 H 633.307 -3.16816 -4.4824 0
M  V30 6805 H 633.568 -1.45881 -4.17338 0
M  V30 6806 N 632.627 0.916307 -1.28225 0
M  V30 6807 C 633.874 1.66518 -1.1523 0
M  V30 6808 C 634.202 1.92178 0.299632 0
M  V30 6809 O 633.457 1.51842 1.2346 0
M  V30 6810 C 633.756 3.03125 -1.8934 0
M  V30 6811 C 633.422 2.97135 -3.39148 0
M  V30 6812 C 632.084 2.95208 -3.80007 0
M  V30 6813 C 634.436 2.87574 -4.34685 0
M  V30 6814 C 631.764 2.81518 -5.14747 0
M  V30 6815 C 634.116 2.75424 -5.69495 0
M  V30 6816 C 632.78 2.71854 -6.09632 0
M  V30 6817 H 632.05 0.609334 -0.421655 0
M  V30 6818 H 634.697 1.06776 -1.58969 0
M  V30 6819 H 633.002 3.66639 -1.38143 0
M  V30 6820 H 634.699 3.59968 -1.76704 0
M  V30 6821 H 631.289 2.99428 -3.06661 0
M  V30 6822 H 635.473 2.88152 -4.04082 0
M  V30 6823 H 630.729 2.77148 -5.44976 0
M  V30 6824 H 634.903 2.66993 -6.43185 0
M  V30 6825 H 632.53 2.61003 -7.1399 0
M  V30 6826 N 634.105 1.10431 1.1244 0
M  V30 6827 C 635.521 0.836096 1.35947 0
M  V30 6828 C 635.721 -0.544475 1.94004 0
M  V30 6829 O 634.777 -1.29735 2.16622 0
M  V30 6830 C 636.09 1.93575 2.30107 0
M  V30 6831 C 637.638 1.9642 2.43697 0
M  V30 6832 C 638.113 3.05559 3.41171 0
M  V30 6833 N 639.604 3.04865 3.48728 0
M  V30 6834 C 640.339 3.85954 4.24061 0
M  V30 6835 N 639.835 4.76977 5.02458 0
M  V30 6836 N 641.628 3.74172 4.19466 0
M  V30 6837 H 633.779 1.9942 0.731124 0
M  V30 6838 H 636.042 0.866607 0.384312 0
M  V30 6839 H 635.748 2.92943 1.94621 0
M  V30 6840 H 635.622 1.8229 3.30227 0
M  V30 6841 H 638.009 0.97685 2.78463 0
M  V30 6842 H 638.09 2.11782 1.43465 0
M  V30 6843 H 637.734 4.04513 3.07135 0
M  V30 6844 H 637.664 2.87438 4.41234 0
M  V30 6845 H 640.155 2.38908 2.92799 0
M  V30 6846 H 640.468 5.35409 5.57277 0
M  V30 6847 H 638.813 4.81006 5.01655 0
M  V30 6848 H 642.004 3.02412 3.57302 0
M  V30 6849 H 642.177 4.37602 4.77921 0
M  V30 6850 N 635.583 -1.29855 0.893053 0
M  V30 6851 C 636.994 -1.77946 0.564998 0
M  V30 6852 C 637.345 -1.73339 -0.919134 0
M  V30 6853 O 636.47 -1.3152 -1.71847 0
M  V30 6854 C 637.065 -3.23118 1.01883 0
M  V30 6855 C 635.624 -3.69013 0.742051 0
M  V30 6856 C 634.771 -2.50121 1.19727 0
M  V30 6857 H 637.722 -1.16611 1.07646 0
M  V30 6858 H 637.743 -3.78875 0.351249 0
M  V30 6859 H 637.255 -3.26439 2.09903 0
M  V30 6860 H 635.356 -3.71173 -0.325816 0
M  V30 6861 H 635.469 -4.60117 1.33527 0
M  V30 6862 H 633.833 -2.47128 0.616418 0
M  V30 6863 H 634.616 -2.56174 2.28538 0
M  V30 6864 N 637.061 -0.65484 -1.43351 0
M  V30 6865 C 638.477 -0.32255 -1.56307 0
M  V30 6866 C 638.677 1.17324 -1.63821 0
M  V30 6867 O 637.733 1.95813 -1.59417 0
M  V30 6868 C 639.046 -1.03533 -2.82314 0
M  V30 6869 C 640.594 -1.01574 -2.9606 0
M  V30 6870 C 641.069 -1.70945 -4.24902 0
M  V30 6871 N 642.56 -1.67716 -4.3177 0
M  V30 6872 C 643.295 -2.18265 -5.30234 0
M  V30 6873 N 642.791 -2.7711 -6.34966 0
M  V30 6874 N 644.584 -2.08756 -5.21898 0
M  V30 6875 H 636.735 -1.62549 -1.36717 0
M  V30 6876 H 638.998 -0.683676 -0.656727 0
M  V30 6877 H 638.704 -2.09045 -2.8283 0
M  V30 6878 H 638.578 -0.587913 -3.7259 0
M  V30 6879 H 640.965 0.0309834 -2.95084 0
M  V30 6880 H 641.046 -1.50186 -2.07069 0
M  V30 6881 H 640.69 -2.75574 -4.26639 0
M  V30 6882 H 640.62 -1.19797 -5.12793 0
M  V30 6883 H 643.111 -1.24777 -3.56706 0
M  V30 6884 H 643.424 -3.13353 -7.06421 0
M  V30 6885 H 641.769 -2.81171 -6.35585 0
M  V30 6886 H 644.96 -1.62488 -4.38994 0
M  V30 6887 H 645.133 -2.48459 -5.98475 0
M  V30 6888 N 638.539 1.52521 -0.396863 0
M  V30 6889 C 639.95 1.86547 0.0754868 0
M  V30 6890 C 640.301 1.31621 1.45501 0
M  V30 6891 O 639.426 0.650563 2.0639 0
M  V30 6892 C 640.021 3.38495 0.143754 0
M  V30 6893 C 638.58 3.72205 0.560413 0
M  V30 6894 C 637.727 2.75954 -0.272856 0
M  V30 6895 H 640.678 1.46323 -0.614434 0
M  V30 6896 H 640.699 3.68153 0.961425 0
M  V30 6897 H 640.211 3.78442 -0.860415 0
M  V30 6898 H 638.312 3.3783 1.57167 0
M  V30 6899 H 638.425 4.78074 0.313314 0
M  V30 6900 H 636.789 2.53339 0.263 0
M  V30 6901 H 637.572 3.1874 -1.27515 0
M  V30 6902 N 640.017 0.126909 1.57088 0
M  V30 6903 C 641.263 -0.529952 1.95753 0
M  V30 6904 C 641.596 -1.65823 1.01077 0
M  V30 6905 O 640.871 -1.94437 0.0494162 0
M  V30 6906 C 641.154 -1.05517 3.44294 0
M  V30 6907 C 641.007 0.0702253 4.49745 0
M  V30 6908 C 642.326 -1.9435 3.94862 0
M  V30 6909 H 639.445 -0.191168 0.711775 0
M  V30 6910 H 642.087 0.204071 1.88901 0
M  V30 6911 H 640.237 -1.68069 3.50264 0
M  V30 6912 H 641.909 0.705834 4.55868 0
M  V30 6913 H 640.152 0.732259 4.27575 0
M  V30 6914 H 640.823 -0.338642 5.5096 0
M  V30 6915 H 643.299 -1.41658 3.91244 0
M  V30 6916 H 642.175 -2.28015 4.993 0
M  V30 6917 H 642.436 -2.87299 3.36024 0
M  V30 6918 N 641.495 -1.56914 -0.146875 0
M  V30 6919 C 642.72 -1.87881 -0.878386 0
M  V30 6920 C 643.145 -0.715945 -1.73942 0
M  V30 6921 O 642.503 0.334447 -1.78189 0
M  V30 6922 C 642.551 -3.17431 -1.71084 0
M  V30 6923 O 641.655 -3.01374 -2.81509 0
M  V30 6924 H 640.996 -0.617289 -0.244644 0
M  V30 6925 H 643.526 -2.04136 -0.137654 0
M  V30 6926 H 643.536 -3.49455 -2.10582 0
M  V30 6927 H 642.211 -4.01671 -1.07856 0
M  V30 6928 H 640.788 -2.80758 -2.45416 0
M  V30 6929 N 642.974 0.416227 -1.52004 0
M  V30 6930 C 644.385 0.995319 -1.57957 0
M  V30 6931 C 644.736 1.91744 -0.415754 0
M  V30 6932 O 643.861 2.11349 0.464808 0
M  V30 6933 C 644.456 1.81191 -2.86278 0
M  V30 6934 C 643.015 2.34115 -2.94732 0
M  V30 6935 C 642.162 1.139 -2.52828 0
M  V30 6936 H 645.113 0.196716 -1.57476 0
M  V30 6937 H 645.134 2.66859 -2.71231 0
M  V30 6938 H 644.646 1.14051 -3.70963 0
M  V30 6939 H 642.747 3.04647 -2.14525 0
M  V30 6940 H 642.86 2.65466 -3.98829 0
M  V30 6941 H 641.224 1.49081 -2.06511 0
M  V30 6942 H 642.007 0.483383 -3.3988 0
M  V30 6943 N 644.452 1.42507 0.673017 0
M  V30 6944 C 645.677 1.4668 1.46627 0
M  V30 6945 C 646.102 0.080066 1.8793 0
M  V30 6946 O 645.46 -0.921879 1.56112 0
M  V30 6947 C 645.508 2.40091 2.69051 0
M  V30 6948 O 644.612 1.8735 3.67387 0
M  V30 6949 H 643.953 0.496908 0.44043 0
M  V30 6950 H 646.483 1.87215 0.825334 0
M  V30 6951 H 646.493 2.56731 3.17101 0
M  V30 6952 H 645.168 3.4084 2.3833 0
M  V30 6953 H 643.745 1.80274 3.26429 0
M  V30 6954 N 645.93 -0.909495 1.28709 0
M  V30 6955 C 647.155 -1.69801 1.1909 0
M  V30 6956 C 647.58 -1.86479 -0.246388 0
M  V30 6957 O 646.938 -1.37802 -1.17815 0
M  V30 6958 C 646.986 -3.06543 1.89904 0
M  V30 6959 O 646.09 -3.94268 1.2094 0
M  V30 6960 H 645.431 -0.519783 0.413185 0
M  V30 6961 H 647.961 -1.13689 1.70106 0
M  V30 6962 H 647.971 -3.56748 1.97977 0
M  V30 6963 H 646.646 -2.93722 2.94449 0
M  V30 6964 H 645.223 -3.52702 1.2106 0
M  V30 6965 N 647.408 -1.11026 -1.11852 0
M  V30 6966 C 648.338 -0.786812 -2.19844 0
M  V30 6967 C 649.319 0.242935 -1.68356 0
M  V30 6968 O 650.504 0.107355 -1.93903 0
M  V30 6969 C 647.634 -0.224516 -3.46574 0
M  V30 6970 C 646.588 -1.18564 -4.1125 0
M  V30 6971 C 645.914 -0.484261 -5.32503 0
M  V30 6972 C 647.214 -2.53465 -4.56676 0
M  V30 6973 H 648.908 -1.68978 -2.47158 0
M  V30 6974 H 646.454 -0.813906 -1.18792 0
M  V30 6975 H 648.407 0.0139435 -4.21398 0
M  V30 6976 H 647.131 0.713722 -3.18706 0
M  V30 6977 H 645.79 -1.40966 -3.38414 0
M  V30 6978 H 645.438 0.458646 -5.00905 0
M  V30 6979 H 645.138 -1.12526 -5.76725 0
M  V30 6980 H 646.662 -0.254492 -6.10069 0
M  V30 6981 H 648.076 -2.35177 -5.22843 0
M  V30 6982 H 646.473 -3.13507 -5.11697 0
M  V30 6983 H 647.543 -3.13008 -3.70343 0
M  V30 6984 N 648.886 1.2938 -0.899927 0
M  V30 6985 C 649.816 2.30144 -0.39446 0
M  V30 6986 C 650.797 1.61611 0.530639 0
M  V30 6987 O 651.982 1.89119 0.441319 0
M  V30 6988 C 649.112 3.45229 0.37868 0
M  V30 6989 C 648.066 4.25564 -0.456012 0
M  V30 6990 C 647.392 5.32848 0.444637 0
M  V30 6991 C 648.692 4.93651 -1.70605 0
M  V30 6992 H 650.386 2.72673 -1.23653 0
M  V30 6993 H 647.932 1.31086 -0.596034 0
M  V30 6994 H 649.885 4.14797 0.743037 0
M  V30 6995 H 648.609 3.01545 1.25453 0
M  V30 6996 H 647.268 3.57704 -0.802704 0
M  V30 6997 H 646.916 4.85408 1.31863 0
M  V30 6998 H 646.616 5.87497 -0.110154 0
M  V30 6999 H 648.14 6.05268 0.805182 0
M  V30 7000 H 649.554 5.55655 -1.41141 0
M  V30 7001 H 647.951 5.58233 -2.20217 0
M  V30 7002 H 649.021 4.18926 -2.4419 0
M  V30 7003 N 650.364 0.662433 1.43002 0
M  V30 7004 C 651.641 0.109096 1.95296 0
M  V30 7005 C 652.021 -1.37313 1.60338 0
M  V30 7006 O 651.369 -2.1032 0.893187 0
M  V30 7007 C 651.579 0.365096 3.47085 0
M  V30 7008 C 652.927 0.274964 4.23709 0
M  V30 7009 O 653.951 0.29816 3.5495 0
M  V30 7010 O 652.81 0.206549 5.4611 0
M  V30 7011 H 649.904 -0.00429724 0.826989 0
M  V30 7012 H 652.45 0.736308 1.52894 0
M  V30 7013 H 651.222 1.39237 3.65689 0
M  V30 7014 H 650.845 -0.294733 3.96506 0
M  V30 7015 N 651.842 -1.52309 0.404946 0
M  V30 7016 C 653.07 -2.06185 -0.171818 0
M  V30 7017 C 653.485 -1.27536 -1.39212 0
M  V30 7018 O 652.842 -0.326112 -1.79563 0
M  V30 7019 C 652.893 -3.57647 -0.526417 0
M  V30 7020 O 652.614 -4.3332 0.645417 0
M  V30 7021 C 654.115 -4.27925 -1.15736 0
M  V30 7022 H 651.335 -0.670632 -0.0222328 0
M  V30 7023 H 653.879 -1.96259 0.574692 0
M  V30 7024 H 652.034 -3.67595 -1.22282 0
M  V30 7025 H 652.448 -5.23328 0.35042 0
M  V30 7026 H 653.922 -5.35093 -1.35572 0
M  V30 7027 H 654.399 -3.84134 -2.12926 0
M  V30 7028 H 655.005 -4.22335 -0.501281 0
M  V30 7029 N 653.32 -0.135238 -1.57019 0
M  V30 7030 C 654.283 0.794707 -2.14981 0
M  V30 7031 C 655.283 1.18342 -1.08866 0
M  V30 7032 O 656.473 1.10627 -1.34563 0
M  V30 7033 C 653.605 2.07685 -2.70333 0
M  V30 7034 H 654.798 0.290696 -2.98488 0
M  V30 7035 H 652.351 0.114128 -1.55883 0
M  V30 7036 H 653.086 2.6248 -1.9046 0
M  V30 7037 H 652.871 1.80745 -3.47957 0
M  V30 7038 H 654.361 2.74127 -3.1503 0
M  V30 7039 N 654.798 1.5699 0.138552 0
M  V30 7040 C 656.047 1.82998 0.848205 0
M  V30 7041 C 656.36 0.717829 1.81952 0
M  V30 7042 O 657.566 0.863756 2.57394 0
M  V30 7043 C 656.022 3.24379 1.55904 0
M  V30 7044 C 655.63 4.43552 0.62971 0
M  V30 7045 C 657.374 3.59654 2.25498 0
M  V30 7046 C 655.281 5.75957 1.34266 0
M  V30 7047 H 654.211 0.682495 0.320495 0
M  V30 7048 H 656.862 1.83222 0.100924 0
M  V30 7049 H 655.244 3.18567 2.35226 0
M  V30 7050 H 656.418 4.6062 -0.128882 0
M  V30 7051 H 654.733 4.16379 0.0417526 0
M  V30 7052 H 657.33 4.55837 2.79493 0
M  V30 7053 H 657.673 2.86124 3.02388 0
M  V30 7054 H 658.206 3.67164 1.53087 0
M  V30 7055 H 654.945 6.52604 0.615441 0
M  V30 7056 H 654.465 5.62811 2.07375 0
M  V30 7057 H 656.144 6.19046 1.88126 0
M  V30 7058 N 656.276 -0.40816 1.52223 0
M  V30 7059 C 657.501 -1.18127 1.70472 0
M  V30 7060 C 657.926 -1.83491 0.41384 0
M  V30 7061 O 657.284 -1.70047 -0.628778 0
M  V30 7062 C 657.332 -2.21935 2.84213 0
M  V30 7063 O 656.436 -3.28099 2.4985 0
M  V30 7064 H 655.777 -0.344781 0.56747 0
M  V30 7065 H 658.307 -0.478328 1.9893 0
M  V30 7066 H 658.317 -2.66248 3.09153 0
M  V30 7067 H 656.992 -1.73744 3.7787 0
M  V30 7068 H 655.569 -2.89058 2.35584 0
M  V30 7069 N 657.755 -1.42862 -0.66545 0
M  V30 7070 C 658.665 -1.49491 -1.80803 0
M  V30 7071 C 659.681 -0.382914 -1.69734 0
M  V30 7072 O 660.857 -0.635223 -1.9112 0
M  V30 7073 C 657.922 -1.40383 -3.17007 0
M  V30 7074 C 656.983 -2.62152 -3.39963 0
M  V30 7075 C 656.216 -2.53469 -4.69669 0
M  V30 7076 O 656.439 -1.57568 -5.48205 0
M  V30 7077 O 655.373 -3.43763 -4.94075 0
M  V30 7078 H 659.199 -2.45949 -1.78165 0
M  V30 7079 H 656.784 -1.24728 -0.822387 0
M  V30 7080 H 658.666 -1.377 -3.98267 0
M  V30 7081 H 657.341 -0.470546 -3.20262 0
M  V30 7082 H 656.248 -2.70409 -2.58515 0
M  V30 7083 H 657.581 -3.54411 -3.41546 0
M  V30 7084 N 659.233 0.902656 -1.29189 0
M  V30 7085 C 660.143 2.03946 -1.15944 0
M  V30 7086 C 661.159 1.738 -0.0833803 0
M  V30 7087 O 662.335 1.9923 -0.29487 0
M  V30 7088 C 659.4 3.36519 -0.834006 0
M  V30 7089 C 658.461 3.80203 -1.9936 0
M  V30 7090 C 657.694 5.06449 -1.68359 0
M  V30 7091 O 657.917 5.67202 -0.603141 0
M  V30 7092 O 656.851 5.46114 -2.53067 0
M  V30 7093 H 660.677 2.18043 -2.11403 0
M  V30 7094 H 658.262 1.02584 -1.08613 0
M  V30 7095 H 660.144 4.16089 -0.666949 0
M  V30 7096 H 658.819 3.23573 0.0908245 0
M  V30 7097 H 657.726 3.01413 -2.21588 0
M  V30 7098 H 659.059 3.97729 -2.89952 0
M  V30 7099 N 660.711 1.11618 1.11262 0
M  V30 7100 C 661.674 0.779447 2.15539 0
M  V30 7101 C 662.674 -0.202081 1.59525 0
M  V30 7102 O 663.864 0.0226356 1.74185 0
M  V30 7103 C 660.996 0.15674 3.40539 0
M  V30 7104 H 662.189 1.70324 2.4684 0
M  V30 7105 H 659.742 0.918298 1.26479 0
M  V30 7106 H 660.477 -0.777186 3.1485 0
M  V30 7107 H 660.262 0.863308 3.82478 0
M  V30 7108 H 661.752 -0.062661 4.17553 0
M  V30 7109 N 662.189 -1.289 0.906776 0
M  V30 7110 C 663.605 -1.47733 0.603902 0
M  V30 7111 C 663.805 -1.82568 -0.852702 0
M  V30 7112 O 662.861 -1.92642 -1.63234 0
M  V30 7113 C 664.174 -2.58522 1.53581 0
M  V30 7114 C 665.722 -2.72394 1.54177 0
M  V30 7115 C 666.197 -3.86318 2.46013 0
M  V30 7116 N 667.688 -3.93661 2.441 0
M  V30 7117 C 668.423 -4.81177 3.11859 0
M  V30 7118 N 667.919 -5.73333 3.88923 0
M  V30 7119 N 669.712 -4.74728 3.00981 0
M  V30 7120 H 661.863 -1.04567 1.84877 0
M  V30 7121 H 664.126 -0.520118 0.792579 0
M  V30 7122 H 663.832 -2.39667 2.57396 0
M  V30 7123 H 663.706 -3.55475 1.26165 0
M  V30 7124 H 666.093 -2.90641 0.511034 0
M  V30 7125 H 666.174 -1.75993 1.85634 0
M  V30 7126 H 665.818 -3.68826 3.49185 0
M  V30 7127 H 665.748 -4.82102 2.11862 0
M  V30 7128 H 668.239 -3.27751 1.88115 0
M  V30 7129 H 668.552 -6.36923 4.37663 0
M  V30 7130 H 666.897 -5.73196 3.93029 0
M  V30 7131 H 670.088 -4.01722 2.40286 0
M  V30 7132 H 670.261 -5.42719 3.54062 0
M  V30 7133 N 663.667 -0.670007 -1.42649 0
M  V30 7134 C 664.599 0.0501746 -2.29145 0
M  V30 7135 C 665.612 0.770331 -1.43422 0
M  V30 7136 O 666.801 0.625288 -1.6719 0
M  V30 7137 C 663.901 1.09463 -3.20735 0
M  V30 7138 C 663.074 0.44926 -4.35087 0
M  V30 7139 C 662.133 1.39285 -5.07431 0
M  V30 7140 O 661.159 0.894997 -5.6212 0
M  V30 7141 N 662.361 2.72631 -5.12496 0
M  V30 7142 H 665.126 -0.692312 -2.91594 0
M  V30 7143 H 662.687 -0.514056 -1.53522 0
M  V30 7144 H 664.679 1.72705 -3.65999 0
M  V30 7145 H 663.249 1.73891 -2.59771 0
M  V30 7146 H 662.469 -0.362573 -3.92529 0
M  V30 7147 H 663.757 -0.000544776 -5.088 0
M  V30 7148 H 663.155 3.15623 -4.69467 0
M  V30 7149 H 661.712 3.31132 -5.61422 0
M  V30 7150 N 665.145 1.52092 -0.413018 0
M  V30 7151 C 666.393 2.01456 0.161178 0
M  V30 7152 C 666.714 1.30034 1.45314 0
M  V30 7153 O 665.984 0.427435 1.9118 0
M  V30 7154 H 664.564 0.744376 0.0625526 0
M  V30 7155 H 667.226 1.86974 -0.550151 0
M  V30 7156 H 666.322 3.1008 0.354517 0
M  V30 7157 N 666.623 0.143563 1.56945 0
M  V30 7158 C 668.034 -0.37783 1.82837 0
M  V30 7159 C 668.385 -1.64967 1.06209 0
M  V30 7160 O 667.51 -2.14221 0.306291 0
M  V30 7161 C 668.105 -0.692274 3.31652 0
M  V30 7162 C 666.664 -1.1582 3.58138 0
M  V30 7163 C 665.811 -0.17951 2.76718 0
M  V30 7164 H 668.762 0.368317 1.54367 0
M  V30 7165 H 668.783 -1.54729 3.47619 0
M  V30 7166 H 668.295 0.233572 3.87397 0
M  V30 7167 H 666.396 -2.10011 3.07776 0
M  V30 7168 H 666.509 -1.08655 4.66616 0
M  V30 7169 H 664.873 -0.671458 2.4569 0
M  V30 7170 H 665.656 0.739865 3.35233 0
M  V30 7171 N 668.101 -1.57061 -0.130224 0
M  V30 7172 C 669.349 -1.83893 -0.838313 0
M  V30 7173 C 669.67 -0.727046 -1.80939 0
M  V30 7174 O 668.94 0.249927 -1.94299 0
M  V30 7175 H 667.52 -0.67846 -0.312573 0
M  V30 7176 H 670.182 -1.94529 -0.120224 0
M  V30 7177 H 669.278 -2.79419 -1.39038 0
M  V30 7178 N 669.579 0.400081 -1.52437 0
M  V30 7179 C 670.509 1.4947 -1.7939 0
M  V30 7180 C 671.49 1.57383 -0.645329 0
M  V30 7181 O 672.675 1.72511 -0.891826 0
M  V30 7182 C 669.805 2.87201 -1.95276 0
M  V30 7183 C 668.759 2.94134 -3.10917 0
M  V30 7184 C 668.085 4.34207 -3.1204 0
M  V30 7185 C 669.385 2.64791 -4.50203 0
M  V30 7186 H 671.079 1.27165 -2.71052 0
M  V30 7187 H 668.625 0.610312 -1.30427 0
M  V30 7188 H 670.578 3.63772 -2.12715 0
M  V30 7189 H 669.302 3.10819 -1.00294 0
M  V30 7190 H 667.961 2.20009 -2.93243 0
M  V30 7191 H 667.609 4.54848 -2.14761 0
M  V30 7192 H 667.309 4.39768 -3.89715 0
M  V30 7193 H 668.833 5.127 -3.31619 0
M  V30 7194 H 670.247 3.31083 -4.68035 0
M  V30 7195 H 668.644 2.81717 -5.29864 0
M  V30 7196 H 669.714 1.60184 -4.57678 0
M  V30 7197 N 671.057 1.43213 0.657864 0
M  V30 7198 C 671.967 1.50448 1.80007 0
M  V30 7199 C 672.983 0.39191 1.69529 0
M  V30 7200 O 674.159 0.645349 1.90781 0
M  V30 7201 C 671.224 1.42062 3.16258 0
M  V30 7202 C 670.285 2.63951 3.38568 0
M  V30 7203 C 669.518 2.55956 4.68318 0
M  V30 7204 O 669.741 1.60473 5.47361 0
M  V30 7205 O 668.675 3.46378 4.92245 0
M  V30 7206 H 672.501 2.4689 1.76858 0
M  V30 7207 H 670.086 1.25163 0.81576 0
M  V30 7208 H 671.968 1.3981 3.97531 0
M  V30 7209 H 670.643 0.487524 3.20008 0
M  V30 7210 H 669.55 2.71776 2.57077 0
M  V30 7211 H 670.883 3.56217 3.39662 0
M  V30 7212 N 672.536 -0.895792 1.29666 0
M  V30 7213 C 673.446 -2.03329 1.17024 0
M  V30 7214 C 674.462 -1.73753 0.0925962 0
M  V30 7215 O 675.638 -1.99071 0.305431 0
M  V30 7216 C 672.703 -3.36072 0.851841 0
M  V30 7217 C 671.764 -3.7914 2.01373 0
M  V30 7218 C 670.997 -5.05549 1.71043 0
M  V30 7219 O 671.22 -5.66874 0.633213 0
M  V30 7220 O 670.154 -5.44764 2.5596 0
M  V30 7221 H 673.98 -2.16918 2.12556 0
M  V30 7222 H 671.565 -1.02007 1.09156 0
M  V30 7223 H 673.447 -4.15729 0.689006 0
M  V30 7224 H 672.122 -3.23616 -0.0736634 0
M  V30 7225 H 671.029 -3.00233 2.23183 0
M  V30 7226 H 672.362 -3.96186 2.92058 0
M  V30 7227 N 674.014 -1.12206 -1.10668 0
M  V30 7228 C 674.924 -0.800686 -2.20513 0
M  V30 7229 C 675.94 0.209512 -1.72734 0
M  V30 7230 O 677.116 0.043705 -2.01353 0
M  V30 7231 C 674.181 -0.257353 -3.45744 0
M  V30 7232 C 673.242 -1.32718 -4.0827 0
M  V30 7233 C 672.475 -0.809674 -5.27522 0
M  V30 7234 O 672.698 0.35742 -5.69279 0
M  V30 7235 O 671.632 -1.57816 -5.80842 0
M  V30 7236 H 675.458 -1.71807 -2.50432 0
M  V30 7237 H 673.043 -0.898546 -1.19359 0
M  V30 7238 H 674.925 0.0408849 -4.2138 0
M  V30 7239 H 673.6 0.632627 -3.17458 0
M  V30 7240 H 672.507 -1.67855 -3.34329 0
M  V30 7241 H 673.84 -2.19083 -4.40753 0
M  V30 7242 N 675.492 1.28418 -0.913599 0
M  V30 7243 C 676.424 2.26368 -0.359169 0
M  V30 7244 C 677.437 1.54858 0.502285 0
M  V30 7245 O 678.626 1.75659 0.31719 0
M  V30 7246 C 675.726 3.35112 0.50526 0
M  V30 7247 C 674.899 4.36126 -0.333648 0
M  V30 7248 C 673.958 5.24134 0.465845 0
M  V30 7249 O 672.984 5.6907 -0.121538 0
M  V30 7250 N 674.186 5.52892 1.76891 0
M  V30 7251 H 676.951 2.74579 -1.2011 0
M  V30 7252 H 674.512 1.41898 -0.779532 0
M  V30 7253 H 676.504 3.90926 1.04684 0
M  V30 7254 H 675.074 2.86611 1.2479 0
M  V30 7255 H 674.294 3.79776 -1.0566 0
M  V30 7256 H 675.582 5.00638 -0.907669 0
M  V30 7257 H 674.98 5.18217 2.26865 0
M  V30 7258 H 673.537 6.11464 2.25732 0
M  V30 7259 N 676.97 0.677563 1.42291 0
M  V30 7260 C 678.247 0.129803 1.95169 0
M  V30 7261 C 678.627 -1.35605 1.61786 0
M  V30 7262 O 677.975 -2.09361 0.915444 0
M  V30 7263 C 678.185 0.401889 3.46678 0
M  V30 7264 C 679.533 0.319889 4.23393 0
M  V30 7265 O 680.557 0.33579 3.54614 0
M  V30 7266 O 679.416 0.264459 5.4586 0
M  V30 7267 H 676.51 0.00447433 0.826988 0
M  V30 7268 H 679.056 0.752483 1.52105 0
M  V30 7269 H 677.828 1.43108 3.64192 0
M  V30 7270 H 677.451 -0.252662 3.96796 0
M  V30 7271 N 678.448 -1.51871 0.421078 0
M  V30 7272 C 679.676 -2.06356 -0.14994 0
M  V30 7273 C 680.091 -1.29006 -1.37851 0
M  V30 7274 O 679.448 -0.345139 -1.79207 0
M  V30 7275 C 679.499 -3.58185 -0.488454 0
M  V30 7276 O 679.22 -4.32611 0.691341 0
M  V30 7277 C 680.721 -4.29129 -1.11191 0
M  V30 7278 H 677.941 -0.67083 -0.0151186 0
M  V30 7279 H 680.485 -1.95638 0.595476 0
M  V30 7280 H 678.64 -3.68871 -1.18376 0
M  V30 7281 H 679.054 -5.22927 0.405906 0
M  V30 7282 H 680.528 -5.36501 -1.29889 0
M  V30 7283 H 681.005 -3.86371 -2.0884 0
M  V30 7284 H 681.611 -4.22843 -0.456458 0
M  V30 7285 N 679.926 -0.151884 -1.56866 0
M  V30 7286 C 680.858 0.817008 -2.14144 0
M  V30 7287 C 681.871 1.20735 -1.0921 0
M  V30 7288 O 683.06 1.15058 -1.36469 0
M  V30 7289 C 680.16 2.10844 -2.65326 0
M  V30 7290 C 679.333 1.88471 -3.94712 0
M  V30 7291 C 678.392 3.01649 -4.31155 0
M  V30 7292 O 677.418 2.73127 -4.9939 0
M  V30 7293 N 678.62 4.28947 -3.91132 0
M  V30 7294 H 681.385 0.327448 -2.97906 0
M  V30 7295 H 678.946 0.0315313 -1.61869 0
M  V30 7296 H 680.938 2.85616 -2.86715 0
M  V30 7297 H 679.508 2.51049 -1.86262 0
M  V30 7298 H 678.728 0.977088 -3.81899 0
M  V30 7299 H 680.016 1.70866 -4.79252 0
M  V30 7300 H 679.414 4.54986 -3.36161 0
M  V30 7301 H 677.971 5.00484 -4.17563 0
M  V30 7302 N 681.404 1.57128 0.121893 0
M  V30 7303 C 682.314 2.03425 1.16857 0
M  V30 7304 C 683.33 0.954108 1.45509 0
M  V30 7305 O 684.506 1.26541 1.56682 0
M  V30 7306 C 681.571 2.42685 2.47599 0
M  V30 7307 C 680.632 3.64767 2.2637 0
M  V30 7308 C 679.865 4.02145 3.50878 0
M  V30 7309 O 680.088 3.39897 4.58068 0
M  V30 7310 O 679.022 4.95262 3.42051 0
M  V30 7311 H 682.848 2.92825 0.80544 0
M  V30 7312 H 680.433 1.45654 0.332477 0
M  V30 7313 H 682.315 2.68684 3.24634 0
M  V30 7314 H 680.99 1.56432 2.83392 0
M  V30 7315 H 679.897 3.43922 1.47203 0
M  V30 7316 H 681.23 4.51716 1.95482 0
M  V30 7317 N 682.882 -0.391992 1.52647 0
M  V30 7318 C 684.107 -1.16312 1.71716 0
M  V30 7319 C 684.532 -1.83042 0.433279 0
M  V30 7320 O 683.89 -1.70705 -0.610707 0
M  V30 7321 C 683.938 -2.18908 2.86551 0
M  V30 7322 O 683.042 -3.2543 2.53316 0
M  V30 7323 H 682.383 -0.338743 0.571095 0
M  V30 7324 H 684.913 -0.457202 1.99426 0
M  V30 7325 H 684.923 -2.62954 3.1196 0
M  V30 7326 H 683.598 -1.69726 3.79692 0
M  V30 7327 H 682.175 -2.86543 2.38637 0
M  V30 7328 N 684.36 -1.4356 -0.65026 0
M  V30 7329 C 685.29 -1.51758 -1.77459 0
M  V30 7330 C 686.271 -0.372019 -1.65982 0
M  V30 7331 O 687.456 -0.589627 -1.85033 0
M  V30 7332 C 684.586 -1.44302 -3.15902 0
M  V30 7333 C 683.54 -2.57138 -3.42146 0
M  V30 7334 C 682.866 -2.34735 -4.8042 0
M  V30 7335 C 684.166 -3.99373 -3.36598 0
M  V30 7336 H 685.86 -2.45863 -1.70855 0
M  V30 7337 H 683.406 -1.18333 -0.820566 0
M  V30 7338 H 685.359 -1.48641 -3.94314 0
M  V30 7339 H 684.083 -0.467026 -3.23244 0
M  V30 7340 H 682.742 -2.52157 -2.66106 0
M  V30 7341 H 682.39 -1.35372 -4.84441 0
M  V30 7342 H 682.09 -3.10375 -4.9894 0
M  V30 7343 H 683.614 -2.40862 -5.61086 0
M  V30 7344 H 685.028 -4.05826 -4.04942 0
M  V30 7345 H 683.425 -4.75063 -3.66654 0
M  V30 7346 H 684.495 -4.243 -2.34729 0
M  V30 7347 N 685.838 0.888903 -1.30139 0
M  V30 7348 C 687.249 1.45578 -1.16893 0
M  V30 7349 C 687.6 1.94825 0.231866 0
M  V30 7350 O 686.725 1.84661 1.12824 0
M  V30 7351 C 687.32 2.646 -2.11595 0
M  V30 7352 C 685.879 3.17389 -2.02339 0
M  V30 7353 C 685.026 1.90081 -2.01902 0
M  V30 7354 H 687.977 0.69921 -1.42467 0
M  V30 7355 H 687.998 3.40687 -1.69449 0
M  V30 7356 H 687.51 2.28726 -3.13538 0
M  V30 7357 H 685.611 3.5793 -1.03523 0
M  V30 7358 H 685.724 3.80955 -2.90534 0
M  V30 7359 H 684.088 2.08246 -1.46648 0
M  V30 7360 H 684.871 1.5647 -3.05568 0
M  V30 7361 N 687.317 1.12792 1.10072 0
M  V30 7362 C 688.542 0.908838 1.86427 0
M  V30 7363 C 688.967 -0.536793 1.80278 0
M  V30 7364 O 688.325 -1.38033 1.17543 0
M  V30 7365 C 688.373 1.39295 3.3261 0
M  V30 7366 O 687.477 0.573846 4.08388 0
M  V30 7367 H 686.818 0.326234 0.578331 0
M  V30 7368 H 689.348 1.50094 1.39043 0
M  V30 7369 H 689.358 1.39366 3.83459 0
M  V30 7370 H 688.033 2.44555 3.36401 0
M  V30 7371 H 686.61 0.640438 3.67359 0
M  V30 7372 N 688.795 -1.27931 0.920396 0
M  V30 7373 C 690.02 -1.99343 0.572478 0
M  V30 7374 C 690.445 -1.68267 -0.840696 0
M  V30 7375 O 689.803 -0.918805 -1.56294 0
M  V30 7376 C 689.851 -3.51698 0.796284 0
M  V30 7377 O 688.955 -4.12157 -0.141602 0
M  V30 7378 H 688.296 -0.626065 0.221221 0
M  V30 7379 H 690.826 -1.62921 1.23765 0
M  V30 7380 H 690.836 -4.01793 0.708984 0
M  V30 7381 H 689.511 -3.73649 1.82644 0
M  V30 7382 H 688.088 -3.729 -0.005007 0
M  V30 7383 N 690.273 -0.685099 -1.4193 0
M  V30 7384 C 691.501 -0.220372 -2.05723 0
M  V30 7385 C 691.916 1.12642 -1.51516 0
M  V30 7386 O 691.273 1.70182 -0.659114 0
M  V30 7387 C 691.324 -0.157974 -3.61155 0
M  V30 7388 O 691.045 -1.45156 -4.13354 0
M  V30 7389 C 692.546 0.329009 -4.42077 0
M  V30 7390 H 689.766 -0.104725 -0.662777 0
M  V30 7391 H 692.31 -0.934736 -1.81887 0
M  V30 7392 H 690.465 0.507144 -3.84066 0
M  V30 7393 H 690.879 -1.33172 -5.07312 0
M  V30 7394 H 692.353 0.321559 -5.51063 0
M  V30 7395 H 692.83 1.36608 -4.17414 0
M  V30 7396 H 693.436 -0.304737 -4.24207 0
M  V30 7397 N 691.751 1.51645 -0.429126 0
M  V30 7398 C 692.999 2.01616 0.139802 0
M  V30 7399 C 693.32 1.31568 1.43927 0
M  V30 7400 O 692.59 0.447688 1.90716 0
M  V30 7401 H 691.17 0.744998 0.054654 0
M  V30 7402 H 693.832 1.8638 -0.569952 0
M  V30 7403 H 692.928 3.10439 0.321609 0
M  V30 7404 N 693.229 0.160201 1.56784 0
M  V30 7405 C 694.645 -0.196089 1.58391 0
M  V30 7406 C 694.845 -1.63689 1.17508 0
M  V30 7407 O 693.901 -2.36613 0.881506 0
M  V30 7408 C 695.214 0.0746449 3.00607 0
M  V30 7409 C 696.762 0.0119762 3.12998 0
M  V30 7410 C 697.237 0.255551 4.57286 0
M  V30 7411 N 698.728 0.202938 4.62755 0
M  V30 7412 C 699.463 0.365731 5.72232 0
M  V30 7413 N 698.959 0.586972 6.90309 0
M  V30 7414 N 700.752 0.302411 5.61286 0
M  V30 7415 H 692.903 1.1008 1.81648 0
M  V30 7416 H 695.166 0.436779 0.841384 0
M  V30 7417 H 694.872 1.07231 3.34954 0
M  V30 7418 H 694.746 -0.638802 3.71751 0
M  V30 7419 H 697.133 -0.976254 2.78484 0
M  V30 7420 H 697.214 0.75796 2.44313 0
M  V30 7421 H 696.858 1.24094 4.92507 0
M  V30 7422 H 696.788 -0.510912 5.24116 0
M  V30 7423 H 699.279 0.0371328 3.77882 0
M  V30 7424 H 699.592 0.700941 7.69615 0
M  V30 7425 H 697.937 0.623453 6.92198 0
M  V30 7426 H 701.128 0.130238 4.67919 0
M  V30 7427 H 701.301 0.432712 6.46554 0
M  V30 7428 N 694.707 -1.5719 -0.113559 0
M  V30 7429 C 696.123 -1.52607 -0.467253 0
M  V30 7430 C 696.323 -0.874058 -1.81556 0
M  V30 7431 O 695.379 -0.458703 -2.48299 0
M  V30 7432 C 696.692 -2.97363 -0.446736 0
M  V30 7433 C 698.24 -3.08482 -0.529903 0
M  V30 7434 C 698.715 -4.54809 -0.539721 0
M  V30 7435 N 700.206 -4.59284 -0.601005 0
M  V30 7436 C 700.941 -5.69927 -0.630138 0
M  V30 7437 N 700.437 -6.90051 -0.616589 0
M  V30 7438 N 702.23 -5.5805 -0.673558 0
M  V30 7439 H 694.381 -1.97958 0.769819 0
M  V30 7440 H 696.644 -0.90428 0.284572 0
M  V30 7441 H 696.35 -3.48458 0.47643 0
M  V30 7442 H 696.224 -3.55086 -1.27254 0
M  V30 7443 H 698.611 -2.57386 -1.44349 0
M  V30 7444 H 698.692 -2.53744 0.323695 0
M  V30 7445 H 698.336 -5.06552 0.369843 0
M  V30 7446 H 698.266 -5.07364 -1.41028 0
M  V30 7447 H 700.757 -3.72822 -0.617419 0
M  V30 7448 H 701.07 -7.70132 -0.641592 0
M  V30 7449 H 699.415 -6.92543 -0.583927 0
M  V30 7450 H 702.606 -4.63112 -0.681544 0
M  V30 7451 H 702.779 -6.44286 -0.692794 0
M  V30 7452 N 696.185 0.383891 -1.52853 0
M  V30 7453 C 697.135 1.46892 -1.74375 0
M  V30 7454 C 698.119 1.49378 -0.597909 0
M  V30 7455 O 699.311 1.54929 -0.855929 0
M  V30 7456 C 696.44 2.84547 -1.92063 0
M  V30 7457 C 695.526 2.8661 -3.12594 0
M  V30 7458 N 695.917 2.58339 -4.3485 0
M  V30 7459 C 694.215 3.17777 -3.12944 0
M  V30 7460 C 694.916 2.67616 -5.16485 0
M  V30 7461 N 693.892 3.01561 -4.52285 0
M  V30 7462 H 697.694 1.23869 -2.66522 0
M  V30 7463 H 695.208 0.591895 -1.51229 0
M  V30 7464 H 697.205 3.62674 -2.05604 0
M  V30 7465 H 695.865 3.08549 -1.01133 0
M  V30 7466 H 696.876 2.32266 -4.62896 0
M  V30 7467 H 693.553 3.47211 -2.31842 0
M  V30 7468 H 694.943 2.4926 -6.23955 0
M  V30 7469 N 697.663 1.43903 0.642637 0
M  V30 7470 C 698.891 1.4954 1.42988 0
M  V30 7471 C 699.306 0.116588 1.8844 0
M  V30 7472 O 698.663 -0.875285 1.60141 0
M  V30 7473 C 698.714 2.45031 2.65785 0
M  V30 7474 O 698.435 3.77551 2.22232 0
M  V30 7475 C 699.936 2.60017 3.59035 0
M  V30 7476 H 697.156 0.507544 0.438907 0
M  V30 7477 H 699.7 1.88752 0.786942 0
M  V30 7478 H 697.855 2.08985 3.26196 0
M  V30 7479 H 698.269 4.29001 3.01759 0
M  V30 7480 H 699.743 3.30887 4.41835 0
M  V30 7481 H 700.22 1.64861 4.07084 0
M  V30 7482 H 700.826 2.96918 3.045 0
M  V30 7483 N 699.141 -0.881989 1.30609 0
M  V30 7484 C 700.071 -2.00413 1.1982 0
M  V30 7485 C 701.052 -1.69871 0.0881538 0
M  V30 7486 O 702.237 -1.92304 0.2707 0
M  V30 7487 C 699.367 -3.35641 0.89233 0
M  V30 7488 C 698.321 -3.80451 1.96064 0
M  V30 7489 C 697.647 -5.13003 1.5077 0
M  V30 7490 C 698.947 -3.98855 3.37213 0
M  V30 7491 H 700.641 -2.09698 2.13699 0
M  V30 7492 H 698.187 -1.00754 1.02882 0
M  V30 7493 H 700.14 -4.13669 0.803497 0
M  V30 7494 H 698.864 -3.26497 -0.0821381 0
M  V30 7495 H 697.523 -3.04654 2.03916 0
M  V30 7496 H 697.171 -5.0029 0.521417 0
M  V30 7497 H 696.871 -5.43956 2.22229 0
M  V30 7498 H 698.395 -5.93554 1.43271 0
M  V30 7499 H 699.809 -4.67312 3.32103 0
M  V30 7500 H 698.206 -4.41188 4.06784 0
M  V30 7501 H 699.276 -3.02614 3.78883 0
M  V30 7502 N 700.619 -1.13374 -1.09472 0
M  V30 7503 C 701.582 -0.813639 -2.14272 0
M  V30 7504 C 702.582 0.176677 -1.59826 0
M  V30 7505 O 703.772 -0.0503441 -1.74127 0
M  V30 7506 C 700.904 -0.210897 -3.40247 0
M  V30 7507 H 702.097 -1.74229 -2.44099 0
M  V30 7508 H 699.65 -0.938304 -1.25002 0
M  V30 7509 H 700.385 0.726998 -3.16046 0
M  V30 7510 H 700.17 -0.924048 -3.81056 0
M  V30 7511 H 701.66 -0.00377603 -4.176 0
M  V30 7512 N 702.098 1.27442 -0.927168 0
M  V30 7513 C 703.008 2.30599 -0.431448 0
M  V30 7514 C 704.024 1.67028 0.48761 0
M  V30 7515 O 705.2 1.97962 0.370546 0
M  V30 7516 C 702.265 3.45327 0.308292 0
M  V30 7517 C 701.326 4.24418 -0.645615 0
M  V30 7518 C 700.559 5.33667 0.0589164 0
M  V30 7519 O 700.782 5.5589 1.27838 0
M  V30 7520 O 699.716 5.98774 -0.612638 0
M  V30 7521 H 703.542 2.75036 -1.28797 0
M  V30 7522 H 701.127 1.32382 -0.692495 0
M  V30 7523 H 703.009 4.15107 0.725555 0
M  V30 7524 H 701.684 3.02945 1.14043 0
M  V30 7525 H 700.591 3.57174 -1.11255 0
M  V30 7526 H 701.924 4.70512 -1.44496 0
M  V30 7527 N 703.576 0.692616 1.41565 0
M  V30 7528 C 704.822 0.222664 2.01574 0
M  V30 7529 C 705.155 -1.1737 1.54719 0
M  V30 7530 O 704.43 -1.79161 0.757084 0
M  V30 7531 C 704.713 0.277064 3.59033 0
M  V30 7532 C 704.566 1.71016 4.16021 0
M  V30 7533 C 705.885 -0.36479 4.38586 0
M  V30 7534 H 703.004 0.0823839 0.732381 0
M  V30 7535 H 705.646 0.880778 1.68352 0
M  V30 7536 H 703.796 -0.283288 3.87466 0
M  V30 7537 H 705.468 2.32413 3.98475 0
M  V30 7538 H 703.711 2.24525 3.71175 0
M  V30 7539 H 704.382 1.69978 5.25178 0
M  V30 7540 H 706.858 0.112404 4.15948 0
M  V30 7541 H 705.734 -0.296169 5.481 0
M  V30 7542 H 705.995 -1.44506 4.17816 0
M  V30 7543 N 705.054 -1.51416 0.437162 0
M  V30 7544 C 706.279 -2.0699 -0.130424 0
M  V30 7545 C 706.704 -1.30249 -1.35709 0
M  V30 7546 O 706.062 -0.340388 -1.78076 0
M  V30 7547 C 706.11 -3.5801 -0.43142 0
M  V30 7548 O 705.214 -3.8345 -1.5179 0
M  V30 7549 H 704.555 -0.663997 -0.00194339 0
M  V30 7550 H 707.085 -1.95029 0.618445 0
M  V30 7551 H 707.095 -4.02261 -0.681926 0
M  V30 7552 H 705.77 -4.13291 0.465137 0
M  V30 7553 H 704.347 -3.51062 -1.25737 0
M  V30 7554 N 706.532 -0.168513 -1.56696 0
M  V30 7555 C 707.76 0.483503 -2.01171 0
M  V30 7556 C 708.175 1.56994 -1.04872 0
M  V30 7557 O 707.532 1.82434 -0.0491337 0
M  V30 7558 C 707.583 1.0644 -3.45475 0
M  V30 7559 O 707.304 0.0213375 -4.38095 0
M  V30 7560 C 708.805 1.79493 -4.05336 0
M  V30 7561 H 706.025 0.124002 -0.659443 0
M  V30 7562 H 708.569 -0.269419 -2.02717 0
M  V30 7563 H 706.724 1.76784 -3.44712 0
M  V30 7564 H 707.138 0.449837 -5.22567 0
M  V30 7565 H 708.612 2.15401 -5.08238 0
M  V30 7566 H 709.089 2.68889 -3.47269 0
M  V30 7567 H 709.695 1.13798 -4.09793 0
M  V30 7568 N 708.01 1.57248 0.105221 0
M  V30 7569 C 709.426 1.52853 0.459153 0
M  V30 7570 C 709.626 0.883674 1.8109 0
M  V30 7571 O 708.682 0.471864 2.48052 0
M  V30 7572 C 709.995 2.97596 0.43096 0
M  V30 7573 C 711.543 3.08758 0.513536 0
M  V30 7574 C 712.018 4.55089 0.515593 0
M  V30 7575 N 713.509 4.59597 0.576639 0
M  V30 7576 C 714.244 5.70253 0.599904 0
M  V30 7577 N 713.74 6.90368 0.579985 0
M  V30 7578 N 715.533 5.58399 0.643953 0
M  V30 7579 H 707.684 1.97547 -0.780306 0
M  V30 7580 H 709.947 0.902758 -0.289363 0
M  V30 7581 H 709.653 3.48201 -0.494903 0
M  V30 7582 H 709.527 3.55756 1.2537 0
M  V30 7583 H 711.914 2.58148 1.42982 0
M  V30 7584 H 711.995 2.53568 -0.337148 0
M  V30 7585 H 711.639 5.06348 -0.396701 0
M  V30 7586 H 711.569 5.08105 1.38335 0
M  V30 7587 H 714.06 3.73144 0.597639 0
M  V30 7588 H 714.373 7.70462 0.600741 0
M  V30 7589 H 712.718 6.92843 0.547191 0
M  V30 7590 H 715.909 4.63467 0.656975 0
M  V30 7591 H 716.082 6.44644 0.658616 0
M  V30 7592 N 709.488 -0.375779 1.53054 0
M  V30 7593 C 710.418 -1.46598 1.81745 0
M  V30 7594 C 711.399 -1.56337 0.670286 0
M  V30 7595 O 712.584 -1.71071 0.919158 0
M  V30 7596 C 709.714 -2.84058 1.99821 0
M  V30 7597 C 708.668 -2.8915 3.15557 0
M  V30 7598 C 707.994 -4.29187 3.18908 0
M  V30 7599 C 709.294 -2.57595 4.54359 0
M  V30 7600 H 710.988 -1.22837 2.73041 0
M  V30 7601 H 708.534 -0.589485 1.31381 0
M  V30 7602 H 710.487 -3.60342 2.18475 0
M  V30 7603 H 709.211 -3.09184 1.05226 0
M  V30 7604 H 707.87 -2.15316 2.96706 0
M  V30 7605 H 707.518 -4.51374 2.2197 0
M  V30 7606 H 707.218 -4.33512 3.96662 0
M  V30 7607 H 708.742 -5.07359 3.39734 0
M  V30 7608 H 710.156 -3.23595 4.73243 0
M  V30 7609 H 708.553 -2.73252 5.34279 0
M  V30 7610 H 709.623 -1.52882 4.60169 0
M  V30 7611 N 710.966 -1.44241 -0.634997 0
M  V30 7612 C 712.191 -1.50516 -1.42687 0
M  V30 7613 C 712.616 -0.129864 -1.87651 0
M  V30 7614 O 711.974 0.880164 -1.58502 0
M  V30 7615 C 712.022 -2.4714 -2.62591 0
M  V30 7616 O 711.126 -1.97025 -3.62291 0
M  V30 7617 H 710.467 -0.50841 -0.427101 0
M  V30 7618 H 712.997 -1.89337 -0.775408 0
M  V30 7619 H 713.007 -2.65048 -3.10183 0
M  V30 7620 H 711.682 -3.47039 -2.29209 0
M  V30 7621 H 710.259 -1.88866 -3.21534 0
M  V30 7622 N 712.444 0.87505 -1.31075 0
M  V30 7623 C 713.855 1.4433 -1.18431 0
M  V30 7624 C 714.206 1.9506 0.211189 0
M  V30 7625 O 713.331 1.85847 1.10859 0
M  V30 7626 C 713.926 2.62341 -2.14389 0
M  V30 7627 C 712.485 3.15225 -2.05694 0
M  V30 7628 C 711.632 1.87929 -2.03907 0
M  V30 7629 H 714.583 0.684061 -1.432 0
M  V30 7630 H 714.604 3.3887 -1.73053 0
M  V30 7631 H 714.116 2.25388 -3.15946 0
M  V30 7632 H 712.217 3.56812 -1.07314 0
M  V30 7633 H 712.33 3.77853 -2.94558 0
M  V30 7634 H 710.694 2.06679 -1.48849 0
M  V30 7635 H 711.477 1.53221 -3.07211 0
M  V30 7636 N 713.922 1.13953 1.08869 0
M  V30 7637 C 714.852 0.844824 2.17681 0
M  V30 7638 C 715.833 -0.198213 1.68941 0
M  V30 7639 O 717.018 -0.0559073 1.9412 0
M  V30 7640 C 714.148 0.316325 3.45856 0
M  V30 7641 C 713.102 1.29426 4.07962 0
M  V30 7642 C 712.428 0.625275 5.31031 0
M  V30 7643 C 713.728 2.65484 4.49795 0
M  V30 7644 H 715.422 1.75471 2.42591 0
M  V30 7645 H 712.968 0.845116 1.16592 0
M  V30 7646 H 714.921 0.0977876 4.21287 0
M  V30 7647 H 713.645 -0.628972 3.20486 0
M  V30 7648 H 712.304 1.49889 3.34558 0
M  V30 7649 H 711.952 -0.325678 5.01945 0
M  V30 7650 H 711.652 1.27777 5.73539 0
M  V30 7651 H 713.176 0.416152 6.0918 0
M  V30 7652 H 714.59 2.48957 5.16424 0
M  V30 7653 H 712.987 3.26963 5.03205 0
M  V30 7654 H 714.057 3.22717 3.61914 0
M  V30 7655 N 715.4 -1.26948 0.933913 0
M  V30 7656 C 716.628 -1.98186 0.59414 0
M  V30 7657 C 717.043 -1.69614 -0.829257 0
M  V30 7658 O 716.4 -0.960213 -1.55197 0
M  V30 7659 C 716.451 -3.52123 0.818026 0
M  V30 7660 O 716.172 -3.79698 2.18543 0
M  V30 7661 C 717.673 -4.40608 0.48781 0
M  V30 7662 H 714.893 -0.632305 0.224569 0
M  V30 7663 H 717.437 -1.61646 1.25263 0
M  V30 7664 H 715.592 -3.86851 0.206246 0
M  V30 7665 H 716.006 -4.7426 2.24005 0
M  V30 7666 H 717.48 -5.47606 0.695126 0
M  V30 7667 H 717.957 -4.35394 -0.576913 0
M  V30 7668 H 718.563 -4.11411 1.078 0
M  V30 7669 N 716.879 -0.700114 -1.41195 0
M  V30 7670 C 717.842 -0.0465706 -2.29153 0
M  V30 7671 C 718.842 0.703302 -1.44604 0
M  V30 7672 O 720.032 0.537513 -1.657 0
M  V30 7673 C 717.164 0.944324 -3.2756 0
M  V30 7674 H 718.357 -0.821064 -2.88442 0
M  V30 7675 H 715.91 -0.463869 -1.49258 0
M  V30 7676 H 716.645 1.74642 -2.73259 0
M  V30 7677 H 716.43 0.409701 -3.89954 0
M  V30 7678 H 717.92 1.39925 -3.9346 0
M  V30 7679 N 718.357 1.51182 -0.445186 0
M  V30 7680 C 719.768 1.86693 0.0160999 0
M  V30 7681 C 720.119 1.36183 1.4124 0
M  V30 7682 O 719.244 0.715895 2.04215 0
M  V30 7683 C 719.839 3.38781 0.0359918 0
M  V30 7684 C 718.398 3.73799 0.441715 0
M  V30 7685 C 717.545 2.74947 -0.360511 0
M  V30 7686 H 720.496 1.44294 -0.660674 0
M  V30 7687 H 720.517 3.71026 0.843813 0
M  V30 7688 H 720.029 3.75513 -0.980378 0
M  V30 7689 H 718.13 3.42659 1.4634 0
M  V30 7690 H 718.243 4.78829 0.16106 0
M  V30 7691 H 716.607 2.54047 0.182269 0
M  V30 7692 H 717.39 3.14521 -1.3759 0
M  V30 7693 N 719.835 0.176821 1.56605 0
M  V30 7694 C 721.075 -0.469104 1.98944 0
M  V30 7695 C 721.439 -1.60048 1.06059 0
M  V30 7696 O 722.64 -2.30934 1.3756 0
M  V30 7697 C 720.911 -0.934571 3.44965 0
M  V30 7698 S 722.47 -1.58091 4.09332 0
M  V30 7699 H 719.288 -0.150695 0.694847 0
M  V30 7700 H 721.89 0.27558 1.93548 0
M  V30 7701 H 720.594 -0.100814 4.10276 0
M  V30 7702 H 720.125 -1.71316 3.54139 0
M  V30 7703 H 722.14 -2.86922 4.04834 0
M  V30 7704 N 721.313 -1.57302 -0.09688 0
M  V30 7705 C 722.562 -1.85183 -0.799388 0
M  V30 7706 C 722.875 -0.765818 -1.79985 0
M  V30 7707 O 724.081 -0.931696 -2.55013 0
M  V30 7708 C 722.537 -3.28399 -1.47249 0
M  V30 7709 C 722.145 -4.45066 -0.511888 0
M  V30 7710 C 723.889 -3.65506 -2.15883 0
M  V30 7711 C 721.796 -5.79315 -1.18948 0
M  V30 7712 H 720.726 -0.690752 -0.302287 0
M  V30 7713 H 723.377 -1.83425 -0.0523104 0
M  V30 7714 H 721.759 -3.24692 -2.26697 0
M  V30 7715 H 722.933 -4.60116 0.250962 0
M  V30 7716 H 721.248 -4.16343 0.0686576 0
M  V30 7717 H 723.845 -4.63087 -2.67309 0
M  V30 7718 H 724.188 -2.94041 -2.94696 0
M  V30 7719 H 724.721 -3.71094 -1.43298 0
M  V30 7720 H 721.46 -6.54007 -0.442198 0
M  V30 7721 H 720.98 -5.68111 -1.9238 0
M  V30 7722 H 722.659 -6.23816 -1.71646 0
M  V30 7723 N 722.791 0.367657 -1.53252 0
M  V30 7724 C 724.037 1.11216 -1.69584 0
M  V30 7725 C 724.37 1.89026 -0.445269 0
M  V30 7726 O 723.645 1.86342 0.557404 0
M  V30 7727 C 723.928 2.07308 -2.94441 0
M  V30 7728 C 723.781 1.3312 -4.2965 0
M  V30 7729 C 725.1 3.07459 -3.14892 0
M  V30 7730 H 722.219 0.40294 -0.617096 0
M  V30 7731 H 724.861 0.393201 -1.85887 0
M  V30 7732 H 723.011 2.68617 -2.80673 0
M  V30 7733 H 724.683 0.746111 -4.55226 0
M  V30 7734 H 722.926 0.633051 -4.29156 0
M  V30 7735 H 723.597 2.03443 -5.13142 0
M  V30 7736 H 726.073 2.56252 -3.27832 0
M  V30 7737 H 724.949 3.71919 -4.03693 0
M  V30 7738 H 725.21 3.77514 -2.30077 0
M  V30 7739 N 724.269 1.44576 0.627338 0
M  V30 7740 C 725.515 1.47777 1.38888 0
M  V30 7741 C 725.848 0.111406 1.9388 0
M  V30 7742 O 725.123 -0.87149 1.73883 0
M  V30 7743 C 725.406 2.54119 2.55138 0
M  V30 7744 C 725.259 4.00128 2.0547 0
M  V30 7745 C 726.578 2.56929 3.57317 0
M  V30 7746 H 723.697 0.538048 0.50366 0
M  V30 7747 H 726.339 1.76277 0.708978 0
M  V30 7748 H 724.489 2.29948 3.13139 0
M  V30 7749 H 726.161 4.35444 1.5227 0
M  V30 7750 H 724.404 4.11724 1.36623 0
M  V30 7751 H 725.075 4.7019 2.89181 0
M  V30 7752 H 727.551 2.78536 3.09122 0
M  V30 7753 H 726.427 3.33234 4.36173 0
M  V30 7754 H 726.688 1.6127 4.11636 0
M  V30 7755 N 725.747 -0.868086 1.31537 0
M  V30 7756 C 726.972 -1.65926 1.24432 0
M  V30 7757 C 727.397 -1.87169 -0.186936 0
M  V30 7758 O 726.755 -1.4148 -1.13371 0
M  V30 7759 C 726.803 -3.00347 1.9956 0
M  V30 7760 O 725.907 -3.90221 1.33422 0
M  V30 7761 H 725.248 -0.506375 0.429512 0
M  V30 7762 H 727.778 -1.0822 1.73637 0
M  V30 7763 H 727.788 -3.50269 2.09226 0
M  V30 7764 H 726.463 -2.84205 3.03645 0
M  V30 7765 H 725.04 -3.48672 1.32219 0
M  V30 7766 N 727.225 -1.14528 -1.08264 0
M  V30 7767 C 728.636 -0.925261 -1.6216 0
M  V30 7768 C 728.987 0.535587 -1.88748 0
M  V30 7769 O 728.112 1.4048 -1.64604 0
M  V30 7770 C 728.707 -1.67316 -2.94603 0
M  V30 7771 C 727.266 -1.49868 -3.45278 0
M  V30 7772 C 726.413 -1.69471 -2.19487 0
M  V30 7773 H 729.364 -1.29687 -0.914707 0
M  V30 7774 H 729.385 -1.13721 -3.63109 0
M  V30 7775 H 728.897 -2.73635 -2.75219 0
M  V30 7776 H 726.998 -0.459032 -3.69762 0
M  V30 7777 H 727.111 -2.2696 -4.21931 0
M  V30 7778 H 725.475 -1.12048 -2.2873 0
M  V30 7779 H 726.258 -2.77136 -2.0261 0
M  V30 7780 N 728.703 1.26451 -0.940633 0
M  V30 7781 C 729.928 1.98407 -0.60412 0
M  V30 7782 C 730.353 1.69584 0.81382 0
M  V30 7783 O 729.711 0.943553 1.54812 0
M  V30 7784 C 729.759 3.50387 -0.852136 0
M  V30 7785 O 728.863 4.1233 0.076013 0
M  V30 7786 H 728.204 0.622466 -0.231153 0
M  V30 7787 H 730.734 1.60932 -1.26342 0
M  V30 7788 H 730.744 4.00614 -0.772816 0
M  V30 7789 H 729.419 3.70696 -1.88566 0
M  V30 7790 H 727.996 3.7286 -0.0543187 0
M  V30 7791 N 730.181 0.707592 1.40822 0
M  V30 7792 C 731.409 0.253073 2.05346 0
M  V30 7793 C 731.824 -1.10218 1.53289 0
M  V30 7794 O 731.181 -1.69112 0.686105 0
M  V30 7795 C 731.232 0.215411 3.60858 0
M  V30 7796 O 730.953 1.51714 4.10992 0
M  V30 7797 C 732.454 -0.258636 4.42545 0
M  V30 7798 H 729.674 0.115256 0.661027 0
M  V30 7799 H 732.218 0.963555 1.80377 0
M  V30 7800 H 730.373 -0.445978 3.84824 0
M  V30 7801 H 730.787 1.41226 5.05129 0
M  V30 7802 H 732.261 -0.233849 5.51504 0
M  V30 7803 H 732.738 -1.2995 4.19535 0
M  V30 7804 H 733.344 0.372186 4.23668 0
M  V30 7805 N 731.66 -1.50943 0.453197 0
M  V30 7806 C 732.888 -2.06628 -0.106135 0
M  V30 7807 C 733.303 -1.31901 -1.35084 0
M  V30 7808 O 732.66 -0.383074 -1.78434 0
M  V30 7809 C 732.711 -3.5914 -0.412368 0
M  V30 7810 O 732.432 -4.31047 0.782948 0
M  V30 7811 C 733.933 -4.31391 -1.02064 0
M  V30 7812 H 731.153 -0.670999 -0.000885896 0
M  V30 7813 H 733.697 -1.94331 0.63684 0
M  V30 7814 H 731.852 -3.71299 -1.10526 0
M  V30 7815 H 732.266 -5.21948 0.516736 0
M  V30 7816 H 733.74 -5.39135 -1.1848 0
M  V30 7817 H 734.217 -3.90714 -2.00598 0
M  V30 7818 H 734.823 -4.23716 -0.366664 0
M  V30 7819 N 733.138 -0.185124 -1.56509 0
M  V30 7820 C 734.101 0.72591 -2.17401 0
M  V30 7821 C 735.101 1.14819 -1.12575 0
M  V30 7822 O 736.291 1.0629 -1.38015 0
M  V30 7823 C 733.423 1.98979 -2.76803 0
M  V30 7824 H 734.616 0.195588 -2.99262 0
M  V30 7825 H 732.169 0.0644772 -1.56167 0
M  V30 7826 H 732.904 2.56287 -1.98714 0
M  V30 7827 H 732.689 1.69583 -3.53531 0
M  V30 7828 H 734.179 2.63966 -3.23592 0
M  V30 7829 N 734.616 1.57351 0.0885366 0
M  V30 7830 C 735.841 1.91011 0.80805 0
M  V30 7831 C 736.266 0.780009 1.71165 0
M  V30 7832 O 735.624 -0.268083 1.79307 0
M  V30 7833 C 735.672 3.23562 1.59185 0
M  V30 7834 O 734.776 3.11615 2.7013 0
M  V30 7835 H 734.117 0.625943 0.221565 0
M  V30 7836 H 736.647 2.04507 0.0617954 0
M  V30 7837 H 736.657 3.5703 1.97468 0
M  V30 7838 H 735.332 4.05398 0.928741 0
M  V30 7839 H 733.909 2.89673 2.34827 0
M  V30 7840 N 736.094 -0.359525 1.53444 0
M  V30 7841 C 737.505 -0.936009 1.61542 0
M  V30 7842 C 737.856 -1.90069 0.486633 0
M  V30 7843 O 736.981 -2.12929 -0.386047 0
M  V30 7844 C 737.576 -1.70441 2.92806 0
M  V30 7845 C 736.135 -2.23015 3.03218 0
M  V30 7846 C 735.282 -1.04438 2.56881 0
M  V30 7847 H 738.233 -0.138134 1.58098 0
M  V30 7848 H 738.254 -2.56609 2.80948 0
M  V30 7849 H 737.766 -1.00205 3.74941 0
M  V30 7850 H 735.867 -2.96475 2.25684 0
M  V30 7851 H 735.98 -2.50481 4.08407 0
M  V30 7852 H 734.344 -1.41314 2.11902 0
M  V30 7853 H 735.127 -0.356905 3.4144 0
M  V30 7854 N 737.572 -1.44907 -0.619662 0
M  V30 7855 C 738.535 -1.52282 -1.71297 0
M  V30 7856 C 739.535 -0.40359 -1.55653 0
M  V30 7857 O 740.725 -0.666638 -1.6094 0
M  V30 7858 C 737.857 -1.40778 -3.10474 0
M  V30 7859 H 739.05 -2.49683 -1.66128 0
M  V30 7860 H 736.603 -1.32168 -0.834339 0
M  V30 7861 H 737.338 -0.445156 -3.2123 0
M  V30 7862 H 737.123 -2.21947 -3.23237 0
M  V30 7863 H 738.613 -1.48946 -3.90135 0
M  V30 7864 N 739.05 0.861098 -1.31996 0
M  V30 7865 C 739.96 2.00154 -1.22374 0
M  V30 7866 C 740.976 1.73447 -0.138631 0
M  V30 7867 O 742.152 1.98191 -0.358104 0
M  V30 7868 C 739.217 3.33696 -0.940645 0
M  V30 7869 C 738.278 3.73668 -2.11355 0
M  V30 7870 C 737.511 5.00837 -1.84386 0
M  V30 7871 O 737.734 5.64996 -0.783287 0
M  V30 7872 O 736.668 5.37787 -2.70313 0
M  V30 7873 H 740.494 2.11207 -2.18233 0
M  V30 7874 H 738.079 0.990768 -1.11822 0
M  V30 7875 H 739.961 4.13756 -0.798987 0
M  V30 7876 H 738.636 3.23698 -0.0121636 0
M  V30 7877 H 737.543 2.94211 -2.31065 0
M  V30 7878 H 738.876 3.88303 -3.02459 0
M  V30 7879 N 740.528 1.15101 1.07655 0
M  V30 7880 C 741.776 0.922149 1.79836 0
M  V30 7881 C 742.097 -0.552346 1.87014 0
M  V30 7882 O 741.367 -1.40145 1.3688 0
M  V30 7883 H 739.947 0.338182 0.666064 0
M  V30 7884 H 742.609 1.45107 1.30115 0
M  V30 7885 H 741.705 1.32883 2.82398 0
M  V30 7886 N 742.006 -1.2595 0.947325 0
M  V30 7887 C 743.234 -1.97544 0.615127 0
M  V30 7888 C 743.649 -1.70484 -0.811221 0
M  V30 7889 O 743.006 -0.97662 -1.5417 0
M  V30 7890 C 743.057 -3.51236 0.855328 0
M  V30 7891 O 742.778 -3.77359 2.22558 0
M  V30 7892 C 744.279 -4.40066 0.534515 0
M  V30 7893 H 741.499 -0.629888 0.231263 0
M  V30 7894 H 744.043 -1.60308 1.26971 0
M  V30 7895 H 742.198 -3.8661 0.247266 0
M  V30 7896 H 742.612 -4.71857 2.29022 0
M  V30 7897 H 744.086 -5.46838 0.753168 0
M  V30 7898 H 744.563 -4.35982 -0.530701 0
M  V30 7899 H 745.169 -4.10245 1.12158 0
M  V30 7900 N 743.484 -0.715051 -1.40445 0
M  V30 7901 C 744.709 -0.26254 -2.05732 0
M  V30 7902 C 745.134 1.08691 -1.53519 0
M  V30 7903 O 744.492 1.68453 -0.670328 0
M  V30 7904 C 744.54 -0.25195 -3.59719 0
M  V30 7905 O 743.644 0.766998 -4.05205 0
M  V30 7906 H 742.985 -0.123398 -0.652433 0
M  V30 7907 H 745.515 -0.975382 -1.79854 0
M  V30 7908 H 745.525 -0.0894537 -4.07902 0
M  V30 7909 H 744.2 -1.23672 -3.97087 0
M  V30 7910 H 742.777 0.572269 -3.68483 0
M  V30 7911 N 744.962 1.50701 -0.461195 0
M  V30 7912 C 746.187 2.07171 0.0974773 0
M  V30 7913 C 746.612 1.32391 1.3362 0
M  V30 7914 O 745.97 0.368676 1.77512 0
M  V30 7915 C 746.018 3.58651 0.374409 0
M  V30 7916 O 745.122 3.85816 1.4567 0
M  V30 7917 H 744.463 0.663944 -0.00862047 0
M  V30 7918 H 746.993 1.94021 -0.649394 0
M  V30 7919 H 747.003 4.03295 0.617843 0
M  V30 7920 H 745.678 4.12498 -0.530829 0
M  V30 7921 H 744.255 3.53018 1.20136 0
M  V30 7922 N 746.441 0.193421 1.56409 0
M  V30 7923 C 747.718 -0.493318 1.89277 0
M  V30 7924 C 748.098 -1.79765 1.10669 0
M  V30 7925 O 747.446 -2.27558 0.207274 0
M  V30 7926 C 747.656 -0.713732 3.41624 0
M  V30 7927 C 749.004 -1.03385 4.11821 0
M  V30 7928 O 750.028 -0.801511 3.47065 0
M  V30 7929 O 748.887 -1.47327 5.26267 0
M  V30 7930 H 745.981 -0.256973 0.786062 0
M  V30 7931 H 748.527 0.23351 1.68086 0
M  V30 7932 H 747.299 0.207446 3.9075 0
M  V30 7933 H 746.922 -1.49308 3.68501 0
M  V30 7934 N 747.919 -1.57396 -0.0801906 0
M  V30 7935 C 749.144 -1.91437 -0.797909 0
M  V30 7936 C 749.569 -0.789075 -1.70749 0
M  V30 7937 O 748.927 0.25857 -1.79447 0
M  V30 7938 C 748.975 -3.24402 -1.57467 0
M  V30 7939 O 748.079 -3.13043 -2.68473 0
M  V30 7940 H 747.42 -0.627109 -0.218243 0
M  V30 7941 H 749.95 -2.04537 -0.050949 0
M  V30 7942 H 749.96 -3.58072 -1.95571 0
M  V30 7943 H 748.635 -4.05884 -0.907229 0
M  V30 7944 H 747.212 -2.90915 -2.33287 0
M  V30 7945 N 749.397 0.351382 -1.53633 0
M  V30 7946 C 750.637 1.10102 -1.72212 0
M  V30 7947 C 751.001 1.86128 -0.471198 0
M  V30 7948 O 752.202 2.63445 -0.533887 0
M  V30 7949 C 750.473 2.02348 -2.94602 0
M  V30 7950 S 752.032 2.84641 -3.33954 0
M  V30 7951 H 748.85 0.372145 -0.60583 0
M  V30 7952 H 751.452 0.38044 -1.91763 0
M  V30 7953 H 750.156 1.45283 -3.83824 0
M  V30 7954 H 749.687 2.78856 -2.77493 0
M  V30 7955 H 751.702 4.04724 -2.87076 0
M  V30 7956 N 750.875 1.45233 0.611969 0
M  V30 7957 C 751.805 1.5641 1.73373 0
M  V30 7958 C 752.786 0.415896 1.64937 0
M  V30 7959 O 753.971 0.638478 1.83404 0
M  V30 7960 C 751.101 1.52627 3.11965 0
M  V30 7961 C 750.055 2.66119 3.35208 0
M  V30 7962 C 749.381 2.4739 4.74028 0
M  V30 7963 C 750.681 4.08157 3.25891 0
M  V30 7964 H 752.375 2.50307 1.64277 0
M  V30 7965 H 749.921 1.20467 0.788904 0
M  V30 7966 H 751.874 1.59043 3.90235 0
M  V30 7967 H 750.598 0.552564 3.21892 0
M  V30 7968 H 749.257 2.59123 2.59327 0
M  V30 7969 H 748.905 1.48168 4.80682 0
M  V30 7970 H 748.605 3.23494 4.90536 0
M  V30 7971 H 750.129 2.55653 5.54503 0
M  V30 7972 H 751.543 4.1642 3.9404 0
M  V30 7973 H 749.94 4.84617 3.5393 0
M  V30 7974 H 751.01 4.30374 2.23397 0
M  V30 7975 N 752.353 -0.854086 1.3245 0
M  V30 7976 C 753.581 -1.64074 1.26045 0
M  V30 7977 C 753.996 -1.8802 -0.171456 0
M  V30 7978 O 753.353 -1.4496 -1.10873 0
M  V30 7979 C 753.404 -2.9997 2.01743 0
M  V30 7980 O 753.125 -2.77084 3.39346 0
M  V30 7981 C 754.626 -3.94414 2.02368 0
M  V30 7982 H 751.846 -0.511015 0.434862 0
M  V30 7983 H 754.39 -1.06494 1.74583 0
M  V30 7984 H 752.545 -3.54193 1.56926 0
M  V30 7985 H 752.959 -3.63514 3.78098 0
M  V30 7986 H 754.433 -4.87032 2.59815 0
M  V30 7987 H 754.91 -4.27427 1.01009 0
M  V30 7988 H 755.516 -3.46127 2.47135 0
M  V30 7989 N 753.831 -1.1567 -1.07043 0
M  V30 7990 C 755.078 -0.933517 -1.79699 0
M  V30 7991 C 755.406 0.539162 -1.86878 0
M  V30 7992 O 754.661 1.41592 -1.35093 0
M  V30 7993 C 754.96 -1.49677 -3.24548 0
M  V30 7994 C 754.626 -2.99047 -3.37463 0
M  V30 7995 C 753.288 -3.39824 -3.40695 0
M  V30 7996 C 755.64 -3.95027 -3.40004 0
M  V30 7997 C 752.968 -4.75215 -3.44075 0
M  V30 7998 C 755.32 -5.30295 -3.44921 0
M  V30 7999 C 753.984 -5.70562 -3.46432 0
M  V30 8000 H 753.254 -0.341598 -0.657565 0
M  V30 8001 H 755.901 -1.44263 -1.25938 0
M  V30 8002 H 754.206 -0.908915 -3.81111 0
M  V30 8003 H 755.903 -1.29986 -3.79348 0
M  V30 8004 H 752.493 -2.6653 -3.35648 0
M  V30 8005 H 756.677 -3.64596 -3.36725 0
M  V30 8006 H 751.933 -5.05754 -3.43545 0
M  V30 8007 H 756.107 -6.0446 -3.45833 0
M  V30 8008 H 753.734 -6.75456 -3.48803 0
M  V30 8009 N 755.309 1.25446 -0.953992 0
M  V30 8010 C 756.534 1.97755 -0.625129 0
M  V30 8011 C 756.959 1.70437 0.795787 0
M  V30 8012 O 756.317 0.95992 1.53803 0
M  V30 8013 C 756.365 3.49463 -0.889251 0
M  V30 8014 O 755.469 4.12387 0.0322757 0
M  V30 8015 H 754.81 0.61998 -0.237742 0
M  V30 8016 H 757.34 1.59582 -1.28041 0
M  V30 8017 H 757.35 3.99772 -0.815263 0
M  V30 8018 H 756.025 3.68676 -1.92487 0
M  V30 8019 H 754.602 3.72782 -0.0938625 0
M  V30 8020 N 756.787 0.722489 1.40064 0
M  V30 8021 C 757.75 0.0830209 2.2905 0
M  V30 8022 C 758.75 -0.680208 1.45705 0
M  V30 8023 O 759.94 -0.511084 1.66534 0
M  V30 8024 C 757.072 -0.892092 3.29021 0
M  V30 8025 H 758.265 0.866848 2.87099 0
M  V30 8026 H 755.818 0.487556 1.48501 0
M  V30 8027 H 756.553 -1.70273 2.76003 0
M  V30 8028 H 756.338 -0.34761 3.90556 0
M  V30 8029 H 757.828 -1.33648 3.95636 0
M  V30 8030 N 758.265 -1.50454 0.469181 0
M  V30 8031 C 759.49 -2.0722 -0.0864892 0
M  V30 8032 C 759.915 -1.33098 -1.32916 0
M  V30 8033 O 759.273 -0.378084 -1.77314 0
M  V30 8034 C 759.321 -3.58845 -0.355384 0
M  V30 8035 O 758.425 -3.86583 -1.43622 0
M  V30 8036 H 757.766 -0.663889 0.0121414 0
M  V30 8037 H 760.296 -1.93674 0.659674 0
M  V30 8038 H 760.306 -4.03617 -0.596447 0
M  V30 8039 H 758.981 -4.12211 0.552698 0
M  V30 8040 H 757.558 -3.5365 -1.18262 0
M  V30 8041 N 759.743 -0.201713 -1.56304 0
M  V30 8042 C 760.69 0.716499 -2.19397 0
M  V30 8043 C 761.66 1.20494 -1.14326 0
M  V30 8044 O 762.845 1.26763 -1.42604 0
M  V30 8045 C 759.985 1.92762 -2.86246 0
M  V30 8046 C 759.098 1.47993 -4.0586 0
M  V30 8047 C 758.233 2.64706 -4.60547 0
M  V30 8048 C 757.272 2.16576 -5.72504 0
M  V30 8049 N 756.409 3.26491 -6.21569 0
M  V30 8050 H 761.249 0.171724 -2.97505 0
M  V30 8051 H 758.786 0.073016 -1.46919 0
M  V30 8052 H 760.744 2.6384 -3.23178 0
M  V30 8053 H 759.374 2.44559 -2.10691 0
M  V30 8054 H 758.426 0.66477 -3.74546 0
M  V30 8055 H 759.738 1.08686 -4.86815 0
M  V30 8056 H 758.892 3.43898 -4.99819 0
M  V30 8057 H 757.631 3.0729 -3.78713 0
M  V30 8058 H 756.636 1.3584 -5.32755 0
M  V30 8059 H 757.861 1.75015 -6.56161 0
M  V30 8060 H 755.807 3.68594 -5.42655 0
M  V30 8061 H 755.724 2.91374 -6.97594 0
M  V30 8062 H 756.992 4.05877 -6.65495 0
M  V30 8063 N 761.222 1.57436 0.0718424 0
M  V30 8064 C 762.447 1.91858 0.787745 0
M  V30 8065 C 762.872 0.798119 1.70328 0
M  V30 8066 O 762.23 -0.24905 1.79581 0
M  V30 8067 C 762.278 3.25232 1.55744 0
M  V30 8068 O 761.382 3.14462 2.6681 0
M  V30 8069 H 760.723 0.628258 0.214914 0
M  V30 8070 H 763.253 2.04561 0.0401012 0
M  V30 8071 H 763.263 3.59105 1.9367 0
M  V30 8072 H 761.938 4.0636 0.885691 0
M  V30 8073 H 760.515 2.92148 2.31741 0
M  V30 8074 N 762.7 -0.34323 1.53817 0
M  V30 8075 C 764.111 -0.918823 1.62525 0
M  V30 8076 C 764.462 -1.89542 0.506765 0
M  V30 8077 O 763.587 -2.13326 -0.363441 0
M  V30 8078 C 764.182 -1.67326 2.94597 0
M  V30 8079 C 762.741 -2.19786 3.05567 0
M  V30 8080 C 761.888 -1.01708 2.57974 0
M  V30 8081 H 764.839 -0.121358 1.58235 0
M  V30 8082 H 764.86 -2.53615 2.83654 0
M  V30 8083 H 764.372 -0.962223 3.75983 0
M  V30 8084 H 762.473 -2.94065 2.28816 0
M  V30 8085 H 762.586 -2.46135 4.1104 0
M  V30 8086 H 760.95 -1.39058 2.13389 0
M  V30 8087 H 761.733 -0.320671 3.41799 0
M  V30 8088 N 764.178 -1.45556 -0.604258 0
M  V30 8089 C 765.141 -1.54091 -1.69672 0
M  V30 8090 C 766.141 -0.420076 -1.55216 0
M  V30 8091 O 767.331 -0.683671 -1.60224 0
M  V30 8092 C 764.463 -1.44063 -3.08964 0
M  V30 8093 H 765.656 -2.51431 -1.6347 0
M  V30 8094 H 763.209 -1.33046 -0.820273 0
M  V30 8095 H 763.944 -0.479201 -3.2074 0
M  V30 8096 H 763.729 -2.25362 -3.20865 0
M  V30 8097 H 765.219 -1.53075 -3.88533 0
M  V30 8098 N 765.656 0.84705 -1.32902 0
M  V30 8099 C 766.904 1.5986 -1.2365 0
M  V30 8100 C 767.225 1.93974 0.199789 0
M  V30 8101 O 766.495 1.60273 1.12648 0
M  V30 8102 H 765.075 0.592696 -0.454665 0
M  V30 8103 H 767.737 1.01278 -1.66519 0
M  V30 8104 H 766.833 2.53218 -1.82448 0
M  V30 8105 N 767.134 1.16236 1.06428 0
M  V30 8106 C 768.064 0.890807 2.1584 0
M  V30 8107 C 769.045 -0.162333 1.69324 0
M  V30 8108 O 770.23 -0.0147191 1.94194 0
M  V30 8109 C 767.36 0.389615 3.45108 0
M  V30 8110 C 766.314 1.38051 4.05125 0
M  V30 8111 C 765.64 0.737773 5.29586 0
M  V30 8112 C 766.94 2.74965 4.44062 0
M  V30 8113 H 768.634 1.80577 2.38814 0
M  V30 8114 H 766.18 0.869657 1.14774 0
M  V30 8115 H 768.133 0.187127 4.20984 0
M  V30 8116 H 766.857 -0.560851 3.21748 0
M  V30 8117 H 765.516 1.56952 3.31303 0
M  V30 8118 H 765.164 -0.219135 5.02522 0
M  V30 8119 H 764.864 1.39914 5.70699 0
M  V30 8120 H 766.388 0.545275 6.0816 0
M  V30 8121 H 767.802 2.59855 5.11027 0
M  V30 8122 H 766.199 3.37563 4.96156 0
M  V30 8123 H 767.269 3.30321 3.54987 0
M  V30 8124 N 768.612 -1.24939 0.960631 0
M  V30 8125 C 769.837 -1.9742 0.635608 0
M  V30 8126 C 770.262 -1.70857 -0.786737 0
M  V30 8127 O 769.62 -0.968063 -1.53291 0
M  V30 8128 C 769.668 -3.48987 0.907771 0
M  V30 8129 O 768.772 -4.12399 -0.0104053 0
M  V30 8130 H 768.113 -0.61871 0.241027 0
M  V30 8131 H 770.643 -1.58901 1.28886 0
M  V30 8132 H 770.653 -3.99334 0.836453 0
M  V30 8133 H 769.328 -3.6765 1.94439 0
M  V30 8134 H 767.905 -3.72727 0.113631 0
M  V30 8135 N 770.09 -0.729906 -1.39679 0
M  V30 8136 C 771.338 -0.275077 -2.00219 0
M  V30 8137 C 771.659 1.1401 -1.58199 0
M  V30 8138 O 770.929 1.77546 -0.827904 0
M  V30 8139 H 769.509 -0.0987127 -0.740449 0
M  V30 8140 H 772.171 -0.93873 -1.70804 0
M  V30 8141 H 771.267 -0.319446 -3.10461 0
M  V30 8142 N 771.568 1.50203 -0.477153 0
M  V30 8143 C 772.796 2.0677 0.0732489 0
M  V30 8144 C 773.211 1.34033 1.32968 0
M  V30 8145 O 772.568 0.411412 1.77802 0
M  V30 8146 C 772.619 3.59751 0.35518 0
M  V30 8147 O 772.34 4.29747 -0.851425 0
M  V30 8148 C 773.841 4.3296 0.951877 0
M  V30 8149 H 771.061 0.670929 -0.00978923 0
M  V30 8150 H 773.605 1.93293 -0.667676 0
M  V30 8151 H 771.76 3.7301 1.04605 0
M  V30 8152 H 772.174 5.2106 -0.599708 0
M  V30 8153 H 773.648 5.40952 1.09888 0
M  V30 8154 H 774.125 3.93856 1.94356 0
M  V30 8155 H 774.731 4.24246 0.299208 0
M  V30 8156 N 773.046 0.209999 1.56195 0
M  V30 8157 C 774.457 -0.299943 1.84275 0
M  V30 8158 C 774.808 -1.60314 1.1311 0
M  V30 8159 O 773.933 -2.1273 0.396874 0
M  V30 8160 C 774.528 -0.550986 3.3429 0
M  V30 8161 C 773.087 -1.00526 3.62728 0
M  V30 8162 C 772.234 -0.0619828 2.77231 0
M  V30 8163 H 775.185 0.433458 1.52666 0
M  V30 8164 H 775.206 -1.39846 3.53869 0
M  V30 8165 H 774.718 0.397669 3.86057 0
M  V30 8166 H 772.819 -1.96768 3.16407 0
M  V30 8167 H 772.932 -0.887664 4.70805 0
M  V30 8168 H 771.296 -0.566648 2.48317 0
M  V30 8169 H 772.079 0.881383 3.31793 0
M  V30 8170 N 774.524 -1.57472 -0.0634922 0
M  V30 8171 C 775.487 -2.03268 -1.059 0
M  V30 8172 C 776.487 -0.931028 -1.31105 0
M  V30 8173 O 777.677 -1.19567 -1.26686 0
M  V30 8174 C 774.809 -2.42039 -2.40062 0
M  V30 8175 H 776.002 -2.92454 -0.664119 0
M  V30 8176 H 773.555 -1.53206 -0.309444 0
M  V30 8177 H 774.29 -1.55904 -2.84367 0
M  V30 8178 H 774.075 -3.22437 -2.23108 0
M  V30 8179 H 775.565 -2.78017 -3.11603 0
M  V30 8180 N 776.003 0.335068 -1.53997 0
M  V30 8181 C 777.231 1.09418 -1.756 0
M  V30 8182 C 777.646 1.82083 -0.499138 0
M  V30 8183 O 777.003 1.74646 0.529631 0
M  V30 8184 C 777.054 2.10115 -2.94166 0
M  V30 8185 O 776.775 1.40404 -4.14992 0
M  V30 8186 C 778.276 2.98336 -3.27888 0
M  V30 8187 H 775.496 0.32595 -0.586513 0
M  V30 8188 H 778.04 0.384693 -2.00849 0
M  V30 8189 H 776.195 2.76616 -2.71224 0
M  V30 8190 H 776.609 2.07743 -4.81605 0
M  V30 8191 H 778.083 3.6491 -4.1418 0
M  V30 8192 H 778.56 3.64814 -2.44556 0
M  V30 8193 H 779.166 2.37412 -3.52868 0
M  V30 8194 N 777.481 1.45874 0.596531 0
M  V30 8195 C 778.413 1.51408 1.7207 0
M  V30 8196 C 779.426 0.403738 1.57714 0
M  V30 8197 O 780.615 0.671384 1.65393 0
M  V30 8198 C 777.715 1.3652 3.10186 0
M  V30 8199 C 776.888 2.61428 3.50677 0
M  V30 8200 C 775.947 2.40937 4.67799 0
M  V30 8201 O 774.973 3.14602 4.74357 0
M  V30 8202 N 776.175 1.4621 5.61785 0
M  V30 8203 H 778.94 2.48333 1.67782 0
M  V30 8204 H 776.501 1.41755 0.782129 0
M  V30 8205 H 778.493 1.20606 3.86311 0
M  V30 8206 H 777.063 0.478302 3.08919 0
M  V30 8207 H 776.283 2.92381 2.644 0
M  V30 8208 H 777.571 3.44432 3.74491 0
M  V30 8209 H 776.969 0.854382 5.59211 0
M  V30 8210 H 775.526 1.36264 6.37397 0
M  V30 8211 N 778.959 -0.83999 1.33349 0
M  V30 8212 C 780.207 -1.59202 1.24496 0
M  V30 8213 C 780.528 -1.94077 -0.189499 0
M  V30 8214 O 779.798 -1.60868 -1.11796 0
M  V30 8215 H 778.378 -0.590276 0.457802 0
M  V30 8216 H 781.04 -1.00394 1.67054 0
M  V30 8217 H 780.136 -2.52247 1.83788 0
M  V30 8218 N 780.437 -1.16799 -1.0581 0
M  V30 8219 C 781.367 -0.902241 -2.15364 0
M  V30 8220 C 782.348 0.153351 -1.69407 0
M  V30 8221 O 783.533 0.00442032 -1.94199 0
M  V30 8222 C 780.663 -0.407911 -3.44896 0
M  V30 8223 C 779.617 -1.40197 -4.04387 0
M  V30 8224 C 778.943 -0.765848 -5.29187 0
M  V30 8225 C 780.243 -2.77316 -4.42598 0
M  V30 8226 H 781.937 -1.81841 -2.37853 0
M  V30 8227 H 779.483 -0.875731 -1.14311 0
M  V30 8228 H 781.436 -0.20945 -4.20879 0
M  V30 8229 H 780.16 0.54378 -3.22041 0
M  V30 8230 H 778.819 -1.58707 -3.30466 0
M  V30 8231 H 778.467 0.192482 -5.02632 0
M  V30 8232 H 778.167 -1.42939 -5.69949 0
M  V30 8233 H 779.691 -0.577519 -6.07863 0
M  V30 8234 H 781.105 -2.62561 -5.09642 0
M  V30 8235 H 779.502 -3.4019 -4.94359 0
M  V30 8236 H 780.572 -3.32199 -3.53231 0
M  V30 8237 N 781.915 1.24427 -0.967243 0
M  V30 8238 C 782.845 2.2773 -0.515899 0
M  V30 8239 C 783.826 1.64197 0.444227 0
M  V30 8240 O 785.011 1.91193 0.340451 0
M  V30 8241 C 782.141 3.46751 0.195149 0
M  V30 8242 C 781.095 4.22548 -0.680953 0
M  V30 8243 C 780.421 5.34456 0.161561 0
M  V30 8244 C 781.721 4.83914 -1.96532 0
M  V30 8245 H 783.415 2.65735 -1.37933 0
M  V30 8246 H 780.961 1.27742 -0.664681 0
M  V30 8247 H 782.914 4.18153 0.522117 0
M  V30 8248 H 781.638 3.07771 1.09292 0
M  V30 8249 H 780.297 3.52946 -0.991186 0
M  V30 8250 H 779.945 4.91716 1.05947 0
M  V30 8251 H 779.645 5.86087 -0.421418 0
M  V30 8252 H 781.169 6.08685 0.483211 0
M  V30 8253 H 782.583 5.47392 -1.70396 0
M  V30 8254 H 780.98 5.45775 -2.49499 0
M  V30 8255 H 782.05 4.05393 -2.66053 0
M  V30 8256 N 783.393 0.737304 1.3929 0
M  V30 8257 C 784.641 0.285691 2.00071 0
M  V30 8258 C 784.962 -1.13169 1.58801 0
M  V30 8259 O 784.232 -1.77104 0.837308 0
M  V30 8260 H 782.812 0.102638 0.739915 0
M  V30 8261 H 785.474 0.947775 1.70303 0
M  V30 8262 H 784.57 0.335906 3.10287 0
M  V30 8263 N 784.871 -1.49948 0.485112 0
M  V30 8264 C 785.834 -2.27351 -0.290546 0
M  V30 8265 C 786.834 -1.32704 -0.908087 0
M  V30 8266 O 788.024 -1.56007 -0.775085 0
M  V30 8267 C 785.156 -3.10135 -1.41524 0
M  V30 8268 H 786.349 -2.97374 0.388454 0
M  V30 8269 H 783.902 -1.54453 0.239586 0
M  V30 8270 H 784.637 -2.44641 -2.12888 0
M  V30 8271 H 784.422 -3.79705 -0.978074 0
M  V30 8272 H 785.912 -3.68638 -1.96204 0
M  V30 8273 N 786.349 -0.21828 -1.56081 0
M  V30 8274 C 787.589 0.416193 -2.00118 0
M  V30 8275 C 787.953 1.5718 -1.10265 0
M  V30 8276 O 789.154 2.27206 -1.43635 0
M  V30 8277 C 787.425 0.842781 -3.47321 0
M  V30 8278 S 788.984 1.47182 -4.1338 0
M  V30 8279 H 785.802 0.132219 -0.698598 0
M  V30 8280 H 788.404 -0.326799 -1.92749 0
M  V30 8281 H 787.108 -0.00799925 -4.10399 0
M  V30 8282 H 786.639 1.61867 -3.58556 0
M  V30 8283 H 788.654 2.76087 -4.12299 0
M  V30 8284 N 787.827 1.57504 0.0551401 0
M  V30 8285 C 789.052 1.92682 0.767352 0
M  V30 8286 C 789.477 0.81614 1.69472 0
M  V30 8287 O 788.835 -0.229989 1.79835 0
M  V30 8288 C 788.883 3.26866 1.52286 0
M  V30 8289 O 787.987 3.17274 2.63459 0
M  V30 8290 H 787.328 0.630502 0.208238 0
M  V30 8291 H 789.858 2.04592 0.0184026 0
M  V30 8292 H 789.868 3.61138 1.8985 0
M  V30 8293 H 788.543 4.07276 0.842541 0
M  V30 8294 H 787.12 2.94589 2.2863 0
M  V30 8295 N 789.305 -0.326896 1.54172 0
M  V30 8296 C 790.716 -0.901533 1.63491 0
M  V30 8297 C 791.067 -1.88994 0.52684 0
M  V30 8298 O 790.192 -2.137 -0.340794 0
M  V30 8299 C 790.787 -1.64192 2.96355 0
M  V30 8300 C 789.346 -2.16533 3.07881 0
M  V30 8301 C 788.493 -0.98966 2.59039 0
M  V30 8302 H 791.444 -0.104568 1.58355 0
M  V30 8303 H 791.465 -2.50592 2.86328 0
M  V30 8304 H 790.977 -0.922291 3.76982 0
M  V30 8305 H 789.078 -2.91622 2.31922 0
M  V30 8306 H 789.191 -2.41762 4.13628 0
M  V30 8307 H 787.555 -1.36787 2.14852 0
M  V30 8308 H 788.338 -0.284401 3.4212 0
M  V30 8309 N 790.784 -1.46188 -0.588786 0
M  V30 8310 C 792.03 -1.51407 -1.34921 0
M  V30 8311 C 792.363 -0.162771 -1.93517 0
M  V30 8312 O 791.638 0.825082 -1.76132 0
M  V30 8313 C 791.921 -2.60795 -2.48311 0
M  V30 8314 C 791.774 -4.05435 -1.94789 0
M  V30 8315 C 793.093 -2.66313 -3.50379 0
M  V30 8316 H 790.212 -0.551213 -0.489217 0
M  V30 8317 H 792.854 -1.78095 -0.661993 0
M  V30 8318 H 791.004 -2.3817 -3.06932 0
M  V30 8319 H 792.676 -4.39328 -1.40672 0
M  V30 8320 H 790.919 -4.15202 -1.25659 0
M  V30 8321 H 791.59 -4.77691 -2.76613 0
M  V30 8322 H 794.066 -2.86634 -3.01629 0
M  V30 8323 H 792.942 -3.44681 -4.27184 0
M  V30 8324 H 793.203 -1.72127 -4.07216 0
M  V30 8325 N 792.262 0.832906 -1.33792 0
M  V30 8326 C 793.678 1.1245 -1.13257 0
M  V30 8327 C 793.878 2.01369 0.0725832 0
M  V30 8328 O 792.934 2.41071 0.751082 0
M  V30 8329 C 794.247 1.78084 -2.42294 0
M  V30 8330 C 795.795 1.90624 -2.48257 0
M  V30 8331 C 796.27 2.59673 -3.77271 0
M  V30 8332 N 797.761 2.67181 -3.78376 0
M  V30 8333 C 798.496 3.21313 -4.74916 0
M  V30 8334 N 797.992 3.76086 -5.81835 0
M  V30 8335 N 799.785 3.19621 -4.62384 0
M  V30 8336 H 791.936 0.241244 -2.11026 0
M  V30 8337 H 794.199 0.169557 -0.932713 0
M  V30 8338 H 793.905 1.20209 -3.30519 0
M  V30 8339 H 793.779 2.78049 -2.5489 0
M  V30 8340 H 796.166 2.4765 -1.60478 0
M  V30 8341 H 796.247 0.89591 -2.39598 0
M  V30 8342 H 795.891 2.03304 -4.65435 0
M  V30 8343 H 795.821 3.61189 -3.8321 0
M  V30 8344 H 798.312 2.28346 -3.01108 0
M  V30 8345 H 798.625 4.15612 -6.51526 0
M  V30 8346 H 796.97 3.74357 -5.85561 0
M  V30 8347 H 800.161 2.76091 -3.7801 0
M  V30 8348 H 800.334 3.61504 -5.37791 0
M  V30 8349 N 793.74 1.17359 1.05189 0
M  V30 8350 C 794.67 0.91365 2.14883 0
M  V30 8351 C 795.651 -0.144365 1.69486 0
M  V30 8352 O 796.836 0.00587861 1.94199 0
M  V30 8353 C 793.966 0.426196 3.44675 0
M  V30 8354 C 792.92 1.4234 4.03638 0
M  V30 8355 C 792.246 0.793902 5.28773 0
M  V30 8356 C 793.546 2.7966 4.41121 0
M  V30 8357 H 795.24 1.831 2.36885 0
M  V30 8358 H 792.786 0.881781 1.13845 0
M  V30 8359 H 794.739 0.231767 4.20762 0
M  V30 8360 H 793.463 -0.526693 3.22325 0
M  V30 8361 H 792.122 1.60457 3.2962 0
M  V30 8362 H 791.77 -0.165824 5.02727 0
M  V30 8363 H 791.47 1.45959 5.69183 0
M  V30 8364 H 792.994 0.609747 6.07548 0
M  V30 8365 H 794.408 2.6526 5.08242 0
M  V30 8366 H 792.805 3.42807 4.92548 0
M  V30 8367 H 793.875 3.34068 3.51464 0
M  V30 8368 N 795.218 -1.23913 0.973828 0
M  V30 8369 C 796.181 -2.23367 0.51378 0
M  V30 8370 C 797.181 -1.55923 -0.39302 0
M  V30 8371 O 798.371 -1.73187 -0.187626 0
M  V30 8372 C 795.503 -3.39944 -0.255152 0
M  V30 8373 H 796.696 -2.65581 1.39307 0
M  V30 8374 H 794.249 -1.36632 0.759039 0
M  V30 8375 H 794.984 -3.03177 -1.15127 0
M  V30 8376 H 794.769 -3.90098 0.395673 0
M  V30 8377 H 796.259 -4.13749 -0.565842 0
M  V30 8378 N 796.696 -0.74468 -1.38897 0
M  V30 8379 C 797.921 -0.306119 -2.05128 0
M  V30 8380 C 798.346 1.0541 -1.55789 0
M  V30 8381 O 797.704 1.66993 -0.705909 0
M  V30 8382 C 797.752 -0.328195 -3.59103 0
M  V30 8383 O 796.856 0.680876 -4.06741 0
M  V30 8384 H 796.197 -0.137209 -0.649669 0
M  V30 8385 H 798.727 -1.01331 -1.77745 0
M  V30 8386 H 798.737 -0.175956 -4.0762 0
M  V30 8387 H 797.412 -1.32067 -3.94374 0
M  V30 8388 H 795.989 0.49398 -3.69614 0
M  V30 8389 N 798.174 1.49689 -0.493057 0
M  V30 8390 C 799.585 1.8665 -0.0433032 0
M  V30 8391 C 799.936 1.40607 1.36836 0
M  V30 8392 O 799.061 0.780503 2.01834 0
M  V30 8393 C 799.656 3.38724 -0.0718069 0
M  V30 8394 C 798.215 3.75015 0.32257 0
M  V30 8395 C 797.362 2.7366 -0.4478 0
M  V30 8396 H 800.313 1.42119 -0.706246 0
M  V30 8397 H 800.334 3.73522 0.725347 0
M  V30 8398 H 799.846 3.72204 -1.09935 0
M  V30 8399 H 797.947 3.47142 1.35364 0
M  V30 8400 H 798.06 4.79099 0.00864259 0
M  V30 8401 H 796.424 2.54498 0.101354 0
M  V30 8402 H 797.207 3.09985 -1.47527 0
M  V30 8403 N 799.652 0.226554 1.55963 0
M  V30 8404 C 800.899 -0.403789 1.98433 0
M  V30 8405 C 801.227 -1.59416 1.1143 0
M  V30 8406 O 800.482 -1.95042 0.160389 0
M  V30 8407 C 800.781 -0.87642 3.46488 0
M  V30 8408 C 800.447 0.203973 4.50438 0
M  V30 8409 C 799.109 0.500754 4.78587 0
M  V30 8410 C 801.461 0.934396 5.12756 0
M  V30 8411 C 798.789 1.53239 5.66334 0
M  V30 8412 C 801.141 1.9554 6.0162 0
M  V30 8413 C 799.805 2.25905 6.28111 0
M  V30 8414 H 799.075 -0.147757 0.726119 0
M  V30 8415 H 801.722 0.330121 1.88633 0
M  V30 8416 H 800.027 -1.68918 3.53517 0
M  V30 8417 H 801.724 -1.37407 3.76723 0
M  V30 8418 H 798.314 -0.0374917 4.28584 0
M  V30 8419 H 802.498 0.718355 4.91074 0
M  V30 8420 H 797.754 1.77321 5.85122 0
M  V30 8421 H 801.928 2.52642 6.48957 0
M  V30 8422 H 799.555 3.05985 6.959 0
M  V30 8423 N 801.13 -1.57531 -0.0467866 0
M  V30 8424 C 802.06 -2.08425 -1.05268 0
M  V30 8425 C 803.041 -0.982941 -1.38825 0
M  V30 8426 O 804.226 -1.25716 -1.48018 0
M  V30 8427 C 801.356 -2.54897 -2.35891 0
M  V30 8428 C 800.31 -3.69132 -2.16623 0
M  V30 8429 C 799.636 -4.01747 -3.52851 0
M  V30 8430 C 800.936 -4.98243 -1.56689 0
M  V30 8431 H 802.63 -2.92716 -0.62908 0
M  V30 8432 H 800.176 -1.40816 -0.301156 0
M  V30 8433 H 802.129 -2.8912 -3.06574 0
M  V30 8434 H 800.853 -1.67666 -2.80278 0
M  V30 8435 H 799.512 -3.35231 -1.48377 0
M  V30 8436 H 799.16 -3.11608 -3.94853 0
M  V30 8437 H 798.86 -4.78681 -3.4079 0
M  V30 8438 H 800.384 -4.38487 -4.24925 0
M  V30 8439 H 801.798 -5.30535 -2.17268 0
M  V30 8440 H 800.195 -5.79669 -1.55255 0
M  V30 8441 H 801.265 -4.81986 -0.530827 0
M  V30 8442 N 802.608 0.318715 -1.54344 0
M  V30 8443 C 803.856 1.054 -1.72439 0
M  V30 8444 C 804.177 1.88388 -0.503495 0
M  V30 8445 O 803.447 1.89866 0.48246 0
M  V30 8446 H 802.027 0.392124 -0.635805 0
M  V30 8447 H 804.689 0.35398 -1.91659 0
M  V30 8448 H 803.785 1.71726 -2.60608 0
M  V30 8449 N 804.086 1.46499 0.581025 0
M  V30 8450 C 805.311 1.55708 1.37002 0
M  V30 8451 C 805.736 0.19942 1.8704 0
M  V30 8452 O 805.094 -0.820731 1.61659 0
M  V30 8453 C 805.142 2.56716 2.53238 0
M  V30 8454 O 804.246 2.10336 3.54729 0
M  V30 8455 H 803.587 0.523912 0.407937 0
M  V30 8456 H 806.117 1.92085 0.704602 0
M  V30 8457 H 806.127 2.76378 3.00132 0
M  V30 8458 H 804.802 3.55307 2.16171 0
M  V30 8459 H 803.379 2.00669 3.14303 0
M  V30 8460 N 805.565 -0.825799 1.34232 0
M  V30 8461 C 806.497 -1.94401 1.21413 0
M  V30 8462 C 807.51 -1.6218 0.141902 0
M  V30 8463 O 808.699 -1.74109 0.3935 0
M  V30 8464 C 805.799 -3.28257 0.842635 0
M  V30 8465 C 804.972 -3.88521 2.00924 0
M  V30 8466 C 804.031 -5.00752 1.61661 0
M  V30 8467 O 803.057 -5.19201 2.33279 0
M  V30 8468 N 804.259 -5.78084 0.52911 0
M  V30 8469 H 807.024 -2.05931 2.17744 0
M  V30 8470 H 804.585 -1.00223 1.27149 0
M  V30 8471 H 806.577 -4.00781 0.561822 0
M  V30 8472 H 805.147 -3.12585 -0.0304029 0
M  V30 8473 H 804.367 -3.08425 2.45495 0
M  V30 8474 H 805.655 -4.25516 2.78951 0
M  V30 8475 H 805.053 -5.65661 -0.0663322 0
M  V30 8476 H 803.61 -6.51072 0.308017 0
M  V30 8477 N 807.043 -1.17915 -1.04565 0
M  V30 8478 C 808.268 -0.996749 -1.81878 0
M  V30 8479 C 808.693 0.450169 -1.82634 0
M  V30 8480 O 808.051 1.32268 -1.23995 0
M  V30 8481 C 808.099 -1.55005 -3.25585 0
M  V30 8482 O 807.203 -0.76804 -4.05185 0
M  V30 8483 H 806.544 -0.353456 -0.562108 0
M  V30 8484 H 809.074 -1.56557 -1.31723 0
M  V30 8485 H 809.084 -1.57503 -3.76373 0
M  V30 8486 H 807.759 -2.60327 -3.2435 0
M  V30 8487 H 806.336 -0.81498 -3.63885 0
M  V30 8488 N 808.521 1.23394 -0.980386 0
M  V30 8489 C 809.484 2.23092 -0.525619 0
M  V30 8490 C 810.484 1.56129 0.384745 0
M  V30 8491 O 811.674 1.73284 0.178439 0
M  V30 8492 C 808.806 3.40074 0.23712 0
M  V30 8493 H 809.999 2.64839 -1.40714 0
M  V30 8494 H 807.552 1.36227 -0.766275 0
M  V30 8495 H 808.287 3.03783 1.13518 0
M  V30 8496 H 808.072 3.89883 -0.416356 0
M  V30 8497 H 809.562 4.14043 0.543892 0
M  V30 8498 N 809.999 0.752036 1.385 0
M  V30 8499 C 811.227 0.318274 2.04437 0
M  V30 8500 C 811.642 -1.05285 1.56718 0
M  V30 8501 O 810.999 -1.66844 0.73956 0
M  V30 8502 C 811.05 0.330106 3.5999 0
M  V30 8503 O 810.771 1.64712 4.05957 0
M  V30 8504 C 812.272 -0.117713 4.43144 0
M  V30 8505 H 809.492 0.136228 0.657026 0
M  V30 8506 H 812.036 1.02045 1.7722 0
M  V30 8507 H 810.191 -0.323323 3.86048 0
M  V30 8508 H 810.605 1.57225 5.0038 0
M  V30 8509 H 812.079 -0.0582735 5.51969 0
M  V30 8510 H 812.556 -1.16538 4.23457 0
M  V30 8511 H 813.162 0.506784 4.2227 0
M  V30 8512 N 811.477 -1.49425 0.500989 0
M  V30 8513 C 812.888 -1.86624 0.0532011 0
M  V30 8514 C 813.239 -1.41331 -1.36088 0
M  V30 8515 O 812.364 -0.791195 -2.01418 0
M  V30 8516 C 812.959 -3.38681 0.0897693 0
M  V30 8517 C 811.518 -3.75181 -0.302677 0
M  V30 8518 C 810.665 -2.73419 0.462307 0
M  V30 8519 H 813.616 -1.41743 0.713773 0
M  V30 8520 H 813.637 -3.73902 -0.705528 0
M  V30 8521 H 813.149 -3.71616 1.11907 0
M  V30 8522 H 811.25 -3.47855 -1.33521 0
M  V30 8523 H 811.363 -4.79097 0.0167653 0
M  V30 8524 H 809.727 -2.54548 -0.0878557 0
M  V30 8525 H 810.51 -3.09198 1.49169 0
M  V30 8526 N 812.955 -0.234822 -1.55841 0
M  V30 8527 C 814.201 0.393843 -1.98939 0
M  V30 8528 C 814.534 1.58466 -1.1226 0
M  V30 8529 O 813.809 1.93635 -0.183242 0
M  V30 8530 C 814.092 0.815492 -3.50745 0
M  V30 8531 C 813.945 -0.379878 -4.48193 0
M  V30 8532 C 815.264 1.66687 -4.07312 0
M  V30 8533 H 812.383 0.141681 -0.723253 0
M  V30 8534 H 815.025 -0.333716 -1.87046 0
M  V30 8535 H 813.175 1.43541 -3.6101 0
M  V30 8536 H 814.847 -1.0182 -4.49923 0
M  V30 8537 H 813.09 -1.02507 -4.21515 0
M  V30 8538 H 813.761 -0.0417069 -5.51984 0
M  V30 8539 H 816.237 1.14369 -4.00074 0
M  V30 8540 H 815.113 1.93078 -5.13821 0
M  V30 8541 H 815.374 2.63468 -3.55017 0
M  V30 8542 N 814.433 1.57553 0.0384317 0
M  V30 8543 C 815.363 2.0898 1.04161 0
M  V30 8544 C 816.344 0.99029 1.38301 0
M  V30 8545 O 817.529 1.26499 1.47349 0
M  V30 8546 C 814.659 2.56145 2.34536 0
M  V30 8547 C 813.613 3.70275 2.14663 0
M  V30 8548 C 812.939 4.03612 3.50715 0
M  V30 8549 C 814.239 4.99067 1.54045 0
M  V30 8550 H 815.933 2.93046 0.613548 0
M  V30 8551 H 813.479 1.40973 0.293684 0
M  V30 8552 H 815.432 2.90741 3.05037 0
M  V30 8553 H 814.156 1.6915 2.79385 0
M  V30 8554 H 812.815 3.36013 1.46597 0
M  V30 8555 H 812.463 3.13698 3.93195 0
M  V30 8556 H 812.163 4.80482 3.38247 0
M  V30 8557 H 813.687 4.40735 4.22593 0
M  V30 8558 H 815.101 5.3168 2.14451 0
M  V30 8559 H 813.498 5.80484 1.52178 0
M  V30 8560 H 814.568 4.8226 0.505259 0
M  V30 8561 N 815.911 -0.310526 1.54511 0
M  V30 8562 C 816.843 -1.40405 1.8116 0
M  V30 8563 C 817.856 -1.47261 0.694114 0
M  V30 8564 O 819.045 -1.49751 0.971441 0
M  V30 8565 C 816.145 -2.78849 1.92604 0
M  V30 8566 C 815.318 -2.95041 3.22908 0
M  V30 8567 C 814.377 -4.13925 3.24889 0
M  V30 8568 O 813.403 -4.06463 3.98467 0
M  V30 8569 N 814.605 -5.24099 2.496 0
M  V30 8570 H 817.37 -1.17903 2.75534 0
M  V30 8571 H 814.931 -0.500564 1.53967 0
M  V30 8572 H 816.923 -3.5661 1.91342 0
M  V30 8573 H 815.493 -2.94342 1.05268 0
M  V30 8574 H 814.713 -2.04472 3.37023 0
M  V30 8575 H 816.001 -3.02763 4.08916 0
M  V30 8576 H 815.399 -5.33039 1.89435 0
M  V30 8577 H 813.956 -6.0023 2.54102 0
M  V30 8578 N 817.389 -1.46805 -0.573248 0
M  V30 8579 C 818.352 -1.57655 -1.66366 0
M  V30 8580 C 819.352 -0.452905 -1.5429 0
M  V30 8581 O 820.542 -0.717502 -1.58737 0
M  V30 8582 C 817.674 -1.50584 -3.05839 0
M  V30 8583 H 818.867 -2.54842 -1.581 0
M  V30 8584 H 816.42 -1.34756 -0.791868 0
M  V30 8585 H 817.155 -0.547127 -3.19651 0
M  V30 8586 H 816.94 -2.32118 -3.16012 0
M  V30 8587 H 818.43 -1.61282 -3.85199 0
M  V30 8588 N 818.867 0.818669 -1.34668 0
M  V30 8589 C 819.799 1.93754 -1.22442 0
M  V30 8590 C 820.812 1.62103 -0.150501 0
M  V30 8591 O 822.001 1.73898 -0.402728 0
M  V30 8592 C 819.101 3.27806 -0.860031 0
M  V30 8593 C 818.274 3.8745 -2.02981 0
M  V30 8594 C 817.333 4.99887 -1.64314 0
M  V30 8595 O 816.359 5.17957 -2.36029 0
M  V30 8596 N 817.561 5.77795 -0.55976 0
M  V30 8597 H 820.326 2.04773 -2.18833 0
M  V30 8598 H 817.887 0.995472 -1.27679 0
M  V30 8599 H 819.879 4.00478 -0.583068 0
M  V30 8600 H 818.449 3.12597 0.0138253 0
M  V30 8601 H 817.669 3.07119 -2.47127 0
M  V30 8602 H 818.957 4.2403 -2.81204 0
M  V30 8603 H 818.355 5.65688 0.0363329 0
M  V30 8604 H 816.912 6.50899 -0.342541 0
M  V30 8605 N 820.346 1.18468 1.03938 0
M  V30 8606 C 821.594 0.978895 1.76811 0
M  V30 8607 C 821.915 -0.49257 1.88676 0
M  V30 8608 O 821.185 -1.3572 1.41269 0
M  V30 8609 H 819.765 0.359201 0.654968 0
M  V30 8610 H 822.427 1.49173 1.25433 0
M  V30 8611 H 821.523 1.418 2.78027 0
M  V30 8612 N 821.824 -1.22873 0.986916 0
M  V30 8613 C 823.072 -1.91084 0.658121 0
M  V30 8614 C 823.393 -1.77304 -0.811675 0
M  V30 8615 O 822.663 -1.15649 -1.58121 0
M  V30 8616 H 821.243 -0.707251 0.240427 0
M  V30 8617 H 823.905 -1.49357 1.25213 0
M  V30 8618 H 823.001 -2.98373 0.915428 0
M  V30 8619 N 823.302 -0.75937 -1.38099 0
M  V30 8620 C 824.232 -0.151077 -2.33011 0
M  V30 8621 C 825.213 0.697099 -1.5516 0
M  V30 8622 O 826.398 0.637101 -1.83452 0
M  V30 8623 C 823.528 0.738423 -3.39359 0
M  V30 8624 C 822.482 -0.0074741 -4.27999 0
M  V30 8625 C 821.808 1.00066 -5.25253 0
M  V30 8626 C 823.108 -1.17926 -5.08813 0
M  V30 8627 H 824.802 -0.943933 -2.84131 0
M  V30 8628 H 822.348 -0.455362 -1.36611 0
M  V30 8629 H 824.301 1.17369 -4.04725 0
M  V30 8630 H 823.025 1.56366 -2.86735 0
M  V30 8631 H 821.684 -0.423379 -3.64147 0
M  V30 8632 H 821.332 1.82012 -4.68914 0
M  V30 8633 H 821.032 0.506199 -5.85416 0
M  V30 8634 H 822.556 1.43512 -5.93495 0
M  V30 8635 H 823.97 -0.821262 -5.67387 0
M  V30 8636 H 822.367 -1.60497 -5.78239 0
M  V30 8637 H 823.437 -1.98938 -4.42212 0
M  V30 8638 N 824.78 1.49157 -0.508906 0
M  V30 8639 C 826.028 2.02073 0.0327335 0
M  V30 8640 C 826.349 1.39012 1.3675 0
M  V30 8641 O 825.619 0.548153 1.88075 0
M  V30 8642 H 824.199 0.746848 0.0150864 0
M  V30 8643 H 826.861 1.83097 -0.667946 0
M  V30 8644 H 825.957 3.11707 0.1566 0
M  V30 8645 N 826.258 0.243083 1.55714 0
M  V30 8646 C 827.506 -0.381964 1.98458 0
M  V30 8647 C 827.827 -1.58745 1.13247 0
M  V30 8648 O 827.097 -1.94723 0.214384 0
M  V30 8649 H 825.677 -0.144114 0.732967 0
M  V30 8650 H 828.339 0.340985 1.91894 0
M  V30 8651 H 827.435 -0.693702 3.04293 0
M  V30 8652 N 827.736 -1.57571 -0.0300757 0
M  V30 8653 C 828.699 -2.05468 -1.01565 0
M  V30 8654 C 829.699 -0.958628 -1.29101 0
M  V30 8655 O 830.889 -1.22228 -1.24121 0
M  V30 8656 C 828.021 -2.47077 -2.34874 0
M  V30 8657 H 829.214 -2.93797 -0.601936 0
M  V30 8658 H 826.767 -1.53828 -0.276878 0
M  V30 8659 H 827.502 -1.61901 -2.80996 0
M  V30 8660 H 827.287 -3.27097 -2.16218 0
M  V30 8661 H 828.777 -2.84564 -3.05635 0
M  V30 8662 N 829.214 0.302327 -1.54673 0
M  V30 8663 C 830.46 1.03924 -1.74149 0
M  V30 8664 C 830.793 1.86968 -0.525041 0
M  V30 8665 O 830.068 1.88538 0.477868 0
M  V30 8666 C 830.351 1.94633 -3.02969 0
M  V30 8667 C 830.204 1.14778 -4.34909 0
M  V30 8668 C 831.523 2.93826 -3.27649 0
M  V30 8669 H 828.642 0.376405 -0.633631 0
M  V30 8670 H 831.284 0.314007 -1.87387 0
M  V30 8671 H 829.434 2.56471 -2.91813 0
M  V30 8672 H 831.106 0.552363 -4.57981 0
M  V30 8673 H 829.349 0.450462 -4.31455 0
M  V30 8674 H 830.02 1.81495 -5.21309 0
M  V30 8675 H 832.496 2.42117 -3.38406 0
M  V30 8676 H 831.372 3.54462 -4.19104 0
M  V30 8677 H 831.633 3.67416 -2.45882 0
M  V30 8678 N 830.692 1.47107 0.565454 0
M  V30 8679 C 831.622 1.61846 1.68309 0
M  V30 8680 C 832.603 0.468159 1.63531 0
M  V30 8681 O 833.788 0.696504 1.8128 0
M  V30 8682 C 830.918 1.62474 3.06952 0
M  V30 8683 C 829.872 2.76649 3.26572 0
M  V30 8684 C 829.198 2.62345 4.65917 0
M  V30 8685 C 830.498 4.18319 3.12741 0
M  V30 8686 H 832.192 2.55407 1.5623 0
M  V30 8687 H 829.738 1.22916 0.750179 0
M  V30 8688 H 831.691 1.71378 3.84977 0
M  V30 8689 H 830.415 0.654692 3.19971 0
M  V30 8690 H 829.074 2.67242 2.50952 0
M  V30 8691 H 828.722 1.63386 4.75725 0
M  V30 8692 H 828.422 3.38936 4.79996 0
M  V30 8693 H 829.946 2.73165 5.46089 0
M  V30 8694 H 831.36 4.28745 3.80593 0
M  V30 8695 H 829.757 4.95632 3.38333 0
M  V30 8696 H 830.827 4.37263 2.09592 0
M  V30 8697 N 832.17 -0.811516 1.35101 0
M  V30 8698 C 833.1 -1.9378 1.30275 0
M  V30 8699 C 834.081 -1.69165 0.178075 0
M  V30 8700 O 835.266 -1.90599 0.372256 0
M  V30 8701 C 832.396 -3.30439 1.06899 0
M  V30 8702 C 831.35 -3.69523 2.15955 0
M  V30 8703 C 830.676 -5.0429 1.77751 0
M  V30 8704 C 831.976 -3.80419 3.57881 0
M  V30 8705 H 833.67 -1.98075 2.24514 0
M  V30 8706 H 831.216 -0.951586 1.08078 0
M  V30 8707 H 833.169 -4.08828 1.02164 0
M  V30 8708 H 831.893 -3.26473 0.0910462 0
M  V30 8709 H 830.552 -2.93416 2.19778 0
M  V30 8710 H 830.2 -4.96823 0.785876 0
M  V30 8711 H 829.9 -5.31411 2.5075 0
M  V30 8712 H 831.424 -5.85125 1.74533 0
M  V30 8713 H 832.838 -4.49051 3.56407 0
M  V30 8714 H 831.235 -4.19005 4.29598 0
M  V30 8715 H 832.305 -2.82105 3.94391 0
M  V30 8716 N 833.648 -1.19017 -1.03309 0
M  V30 8717 C 835.059 -0.993206 -1.5809 0
M  V30 8718 C 835.41 0.45505 -1.9085 0
M  V30 8719 O 834.535 1.33372 -1.70414 0
M  V30 8720 C 835.13 -1.79661 -2.87241 0
M  V30 8721 C 833.689 -1.64377 -3.38611 0
M  V30 8722 C 832.836 -1.78628 -2.12102 0
M  V30 8723 H 835.787 -1.3345 -0.858879 0
M  V30 8724 H 835.808 -1.29019 -3.57958 0
M  V30 8725 H 835.32 -2.85061 -2.63366 0
M  V30 8726 H 833.421 -0.615447 -3.67482 0
M  V30 8727 H 833.534 -2.44651 -4.11926 0
M  V30 8728 H 831.898 -1.21648 -2.23772 0
M  V30 8729 H 832.681 -2.8548 -1.90673 0
M  V30 8730 N 835.127 1.22348 -0.993418 0
M  V30 8731 C 836.373 1.91393 -0.67056 0
M  V30 8732 C 836.706 1.77163 0.795428 0
M  V30 8733 O 835.981 1.14084 1.57528 0
M  V30 8734 C 836.264 3.43589 -1.0779 0
M  V30 8735 C 836.117 3.66867 -2.60248 0
M  V30 8736 C 837.436 4.35545 -0.631527 0
M  V30 8737 H 834.555 0.695057 -0.24508 0
M  V30 8738 H 837.197 1.44213 -1.23703 0
M  V30 8739 H 835.347 3.83903 -0.595902 0
M  V30 8740 H 837.019 3.35954 -3.16121 0
M  V30 8741 H 835.262 3.1113 -3.02293 0
M  V30 8742 H 835.933 4.73457 -2.838 0
M  V30 8743 H 838.409 4.0275 -1.04554 0
M  V30 8744 H 837.285 5.40707 -0.944831 0
M  V30 8745 H 837.546 4.39618 0.467779 0
M  V30 8746 N 836.605 0.766683 1.37694 0
M  V30 8747 C 837.83 0.338715 2.04615 0
M  V30 8748 C 838.255 -1.02918 1.57447 0
M  V30 8749 O 837.613 -1.65849 0.732386 0
M  V30 8750 C 837.661 0.385284 3.58536 0
M  V30 8751 O 836.765 -0.616081 4.07772 0
M  V30 8752 H 836.106 0.147527 0.647404 0
M  V30 8753 H 838.636 1.04146 1.7611 0
M  V30 8754 H 838.646 0.240782 4.07289 0
M  V30 8755 H 837.321 1.38325 3.92223 0
M  V30 8756 H 835.898 -0.435115 3.70353 0
M  V30 8757 N 838.083 -1.48885 0.516809 0
M  V30 8758 C 839.33 -2.02488 -0.0220602 0
M  V30 8759 C 839.658 -1.39513 -1.35523 0
M  V30 8760 O 838.913 -0.52558 -1.8851 0
M  V30 8761 C 839.212 -3.56801 -0.206798 0
M  V30 8762 C 838.878 -4.38496 1.05035 0
M  V30 8763 C 837.54 -4.60538 1.39492 0
M  V30 8764 C 839.892 -4.85909 1.88525 0
M  V30 8765 C 837.22 -5.2724 2.57361 0
M  V30 8766 C 839.572 -5.53909 3.05561 0
M  V30 8767 C 838.236 -5.74193 3.4038 0
M  V30 8768 H 837.506 -0.740956 -0.00807238 0
M  V30 8769 H 840.153 -1.79014 0.680168 0
M  V30 8770 H 838.458 -3.79042 -0.991687 0
M  V30 8771 H 840.155 -3.95885 -0.638447 0
M  V30 8772 H 836.745 -4.2159 0.771984 0
M  V30 8773 H 840.929 -4.68694 1.63218 0
M  V30 8774 H 836.185 -5.41145 2.84556 0
M  V30 8775 H 840.359 -5.89619 3.7057 0
M  V30 8776 H 837.986 -6.25652 4.31814 0
M  V30 8777 N 839.561 -0.251338 -1.55583 0
M  V30 8778 C 840.493 0.679167 -2.18906 0
M  V30 8779 C 841.506 1.13545 -1.16667 0
M  V30 8780 O 842.695 1.06146 -1.4351 0
M  V30 8781 C 839.795 1.93544 -2.78198 0
M  V30 8782 C 838.968 1.62987 -4.05899 0
M  V30 8783 C 838.027 2.73618 -4.49466 0
M  V30 8784 O 837.053 2.40815 -5.15749 0
M  V30 8785 N 838.255 4.03204 -4.1762 0
M  V30 8786 H 841.02 0.137328 -2.99385 0
M  V30 8787 H 838.581 -0.0714754 -1.61742 0
M  V30 8788 H 840.573 2.66804 -3.04299 0
M  V30 8789 H 839.143 2.38695 -2.0185 0
M  V30 8790 H 838.363 0.732237 -3.8734 0
M  V30 8791 H 839.651 1.40041 -4.89148 0
M  V30 8792 H 839.049 4.32686 -3.64416 0
M  V30 8793 H 837.606 4.72916 -4.48547 0
M  V30 8794 N 841.039 1.57585 0.0217189 0
M  V30 8795 C 841.949 2.10444 1.03684 0
M  V30 8796 C 842.965 1.04472 1.39146 0
M  V30 8797 O 844.141 1.36249 1.48317 0
M  V30 8798 C 841.206 2.5794 2.31664 0
M  V30 8799 C 840.267 3.78425 2.02714 0
M  V30 8800 C 839.5 4.23646 3.24592 0
M  V30 8801 O 839.723 3.6834 4.35525 0
M  V30 8802 O 838.657 5.16013 3.09862 0
M  V30 8803 H 842.483 2.97354 0.617584 0
M  V30 8804 H 840.068 1.47473 0.239174 0
M  V30 8805 H 841.95 2.88785 3.06889 0
M  V30 8806 H 840.625 1.74138 2.7287 0
M  V30 8807 H 839.532 3.52587 1.25033 0
M  V30 8808 H 840.865 4.63234 1.66359 0
M  V30 8809 N 842.517 -0.29412 1.54831 0
M  V30 8810 C 843.765 -1.02643 1.74094 0
M  V30 8811 C 844.086 -1.87563 0.533402 0
M  V30 8812 O 843.356 -1.9061 -0.452192 0
M  V30 8813 H 841.936 -0.381959 0.641963 0
M  V30 8814 H 844.598 -0.323444 1.92197 0
M  V30 8815 H 843.694 -1.67558 2.63307 0
M  V30 8816 N 843.995 -1.47404 -0.557645 0
M  V30 8817 C 845.411 -1.32913 -0.88353 0
M  V30 8818 C 845.611 -0.31929 -1.98954 0
M  V30 8819 O 844.667 0.26934 -2.51059 0
M  V30 8820 C 845.98 -2.72229 -1.27718 0
M  V30 8821 C 847.528 -2.8051 -1.38863 0
M  V30 8822 C 848.003 -4.20466 -1.81583 0
M  V30 8823 N 849.494 -4.23005 -1.88735 0
M  V30 8824 C 850.229 -5.2821 -2.23118 0
M  V30 8825 N 849.725 -6.4372 -2.56117 0
M  V30 8826 N 851.518 -5.15588 -2.23888 0
M  V30 8827 H 843.669 -2.11698 0.172557 0
M  V30 8828 H 845.932 -0.947889 0.0145334 0
M  V30 8829 H 845.638 -3.47556 -0.538329 0
M  V30 8830 H 845.512 -3.03971 -2.23342 0
M  V30 8831 H 847.899 -2.05457 -2.11829 0
M  V30 8832 H 847.98 -2.52423 -0.414274 0
M  V30 8833 H 847.624 -4.96025 -1.09187 0
M  V30 8834 H 847.554 -4.45977 -2.80021 0
M  V30 8835 H 850.045 -3.39674 -1.65621 0
M  V30 8836 H 850.358 -7.19754 -2.81378 0
M  V30 8837 H 848.703 -6.47041 -2.53698 0
M  V30 8838 H 851.894 -4.24374 -1.97546 0
M  V30 8839 H 852.067 -5.97685 -2.50353 0
M  V30 8840 N 845.473 0.80434 -1.35529 0
M  V30 8841 C 846.889 1.10023 -1.15616 0
M  V30 8842 C 847.089 2.01478 0.0298535 0
M  V30 8843 O 846.145 2.42609 0.699778 0
M  V30 8844 C 847.458 1.72905 -2.46017 0
M  V30 8845 C 849.006 1.85315 -2.52245 0
M  V30 8846 C 849.481 2.51612 -3.82695 0
M  V30 8847 N 850.972 2.59095 -3.83958 0
M  V30 8848 C 851.707 3.11167 -4.81625 0
M  V30 8849 N 851.203 3.63659 -5.89681 0
M  V30 8850 N 852.996 3.09741 -4.6906 0
M  V30 8851 H 845.147 0.196428 -2.1149 0
M  V30 8852 H 847.41 0.149735 -0.9361 0
M  V30 8853 H 847.116 1.13171 -3.32994 0
M  V30 8854 H 846.99 2.72579 -2.6073 0
M  V30 8855 H 849.377 2.44191 -1.65695 0
M  V30 8856 H 849.458 0.844886 -2.41444 0
M  V30 8857 H 849.102 1.93385 -4.69643 0
M  V30 8858 H 849.032 3.5298 -3.90785 0
M  V30 8859 H 851.523 2.21908 -3.05884 0
M  V30 8860 H 851.836 4.01699 -6.60195 0
M  V30 8861 H 850.181 3.61852 -5.9337 0
M  V30 8862 H 853.372 2.68011 -3.83781 0
M  V30 8863 H 853.545 3.50016 -5.45338 0
M  V30 8864 N 846.951 1.19563 1.02676 0
M  V30 8865 C 847.914 0.937182 2.09164 0
M  V30 8866 C 848.914 -0.0831927 1.60585 0
M  V30 8867 O 850.104 0.15178 1.73538 0
M  V30 8868 C 847.236 0.408912 3.38439 0
M  V30 8869 H 848.429 1.88164 2.33526 0
M  V30 8870 H 845.982 1.00959 1.19319 0
M  V30 8871 H 846.717 -0.541497 3.19747 0
M  V30 8872 H 846.502 1.14464 3.7502 0
M  V30 8873 H 847.992 0.247242 4.16867 0
M  V30 8874 N 848.429 -1.21819 0.999893 0
M  V30 8875 C 849.654 -1.95298 0.698094 0
M  V30 8876 C 850.079 -1.73273 -0.731982 0
M  V30 8877 O 849.437 -1.01634 -1.50134 0
M  V30 8878 C 849.485 -3.45922 1.01834 0
M  V30 8879 O 848.589 -4.12223 0.120801 0
M  V30 8880 H 847.93 -0.610729 0.260588 0
M  V30 8881 H 850.46 -1.5472 1.33876 0
M  V30 8882 H 850.47 -3.96471 0.963074 0
M  V30 8883 H 849.145 -3.61278 2.06037 0
M  V30 8884 H 847.722 -3.72177 0.232153 0
M  V30 8885 N 849.908 -0.773975 -1.37286 0
M  V30 8886 C 851.185 -0.263942 -1.93811 0
M  V30 8887 C 851.565 1.24138 -1.70743 0
M  V30 8888 O 850.913 2.02557 -1.05749 0
M  V30 8889 C 851.123 -0.639753 -3.43086 0
M  V30 8890 C 852.471 -0.610796 -4.20184 0
M  V30 8891 O 853.495 -0.579278 -3.51458 0
M  V30 8892 O 852.354 -0.639862 -5.42741 0
M  V30 8893 H 849.448 -0.0614331 -0.824715 0
M  V30 8894 H 851.994 -0.855477 -1.46559 0
M  V30 8895 H 850.766 -1.67856 -3.53469 0
M  V30 8896 H 850.389 -0.0212827 -3.97594 0
M  V30 8897 N 851.386 1.48609 -0.524698 0
M  V30 8898 C 852.614 2.06899 0.00742946 0
M  V30 8899 C 853.029 1.38196 1.28637 0
M  V30 8900 O 852.386 0.467771 1.76403 0
M  V30 8901 C 852.437 3.60699 0.240548 0
M  V30 8902 O 852.158 4.26821 -0.987715 0
M  V30 8903 C 853.659 4.35769 0.813652 0
M  V30 8904 H 850.879 0.670278 -0.0311294 0
M  V30 8905 H 853.423 1.91071 -0.728832 0
M  V30 8906 H 851.578 3.76149 0.926845 0
M  V30 8907 H 851.992 5.18889 -0.765175 0
M  V30 8908 H 853.466 5.44174 0.926219 0
M  V30 8909 H 853.943 3.9984 1.81728 0
M  V30 8910 H 854.549 4.24983 0.164086 0
M  V30 8911 N 852.864 0.259585 1.55447 0
M  V30 8912 C 854.089 -0.368317 2.04103 0
M  V30 8913 C 854.514 -1.49827 1.13725 0
M  V30 8914 O 853.872 -1.80814 0.132705 0
M  V30 8915 C 853.92 -0.841506 3.50644 0
M  V30 8916 O 853.024 -1.95008 3.63381 0
M  V30 8917 H 852.365 -0.0785227 0.659341 0
M  V30 8918 H 854.895 0.389349 2.00861 0
M  V30 8919 H 854.905 -1.14138 3.9171 0
M  V30 8920 H 853.58 -0.0147001 4.15897 0
M  V30 8921 H 852.157 -1.65393 3.34215 0
M  V30 8922 N 854.342 -1.57594 -0.0133615 0
M  V30 8923 C 855.272 -2.10611 -1.00823 0
M  V30 8924 C 856.253 -1.01217 -1.36708 0
M  V30 8925 O 857.438 -1.28827 -1.45318 0
M  V30 8926 C 854.568 -2.59844 -2.30431 0
M  V30 8927 C 853.522 -3.73644 -2.08745 0
M  V30 8928 C 852.848 -4.09141 -3.4425 0
M  V30 8929 C 854.148 -5.01454 -1.46086 0
M  V30 8930 H 855.842 -2.93985 -0.566849 0
M  V30 8931 H 853.388 -1.41423 -0.271219 0
M  V30 8932 H 855.341 -2.95557 -3.00373 0
M  V30 8933 H 854.065 -1.73573 -2.76658 0
M  V30 8934 H 852.724 -3.38303 -1.41232 0
M  V30 8935 H 852.372 -3.19914 -3.88155 0
M  V30 8936 H 852.072 -4.85802 -3.3056 0
M  V30 8937 H 853.596 -4.47402 -4.15528 0
M  V30 8938 H 855.01 -5.35024 -2.05966 0
M  V30 8939 H 853.407 -5.82832 -1.42924 0
M  V30 8940 H 854.477 -4.83003 -0.428471 0
M  V30 8941 N 855.82 0.285905 -1.54985 0
M  V30 8942 C 857.048 1.03776 -1.78992 0
M  V30 8943 C 857.463 1.80402 -0.556814 0
M  V30 8944 O 856.82 1.76242 0.473801 0
M  V30 8945 C 856.871 2.0065 -3.00702 0
M  V30 8946 O 856.592 1.27131 -4.19249 0
M  V30 8947 C 858.093 2.87753 -3.37214 0
M  V30 8948 H 855.313 0.307126 -0.596586 0
M  V30 8949 H 857.857 0.3206 -2.01971 0
M  V30 8950 H 856.012 2.67847 -2.79887 0
M  V30 8951 H 856.426 1.92316 -4.8797 0
M  V30 8952 H 857.9 3.51548 -4.2558 0
M  V30 8953 H 858.377 3.56848 -2.56039 0
M  V30 8954 H 858.983 2.26065 -3.60242 0
M  V30 8955 N 857.298 1.47698 0.54982 0
M  V30 8956 C 858.23 1.56806 1.67166 0
M  V30 8957 C 859.243 0.453709 1.5635 0
M  V30 8958 O 860.432 0.723663 1.63173 0
M  V30 8959 C 857.532 1.4632 3.05686 0
M  V30 8960 C 856.705 2.72452 3.42182 0
M  V30 8961 C 855.764 2.55698 4.59897 0
M  V30 8962 O 854.79 3.29534 4.64108 0
M  V30 8963 N 855.992 1.64009 5.56849 0
M  V30 8964 H 858.757 2.53545 1.59797 0
M  V30 8965 H 856.318 1.44171 0.736635 0
M  V30 8966 H 858.31 1.32835 3.82279 0
M  V30 8967 H 856.88 0.57634 3.07241 0
M  V30 8968 H 856.1 3.00644 2.54964 0
M  V30 8969 H 857.388 3.56172 3.63344 0
M  V30 8970 H 856.786 1.03186 5.5621 0
M  V30 8971 H 855.343 1.56473 6.3274 0
M  V30 8972 N 858.776 -0.797141 1.35954 0
M  V30 8973 C 860.024 -1.55161 1.29497 0
M  V30 8974 C 860.345 -1.94582 -0.127659 0
M  V30 8975 O 859.615 -1.64343 -1.06622 0
M  V30 8976 H 858.195 -0.575413 0.47635 0
M  V30 8977 H 860.857 -0.950282 1.70164 0
M  V30 8978 H 859.953 -2.46272 1.9172 0
M  V30 8979 N 860.254 -1.20106 -1.0204 0
M  V30 8980 C 861.184 -0.970301 -2.12385 0
M  V30 8981 C 862.165 0.099378 -1.69809 0
M  V30 8982 O 863.35 -0.057365 -1.94115 0
M  V30 8983 C 860.48 -0.517431 -3.43424 0
M  V30 8984 C 859.434 -1.52992 -3.99722 0
M  V30 8985 C 858.76 -0.933817 -5.26483 0
M  V30 8986 C 860.06 -2.91257 -4.33551 0
M  V30 8987 H 861.754 -1.89316 -2.31948 0
M  V30 8988 H 859.3 -0.911655 -1.11467 0
M  V30 8989 H 861.253 -0.343243 -4.2 0
M  V30 8990 H 859.977 0.441049 -3.23608 0
M  V30 8991 H 858.636 -1.6914 -3.2525 0
M  V30 8992 H 858.284 0.0324763 -5.0299 0
M  V30 8993 H 857.984 -1.60999 -5.65113 0
M  V30 8994 H 859.508 -0.770614 -6.05718 0
M  V30 8995 H 860.922 -2.78642 -5.0103 0
M  V30 8996 H 859.319 -3.55745 -4.83286 0
M  V30 8997 H 860.389 -3.43269 -3.42483 0
M  V30 8998 N 861.732 1.21287 -1.00634 0
M  V30 8999 C 862.679 2.23705 -0.567876 0
M  V30 9000 C 863.649 1.61043 0.406753 0
M  V30 9001 O 864.834 1.88289 0.308499 0
M  V30 9002 C 861.974 3.44961 0.097996 0
M  V30 9003 C 861.087 4.22091 -0.919972 0
M  V30 9004 C 860.222 5.30718 -0.226222 0
M  V30 9005 C 859.261 5.99581 -1.23165 0
M  V30 9006 N 858.398 6.99821 -0.565278 0
M  V30 9007 H 863.238 2.60571 -1.44592 0
M  V30 9008 H 860.775 1.28049 -0.724006 0
M  V30 9009 H 862.733 4.1418 0.501097 0
M  V30 9010 H 861.363 3.08818 0.939744 0
M  V30 9011 H 860.415 3.52038 -1.44131 0
M  V30 9012 H 861.727 4.69476 -1.68505 0
M  V30 9013 H 860.881 6.06253 0.232917 0
M  V30 9014 H 859.62 4.84343 0.571247 0
M  V30 9015 H 858.625 5.22816 -1.70128 0
M  V30 9016 H 859.85 6.48042 -2.03022 0
M  V30 9017 H 857.796 6.55656 0.212508 0
M  V30 9018 H 857.713 7.4528 -1.26858 0
M  V30 9019 H 858.981 7.79393 -0.129389 0
M  V30 9020 N 863.21 0.781244 1.36873 0
M  V30 9021 C 864.173 0.180094 2.28491 0
M  V30 9022 C 865.173 -0.617798 1.48458 0
M  V30 9023 O 866.363 -0.439991 1.68552 0
M  V30 9024 C 863.495 -0.751741 3.32508 0
M  V30 9025 H 864.688 0.987837 2.83164 0
M  V30 9026 H 862.241 0.550102 1.463 0
M  V30 9027 H 862.976 -1.58413 2.82977 0
M  V30 9028 H 862.761 -0.181649 3.91679 0
M  V30 9029 H 864.251 -1.16748 4.00949 0
M  V30 9030 N 864.689 -1.48329 0.532571 0
M  V30 9031 C 865.936 -2.025 -0.000582356 0
M  V30 9032 C 866.264 -1.40942 -1.34036 0
M  V30 9033 O 865.519 -0.545545 -1.87942 0
M  V30 9034 C 865.818 -3.57 -0.168943 0
M  V30 9035 C 865.484 -4.37357 1.0968 0
M  V30 9036 C 864.146 -4.59033 1.44369 0
M  V30 9037 C 866.498 -4.83882 1.93669 0
M  V30 9038 C 863.826 -5.24481 2.62939 0
M  V30 9039 C 866.178 -5.50637 3.11419 0
M  V30 9040 C 864.842 -5.70551 3.46451 0
M  V30 9041 H 864.112 -0.741 -0.000213099 0
M  V30 9042 H 866.759 -1.78282 0.699117 0
M  V30 9043 H 865.064 -3.80072 -0.951429 0
M  V30 9044 H 866.761 -3.9654 -0.596422 0
M  V30 9045 H 863.351 -4.20748 0.816655 0
M  V30 9046 H 867.535 -4.66936 1.6818 0
M  V30 9047 H 862.791 -5.38096 2.9028 0
M  V30 9048 H 866.965 -5.85655 3.76803 0
M  V30 9049 H 864.592 -6.21037 4.38425 0
M  V30 9050 N 866.167 -0.267825 -1.55308 0
M  V30 9051 C 867.583 0.0865107 -1.59365 0
M  V30 9052 C 867.783 1.55205 -1.28505 0
M  V30 9053 O 866.839 2.29978 -1.04241 0
M  V30 9054 C 868.152 -0.28155 -2.99379 0
M  V30 9055 C 869.7 -0.227565 -3.12172 0
M  V30 9056 C 870.175 -0.569959 -4.5444 0
M  V30 9057 N 871.666 -0.521238 -4.60258 0
M  V30 9058 C 872.401 -0.759061 -5.68354 0
M  V30 9059 N 871.897 -1.06112 -6.84626 0
M  V30 9060 N 873.69 -0.688351 -5.57869 0
M  V30 9061 H 865.841 -1.22332 -1.73633 0
M  V30 9062 H 868.104 -0.493703 -0.809297 0
M  V30 9063 H 867.81 -1.3005 -3.26772 0
M  V30 9064 H 867.684 0.381192 -3.75269 0
M  V30 9065 H 870.071 0.782093 -2.84548 0
M  V30 9066 H 870.152 -0.924461 -2.38511 0
M  V30 9067 H 869.796 -1.57727 -4.82788 0
M  V30 9068 H 869.726 0.148646 -5.2639 0
M  V30 9069 H 872.217 -0.297359 -3.76728 0
M  V30 9070 H 872.53 -1.22945 -7.62958 0
M  V30 9071 H 870.875 -1.09881 -6.86259 0
M  V30 9072 H 874.066 -0.452268 -4.6591 0
M  V30 9073 H 874.239 -0.877081 -6.42037 0
M  V30 9074 N 867.645 1.57599 0.00500368 0
M  V30 9075 C 868.577 2.04949 1.02609 0
M  V30 9076 C 869.59 0.966507 1.31006 0
M  V30 9077 O 870.779 1.2434 1.2807 0
M  V30 9078 C 867.879 2.43023 2.36206 0
M  V30 9079 C 867.052 3.73993 2.26821 0
M  V30 9080 C 866.111 3.9899 3.43065 0
M  V30 9081 O 865.137 4.69725 3.21477 0
M  V30 9082 N 866.339 3.46496 4.65748 0
M  V30 9083 H 869.104 2.93167 0.622336 0
M  V30 9084 H 866.665 1.60752 0.192488 0
M  V30 9085 H 868.657 2.56863 3.12735 0
M  V30 9086 H 867.227 1.60349 2.68341 0
M  V30 9087 H 866.447 3.70277 1.35235 0
M  V30 9088 H 867.735 4.59865 2.17719 0
M  V30 9089 H 867.133 2.89206 4.86186 0
M  V30 9090 H 865.69 3.65675 5.3956 0
M  V30 9091 N 869.123 -0.277682 1.55134 0
M  V30 9092 C 870.055 -1.36531 1.84098 0
M  V30 9093 C 871.068 -1.45756 0.725194 0
M  V30 9094 O 872.257 -1.47656 1.00299 0
M  V30 9095 C 869.357 -2.74701 1.98476 0
M  V30 9096 C 868.53 -2.88125 3.29094 0
M  V30 9097 C 867.589 -4.0694 3.33596 0
M  V30 9098 O 866.615 -3.9792 4.06999 0
M  V30 9099 N 867.817 -5.18687 2.60661 0
M  V30 9100 H 870.582 -1.12032 2.77973 0
M  V30 9101 H 868.143 -0.467793 1.54995 0
M  V30 9102 H 870.135 -3.52471 1.98863 0
M  V30 9103 H 868.705 -2.92043 1.11488 0
M  V30 9104 H 867.925 -1.97277 3.41285 0
M  V30 9105 H 869.213 -2.94021 4.15246 0
M  V30 9106 H 868.611 -5.28901 2.00699 0
M  V30 9107 H 867.168 -5.94705 2.66776 0
M  V30 9108 N 870.601 -1.47988 -0.541979 0
M  V30 9109 C 871.531 -1.64503 -1.65713 0
M  V30 9110 C 872.512 -0.494116 -1.62765 0
M  V30 9111 O 873.697 -0.725256 -1.80149 0
M  V30 9112 C 870.827 -1.67337 -3.04328 0
M  V30 9113 C 869.781 -2.81809 -3.2213 0
M  V30 9114 C 869.107 -2.69724 -4.61685 0
M  V30 9115 C 870.407 -4.23241 -3.06046 0
M  V30 9116 H 872.101 -2.5786 -1.52147 0
M  V30 9117 H 869.647 -1.24094 -0.730529 0
M  V30 9118 H 871.6 -1.77481 -3.82202 0
M  V30 9119 H 870.324 -0.705514 -3.18889 0
M  V30 9120 H 868.983 -2.71201 -2.46669 0
M  V30 9121 H 868.631 -1.70934 -4.73065 0
M  V30 9122 H 868.331 -3.4653 -4.74543 0
M  V30 9123 H 869.855 -2.81818 -5.41674 0
M  V30 9124 H 871.269 -4.34746 -3.73723 0
M  V30 9125 H 869.666 -5.00952 -3.30405 0
M  V30 9126 H 870.736 -4.40543 -2.02609 0
M  V30 9127 N 872.079 0.78992 -1.36375 0
M  V30 9128 C 873.495 1.0879 -1.16777 0
M  V30 9129 C 873.695 2.01498 0.00848236 0
M  V30 9130 O 872.751 2.43338 0.674007 0
M  V30 9131 C 874.064 1.70285 -2.47837 0
M  V30 9132 C 875.612 1.82629 -2.54196 0
M  V30 9133 C 876.087 2.47539 -3.85342 0
M  V30 9134 N 877.578 2.55008 -3.86685 0
M  V30 9135 C 878.313 3.06041 -4.84898 0
M  V30 9136 N 877.809 3.57385 -5.93505 0
M  V30 9137 N 879.602 3.04748 -4.72319 0
M  V30 9138 H 871.753 0.173985 -2.11686 0
M  V30 9139 H 874.016 0.139798 -0.937636 0
M  V30 9140 H 873.722 1.09633 -3.34176 0
M  V30 9141 H 873.596 2.69799 -2.63607 0
M  V30 9142 H 875.983 2.42419 -1.68276 0
M  V30 9143 H 876.064 0.81923 -2.42327 0
M  V30 9144 H 875.708 1.88393 -4.71668 0
M  V30 9145 H 875.638 3.48815 -3.94507 0
M  V30 9146 H 878.129 2.18651 -3.08221 0
M  V30 9147 H 878.442 3.94674 -6.64419 0
M  V30 9148 H 876.787 3.55538 -5.97175 0
M  V30 9149 H 879.978 2.63925 -3.86602 0
M  V30 9150 H 880.151 3.44212 -5.49019 0
M  V30 9151 N 873.557 1.20646 1.01402 0
M  V30 9152 C 874.504 0.957618 2.09996 0
M  V30 9153 C 875.474 -0.113115 1.65714 0
M  V30 9154 O 876.659 0.032142 1.90773 0
M  V30 9155 C 873.799 0.5186 3.41181 0
M  V30 9156 C 872.912 1.65777 3.98926 0
M  V30 9157 C 872.047 1.16881 5.18182 0
M  V30 9158 C 871.086 2.2809 5.68015 0
M  V30 9159 N 870.223 1.80392 6.7853 0
M  V30 9160 H 875.063 1.88732 2.30617 0
M  V30 9161 H 872.6 0.940703 1.13089 0
M  V30 9162 H 874.558 0.245367 4.16478 0
M  V30 9163 H 873.188 -0.3741 3.20625 0
M  V30 9164 H 872.24 2.04586 3.207 0
M  V30 9165 H 873.552 2.49507 4.31912 0
M  V30 9166 H 872.706 0.851694 6.00692 0
M  V30 9167 H 871.445 0.301434 4.86768 0
M  V30 9168 H 870.45 2.60614 4.84108 0
M  V30 9169 H 871.675 3.15308 6.01463 0
M  V30 9170 H 869.621 0.959856 6.4894 0
M  V30 9171 H 869.538 2.57701 7.10722 0
M  V30 9172 H 870.806 1.51688 7.64598 0
M  V30 9173 N 875.035 -1.20752 1.01276 0
M  V30 9174 C 876.263 -1.94006 0.718976 0
M  V30 9175 C 876.678 -1.74544 -0.719711 0
M  V30 9176 O 876.035 -1.05697 -1.48776 0
M  V30 9177 C 876.086 -3.46208 1.04031 0
M  V30 9178 O 875.807 -3.65031 2.42248 0
M  V30 9179 C 877.308 -4.36614 0.767032 0
M  V30 9180 H 874.528 -0.616743 0.264327 0
M  V30 9181 H 877.072 -1.53352 1.3529 0
M  V30 9182 H 875.227 -3.84756 0.451852 0
M  V30 9183 H 875.641 -4.59054 2.53712 0
M  V30 9184 H 877.115 -5.42076 1.04198 0
M  V30 9185 H 877.592 -4.38182 -0.298851 0
M  V30 9186 H 878.198 -4.03723 1.33746 0
M  V30 9187 N 876.513 -0.788492 -1.36457 0
M  V30 9188 C 877.741 -0.372365 -2.03522 0
M  V30 9189 C 878.156 1.01093 -1.59454 0
M  V30 9190 O 877.513 1.64824 -0.783535 0
M  V30 9191 C 877.564 -0.425435 -3.58988 0
M  V30 9192 O 877.285 -1.75418 -4.01448 0
M  V30 9193 C 878.786 0.000180167 -4.433 0
M  V30 9194 H 876.006 -0.1536 -0.653183 0
M  V30 9195 H 878.55 -1.06708 -1.74452 0
M  V30 9196 H 876.705 0.220856 -3.8677 0
M  V30 9197 H 877.119 -1.70437 -4.96036 0
M  V30 9198 H 878.593 -0.0880919 -5.5193 0
M  V30 9199 H 879.07 1.05269 -4.26398 0
M  V30 9200 H 879.676 -0.618563 -4.20778 0
M  V30 9201 N 877.991 1.48044 -0.54043 0
M  V30 9202 C 879.407 1.58354 -0.199006 0
M  V30 9203 C 879.607 1.54118 1.29807 0
M  V30 9204 O 878.663 1.43573 2.07709 0
M  V30 9205 C 879.976 2.89563 -0.810797 0
M  V30 9206 C 881.524 3.03113 -0.780486 0
M  V30 9207 C 881.999 4.36997 -1.37104 0
M  V30 9208 N 883.49 4.43591 -1.33347 0
M  V30 9209 C 884.225 5.45714 -1.76021 0
M  V30 9210 N 883.721 6.54738 -2.26473 0
M  V30 9211 N 885.514 5.36659 -1.67194 0
M  V30 9212 H 877.665 1.49041 -1.51329 0
M  V30 9213 H 879.928 0.708309 -0.630081 0
M  V30 9214 H 879.634 2.9835 -1.86227 0
M  V30 9215 H 879.508 3.76053 -0.293977 0
M  V30 9216 H 881.895 2.93932 0.262246 0
M  V30 9217 H 881.976 2.18207 -1.33489 0
M  V30 9218 H 881.62 4.46932 -2.41276 0
M  V30 9219 H 881.55 5.20607 -0.792229 0
M  V30 9220 H 884.041 3.65391 -0.964259 0
M  V30 9221 H 884.354 7.28814 -2.57002 0
M  V30 9222 H 882.699 6.55673 -2.30473 0
M  V30 9223 H 885.89 4.50382 -1.27569 0
M  V30 9224 H 886.063 6.16113 -2.00771 0
M  V30 9225 N 879.47 0.276058 1.55163 0
M  V30 9226 C 880.698 -0.343772 2.04024 0
M  V30 9227 C 881.113 -1.49397 1.15438 0
M  V30 9228 O 880.47 -1.81662 0.174692 0
M  V30 9229 C 880.521 -0.823885 3.51986 0
M  V30 9230 O 880.242 0.280507 4.37201 0
M  V30 9231 C 881.743 -1.51143 4.16738 0
M  V30 9232 H 878.963 -0.07828 0.666418 0
M  V30 9233 H 881.507 0.408427 2.0038 0
M  V30 9234 H 879.662 -1.52617 3.56071 0
M  V30 9235 H 880.076 -0.0887831 5.24425 0
M  V30 9236 H 881.55 -1.79878 5.2187 0
M  V30 9237 H 882.027 -2.44327 3.64967 0
M  V30 9238 H 882.633 -0.852975 4.16659 0
M  V30 9239 N 880.948 -1.576 0.00335426 0
M  V30 9240 C 881.895 -2.08632 -0.986975 0
M  V30 9241 C 882.865 -0.982491 -1.33927 0
M  V30 9242 O 884.05 -1.25513 -1.43705 0
M  V30 9243 C 881.19 -2.59705 -2.27261 0
M  V30 9244 C 880.303 -3.84002 -1.97905 0
M  V30 9245 C 879.438 -4.23563 -3.20574 0
M  V30 9246 C 878.477 -5.40688 -2.8692 0
M  V30 9247 N 877.614 -5.75526 -4.02136 0
M  V30 9248 H 882.454 -2.92977 -0.544855 0
M  V30 9249 H 879.991 -1.44831 -0.257376 0
M  V30 9250 H 881.949 -2.87395 -3.02423 0
M  V30 9251 H 880.579 -1.7823 -2.69136 0
M  V30 9252 H 879.631 -3.63199 -1.13096 0
M  V30 9253 H 880.943 -4.69261 -1.69102 0
M  V30 9254 H 880.097 -4.52554 -4.04079 0
M  V30 9255 H 878.836 -3.37019 -3.52518 0
M  V30 9256 H 877.841 -5.11417 -2.01822 0
M  V30 9257 H 879.066 -6.2891 -2.5622 0
M  V30 9258 H 877.012 -4.9194 -4.33971 0
M  V30 9259 H 876.929 -6.55367 -3.76869 0
M  V30 9260 H 878.197 -6.0911 -4.8642 0
M  V30 9261 N 882.426 0.269451 -1.5528 0
M  V30 9262 C 883.674 0.998604 -1.75705 0
M  V30 9263 C 883.995 1.86691 -0.563175 0
M  V30 9264 O 883.265 1.91305 0.421811 0
M  V30 9265 H 881.845 0.371698 -0.647958 0
M  V30 9266 H 884.507 0.292826 -1.92688 0
M  V30 9267 H 883.603 1.63348 -2.6594 0
M  V30 9268 N 883.904 1.48273 0.534124 0
M  V30 9269 C 885.151 1.56079 1.29017 0
M  V30 9270 C 885.479 0.232912 1.931 0
M  V30 9271 O 884.734 -0.77642 1.79639 0
M  V30 9272 C 885.033 2.64468 2.40398 0
M  V30 9273 C 884.699 4.07034 1.93995 0
M  V30 9274 C 883.361 4.45838 1.81058 0
M  V30 9275 C 885.713 4.96395 1.58877 0
M  V30 9276 C 883.041 5.71812 1.31331 0
M  V30 9277 C 885.393 6.22854 1.10614 0
M  V30 9278 C 884.057 6.60518 0.962895 0
M  V30 9279 H 883.327 0.571135 0.472108 0
M  V30 9280 H 885.974 1.81973 0.5965 0
M  V30 9281 H 884.279 2.32419 3.15418 0
M  V30 9282 H 885.976 2.67725 2.98537 0
M  V30 9283 H 882.566 3.76387 2.05015 0
M  V30 9284 H 886.75 4.67096 1.67734 0
M  V30 9285 H 882.006 5.99722 1.18924 0
M  V30 9286 H 886.18 6.91495 0.825095 0
M  V30 9287 H 883.807 7.58019 0.575369 0
M  V30 9288 N 885.382 -0.782676 1.36792 0
M  V30 9289 C 886.312 -1.90973 1.34356 0
M  V30 9290 C 887.293 -1.6875 0.213917 0
M  V30 9291 O 888.478 -1.89766 0.412601 0
M  V30 9292 C 885.608 -3.28097 1.13884 0
M  V30 9293 C 884.562 -3.6486 2.23744 0
M  V30 9294 C 883.888 -5.00406 1.88408 0
M  V30 9295 C 885.188 -3.72742 3.6587 0
M  V30 9296 H 886.882 -1.93268 2.28665 0
M  V30 9297 H 884.428 -0.928447 1.10072 0
M  V30 9298 H 886.381 -4.06569 1.10813 0
M  V30 9299 H 885.105 -3.26206 0.160275 0
M  V30 9300 H 883.764 -2.88689 2.25952 0
M  V30 9301 H 883.412 -4.95044 0.891083 0
M  V30 9302 H 883.112 -5.25973 2.61966 0
M  V30 9303 H 884.636 -5.81291 1.86905 0
M  V30 9304 H 886.05 -4.4139 3.65852 0
M  V30 9305 H 884.447 -4.09798 4.38389 0
M  V30 9306 H 885.517 -2.73676 4.00287 0
M  V30 9307 N 886.86 -1.21182 -1.00761 0
M  V30 9308 C 888.108 -1.02543 -1.74153 0
M  V30 9309 C 888.429 0.442372 -1.89916 0
M  V30 9310 O 887.699 1.31927 -1.44818 0
M  V30 9311 H 886.279 -0.37644 -0.645214 0
M  V30 9312 H 888.941 -1.52446 -1.21434 0
M  V30 9313 H 888.037 -1.49122 -2.7417 0
M  V30 9314 N 888.338 1.20213 -1.01915 0
M  V30 9315 C 889.268 2.25336 -0.612023 0
M  V30 9316 C 890.249 1.65933 0.374186 0
M  V30 9317 O 891.434 1.92464 0.259053 0
M  V30 9318 C 888.564 3.47267 0.047904 0
M  V30 9319 C 887.518 4.1928 -0.859557 0
M  V30 9320 C 886.844 5.3466 -0.0652655 0
M  V30 9321 C 888.144 4.75143 -2.1688 0
M  V30 9322 H 889.838 2.59645 -1.49079 0
M  V30 9323 H 887.384 1.24808 -0.718263 0
M  V30 9324 H 889.337 4.19991 0.344294 0
M  V30 9325 H 888.061 3.12129 0.961404 0
M  V30 9326 H 886.72 3.48425 -1.13999 0
M  V30 9327 H 886.368 4.95767 0.849964 0
M  V30 9328 H 886.068 5.83772 -0.669618 0
M  V30 9329 H 887.592 6.10187 0.224612 0
M  V30 9330 H 889.006 5.39672 -1.9346 0
M  V30 9331 H 887.403 5.34702 -2.72422 0
M  V30 9332 H 888.473 3.93744 -2.83008 0
M  V30 9333 N 889.816 0.795718 1.36037 0
M  V30 9334 C 890.764 0.18649 2.31851 0
M  V30 9335 C 891.758 -0.657704 1.56111 0
M  V30 9336 O 892.964 -0.552083 1.71324 0
M  V30 9337 H 889.339 0.0415363 0.750852 0
M  V30 9338 H 891.31 1.00992 2.8079 0
M  V30 9339 C 890.059 -0.65918 3.41394 0
M  V30 9340 H 889.382 -0.01894 3.99796 0
M  V30 9341 H 890.822 -1.05202 4.10741 0
M  V30 9342 C 889.281 -1.82011 2.83502 0
M  V30 9343 O 889.811 -2.91703 2.76174 0
M  V30 9344 N 888.017 -1.62821 2.40703 0
M  V30 9345 H 887.564 -0.735965 2.46863 0
M  V30 9346 H 887.522 -2.40657 2.02316 0
M  V30 9347 N 891.294 -1.47756 0.548274 0
M  V30 9348 C 892.241 -2.29893 -0.204408 0
M  V30 9349 C 893.211 -1.38509 -0.916761 0
M  V30 9350 O 894.396 -1.67472 -0.91421 0
M  V30 9351 C 891.536 -3.22282 -1.23403 0
M  V30 9352 C 890.649 -4.28753 -0.528654 0
M  V30 9353 C 889.784 -5.08303 -1.54279 0
M  V30 9354 C 888.823 -6.06557 -0.821893 0
M  V30 9355 N 887.96 -6.79098 -1.78243 0
M  V30 9356 H 892.8 -2.93739 0.502163 0
M  V30 9357 H 890.337 -1.44793 0.259471 0
M  V30 9358 H 892.295 -3.74262 -1.84348 0
M  V30 9359 H 890.925 -2.6032 -1.90875 0
M  V30 9360 H 889.977 -3.79899 0.195132 0
M  V30 9361 H 891.289 -4.98787 0.0365066 0
M  V30 9362 H 890.443 -5.64388 -2.22602 0
M  V30 9363 H 889.182 -4.3815 -2.14186 0
M  V30 9364 H 888.187 -5.49659 -0.12469 0
M  V30 9365 H 889.412 -6.78715 -0.228685 0
M  V30 9366 H 887.358 -6.11682 -2.37025 0
M  V30 9367 H 887.275 -7.4527 -1.26919 0
M  V30 9368 H 888.543 -7.39762 -2.45709 0
M  V30 9369 N 892.772 -0.284283 -1.55015 0
M  V30 9370 C 894.021 0.33055 -1.98973 0
M  V30 9371 C 894.334 1.56284 -1.17621 0
M  V30 9372 O 895.54 2.2512 -1.51767 0
M  V30 9373 C 893.996 0.639457 -3.54174 0
M  V30 9374 C 893.604 -0.573543 -4.44313 0
M  V30 9375 C 895.348 1.21641 -4.06699 0
M  V30 9376 C 893.255 -0.238715 -5.90918 0
M  V30 9377 H 892.185 0.127285 -0.743179 0
M  V30 9378 H 894.836 -0.390372 -1.793 0
M  V30 9379 H 893.218 1.41953 -3.69683 0
M  V30 9380 H 894.392 -1.3502 -4.40575 0
M  V30 9381 H 892.707 -1.06797 -4.02472 0
M  V30 9382 H 895.304 1.48088 -5.13784 0
M  V30 9383 H 895.647 2.15328 -3.56286 0
M  V30 9384 H 896.18 0.498422 -3.94665 0
M  V30 9385 H 892.919 -1.1437 -6.45445 0
M  V30 9386 H 892.439 0.500997 -5.97704 0
M  V30 9387 H 894.118 0.165774 -6.46788 0
M  V30 9388 N 894.251 1.57596 -0.0117121 0
M  V30 9389 C 895.198 2.09153 0.975897 0
M  V30 9390 C 896.168 0.989579 1.33404 0
M  V30 9391 O 897.353 1.26273 1.43038 0
M  V30 9392 C 894.493 2.60906 2.2588 0
M  V30 9393 C 893.606 3.85046 1.95866 0
M  V30 9394 C 892.741 4.25257 3.18323 0
M  V30 9395 C 891.78 5.42202 2.84049 0
M  V30 9396 N 890.917 5.77651 3.99079 0
M  V30 9397 H 895.757 2.93261 0.52931 0
M  V30 9398 H 893.294 1.44965 0.249691 0
M  V30 9399 H 895.252 2.88995 3.00895 0
M  V30 9400 H 893.882 1.79654 2.68187 0
M  V30 9401 H 892.934 3.63794 1.11168 0
M  V30 9402 H 894.246 4.70151 1.66611 0
M  V30 9403 H 893.4 4.5469 4.01674 0
M  V30 9404 H 892.139 3.38884 3.50726 0
M  V30 9405 H 891.144 5.1248 1.99107 0
M  V30 9406 H 892.369 6.3026 2.52881 0
M  V30 9407 H 890.315 4.94235 4.31356 0
M  V30 9408 H 890.232 6.57356 3.73388 0
M  V30 9409 H 891.5 6.11681 4.83183 0
M  V30 9410 N 895.729 -0.261212 1.5542 0
M  V30 9411 C 896.977 -0.989272 1.76232 0
M  V30 9412 C 897.298 -1.86389 0.573067 0
M  V30 9413 O 896.568 -1.91526 -0.41166 0
M  V30 9414 H 895.148 -0.368256 0.64992 0
M  V30 9415 H 897.81 -0.282603 1.9284 0
M  V30 9416 H 896.906 -1.61935 2.66802 0
M  V30 9417 N 897.207 -1.48554 -0.526253 0
M  V30 9418 C 898.137 -1.66252 -1.63959 0
M  V30 9419 C 899.118 -0.511351 -1.62232 0
M  V30 9420 O 900.303 -0.744322 -1.7937 0
M  V30 9421 C 897.433 -1.70556 -3.02536 0
M  V30 9422 C 896.387 -2.8521 -3.19123 0
M  V30 9423 C 895.713 -2.74606 -4.58798 0
M  V30 9424 C 897.013 -4.26463 -3.0154 0
M  V30 9425 H 898.707 -2.59459 -1.49404 0
M  V30 9426 H 896.253 -1.24862 -0.717326 0
M  V30 9427 H 898.206 -1.81524 -3.80298 0
M  V30 9428 H 896.93 -0.739297 -3.18123 0
M  V30 9429 H 895.589 -2.73802 -2.43779 0
M  V30 9430 H 895.237 -1.75941 -4.71226 0
M  V30 9431 H 894.937 -3.51544 -4.70841 0
M  V30 9432 H 896.461 -2.87548 -5.38655 0
M  V30 9433 H 897.875 -4.38685 -3.69091 0
M  V30 9434 H 896.272 -5.04428 -3.25073 0
M  V30 9435 H 897.342 -4.42667 -1.97925 0
M  V30 9436 N 898.685 0.775411 -1.37205 0
M  V30 9437 C 899.648 1.8702 -1.325 0
M  V30 9438 C 900.648 1.5915 -0.229793 0
M  V30 9439 O 901.838 1.673 -0.485423 0
M  V30 9440 C 898.97 3.24085 -1.05745 0
M  V30 9441 H 900.163 1.92604 -2.29878 0
M  V30 9442 H 897.716 0.97476 -1.22181 0
M  V30 9443 H 898.451 3.24178 -0.0888371 0
M  V30 9444 H 898.236 3.45705 -1.85016 0
M  V30 9445 H 899.726 4.0416 -1.05094 0
M  V30 9446 N 900.163 1.21714 1.00117 0
M  V30 9447 C 901.579 0.97532 1.26332 0
M  V30 9448 C 901.779 -0.336029 1.98678 0
M  V30 9449 O 900.835 -1.06073 2.29139 0
M  V30 9450 C 902.148 2.16848 2.0832 0
M  V30 9451 C 903.696 2.21115 2.21533 0
M  V30 9452 C 904.171 3.3996 3.06906 0
M  V30 9453 N 905.662 3.40071 3.14494 0
M  V30 9454 C 906.397 4.28678 3.80818 0
M  V30 9455 N 905.893 5.2749 4.49139 0
M  V30 9456 N 907.686 4.16476 3.77497 0
M  V30 9457 H 899.837 2.06039 0.515897 0
M  V30 9458 H 902.1 0.902423 0.290408 0
M  V30 9459 H 901.806 3.119 1.62515 0
M  V30 9460 H 901.68 2.16226 3.09073 0
M  V30 9461 H 904.067 1.26616 2.66557 0
M  V30 9462 H 904.148 2.2578 1.20238 0
M  V30 9463 H 903.792 4.34755 2.62585 0
M  V30 9464 H 903.722 3.32534 4.08324 0
M  V30 9465 H 906.213 2.68563 2.65861 0
M  V30 9466 H 906.526 5.91397 4.97463 0
M  V30 9467 H 904.871 5.31412 4.47914 0
M  V30 9468 H 908.062 3.38539 3.23278 0
M  V30 9469 H 908.235 4.85739 4.28908 0
M  V30 9470 N 901.641 -1.19671 1.02551 0
M  V30 9471 C 902.573 -2.22215 0.561517 0
M  V30 9472 C 903.586 -1.58751 -0.360821 0
M  V30 9473 O 904.775 -1.77802 -0.157749 0
M  V30 9474 C 901.875 -3.383 -0.201494 0
M  V30 9475 C 901.048 -4.3135 0.724952 0
M  V30 9476 C 900.107 -5.26199 0.00794334 0
M  V30 9477 O 899.133 -5.65665 0.633398 0
M  V30 9478 N 900.335 -5.66573 -1.26394 0
M  V30 9479 H 903.1 -2.6265 1.44343 0
M  V30 9480 H 900.661 -1.34303 0.904122 0
M  V30 9481 H 902.653 -3.98764 -0.690625 0
M  V30 9482 H 901.223 -2.96683 -0.98479 0
M  V30 9483 H 900.443 -3.6872 1.39423 0
M  V30 9484 H 901.731 -4.90433 1.35472 0
M  V30 9485 H 901.129 -5.36538 -1.79287 0
M  V30 9486 H 899.686 -6.29304 -1.69763 0
M  V30 9487 N 903.119 -0.802921 -1.35613 0
M  V30 9488 C 904.365 -0.382141 -1.99167 0
M  V30 9489 C 904.698 1.04704 -1.63556 0
M  V30 9490 O 903.973 1.72578 -0.89706 0
M  V30 9491 C 904.256 -0.561493 -3.55695 0
M  V30 9492 C 904.109 -2.03534 -4.01116 0
M  V30 9493 C 905.428 0.0151135 -4.40097 0
M  V30 9494 H 902.547 -0.140322 -0.723518 0
M  V30 9495 H 905.189 -1.01177 -1.6082 0
M  V30 9496 H 903.339 -0.0255083 -3.88492 0
M  V30 9497 H 905.011 -2.63343 -3.78746 0
M  V30 9498 H 903.254 -2.5331 -3.52159 0
M  V30 9499 H 903.925 -2.11173 -5.1001 0
M  V30 9500 H 906.401 -0.442582 -4.1374 0
M  V30 9501 H 905.277 -0.140316 -5.48721 0
M  V30 9502 H 905.538 1.10848 -4.27978 0
M  V30 9503 N 904.597 1.47463 -0.556102 0
M  V30 9504 C 905.837 2.04372 -0.0339743 0
M  V30 9505 C 906.201 1.42125 1.29091 0
M  V30 9506 O 907.402 1.90074 1.90066 0
M  V30 9507 C 905.673 3.57352 0.0585316 0
M  V30 9508 S 907.232 4.35625 0.526943 0
M  V30 9509 H 904.05 0.710574 -0.0246115 0
M  V30 9510 H 906.652 1.80848 -0.742585 0
M  V30 9511 H 905.356 4.00181 -0.910116 0
M  V30 9512 H 904.887 3.85371 0.790731 0
M  V30 9513 H 906.902 4.62911 1.78683 0
M  V30 9514 N 906.075 0.2925 1.54862 0
M  V30 9515 C 907.007 -0.620889 2.2063 0
M  V30 9516 C 908.02 -1.10412 1.19637 0
M  V30 9517 O 909.209 -1.02304 1.46274 0
M  V30 9518 C 906.309 -1.861 2.83232 0
M  V30 9519 C 905.482 -1.52168 4.10078 0
M  V30 9520 C 904.541 -2.61605 4.56562 0
M  V30 9521 O 903.567 -2.27056 5.21952 0
M  V30 9522 N 904.769 -3.9199 4.28163 0
M  V30 9523 H 907.534 -0.0579028 2.99644 0
M  V30 9524 H 905.095 0.114333 1.61496 0
M  V30 9525 H 907.087 -2.58642 3.11266 0
M  V30 9526 H 905.657 -2.33259 2.08108 0
M  V30 9527 H 904.877 -0.629283 3.89145 0
M  V30 9528 H 906.165 -1.27023 4.92689 0
M  V30 9529 H 905.563 -4.22872 3.7576 0
M  V30 9530 H 904.12 -4.60857 4.60928 0
M  V30 9531 N 907.553 -1.57587 0.0200696 0
M  V30 9532 C 908.516 -2.08595 -0.949767 0
M  V30 9533 C 909.516 -0.999215 -1.25985 0
M  V30 9534 O 910.706 -1.26115 -1.2017 0
M  V30 9535 C 907.838 -2.54424 -2.26895 0
M  V30 9536 H 909.031 -2.95563 -0.508161 0
M  V30 9537 H 906.584 -1.54631 -0.227798 0
M  V30 9538 H 907.319 -1.70758 -2.75703 0
M  V30 9539 H 907.104 -3.3381 -2.05702 0
M  V30 9540 H 908.594 -2.94144 -2.96427 0
M  V30 9541 N 909.032 0.252966 -1.55557 0
M  V30 9542 C 910.443 0.822503 -1.67606 0
M  V30 9543 C 910.794 1.86265 -0.616411 0
M  V30 9544 O 909.919 2.15082 0.238447 0
M  V30 9545 C 910.514 1.49866 -3.03852 0
M  V30 9546 C 909.073 2.01597 -3.17861 0
M  V30 9547 C 908.22 0.864943 -2.63465 0
M  V30 9548 H 911.171 0.0288958 -1.58674 0
M  V30 9549 H 911.192 2.36646 -2.97958 0
M  V30 9550 H 910.704 0.741378 -3.80953 0
M  V30 9551 H 908.805 2.80224 -2.45571 0
M  V30 9552 H 908.918 2.21752 -4.24692 0
M  V30 9553 H 907.282 1.2638 -2.21134 0
M  V30 9554 H 908.065 0.120847 -3.43087 0
M  V30 9555 N 910.51 1.48831 0.518367 0
M  V30 9556 C 911.473 1.63721 1.604 0
M  V30 9557 C 912.473 0.509857 1.52503 0
M  V30 9558 O 913.663 0.775922 1.55965 0
M  V30 9559 C 910.795 1.61831 3.00039 0
M  V30 9560 H 911.988 2.60534 1.48533 0
M  V30 9561 H 909.541 1.37602 0.741309 0
M  V30 9562 H 910.276 0.665387 3.17401 0
M  V30 9563 H 910.061 2.43686 3.0718 0
M  V30 9564 H 911.551 1.75467 3.78947 0
M  V30 9565 N 911.988 -0.768124 1.37614 0
M  V30 9566 C 913.213 -1.56239 1.36397 0
M  V30 9567 C 913.638 -1.8804 -0.0475839 0
M  V30 9568 O 912.996 -1.495 -1.02564 0
M  V30 9569 C 913.044 -2.84716 2.21289 0
M  V30 9570 O 912.148 -3.79249 1.62001 0
M  V30 9571 H 911.489 -0.473119 0.465891 0
M  V30 9572 H 914.019 -0.950415 1.81186 0
M  V30 9573 H 914.029 -3.33784 2.34632 0
M  V30 9574 H 912.704 -2.60899 3.2389 0
M  V30 9575 H 911.281 -3.37904 1.57719 0
M  V30 9576 N 913.466 -1.22244 -0.994698 0
M  V30 9577 C 914.882 -0.982006 -1.25813 0
M  V30 9578 C 915.082 0.325488 -1.98854 0
M  V30 9579 O 914.138 1.04857 -2.29698 0
M  V30 9580 C 915.451 -2.1795 -2.07167 0
M  V30 9581 C 916.999 -2.22287 -2.20358 0
M  V30 9582 C 917.474 -3.41583 -3.05098 0
M  V30 9583 N 918.965 -3.41734 -3.12686 0
M  V30 9584 C 919.7 -4.30692 -3.78539 0
M  V30 9585 N 919.196 -5.29865 -4.46335 0
M  V30 9586 N 920.989 -4.18473 -3.75283 0
M  V30 9587 H 913.14 -2.0631 -0.504963 0
M  V30 9588 H 915.403 -0.90395 -0.285618 0
M  V30 9589 H 915.109 -3.12758 -1.60858 0
M  V30 9590 H 914.983 -2.17862 -3.07922 0
M  V30 9591 H 917.37 -1.28028 -2.65881 0
M  V30 9592 H 917.451 -2.26414 -1.19039 0
M  V30 9593 H 917.095 -4.36141 -2.60275 0
M  V30 9594 H 917.025 -3.34695 -4.06555 0
M  V30 9595 H 919.516 -2.69969 -2.64433 0
M  V30 9596 H 919.829 -5.94027 -4.9432 0
M  V30 9597 H 918.174 -5.3378 -4.45089 0
M  V30 9598 H 921.365 -3.40249 -3.21478 0
M  V30 9599 H 921.538 -4.88007 -4.26326 0
M  V30 9600 N 914.944 1.19125 -1.03184 0
M  V30 9601 C 915.907 2.20662 -0.619766 0
M  V30 9602 C 916.907 1.57621 0.318179 0
M  V30 9603 O 918.097 1.73885 0.104783 0
M  V30 9604 C 915.229 3.40774 0.0926696 0
M  V30 9605 H 916.422 2.58633 -1.5182 0
M  V30 9606 H 913.975 1.32855 -0.823364 0
M  V30 9607 H 914.71 3.08324 1.00531 0
M  V30 9608 H 914.495 3.87766 -0.581344 0
M  V30 9609 H 915.985 4.15977 0.367792 0
M  V30 9610 N 916.422 0.810101 1.35185 0
M  V30 9611 C 917.647 0.40364 2.03434 0
M  V30 9612 C 918.072 -0.97857 1.60641 0
M  V30 9613 O 917.43 -1.63435 0.784779 0
M  V30 9614 C 917.478 0.499154 3.57129 0
M  V30 9615 O 916.582 -0.486039 4.09526 0
M  V30 9616 H 915.923 0.168049 0.642383 0
M  V30 9617 H 918.453 1.09696 1.72708 0
M  V30 9618 H 918.463 0.370236 4.06317 0
M  V30 9619 H 917.138 1.50733 3.87624 0
M  V30 9620 H 915.715 -0.31707 3.7155 0
M  V30 9621 N 917.9 -1.47166 0.563914 0
M  V30 9622 C 919.316 -1.58018 0.224173 0
M  V30 9623 C 919.516 -1.56163 -1.27339 0
M  V30 9624 O 918.572 -1.4686 -2.05398 0
M  V30 9625 C 919.885 -2.88236 0.856762 0
M  V30 9626 C 921.433 -3.01833 0.82861 0
M  V30 9627 C 921.908 -4.34761 1.44039 0
M  V30 9628 N 923.399 -4.41413 1.40388 0
M  V30 9629 C 924.134 -5.42845 1.84681 0
M  V30 9630 N 923.63 -6.51052 2.3686 0
M  V30 9631 N 925.423 -5.33931 1.75711 0
M  V30 9632 H 917.574 -1.46615 1.53681 0
M  V30 9633 H 919.837 -0.698195 0.64127 0
M  V30 9634 H 919.543 -2.95349 1.90949 0
M  V30 9635 H 919.417 -3.75537 0.353766 0
M  V30 9636 H 921.804 -2.94312 -0.215451 0
M  V30 9637 H 921.885 -2.16056 1.36943 0
M  V30 9638 H 921.529 -4.43037 2.48355 0
M  V30 9639 H 921.459 -5.1928 0.874953 0
M  V30 9640 H 923.95 -3.63811 1.02227 0
M  V30 9641 H 924.263 -7.24633 2.68564 0
M  V30 9642 H 922.608 -6.51924 2.40875 0
M  V30 9643 H 925.799 -4.48295 1.34718 0
M  V30 9644 H 925.972 -6.12841 2.10547 0
M  V30 9645 N 919.378 -0.300708 -1.54705 0
M  V30 9646 C 920.626 0.308044 -1.99739 0
M  V30 9647 C 920.947 1.54433 -1.19061 0
M  V30 9648 O 920.217 1.93794 -0.286507 0
M  V30 9649 H 918.797 0.116811 -0.73781 0
M  V30 9650 H 921.459 -0.41197 -1.90496 0
M  V30 9651 H 920.555 0.580287 -3.06658 0
M  V30 9652 N 920.856 1.57574 -0.0284266 0
M  V30 9653 C 922.104 1.91393 0.649079 0
M  V30 9654 C 922.425 0.905368 1.72708 0
M  V30 9655 O 921.695 -0.0532107 1.95828 0
M  V30 9656 H 920.275 0.70646 0.24274 0
M  V30 9657 H 922.937 1.94752 -0.076066 0
M  V30 9658 H 922.033 2.91988 1.10226 0
M  V30 9659 N 922.334 -0.244713 1.55689 0
M  V30 9660 C 923.264 -1.30667 1.93516 0
M  V30 9661 C 924.245 -1.50094 0.800371 0
M  V30 9662 O 925.43 -1.62665 1.06083 0
M  V30 9663 C 922.56 -2.66101 2.23176 0
M  V30 9664 C 921.514 -2.61366 3.38927 0
M  V30 9665 C 920.84 -4.00616 3.54134 0
M  V30 9666 C 922.14 -2.18161 4.74555 0
M  V30 9667 H 923.834 -0.992546 2.82469 0
M  V30 9668 H 921.38 -0.476018 1.35905 0
M  V30 9669 H 923.333 -3.4053 2.48228 0
M  V30 9670 H 922.057 -2.99154 1.31051 0
M  V30 9671 H 920.716 -1.89395 3.13887 0
M  V30 9672 H 920.364 -4.30938 2.59426 0
M  V30 9673 H 920.064 -3.98335 4.31975 0
M  V30 9674 H 921.588 -4.76741 3.8151 0
M  V30 9675 H 923.002 -2.82323 4.98965 0
M  V30 9676 H 921.399 -2.26988 5.55515 0
M  V30 9677 H 922.469 -1.13333 4.7147 0
M  V30 9678 N 923.813 -1.49104 -0.510467 0
M  V30 9679 C 925.038 -1.62068 -1.29417 0
M  V30 9680 C 925.463 -0.288432 -1.85875 0
M  V30 9681 O 924.821 0.742667 -1.65391 0
M  V30 9682 C 924.869 -2.68506 -2.40701 0
M  V30 9683 O 923.973 -2.27021 -3.4429 0
M  V30 9684 H 923.314 -0.542778 -0.382476 0
M  V30 9685 H 925.844 -1.95228 -0.612154 0
M  V30 9686 H 925.854 -2.90383 -2.86604 0
M  V30 9687 H 924.529 -3.65216 -1.98973 0
M  V30 9688 H 923.106 -2.15436 -3.04371 0
M  V30 9689 N 925.291 0.760815 -1.38019 0
M  V30 9690 C 926.702 1.33773 -1.30237 0
M  V30 9691 C 927.053 1.96148 0.0451153 0
M  V30 9692 O 926.178 1.94574 0.9471 0
M  V30 9693 C 926.773 2.43227 -2.35851 0
M  V30 9694 C 925.332 2.96659 -2.31669 0
M  V30 9695 C 924.479 1.69972 -2.191 0
M  V30 9696 H 927.43 0.560237 -1.48482 0
M  V30 9697 H 927.451 3.22985 -2.01149 0
M  V30 9698 H 926.963 1.978 -3.33911 0
M  V30 9699 H 925.064 3.46433 -1.37167 0
M  V30 9700 H 925.177 3.51529 -3.25521 0
M  V30 9701 H 923.541 1.9332 -1.65829 0
M  V30 9702 H 924.324 1.26633 -3.19091 0
M  V30 9703 N 926.769 1.22769 0.988202 0
M  V30 9704 C 928.016 1.05509 1.72841 0
M  V30 9705 C 928.344 -0.409145 1.90148 0
M  V30 9706 O 927.599 -1.3195 1.44526 0
M  V30 9707 C 927.898 1.71679 3.13466 0
M  V30 9708 C 927.564 3.21584 3.16061 0
M  V30 9709 C 926.226 3.62486 3.16476 0
M  V30 9710 C 928.578 4.17511 3.11984 0
M  V30 9711 C 925.906 4.97789 3.10521 0
M  V30 9712 C 928.258 5.52796 3.0757 0
M  V30 9713 C 926.922 5.93072 3.06304 0
M  V30 9714 H 926.192 0.386085 0.632471 0
M  V30 9715 H 928.839 1.52596 1.157 0
M  V30 9716 H 927.144 1.1693 3.73945 0
M  V30 9717 H 928.841 1.55809 3.69492 0
M  V30 9718 H 925.431 2.89019 3.1649 0
M  V30 9719 H 929.615 3.86926 3.10809 0
M  V30 9720 H 924.871 5.28218 3.07888 0
M  V30 9721 H 929.045 6.26848 3.03372 0
M  V30 9722 H 926.672 6.97879 3.01444 0
M  V30 9723 N 928.247 -1.18576 1.03814 0
M  V30 9724 C 929.197 -2.20034 0.597409 0
M  V30 9725 C 930.181 -1.56849 -0.358796 0
M  V30 9726 O 931.373 -1.761 -0.178262 0
M  V30 9727 C 928.502 -3.43276 -0.0407965 0
M  V30 9728 C 927.588 -4.13588 0.938404 0
M  V30 9729 N 927.979 -4.59941 2.10447 0
M  V30 9730 C 926.277 -4.3941 0.763853 0
M  V30 9731 C 926.978 -5.1404 2.72282 0
M  V30 9732 N 925.954 -5.05401 2.00176 0
M  V30 9733 H 929.756 -2.53562 1.48606 0
M  V30 9734 H 927.27 -1.34753 0.906384 0
M  V30 9735 H 929.267 -4.15217 -0.374222 0
M  V30 9736 H 927.927 -3.11245 -0.925014 0
M  V30 9737 H 928.938 -4.54471 2.48347 0
M  V30 9738 H 925.615 -4.1744 -0.0704869 0
M  V30 9739 H 927.005 -5.60128 3.71088 0
M  V30 9740 N 929.725 -0.817259 -1.34754 0
M  V30 9741 C 930.688 -0.240611 -2.27934 0
M  V30 9742 C 931.688 0.578219 -1.50044 0
M  V30 9743 O 932.878 0.395148 -1.69659 0
M  V30 9744 C 930.01 0.663318 -3.34384 0
M  V30 9745 H 931.203 -1.06257 -2.80445 0
M  V30 9746 H 928.756 -0.588697 -1.4479 0
M  V30 9747 H 929.491 1.50855 -2.87077 0
M  V30 9748 H 929.276 0.0777388 -3.92023 0
M  V30 9749 H 930.766 1.06076 -4.03903 0
M  V30 9750 N 931.203 1.46865 -0.571711 0
M  V30 9751 C 932.614 1.86158 -0.142181 0
M  V30 9752 C 932.965 1.47663 1.2919 0
M  V30 9753 O 932.09 0.886393 1.97413 0
M  V30 9754 C 932.685 3.37867 -0.251256 0
M  V30 9755 C 931.244 3.76198 0.123329 0
M  V30 9756 C 930.391 2.70902 -0.592232 0
M  V30 9757 H 933.342 1.38176 -0.780587 0
M  V30 9758 H 933.363 3.76842 0.526331 0
M  V30 9759 H 932.875 3.65853 -1.2951 0
M  V30 9760 H 930.976 3.53829 1.16773 0
M  V30 9761 H 931.089 4.78471 -0.24533 0
M  V30 9762 H 929.453 2.54678 -0.0336927 0
M  V30 9763 H 930.236 3.01729 -1.63751 0
M  V30 9764 N 932.681 0.308908 1.54543 0
M  V30 9765 C 933.644 -0.550857 2.22482 0
M  V30 9766 C 934.644 -1.0551 1.21344 0
M  V30 9767 O 935.834 -0.949866 1.46025 0
M  V30 9768 C 932.966 -1.76354 2.9174 0
M  V30 9769 H 934.159 0.0428395 2.99869 0
M  V30 9770 H 931.712 0.059825 1.56185 0
M  V30 9771 H 932.447 -2.39686 2.18451 0
M  V30 9772 H 932.232 -1.40954 3.65889 0
M  V30 9773 H 933.722 -2.37417 3.43545 0
M  V30 9774 N 934.159 -1.57557 0.0367827 0
M  V30 9775 C 935.091 -2.07597 -0.971395 0
M  V30 9776 C 936.104 -1.0009 -1.28397 0
M  V30 9777 O 937.293 -1.27692 -1.24728 0
M  V30 9778 C 934.393 -2.492 -2.2968 0
M  V30 9779 C 933.566 -3.79875 -2.16826 0
M  V30 9780 C 932.625 -4.07946 -3.32366 0
M  V30 9781 O 931.651 -4.78083 -3.0891 0
M  V30 9782 N 932.853 -3.58722 -4.56397 0
M  V30 9783 H 935.618 -2.94714 -0.544389 0
M  V30 9784 H 933.179 -1.61205 -0.1498 0
M  V30 9785 H 935.171 -2.65065 -3.05815 0
M  V30 9786 H 933.741 -1.67407 -2.63995 0
M  V30 9787 H 932.961 -3.73732 -1.2537 0
M  V30 9788 H 934.249 -4.65476 -2.0545 0
M  V30 9789 H 933.647 -3.01994 -4.78347 0
M  V30 9790 H 932.204 -3.79852 -5.29675 0
M  V30 9791 N 935.637 0.236453 -1.55816 0
M  V30 9792 C 936.862 0.98449 -1.82545 0
M  V30 9793 C 937.287 1.77755 -0.615206 0
M  V30 9794 O 936.645 1.75982 0.435895 0
M  V30 9795 C 936.693 1.88973 -3.07118 0
M  V30 9796 O 935.797 2.98298 -2.84766 0
M  V30 9797 H 935.138 0.279577 -0.602273 0
M  V30 9798 H 937.668 0.254277 -2.03014 0
M  V30 9799 H 937.678 2.3024 -3.36829 0
M  V30 9800 H 936.353 1.30671 -3.94839 0
M  V30 9801 H 934.93 2.61085 -2.6625 0
M  V30 9802 N 937.115 1.49373 0.502552 0
M  V30 9803 C 938.526 1.52 1.0841 0
M  V30 9804 C 938.877 0.305317 1.9381 0
M  V30 9805 O 938.002 -0.585023 2.08342 0
M  V30 9806 C 938.597 2.75437 1.97281 0
M  V30 9807 C 937.156 2.80848 2.50602 0
M  V30 9808 C 936.303 2.45894 1.28186 0
M  V30 9809 H 939.254 1.56092 0.286533 0
M  V30 9810 H 939.275 2.55511 2.81947 0
M  V30 9811 H 938.787 3.63827 1.35098 0
M  V30 9812 H 936.888 1.96735 3.16427 0
M  V30 9813 H 937.001 3.82979 2.8786 0
M  V30 9814 H 935.365 1.97639 1.60657 0
M  V30 9815 H 936.148 3.36556 0.677139 0
M  V30 9816 N 938.594 -0.753485 1.38421 0
M  V30 9817 C 939.842 -1.50962 1.34368 0
M  V30 9818 C 940.163 -1.94889 -0.0656895 0
M  V30 9819 O 939.433 -1.67652 -1.01339 0
M  V30 9820 H 938.013 -0.559967 0.494415 0
M  V30 9821 H 940.675 -0.895665 1.73101 0
M  V30 9822 H 939.771 -2.40048 1.99458 0
M  V30 9823 N 940.072 -1.23292 -0.981677 0
M  V30 9824 C 941.002 -1.03738 -2.09191 0
M  V30 9825 C 941.983 0.0453041 -1.7004 0
M  V30 9826 O 943.168 -0.119092 -1.93834 0
M  V30 9827 C 940.298 -0.626426 -3.41604 0
M  V30 9828 C 939.252 -1.65631 -3.94652 0
M  V30 9829 C 938.578 -1.10084 -5.23245 0
M  V30 9830 C 939.878 -3.04903 -4.24066 0
M  V30 9831 H 941.572 -1.966 -2.25807 0
M  V30 9832 H 939.118 -0.946656 -1.0851 0
M  V30 9833 H 941.071 -0.476689 -4.18695 0
M  V30 9834 H 939.795 0.337873 -3.24848 0
M  V30 9835 H 938.454 -1.79402 -3.19704 0
M  V30 9836 H 938.102 -0.127562 -5.02838 0
M  V30 9837 H 937.802 -1.78896 -5.59705 0
M  V30 9838 H 939.326 -0.962928 -6.02959 0
M  V30 9839 H 940.74 -2.94441 -4.91912 0
M  V30 9840 H 939.137 -3.70941 -4.71724 0
M  V30 9841 H 940.207 -3.53991 -3.31389 0
M  V30 9842 N 941.55 1.18024 -1.04442 0
M  V30 9843 C 942.5 2.19714 -0.609069 0
M  V30 9844 C 943.484 1.57037 0.350473 0
M  V30 9845 O 944.676 1.76192 0.16892 0
M  V30 9846 C 941.805 3.43293 0.0225911 0
M  V30 9847 C 940.891 4.13084 -0.960325 0
M  V30 9848 N 941.282 4.58819 -2.12883 0
M  V30 9849 C 939.58 4.38999 -0.787146 0
M  V30 9850 C 940.281 5.12589 -2.75004 0
M  V30 9851 N 939.257 5.04333 -2.02853 0
M  V30 9852 H 943.059 2.5277 -1.49948 0
M  V30 9853 H 940.573 1.34271 -0.913517 0
M  V30 9854 H 942.57 4.1541 0.352196 0
M  V30 9855 H 941.23 3.11731 0.908495 0
M  V30 9856 H 942.241 4.53148 -2.50754 0
M  V30 9857 H 938.918 4.17472 0.048348 0
M  V30 9858 H 940.308 5.58152 -3.74053 0
M  V30 9859 N 943.028 0.824394 1.34319 0
M  V30 9860 C 944.276 0.41235 1.97849 0
M  V30 9861 C 944.597 -1.02841 1.65677 0
M  V30 9862 O 943.867 -1.71421 0.948245 0
M  V30 9863 H 942.447 0.149486 0.73189 0
M  V30 9864 H 945.109 1.05416 1.63931 0
M  V30 9865 H 944.205 0.532557 3.07523 0
M  V30 9866 N 944.506 -1.46559 0.579492 0
M  V30 9867 C 945.754 -2.02 0.0637157 0
M  V30 9868 C 946.075 -1.45378 -1.29962 0
M  V30 9869 O 945.345 -0.637262 -1.85245 0
M  V30 9870 H 943.925 -0.746717 0.0205638 0
M  V30 9871 H 946.587 -1.79702 0.754544 0
M  V30 9872 H 945.683 -3.12099 -0.00770254 0
M  V30 9873 N 945.984 -0.3171 -1.54377 0
M  V30 9874 C 946.947 0.53905 -2.22771 0
M  V30 9875 C 947.947 1.04865 -1.21901 0
M  V30 9876 O 949.137 0.942108 -1.46526 0
M  V30 9877 C 946.269 1.74804 -2.92671 0
M  V30 9878 H 947.462 -0.0587417 -2.99842 0
M  V30 9879 H 945.015 -0.068107 -1.56152 0
M  V30 9880 H 945.75 2.38524 -2.1972 0
M  V30 9881 H 945.535 1.39011 -3.66631 0
M  V30 9882 H 947.025 2.35592 -3.44799 0
M  V30 9883 N 947.462 1.57535 -0.0451378 0
M  V30 9884 C 948.425 2.1008 0.916461 0
M  V30 9885 C 949.425 1.01913 1.2438 0
M  V30 9886 O 950.615 1.2801 1.18148 0
M  V30 9887 C 947.747 2.58001 2.22818 0
M  V30 9888 H 948.94 2.96334 0.461076 0
M  V30 9889 H 946.493 1.54974 0.203169 0
M  V30 9890 H 947.228 1.75123 2.72951 0
M  V30 9891 H 947.013 3.3704 2.00366 0
M  V30 9892 H 948.503 2.98822 2.9171 0
M  V30 9893 N 948.94 -0.228186 1.55939 0
M  V30 9894 C 950.188 -0.951668 1.78291 0
M  V30 9895 C 950.509 -1.85132 0.612474 0
M  V30 9896 O 949.779 -1.92356 -0.370942 0
M  V30 9897 H 948.359 -0.354388 0.657585 0
M  V30 9898 H 951.021 -0.241635 1.93396 0
M  V30 9899 H 950.117 -1.56239 2.70177 0
M  V30 9900 N 950.418 -1.49637 -0.494624 0
M  V30 9901 C 951.643 -1.63431 -1.27691 0
M  V30 9902 C 952.068 -0.30813 -1.85559 0
M  V30 9903 O 951.426 0.725083 -1.66169 0
M  V30 9904 C 951.474 -2.71043 -2.3784 0
M  V30 9905 O 950.578 -2.3066 -3.41862 0
M  V30 9906 H 949.919 -0.546804 -0.376698 0
M  V30 9907 H 952.449 -1.95866 -0.591413 0
M  V30 9908 H 952.459 -2.93406 -2.83508 0
M  V30 9909 H 951.134 -3.67306 -1.95088 0
M  V30 9910 H 949.711 -2.18652 -3.02069 0
M  V30 9911 N 951.896 0.746133 -1.38819 0
M  V30 9912 C 953.312 1.0502 -1.20179 0
M  V30 9913 C 953.512 2.01423 -0.0556271 0
M  V30 9914 O 952.568 2.45359 0.59625 0
M  V30 9915 C 953.881 1.62315 -2.53129 0
M  V30 9916 C 955.429 1.74449 -2.59878 0
M  V30 9917 C 955.904 2.35155 -3.93022 0
M  V30 9918 N 957.395 2.42577 -3.94602 0
M  V30 9919 C 958.13 2.9046 -4.94389 0
M  V30 9920 N 957.626 3.38322 -6.04574 0
M  V30 9921 N 959.419 2.89568 -4.81775 0
M  V30 9922 H 951.57 0.106551 -2.12133 0
M  V30 9923 H 953.833 0.109897 -0.941609 0
M  V30 9924 H 953.539 0.98946 -3.37495 0
M  V30 9925 H 953.413 2.61276 -2.72057 0
M  V30 9926 H 955.8 2.36943 -1.75903 0
M  V30 9927 H 955.881 0.741721 -2.4481 0
M  V30 9928 H 955.525 1.73292 -4.77422 0
M  V30 9929 H 955.455 3.36088 -4.05404 0
M  V30 9930 H 957.946 2.08735 -3.15021 0
M  V30 9931 H 958.259 3.73336 -6.76639 0
M  V30 9932 H 956.604 3.3636 -6.08184 0
M  V30 9933 H 959.795 2.51492 -3.94803 0
M  V30 9934 H 959.968 3.26571 -5.59692 0
M  V30 9935 N 953.375 1.23811 0.975125 0
M  V30 9936 C 954.285 1.0408 2.10249 0
M  V30 9937 C 955.301 -0.0162404 1.73992 0
M  V30 9938 O 956.477 0.180346 2.00591 0
M  V30 9939 C 953.542 0.640013 3.40741 0
M  V30 9940 C 952.603 1.7727 3.90991 0
M  V30 9941 C 951.836 1.39094 5.15256 0
M  V30 9942 O 952.059 0.277483 5.69725 0
M  V30 9943 O 950.993 2.21392 5.59704 0
M  V30 9944 H 954.819 1.98575 2.29786 0
M  V30 9945 H 952.404 1.02563 1.08633 0
M  V30 9946 H 954.286 0.427684 4.19224 0
M  V30 9947 H 952.961 -0.27589 3.22522 0
M  V30 9948 H 951.868 2.03971 3.13602 0
M  V30 9949 H 953.201 2.66711 4.13674 0
M  V30 9950 N 954.853 -1.17469 1.05066 0
M  V30 9951 C 956.101 -1.87327 0.758485 0
M  V30 9952 C 956.422 -1.81358 -0.716549 0
M  V30 9953 O 955.692 -1.23868 -1.51768 0
M  V30 9954 H 954.272 -0.693512 0.277579 0
M  V30 9955 H 956.934 -1.4251 1.32954 0
M  V30 9956 H 956.03 -2.93101 1.0723 0
M  V30 9957 N 956.331 -0.831506 -1.3388 0
M  V30 9958 C 957.577 -0.433509 -1.98727 0
M  V30 9959 C 957.932 0.994508 -1.64704 0
M  V30 9960 O 957.225 1.68458 -0.912815 0
M  V30 9961 C 957.419 -0.582733 -3.52617 0
M  V30 9962 C 957.248 -2.0237 -4.01592 0
M  V30 9963 C 956.018 -2.6574 -4.29779 0
M  V30 9964 C 958.216 -2.99152 -4.18345 0
M  V30 9965 N 956.198 -4.00988 -4.64846 0
M  V30 9966 C 957.569 -4.19329 -4.56687 0
M  V30 9967 C 959.624 -2.95655 -4.00615 0
M  V30 9968 C 958.327 -5.36475 -4.79152 0
M  V30 9969 C 960.353 -4.12025 -4.24252 0
M  V30 9970 C 959.715 -5.30955 -4.62889 0
M  V30 9971 H 955.814 -0.20691 -0.75413 0
M  V30 9972 H 958.398 -1.07802 -1.62132 0
M  V30 9973 H 956.569 0.0319301 -3.88387 0
M  V30 9974 H 958.301 -0.156899 -4.04396 0
M  V30 9975 H 955.056 -2.16923 -4.21 0
M  V30 9976 H 955.48 -4.7069 -4.86601 0
M  V30 9977 H 960.122 -2.04842 -3.69864 0
M  V30 9978 H 957.84 -6.27839 -5.08767 0
M  V30 9979 H 961.426 -4.10728 -4.1206 0
M  V30 9980 H 960.306 -6.19504 -4.80817 0
M  V30 9981 N 957.809 1.4625 -0.587256 0
M  V30 9982 C 959.034 2.07252 -0.0784517 0
M  V30 9983 C 959.459 1.43239 1.21919 0
M  V30 9984 O 958.817 0.517791 1.73749 0
M  V30 9985 C 958.865 3.60534 0.0691037 0
M  V30 9986 O 957.969 3.96773 1.12448 0
M  V30 9987 H 957.31 0.660825 -0.064859 0
M  V30 9988 H 959.84 1.87819 -0.811491 0
M  V30 9989 H 959.85 4.0708 0.273826 0
M  V30 9990 H 958.525 4.06516 -0.878514 0
M  V30 9991 H 957.102 3.6193 0.897852 0
M  V30 9992 N 959.287 0.325282 1.54207 0
M  V30 9993 C 960.217 -0.532574 2.27345 0
M  V30 9994 C 961.198 -1.11791 1.28206 0
M  V30 9995 O 962.383 -1.14272 1.57021 0
M  V30 9996 C 959.513 -1.69274 3.03255 0
M  V30 9997 C 958.467 -1.23662 4.09746 0
M  V30 9998 C 957.793 -2.48386 4.73506 0
M  V30 9999 C 959.093 -0.350244 5.21124 0
M  V30 10000 H 960.787 0.0775108 2.993 0
M  V30 10001 H 958.333 0.0387193 1.43948 0
M  V30 10002 H 960.286 -2.29917 3.53152 0
M  V30 10003 H 959.01 -2.32944 2.28921 0
M  V30 10004 H 957.669 -0.653106 3.60735 0
M  V30 10005 H 957.317 -3.10424 3.95786 0
M  V30 10006 H 957.017 -2.18558 5.45441 0
M  V30 10007 H 958.541 -3.09789 5.26178 0
M  V30 10008 H 959.955 -0.863011 5.66767 0
M  V30 10009 H 958.352 -0.14466 5.99926 0
M  V30 10010 H 959.422 0.618457 4.8094 0
M  V30 10011 N 960.765 -1.57509 0.0534917 0
M  V30 10012 C 961.695 -2.14698 -0.917999 0
M  V30 10013 C 962.676 -1.06924 -1.32292 0
M  V30 10014 O 963.861 -1.34875 -1.39723 0
M  V30 10015 C 960.991 -2.69383 -2.19203 0
M  V30 10016 C 959.945 -3.82161 -1.9271 0
M  V30 10017 C 959.271 -4.23373 -3.26587 0
M  V30 10018 C 960.571 -5.07199 -1.24686 0
M  V30 10019 H 962.265 -2.96125 -0.44165 0
M  V30 10020 H 959.811 -1.42446 -0.210993 0
M  V30 10021 H 961.764 -3.08031 -2.87567 0
M  V30 10022 H 960.488 -1.85151 -2.69048 0
M  V30 10023 H 959.147 -3.43989 -1.26757 0
M  V30 10024 H 958.795 -3.36089 -3.74237 0
M  V30 10025 H 958.495 -4.99385 -3.09658 0
M  V30 10026 H 960.019 -4.64623 -3.96178 0
M  V30 10027 H 961.433 -5.43279 -1.83088 0
M  V30 10028 H 959.83 -5.88369 -1.18076 0
M  V30 10029 H 960.9 -4.84386 -0.223227 0
M  V30 10030 N 962.243 0.219913 -1.56058 0
M  V30 10031 C 963.153 1.29349 -1.95719 0
M  V30 10032 C 964.169 1.5119 -0.861248 0
M  V30 10033 O 965.345 1.64289 -1.16495 0
M  V30 10034 C 962.41 2.6229 -2.26726 0
M  V30 10035 C 961.471 2.48738 -3.49897 0
M  V30 10036 C 960.704 3.75339 -3.79416 0
M  V30 10037 O 960.927 4.78427 -3.10586 0
M  V30 10038 O 959.861 3.72352 -4.72903 0
M  V30 10039 H 963.687 0.986979 -2.87215 0
M  V30 10040 H 961.272 0.42291 -1.43289 0
M  V30 10041 H 963.154 3.408 -2.47857 0
M  V30 10042 H 961.829 2.92619 -1.38404 0
M  V30 10043 H 960.736 1.68422 -3.34043 0
M  V30 10044 H 962.069 2.23347 -4.38608 0
M  V30 10045 N 963.721 1.49897 0.486681 0
M  V30 10046 C 964.631 1.70379 1.6127 0
M  V30 10047 C 965.647 0.58659 1.63814 0
M  V30 10048 O 966.823 0.863044 1.81971 0
M  V30 10049 C 963.888 1.77911 2.97571 0
M  V30 10050 C 962.949 3.01569 3.0554 0
M  V30 10051 C 962.182 3.08732 4.35339 0
M  V30 10052 O 962.405 2.23099 5.2496 0
M  V30 10053 O 961.339 4.01325 4.48578 0
M  V30 10054 H 965.165 2.65799 1.46916 0
M  V30 10055 H 962.75 1.33808 0.664516 0
M  V30 10056 H 964.632 1.85135 3.78554 0
M  V30 10057 H 963.307 0.856722 3.12157 0
M  V30 10058 H 962.214 2.99854 2.23693 0
M  V30 10059 H 963.547 3.93335 2.95886 0
M  V30 10060 N 965.199 -0.738761 1.39212 0
M  V30 10061 C 966.445 -1.50046 1.36433 0
M  V30 10062 C 966.778 -1.94157 -0.0409474 0
M  V30 10063 O 966.053 -1.66515 -1.00514 0
M  V30 10064 C 966.336 -2.74277 2.33333 0
M  V30 10065 C 966.189 -2.36209 3.82786 0
M  V30 10066 C 967.508 -3.76361 2.28123 0
M  V30 10067 H 964.627 -0.544294 0.496903 0
M  V30 10068 H 967.269 -0.845005 1.70175 0
M  V30 10069 H 965.419 -3.30204 2.04689 0
M  V30 10070 H 967.091 -1.85942 4.22165 0
M  V30 10071 H 965.334 -1.68483 3.99745 0
M  V30 10072 H 966.005 -3.25156 4.46069 0
M  V30 10073 H 968.481 -3.30009 2.53443 0
M  V30 10074 H 967.357 -4.60957 2.9801 0
M  V30 10075 H 967.618 -4.23013 1.28499 0
M  V30 10076 N 966.677 -1.24326 -0.968545 0
M  V30 10077 C 967.607 -1.05951 -2.08079 0
M  V30 10078 C 968.588 0.0272666 -1.70078 0
M  V30 10079 O 969.773 -0.139644 -1.93697 0
M  V30 10080 C 966.903 -0.662623 -3.4092 0
M  V30 10081 C 965.857 -1.69807 -3.92873 0
M  V30 10082 C 965.183 -1.15628 -5.22048 0
M  V30 10083 C 966.483 -3.09383 -4.20808 0
M  V30 10084 H 968.177 -1.98984 -2.23709 0
M  V30 10085 H 965.723 -0.958112 -1.075 0
M  V30 10086 H 967.676 -0.521071 -4.18166 0
M  V30 10087 H 966.4 0.303399 -3.25188 0
M  V30 10088 H 965.059 -1.82783 -3.17783 0
M  V30 10089 H 964.707 -0.180888 -5.02675 0
M  V30 10090 H 964.407 -1.84822 -5.57776 0
M  V30 10091 H 965.931 -1.02683 -6.01904 0
M  V30 10092 H 967.345 -2.99642 -4.88761 0
M  V30 10093 H 965.742 -3.75923 -4.67763 0
M  V30 10094 H 966.812 -3.57486 -3.27616 0
M  V30 10095 N 968.156 1.1691 -1.05688 0
M  V30 10096 C 969.066 2.24735 -0.67315 0
M  V30 10097 C 970.082 1.71252 0.308043 0
M  V30 10098 O 971.258 2.00772 0.158889 0
M  V30 10099 C 968.323 3.4665 -0.059026 0
M  V30 10100 C 967.384 4.15198 -1.0913 0
M  V30 10101 C 966.617 5.31292 -0.50639 0
M  V30 10102 O 966.84 5.663 0.682692 0
M  V30 10103 O 965.774 5.88923 -1.2431 0
M  V30 10104 H 969.6 2.59855 -1.57191 0
M  V30 10105 H 967.185 1.24306 -0.828751 0
M  V30 10106 H 969.067 4.20455 0.282018 0
M  V30 10107 H 967.742 3.13316 0.813304 0
M  V30 10108 H 966.649 3.43389 -1.48442 0
M  V30 10109 H 967.982 4.52571 -1.93495 0
M  V30 10110 N 969.634 0.838594 1.33437 0
M  V30 10111 C 970.566 0.229006 2.28053 0
M  V30 10112 C 971.579 -0.590103 1.51729 0
M  V30 10113 O 972.768 -0.417218 1.73556 0
M  V30 10114 C 969.868 -0.696251 3.31671 0
M  V30 10115 C 969.041 0.0834606 4.3732 0
M  V30 10116 C 968.1 -0.765097 5.20608 0
M  V30 10117 O 967.126 -0.2044 5.68833 0
M  V30 10118 N 968.328 -2.08249 5.4186 0
M  V30 10119 H 971.093 1.04196 2.81004 0
M  V30 10120 H 968.654 0.697031 1.46127 0
M  V30 10121 H 970.646 -1.26889 3.84293 0
M  V30 10122 H 969.216 -1.40992 2.78998 0
M  V30 10123 H 968.436 0.837481 3.85201 0
M  V30 10124 H 969.724 0.619613 5.05013 0
M  V30 10125 H 969.122 -2.56156 5.04381 0
M  V30 10126 H 967.679 -2.60362 5.97541 0
M  V30 10127 N 971.112 -1.45937 0.595003 0
M  V30 10128 C 972.044 -2.28575 -0.169137 0
M  V30 10129 C 973.057 -1.39226 -0.843792 0
M  V30 10130 O 974.246 -1.63716 -0.711291 0
M  V30 10131 C 971.346 -3.14616 -1.25976 0
M  V30 10132 C 970.519 -4.32166 -0.67466 0
M  V30 10133 C 969.578 -4.99511 -1.65456 0
M  V30 10134 O 968.604 -5.56712 -1.18578 0
M  V30 10135 N 969.806 -4.97643 -2.98885 0
M  V30 10136 H 972.571 -2.94797 0.539908 0
M  V30 10137 H 970.132 -1.55985 0.433614 0
M  V30 10138 H 972.124 -3.56534 -1.91483 0
M  V30 10139 H 970.694 -2.50387 -1.8715 0
M  V30 10140 H 969.914 -3.93882 0.158184 0
M  V30 10141 H 971.202 -5.08116 -0.263753 0
M  V30 10142 H 970.6 -4.52438 -3.39583 0
M  V30 10143 H 969.157 -5.43463 -3.59848 0
M  V30 10144 N 972.59 -0.333456 -1.54032 0
M  V30 10145 C 974.006 0.0188405 -1.59589 0
M  V30 10146 C 974.206 1.49615 -1.34972 0
M  V30 10147 O 973.262 2.2535 -1.13901 0
M  V30 10148 C 974.575 -0.408273 -2.97915 0
M  V30 10149 C 976.123 -0.359763 -3.10926 0
M  V30 10150 C 976.598 -0.76219 -4.51613 0
M  V30 10151 N 978.089 -0.715981 -4.57633 0
M  V30 10152 C 978.824 -0.999436 -5.64623 0
M  V30 10153 N 978.32 -1.35053 -6.79509 0
M  V30 10154 N 980.113 -0.924343 -5.54448 0
M  V30 10155 H 972.264 -1.29587 -1.68289 0
M  V30 10156 H 974.527 -0.527584 -0.787629 0
M  V30 10157 H 974.233 -1.43793 -3.20962 0
M  V30 10158 H 974.107 0.221685 -3.76548 0
M  V30 10159 H 976.494 0.660703 -2.87609 0
M  V30 10160 H 976.575 -1.02479 -2.34375 0
M  V30 10161 H 976.219 -1.78062 -4.75664 0
M  V30 10162 H 976.149 -0.0747478 -5.26547 0
M  V30 10163 H 978.64 -0.456875 -3.75128 0
M  V30 10164 H 978.953 -1.55194 -7.57057 0
M  V30 10165 H 977.298 -1.38889 -6.80981 0
M  V30 10166 H 980.489 -0.649469 -4.63573 0
M  V30 10167 H 980.662 -1.1486 -6.37739 0
M  V30 10168 N 974.068 1.57479 -0.061844 0
M  V30 10169 C 974.998 2.15181 0.9066 0
M  V30 10170 C 975.979 1.07624 1.31724 0
M  V30 10171 O 977.164 1.35614 1.39006 0
M  V30 10172 C 974.294 2.70542 2.17771 0
M  V30 10173 C 973.248 3.83178 1.9068 0
M  V30 10174 C 972.574 4.25099 3.24337 0
M  V30 10175 C 973.874 5.07853 1.21994 0
M  V30 10176 H 975.568 2.96355 0.42594 0
M  V30 10177 H 973.114 1.42556 0.203435 0
M  V30 10178 H 975.067 3.09552 2.85929 0
M  V30 10179 H 973.791 1.86575 2.68062 0
M  V30 10180 H 972.45 3.44656 1.24931 0
M  V30 10181 H 972.098 3.38069 3.72449 0
M  V30 10182 H 971.798 5.01021 3.07005 0
M  V30 10183 H 973.322 4.66718 3.93709 0
M  V30 10184 H 974.736 5.44242 1.80204 0
M  V30 10185 H 973.133 5.88987 1.14954 0
M  V30 10186 H 974.203 4.84497 0.197536 0
M  V30 10187 N 975.546 -0.211634 1.56173 0
M  V30 10188 C 976.476 -1.26533 1.96244 0
M  V30 10189 C 977.457 -1.48362 0.832028 0
M  V30 10190 O 978.642 -1.60378 1.0951 0
M  V30 10191 C 975.772 -2.61307 2.2877 0
M  V30 10192 C 974.726 -2.54119 3.44395 0
M  V30 10193 C 974.052 -3.93014 3.62552 0
M  V30 10194 C 975.352 -2.08046 4.79076 0
M  V30 10195 H 977.046 -0.932407 2.84511 0
M  V30 10196 H 974.592 -0.447084 1.36884 0
M  V30 10197 H 976.545 -3.35188 2.55396 0
M  V30 10198 H 975.269 -2.96307 1.37367 0
M  V30 10199 H 973.928 -1.82694 3.17834 0
M  V30 10200 H 973.576 -4.25338 2.68508 0
M  V30 10201 H 973.276 -3.89083 4.40327 0
M  V30 10202 H 974.8 -4.68542 3.91537 0
M  V30 10203 H 976.214 -2.71676 5.04842 0
M  V30 10204 H 974.611 -2.15154 5.60204 0
M  V30 10205 H 975.681 -1.03306 4.73768 0
M  V30 10206 N 977.024 -1.50153 -0.478725 0
M  V30 10207 C 977.956 -1.64603 -1.59494 0
M  V30 10208 C 978.969 -0.527789 -1.54007 0
M  V30 10209 O 980.158 -0.80069 -1.59534 0
M  V30 10210 C 977.258 -1.60738 -2.98356 0
M  V30 10211 C 976.431 -2.88468 -3.28794 0
M  V30 10212 C 975.49 -2.77349 -4.47173 0
M  V30 10213 O 974.516 -3.51302 -4.47857 0
M  V30 10214 N 975.718 -1.9039 -5.4839 0
M  V30 10215 H 978.483 -2.6088 -1.47518 0
M  V30 10216 H 976.044 -1.47521 -0.667011 0
M  V30 10217 H 978.036 -1.50923 -3.75505 0
M  V30 10218 H 976.606 -0.722273 -3.04141 0
M  V30 10219 H 975.826 -3.12467 -2.40329 0
M  V30 10220 H 977.114 -3.73102 -3.45937 0
M  V30 10221 H 976.512 -1.29606 -5.50653 0
M  V30 10222 H 975.069 -1.86484 -6.24553 0
M  V30 10223 N 978.502 0.731368 -1.39602 0
M  V30 10224 C 979.432 1.85855 -1.41351 0
M  V30 10225 C 980.413 1.67839 -0.2764 0
M  V30 10226 O 981.598 1.88104 -0.482747 0
M  V30 10227 C 978.728 3.23644 -1.25983 0
M  V30 10228 C 977.682 3.56304 -2.37132 0
M  V30 10229 C 977.008 4.93069 -2.0685 0
M  V30 10230 C 978.308 3.58906 -3.79452 0
M  V30 10231 H 980.002 1.84648 -2.3568 0
M  V30 10232 H 977.548 0.886955 -1.13442 0
M  V30 10233 H 979.501 4.02176 -1.25826 0
M  V30 10234 H 978.225 3.25387 -0.281234 0
M  V30 10235 H 976.884 2.80104 -2.36511 0
M  V30 10236 H 976.532 4.91396 -1.0742 0
M  V30 10237 H 976.232 5.15888 -2.81306 0
M  V30 10238 H 977.756 5.73953 -2.0835 0
M  V30 10239 H 979.17 4.27508 -3.81982 0
M  V30 10240 H 977.567 3.93246 -4.53297 0
M  V30 10241 H 978.637 2.58631 -4.10168 0
M  V30 10242 N 979.98 1.24838 0.961938 0
M  V30 10243 C 980.912 1.00369 2.06055 0
M  V30 10244 C 981.925 -0.0288583 1.62774 0
M  V30 10245 O 983.114 0.208853 1.77274 0
M  V30 10246 C 980.214 0.493953 3.35281 0
M  V30 10247 C 979.387 1.59097 4.07439 0
M  V30 10248 C 978.446 1.08288 5.14937 0
M  V30 10249 O 977.472 1.77577 5.40791 0
M  V30 10250 N 978.674 -0.0796836 5.80445 0
M  V30 10251 H 981.439 1.94962 2.27618 0
M  V30 10252 H 979 1.15945 1.12997 0
M  V30 10253 H 980.992 0.138675 4.04462 0
M  V30 10254 H 979.562 -0.357851 3.10545 0
M  V30 10255 H 978.782 2.11817 3.32456 0
M  V30 10256 H 980.07 2.32817 4.52409 0
M  V30 10257 H 979.468 -0.658827 5.6185 0
M  V30 10258 H 978.025 -0.376057 6.50714 0
M  V30 10259 N 981.458 -1.16348 1.06306 0
M  V30 10260 C 982.408 -2.18717 0.643947 0
M  V30 10261 C 983.392 -1.57574 -0.325445 0
M  V30 10262 O 984.584 -1.76439 -0.140868 0
M  V30 10263 C 981.713 -3.43285 0.0320266 0
M  V30 10264 C 980.799 -4.11504 1.02592 0
M  V30 10265 N 981.19 -4.55374 2.20155 0
M  V30 10266 C 979.488 -4.37691 0.856887 0
M  V30 10267 C 980.189 -5.08149 2.83124 0
M  V30 10268 N 979.165 -5.01042 2.10851 0
M  V30 10269 H 982.967 -2.50353 1.53951 0
M  V30 10270 H 980.481 -1.328 0.934763 0
M  V30 10271 H 982.478 -4.15917 -0.286064 0
M  V30 10272 H 981.138 -3.13137 -0.858786 0
M  V30 10273 H 982.149 -4.49101 2.57931 0
M  V30 10274 H 978.826 -4.17496 0.0180742 0
M  V30 10275 H 980.216 -5.52131 3.82885 0
M  V30 10276 N 982.937 -0.845659 -1.3299 0
M  V30 10277 C 983.887 -0.2557 -2.26562 0
M  V30 10278 C 984.871 0.593245 -1.49564 0
M  V30 10279 O 986.063 0.444101 -1.71338 0
M  V30 10280 C 983.192 0.562573 -3.38659 0
M  V30 10281 C 982.278 -0.298259 -4.2305 0
M  V30 10282 N 982.669 -1.38023 -4.86604 0
M  V30 10283 C 980.967 -0.0864539 -4.45916 0
M  V30 10284 C 981.668 -1.90907 -5.49481 0
M  V30 10285 N 980.644 -1.20955 -5.29973 0
M  V30 10286 H 984.446 -1.083 -2.73219 0
M  V30 10287 H 981.96 -0.690823 -1.46974 0
M  V30 10288 H 983.957 1.00157 -4.0469 0
M  V30 10289 H 982.617 1.38777 -2.93549 0
M  V30 10290 H 983.628 -1.76314 -4.86964 0
M  V30 10291 H 980.305 0.70475 -4.11509 0
M  V30 10292 H 981.695 -2.81552 -6.10064 0
M  V30 10293 N 984.415 1.45619 -0.602734 0
M  V30 10294 C 985.826 1.85814 -0.181636 0
M  V30 10295 C 986.177 1.5037 1.26029 0
M  V30 10296 O 985.302 0.928068 1.95489 0
M  V30 10297 C 985.897 3.37258 -0.322866 0
M  V30 10298 C 984.456 3.76375 0.043504 0
M  V30 10299 C 983.603 2.69585 -0.649561 0
M  V30 10300 H 986.554 1.36489 -0.809721 0
M  V30 10301 H 986.575 3.77874 0.446279 0
M  V30 10302 H 986.087 3.63024 -1.37241 0
M  V30 10303 H 984.188 3.56226 1.09241 0
M  V30 10304 H 984.301 4.77843 -0.346765 0
M  V30 10305 H 982.665 2.54549 -0.087706 0
M  V30 10306 H 983.448 2.98188 -1.70115 0
M  V30 10307 N 985.893 0.34162 1.53853 0
M  V30 10308 C 986.856 -0.503541 2.236 0
M  V30 10309 C 987.856 -1.02912 1.23554 0
M  V30 10310 O 989.046 -0.918678 1.48007 0
M  V30 10311 C 986.178 -1.70126 2.95415 0
M  V30 10312 H 987.371 0.106437 2.99711 0
M  V30 10313 H 984.924 0.0929408 1.56023 0
M  V30 10314 H 985.659 -2.34999 2.23486 0
M  V30 10315 H 985.444 -1.33161 3.68796 0
M  V30 10316 H 986.934 -2.30077 3.48503 0
M  V30 10317 N 987.371 -1.57444 0.0701946 0
M  V30 10318 C 988.334 -2.11511 -0.882923 0
M  V30 10319 C 989.334 -1.03879 -1.22743 0
M  V30 10320 O 990.524 -1.29874 -1.16097 0
M  V30 10321 C 987.656 -2.61514 -2.18686 0
M  V30 10322 H 988.849 -2.9703 -0.413873 0
M  V30 10323 H 986.402 -1.55278 -0.178488 0
M  V30 10324 H 987.137 -1.79443 -2.70131 0
M  V30 10325 H 986.922 -3.40185 -1.94978 0
M  V30 10326 H 988.412 -3.03425 -2.86919 0
M  V30 10327 N 988.849 0.203349 -1.56283 0
M  V30 10328 C 989.812 1.23566 -1.93039 0
M  V30 10329 C 990.812 1.38869 -0.810687 0
M  V30 10330 O 992.002 1.36822 -1.07821 0
M  V30 10331 C 989.134 2.60645 -2.1972 0
M  V30 10332 H 990.327 0.921692 -2.85385 0
M  V30 10333 H 987.88 0.44453 -1.49845 0
M  V30 10334 H 988.615 2.9711 -1.29985 0
M  V30 10335 H 988.4 2.50911 -3.01307 0
M  V30 10336 H 989.89 3.35103 -2.4919 0
M  V30 10337 N 990.327 1.50405 0.470755 0
M  V30 10338 C 991.738 1.54266 1.05162 0
M  V30 10339 C 992.089 0.346359 1.93119 0
M  V30 10340 O 991.214 -0.540699 2.09536 0
M  V30 10341 C 991.809 2.7956 1.91394 0
M  V30 10342 C 990.368 2.86101 2.44588 0
M  V30 10343 C 989.515 2.48557 1.22941 0
M  V30 10344 H 992.466 1.56665 0.253359 0
M  V30 10345 H 992.487 2.61434 2.76464 0
M  V30 10346 H 991.999 3.66611 1.27351 0
M  V30 10347 H 990.1 2.03403 3.12183 0
M  V30 10348 H 990.213 3.88999 2.79672 0
M  V30 10349 H 988.577 2.01003 1.56429 0
M  V30 10350 H 989.36 3.37916 0.605598 0
M  V30 10351 N 991.805 -0.723954 1.39988 0
M  V30 10352 C 993.053 -1.48078 1.3754 0
M  V30 10353 C 993.374 -1.94985 -0.0243358 0
M  V30 10354 O 992.644 -1.69764 -0.977602 0
M  V30 10355 H 991.224 -0.549354 0.506181 0
M  V30 10356 H 993.886 -0.858746 1.74962 0
M  V30 10357 H 992.982 -2.35763 2.04505 0
M  V30 10358 N 993.283 -1.25346 -0.955304 0
M  V30 10359 C 994.523 -1.11259 -1.71467 0
M  V30 10360 C 994.887 0.340759 -1.88952 0
M  V30 10361 O 996.088 0.60344 -2.61939 0
M  V30 10362 C 994.359 -1.84541 -3.06071 0
M  V30 10363 S 995.918 -1.86337 -3.97271 0
M  V30 10364 H 992.736 -0.397683 -0.58938 0
M  V30 10365 H 995.338 -1.58861 -1.13945 0
M  V30 10366 H 994.042 -2.89377 -2.91014 0
M  V30 10367 H 993.573 -1.37323 -3.68654 0
M  V30 10368 H 995.588 -0.939925 -4.87216 0
M  V30 10369 N 994.761 1.15782 -1.06922 0
M  V30 10370 C 995.986 1.90896 -0.810771 0
M  V30 10371 C 996.411 1.77246 0.629714 0
M  V30 10372 O 995.769 1.10215 1.43953 0
M  V30 10373 C 995.817 3.39397 -1.21829 0
M  V30 10374 O 994.921 4.10818 -0.360934 0
M  V30 10375 H 994.262 0.594497 -0.295752 0
M  V30 10376 H 996.792 1.46652 -1.42669 0
M  V30 10377 H 996.802 3.90181 -1.19259 0
M  V30 10378 H 995.477 3.4865 -2.2675 0
M  V30 10379 H 994.054 3.7019 -0.448748 0
M  V30 10380 N 996.239 0.8527 1.3254 0
M  V30 10381 C 997.171 0.253181 2.27797 0
M  V30 10382 C 998.184 -0.573977 1.52346 0
M  V30 10383 O 999.373 -0.398786 1.73988 0
M  V30 10384 C 996.473 -0.661034 3.32391 0
M  V30 10385 C 995.646 0.12984 4.37207 0
M  V30 10386 C 994.705 -0.709837 5.2139 0
M  V30 10387 O 993.731 -0.144056 5.69018 0
M  V30 10388 N 994.933 -2.0249 5.44039 0
M  V30 10389 H 997.698 1.07171 2.79883 0
M  V30 10390 H 995.259 0.712491 1.45379 0
M  V30 10391 H 997.251 -1.22806 3.85617 0
M  V30 10392 H 995.821 -1.38025 2.80478 0
M  V30 10393 H 995.041 0.878289 3.84291 0
M  V30 10394 H 996.329 0.673141 5.04328 0
M  V30 10395 H 995.727 -2.50792 5.0707 0
M  V30 10396 H 994.284 -2.5401 6.00269 0
M  V30 10397 N 997.718 -1.45297 0.610449 0
M  V30 10398 C 998.681 -2.28995 -0.0968194 0
M  V30 10399 C 999.681 -1.39923 -0.792353 0
M  V30 10400 O 1000.87 -1.62014 -0.64008 0
M  V30 10401 C 998.003 -3.21013 -1.14731 0
M  V30 10402 H 999.196 -2.93012 0.639082 0
M  V30 10403 H 996.749 -1.51867 0.369624 0
M  V30 10404 H 997.484 -2.61803 -1.91388 0
M  V30 10405 H 997.269 -3.86628 -0.652753 0
M  V30 10406 H 998.759 -3.8394 -1.64256 0
M  V30 10407 N 999.196 -0.349774 -1.5367 0
M  V30 10408 C 1000.61 0.132815 -1.86227 0
M  V30 10409 C 1000.96 1.49479 -1.27084 0
M  V30 10410 O 1000.08 2.08292 -0.58679 0
M  V30 10411 C 1000.68 0.247775 -3.37893 0
M  V30 10412 C 999.237 0.674603 -3.70305 0
M  V30 10413 C 998.384 -0.187869 -2.76663 0
M  V30 10414 H 1001.33 -0.569148 -1.48143 0
M  V30 10415 H 1001.36 1.07418 -3.65023 0
M  V30 10416 H 1000.87 -0.743635 -3.80909 0
M  V30 10417 H 998.969 1.67481 -3.32837 0
M  V30 10418 H 999.082 0.460177 -4.76885 0
M  V30 10419 H 997.446 0.340779 -2.5241 0
M  V30 10420 H 998.229 -1.17653 -3.2251 0
M  V30 10421 N 1000.67 1.57404 -0.0785433 0
M  V30 10422 C 1001.61 2.101 0.916013 0
M  V30 10423 C 1002.62 1.03459 1.25698 0
M  V30 10424 O 1003.81 1.30954 1.21299 0
M  V30 10425 C 1000.91 2.55202 2.22992 0
M  V30 10426 C 1000.08 3.85491 2.06678 0
M  V30 10427 C 999.14 4.16614 3.21433 0
M  V30 10428 O 998.166 4.86105 2.96126 0
M  V30 10429 N 999.368 3.70697 4.46726 0
M  V30 10430 H 1002.13 2.96054 0.466059 0
M  V30 10431 H 999.694 1.61546 0.107006 0
M  V30 10432 H 1001.69 2.7308 2.9868 0
M  V30 10433 H 1000.26 1.74348 2.59464 0
M  V30 10434 H 999.476 3.76925 1.15417 0
M  V30 10435 H 1000.76 4.70759 1.93036 0
M  V30 10436 H 1000.16 3.14571 4.70172 0
M  V30 10437 H 998.719 3.93762 5.19418 0
M  V30 10438 N 1002.15 -0.195058 1.56388 0
M  V30 10439 C 1003.56 -0.75973 1.70543 0
M  V30 10440 C 1003.91 -1.83849 0.685118 0
M  V30 10441 O 1003.04 -2.15819 -0.158457 0
M  V30 10442 C 1003.63 -1.38485 3.09204 0
M  V30 10443 C 1002.19 -1.89661 3.25124 0
M  V30 10444 C 1001.34 -0.766563 2.66494 0
M  V30 10445 H 1004.29 0.0300148 1.58672 0
M  V30 10446 H 1004.31 -2.25424 3.06536 0
M  V30 10447 H 1003.82 -0.599479 3.83442 0
M  V30 10448 H 1001.92 -2.70917 2.55802 0
M  V30 10449 H 1002.04 -2.05837 4.32629 0
M  V30 10450 H 1000.4 -1.18086 2.25672 0
M  V30 10451 H 1001.18 0.00657102 3.43299 0
M  V30 10452 N 1003.63 -1.50653 -0.462772 0
M  V30 10453 C 1004.59 -1.69561 -1.54213 0
M  V30 10454 C 1005.59 -0.566106 -1.50505 0
M  V30 10455 O 1006.78 -0.833273 -1.52978 0
M  V30 10456 C 1003.91 -1.72856 -2.93826 0
M  V30 10457 H 1005.11 -2.65867 -1.38761 0
M  V30 10458 H 1002.66 -1.40259 -0.689728 0
M  V30 10459 H 1003.4 -0.78273 -3.14712 0
M  V30 10460 H 1003.18 -2.54919 -2.97924 0
M  V30 10461 H 1004.67 -1.89411 -3.72174 0
M  V30 10462 N 1005.11 0.71652 -1.4037 0
M  V30 10463 C 1006.52 1.29562 -1.34427 0
M  V30 10464 C 1006.87 1.96192 -0.0173106 0
M  V30 10465 O 1006 1.97488 0.884719 0
M  V30 10466 C 1006.59 2.35601 -2.4347 0
M  V30 10467 C 1005.15 2.89138 -2.4099 0
M  V30 10468 C 1004.3 1.62915 -2.24397 0
M  V30 10469 H 1007.25 0.512715 -1.5019 0
M  V30 10470 H 1007.27 3.16422 -2.11323 0
M  V30 10471 H 1006.78 1.87077 -3.40035 0
M  V30 10472 H 1004.88 3.41894 -1.4812 0
M  V30 10473 H 1004.99 3.40995 -3.3654 0
M  V30 10474 H 1003.36 1.87947 -1.71896 0
M  V30 10475 H 1004.14 1.16417 -3.22958 0
M  V30 10476 N 1006.59 1.25851 0.948643 0
M  V30 10477 C 1007.55 1.0683 2.0278 0
M  V30 10478 C 1008.55 0.0191016 1.60789 0
M  V30 10479 O 1009.74 0.261836 1.72221 0
M  V30 10480 C 1006.87 0.623318 3.35153 0
M  V30 10481 H 1008.06 2.02635 2.21086 0
M  V30 10482 H 1005.62 1.08343 1.12657 0
M  V30 10483 H 1006.35 -0.337053 3.22544 0
M  V30 10484 H 1006.14 1.38082 3.66982 0
M  V30 10485 H 1007.63 0.511854 4.14451 0
M  V30 10486 N 1008.06 -1.15214 1.07534 0
M  V30 10487 C 1009.48 -1.67628 0.822045 0
M  V30 10488 C 1009.83 -1.8503 -0.652571 0
M  V30 10489 O 1008.95 -1.55497 -1.50498 0
M  V30 10490 C 1009.55 -3.04489 1.48566 0
M  V30 10491 C 1008.11 -3.53974 1.27983 0
M  V30 10492 C 1007.25 -2.29656 1.55414 0
M  V30 10493 H 1010.2 -0.994016 1.23713 0
M  V30 10494 H 1010.22 -3.69509 0.907916 0
M  V30 10495 H 1009.74 -2.91792 2.55888 0
M  V30 10496 H 1007.84 -3.71908 0.226906 0
M  V30 10497 H 1007.95 -4.35298 2.0013 0
M  V30 10498 H 1006.31 -2.35289 0.975251 0
M  V30 10499 H 1007.1 -2.19544 2.63923 0
M  V30 10500 N 1009.54 -0.859717 -1.32086 0
M  V30 10501 C 1010.79 -0.465581 -1.97075 0
M  V30 10502 C 1011.12 0.979917 -1.68012 0
M  V30 10503 O 1010.37 1.70337 -0.96353 0
M  V30 10504 C 1010.67 -0.657397 -3.51302 0
M  V30 10505 C 1010.34 -2.07413 -4.00363 0
M  V30 10506 C 1009 -2.4616 -4.13472 0
M  V30 10507 C 1011.35 -2.99855 -4.26305 0
M  V30 10508 C 1008.68 -3.76611 -4.49868 0
M  V30 10509 C 1011.03 -4.2981 -4.64161 0
M  V30 10510 C 1009.7 -4.68485 -4.75476 0
M  V30 10511 H 1008.97 -0.170368 -0.721149 0
M  V30 10512 H 1011.61 -1.09074 -1.57401 0
M  V30 10513 H 1009.92 0.0509638 -3.91767 0
M  V30 10514 H 1011.61 -0.332416 -3.9962 0
M  V30 10515 H 1008.2 -1.76327 -3.90649 0
M  V30 10516 H 1012.39 -2.7115 -4.15682 0
M  V30 10517 H 1007.64 -4.06352 -4.56824 0
M  V30 10518 H 1011.82 -5.015 -4.83188 0
M  V30 10519 H 1009.45 -5.69612 -5.03435 0
M  V30 10520 N 1011.02 1.44971 -0.618145 0
M  V30 10521 C 1012.27 2.02458 -0.117656 0
M  V30 10522 C 1012.6 1.48413 1.25248 0
M  V30 10523 O 1011.87 0.662997 1.82851 0
M  V30 10524 C 1012.16 3.59987 -0.0901897 0
M  V30 10525 C 1012.01 4.24343 -1.49175 0
M  V30 10526 C 1013.33 4.36099 0.592121 0
M  V30 10527 H 1010.45 0.735672 -0.0442291 0
M  V30 10528 H 1013.09 1.727 -0.792138 0
M  V30 10529 H 1011.24 3.85471 0.484175 0
M  V30 10530 H 1012.91 4.10009 -2.114 0
M  V30 10531 H 1011.16 3.82337 -2.04941 0
M  V30 10532 H 1011.83 5.33298 -1.42468 0
M  V30 10533 H 1014.3 4.1597 0.103813 0
M  V30 10534 H 1013.18 5.45822 0.580481 0
M  V30 10535 H 1013.44 4.09746 1.66015 0
M  V30 10536 N 1012.5 0.357919 1.53482 0
M  V30 10537 C 1013.75 -0.235241 2.00324 0
M  V30 10538 C 1014.06 -1.50494 1.24944 0
M  V30 10539 O 1015.27 -2.17623 1.62335 0
M  V30 10540 C 1013.72 -0.469748 3.56821 0
M  V30 10541 C 1013.33 0.784877 4.41071 0
M  V30 10542 C 1015.07 -1.02098 4.12039 0
M  V30 10543 C 1012.98 0.520377 5.89106 0
M  V30 10544 H 1011.91 -0.0916816 0.748405 0
M  V30 10545 H 1014.56 0.475474 1.77233 0
M  V30 10546 H 1012.94 -1.24153 3.76035 0
M  V30 10547 H 1014.12 1.55886 4.33631 0
M  V30 10548 H 1012.43 1.25878 3.96918 0
M  V30 10549 H 1015.03 -1.23406 5.20264 0
M  V30 10550 H 1015.37 -1.98084 3.66154 0
M  V30 10551 H 1015.91 -0.309554 3.96594 0
M  V30 10552 H 1012.65 1.45035 6.39254 0
M  V30 10553 H 1012.17 -0.215254 5.99414 0
M  V30 10554 H 1013.84 0.143006 6.46842 0
M  V30 10555 N 1013.98 -1.5736 0.0868897 0
M  V30 10556 C 1014.94 -2.12436 -0.860439 0
M  V30 10557 C 1015.94 -1.05175 -1.21634 0
M  V30 10558 O 1017.13 -1.31098 -1.14713 0
M  V30 10559 C 1014.26 -2.63818 -2.159 0
M  V30 10560 H 1015.45 -2.97453 -0.382346 0
M  V30 10561 H 1013.01 -1.55458 -0.162009 0
M  V30 10562 H 1013.74 -1.82298 -2.68212 0
M  V30 10563 H 1013.53 -3.42234 -1.91359 0
M  V30 10564 H 1015.02 -3.06452 -2.83685 0
M  V30 10565 N 1015.45 0.186762 -1.56489 0
M  V30 10566 C 1016.87 0.750675 -1.70944 0
M  V30 10567 C 1017.22 1.83483 -0.694858 0
M  V30 10568 O 1016.34 2.159 0.147009 0
M  V30 10569 C 1016.94 1.36843 -3.09934 0
M  V30 10570 C 1015.5 1.87934 -3.26125 0
M  V30 10571 C 1014.64 0.75242 -2.66897 0
M  V30 10572 H 1017.59 -0.0384292 -1.58653 0
M  V30 10573 H 1017.61 2.23795 -3.07727 0
M  V30 10574 H 1017.13 0.579135 -3.83755 0
M  V30 10575 H 1015.23 2.69556 -2.57235 0
M  V30 10576 H 1015.34 2.0354 -4.33715 0
M  V30 10577 H 1013.7 1.16888 -2.26295 0
M  V30 10578 H 1014.49 -0.0247769 -3.43291 0
M  V30 10579 N 1016.93 1.50896 0.454776 0
M  V30 10580 C 1018.17 1.64347 1.21529 0
M  V30 10581 C 1018.54 0.343869 1.88896 0
M  V30 10582 O 1019.74 0.353973 2.66459 0
M  V30 10583 C 1018.01 2.80199 2.21864 0
M  V30 10584 S 1019.57 3.13879 3.06636 0
M  V30 10585 H 1016.39 0.579193 0.412379 0
M  V30 10586 H 1018.99 1.88741 0.509629 0
M  V30 10587 H 1017.69 3.73086 1.70982 0
M  V30 10588 H 1017.22 2.57941 2.97036 0
M  V30 10589 H 1019.24 2.58964 4.23264 0
M  V30 10590 N 1018.41 -0.709066 1.40748 0
M  V30 10591 C 1019.69 -1.4626 1.29874 0
M  V30 10592 C 1020.07 -2.10949 -0.0799322 0
M  V30 10593 O 1019.42 -2.00651 -1.09323 0
M  V30 10594 C 1019.63 -2.49302 2.44232 0
M  V30 10595 C 1020.97 -3.14945 2.84771 0
M  V30 10596 O 1022 -2.59623 2.43873 0
M  V30 10597 O 1020.86 -4.15111 3.5545 0
M  V30 10598 H 1017.95 -0.650716 0.51039 0
M  V30 10599 H 1020.5 -0.740687 1.52682 0
M  V30 10600 H 1019.27 -2.00063 3.36289 0
M  V30 10601 H 1018.89 -3.29021 2.23229 0
M  V30 10602 N 1019.89 -1.26353 -0.941956 0
M  V30 10603 C 1021.14 -1.1163 -1.68473 0
M  V30 10604 C 1021.46 0.34108 -1.91994 0
M  V30 10605 O 1020.73 1.24065 -1.51607 0
M  V30 10606 H 1019.31 -0.410113 -0.624353 0
M  V30 10607 H 1021.97 -1.58669 -1.13182 0
M  V30 10608 H 1021.07 -1.63445 -2.6588 0
M  V30 10609 N 1021.37 1.14642 -1.08144 0
M  V30 10610 C 1022.78 1.6719 -0.830923 0
M  V30 10611 C 1023.13 1.85373 0.642749 0
M  V30 10612 O 1022.25 1.56293 1.49671 0
M  V30 10613 C 1022.85 3.03697 -1.50179 0
M  V30 10614 C 1021.41 3.5329 -1.29858 0
M  V30 10615 C 1020.56 2.28828 -1.5663 0
M  V30 10616 H 1023.51 0.987441 -1.24239 0
M  V30 10617 H 1023.53 3.69023 -0.9275 0
M  V30 10618 H 1023.04 2.90431 -2.57432 0
M  V30 10619 H 1021.14 3.71783 -0.246626 0
M  V30 10620 H 1021.25 4.34231 -2.02436 0
M  V30 10621 H 1019.62 2.34769 -0.987716 0
M  V30 10622 H 1020.4 2.18141 -2.65084 0
M  V30 10623 N 1022.85 0.866709 1.31628 0
M  V30 10624 C 1024.09 0.475086 1.96437 0
M  V30 10625 C 1024.41 -0.975179 1.68865 0
M  V30 10626 O 1023.68 -1.68317 1.0023 0
M  V30 10627 H 1022.26 0.172695 0.726764 0
M  V30 10628 H 1024.93 1.10578 1.60494 0
M  V30 10629 H 1024.02 0.630123 3.05673 0
M  V30 10630 N 1024.32 -1.44642 0.625825 0
M  V30 10631 C 1025.29 -2.29085 -0.072526 0
M  V30 10632 C 1026.29 -1.40755 -0.777467 0
M  V30 10633 O 1027.48 -1.62684 -0.622861 0
M  V30 10634 C 1024.61 -3.22212 -1.1132 0
M  V30 10635 H 1025.8 -2.92317 0.670124 0
M  V30 10636 H 1023.35 -1.51466 0.38571 0
M  V30 10637 H 1024.09 -2.63819 -1.88601 0
M  V30 10638 H 1023.87 -3.87299 -0.611709 0
M  V30 10639 H 1025.36 -3.8566 -1.60175 0
M  V30 10640 N 1025.8 -0.366053 -1.5329 0
M  V30 10641 C 1026.76 0.467904 -2.24373 0
M  V30 10642 C 1027.76 1.00934 -1.25176 0
M  V30 10643 O 1028.95 0.895015 -1.49449 0
M  V30 10644 C 1026.09 1.65405 -2.98084 0
M  V30 10645 H 1027.28 -0.154105 -2.99504 0
M  V30 10646 H 1024.83 -0.117751 -1.55856 0
M  V30 10647 H 1025.57 2.31413 -2.27197 0
M  V30 10648 H 1025.35 1.27277 -3.70868 0
M  V30 10649 H 1026.84 2.24503 -3.52119 0
M  V30 10650 N 1027.28 1.57312 -0.0952337 0
M  V30 10651 C 1028.69 1.81589 0.433875 0
M  V30 10652 C 1029.04 1.01086 1.68155 0
M  V30 10653 O 1028.17 0.240272 2.15062 0
M  V30 10654 C 1028.76 3.29366 0.793931 0
M  V30 10655 C 1027.32 3.54407 1.26778 0
M  V30 10656 C 1026.47 2.76035 0.264518 0
M  V30 10657 H 1029.42 1.55426 -0.320675 0
M  V30 10658 H 1029.44 3.42697 1.65345 0
M  V30 10659 H 1028.95 3.87932 -0.114334 0
M  V30 10660 H 1027.05 3.01173 2.19376 0
M  V30 10661 H 1027.17 4.63055 1.22952 0
M  V30 10662 H 1025.53 2.43509 0.746691 0
M  V30 10663 H 1026.31 3.37349 -0.636429 0
M  V30 10664 N 1028.76 -0.17846 1.56586 0
M  V30 10665 C 1029.69 -1.22342 1.98884 0
M  V30 10666 C 1030.67 -1.46564 0.86331 0
M  V30 10667 O 1031.85 -1.58019 1.12887 0
M  V30 10668 C 1028.98 -2.56396 2.34261 0
M  V30 10669 C 1027.94 -2.46756 3.49708 0
M  V30 10670 C 1027.26 -3.85235 3.70807 0
M  V30 10671 C 1028.56 -1.97838 4.83381 0
M  V30 10672 H 1030.26 -0.871848 2.86425 0
M  V30 10673 H 1027.8 -0.417948 1.37801 0
M  V30 10674 H 1029.76 -3.29695 2.62448 0
M  V30 10675 H 1028.48 -2.93327 1.43621 0
M  V30 10676 H 1027.14 -1.75912 3.21637 0
M  V30 10677 H 1026.79 -4.19547 2.7747 0
M  V30 10678 H 1026.49 -3.79655 4.48481 0
M  V30 10679 H 1028.01 -4.60131 4.01387 0
M  V30 10680 H 1029.43 -2.60906 5.10491 0
M  V30 10681 H 1027.82 -2.03223 5.64642 0
M  V30 10682 H 1028.89 -0.932339 4.75852 0
M  V30 10683 N 1030.24 -1.51135 -0.446768 0
M  V30 10684 C 1031.65 -1.55919 -1.02694 0
M  V30 10685 C 1032 -0.377038 -1.92543 0
M  V30 10686 O 1031.12 0.507295 -2.1037 0
M  V30 10687 C 1031.72 -2.8257 -1.86922 0
M  V30 10688 C 1030.28 -2.89956 -2.40005 0
M  V30 10689 C 1029.42 -2.50482 -1.18971 0
M  V30 10690 H 1032.37 -1.57048 -0.228403 0
M  V30 10691 H 1032.4 -2.65799 -2.7227 0
M  V30 10692 H 1031.91 -3.6859 -1.21502 0
M  V30 10693 H 1030.01 -2.08343 -3.08907 0
M  V30 10694 H 1030.12 -3.93399 -2.73448 0
M  V30 10695 H 1028.49 -2.03466 -1.53211 0
M  V30 10696 H 1029.27 -3.38837 -0.551762 0
M  V30 10697 N 1031.71 0.701592 -1.41122 0
M  V30 10698 C 1032.94 1.49553 -1.43696 0
M  V30 10699 C 1033.36 1.88053 -0.0421865 0
M  V30 10700 O 1032.72 1.54223 0.953144 0
M  V30 10701 C 1032.77 2.73834 -2.34622 0
M  V30 10702 O 1031.87 3.71088 -1.7991 0
M  V30 10703 H 1031.21 0.450352 -0.487933 0
M  V30 10704 H 1033.74 0.862886 -1.85514 0
M  V30 10705 H 1033.75 3.22209 -2.5029 0
M  V30 10706 H 1032.43 2.45149 -3.35969 0
M  V30 10707 H 1031.01 3.29994 -1.73661 0
M  V30 10708 N 1033.19 1.2685 0.935242 0
M  V30 10709 C 1034.42 1.15538 1.71635 0
M  V30 10710 C 1034.83 -0.288698 1.8658 0
M  V30 10711 O 1034.19 -1.19721 1.37743 0
M  V30 10712 C 1034.24 1.8259 3.11999 0
M  V30 10713 O 1033.96 3.21355 2.97763 0
M  V30 10714 C 1035.46 1.77307 4.06297 0
M  V30 10715 H 1032.68 0.402055 0.537208 0
M  V30 10716 H 1035.23 1.67582 1.17203 0
M  V30 10717 H 1033.38 1.3447 3.63313 0
M  V30 10718 H 1033.8 3.54626 3.86446 0
M  V30 10719 H 1035.27 2.28851 5.02326 0
M  V30 10720 H 1035.75 0.740823 4.32907 0
M  V30 10721 H 1036.35 2.25007 3.60904 0
M  V30 10722 N 1034.67 -1.14067 1.0875 0
M  V30 10723 C 1035.6 -2.21385 0.74236 0
M  V30 10724 C 1036.58 -1.67833 -0.276805 0
M  V30 10725 O 1037.77 -1.93647 -0.1464 0
M  V30 10726 C 1034.9 -3.46956 0.154644 0
M  V30 10727 C 1033.85 -4.13555 1.10255 0
M  V30 10728 C 1033.18 -5.3337 0.376877 0
M  V30 10729 C 1034.48 -4.6169 2.44213 0
M  V30 10730 H 1036.17 -2.50512 1.63964 0
M  V30 10731 H 1033.72 -1.20408 0.789807 0
M  V30 10732 H 1035.67 -4.21284 -0.0988419 0
M  V30 10733 H 1034.39 -3.17203 -0.777789 0
M  V30 10734 H 1033.05 -3.41186 1.34119 0
M  V30 10735 H 1032.7 -4.99879 -0.559472 0
M  V30 10736 H 1032.4 -5.78875 1.00884 0
M  V30 10737 H 1033.92 -6.10458 0.131527 0
M  V30 10738 H 1035.34 -5.27475 2.24595 0
M  V30 10739 H 1033.74 -5.17909 3.03134 0
M  V30 10740 H 1034.81 -3.76574 3.05483 0
M  V30 10741 N 1036.15 -0.873678 -1.31166 0
M  V30 10742 C 1037.08 -0.348011 -2.30892 0
M  V30 10743 C 1038.06 0.563092 -1.60509 0
M  V30 10744 O 1039.24 0.479332 -1.88192 0
M  V30 10745 C 1036.37 0.448158 -3.44396 0
M  V30 10746 C 1035.33 -0.370179 -4.26396 0
M  V30 10747 C 1034.65 0.551903 -5.31844 0
M  V30 10748 C 1035.95 -1.60624 -4.96988 0
M  V30 10749 H 1037.65 -1.18134 -2.75109 0
M  V30 10750 H 1035.19 -0.569502 -1.3226 0
M  V30 10751 H 1037.15 0.826458 -4.13216 0
M  V30 10752 H 1035.87 1.31503 -2.98956 0
M  V30 10753 H 1034.53 -0.730472 -3.59249 0
M  V30 10754 H 1034.18 1.41616 -4.82653 0
M  V30 10755 H 1033.88 0.00823478 -5.87599 0
M  V30 10756 H 1035.4 0.926965 -6.03523 0
M  V30 10757 H 1036.82 -1.29917 -5.58386 0
M  V30 10758 H 1035.21 -2.08926 -5.62557 0
M  V30 10759 H 1036.28 -2.357 -4.23761 0
M  V30 10760 N 1037.63 1.44308 -0.633487 0
M  V30 10761 C 1038.85 2.06384 -0.146063 0
M  V30 10762 C 1039.27 1.47357 1.18031 0
M  V30 10763 O 1038.63 0.597334 1.72448 0
M  V30 10764 C 1038.68 3.61489 -0.0276722 0
M  V30 10765 O 1038.4 4.18318 -1.3016 0
M  V30 10766 C 1039.9 4.40604 0.488168 0
M  V30 10767 H 1037.12 0.666122 -0.0807632 0
M  V30 10768 H 1039.66 1.85139 -0.868557 0
M  V30 10769 H 1037.82 3.81988 0.645273 0
M  V30 10770 H 1038.23 5.11783 -1.14797 0
M  V30 10771 H 1039.71 5.49545 0.520013 0
M  V30 10772 H 1040.18 4.12218 1.51568 0
M  V30 10773 H 1040.79 4.2503 -0.151608 0
M  V30 10774 N 1039.1 0.374177 1.53094 0
M  V30 10775 C 1040.33 -0.215903 2.06273 0
M  V30 10776 C 1040.75 -1.40979 1.24526 0
M  V30 10777 O 1040.11 -1.79331 0.266462 0
M  V30 10778 C 1040.16 -0.579089 3.5592 0
M  V30 10779 O 1039.26 -1.67516 3.76845 0
M  V30 10780 H 1038.61 -0.0293981 0.663349 0
M  V30 10781 H 1041.14 0.537271 1.9742 0
M  V30 10782 H 1041.15 -0.847678 3.99097 0
M  V30 10783 H 1039.82 0.293843 4.14861 0
M  V30 10784 H 1038.4 -1.40146 3.45563 0
M  V30 10785 N 1040.58 -1.57259 0.103575 0
M  V30 10786 C 1041.83 -1.94272 -0.557024 0
M  V30 10787 C 1042.15 -0.986739 -1.68192 0
M  V30 10788 O 1041.42 -0.0402818 -1.95859 0
M  V30 10789 H 1040 -0.717237 -0.208757 0
M  V30 10790 H 1042.66 -1.94167 0.168898 0
M  V30 10791 H 1041.76 -2.96914 -0.961691 0
M  V30 10792 N 1042.06 0.170153 -1.56679 0
M  V30 10793 C 1042.99 1.21285 -1.9953 0
M  V30 10794 C 1043.97 1.46104 -0.871071 0
M  V30 10795 O 1045.16 1.57419 -1.13724 0
M  V30 10796 C 1042.29 2.5515 -2.35618 0
M  V30 10797 C 1041.24 2.44898 -3.51011 0
M  V30 10798 C 1040.57 3.83263 -3.72845 0
M  V30 10799 C 1041.87 1.95271 -4.84424 0
M  V30 10800 H 1043.56 0.856646 -2.86883 0
M  V30 10801 H 1041.11 0.410634 -1.38021 0
M  V30 10802 H 1043.06 3.28299 -2.64193 0
M  V30 10803 H 1041.78 2.92561 -1.45175 0
M  V30 10804 H 1040.44 1.74203 -3.22566 0
M  V30 10805 H 1040.09 4.18069 -2.79691 0
M  V30 10806 H 1039.79 3.77272 -4.50488 0
M  V30 10807 H 1041.31 4.57996 -4.03822 0
M  V30 10808 H 1042.73 2.58195 -5.11867 0
M  V30 10809 H 1041.13 2.00225 -5.65712 0
M  V30 10810 H 1042.2 0.90709 -4.7634 0
M  V30 10811 N 1043.54 1.5137 0.438746 0
M  V30 10812 C 1044.95 1.56462 1.01866 0
M  V30 10813 C 1045.3 0.387244 1.9234 0
M  V30 10814 O 1044.43 -0.496131 2.10636 0
M  V30 10815 C 1045.02 2.83557 1.85421 0
M  V30 10816 C 1043.58 2.91224 2.38464 0
M  V30 10817 C 1042.73 2.51109 1.17641 0
M  V30 10818 H 1045.68 1.57167 0.220072 0
M  V30 10819 H 1045.7 2.6724 2.70857 0
M  V30 10820 H 1045.21 3.69229 1.19546 0
M  V30 10821 H 1043.31 2.09979 3.07798 0
M  V30 10822 H 1043.42 3.94844 2.71358 0
M  V30 10823 H 1041.79 2.04276 1.5213 0
M  V30 10824 H 1042.57 3.39125 0.533785 0
M  V30 10825 N 1045.02 -0.694098 1.41492 0
M  V30 10826 C 1045.95 -1.82042 1.46229 0
M  V30 10827 C 1046.93 -1.67047 0.320803 0
M  V30 10828 O 1048.11 -1.86758 0.53245 0
M  V30 10829 C 1045.24 -3.2019 1.34519 0
M  V30 10830 C 1044.2 -3.49892 2.46495 0
M  V30 10831 C 1043.52 -4.87411 2.1985 0
M  V30 10832 C 1044.82 -3.4872 3.88834 0
M  V30 10833 H 1046.52 -1.78335 2.40493 0
M  V30 10834 H 1044.06 -0.856566 1.15754 0
M  V30 10835 H 1046.02 -3.98699 1.36445 0
M  V30 10836 H 1044.74 -3.24527 0.367406 0
M  V30 10837 H 1043.4 -2.73734 2.43854 0
M  V30 10838 H 1043.05 -4.88375 1.20411 0
M  V30 10839 H 1042.75 -5.08248 2.94885 0
M  V30 10840 H 1044.27 -5.68228 2.23494 0
M  V30 10841 H 1045.68 -4.1723 3.93182 0
M  V30 10842 H 1044.08 -3.81089 4.63564 0
M  V30 10843 H 1045.15 -2.47665 4.16881 0
M  V30 10844 N 1046.49 -1.27344 -0.928501 0
M  V30 10845 C 1047.42 -1.12517 -2.04602 0
M  V30 10846 C 1048.41 -0.0268563 -1.70079 0
M  V30 10847 O 1049.59 -0.201197 -1.93155 0
M  V30 10848 C 1046.72 -0.770749 -3.3864 0
M  V30 10849 C 1045.67 -1.8222 -3.87272 0
M  V30 10850 C 1045 -1.32178 -5.18105 0
M  V30 10851 C 1046.3 -3.22614 -4.10752 0
M  V30 10852 H 1047.99 -2.06 -2.17265 0
M  V30 10853 H 1045.54 -0.991827 -1.04397 0
M  V30 10854 H 1047.49 -0.653843 -4.16297 0
M  V30 10855 H 1046.22 0.19979 -3.25988 0
M  V30 10856 H 1044.88 -1.928 -3.11807 0
M  V30 10857 H 1044.52 -0.340719 -5.01845 0
M  V30 10858 H 1044.22 -2.02474 -5.51614 0
M  V30 10859 H 1045.75 -1.2178 -5.98333 0
M  V30 10860 H 1047.16 -3.1504 -4.78981 0
M  V30 10861 H 1045.56 -3.90614 -4.55566 0
M  V30 10862 H 1046.63 -3.67727 -3.16077 0
M  V30 10863 N 1047.97 1.13488 -1.09353 0
M  V30 10864 C 1049.38 1.66299 -0.848609 0
M  V30 10865 C 1049.73 1.86044 0.623051 0
M  V30 10866 O 1048.86 1.57871 1.48005 0
M  V30 10867 C 1049.45 3.02087 -1.53391 0
M  V30 10868 C 1048.01 3.51893 -1.33598 0
M  V30 10869 C 1047.16 2.27154 -1.59048 0
M  V30 10870 H 1050.11 0.974208 -1.25279 0
M  V30 10871 H 1050.13 3.68018 -0.966587 0
M  V30 10872 H 1049.64 2.87684 -2.60498 0
M  V30 10873 H 1047.75 3.715 -0.286045 0
M  V30 10874 H 1047.86 4.32059 -2.0703 0
M  V30 10875 H 1046.22 2.33708 -1.01256 0
M  V30 10876 H 1047.01 2.15317 -2.67383 0
M  V30 10877 N 1049.45 0.880621 1.30701 0
M  V30 10878 C 1050.86 0.547993 1.78477 0
M  V30 10879 C 1051.21 -0.935633 1.72454 0
M  V30 10880 O 1050.34 -1.73094 1.29874 0
M  V30 10881 C 1050.93 0.98795 3.24076 0
M  V30 10882 C 1049.49 0.706805 3.69704 0
M  V30 10883 C 1048.64 1.17335 2.51252 0
M  V30 10884 H 1051.59 1.06528 1.17633 0
M  V30 10885 H 1051.61 0.31508 3.79193 0
M  V30 10886 H 1051.12 2.06778 3.28427 0
M  V30 10887 H 1049.22 -0.36122 3.70845 0
M  V30 10888 H 1049.34 1.2913 4.6137 0
M  V30 10889 H 1047.7 0.592808 2.47705 0
M  V30 10890 H 1048.48 2.26083 2.58343 0
M  V30 10891 N 1050.93 -1.4397 0.641131 0
M  V30 10892 C 1052.34 -1.85267 0.230838 0
M  V30 10893 C 1052.69 -1.53659 -1.21998 0
M  V30 10894 O 1051.82 -0.979572 -1.92959 0
M  V30 10895 C 1052.41 -3.36284 0.412171 0
M  V30 10896 C 1050.97 -3.76358 0.0563004 0
M  V30 10897 C 1050.12 -2.67768 0.720809 0
M  V30 10898 H 1053.07 -1.34294 0.845624 0
M  V30 10899 H 1053.09 -3.78924 -0.345936 0
M  V30 10900 H 1052.6 -3.59258 1.46818 0
M  V30 10901 H 1050.7 -3.58997 -0.997582 0
M  V30 10902 H 1050.82 -4.76756 0.473335 0
M  V30 10903 H 1049.18 -2.54227 0.155164 0
M  V30 10904 H 1049.96 -2.93573 1.77961 0
M  V30 10905 N 1052.41 -0.382291 -1.52893 0
M  V30 10906 C 1053.34 0.447829 -2.29165 0
M  V30 10907 C 1054.32 1.06956 -1.32267 0
M  V30 10908 O 1055.5 1.08365 -1.61154 0
M  V30 10909 C 1052.63 1.57902 -3.09329 0
M  V30 10910 C 1051.59 1.08369 -4.14053 0
M  V30 10911 C 1050.91 2.30641 -4.82399 0
M  V30 10912 C 1052.21 0.156591 -5.22065 0
M  V30 10913 H 1053.91 -0.188541 -2.98806 0
M  V30 10914 H 1051.45 -0.0921179 -1.43705 0
M  V30 10915 H 1053.41 2.16652 -3.61442 0
M  V30 10916 H 1052.13 2.24287 -2.37409 0
M  V30 10917 H 1050.79 0.518772 -3.62911 0
M  V30 10918 H 1050.44 2.9552 -4.07034 0
M  V30 10919 H 1050.14 1.98163 -5.53177 0
M  V30 10920 H 1051.66 2.90047 -5.37313 0
M  V30 10921 H 1053.08 0.652065 -5.6958 0
M  V30 10922 H 1051.47 -0.0780978 -6.00049 0
M  V30 10923 H 1052.54 -0.796529 -4.78313 0
M  V30 10924 N 1053.89 1.57202 -0.111913 0
M  V30 10925 C 1054.82 2.17957 0.837683 0
M  V30 10926 C 1055.8 1.1176 1.28233 0
M  V30 10927 O 1056.98 1.39967 1.34621 0
M  V30 10928 C 1054.11 2.77333 2.09054 0
M  V30 10929 C 1053.07 3.8905 1.78393 0
M  V30 10930 C 1052.39 4.35203 3.10649 0
M  V30 10931 C 1053.69 5.11477 1.05775 0
M  V30 10932 H 1055.39 2.9756 0.331441 0
M  V30 10933 H 1052.93 1.43131 0.157979 0
M  V30 10934 H 1054.88 3.18492 2.75936 0
M  V30 10935 H 1053.61 1.95009 2.6199 0
M  V30 10936 H 1052.27 3.48456 1.13903 0
M  V30 10937 H 1051.92 3.49747 3.61506 0
M  V30 10938 H 1051.62 5.10534 2.9091 0
M  V30 10939 H 1053.14 4.79007 3.78661 0
M  V30 10940 H 1054.55 5.497 1.62798 0
M  V30 10941 H 1052.95 5.92346 0.961573 0
M  V30 10942 H 1054.02 4.84881 0.043297 0
M  V30 10943 N 1055.36 -0.161842 1.56767 0
M  V30 10944 C 1056.3 -1.22499 1.93718 0
M  V30 10945 C 1057.31 -1.39975 0.831314 0
M  V30 10946 O 1058.5 -1.3981 1.10975 0
M  V30 10947 C 1055.6 -2.59222 2.18306 0
M  V30 10948 C 1054.77 -2.6292 3.4956 0
M  V30 10949 C 1053.83 -3.81074 3.62863 0
M  V30 10950 O 1052.86 -3.66633 4.35395 0
M  V30 10951 N 1054.06 -4.97923 2.98418 0
M  V30 10952 H 1056.82 -0.911043 2.85517 0
M  V30 10953 H 1054.38 -0.351533 1.58038 0
M  V30 10954 H 1056.38 -3.36749 2.24461 0
M  V30 10955 H 1054.95 -2.82969 1.32844 0
M  V30 10956 H 1054.17 -1.71418 3.54978 0
M  V30 10957 H 1055.45 -2.62409 4.35911 0
M  V30 10958 H 1054.85 -5.12557 2.39378 0
M  V30 10959 H 1053.41 -5.73277 3.10155 0
M  V30 10960 N 1056.84 -1.516 -0.430713 0
M  V30 10961 C 1058.07 -1.68414 -1.20185 0
M  V30 10962 C 1058.48 -0.384297 -1.84847 0
M  V30 10963 O 1057.84 0.637808 -1.70992 0
M  V30 10964 C 1057.89 -2.80451 -2.28099 0
M  V30 10965 O 1057.61 -4.05399 -1.66081 0
M  V30 10966 C 1059.11 -3.0859 -3.18256 0
M  V30 10967 H 1056.33 -0.564982 -0.361989 0
M  V30 10968 H 1058.88 -1.9805 -0.50954 0
M  V30 10969 H 1057.03 -2.53395 -2.93036 0
M  V30 10970 H 1057.45 -4.67671 -2.37453 0
M  V30 10971 H 1058.92 -3.9055 -3.90096 0
M  V30 10972 H 1059.4 -2.21264 -3.79393 0
M  V30 10973 H 1060 -3.37331 -2.59014 0
M  V30 10974 N 1058.32 0.686584 -1.41858 0
M  V30 10975 C 1059.57 1.44379 -1.41418 0
M  V30 10976 C 1059.89 1.94981 -0.0273696 0
M  V30 10977 O 1059.16 1.72296 0.932248 0
M  V30 10978 H 1057.74 0.53574 -0.520568 0
M  V30 10979 H 1060.4 0.812056 -1.77177 0
M  V30 10980 H 1059.5 2.30258 -2.10684 0
M  V30 10981 N 1059.8 1.27835 0.921735 0
M  V30 10982 C 1060.76 1.11108 2.00469 0
M  V30 10983 C 1061.76 0.053203 1.60712 0
M  V30 10984 O 1062.95 0.298308 1.71627 0
M  V30 10985 C 1060.08 0.694269 3.33755 0
M  V30 10986 H 1061.28 2.07279 2.16738 0
M  V30 10987 H 1058.83 1.10708 1.10333 0
M  V30 10988 H 1059.56 -0.268561 3.23186 0
M  V30 10989 H 1059.35 1.45836 3.6397 0
M  V30 10990 H 1060.84 0.59965 4.13272 0
M  V30 10991 N 1061.28 -1.12907 1.09954 0
M  V30 10992 C 1062.5 -1.88679 0.861099 0
M  V30 10993 C 1062.93 -1.78853 -0.582499 0
M  V30 10994 O 1062.28 -1.13992 -1.4098 0
M  V30 10995 C 1062.33 -3.36047 1.30785 0
M  V30 10996 O 1061.44 -4.09716 0.469728 0
M  V30 10997 H 1060.78 -0.586447 0.31141 0
M  V30 10998 H 1063.31 -1.42818 1.46507 0
M  V30 10999 H 1063.32 -3.86882 1.29562 0
M  V30 11000 H 1061.99 -3.42516 2.35914 0
M  V30 11001 H 1060.57 -3.6887 0.54674 0
M  V30 11002 N 1062.75 -0.88754 -1.30232 0
M  V30 11003 C 1064.16 -0.55745 -1.78184 0
M  V30 11004 C 1064.52 0.926474 -1.72948 0
M  V30 11005 O 1063.64 1.72403 -1.3079 0
M  V30 11006 C 1064.24 -1.00512 -3.23547 0
M  V30 11007 C 1062.79 -0.726402 -3.69324 0
M  V30 11008 C 1061.94 -1.18666 -2.50627 0
M  V30 11009 H 1064.89 -1.07151 -1.17066 0
M  V30 11010 H 1064.91 -0.335185 -3.79021 0
M  V30 11011 H 1064.43 -2.08517 -3.27326 0
M  V30 11012 H 1062.53 0.341548 -3.71031 0
M  V30 11013 H 1062.64 -1.31575 -4.60679 0
M  V30 11014 H 1061 -0.605936 -2.47387 0
M  V30 11015 H 1061.79 -2.2745 -2.57141 0
M  V30 11016 N 1064.23 1.43628 -0.648757 0
M  V30 11017 C 1065.48 2.02163 -0.160574 0
M  V30 11018 C 1065.81 1.51037 1.22072 0
M  V30 11019 O 1065.09 0.701633 1.81404 0
M  V30 11020 C 1065.37 3.59715 -0.166528 0
M  V30 11021 C 1065.22 4.21083 -1.58142 0
M  V30 11022 C 1066.54 4.37256 0.499485 0
M  V30 11023 H 1063.66 0.734568 -0.0598238 0
M  V30 11024 H 1066.3 1.70981 -0.828592 0
M  V30 11025 H 1064.45 3.86411 0.402302 0
M  V30 11026 H 1066.12 4.05433 -2.2005 0
M  V30 11027 H 1064.37 3.77904 -2.13005 0
M  V30 11028 H 1065.04 5.30156 -1.53748 0
M  V30 11029 H 1067.51 4.16097 0.0155561 0
M  V30 11030 H 1066.39 5.4693 0.464574 0
M  V30 11031 H 1066.65 4.13175 1.57286 0
M  V30 11032 N 1065.71 0.390394 1.52688 0
M  V30 11033 C 1066.67 -0.432149 2.25089 0
M  V30 11034 C 1067.67 -0.989296 1.26766 0
M  V30 11035 O 1068.86 -0.871126 1.50854 0
M  V30 11036 C 1066 -1.60642 3.00678 0
M  V30 11037 H 1067.19 0.201734 2.99221 0
M  V30 11038 H 1064.74 0.142531 1.55649 0
M  V30 11039 H 1065.48 -2.2777 2.3085 0
M  V30 11040 H 1065.26 -1.21361 3.72846 0
M  V30 11041 H 1066.75 -2.18873 3.55647 0
M  V30 11042 N 1067.19 -1.57141 0.120249 0
M  V30 11043 C 1068.41 -2.00017 -0.548454 0
M  V30 11044 C 1068.84 -0.999433 -1.59352 0
M  V30 11045 O 1068.2 0.0286978 -1.81277 0
M  V30 11046 C 1068.24 -3.41766 -1.15015 0
M  V30 11047 O 1067.35 -3.44589 -2.26566 0
M  V30 11048 H 1066.69 -0.649739 -0.136875 0
M  V30 11049 H 1069.22 -2.03529 0.209092 0
M  V30 11050 H 1069.23 -3.80001 -1.48537 0
M  V30 11051 H 1067.9 -4.14117 -0.384681 0
M  V30 11052 H 1066.48 -3.18174 -1.94473 0
M  V30 11053 N 1068.67 0.153526 -1.5685 0
M  V30 11054 C 1069.63 1.17362 -1.96873 0
M  V30 11055 C 1070.63 1.36219 -0.854456 0
M  V30 11056 O 1071.82 1.33322 -1.1212 0
M  V30 11057 C 1068.95 2.53523 -2.27901 0
M  V30 11058 H 1070.14 0.830432 -2.88173 0
M  V30 11059 H 1067.7 0.396633 -1.51184 0
M  V30 11060 H 1068.43 2.92824 -1.39371 0
M  V30 11061 H 1068.22 2.41198 -3.09137 0
M  V30 11062 H 1069.71 3.27006 -2.59725 0
M  V30 11063 N 1070.14 1.51827 0.422667 0
M  V30 11064 C 1071.11 1.7359 1.49663 0
M  V30 11065 C 1072.11 0.605811 1.48952 0
M  V30 11066 O 1073.3 0.87354 1.50715 0
M  V30 11067 C 1070.43 1.80585 2.8914 0
M  V30 11068 H 1071.62 2.69453 1.31664 0
M  V30 11069 H 1069.18 1.42038 0.652298 0
M  V30 11070 H 1069.91 0.865895 3.12526 0
M  V30 11071 H 1069.7 2.62729 2.9106 0
M  V30 11072 H 1071.19 1.99212 3.67021 0
M  V30 11073 N 1071.62 -0.679052 1.4222 0
M  V30 11074 C 1072.55 -1.80455 1.41311 0
M  V30 11075 C 1073.57 -1.59767 0.312799 0
M  V30 11076 O 1074.76 -1.68964 0.575612 0
M  V30 11077 C 1071.86 -3.17492 1.18541 0
M  V30 11078 C 1071.03 -3.65066 2.40926 0
M  V30 11079 C 1070.09 -4.80823 2.13765 0
M  V30 11080 O 1069.11 -4.91587 2.86934 0
M  V30 11081 N 1070.32 -5.69233 1.13813 0
M  V30 11082 H 1073.08 -1.81722 2.38322 0
M  V30 11083 H 1070.64 -0.861988 1.37045 0
M  V30 11084 H 1072.63 -3.92581 0.982958 0
M  V30 11085 H 1071.2 -3.1115 0.300691 0
M  V30 11086 H 1070.42 -2.80702 2.76767 0
M  V30 11087 H 1071.71 -3.93593 3.22431 0
M  V30 11088 H 1071.11 -5.63185 0.532887 0
M  V30 11089 H 1069.67 -6.44152 0.995554 0
M  V30 11090 N 1073.1 -1.28322 -0.914942 0
M  V30 11091 C 1074.03 -1.14681 -2.03398 0
M  V30 11092 C 1075.01 -0.0448939 -1.70041 0
M  V30 11093 O 1076.2 -0.221672 -1.92931 0
M  V30 11094 C 1073.33 -0.806623 -3.37803 0
M  V30 11095 C 1072.28 -1.86318 -3.85318 0
M  V30 11096 C 1071.61 -1.37665 -5.16674 0
M  V30 11097 C 1072.91 -3.26953 -4.07307 0
M  V30 11098 H 1074.6 -2.08293 -2.15068 0
M  V30 11099 H 1072.15 -1.00284 -1.03339 0
M  V30 11100 H 1074.1 -0.69796 -4.1558 0
M  V30 11101 H 1072.82 0.165203 -3.26182 0
M  V30 11102 H 1071.48 -1.96096 -3.09745 0
M  V30 11103 H 1071.13 -0.393927 -5.01455 0
M  V30 11104 H 1070.83 -2.08313 -5.49435 0
M  V30 11105 H 1072.35 -1.28119 -5.97007 0
M  V30 11106 H 1073.77 -3.20102 -4.75613 0
M  V30 11107 H 1072.17 -3.95424 -4.51398 0
M  V30 11108 H 1073.24 -3.71059 -3.12159 0
M  V30 11109 N 1074.58 1.12322 -1.10551 0
M  V30 11110 C 1075.51 2.20176 -0.777486 0
M  V30 11111 C 1076.49 1.68252 0.250069 0
M  V30 11112 O 1077.67 1.93856 0.115574 0
M  V30 11113 C 1074.8 3.46666 -0.209822 0
M  V30 11114 C 1073.76 4.11749 -1.1682 0
M  V30 11115 C 1073.08 5.32703 -0.461684 0
M  V30 11116 C 1074.38 4.57746 -2.51527 0
M  V30 11117 H 1076.08 2.47872 -1.67928 0
M  V30 11118 H 1073.62 1.19136 -0.808863 0
M  V30 11119 H 1075.58 4.21388 0.0318068 0
M  V30 11120 H 1074.3 3.18401 0.727226 0
M  V30 11121 H 1072.96 3.39009 -1.3953 0
M  V30 11122 H 1072.61 5.00706 0.479875 0
M  V30 11123 H 1072.31 5.77197 -1.1008 0
M  V30 11124 H 1073.83 6.10172 -0.228629 0
M  V30 11125 H 1075.25 5.23835 -2.32958 0
M  V30 11126 H 1073.64 5.13021 -3.11335 0
M  V30 11127 H 1074.71 3.71667 -3.11435 0
M  V30 11128 N 1076.06 0.894434 1.2976 0
M  V30 11129 C 1077.33 0.437365 1.90648 0
M  V30 11130 C 1077.71 -1.08261 1.81226 0
M  V30 11131 O 1077.06 -1.92213 1.23557 0
M  V30 11132 C 1077.27 0.946047 3.35933 0
M  V30 11133 C 1078.62 0.986621 4.12978 0
M  V30 11134 O 1079.64 0.893356 3.44815 0
M  V30 11135 O 1078.5 1.12591 5.34776 0
M  V30 11136 H 1075.6 0.135436 0.815835 0
M  V30 11137 H 1078.14 0.983955 1.38262 0
M  V30 11138 H 1076.91 1.98998 3.3692 0
M  V30 11139 H 1076.54 0.379164 3.95788 0
M  V30 11140 N 1077.53 -1.43282 0.656365 0
M  V30 11141 C 1078.76 -2.06125 0.178879 0
M  V30 11142 C 1079.18 -1.49216 -1.15672 0
M  V30 11143 O 1078.53 -0.624693 -1.71475 0
M  V30 11144 C 1078.59 -3.614 0.0851785 0
M  V30 11145 O 1078.31 -4.16194 1.36798 0
M  V30 11146 C 1079.81 -4.41325 -0.41801 0
M  V30 11147 H 1077.03 -0.664753 0.0913504 0
M  V30 11148 H 1079.57 -1.83733 0.897901 0
M  V30 11149 H 1077.73 -3.82966 -0.584421 0
M  V30 11150 H 1078.14 -5.09892 1.22924 0
M  V30 11151 H 1079.61 -5.50303 -0.432519 0
M  V30 11152 H 1080.09 -4.14577 -1.44991 0
M  V30 11153 H 1080.7 -4.24735 0.219208 0
M  V30 11154 N 1079.01 -0.398486 -1.52479 0
M  V30 11155 C 1079.96 0.449343 -2.23528 0
M  V30 11156 C 1080.95 1.02218 -1.24259 0
M  V30 11157 O 1082.14 0.946757 -1.49551 0
M  V30 11158 C 1079.27 1.5712 -3.05235 0
M  V30 11159 C 1078.35 1.00966 -4.11906 0
M  V30 11160 N 1078.75 0.173855 -5.05501 0
M  V30 11161 C 1077.04 1.28124 -4.272 0
M  V30 11162 C 1077.74 -0.137391 -5.81538 0
M  V30 11163 N 1076.72 0.468972 -5.41573 0
M  V30 11164 H 1080.52 -0.195654 -2.93248 0
M  V30 11165 H 1078.04 -0.208305 -1.61059 0
M  V30 11166 H 1080.03 2.19108 -3.54679 0
M  V30 11167 H 1078.69 2.21893 -2.37052 0
M  V30 11168 H 1079.7 -0.189618 -5.17553 0
M  V30 11169 H 1076.38 1.92933 -3.70247 0
M  V30 11170 H 1077.77 -0.815159 -6.66937 0
M  V30 11171 N 1080.49 1.57075 -0.12858 0
M  V30 11172 C 1081.42 2.18833 0.814519 0
M  V30 11173 C 1082.4 1.13114 1.2704 0
M  V30 11174 O 1083.59 1.41387 1.33129 0
M  V30 11175 C 1080.72 2.79535 2.06101 0
M  V30 11176 C 1079.67 3.9092 1.74257 0
M  V30 11177 C 1079 4.38473 3.06015 0
M  V30 11178 C 1080.3 5.1257 1.00345 0
M  V30 11179 H 1081.99 2.97895 0.299862 0
M  V30 11180 H 1079.54 1.4329 0.14279 0
M  V30 11181 H 1081.49 3.21401 2.72543 0
M  V30 11182 H 1080.21 1.97777 2.59907 0
M  V30 11183 H 1078.87 3.49645 1.102 0
M  V30 11184 H 1078.52 3.53561 3.57776 0
M  V30 11185 H 1078.22 5.13591 2.85479 0
M  V30 11186 H 1079.75 4.82997 3.7356 0
M  V30 11187 H 1081.16 5.51395 1.56959 0
M  V30 11188 H 1079.56 5.93333 0.898693 0
M  V30 11189 H 1080.63 4.84899 -0.0081335 0
M  V30 11190 N 1081.97 -0.145205 1.5693 0
M  V30 11191 C 1082.92 -1.18446 1.94819 0
M  V30 11192 C 1083.9 -1.38456 0.819684 0
M  V30 11193 O 1085.1 -1.39988 1.08316 0
M  V30 11194 C 1082.22 -2.51766 2.33385 0
M  V30 11195 C 1081.31 -2.35341 3.5281 0
M  V30 11196 N 1081.7 -1.88676 4.69292 0
M  V30 11197 C 1080 -2.66087 3.5793 0
M  V30 11198 C 1080.7 -1.85337 5.51385 0
M  V30 11199 N 1079.68 -2.28717 4.93142 0
M  V30 11200 H 1083.48 -0.815785 2.82351 0
M  V30 11201 H 1080.99 -0.353242 1.58512 0
M  V30 11202 H 1082.99 -3.26897 2.58735 0
M  V30 11203 H 1081.65 -2.89414 1.47206 0
M  V30 11204 H 1082.66 -1.58614 4.93013 0
M  V30 11205 H 1079.34 -3.07597 2.82294 0
M  V30 11206 H 1080.73 -1.50734 6.54774 0
M  V30 11207 N 1083.45 -1.52049 -0.414609 0
M  V30 11208 C 1084.7 -1.65067 -1.15912 0
M  V30 11209 C 1085.01 -0.383969 -1.91794 0
M  V30 11210 O 1086.22 -0.393872 -2.68628 0
M  V30 11211 C 1084.67 -2.91611 -2.1093 0
M  V30 11212 C 1084.28 -4.25369 -1.4059 0
M  V30 11213 C 1086.02 -3.13992 -2.85674 0
M  V30 11214 C 1083.93 -5.43041 -2.34223 0
M  V30 11215 H 1082.86 -0.614884 -0.436387 0
M  V30 11216 H 1085.51 -1.78533 -0.424072 0
M  V30 11217 H 1083.89 -2.71831 -2.87965 0
M  V30 11218 H 1085.07 -4.55611 -0.689568 0
M  V30 11219 H 1083.38 -4.09047 -0.779088 0
M  V30 11220 H 1085.98 -3.99082 -3.55861 0
M  V30 11221 H 1086.32 -2.27998 -3.48314 0
M  V30 11222 H 1086.86 -3.34217 -2.1574 0
M  V30 11223 H 1083.59 -6.31364 -1.76238 0
M  V30 11224 H 1083.11 -5.17144 -3.03845 0
M  V30 11225 H 1084.79 -5.75901 -2.94868 0
M  V30 11226 N 1084.93 0.6715 -1.42579 0
M  V30 11227 C 1086.17 1.42871 -1.42941 0
M  V30 11228 C 1086.49 1.94941 -0.0480483 0
M  V30 11229 O 1085.76 1.73275 0.913921 0
M  V30 11230 H 1084.34 0.530189 -0.526221 0
M  V30 11231 H 1087.01 0.793219 -1.78028 0
M  V30 11232 H 1086.1 2.2801 -2.13114 0
M  V30 11233 N 1086.4 1.28806 0.908124 0
M  V30 11234 C 1087.63 1.19153 1.69146 0
M  V30 11235 C 1088.05 -0.249056 1.8715 0
M  V30 11236 O 1087.4 -1.16772 1.40251 0
M  V30 11237 C 1087.45 1.89167 3.08055 0
M  V30 11238 O 1087.18 3.27599 2.90879 0
M  V30 11239 C 1088.68 1.85886 4.02444 0
M  V30 11240 H 1085.9 0.413359 0.528559 0
M  V30 11241 H 1088.44 1.7003 1.13622 0
M  V30 11242 H 1086.6 1.42146 3.60379 0
M  V30 11243 H 1087.01 3.62743 3.78837 0
M  V30 11244 H 1088.48 2.39454 4.97359 0
M  V30 11245 H 1088.96 0.832483 4.31238 0
M  V30 11246 H 1089.57 2.32612 3.5605 0
M  V30 11247 N 1087.88 -1.11734 1.11145 0
M  V30 11248 C 1089.13 -1.83043 0.856717 0
M  V30 11249 C 1089.45 -1.84901 -0.619407 0
M  V30 11250 O 1088.72 -1.31738 -1.44989 0
M  V30 11251 H 1087.3 -0.677823 0.31395 0
M  V30 11252 H 1089.96 -1.35262 1.40322 0
M  V30 11253 H 1089.06 -2.87005 1.22616 0
M  V30 11254 N 1089.36 -0.901303 -1.29284 0
M  V30 11255 C 1090.77 -0.576317 -1.77582 0
M  V30 11256 C 1091.12 0.908078 -1.73921 0
M  V30 11257 O 1090.25 1.71006 -1.32611 0
M  V30 11258 C 1090.84 -1.03938 -3.22463 0
M  V30 11259 C 1089.4 -0.765533 -3.68533 0
M  V30 11260 C 1088.55 -1.21318 -2.49354 0
M  V30 11261 H 1091.5 -1.08386 -1.15923 0
M  V30 11262 H 1091.52 -0.375367 -3.78644 0
M  V30 11263 H 1091.03 -2.11977 -3.25096 0
M  V30 11264 H 1089.13 0.302176 -3.71373 0
M  V30 11265 H 1089.25 -1.36454 -4.59257 0
M  V30 11266 H 1087.61 -0.632141 -2.46731 0
M  V30 11267 H 1088.39 -2.30165 -2.54714 0
M  V30 11268 N 1090.84 1.42931 -0.663954 0
M  V30 11269 C 1092.07 2.06028 -0.189808 0
M  V30 11270 C 1092.48 1.49827 1.14879 0
M  V30 11271 O 1091.84 0.633778 1.71142 0
M  V30 11272 C 1091.89 3.61349 -0.104343 0
M  V30 11273 O 1091.61 4.15463 -1.39004 0
M  V30 11274 C 1093.11 4.4154 0.394599 0
M  V30 11275 H 1090.33 0.664259 -0.0948744 0
M  V30 11276 H 1092.87 1.83255 -0.907632 0
M  V30 11277 H 1091.03 3.83271 0.564103 0
M  V30 11278 H 1091.44 5.09233 -1.25626 0
M  V30 11279 H 1092.92 5.50525 0.403329 0
M  V30 11280 H 1093.39 4.1534 1.4279 0
M  V30 11281 H 1094 4.24612 -0.241729 0
M  V30 11282 N 1092.32 0.406567 1.52266 0
M  V30 11283 C 1093.28 -0.408251 2.25535 0
M  V30 11284 C 1094.28 -0.975795 1.27808 0
M  V30 11285 O 1095.47 -0.855077 1.5177 0
M  V30 11286 C 1092.6 -1.57443 3.02365 0
M  V30 11287 H 1093.79 0.233459 2.9899 0
M  V30 11288 H 1091.35 0.159032 1.55489 0
M  V30 11289 H 1092.08 -2.25308 2.33252 0
M  V30 11290 H 1091.87 -1.17399 3.74112 0
M  V30 11291 H 1093.36 -2.15088 3.57948 0
M  V30 11292 N 1093.79 -1.57004 0.136909 0
M  V30 11293 C 1094.72 -2.19262 -0.802902 0
M  V30 11294 C 1095.71 -1.13786 -1.26439 0
M  V30 11295 O 1096.89 -1.42091 -1.32377 0
M  V30 11296 C 1094.02 -2.80624 -2.04615 0
M  V30 11297 C 1092.97 -3.91839 -1.72181 0
M  V30 11298 C 1092.3 -4.4009 -3.03686 0
M  V30 11299 C 1093.6 -5.13095 -0.976249 0
M  V30 11300 H 1095.29 -2.98049 -0.28406 0
M  V30 11301 H 1092.84 -1.43364 -0.135189 0
M  V30 11302 H 1094.79 -3.22842 -2.70834 0
M  V30 11303 H 1093.52 -1.99153 -2.58855 0
M  V30 11304 H 1092.18 -3.50224 -1.08344 0
M  V30 11305 H 1091.82 -3.55454 -3.55896 0
M  V30 11306 H 1091.52 -5.15098 -2.82751 0
M  V30 11307 H 1093.05 -4.84971 -3.70993 0
M  V30 11308 H 1094.46 -5.5222 -1.54033 0
M  V30 11309 H 1092.86 -5.93801 -0.867214 0
M  V30 11310 H 1093.93 -4.84888 0.0338488 0
M  V30 11311 N 1095.27 0.136881 -1.57004 0
M  V30 11312 C 1096.68 0.695911 -1.73245 0
M  V30 11313 C 1097.03 1.8118 -0.75288 0
M  V30 11314 O 1096.16 2.16258 0.0782477 0
M  V30 11315 C 1096.75 1.26914 -3.14131 0
M  V30 11316 C 1095.31 1.77463 -3.31939 0
M  V30 11317 C 1094.46 0.667128 -2.69156 0
M  V30 11318 H 1097.41 -0.0888841 -1.58451 0
M  V30 11319 H 1097.43 2.13892 -3.14691 0
M  V30 11320 H 1096.94 0.456754 -3.85403 0
M  V30 11321 H 1095.05 2.61236 -2.65681 0
M  V30 11322 H 1095.16 1.89638 -4.39971 0
M  V30 11323 H 1093.52 1.09629 -2.29899 0
M  V30 11324 H 1094.31 -0.13398 -3.43038 0
M  V30 11325 N 1096.75 1.52266 0.40654 0
M  V30 11326 C 1097.71 1.75168 1.47814 0
M  V30 11327 C 1098.71 0.621575 1.48301 0
M  V30 11328 O 1099.9 0.889476 1.4978 0
M  V30 11329 C 1097.04 1.83642 2.87208 0
M  V30 11330 H 1098.23 2.70834 1.28798 0
M  V30 11331 H 1095.78 1.42722 0.637196 0
M  V30 11332 H 1096.52 0.898994 3.1159 0
M  V30 11333 H 1096.3 2.65801 2.88257 0
M  V30 11334 H 1097.79 2.03093 3.64888 0
M  V30 11335 N 1098.23 -0.663929 1.42933 0
M  V30 11336 C 1099.47 -1.42603 1.44195 0
M  V30 11337 C 1099.81 -1.94101 0.0620284 0
M  V30 11338 O 1099.08 -1.71609 -0.91546 0
M  V30 11339 C 1099.37 -2.61522 2.47544 0
M  V30 11340 C 1099.22 -2.15587 3.94769 0
M  V30 11341 C 1100.54 -3.6374 2.47753 0
M  V30 11342 H 1097.66 -0.517189 0.525056 0
M  V30 11343 H 1100.3 -0.75361 1.74415 0
M  V30 11344 H 1098.45 -3.1889 2.21904 0
M  V30 11345 H 1100.12 -1.63303 4.31428 0
M  V30 11346 H 1098.36 -1.47057 4.08114 0
M  V30 11347 H 1099.03 -3.01053 4.62678 0
M  V30 11348 H 1101.51 -3.16111 2.70579 0
M  V30 11349 H 1100.39 -4.44512 3.22025 0
M  V30 11350 H 1100.65 -4.15607 1.50742 0
M  V30 11351 N 1099.71 -1.29285 -0.901281 0
M  V30 11352 C 1101.12 -1.15499 -1.46686 0
M  V30 11353 C 1101.47 0.250446 -1.94595 0
M  V30 11354 O 1100.59 1.14581 -1.83576 0
M  V30 11355 C 1101.19 -2.0906 -2.66607 0
M  V30 11356 C 1099.75 -1.99301 -3.19306 0
M  V30 11357 C 1098.89 -2.00079 -1.91999 0
M  V30 11358 H 1101.85 -1.41793 -0.712773 0
M  V30 11359 H 1101.87 -1.6619 -3.42288 0
M  V30 11360 H 1101.38 -3.11341 -2.31707 0
M  V30 11361 H 1099.48 -1.00103 -3.58901 0
M  V30 11362 H 1099.59 -2.86885 -3.8371 0
M  V30 11363 H 1097.96 -1.44655 -2.09636 0
M  V30 11364 H 1098.74 -3.04061 -1.59379 0
M  V30 11365 N 1101.18 1.11143 -1.11736 0
M  V30 11366 C 1102.6 1.64462 -0.883693 0
M  V30 11367 C 1102.95 1.87324 0.583448 0
M  V30 11368 O 1102.07 1.60975 1.44623 0
M  V30 11369 C 1102.67 2.98765 -1.59764 0
M  V30 11370 C 1101.23 3.4898 -1.41032 0
M  V30 11371 C 1100.37 2.23729 -1.63831 0
M  V30 11372 H 1103.32 0.947415 -1.27317 0
M  V30 11373 H 1103.34 3.65885 -1.04443 0
M  V30 11374 H 1102.86 2.82094 -2.66542 0
M  V30 11375 H 1100.96 3.7081 -0.364781 0
M  V30 11376 H 1101.07 4.27571 -2.16148 0
M  V30 11377 H 1099.43 2.31507 -1.06191 0
M  V30 11378 H 1100.22 2.09597 -2.7189 0
M  V30 11379 N 1102.66 0.908147 1.28804 0
M  V30 11380 C 1104.07 0.585727 1.77274 0
M  V30 11381 C 1104.42 -0.898842 1.744 0
M  V30 11382 O 1103.55 -1.70301 1.33516 0
M  V30 11383 C 1104.14 1.05647 3.21907 0
M  V30 11384 C 1102.7 0.785066 3.68122 0
M  V30 11385 C 1101.85 1.22638 2.48707 0
M  V30 11386 H 1104.8 1.09 1.15346 0
M  V30 11387 H 1104.82 0.395442 3.7844 0
M  V30 11388 H 1104.33 2.13698 3.23967 0
M  V30 11389 H 1102.44 -0.282477 3.71528 0
M  V30 11390 H 1102.55 1.38888 4.58527 0
M  V30 11391 H 1100.91 0.645217 2.46392 0
M  V30 11392 H 1101.7 2.31512 2.5349 0
M  V30 11393 N 1104.14 -1.42577 0.671525 0
M  V30 11394 C 1105.56 -1.5592 0.340769 0
M  V30 11395 C 1105.76 -1.65179 -1.15405 0
M  V30 11396 O 1104.81 -1.61691 -1.93939 0
M  V30 11397 C 1106.13 -2.81087 1.06821 0
M  V30 11398 C 1107.67 -2.94855 1.05022 0
M  V30 11399 C 1108.15 -4.22878 1.75892 0
M  V30 11400 N 1109.64 -4.29783 1.72744 0
M  V30 11401 C 1110.37 -5.2765 2.24439 0
M  V30 11402 N 1109.87 -6.31689 2.84501 0
M  V30 11403 N 1111.66 -5.19426 2.14832 0
M  V30 11404 H 1103.81 -1.34811 1.64133 0
M  V30 11405 H 1106.08 -0.648704 0.691294 0
M  V30 11406 H 1105.78 -2.80371 2.12332 0
M  V30 11407 H 1105.66 -3.71879 0.631356 0
M  V30 11408 H 1108.04 -2.951 0.00345633 0
M  V30 11409 H 1108.13 -2.05303 1.52592 0
M  V30 11410 H 1107.77 -4.23394 2.80535 0
M  V30 11411 H 1107.7 -5.1136 1.25773 0
M  V30 11412 H 1110.19 -3.55225 1.28932 0
M  V30 11413 H 1110.5 -7.02715 3.21575 0
M  V30 11414 H 1108.85 -6.3226 2.88569 0
M  V30 11415 H 1112.04 -4.37067 1.676 0
M  V30 11416 H 1112.21 -5.95535 2.55426 0
M  V30 11417 N 1105.62 -0.414636 -1.52048 0
M  V30 11418 C 1106.55 0.399119 -2.30064 0
M  V30 11419 C 1107.53 1.04126 -1.34506 0
M  V30 11420 O 1108.71 1.04923 -1.63416 0
M  V30 11421 C 1105.84 1.51305 -3.12608 0
M  V30 11422 C 1104.8 0.995621 -4.16259 0
M  V30 11423 C 1104.12 2.20357 -4.87183 0
M  V30 11424 C 1105.42 0.0458178 -5.2228 0
M  V30 11425 H 1107.12 -0.251879 -2.98339 0
M  V30 11426 H 1104.66 -0.122579 -1.43477 0
M  V30 11427 H 1106.62 2.08936 -3.65956 0
M  V30 11428 H 1105.34 2.19201 -2.42113 0
M  V30 11429 H 1104 0.441676 -3.6393 0
M  V30 11430 H 1103.65 2.8682 -4.13211 0
M  V30 11431 H 1103.35 1.86385 -5.57256 0
M  V30 11432 H 1104.87 2.78584 -5.43345 0
M  V30 11433 H 1106.29 0.531102 -5.70835 0
M  V30 11434 H 1104.68 -0.20536 -5.99749 0
M  V30 11435 H 1105.75 -0.897807 -4.76516 0
M  V30 11436 N 1107.1 1.56929 -0.145233 0
M  V30 11437 C 1108.06 2.15483 0.781002 0
M  V30 11438 C 1109.06 1.09617 1.17647 0
M  V30 11439 O 1110.25 1.35265 1.09768 0
M  V30 11440 C 1107.38 2.7165 2.05959 0
M  V30 11441 H 1108.57 2.98667 0.271685 0
M  V30 11442 H 1106.13 1.55952 0.1042 0
M  V30 11443 H 1106.86 1.92127 2.61262 0
M  V30 11444 H 1106.65 3.491 1.78526 0
M  V30 11445 H 1108.14 3.16769 2.72116 0
M  V30 11446 N 1108.58 -0.128553 1.57075 0
M  V30 11447 C 1109.99 -0.481794 1.52154 0
M  V30 11448 C 1110.19 -1.82381 0.856694 0
M  V30 11449 O 1109.25 -2.48725 0.434989 0
M  V30 11450 C 1110.56 -0.475091 2.96923 0
M  V30 11451 C 1112.11 -0.559315 3.07962 0
M  V30 11452 C 1112.58 -0.583095 4.54273 0
M  V30 11453 N 1114.07 -0.644803 4.5869 0
M  V30 11454 C 1114.81 -0.684493 5.693 0
M  V30 11455 N 1114.31 -0.682407 6.89431 0
M  V30 11456 N 1116.1 -0.726777 5.57382 0
M  V30 11457 H 1108.25 0.750894 1.98684 0
M  V30 11458 H 1110.51 0.27593 0.906955 0
M  V30 11459 H 1110.22 0.443157 3.48897 0
M  V30 11460 H 1110.09 -1.30637 3.53856 0
M  V30 11461 H 1112.48 -1.46798 2.55997 0
M  V30 11462 H 1112.56 0.299468 2.54041 0
M  V30 11463 H 1112.2 0.32149 5.06881 0
M  V30 11464 H 1112.13 -1.45863 5.05996 0
M  V30 11465 H 1114.63 -0.652967 3.72216 0
M  V30 11466 H 1114.94 -0.715051 7.69485 0
M  V30 11467 H 1113.28 -0.649984 6.91954 0
M  V30 11468 H 1116.47 -0.725704 4.6244 0
M  V30 11469 H 1116.65 -0.754242 6.43596 0
M  V30 11470 N 1110.05 -1.5248 -0.398459 0
M  V30 11471 C 1110.98 -1.79549 -1.49279 0
M  V30 11472 C 1111.96 -0.647004 -1.57315 0
M  V30 11473 O 1113.15 -0.893661 -1.72416 0
M  V30 11474 C 1110.28 -1.95582 -2.86993 0
M  V30 11475 C 1109.23 -3.1123 -2.93803 0
M  V30 11476 C 1108.56 -3.12501 -4.33874 0
M  V30 11477 C 1109.86 -4.50485 -2.64312 0
M  V30 11478 H 1111.55 -2.71187 -1.26877 0
M  V30 11479 H 1109.1 -1.30492 -0.608924 0
M  V30 11480 H 1111.05 -2.13102 -3.63546 0
M  V30 11481 H 1109.78 -1.00625 -3.10712 0
M  V30 11482 H 1108.44 -2.93477 -2.19697 0
M  V30 11483 H 1108.08 -2.15245 -4.54619 0
M  V30 11484 H 1107.78 -3.90183 -4.39353 0
M  V30 11485 H 1109.31 -3.32164 -5.12347 0
M  V30 11486 H 1110.72 -4.68387 -3.30585 0
M  V30 11487 H 1109.12 -5.30163 -2.81153 0
M  V30 11488 H 1110.19 -4.57848 -1.59696 0
M  V30 11489 N 1111.53 0.65634 -1.43283 0
M  V30 11490 C 1112.49 1.75117 -1.47874 0
M  V30 11491 C 1113.49 1.56629 -0.363846 0
M  V30 11492 O 1114.68 1.62584 -0.625464 0
M  V30 11493 C 1111.82 3.13957 -1.32831 0
M  V30 11494 H 1113.01 1.72429 -2.45374 0
M  V30 11495 H 1110.56 0.867704 -1.30002 0
M  V30 11496 H 1111.3 3.22259 -0.36326 0
M  V30 11497 H 1111.08 3.28781 -2.13649 0
M  V30 11498 H 1112.57 3.93799 -1.38969 0
M  V30 11499 N 1113.01 1.29761 0.894412 0
M  V30 11500 C 1114.42 1.16275 1.46072 0
M  V30 11501 C 1114.77 -0.240123 1.94725 0
M  V30 11502 O 1113.9 -1.13606 1.84181 0
M  V30 11503 C 1114.49 2.10471 2.65494 0
M  V30 11504 C 1113.05 2.00992 3.18244 0
M  V30 11505 C 1112.2 2.01094 1.90936 0
M  V30 11506 H 1115.15 1.42169 0.705243 0
M  V30 11507 H 1115.17 1.68003 3.41402 0
M  V30 11508 H 1114.68 3.12566 2.30053 0
M  V30 11509 H 1112.78 1.02005 3.58365 0
M  V30 11510 H 1112.9 2.88916 3.82184 0
M  V30 11511 H 1111.26 1.45764 2.08866 0
M  V30 11512 H 1112.04 3.04902 1.57764 0
M  V30 11513 N 1114.49 -1.10549 1.12324 0
M  V30 11514 C 1115.74 -1.82124 0.876083 0
M  V30 11515 C 1116.06 -1.85547 -0.599761 0
M  V30 11516 O 1115.33 -1.33269 -1.43584 0
M  V30 11517 H 1113.91 -0.674455 0.321122 0
M  V30 11518 H 1116.57 -1.33766 1.41748 0
M  V30 11519 H 1115.66 -2.85688 1.25653 0
M  V30 11520 N 1115.97 -0.914965 -1.28321 0
M  V30 11521 C 1117.21 -0.555865 -1.96696 0
M  V30 11522 C 1117.57 0.8842 -1.70429 0
M  V30 11523 O 1118.77 1.35094 -2.32386 0
M  V30 11524 C 1117.04 -0.857942 -3.4695 0
M  V30 11525 S 1118.6 -0.605441 -4.34603 0
M  V30 11526 H 1115.42 -0.20564 -0.680612 0
M  V30 11527 H 1118.02 -1.18068 -1.55821 0
M  V30 11528 H 1116.72 -1.90394 -3.63563 0
M  V30 11529 H 1116.26 -0.221831 -3.92774 0
M  V30 11530 H 1118.27 0.542657 -4.93224 0
M  V30 11531 N 1117.44 1.42219 -0.679077 0
M  V30 11532 C 1118.35 2.346 -0.00345919 0
M  V30 11533 C 1119.37 1.55327 0.784181 0
M  V30 11534 O 1120.55 1.87878 0.725524 0
M  V30 11535 C 1117.61 3.33905 0.933194 0
M  V30 11536 C 1116.67 4.29073 0.139607 0
M  V30 11537 C 1115.9 5.23634 1.03165 0
M  V30 11538 O 1116.13 5.23234 2.27119 0
M  V30 11539 O 1115.06 5.99901 0.490159 0
M  V30 11540 H 1118.89 2.9392 -0.764525 0
M  V30 11541 H 1116.47 1.42794 -0.439329 0
M  V30 11542 H 1118.35 3.949 1.47077 0
M  V30 11543 H 1117.03 2.77052 1.67404 0
M  V30 11544 H 1115.94 3.71478 -0.442177 0
M  V30 11545 H 1117.27 4.88979 -0.562214 0
M  V30 11546 N 1118.92 0.422693 1.51826 0
M  V30 11547 C 1120.33 -0.0438129 1.86649 0
M  V30 11548 C 1120.68 -1.43246 1.34071 0
M  V30 11549 O 1119.81 -2.05256 0.685501 0
M  V30 11550 C 1120.4 -0.0862802 3.3869 0
M  V30 11551 C 1118.96 -0.497157 3.73102 0
M  V30 11552 C 1118.11 0.319655 2.75451 0
M  V30 11553 H 1121.06 0.639181 1.45259 0
M  V30 11554 H 1121.08 -0.8988 3.69732 0
M  V30 11555 H 1120.59 0.924525 3.76927 0
M  V30 11556 H 1118.69 -1.51411 3.40449 0
M  V30 11557 H 1118.81 -0.232125 4.78537 0
M  V30 11558 H 1117.17 -0.219963 2.53748 0
M  V30 11559 H 1117.95 1.32906 3.16529 0
M  V30 11560 N 1120.4 -1.5685 0.153553 0
M  V30 11561 C 1121.33 -2.20101 -0.779601 0
M  V30 11562 C 1122.31 -1.15121 -1.25225 0
M  V30 11563 O 1123.5 -1.43487 -1.30862 0
M  V30 11564 C 1120.63 -2.82778 -2.01628 0
M  V30 11565 C 1119.58 -3.93643 -1.68015 0
M  V30 11566 C 1118.91 -4.43286 -2.99001 0
M  V30 11567 C 1120.21 -5.14102 -0.921774 0
M  V30 11568 H 1121.9 -2.98334 -0.252432 0
M  V30 11569 H 1119.45 -1.43499 -0.119975 0
M  V30 11570 H 1121.4 -3.25696 -2.67395 0
M  V30 11571 H 1120.12 -2.01887 -2.56728 0
M  V30 11572 H 1118.78 -3.51354 -1.04624 0
M  V30 11573 H 1118.43 -3.59208 -3.52106 0
M  V30 11574 H 1118.13 -5.18068 -2.77272 0
M  V30 11575 H 1119.65 -4.88878 -3.65828 0
M  V30 11576 H 1121.07 -5.53823 -1.48167 0
M  V30 11577 H 1119.46 -5.94687 -0.804185 0
M  V30 11578 H 1120.53 -4.84825 0.0852757 0
M  V30 11579 N 1121.88 0.120221 -1.57141 0
M  V30 11580 C 1123.13 0.826586 -1.84423 0
M  V30 11581 C 1123.45 1.80473 -0.738553 0
M  V30 11582 O 1122.72 1.94454 0.23755 0
M  V30 11583 H 1121.3 0.308246 -0.680436 0
M  V30 11584 H 1123.96 0.107835 -1.94601 0
M  V30 11585 H 1123.05 1.37256 -2.80298 0
M  V30 11586 N 1123.36 1.52689 0.390367 0
M  V30 11587 C 1124.29 1.80338 1.48325 0
M  V30 11588 C 1125.27 0.655338 1.56969 0
M  V30 11589 O 1126.45 0.902792 1.7194 0
M  V30 11590 C 1123.58 1.97101 2.85952 0
M  V30 11591 C 1122.54 3.12783 2.92148 0
M  V30 11592 C 1121.86 3.14798 4.32211 0
M  V30 11593 C 1123.16 4.5188 2.61919 0
M  V30 11594 H 1124.86 2.71857 1.25437 0
M  V30 11595 H 1122.4 1.30813 0.601995 0
M  V30 11596 H 1124.36 2.15027 3.62411 0
M  V30 11597 H 1123.08 1.02271 3.10174 0
M  V30 11598 H 1121.74 2.94638 2.18137 0
M  V30 11599 H 1121.39 2.17653 4.53471 0
M  V30 11600 H 1121.09 3.92507 4.37278 0
M  V30 11601 H 1122.61 3.34877 5.10578 0
M  V30 11602 H 1124.02 4.70134 3.28096 0
M  V30 11603 H 1122.42 5.31647 2.78337 0
M  V30 11604 H 1123.49 4.58689 1.57266 0
M  V30 11605 N 1124.83 -0.648732 1.43629 0
M  V30 11606 C 1125.76 -1.77298 1.51947 0
M  V30 11607 C 1126.75 -1.65942 0.373785 0
M  V30 11608 O 1127.93 -1.8497 0.591596 0
M  V30 11609 C 1125.06 -3.15749 1.44638 0
M  V30 11610 C 1124.01 -3.41872 2.57502 0
M  V30 11611 C 1123.34 -4.8017 2.35246 0
M  V30 11612 C 1124.64 -3.36173 3.99731 0
M  V30 11613 H 1126.33 -1.70594 2.46045 0
M  V30 11614 H 1123.88 -0.819306 1.1842 0
M  V30 11615 H 1125.83 -3.94156 1.4906 0
M  V30 11616 H 1124.56 -3.23194 0.470466 0
M  V30 11617 H 1123.22 -2.65838 2.5244 0
M  V30 11618 H 1122.86 -4.84297 1.35887 0
M  V30 11619 H 1122.56 -4.9861 3.10906 0
M  V30 11620 H 1124.09 -5.6083 2.41459 0
M  V30 11621 H 1125.5 -4.0451 4.06257 0
M  V30 11622 H 1123.9 -3.66148 4.75453 0
M  V30 11623 H 1124.97 -2.34277 4.24549 0
M  V30 11624 N 1126.31 -1.30234 -0.887518 0
M  V30 11625 C 1127.24 -1.12212 -1.99853 0
M  V30 11626 C 1128.26 -0.0660929 -1.62666 0
M  V30 11627 O 1129.45 -0.311853 -1.75755 0
M  V30 11628 C 1126.55 -0.688591 -3.31831 0
M  V30 11629 C 1125.72 -1.82581 -3.97471 0
M  V30 11630 C 1124.78 -1.38126 -5.07748 0
M  V30 11631 O 1123.8 -2.08805 -5.29518 0
M  V30 11632 N 1125.01 -0.258868 -5.79923 0
M  V30 11633 H 1127.77 -2.07901 -2.15864 0
M  V30 11634 H 1125.33 -1.22336 -1.06045 0
M  V30 11635 H 1127.32 -0.374252 -4.02966 0
M  V30 11636 H 1125.89 0.176185 -3.12103 0
M  V30 11637 H 1125.11 -2.3084 -3.19541 0
M  V30 11638 H 1126.4 -2.58798 -4.38065 0
M  V30 11639 H 1125.8 0.330131 -5.64736 0
M  V30 11640 H 1124.36 -0.00396813 -6.518 0
M  V30 11641 N 1127.79 1.09952 -1.12909 0
M  V30 11642 C 1129.04 1.81657 -0.885729 0
M  V30 11643 C 1129.36 1.85863 0.589913 0
M  V30 11644 O 1128.63 1.34028 1.42875 0
M  V30 11645 H 1127.21 0.672743 -0.324694 0
M  V30 11646 H 1129.87 1.33013 -1.42456 0
M  V30 11647 H 1128.97 2.85018 -1.27167 0
M  V30 11648 N 1129.27 0.921757 1.27833 0
M  V30 11649 C 1130.55 0.477706 1.89677 0
M  V30 11650 C 1130.93 -1.04392 1.83481 0
M  V30 11651 O 1130.27 -1.89549 1.27606 0
M  V30 11652 C 1130.48 1.01709 3.33851 0
M  V30 11653 C 1131.83 1.074 4.10792 0
M  V30 11654 O 1132.86 0.966295 3.42843 0
M  V30 11655 O 1131.71 1.23909 5.32268 0
M  V30 11656 H 1128.81 0.15271 0.812778 0
M  V30 11657 H 1131.35 1.01306 1.36144 0
M  V30 11658 H 1130.13 2.061 3.32623 0
M  V30 11659 H 1129.75 0.463031 3.94895 0
M  V30 11660 N 1130.75 -1.41857 0.686609 0
M  V30 11661 C 1131.99 -2.03236 0.217839 0
M  V30 11662 C 1132.35 -1.5317 -1.15771 0
M  V30 11663 O 1133.55 -2.06415 -1.72181 0
M  V30 11664 C 1131.82 -3.56428 0.263443 0
M  V30 11665 S 1133.38 -4.386 -0.132595 0
M  V30 11666 H 1130.2 -0.705472 0.088487 0
M  V30 11667 H 1132.8 -1.73428 0.902393 0
M  V30 11668 H 1131.51 -3.90362 1.26672 0
M  V30 11669 H 1131.04 -3.90925 -0.440556 0
M  V30 11670 H 1133.05 -4.77119 -1.3628 0
M  V30 11671 N 1132.22 -0.430739 -1.51599 0
M  V30 11672 C 1133.13 0.390347 -2.3133 0
M  V30 11673 C 1134.15 1.03376 -1.39962 0
M  V30 11674 O 1135.33 1.03057 -1.73035 0
M  V30 11675 C 1132.39 1.48039 -3.13505 0
M  V30 11676 C 1131.45 0.857792 -4.20643 0
M  V30 11677 C 1130.69 1.89589 -4.9889 0
M  V30 11678 O 1130.91 3.11717 -4.77691 0
M  V30 11679 O 1129.84 1.49009 -5.83164 0
M  V30 11680 H 1133.67 -0.260358 -3.02582 0
M  V30 11681 H 1131.25 -0.193428 -1.48143 0
M  V30 11682 H 1133.14 2.11272 -3.64612 0
M  V30 11683 H 1131.81 2.1153 -2.45024 0
M  V30 11684 H 1130.72 0.187592 -3.73629 0
M  V30 11685 H 1132.05 0.266474 -4.91478 0
M  V30 11686 N 1133.7 1.56767 -0.161869 0
M  V30 11687 C 1134.64 2.13321 0.810527 0
M  V30 11688 C 1135.61 1.06073 1.23237 0
M  V30 11689 O 1136.8 1.33993 1.32583 0
M  V30 11690 C 1133.92 2.66506 2.09027 0
M  V30 11691 C 1132.97 3.86038 1.8132 0
M  V30 11692 S 1133.8 5.26253 0.990873 0
M  V30 11693 C 1134.96 5.82837 2.28149 0
M  V30 11694 H 1135.19 2.95467 0.32965 0
M  V30 11695 H 1132.73 1.5431 0.052655 0
M  V30 11696 H 1134.68 2.97797 2.82537 0
M  V30 11697 H 1133.34 1.84463 2.54229 0
M  V30 11698 H 1132.54 4.21547 2.7625 0
M  V30 11699 H 1132.14 3.55585 1.1591 0
M  V30 11700 H 1134.43 5.95175 3.23686 0
M  V30 11701 H 1135.37 6.80109 1.97123 0
M  V30 11702 H 1135.78 5.11186 2.39477 0
M  V30 11703 N 1135.18 -0.111886 1.57202 0
M  V30 11704 C 1136.09 -1.1556 2.04165 0
M  V30 11705 C 1137.11 -1.44898 0.963354 0
M  V30 11706 O 1138.28 -1.55873 1.27536 0
M  V30 11707 C 1135.35 -2.46048 2.44256 0
M  V30 11708 C 1134.41 -2.24043 3.66201 0
M  V30 11709 C 1133.64 -3.4831 4.04371 0
M  V30 11710 O 1133.86 -4.55895 3.42806 0
M  V30 11711 O 1132.8 -3.38891 4.9743 0
M  V30 11712 H 1136.62 -0.786778 2.93332 0
M  V30 11713 H 1134.21 -0.323196 1.45862 0
M  V30 11714 H 1136.09 -3.22916 2.70745 0
M  V30 11715 H 1134.77 -2.8239 1.58233 0
M  V30 11716 H 1133.67 -1.4501 3.44852 0
M  V30 11717 H 1135.01 -1.92602 4.52952 0
M  V30 11718 N 1136.66 -1.52894 -0.382264 0
M  V30 11719 C 1137.94 -1.58853 -1.14127 0
M  V30 11720 C 1138.32 -0.38582 -2.07544 0
M  V30 11721 O 1137.66 0.625323 -2.19777 0
M  V30 11722 C 1137.87 -2.93068 -1.89504 0
M  V30 11723 C 1139.22 -3.47048 -2.44629 0
M  V30 11724 O 1140.25 -2.94987 -1.99652 0
M  V30 11725 O 1139.1 -4.3802 -3.26804 0
M  V30 11726 H 1136.2 -0.640969 -0.522578 0
M  V30 11727 H 1138.74 -1.65231 -0.386873 0
M  V30 11728 H 1137.52 -3.72047 -1.2123 0
M  V30 11729 H 1137.14 -2.90106 -2.7189 0
M  V30 11730 N 1138.14 0.641106 -1.43971 0
M  V30 11731 C 1139.07 1.76489 -1.52885 0
M  V30 11732 C 1140.05 1.65742 -0.38258 0
M  V30 11733 O 1141.23 1.84653 -0.601397 0
M  V30 11734 C 1138.36 3.14977 -1.4631 0
M  V30 11735 C 1137.32 3.40502 -2.59311 0
M  V30 11736 C 1136.64 4.78916 -2.37789 0
M  V30 11737 C 1137.94 3.34048 -4.01509 0
M  V30 11738 H 1139.64 1.69286 -2.46946 0
M  V30 11739 H 1137.18 0.813015 -1.18853 0
M  V30 11740 H 1139.14 3.9336 -1.51149 0
M  V30 11741 H 1137.86 3.2294 -0.487599 0
M  V30 11742 H 1136.52 2.64495 -2.53846 0
M  V30 11743 H 1136.17 4.8357 -1.38454 0
M  V30 11744 H 1135.87 4.96954 -3.13545 0
M  V30 11745 H 1137.39 5.59541 -2.4443 0
M  V30 11746 H 1138.81 4.0235 -4.08396 0
M  V30 11747 H 1137.2 3.63622 -4.77388 0
M  V30 11748 H 1138.27 2.32022 -4.25786 0
M  V30 11749 N 1139.62 1.30703 0.880598 0
M  V30 11750 C 1140.55 1.11783 1.98947 0
M  V30 11751 C 1141.53 0.0242461 1.62582 0
M  V30 11752 O 1142.71 0.178641 1.87652 0
M  V30 11753 C 1139.84 0.705762 3.31265 0
M  V30 11754 C 1138.88 1.80084 3.86616 0
M  V30 11755 S 1139.72 3.40416 4.13373 0
M  V30 11756 C 1140.87 3.01122 5.48704 0
M  V30 11757 H 1141.11 2.05658 2.14691 0
M  V30 11758 H 1138.64 1.15067 1.02951 0
M  V30 11759 H 1140.6 0.474754 4.07745 0
M  V30 11760 H 1139.26 -0.213699 3.13372 0
M  V30 11761 H 1138.45 1.4649 4.82241 0
M  V30 11762 H 1138.05 1.98636 3.16891 0
M  V30 11763 H 1140.34 2.49355 6.29943 0
M  V30 11764 H 1141.29 3.95671 5.87239 0
M  V30 11765 H 1141.7 2.38865 5.11472 0
M  V30 11766 N 1141.09 -1.09351 1.1349 0
M  V30 11767 C 1142.5 -1.63035 0.909746 0
M  V30 11768 C 1142.86 -1.88229 -0.553573 0
M  V30 11769 O 1141.98 -1.63256 -1.42044 0
M  V30 11770 C 1142.58 -2.96186 1.64497 0
M  V30 11771 C 1141.13 -3.46692 1.46566 0
M  V30 11772 C 1140.28 -2.21095 1.67369 0
M  V30 11773 H 1143.23 -0.92704 1.28809 0
M  V30 11774 H 1143.25 -3.64177 1.10251 0
M  V30 11775 H 1142.77 -2.77818 2.70996 0
M  V30 11776 H 1140.87 -3.70183 0.423728 0
M  V30 11777 H 1140.98 -4.24078 2.22923 0
M  V30 11778 H 1139.34 -2.29789 1.0986 0
M  V30 11779 H 1140.13 -2.05245 2.7519 0
M  V30 11780 N 1142.57 -0.928524 -1.27343 0
M  V30 11781 C 1143.81 -0.576696 -1.96096 0
M  V30 11782 C 1144.18 0.866074 -1.71357 0
M  V30 11783 O 1145.38 1.32621 -2.33805 0
M  V30 11784 C 1143.65 -0.894692 -3.4602 0
M  V30 11785 S 1145.21 -0.651503 -4.33936 0
M  V30 11786 H 1142.02 -0.212847 -0.678393 0
M  V30 11787 H 1144.63 -1.19714 -1.5456 0
M  V30 11788 H 1143.33 -1.94239 -3.61524 0
M  V30 11789 H 1142.86 -0.263478 -3.92517 0
M  V30 11790 H 1144.88 0.490314 -4.93772 0
M  V30 11791 N 1144.05 1.41491 -0.694123 0
M  V30 11792 C 1145.27 2.06099 -0.23197 0
M  V30 11793 C 1145.7 1.51888 1.10958 0
M  V30 11794 O 1145.06 0.645247 1.69429 0
M  V30 11795 C 1145.11 3.60053 -0.198522 0
M  V30 11796 O 1144.21 4.04021 0.827067 0
M  V30 11797 H 1143.55 0.654193 -0.113699 0
M  V30 11798 H 1146.08 1.81282 -0.948575 0
M  V30 11799 H 1146.09 4.0799 -0.0288904 0
M  V30 11800 H 1144.77 3.98879 -1.17764 0
M  V30 11801 H 1143.34 3.67593 0.626908 0
M  V30 11802 N 1145.53 0.438773 1.51369 0
M  V30 11803 C 1146.46 -0.362467 2.3067 0
M  V30 11804 C 1147.44 -1.01973 1.36145 0
M  V30 11805 O 1148.62 -1.0231 1.65065 0
M  V30 11806 C 1145.75 -1.46313 3.14976 0
M  V30 11807 C 1144.71 -0.929272 4.1779 0
M  V30 11808 C 1144.03 -2.12579 4.90627 0
M  V30 11809 C 1145.33 0.0372782 5.22287 0
M  V30 11810 H 1147.03 0.29931 2.979 0
M  V30 11811 H 1144.57 0.14539 1.43264 0
M  V30 11812 H 1146.53 -2.03088 3.69233 0
M  V30 11813 H 1145.25 -2.15321 2.45569 0
M  V30 11814 H 1143.91 -0.383722 3.64586 0
M  V30 11815 H 1143.56 -2.8021 4.17722 0
M  V30 11816 H 1143.26 -1.77496 5.60151 0
M  V30 11817 H 1144.78 -2.69905 5.47708 0
M  V30 11818 H 1146.2 -0.44022 5.71607 0
M  V30 11819 H 1144.59 0.300748 5.99346 0
M  V30 11820 H 1145.66 0.973503 4.75027 0
M  V30 11821 N 1147.01 -1.56678 0.170181 0
M  V30 11822 C 1148.25 -1.9646 -0.474125 0
M  V30 11823 C 1148.57 -1.05719 -1.63855 0
M  V30 11824 O 1147.84 -0.123316 -1.95511 0
M  V30 11825 H 1146.42 -0.725446 -0.178149 0
M  V30 11826 H 1149.09 -1.93276 0.251099 0
M  V30 11827 H 1148.18 -3.00726 -0.834894 0
M  V30 11828 N 1148.48 0.103547 -1.57259 0
M  V30 11829 C 1149.71 0.82235 -1.89855 0
M  V30 11830 C 1150.13 1.72694 -0.76303 0
M  V30 11831 O 1149.48 1.8056 0.265421 0
M  V30 11832 C 1149.53 1.64282 -3.22015 0
M  V30 11833 O 1149.26 0.774628 -4.31197 0
M  V30 11834 C 1150.76 2.46543 -3.68418 0
M  V30 11835 H 1147.98 0.235591 -0.628282 0
M  V30 11836 H 1150.52 0.0833106 -2.0433 0
M  V30 11837 H 1148.68 2.33446 -3.09163 0
M  V30 11838 H 1149.09 1.34205 -5.0704 0
M  V30 11839 H 1150.56 2.99618 -4.63609 0
M  V30 11840 H 1151.04 3.24618 -2.95838 0
M  V30 11841 H 1151.65 1.82594 -3.84109 0
M  V30 11842 N 1149.96 1.53094 0.37415 0
M  V30 11843 C 1151.21 1.68861 1.11769 0
M  V30 11844 C 1151.54 0.436032 1.89549 0
M  V30 11845 O 1150.79 -0.581879 1.86849 0
M  V30 11846 C 1151.09 2.88432 2.11049 0
M  V30 11847 C 1150.76 4.25284 1.49814 0
M  V30 11848 C 1149.42 4.62501 1.32841 0
M  V30 11849 C 1151.77 5.10425 1.05433 0
M  V30 11850 C 1149.1 5.82502 0.700567 0
M  V30 11851 C 1151.45 6.31064 0.440525 0
M  V30 11852 C 1150.11 6.67 0.258216 0
M  V30 11853 H 1149.38 0.617906 0.40899 0
M  V30 11854 H 1152.03 1.87265 0.4005 0
M  V30 11855 H 1150.34 2.64505 2.8904 0
M  V30 11856 H 1152.03 2.97825 2.68517 0
M  V30 11857 H 1148.62 3.95976 1.64016 0
M  V30 11858 H 1152.81 4.82229 1.17342 0
M  V30 11859 H 1148.06 6.08942 0.547652 0
M  V30 11860 H 1152.24 6.96344 0.0883962 0
M  V30 11861 H 1149.86 7.59851 -0.230354 0
M  V30 11862 N 1151.44 -0.633461 1.44309 0
M  V30 11863 C 1152.69 -1.39513 1.47187 0
M  V30 11864 C 1153.02 -1.93926 0.103186 0
M  V30 11865 O 1152.29 -1.73512 -0.878853 0
M  V30 11866 C 1152.58 -2.56213 2.53036 0
M  V30 11867 C 1152.43 -2.07164 3.99253 0
M  V30 11868 C 1153.75 -3.58403 2.55412 0
M  V30 11869 H 1150.87 -0.505936 0.535908 0
M  V30 11870 H 1153.51 -0.716445 1.75975 0
M  V30 11871 H 1151.66 -3.14111 2.28619 0
M  V30 11872 H 1153.33 -1.54115 4.34795 0
M  V30 11873 H 1151.57 -1.38367 4.11141 0
M  V30 11874 H 1152.25 -2.91172 4.6896 0
M  V30 11875 H 1154.72 -3.103 2.77224 0
M  V30 11876 H 1153.6 -4.37581 3.31382 0
M  V30 11877 H 1153.86 -4.12316 1.59523 0
M  V30 11878 N 1152.92 -1.31168 -0.873655 0
M  V30 11879 C 1153.85 -1.21094 -1.99646 0
M  V30 11880 C 1154.83 -0.0989684 -1.69812 0
M  V30 11881 O 1156.01 -0.282939 -1.92128 0
M  V30 11882 C 1153.14 -0.913684 -3.35066 0
M  V30 11883 C 1152.1 -1.98482 -3.79195 0
M  V30 11884 C 1151.42 -1.54033 -5.12033 0
M  V30 11885 C 1152.72 -3.39745 -3.96699 0
M  V30 11886 H 1154.42 -2.1503 -2.08333 0
M  V30 11887 H 1151.96 -1.03521 -1.00097 0
M  V30 11888 H 1153.92 -0.829821 -4.13149 0
M  V30 11889 H 1152.64 0.0613471 -3.26542 0
M  V30 11890 H 1151.3 -2.05851 -3.03349 0
M  V30 11891 H 1150.95 -0.553261 -4.99948 0
M  V30 11892 H 1150.65 -2.25688 -5.4253 0
M  V30 11893 H 1152.17 -1.47047 -5.92629 0
M  V30 11894 H 1153.59 -3.35071 -4.65188 0
M  V30 11895 H 1151.98 -4.09585 -4.38589 0
M  V30 11896 H 1153.05 -3.80802 -3.00196 0
M  V30 11897 N 1154.4 1.08748 -1.14068 0
M  V30 11898 C 1155.64 1.81333 -0.908081 0
M  V30 11899 C 1155.98 1.85826 0.564112 0
M  V30 11900 O 1155.25 1.33157 1.41773 0
M  V30 11901 C 1155.53 3.27127 -1.50531 0
M  V30 11902 C 1155.39 3.30865 -3.04711 0
M  V30 11903 C 1156.71 4.24006 -1.17928 0
M  V30 11904 H 1153.82 0.658326 -0.331325 0
M  V30 11905 H 1156.47 1.27345 -1.41008 0
M  V30 11906 H 1154.62 3.73233 -1.07839 0
M  V30 11907 H 1156.29 2.93109 -3.56209 0
M  V30 11908 H 1154.53 2.70241 -3.39341 0
M  V30 11909 H 1155.2 4.33603 -3.41603 0
M  V30 11910 H 1157.68 3.86221 -1.54831 0
M  V30 11911 H 1156.55 5.2434 -1.62353 0
M  V30 11912 H 1156.82 4.42 -0.0940349 0
M  V30 11913 N 1155.87 0.935264 1.26849 0
M  V30 11914 C 1156.81 0.397539 2.25726 0
M  V30 11915 C 1157.82 -0.475928 1.55688 0
M  V30 11916 O 1159.01 -0.287329 1.76172 0
M  V30 11917 C 1156.11 -0.448308 3.35922 0
M  V30 11918 C 1155.28 0.407624 4.35496 0
M  V30 11919 C 1154.34 -0.376815 5.24849 0
M  V30 11920 O 1153.37 0.218109 5.68782 0
M  V30 11921 N 1154.57 -1.67481 5.55815 0
M  V30 11922 H 1157.33 1.24753 2.72501 0
M  V30 11923 H 1154.89 0.803505 1.40554 0
M  V30 11924 H 1156.89 -0.980338 3.92647 0
M  V30 11925 H 1155.46 -1.19908 2.88688 0
M  V30 11926 H 1154.68 1.12091 3.77928 0
M  V30 11927 H 1155.96 0.992512 4.99026 0
M  V30 11928 H 1155.36 -2.18037 5.21993 0
M  V30 11929 H 1153.92 -2.15321 6.15207 0
M  V30 11930 O 1157.39 -1.37925 0.840177 0
M  V30 11931 H 1158.08 -1.88898 0.428615 0
M  V30 END ATOM
M  V30 BEGIN BOND
M  V30 END BOND
M  V30 END CTAB
M  END
$$$$
