drugbank_target|P58335 Anthrax toxin receptor 2 (DB05945)
 OpenBabel12092120283D

  0  0  0     0  0            999 V3000
M  V30 BEGIN CTAB
M  V30 COUNTS 7636 7720 0 0 0
M  V30 BEGIN ATOM
M  V30 1 H -0.908 1.98254 -0.117106 0
M  V30 2 N 0 1.576 0 0
M  V30 3 C 0.933 2.03868 1.02534 0
M  V30 4 C 1.911 0.928543 1.3348 0
M  V30 5 O 3.095 1.19667 1.45644 0
M  V30 6 C 0.222 2.43627 2.35294 0
M  V30 7 C -0.732 3.65373 2.2001 0
M  V30 8 S 0.101 5.13292 1.52614 0
M  V30 9 C 1.257 5.56322 2.86805 0
M  V30 10 H 1.49 2.90518 0.631377 0
M  V30 11 H -0.977 1.52953 0.210867 0
M  V30 12 H 0.981 2.67203 3.11629 0
M  V30 13 H -0.358 1.57376 2.7183 0
M  V30 14 H -1.165 3.90944 3.18086 0
M  V30 15 H -1.563 3.418 1.51819 0
M  V30 16 H 0.729 5.58782 3.83104 0
M  V30 17 H 1.672 6.56266 2.65933 0
M  V30 18 H 2.08 4.83886 2.90714 0
M  V30 19 N 1.4781 -0.272755 1.55222 0
M  V30 20 C 2.7241 -1.00581 1.761 0
M  V30 21 C 3.0571 -1.85932 0.560625 0
M  V30 22 O 2.3321 -1.89416 -0.441801 0
M  V30 23 C 2.6151 -1.88816 3.06628 0
M  V30 24 C 2.4681 -1.06457 4.37021 0
M  V30 25 C 3.7871 -2.8752 3.33197 0
M  V30 26 H 0.9061 -0.364244 0.640699 0
M  V30 27 H 3.5481 -0.278189 1.87952 0
M  V30 28 H 1.6981 -2.50856 2.96654 0
M  V30 29 H 3.3701 -0.464863 4.58952 0
M  V30 30 H 1.6131 -0.368043 4.32236 0
M  V30 31 H 2.2841 -1.71514 5.24678 0
M  V30 32 H 4.7601 -2.35615 3.42965 0
M  V30 33 H 3.6361 -3.46399 4.25792 0
M  V30 34 H 3.8971 -3.62657 2.52849 0
M  V30 35 N 2.9562 -1.48159 -0.537278 0
M  V30 36 C 3.9192 -1.61665 -1.62472 0
M  V30 37 C 4.9192 -0.490395 -1.5314 0
M  V30 38 O 6.1092 -0.755998 -1.5694 0
M  V30 39 C 3.2412 -1.57997 -3.02076 0
M  V30 40 H 4.4342 -2.58621 -1.51839 0
M  V30 41 H 1.9872 -1.36647 -0.758771 0
M  V30 42 H 2.7222 -0.624913 -3.18222 0
M  V30 43 H 2.5072 -2.39755 -3.10258 0
M  V30 44 H 3.9972 -1.70627 -3.81151 0
M  V30 45 N 4.4343 0.785586 -1.36625 0
M  V30 46 C 5.3443 1.92964 -1.33425 0
M  V30 47 C 6.3603 1.72394 -0.235851 0
M  V30 48 O 7.5363 1.95866 -0.468878 0
M  V30 49 C 4.6013 3.27884 -1.12662 0
M  V30 50 C 3.6623 3.61204 -2.32013 0
M  V30 51 C 2.8953 4.89687 -2.12231 0
M  V30 52 O 3.1183 5.59704 -1.09945 0
M  V30 53 O 2.0523 5.21752 -3.00098 0
M  V30 54 H 5.8783 1.98613 -2.29753 0
M  V30 55 H 3.4633 0.926384 -1.17211 0
M  V30 56 H 5.3453 4.08614 -1.03016 0
M  V30 57 H 4.0203 3.23118 -0.193991 0
M  V30 58 H 2.9273 2.80765 -2.47228 0
M  V30 59 H 4.2603 3.70698 -3.23796 0
M  V30 60 N 5.9124 1.20967 1.01018 0
M  V30 61 C 7.3284 0.965905 1.27053 0
M  V30 62 C 7.5284 -0.350785 1.98423 0
M  V30 63 O 6.5844 -1.07773 2.28344 0
M  V30 64 C 7.8974 2.15294 2.09926 0
M  V30 65 C 9.4454 2.19463 2.23171 0
M  V30 66 C 9.9204 3.3767 3.09424 0
M  V30 67 N 11.4114 3.37724 3.17012 0
M  V30 68 C 12.1464 4.25837 3.83993 0
M  V30 69 N 11.6424 5.24138 4.53047 0
M  V30 70 N 13.4354 4.1366 3.80581 0
M  V30 71 H 5.5864 2.0565 0.531194 0
M  V30 72 H 7.8494 0.90024 0.297106 0
M  V30 73 H 7.5554 3.10684 1.64828 0
M  V30 74 H 7.4294 2.13923 3.10672 0
M  V30 75 H 9.8164 1.24632 2.6749 0
M  V30 76 H 9.8974 2.2488 1.21912 0
M  V30 77 H 9.5414 4.32791 2.65808 0
M  V30 78 H 9.4714 3.29491 4.10784 0
M  V30 79 H 11.9624 2.6658 2.6785 0
M  V30 80 H 12.2754 5.87684 5.01844 0
M  V30 81 H 10.6204 5.28068 4.5185 0
M  V30 82 H 13.8114 3.36127 3.25785 0
M  V30 83 H 13.9844 4.82538 4.32505 0
M  V30 84 N 7.3905 -1.2043 1.01659 0
M  V30 85 C 8.6155 -1.94318 0.724942 0
M  V30 86 C 9.0405 -1.74266 -0.708034 0
M  V30 87 O 8.3985 -1.03694 -1.48719 0
M  V30 88 C 8.4465 -3.44486 1.06591 0
M  V30 89 O 7.5505 -4.12017 0.177599 0
M  V30 90 H 6.8915 -0.60708 0.26898 0
M  V30 91 H 9.4215 -1.52861 1.35995 0
M  V30 92 H 9.4315 -3.95106 1.01762 0
M  V30 93 H 8.1065 -3.58404 2.10997 0
M  V30 94 H 6.6835 -3.71821 0.283421 0
M  V30 95 N 8.8686 -0.792821 -1.36206 0
M  V30 96 C 10.2796 -0.429513 -1.81692 0
M  V30 97 C 10.6306 1.04695 -1.65932 0
M  V30 98 O 9.7556 1.81256 -1.18218 0
M  V30 99 C 10.3506 -0.772831 -3.29868 0
M  V30 100 C 8.9096 -0.462307 -3.7355 0
M  V30 101 C 8.0566 -1.00569 -2.5842 0
M  V30 102 H 11.0076 -0.985672 -1.24379 0
M  V30 103 H 11.0286 -0.0651928 -3.80444 0
M  V30 104 H 10.5406 -1.84747 -3.41307 0
M  V30 105 H 8.6416 0.604158 -3.67669 0
M  V30 106 H 8.7546 -0.985299 -4.68859 0
M  V30 107 H 7.1186 -0.428734 -2.51066 0
M  V30 108 H 7.9016 -2.08616 -2.72643 0
M  V30 109 N 10.3467 1.47872 -0.545128 0
M  V30 110 C 11.3097 2.28337 0.198717 0
M  V30 111 C 12.3097 1.36255 0.853888 0
M  V30 112 O 13.4997 1.59003 0.711606 0
M  V30 113 C 10.6317 3.15585 1.28915 0
M  V30 114 H 11.8247 2.95567 -0.507941 0
M  V30 115 H 9.3777 1.53362 -0.301616 0
M  V30 116 H 10.1127 2.53019 2.02859 0
M  V30 117 H 9.8977 3.83337 0.824309 0
M  V30 118 H 11.3877 3.76243 1.81194 0
M  V30 119 N 11.8248 0.280983 1.55075 0
M  V30 120 C 13.2408 -0.0729964 1.59433 0
M  V30 121 C 13.4408 -1.5411 1.29817 0
M  V30 122 O 12.4968 -2.29086 1.06187 0
M  V30 123 C 13.8098 0.306921 2.9913 0
M  V30 124 C 15.3578 0.254023 3.11968 0
M  V30 125 C 15.8328 0.608467 4.5394 0
M  V30 126 N 17.3238 0.560241 4.59799 0
M  V30 127 C 18.0588 0.80722 5.6769 0
M  V30 128 N 17.5548 1.11912 6.83701 0
M  V30 129 N 19.3478 0.735623 5.57266 0
M  V30 130 H 11.4988 1.238 1.7259 0
M  V30 131 H 13.7618 0.500547 0.805082 0
M  V30 132 H 13.4678 1.32816 3.25657 0
M  V30 133 H 13.3418 -0.349363 3.75579 0
M  V30 134 H 15.7288 -0.75794 2.852 0
M  V30 135 H 15.8098 0.944649 2.37718 0
M  V30 136 H 15.4538 1.61814 4.81434 0
M  V30 137 H 15.3838 -0.104013 5.26497 0
M  V30 138 H 17.8748 0.329288 3.76463 0
M  V30 139 H 18.1878 1.29409 7.61888 0
M  V30 140 H 16.5328 1.15695 6.85303 0
M  V30 141 H 19.7238 0.491752 4.6551 0
M  V30 142 H 19.8968 0.931482 6.4127 0
M  V30 143 N 13.3029 -1.57598 0.00835791 0
M  V30 144 C 14.5279 -1.95617 -0.689103 0
M  V30 145 C 14.9529 -0.883753 -1.66046 0
M  V30 146 O 14.3109 0.157352 -1.80616 0
M  V30 147 C 14.3589 -3.32736 -1.38994 0
M  V30 148 O 13.4629 -3.27631 -2.50463 0
M  V30 149 H 12.8039 -0.638379 -0.182668 0
M  V30 150 H 15.3339 -2.045 0.064036 0
M  V30 151 H 15.3439 -3.68494 -1.75147 0
M  V30 152 H 14.0189 -4.1034 -0.677778 0
M  V30 153 H 12.5959 -3.03561 -2.16576 0
M  V30 154 N 14.781 0.264519 -1.55364 0
M  V30 155 C 16.192 0.834936 -1.6699 0
M  V30 156 C 16.543 1.86718 -0.602552 0
M  V30 157 O 15.668 2.14899 0.254425 0
M  V30 158 C 16.263 1.5212 -3.02729 0
M  V30 159 C 14.822 2.03954 -3.16354 0
M  V30 160 C 13.969 0.884498 -2.62815 0
M  V30 161 H 16.92 0.0406869 -1.58648 0
M  V30 162 H 16.941 2.38853 -2.96191 0
M  V30 163 H 16.453 0.769668 -3.80392 0
M  V30 164 H 14.554 2.82041 -2.43482 0
M  V30 165 H 14.667 2.24902 -4.23032 0
M  V30 166 H 13.031 1.2802 -2.20188 0
M  V30 167 H 13.814 0.14634 -3.42988 0
M  V30 168 N 16.2591 1.48442 0.529413 0
M  V30 169 C 17.5071 1.56179 1.28267 0
M  V30 170 C 17.8281 0.237721 1.93546 0
M  V30 171 O 17.0981 -0.740779 1.81354 0
M  V30 172 H 15.6781 0.575367 0.476405 0
M  V30 173 H 18.3401 1.84909 0.61602 0
M  V30 174 H 17.4361 2.34312 2.06165 0
M  V30 175 N 17.7372 -0.778329 1.37039 0
M  V30 176 C 18.9622 -1.57248 1.35233 0
M  V30 177 C 19.3872 -1.87999 -0.0615568 0
M  V30 178 O 18.7452 -1.48734 -1.03672 0
M  V30 179 C 18.7932 -2.86353 2.19167 0
M  V30 180 O 17.8972 -3.80442 1.59178 0
M  V30 181 H 17.2382 -0.476569 0.462362 0
M  V30 182 H 19.7682 -0.963853 1.80474 0
M  V30 183 H 19.7782 -3.35519 2.32145 0
M  V30 184 H 18.4532 -2.63299 3.21942 0
M  V30 185 H 17.0302 -3.39067 1.55203 0
M  V30 186 N 19.2153 -1.21501 -1.00376 0
M  V30 187 C 20.4613 -1.04457 -1.74529 0
M  V30 188 C 20.8163 0.417386 -1.87818 0
M  V30 189 O 20.1093 1.30556 -1.40234 0
M  V30 190 C 20.3033 -1.67673 -3.15627 0
M  V30 191 C 20.1323 -3.19865 -3.16096 0
M  V30 192 C 18.9023 -3.88915 -3.22604 0
M  V30 193 C 21.1003 -4.16936 -3.01112 0
M  V30 194 N 19.0823 -5.28284 -3.12712 0
M  V30 195 C 20.4533 -5.43066 -2.99131 0
M  V30 196 C 22.5083 -4.07968 -2.85423 0
M  V30 197 C 21.2113 -6.6126 -2.83068 0
M  V30 198 C 23.2373 -5.258 -2.70718 0
M  V30 199 C 22.5993 -6.50842 -2.69414 0
M  V30 200 H 18.6983 -0.436584 -0.648782 0
M  V30 201 H 21.2823 -1.53875 -1.19293 0
M  V30 202 H 19.4533 -1.20822 -3.6913 0
M  V30 203 H 21.1853 -1.43824 -3.78281 0
M  V30 204 H 17.9403 -3.39847 -3.2985 0
M  V30 205 H 18.3643 -6.01284 -3.11105 0
M  V30 206 H 23.0063 -3.1209 -2.85236 0
M  V30 207 H 20.7243 -7.57298 -2.82002 0
M  V30 208 H 24.3103 -5.20683 -2.59577 0
M  V30 209 H 23.1903 -7.40485 -2.5817 0
M  V30 210 N 20.6934 1.19889 -1.02296 0
M  V30 211 C 21.6234 2.25141 -0.619174 0
M  V30 212 C 22.6044 1.66051 0.368915 0
M  V30 213 O 23.7894 1.92546 0.252941 0
M  V30 214 C 20.9194 3.4728 0.0368783 0
M  V30 215 C 19.8734 4.19005 -0.872865 0
M  V30 216 C 19.1994 5.34637 -0.0822402 0
M  V30 217 C 20.4994 4.74452 -2.18387 0
M  V30 218 H 22.1934 2.59171 -1.49903 0
M  V30 219 H 19.7394 1.24579 -0.722222 0
M  V30 220 H 21.6924 4.20098 0.330958 0
M  V30 221 H 20.4164 3.12433 0.95149 0
M  V30 222 H 19.0754 3.48061 -1.15105 0
M  V30 223 H 18.7234 4.96034 0.83422 0
M  V30 224 H 18.4234 5.83557 -0.688149 0
M  V30 225 H 19.9474 6.10255 0.205238 0
M  V30 226 H 21.3614 5.39055 -1.95172 0
M  V30 227 H 19.7584 5.33834 -2.74119 0
M  V30 228 H 20.8284 3.92844 -2.84257 0
M  V30 229 N 22.1715 0.800033 1.35784 0
M  V30 230 C 23.4185 0.377342 1.98953 0
M  V30 231 C 23.7465 -1.05378 1.6348 0
M  V30 232 O 23.0015 -1.74459 0.886707 0
M  V30 233 C 23.3005 0.500276 3.53881 0
M  V30 234 C 22.9665 1.89375 4.09204 0
M  V30 235 C 21.6285 2.27499 4.24025 0
M  V30 236 C 23.9805 2.8057 4.39238 0
M  V30 237 C 21.3085 3.562 4.66195 0
M  V30 238 C 23.6605 4.0871 4.82844 0
M  V30 239 C 22.3245 4.46843 4.95871 0
M  V30 240 H 21.5945 0.138079 0.728021 0
M  V30 241 H 24.2415 1.01955 1.62103 0
M  V30 242 H 22.5465 -0.225405 3.91151 0
M  V30 243 H 24.2435 0.154097 4.00704 0
M  V30 244 H 20.8335 1.58753 3.98115 0
M  V30 245 H 25.0175 2.52367 4.27346 0
M  V30 246 H 20.2735 3.85602 4.74469 0
M  V30 247 H 24.4475 4.79481 5.05046 0
M  V30 248 H 22.0745 5.46623 5.28306 0
M  V30 249 N 23.6496 -1.47581 0.552962 0
M  V30 250 C 25.0606 -1.86324 0.118463 0
M  V30 251 C 25.4116 -1.46006 -1.3106 0
M  V30 252 O 24.5366 -0.861182 -1.98526 0
M  V30 253 C 25.1316 -3.3816 0.20821 0
M  V30 254 C 23.6906 -3.7601 -0.171226 0
M  V30 255 C 22.8376 -2.71634 0.557686 0
M  V30 256 H 25.7886 -1.39159 0.762928 0
M  V30 257 H 25.8096 -3.76141 -0.574278 0
M  V30 258 H 25.3216 -3.67473 1.24841 0
M  V30 259 H 23.4226 -3.52313 -1.21269 0
M  V30 260 H 23.5356 -4.78745 0.184379 0
M  V30 261 H 21.8996 -2.547 0.00125792 0
M  V30 262 H 22.6826 -3.0379 1.59896 0
M  V30 263 N 25.1277 -0.289203 -1.54924 0
M  V30 264 C 26.3757 0.322879 -1.99504 0
M  V30 265 C 26.6967 1.55313 -1.1791 0
M  V30 266 O 25.9667 1.94001 -0.272097 0
M  V30 267 H 24.5467 0.122291 -0.736922 0
M  V30 268 H 27.2087 -0.397802 -1.90797 0
M  V30 269 H 26.3047 0.603061 -3.06218 0
M  V30 270 N 26.6058 1.57591 -0.0167156 0
M  V30 271 C 27.5358 2.12496 0.967858 0
M  V30 272 C 28.5168 1.03807 1.34752 0
M  V30 273 O 29.7018 1.31577 1.42833 0
M  V30 274 C 26.8318 2.64194 2.25431 0
M  V30 275 C 25.7858 3.77559 2.01576 0
M  V30 276 C 25.1118 4.15636 3.36379 0
M  V30 277 C 26.4118 5.04151 1.36489 0
M  V30 278 H 28.1058 2.95013 0.510643 0
M  V30 279 H 25.6518 1.41915 0.244181 0
M  V30 280 H 27.6048 3.01236 2.94678 0
M  V30 281 H 26.3288 1.78821 2.73296 0
M  V30 282 H 24.9878 3.40937 1.34751 0
M  V30 283 H 24.6358 3.27263 3.81979 0
M  V30 284 H 24.3358 4.92022 3.21229 0
M  V30 285 H 25.8598 4.5525 4.06915 0
M  V30 286 H 27.2738 5.38857 1.95718 0
M  V30 287 H 25.6708 5.85453 1.31776 0
M  V30 288 H 26.7408 4.83733 0.336219 0
M  V30 289 N 28.0839 -0.256276 1.55502 0
M  V30 290 C 29.3299 -0.982884 1.78076 0
M  V30 291 C 29.6849 -1.83319 0.584109 0
M  V30 292 O 28.9779 -1.86875 -0.422877 0
M  V30 293 C 29.1719 -1.88432 3.03691 0
M  V30 294 C 29.0009 -1.12276 4.35459 0
M  V30 295 C 27.7709 -0.831647 4.98409 0
M  V30 296 C 29.9689 -0.504933 5.11815 0
M  V30 297 N 27.9509 -0.0450423 6.13883 0
M  V30 298 C 29.3219 0.146696 6.19826 0
M  V30 299 C 31.3769 -0.414455 4.96172 0
M  V30 300 C 30.0799 0.880103 7.13895 0
M  V30 301 C 32.1059 0.305398 5.90611 0
M  V30 302 C 31.4679 0.945701 6.98023 0
M  V30 303 H 27.5669 -0.341084 0.703694 0
M  V30 304 H 30.1509 -0.256909 1.92998 0
M  V30 305 H 28.3219 -2.58241 2.90114 0
M  V30 306 H 30.0539 -2.54579 3.14598 0
M  V30 307 H 26.8089 -1.14111 4.59647 0
M  V30 308 H 27.2329 0.336079 6.76165 0
M  V30 309 H 31.8749 -0.895163 4.13215 0
M  V30 310 H 29.5929 1.37244 7.9636 0
M  V30 311 H 33.1789 0.375946 5.80584 0
M  V30 312 H 32.0589 1.49383 7.6984 0
M  V30 313 N 29.562 -1.4872 -0.521534 0
M  V30 314 C 30.492 -1.66771 -1.63431 0
M  V30 315 C 31.473 -0.516499 -1.62069 0
M  V30 316 O 32.658 -0.750013 -1.79132 0
M  V30 317 C 29.788 -1.71515 -3.01993 0
M  V30 318 C 28.742 -2.86222 -3.18216 0
M  V30 319 C 28.068 -2.76061 -4.57924 0
M  V30 320 C 29.368 -4.27419 -3.00184 0
M  V30 321 H 31.062 -2.59932 -1.48579 0
M  V30 322 H 28.608 -1.25089 -0.713358 0
M  V30 323 H 30.561 -1.82731 -3.7972 0
M  V30 324 H 29.285 -0.749393 -3.17886 0
M  V30 325 H 27.944 -2.74575 -2.42908 0
M  V30 326 H 27.592 -1.77437 -4.70665 0
M  V30 327 H 27.292 -3.53037 -4.69722 0
M  V30 328 H 28.816 -2.89256 -5.37739 0
M  V30 329 H 30.23 -4.39855 -3.67697 0
M  V30 330 H 28.627 -5.05458 -3.2347 0
M  V30 331 H 29.697 -4.43293 -1.96518 0
M  V30 332 N 31.0401 0.771051 -1.3745 0
M  V30 333 C 31.9701 1.89827 -1.3597 0
M  V30 334 C 32.9511 1.68562 -0.228216 0
M  V30 335 O 34.1361 1.8941 -0.428675 0
M  V30 336 C 31.2661 3.2712 -1.16662 0
M  V30 337 C 30.2201 3.6295 -2.2683 0
M  V30 338 C 29.5461 4.98791 -1.92644 0
M  V30 339 C 30.8461 3.69627 -3.69017 0
M  V30 340 H 32.5401 1.91323 -2.30295 0
M  V30 341 H 30.0861 0.919082 -1.10855 0
M  V30 342 H 32.0391 4.05615 -1.14256 0
M  V30 343 H 30.7631 3.26059 -0.187926 0
M  V30 344 H 29.4221 2.86763 -2.28392 0
M  V30 345 H 29.0701 4.94271 -0.933021 0
M  V30 346 H 28.7701 5.23733 -2.66416 0
M  V30 347 H 30.2941 5.79685 -1.91826 0
M  V30 348 H 31.7081 4.38273 -3.69581 0
M  V30 349 H 30.1051 4.06067 -4.41848 0
M  V30 350 H 31.1751 2.70273 -4.02592 0
M  V30 351 N 32.5182 1.22032 0.997298 0
M  V30 352 C 33.7642 1.04376 1.73878 0
M  V30 353 C 34.0972 -0.420716 1.89588 0
M  V30 354 O 33.3722 -1.31202 1.43583 0
M  V30 355 C 33.6552 1.75047 3.14691 0
M  V30 356 C 33.5082 3.29062 3.06656 0
M  V30 357 C 34.8272 1.49928 4.13775 0
M  V30 358 H 31.9462 0.380578 0.631133 0
M  V30 359 H 34.5882 1.50312 1.16217 0
M  V30 360 H 32.7382 1.35996 3.63919 0
M  V30 361 H 34.4102 3.7753 2.65083 0
M  V30 362 H 32.6532 3.58967 2.43568 0
M  V30 363 H 33.3242 3.73683 4.06282 0
M  V30 364 H 35.8002 1.83842 3.73285 0
M  V30 365 H 34.6762 2.01878 5.10428 0
M  V30 366 H 34.9372 0.430929 4.39995 0
M  V30 367 N 33.9963 -1.19345 1.0293 0
M  V30 368 C 34.9263 -2.2481 0.631105 0
M  V30 369 C 35.9073 -1.66245 -0.360104 0
M  V30 370 O 37.0923 -1.92677 -0.242726 0
M  V30 371 C 34.2223 -3.47295 -0.0184607 0
M  V30 372 C 33.1763 -4.18536 0.895073 0
M  V30 373 C 32.5023 -5.34586 0.110592 0
M  V30 374 C 33.8023 -4.73287 2.209 0
M  V30 375 H 35.4963 -2.58372 1.51275 0
M  V30 376 H 33.0423 -1.24194 0.728818 0
M  V30 377 H 34.9953 -4.20268 -0.308675 0
M  V30 378 H 33.7193 -3.12933 -0.934907 0
M  V30 379 H 32.3783 -3.47446 1.16949 0
M  V30 380 H 32.0263 -4.96469 -0.807902 0
M  V30 381 H 31.7263 -5.83183 0.719087 0
M  V30 382 H 33.2503 -6.10355 -0.172871 0
M  V30 383 H 34.6643 -5.38013 1.98028 0
M  V30 384 H 33.0613 -5.32373 2.76946 0
M  V30 385 H 34.1313 -3.91331 2.86336 0
M  V30 386 N 35.4744 -0.807222 -1.35358 0
M  V30 387 C 36.6994 -0.399309 -2.0352 0
M  V30 388 C 37.1244 0.981986 -1.60433 0
M  V30 389 O 36.4824 1.63601 -0.781299 0
M  V30 390 C 36.5304 -0.491552 -3.57234 0
M  V30 391 O 35.6344 0.494754 -4.09421 0
M  V30 392 H 34.9754 -0.166682 -0.642739 0
M  V30 393 H 37.5054 -1.09328 -1.72941 0
M  V30 394 H 37.5154 -0.361588 -4.06395 0
M  V30 395 H 36.1904 -1.49907 -3.87944 0
M  V30 396 H 34.7674 0.324977 -3.71481 0
M  V30 397 N 36.9525 1.47285 -0.560781 0
M  V30 398 C 38.2005 2.02064 -0.0379868 0
M  V30 399 C 38.5215 1.43711 1.31803 0
M  V30 400 O 37.7915 0.61362 1.86042 0
M  V30 401 H 36.3715 0.746918 -0.0110531 0
M  V30 402 H 39.0335 1.80648 -0.731598 0
M  V30 403 H 38.1295 3.12064 0.0474463 0
M  V30 404 N 38.4306 0.297415 1.54768 0
M  V30 405 C 39.8416 -0.195947 1.85669 0
M  V30 406 C 40.1926 -1.53707 1.21937 0
M  V30 407 O 39.3176 -2.10164 0.515754 0
M  V30 408 C 39.9126 -0.362318 3.36857 0
M  V30 409 C 38.4716 -0.799901 3.67802 0
M  V30 410 C 37.6186 0.0938578 2.77141 0
M  V30 411 H 40.5696 0.518538 1.4999 0
M  V30 412 H 40.5906 -1.19745 3.61167 0
M  V30 413 H 40.1026 0.613921 3.83214 0
M  V30 414 H 38.2036 -1.78682 3.26961 0
M  V30 415 H 38.3166 -0.621773 4.75048 0
M  V30 416 H 36.6806 -0.426254 2.51108 0
M  V30 417 H 37.4636 1.06639 3.26318 0
M  V30 418 N 39.9087 -1.5758 0.0250728 0
M  V30 419 C 41.1567 -1.91255 -0.653151 0
M  V30 420 C 41.4777 -0.901691 -1.729 0
M  V30 421 O 40.7477 0.0573785 -1.95816 0
M  V30 422 H 39.3277 -0.705942 -0.244243 0
M  V30 423 H 41.9897 -1.94767 0.0719209 0
M  V30 424 H 41.0857 -2.91752 -1.10847 0
M  V30 425 N 41.3868 0.248026 -1.55636 0
M  V30 426 C 42.6348 0.974295 -1.77065 0
M  V30 427 C 42.9558 1.85897 -0.588849 0
M  V30 428 O 42.2258 1.91868 0.395407 0
M  V30 429 H 40.8058 0.362733 -0.653019 0
M  V30 430 H 43.4678 0.266244 -1.93073 0
M  V30 431 H 42.5638 1.59667 -2.68166 0
M  V30 432 N 42.8649 1.48995 0.513639 0
M  V30 433 C 43.7949 1.67636 1.62544 0
M  V30 434 C 44.7759 0.525087 1.61793 0
M  V30 435 O 45.9609 0.759502 1.78732 0
M  V30 436 C 43.0909 1.73114 3.01079 0
M  V30 437 C 42.0449 2.87905 3.16693 0
M  V30 438 C 41.3709 2.78486 4.56453 0
M  V30 439 C 42.6709 4.29005 2.97913 0
M  V30 440 H 44.3649 2.60716 1.47198 0
M  V30 441 H 41.9109 1.25465 0.706714 0
M  V30 442 H 43.8639 1.84742 3.78746 0
M  V30 443 H 42.5879 0.766241 3.17484 0
M  V30 444 H 41.2469 2.75859 2.41448 0
M  V30 445 H 40.8949 1.7993 4.69717 0
M  V30 446 H 40.5949 3.55523 4.67843 0
M  V30 447 H 42.1189 2.92104 5.36197 0
M  V30 448 H 43.5329 4.41798 3.65359 0
M  V30 449 H 41.9299 5.07166 3.20785 0
M  V30 450 H 42.9999 4.44329 1.94165 0
M  V30 451 N 44.343 -0.763751 1.37857 0
M  V30 452 C 45.273 -1.89103 1.36975 0
M  V30 453 C 46.254 -1.68439 0.237152 0
M  V30 454 O 47.439 -1.8918 0.438713 0
M  V30 455 C 44.569 -3.26496 1.18395 0
M  V30 456 C 43.523 -3.61741 2.28751 0
M  V30 457 C 42.849 -4.97762 1.95286 0
M  V30 458 C 44.149 -3.67665 3.70972 0
M  V30 459 H 45.843 -1.90099 2.31307 0
M  V30 460 H 43.389 -0.91319 1.11341 0
M  V30 461 H 45.342 -4.05003 1.16406 0
M  V30 462 H 44.066 -3.25955 0.205215 0
M  V30 463 H 42.725 -2.85547 2.29909 0
M  V30 464 H 42.373 -4.93769 0.959221 0
M  V30 465 H 42.073 -5.22313 2.69189 0
M  V30 466 H 43.597 -5.7866 1.94898 0
M  V30 467 H 45.011 -4.36307 3.719 0
M  V30 468 H 43.408 -4.03718 4.43995 0
M  V30 469 H 44.478 -2.68134 4.0402 0
M  V30 470 N 45.8211 -1.22559 -0.990812 0
M  V30 471 C 47.2371 -0.985996 -1.255 0
M  V30 472 C 47.4371 0.319173 -1.98956 0
M  V30 473 O 46.4931 1.04127 -2.3003 0
M  V30 474 C 47.8061 -2.18607 -2.06474 0
M  V30 475 C 49.3541 -2.22985 -2.19651 0
M  V30 476 C 49.8291 -3.4255 -3.04012 0
M  V30 477 N 51.3201 -3.42725 -3.11599 0
M  V30 478 C 52.0551 -4.31892 -3.7717 0
M  V30 479 N 51.5511 -5.31279 -4.44651 0
M  V30 480 N 53.3441 -4.19662 -3.73952 0
M  V30 481 H 45.4951 -2.06469 -0.49841 0
M  V30 482 H 47.7581 -0.904853 -0.282747 0
M  V30 483 H 47.4641 -3.13267 -1.59865 0
M  V30 484 H 47.3381 -2.18838 -3.07229 0
M  V30 485 H 49.7251 -1.28871 -2.65474 0
M  V30 486 H 49.8061 -2.26791 -1.18319 0
M  V30 487 H 49.4501 -4.36965 -2.58889 0
M  V30 488 H 49.3801 -3.35984 -4.0549 0
M  V30 489 H 51.8711 -2.70807 -2.63575 0
M  V30 490 H 52.1841 -5.95593 -4.92431 0
M  V30 491 H 50.5291 -5.3519 -4.43392 0
M  V30 492 H 53.7201 -3.41268 -3.20396 0
M  V30 493 H 53.8931 -4.89358 -4.24774 0
M  V30 494 N 47.2992 1.18797 -1.03562 0
M  V30 495 C 48.2622 2.20464 -0.626769 0
M  V30 496 C 49.2622 1.57721 0.313173 0
M  V30 497 O 50.4522 1.73917 0.0992615 0
M  V30 498 C 47.5842 3.40802 0.0818498 0
M  V30 499 H 48.7772 2.58149 -1.5264 0
M  V30 500 H 46.3302 1.32593 -0.827578 0
M  V30 501 H 47.0652 3.08642 0.995518 0
M  V30 502 H 46.8502 3.8758 -0.593652 0
M  V30 503 H 48.3402 4.16092 0.354584 0
M  V30 504 N 48.7773 0.814389 1.34928 0
M  V30 505 C 49.7093 0.187834 2.28429 0
M  V30 506 C 50.7223 -0.617374 1.5064 0
M  V30 507 O 51.9113 -0.448454 1.72775 0
M  V30 508 C 49.0113 -0.755962 3.30361 0
M  V30 509 C 48.1843 0.00456686 4.374 0
M  V30 510 C 47.2433 -0.858876 5.19143 0
M  V30 511 O 46.2693 -0.306968 5.68372 0
M  V30 512 N 47.4713 -2.17988 5.38016 0
M  V30 513 H 50.2363 0.991105 2.82838 0
M  V30 514 H 47.7973 0.670561 1.4736 0
M  V30 515 H 49.7893 -1.338 3.81942 0
M  V30 516 H 48.3593 -1.46001 2.7641 0
M  V30 517 H 47.5793 0.767865 3.86649 0
M  V30 518 H 48.8673 0.528422 5.06049 0
M  V30 519 H 48.2653 -2.65212 4.99679 0
M  V30 520 H 46.8223 -2.71098 5.92747 0
M  V30 521 N 50.2554 -1.46986 0.568584 0
M  V30 522 C 51.1654 -2.33942 -0.17555 0
M  V30 523 C 52.1814 -1.48891 -0.90041 0
M  V30 524 O 53.3574 -1.81794 -0.86676 0
M  V30 525 C 50.4224 -3.25811 -1.18524 0
M  V30 526 C 49.4834 -4.26757 -0.466582 0
M  V30 527 C 48.7164 -5.14236 -1.42817 0
M  V30 528 O 48.9394 -5.04379 -2.66379 0
M  V30 529 O 47.8734 -5.94412 -0.946453 0
M  V30 530 H 51.6994 -2.98896 0.538036 0
M  V30 531 H 49.2844 -1.4573 0.329097 0
M  V30 532 H 51.1664 -3.82527 -1.76779 0
M  V30 533 H 49.8414 -2.63471 -1.88055 0
M  V30 534 H 48.7484 -3.73769 0.157451 0
M  V30 535 H 50.0814 -4.91843 0.187485 0
M  V30 536 N 51.7335 -0.305618 -1.54608 0
M  V30 537 C 52.6655 0.602161 -2.21149 0
M  V30 538 C 53.6785 1.09394 -1.20569 0
M  V30 539 O 54.8675 1.0106 -1.47136 0
M  V30 540 C 51.9675 1.83692 -2.84799 0
M  V30 541 C 51.1405 1.48686 -4.11353 0
M  V30 542 C 50.1995 2.57725 -4.58764 0
M  V30 543 O 49.2255 2.22623 -5.23858 0
M  V30 544 N 50.4275 3.88346 -4.31471 0
M  V30 545 H 53.1925 0.0324966 -2.99682 0
M  V30 546 H 50.7535 -0.128021 -1.61393 0
M  V30 547 H 52.7455 2.55994 -3.13448 0
M  V30 548 H 51.3155 2.31486 -2.10078 0
M  V30 549 H 50.5355 0.596269 -3.89664 0
M  V30 550 H 51.8235 1.22842 -4.93748 0
M  V30 551 H 51.2215 4.19671 -3.79331 0
M  V30 552 H 49.7785 4.56932 -4.64818 0
M  V30 553 N 53.2116 1.57565 -0.0334293 0
M  V30 554 C 54.6226 1.79746 0.504798 0
M  V30 555 C 54.9736 0.944091 1.71992 0
M  V30 556 O 54.0986 0.155694 2.15839 0
M  V30 557 C 54.6936 3.25997 0.922567 0
M  V30 558 C 53.2526 3.49159 1.40588 0
M  V30 559 C 52.3996 2.74785 0.372633 0
M  V30 560 H 55.3506 1.56565 -0.259436 0
M  V30 561 H 55.3716 3.35945 1.78666 0
M  V30 562 H 54.8836 3.88081 0.0379825 0
M  V30 563 H 52.9846 2.92332 2.31025 0
M  V30 564 H 53.0976 4.57873 1.41028 0
M  V30 565 H 51.4616 2.40391 0.841672 0
M  V30 566 H 52.2446 3.39587 -0.503559 0
M  V30 567 N 54.6897 -0.239769 1.55765 0
M  V30 568 C 55.9147 -0.988373 1.82335 0
M  V30 569 C 56.3397 -1.77886 0.611421 0
M  V30 570 O 55.6977 -1.75889 -0.439639 0
M  V30 571 C 55.7457 -1.89627 3.06715 0
M  V30 572 O 54.8497 -2.98904 2.84131 0
M  V30 573 H 54.1907 -0.280858 0.601677 0
M  V30 574 H 56.7207 -0.258597 2.02959 0
M  V30 575 H 56.7307 -2.30957 3.36338 0
M  V30 576 H 55.4057 -1.31511 3.9456 0
M  V30 577 H 53.9827 -2.61651 2.65694 0
M  V30 578 N 56.1678 -1.49265 -0.50573 0
M  V30 579 C 57.4078 -1.60128 -1.27038 0
M  V30 580 C 57.7718 -0.279557 -1.89954 0
M  V30 581 O 58.9728 -0.263329 -2.67507 0
M  V30 582 C 57.2438 -2.72507 -2.31246 0
M  V30 583 S 58.8028 -3.0329 -3.17113 0
M  V30 584 H 55.6208 -0.564863 -0.4318 0
M  V30 585 H 58.2228 -1.86902 -0.573397 0
M  V30 586 H 56.9268 -3.67068 -1.83546 0
M  V30 587 H 56.4578 -2.4771 -3.05619 0
M  V30 588 H 58.4728 -2.44448 -4.31809 0
M  V30 589 N 57.6459 0.756429 -1.3826 0
M  V30 590 C 59.0619 1.0591 -1.19395 0
M  V30 591 C 59.2619 2.01459 -0.0406567 0
M  V30 592 O 58.3179 2.44909 0.614467 0
M  V30 593 C 59.6309 1.64191 -2.51916 0
M  V30 594 C 61.1789 1.76376 -2.58574 0
M  V30 595 C 61.6539 2.38069 -3.91264 0
M  V30 596 N 63.1449 2.45503 -3.92788 0
M  V30 597 C 63.8799 2.94126 -4.92217 0
M  V30 598 N 63.3759 3.42805 -6.02043 0
M  V30 599 N 65.1689 2.9314 -4.7961 0
M  V30 600 H 57.3199 0.122313 -2.12048 0
M  V30 601 H 59.5829 0.116892 -0.940766 0
M  V30 602 H 59.2889 1.01451 -3.3675 0
M  V30 603 H 59.1629 2.6329 -2.70108 0
M  V30 604 H 61.5499 2.38244 -1.74137 0
M  V30 605 H 61.6309 0.759894 -2.44252 0
M  V30 606 H 61.2749 1.76835 -4.76121 0
M  V30 607 H 61.2049 3.39091 -4.02895 0
M  V30 608 H 63.6959 2.1107 -3.13461 0
M  V30 609 H 64.0089 3.78354 -6.73846 0
M  V30 610 H 62.3539 3.4087 -6.05667 0
M  V30 611 H 65.5449 2.54419 -3.92923 0
M  V30 612 H 65.7179 3.30721 -5.5725 0
M  V30 613 N 59.124 1.23083 0.984299 0
M  V30 614 C 60.54 0.992637 1.24975 0
M  V30 615 C 60.74 -0.308618 1.99123 0
M  V30 616 O 59.796 -1.02905 2.30579 0
M  V30 617 C 61.109 2.19698 2.05312 0
M  V30 618 C 62.657 2.24147 2.18465 0
M  V30 619 C 63.132 3.44157 3.02192 0
M  V30 620 N 64.623 3.44372 3.09777 0
M  V30 621 C 65.358 4.33886 3.74874 0
M  V30 622 N 64.854 5.3363 4.41827 0
M  V30 623 N 66.647 4.21639 3.71721 0
M  V30 624 H 58.798 2.06731 0.487453 0
M  V30 625 H 61.061 0.906339 0.277944 0
M  V30 626 H 60.767 3.1411 1.58201 0
M  V30 627 H 60.641 2.20465 3.06064 0
M  V30 628 H 63.028 1.30277 2.64786 0
M  V30 629 H 63.109 2.27415 1.17115 0
M  V30 630 H 62.753 4.38332 2.56568 0
M  V30 631 H 62.683 3.3813 4.03702 0
M  V30 632 H 65.174 2.72201 2.62135 0
M  V30 633 H 65.487 5.98196 4.89266 0
M  V30 634 H 63.832 5.37534 4.40548 0
M  V30 635 H 67.023 3.42962 3.18582 0
M  V30 636 H 67.196 4.91604 4.22173 0
M  V30 637 N 60.6021 -1.18246 1.0419 0
M  V30 638 C 61.5651 -2.20128 0.638452 0
M  V30 639 C 62.5651 -1.57885 -0.304805 0
M  V30 640 O 63.7551 -1.73967 -0.0900369 0
M  V30 641 C 60.8871 -3.4084 -0.0637751 0
M  V30 642 H 62.0801 -2.57336 1.54007 0
M  V30 643 H 59.6331 -1.32152 0.834598 0
M  V30 644 H 60.3681 -3.09166 -0.979136 0
M  V30 645 H 60.1531 -3.8726 0.614198 0
M  V30 646 H 61.6431 -4.16274 -0.332512 0
M  V30 647 N 62.0802 -0.821533 -1.34494 0
M  V30 648 C 63.3272 -0.408946 -1.98328 0
M  V30 649 C 63.6552 1.02764 -1.65136 0
M  V30 650 O 62.9102 1.73026 -0.914349 0
M  V30 651 C 63.2092 -0.556512 -3.53041 0
M  V30 652 C 62.8752 -1.95861 -4.0614 0
M  V30 653 C 61.5372 -2.34217 -4.20352 0
M  V30 654 C 63.8892 -2.87523 -4.34718 0
M  V30 655 C 61.2172 -3.63572 -4.6047 0
M  V30 656 C 63.5692 -4.1634 -4.76281 0
M  V30 657 C 62.2332 -4.54675 -4.88699 0
M  V30 658 H 61.5032 -0.149644 -0.725732 0
M  V30 659 H 64.1502 -1.04521 -1.6046 0
M  V30 660 H 62.4552 0.163148 -3.9146 0
M  V30 661 H 64.1522 -0.217826 -4.00408 0
M  V30 662 H 60.7422 -1.65066 -3.95539 0
M  V30 663 H 64.9262 -2.59133 -4.23277 0
M  V30 664 H 60.1822 -3.93101 -4.68275 0
M  V30 665 H 64.3562 -4.87455 -4.97354 0
M  V30 666 H 61.9832 -5.54959 -5.19542 0
M  V30 667 N 63.5583 1.46682 -0.576371 0
M  V30 668 C 64.8353 1.95599 0.00703437 0
M  V30 669 C 65.2153 1.51904 1.46589 0
M  V30 670 O 64.5633 0.766755 2.15251 0
M  V30 671 C 64.7733 3.4864 -0.158404 0
M  V30 672 C 66.1213 4.24594 -0.0229439 0
M  V30 673 O 67.1453 3.56094 -0.0869173 0
M  V30 674 O 66.0043 5.46373 0.118015 0
M  V30 675 H 63.0983 0.825275 0.053384 0
M  V30 676 H 65.6443 1.56996 -0.644244 0
M  V30 677 H 64.4163 3.7331 -1.17282 0
M  V30 678 H 64.0393 3.94057 0.5296 0
M  V30 679 N 65.0364 0.313813 1.54444 0
M  V30 680 C 65.9664 -0.549454 2.26943 0
M  V30 681 C 66.9474 -1.12741 1.27372 0
M  V30 682 O 68.1324 -1.15436 1.56167 0
M  V30 683 C 65.2624 -1.71523 3.01989 0
M  V30 684 C 64.2164 -1.26703 4.08816 0
M  V30 685 C 63.5424 -2.51898 4.71647 0
M  V30 686 C 64.8424 -0.388962 5.2085 0
M  V30 687 H 66.5364 0.0552661 2.99349 0
M  V30 688 H 64.0824 0.0280207 1.43973 0
M  V30 689 H 66.0354 -2.32535 3.51433 0
M  V30 690 H 64.7594 -2.34639 2.27183 0
M  V30 691 H 63.4184 -0.679896 3.6024 0
M  V30 692 H 63.0664 -3.13356 3.93468 0
M  V30 693 H 62.7664 -2.22605 5.43802 0
M  V30 694 H 64.2904 -3.1369 5.23861 0
M  V30 695 H 65.7044 -0.905107 5.6611 0
M  V30 696 H 64.1014 -0.18924 5.99802 0
M  V30 697 H 65.1714 0.582699 4.81386 0
M  V30 698 N 66.5145 -1.57545 0.0417849 0
M  V30 699 C 67.7445 -1.96339 -0.642995 0
M  V30 700 C 68.1525 -0.917536 -1.65463 0
M  V30 701 O 67.4955 0.107747 -1.83384 0
M  V30 702 C 67.5575 -3.31333 -1.39494 0
M  V30 703 C 67.2215 -4.53796 -0.540204 0
M  V30 704 C 68.2185 -5.19553 0.189806 0
M  V30 705 C 65.9035 -5.0006 -0.473886 0
M  V30 706 C 67.8975 -6.29904 0.974674 0
M  V30 707 C 65.5845 -6.10289 0.314677 0
M  V30 708 C 66.5825 -6.75072 1.03765 0
M  V30 709 O 66.2705 -7.83183 1.81327 0
M  V30 710 H 66.0025 -0.651241 -0.181277 0
M  V30 711 H 68.5565 -2.05148 0.101665 0
M  V30 712 H 66.7865 -3.19052 -2.18502 0
M  V30 713 H 68.4755 -3.54942 -1.96904 0
M  V30 714 H 69.2415 -4.84774 0.147981 0
M  V30 715 H 65.1205 -4.49433 -1.0262 0
M  V30 716 H 68.6645 -6.80401 1.5395 0
M  V30 717 H 64.5615 -6.44506 0.358174 0
M  V30 718 H 65.3295 -7.99913 1.73438 0
M  V30 719 N 67.9926 0.231505 -1.5589 0
M  V30 720 C 69.2396 0.957352 -1.78441 0
M  V30 721 C 69.5676 1.84726 -0.60882 0
M  V30 722 O 68.8226 1.91416 0.40725 0
M  V30 723 C 69.1216 1.83577 -3.0665 0
M  V30 724 C 68.7876 1.09993 -4.37278 0
M  V30 725 C 67.4496 0.896629 -4.72773 0
M  V30 726 C 69.8016 0.579558 -5.17968 0
M  V30 727 C 67.1296 0.160896 -5.86479 0
M  V30 728 C 69.4816 -0.142783 -6.32439 0
M  V30 729 C 68.1456 -0.357427 -6.66542 0
M  V30 730 H 67.4156 0.35032 -0.65296 0
M  V30 731 H 70.0626 0.226259 -1.90159 0
M  V30 732 H 68.3676 2.63441 -2.90011 0
M  V30 733 H 70.0646 2.39934 -3.21298 0
M  V30 734 H 66.6546 1.26835 -4.09403 0
M  V30 735 H 70.8386 0.724125 -4.90989 0
M  V30 736 H 66.0946 -0.0157293 -6.11398 0
M  V30 737 H 70.2686 -0.553559 -6.94196 0
M  V30 738 H 67.8956 -0.929466 -7.54497 0
M  V30 739 N 69.4707 1.49531 0.497807 0
M  V30 740 C 70.7167 1.59415 1.25358 0
M  V30 741 C 71.0497 0.281422 1.9215 0
M  V30 742 O 70.3247 -0.715249 1.80871 0
M  V30 743 C 70.6077 2.75566 2.3181 0
M  V30 744 C 70.4607 4.16642 1.69498 0
M  V30 745 C 71.7797 2.87347 3.33346 0
M  V30 746 H 68.8987 0.580244 0.454408 0
M  V30 747 H 71.5407 1.81827 0.551262 0
M  V30 748 H 69.6907 2.56587 2.91711 0
M  V30 749 H 71.3627 4.47145 1.13399 0
M  V30 750 H 69.6057 4.22141 0.998978 0
M  V30 751 H 70.2767 4.93792 2.46725 0
M  V30 752 H 72.7527 3.04634 2.83438 0
M  V30 753 H 71.6287 3.70289 4.05188 0
M  V30 754 H 71.8897 1.96834 3.95865 0
M  V30 755 N 70.9488 -0.749086 1.3866 0
M  V30 756 C 71.8788 -1.8764 1.38973 0
M  V30 757 C 72.8598 -1.68178 0.255004 0
M  V30 758 O 74.0448 -1.88704 0.458754 0
M  V30 759 C 71.1748 -3.25222 1.21851 0
M  V30 760 C 70.1288 -3.59295 2.32575 0
M  V30 761 C 69.4548 -4.95663 2.00555 0
M  V30 762 C 70.7548 -3.63709 3.7485 0
M  V30 763 H 72.4488 -1.87635 2.3331 0
M  V30 764 H 69.9948 -0.901329 1.12303 0
M  V30 765 H 71.9478 -4.03746 1.20695 0
M  V30 766 H 70.6718 -3.25719 0.239775 0
M  V30 767 H 69.3308 -2.83093 2.32925 0
M  V30 768 H 68.9788 -4.92724 1.01154 0
M  V30 769 H 68.6788 -5.19429 2.74714 0
M  V30 770 H 70.2028 -5.7656 2.01024 0
M  V30 771 H 71.6168 -4.32338 3.76506 0
M  V30 772 H 70.0138 -3.98986 4.48252 0
M  V30 773 H 71.0838 -2.63834 4.06841 0
M  V30 774 N 72.4269 -1.23603 -0.977757 0
M  V30 775 C 73.7039 -0.977897 -1.69401 0
M  V30 776 C 74.0839 0.502738 -2.05026 0
M  V30 777 O 73.4319 1.47459 -1.74551 0
M  V30 778 C 73.6419 -1.89077 -2.93345 0
M  V30 779 C 74.9899 -2.15579 -3.65802 0
M  V30 780 O 76.0139 -1.86648 -3.03383 0
M  V30 781 O 74.8729 -2.64658 -4.78141 0
M  V30 782 H 71.9669 -0.369025 -0.740101 0
M  V30 783 H 74.5129 -1.34657 -1.03274 0
M  V30 784 H 73.2849 -2.89158 -2.63634 0
M  V30 785 H 72.9079 -1.52463 -3.67207 0
M  V30 786 N 73.905 1.17692 -1.04816 0
M  V30 787 C 74.852 2.21581 -0.645797 0
M  V30 788 C 75.822 1.62367 0.350159 0
M  V30 789 O 77.007 1.89254 0.242433 0
M  V30 790 C 74.147 3.45092 -0.0227568 0
M  V30 791 C 73.26 4.18613 -1.06709 0
M  V30 792 C 72.395 5.29602 -0.411767 0
M  V30 793 C 71.434 5.94904 -1.44067 0
M  V30 794 N 70.571 6.97414 -0.809781 0
M  V30 795 H 75.411 2.55353 -1.5362 0
M  V30 796 H 72.948 1.25438 -0.768364 0
M  V30 797 H 74.906 4.15679 0.35588 0
M  V30 798 H 73.536 3.11917 0.831122 0
M  V30 799 H 72.588 3.46779 -1.5636 0
M  V30 800 H 73.9 4.63293 -1.84827 0
M  V30 801 H 73.054 6.06696 0.0206623 0
M  V30 802 H 71.793 4.86045 0.401438 0
M  V30 803 H 70.798 5.16544 -1.88316 0
M  V30 804 H 72.023 6.40542 -2.25571 0
M  V30 805 H 69.969 6.55998 -0.0170186 0
M  V30 806 H 69.886 7.40386 -1.52856 0
M  V30 807 H 71.154 7.78463 -0.401999 0
M  V30 808 N 75.3831 0.828654 1.34056 0
M  V30 809 C 76.6081 0.431637 2.02859 0
M  V30 810 C 77.0331 -0.956339 1.61975 0
M  V30 811 O 76.3911 -1.62338 0.807228 0
M  V30 812 C 76.4391 0.548323 3.56407 0
M  V30 813 O 75.5431 -0.429556 4.10157 0
M  V30 814 H 74.8841 0.176886 0.640006 0
M  V30 815 H 77.4141 1.12066 1.71179 0
M  V30 816 H 77.4241 0.426196 4.05768 0
M  V30 817 H 76.0991 1.5606 3.8551 0
M  V30 818 H 74.6761 -0.265836 3.71951 0
M  V30 819 N 76.8612 -1.46375 0.584142 0
M  V30 820 C 78.1092 -2.01978 0.0701287 0
M  V30 821 C 78.4302 -1.4579 -1.295 0
M  V30 822 O 77.7002 -0.64314 -1.85042 0
M  V30 823 H 76.2802 -0.746648 0.0229345 0
M  V30 824 H 78.9422 -1.79461 0.760245 0
M  V30 825 H 78.0382 -3.121 0.0022064 0
M  V30 826 N 78.3393 -0.321999 -1.54275 0
M  V30 827 C 79.5643 0.285791 -2.05422 0
M  V30 828 C 79.9893 1.45124 -1.19669 0
M  V30 829 O 79.3473 1.80132 -0.205441 0
M  V30 830 C 79.3953 0.69956 -3.53749 0
M  V30 831 O 78.4993 1.8021 -3.70942 0
M  V30 832 H 77.8403 0.0518962 -0.661969 0
M  V30 833 H 80.3703 -0.469954 -1.9913 0
M  V30 834 H 80.3803 0.982649 -3.9599 0
M  V30 835 H 79.0553 -0.152864 -4.15619 0
M  V30 836 H 77.6323 1.51794 -3.40607 0
M  V30 837 N 79.8174 1.5752 -0.0501392 0
M  V30 838 C 81.0634 1.92936 0.624798 0
M  V30 839 C 81.3964 0.928685 1.70555 0
M  V30 840 O 80.6714 -0.0454779 1.94447 0
M  V30 841 C 80.9544 3.38737 1.22185 0
M  V30 842 C 80.8074 4.49552 0.149218 0
M  V30 843 C 82.1264 3.84913 2.13378 0
M  V30 844 H 79.2454 0.701604 0.225657 0
M  V30 845 H 81.8874 1.89671 -0.111693 0
M  V30 846 H 80.0374 3.4165 1.84953 0
M  V30 847 H 81.7094 4.58768 -0.482648 0
M  V30 848 H 79.9524 4.30638 -0.522841 0
M  V30 849 H 80.6234 5.48653 0.606966 0
M  V30 850 H 83.0994 3.8387 1.60572 0
M  V30 851 H 81.9754 4.87584 2.52097 0
M  V30 852 H 82.2364 3.21611 3.03346 0
M  V30 853 N 81.2955 -0.223234 1.56011 0
M  V30 854 C 82.2585 -1.26014 1.9145 0
M  V30 855 C 83.2585 -1.3989 0.792937 0
M  V30 856 O 84.4485 -1.38184 1.0607 0
M  V30 857 C 81.5805 -2.63422 2.16383 0
M  V30 858 H 82.7735 -0.95796 2.84189 0
M  V30 859 H 80.3265 -0.463576 1.49267 0
M  V30 860 H 81.0615 -2.98741 1.2619 0
M  V30 861 H 80.8465 -2.54728 2.98088 0
M  V30 862 H 82.3365 -3.38249 2.44903 0
M  V30 863 N 82.7736 -1.49793 -0.48987 0
M  V30 864 C 83.7216 -1.67783 -1.61095 0
M  V30 865 C 84.7156 -0.543683 -1.60438 0
M  V30 866 O 85.9216 -0.723647 -1.64813 0
M  V30 867 H 82.2966 -0.529255 -0.534222 0
M  V30 868 H 84.2676 -2.61861 -1.43078 0
M  V30 869 C 83.0166 -1.77191 -2.99164 0
M  V30 870 H 82.3396 -2.63841 -3.0038 0
M  V30 871 H 83.7796 -1.93809 -3.77113 0
M  V30 872 C 82.2386 -0.519203 -3.32875 0
M  V30 873 O 82.7686 0.350124 -4.00171 0
M  V30 874 N 80.9746 -0.378816 -2.8812 0
M  V30 875 H 80.5216 -1.08725 -2.33531 0
M  V30 876 H 80.4796 0.458239 -3.11043 0
M  V30 877 N 84.2517 0.741722 -1.39055 0
M  V30 878 C 85.1997 1.87702 -1.3737 0
M  V30 879 C 86.1937 1.67427 -0.257812 0
M  V30 880 O 87.3997 1.7485 -0.427489 0
M  V30 881 H 83.7747 0.617757 -0.428812 0
M  V30 882 H 85.7457 1.86239 -2.33147 0
M  V30 883 C 84.4947 3.25315 -1.22741 0
M  V30 884 H 83.8177 3.41509 -2.07873 0
M  V30 885 H 85.2577 4.04964 -1.25618 0
M  V30 886 C 83.7167 3.36838 0.0647316 0
M  V30 887 O 84.2467 3.88073 1.03741 0
M  V30 888 N 82.4527 2.90329 0.125544 0
M  V30 889 H 81.9997 2.48823 -0.666682 0
M  V30 890 H 81.9577 2.98418 0.989639 0
M  V30 891 N 85.7298 1.2412 0.971189 0
M  V30 892 C 86.9758 1.09048 1.71698 0
M  V30 893 C 87.3308 -0.367442 1.88859 0
M  V30 894 O 86.6238 -1.26792 1.43646 0
M  V30 895 C 86.8178 1.75983 3.11071 0
M  V30 896 C 86.6468 3.28133 3.07504 0
M  V30 897 C 85.4168 3.97331 3.1218 0
M  V30 898 C 87.6148 4.24773 2.89952 0
M  V30 899 N 85.5968 5.3639 2.98596 0
M  V30 900 C 86.9678 5.50806 2.84627 0
M  V30 901 C 89.0228 4.15392 2.74506 0
M  V30 902 C 87.7258 6.68533 2.65437 0
M  V30 903 C 89.7518 5.32793 2.56682 0
M  V30 904 C 89.1138 6.57756 2.52063 0
M  V30 905 H 85.2128 0.453632 0.636979 0
M  V30 906 H 87.7968 1.56983 1.15171 0
M  V30 907 H 85.9678 1.30566 3.65796 0
M  V30 908 H 87.6998 1.53803 3.74335 0
M  V30 909 H 84.4548 3.48473 3.20724 0
M  V30 910 H 84.8788 6.09321 2.95054 0
M  V30 911 H 89.5208 3.19543 2.76861 0
M  V30 912 H 87.2388 7.64509 2.61825 0
M  V30 913 H 90.8248 5.27383 2.4568 0
M  V30 914 H 89.7048 7.4707 2.38446 0
M  V30 915 N 87.2079 -1.17134 1.05439 0
M  V30 916 C 88.4569 -1.86791 0.761049 0
M  V30 917 C 88.7699 -1.82072 -0.714795 0
M  V30 918 O 89.9759 -2.47223 -1.12218 0
M  V30 919 C 88.4319 -3.35166 1.31117 0
M  V30 920 C 88.0399 -3.48381 2.81664 0
M  V30 921 C 89.7839 -4.10134 1.09499 0
M  V30 922 C 87.6909 -4.90793 3.29964 0
M  V30 923 H 86.6209 -0.699681 0.281002 0
M  V30 924 H 89.2719 -1.3226 1.27199 0
M  V30 925 H 87.6539 -3.8925 0.72803 0
M  V30 926 H 88.8279 -3.04502 3.45855 0
M  V30 927 H 87.1429 -2.86836 3.01851 0
M  V30 928 H 89.7399 -5.152 1.43084 0
M  V30 929 H 90.0829 -4.16287 0.0328772 0
M  V30 930 H 90.6159 -3.62264 1.64346 0
M  V30 931 H 87.3549 -4.89816 4.35616 0
M  V30 932 H 86.8749 -5.35333 2.70516 0
M  V30 933 H 88.5539 -5.59573 3.24787 0
M  V30 934 N 88.686 -0.835752 -1.33615 0
M  V30 935 C 89.596 -0.269088 -2.33052 0
M  V30 936 C 90.612 0.603251 -1.63208 0
M  V30 937 O 91.788 0.508112 -1.94885 0
M  V30 938 C 88.853 0.549091 -3.42324 0
M  V30 939 C 87.914 -0.347156 -4.27894 0
M  V30 940 C 87.147 0.43207 -5.31948 0
M  V30 941 O 87.37 1.66409 -5.45586 0
M  V30 942 O 86.304 -0.192298 -6.01593 0
M  V30 943 H 90.13 -1.09243 -2.83372 0
M  V30 944 H 87.715 -0.598198 -1.36901 0
M  V30 945 H 89.597 1.01414 -4.09015 0
M  V30 946 H 88.272 1.34955 -2.94226 0
M  V30 947 H 87.179 -0.859979 -3.64081 0
M  V30 948 H 88.512 -1.1123 -4.79467 0
M  V30 949 N 90.1641 1.46063 -0.591896 0
M  V30 950 C 91.4131 2.01547 -0.0786637 0
M  V30 951 C 91.7261 1.46796 1.29268 0
M  V30 952 O 92.9321 1.94157 1.89777 0
M  V30 953 C 91.3881 3.59787 -0.0900024 0
M  V30 954 C 90.9961 4.23534 -1.46023 0
M  V30 955 C 92.7401 4.22895 0.368806 0
M  V30 956 C 90.6471 5.73881 -1.4288 0
M  V30 957 H 89.5771 0.753564 -0.0256388 0
M  V30 958 H 92.2281 1.677 -0.744905 0
M  V30 959 H 90.6101 3.90752 0.642586 0
M  V30 960 H 91.7841 4.04167 -2.21328 0
M  V30 961 H 90.0991 3.72558 -1.85982 0
M  V30 962 H 92.6961 5.33116 0.411258 0
M  V30 963 H 93.0391 3.9247 1.38827 0
M  V30 964 H 93.5721 3.9659 -0.31001 0
M  V30 965 H 90.3111 6.0898 -2.42536 0
M  V30 966 H 89.8311 5.95486 -0.718095 0
M  V30 967 H 91.5101 6.36776 -1.14565 0
M  V30 968 N 91.6422 0.330177 1.54103 0
M  V30 969 C 92.8722 -0.271784 2.04805 0
M  V30 970 C 93.2802 -1.45816 1.20559 0
M  V30 971 O 92.6232 -1.82247 0.2306 0
M  V30 972 C 92.6852 -0.763238 3.51305 0
M  V30 973 C 92.3492 0.301705 4.56003 0
M  V30 974 C 93.3462 1.13999 5.07248 0
M  V30 975 C 91.0312 0.451793 5.00264 0
M  V30 976 C 93.0252 2.11402 6.01322 0
M  V30 977 C 90.7122 1.42924 5.94151 0
M  V30 978 C 91.7102 2.25882 6.44567 0
M  V30 979 O 91.3982 3.21965 7.3661 0
M  V30 980 H 91.1302 -0.058693 0.673447 0
M  V30 981 H 93.6842 0.476395 1.99799 0
M  V30 982 H 91.9142 -1.56244 3.5373 0
M  V30 983 H 93.6032 -1.28427 3.85047 0
M  V30 984 H 94.3692 1.03505 4.73827 0
M  V30 985 H 90.2482 -0.184044 4.60632 0
M  V30 986 H 93.7922 2.76192 6.40596 0
M  V30 987 H 89.6892 1.53479 6.26988 0
M  V30 988 H 90.4572 3.17281 7.54503 0
M  V30 989 N 93.1203 -1.57491 0.0584922 0
M  V30 990 C 94.0683 -2.13148 -0.931168 0
M  V30 991 C 95.0623 -1.06507 -1.31729 0
M  V30 992 O 96.2683 -1.24906 -1.29609 0
M  V30 993 H 92.6433 -0.68137 -0.31818 0
M  V30 994 H 94.6143 -2.95187 -0.436707 0
M  V30 995 C 93.3633 -2.69732 -2.19408 0
M  V30 996 H 92.6863 -3.51454 -1.90578 0
M  V30 997 H 94.1263 -3.12287 -2.86798 0
M  V30 998 C 92.5853 -1.63855 -2.94369 0
M  V30 999 O 93.1153 -1.05565 -3.87581 0
M  V30 1000 N 91.3213 -1.35202 -2.57233 0
M  V30 1001 H 90.8683 -1.82791 -1.81508 0
M  V30 1002 H 90.8263 -0.645922 -3.07693 0
M  V30 1003 N 94.5984 0.214957 -1.56127 0
M  V30 1004 C 95.8454 0.938372 -1.79446 0
M  V30 1005 C 96.1734 1.8407 -0.628378 0
M  V30 1006 O 95.4284 1.91837 0.386925 0
M  V30 1007 C 95.7274 1.80314 -3.0858 0
M  V30 1008 C 95.3934 1.05349 -4.3842 0
M  V30 1009 C 94.0554 0.846435 -4.73697 0
M  V30 1010 C 96.4074 0.524588 -5.18553 0
M  V30 1011 C 93.7354 0.098683 -5.86617 0
M  V30 1012 C 96.0874 -0.209853 -6.32252 0
M  V30 1013 C 94.7514 -0.428102 -6.66126 0
M  V30 1014 H 94.0214 0.343375 -0.656639 0
M  V30 1015 H 96.6684 0.206077 -1.90388 0
M  V30 1016 H 94.9734 2.6035 -2.92789 0
M  V30 1017 H 96.6704 2.36513 -3.23825 0
M  V30 1018 H 93.2604 1.22486 -4.10725 0
M  V30 1019 H 97.4444 0.672008 -4.91729 0
M  V30 1020 H 92.7004 -0.0805753 -6.11347 0
M  V30 1021 H 96.8744 -0.627157 -6.9357 0
M  V30 1022 H 94.5014 -1.00944 -7.53468 0
M  V30 1023 N 96.0765 1.50051 0.48192 0
M  V30 1024 C 97.3225 1.60736 1.2366 0
M  V30 1025 C 97.6555 0.301786 1.91841 0
M  V30 1026 O 96.9305 -0.696025 1.8162 0
M  V30 1027 C 97.2135 2.78009 2.28874 0
M  V30 1028 C 97.0665 4.18416 1.65069 0
M  V30 1029 C 98.3855 2.90867 3.30279 0
M  V30 1030 H 95.5045 0.585031 0.448228 0
M  V30 1031 H 98.1465 1.82402 0.531946 0
M  V30 1032 H 96.2965 2.59667 2.88973 0
M  V30 1033 H 97.9685 4.48322 1.0865 0
M  V30 1034 H 96.2115 4.23177 0.954148 0
M  V30 1035 H 96.8825 4.96381 2.41474 0
M  V30 1036 H 99.3585 3.07623 2.80191 0
M  V30 1037 H 98.2345 3.74566 4.01238 0
M  V30 1038 H 98.4955 2.01021 3.93755 0
M  V30 1039 N 97.5546 -0.734337 1.39446 0
M  V30 1040 C 98.4866 -1.85861 1.34121 0
M  V30 1041 C 99.4996 -1.60871 0.249864 0
M  V30 1042 O 100.689 -1.71093 0.508865 0
M  V30 1043 C 97.7886 -3.21899 1.05991 0
M  V30 1044 C 96.9616 -3.74239 2.26415 0
M  V30 1045 C 96.0206 -4.88841 1.94733 0
M  V30 1046 O 95.0466 -5.02468 2.67422 0
M  V30 1047 N 96.2486 -5.73261 0.913884 0
M  V30 1048 H 99.0136 -1.90934 2.31007 0
M  V30 1049 H 96.5746 -0.915102 1.33557 0
M  V30 1050 H 98.5666 -3.96136 0.828147 0
M  V30 1051 H 97.1366 -3.12091 0.178361 0
M  V30 1052 H 96.3566 -2.91347 2.65539 0
M  V30 1053 H 97.6446 -4.05942 3.06738 0
M  V30 1054 H 97.0426 -5.64842 0.311476 0
M  V30 1055 H 95.5996 -6.47563 0.742015 0
M  V30 1056 N 99.0327 -1.24633 -0.964593 0
M  V30 1057 C 99.9647 -0.999302 -2.06268 0
M  V30 1058 C 100.978 0.0323226 -1.62768 0
M  V30 1059 O 102.167 -0.205079 -1.77318 0
M  V30 1060 C 99.2667 -0.486816 -3.35385 0
M  V30 1061 C 98.4397 -1.5823 -4.07777 0
M  V30 1062 C 97.4987 -1.07191 -5.15166 0
M  V30 1063 O 96.5247 -1.76426 -5.41168 0
M  V30 1064 N 97.7267 0.0920373 -5.80427 0
M  V30 1065 H 100.492 -1.94477 -2.28033 0
M  V30 1066 H 98.0527 -1.15704 -1.13244 0
M  V30 1067 H 100.045 -0.130066 -4.04491 0
M  V30 1068 H 98.6147 0.364459 -3.10468 0
M  V30 1069 H 97.8347 -2.11109 -3.32906 0
M  V30 1070 H 99.1227 -2.31854 -4.52903 0
M  V30 1071 H 98.5207 0.670784 -5.61709 0
M  V30 1072 H 97.0777 0.389905 -6.50633 0
M  V30 1073 N 100.511 1.16574 -1.06058 0
M  V30 1074 C 101.441 2.23057 -0.690488 0
M  V30 1075 C 102.422 1.67141 0.315901 0
M  V30 1076 O 103.607 1.93253 0.191556 0
M  V30 1077 C 100.737 3.47222 -0.073625 0
M  V30 1078 C 99.6908 4.16016 -1.00573 0
M  V30 1079 C 99.0168 5.34104 -0.252289 0
M  V30 1080 C 100.317 4.67264 -2.33371 0
M  V30 1081 H 102.011 2.54271 -1.58072 0
M  V30 1082 H 99.5568 1.22218 -0.76149 0
M  V30 1083 H 101.51 4.20939 0.19714 0
M  V30 1084 H 100.234 3.15302 0.85161 0
M  V30 1085 H 98.8928 3.44223 -1.2612 0
M  V30 1086 H 98.5408 4.98437 0.675988 0
M  V30 1087 H 98.2408 5.81072 -0.873455 0
M  V30 1088 H 99.7648 6.10599 0.0109857 0
M  V30 1089 H 101.179 5.32573 -2.12223 0
M  V30 1090 H 99.5758 5.24843 -2.90963 0
M  V30 1091 H 100.646 3.83602 -2.96611 0
M  V30 1092 N 101.989 0.842826 1.3317 0
M  V30 1093 C 102.952 0.284065 2.27433 0
M  V30 1094 C 103.952 -0.54948 1.5112 0
M  V30 1095 O 105.142 -0.362699 1.70382 0
M  V30 1096 C 102.274 -0.599384 3.35589 0
M  V30 1097 H 103.467 1.11589 2.78366 0
M  V30 1098 H 101.02 0.616221 1.4364 0
M  V30 1099 H 101.755 -1.45349 2.89904 0
M  V30 1100 H 101.54 -0.00291266 3.921 0
M  V30 1101 H 103.03 -0.983488 4.05854 0
M  V30 1102 N 103.467 -1.45747 0.599634 0
M  V30 1103 C 104.377 -2.34262 -0.125888 0
M  V30 1104 C 105.393 -1.50768 -0.868625 0
M  V30 1105 O 106.569 -1.83592 -0.828003 0
M  V30 1106 C 103.634 -3.28252 -1.11587 0
M  V30 1107 C 102.695 -4.27651 -0.375956 0
M  V30 1108 C 101.928 -5.1715 -1.31877 0
M  V30 1109 O 102.151 -5.09916 -2.55621 0
M  V30 1110 O 101.085 -5.96286 -0.820157 0
M  V30 1111 H 104.911 -2.97688 0.601315 0
M  V30 1112 H 102.496 -1.44999 0.359934 0
M  V30 1113 H 104.378 -3.86191 -1.68626 0
M  V30 1114 H 103.053 -2.67401 -1.82424 0
M  V30 1115 H 101.96 -3.7335 0.236698 0
M  V30 1116 H 103.293 -4.91334 0.29177 0
M  V30 1117 N 104.945 -0.338344 -1.53925 0
M  V30 1118 C 106.361 0.0137736 -1.59594 0
M  V30 1119 C 106.561 1.49186 -1.35447 0
M  V30 1120 O 105.617 2.24987 -1.14616 0
M  V30 1121 C 106.93 -0.41773 -2.97784 0
M  V30 1122 C 108.478 -0.369633 -3.1081 0
M  V30 1123 C 108.953 -0.776524 -4.51369 0
M  V30 1124 N 110.444 -0.730506 -4.57403 0
M  V30 1125 C 111.179 -1.01736 -5.64303 0
M  V30 1126 N 110.675 -1.3721 -6.79077 0
M  V30 1127 N 112.468 -0.941942 -5.54151 0
M  V30 1128 H 104.619 -1.3012 -1.67876 0
M  V30 1129 H 106.882 -0.530082 -0.78595 0
M  V30 1130 H 106.588 -1.44811 -3.20504 0
M  V30 1131 H 106.462 0.209729 -3.76616 0
M  V30 1132 H 108.849 0.651568 -2.87817 0
M  V30 1133 H 108.93 -1.03223 -2.34049 0
M  V30 1134 H 108.574 -1.79571 -4.75096 0
M  V30 1135 H 108.504 -0.0914649 -5.26521 0
M  V30 1136 H 110.995 -0.468783 -3.74981 0
M  V30 1137 H 111.308 -1.57597 -7.5656 0
M  V30 1138 H 109.653 -1.4105 -6.80536 0
M  V30 1139 H 112.844 -0.664184 -4.63364 0
M  V30 1140 H 113.017 -1.16884 -6.37371 0
M  V30 1141 N 106.423 1.57458 -0.0668435 0
M  V30 1142 C 107.67 1.93301 0.603406 0
M  V30 1143 C 107.998 0.946486 1.69917 0
M  V30 1144 O 107.253 -0.0387021 1.95662 0
M  V30 1145 C 107.552 3.35784 1.22409 0
M  V30 1146 C 107.218 4.50179 0.254955 0
M  V30 1147 C 105.88 4.81199 -0.0116746 0
M  V30 1148 C 108.232 5.19598 -0.408338 0
M  V30 1149 C 105.56 5.78978 -0.94877 0
M  V30 1150 C 107.912 6.18381 -1.33372 0
M  V30 1151 C 106.576 6.47821 -1.60887 0
M  V30 1152 H 105.846 0.707338 0.220802 0
M  V30 1153 H 108.493 1.91012 -0.136665 0
M  V30 1154 H 106.798 3.34515 2.03978 0
M  V30 1155 H 108.495 3.60804 1.74989 0
M  V30 1156 H 105.085 4.25983 0.472954 0
M  V30 1157 H 109.269 4.95832 -0.215456 0
M  V30 1158 H 104.525 6.00115 -1.16925 0
M  V30 1159 H 108.699 6.71277 -1.85367 0
M  V30 1160 H 106.326 7.23399 -2.33661 0
M  V30 1161 N 107.901 -0.206675 1.56239 0
M  V30 1162 C 109.147 -0.930218 1.80208 0
M  V30 1163 C 109.48 -1.83387 0.638981 0
M  V30 1164 O 108.755 -1.91119 -0.361066 0
M  V30 1165 C 109.038 -1.75641 3.1436 0
M  V30 1166 C 108.891 -0.878257 4.41142 0
M  V30 1167 C 110.21 -2.73129 3.45092 0
M  V30 1168 H 107.329 -0.336742 0.655571 0
M  V30 1169 H 109.971 -0.198222 1.88963 0
M  V30 1170 H 108.121 -2.38048 3.07027 0
M  V30 1171 H 109.793 -0.269787 4.6051 0
M  V30 1172 H 108.036 -0.184385 4.33408 0
M  V30 1173 H 108.707 -1.49106 5.3148 0
M  V30 1174 H 111.183 -2.20856 3.52649 0
M  V30 1175 H 110.059 -3.28028 4.40101 0
M  V30 1176 H 110.32 -3.51606 2.68003 0
M  V30 1177 N 109.379 -1.50304 -0.473955 0
M  V30 1178 C 110.604 -1.65175 -1.25427 0
M  V30 1179 C 111.029 -0.333673 -1.85117 0
M  V30 1180 O 110.387 0.702114 -1.67153 0
M  V30 1181 C 110.435 -2.74295 -2.34082 0
M  V30 1182 O 109.539 -2.35349 -3.38651 0
M  V30 1183 H 108.88 -0.551944 -0.369126 0
M  V30 1184 H 111.41 -1.96662 -0.564364 0
M  V30 1185 H 111.42 -2.97285 -2.79438 0
M  V30 1186 H 110.095 -3.69959 -1.90008 0
M  V30 1187 H 108.672 -2.22794 -2.99027 0
M  V30 1188 N 110.857 0.726932 -1.39834 0
M  V30 1189 C 112.268 1.30558 -1.3346 0
M  V30 1190 C 112.619 1.962 -0.00273003 0
M  V30 1191 O 111.744 1.96826 0.899371 0
M  V30 1192 C 112.339 2.37404 -2.41713 0
M  V30 1193 C 110.898 2.90921 -2.38835 0
M  V30 1194 C 110.045 1.64578 -2.2318 0
M  V30 1195 H 112.996 0.523862 -1.49804 0
M  V30 1196 H 113.017 3.17984 -2.08966 0
M  V30 1197 H 112.529 1.89599 -3.38635 0
M  V30 1198 H 110.63 3.42985 -1.45575 0
M  V30 1199 H 110.743 3.43487 -3.33997 0
M  V30 1200 H 109.107 1.89219 -1.70494 0
M  V30 1201 H 109.89 1.18814 -3.22084 0
M  V30 1202 N 112.336 1.25143 0.95797 0
M  V30 1203 C 113.246 1.06968 2.08794 0
M  V30 1204 C 114.262 0.00773911 1.73998 0
M  V30 1205 O 115.438 0.207972 2.00323 0
M  V30 1206 C 112.503 0.68691 3.39827 0
M  V30 1207 C 111.564 1.82641 3.88511 0
M  V30 1208 C 110.797 1.46181 5.1329 0
M  V30 1209 O 111.02 0.355971 5.69288 0
M  V30 1210 O 109.954 2.29085 5.566 0
M  V30 1211 H 113.78 2.01723 2.27027 0
M  V30 1212 H 111.365 1.04051 1.07209 0
M  V30 1213 H 113.247 0.485417 4.18595 0
M  V30 1214 H 111.922 -0.231417 3.22872 0
M  V30 1215 H 110.829 2.08274 3.10762 0
M  V30 1216 H 112.162 2.72386 4.09959 0
M  V30 1217 N 113.814 -1.1601 1.06675 0
M  V30 1218 C 114.747 -2.1947 0.625168 0
M  V30 1219 C 115.725 -1.58699 -0.354041 0
M  V30 1220 O 116.909 -1.86669 -0.262098 0
M  V30 1221 C 114.036 -3.38598 -0.0829593 0
M  V30 1222 C 113.082 -4.1787 0.853611 0
M  V30 1223 S 113.915 -4.81135 2.35094 0
M  V30 1224 C 115.071 -6.03639 1.65441 0
M  V30 1225 H 115.304 -2.56587 1.50168 0
M  V30 1226 H 112.837 -1.26862 0.880078 0
M  V30 1227 H 114.795 -4.07621 -0.485288 0
M  V30 1228 H 113.456 -2.99839 -0.935716 0
M  V30 1229 H 112.649 -5.03078 0.304755 0
M  V30 1230 H 112.251 -3.54361 1.196 0
M  V30 1231 H 114.543 -6.70632 0.962201 0
M  V30 1232 H 115.486 -6.63081 2.48454 0
M  V30 1233 H 115.894 -5.52965 1.13534 0
M  V30 1234 N 115.292 -0.849877 -1.32721 0
M  V30 1235 C 116.708 -0.539102 -1.50219 0
M  V30 1236 C 116.908 0.931271 -1.78689 0
M  V30 1237 O 115.964 1.71455 -1.85363 0
M  V30 1238 C 117.277 -1.42196 -2.64954 0
M  V30 1239 C 118.825 -1.42189 -2.78839 0
M  V30 1240 C 119.3 -2.28985 -3.96648 0
M  V30 1241 N 120.791 -2.26754 -4.03902 0
M  V30 1242 C 121.526 -2.90644 -4.94281 0
M  V30 1243 N 121.022 -3.63629 -5.897 0
M  V30 1244 N 122.815 -2.80057 -4.87365 0
M  V30 1245 H 114.966 -1.80156 -1.12506 0
M  V30 1246 H 117.229 -0.769217 -0.554085 0
M  V30 1247 H 116.935 -2.46733 -2.50631 0
M  V30 1248 H 116.809 -1.10591 -3.60624 0
M  V30 1249 H 119.196 -0.38419 -2.92588 0
M  V30 1250 H 119.277 -1.77807 -1.83898 0
M  V30 1251 H 118.921 -3.32819 -3.83658 0
M  V30 1252 H 118.851 -1.90702 -4.90857 0
M  V30 1253 H 121.342 -1.73688 -3.3562 0
M  V30 1254 H 121.655 -4.09558 -6.55349 0
M  V30 1255 H 120 -3.67737 -5.89741 0
M  V30 1256 H 123.191 -2.22593 -4.11789 0
M  V30 1257 H 123.364 -3.30132 -5.57599 0
M  V30 1258 N 116.77 1.45427 -0.607355 0
M  V30 1259 C 117.7 2.3329 0.0989352 0
M  V30 1260 C 118.681 1.46816 0.859007 0
M  V30 1261 O 119.866 1.75588 0.829604 0
M  V30 1262 C 116.996 3.29518 1.09705 0
M  V30 1263 C 115.95 4.25626 0.450206 0
M  V30 1264 C 115.276 5.11542 1.55655 0
M  V30 1265 C 116.576 5.18505 -0.628455 0
M  V30 1266 H 118.27 2.92595 -0.634716 0
M  V30 1267 H 115.816 1.40696 -0.306681 0
M  V30 1268 H 117.769 3.89855 1.59971 0
M  V30 1269 H 116.493 2.68372 1.86129 0
M  V30 1270 H 115.152 3.66586 -0.0315886 0
M  V30 1271 H 114.8 4.46765 2.31107 0
M  V30 1272 H 114.5 5.76647 1.12925 0
M  V30 1273 H 116.024 5.74748 2.06148 0
M  V30 1274 H 117.438 5.72916 -0.209877 0
M  V30 1275 H 115.835 5.92085 -0.977489 0
M  V30 1276 H 116.905 4.60948 -1.50514 0
M  V30 1277 N 118.248 0.346503 1.53744 0
M  V30 1278 C 119.473 -0.253074 2.0585 0
M  V30 1279 C 119.898 -1.43202 1.21962 0
M  V30 1280 O 119.256 -1.79783 0.234073 0
M  V30 1281 C 119.304 -0.643193 3.54817 0
M  V30 1282 O 118.408 -1.74286 3.73762 0
M  V30 1283 H 117.749 -0.0413583 0.662711 0
M  V30 1284 H 120.279 0.501574 1.98357 0
M  V30 1285 H 120.289 -0.919526 3.97503 0
M  V30 1286 H 118.964 0.218966 4.15323 0
M  V30 1287 H 117.541 -1.46356 3.42979 0
M  V30 1288 N 119.726 -1.57421 0.075193 0
M  V30 1289 C 120.973 -1.93618 -0.593146 0
M  V30 1290 C 121.301 -0.955484 -1.69413 0
M  V30 1291 O 120.556 0.0283251 -1.9568 0
M  V30 1292 C 120.855 -3.36428 -1.20626 0
M  V30 1293 C 120.521 -4.50307 -0.231078 0
M  V30 1294 C 119.183 -4.81186 0.0371936 0
M  V30 1295 C 121.535 -5.19374 0.435888 0
M  V30 1296 C 118.863 -5.78466 0.979461 0
M  V30 1297 C 121.215 -6.17665 1.3665 0
M  V30 1298 C 119.879 -6.46958 1.6432 0
M  V30 1299 H 119.149 -0.708499 -0.217047 0
M  V30 1300 H 121.796 -1.90937 0.146793 0
M  V30 1301 H 120.101 -3.35592 -2.02201 0
M  V30 1302 H 121.798 -3.61727 -1.73073 0
M  V30 1303 H 118.388 -4.26227 -0.450357 0
M  V30 1304 H 122.572 -4.95711 0.241748 0
M  V30 1305 H 117.828 -5.99487 1.20106 0
M  V30 1306 H 122.002 -6.70284 1.88924 0
M  V30 1307 H 119.629 -7.2215 2.37494 0
M  V30 1308 N 121.204 0.198386 -1.56346 0
M  V30 1309 C 122.453 0.917451 -1.79627 0
M  V30 1310 C 122.766 1.8456 -0.64784 0
M  V30 1311 O 123.972 2.60504 -0.764859 0
M  V30 1312 C 122.428 1.68175 -3.18191 0
M  V30 1313 C 122.036 0.798589 -4.40825 0
M  V30 1314 C 123.78 2.39065 -3.50782 0
M  V30 1315 C 121.687 1.56157 -5.70411 0
M  V30 1316 H 120.617 0.346317 -0.669762 0
M  V30 1317 H 123.268 0.170801 -1.82703 0
M  V30 1318 H 121.65 2.47216 -3.09354 0
M  V30 1319 H 122.824 0.0470665 -4.60776 0
M  V30 1320 H 121.139 0.200686 -4.15916 0
M  V30 1321 H 123.736 2.96692 -4.44835 0
M  V30 1322 H 124.079 3.13091 -2.74371 0
M  V30 1323 H 124.612 1.66993 -3.61052 0
M  V30 1324 H 121.351 0.864142 -6.49779 0
M  V30 1325 H 120.871 2.2871 -5.54483 0
M  V30 1326 H 122.55 2.11622 -6.11412 0
M  V30 1327 N 122.682 1.50554 0.465978 0
M  V30 1328 C 123.928 1.62038 1.21949 0
M  V30 1329 C 124.261 0.322116 1.9151 0
M  V30 1330 O 123.536 -0.676723 1.82348 0
M  V30 1331 C 123.819 2.80421 2.25912 0
M  V30 1332 C 123.672 4.20144 1.60622 0
M  V30 1333 C 124.991 2.94354 3.27176 0
M  V30 1334 H 122.11 0.589752 0.441998 0
M  V30 1335 H 124.752 1.82956 0.51257 0
M  V30 1336 H 122.902 2.62717 2.86203 0
M  V30 1337 H 124.574 4.49449 1.03889 0
M  V30 1338 H 122.817 4.24165 0.909211 0
M  V30 1339 H 123.488 4.98914 2.36196 0
M  V30 1340 H 125.964 3.10578 2.76913 0
M  V30 1341 H 124.84 3.788 3.97242 0
M  V30 1342 H 125.101 2.05186 3.916 0
M  V30 1343 N 124.16 -0.719506 1.40217 0
M  V30 1344 C 125.407 -1.47933 1.38283 0
M  V30 1345 C 125.735 -1.94493 -0.0161536 0
M  V30 1346 O 124.99 -1.68224 -0.999956 0
M  V30 1347 C 125.289 -2.72271 2.31524 0
M  V30 1348 C 124.955 -2.44496 3.78857 0
M  V30 1349 C 123.617 -2.36631 4.18998 0
M  V30 1350 C 125.969 -2.21104 4.71977 0
M  V30 1351 C 123.297 -2.03437 5.503 0
M  V30 1352 C 125.649 -1.89423 6.03574 0
M  V30 1353 C 124.313 -1.80038 6.42762 0
M  V30 1354 H 123.583 -0.541325 0.506012 0
M  V30 1355 H 126.23 -0.824502 1.72842 0
M  V30 1356 H 124.535 -3.42572 1.90137 0
M  V30 1357 H 126.232 -3.30348 2.27313 0
M  V30 1358 H 122.822 -2.51503 3.47051 0
M  V30 1359 H 127.006 -2.26139 4.41786 0
M  V30 1360 H 122.262 -1.94705 5.79569 0
M  V30 1361 H 126.436 -1.70336 6.75247 0
M  V30 1362 H 124.063 -1.54083 7.44421 0
M  V30 1363 N 125.638 -1.25649 -0.95132 0
M  V30 1364 C 126.863 -1.13443 -1.73624 0
M  V30 1365 C 127.288 0.307565 -1.85568 0
M  V30 1366 O 126.646 1.22282 -1.33854 0
M  V30 1367 C 126.694 -1.79723 -3.12621 0
M  V30 1368 O 125.798 -1.07912 -3.98031 0
M  V30 1369 H 125.139 -0.395872 -0.533086 0
M  V30 1370 H 127.669 -1.66276 -1.1922 0
M  V30 1371 H 127.679 -1.86141 -3.63064 0
M  V30 1372 H 126.354 -2.84633 -3.03244 0
M  V30 1373 H 124.931 -1.09398 -3.56492 0
M  V30 1374 N 127.117 1.15442 -1.07289 0
M  V30 1375 C 128.342 1.90638 -0.816828 0
M  V30 1376 C 128.767 1.77445 0.624083 0
M  V30 1377 O 128.125 1.10671 1.43602 0
M  V30 1378 C 128.173 3.39008 -1.22906 0
M  V30 1379 O 127.277 4.10701 -0.373975 0
M  V30 1380 H 126.618 0.593555 -0.297638 0
M  V30 1381 H 129.148 1.46198 -1.43134 0
M  V30 1382 H 129.158 3.89801 -1.20497 0
M  V30 1383 H 127.833 3.47929 -2.27856 0
M  V30 1384 H 126.41 3.70046 -0.460499 0
M  V30 1385 N 128.595 0.856903 1.32268 0
M  V30 1386 C 129.527 0.260412 2.27716 0
M  V30 1387 C 130.54 -0.569137 1.52528 0
M  V30 1388 O 131.729 -0.39326 1.74114 0
M  V30 1389 C 128.829 -0.650477 3.32599 0
M  V30 1390 C 128.002 0.14372 4.37164 0
M  V30 1391 C 127.061 -0.69328 5.21613 0
M  V30 1392 O 126.087 -0.12599 5.69061 0
M  V30 1393 N 127.289 -2.00761 5.44679 0
M  V30 1394 H 130.054 1.08059 2.79541 0
M  V30 1395 H 127.615 0.717103 1.45152 0
M  V30 1396 H 129.607 -1.21581 3.86005 0
M  V30 1397 H 128.177 -1.37133 2.80915 0
M  V30 1398 H 127.397 0.890486 3.8401 0
M  V30 1399 H 128.685 0.68915 5.04111 0
M  V30 1400 H 128.083 -2.49181 5.07863 0
M  V30 1401 H 126.64 -2.52103 6.01072 0
M  V30 1402 N 130.073 -1.45103 0.615059 0
M  V30 1403 C 131.036 -2.29025 -0.0895485 0
M  V30 1404 C 132.036 -1.40174 -0.787906 0
M  V30 1405 O 133.226 -1.62217 -0.634933 0
M  V30 1406 C 130.358 -3.21376 -1.13711 0
M  V30 1407 H 131.551 -2.92807 0.648382 0
M  V30 1408 H 129.104 -1.51749 0.374444 0
M  V30 1409 H 129.839 -2.6241 -1.90556 0
M  V30 1410 H 129.624 -3.86834 -0.640475 0
M  V30 1411 H 131.114 -3.84459 -1.63036 0
M  V30 1412 N 131.551 -0.354651 -1.53558 0
M  V30 1413 C 132.779 0.239515 -2.05509 0
M  V30 1414 C 133.194 1.4333 -1.2289 0
M  V30 1415 O 132.551 1.80538 -0.266899 0
M  V30 1416 C 132.602 0.643719 -3.55723 0
M  V30 1417 O 132.323 -0.502602 -4.35207 0
M  V30 1418 C 133.824 1.29743 -4.23889 0
M  V30 1419 H 131.044 0.0442697 -0.669538 0
M  V30 1420 H 133.588 -0.509856 -1.98042 0
M  V30 1421 H 131.743 1.34302 -3.63376 0
M  V30 1422 H 132.157 -0.178172 -5.24197 0
M  V30 1423 H 133.631 1.53091 -5.30346 0
M  V30 1424 H 134.108 2.25441 -3.76926 0
M  V30 1425 H 134.714 0.639865 -4.20459 0
M  V30 1426 N 133.029 1.57378 -0.0835403 0
M  V30 1427 C 134.278 1.93106 0.582498 0
M  V30 1428 C 134.591 0.96651 1.70053 0
M  V30 1429 O 135.797 1.21705 2.42693 0
M  V30 1430 C 134.253 3.43076 1.08751 0
M  V30 1431 C 133.861 4.48 -0.000146404 0
M  V30 1432 C 135.605 3.87785 1.72694 0
M  V30 1433 C 133.512 5.89113 0.519568 0
M  V30 1434 H 132.442 0.720775 0.221358 0
M  V30 1435 H 135.093 1.82821 -0.157675 0
M  V30 1436 H 133.475 3.48474 1.88101 0
M  V30 1437 H 134.649 4.54233 -0.775199 0
M  V30 1438 H 132.964 4.1283 -0.54406 0
M  V30 1439 H 135.561 4.90604 2.1263 0
M  V30 1440 H 135.904 3.25796 2.59158 0
M  V30 1441 H 136.437 3.8504 0.999457 0
M  V30 1442 H 133.176 6.54775 -0.308186 0
M  V30 1443 H 132.696 5.86376 1.26188 0
M  V30 1444 H 134.375 6.39346 0.992237 0
M  V30 1445 N 134.507 -0.190092 1.56449 0
M  V30 1446 C 135.756 -0.907912 1.80111 0
M  V30 1447 C 136.069 -1.84214 0.657619 0
M  V30 1448 O 137.275 -2.60094 0.778663 0
M  V30 1449 C 135.731 -1.66485 3.19078 0
M  V30 1450 C 135.339 -0.7752 4.41242 0
M  V30 1451 C 137.083 -2.37201 3.52045 0
M  V30 1452 C 134.99 -1.53129 5.71231 0
M  V30 1453 H 133.92 -0.34276 0.671589 0
M  V30 1454 H 136.571 -0.161109 1.82791 0
M  V30 1455 H 134.953 -2.45572 3.10661 0
M  V30 1456 H 136.127 -0.0226298 4.60794 0
M  V30 1457 H 134.442 -0.178627 4.16017 0
M  V30 1458 H 137.039 -2.94329 4.46402 0
M  V30 1459 H 137.382 -3.11632 2.76028 0
M  V30 1460 H 137.915 -1.65075 3.61932 0
M  V30 1461 H 134.654 -0.82967 6.50228 0
M  V30 1462 H 134.174 -2.25767 5.55688 0
M  V30 1463 H 135.853 -2.08377 6.12526 0
M  V30 1464 N 135.985 -1.50799 -0.457987 0
M  V30 1465 C 136.915 -1.73553 -1.5621 0
M  V30 1466 C 137.896 -0.584774 -1.59732 0
M  V30 1467 O 139.081 -0.825314 -1.7579 0
M  V30 1468 C 136.211 -1.84169 -2.94447 0
M  V30 1469 C 135.165 -2.99461 -3.0579 0
M  V30 1470 C 134.491 -2.95235 -4.45803 0
M  V30 1471 C 135.791 -4.39766 -2.81786 0
M  V30 1472 H 137.485 -2.66 -1.37421 0
M  V30 1473 H 135.031 -1.28002 -0.659662 0
M  V30 1474 H 136.984 -1.98672 -3.71628 0
M  V30 1475 H 135.708 -0.883545 -3.14422 0
M  V30 1476 H 134.367 -2.8463 -2.31044 0
M  V30 1477 H 134.015 -1.97239 -4.62715 0
M  V30 1478 H 133.715 -3.72642 -4.54326 0
M  V30 1479 H 135.239 -3.11803 -5.24987 0
M  V30 1480 H 136.653 -4.55054 -3.4871 0
M  V30 1481 H 135.05 -5.18722 -3.0174 0
M  V30 1482 H 136.12 -4.51229 -1.7754 0
M  V30 1483 N 137.463 0.71206 -1.40597 0
M  V30 1484 C 138.874 1.29135 -1.34837 0
M  V30 1485 C 139.225 1.96186 -0.0235395 0
M  V30 1486 O 138.35 1.97768 0.878444 0
M  V30 1487 C 138.945 2.34827 -2.44217 0
M  V30 1488 C 137.504 2.88371 -2.41907 0
M  V30 1489 C 136.651 1.62202 -2.24913 0
M  V30 1490 H 139.602 0.507944 -1.50352 0
M  V30 1491 H 139.623 3.15749 -2.12327 0
M  V30 1492 H 139.135 1.85996 -3.40627 0
M  V30 1493 H 137.236 3.41422 -1.49204 0
M  V30 1494 H 137.349 3.39925 -3.37621 0
M  V30 1495 H 135.713 1.874 -1.72492 0
M  V30 1496 H 136.496 1.15391 -3.23326 0
M  V30 1497 N 138.941 1.26152 0.944643 0
M  V30 1498 C 139.871 1.09902 2.06019 0
M  V30 1499 C 140.852 0.00519538 1.70099 0
M  V30 1500 O 142.037 0.176583 1.93396 0
M  V30 1501 C 139.167 0.727562 3.39594 0
M  V30 1502 C 138.121 1.77274 3.89561 0
M  V30 1503 C 137.447 1.25569 5.19747 0
M  V30 1504 C 138.747 3.17357 4.14827 0
M  V30 1505 H 140.441 2.03217 2.19871 0
M  V30 1506 H 137.987 0.978452 1.05652 0
M  V30 1507 H 139.94 0.600777 4.17095 0
M  V30 1508 H 138.664 -0.241287 3.25707 0
M  V30 1509 H 137.323 1.88814 3.14237 0
M  V30 1510 H 136.971 0.276783 5.02238 0
M  V30 1511 H 136.671 1.95433 5.54148 0
M  V30 1512 H 138.195 1.1415 5.99835 0
M  V30 1513 H 139.609 3.08914 4.82954 0
M  V30 1514 H 138.006 3.84781 4.60504 0
M  V30 1515 H 139.076 3.63673 3.20734 0
M  V30 1516 N 140.419 -1.14872 1.07899 0
M  V30 1517 C 141.647 -1.89661 0.82683 0
M  V30 1518 C 142.062 -1.78312 -0.620519 0
M  V30 1519 O 141.419 -1.13888 -1.42604 0
M  V30 1520 C 141.47 -3.39817 1.23316 0
M  V30 1521 O 141.191 -3.50845 2.62372 0
M  V30 1522 C 142.692 -4.31615 1.0111 0
M  V30 1523 H 139.912 -0.60092 0.298557 0
M  V30 1524 H 142.456 -1.4551 1.43691 0
M  V30 1525 H 140.611 -3.8161 0.667286 0
M  V30 1526 H 141.025 -4.44076 2.79101 0
M  V30 1527 H 142.499 -5.35367 1.34486 0
M  V30 1528 H 142.976 -4.39169 -0.0522168 0
M  V30 1529 H 143.582 -3.95572 1.56215 0
M  V30 1530 N 141.898 -0.863906 -1.31812 0
M  V30 1531 C 143.146 -0.470904 -1.96537 0
M  V30 1532 C 143.467 0.978771 -1.68657 0
M  V30 1533 O 142.737 1.6853 -0.998717 0
M  V30 1534 H 141.317 -0.171148 -0.72713 0
M  V30 1535 H 143.979 -1.10236 -1.60729 0
M  V30 1536 H 143.075 -0.623616 -3.05806 0
M  V30 1537 N 143.376 1.44774 -0.622745 0
M  V30 1538 C 144.653 1.95522 -0.0551974 0
M  V30 1539 C 145.033 1.5649 1.41683 0
M  V30 1540 O 144.381 0.834848 2.12703 0
M  V30 1541 C 144.591 3.4796 -0.269242 0
M  V30 1542 C 145.939 4.24306 -0.158014 0
M  V30 1543 O 146.963 3.55637 -0.200162 0
M  V30 1544 O 145.822 5.46471 -0.0558693 0
M  V30 1545 H 142.916 0.826556 0.0271015 0
M  V30 1546 H 145.462 1.54866 -0.693864 0
M  V30 1547 H 144.234 3.6939 -1.29099 0
M  V30 1548 H 143.857 3.95543 0.403966 0
M  V30 1549 N 144.854 0.36279 1.53368 0
M  V30 1550 C 146.27 0.0116182 1.59596 0
M  V30 1551 C 146.47 -1.47012 1.37803 0
M  V30 1552 O 145.526 -2.23136 1.18181 0
M  V30 1553 C 146.839 0.465052 2.97082 0
M  V30 1554 C 148.387 0.419033 3.10182 0
M  V30 1555 C 148.862 0.848235 4.50077 0
M  V30 1556 N 150.353 0.803183 4.56183 0
M  V30 1557 C 151.088 1.107 5.62613 0
M  V30 1558 N 150.584 1.47996 6.76808 0
M  V30 1559 N 152.377 1.02998 5.52583 0
M  V30 1560 H 144.528 1.32775 1.65785 0
M  V30 1561 H 146.791 0.542518 0.777417 0
M  V30 1562 H 146.497 1.49892 3.18159 0
M  V30 1563 H 146.371 -0.149786 3.76902 0
M  V30 1564 H 148.758 -0.605696 2.88817 0
M  V30 1565 H 148.839 1.06933 2.32377 0
M  V30 1566 H 148.483 1.87107 4.7218 0
M  V30 1567 H 148.413 0.175218 5.26308 0
M  V30 1568 H 150.904 0.52838 3.74188 0
M  V30 1569 H 151.217 1.69613 7.53957 0
M  V30 1570 H 149.562 1.51859 6.78206 0
M  V30 1571 H 152.753 0.737817 4.62249 0
M  V30 1572 H 152.926 1.2701 6.35431 0
M  V30 1573 N 146.332 -1.57332 0.0918853 0
M  V30 1574 C 147.58 -1.93853 -0.571446 0
M  V30 1575 C 147.901 -0.974212 -1.6892 0
M  V30 1576 O 147.171 -0.0257254 -1.95883 0
M  V30 1577 H 145.751 -0.715666 -0.214082 0
M  V30 1578 H 148.413 -1.94287 0.154464 0
M  V30 1579 H 147.509 -2.96191 -0.983729 0
M  V30 1580 N 147.81 0.181792 -1.56548 0
M  V30 1581 C 148.757 1.22521 -1.95595 0
M  V30 1582 C 149.727 1.4454 -0.818373 0
M  V30 1583 O 150.912 1.57454 -1.07763 0
M  V30 1584 C 148.052 2.56193 -2.31212 0
M  V30 1585 C 147.165 2.41641 -3.58097 0
M  V30 1586 C 146.3 3.68108 -3.82975 0
M  V30 1587 C 145.339 3.48445 -5.03242 0
M  V30 1588 N 144.476 4.66956 -5.24306 0
M  V30 1589 H 149.316 0.885226 -2.84548 0
M  V30 1590 H 146.853 0.425718 -1.40805 0
M  V30 1591 H 148.811 3.34088 -2.49882 0
M  V30 1592 H 147.441 2.88208 -1.45382 0
M  V30 1593 H 146.493 1.54976 -3.474 0
M  V30 1594 H 147.805 2.23052 -4.46149 0
M  V30 1595 H 146.959 4.54441 -4.01956 0
M  V30 1596 H 145.698 3.89666 -2.93278 0
M  V30 1597 H 144.703 2.60499 -4.8417 0
M  V30 1598 H 145.928 3.2832 -5.9446 0
M  V30 1599 H 143.874 4.88752 -4.37559 0
M  V30 1600 H 143.791 4.51242 -6.06561 0
M  V30 1601 H 145.059 5.54602 -5.47756 0
M  V30 1602 N 149.288 1.51039 0.449983 0
M  V30 1603 C 150.537 1.62317 1.19733 0
M  V30 1604 C 150.85 0.339101 1.92638 0
M  V30 1605 O 152.056 0.331069 2.69474 0
M  V30 1606 C 150.512 2.86608 2.17678 0
M  V30 1607 C 150.12 4.21972 1.50479 0
M  V30 1608 C 151.864 3.07239 2.92924 0
M  V30 1609 C 149.771 5.37426 2.46834 0
M  V30 1610 H 148.701 0.604532 0.450619 0
M  V30 1611 H 151.352 1.77494 0.465625 0
M  V30 1612 H 149.734 2.65037 2.94231 0
M  V30 1613 H 150.908 4.53878 0.795716 0
M  V30 1614 H 149.223 4.07117 0.874344 0
M  V30 1615 H 151.82 3.90668 3.65079 0
M  V30 1616 H 152.163 2.19807 3.5354 0
M  V30 1617 H 152.696 3.29091 2.23481 0
M  V30 1618 H 149.435 6.27079 1.90926 0
M  V30 1619 H 148.955 5.09912 3.15832 0
M  V30 1620 H 150.634 5.68862 3.08228 0
M  V30 1621 N 150.766 -0.704594 1.40972 0
M  V30 1622 C 151.991 -1.49858 1.43378 0
M  V30 1623 C 152.416 -1.88061 0.038184 0
M  V30 1624 O 151.774 -1.5402 -0.956425 0
M  V30 1625 C 151.822 -2.74333 2.34038 0
M  V30 1626 O 150.926 -3.7147 1.7912 0
M  V30 1627 H 150.267 -0.45139 0.486974 0
M  V30 1628 H 152.797 -0.866832 1.8533 0
M  V30 1629 H 152.807 -3.22741 2.49604 0
M  V30 1630 H 151.482 -2.45863 3.35446 0
M  V30 1631 H 150.059 -3.30363 1.72958 0
M  V30 1632 N 152.244 -1.26651 -0.937939 0
M  V30 1633 C 153.191 -1.0849 -2.03712 0
M  V30 1634 C 154.161 0.011033 -1.66096 0
M  V30 1635 O 155.346 -0.149353 -1.90215 0
M  V30 1636 C 152.486 -0.72735 -3.37348 0
M  V30 1637 C 151.599 -1.89986 -3.87981 0
M  V30 1638 C 150.734 -1.48513 -5.10017 0
M  V30 1639 C 149.773 -2.62575 -5.5292 0
M  V30 1640 N 148.91 -2.21762 -6.66158 0
M  V30 1641 H 153.75 -2.02551 -2.18579 0
M  V30 1642 H 151.287 -1.00844 -1.07093 0
M  V30 1643 H 153.245 -0.50092 -4.14182 0
M  V30 1644 H 151.875 0.176298 -3.22318 0
M  V30 1645 H 150.927 -2.23913 -3.07518 0
M  V30 1646 H 152.239 -2.75586 -4.15757 0
M  V30 1647 H 151.393 -1.21934 -5.94321 0
M  V30 1648 H 150.132 -0.60009 -4.83994 0
M  V30 1649 H 149.137 -2.8988 -4.67172 0
M  V30 1650 H 150.362 -3.51685 -5.80943 0
M  V30 1651 H 148.308 -1.35696 -6.41812 0
M  V30 1652 H 148.225 -3.00903 -6.93537 0
M  V30 1653 H 149.493 -1.98403 -7.53828 0
M  V30 1654 N 153.722 1.14298 -1.08507 0
M  V30 1655 C 154.97 1.84993 -0.813763 0
M  V30 1656 C 155.291 1.83405 0.662393 0
M  V30 1657 O 154.561 1.28319 1.48024 0
M  V30 1658 H 153.141 0.684966 -0.298045 0
M  V30 1659 H 155.803 1.385 -1.37126 0
M  V30 1660 H 154.899 2.89788 -1.15884 0
M  V30 1661 N 155.201 0.870884 1.31352 0
M  V30 1662 C 156.131 0.343096 2.30966 0
M  V30 1663 C 157.112 -0.566507 1.60389 0
M  V30 1664 O 158.297 -0.483336 1.88089 0
M  V30 1665 C 155.427 -0.455487 3.443 0
M  V30 1666 C 154.381 0.361103 4.26474 0
M  V30 1667 C 153.707 -0.563221 5.31725 0
M  V30 1668 C 155.007 1.59566 4.97329 0
M  V30 1669 H 156.701 1.17548 2.75359 0
M  V30 1670 H 154.247 0.566686 1.32381 0
M  V30 1671 H 156.2 -0.83525 4.13039 0
M  V30 1672 H 154.924 -1.32139 2.98675 0
M  V30 1673 H 153.583 0.722825 3.59403 0
M  V30 1674 H 153.231 -1.42643 4.82351 0
M  V30 1675 H 152.931 -0.0207409 5.87596 0
M  V30 1676 H 154.455 -0.939808 6.03324 0
M  V30 1677 H 155.869 1.28728 5.58661 0
M  V30 1678 H 154.266 2.07728 5.63 0
M  V30 1679 H 155.336 2.34798 4.24262 0
M  V30 1680 N 156.679 -1.44442 0.630414 0
M  V30 1681 C 157.589 -2.34476 -0.0761693 0
M  V30 1682 C 158.605 -1.52576 -0.836449 0
M  V30 1683 O 159.781 -1.85307 -0.788874 0
M  V30 1684 C 156.846 -3.30545 -1.04599 0
M  V30 1685 C 155.907 -4.28352 -0.28516 0
M  V30 1686 C 155.14 -5.19831 -1.20878 0
M  V30 1687 O 155.363 -5.15223 -2.44747 0
M  V30 1688 O 154.297 -5.97892 -0.693491 0
M  V30 1689 H 158.123 -2.96345 0.664324 0
M  V30 1690 H 155.708 -1.44203 0.39061 0
M  V30 1691 H 157.59 -3.89681 -1.60396 0
M  V30 1692 H 156.265 -2.7121 -1.76711 0
M  V30 1693 H 155.172 -3.72764 0.315837 0
M  V30 1694 H 156.505 -4.90605 0.395924 0
M  V30 1695 N 158.157 -0.370918 -1.53173 0
M  V30 1696 C 159.434 0.273754 -1.93675 0
M  V30 1697 C 159.814 1.65938 -1.3049 0
M  V30 1698 O 159.162 2.23698 -0.465999 0
M  V30 1699 C 159.372 0.318602 -3.47543 0
M  V30 1700 C 160.72 0.556392 -4.20939 0
M  V30 1701 O 161.744 0.399587 -3.53952 0
M  V30 1702 O 160.603 0.862133 -5.39657 0
M  V30 1703 H 157.697 0.165448 -0.810281 0
M  V30 1704 H 160.243 -0.42409 -1.64315 0
M  V30 1705 H 159.015 -0.652687 -3.85818 0
M  V30 1706 H 158.638 1.06212 -3.83151 0
M  V30 1707 N 159.635 1.57281 -0.100228 0
M  V30 1708 C 160.565 2.17328 0.853857 0
M  V30 1709 C 161.546 1.10804 1.2906 0
M  V30 1710 O 162.731 1.38963 1.35657 0
M  V30 1711 C 159.861 2.75772 2.11109 0
M  V30 1712 C 158.815 3.87713 1.81279 0
M  V30 1713 C 158.141 4.32882 3.13874 0
M  V30 1714 C 159.441 5.10677 1.09574 0
M  V30 1715 H 161.135 2.97305 0.353545 0
M  V30 1716 H 158.681 1.43009 0.168612 0
M  V30 1717 H 160.634 3.16433 2.78296 0
M  V30 1718 H 159.358 1.93057 2.63432 0
M  V30 1719 H 158.017 3.476 1.16489 0
M  V30 1720 H 157.665 3.47051 3.64095 0
M  V30 1721 H 157.365 5.08358 2.94696 0
M  V30 1722 H 158.889 4.7618 3.82211 0
M  V30 1723 H 160.303 5.48474 1.66879 0
M  V30 1724 H 158.7 5.91615 1.00557 0
M  V30 1725 H 159.77 4.84835 0.0793299 0
M  V30 1726 N 161.113 -0.173488 1.56642 0
M  V30 1727 C 162.06 -1.21482 1.96242 0
M  V30 1728 C 163.03 -1.44104 0.826027 0
M  V30 1729 O 164.215 -1.5688 1.08597 0
M  V30 1730 C 161.355 -2.54964 2.32567 0
M  V30 1731 C 160.468 -2.39739 3.59373 0
M  V30 1732 C 159.603 -3.66072 3.84921 0
M  V30 1733 C 158.642 -3.45771 5.05083 0
M  V30 1734 N 157.779 -4.64169 5.26775 0
M  V30 1735 H 162.619 -0.870123 2.85014 0
M  V30 1736 H 160.156 -0.418245 1.41029 0
M  V30 1737 H 162.114 -3.32758 2.5165 0
M  V30 1738 H 160.744 -2.87433 1.46908 0
M  V30 1739 H 159.796 -1.53131 3.48217 0
M  V30 1740 H 161.108 -2.20683 4.47326 0
M  V30 1741 H 160.262 -4.52303 4.0436 0
M  V30 1742 H 159.001 -3.88105 2.9534 0
M  V30 1743 H 158.006 -2.57927 4.85545 0
M  V30 1744 H 159.231 -3.25163 5.96193 0
M  V30 1745 H 157.177 -4.86425 4.40144 0
M  V30 1746 H 157.094 -4.48019 6.08946 0
M  V30 1747 H 158.362 -5.51689 5.5069 0
M  V30 1748 N 162.591 -1.51276 -0.441967 0
M  V30 1749 C 164.007 -1.39349 -0.778083 0
M  V30 1750 C 164.207 -0.472212 -1.95889 0
M  V30 1751 O 163.263 0.0743551 -2.5239 0
M  V30 1752 C 164.576 -2.81292 -1.0628 0
M  V30 1753 C 166.124 -2.9041 -1.16751 0
M  V30 1754 C 166.599 -4.33251 -1.48519 0
M  V30 1755 N 168.09 -4.36336 -1.55453 0
M  V30 1756 C 168.825 -5.43885 -1.81596 0
M  V30 1757 N 168.321 -6.61601 -2.05562 0
M  V30 1758 N 170.114 -5.3136 -1.8334 0
M  V30 1759 H 162.265 -2.09729 0.335774 0
M  V30 1760 H 164.528 -0.943925 0.0878028 0
M  V30 1761 H 164.234 -3.50678 -0.267905 0
M  V30 1762 H 164.108 -3.20334 -1.99163 0
M  V30 1763 H 166.495 -2.21225 -1.95304 0
M  V30 1764 H 166.576 -2.54871 -0.217801 0
M  V30 1765 H 166.22 -5.02984 -0.704958 0
M  V30 1766 H 166.15 -4.66299 -2.44689 0
M  V30 1767 H 168.641 -3.51466 -1.38853 0
M  V30 1768 H 168.954 -7.39361 -2.24867 0
M  V30 1769 H 167.299 -6.64725 -2.02894 0
M  V30 1770 H 170.49 -4.38382 -1.64132 0
M  V30 1771 H 170.663 -6.15258 -2.03377 0
M  V30 1772 N 164.069 0.697108 -1.41344 0
M  V30 1773 C 165.315 1.4593 -1.40827 0
M  V30 1774 C 165.648 1.94193 -0.0167098 0
M  V30 1775 O 164.923 1.69425 0.955263 0
M  V30 1776 C 165.206 2.67229 -2.41373 0
M  V30 1777 C 165.059 2.24741 -3.8963 0
M  V30 1778 C 166.378 3.69423 -2.39196 0
M  V30 1779 H 163.497 0.529303 -0.512842 0
M  V30 1780 H 166.139 0.794112 -1.72609 0
M  V30 1781 H 164.289 3.23982 -2.14401 0
M  V30 1782 H 165.961 1.73327 -4.27499 0
M  V30 1783 H 164.204 1.56542 -4.0457 0
M  V30 1784 H 164.875 3.1177 -4.55525 0
M  V30 1785 H 167.351 3.2234 -2.63128 0
M  V30 1786 H 166.227 4.51907 -3.11563 0
M  V30 1787 H 166.488 4.19012 -1.41001 0
M  V30 1788 N 165.547 1.27147 0.931209 0
M  V30 1789 C 166.772 1.16191 1.71797 0
M  V30 1790 C 167.197 -0.278004 1.86034 0
M  V30 1791 O 166.555 -1.20137 1.35782 0
M  V30 1792 C 166.603 1.84673 3.09723 0
M  V30 1793 O 165.707 1.14231 3.96264 0
M  V30 1794 H 165.048 0.404303 0.526721 0
M  V30 1795 H 167.578 1.68152 1.1656 0
M  V30 1796 H 167.588 1.91893 3.60057 0
M  V30 1797 H 166.263 2.89421 2.98677 0
M  V30 1798 H 164.84 1.15056 3.54706 0
M  V30 1799 N 167.025 -1.13721 1.09112 0
M  V30 1800 C 168.436 -1.6648 0.845068 0
M  V30 1801 C 168.787 -1.85911 -0.62701 0
M  V30 1802 O 167.912 -1.57556 -1.48341 0
M  V30 1803 C 168.507 -3.02413 1.52748 0
M  V30 1804 C 167.066 -3.52176 1.32849 0
M  V30 1805 C 166.213 -2.27492 1.58564 0
M  V30 1806 H 169.164 -0.976872 1.25072 0
M  V30 1807 H 169.185 -3.68223 0.958752 0
M  V30 1808 H 168.697 -2.88238 2.59885 0
M  V30 1809 H 166.798 -3.7156 0.278137 0
M  V30 1810 H 166.911 -4.32499 2.0611 0
M  V30 1811 H 165.275 -2.33923 1.00758 0
M  V30 1812 H 166.058 -2.15886 2.66924 0
M  V30 1813 N 168.503 -0.877838 -1.30888 0
M  V30 1814 C 169.749 -0.493426 -1.96706 0
M  V30 1815 C 170.082 0.953504 -1.6918 0
M  V30 1816 O 169.357 1.67266 -0.992594 0
M  V30 1817 C 169.64 -0.760429 -3.51979 0
M  V30 1818 C 169.493 -2.25747 -3.89048 0
M  V30 1819 C 170.812 -0.232148 -4.39487 0
M  V30 1820 H 167.931 -0.180746 -0.714493 0
M  V30 1821 H 170.573 -1.10052 -1.54882 0
M  V30 1822 H 168.723 -0.243715 -3.87735 0
M  V30 1823 H 170.395 -2.84204 -3.63354 0
M  V30 1824 H 168.638 -2.72694 -3.37373 0
M  V30 1825 H 169.309 -2.39491 -4.97341 0
M  V30 1826 H 171.785 -0.674314 -4.106 0
M  V30 1827 H 170.661 -0.448355 -5.47066 0
M  V30 1828 H 170.922 0.866297 -4.33529 0
M  V30 1829 N 169.982 1.44106 -0.638065 0
M  V30 1830 C 171.23 2.01579 -0.145043 0
M  V30 1831 C 171.551 1.50496 1.24 0
M  V30 1832 O 170.821 0.711374 1.82527 0
M  V30 1833 H 169.401 0.745282 -0.05063 0
M  V30 1834 H 172.063 1.76516 -0.826327 0
M  V30 1835 H 171.159 3.11877 -0.118039 0
M  V30 1836 N 171.46 0.379036 1.52974 0
M  V30 1837 C 172.37 -0.468639 2.29872 0
M  V30 1838 C 173.386 -1.08067 1.36373 0
M  V30 1839 O 174.562 -1.08871 1.69438 0
M  V30 1840 C 171.627 -1.58594 3.083 0
M  V30 1841 C 170.688 -1.00007 4.17489 0
M  V30 1842 C 169.921 -2.06413 4.92168 0
M  V30 1843 O 170.144 -3.27751 4.66835 0
M  V30 1844 O 169.078 -1.68717 5.7777 0
M  V30 1845 H 172.904 0.157508 3.03291 0
M  V30 1846 H 170.489 0.143035 1.48714 0
M  V30 1847 H 172.371 -2.23525 3.57232 0
M  V30 1848 H 171.046 -2.19724 2.37703 0
M  V30 1849 H 169.953 -0.314299 3.72777 0
M  V30 1850 H 171.286 -0.433135 4.90291 0
M  V30 1851 N 172.938 -1.57226 0.108567 0
M  V30 1852 C 174.166 -1.99179 -0.559954 0
M  V30 1853 C 174.581 -0.988022 -1.60884 0
M  V30 1854 O 173.938 0.0205512 -1.82488 0
M  V30 1855 C 173.989 -3.41159 -1.19552 0
M  V30 1856 O 173.71 -4.37694 -0.188577 0
M  V30 1857 C 175.211 -3.98188 -1.94837 0
M  V30 1858 H 172.431 -0.654228 -0.149088 0
M  V30 1859 H 174.975 -2.03598 0.19183 0
M  V30 1860 H 173.13 -3.37711 -1.89815 0
M  V30 1861 H 173.544 -5.20469 -0.649014 0
M  V30 1862 H 175.018 -4.99644 -2.34648 0
M  V30 1863 H 175.495 -3.3675 -2.81951 0
M  V30 1864 H 176.101 -4.0515 -1.2936 0
M  V30 1865 N 174.416 0.165178 -1.56732 0
M  V30 1866 C 175.646 0.894919 -1.86212 0
M  V30 1867 C 176.054 1.76066 -0.692627 0
M  V30 1868 O 175.397 1.80387 0.347303 0
M  V30 1869 C 175.459 1.8174 -3.10179 0
M  V30 1870 C 175.123 1.13064 -4.42793 0
M  V30 1871 C 176.12 0.493169 -5.17556 0
M  V30 1872 C 173.805 1.12556 -4.89527 0
M  V30 1873 C 175.799 -0.140209 -6.37246 0
M  V30 1874 C 173.486 0.488366 -6.09145 0
M  V30 1875 C 174.484 -0.143411 -6.82849 0
M  V30 1876 O 174.172 -0.77055 -8.00199 0
M  V30 1877 H 173.904 0.265114 -0.621844 0
M  V30 1878 H 176.458 0.168242 -2.0471 0
M  V30 1879 H 174.688 2.58455 -2.87642 0
M  V30 1880 H 176.377 2.4175 -3.26055 0
M  V30 1881 H 177.143 0.489023 -4.82528 0
M  V30 1882 H 173.022 1.60672 -4.32094 0
M  V30 1883 H 176.566 -0.633932 -6.94714 0
M  V30 1884 H 172.463 0.490116 -6.43637 0
M  V30 1885 H 173.231 -0.670408 -8.1575 0
M  V30 1886 N 175.894 1.51508 0.433938 0
M  V30 1887 C 177.143 1.63578 1.18005 0
M  V30 1888 C 177.456 0.359514 1.92268 0
M  V30 1889 O 178.662 0.359632 2.69108 0
M  V30 1890 C 177.118 2.88901 2.14626 0
M  V30 1891 C 176.726 4.23544 1.45995 0
M  V30 1892 C 178.47 3.10328 2.89649 0
M  V30 1893 C 176.377 5.40014 2.4112 0
M  V30 1894 H 175.307 0.609277 0.444182 0
M  V30 1895 H 177.958 1.77978 0.446773 0
M  V30 1896 H 176.34 2.68142 2.91403 0
M  V30 1897 H 177.514 4.54696 0.747532 0
M  V30 1898 H 175.829 4.08021 0.831115 0
M  V30 1899 H 178.426 3.94518 3.60915 0
M  V30 1900 H 178.769 2.23544 3.51189 0
M  V30 1901 H 179.302 3.31443 2.19978 0
M  V30 1902 H 176.041 6.29068 1.84264 0
M  V30 1903 H 175.561 5.13233 3.10406 0
M  V30 1904 H 177.24 5.72099 3.02177 0
M  V30 1905 N 177.372 -0.689602 1.41712 0
M  V30 1906 C 178.322 -1.79571 1.40493 0
M  V30 1907 C 179.306 -1.58473 0.278409 0
M  V30 1908 O 180.498 -1.69204 0.519532 0
M  V30 1909 C 177.627 -3.17923 1.29536 0
M  V30 1910 C 176.713 -3.44695 2.47075 0
M  V30 1911 N 177.104 -3.42132 3.72531 0
M  V30 1912 C 175.402 -3.75269 2.41017 0
M  V30 1913 C 176.103 -3.67976 4.50521 0
M  V30 1914 N 175.079 -3.88014 3.80718 0
M  V30 1915 H 178.881 -1.75961 2.35404 0
M  V30 1916 H 176.395 -0.889839 1.35851 0
M  V30 1917 H 178.392 -3.97167 1.26745 0
M  V30 1918 H 177.052 -3.22741 0.356153 0
M  V30 1919 H 178.063 -3.22375 4.05333 0
M  V30 1920 H 174.74 -3.87421 1.55599 0
M  V30 1921 H 176.13 -3.7208 5.59469 0
M  V30 1922 N 178.85 -1.27639 -0.924453 0
M  V30 1923 C 179.76 -1.12466 -2.05885 0
M  V30 1924 C 180.776 -0.053869 -1.73917 0
M  V30 1925 O 181.952 -0.261012 -1.99702 0
M  V30 1926 C 179.017 -0.776768 -3.37886 0
M  V30 1927 C 178.078 -1.92878 -3.83532 0
M  V30 1928 C 177.311 -1.59739 -5.09234 0
M  V30 1929 O 177.534 -0.506782 -5.68144 0
M  V30 1930 O 176.468 -2.43761 -5.50331 0
M  V30 1931 H 180.294 -2.07671 -2.21599 0
M  V30 1932 H 177.879 -1.06857 -1.04413 0
M  V30 1933 H 179.761 -0.596229 -4.17161 0
M  V30 1934 H 178.436 0.145732 -3.23372 0
M  V30 1935 H 177.343 -2.1644 -3.0513 0
M  V30 1936 H 178.676 -2.8316 -4.02593 0
M  V30 1937 N 180.328 1.1314 -1.09713 0
M  V30 1938 C 181.576 1.84119 -0.833338 0
M  V30 1939 C 181.897 1.84097 0.642904 0
M  V30 1940 O 181.167 1.29881 1.46655 0
M  V30 1941 H 179.747 0.681766 -0.305293 0
M  V30 1942 H 182.409 1.37038 -1.38588 0
M  V30 1943 H 181.505 2.88543 -1.18951 0
M  V30 1944 N 181.806 0.884767 1.30421 0
M  V30 1945 C 182.736 0.367574 2.30589 0
M  V30 1946 C 183.717 -0.549464 1.60981 0
M  V30 1947 O 184.902 -0.46336 1.88591 0
M  V30 1948 C 182.032 -0.418944 3.44764 0
M  V30 1949 C 180.986 0.406316 4.26067 0
M  V30 1950 C 180.312 -0.506793 5.32293 0
M  V30 1951 C 181.612 1.64832 4.95608 0
M  V30 1952 H 183.306 1.20462 2.74097 0
M  V30 1953 H 180.852 0.580695 1.31772 0
M  V30 1954 H 182.805 -0.791395 4.13902 0
M  V30 1955 H 181.529 -1.28964 3.0006 0
M  V30 1956 H 180.188 0.760903 3.58617 0
M  V30 1957 H 179.836 -1.37519 4.83836 0
M  V30 1958 H 179.536 0.0415828 5.87585 0
M  V30 1959 H 181.06 -0.875764 6.04287 0
M  V30 1960 H 182.474 1.34646 5.57264 0
M  V30 1961 H 180.871 2.13688 5.60765 0
M  V30 1962 H 181.941 2.39284 4.21748 0
M  V30 1963 N 183.284 -1.43765 0.645699 0
M  V30 1964 C 184.231 -2.30745 -0.0504648 0
M  V30 1965 C 185.201 -1.4432 -0.822241 0
M  V30 1966 O 186.386 -1.73202 -0.800358 0
M  V30 1967 C 183.526 -3.29802 -1.0161 0
M  V30 1968 C 182.639 -4.31326 -0.241219 0
M  V30 1969 C 181.774 -5.17469 -1.19998 0
M  V30 1970 C 180.813 -6.10691 -0.415094 0
M  V30 1971 N 179.95 -6.89483 -1.32506 0
M  V30 1972 H 184.79 -2.8973 0.697155 0
M  V30 1973 H 182.327 -1.42738 0.355563 0
M  V30 1974 H 184.285 -3.85734 -1.58949 0
M  V30 1975 H 182.915 -2.72483 -1.73069 0
M  V30 1976 H 181.967 -3.77749 0.448334 0
M  V30 1977 H 183.279 -4.9743 0.369437 0
M  V30 1978 H 182.433 -5.7799 -1.84424 0
M  V30 1979 H 181.172 -4.51473 -1.84455 0
M  V30 1980 H 180.177 -5.49265 0.242565 0
M  V30 1981 H 181.402 -6.78727 0.224966 0
M  V30 1982 H 179.348 -6.26142 -1.95657 0
M  V30 1983 H 179.265 -7.52081 -0.768783 0
M  V30 1984 H 180.533 -7.54516 -1.9577 0
M  V30 1985 N 184.763 -0.387143 -1.52771 0
M  V30 1986 C 185.693 0.440551 -2.29306 0
M  V30 1987 C 186.674 1.06535 -1.32606 0
M  V30 1988 O 187.859 1.07853 -1.61497 0
M  V30 1989 C 184.989 1.56919 -3.09829 0
M  V30 1990 C 183.943 1.07054 -4.14395 0
M  V30 1991 C 183.269 2.29109 -4.83129 0
M  V30 1992 C 184.569 0.140015 -5.22112 0
M  V30 1993 H 186.263 -0.198026 -2.98744 0
M  V30 1994 H 183.809 -0.09668 -1.43675 0
M  V30 1995 H 185.762 2.15503 -3.62128 0
M  V30 1996 H 184.486 2.23532 -2.3812 0
M  V30 1997 H 183.145 0.507247 -3.63074 0
M  V30 1998 H 182.793 2.94227 -4.0797 0
M  V30 1999 H 182.493 1.96406 -5.53804 0
M  V30 2000 H 184.017 2.88339 -5.38231 0
M  V30 2001 H 185.431 0.633978 -5.69784 0
M  V30 2002 H 183.828 -0.0971485 -6.00021 0
M  V30 2003 H 184.898 -0.811711 -4.78058 0
M  V30 2004 N 186.241 1.57166 -0.116904 0
M  V30 2005 C 187.204 2.14039 0.819742 0
M  V30 2006 C 188.204 1.07477 1.19605 0
M  V30 2007 O 189.394 1.33263 1.1219 0
M  V30 2008 C 186.526 2.67891 2.10826 0
M  V30 2009 H 187.719 2.98128 0.325511 0
M  V30 2010 H 185.272 1.55739 0.132312 0
M  V30 2011 H 186.007 1.87384 2.64685 0
M  V30 2012 H 185.792 3.45823 1.84793 0
M  V30 2013 H 187.282 3.11809 2.77785 0
M  V30 2014 N 187.719 -0.156864 1.56817 0
M  V30 2015 C 188.667 -1.21319 1.98455 0
M  V30 2016 C 189.661 -1.45025 0.875444 0
M  V30 2017 O 190.867 -1.45435 1.0606 0
M  V30 2018 H 187.242 -0.408142 0.631605 0
M  V30 2019 H 189.213 -0.835244 2.86472 0
M  V30 2020 C 187.962 -2.54148 2.37285 0
M  V30 2021 H 187.285 -2.36733 3.22176 0
M  V30 2022 H 188.725 -3.26712 2.70251 0
M  V30 2023 C 187.184 -3.13967 1.22173 0
M  V30 2024 O 187.714 -3.98357 0.517149 0
M  V30 2025 N 185.92 -2.7327 0.988536 0
M  V30 2026 H 185.467 -2.04744 1.56326 0
M  V30 2027 H 185.425 -3.13628 0.220209 0
M  V30 2028 N 189.197 -1.51736 -0.425897 0
M  V30 2029 C 190.107 -1.76738 -1.54275 0
M  V30 2030 C 191.123 -0.65211 -1.61318 0
M  V30 2031 O 192.299 -0.935654 -1.78346 0
M  V30 2032 C 189.364 -1.89755 -2.90162 0
M  V30 2033 C 188.425 -3.13633 -2.93143 0
M  V30 2034 C 187.658 -3.2602 -4.22548 0
M  V30 2035 O 187.881 -2.44067 -5.15546 0
M  V30 2036 O 186.815 -4.19071 -4.32046 0
M  V30 2037 H 190.641 -2.71502 -1.36089 0
M  V30 2038 H 188.226 -1.36376 -0.610069 0
M  V30 2039 H 190.108 -2.00236 -3.70788 0
M  V30 2040 H 188.783 -0.981785 -3.08452 0
M  V30 2041 H 187.69 -3.08622 -2.11431 0
M  V30 2042 H 189.023 -4.04936 -2.798 0
M  V30 2043 N 190.675 0.682077 -1.42076 0
M  V30 2044 C 191.607 1.80755 -1.40926 0
M  V30 2045 C 192.62 1.59833 -0.309398 0
M  V30 2046 O 193.809 1.69087 -0.572014 0
M  V30 2047 C 190.909 3.17744 -1.17865 0
M  V30 2048 C 190.082 3.65578 -2.40149 0
M  V30 2049 C 189.141 4.81277 -2.12742 0
M  V30 2050 O 188.167 4.92197 -2.85887 0
M  V30 2051 N 189.369 5.69474 -1.12602 0
M  V30 2052 H 192.134 1.82229 -2.37935 0
M  V30 2053 H 189.695 0.864903 -1.36861 0
M  V30 2054 H 191.687 3.9279 -0.9746 0
M  V30 2055 H 190.257 3.11214 -0.294068 0
M  V30 2056 H 189.477 2.81291 -2.76169 0
M  V30 2057 H 190.765 3.94278 -3.21593 0
M  V30 2058 H 190.163 5.63297 -0.520899 0
M  V30 2059 H 188.72 6.44363 -0.981842 0
M  V30 2060 N 192.153 1.28127 0.917671 0
M  V30 2061 C 193.402 1.14432 1.66097 0
M  V30 2062 C 193.715 -0.307247 1.93172 0
M  V30 2063 O 194.921 -0.565259 2.65551 0
M  V30 2064 C 193.377 2.00015 2.99202 0
M  V30 2065 C 192.985 3.49889 2.79789 0
M  V30 2066 C 194.729 1.94996 3.77064 0
M  V30 2067 C 192.636 4.27636 4.08511 0
M  V30 2068 H 191.566 0.424662 0.62304 0
M  V30 2069 H 194.217 1.52628 1.01868 0
M  V30 2070 H 192.599 1.54672 3.64544 0
M  V30 2071 H 193.773 4.03162 2.23152 0
M  V30 2072 H 192.088 3.56392 2.15345 0
M  V30 2073 H 194.685 2.50354 4.72469 0
M  V30 2074 H 195.028 0.925819 4.05875 0
M  V30 2075 H 195.561 2.38287 3.18534 0
M  V30 2076 H 192.3 5.30615 3.84874 0
M  V30 2077 H 191.82 3.79137 4.64774 0
M  V30 2078 H 193.499 4.37346 4.76799 0
M  V30 2079 N 193.631 -1.12557 1.10312 0
M  V30 2080 C 194.563 -2.17971 0.708625 0
M  V30 2081 C 195.576 -1.60806 -0.254027 0
M  V30 2082 O 196.765 -1.78458 -0.0386891 0
M  V30 2083 C 193.865 -3.38891 0.0248198 0
M  V30 2084 C 193.038 -4.25548 1.01132 0
M  V30 2085 C 192.097 -5.24972 0.35924 0
M  V30 2086 O 191.123 -5.60174 1.00965 0
M  V30 2087 N 192.325 -5.73747 -0.882847 0
M  V30 2088 H 195.09 -2.52427 1.61557 0
M  V30 2089 H 192.651 -1.27967 0.991771 0
M  V30 2090 H 194.643 -4.02485 -0.422852 0
M  V30 2091 H 193.213 -3.02596 -0.784514 0
M  V30 2092 H 192.433 -3.58589 1.6373 0
M  V30 2093 H 193.721 -4.80294 1.67914 0
M  V30 2094 H 193.119 -5.4731 -1.43065 0
M  V30 2095 H 191.676 -6.39234 -1.27369 0
M  V30 2096 N 195.109 -0.891671 -1.2995 0
M  V30 2097 C 196.056 -0.361736 -2.27948 0
M  V30 2098 C 197.026 0.551761 -1.56668 0
M  V30 2099 O 198.211 0.478736 -1.84696 0
M  V30 2100 C 195.351 0.411825 -3.42634 0
M  V30 2101 C 194.464 -0.531651 -4.28716 0
M  V30 2102 C 193.599 0.258167 -5.30572 0
M  V30 2103 C 192.638 -0.680349 -6.08307 0
M  V30 2104 N 191.775 0.0745613 -7.0206 0
M  V30 2105 H 196.615 -1.20254 -2.72659 0
M  V30 2106 H 194.152 -0.604352 -1.34112 0
M  V30 2107 H 196.11 0.876304 -4.07893 0
M  V30 2108 H 194.74 1.21715 -2.98974 0
M  V30 2109 H 193.792 -1.11463 -3.63703 0
M  V30 2110 H 195.104 -1.25038 -4.82874 0
M  V30 2111 H 194.258 0.784204 -6.0161 0
M  V30 2112 H 192.997 1.01008 -4.77126 0
M  V30 2113 H 192.002 -1.21796 -5.3614 0
M  V30 2114 H 193.227 -1.43145 -6.63842 0
M  V30 2115 H 191.173 0.808883 -6.50994 0
M  V30 2116 H 191.09 -0.584409 -7.53738 0
M  V30 2117 H 192.358 0.581123 -7.77331 0
M  V30 2118 N 196.587 1.43421 -0.653314 0
M  V30 2119 C 197.55 2.29182 0.0287951 0
M  V30 2120 C 198.55 1.42213 0.750465 0
M  V30 2121 O 199.74 1.63843 0.591701 0
M  V30 2122 C 196.872 3.24278 1.05151 0
M  V30 2123 H 198.065 2.90985 -0.725786 0
M  V30 2124 H 195.618 1.50702 -0.414545 0
M  V30 2125 H 196.353 2.6737 1.83532 0
M  V30 2126 H 196.138 3.88396 0.537687 0
M  V30 2127 H 197.628 3.88647 1.52786 0
M  V30 2128 N 198.065 0.39524 1.52563 0
M  V30 2129 C 199.313 -0.184678 2.01254 0
M  V30 2130 C 199.634 -1.46822 1.28329 0
M  V30 2131 O 198.904 -1.91666 0.405094 0
M  V30 2132 H 197.484 -0.0712355 0.743596 0
M  V30 2133 H 200.146 0.528293 1.87603 0
M  V30 2134 H 199.242 -0.390681 3.09645 0
M  V30 2135 N 199.544 -1.57102 0.125237 0
M  V30 2136 C 200.792 -1.95021 -0.530198 0
M  V30 2137 C 201.113 -1.00982 -1.66816 0
M  V30 2138 O 200.383 -0.0672693 -1.95784 0
M  V30 2139 H 198.963 -0.720046 -0.198853 0
M  V30 2140 H 201.625 -1.93916 0.19564 0
M  V30 2141 H 200.721 -2.98211 -0.920681 0
M  V30 2142 N 201.022 0.148545 -1.56898 0
M  V30 2143 C 201.952 1.18524 -2.01182 0
M  V30 2144 C 202.933 1.4489 -0.891123 0
M  V30 2145 O 204.118 1.55836 -1.15882 0
M  V30 2146 C 201.248 2.51879 -2.39112 0
M  V30 2147 C 200.202 2.40038 -3.54353 0
M  V30 2148 C 199.528 3.78089 -3.78091 0
M  V30 2149 C 200.828 1.88577 -4.87069 0
M  V30 2150 H 202.522 0.817029 -2.88036 0
M  V30 2151 H 200.068 0.391575 -1.38574 0
M  V30 2152 H 202.021 3.24627 -2.68692 0
M  V30 2153 H 200.745 2.90532 -1.49193 0
M  V30 2154 H 199.404 1.69742 -3.24936 0
M  V30 2155 H 199.052 4.14175 -2.85426 0
M  V30 2156 H 198.752 3.71028 -4.55645 0
M  V30 2157 H 200.276 4.52387 -4.10095 0
M  V30 2158 H 201.69 2.51117 -5.15377 0
M  V30 2159 H 200.087 1.9241 -5.68417 0
M  V30 2160 H 201.157 0.84136 -4.77545 0
M  V30 2161 N 202.5 1.5196 0.417844 0
M  V30 2162 C 203.447 1.74678 1.50852 0
M  V30 2163 C 204.417 0.588947 1.55308 0
M  V30 2164 O 205.602 0.825544 1.72016 0
M  V30 2165 C 202.742 1.89544 2.88387 0
M  V30 2166 C 201.855 3.17166 2.93309 0
M  V30 2167 C 200.99 3.22513 4.22088 0
M  V30 2168 C 200.029 4.44372 4.20951 0
M  V30 2169 N 199.166 4.47161 5.41287 0
M  V30 2170 H 204.006 2.67768 1.30783 0
M  V30 2171 H 201.543 1.32689 0.63498 0
M  V30 2172 H 203.501 1.96146 3.68216 0
M  V30 2173 H 202.131 0.998424 3.06971 0
M  V30 2174 H 201.183 3.19778 2.06024 0
M  V30 2175 H 202.495 4.07021 2.88332 0
M  V30 2176 H 201.649 3.28139 5.10303 0
M  V30 2177 H 200.388 2.30581 4.29748 0
M  V30 2178 H 199.393 4.38902 3.31127 0
M  V30 2179 H 200.618 5.3759 4.14938 0
M  V30 2180 H 198.564 3.58108 5.49632 0
M  V30 2181 H 198.481 5.3085 5.3827 0
M  V30 2182 H 199.749 4.57005 6.3148 0
M  V30 2183 N 203.978 -0.674533 1.42435 0
M  V30 2184 C 205.206 -1.46283 1.46317 0
M  V30 2185 C 205.621 -1.88653 0.0745836 0
M  V30 2186 O 204.978 -1.58151 -0.91074 0
M  V30 2187 C 205.029 -2.71178 2.3905 0
M  V30 2188 O 204.75 -2.30586 3.72507 0
M  V30 2189 C 206.251 -3.64738 2.51955 0
M  V30 2190 H 203.471 -0.450104 0.497642 0
M  V30 2191 H 206.015 -0.828792 1.86953 0
M  V30 2192 H 204.17 -3.3077 2.01667 0
M  V30 2193 H 204.584 -3.11241 4.22172 0
M  V30 2194 H 206.058 -4.49096 3.20962 0
M  V30 2195 H 206.535 -4.10656 1.55752 0
M  V30 2196 H 207.141 -3.11038 2.90061 0
M  V30 2197 N 205.456 -1.28612 -0.910864 0
M  V30 2198 C 206.681 -1.1891 -1.69927 0
M  V30 2199 C 207.106 0.248372 -1.86453 0
M  V30 2200 O 206.464 1.17961 -1.37676 0
M  V30 2201 C 206.512 -1.89578 -3.06745 0
M  V30 2202 O 205.616 -1.20521 -3.94396 0
M  V30 2203 H 204.957 -0.412632 -0.520222 0
M  V30 2204 H 207.487 -1.69985 -1.1387 0
M  V30 2205 H 207.497 -1.97597 -3.56958 0
M  V30 2206 H 206.172 -2.94136 -2.94035 0
M  V30 2207 H 204.749 -1.20684 -3.52831 0
M  V30 2208 N 206.934 1.1197 -1.10907 0
M  V30 2209 C 208.159 1.87942 -0.877064 0
M  V30 2210 C 208.584 1.79341 0.567314 0
M  V30 2211 O 207.942 1.15184 1.40009 0
M  V30 2212 C 207.99 3.34926 -1.33629 0
M  V30 2213 O 207.094 4.09303 -0.504447 0
M  V30 2214 H 206.435 0.583785 -0.316371 0
M  V30 2215 H 208.965 1.4157 -1.47712 0
M  V30 2216 H 208.975 3.8577 -1.32837 0
M  V30 2217 H 207.65 3.40504 -2.3881 0
M  V30 2218 H 206.227 3.68393 -0.577993 0
M  V30 2219 N 208.412 0.89855 1.29475 0
M  V30 2220 C 209.661 0.519863 1.94885 0
M  V30 2221 C 209.974 -0.9383 1.71625 0
M  V30 2222 O 211.18 -1.42445 2.31131 0
M  V30 2223 C 209.636 0.878836 3.49005 0
M  V30 2224 C 209.244 2.35569 3.81066 0
M  V30 2225 C 210.988 0.570004 4.20656 0
M  V30 2226 C 208.895 2.65558 5.28425 0
M  V30 2227 H 207.825 0.190692 0.729488 0
M  V30 2228 H 210.476 1.09539 1.47219 0
M  V30 2229 H 208.858 0.232253 3.95318 0
M  V30 2230 H 210.032 3.04773 3.45616 0
M  V30 2231 H 208.347 2.63343 3.22552 0
M  V30 2232 H 210.944 0.770925 5.29113 0
M  V30 2233 H 211.287 -0.491404 4.1339 0
M  V30 2234 H 211.82 1.17438 3.8007 0
M  V30 2235 H 208.559 3.70493 5.40754 0
M  V30 2236 H 208.079 2.00977 5.65127 0
M  V30 2237 H 209.758 2.51765 5.96006 0
M  V30 2238 N 209.89 -1.43072 0.660911 0
M  V30 2239 C 211.139 -2.00942 0.174735 0
M  V30 2240 C 211.452 -1.52797 -1.22117 0
M  V30 2241 O 212.658 -2.02991 -1.80297 0
M  V30 2242 C 211.114 -3.58948 0.261559 0
M  V30 2243 C 210.722 -4.16085 1.66064 0
M  V30 2244 C 212.466 -4.24173 -0.166617 0
M  V30 2245 C 210.373 -5.6641 1.70098 0
M  V30 2246 H 209.303 -0.751483 0.0615631 0
M  V30 2247 H 211.954 -1.63955 0.824069 0
M  V30 2248 H 210.336 -3.93372 -0.455421 0
M  V30 2249 H 211.51 -3.93147 2.40359 0
M  V30 2250 H 209.825 -3.6326 2.03546 0
M  V30 2251 H 212.422 -5.34471 -0.156433 0
M  V30 2252 H 212.765 -3.98647 -1.19943 0
M  V30 2253 H 213.298 -3.94659 0.498875 0
M  V30 2254 H 210.037 -5.96715 2.71315 0
M  V30 2255 H 209.557 -5.91382 1.00139 0
M  V30 2256 H 211.236 -6.30585 1.44816 0
M  V30 2257 N 211.368 -0.403325 -1.52352 0
M  V30 2258 C 212.617 0.175668 -2.00934 0
M  V30 2259 C 212.93 1.46718 -1.29356 0
M  V30 2260 O 214.136 2.12708 -1.68724 0
M  V30 2261 C 212.592 0.363612 -3.58058 0
M  V30 2262 C 212.2 -0.915472 -4.38547 0
M  V30 2263 C 213.944 0.89821 -4.14888 0
M  V30 2264 C 211.851 -0.695035 -5.87302 0
M  V30 2265 H 210.781 0.0694234 -0.750797 0
M  V30 2266 H 213.432 -0.527879 -1.75743 0
M  V30 2267 H 211.814 1.12935 -3.79555 0
M  V30 2268 H 212.988 -1.68691 -4.28812 0
M  V30 2269 H 211.303 -1.37606 -3.93006 0
M  V30 2270 H 213.9 1.07907 -5.23699 0
M  V30 2271 H 214.243 1.87126 -3.71873 0
M  V30 2272 H 214.776 0.191681 -3.97338 0
M  V30 2273 H 211.515 -1.63948 -6.34666 0
M  V30 2274 H 211.035 0.0372116 -5.99788 0
M  V30 2275 H 212.714 -0.33497 -6.46132 0
M  V30 2276 N 212.846 1.57033 -0.133567 0
M  V30 2277 C 213.809 2.14897 0.796995 0
M  V30 2278 C 214.809 1.0874 1.18458 0
M  V30 2279 O 215.999 1.34446 1.1077 0
M  V30 2280 C 213.131 2.70112 2.07973 0
M  V30 2281 H 214.324 2.98457 0.293873 0
M  V30 2282 H 211.877 1.55871 0.115787 0
M  V30 2283 H 212.612 1.9018 2.62682 0
M  V30 2284 H 212.397 3.47764 1.81115 0
M  V30 2285 H 213.887 3.14738 2.74462 0
M  V30 2286 N 214.325 -0.140222 1.56975 0
M  V30 2287 C 215.255 -1.17456 2.01808 0
M  V30 2288 C 216.236 -1.44415 0.898794 0
M  V30 2289 O 217.421 -1.5522 1.16707 0
M  V30 2290 C 214.551 -2.50607 2.40444 0
M  V30 2291 C 213.505 -2.38155 3.55621 0
M  V30 2292 C 212.831 -3.76078 3.80091 0
M  V30 2293 C 214.131 -1.85991 4.88062 0
M  V30 2294 H 215.825 -0.801743 2.88466 0
M  V30 2295 H 213.371 -0.38422 1.38779 0
M  V30 2296 H 215.324 -3.23197 2.7041 0
M  V30 2297 H 214.048 -2.89737 1.50732 0
M  V30 2298 H 212.707 -1.68016 3.25832 0
M  V30 2299 H 212.355 -4.12656 2.87618 0
M  V30 2300 H 212.055 -3.68606 4.57606 0
M  V30 2301 H 213.579 -4.50206 4.12488 0
M  V30 2302 H 214.993 -2.4838 5.16701 0
M  V30 2303 H 213.39 -1.89393 5.6943 0
M  V30 2304 H 214.46 -0.816023 4.77984 0
M  V30 2305 N 215.803 -1.52179 -0.40978 0
M  V30 2306 C 217.031 -1.70054 -1.17853 0
M  V30 2307 C 217.446 -0.409735 -1.843 0
M  V30 2308 O 216.803 0.614183 -1.71855 0
M  V30 2309 C 216.854 -2.83568 -2.24213 0
M  V30 2310 O 216.575 -4.0765 -1.60478 0
M  V30 2311 C 218.076 -3.12947 -3.13973 0
M  V30 2312 H 215.296 -0.569917 -0.354169 0
M  V30 2313 H 217.84 -1.98734 -0.482198 0
M  V30 2314 H 215.995 -2.57409 -2.89516 0
M  V30 2315 H 216.409 -4.70899 -2.30986 0
M  V30 2316 H 217.883 -3.95889 -3.84677 0
M  V30 2317 H 218.36 -2.26472 -3.76307 0
M  V30 2318 H 218.966 -3.40868 -2.5434 0
M  V30 2319 N 217.281 0.66697 -1.42791 0
M  V30 2320 C 218.558 1.4234 -1.34159 0
M  V30 2321 C 218.938 2.11093 0.0172729 0
M  V30 2322 O 218.286 2.03808 1.03318 0
M  V30 2323 C 218.496 2.41942 -2.51526 0
M  V30 2324 C 219.844 3.06353 -2.93995 0
M  V30 2325 O 220.868 2.52269 -2.51473 0
M  V30 2326 O 219.727 4.04376 -3.67617 0
M  V30 2327 H 216.821 0.635277 -0.529483 0
M  V30 2328 H 219.367 0.695034 -1.54814 0
M  V30 2329 H 218.139 1.89991 -3.42081 0
M  V30 2330 H 217.762 3.22249 -2.32898 0
M  V30 2331 N 218.759 1.29093 0.90403 0
M  V30 2332 C 220.007 1.16583 1.65085 0
M  V30 2333 C 220.328 -0.283933 1.92922 0
M  V30 2334 O 219.598 -1.19509 1.55224 0
M  V30 2335 H 218.178 0.428467 0.611903 0
M  V30 2336 H 220.84 1.61959 1.08422 0
M  V30 2337 H 219.936 1.71266 2.6091 0
M  V30 2338 N 220.237 -1.11381 1.11499 0
M  V30 2339 C 221.184 -2.17439 0.773887 0
M  V30 2340 C 222.154 -1.64132 -0.254899 0
M  V30 2341 O 223.339 -1.90345 -0.13168 0
M  V30 2342 C 220.479 -3.44373 0.223917 0
M  V30 2343 C 219.592 -4.1168 1.30934 0
M  V30 2344 C 218.727 -5.263 0.71984 0
M  V30 2345 C 217.766 -5.85493 1.78507 0
M  V30 2346 N 216.903 -6.91507 1.21502 0
M  V30 2347 H 221.743 -2.45962 1.68246 0
M  V30 2348 H 219.28 -1.20744 0.840191 0
M  V30 2349 H 221.238 -4.17047 -0.112921 0
M  V30 2350 H 219.868 -3.16232 -0.647851 0
M  V30 2351 H 218.92 -3.37073 1.76312 0
M  V30 2352 H 220.232 -4.51729 2.11524 0
M  V30 2353 H 219.386 -6.05785 0.333094 0
M  V30 2354 H 218.125 -4.87559 -0.117377 0
M  V30 2355 H 217.13 -5.04686 2.18111 0
M  V30 2356 H 218.355 -6.26301 2.62533 0
M  V30 2357 H 216.301 -6.54783 0.399455 0
M  V30 2358 H 216.218 -7.30214 1.95763 0
M  V30 2359 H 217.486 -7.74795 0.855181 0
M  V30 2360 N 221.715 -0.905404 -1.28997 0
M  V30 2361 C 222.645 -0.404212 -2.29975 0
M  V30 2362 C 223.626 0.523784 -1.61835 0
M  V30 2363 O 224.811 0.433298 -1.89304 0
M  V30 2364 C 221.941 0.364042 -3.45387 0
M  V30 2365 C 220.895 -0.474048 -4.25367 0
M  V30 2366 C 220.221 0.422045 -5.33032 0
M  V30 2367 C 221.521 -1.72696 -4.92923 0
M  V30 2368 H 223.215 -1.24807 -2.72146 0
M  V30 2369 H 220.761 -0.601585 -1.30832 0
M  V30 2370 H 222.714 0.725447 -4.15109 0
M  V30 2371 H 221.438 1.24174 -3.02074 0
M  V30 2372 H 220.097 -0.81786 -3.57361 0
M  V30 2373 H 219.745 1.29804 -4.85963 0
M  V30 2374 H 219.445 -0.135057 -5.87445 0
M  V30 2375 H 220.969 0.779517 -6.05604 0
M  V30 2376 H 222.383 -1.43495 -5.55051 0
M  V30 2377 H 220.78 -2.22582 -5.57295 0
M  V30 2378 H 221.85 -2.45964 -4.17887 0
M  V30 2379 N 223.193 1.4272 -0.668489 0
M  V30 2380 C 224.47 1.95248 -0.117373 0
M  V30 2381 C 224.85 1.60919 1.36632 0
M  V30 2382 O 224.198 0.902095 2.09939 0
M  V30 2383 C 224.408 3.46927 -0.379806 0
M  V30 2384 C 225.756 4.23588 -0.292923 0
M  V30 2385 O 226.78 3.5482 -0.313204 0
M  V30 2386 O 225.639 5.46017 -0.229697 0
M  V30 2387 H 222.733 0.827 0.00079152 0
M  V30 2388 H 225.279 1.52581 -0.742783 0
M  V30 2389 H 224.051 3.65096 -1.40786 0
M  V30 2390 H 223.674 3.96627 0.277923 0
M  V30 2391 N 224.671 0.411399 1.52136 0
M  V30 2392 C 225.919 -0.163322 2.01439 0
M  V30 2393 C 226.24 -1.45453 1.29879 0
M  V30 2394 O 225.51 -1.91225 0.4254 0
M  V30 2395 H 224.09 -0.0633447 0.744309 0
M  V30 2396 H 226.752 0.548161 1.87033 0
M  V30 2397 H 225.848 -0.357817 3.10042 0
M  V30 2398 N 226.149 -1.5696 0.141893 0
M  V30 2399 C 227.079 -2.19516 -0.795936 0
M  V30 2400 C 228.06 -1.14187 -1.26077 0
M  V30 2401 O 229.245 -1.42511 -1.31925 0
M  V30 2402 C 226.375 -2.81272 -2.03723 0
M  V30 2403 C 225.329 -3.92384 -1.70936 0
M  V30 2404 C 224.655 -4.41052 -3.02287 0
M  V30 2405 C 225.955 -5.13403 -0.959954 0
M  V30 2406 H 227.649 -2.98138 -0.274596 0
M  V30 2407 H 225.195 -1.43406 -0.130636 0
M  V30 2408 H 227.148 -3.237 -2.69808 0
M  V30 2409 H 225.872 -1.99973 -2.58221 0
M  V30 2410 H 224.531 -3.50566 -1.07232 0
M  V30 2411 H 224.179 -3.56582 -3.54765 0
M  V30 2412 H 223.879 -5.15993 -2.81114 0
M  V30 2413 H 225.403 -4.86146 -3.69451 0
M  V30 2414 H 226.817 -5.52706 -1.52279 0
M  V30 2415 H 225.214 -5.94073 -0.848357 0
M  V30 2416 H 226.284 -4.84875 0.0492434 0
M  V30 2417 N 227.627 0.131896 -1.57047 0
M  V30 2418 C 228.873 0.843179 -1.84441 0
M  V30 2419 C 229.206 1.80129 -0.725749 0
M  V30 2420 O 228.481 1.92624 0.269469 0
M  V30 2421 C 228.764 1.60442 -3.22382 0
M  V30 2422 C 228.617 0.666782 -4.4483 0
M  V30 2423 C 229.936 2.56354 -3.5773 0
M  V30 2424 H 227.055 0.305081 -0.670891 0
M  V30 2425 H 229.697 0.107839 -1.89694 0
M  V30 2426 H 227.847 2.23128 -3.18035 0
M  V30 2427 H 229.519 0.0497646 -4.61273 0
M  V30 2428 H 227.762 -0.022609 -4.33794 0
M  V30 2429 H 228.433 1.23579 -5.37989 0
M  V30 2430 H 230.909 2.0378 -3.62785 0
M  V30 2431 H 229.785 3.06657 -4.5525 0
M  V30 2432 H 230.046 3.38419 -2.84473 0
M  V30 2433 N 229.106 1.52395 0.401703 0
M  V30 2434 C 230.517 1.58899 0.980202 0
M  V30 2435 C 230.868 0.434032 1.91339 0
M  V30 2436 O 229.993 -0.444619 2.11783 0
M  V30 2437 C 230.588 2.87994 1.78451 0
M  V30 2438 C 229.147 2.96953 2.31292 0
M  V30 2439 C 228.294 2.53903 1.11483 0
M  V30 2440 H 231.245 1.57657 0.18168 0
M  V30 2441 H 231.266 2.73765 2.64259 0
M  V30 2442 H 230.778 3.72035 1.10506 0
M  V30 2443 H 228.879 2.17422 3.02586 0
M  V30 2444 H 228.992 4.01344 2.61649 0
M  V30 2445 H 227.356 2.07925 1.47104 0
M  V30 2446 H 228.139 3.40326 0.450928 0
M  V30 2447 N 230.584 -0.659388 1.43143 0
M  V30 2448 C 231.809 -1.45221 1.48073 0
M  V30 2449 C 232.234 -1.87845 0.097995 0
M  V30 2450 O 231.592 -1.56985 -0.90694 0
M  V30 2451 C 231.64 -2.66748 2.42647 0
M  V30 2452 O 230.744 -3.65583 1.90848 0
M  V30 2453 H 230.085 -0.435669 0.501088 0
M  V30 2454 H 232.615 -0.807432 1.87994 0
M  V30 2455 H 232.625 -3.14637 2.59745 0
M  V30 2456 H 231.3 -2.35067 3.43098 0
M  V30 2457 H 229.877 -3.24693 1.83381 0
M  V30 2458 N 232.062 -1.29571 -0.897171 0
M  V30 2459 C 233.292 -1.20408 -1.67886 0
M  V30 2460 C 233.7 0.237429 -1.87704 0
M  V30 2461 O 233.043 1.17048 -1.41582 0
M  V30 2462 C 233.105 -1.84887 -3.08314 0
M  V30 2463 C 232.769 -3.34189 -3.11716 0
M  V30 2464 C 233.766 -4.30374 -2.91675 0
M  V30 2465 C 231.451 -3.75431 -3.33701 0
M  V30 2466 C 233.445 -5.65776 -2.93557 0
M  V30 2467 C 231.132 -5.10955 -3.35214 0
M  V30 2468 C 232.13 -6.05938 -3.15164 0
M  V30 2469 O 231.818 -7.38987 -3.1647 0
M  V30 2470 H 231.55 -0.418289 -0.531046 0
M  V30 2471 H 234.104 -1.71514 -1.13014 0
M  V30 2472 H 232.334 -1.28295 -3.64798 0
M  V30 2473 H 234.023 -1.70011 -3.6858 0
M  V30 2474 H 234.789 -3.99844 -2.74499 0
M  V30 2475 H 230.668 -3.01953 -3.48347 0
M  V30 2476 H 234.212 -6.39889 -2.77826 0
M  V30 2477 H 230.109 -5.4113 -3.51922 0
M  V30 2478 H 230.877 -7.47823 -3.3272 0
M  V30 2479 N 233.54 1.10788 -1.12088 0
M  V30 2480 C 234.503 2.15207 -0.788577 0
M  V30 2481 C 235.503 1.59609 0.195317 0
M  V30 2482 O 236.693 1.74174 -0.0300193 0
M  V30 2483 C 233.825 3.4047 -0.171174 0
M  V30 2484 H 235.018 2.46116 -1.71368 0
M  V30 2485 H 232.571 1.26089 -0.923652 0
M  V30 2486 H 233.306 3.15176 0.763832 0
M  V30 2487 H 233.091 3.82109 -0.879514 0
M  V30 2488 H 234.581 4.17576 0.04496 0
M  V30 2489 N 235.018 0.912232 1.28515 0
M  V30 2490 C 235.928 0.404506 2.31086 0
M  V30 2491 C 236.944 -0.50707 1.66448 0
M  V30 2492 O 238.12 -0.393624 1.97516 0
M  V30 2493 C 235.185 -0.348572 3.44943 0
M  V30 2494 C 234.246 0.59604 4.25142 0
M  V30 2495 C 233.479 -0.121194 5.33562 0
M  V30 2496 O 233.702 -1.34317 5.5436 0
M  V30 2497 O 232.636 0.542716 5.99448 0
M  V30 2498 H 236.462 1.25579 2.76521 0
M  V30 2499 H 234.047 0.676998 1.33181 0
M  V30 2500 H 235.929 -0.77395 4.14232 0
M  V30 2501 H 234.604 -1.17571 3.01594 0
M  V30 2502 H 233.511 1.07079 3.58448 0
M  V30 2503 H 234.844 1.38995 4.72167 0
M  V30 2504 N 236.496 -1.42363 0.676048 0
M  V30 2505 C 237.443 -2.308 -0.00150904 0
M  V30 2506 C 238.413 -1.46032 -0.791444 0
M  V30 2507 O 239.598 -1.74861 -0.76344 0
M  V30 2508 C 236.738 -3.31883 -0.945919 0
M  V30 2509 C 235.851 -4.31741 -0.149675 0
M  V30 2510 C 234.986 -5.19898 -1.08995 0
M  V30 2511 C 234.025 -6.11434 -0.285465 0
M  V30 2512 N 233.162 -6.92138 -1.17851 0
M  V30 2513 H 238.002 -2.88187 0.758455 0
M  V30 2514 H 235.539 -1.41952 0.38576 0
M  V30 2515 H 237.497 -3.89019 -1.50731 0
M  V30 2516 H 236.127 -2.76093 -1.6725 0
M  V30 2517 H 235.179 -3.76713 0.528359 0
M  V30 2518 H 236.491 -4.96534 0.474866 0
M  V30 2519 H 235.645 -5.81772 -1.72123 0
M  V30 2520 H 234.384 -4.55284 -1.74837 0
M  V30 2521 H 233.389 -5.48627 0.359018 0
M  V30 2522 H 234.614 -6.78097 0.368883 0
M  V30 2523 H 232.56 -6.30152 -1.82332 0
M  V30 2524 H 232.477 -7.53542 -0.609082 0
M  V30 2525 H 233.745 -7.58499 -1.79722 0
M  V30 2526 N 237.974 -0.419461 -1.51915 0
M  V30 2527 C 238.884 0.407528 -2.31033 0
M  V30 2528 C 239.9 1.04413 -1.3919 0
M  V30 2529 O 241.076 1.0434 -1.72265 0
M  V30 2530 C 238.141 1.50365 -3.12396 0
M  V30 2531 C 237.202 0.889029 -4.19994 0
M  V30 2532 C 236.435 1.93291 -4.97468 0
M  V30 2533 O 236.658 3.15259 -4.75361 0
M  V30 2534 O 235.592 1.53339 -5.8204 0
M  V30 2535 H 239.418 -0.237865 -3.02767 0
M  V30 2536 H 237.003 -0.182413 -1.48282 0
M  V30 2537 H 238.885 2.13975 -3.63032 0
M  V30 2538 H 237.56 2.13345 -2.43445 0
M  V30 2539 H 236.467 0.215353 -3.7348 0
M  V30 2540 H 237.8 0.302991 -4.91267 0
M  V30 2541 N 239.452 1.56882 -0.150215 0
M  V30 2542 C 240.415 2.1573 0.774157 0
M  V30 2543 C 241.415 1.0999 1.17298 0
M  V30 2544 O 242.605 1.35613 1.09338 0
M  V30 2545 C 239.737 2.72302 2.05096 0
M  V30 2546 H 240.93 2.98752 0.262201 0
M  V30 2547 H 238.483 1.55985 0.099248 0
M  V30 2548 H 239.218 1.92956 2.6065 0
M  V30 2549 H 239.003 3.49665 1.77416 0
M  V30 2550 H 240.493 3.17632 2.71109 0
M  V30 2551 N 240.93 -0.123565 1.57115 0
M  V30 2552 C 241.877 -1.15177 2.00007 0
M  V30 2553 C 242.847 -1.41403 0.871454 0
M  V30 2554 O 244.032 -1.53346 1.13533 0
M  V30 2555 C 241.172 -2.47436 2.40561 0
M  V30 2556 C 240.285 -2.28184 3.66819 0
M  V30 2557 C 239.42 -3.53641 3.96373 0
M  V30 2558 C 238.459 -3.29528 5.15827 0
M  V30 2559 N 237.596 -4.47175 5.41275 0
M  V30 2560 H 242.436 -0.779008 2.87638 0
M  V30 2561 H 239.973 -0.373166 1.42288 0
M  V30 2562 H 241.931 -3.24584 2.62109 0
M  V30 2563 H 240.561 -2.82614 1.55978 0
M  V30 2564 H 239.613 -1.41976 3.52912 0
M  V30 2565 H 240.925 -2.0634 4.5412 0
M  V30 2566 H 240.079 -4.39209 4.18545 0
M  V30 2567 H 238.818 -3.78512 3.07538 0
M  V30 2568 H 237.823 -2.42349 4.93505 0
M  V30 2569 H 239.048 -3.06031 6.06236 0
M  V30 2570 H 236.994 -4.72175 4.55397 0
M  V30 2571 H 236.911 -4.28419 6.22891 0
M  V30 2572 H 238.179 -5.3389 5.67963 0
M  V30 2573 N 242.408 -1.52605 -0.393616 0
M  V30 2574 C 243.657 -1.66649 -1.13627 0
M  V30 2575 C 243.97 -0.410364 -1.91247 0
M  V30 2576 O 245.176 -0.430854 -2.68059 0
M  V30 2577 C 243.632 -2.9449 -2.06891 0
M  V30 2578 C 243.24 -4.27266 -1.34714 0
M  V30 2579 C 244.984 -3.17899 -2.81319 0
M  V30 2580 C 242.891 -5.46217 -2.26717 0
M  V30 2581 H 241.821 -0.62084 -0.427871 0
M  V30 2582 H 244.472 -1.791 -0.399428 0
M  V30 2583 H 242.854 -2.75774 -2.84191 0
M  V30 2584 H 244.028 -4.56518 -0.626714 0
M  V30 2585 H 242.343 -4.10081 -0.722643 0
M  V30 2586 H 244.94 -4.03949 -3.50328 0
M  V30 2587 H 245.283 -2.32777 -3.45139 0
M  V30 2588 H 245.816 -3.37159 -2.11113 0
M  V30 2589 H 242.555 -6.33733 -1.67521 0
M  V30 2590 H 242.075 -5.21283 -2.96689 0
M  V30 2591 H 243.754 -5.7991 -2.86903 0
M  V30 2592 N 243.887 0.651787 -1.4349 0
M  V30 2593 C 245.112 1.44434 -1.48841 0
M  V30 2594 C 245.537 1.8779 -0.107955 0
M  V30 2595 O 244.895 1.57464 0.898602 0
M  V30 2596 C 244.943 2.65458 -2.44059 0
M  V30 2597 O 244.047 3.64566 -1.92784 0
M  V30 2598 H 243.388 0.433005 -0.503391 0
M  V30 2599 H 245.918 0.797451 -1.88419 0
M  V30 2600 H 245.928 3.13255 -2.6141 0
M  V30 2601 H 244.603 2.33244 -3.4434 0
M  V30 2602 H 243.18 3.23716 -1.851 0
M  V30 2603 N 245.365 1.30045 0.890287 0
M  V30 2604 C 246.781 1.08261 1.17268 0
M  V30 2605 C 246.981 -0.160063 2.00863 0
M  V30 2606 O 246.037 -0.855181 2.37577 0
M  V30 2607 C 247.35 2.34323 1.8845 0
M  V30 2608 C 248.898 2.39735 2.01237 0
M  V30 2609 C 249.373 3.65625 2.7583 0
M  V30 2610 N 250.864 3.66402 2.83379 0
M  V30 2611 C 251.599 4.60498 3.41657 0
M  V30 2612 N 251.095 5.64933 4.01026 0
M  V30 2613 N 252.888 4.48051 3.39421 0
M  V30 2614 H 245.039 2.09777 0.332762 0
M  V30 2615 H 247.302 0.92446 0.209948 0
M  V30 2616 H 247.008 3.2498 1.34465 0
M  V30 2617 H 246.882 2.4256 2.88867 0
M  V30 2618 H 249.269 1.4956 2.54393 0
M  V30 2619 H 249.35 2.35476 0.999232 0
M  V30 2620 H 248.994 4.56156 2.23347 0
M  V30 2621 H 248.924 3.67144 3.77509 0
M  V30 2622 H 251.415 2.90896 2.41222 0
M  V30 2623 H 251.728 6.32841 4.43545 0
M  V30 2624 H 250.073 5.68732 3.99461 0
M  V30 2625 H 253.264 3.65649 2.92264 0
M  V30 2626 H 253.437 5.21565 3.84544 0
M  V30 2627 N 246.843 -1.10192 1.12674 0
M  V30 2628 C 248.068 -1.86523 0.906853 0
M  V30 2629 C 248.493 -1.80221 -0.538711 0
M  V30 2630 O 247.851 -1.17396 -1.38158 0
M  V30 2631 C 247.899 -3.32758 1.3894 0
M  V30 2632 O 247.003 -4.08449 0.5695 0
M  V30 2633 H 246.344 -0.578678 0.325619 0
M  V30 2634 H 248.874 -1.39203 1.49946 0
M  V30 2635 H 248.884 -3.83608 1.38958 0
M  V30 2636 H 247.559 -3.36661 2.44197 0
M  V30 2637 H 246.136 -3.67427 0.636528 0
M  V30 2638 N 248.321 -0.919034 -1.28029 0
M  V30 2639 C 249.251 -0.428581 -2.29533 0
M  V30 2640 C 250.232 0.50659 -1.62381 0
M  V30 2641 O 251.417 0.413195 -1.89753 0
M  V30 2642 C 248.547 0.327388 -3.45753 0
M  V30 2643 C 247.501 -0.519137 -4.2484 0
M  V30 2644 C 246.827 0.365486 -5.33449 0
M  V30 2645 C 248.127 -1.77914 -4.91064 0
M  V30 2646 H 249.821 -1.27687 -2.70807 0
M  V30 2647 H 247.367 -0.615428 -1.30186 0
M  V30 2648 H 249.32 0.681378 -4.15855 0
M  V30 2649 H 248.044 1.20963 -3.03374 0
M  V30 2650 H 246.703 -0.855717 -3.56473 0
M  V30 2651 H 246.351 1.24642 -4.87312 0
M  V30 2652 H 246.051 -0.197356 -5.87268 0
M  V30 2653 H 247.575 0.715241 -6.06396 0
M  V30 2654 H 248.989 -1.49374 -5.53498 0
M  V30 2655 H 247.386 -2.2848 -5.54903 0
M  V30 2656 H 248.456 -2.50382 -4.15255 0
M  V30 2657 N 249.799 1.42003 -0.683588 0
M  V30 2658 C 251.047 2.01015 -0.209101 0
M  V30 2659 C 251.368 1.54365 1.19149 0
M  V30 2660 O 250.638 0.769083 1.80172 0
M  V30 2661 H 249.218 0.743294 -0.074315 0
M  V30 2662 H 251.88 1.73798 -0.882066 0
M  V30 2663 H 250.976 3.11343 -0.2172 0
M  V30 2664 N 251.277 0.427512 1.51691 0
M  V30 2665 C 252.24 -0.377132 2.26076 0
M  V30 2666 C 253.24 -0.958089 1.29141 0
M  V30 2667 O 254.43 -0.83408 1.52934 0
M  V30 2668 C 251.562 -1.53262 3.04506 0
M  V30 2669 H 252.755 0.27464 2.9864 0
M  V30 2670 H 250.308 0.180445 1.55255 0
M  V30 2671 H 251.043 -2.22072 2.36335 0
M  V30 2672 H 250.828 -1.12232 3.75694 0
M  V30 2673 H 252.318 -2.10135 3.60878 0
M  V30 2674 N 252.755 -1.56801 0.158532 0
M  V30 2675 C 253.98 -2.01295 -0.499516 0
M  V30 2676 C 254.405 -1.03799 -1.56867 0
M  V30 2677 O 253.763 -0.0155162 -1.81293 0
M  V30 2678 C 253.811 -3.44469 -1.06647 0
M  V30 2679 O 252.915 -3.50012 -2.18095 0
M  V30 2680 H 252.256 -0.652884 -0.12099 0
M  V30 2681 H 254.786 -2.02958 0.258661 0
M  V30 2682 H 254.796 -3.8351 -1.39227 0
M  V30 2683 H 253.471 -4.14932 -0.283581 0
M  V30 2684 H 252.048 -3.22822 -1.86656 0
M  V30 2685 N 254.233 0.115231 -1.57178 0
M  V30 2686 C 255.479 0.82357 -1.85325 0
M  V30 2687 C 255.812 1.79349 -0.744814 0
M  V30 2688 O 255.087 1.92899 0.249024 0
M  V30 2689 C 255.37 1.57014 -3.24066 0
M  V30 2690 C 255.223 0.619565 -4.45513 0
M  V30 2691 C 256.542 2.52545 -3.60429 0
M  V30 2692 H 253.661 0.297948 -0.674089 0
M  V30 2693 H 256.303 0.0877138 -1.89797 0
M  V30 2694 H 254.453 2.19742 -3.20383 0
M  V30 2695 H 256.125 0.000837639 -4.613 0
M  V30 2696 H 254.368 -0.0686174 -4.33746 0
M  V30 2697 H 255.039 1.17866 -5.3927 0
M  V30 2698 H 257.515 1.9992 -3.64926 0
M  V30 2699 H 256.391 3.01811 -4.58477 0
M  V30 2700 H 256.652 3.35383 -2.88047 0
M  V30 2701 N 255.711 1.52812 0.385517 0
M  V30 2702 C 256.941 1.71658 1.14966 0
M  V30 2703 C 257.349 0.436253 1.84102 0
M  V30 2704 O 256.692 -0.599313 1.73649 0
M  V30 2705 C 256.754 2.81309 2.23843 0
M  V30 2706 C 256.418 4.22313 1.74644 0
M  V30 2707 C 257.415 5.05352 1.22129 0
M  V30 2708 C 255.1 4.68648 1.80761 0
M  V30 2709 C 257.094 6.32807 0.763838 0
M  V30 2710 C 254.781 5.96086 1.34627 0
M  V30 2711 C 255.779 6.77996 0.825264 0
M  V30 2712 O 255.467 8.03045 0.370669 0
M  V30 2713 H 255.199 0.578022 0.350523 0
M  V30 2714 H 257.753 2.00263 0.456509 0
M  V30 2715 H 255.983 2.48133 2.96592 0
M  V30 2716 H 257.672 2.88524 2.85497 0
M  V30 2717 H 258.438 4.70736 1.16758 0
M  V30 2718 H 254.317 4.04979 2.20256 0
M  V30 2719 H 257.861 6.96689 0.356494 0
M  V30 2720 H 253.758 6.30205 1.39686 0
M  V30 2721 H 254.526 8.17021 0.491829 0
M  V30 2722 N 257.189 -0.644168 1.43834 0
M  V30 2723 C 258.429 -1.41565 1.47441 0
M  V30 2724 C 258.793 -1.91743 0.0992723 0
M  V30 2725 O 259.994 -2.68798 0.0100192 0
M  V30 2726 C 258.265 -2.55902 2.49498 0
M  V30 2727 S 259.824 -3.44287 2.72051 0
M  V30 2728 H 256.642 -0.483118 0.521649 0
M  V30 2729 H 259.244 -0.747008 1.80666 0
M  V30 2730 H 257.948 -2.17327 3.48134 0
M  V30 2731 H 257.479 -3.27607 2.17801 0
M  V30 2732 H 259.494 -4.52927 2.0266 0
M  V30 2733 N 258.668 -1.30515 -0.883378 0
M  V30 2734 C 259.914 -1.19607 -1.63774 0
M  V30 2735 C 260.247 0.248314 -1.92606 0
M  V30 2736 O 259.522 1.17742 -1.54813 0
M  V30 2737 C 259.805 -2.02669 -2.97653 0
M  V30 2738 C 259.658 -3.55335 -2.75784 0
M  V30 2739 C 260.977 -1.86573 -3.98596 0
M  V30 2740 H 258.096 -0.435856 -0.594305 0
M  V30 2741 H 260.738 -1.60165 -1.02212 0
M  V30 2742 H 258.888 -1.68208 -3.50197 0
M  V30 2743 H 260.56 -3.99863 -2.30016 0
M  V30 2744 H 258.803 -3.79438 -2.1026 0
M  V30 2745 H 259.474 -4.08745 -3.70988 0
M  V30 2746 H 261.95 -2.16703 -3.55217 0
M  V30 2747 H 260.826 -2.47014 -4.90179 0
M  V30 2748 H 261.087 -0.825321 -4.34328 0
M  V30 2749 N 260.146 1.09593 -1.13257 0
M  V30 2750 C 261.394 1.81375 -0.891492 0
M  V30 2751 C 261.715 1.86049 0.584009 0
M  V30 2752 O 260.985 1.34481 1.42449 0
M  V30 2753 H 259.565 0.671708 -0.326828 0
M  V30 2754 H 262.227 1.3256 -1.42877 0
M  V30 2755 H 261.323 2.84612 -1.28071 0
M  V30 2756 N 261.624 0.925811 1.2754 0
M  V30 2757 C 262.87 0.566092 1.94739 0
M  V30 2758 C 263.203 -0.890057 1.72603 0
M  V30 2759 O 262.478 -1.63467 1.05399 0
M  V30 2760 C 262.761 0.89054 3.48915 0
M  V30 2761 C 262.614 2.4003 3.80402 0
M  V30 2762 C 263.933 0.395101 4.38323 0
M  V30 2763 H 261.052 0.20714 0.707292 0
M  V30 2764 H 263.694 1.15725 1.50691 0
M  V30 2765 H 261.844 0.387452 3.86563 0
M  V30 2766 H 263.516 2.97494 3.52555 0
M  V30 2767 H 261.759 2.85028 3.2702 0
M  V30 2768 H 262.43 2.57785 4.8811 0
M  V30 2769 H 264.906 0.826241 4.07814 0
M  V30 2770 H 263.782 0.651086 5.45025 0
M  V30 2771 H 264.043 -0.704798 4.36446 0
M  V30 2772 N 263.102 -1.41638 0.69111 0
M  V30 2773 C 264.032 -2.3347 0.037248 0
M  V30 2774 C 265.013 -1.51575 -0.771947 0
M  V30 2775 O 266.198 -1.80126 -0.72582 0
M  V30 2776 C 263.328 -3.35354 -0.903064 0
M  V30 2777 C 262.282 -4.27526 -0.201288 0
M  V30 2778 C 261.608 -5.19747 -1.25565 0
M  V30 2779 C 262.908 -5.13959 0.929689 0
M  V30 2780 H 264.602 -2.88397 0.804227 0
M  V30 2781 H 262.148 -1.38669 0.388189 0
M  V30 2782 H 264.101 -3.98519 -1.36969 0
M  V30 2783 H 262.825 -2.78767 -1.70166 0
M  V30 2784 H 261.484 -3.65779 0.245265 0
M  V30 2785 H 261.132 -4.59479 -2.04666 0
M  V30 2786 H 260.832 -5.8225 -0.791128 0
M  V30 2787 H 262.356 -5.85789 -1.72288 0
M  V30 2788 H 263.77 -5.70718 0.543546 0
M  V30 2789 H 262.167 -5.85379 1.32103 0
M  V30 2790 H 263.237 -4.51389 1.77133 0
M  V30 2791 N 264.58 -0.43555 -1.51462 0
M  V30 2792 C 265.857 0.191364 -1.94662 0
M  V30 2793 C 266.237 1.60254 -1.37411 0
M  V30 2794 O 265.585 2.2152 -0.560458 0
M  V30 2795 C 265.795 0.17091 -3.48581 0
M  V30 2796 C 267.143 0.377357 -4.2292 0
M  V30 2797 O 268.167 0.249104 -3.55328 0
M  V30 2798 O 267.026 0.63247 -5.42828 0
M  V30 2799 H 264.12 0.130932 -0.816569 0
M  V30 2800 H 266.666 -0.4934 -1.62369 0
M  V30 2801 H 265.438 -0.815738 -3.82703 0
M  V30 2802 H 265.061 0.898659 -3.87311 0
M  V30 2803 N 266.058 1.56714 -0.166846 0
M  V30 2804 C 267.305 1.96747 0.479252 0
M  V30 2805 C 267.633 1.05263 1.63554 0
M  V30 2806 O 266.888 0.0858098 1.95512 0
M  V30 2807 C 267.187 3.42889 1.00806 0
M  V30 2808 C 266.853 4.50889 -0.0318574 0
M  V30 2809 C 265.515 4.8015 -0.317675 0
M  V30 2810 C 267.867 5.15949 -0.737956 0
M  V30 2811 C 265.195 5.71772 -1.31506 0
M  V30 2812 C 267.547 6.08647 -1.72429 0
M  V30 2813 C 266.211 6.36277 -2.0176 0
M  V30 2814 H 265.481 0.719949 0.175371 0
M  V30 2815 H 268.128 1.89756 -0.257864 0
M  V30 2816 H 266.433 3.4681 1.82291 0
M  V30 2817 H 268.13 3.71203 1.51689 0
M  V30 2818 H 264.72 4.28128 0.201088 0
M  V30 2819 H 268.904 4.93458 -0.530351 0
M  V30 2820 H 264.16 5.91465 -1.54853 0
M  V30 2821 H 268.334 6.58129 -2.27682 0
M  V30 2822 H 265.961 7.07075 -2.79194 0
M  V30 2823 N 267.536 -0.106894 1.57237 0
M  V30 2824 C 268.446 -1.14911 2.0453 0
M  V30 2825 C 269.462 -1.44592 0.96795 0
M  V30 2826 O 270.638 -1.55468 1.2803 0
M  V30 2827 C 267.703 -2.45272 2.45036 0
M  V30 2828 C 266.764 -2.22879 3.66911 0
M  V30 2829 C 265.997 -3.47024 4.05475 0
M  V30 2830 O 266.22 -4.54804 3.44252 0
M  V30 2831 O 265.154 -3.3731 4.98504 0
M  V30 2832 H 268.98 -0.777461 2.9358 0
M  V30 2833 H 266.565 -0.318563 1.45964 0
M  V30 2834 H 268.447 -3.22055 2.71769 0
M  V30 2835 H 267.122 -2.81886 1.59129 0
M  V30 2836 H 266.029 -1.43915 3.45311 0
M  V30 2837 H 267.362 -1.91163 4.53561 0
M  V30 2838 N 269.014 -1.53014 -0.377408 0
M  V30 2839 C 269.946 -1.74884 -1.48149 0
M  V30 2840 C 270.959 -0.629433 -1.5014 0
M  V30 2841 O 272.148 -0.905416 -1.53833 0
M  V30 2842 C 269.248 -1.80299 -2.86959 0
M  V30 2843 C 268.421 -3.09776 -3.08801 0
M  V30 2844 C 267.48 -3.06586 -4.27658 0
M  V30 2845 O 266.506 -3.80419 -4.23403 0
M  V30 2846 N 267.708 -2.26578 -5.34455 0
M  V30 2847 H 270.473 -2.70147 -1.29771 0
M  V30 2848 H 268.034 -1.51646 -0.56703 0
M  V30 2849 H 270.026 -1.75657 -3.64591 0
M  V30 2850 H 268.596 -0.92372 -2.98641 0
M  V30 2851 H 267.816 -3.27815 -2.18931 0
M  V30 2852 H 269.104 -3.95366 -3.20255 0
M  V30 2853 H 268.502 -1.66081 -5.40771 0
M  V30 2854 H 267.059 -2.27766 -6.10709 0
M  V30 2855 N 270.492 0.636531 -1.44174 0
M  V30 2856 C 271.455 1.73063 -1.50273 0
M  V30 2857 C 272.455 1.56113 -0.385397 0
M  V30 2858 O 273.645 1.61707 -0.64781 0
M  V30 2859 C 270.777 3.12096 -1.37145 0
M  V30 2860 H 271.97 1.69031 -2.47727 0
M  V30 2861 H 269.523 0.849706 -1.31186 0
M  V30 2862 H 270.258 3.21728 -0.407636 0
M  V30 2863 H 270.043 3.25805 -2.18159 0
M  V30 2864 H 271.533 3.91846 -1.44382 0
M  V30 2865 N 271.97 1.30982 0.876444 0
M  V30 2866 C 272.902 1.13902 1.98894 0
M  V30 2867 C 273.915 0.0798815 1.62604 0
M  V30 2868 O 275.104 0.326743 1.75484 0
M  V30 2869 C 272.204 0.716699 3.31235 0
M  V30 2870 C 271.377 1.85945 3.95908 0
M  V30 2871 C 270.436 1.42426 5.06558 0
M  V30 2872 O 269.462 2.13287 5.27729 0
M  V30 2873 N 270.664 0.308025 5.79682 0
M  V30 2874 H 273.429 2.09724 2.14094 0
M  V30 2875 H 270.99 1.2323 1.05004 0
M  V30 2876 H 272.982 0.408403 4.02634 0
M  V30 2877 H 271.552 -0.149719 3.12241 0
M  V30 2878 H 270.772 2.33541 3.17573 0
M  V30 2879 H 272.06 2.62503 4.35855 0
M  V30 2880 H 271.458 -0.282241 5.64995 0
M  V30 2881 H 270.015 0.0592282 6.51773 0
M  V30 2882 N 273.449 -1.08991 1.13837 0
M  V30 2883 C 274.379 -2.17771 0.842507 0
M  V30 2884 C 275.36 -1.6892 -0.20001 0
M  V30 2885 O 276.545 -1.94113 -0.0579731 0
M  V30 2886 C 273.675 -3.4589 0.312644 0
M  V30 2887 C 272.629 -4.08099 1.28992 0
M  V30 2888 C 271.955 -5.31098 0.619623 0
M  V30 2889 C 273.255 -4.50077 2.65005 0
M  V30 2890 H 274.949 -2.42777 1.75213 0
M  V30 2891 H 272.495 -1.16682 0.843875 0
M  V30 2892 H 274.448 -4.21297 0.0933043 0
M  V30 2893 H 273.172 -3.20419 -0.632382 0
M  V30 2894 H 271.831 -3.34717 1.49533 0
M  V30 2895 H 271.479 -5.0191 -0.33102 0
M  V30 2896 H 271.179 -5.73674 1.27167 0
M  V30 2897 H 272.703 -6.09224 0.409669 0
M  V30 2898 H 274.117 -5.16688 2.48407 0
M  V30 2899 H 272.514 -5.03553 3.26427 0
M  V30 2900 H 273.584 -3.62257 3.22332 0
M  V30 2901 N 274.927 -0.932562 -1.27047 0
M  V30 2902 C 275.837 -0.441219 -2.30414 0
M  V30 2903 C 276.853 0.480525 -1.67233 0
M  V30 2904 O 278.029 0.362151 -1.98117 0
M  V30 2905 C 275.094 0.293651 -3.45454 0
M  V30 2906 C 274.155 -0.663601 -4.2414 0
M  V30 2907 C 273.388 0.0362932 -5.33688 0
M  V30 2908 O 273.611 1.2548 -5.56427 0
M  V30 2909 O 272.545 -0.638015 -5.98509 0
M  V30 2910 H 276.371 -1.29962 -2.74488 0
M  V30 2911 H 273.956 -0.6981 -1.32087 0
M  V30 2912 H 275.838 0.707951 -4.15411 0
M  V30 2913 H 274.513 1.12758 -3.03426 0
M  V30 2914 H 273.42 -1.12768 -3.56699 0
M  V30 2915 H 274.753 -1.46489 -4.69896 0
M  V30 2916 N 276.405 1.4127 -0.698611 0
M  V30 2917 C 277.821 1.55241 -0.370462 0
M  V30 2918 C 278.021 1.67351 1.12231 0
M  V30 2919 O 277.077 1.65363 1.90818 0
M  V30 2920 C 278.39 2.78997 -1.12165 0
M  V30 2921 C 279.938 2.92797 -1.1063 0
M  V30 2922 C 280.413 4.19445 -1.8393 0
M  V30 2923 N 281.904 4.26409 -1.80914 0
M  V30 2924 C 282.639 5.23271 -2.34467 0
M  V30 2925 N 282.135 6.26145 -2.96504 0
M  V30 2926 N 283.928 5.15232 -2.24706 0
M  V30 2927 H 276.079 1.31654 -1.66676 0
M  V30 2928 H 278.342 0.635393 -0.703548 0
M  V30 2929 H 278.048 2.76268 -2.17644 0
M  V30 2930 H 277.922 3.70606 -0.702209 0
M  V30 2931 H 280.309 2.95039 -0.0597713 0
M  V30 2932 H 280.39 2.02353 -1.56483 0
M  V30 2933 H 280.034 4.17964 -2.88563 0
M  V30 2934 H 279.964 5.08866 -1.35509 0
M  V30 2935 H 282.455 3.527 -1.35687 0
M  V30 2936 H 282.768 6.96451 -3.34927 0
M  V30 2937 H 281.113 6.26638 -3.00583 0
M  V30 2938 H 284.304 4.33789 -1.7591 0
M  V30 2939 H 284.477 5.90552 -2.66745 0
M  V30 2940 N 277.883 0.443576 1.51229 0
M  V30 2941 C 279.132 -0.122332 2.01329 0
M  V30 2942 C 279.445 -1.43237 1.33201 0
M  V30 2943 O 280.651 -2.0816 1.74304 0
M  V30 2944 C 279.107 -0.268551 3.58897 0
M  V30 2945 C 278.715 1.03142 4.35965 0
M  V30 2946 C 280.459 -0.787894 4.17124 0
M  V30 2947 C 278.366 0.850504 5.85252 0
M  V30 2948 H 277.296 -0.0494929 0.752374 0
M  V30 2949 H 279.947 0.574289 1.74282 0
M  V30 2950 H 278.329 -1.02832 3.82415 0
M  V30 2951 H 279.503 1.80001 4.24189 0
M  V30 2952 H 277.818 1.47977 3.89219 0
M  V30 2953 H 280.415 -0.939841 5.26375 0
M  V30 2954 H 280.758 -1.77201 3.76703 0
M  V30 2955 H 281.291 -0.0862669 3.97706 0
M  V30 2956 H 278.03 1.80718 6.30096 0
M  V30 2957 H 277.55 0.121825 5.99676 0
M  V30 2958 H 279.229 0.506163 6.45017 0
M  V30 2959 N 279.361 -1.56624 0.175154 0
M  V30 2960 C 280.324 -2.16934 -0.739738 0
M  V30 2961 C 281.324 -1.11842 -1.15533 0
M  V30 2962 O 282.514 -1.37335 -1.07167 0
M  V30 2963 C 279.646 -2.75531 -2.00738 0
M  V30 2964 H 280.839 -2.99131 -0.214639 0
M  V30 2965 H 278.392 -1.56123 -0.0744197 0
M  V30 2966 H 279.127 -1.97078 -2.57548 0
M  V30 2967 H 278.912 -3.52444 -1.71831 0
M  V30 2968 H 280.402 -3.21904 -2.66021 0
M  V30 2969 N 280.839 0.0985539 -1.57292 0
M  V30 2970 C 282.116 0.834155 -1.76921 0
M  V30 2971 C 282.496 1.97101 -0.755928 0
M  V30 2972 O 281.844 2.27474 0.216245 0
M  V30 2973 C 282.054 1.33194 -3.22584 0
M  V30 2974 C 283.402 1.77611 -3.85668 0
M  V30 2975 O 284.426 1.42825 -3.26312 0
M  V30 2976 O 283.285 2.4192 -4.90038 0
M  V30 2977 H 280.379 0.397628 -0.725135 0
M  V30 2978 H 282.925 0.0807044 -1.69508 0
M  V30 2979 H 281.697 0.517248 -3.87866 0
M  V30 2980 H 281.32 2.1475 -3.34616 0
M  V30 2981 N 282.317 1.53212 0.369288 0
M  V30 2982 C 283.542 1.73423 1.1375 0
M  V30 2983 C 283.967 0.460404 1.82378 0
M  V30 2984 O 283.325 -0.585298 1.71592 0
M  V30 2985 C 283.373 2.89769 2.1463 0
M  V30 2986 O 282.477 2.58119 3.21634 0
M  V30 2987 H 281.818 0.576061 0.330227 0
M  V30 2988 H 284.348 2.00083 0.427547 0
M  V30 2989 H 284.358 3.15829 2.58294 0
M  V30 2990 H 283.033 3.8217 1.64071 0
M  V30 2991 H 281.61 2.42864 2.82969 0
M  V30 2992 N 283.795 -0.628877 1.44509 0
M  V30 2993 C 284.742 -1.74074 1.51549 0
M  V30 2994 C 285.712 -1.62084 0.363021 0
M  V30 2995 O 286.897 -1.81975 0.573567 0
M  V30 2996 C 284.037 -3.12328 1.46784 0
M  V30 2997 C 283.15 -3.35277 2.72422 0
M  V30 2998 C 282.285 -4.63515 2.59475 0
M  V30 2999 C 281.324 -4.7965 3.80266 0
M  V30 3000 N 280.461 -5.99168 3.65981 0
M  V30 3001 H 285.301 -1.67392 2.46544 0
M  V30 3002 H 282.838 -0.816527 1.22357 0
M  V30 3003 H 284.796 -3.92286 1.42012 0
M  V30 3004 H 283.426 -3.18018 0.553544 0
M  V30 3005 H 282.478 -2.49242 2.87372 0
M  V30 3006 H 283.79 -3.43078 3.62076 0
M  V30 3007 H 282.944 -5.51638 2.52548 0
M  V30 3008 H 281.683 -4.58076 1.67384 0
M  V30 3009 H 280.688 -3.89957 3.87574 0
M  V30 3010 H 281.913 -4.86902 4.73395 0
M  V30 3011 H 279.859 -5.94814 2.76644 0
M  V30 3012 H 279.776 -6.08035 4.49254 0
M  V30 3013 H 281.044 -6.89846 3.6295 0
M  V30 3014 N 285.273 -1.31445 -0.869486 0
M  V30 3015 C 286.183 -1.21097 -2.0093 0
M  V30 3016 C 287.199 -0.127584 -1.73532 0
M  V30 3017 O 288.375 -0.345477 -1.98415 0
M  V30 3018 C 285.44 -0.919378 -3.34288 0
M  V30 3019 C 284.501 -2.08971 -3.75006 0
M  V30 3020 C 283.734 -1.81194 -5.02001 0
M  V30 3021 O 283.957 -0.747296 -5.65484 0
M  V30 3022 O 282.891 -2.66883 -5.39497 0
M  V30 3023 H 286.717 -2.16883 -2.12592 0
M  V30 3024 H 284.302 -1.11189 -0.997868 0
M  V30 3025 H 286.184 -0.772625 -4.14257 0
M  V30 3026 H 284.859 0.00844772 -3.23699 0
M  V30 3027 H 283.766 -2.29187 -2.95676 0
M  V30 3028 H 285.099 -2.9998 -3.90221 0
M  V30 3029 N 286.751 1.08385 -1.14413 0
M  V30 3030 C 287.683 2.1519 -0.789036 0
M  V30 3031 C 288.696 1.61638 0.19417 0
M  V30 3032 O 289.885 1.78479 -0.0275711 0
M  V30 3033 C 286.985 3.38565 -0.15058 0
M  V30 3034 C 286.158 4.21501 -1.16857 0
M  V30 3035 C 285.217 5.23277 -0.553832 0
M  V30 3036 O 284.243 5.56041 -1.21686 0
M  V30 3037 N 285.445 5.76629 0.669296 0
M  V30 3038 H 288.21 2.46257 -1.70814 0
M  V30 3039 H 285.771 1.24198 -1.03858 0
M  V30 3040 H 287.763 4.03777 0.273181 0
M  V30 3041 H 286.333 3.05299 0.671667 0
M  V30 3042 H 285.553 3.52265 -1.76926 0
M  V30 3043 H 286.841 4.73731 -1.85624 0
M  V30 3044 H 286.239 5.52243 1.22654 0
M  V30 3045 H 284.796 6.43521 1.03556 0
M  V30 3046 N 288.23 0.939286 1.26551 0
M  V30 3047 C 289.476 0.586715 1.94128 0
M  V30 3048 C 289.809 -0.8717 1.73537 0
M  V30 3049 O 289.084 -1.62339 1.07127 0
M  V30 3050 C 289.367 0.927497 3.4795 0
M  V30 3051 C 289.22 2.44052 3.77834 0
M  V30 3052 C 290.539 0.441569 4.37879 0
M  V30 3053 H 287.658 0.21463 0.705055 0
M  V30 3054 H 290.3 1.17316 1.49455 0
M  V30 3055 H 288.45 0.428431 3.8613 0
M  V30 3056 H 290.122 3.01216 3.4938 0
M  V30 3057 H 288.365 2.8848 3.23978 0
M  V30 3058 H 289.036 2.62947 4.85348 0
M  V30 3059 H 291.512 0.869448 4.06915 0
M  V30 3060 H 290.388 0.708856 5.44304 0
M  V30 3061 H 290.649 -0.658467 4.37169 0
M  V30 3062 N 289.708 -1.40897 0.706093 0
M  V30 3063 C 290.955 -2.01054 0.241531 0
M  V30 3064 C 291.283 -1.55956 -1.16223 0
M  V30 3065 O 290.538 -0.766336 -1.80072 0
M  V30 3066 C 290.837 -3.5646 0.259099 0
M  V30 3067 C 290.503 -4.21106 1.61184 0
M  V30 3068 C 289.165 -4.38479 1.98216 0
M  V30 3069 C 291.517 -4.57256 2.50132 0
M  V30 3070 C 288.845 -4.89282 3.2376 0
M  V30 3071 C 291.197 -5.09454 3.7502 0
M  V30 3072 C 289.861 -5.25037 4.12181 0
M  V30 3073 H 289.131 -0.73571 0.0883825 0
M  V30 3074 H 291.778 -1.68645 0.907257 0
M  V30 3075 H 290.083 -3.88721 -0.490189 0
M  V30 3076 H 291.78 -4.00826 -0.11804 0
M  V30 3077 H 288.37 -4.07966 1.31384 0
M  V30 3078 H 292.554 -4.43479 2.228 0
M  V30 3079 H 287.81 -4.99531 3.52532 0
M  V30 3080 H 291.984 -5.36404 4.44121 0
M  V30 3081 H 289.611 -5.64164 5.09532 0
M  V30 3082 N 291.186 -0.45159 -1.50991 0
M  V30 3083 C 292.597 0.00818571 -1.86698 0
M  V30 3084 C 292.948 1.40661 -1.3678 0
M  V30 3085 O 292.073 2.0391 -0.724546 0
M  V30 3086 C 292.668 0.0216303 -3.38793 0
M  V30 3087 C 291.227 0.425865 -3.73983 0
M  V30 3088 C 290.374 -0.372163 -2.74791 0
M  V30 3089 H 293.325 -0.666785 -1.44013 0
M  V30 3090 H 293.346 0.828078 -3.7138 0
M  V30 3091 H 292.858 -0.996288 -3.75094 0
M  V30 3092 H 290.959 1.44886 -3.43277 0
M  V30 3093 H 291.072 0.140761 -4.78893 0
M  V30 3094 H 289.436 0.171498 -2.54122 0
M  V30 3095 H 290.219 -1.38922 -3.13935 0
M  V30 3096 N 292.664 1.56529 -0.183458 0
M  V30 3097 C 293.91 1.97537 0.459036 0
M  V30 3098 C 294.243 1.06989 1.62071 0
M  V30 3099 O 293.518 0.11948 1.94133 0
M  V30 3100 C 293.801 3.47874 0.930368 0
M  V30 3101 C 293.654 4.492 -0.232317 0
M  V30 3102 C 294.973 4.01612 1.79989 0
M  V30 3103 H 292.092 0.718204 0.165383 0
M  V30 3104 H 294.734 1.88042 -0.272038 0
M  V30 3105 H 292.884 3.56095 1.55333 0
M  V30 3106 H 294.556 4.53027 -0.86972 0
M  V30 3107 H 292.799 4.24657 -0.885928 0
M  V30 3108 H 293.47 5.51823 0.139796 0
M  V30 3109 H 295.946 3.96097 1.27461 0
M  V30 3110 H 294.822 5.07195 2.09867 0
M  V30 3111 H 295.083 3.46163 2.74998 0
M  V30 3112 N 294.142 -0.090211 1.57342 0
M  V30 3113 C 295.089 -1.10909 2.02405 0
M  V30 3114 C 296.059 -1.39523 0.901252 0
M  V30 3115 O 297.244 -1.50903 1.1676 0
M  V30 3116 C 294.384 -2.42277 2.45755 0
M  V30 3117 C 293.497 -2.20352 3.71576 0
M  V30 3118 C 292.632 -3.45154 4.03785 0
M  V30 3119 C 291.671 -3.18512 5.22701 0
M  V30 3120 N 290.808 -4.35593 5.50639 0
M  V30 3121 H 295.648 -0.71782 2.89225 0
M  V30 3122 H 293.185 -0.342901 1.43048 0
M  V30 3123 H 295.143 -3.18951 2.68935 0
M  V30 3124 H 293.773 -2.79242 1.61938 0
M  V30 3125 H 292.825 -1.34458 3.55844 0
M  V30 3126 H 294.137 -1.96661 4.58395 0
M  V30 3127 H 293.291 -4.30233 4.27767 0
M  V30 3128 H 292.03 -3.71904 3.15498 0
M  V30 3129 H 291.035 -2.31827 4.98534 0
M  V30 3130 H 292.26 -2.93103 6.12591 0
M  V30 3131 H 290.206 -4.6241 4.6531 0
M  V30 3132 H 290.123 -4.1511 6.31838 0
M  V30 3133 H 291.391 -5.21723 5.7916 0
M  V30 3134 N 295.62 -1.53406 -0.361157 0
M  V30 3135 C 296.868 -1.69467 -1.10115 0
M  V30 3136 C 297.189 -0.451352 -1.89705 0
M  V30 3137 O 296.459 0.534636 -1.88463 0
M  V30 3138 H 295.039 -0.624749 -0.409508 0
M  V30 3139 H 297.701 -1.90609 -0.406699 0
M  V30 3140 H 296.797 -2.55774 -1.78847 0
M  V30 3141 N 297.098 0.621204 -1.44841 0
M  V30 3142 C 298.346 1.37783 -1.47852 0
M  V30 3143 C 298.667 1.94653 -0.116224 0
M  V30 3144 O 297.937 1.76367 0.852737 0
M  V30 3145 H 296.517 0.511453 -0.544449 0
M  V30 3146 H 299.179 0.730446 -1.80694 0
M  V30 3147 H 298.275 2.20414 -2.20961 0
M  V30 3148 N 298.576 1.31904 0.862503 0
M  V30 3149 C 299.823 1.22017 1.61611 0
M  V30 3150 C 300.151 -0.21991 1.93253 0
M  V30 3151 O 299.406 -1.17076 1.56817 0
M  V30 3152 C 299.705 2.01713 2.95037 0
M  V30 3153 C 299.371 3.51145 2.82857 0
M  V30 3154 C 298.033 3.91889 2.79243 0
M  V30 3155 C 300.385 4.46204 2.69353 0
M  V30 3156 C 297.713 5.25947 2.59993 0
M  V30 3157 C 300.065 5.80397 2.5164 0
M  V30 3158 C 298.729 6.20352 2.46413 0
M  V30 3159 H 297.999 0.44649 0.591378 0
M  V30 3160 H 300.646 1.63248 1.00111 0
M  V30 3161 H 298.951 1.53185 3.60613 0
M  V30 3162 H 300.648 1.91437 3.52353 0
M  V30 3163 H 297.238 3.1878 2.86491 0
M  V30 3164 H 301.422 4.15652 2.71196 0
M  V30 3165 H 296.678 5.5597 2.54376 0
M  V30 3166 H 300.852 6.53676 2.40169 0
M  V30 3167 H 298.479 7.24172 2.31256 0
M  V30 3168 N 300.054 -1.07777 1.14986 0
M  V30 3169 C 300.986 -2.14769 0.800436 0
M  V30 3170 C 301.999 -1.61739 -0.185595 0
M  V30 3171 O 303.188 -1.78462 0.0370358 0
M  V30 3172 C 300.288 -3.38481 0.168533 0
M  V30 3173 C 299.461 -4.20876 1.1909 0
M  V30 3174 C 298.52 -5.22976 0.581575 0
M  V30 3175 O 297.546 -5.55388 1.24633 0
M  V30 3176 N 298.748 -5.76976 -0.638706 0
M  V30 3177 H 301.513 -2.45348 1.72118 0
M  V30 3178 H 299.074 -1.23645 1.04515 0
M  V30 3179 H 301.066 -4.03916 -0.251764 0
M  V30 3180 H 299.636 -3.05651 -0.655467 0
M  V30 3181 H 298.856 -3.51322 1.78791 0
M  V30 3182 H 300.144 -4.7274 1.88133 0
M  V30 3183 H 299.542 -5.52886 -1.19723 0
M  V30 3184 H 298.099 -6.44061 -1.00142 0
M  V30 3185 N 301.532 -0.945985 -1.26051 0
M  V30 3186 C 302.495 -0.463897 -2.24456 0
M  V30 3187 C 303.495 0.427655 -1.55009 0
M  V30 3188 O 304.685 0.226157 -1.72726 0
M  V30 3189 C 301.817 0.330812 -3.39291 0
M  V30 3190 H 303.01 -1.33357 -2.68619 0
M  V30 3191 H 300.563 -0.728416 -1.38289 0
M  V30 3192 H 301.298 1.21852 -3.00537 0
M  V30 3193 H 301.083 -0.308679 -3.90883 0
M  V30 3194 H 302.573 0.657865 -4.12386 0
M  V30 3195 N 303.011 1.40521 -0.713556 0
M  V30 3196 C 303.941 2.33381 -0.0743864 0
M  V30 3197 C 304.922 1.52784 0.747735 0
M  V30 3198 O 306.107 1.81258 0.697071 0
M  V30 3199 C 303.237 3.36748 0.849598 0
M  V30 3200 C 302.191 4.27793 0.133247 0
M  V30 3201 C 301.517 5.21679 1.17281 0
M  V30 3202 C 302.817 5.12415 -1.01134 0
M  V30 3203 H 304.511 2.87081 -0.850007 0
M  V30 3204 H 302.057 1.38034 -0.410201 0
M  V30 3205 H 304.01 4.00648 1.30612 0
M  V30 3206 H 302.734 2.81439 1.65709 0
M  V30 3207 H 301.393 3.65342 -0.303426 0
M  V30 3208 H 301.041 4.62677 1.9733 0
M  V30 3209 H 300.741 5.83435 0.698397 0
M  V30 3210 H 302.265 5.88456 1.62947 0
M  V30 3211 H 303.679 5.69781 -0.634274 0
M  V30 3212 H 302.076 5.83203 -1.41399 0
M  V30 3213 H 303.146 4.48514 -1.84292 0
M  V30 3214 N 304.489 0.459591 1.5075 0
M  V30 3215 C 305.436 -0.340524 2.28274 0
M  V30 3216 C 306.406 -0.997371 1.32822 0
M  V30 3217 O 307.591 -1.01202 1.61749 0
M  V30 3218 C 304.731 -1.42317 3.14388 0
M  V30 3219 C 303.844 -0.782251 4.24859 0
M  V30 3220 C 302.979 -1.84182 4.98247 0
M  V30 3221 C 302.018 -1.18053 6.00608 0
M  V30 3222 N 301.155 -2.18244 6.67319 0
M  V30 3223 H 305.995 0.326899 2.96202 0
M  V30 3224 H 303.532 0.173057 1.46078 0
M  V30 3225 H 305.49 -2.06241 3.62658 0
M  V30 3226 H 304.12 -2.05992 2.4853 0
M  V30 3227 H 303.172 -0.0307404 3.80388 0
M  V30 3228 H 304.484 -0.259663 4.98124 0
M  V30 3229 H 303.638 -2.55714 5.50177 0
M  V30 3230 H 302.377 -2.39819 4.24662 0
M  V30 3231 H 301.382 -0.450776 5.47949 0
M  V30 3232 H 302.607 -0.631202 6.7616 0
M  V30 3233 H 300.553 -2.72919 5.96533 0
M  V30 3234 H 300.47 -1.70938 7.36421 0
M  V30 3235 H 301.738 -2.89191 7.23871 0
M  V30 3236 N 305.967 -1.56429 0.191757 0
M  V30 3237 C 307.215 -1.97095 -0.447006 0
M  V30 3238 C 307.536 -1.07967 -1.62383 0
M  V30 3239 O 306.806 -0.150248 -1.95323 0
M  V30 3240 H 305.386 -0.727832 -0.168135 0
M  V30 3241 H 308.048 -1.92911 0.27771 0
M  V30 3242 H 307.144 -3.01848 -0.793371 0
M  V30 3243 N 307.445 0.0818655 -1.57387 0
M  V30 3244 C 308.694 0.781681 -1.85937 0
M  V30 3245 C 309.007 1.79246 -0.782957 0
M  V30 3246 O 310.213 2.54112 -0.955987 0
M  V30 3247 C 308.669 1.44109 -3.29789 0
M  V30 3248 C 308.277 0.469396 -4.45534 0
M  V30 3249 C 310.021 2.12386 -3.67549 0
M  V30 3250 C 307.928 1.13415 -5.80423 0
M  V30 3251 H 306.858 0.295682 -0.693605 0
M  V30 3252 H 309.509 0.0348051 -1.83467 0
M  V30 3253 H 307.891 2.23588 -3.2684 0
M  V30 3254 H 309.065 -0.294856 -4.59856 0
M  V30 3255 H 307.38 -0.108383 -4.16259 0
M  V30 3256 H 309.977 2.62878 -4.65617 0
M  V30 3257 H 310.32 2.91877 -2.96839 0
M  V30 3258 H 310.853 1.39751 -3.72444 0
M  V30 3259 H 307.592 0.379771 -6.54399 0
M  V30 3260 H 307.112 1.8695 -5.69921 0
M  V30 3261 H 308.791 1.65686 -6.25426 0
M  V30 3262 N 308.923 1.53595 0.353017 0
M  V30 3263 C 310.172 1.69603 1.09168 0
M  V30 3264 C 310.485 0.460925 1.90092 0
M  V30 3265 O 311.691 0.501774 2.66823 0
M  V30 3266 C 310.147 2.99872 1.9901 0
M  V30 3267 C 309.755 4.30687 1.23339 0
M  V30 3268 C 311.499 3.25246 2.72792 0
M  V30 3269 C 309.406 5.52036 2.12156 0
M  V30 3270 H 308.336 0.631966 0.411261 0
M  V30 3271 H 310.987 1.80096 0.351802 0
M  V30 3272 H 309.369 2.83212 2.7678 0
M  V30 3273 H 310.543 4.58019 0.505456 0
M  V30 3274 H 308.858 4.11853 0.613663 0
M  V30 3275 H 311.455 4.13095 3.39495 0
M  V30 3276 H 311.798 2.41846 3.38846 0
M  V30 3277 H 312.331 3.42638 2.021 0
M  V30 3278 H 309.07 6.37951 1.50659 0
M  V30 3279 H 308.59 5.28966 2.82764 0
M  V30 3280 H 310.269 5.87313 2.71427 0
M  V30 3281 N 310.401 -0.613514 1.45168 0
M  V30 3282 C 311.349 -1.74572 1.53712 0
M  V30 3283 C 312.343 -1.64426 0.407505 0
M  V30 3284 O 313.549 -1.70291 0.583176 0
M  V30 3285 H 309.924 -0.576641 0.48269 0
M  V30 3286 H 311.895 -1.64492 2.48968 0
M  V30 3287 C 310.644 -3.12943 1.51532 0
M  V30 3288 H 309.967 -3.21407 2.37776 0
M  V30 3289 H 311.407 -3.9201 1.61569 0
M  V30 3290 C 309.866 -3.36053 0.238798 0
M  V30 3291 O 310.396 -3.95837 -0.6838 0
M  V30 3292 N 308.602 -2.9028 0.136359 0
M  V30 3293 H 308.149 -2.41811 0.887999 0
M  V30 3294 H 308.107 -3.06116 -0.716944 0
M  V30 3295 N 311.879 -1.3236 -0.855495 0
M  V30 3296 C 313.104 -1.2601 -1.64731 0
M  V30 3297 C 313.529 0.169068 -1.87339 0
M  V30 3298 O 312.887 1.12016 -1.42556 0
M  V30 3299 C 312.935 -2.02417 -2.98429 0
M  V30 3300 O 312.039 -1.3714 -3.8893 0
M  V30 3301 H 311.38 -0.434325 -0.502253 0
M  V30 3302 H 313.91 -1.74661 -1.06558 0
M  V30 3303 H 313.92 -2.12559 -3.48257 0
M  V30 3304 H 312.595 -3.06343 -2.81295 0
M  V30 3305 H 311.172 -1.3554 -3.47395 0
M  V30 3306 N 313.357 1.07166 -1.15556 0
M  V30 3307 C 314.606 1.79181 -0.926132 0
M  V30 3308 C 314.919 1.87768 0.547967 0
M  V30 3309 O 316.125 2.56323 0.895036 0
M  V30 3310 C 314.581 3.22 -1.60761 0
M  V30 3311 C 314.189 3.21607 -3.11886 0
M  V30 3312 C 315.933 3.9861 -1.4598 0
M  V30 3313 C 313.84 4.59092 -3.72812 0
M  V30 3314 H 312.77 0.67154 -0.342856 0
M  V30 3315 H 315.421 1.2027 -1.3859 0
M  V30 3316 H 313.803 3.81115 -1.07553 0
M  V30 3317 H 314.977 2.72127 -3.71865 0
M  V30 3318 H 313.292 2.58495 -3.2645 0
M  V30 3319 H 315.889 5.00225 -1.88888 0
M  V30 3320 H 316.232 4.143 -0.407541 0
M  V30 3321 H 316.765 3.45996 -1.96295 0
M  V30 3322 H 313.504 4.48606 -4.77946 0
M  V30 3323 H 313.024 5.08803 -3.17616 0
M  V30 3324 H 314.703 5.28059 -3.73848 0
M  V30 3325 N 314.835 0.952656 1.25548 0
M  V30 3326 C 315.765 0.489287 2.28316 0
M  V30 3327 C 316.746 -0.463359 1.63667 0
M  V30 3328 O 317.931 -0.36274 1.90782 0
M  V30 3329 C 315.061 -0.235603 3.465 0
M  V30 3330 C 314.015 0.631593 4.23314 0
M  V30 3331 C 313.341 -0.223923 5.34231 0
M  V30 3332 C 314.641 1.90871 4.86174 0
M  V30 3333 H 316.335 1.34822 2.67326 0
M  V30 3334 H 313.881 0.649728 1.28509 0
M  V30 3335 H 315.834 -0.570882 4.17515 0
M  V30 3336 H 314.558 -1.12877 3.06474 0
M  V30 3337 H 313.217 0.949929 3.54079 0
M  V30 3338 H 312.865 -1.11678 4.90446 0
M  V30 3339 H 312.565 0.35299 5.86539 0
M  V30 3340 H 314.089 -0.554214 6.0808 0
M  V30 3341 H 315.503 1.63997 5.49343 0
M  V30 3342 H 313.9 2.43112 5.4865 0
M  V30 3343 H 314.97 2.61304 4.08471 0
M  V30 3344 N 316.313 -1.40141 0.720998 0
M  V30 3345 C 317.276 -2.29058 0.0805834 0
M  V30 3346 C 318.276 -1.45632 -0.681758 0
M  V30 3347 O 319.466 -1.6648 -0.512856 0
M  V30 3348 C 316.598 -3.28925 -0.895593 0
M  V30 3349 H 317.791 -2.87191 0.863793 0
M  V30 3350 H 315.344 -1.48553 0.485975 0
M  V30 3351 H 316.079 -2.75822 -1.70566 0
M  V30 3352 H 315.864 -3.90519 -0.351766 0
M  V30 3353 H 317.354 -3.95494 -1.34069 0
M  V30 3354 N 317.792 -0.46758 -1.50504 0
M  V30 3355 C 318.724 0.364655 -2.26281 0
M  V30 3356 C 319.737 0.960151 -1.31472 0
M  V30 3357 O 320.926 0.849153 -1.57008 0
M  V30 3358 C 318.026 1.52509 -3.02645 0
M  V30 3359 C 317.199 1.04302 -4.24782 0
M  V30 3360 C 316.258 2.07709 -4.8347 0
M  V30 3361 O 315.284 1.65913 -5.44483 0
M  V30 3362 N 316.486 3.40485 -4.70159 0
M  V30 3363 H 319.251 -0.28495 -2.98342 0
M  V30 3364 H 316.812 -0.298163 -1.59131 0
M  V30 3365 H 318.804 2.21371 -3.38787 0
M  V30 3366 H 317.374 2.07945 -2.33404 0
M  V30 3367 H 316.594 0.180393 -3.93787 0
M  V30 3368 H 317.882 0.698798 -5.03978 0
M  V30 3369 H 317.28 3.77155 -4.21629 0
M  V30 3370 H 315.837 4.05156 -5.1058 0
M  V30 3371 N 319.27 1.56325 -0.20005 0
M  V30 3372 C 320.495 2.02548 0.44597 0
M  V30 3373 C 320.92 1.07922 1.5406 0
M  V30 3374 O 320.278 0.0635775 1.81188 0
M  V30 3375 C 320.326 3.47175 0.974761 0
M  V30 3376 O 319.43 3.55671 2.08739 0
M  V30 3377 H 318.771 0.655862 0.103638 0
M  V30 3378 H 321.301 2.02201 -0.312381 0
M  V30 3379 H 321.311 3.87067 1.2901 0
M  V30 3380 H 319.986 4.15538 0.17347 0
M  V30 3381 H 318.563 3.27657 1.78032 0
M  V30 3382 N 320.748 -0.0735177 1.57428 0
M  V30 3383 C 321.988 -0.778363 1.89 0
M  V30 3384 C 322.352 -1.7483 0.793634 0
M  V30 3385 O 323.553 -2.49811 0.992367 0
M  V30 3386 C 321.824 -1.46929 3.25802 0
M  V30 3387 S 323.383 -2.20943 3.79117 0
M  V30 3388 H 320.201 -0.258874 0.662197 0
M  V30 3389 H 322.803 -0.0345338 1.95469 0
M  V30 3390 H 321.507 -0.749532 4.03497 0
M  V30 3391 H 321.038 -2.25258 3.22525 0
M  V30 3392 H 323.053 -3.47435 3.54265 0
M  V30 3393 N 322.226 -1.5378 -0.344866 0
M  V30 3394 C 323.454 -1.74899 -1.10534 0
M  V30 3395 C 323.869 -0.487534 -1.82397 0
M  V30 3396 O 323.226 0.540741 -1.74305 0
M  V30 3397 C 323.277 -2.92822 -2.11984 0
M  V30 3398 O 322.998 -4.14089 -1.43044 0
M  V30 3399 C 324.499 -3.25982 -3.00417 0
M  V30 3400 H 321.719 -0.584426 -0.329678 0
M  V30 3401 H 324.263 -2.006 -0.397474 0
M  V30 3402 H 322.418 -2.69457 -2.78338 0
M  V30 3403 H 322.832 -4.80272 -2.10805 0
M  V30 3404 H 324.306 -4.11848 -3.67539 0
M  V30 3405 H 324.783 -2.42228 -3.66363 0
M  V30 3406 H 325.389 -3.51349 -2.39654 0
M  V30 3407 N 323.704 0.605807 -1.45491 0
M  V30 3408 C 324.614 1.74466 -1.56839 0
M  V30 3409 C 325.63 1.68006 -0.452772 0
M  V30 3410 O 326.806 1.8833 -0.713708 0
M  V30 3411 C 323.871 3.10931 -1.53371 0
M  V30 3412 C 322.932 3.28832 -2.75986 0
M  V30 3413 C 322.165 4.58787 -2.72673 0
M  V30 3414 O 322.388 5.4122 -1.80102 0
M  V30 3415 O 321.322 4.79438 -3.63899 0
M  V30 3416 H 325.148 1.67843 -2.53106 0
M  V30 3417 H 322.733 0.770108 -1.28022 0
M  V30 3418 H 324.615 3.92233 -1.54051 0
M  V30 3419 H 323.29 3.18042 -0.602572 0
M  V30 3420 H 322.197 2.47112 -2.80867 0
M  V30 3421 H 323.53 3.26599 -3.68231 0
M  V30 3422 N 325.182 1.32811 0.848464 0
M  V30 3423 C 326.431 1.23075 1.59798 0
M  V30 3424 C 326.744 -0.204419 1.94529 0
M  V30 3425 O 327.95 -0.423701 2.68173 0
M  V30 3426 C 326.406 2.15594 2.88179 0
M  V30 3427 C 326.014 3.64228 2.60849 0
M  V30 3428 C 327.758 2.14709 3.66197 0
M  V30 3429 C 325.665 4.48689 3.85269 0
M  V30 3430 H 324.595 0.457091 0.599653 0
M  V30 3431 H 327.246 1.57813 0.936342 0
M  V30 3432 H 325.628 1.73778 3.55833 0
M  V30 3433 H 326.802 4.14424 2.01467 0
M  V30 3434 H 325.117 3.67306 1.96151 0
M  V30 3435 H 327.714 2.75046 4.58534 0
M  V30 3436 H 328.057 1.13966 4.00397 0
M  V30 3437 H 328.59 2.54837 3.05455 0
M  V30 3438 H 325.329 5.5027 3.56207 0
M  V30 3439 H 324.849 4.03241 4.44024 0
M  V30 3440 H 326.528 4.62006 4.52946 0
M  V30 3441 N 326.66 -1.06551 1.16123 0
M  V30 3442 C 327.59 -2.15935 0.88851 0
M  V30 3443 C 328.571 -1.69306 -0.164135 0
M  V30 3444 O 329.756 -1.94193 -0.0167857 0
M  V30 3445 C 326.886 -3.45149 0.385942 0
M  V30 3446 C 325.84 -4.05271 1.3762 0
M  V30 3447 C 325.166 -5.29664 0.732137 0
M  V30 3448 C 326.466 -4.44355 2.74493 0
M  V30 3449 H 328.16 -2.39006 1.80323 0
M  V30 3450 H 325.706 -1.14866 0.868435 0
M  V30 3451 H 327.659 -4.21004 0.182647 0
M  V30 3452 H 326.383 -3.21689 -0.564274 0
M  V30 3453 H 325.042 -3.3147 1.56599 0
M  V30 3454 H 324.69 -5.02499 -0.224483 0
M  V30 3455 H 324.39 -5.70848 1.39307 0
M  V30 3456 H 325.914 -6.08218 0.538802 0
M  V30 3457 H 327.328 -5.11303 2.59311 0
M  V30 3458 H 325.725 -4.96515 3.37035 0
M  V30 3459 H 326.795 -3.55339 3.29943 0
M  V30 3460 N 328.138 -0.959301 -1.25041 0
M  V30 3461 C 329.048 -0.489994 -2.29426 0
M  V30 3462 C 330.064 0.444944 -1.68215 0
M  V30 3463 O 331.24 0.320046 -1.98841 0
M  V30 3464 C 328.305 0.220309 -3.45999 0
M  V30 3465 C 327.366 -0.753418 -4.22637 0
M  V30 3466 C 326.599 -0.076918 -5.33645 0
M  V30 3467 O 326.822 1.13649 -5.58963 0
M  V30 3468 O 325.756 -0.764824 -5.97021 0
M  V30 3469 H 329.582 -1.35755 -2.71669 0
M  V30 3470 H 327.167 -0.725961 -1.30576 0
M  V30 3471 H 329.049 0.619677 -4.16819 0
M  V30 3472 H 327.724 1.06296 -3.0575 0
M  V30 3473 H 326.631 -1.20308 -3.54227 0
M  V30 3474 H 327.964 -1.56423 -4.66683 0
M  V30 3475 N 329.616 1.39756 -0.72842 0
M  V30 3476 C 330.546 2.33289 -0.0991354 0
M  V30 3477 C 331.527 1.53568 0.731489 0
M  V30 3478 O 332.712 1.81987 0.677807 0
M  V30 3479 C 329.842 3.3763 0.813834 0
M  V30 3480 C 328.796 4.2791 0.0878663 0
M  V30 3481 C 328.122 5.22894 1.11741 0
M  V30 3482 C 329.422 5.11314 -1.06563 0
M  V30 3483 H 331.116 2.86163 -0.880408 0
M  V30 3484 H 328.662 1.37591 -0.424819 0
M  V30 3485 H 330.615 4.0201 1.26355 0
M  V30 3486 H 329.339 2.83181 1.62715 0
M  V30 3487 H 327.998 3.65 -0.342159 0
M  V30 3488 H 327.646 4.64744 1.92412 0
M  V30 3489 H 327.346 5.84143 0.636477 0
M  V30 3490 H 328.87 5.90151 1.56697 0
M  V30 3491 H 330.284 5.69076 -0.694671 0
M  V30 3492 H 328.681 5.81671 -1.47577 0
M  V30 3493 H 329.751 4.46534 -1.89038 0
M  V30 3494 N 331.094 0.475555 1.50254 0
M  V30 3495 C 332.026 -0.352649 2.26471 0
M  V30 3496 C 333.039 -0.953165 1.3198 0
M  V30 3497 O 334.228 -0.840815 1.57457 0
M  V30 3498 C 331.328 -1.50902 3.0345 0
M  V30 3499 C 330.501 -1.02047 4.25329 0
M  V30 3500 C 329.56 -2.05142 4.84565 0
M  V30 3501 O 328.586 -1.63023 5.45355 0
M  V30 3502 N 329.788 -3.37987 4.71959 0
M  V30 3503 H 332.553 0.300767 2.98187 0
M  V30 3504 H 330.114 0.306598 1.5897 0
M  V30 3505 H 332.106 -2.19572 3.39956 0
M  V30 3506 H 330.676 -2.06705 2.34504 0
M  V30 3507 H 329.896 -0.159507 3.93877 0
M  V30 3508 H 331.184 -0.672061 5.04342 0
M  V30 3509 H 330.582 -3.74913 4.23623 0
M  V30 3510 H 329.139 -4.02443 5.12721 0
M  V30 3511 N 332.573 -1.56217 0.208337 0
M  V30 3512 C 333.984 -1.84243 -0.301904 0
M  V30 3513 C 334.335 -1.12939 -1.60434 0
M  V30 3514 O 333.46 -0.39461 -2.12772 0
M  V30 3515 C 334.055 -3.34231 -0.554543 0
M  V30 3516 C 332.614 -3.62621 -1.00912 0
M  V30 3517 C 331.761 -2.77224 -0.064933 0
M  V30 3518 H 334.712 -1.52712 0.431833 0
M  V30 3519 H 334.733 -3.5372 -1.40223 0
M  V30 3520 H 334.245 -3.86099 0.393561 0
M  V30 3521 H 332.346 -3.16197 -1.97104 0
M  V30 3522 H 332.459 -4.7071 -0.892674 0
M  V30 3523 H 330.823 -2.48256 -0.56929 0
M  V30 3524 H 331.606 -3.31887 0.877851 0
M  V30 3525 N 334.051 0.0651679 -1.57465 0
M  V30 3526 C 335.276 0.779605 -1.9219 0
M  V30 3527 C 335.701 1.69988 -0.805333 0
M  V30 3528 O 335.059 1.79685 0.241435 0
M  V30 3529 C 335.107 1.54364 -3.2589 0
M  V30 3530 O 334.211 2.65474 -3.1559 0
M  V30 3531 H 333.552 0.212249 -0.629163 0
M  V30 3532 H 336.082 0.0314294 -2.04576 0
M  V30 3533 H 336.092 1.92146 -3.59922 0
M  V30 3534 H 334.767 0.868457 -4.06732 0
M  V30 3535 H 333.344 2.30501 -2.93128 0
M  V30 3536 N 335.529 1.53961 0.336706 0
M  V30 3537 C 336.754 1.75797 1.10046 0
M  V30 3538 C 337.179 0.498985 1.81361 0
M  V30 3539 O 336.537 -0.548769 1.72795 0
M  V30 3540 C 336.585 2.94257 2.08436 0
M  V30 3541 O 335.689 2.64883 3.16087 0
M  V30 3542 H 335.03 0.582936 0.317934 0
M  V30 3543 H 337.56 2.00945 0.38501 0
M  V30 3544 H 337.57 3.21237 2.51537 0
M  V30 3545 H 336.245 3.85564 1.55927 0
M  V30 3546 H 334.822 2.48812 2.77753 0
M  V30 3547 N 337.007 -0.598083 1.45811 0
M  V30 3548 C 338.253 -1.35882 1.50545 0
M  V30 3549 C 338.586 -1.93616 0.150445 0
M  V30 3550 O 337.861 -1.75604 -0.83628 0
M  V30 3551 C 338.144 -2.49966 2.59208 0
M  V30 3552 C 337.997 -1.97367 4.04186 0
M  V30 3553 C 339.316 -3.52068 2.64076 0
M  V30 3554 H 336.435 -0.492717 0.548087 0
M  V30 3555 H 339.077 -0.673319 1.77669 0
M  V30 3556 H 337.227 -3.08443 2.3621 0
M  V30 3557 H 338.899 -1.43466 4.38423 0
M  V30 3558 H 337.142 -1.283 4.14393 0
M  V30 3559 H 337.813 -2.79649 4.75921 0
M  V30 3560 H 340.289 -3.03448 2.84708 0
M  V30 3561 H 339.165 -4.2937 3.41954 0
M  V30 3562 H 339.426 -4.08304 1.69531 0
M  V30 3563 N 338.485 -1.33259 -0.841409 0
M  V30 3564 C 339.725 -1.25902 -1.61022 0
M  V30 3565 C 340.089 0.173325 -1.91216 0
M  V30 3566 O 341.29 0.370824 -2.6623 0
M  V30 3567 C 339.561 -2.10735 -2.88662 0
M  V30 3568 S 341.12 -2.20541 -3.79351 0
M  V30 3569 H 337.938 -0.447958 -0.552137 0
M  V30 3570 H 340.54 -1.68263 -0.995382 0
M  V30 3571 H 339.244 -3.1384 -2.64448 0
M  V30 3572 H 338.775 -1.69201 -3.55154 0
M  V30 3573 H 340.79 -1.36462 -4.77067 0
M  V30 3574 N 339.963 1.05934 -1.16686 0
M  V30 3575 C 341.209 1.79065 -0.95203 0
M  V30 3576 C 341.542 1.87147 0.518629 0
M  V30 3577 O 340.817 1.36574 1.38484 0
M  V30 3578 C 341.1 3.23359 -1.58464 0
M  V30 3579 C 340.953 3.23336 -3.12689 0
M  V30 3580 C 342.272 4.21004 -1.28232 0
M  V30 3581 H 339.391 0.65005 -0.34728 0
M  V30 3582 H 342.033 1.23868 -1.44072 0
M  V30 3583 H 340.183 3.70493 -1.16908 0
M  V30 3584 H 341.855 2.84336 -3.6325 0
M  V30 3585 H 340.098 2.61886 -3.4583 0
M  V30 3586 H 340.769 4.25144 -3.52075 0
M  V30 3587 H 343.245 3.8233 -1.64203 0
M  V30 3588 H 342.121 5.20225 -1.75092 0
M  V30 3589 H 342.382 4.41639 -0.201791 0
M  V30 3590 N 341.441 0.965919 1.2453 0
M  V30 3591 C 342.689 0.625593 1.92174 0
M  V30 3592 C 343.01 -0.841652 1.75901 0
M  V30 3593 O 342.28 -1.60061 1.12948 0
M  V30 3594 H 340.86 0.228388 0.71123 0
M  V30 3595 H 343.522 1.2266 1.51461 0
M  V30 3596 H 342.618 0.864653 2.99884 0
M  V30 3597 N 342.919 -1.39368 0.735821 0
M  V30 3598 C 343.829 -2.34395 0.0979693 0
M  V30 3599 C 344.845 -1.58361 -0.720968 0
M  V30 3600 O 346.021 -1.90648 -0.649245 0
M  V30 3601 C 343.086 -3.37393 -0.797916 0
M  V30 3602 C 342.147 -4.29287 0.0333662 0
M  V30 3603 C 341.38 -5.27365 -0.819854 0
M  V30 3604 O 341.603 -5.31959 -2.05855 0
M  V30 3605 O 340.537 -6.01389 -0.248079 0
M  V30 3606 H 344.363 -2.90601 0.882315 0
M  V30 3607 H 341.948 -1.40909 0.4965 0
M  V30 3608 H 343.83 -4.00505 -1.31048 0
M  V30 3609 H 342.505 -2.83571 -1.56106 0
M  V30 3610 H 341.412 -3.69395 0.591475 0
M  V30 3611 H 342.745 -4.86317 0.758752 0
M  V30 3612 N 344.397 -0.483516 -1.5 0
M  V30 3613 C 345.307 0.309172 -2.32554 0
M  V30 3614 C 346.323 0.984159 -1.43493 0
M  V30 3615 O 347.499 0.969399 -1.76535 0
M  V30 3616 C 344.564 1.36979 -3.18493 0
M  V30 3617 C 343.625 0.710095 -4.23387 0
M  V30 3618 C 342.858 1.72018 -5.05218 0
M  V30 3619 O 343.081 2.94813 -4.88305 0
M  V30 3620 O 342.015 1.28515 -5.8802 0
M  V30 3621 H 345.841 -0.366064 -3.01486 0
M  V30 3622 H 343.426 -0.24514 -1.47375 0
M  V30 3623 H 345.308 1.98385 -3.71781 0
M  V30 3624 H 343.983 2.02828 -2.52275 0
M  V30 3625 H 342.89 0.0567539 -3.74057 0
M  V30 3626 H 344.223 0.0943557 -4.9211 0
M  V30 3627 N 345.875 1.56104 -0.216619 0
M  V30 3628 C 347.122 1.98172 0.416416 0
M  V30 3629 C 347.45 1.10413 1.60122 0
M  V30 3630 O 346.705 0.147967 1.9514 0
M  V30 3631 C 347.004 3.45923 0.898464 0
M  V30 3632 C 346.67 4.50559 -0.175288 0
M  V30 3633 C 345.332 4.78897 -0.470271 0
M  V30 3634 C 347.684 5.1334 -0.901728 0
M  V30 3635 C 345.012 5.67299 -1.4963 0
M  V30 3636 C 347.364 6.02853 -1.91705 0
M  V30 3637 C 346.028 6.29537 -2.21901 0
M  V30 3638 H 345.298 0.725164 0.152377 0
M  V30 3639 H 347.945 1.88839 -0.318103 0
M  V30 3640 H 346.25 3.52434 1.71165 0
M  V30 3641 H 347.947 3.75841 1.39803 0
M  V30 3642 H 344.537 4.28551 0.0647806 0
M  V30 3643 H 348.721 4.91521 -0.687072 0
M  V30 3644 H 343.977 5.86239 -1.73592 0
M  V30 3645 H 348.151 6.50552 -2.48505 0
M  V30 3646 H 345.778 6.97835 -3.01548 0
M  V30 3647 N 347.353 -0.0568162 1.57498 0
M  V30 3648 C 348.285 -1.09292 2.01464 0
M  V30 3649 C 349.298 -1.34112 0.922913 0
M  V30 3650 O 350.487 -1.32089 1.20062 0
M  V30 3651 C 347.587 -2.44068 2.35125 0
M  V30 3652 C 346.76 -2.38995 3.66333 0
M  V30 3653 C 345.819 -3.55997 3.87495 0
M  V30 3654 O 344.845 -3.36746 4.58901 0
M  V30 3655 N 346.047 -4.76888 3.30996 0
M  V30 3656 H 348.812 -0.718386 2.90963 0
M  V30 3657 H 346.373 -0.245235 1.60032 0
M  V30 3658 H 348.365 -3.21011 2.46443 0
M  V30 3659 H 346.935 -2.73468 1.5144 0
M  V30 3660 H 346.155 -1.47336 3.65631 0
M  V30 3661 H 347.443 -2.3272 4.52458 0
M  V30 3662 H 346.841 -4.95431 2.73065 0
M  V30 3663 H 345.398 -5.51291 3.47738 0
M  V30 3664 N 348.832 -1.54138 -0.328536 0
M  V30 3665 C 350.081 -1.71318 -1.06456 0
M  V30 3666 C 350.394 -0.491109 -1.89334 0
M  V30 3667 O 351.6 -0.54416 -2.65991 0
M  V30 3668 C 350.056 -3.03 -1.94214 0
M  V30 3669 C 349.664 -4.32595 -1.16471 0
M  V30 3670 C 351.408 -3.29544 -2.67583 0
M  V30 3671 C 349.315 -5.55341 -2.03347 0
M  V30 3672 H 348.245 -0.638429 -0.401155 0
M  V30 3673 H 350.896 -1.80633 -0.323106 0
M  V30 3674 H 349.278 -2.87579 -2.72239 0
M  V30 3675 H 350.452 -4.58766 -0.432525 0
M  V30 3676 H 348.767 -4.12777 -0.548063 0
M  V30 3677 H 351.364 -4.18444 -3.3288 0
M  V30 3678 H 351.707 -2.47206 -3.34955 0
M  V30 3679 H 352.24 -3.45809 -1.96623 0
M  V30 3680 H 348.979 -6.40268 -1.40491 0
M  V30 3681 H 348.499 -5.33397 -2.74313 0
M  V30 3682 H 350.178 -5.91557 -2.62049 0
M  V30 3683 N 350.31 0.590341 -1.46126 0
M  V30 3684 C 351.556 1.35082 -1.51264 0
M  V30 3685 C 351.889 1.93534 -0.160711 0
M  V30 3686 O 351.164 1.76045 0.826956 0
M  V30 3687 C 351.447 2.48588 -2.6053 0
M  V30 3688 C 351.3 1.95221 -4.05227 0
M  V30 3689 C 352.619 3.50662 -2.6594 0
M  V30 3690 H 349.738 0.489803 -0.550692 0
M  V30 3691 H 352.38 0.663887 -1.78024 0
M  V30 3692 H 350.53 3.07186 -2.37843 0
M  V30 3693 H 352.202 1.41139 -4.39178 0
M  V30 3694 H 350.445 1.26101 -4.15068 0
M  V30 3695 H 351.116 2.77121 -4.77397 0
M  V30 3696 H 353.592 3.01934 -2.86313 0
M  V30 3697 H 352.468 4.27551 -3.44226 0
M  V30 3698 H 352.729 4.07399 -1.71694 0
M  V30 3699 N 351.788 1.33704 0.83433 0
M  V30 3700 C 352.718 1.26967 1.95963 0
M  V30 3701 C 353.699 0.149337 1.69443 0
M  V30 3702 O 354.884 0.339852 1.91203 0
M  V30 3703 C 352.014 1.01275 3.32206 0
M  V30 3704 C 350.968 2.09652 3.73136 0
M  V30 3705 C 350.294 1.69166 5.07235 0
M  V30 3706 C 351.594 3.51372 3.86439 0
M  V30 3707 H 353.288 2.2112 2.01857 0
M  V30 3708 H 350.834 1.06447 0.969793 0
M  V30 3709 H 352.787 0.952106 4.10503 0
M  V30 3710 H 351.511 0.0356203 3.26581 0
M  V30 3711 H 350.17 2.14766 2.97104 0
M  V30 3712 H 349.818 0.701437 4.98085 0
M  V30 3713 H 349.518 2.41694 5.35591 0
M  V30 3714 H 351.042 1.64576 5.88003 0
M  V30 3715 H 352.456 3.48734 4.55036 0
M  V30 3716 H 350.853 4.22425 4.26236 0
M  V30 3717 H 351.923 3.89546 2.88759 0
M  V30 3718 N 353.266 -1.05314 1.17247 0
M  V30 3719 C 354.491 -1.82509 0.985148 0
M  V30 3720 C 354.916 -1.82343 -0.461788 0
M  V30 3721 O 354.274 -1.23151 -1.33055 0
M  V30 3722 C 354.322 -3.26566 1.52929 0
M  V30 3723 O 353.426 -4.05666 0.742225 0
M  V30 3724 H 352.767 -0.564347 0.349869 0
M  V30 3725 H 355.297 -1.32718 1.55715 0
M  V30 3726 H 355.307 -3.77369 1.55103 0
M  V30 3727 H 353.982 -3.26001 2.58256 0
M  V30 3728 H 352.559 -3.64397 0.791794 0
M  V30 3729 N 354.744 -0.972509 -1.24016 0
M  V30 3730 C 355.992 -0.635776 -1.91839 0
M  V30 3731 C 356.313 0.832312 -1.76345 0
M  V30 3732 O 355.583 1.5946 -1.13795 0
M  V30 3733 H 354.163 -0.232157 -0.710009 0
M  V30 3734 H 356.825 -1.23462 -1.50809 0
M  V30 3735 H 355.921 -0.880545 -2.99421 0
M  V30 3736 N 356.222 1.38976 -0.743202 0
M  V30 3737 C 357.638 1.53984 -0.419664 0
M  V30 3738 C 357.838 1.70837 1.0685 0
M  V30 3739 O 356.894 1.7135 1.8546 0
M  V30 3740 C 358.207 2.75287 -1.20985 0
M  V30 3741 C 359.755 2.89129 -1.19889 0
M  V30 3742 C 360.23 4.13381 -1.97181 0
M  V30 3743 N 361.721 4.20437 -1.94389 0
M  V30 3744 C 362.456 5.15547 -2.50996 0
M  V30 3745 N 361.952 6.16395 -3.16274 0
M  V30 3746 N 363.745 5.07822 -2.40984 0
M  V30 3747 H 355.896 1.26285 -1.7078 0
M  V30 3748 H 358.159 0.612689 -0.723406 0
M  V30 3749 H 357.865 2.69204 -2.26323 0
M  V30 3750 H 357.739 3.68184 -0.819759 0
M  V30 3751 H 360.126 2.947 -0.153606 0
M  V30 3752 H 360.207 1.97272 -1.62841 0
M  V30 3753 H 359.851 4.08572 -3.01714 0
M  V30 3754 H 359.781 5.04298 -1.51629 0
M  V30 3755 H 362.272 3.48205 -1.46839 0
M  V30 3756 H 362.585 6.85443 -3.56915 0
M  V30 3757 H 360.93 6.16758 -3.20367 0
M  V30 3758 H 364.121 4.27973 -1.89622 0
M  V30 3759 H 364.294 5.81767 -2.85397 0
M  V30 3760 N 357.7 0.491464 1.49741 0
M  V30 3761 C 358.948 -0.0563141 2.02022 0
M  V30 3762 C 359.269 -1.38363 1.37407 0
M  V30 3763 O 358.539 -1.88702 0.526166 0
M  V30 3764 H 357.119 -0.0238014 0.746621 0
M  V30 3765 H 359.781 0.646533 1.83864 0
M  V30 3766 H 358.877 -0.192967 3.11503 0
M  V30 3767 N 359.178 -1.55987 0.224894 0
M  V30 3768 C 360.425 -1.9839 -0.4059 0
M  V30 3769 C 360.753 -1.11261 -1.59535 0
M  V30 3770 O 360.008 -0.158314 -1.95059 0
M  V30 3771 C 360.307 -3.46394 -0.880106 0
M  V30 3772 C 359.973 -4.5046 0.19918 0
M  V30 3773 C 358.635 -4.7864 0.495661 0
M  V30 3774 C 360.987 -5.12855 0.928939 0
M  V30 3775 C 358.315 -5.66497 1.52636 0
M  V30 3776 C 360.667 -6.01828 1.949 0
M  V30 3777 C 359.331 -6.28351 2.25236 0
M  V30 3778 H 358.601 -0.725961 -0.148529 0
M  V30 3779 H 361.248 -1.88668 0.328113 0
M  V30 3780 H 359.553 -3.53337 -1.69294 0
M  V30 3781 H 361.25 -3.76577 -1.37808 0
M  V30 3782 H 357.84 -4.28579 -0.0420526 0
M  V30 3783 H 362.024 -4.9115 0.713129 0
M  V30 3784 H 357.28 -5.8531 1.76698 0
M  V30 3785 H 361.454 -6.49225 2.51951 0
M  V30 3786 H 359.081 -6.96226 3.05244 0
M  V30 3787 N 360.656 0.0484629 -1.57525 0
M  V30 3788 C 361.589 1.08755 -2.00618 0
M  V30 3789 C 362.567 1.36272 -0.887058 0
M  V30 3790 O 363.751 1.49255 -1.15131 0
M  V30 3791 C 360.878 2.42675 -2.36277 0
M  V30 3792 C 359.924 2.31142 -3.58435 0
M  V30 3793 S 360.757 1.68326 -5.08357 0
M  V30 3794 C 361.913 3.03776 -5.47239 0
M  V30 3795 H 362.146 0.720415 -2.88439 0
M  V30 3796 H 359.679 0.257801 -1.52233 0
M  V30 3797 H 361.637 3.19699 -2.57494 0
M  V30 3798 H 360.298 2.76541 -1.48942 0
M  V30 3799 H 359.491 3.29957 -3.80978 0
M  V30 3800 H 359.093 1.62258 -3.36969 0
M  V30 3801 H 361.385 4.00106 -5.46737 0
M  V30 3802 H 362.328 2.85988 -6.47778 0
M  V30 3803 H 362.736 3.05456 -4.74718 0
M  V30 3804 N 362.134 1.5431 0.320358 0
M  V30 3805 C 363.064 1.86912 1.3995 0
M  V30 3806 C 364.045 0.726211 1.53819 0
M  V30 3807 O 365.23 0.980233 1.67646 0
M  V30 3808 C 362.36 2.09932 2.7667 0
M  V30 3809 C 361.314 3.25776 2.77586 0
M  V30 3810 C 360.64 3.34173 4.17412 0
M  V30 3811 C 361.94 4.6335 2.41048 0
M  V30 3812 H 363.634 2.77292 1.12914 0
M  V30 3813 H 361.18 1.33421 0.541738 0
M  V30 3814 H 363.133 2.31324 3.52232 0
M  V30 3815 H 361.857 1.16304 3.0519 0
M  V30 3816 H 360.516 3.04276 2.04479 0
M  V30 3817 H 360.164 2.38098 4.43078 0
M  V30 3818 H 359.864 4.12033 4.18931 0
M  V30 3819 H 361.388 3.57803 4.94782 0
M  V30 3820 H 362.802 4.84602 3.06324 0
M  V30 3821 H 361.199 5.43782 2.53813 0
M  V30 3822 H 362.269 4.65381 1.36193 0
M  V30 3823 N 363.613 -0.582584 1.46437 0
M  V30 3824 C 364.861 -1.33814 1.51453 0
M  V30 3825 C 365.182 -1.94277 0.167792 0
M  V30 3826 O 364.452 -1.78566 -0.805677 0
M  V30 3827 H 363.032 -0.496838 0.557818 0
M  V30 3828 H 365.694 -0.682281 1.82568 0
M  V30 3829 H 364.79 -2.14479 2.26728 0
M  V30 3830 N 365.091 -1.34144 -0.827227 0
M  V30 3831 C 366.316 -1.29476 -1.62021 0
M  V30 3832 C 366.741 0.129292 -1.87655 0
M  V30 3833 O 366.099 1.08967 -1.449 0
M  V30 3834 C 366.147 -2.08702 -2.94068 0
M  V30 3835 O 365.251 -1.45359 -3.85933 0
M  V30 3836 H 364.592 -0.444881 -0.492927 0
M  V30 3837 H 367.122 -1.76882 -1.02829 0
M  V30 3838 H 367.132 -2.19898 -3.43669 0
M  V30 3839 H 365.807 -3.12241 -2.74734 0
M  V30 3840 H 364.384 -1.42879 -3.44442 0
M  V30 3841 N 366.569 1.04691 -1.17803 0
M  V30 3842 C 367.985 1.29963 -0.926379 0
M  V30 3843 C 368.185 1.97251 0.411635 0
M  V30 3844 O 367.241 2.24922 1.14744 0
M  V30 3845 C 368.554 2.16447 -2.08737 0
M  V30 3846 C 370.102 2.29814 -2.12496 0
M  V30 3847 C 370.577 3.19661 -3.27995 0
M  V30 3848 N 372.068 3.27247 -3.27816 0
M  V30 3849 C 372.803 3.96906 -4.13827 0
M  V30 3850 N 372.299 4.6895 -5.09959 0
M  V30 3851 N 374.092 3.93122 -4.01761 0
M  V30 3852 H 366.243 0.594182 -2.0392 0
M  V30 3853 H 368.506 0.324649 -0.890678 0
M  V30 3854 H 368.212 1.74304 -3.05469 0
M  V30 3855 H 368.086 3.17103 -2.04268 0
M  V30 3856 H 370.473 2.71196 -1.16347 0
M  V30 3857 H 370.554 1.2877 -2.21025 0
M  V30 3858 H 370.198 2.78991 -4.24413 0
M  V30 3859 H 370.128 4.20722 -3.16703 0
M  V30 3860 H 372.619 2.75921 -2.58217 0
M  V30 3861 H 372.932 5.19679 -5.71974 0
M  V30 3862 H 371.277 4.67875 -5.13924 0
M  V30 3863 H 374.468 3.35967 -3.2595 0
M  V30 3864 H 374.641 4.47139 -4.6901 0
M  V30 3865 N 368.047 0.979072 1.23499 0
M  V30 3866 C 368.995 0.510604 2.26926 0
M  V30 3867 C 369.989 -0.431691 1.63807 0
M  V30 3868 O 371.195 -0.30573 1.77385 0
M  V30 3869 H 367.57 0.146688 0.737554 0
M  V30 3870 H 369.541 1.39466 2.63803 0
M  V30 3871 C 368.29 -0.172658 3.47271 0
M  V30 3872 H 367.613 0.543331 3.96091 0
M  V30 3873 H 369.053 -0.464101 4.21452 0
M  V30 3874 C 367.512 -1.40345 3.06276 0
M  V30 3875 O 368.042 -2.49978 3.14442 0
M  V30 3876 N 366.248 -1.27362 2.61203 0
M  V30 3877 H 365.795 -0.381584 2.54758 0
M  V30 3878 H 365.753 -2.09822 2.34141 0
M  V30 3879 N 369.525 -1.3858 0.750561 0
M  V30 3880 C 370.773 -1.99789 0.30477 0
M  V30 3881 C 371.094 -1.59874 -1.11649 0
M  V30 3882 O 370.364 -0.85417 -1.76297 0
M  V30 3883 H 368.944 -0.738902 0.109694 0
M  V30 3884 H 371.606 -1.69391 0.963983 0
M  V30 3885 H 370.702 -3.09952 0.365499 0
M  V30 3886 N 371.003 -0.499398 -1.49478 0
M  V30 3887 C 372.228 0.044722 -2.07352 0
M  V30 3888 C 372.653 1.30207 -1.35749 0
M  V30 3889 O 372.011 1.76516 -0.413732 0
M  V30 3890 C 372.059 0.283013 -3.59488 0
M  V30 3891 O 371.163 1.35804 -3.89398 0
M  V30 3892 H 370.504 -0.0255147 -0.66351 0
M  V30 3893 H 373.034 -0.698561 -1.92305 0
M  V30 3894 H 373.044 0.515007 -4.04737 0
M  V30 3895 H 371.719 -0.635636 -4.11014 0
M  V30 3896 H 370.296 1.11113 -3.55961 0
M  V30 3897 N 372.481 1.55866 -0.233164 0
M  V30 3898 C 373.727 1.98897 0.395959 0
M  V30 3899 C 374.06 1.12091 1.58585 0
M  V30 3900 O 373.335 0.181182 1.93654 0
M  V30 3901 C 373.618 3.50658 0.819224 0
M  V30 3902 C 373.471 4.48233 -0.375109 0
M  V30 3903 C 374.79 4.07135 1.67121 0
M  V30 3904 H 371.909 0.723102 0.142451 0
M  V30 3905 H 374.551 1.87082 -0.331725 0
M  V30 3906 H 372.701 3.60857 1.43925 0
M  V30 3907 H 374.373 4.50031 -1.01341 0
M  V30 3908 H 372.616 4.21624 -1.02058 0
M  V30 3909 H 373.287 5.51988 -0.0358328 0
M  V30 3910 H 375.763 3.99952 1.14795 0
M  V30 3911 H 374.639 5.13615 1.93625 0
M  V30 3912 H 374.9 3.54736 2.63846 0
M  V30 3913 N 373.959 -0.0401083 1.57549 0
M  V30 3914 C 374.889 -1.04384 2.08869 0
M  V30 3915 C 375.87 -1.38407 0.988817 0
M  V30 3916 O 377.055 -1.47483 1.26342 0
M  V30 3917 C 374.185 -2.34808 2.55895 0
M  V30 3918 C 373.139 -2.15057 3.70047 0
M  V30 3919 C 372.465 -3.51145 4.03239 0
M  V30 3920 C 373.765 -1.54576 4.98902 0
M  V30 3921 H 375.459 -0.616666 2.92981 0
M  V30 3922 H 373.005 -0.295184 1.40942 0
M  V30 3923 H 374.958 -3.05346 2.90417 0
M  V30 3924 H 373.682 -2.79565 1.68853 0
M  V30 3925 H 372.341 -1.46954 3.35857 0
M  V30 3926 H 371.989 -3.93529 3.13279 0
M  V30 3927 H 371.689 -3.38758 4.80122 0
M  V30 3928 H 373.213 -4.23062 4.40285 0
M  V30 3929 H 374.627 -2.15017 5.31451 0
M  V30 3930 H 373.024 -1.52796 5.80322 0
M  V30 3931 H 374.094 -0.51039 4.82206 0
M  V30 3932 N 375.437 -1.54477 -0.31217 0
M  V30 3933 C 376.677 -1.74958 -1.05684 0
M  V30 3934 C 377.041 -0.518414 -1.84869 0
M  V30 3935 O 378.242 -0.600759 -2.62001 0
M  V30 3936 C 376.513 -2.99656 -1.94785 0
M  V30 3937 S 378.072 -3.4109 -2.76049 0
M  V30 3938 H 374.89 -0.615104 -0.356606 0
M  V30 3939 H 377.492 -1.92669 -0.331514 0
M  V30 3940 H 376.196 -3.87397 -1.35468 0
M  V30 3941 H 375.727 -2.845 -2.71704 0
M  V30 3942 H 377.742 -2.97283 -3.97287 0
M  V30 3943 N 376.915 0.57481 -1.46744 0
M  V30 3944 C 378.143 1.35856 -1.56047 0
M  V30 3945 C 378.558 1.87691 -0.204365 0
M  V30 3946 O 377.915 1.64049 0.79963 0
M  V30 3947 C 377.966 2.54066 -2.57163 0
M  V30 3948 O 377.687 2.04377 -3.87507 0
M  V30 3949 C 379.188 3.46514 -2.76483 0
M  V30 3950 H 376.408 0.414754 -0.527466 0
M  V30 3951 H 378.952 0.698035 -1.92218 0
M  V30 3952 H 377.107 3.16092 -2.23974 0
M  V30 3953 H 377.521 2.81419 -4.4261 0
M  V30 3954 H 378.995 4.25919 -3.51137 0
M  V30 3955 H 379.472 3.98951 -1.83671 0
M  V30 3956 H 380.078 2.90318 -3.10799 0
M  V30 3957 N 378.394 1.34581 0.820102 0
M  V30 3958 C 379.624 1.29991 1.6058 0
M  V30 3959 C 380.032 -0.127588 1.88769 0
M  V30 3960 O 379.375 -1.08595 1.48165 0
M  V30 3961 C 379.437 2.02548 2.9701 0
M  V30 3962 C 379.101 3.51794 2.91701 0
M  V30 3963 C 380.098 4.46647 2.66087 0
M  V30 3964 C 377.783 3.94249 3.11245 0
M  V30 3965 C 379.777 5.81929 2.60071 0
M  V30 3966 C 377.464 5.2963 3.04853 0
M  V30 3967 C 378.462 6.23282 2.793 0
M  V30 3968 O 378.15 7.56181 2.72847 0
M  V30 3969 H 377.882 0.448539 0.505756 0
M  V30 3970 H 380.436 1.77811 1.02822 0
M  V30 3971 H 378.666 1.49345 3.56697 0
M  V30 3972 H 380.355 1.91211 3.58041 0
M  V30 3973 H 381.121 4.15168 2.5072 0
M  V30 3974 H 377 3.21749 3.30149 0
M  V30 3975 H 380.544 6.54999 2.40046 0
M  V30 3976 H 376.441 5.60727 3.19774 0
M  V30 3977 H 377.209 7.6595 2.88553 0
M  V30 3978 N 379.872 -1.04064 1.18357 0
M  V30 3979 C 381.1 -1.80916 1.00384 0
M  V30 3980 C 381.515 -1.83414 -0.447738 0
M  V30 3981 O 380.872 -1.26962 -1.31099 0
M  V30 3982 C 380.923 -3.26516 1.55144 0
M  V30 3983 O 380.644 -3.2424 2.94618 0
M  V30 3984 C 382.145 -4.20013 1.41789 0
M  V30 3985 H 379.365 -0.569728 0.354474 0
M  V30 3986 H 381.909 -1.31151 1.56906 0
M  V30 3987 H 380.064 -3.73512 1.02798 0
M  V30 3988 H 380.478 -4.15452 3.20156 0
M  V30 3989 H 381.952 -5.20111 1.84901 0
M  V30 3990 H 382.429 -4.37667 0.36661 0
M  V30 3991 H 383.035 -3.78881 1.93207 0
M  V30 3992 N 381.35 -0.985608 -1.22978 0
M  V30 3993 C 382.596 -0.65836 -1.91816 0
M  V30 3994 C 382.929 0.806692 -1.76653 0
M  V30 3995 O 382.204 1.58252 -1.13078 0
M  V30 3996 C 382.487 -1.056 -3.44268 0
M  V30 3997 C 382.34 -2.57906 -3.68516 0
M  V30 3998 C 383.659 -0.603781 -4.35939 0
M  V30 3999 H 380.778 -0.24065 -0.696604 0
M  V30 4000 H 383.42 -1.22783 -1.44998 0
M  V30 4001 H 381.57 -0.571445 -3.84274 0
M  V30 4002 H 383.242 -3.13976 -3.3796 0
M  V30 4003 H 381.485 -3.00305 -3.13048 0
M  V30 4004 H 382.156 -2.80779 -4.75255 0
M  V30 4005 H 384.632 -1.01987 -4.03408 0
M  V30 4006 H 383.508 -0.910383 -5.41298 0
M  V30 4007 H 383.769 0.495761 -4.39312 0
M  V30 4008 N 382.828 1.3818 -0.7579 0
M  V30 4009 C 383.776 2.32277 -0.122482 0
M  V30 4010 C 384.77 1.54238 0.700505 0
M  V30 4011 O 385.976 1.69737 0.599119 0
M  V30 4012 H 382.351 0.751712 -0.0208143 0
M  V30 4013 H 384.322 2.83469 -0.932099 0
M  V30 4014 C 383.071 3.39447 0.753076 0
M  V30 4015 H 382.394 3.99591 0.129184 0
M  V30 4016 H 383.834 4.07684 1.16489 0
M  V30 4017 C 382.293 2.78375 1.8976 0
M  V30 4018 O 382.823 2.68025 2.99208 0
M  V30 4019 N 381.029 2.36121 1.69397 0
M  V30 4020 H 380.576 2.4474 0.803762 0
M  V30 4021 H 380.534 1.95602 2.46145 0
M  V30 4022 N 384.306 0.507319 1.49211 0
M  V30 4023 C 385.216 -0.272136 2.33016 0
M  V30 4024 C 386.232 -0.961206 1.45041 0
M  V30 4025 O 387.408 -0.941191 1.78055 0
M  V30 4026 C 384.473 -1.31895 3.20631 0
M  V30 4027 C 383.534 -0.642648 4.24463 0
M  V30 4028 C 382.767 -1.63959 5.07891 0
M  V30 4029 O 382.99 -2.87007 4.92933 0
M  V30 4030 O 381.924 -1.19143 5.8999 0
M  V30 4031 H 385.75 0.413982 3.00865 0
M  V30 4032 H 383.335 0.268556 1.46966 0
M  V30 4033 H 385.217 -1.92446 3.7489 0
M  V30 4034 H 383.892 -1.98788 2.5547 0
M  V30 4035 H 382.799 0.00276252 3.741 0
M  V30 4036 H 384.132 -0.0160534 4.92197 0
M  V30 4037 N 385.784 -1.5574 0.241426 0
M  V30 4038 C 387.012 -2.03208 -0.389134 0
M  V30 4039 C 387.427 -1.12082 -1.51931 0
M  V30 4040 O 386.784 -0.134183 -1.82006 0
M  V30 4041 C 386.835 -3.50064 -0.902087 0
M  V30 4042 O 386.556 -4.37717 0.18305 0
M  V30 4043 C 388.057 -4.13268 -1.60389 0
M  V30 4044 H 385.277 -0.664509 -0.0931053 0
M  V30 4045 H 387.821 -2.0124 0.36369 0
M  V30 4046 H 385.976 -3.52583 -1.60511 0
M  V30 4047 H 386.39 -5.24097 -0.205579 0
M  V30 4048 H 387.864 -5.17733 -1.91458 0
M  V30 4049 H 388.341 -3.59434 -2.52397 0
M  V30 4050 H 388.947 -4.14655 -0.945576 0
M  V30 4051 N 387.262 0.0317525 -1.57568 0
M  V30 4052 C 388.492 0.733884 -1.93126 0
M  V30 4053 C 388.9 1.69563 -0.839352 0
M  V30 4054 O 388.243 1.82681 0.193175 0
M  V30 4055 C 388.305 1.54798 -3.24465 0
M  V30 4056 C 387.969 0.751304 -4.50782 0
M  V30 4057 C 388.966 0.0527632 -5.19873 0
M  V30 4058 C 386.651 0.706639 -4.97305 0
M  V30 4059 C 388.645 -0.679774 -6.33765 0
M  V30 4060 C 386.332 -0.0296449 -6.11093 0
M  V30 4061 C 387.33 -0.721614 -6.79177 0
M  V30 4062 O 387.018 -1.44595 -7.90789 0
M  V30 4063 H 386.75 0.211459 -0.642076 0
M  V30 4064 H 389.304 -0.00585615 -2.05399 0
M  V30 4065 H 387.534 2.33147 -3.08512 0
M  V30 4066 H 389.223 2.13247 -3.4537 0
M  V30 4067 H 389.989 0.0783188 -4.84937 0
M  V30 4068 H 385.868 1.23474 -4.44157 0
M  V30 4069 H 389.412 -1.22042 -6.86842 0
M  V30 4070 H 385.309 -0.0571331 -6.45475 0
M  V30 4071 H 386.077 -1.35935 -8.07133 0
M  V30 4072 N 388.74 1.54641 0.303973 0
M  V30 4073 C 389.968 1.77768 1.05858 0
M  V30 4074 C 390.383 0.535722 1.8104 0
M  V30 4075 O 389.74 -0.494337 1.75677 0
M  V30 4076 C 389.791 2.9834 2.04146 0
M  V30 4077 O 389.512 4.17736 1.32015 0
M  V30 4078 C 391.013 3.33832 2.91669 0
M  V30 4079 H 388.233 0.592961 0.314067 0
M  V30 4080 H 390.777 2.01583 0.344149 0
M  V30 4081 H 388.932 2.76742 2.71096 0
M  V30 4082 H 389.346 4.85693 1.97998 0
M  V30 4083 H 390.82 4.21448 3.56491 0
M  V30 4084 H 391.297 2.51857 3.59812 0
M  V30 4085 H 391.903 3.57579 2.30254 0
M  V30 4086 N 390.218 -0.567019 1.47046 0
M  V30 4087 C 391.446 -1.35027 1.56765 0
M  V30 4088 C 391.861 -1.8758 0.214316 0
M  V30 4089 O 391.218 -1.64471 -0.790919 0
M  V30 4090 C 391.269 -2.52698 2.58507 0
M  V30 4091 O 390.99 -2.0232 3.88585 0
M  V30 4092 C 392.491 -3.45043 2.78316 0
M  V30 4093 H 389.711 -0.41195 0.529658 0
M  V30 4094 H 392.255 -0.687832 1.92585 0
M  V30 4095 H 390.41 -3.149 2.25648 0
M  V30 4096 H 390.824 -2.79068 4.44096 0
M  V30 4097 H 392.298 -4.2405 3.53391 0
M  V30 4098 H 392.775 -3.97971 1.85784 0
M  V30 4099 H 393.381 -2.88665 3.12334 0
M  V30 4100 N 391.696 -1.35014 -0.812953 0
M  V30 4101 C 392.921 -1.31187 -1.60639 0
M  V30 4102 C 393.346 0.109382 -1.87782 0
M  V30 4103 O 392.704 1.07424 -1.46047 0
M  V30 4104 C 392.752 -2.11809 -2.91838 0
M  V30 4105 O 391.856 -1.49444 -3.8437 0
M  V30 4106 H 391.197 -0.450084 -0.488181 0
M  V30 4107 H 393.727 -1.77963 -1.00947 0
M  V30 4108 H 393.737 -2.23531 -3.41318 0
M  V30 4109 H 392.412 -3.15137 -2.71407 0
M  V30 4110 H 390.989 -1.46524 -3.42907 0
M  V30 4111 N 393.175 1.03435 -1.18907 0
M  V30 4112 C 394.421 1.77005 -0.989798 0
M  V30 4113 C 394.754 1.88205 0.478816 0
M  V30 4114 O 394.029 1.39481 1.35556 0
M  V30 4115 C 394.312 3.19925 -1.65287 0
M  V30 4116 C 394.165 3.1663 -3.19477 0
M  V30 4117 C 395.484 4.18189 -1.37134 0
M  V30 4118 H 392.603 0.642538 -0.360991 0
M  V30 4119 H 395.245 1.20784 -1.46667 0
M  V30 4120 H 393.395 3.67929 -1.24741 0
M  V30 4121 H 395.067 2.76567 -3.692 0
M  V30 4122 H 393.31 2.54491 -3.51307 0
M  V30 4123 H 393.981 4.1758 -3.61013 0
M  V30 4124 H 396.457 3.78761 -1.72276 0
M  V30 4125 H 395.333 5.16394 -1.86087 0
M  V30 4126 H 395.594 4.41112 -0.295424 0
M  V30 4127 N 394.653 0.992116 1.22453 0
M  V30 4128 C 395.6 0.541731 2.24352 0
M  V30 4129 C 396.57 -0.425519 1.60557 0
M  V30 4130 O 397.755 -0.330453 1.87917 0
M  V30 4131 C 394.895 -0.138248 3.44823 0
M  V30 4132 C 394.008 0.870649 4.23136 0
M  V30 4133 C 393.143 0.164269 5.30946 0
M  V30 4134 C 392.182 1.16159 6.00977 0
M  V30 4135 N 391.319 0.483568 7.00433 0
M  V30 4136 H 396.159 1.41541 2.62241 0
M  V30 4137 H 393.696 0.709013 1.28885 0
M  V30 4138 H 395.654 -0.5494 4.13567 0
M  V30 4139 H 394.284 -0.975721 3.077 0
M  V30 4140 H 393.336 1.40013 3.53696 0
M  V30 4141 H 394.648 1.63014 4.7141 0
M  V30 4142 H 393.802 -0.303653 6.0594 0
M  V30 4143 H 392.541 -0.627733 4.83643 0
M  V30 4144 H 391.546 1.64015 5.24766 0
M  V30 4145 H 392.771 1.95445 6.50368 0
M  V30 4146 H 390.717 -0.289012 6.55363 0
M  V30 4147 H 390.634 1.18152 7.4671 0
M  V30 4148 H 391.902 0.0384219 7.79491 0
M  V30 4149 N 396.131 -1.37776 0.765217 0
M  V30 4150 C 397.542 -1.82521 0.392819 0
M  V30 4151 C 397.893 -1.63789 -1.08017 0
M  V30 4152 O 397.018 -1.14542 -1.83601 0
M  V30 4153 C 397.613 -3.31358 0.706214 0
M  V30 4154 C 396.172 -3.74406 0.386952 0
M  V30 4155 C 395.319 -2.60394 0.953422 0
M  V30 4156 H 398.27 -1.2634 0.960412 0
M  V30 4157 H 398.291 -3.80498 -0.0114706 0
M  V30 4158 H 397.803 -3.44959 1.77833 0
M  V30 4159 H 395.904 -3.66377 -0.678112 0
M  V30 4160 H 396.017 -4.70749 0.890636 0
M  V30 4161 H 394.381 -2.51878 0.378064 0
M  V30 4162 H 395.164 -2.76791 2.03081 0
M  V30 4163 N 397.609 -0.515225 -1.4894 0
M  V30 4164 C 398.855 0.0242508 -2.02785 0
M  V30 4165 C 399.188 1.35323 -1.39289 0
M  V30 4166 O 398.463 1.87041 -0.533469 0
M  V30 4167 C 398.746 0.16184 -3.59736 0
M  V30 4168 C 398.599 -1.19127 -4.33738 0
M  V30 4169 C 399.918 0.895719 -4.30888 0
M  V30 4170 H 397.037 0.00733914 -0.736963 0
M  V30 4171 H 399.679 -0.669395 -1.77818 0
M  V30 4172 H 397.829 0.752624 -3.8114 0
M  V30 4173 H 399.501 -1.82202 -4.23792 0
M  V30 4174 H 397.744 -1.77695 -3.95736 0
M  V30 4175 H 398.415 -1.04815 -5.41957 0
M  V30 4176 H 400.891 0.394528 -4.14225 0
M  V30 4177 H 399.767 0.960859 -5.40425 0
M  V30 4178 H 400.028 1.9427 -3.97129 0
M  V30 4179 N 399.087 1.5561 -0.249682 0
M  V30 4180 C 400.312 2.03865 0.381305 0
M  V30 4181 C 400.737 1.12769 1.50548 0
M  V30 4182 O 400.095 0.121189 1.80895 0
M  V30 4183 C 400.143 3.50101 0.863816 0
M  V30 4184 O 399.247 3.62132 1.97318 0
M  V30 4185 H 398.588 0.658827 0.0827194 0
M  V30 4186 H 401.118 2.01105 -0.376552 0
M  V30 4187 H 401.128 3.90975 1.1663 0
M  V30 4188 H 399.803 4.1588 0.0411816 0
M  V30 4189 H 398.38 3.33155 1.67517 0
M  V30 4190 N 400.565 -0.0233959 1.57583 0
M  V30 4191 C 401.811 -0.714119 1.89811 0
M  V30 4192 C 402.144 -1.74702 0.848113 0
M  V30 4193 O 401.419 -1.94023 -0.136135 0
M  V30 4194 C 401.702 -1.37853 3.32669 0
M  V30 4195 C 401.555 -0.358764 4.48367 0
M  V30 4196 C 402.874 -2.31101 3.7454 0
M  V30 4197 H 399.993 -0.25814 0.690314 0
M  V30 4198 H 402.635 0.0230927 1.89986 0
M  V30 4199 H 400.785 -2.00689 3.3265 0
M  V30 4200 H 402.457 0.268115 4.6052 0
M  V30 4201 H 400.7 0.321387 4.32608 0
M  V30 4202 H 401.371 -0.862242 5.45224 0
M  V30 4203 H 403.847 -1.78304 3.75961 0
M  V30 4204 H 402.723 -2.74567 4.75294 0
M  V30 4205 H 402.984 -3.18018 3.0711 0
M  V30 4206 N 402.043 -1.548 -0.295768 0
M  V30 4207 C 402.975 -1.82492 -1.3867 0
M  V30 4208 C 403.988 -0.708134 -1.46592 0
M  V30 4209 O 405.177 -0.985686 -1.48817 0
M  V30 4210 C 402.277 -1.95256 -2.76999 0
M  V30 4211 C 401.45 -3.25709 -2.91946 0
M  V30 4212 C 400.509 -3.28824 -4.10806 0
M  V30 4213 O 399.535 -4.02328 -4.02643 0
M  V30 4214 N 400.737 -2.5459 -5.21694 0
M  V30 4215 H 403.502 -2.76646 -1.15269 0
M  V30 4216 H 401.063 -1.54438 -0.485849 0
M  V30 4217 H 403.055 -1.94736 -3.54768 0
M  V30 4218 H 401.625 -1.08072 -2.93324 0
M  V30 4219 H 400.845 -3.38959 -2.01247 0
M  V30 4220 H 402.133 -4.11786 -2.98847 0
M  V30 4221 H 401.531 -1.94512 -5.31208 0
M  V30 4222 H 400.088 -2.59818 -5.97778 0
M  V30 4223 N 403.521 0.559213 -1.47345 0
M  V30 4224 C 404.451 1.67622 -1.62558 0
M  V30 4225 C 405.432 1.63331 -0.475087 0
M  V30 4226 O 406.617 1.80983 -0.704182 0
M  V30 4227 C 403.747 3.0626 -1.63774 0
M  V30 4228 C 402.701 3.25397 -2.7803 0
M  V30 4229 C 402.027 4.64801 -2.64318 0
M  V30 4230 C 403.327 3.10965 -4.19641 0
M  V30 4231 H 405.021 1.55146 -2.56067 0
M  V30 4232 H 402.567 0.744961 -1.23233 0
M  V30 4233 H 404.52 3.84247 -1.73008 0
M  V30 4234 H 403.244 3.1969 -0.66825 0
M  V30 4235 H 401.903 2.49817 -2.68304 0
M  V30 4236 H 401.551 4.75028 -1.65401 0
M  V30 4237 H 401.251 4.78555 -3.40968 0
M  V30 4238 H 402.775 5.44926 -2.75478 0
M  V30 4239 H 404.189 3.78772 -4.30354 0
M  V30 4240 H 402.586 3.36229 -4.97062 0
M  V30 4241 H 403.656 2.07736 -4.38148 0
M  V30 4242 N 404.999 1.35443 0.805782 0
M  V30 4243 C 405.947 1.28465 1.93906 0
M  V30 4244 C 406.941 0.17943 1.68447 0
M  V30 4245 O 408.147 0.345459 1.76654 0
M  V30 4246 H 404.522 0.399528 0.637088 0
M  V30 4247 H 406.493 2.24206 1.96912 0
M  V30 4248 C 405.242 1.07432 3.30687 0
M  V30 4249 H 404.565 1.91716 3.50835 0
M  V30 4250 H 406.005 1.06591 4.10383 0
M  V30 4251 C 404.464 -0.22179 3.36169 0
M  V30 4252 O 404.994 -1.21731 3.82811 0
M  V30 4253 N 403.2 -0.260841 2.89427 0
M  V30 4254 H 402.747 0.549884 2.51663 0
M  V30 4255 H 402.705 -1.12777 2.93477 0
M  V30 4256 N 406.477 -1.02803 1.19454 0
M  V30 4257 C 407.702 -1.80378 1.02364 0
M  V30 4258 C 408.127 -1.83282 -0.423007 0
M  V30 4259 O 407.485 -1.25945 -1.30413 0
M  V30 4260 C 407.533 -3.23248 1.59821 0
M  V30 4261 O 406.637 -4.04 0.828105 0
M  V30 4262 H 405.978 -0.556799 0.361761 0
M  V30 4263 H 408.508 -1.29385 1.58495 0
M  V30 4264 H 408.518 -3.73994 1.63073 0
M  V30 4265 H 407.193 -3.2045 2.65113 0
M  V30 4266 H 405.77 -3.62635 0.86891 0
M  V30 4267 N 407.956 -0.998596 -1.21925 0
M  V30 4268 C 408.889 -0.498517 -2.22688 0
M  V30 4269 C 409.867 0.444301 -1.56412 0
M  V30 4270 O 411.051 0.368518 -1.84863 0
M  V30 4271 C 408.178 0.276639 -3.37568 0
M  V30 4272 C 407.224 -0.61302 -4.22071 0
M  V30 4273 S 408.057 -2.07168 -4.93803 0
M  V30 4274 C 409.213 -1.30617 -6.12119 0
M  V30 4275 H 409.446 -1.35234 -2.64762 0
M  V30 4276 H 406.979 -0.806018 -1.31692 0
M  V30 4277 H 408.937 0.717817 -4.04175 0
M  V30 4278 H 407.598 1.10581 -2.93991 0
M  V30 4279 H 406.791 -0.0162909 -5.03997 0
M  V30 4280 H 406.393 -0.991202 -3.60626 0
M  V30 4281 H 408.685 -0.57675 -6.75041 0
M  V30 4282 H 409.628 -2.10091 -6.76215 0
M  V30 4283 H 410.036 -0.816957 -5.58557 0
M  V30 4284 N 409.434 1.37368 -0.772513 0
M  V30 4285 C 410.364 2.32856 -0.173304 0
M  V30 4286 C 411.345 1.55818 0.682262 0
M  V30 4287 O 412.53 1.84052 0.619566 0
M  V30 4288 C 409.66 3.40048 0.706007 0
M  V30 4289 C 408.614 4.27973 -0.0483144 0
M  V30 4290 C 407.94 5.26184 0.950491 0
M  V30 4291 C 409.24 5.07665 -1.22776 0
M  V30 4292 H 410.934 2.83217 -0.971002 0
M  V30 4293 H 408.48 1.3617 -0.468377 0
M  V30 4294 H 410.433 4.05827 1.13501 0
M  V30 4295 H 409.157 2.88214 1.53623 0
M  V30 4296 H 407.816 3.63726 -0.458107 0
M  V30 4297 H 407.464 4.7063 1.77529 0
M  V30 4298 H 407.164 5.85872 0.450314 0
M  V30 4299 H 408.688 5.94838 1.37842 0
M  V30 4300 H 410.102 5.66578 -0.875366 0
M  V30 4301 H 408.499 5.76681 -1.66007 0
M  V30 4302 H 409.569 4.40294 -2.03149 0
M  V30 4303 N 410.912 0.523116 1.48665 0
M  V30 4304 C 412.152 -0.0115588 2.04397 0
M  V30 4305 C 412.516 -1.32225 1.39214 0
M  V30 4306 O 413.717 -1.94253 1.85793 0
M  V30 4307 C 411.988 -0.138119 3.57133 0
M  V30 4308 S 413.547 -0.623849 4.34343 0
M  V30 4309 H 410.365 0.00877706 0.710946 0
M  V30 4310 H 412.967 0.702116 1.82457 0
M  V30 4311 H 411.671 0.820748 4.02109 0
M  V30 4312 H 411.202 -0.876377 3.83514 0
M  V30 4313 H 413.217 -1.8895 4.58816 0
M  V30 4314 N 412.39 -1.55475 0.257931 0
M  V30 4315 C 413.801 -1.8511 -0.243135 0
M  V30 4316 C 414.152 -1.17986 -1.5676 0
M  V30 4317 O 413.277 -0.462102 -2.11409 0
M  V30 4318 C 413.872 -3.35826 -0.447929 0
M  V30 4319 C 412.431 -3.65647 -0.893245 0
M  V30 4320 C 411.578 -2.7729 0.0232965 0
M  V30 4321 H 414.529 -1.51261 0.480199 0
M  V30 4322 H 414.55 -3.58002 -1.28898 0
M  V30 4323 H 414.062 -3.84652 0.516196 0
M  V30 4324 H 412.163 -3.22308 -1.86945 0
M  V30 4325 H 412.276 -4.73312 -0.742469 0
M  V30 4326 H 410.64 -2.49942 -0.490021 0
M  V30 4327 H 411.423 -3.28926 0.982994 0
M  V30 4328 N 413.868 0.0150385 -1.57593 0
M  V30 4329 C 414.831 0.995996 -2.06428 0
M  V30 4330 C 415.831 1.2818 -0.970903 0
M  V30 4331 O 417.021 1.22949 -1.23406 0
M  V30 4332 C 414.153 2.32506 -2.49307 0
M  V30 4333 H 415.346 0.573873 -2.94358 0
M  V30 4334 H 412.899 0.262186 -1.54085 0
M  V30 4335 H 413.634 2.79438 -1.64575 0
M  V30 4336 H 413.419 2.13087 -3.29145 0
M  V30 4337 H 414.909 3.02906 -2.87468 0
M  V30 4338 N 415.346 1.54954 0.287554 0
M  V30 4339 C 416.757 1.65732 0.859634 0
M  V30 4340 C 417.108 0.574767 1.87592 0
M  V30 4341 O 416.233 -0.286299 2.14498 0
M  V30 4342 C 416.828 3.00438 1.56597 0
M  V30 4343 C 415.387 3.13292 2.08627 0
M  V30 4344 C 414.534 2.61473 0.923416 0
M  V30 4345 H 417.485 1.5857 0.0642338 0
M  V30 4346 H 417.506 2.92613 2.43224 0
M  V30 4347 H 417.018 3.79207 0.826053 0
M  V30 4348 H 415.119 2.39268 2.85625 0
M  V30 4349 H 415.232 4.19647 2.31157 0
M  V30 4350 H 413.596 2.18264 1.31275 0
M  V30 4351 H 414.379 3.42733 0.197241 0
M  V30 4352 N 416.824 -0.551391 1.4764 0
M  V30 4353 C 418.073 -1.30467 1.53822 0
M  V30 4354 C 418.386 -1.94495 0.207661 0
M  V30 4355 O 419.592 -2.71099 0.147533 0
M  V30 4356 C 418.048 -2.36616 2.71184 0
M  V30 4357 C 417.656 -1.78754 4.10793 0
M  V30 4358 C 419.4 -3.13088 2.86663 0
M  V30 4359 C 417.307 -2.82717 5.19447 0
M  V30 4360 H 416.237 -0.490584 0.572576 0
M  V30 4361 H 418.888 -0.58494 1.73927 0
M  V30 4362 H 417.27 -3.11529 2.4447 0
M  V30 4363 H 418.444 -1.10173 4.47435 0
M  V30 4364 H 416.759 -1.14846 4.00249 0
M  V30 4365 H 419.356 -3.90736 3.65007 0
M  V30 4366 H 419.699 -3.67635 1.95321 0
M  V30 4367 H 420.232 -2.45288 3.13175 0
M  V30 4368 H 416.971 -2.33018 6.12685 0
M  V30 4369 H 416.491 -3.4969 4.87316 0
M  V30 4370 H 418.17 -3.46102 5.46646 0
M  V30 4371 N 418.302 -1.35869 -0.798587 0
M  V30 4372 C 419.232 -1.32118 -1.92528 0
M  V30 4373 C 420.213 -0.194209 -1.68988 0
M  V30 4374 O 421.398 -0.390426 -1.90235 0
M  V30 4375 C 418.528 -1.10047 -3.29404 0
M  V30 4376 C 417.482 -2.19471 -3.67446 0
M  V30 4377 C 416.808 -1.82555 -5.02571 0
M  V30 4378 C 418.108 -3.61495 -3.76987 0
M  V30 4379 H 419.802 -2.26394 -1.95924 0
M  V30 4380 H 417.348 -1.08981 -0.94123 0
M  V30 4381 H 419.301 -1.06061 -4.07835 0
M  V30 4382 H 418.025 -0.122195 -3.26371 0
M  V30 4383 H 416.684 -2.22568 -2.91306 0
M  V30 4384 H 416.332 -0.833249 -4.9605 0
M  V30 4385 H 416.032 -2.5581 -5.28995 0
M  V30 4386 H 417.556 -1.80108 -5.83432 0
M  V30 4387 H 418.97 -3.60676 -4.4563 0
M  V30 4388 H 417.367 -4.33577 -4.14887 0
M  V30 4389 H 418.437 -3.97065 -2.78329 0
M  V30 4390 N 419.78 1.02168 -1.19998 0
M  V30 4391 C 420.728 2.12717 -0.940967 0
M  V30 4392 C 421.722 1.69069 0.105841 0
M  V30 4393 O 422.928 1.79946 -0.0440583 0
M  V30 4394 H 419.303 0.695108 -0.28693 0
M  V30 4395 H 421.274 2.3175 -1.87975 0
M  V30 4396 C 420.023 3.44027 -0.504049 0
M  V30 4397 H 419.346 3.78036 -1.30112 0
M  V30 4398 H 420.786 4.22452 -0.361991 0
M  V30 4399 C 419.245 3.27678 0.782878 0
M  V30 4400 O 419.775 3.56949 1.84256 0
M  V30 4401 N 417.981 2.80943 0.742921 0
M  V30 4402 H 417.528 2.57322 -0.119687 0
M  V30 4403 H 417.486 2.70385 1.60435 0
M  V30 4404 N 421.258 1.00505 1.21394 0
M  V30 4405 C 422.205 0.565496 2.23765 0
M  V30 4406 C 423.175 -0.408466 1.60999 0
M  V30 4407 O 424.36 -0.310503 1.88257 0
M  V30 4408 C 421.5 -0.101667 3.4495 0
M  V30 4409 C 420.613 0.915479 4.22188 0
M  V30 4410 C 419.748 0.220574 5.30742 0
M  V30 4411 C 418.787 1.22527 5.99711 0
M  V30 4412 N 417.924 0.557831 6.9988 0
M  V30 4413 H 422.764 1.44314 2.60725 0
M  V30 4414 H 420.301 0.722643 1.28126 0
M  V30 4415 H 422.259 -0.505504 4.14126 0
M  V30 4416 H 420.889 -0.94303 3.08718 0
M  V30 4417 H 419.941 1.43756 3.52191 0
M  V30 4418 H 421.253 1.68005 4.69655 0
M  V30 4419 H 420.407 -0.239368 6.06228 0
M  V30 4420 H 419.146 -0.576401 4.84282 0
M  V30 4421 H 418.151 1.69571 5.22997 0
M  V30 4422 H 419.376 2.02332 6.48258 0
M  V30 4423 H 417.322 -0.219486 6.55633 0
M  V30 4424 H 417.239 1.26065 7.45415 0
M  V30 4425 H 418.507 0.121095 7.79406 0
M  V30 4426 N 422.737 -1.36956 0.779787 0
M  V30 4427 C 423.7 -2.2851 0.177662 0
M  V30 4428 C 424.7 -1.48393 -0.619377 0
M  V30 4429 O 425.89 -1.68505 -0.441785 0
M  V30 4430 C 423.022 -3.32428 -0.755279 0
M  V30 4431 H 424.215 -2.83269 0.984823 0
M  V30 4432 H 421.768 -1.46358 0.548544 0
M  V30 4433 H 422.503 -2.82808 -1.58714 0
M  V30 4434 H 422.288 -3.91659 -0.185817 0
M  V30 4435 H 423.778 -4.00824 -1.17174 0
M  V30 4436 N 424.215 -0.530993 -1.48385 0
M  V30 4437 C 425.463 0.00273189 -2.021 0
M  V30 4438 C 425.784 1.34672 -1.41027 0
M  V30 4439 O 425.054 1.8724 -0.576012 0
M  V30 4440 H 423.634 0.00399774 -0.746989 0
M  V30 4441 H 426.296 -0.695054 -1.82085 0
M  V30 4442 H 425.392 0.11031 -3.11905 0
M  V30 4443 N 425.693 1.55336 -0.266172 0
M  V30 4444 C 426.603 2.2583 0.635458 0
M  V30 4445 C 427.619 1.28106 1.17749 0
M  V30 4446 O 428.795 1.61024 1.20968 0
M  V30 4447 C 425.86 2.95879 1.80712 0
M  V30 4448 C 424.921 4.09059 1.30265 0
M  V30 4449 C 424.154 4.75759 2.41846 0
M  V30 4450 O 424.377 4.41622 3.61007 0
M  V30 4451 O 423.311 5.63888 2.1051 0
M  V30 4452 H 427.137 3.03631 0.0646693 0
M  V30 4453 H 424.722 1.49361 -0.0339177 0
M  V30 4454 H 426.604 3.39932 2.49047 0
M  V30 4455 H 425.279 2.21002 2.36516 0
M  V30 4456 H 424.186 3.69482 0.586019 0
M  V30 4457 H 425.519 4.85811 0.790458 0
M  V30 4458 N 427.171 -0.0066808 1.57599 0
M  V30 4459 C 428.399 -0.704087 1.94551 0
M  V30 4460 C 428.814 -1.67677 0.867746 0
M  V30 4461 O 428.171 -1.8185 -0.153925 0
M  V30 4462 C 428.222 -1.44177 3.31505 0
M  V30 4463 O 427.943 -0.508097 4.35144 0
M  V30 4464 C 429.444 -2.23429 3.82876 0
M  V30 4465 H 426.664 -0.196523 0.641576 0
M  V30 4466 H 429.208 0.042453 2.04456 0
M  V30 4467 H 427.363 -2.13999 3.22929 0
M  V30 4468 H 427.777 -1.02782 5.14331 0
M  V30 4469 H 429.251 -2.70552 4.8115 0
M  V30 4470 H 429.728 -3.05818 3.15233 0
M  V30 4471 H 430.334 -1.58636 3.94607 0
M  V30 4472 N 428.649 -1.55105 -0.279332 0
M  V30 4473 C 429.579 -1.90557 -1.34945 0
M  V30 4474 C 430.56 -0.766738 -1.51839 0
M  V30 4475 O 431.745 -1.02434 -1.64988 0
M  V30 4476 C 428.875 -2.17193 -2.71006 0
M  V30 4477 C 427.829 -3.33021 -2.68851 0
M  V30 4478 C 427.155 -3.45123 -4.08405 0
M  V30 4479 C 428.455 -4.69578 -2.28678 0
M  V30 4480 H 430.149 -2.80188 -1.05522 0
M  V30 4481 H 427.695 -1.34811 -0.506173 0
M  V30 4482 H 429.648 -2.40581 -3.45975 0
M  V30 4483 H 428.372 -1.24355 -3.01999 0
M  V30 4484 H 427.031 -3.0959 -1.9634 0
M  V30 4485 H 426.679 -2.49762 -4.3661 0
M  V30 4486 H 426.379 -4.22995 -4.07859 0
M  V30 4487 H 427.903 -3.70796 -4.85121 0
M  V30 4488 H 429.317 -4.92553 -2.93368 0
M  V30 4489 H 427.714 -5.5032 -2.39306 0
M  V30 4490 H 428.784 -4.68828 -1.23807 0
M  V30 4491 N 430.127 0.543554 -1.4793 0
M  V30 4492 C 431.404 1.30458 -1.4574 0
M  V30 4493 C 431.784 2.1048 -0.161692 0
M  V30 4494 O 431.132 2.11831 0.856734 0
M  V30 4495 C 431.342 2.19754 -2.71126 0
M  V30 4496 C 432.69 2.80334 -3.18901 0
M  V30 4497 O 433.714 2.30049 -2.71948 0
M  V30 4498 O 432.573 3.71766 -4.00565 0
M  V30 4499 H 429.667 0.588117 -0.581418 0
M  V30 4500 H 432.213 0.561328 -1.60147 0
M  V30 4501 H 430.985 1.60316 -3.56952 0
M  V30 4502 H 430.608 3.01351 -2.59371 0
M  V30 4503 N 431.605 1.3629 0.791371 0
M  V30 4504 C 432.851 1.30605 1.55146 0
M  V30 4505 C 433.184 -0.115042 1.93859 0
M  V30 4506 O 432.459 -1.06798 1.62556 0
M  V30 4507 C 432.742 2.22692 2.82985 0
M  V30 4508 C 432.595 3.73489 2.50651 0
M  V30 4509 C 433.914 2.13588 3.84796 0
M  V30 4510 H 431.033 0.475761 0.562868 0
M  V30 4511 H 433.675 1.66825 0.909358 0
M  V30 4512 H 431.825 1.91933 3.37778 0
M  V30 4513 H 433.497 4.14758 2.01924 0
M  V30 4514 H 431.74 3.93021 1.83622 0
M  V30 4515 H 432.411 4.3333 3.41949 0
M  V30 4516 H 434.887 2.40659 3.39445 0
M  V30 4517 H 433.763 2.80195 4.71998 0
M  V30 4518 H 434.024 1.12256 4.27611 0
M  V30 4519 N 433.083 -1.0153 1.20538 0
M  V30 4520 C 434.308 -1.79283 1.04271 0
M  V30 4521 C 434.733 -1.8372 -0.403544 0
M  V30 4522 O 434.091 -1.27321 -1.2907 0
M  V30 4523 C 434.139 -3.21535 1.63241 0
M  V30 4524 O 433.243 -4.03099 0.870908 0
M  V30 4525 H 432.584 -0.55293 0.367647 0
M  V30 4526 H 435.114 -1.27696 1.59859 0
M  V30 4527 H 435.124 -3.72243 1.6703 0
M  V30 4528 H 433.799 -3.1762 2.68497 0
M  V30 4529 H 432.376 -3.61693 0.907323 0
M  V30 4530 N 434.561 -1.01147 -1.20859 0
M  V30 4531 C 435.807 -0.698899 -1.90377 0
M  V30 4532 C 436.14 0.76904 -1.78324 0
M  V30 4533 O 435.415 1.55817 -1.16409 0
M  V30 4534 C 435.698 -1.12878 -3.41951 0
M  V30 4535 C 435.551 -2.65665 -3.62963 0
M  V30 4536 C 436.87 -0.696114 -4.3456 0
M  V30 4537 H 433.989 -0.255372 -0.691342 0
M  V30 4538 H 436.631 -1.25831 -1.42361 0
M  V30 4539 H 434.781 -0.652827 -3.82976 0
M  V30 4540 H 436.453 -3.21074 -3.31224 0
M  V30 4541 H 434.696 -3.06878 -3.06608 0
M  V30 4542 H 435.367 -2.90797 -4.69192 0
M  V30 4543 H 437.843 -1.10521 -4.01154 0
M  V30 4544 H 436.719 -1.025 -5.39245 0
M  V30 4545 H 436.98 0.402465 -4.40264 0
M  V30 4546 N 436.039 1.36541 -0.78704 0
M  V30 4547 C 437.264 2.0409 -0.369053 0
M  V30 4548 C 437.689 1.58957 1.00569 0
M  V30 4549 O 437.047 0.756926 1.64743 0
M  V30 4550 C 437.095 3.57924 -0.438466 0
M  V30 4551 O 436.199 4.08642 0.555479 0
M  V30 4552 H 435.54 0.645142 -0.157122 0
M  V30 4553 H 438.07 1.74545 -1.06749 0
M  V30 4554 H 438.08 4.06887 -0.301218 0
M  V30 4555 H 436.755 3.90127 -1.44132 0
M  V30 4556 H 435.332 3.70958 0.380088 0
M  V30 4557 N 437.518 0.538854 1.48102 0
M  V30 4558 C 438.765 0.0080018 2.02498 0
M  V30 4559 C 439.093 -1.33437 1.41509 0
M  V30 4560 O 438.348 -1.87709 0.553507 0
M  V30 4561 C 438.647 -0.153808 3.57069 0
M  V30 4562 C 438.313 1.11533 4.36888 0
M  V30 4563 C 436.975 1.46314 4.58417 0
M  V30 4564 C 439.327 1.95718 4.83057 0
M  V30 4565 C 436.655 2.6516 5.23361 0
M  V30 4566 C 439.007 3.13751 5.49312 0
M  V30 4567 C 437.671 3.48866 5.69077 0
M  V30 4568 H 436.941 0.00292807 0.740994 0
M  V30 4569 H 439.588 0.706668 1.77984 0
M  V30 4570 H 437.893 -0.935309 3.80472 0
M  V30 4571 H 439.59 -0.579607 3.96789 0
M  V30 4572 H 436.18 0.834484 4.20398 0
M  V30 4573 H 440.364 1.70158 4.66219 0
M  V30 4574 H 435.62 2.92558 5.36861 0
M  V30 4575 H 439.794 3.79282 5.84053 0
M  V30 4576 H 437.421 4.41054 6.19173 0
M  V30 4577 N 438.996 -1.55193 0.274407 0
M  V30 4578 C 439.944 -2.23924 -0.629362 0
M  V30 4579 C 440.938 -1.23602 -1.1584 0
M  V30 4580 O 442.144 -1.41535 -1.11211 0
M  V30 4581 H 438.519 -0.718637 -0.221507 0
M  V30 4582 H 440.49 -2.98388 -0.0268322 0
M  V30 4583 C 439.239 -2.97329 -1.80252 0
M  V30 4584 H 438.562 -3.74313 -1.40462 0
M  V30 4585 H 440.002 -3.48743 -2.41152 0
M  V30 4586 C 438.461 -2.0276 -2.69054 0
M  V30 4587 O 438.991 -1.57836 -3.69392 0
M  V30 4588 N 437.197 -1.69275 -2.36208 0
M  V30 4589 H 436.744 -2.06004 -1.54661 0
M  V30 4590 H 436.702 -1.06271 -2.95895 0
M  V30 4591 N 440.474 -0.00167713 -1.576 0
M  V30 4592 C 441.722 0.681471 -1.90264 0
M  V30 4593 C 442.043 1.7422 -0.875924 0
M  V30 4594 O 441.313 1.95709 0.0864412 0
M  V30 4595 H 439.893 0.254696 -0.702239 0
M  V30 4596 H 442.555 -0.0429996 -1.94853 0
M  V30 4597 H 441.651 1.15166 -2.90075 0
M  V30 4598 N 441.952 1.55251 0.271103 0
M  V30 4599 C 443.2 1.75599 1.00047 0
M  V30 4600 C 443.521 0.561188 1.8675 0
M  V30 4601 O 442.791 -0.423846 1.9126 0
M  V30 4602 H 441.371 0.647562 0.372387 0
M  V30 4603 H 444.033 1.92656 0.294876 0
M  V30 4604 H 443.129 2.65766 1.6363 0
M  V30 4605 N 443.43 -0.535701 1.48216 0
M  V30 4606 C 444.377 -1.64083 1.62312 0
M  V30 4607 C 445.347 -1.59448 0.465365 0
M  V30 4608 O 446.532 -1.77959 0.688135 0
M  V30 4609 C 443.672 -3.0236 1.66349 0
M  V30 4610 C 442.785 -3.17273 2.93193 0
M  V30 4611 C 441.92 -4.46075 2.88427 0
M  V30 4612 C 440.959 -4.54496 4.1 0
M  V30 4613 N 440.096 -5.7468 4.03345 0
M  V30 4614 H 444.936 -1.51374 2.5669 0
M  V30 4615 H 442.473 -0.737059 1.27302 0
M  V30 4616 H 444.431 -3.82461 1.66672 0
M  V30 4617 H 443.061 -3.13854 0.754672 0
M  V30 4618 H 442.113 -2.30462 3.02641 0
M  V30 4619 H 443.425 -3.19357 3.83162 0
M  V30 4620 H 442.579 -5.3446 2.87119 0
M  V30 4621 H 441.318 -4.46504 1.96177 0
M  V30 4622 H 440.323 -3.64519 4.11589 0
M  V30 4623 H 441.548 -4.5581 5.03402 0
M  V30 4624 H 439.494 -5.76017 3.13912 0
M  V30 4625 H 439.411 -5.78234 4.87013 0
M  V30 4626 H 440.679 -6.65367 4.06087 0
M  V30 4627 N 444.908 -1.36708 -0.784132 0
M  V30 4628 C 446.133 -1.34565 -1.5782 0
M  V30 4629 C 446.558 0.0695257 -1.87971 0
M  V30 4630 O 445.916 1.04302 -1.48293 0
M  V30 4631 C 445.964 -2.17952 -2.87279 0
M  V30 4632 O 445.068 -1.57563 -3.81114 0
M  V30 4633 H 444.409 -0.460337 -0.478524 0
M  V30 4634 H 446.939 -1.80064 -0.971495 0
M  V30 4635 H 446.949 -2.30721 -3.365 0
M  V30 4636 H 445.624 -3.20823 -2.64661 0
M  V30 4637 H 444.201 -1.53764 -3.39722 0
M  V30 4638 N 446.386 1.0089 -1.21074 0
M  V30 4639 C 447.632 1.74866 -1.02712 0
M  V30 4640 C 447.965 1.89178 0.438787 0
M  V30 4641 O 447.24 1.42325 1.32567 0
M  V30 4642 C 447.523 3.16347 -1.72036 0
M  V30 4643 C 447.376 3.09782 -3.26121 0
M  V30 4644 C 448.695 4.15187 -1.45973 0
M  V30 4645 H 445.814 0.634736 -0.374539 0
M  V30 4646 H 448.456 1.17646 -1.49196 0
M  V30 4647 H 446.606 3.65201 -1.32517 0
M  V30 4648 H 448.278 2.68673 -3.74983 0
M  V30 4649 H 446.521 2.46982 -3.56626 0
M  V30 4650 H 447.192 4.09829 -3.6979 0
M  V30 4651 H 449.668 3.75022 -1.80272 0
M  V30 4652 H 448.544 5.12331 -1.96999 0
M  V30 4653 H 448.805 4.40386 -0.388924 0
M  V30 4654 N 447.864 1.01787 1.20321 0
M  V30 4655 C 449.113 0.703249 1.89043 0
M  V30 4656 C 449.426 -0.770445 1.79787 0
M  V30 4657 O 450.632 -1.19767 2.43656 0
M  V30 4658 C 449.088 1.20749 3.3904 0
M  V30 4659 C 448.696 2.70817 3.56878 0
M  V30 4660 C 450.44 0.968352 4.13308 0
M  V30 4661 C 448.347 3.14716 5.00708 0
M  V30 4662 H 447.277 0.259354 0.707991 0
M  V30 4663 H 449.928 1.23072 1.36108 0
M  V30 4664 H 448.31 0.607989 3.91305 0
M  V30 4665 H 449.484 3.36327 3.14993 0
M  V30 4666 H 447.799 2.92888 2.95983 0
M  V30 4667 H 450.396 1.27173 5.19356 0
M  V30 4668 H 450.739 -0.095149 4.16191 0
M  V30 4669 H 451.272 1.53129 3.67146 0
M  V30 4670 H 448.011 4.20347 5.02979 0
M  V30 4671 H 447.531 2.53927 5.43398 0
M  V30 4672 H 449.21 3.07426 5.69296 0
M  V30 4673 N 449.342 -1.36122 0.79427 0
M  V30 4674 C 450.567 -2.03891 0.379871 0
M  V30 4675 C 450.992 -1.59488 -0.997251 0
M  V30 4676 O 450.35 -0.765652 -1.64339 0
M  V30 4677 C 450.398 -3.57687 0.457442 0
M  V30 4678 O 449.502 -4.08931 -0.5338 0
M  V30 4679 H 448.843 -0.6443 0.160541 0
M  V30 4680 H 451.373 -1.73976 1.07673 0
M  V30 4681 H 451.383 -4.06721 0.322792 0
M  V30 4682 H 450.058 -3.89357 1.46199 0
M  V30 4683 H 448.635 -3.71154 -0.360409 0
M  V30 4684 N 450.82 -0.546701 -1.47814 0
M  V30 4685 C 452.068 -0.0187037 -2.02091 0
M  V30 4686 C 452.389 1.33168 -1.42447 0
M  V30 4687 O 451.659 1.86619 -0.595839 0
M  V30 4688 H 450.239 -0.00392531 -0.74699 0
M  V30 4689 H 452.901 -0.714327 -1.81338 0
M  V30 4690 H 451.997 0.0772219 -3.12004 0
M  V30 4691 N 452.299 1.55045 -0.282633 0
M  V30 4692 C 453.524 2.04628 0.337977 0
M  V30 4693 C 453.949 1.15937 1.48123 0
M  V30 4694 O 453.307 0.159532 1.80597 0
M  V30 4695 C 453.355 3.51854 0.78936 0
M  V30 4696 O 452.459 3.66236 1.89592 0
M  V30 4697 H 451.8 0.660434 0.0687261 0
M  V30 4698 H 454.33 2.00261 -0.419124 0
M  V30 4699 H 454.34 3.93361 1.08311 0
M  V30 4700 H 453.015 4.15873 -0.0470419 0
M  V30 4701 H 451.592 3.36633 1.60413 0
M  V30 4702 N 453.777 0.010035 1.57597 0
M  V30 4703 C 454.707 -0.976857 2.12084 0
M  V30 4704 C 455.688 -1.35191 1.03235 0
M  V30 4705 O 456.873 -1.43389 1.3097 0
M  V30 4706 C 454.003 -2.26548 2.63236 0
M  V30 4707 C 452.957 -2.03175 3.76701 0
M  V30 4708 C 452.283 -3.38138 4.14206 0
M  V30 4709 C 453.583 -1.38625 5.03568 0
M  V30 4710 H 455.277 -0.523145 2.94794 0
M  V30 4711 H 452.823 -0.250195 1.4181 0
M  V30 4712 H 454.776 -2.95952 2.99984 0
M  V30 4713 H 453.5 -2.74051 1.77661 0
M  V30 4714 H 452.159 -1.36195 3.40362 0
M  V30 4715 H 451.807 -3.83363 3.25641 0
M  V30 4716 H 451.507 -3.23312 4.90656 0
M  V30 4717 H 453.031 -4.08841 4.53521 0
M  V30 4718 H 454.445 -1.98 5.38023 0
M  V30 4719 H 452.842 -1.34256 5.84889 0
M  V30 4720 H 453.912 -0.356722 4.83586 0
M  V30 4721 N 455.255 -1.55392 -0.262866 0
M  V30 4722 C 456.504 -1.75679 -0.990943 0
M  V30 4723 C 456.817 -0.57097 -1.87081 0
M  V30 4724 O 458.023 -0.656486 -2.63444 0
M  V30 4725 C 456.479 -3.10964 -1.81188 0
M  V30 4726 C 456.087 -4.37146 -0.980188 0
M  V30 4727 C 457.831 -3.40597 -2.53365 0
M  V30 4728 C 455.738 -5.63466 -1.7961 0
M  V30 4729 H 454.668 -0.654868 -0.373716 0
M  V30 4730 H 457.319 -1.81841 -0.246203 0
M  V30 4731 H 455.701 -2.98867 -2.59797 0
M  V30 4732 H 456.875 -4.60187 -0.237558 0
M  V30 4733 H 455.19 -4.14731 -0.372497 0
M  V30 4734 H 457.787 -4.32186 -3.14833 0
M  V30 4735 H 458.13 -2.6119 -3.24169 0
M  V30 4736 H 458.663 -3.53838 -1.81779 0
M  V30 4737 H 455.402 -6.4565 -1.13209 0
M  V30 4738 H 454.922 -5.44552 -2.51443 0
M  V30 4739 H 456.601 -6.02139 -2.36723 0
M  V30 4740 N 456.733 0.527833 -1.48498 0
M  V30 4741 C 457.979 1.28545 -1.56857 0
M  V30 4742 C 458.312 1.92678 -0.242651 0
M  V30 4743 O 457.587 1.79394 0.751545 0
M  V30 4744 C 457.87 2.37314 -2.70839 0
M  V30 4745 C 457.723 1.77858 -4.13142 0
M  V30 4746 C 459.042 3.39068 -2.80573 0
M  V30 4747 H 456.161 0.466006 -0.570971 0
M  V30 4748 H 458.803 0.587784 -1.8068 0
M  V30 4749 H 456.953 2.96821 -2.50658 0
M  V30 4750 H 458.625 1.22385 -4.44769 0
M  V30 4751 H 456.868 1.08383 -4.20042 0
M  V30 4752 H 457.539 2.56624 -4.88721 0
M  V30 4753 H 460.015 2.89518 -2.98862 0
M  V30 4754 H 458.891 4.12566 -3.6205 0
M  V30 4755 H 459.152 3.9975 -1.88818 0
M  V30 4756 N 458.211 1.37122 0.776871 0
M  V30 4757 C 459.439 1.3523 1.5659 0
M  V30 4758 C 459.854 -0.0635518 1.88693 0
M  V30 4759 O 459.211 -1.02394 1.51069 0
M  V30 4760 C 459.262 2.18583 2.8793 0
M  V30 4761 O 458.983 3.5465 2.57206 0
M  V30 4762 C 460.484 2.24612 3.82183 0
M  V30 4763 H 457.704 0.4634 0.485285 0
M  V30 4764 H 460.248 1.80392 0.963266 0
M  V30 4765 H 458.403 1.76943 3.4463 0
M  V30 4766 H 458.817 3.98286 3.41275 0
M  V30 4767 H 460.291 2.87267 4.71361 0
M  V30 4768 H 460.768 1.25309 4.20944 0
M  V30 4769 H 461.374 2.66543 3.31414 0
M  V30 4770 N 459.689 -1.00246 1.21608 0
M  V30 4771 C 460.652 -2.07233 0.979133 0
M  V30 4772 C 461.652 -1.6072 -0.0508219 0
M  V30 4773 O 462.842 -1.73196 0.186712 0
M  V30 4774 C 459.974 -3.37546 0.477016 0
M  V30 4775 H 461.167 -2.29687 1.92831 0
M  V30 4776 H 458.72 -1.17261 1.03342 0
M  V30 4777 H 459.455 -3.20773 -0.476966 0
M  V30 4778 H 459.24 -3.72638 1.21997 0
M  V30 4779 H 460.73 -4.16285 0.331181 0
M  V30 4780 N 461.167 -1.02423 -1.1978 0
M  V30 4781 C 462.395 -0.737456 -1.93311 0
M  V30 4782 C 462.81 0.703023 -1.75223 0
M  V30 4783 O 462.167 1.47761 -1.07112 0
M  V30 4784 C 462.218 -1.0733 -3.45199 0
M  V30 4785 O 461.939 -2.4572 -3.62702 0
M  V30 4786 C 463.44 -0.80866 -4.35862 0
M  V30 4787 H 460.66 -0.2702 -0.614193 0
M  V30 4788 H 463.204 -1.36747 -1.52054 0
M  V30 4789 H 461.359 -0.488545 -3.84307 0
M  V30 4790 H 461.773 -2.58081 -4.56612 0
M  V30 4791 H 463.247 -1.09365 -5.41057 0
M  V30 4792 H 463.724 0.257025 -4.38447 0
M  V30 4793 H 464.33 -1.37592 -4.02428 0
M  V30 4794 N 462.645 1.35699 -0.801477 0
M  V30 4795 C 463.555 2.33661 -0.209691 0
M  V30 4796 C 464.571 1.6162 0.644591 0
M  V30 4797 O 465.747 1.93529 0.557545 0
M  V30 4798 C 462.812 3.40816 0.636033 0
M  V30 4799 C 461.873 4.28639 -0.238147 0
M  V30 4800 C 461.106 5.30676 0.567307 0
M  V30 4801 O 461.329 5.41174 1.8024 0
M  V30 4802 O 460.263 6.01887 -0.0391336 0
M  V30 4803 H 464.089 2.8606 -1.01996 0
M  V30 4804 H 461.674 1.38379 -0.563164 0
M  V30 4805 H 463.556 4.06301 1.11791 0
M  V30 4806 H 462.231 2.90696 1.42399 0
M  V30 4807 H 461.138 3.66152 -0.767044 0
M  V30 4808 H 462.471 4.82143 -0.989915 0
M  V30 4809 N 464.123 0.554532 1.47522 0
M  V30 4810 C 465.363 0.0317994 2.04375 0
M  V30 4811 C 465.727 -1.29242 1.41988 0
M  V30 4812 O 466.928 -1.90269 1.89872 0
M  V30 4813 C 465.199 -0.0623344 3.57346 0
M  V30 4814 S 466.758 -0.531578 4.35568 0
M  V30 4815 H 463.576 0.0238553 0.7106 0
M  V30 4816 H 466.178 0.74066 1.80927 0
M  V30 4817 H 464.882 0.905857 4.00278 0
M  V30 4818 H 464.413 -0.794831 3.85287 0
M  V30 4819 H 466.428 -1.79175 4.62721 0
M  V30 4820 N 465.601 -1.54893 0.290851 0
M  V30 4821 C 466.826 -2.04804 -0.32712 0
M  V30 4822 C 467.251 -1.16721 -1.47506 0
M  V30 4823 O 466.609 -0.169107 -1.8051 0
M  V30 4824 C 466.657 -3.52268 -0.770689 0
M  V30 4825 O 465.761 -3.67236 -1.87647 0
M  V30 4826 H 465.102 -0.660789 -0.0652227 0
M  V30 4827 H 467.632 -2.00036 0.429739 0
M  V30 4828 H 467.642 -3.9393 -1.06223 0
M  V30 4829 H 466.317 -4.15843 0.069096 0
M  V30 4830 H 464.894 -3.37479 -1.58626 0
M  V30 4831 N 467.08 -0.0183926 -1.57589 0
M  V30 4832 C 468.028 0.985111 -2.10709 0
M  V30 4833 C 469.022 1.34397 -1.0312 0
M  V30 4834 O 470.228 1.32746 -1.21567 0
M  V30 4835 H 466.603 0.335418 -0.673052 0
M  V30 4836 H 468.574 0.511689 -2.9398 0
M  V30 4837 C 467.323 2.26202 -2.64061 0
M  V30 4838 H 466.646 1.9946 -3.4649 0
M  V30 4839 H 468.086 2.94652 -3.04887 0
M  V30 4840 C 466.545 2.98444 -1.5631 0
M  V30 4841 O 467.075 3.90142 -0.956674 0
M  V30 4842 N 465.281 2.6059 -1.28612 0
M  V30 4843 H 464.828 1.86101 -1.78112 0
M  V30 4844 H 464.786 3.09238 -0.567406 0
M  V30 4845 N 468.558 1.5553 0.254621 0
M  V30 4846 C 469.806 1.7665 0.981793 0
M  V30 4847 C 470.127 0.580963 1.86145 0
M  V30 4848 O 469.397 -0.403537 1.91699 0
M  V30 4849 H 467.977 0.651475 0.365498 0
M  V30 4850 H 470.639 1.92958 0.274426 0
M  V30 4851 H 469.735 2.67486 1.60802 0
M  V30 4852 N 470.036 -0.519951 1.48776 0
M  V30 4853 C 471.285 -1.27175 1.56555 0
M  V30 4854 C 471.598 -1.9401 0.248869 0
M  V30 4855 O 472.804 -2.70725 0.205004 0
M  V30 4856 C 471.26 -2.30811 2.76142 0
M  V30 4857 C 470.868 -1.7 4.14493 0
M  V30 4858 C 472.612 -3.06937 2.9324 0
M  V30 4859 C 470.519 -2.71635 5.25327 0
M  V30 4860 H 469.449 -0.478329 0.582853 0
M  V30 4861 H 472.1 -0.547916 1.75129 0
M  V30 4862 H 470.482 -3.06274 2.51023 0
M  V30 4863 H 471.656 -1.00658 4.49672 0
M  V30 4864 H 469.971 -1.06331 4.02595 0
M  V30 4865 H 472.568 -3.82905 3.73213 0
M  V30 4866 H 472.911 -3.63409 2.03075 0
M  V30 4867 H 473.444 -2.38589 3.18308 0
M  V30 4868 H 470.183 -2.1997 6.1749 0
M  V30 4869 H 469.703 -3.39275 4.94624 0
M  V30 4870 H 471.382 -3.34429 5.53865 0
M  V30 4871 N 471.514 -1.37532 -0.769588 0
M  V30 4872 C 472.477 -1.33292 -1.86456 0
M  V30 4873 C 473.477 -0.236537 -1.59051 0
M  V30 4874 O 474.667 -0.492511 -1.67093 0
M  V30 4875 C 471.799 -1.07118 -3.23633 0
M  V30 4876 H 472.992 -2.30692 -1.91628 0
M  V30 4877 H 470.545 -1.22593 -0.969572 0
M  V30 4878 H 471.28 -0.102578 -3.24138 0
M  V30 4879 H 471.065 -1.86479 -3.44917 0
M  V30 4880 H 472.555 -1.06806 -4.03711 0
M  V30 4881 N 472.992 0.995999 -1.22138 0
M  V30 4882 C 473.955 2.06711 -0.990109 0
M  V30 4883 C 474.955 1.60744 0.0422978 0
M  V30 4884 O 476.145 1.73095 -0.195895 0
M  V30 4885 C 473.277 3.37288 -0.49491 0
M  V30 4886 H 474.47 2.28661 -1.94047 0
M  V30 4887 H 472.023 1.16711 -1.03963 0
M  V30 4888 H 472.758 3.21022 0.459948 0
M  V30 4889 H 472.543 3.71986 -1.23971 0
M  V30 4890 H 474.033 4.16103 -0.353253 0
M  V30 4891 N 474.47 1.03057 1.19235 0
M  V30 4892 C 475.719 0.72326 1.88287 0
M  V30 4893 C 476.032 -0.751333 1.80594 0
M  V30 4894 O 477.238 -1.17176 2.44912 0
M  V30 4895 C 475.694 1.24338 3.3774 0
M  V30 4896 C 475.302 2.74587 3.53986 0
M  V30 4897 C 477.046 1.01213 4.12257 0
M  V30 4898 C 474.953 3.20009 4.97341 0
M  V30 4899 H 473.883 0.266848 0.705201 0
M  V30 4900 H 476.534 1.24509 1.34795 0
M  V30 4901 H 474.916 0.649457 3.90638 0
M  V30 4902 H 476.09 3.39649 3.11408 0
M  V30 4903 H 474.405 2.9601 2.9286 0
M  V30 4904 H 477.002 1.32675 5.17978 0
M  V30 4905 H 477.345 -0.051001 4.16269 0
M  V30 4906 H 477.878 1.57014 3.65501 0
M  V30 4907 H 474.617 4.25659 4.98493 0
M  V30 4908 H 474.137 2.59676 5.40674 0
M  V30 4909 H 475.816 3.13447 5.66003 0
M  V30 4910 N 475.948 -1.35272 0.808662 0
M  V30 4911 C 477.197 -1.97963 0.386483 0
M  V30 4912 C 477.51 -1.64866 -1.05255 0
M  V30 4913 O 478.716 -2.20937 -1.57794 0
M  V30 4914 C 477.172 -3.54162 0.640096 0
M  V30 4915 C 476.78 -3.96166 2.0918 0
M  V30 4916 C 478.524 -4.23553 0.283376 0
M  V30 4917 C 476.431 -5.4522 2.29106 0
M  V30 4918 H 475.361 -0.740742 0.140774 0
M  V30 4919 H 478.012 -1.5431 0.993012 0
M  V30 4920 H 476.394 -3.95983 -0.0364117 0
M  V30 4921 H 477.568 -3.65491 2.80629 0
M  V30 4922 H 475.883 -3.3967 2.40859 0
M  V30 4923 H 478.48 -5.33124 0.410273 0
M  V30 4924 H 478.823 -4.09105 -0.770659 0
M  V30 4925 H 479.356 -3.8716 0.913884 0
M  V30 4926 H 476.095 -5.64638 3.32962 0
M  V30 4927 H 475.615 -5.77457 1.62184 0
M  V30 4928 H 477.294 -6.1171 2.1076 0
M  V30 4929 N 477.426 -0.562348 -1.47226 0
M  V30 4930 C 478.672 -0.0402761 -2.0276 0
M  V30 4931 C 479.005 1.30823 -1.43523 0
M  V30 4932 O 478.28 1.85249 -0.592705 0
M  V30 4933 C 478.563 0.047311 -3.60069 0
M  V30 4934 C 478.416 -1.32865 -4.29729 0
M  V30 4935 C 479.735 0.758182 -4.3352 0
M  V30 4936 H 476.854 -0.0161105 -0.736824 0
M  V30 4937 H 479.496 -0.725628 -1.75598 0
M  V30 4938 H 477.646 0.630986 -3.83342 0
M  V30 4939 H 479.318 -1.95593 -4.17781 0
M  V30 4940 H 477.561 -1.90195 -3.89882 0
M  V30 4941 H 478.232 -1.22004 -5.38349 0
M  V30 4942 H 480.708 0.262546 -4.15271 0
M  V30 4943 H 479.584 0.78844 -5.43208 0
M  V30 4944 H 479.845 1.81537 -4.03109 0
M  V30 4945 N 478.904 1.54736 -0.299062 0
M  V30 4946 C 480.153 1.99279 0.311549 0
M  V30 4947 C 480.466 1.19107 1.55154 0
M  V30 4948 O 481.672 1.53908 2.23662 0
M  V30 4949 C 480.128 3.54768 0.605632 0
M  V30 4950 C 479.736 4.43746 -0.615914 0
M  V30 4951 C 481.48 4.07841 1.17754 0
M  V30 4952 C 479.387 5.90663 -0.29509 0
M  V30 4953 H 478.317 0.744359 0.120187 0
M  V30 4954 H 480.968 1.78919 -0.407464 0
M  V30 4955 H 479.35 3.71021 1.38419 0
M  V30 4956 H 480.524 4.39267 -1.39218 0
M  V30 4957 H 478.839 4.01434 -1.10633 0
M  V30 4958 H 481.436 5.15174 1.43179 0
M  V30 4959 H 481.779 3.58324 2.11918 0
M  V30 4960 H 482.312 3.95123 0.460739 0
M  V30 4961 H 479.051 6.44325 -1.20524 0
M  V30 4962 H 478.571 5.98155 0.44394 0
M  V30 4963 H 480.25 6.46916 0.104048 0
M  V30 4964 N 480.382 0.0267497 1.57577 0
M  V30 4965 C 481.312 -0.954308 2.13108 0
M  V30 4966 C 482.293 -1.34088 1.04663 0
M  V30 4967 O 483.478 -1.41992 1.32484 0
M  V30 4968 C 480.608 -2.23744 2.65624 0
M  V30 4969 C 479.562 -1.99168 3.78835 0
M  V30 4970 C 478.888 -3.33726 4.17769 0
M  V30 4971 C 480.188 -1.33277 5.0501 0
M  V30 4972 H 481.882 -0.491848 2.95332 0
M  V30 4973 H 479.428 -0.23514 1.42067 0
M  V30 4974 H 481.381 -2.92754 3.03106 0
M  V30 4975 H 480.105 -2.72151 1.80558 0
M  V30 4976 H 478.764 -1.32577 3.41788 0
M  V30 4977 H 478.412 -3.79888 3.29688 0
M  V30 4978 H 478.112 -3.18089 4.94058 0
M  V30 4979 H 479.636 -4.04008 4.57832 0
M  V30 4980 H 481.05 -1.92283 5.40093 0
M  V30 4981 H 479.447 -1.28045 5.8628 0
M  V30 4982 H 480.517 -0.305411 4.83937 0
M  V30 4983 N 481.861 -1.55662 -0.24637 0
M  V30 4984 C 483.107 -1.77782 -0.975779 0
M  V30 4985 C 483.44 -0.592103 -1.84953 0
M  V30 4986 O 482.715 0.409588 -1.90138 0
M  V30 4987 C 482.998 -3.09788 -1.83584 0
M  V30 4988 C 482.851 -4.38764 -0.990241 0
M  V30 4989 C 484.17 -3.38029 -2.81823 0
M  V30 4990 H 481.289 -0.646789 -0.353317 0
M  V30 4991 H 483.931 -1.88398 -0.246248 0
M  V30 4992 H 482.081 -3.00869 -2.45784 0
M  V30 4993 H 483.753 -4.59675 -0.386897 0
M  V30 4994 H 481.996 -4.32798 -0.294626 0
M  V30 4995 H 482.667 -5.27514 -1.62584 0
M  V30 4996 H 485.143 -3.46915 -2.2976 0
M  V30 4997 H 484.019 -4.3161 -3.39122 0
M  V30 4998 H 484.28 -2.58968 -3.58313 0
M  V30 4999 N 483.339 0.512053 -1.4905 0
M  V30 5000 C 484.269 1.62365 -1.67809 0
M  V30 5001 C 485.25 1.61737 -0.526809 0
M  V30 5002 O 486.435 1.78651 -0.761404 0
M  V30 5003 C 483.565 3.00895 -1.73435 0
M  V30 5004 C 482.519 3.16387 -2.88242 0
M  V30 5005 C 481.845 4.56157 -2.78971 0
M  V30 5006 C 483.145 2.97457 -4.29321 0
M  V30 5007 H 484.839 1.46921 -2.60873 0
M  V30 5008 H 482.385 0.705379 -1.2554 0
M  V30 5009 H 484.338 3.78549 -1.85145 0
M  V30 5010 H 483.062 3.17403 -0.769619 0
M  V30 5011 H 481.721 2.41155 -2.76116 0
M  V30 5012 H 481.369 4.69525 -1.8043 0
M  V30 5013 H 481.069 4.67465 -3.5602 0
M  V30 5014 H 482.593 5.35886 -2.92675 0
M  V30 5015 H 484.007 3.64888 -4.42187 0
M  V30 5016 H 482.404 3.20245 -5.07507 0
M  V30 5017 H 483.474 1.93692 -4.44535 0
M  V30 5018 N 484.817 1.37938 0.762283 0
M  V30 5019 C 485.747 1.37176 1.88958 0
M  V30 5020 C 486.728 0.238945 1.68413 0
M  V30 5021 O 487.913 0.440726 1.89133 0
M  V30 5022 C 485.043 1.18742 3.2637 0
M  V30 5023 C 483.997 2.29136 3.61498 0
M  V30 5024 C 483.323 1.95816 4.97554 0
M  V30 5025 C 484.623 3.71363 3.6727 0
M  V30 5026 H 486.317 2.31509 1.89853 0
M  V30 5027 H 483.863 1.11438 0.912005 0
M  V30 5028 H 485.816 1.16837 4.04879 0
M  V30 5029 H 484.54 0.208683 3.25933 0
M  V30 5030 H 483.199 2.30213 2.85303 0
M  V30 5031 H 482.847 0.964475 4.93667 0
M  V30 5032 H 482.547 2.69745 5.22026 0
M  V30 5033 H 484.071 1.95513 5.78452 0
M  V30 5034 H 485.485 3.72364 4.35911 0
M  V30 5035 H 483.882 4.44425 4.03245 0
M  V30 5036 H 484.952 4.04305 2.67704 0
M  V30 5037 N 486.295 -0.989507 1.22664 0
M  V30 5038 C 487.225 -2.09847 1.02404 0
M  V30 5039 C 488.206 -1.70007 -0.0561303 0
M  V30 5040 O 489.391 -1.93906 0.106748 0
M  V30 5041 C 486.521 -3.41996 0.604663 0
M  V30 5042 C 485.475 -3.95699 1.63115 0
M  V30 5043 C 484.801 -5.23936 1.0675 0
M  V30 5044 C 486.101 -4.25999 3.02196 0
M  V30 5045 H 487.795 -2.27054 1.95158 0
M  V30 5046 H 485.341 -1.09111 0.939727 0
M  V30 5047 H 487.294 -4.1899 0.45002 0
M  V30 5048 H 486.018 -3.24626 -0.35855 0
M  V30 5049 H 484.677 -3.2084 1.77362 0
M  V30 5050 H 484.325 -5.02909 0.0955422 0
M  V30 5051 H 484.025 -5.60833 1.75328 0
M  V30 5052 H 485.549 -6.0356 0.924516 0
M  V30 5053 H 486.963 -4.93777 2.91303 0
M  V30 5054 H 485.36 -4.74076 3.67929 0
M  V30 5055 H 486.43 -3.33636 3.51873 0
M  V30 5056 N 487.773 -1.03688 -1.18687 0
M  V30 5057 C 488.703 -0.645407 -2.24403 0
M  V30 5058 C 489.684 0.349511 -1.66471 0
M  V30 5059 O 490.869 0.230453 -1.92828 0
M  V30 5060 C 487.999 -0.00365337 -3.473 0
M  V30 5061 C 486.953 -0.921705 -4.17958 0
M  V30 5062 C 486.279 -0.144629 -5.34504 0
M  V30 5063 C 487.579 -2.23909 -4.71871 0
M  V30 5064 H 489.273 -1.52917 -2.57404 0
M  V30 5065 H 486.819 -0.736711 -1.23728 0
M  V30 5066 H 488.772 0.281908 -4.20456 0
M  V30 5067 H 487.496 0.914963 -3.13522 0
M  V30 5068 H 486.155 -1.19159 -3.46694 0
M  V30 5069 H 485.803 0.776274 -4.96974 0
M  V30 5070 H 485.503 -0.756206 -5.82714 0
M  V30 5071 H 487.027 0.134004 -6.10453 0
M  V30 5072 H 488.441 -2.0145 -5.36741 0
M  V30 5073 H 486.838 -2.8033 -5.30599 0
M  V30 5074 H 487.908 -2.88822 -3.895 0
M  V30 5075 N 489.251 1.34841 -0.815825 0
M  V30 5076 C 490.181 2.32187 -0.247298 0
M  V30 5077 C 491.162 1.5791 0.632344 0
M  V30 5078 O 492.347 1.8593 0.560698 0
M  V30 5079 C 489.477 3.42122 0.597466 0
M  V30 5080 C 488.431 4.27602 -0.184446 0
M  V30 5081 C 487.757 5.28942 0.782609 0
M  V30 5082 C 489.057 5.03502 -1.38865 0
M  V30 5083 H 490.751 2.79985 -1.06061 0
M  V30 5084 H 488.297 1.34611 -0.511461 0
M  V30 5085 H 490.25 4.09232 1.00533 0
M  V30 5086 H 488.974 2.92956 1.44376 0
M  V30 5087 H 487.633 3.62085 -0.573592 0
M  V30 5088 H 487.281 4.7604 1.62466 0
M  V30 5089 H 486.981 5.87008 0.263695 0
M  V30 5090 H 488.505 5.98922 1.18848 0
M  V30 5091 H 489.919 5.63506 -1.05518 0
M  V30 5092 H 488.316 5.71108 -1.8427 0
M  V30 5093 H 489.386 4.33608 -2.17054 0
M  V30 5094 N 490.729 0.570148 1.46925 0
M  V30 5095 C 491.977 0.0508523 2.02036 0
M  V30 5096 C 492.298 -1.30885 1.44548 0
M  V30 5097 O 491.568 -1.85647 0.625453 0
M  V30 5098 H 490.148 0.0158088 0.746833 0
M  V30 5099 H 492.81 0.743086 1.80178 0
M  V30 5100 H 491.906 -0.027575 3.12088 0
M  V30 5101 N 492.207 -1.54576 0.307264 0
M  V30 5102 C 493.456 -1.99442 -0.300976 0
M  V30 5103 C 493.769 -1.19928 -1.5452 0
M  V30 5104 O 494.975 -1.55092 -2.22842 0
M  V30 5105 C 493.431 -3.55084 -0.586809 0
M  V30 5106 C 493.039 -4.43413 0.639438 0
M  V30 5107 C 494.783 -4.0846 -1.1559 0
M  V30 5108 C 492.69 -5.90499 0.326411 0
M  V30 5109 H 491.62 -0.744986 -0.116238 0
M  V30 5110 H 494.271 -1.787 0.416947 0
M  V30 5111 H 492.653 -3.71749 -1.36449 0
M  V30 5112 H 493.827 -4.38522 1.41545 0
M  V30 5113 H 492.142 -4.00842 1.1276 0
M  V30 5114 H 494.739 -5.15926 -1.40445 0
M  V30 5115 H 495.082 -3.59443 -2.10015 0
M  V30 5116 H 495.615 -3.95362 -0.439778 0
M  V30 5117 H 492.354 -6.43676 1.23939 0
M  V30 5118 H 491.874 -5.98382 -0.412212 0
M  V30 5119 H 493.553 -6.46962 -0.0697393 0
M  V30 5120 N 493.685 -0.035106 -1.57561 0
M  V30 5121 C 494.933 0.64096 -1.91667 0
M  V30 5122 C 495.254 1.72323 -0.912681 0
M  V30 5123 O 494.524 1.95849 0.0449089 0
M  V30 5124 H 493.104 0.239743 -0.707483 0
M  V30 5125 H 495.766 -0.084321 -1.94718 0
M  V30 5126 H 494.862 1.08987 -2.92452 0
M  V30 5127 N 495.163 1.55791 0.238111 0
M  V30 5128 C 496.093 1.94068 1.29846 0
M  V30 5129 C 497.074 0.806726 1.49753 0
M  V30 5130 O 498.259 1.06772 1.62214 0
M  V30 5131 C 495.389 2.24302 2.65153 0
M  V30 5132 C 494.343 3.40032 2.59927 0
M  V30 5133 C 493.669 3.55829 3.99111 0
M  V30 5134 C 494.969 4.75476 2.16148 0
M  V30 5135 H 496.663 2.82887 0.980563 0
M  V30 5136 H 494.209 1.36105 0.470253 0
M  V30 5137 H 496.162 2.4967 3.39475 0
M  V30 5138 H 494.886 1.32318 2.98596 0
M  V30 5139 H 493.545 3.14687 1.88063 0
M  V30 5140 H 493.193 2.6125 4.29834 0
M  V30 5141 H 492.893 4.3366 3.96501 0
M  V30 5142 H 494.417 3.83528 4.7512 0
M  V30 5143 H 495.831 5.00158 2.80205 0
M  V30 5144 H 494.228 5.56472 2.24631 0
M  V30 5145 H 495.298 4.71946 1.11333 0
M  V30 5146 N 496.642 -0.504142 1.49319 0
M  V30 5147 C 497.575 -1.62361 1.60356 0
M  V30 5148 C 498.553 -1.56169 0.45277 0
M  V30 5149 O 499.737 -1.76271 0.667892 0
M  V30 5150 C 496.864 -3.00864 1.55559 0
M  V30 5151 C 495.91 -3.25328 2.75797 0
M  V30 5152 S 496.743 -3.08791 4.37503 0
M  V30 5153 C 497.899 -4.49695 4.35345 0
M  V30 5154 H 498.132 -1.52753 2.55056 0
M  V30 5155 H 495.665 -0.689065 1.38171 0
M  V30 5156 H 497.623 -3.8073 1.53477 0
M  V30 5157 H 496.284 -3.0789 0.621515 0
M  V30 5158 H 495.477 -4.2643 2.68651 0
M  V30 5159 H 495.079 -2.53179 2.75275 0
M  V30 5160 H 497.371 -5.41721 4.06871 0
M  V30 5161 H 498.314 -4.61891 5.36714 0
M  V30 5162 H 498.722 -4.30227 3.65465 0
M  V30 5163 N 498.12 -1.38341 -0.754957 0
M  V30 5164 C 499.366 -1.35678 -1.51536 0
M  V30 5165 C 499.721 0.0533985 -1.92326 0
M  V30 5166 O 499.014 1.01573 -1.6246 0
M  V30 5167 C 499.208 -2.2452 -2.78075 0
M  V30 5168 C 499.037 -3.74035 -2.49655 0
M  V30 5169 C 497.807 -4.43066 -2.42942 0
M  V30 5170 C 500.005 -4.665 -2.16523 0
M  V30 5171 N 497.987 -5.78026 -2.06783 0
M  V30 5172 C 499.358 -5.89962 -1.90644 0
M  V30 5173 C 501.413 -4.54718 -2.02821 0
M  V30 5174 C 500.116 -7.0296 -1.52444 0
M  V30 5175 C 502.142 -5.67618 -1.66023 0
M  V30 5176 C 501.504 -6.90141 -1.41015 0
M  V30 5177 H 497.603 -0.551764 -0.554148 0
M  V30 5178 H 500.187 -1.73716 -0.879258 0
M  V30 5179 H 498.358 -1.88673 -3.39496 0
M  V30 5180 H 500.09 -2.12993 -3.44116 0
M  V30 5181 H 496.845 -3.96264 -2.59367 0
M  V30 5182 H 497.269 -6.49394 -1.91353 0
M  V30 5183 H 501.911 -3.60546 -2.20831 0
M  V30 5184 H 499.629 -7.97051 -1.33174 0
M  V30 5185 H 503.215 -5.6048 -1.56055 0
M  V30 5186 H 502.095 -7.76021 -1.12965 0
M  V30 5187 N 499.598 0.982988 -1.23187 0
M  V30 5188 C 500.844 1.7273 -1.07405 0
M  V30 5189 C 501.199 1.885 0.385447 0
M  V30 5190 O 500.492 1.4243 1.28157 0
M  V30 5191 C 500.686 3.12736 -1.73006 0
M  V30 5192 C 500.515 3.10621 -3.25184 0
M  V30 5193 C 499.285 3.15957 -3.94334 0
M  V30 5194 C 501.483 2.93992 -4.21987 0
M  V30 5195 N 499.465 3.03701 -5.33516 0
M  V30 5196 C 500.836 2.8987 -5.48065 0
M  V30 5197 C 502.891 2.78457 -4.12754 0
M  V30 5198 C 501.594 2.71804 -6.65969 0
M  V30 5199 C 503.62 2.61754 -5.30319 0
M  V30 5200 C 502.982 2.58328 -6.55321 0
M  V30 5201 H 499.081 0.641279 -0.447533 0
M  V30 5202 H 501.665 1.16664 -1.55877 0
M  V30 5203 H 499.836 3.67026 -1.2707 0
M  V30 5204 H 501.568 3.75786 -1.50224 0
M  V30 5205 H 498.323 3.24034 -3.45397 0
M  V30 5206 H 498.747 3.00855 -6.06478 0
M  V30 5207 H 503.389 2.79898 -3.16886 0
M  V30 5208 H 501.107 2.69108 -7.61975 0
M  V30 5209 H 504.693 2.50702 -5.25014 0
M  V30 5210 H 503.573 2.45564 -7.4476 0
M  V30 5211 N 501.076 1.04316 1.18135 0
M  V30 5212 C 502.323 0.74802 1.88178 0
M  V30 5213 C 502.651 -0.72441 1.80506 0
M  V30 5214 O 501.906 -1.54463 1.20165 0
M  V30 5215 C 502.205 1.16271 3.37958 0
M  V30 5216 C 501.871 2.63585 3.65833 0
M  V30 5217 C 500.533 3.03829 3.73151 0
M  V30 5218 C 502.885 3.58822 3.78016 0
M  V30 5219 C 500.213 4.38194 3.90132 0
M  V30 5220 C 502.565 4.92909 3.96514 0
M  V30 5221 C 501.229 5.3282 4.02068 0
M  V30 5222 H 500.499 0.27372 0.688592 0
M  V30 5223 H 503.146 1.30863 1.39811 0
M  V30 5224 H 501.451 0.520938 3.88321 0
M  V30 5225 H 503.148 0.911672 3.90499 0
M  V30 5226 H 499.738 2.31414 3.60757 0
M  V30 5227 H 503.922 3.28875 3.71692 0
M  V30 5228 H 499.178 4.68631 3.92677 0
M  V30 5229 H 503.352 5.66606 4.04883 0
M  V30 5230 H 500.979 6.36943 4.14979 0
M  V30 5231 N 502.554 -1.34406 0.822964 0
M  V30 5232 C 503.8 -1.98999 0.420847 0
M  V30 5233 C 504.155 -1.64067 -1.00498 0
M  V30 5234 O 503.448 -0.902071 -1.69036 0
M  V30 5235 C 503.642 -3.52981 0.560268 0
M  V30 5236 C 503.471 -4.02873 1.99809 0
M  V30 5237 C 502.241 -4.31463 2.62998 0
M  V30 5238 C 504.439 -4.20241 2.96483 0
M  V30 5239 N 502.421 -4.6739 3.9802 0
M  V30 5240 C 503.792 -4.59348 4.16413 0
M  V30 5241 C 505.847 -4.02489 2.93098 0
M  V30 5242 C 504.55 -4.82559 5.33413 0
M  V30 5243 C 506.576 -4.26866 4.09315 0
M  V30 5244 C 505.938 -4.6626 5.27997 0
M  V30 5245 H 502.037 -0.755432 0.202104 0
M  V30 5246 H 504.621 -1.62815 1.06767 0
M  V30 5247 H 502.792 -3.88359 -0.0566596 0
M  V30 5248 H 504.524 -4.04487 0.131146 0
M  V30 5249 H 501.279 -4.22373 2.14238 0
M  V30 5250 H 501.703 -4.89588 4.67582 0
M  V30 5251 H 506.345 -3.71161 2.02483 0
M  V30 5252 H 504.063 -5.12754 6.24587 0
M  V30 5253 H 507.649 -4.14667 4.08096 0
M  V30 5254 H 506.529 -4.84752 6.16429 0
M  V30 5255 N 504.032 -0.577932 -1.46621 0
M  V30 5256 C 505.443 -0.150071 -1.86096 0
M  V30 5257 C 505.794 1.28563 -1.48209 0
M  V30 5258 O 504.919 1.97036 -0.894754 0
M  V30 5259 C 505.514 -0.265576 -3.37758 0
M  V30 5260 C 504.073 0.10738 -3.76247 0
M  V30 5261 C 503.22 -0.603711 -2.70649 0
M  V30 5262 H 506.171 -0.786438 -1.37844 0
M  V30 5263 H 506.192 0.510352 -3.77062 0
M  V30 5264 H 505.704 -1.3106 -3.65301 0
M  V30 5265 H 503.805 1.15272 -3.54321 0
M  V30 5266 H 503.918 -0.26561 -4.78363 0
M  V30 5267 H 502.282 -0.0444884 -2.54661 0
M  V30 5268 H 503.065 -1.65029 -3.01032 0
M  V30 5269 N 505.51 1.54411 -0.315457 0
M  V30 5270 C 506.44 2.27002 0.547039 0
M  V30 5271 C 507.421 1.27492 1.12605 0
M  V30 5272 O 508.606 1.5629 1.15269 0
M  V30 5273 C 505.736 3.02171 1.71201 0
M  V30 5274 C 504.69 4.0895 1.26268 0
M  V30 5275 C 504.016 4.71915 2.51396 0
M  V30 5276 C 505.316 5.20891 0.383419 0
M  V30 5277 H 507.01 2.99343 -0.0584517 0
M  V30 5278 H 504.556 1.4397 -0.0295527 0
M  V30 5279 H 506.509 3.51681 2.32161 0
M  V30 5280 H 505.233 2.27433 2.34397 0
M  V30 5281 H 503.892 3.60312 0.676062 0
M  V30 5282 H 503.54 3.93801 3.12937 0
M  V30 5283 H 503.24 5.44039 2.22026 0
M  V30 5284 H 504.764 5.24195 3.13133 0
M  V30 5285 H 506.178 5.66206 0.899082 0
M  V30 5286 H 504.575 5.99821 0.182857 0
M  V30 5287 H 505.645 4.81324 -0.587821 0
M  V30 5288 N 506.988 0.0434614 1.5754 0
M  V30 5289 C 508.228 -0.636023 1.94253 0
M  V30 5290 C 508.592 -1.68461 0.921132 0
M  V30 5291 O 509.793 -2.41762 1.17494 0
M  V30 5292 C 508.064 -1.22357 3.35803 0
M  V30 5293 S 509.623 -1.92213 3.94461 0
M  V30 5294 H 506.441 -0.209041 0.679575 0
M  V30 5295 H 509.043 0.110556 1.95187 0
M  V30 5296 H 507.747 -0.448162 4.07946 0
M  V30 5297 H 507.278 -2.00713 3.38346 0
M  V30 5298 H 509.293 -3.20199 3.79061 0
M  V30 5299 N 508.466 -1.55915 -0.229846 0
M  V30 5300 C 509.706 -1.80314 -0.962614 0
M  V30 5301 C 510.07 -0.61568 -1.81861 0
M  V30 5302 O 511.271 -0.738795 -2.58448 0
M  V30 5303 C 509.542 -3.0956 -1.78627 0
M  V30 5304 S 511.101 -3.55243 -2.57581 0
M  V30 5305 H 507.919 -0.633142 -0.323499 0
M  V30 5306 H 510.521 -1.94155 -0.228919 0
M  V30 5307 H 509.225 -3.94033 -1.14742 0
M  V30 5308 H 508.756 -2.98503 -2.56241 0
M  V30 5309 H 510.771 -3.17924 -3.80971 0
M  V30 5310 N 509.944 0.496216 -1.49584 0
M  V30 5311 C 510.891 1.59722 -1.66606 0
M  V30 5312 C 511.861 1.58158 -0.507477 0
M  V30 5313 O 513.046 1.76072 -0.735076 0
M  V30 5314 C 510.186 2.97844 -1.74308 0
M  V30 5315 C 509.299 3.09388 -3.01502 0
M  V30 5316 C 508.434 4.38271 -3.00153 0
M  V30 5317 C 507.473 4.43466 -4.21906 0
M  V30 5318 N 506.61 5.63784 -4.1844 0
M  V30 5319 H 511.45 1.44515 -2.60613 0
M  V30 5320 H 508.987 0.703048 -1.29212 0
M  V30 5321 H 510.945 3.77907 -1.76754 0
M  V30 5322 H 509.575 3.11743 -0.837619 0
M  V30 5323 H 508.627 2.22357 -3.08645 0
M  V30 5324 H 509.939 3.09085 -3.91494 0
M  V30 5325 H 509.093 5.2666 -3.01188 0
M  V30 5326 H 507.832 4.41146 -2.07947 0
M  V30 5327 H 506.837 3.53478 -4.21109 0
M  V30 5328 H 508.062 4.42303 -5.1531 0
M  V30 5329 H 506.008 5.67491 -3.29074 0
M  V30 5330 H 505.925 5.65118 -5.02173 0
M  V30 5331 H 507.193 6.54367 -4.23585 0
M  V30 5332 N 511.423 1.38739 0.74761 0
M  V30 5333 C 512.669 1.35475 1.50912 0
M  V30 5334 C 513.002 -0.0533093 1.94127 0
M  V30 5335 O 512.277 -1.01572 1.65871 0
M  V30 5336 C 512.56 2.31582 2.75757 0
M  V30 5337 C 512.413 3.81274 2.38642 0
M  V30 5338 C 513.732 2.25722 3.77806 0
M  V30 5339 H 510.851 0.493427 0.547447 0
M  V30 5340 H 513.493 1.69634 0.855823 0
M  V30 5341 H 511.643 2.02582 3.31501 0
M  V30 5342 H 513.315 4.20972 1.88626 0
M  V30 5343 H 511.558 3.98664 1.71025 0
M  V30 5344 H 512.229 4.4399 3.27989 0
M  V30 5345 H 514.705 2.51336 3.31616 0
M  V30 5346 H 513.581 2.95069 4.62845 0
M  V30 5347 H 513.842 1.25803 4.23823 0
M  V30 5348 N 512.901 -0.976442 1.23707 0
M  V30 5349 C 514.147 -1.72081 1.07312 0
M  V30 5350 C 514.48 -1.90275 -0.388476 0
M  V30 5351 O 513.755 -1.4579 -1.28746 0
M  V30 5352 C 514.038 -3.11675 1.80363 0
M  V30 5353 C 513.891 -3.01027 3.3422 0
M  V30 5354 C 515.21 -4.1117 1.5693 0
M  V30 5355 H 512.329 -0.624583 0.391236 0
M  V30 5356 H 514.971 -1.13649 1.52263 0
M  V30 5357 H 513.121 -3.61559 1.42153 0
M  V30 5358 H 514.793 -2.58637 3.81975 0
M  V30 5359 H 513.036 -2.3744 3.63049 0
M  V30 5360 H 513.707 -3.9988 3.80525 0
M  V30 5361 H 516.183 -3.7011 1.90151 0
M  V30 5362 H 515.059 -5.06928 2.10513 0
M  V30 5363 H 515.32 -4.392 0.505548 0
M  V30 5364 N 514.379 -1.04941 -1.1758 0
M  V30 5365 C 515.628 -0.753124 -1.87112 0
M  V30 5366 C 515.941 0.722507 -1.81767 0
M  V30 5367 O 517.147 1.13265 -2.46746 0
M  V30 5368 C 515.603 -1.29695 -3.35719 0
M  V30 5369 C 515.211 -2.80184 -3.49572 0
M  V30 5370 C 516.955 -1.07759 -4.10595 0
M  V30 5371 C 514.862 -3.2788 -4.92187 0
M  V30 5372 H 513.792 -0.278034 -0.700866 0
M  V30 5373 H 516.443 -1.26637 -1.32798 0
M  V30 5374 H 514.825 -0.711522 -3.89555 0
M  V30 5375 H 515.999 -3.44561 -3.05965 0
M  V30 5376 H 514.314 -3.00632 -2.88113 0
M  V30 5377 H 516.911 -1.40899 -5.15802 0
M  V30 5378 H 517.254 -0.0152302 -4.16297 0
M  V30 5379 H 517.787 -1.62809 -3.62957 0
M  V30 5380 H 514.526 -4.33535 -4.91658 0
M  V30 5381 H 514.046 -2.68245 -5.36475 0
M  V30 5382 H 515.725 -3.22412 -5.60945 0
M  V30 5383 N 515.857 1.33968 -0.830081 0
M  V30 5384 C 516.804 2.29387 -0.255008 0
M  V30 5385 C 517.774 1.53923 0.624243 0
M  V30 5386 O 518.959 1.82262 0.564372 0
M  V30 5387 C 516.099 3.4034 0.571209 0
M  V30 5388 C 515.212 4.30729 -0.331083 0
M  V30 5389 C 514.347 5.2879 0.505389 0
M  V30 5390 C 513.386 6.10819 -0.395843 0
M  V30 5391 N 512.523 7.00948 0.401979 0
M  V30 5392 H 517.363 2.77972 -1.07404 0
M  V30 5393 H 514.9 1.36785 -0.541133 0
M  V30 5394 H 516.858 4.03361 1.06562 0
M  V30 5395 H 515.488 2.9297 1.35529 0
M  V30 5396 H 514.54 3.68507 -0.943759 0
M  V30 5397 H 515.852 4.88181 -1.02377 0
M  V30 5398 H 515.006 5.97297 1.06399 0
M  V30 5399 H 513.745 4.71894 1.23155 0
M  V30 5400 H 512.75 5.41238 -0.966529 0
M  V30 5401 H 513.975 6.69797 -1.12023 0
M  V30 5402 H 511.921 6.46512 1.11168 0
M  V30 5403 H 511.838 7.55643 -0.232167 0
M  V30 5404 H 513.106 7.73774 0.943102 0
M  V30 5405 N 517.335 0.585699 1.46312 0
M  V30 5406 C 518.612 0.00542031 1.95599 0
M  V30 5407 C 518.992 -1.45619 1.52834 0
M  V30 5408 O 518.34 -2.14759 0.780446 0
M  V30 5409 C 518.55 0.180601 3.48532 0
M  V30 5410 C 519.898 0.049979 4.24571 0
M  V30 5411 O 520.922 0.109589 3.56031 0
M  V30 5412 O 519.781 -0.0832226 5.46437 0
M  V30 5413 H 516.875 -0.0481281 0.825598 0
M  V30 5414 H 519.421 0.654227 1.56582 0
M  V30 5415 H 518.193 1.19657 3.72556 0
M  V30 5416 H 517.816 -0.504498 3.94386 0
M  V30 5417 N 518.813 -1.54241 0.323641 0
M  V30 5418 C 520.224 -1.85975 -0.164405 0
M  V30 5419 C 520.575 -1.24529 -1.51615 0
M  V30 5420 O 519.7 -0.551351 -2.09258 0
M  V30 5421 C 520.295 -3.37424 -0.305091 0
M  V30 5422 C 518.854 -3.69107 -0.737358 0
M  V30 5423 C 518.001 -2.76942 0.140884 0
M  V30 5424 H 520.952 -1.49088 0.543922 0
M  V30 5425 H 520.973 -3.63147 -1.13598 0
M  V30 5426 H 520.485 -3.82116 0.678876 0
M  V30 5427 H 518.586 -3.29947 -1.73107 0
M  V30 5428 H 518.699 -4.76035 -0.541053 0
M  V30 5429 H 517.063 -2.51795 -0.383572 0
M  V30 5430 H 517.846 -3.24461 1.12162 0
M  V30 5431 N 520.291 -0.0518155 -1.57515 0
M  V30 5432 C 521.702 0.483787 -1.80323 0
M  V30 5433 C 522.053 1.70879 -0.964099 0
M  V30 5434 O 521.178 2.15643 -0.180872 0
M  V30 5435 C 521.773 0.884459 -3.27052 0
M  V30 5436 C 520.332 1.36504 -3.50776 0
M  V30 5437 C 519.479 0.340539 -2.75201 0
M  V30 5438 H 522.43 -0.277691 -1.56252 0
M  V30 5439 H 522.451 1.74733 -3.38007 0
M  V30 5440 H 521.963 -0.00731093 -3.88099 0
M  V30 5441 H 520.064 2.27598 -2.95009 0
M  V30 5442 H 520.177 1.35675 -4.59488 0
M  V30 5443 H 518.541 0.81356 -2.41357 0
M  V30 5444 H 519.324 -0.543156 -3.38976 0
M  V30 5445 N 521.769 1.56035 0.221574 0
M  V30 5446 C 523.18 1.69229 0.788567 0
M  V30 5447 C 523.531 0.653814 1.84986 0
M  V30 5448 O 522.656 -0.195065 2.15519 0
M  V30 5449 C 523.251 3.06809 1.43713 0
M  V30 5450 C 521.81 3.21858 1.95152 0
M  V30 5451 C 520.957 2.65155 0.811685 0
M  V30 5452 H 523.908 1.587 -0.00307894 0
M  V30 5453 H 523.929 3.02666 2.30594 0
M  V30 5454 H 523.441 3.82369 0.664475 0
M  V30 5455 H 521.542 2.51167 2.7522 0
M  V30 5456 H 521.655 4.29073 2.1315 0
M  V30 5457 H 520.019 2.23635 1.21899 0
M  V30 5458 H 520.802 3.43261 0.0516987 0
M  V30 5459 N 523.247 -0.488276 1.49845 0
M  V30 5460 C 524.658 -1.06955 1.53028 0
M  V30 5461 C 525.009 -1.9351 0.323797 0
M  V30 5462 O 524.134 -2.08891 -0.565116 0
M  V30 5463 C 524.729 -1.94643 2.77307 0
M  V30 5464 C 523.288 -2.4791 2.83227 0
M  V30 5465 C 522.435 -1.25833 2.47106 0
M  V30 5466 H 525.386 -0.271626 1.56358 0
M  V30 5467 H 525.407 -2.79496 2.5819 0
M  V30 5468 H 524.919 -1.31621 3.65099 0
M  V30 5469 H 523.02 -3.14535 1.99745 0
M  V30 5470 H 523.133 -2.84193 3.85709 0
M  V30 5471 H 521.497 -1.58764 1.99163 0
M  V30 5472 H 522.28 -0.644993 3.37186 0
M  V30 5473 N 524.725 -1.39134 -0.740242 0
M  V30 5474 C 526.136 -1.32208 -1.31825 0
M  V30 5475 C 526.487 0.0159919 -1.96193 0
M  V30 5476 O 525.612 0.918111 -1.95958 0
M  V30 5477 C 526.207 -2.39436 -2.39699 0
M  V30 5478 C 524.766 -2.36048 -2.93187 0
M  V30 5479 C 523.913 -2.21599 -1.66701 0
M  V30 5480 H 526.864 -1.49298 -0.538133 0
M  V30 5481 H 526.885 -2.05922 -3.19963 0
M  V30 5482 H 526.397 -3.36811 -1.92821 0
M  V30 5483 H 524.498 -1.42295 -3.44359 0
M  V30 5484 H 524.611 -3.30704 -3.46658 0
M  V30 5485 H 522.975 -1.68681 -1.90837 0
M  V30 5486 H 523.758 -3.20936 -1.21882 0
M  V30 5487 N 526.204 0.969867 -1.24223 0
M  V30 5488 C 527.167 2.04564 -1.03373 0
M  V30 5489 C 528.167 1.60798 0.00819206 0
M  V30 5490 O 529.357 1.72641 -0.232567 0
M  V30 5491 C 526.489 3.36163 -0.566343 0
M  V30 5492 H 527.682 2.24494 -1.98853 0
M  V30 5493 H 525.235 1.1448 -1.06415 0
M  V30 5494 H 525.97 3.21925 0.391751 0
M  V30 5495 H 525.755 3.69273 -1.31834 0
M  V30 5496 H 527.245 4.1526 -0.441435 0
M  V30 5497 N 527.682 1.05563 1.17022 0
M  V30 5498 C 529.093 0.793475 1.69 0
M  V30 5499 C 529.444 -0.683882 1.83895 0
M  V30 5500 O 528.569 -1.53116 1.5292 0
M  V30 5501 C 529.164 1.43376 3.06967 0
M  V30 5502 C 527.723 1.21956 3.56095 0
M  V30 5503 C 526.87 1.51494 2.3226 0
M  V30 5504 H 529.821 1.22008 1.01487 0
M  V30 5505 H 529.842 0.845068 3.70997 0
M  V30 5506 H 529.354 2.50899 2.96093 0
M  V30 5507 H 527.455 0.163749 3.7224 0
M  V30 5508 H 527.568 1.92713 4.38633 0
M  V30 5509 H 525.932 0.935175 2.3691 0
M  V30 5510 H 526.715 2.60159 2.23992 0
M  V30 5511 N 529.16 -1.33526 0.837174 0
M  V30 5512 C 530.123 -2.27551 0.274421 0
M  V30 5513 C 531.123 -1.50886 -0.555881 0
M  V30 5514 O 532.313 -1.70227 -0.369918 0
M  V30 5515 C 529.445 -3.35332 -0.613605 0
M  V30 5516 H 530.638 -2.78837 1.10408 0
M  V30 5517 H 528.191 -1.439 0.610126 0
M  V30 5518 H 528.926 -2.89285 -1.46577 0
M  V30 5519 H 528.711 -3.92095 -0.0195341 0
M  V30 5520 H 530.201 -4.05433 -1.00068 0
M  V30 5521 N 530.638 -0.59345 -1.46 0
M  V30 5522 C 532.049 -0.169801 -1.85926 0
M  V30 5523 C 532.4 1.26984 -1.49565 0
M  V30 5524 O 531.525 1.96076 -0.915602 0
M  V30 5525 C 532.12 -0.301385 -3.37457 0
M  V30 5526 C 530.679 0.0674684 -3.7634 0
M  V30 5527 C 529.826 -0.632383 -2.69993 0
M  V30 5528 H 532.777 -0.801014 -1.37002 0
M  V30 5529 H 532.798 0.470331 -3.77582 0
M  V30 5530 H 532.31 -1.34927 -3.63891 0
M  V30 5531 H 530.411 1.11507 -3.55523 0
M  V30 5532 H 530.524 -0.316332 -4.78055 0
M  V30 5533 H 528.888 -0.0714961 -2.546 0
M  V30 5534 H 529.671 -1.68212 -2.99265 0
M  V30 5535 N 532.116 1.54067 -0.331816 0
M  V30 5536 C 533.063 2.24623 0.530372 0
M  V30 5537 C 534.033 1.24009 1.10503 0
M  V30 5538 O 535.218 1.52712 1.14384 0
M  V30 5539 C 532.358 3.01374 1.68129 0
M  V30 5540 C 531.471 4.16821 1.13507 0
M  V30 5541 C 530.606 4.81085 2.25234 0
M  V30 5542 C 529.645 5.88621 1.67903 0
M  V30 5543 N 528.782 6.46713 2.73326 0
M  V30 5544 H 533.622 2.97898 -0.0778607 0
M  V30 5545 H 531.159 1.47014 -0.0501965 0
M  V30 5546 H 533.117 3.44125 2.35868 0
M  V30 5547 H 531.747 2.30419 2.26069 0
M  V30 5548 H 530.799 3.78796 0.348979 0
M  V30 5549 H 532.111 4.94203 0.675633 0
M  V30 5550 H 531.265 5.26846 3.00862 0
M  V30 5551 H 530.004 4.03102 2.74518 0
M  V30 5552 H 529.009 5.42254 0.907773 0
M  V30 5553 H 530.234 6.68506 1.19487 0
M  V30 5554 H 528.18 5.71599 3.21886 0
M  V30 5555 H 528.097 7.19532 2.3197 0
M  V30 5556 H 529.365 6.97129 3.48758 0
M  V30 5557 N 533.594 0.0601682 1.57485 0
M  V30 5558 C 534.504 -0.926121 2.15546 0
M  V30 5559 C 535.52 -1.33532 1.11558 0
M  V30 5560 O 536.696 -1.4104 1.4377 0
M  V30 5561 C 533.761 -2.17952 2.69625 0
M  V30 5562 C 532.822 -1.82783 3.88444 0
M  V30 5563 C 532.055 -3.02148 4.39935 0
M  V30 5564 O 532.278 -4.15803 3.90466 0
M  V30 5565 O 531.212 -2.82639 5.31412 0
M  V30 5566 H 535.038 -0.462289 3.00161 0
M  V30 5567 H 532.623 -0.162246 1.48516 0
M  V30 5568 H 534.505 -2.91474 3.04337 0
M  V30 5569 H 533.18 -2.63456 1.88077 0
M  V30 5570 H 532.087 -1.06549 3.58606 0
M  V30 5571 H 533.42 -1.42072 4.7125 0
M  V30 5572 N 535.072 -1.5615 -0.213296 0
M  V30 5573 C 535.982 -1.96265 -1.28519 0
M  V30 5574 C 536.998 -0.86765 -1.50824 0
M  V30 5575 O 538.174 -1.17191 -1.63793 0
M  V30 5576 C 535.239 -2.27836 -2.61327 0
M  V30 5577 C 534.3 -3.50949 -2.47252 0
M  V30 5578 C 533.533 -3.81004 -3.73727 0
M  V30 5579 O 533.756 -3.12612 -4.77106 0
M  V30 5580 O 532.69 -4.74477 -3.70344 0
M  V30 5581 H 536.516 -2.87631 -0.974795 0
M  V30 5582 H 534.101 -1.43467 -0.416832 0
M  V30 5583 H 535.983 -2.49299 -3.39747 0
M  V30 5584 H 534.658 -1.39643 -2.9203 0
M  V30 5585 H 533.565 -3.34754 -1.67004 0
M  V30 5586 H 534.898 -4.39551 -2.21486 0
M  V30 5587 N 536.55 0.480323 -1.50102 0
M  V30 5588 C 537.46 1.60547 -1.71061 0
M  V30 5589 C 538.476 1.63564 -0.593529 0
M  V30 5590 O 539.652 1.81604 -0.870751 0
M  V30 5591 C 536.717 2.96814 -1.79171 0
M  V30 5592 C 535.778 3.04259 -3.02861 0
M  V30 5593 C 535.011 4.34027 -3.10574 0
M  V30 5594 O 535.234 5.24009 -2.25323 0
M  V30 5595 O 534.168 4.46873 -4.03223 0
M  V30 5596 H 537.994 1.45788 -2.6642 0
M  V30 5597 H 535.579 0.658838 -1.34088 0
M  V30 5598 H 537.461 3.77765 -1.86738 0
M  V30 5599 H 536.136 3.11791 -0.869947 0
M  V30 5600 H 535.043 2.22419 -3.008 0
M  V30 5601 H 536.376 2.94216 -3.94586 0
M  V30 5602 N 538.028 1.39524 0.732853 0
M  V30 5603 C 538.938 1.40695 1.87729 0
M  V30 5604 C 539.954 0.301496 1.71368 0
M  V30 5605 O 541.13 0.543313 1.93933 0
M  V30 5606 C 538.195 1.25098 3.23344 0
M  V30 5607 C 537.256 2.45634 3.52083 0
M  V30 5608 C 536.489 2.30772 4.81228 0
M  V30 5609 O 536.712 1.31233 5.55098 0
M  V30 5610 O 535.646 3.19799 5.09914 0
M  V30 5611 H 539.472 2.37168 1.89697 0
M  V30 5612 H 537.057 1.20663 0.880959 0
M  V30 5613 H 538.939 1.18541 4.04383 0
M  V30 5614 H 537.614 0.317209 3.22142 0
M  V30 5615 H 536.521 2.57767 2.71122 0
M  V30 5616 H 537.854 3.37712 3.58066 0
M  V30 5617 N 539.506 -0.963266 1.24736 0
M  V30 5618 C 540.416 -2.09246 1.06082 0
M  V30 5619 C 541.432 -1.74 0.000363101 0
M  V30 5620 O 542.608 -2.0041 0.199479 0
M  V30 5621 C 539.673 -3.40115 0.672498 0
M  V30 5622 C 538.734 -3.89282 1.80993 0
M  V30 5623 C 537.967 -5.13905 1.44004 0
M  V30 5624 O 538.19 -5.69434 0.331835 0
M  V30 5625 O 537.124 -5.57566 2.26723 0
M  V30 5626 H 540.95 -2.27881 2.00759 0
M  V30 5627 H 538.535 -1.07649 1.03595 0
M  V30 5628 H 540.417 -4.18797 0.467668 0
M  V30 5629 H 539.092 -3.22771 -0.245102 0
M  V30 5630 H 537.999 -3.11642 2.06955 0
M  V30 5631 H 539.332 -4.1111 2.70646 0
M  V30 5632 N 540.985 -1.06182 -1.16461 0
M  V30 5633 C 542.396 -0.802426 -1.68576 0
M  V30 5634 C 542.747 0.67412 -1.84255 0
M  V30 5635 O 541.872 1.52303 -1.5373 0
M  V30 5636 C 542.467 -1.45002 -3.06202 0
M  V30 5637 C 541.026 -1.23843 -3.55443 0
M  V30 5638 C 540.173 -1.52724 -2.31454 0
M  V30 5639 H 543.124 -1.22545 -1.00839 0
M  V30 5640 H 543.145 -0.864731 -3.70544 0
M  V30 5641 H 542.657 -2.52466 -2.94759 0
M  V30 5642 H 540.758 -0.183487 -3.72148 0
M  V30 5643 H 540.871 -1.95036 -4.37604 0
M  V30 5644 H 539.235 -0.947726 -2.36411 0
M  V30 5645 H 540.018 -2.61343 -2.22609 0
M  V30 5646 N 542.463 1.3308 -0.844243 0
M  V30 5647 C 543.393 2.3161 -0.296493 0
M  V30 5648 C 544.374 1.59215 0.598707 0
M  V30 5649 O 545.559 1.87077 0.521134 0
M  V30 5650 C 542.689 3.43313 0.524762 0
M  V30 5651 C 541.643 4.27115 -0.275106 0
M  V30 5652 C 540.969 5.30483 0.670236 0
M  V30 5653 C 542.269 5.00443 -1.49514 0
M  V30 5654 H 543.963 2.77672 -1.11976 0
M  V30 5655 H 541.509 1.33496 -0.539899 0
M  V30 5656 H 543.462 4.11273 0.918298 0
M  V30 5657 H 542.186 2.95952 1.3813 0
M  V30 5658 H 540.845 3.60787 -0.650267 0
M  V30 5659 H 540.493 4.79379 1.52332 0
M  V30 5660 H 540.193 5.87435 0.139123 0
M  V30 5661 H 541.717 6.01308 1.06117 0
M  V30 5662 H 543.131 5.61141 -1.17447 0
M  V30 5663 H 541.528 5.67071 -1.96343 0
M  V30 5664 H 542.598 4.28906 -2.26202 0
M  V30 5665 N 543.941 0.601185 1.45683 0
M  V30 5666 C 545.352 0.179659 1.85834 0
M  V30 5667 C 545.703 -1.26189 1.50236 0
M  V30 5668 O 544.828 -1.95587 0.925987 0
M  V30 5669 C 545.423 0.319277 3.37292 0
M  V30 5670 C 543.982 -0.0475092 3.7637 0
M  V30 5671 C 543.129 0.646692 2.69654 0
M  V30 5672 H 546.08 0.808268 1.36575 0
M  V30 5673 H 546.101 -0.4503 3.77826 0
M  V30 5674 H 545.613 1.36855 3.6317 0
M  V30 5675 H 543.714 -1.0962 3.5611 0
M  V30 5676 H 543.827 0.34168 4.7788 0
M  V30 5677 H 542.191 0.0849971 2.54558 0
M  V30 5678 H 542.974 1.69797 2.98369 0
M  V30 5679 N 545.419 -1.53889 0.339982 0
M  V30 5680 C 546.647 -2.05271 -0.259114 0
M  V30 5681 C 547.062 -1.21517 -1.44496 0
M  V30 5682 O 546.419 -0.24966 -1.80784 0
M  V30 5683 C 546.47 -3.55092 -0.677634 0
M  V30 5684 O 546.191 -4.35667 0.461051 0
M  V30 5685 C 547.692 -4.22631 -1.33782 0
M  V30 5686 H 544.912 -0.669085 -0.0506566 0
M  V30 5687 H 547.456 -1.9852 0.490935 0
M  V30 5688 H 545.611 -3.62077 -1.37763 0
M  V30 5689 H 546.025 -5.24343 0.128144 0
M  V30 5690 H 547.499 -5.28861 -1.58145 0
M  V30 5691 H 547.976 -3.74758 -2.29027 0
M  V30 5692 H 548.582 -4.19829 -0.679957 0
M  V30 5693 N 546.897 -0.0685191 -1.57451 0
M  V30 5694 C 547.844 0.899861 -2.12535 0
M  V30 5695 C 548.814 1.29749 -1.03703 0
M  V30 5696 O 549.999 1.38392 -1.31348 0
M  V30 5697 C 547.139 2.16328 -2.6888 0
M  V30 5698 C 546.252 1.81857 -3.91857 0
M  V30 5699 C 545.387 3.02786 -4.36457 0
M  V30 5700 C 544.426 2.64317 -5.5209 0
M  V30 5701 N 543.563 3.77994 -5.91663 0
M  V30 5702 H 548.403 0.423243 -2.94979 0
M  V30 5703 H 545.94 0.197268 -1.45771 0
M  V30 5704 H 547.898 2.90281 -2.99655 0
M  V30 5705 H 546.528 2.61536 -1.89206 0
M  V30 5706 H 545.58 0.979808 -3.67565 0
M  V30 5707 H 546.892 1.49553 -4.75852 0
M  V30 5708 H 546.046 3.85021 -4.68875 0
M  V30 5709 H 544.785 3.38281 -3.51308 0
M  V30 5710 H 543.79 1.80503 -5.19325 0
M  V30 5711 H 545.015 2.29995 -6.38967 0
M  V30 5712 H 542.961 4.13258 -5.09464 0
M  V30 5713 H 542.878 3.49447 -6.7039 0
M  V30 5714 H 544.146 4.60818 -6.28703 0
M  V30 5715 N 548.375 1.56261 0.205012 0
M  V30 5716 C 549.322 1.93754 1.25411 0
M  V30 5717 C 550.292 0.796826 1.45739 0
M  V30 5718 O 551.477 1.05414 1.59036 0
M  V30 5719 C 548.617 2.27383 2.59598 0
M  V30 5720 C 547.73 3.5447 2.46931 0
M  V30 5721 C 546.865 3.77468 3.73753 0
M  V30 5722 C 545.904 4.98014 3.55877 0
M  V30 5723 N 545.041 5.17316 4.74688 0
M  V30 5724 H 549.881 2.83203 0.92737 0
M  V30 5725 H 547.418 1.40158 0.446574 0
M  V30 5726 H 549.376 2.44895 3.37761 0
M  V30 5727 H 548.006 1.41088 2.90335 0
M  V30 5728 H 547.058 3.45061 1.60116 0
M  V30 5729 H 548.37 4.42789 2.29651 0
M  V30 5730 H 547.524 3.95165 4.60358 0
M  V30 5731 H 546.263 2.87461 3.93976 0
M  V30 5732 H 545.268 4.80249 2.67657 0
M  V30 5733 H 546.493 5.8952 3.37109 0
M  V30 5734 H 544.439 4.30255 4.95194 0
M  V30 5735 H 544.356 5.99796 4.60197 0
M  V30 5736 H 545.624 5.39463 5.62672 0
M  V30 5737 N 549.853 -0.472356 1.50355 0
M  V30 5738 C 551.099 -1.22348 1.62488 0
M  V30 5739 C 551.454 -1.89711 0.320574 0
M  V30 5740 O 550.747 -1.79074 -0.68141 0
M  V30 5741 C 550.941 -2.29257 2.74182 0
M  V30 5742 C 550.77 -1.72383 4.15348 0
M  V30 5743 C 549.54 -1.52411 4.81766 0
M  V30 5744 C 551.738 -1.21949 4.99633 0
M  V30 5745 N 549.72 -0.907669 6.07153 0
M  V30 5746 C 551.091 -0.726191 6.15732 0
M  V30 5747 C 553.146 -1.10792 4.85417 0
M  V30 5748 C 551.849 -0.132322 7.19178 0
M  V30 5749 C 553.875 -0.52799 5.89038 0
M  V30 5750 C 553.237 -0.0450604 7.04386 0
M  V30 5751 H 549.336 -0.436631 0.648751 0
M  V30 5752 H 551.92 -0.525698 1.87469 0
M  V30 5753 H 550.091 -2.96464 2.50926 0
M  V30 5754 H 551.823 -2.9628 2.75681 0
M  V30 5755 H 548.578 -1.776 4.39039 0
M  V30 5756 H 549.002 -0.617897 6.74174 0
M  V30 5757 H 553.644 -1.46722 3.96525 0
M  V30 5758 H 551.362 0.239187 8.07746 0
M  V30 5759 H 554.948 -0.444046 5.80103 0
M  V30 5760 H 553.828 0.396659 7.83196 0
M  V30 5761 N 551.331 -1.39911 -0.725443 0
M  V30 5762 C 552.742 -1.33599 -1.30415 0
M  V30 5763 C 553.093 -0.00481792 -1.96199 0
M  V30 5764 O 552.218 0.897275 -1.96921 0
M  V30 5765 C 552.813 -2.41965 -2.37146 0
M  V30 5766 C 551.372 -2.39144 -2.90667 0
M  V30 5767 C 550.519 -2.23355 -1.64341 0
M  V30 5768 H 553.47 -1.4986 -0.522267 0
M  V30 5769 H 553.491 -2.09304 -3.17761 0
M  V30 5770 H 553.003 -3.38837 -1.89238 0
M  V30 5771 H 551.104 -1.4594 -3.4283 0
M  V30 5772 H 551.217 -3.34362 -3.43131 0
M  V30 5773 H 549.581 -1.70696 -1.89037 0
M  V30 5774 H 550.364 -3.2221 -1.18471 0
M  V30 5775 N 552.809 0.956637 -1.25245 0
M  V30 5776 C 554.037 1.73571 -1.12608 0
M  V30 5777 C 554.452 1.86063 0.320324 0
M  V30 5778 O 553.809 1.35691 1.22042 0
M  V30 5779 C 553.86 3.15053 -1.77268 0
M  V30 5780 O 553.581 3.03174 -3.16255 0
M  V30 5781 C 555.082 4.09248 -1.70386 0
M  V30 5782 H 552.302 0.543955 -0.392879 0
M  V30 5783 H 554.846 1.20031 -1.65568 0
M  V30 5784 H 553.001 3.65543 -1.28284 0
M  V30 5785 H 553.415 3.9241 -3.48015 0
M  V30 5786 H 554.889 5.06138 -2.20291 0
M  V30 5787 H 555.366 4.34102 -0.667239 0
M  V30 5788 H 555.972 3.64672 -2.18849 0
M  V30 5789 N 554.287 1.06798 1.15896 0
M  V30 5790 C 555.533 0.788934 1.86825 0
M  V30 5791 C 555.866 -0.683084 1.8179 0
M  V30 5792 O 555.141 -1.50086 1.23711 0
M  V30 5793 C 555.424 1.29065 3.36176 0
M  V30 5794 C 555.277 2.8268 3.49874 0
M  V30 5795 C 556.596 0.902655 4.30744 0
M  V30 5796 H 553.715 0.288066 0.678371 0
M  V30 5797 H 556.357 1.32479 1.36195 0
M  V30 5798 H 554.507 0.834806 3.79425 0
M  V30 5799 H 556.179 3.36511 3.15528 0
M  V30 5800 H 554.422 3.21157 2.91617 0
M  V30 5801 H 555.093 3.12852 4.54783 0
M  V30 5802 H 557.569 1.29535 3.95424 0
M  V30 5803 H 556.445 1.28111 5.3374 0
M  V30 5804 H 556.706 -0.191951 4.41683 0
M  V30 5805 N 555.766 -1.3263 0.851289 0
M  V30 5806 C 557.043 -1.91982 0.374448 0
M  V30 5807 C 557.423 -1.77568 -1.14161 0
M  V30 5808 O 556.771 -1.1717 -1.96172 0
M  V30 5809 C 556.981 -3.38862 0.835088 0
M  V30 5810 C 558.329 -4.15999 0.850309 0
M  V30 5811 O 559.353 -3.47566 0.779505 0
M  V30 5812 O 558.212 -5.38189 0.949481 0
M  V30 5813 H 555.306 -0.819846 0.10854 0
M  V30 5814 H 557.852 -1.41422 0.937966 0
M  V30 5815 H 556.624 -3.43281 1.87814 0
M  V30 5816 H 556.247 -3.96821 0.248833 0
M  V30 5817 N 557.244 -0.608902 -1.45362 0
M  V30 5818 C 558.207 0.0992563 -2.28985 0
M  V30 5819 C 559.207 0.793841 -1.39838 0
M  V30 5820 O 560.397 0.641804 -1.61946 0
M  V30 5821 C 557.529 1.15073 -3.20891 0
M  V30 5822 H 558.722 -0.635964 -2.93079 0
M  V30 5823 H 556.275 -0.368007 -1.51906 0
M  V30 5824 H 557.01 1.91667 -2.616 0
M  V30 5825 H 556.795 0.656867 -3.86559 0
M  V30 5826 H 558.285 1.64665 -3.83765 0
M  V30 5827 N 558.722 1.53707 -0.348139 0
M  V30 5828 C 559.947 2.05877 0.250883 0
M  V30 5829 C 560.372 1.22115 1.43072 0
M  V30 5830 O 559.73 0.235986 1.79758 0
M  V30 5831 C 559.778 3.54886 0.639416 0
M  V30 5832 O 558.882 3.73948 1.73888 0
M  V30 5833 H 558.223 0.662754 0.040653 0
M  V30 5834 H 560.753 1.98303 -0.503685 0
M  V30 5835 H 560.763 3.97601 0.915295 0
M  V30 5836 H 559.438 4.153 -0.223386 0
M  V30 5837 H 558.015 3.43134 1.45991 0
M  V30 5838 N 560.2 0.0768682 1.57412 0
M  V30 5839 C 561.43 -0.5991 1.97723 0
M  V30 5840 C 561.838 -1.63378 0.954166 0
M  V30 5841 O 561.181 -1.83578 -0.0668706 0
M  V30 5842 C 561.243 -1.32078 3.34358 0
M  V30 5843 C 560.907 -0.438985 4.54887 0
M  V30 5844 C 561.904 0.305492 5.19002 0
M  V30 5845 C 559.589 -0.362378 5.00991 0
M  V30 5846 C 561.583 1.11475 6.27576 0
M  V30 5847 C 559.27 0.450543 6.09437 0
M  V30 5848 C 560.268 1.18777 6.72593 0
M  V30 5849 O 559.956 1.98727 7.7895 0
M  V30 5850 H 559.688 -0.166725 0.655117 0
M  V30 5851 H 562.242 0.147337 2.04871 0
M  V30 5852 H 560.472 -2.1134 3.2384 0
M  V30 5853 H 562.161 -1.88949 3.5924 0
M  V30 5854 H 562.927 0.25593 4.84324 0
M  V30 5855 H 558.806 -0.925832 4.51608 0
M  V30 5856 H 562.35 1.69068 6.76803 0
M  V30 5857 H 558.247 0.501651 6.43548 0
M  V30 5858 H 559.015 1.91214 7.95851 0
M  V30 5859 N 561.678 -1.56367 -0.196722 0
M  V30 5860 C 562.908 -1.84371 -0.932254 0
M  V30 5861 C 563.316 -0.657013 -1.77426 0
M  V30 5862 O 562.659 0.383576 -1.79651 0
M  V30 5863 C 562.721 -3.06454 -1.87952 0
M  V30 5864 C 562.385 -4.40425 -1.21962 0
M  V30 5865 C 563.382 -5.16457 -0.597343 0
M  V30 5866 C 561.067 -4.8716 -1.22396 0
M  V30 5867 C 563.061 -6.37399 0.0117913 0
M  V30 5868 C 560.748 -6.08038 -0.610995 0
M  V30 5869 C 561.746 -6.83 0.00580487 0
M  V30 5870 O 561.434 -8.01589 0.609173 0
M  V30 5871 H 561.166 -0.616377 -0.277589 0
M  V30 5872 H 563.72 -2.04329 -0.209452 0
M  V30 5873 H 561.95 -2.82377 -2.64197 0
M  V30 5874 H 563.639 -3.21118 -2.48271 0
M  V30 5875 H 564.405 -4.81445 -0.586142 0
M  V30 5876 H 560.284 -4.2877 -1.69345 0
M  V30 5877 H 563.828 -6.9585 0.493836 0
M  V30 5878 H 559.725 -6.42519 -0.619693 0
M  V30 5879 H 560.493 -8.16935 0.505919 0
M  V30 5880 N 563.156 0.464375 -1.50603 0
M  V30 5881 C 564.404 1.21356 -1.61608 0
M  V30 5882 C 564.725 1.92329 -0.321643 0
M  V30 5883 O 563.995 1.84403 0.661232 0
M  V30 5884 H 562.575 0.45094 -0.595535 0
M  V30 5885 H 565.237 0.535046 -1.87412 0
M  V30 5886 H 564.333 1.95783 -2.43054 0
M  V30 5887 N 564.634 1.40294 0.718013 0
M  V30 5888 C 565.882 1.38167 1.47494 0
M  V30 5889 C 566.203 -0.01607 1.94993 0
M  V30 5890 O 565.473 -0.970396 1.70177 0
M  V30 5891 H 564.053 0.508505 0.547203 0
M  V30 5892 H 566.715 1.75324 0.851322 0
M  V30 5893 H 565.811 2.05503 2.34894 0
M  V30 5894 N 566.112 -0.949982 1.2575 0
M  V30 5895 C 567.528 -1.22191 1.02672 0
M  V30 5896 C 567.728 -1.99898 -0.253588 0
M  V30 5897 O 566.784 -2.33329 -0.965076 0
M  V30 5898 C 568.097 -1.99175 2.25277 0
M  V30 5899 C 569.645 -2.12201 2.30087 0
M  V30 5900 C 570.12 -2.92586 3.5236 0
M  V30 5901 N 571.611 -3.00163 3.52784 0
M  V30 5902 C 572.346 -3.62766 4.44059 0
M  V30 5903 N 571.842 -4.26943 5.45611 0
M  V30 5904 N 573.635 -3.59953 4.3173 0
M  V30 5905 H 565.786 -0.430258 2.07996 0
M  V30 5906 H 568.049 -0.252844 0.91366 0
M  V30 5907 H 567.755 -1.49479 3.18354 0
M  V30 5908 H 567.629 -2.99868 2.28821 0
M  V30 5909 H 570.016 -2.61093 1.3753 0
M  V30 5910 H 570.097 -1.10799 2.30559 0
M  V30 5911 H 569.741 -2.44383 4.45241 0
M  V30 5912 H 569.671 -3.94224 3.49134 0
M  V30 5913 H 572.162 -2.54529 2.79327 0
M  V30 5914 H 572.475 -4.72583 6.11461 0
M  V30 5915 H 570.82 -4.25557 5.49478 0
M  V30 5916 H 574.011 -3.09003 3.51617 0
M  V30 5917 H 574.184 -4.08455 5.03059 0
M  V30 5918 N 567.59 -1.07411 -1.15328 0
M  V30 5919 C 568.838 -0.796073 -1.85761 0
M  V30 5920 C 569.159 0.679864 -1.82764 0
M  V30 5921 O 568.429 1.49242 -1.269 0
M  V30 5922 H 567.009 -0.291495 -0.687779 0
M  V30 5923 H 569.671 -1.35799 -1.39802 0
M  V30 5924 H 568.767 -1.13114 -2.90881 0
M  V30 5925 N 569.068 1.32177 -0.85831 0
M  V30 5926 C 570.314 1.97417 -0.46417 0
M  V30 5927 C 570.647 1.67746 0.978514 0
M  V30 5928 O 569.922 0.967654 1.68721 0
M  V30 5929 C 570.205 3.53069 -0.708094 0
M  V30 5930 C 570.058 3.92357 -2.19946 0
M  V30 5931 C 571.377 4.39783 -0.166881 0
M  V30 5932 H 568.496 0.717097 -0.17012 0
M  V30 5933 H 571.138 1.56499 -1.07741 0
M  V30 5934 H 569.288 3.88054 -0.186128 0
M  V30 5935 H 570.96 3.67533 -2.78779 0
M  V30 5936 H 569.203 3.41384 -2.67656 0
M  V30 5937 H 569.874 5.00841 -2.32082 0
M  V30 5938 H 572.35 4.11556 -0.613285 0
M  V30 5939 H 571.226 5.47671 -0.367093 0
M  V30 5940 H 571.487 4.32196 0.930559 0
M  V30 5941 N 570.547 0.616602 1.45037 0
M  V30 5942 C 571.795 0.115103 2.01772 0
M  V30 5943 C 572.116 -1.2622 1.48639 0
M  V30 5944 O 571.386 -1.83563 0.684199 0
M  V30 5945 H 569.966 0.0395607 0.745952 0
M  V30 5946 H 572.628 0.800032 1.77723 0
M  V30 5947 H 571.724 0.0717274 3.12018 0
M  V30 5948 N 572.025 -1.5352 0.356285 0
M  V30 5949 C 573.273 -2.00719 -0.235837 0
M  V30 5950 C 573.594 -1.24551 -1.5004 0
M  V30 5951 O 572.864 -0.356185 -1.92635 0
M  V30 5952 H 571.444 -0.741542 -0.0901366 0
M  V30 5953 H 574.106 -1.88887 0.480378 0
M  V30 5954 H 573.202 -3.08551 -0.469357 0
M  V30 5955 N 573.503 -0.0852151 -1.57369 0
M  V30 5956 C 574.752 0.580443 -1.93168 0
M  V30 5957 C 575.065 1.6995 -0.968319 0
M  V30 5958 O 576.271 2.42564 -1.21963 0
M  V30 5959 C 574.727 1.08386 -3.43192 0
M  V30 5960 C 574.335 -0.00491388 -4.48 0
M  V30 5961 C 576.079 1.72281 -3.87968 0
M  V30 5962 C 573.986 0.513299 -5.89168 0
M  V30 5963 H 572.916 0.22059 -0.72101 0
M  V30 5964 H 575.567 -0.159621 -1.82804 0
M  V30 5965 H 573.949 1.8773 -3.48674 0
M  V30 5966 H 575.123 -0.780032 -4.5415 0
M  V30 5967 H 573.438 -0.548453 -4.12772 0
M  V30 5968 H 576.035 2.12108 -4.9083 0
M  V30 5969 H 576.378 2.58811 -3.26071 0
M  V30 5970 H 576.911 0.995359 -3.85146 0
M  V30 5971 H 573.65 -0.315153 -6.54742 0
M  V30 5972 H 573.17 1.25564 -5.8651 0
M  V30 5973 H 574.849 0.985433 -6.39451 0
M  V30 5974 N 574.981 1.5647 0.188427 0
M  V30 5975 C 575.928 1.95073 1.23349 0
M  V30 5976 C 576.898 0.812238 1.44886 0
M  V30 5977 O 578.083 1.07095 1.57909 0
M  V30 5978 C 575.223 2.30124 2.57171 0
M  V30 5979 C 574.336 3.57069 2.43157 0
M  V30 5980 C 573.471 3.81411 3.69729 0
M  V30 5981 C 572.51 5.0176 3.50575 0
M  V30 5982 N 571.647 5.22321 4.69175 0
M  V30 5983 H 576.487 2.84171 0.89728 0
M  V30 5984 H 574.024 1.40623 0.431683 0
M  V30 5985 H 575.982 2.48463 3.35145 0
M  V30 5986 H 574.612 1.44159 2.88822 0
M  V30 5987 H 573.664 3.4674 1.56447 0
M  V30 5988 H 574.976 4.452 2.24942 0
M  V30 5989 H 574.13 4.00026 4.56141 0
M  V30 5990 H 572.869 2.91624 3.90905 0
M  V30 5991 H 571.874 4.83061 2.62549 0
M  V30 5992 H 573.099 5.93063 3.30837 0
M  V30 5993 H 571.045 4.35483 4.90602 0
M  V30 5994 H 570.962 6.04643 4.53809 0
M  V30 5995 H 572.23 5.45401 5.56919 0
M  V30 5996 N 576.459 -0.456382 1.50847 0
M  V30 5997 C 577.875 -0.791345 1.386 0
M  V30 5998 C 578.075 -1.9633 0.453498 0
M  V30 5999 O 577.131 -2.52308 -0.0984353 0
M  V30 6000 C 578.444 -1.08959 2.80265 0
M  V30 6001 C 579.992 -1.19517 2.89283 0
M  V30 6002 C 580.467 -1.52647 4.31814 0
M  V30 6003 N 581.958 -1.59609 4.34832 0
M  V30 6004 C 582.693 -1.86777 5.42127 0
M  V30 6005 N 582.189 -2.11866 6.59609 0
M  V30 6006 N 583.982 -1.88402 5.29586 0
M  V30 6007 H 576.133 0.315746 2.1004 0
M  V30 6008 H 578.396 0.0787916 0.94472 0
M  V30 6009 H 578.102 -0.301355 3.50407 0
M  V30 6010 H 577.976 -2.02211 3.18419 0
M  V30 6011 H 580.363 -1.97406 2.19351 0
M  V30 6012 H 580.444 -0.242111 2.54652 0
M  V30 6013 H 580.088 -0.752922 5.02288 0
M  V30 6014 H 580.018 -2.49127 4.63943 0
M  V30 6015 H 582.509 -1.42201 3.50125 0
M  V30 6016 H 582.822 -2.31912 7.37182 0
M  V30 6017 H 581.167 -2.09228 6.62758 0
M  V30 6018 H 584.358 -1.68307 4.36795 0
M  V30 6019 H 584.531 -2.09238 6.13289 0
M  V30 6020 N 577.937 -1.40673 -0.710563 0
M  V30 6021 C 578.87 -1.35742 -1.83438 0
M  V30 6022 C 579.848 -0.226997 -1.61008 0
M  V30 6023 O 581.032 -0.411477 -1.83954 0
M  V30 6024 C 578.159 -1.11374 -3.19865 0
M  V30 6025 C 577.205 -2.26935 -3.61113 0
M  V30 6026 S 578.038 -3.89352 -3.67648 0
M  V30 6027 C 579.194 -3.67258 -5.06826 0
M  V30 6028 H 579.427 -2.30848 -1.87341 0
M  V30 6029 H 576.96 -1.27018 -0.877831 0
M  V30 6030 H 578.918 -0.980004 -3.9863 0
M  V30 6031 H 577.579 -0.179135 -3.13589 0
M  V30 6032 H 576.772 -2.0554 -4.60184 0
M  V30 6033 H 576.374 -2.36638 -2.89618 0
M  V30 6034 H 578.666 -3.26036 -5.93891 0
M  V30 6035 H 579.609 -4.65878 -5.33257 0
M  V30 6036 H 580.017 -3.0084 -4.77656 0
M  V30 6037 N 579.415 0.9433 -1.26252 0
M  V30 6038 C 580.325 2.07532 -1.09397 0
M  V30 6039 C 581.341 1.73977 -0.0280449 0
M  V30 6040 O 582.517 2.00067 -0.231337 0
M  V30 6041 C 579.582 3.39002 -0.726523 0
M  V30 6042 C 578.643 3.86353 -1.87163 0
M  V30 6043 C 577.876 5.11549 -1.52162 0
M  V30 6044 O 578.099 5.68834 -0.422385 0
M  V30 6045 O 577.033 5.53889 -2.35565 0
M  V30 6046 H 580.859 2.24658 -2.04359 0
M  V30 6047 H 578.444 1.05988 -1.05295 0
M  V30 6048 H 580.326 4.18 -0.534236 0
M  V30 6049 H 579.001 3.2312 0.193721 0
M  V30 6050 H 577.908 3.0831 -2.11886 0
M  V30 6051 H 579.241 4.06752 -2.77152 0
M  V30 6052 N 580.893 1.08022 1.14757 0
M  V30 6053 C 582.139 0.808705 1.85978 0
M  V30 6054 C 582.472 -0.663764 1.82504 0
M  V30 6055 O 581.747 -1.48765 1.25296 0
M  V30 6056 C 582.03 1.32623 3.34788 0
M  V30 6057 C 581.883 2.86375 3.46856 0
M  V30 6058 C 583.202 0.948291 4.29762 0
M  V30 6059 H 580.321 0.295244 0.675278 0
M  V30 6060 H 582.963 1.33917 1.34783 0
M  V30 6061 H 581.113 0.875002 3.78518 0
M  V30 6062 H 582.785 3.39839 3.11941 0
M  V30 6063 H 581.028 3.24232 2.88194 0
M  V30 6064 H 581.699 3.17658 4.51439 0
M  V30 6065 H 584.175 1.33722 3.94028 0
M  V30 6066 H 583.051 1.33765 5.32352 0
M  V30 6067 H 583.312 -0.145094 4.41862 0
M  V30 6068 N 582.371 -1.3172 0.865308 0
M  V30 6069 C 583.787 -1.4958 0.556596 0
M  V30 6070 C 583.987 -1.79763 -0.910353 0
M  V30 6071 O 583.043 -1.87351 -1.6928 0
M  V30 6072 C 584.356 -2.63277 1.45279 0
M  V30 6073 C 585.904 -2.77161 1.45433 0
M  V30 6074 C 586.379 -3.93949 2.33598 0
M  V30 6075 N 587.87 -4.01228 2.31453 0
M  V30 6076 C 588.605 -4.90855 2.96393 0
M  V30 6077 N 588.101 -5.85416 3.70486 0
M  V30 6078 N 589.894 -4.84063 2.85726 0
M  V30 6079 H 582.045 -1.10396 1.81456 0
M  V30 6080 H 584.308 -0.54507 0.775631 0
M  V30 6081 H 584.014 -2.47734 2.49641 0
M  V30 6082 H 583.888 -3.59309 1.14792 0
M  V30 6083 H 586.275 -2.9212 0.41831 0
M  V30 6084 H 586.356 -1.8181 1.79941 0
M  V30 6085 H 586 -3.79748 3.37274 0
M  V30 6086 H 585.93 -4.88598 1.96417 0
M  V30 6087 H 588.421 -3.3357 1.77593 0
M  V30 6088 H 588.734 -6.50525 4.17178 0
M  V30 6089 H 587.079 -5.85409 3.74594 0
M  V30 6090 H 590.27 -4.09163 2.27384 0
M  V30 6091 H 590.443 -5.53708 3.36617 0
M  V30 6092 N 583.85 -0.624285 -1.44708 0
M  V30 6093 C 585.096 -0.13473 -2.02953 0
M  V30 6094 C 585.451 1.22724 -1.48178 0
M  V30 6095 O 584.744 1.80109 -0.653542 0
M  V30 6096 C 584.938 -0.0546353 -3.57358 0
M  V30 6097 C 584.767 -1.40729 -4.27113 0
M  V30 6098 C 583.537 -1.99231 -4.64365 0
M  V30 6099 C 585.735 -2.33968 -4.58 0
M  V30 6100 N 583.716 -3.27803 -5.19055 0
M  V30 6101 C 585.088 -3.47149 -5.137 0
M  V30 6102 C 587.143 -2.33132 -4.39948 0
M  V30 6103 C 585.846 -4.59682 -5.53249 0
M  V30 6104 C 587.872 -3.44724 -4.8054 0
M  V30 6105 C 587.234 -4.56629 -5.36348 0
M  V30 6106 H 583.332 -0.0930617 -0.776443 0
M  V30 6107 H 585.917 -0.826286 -1.76297 0
M  V30 6108 H 584.088 0.606183 -3.8364 0
M  V30 6109 H 585.82 0.443116 -4.02267 0
M  V30 6110 H 582.575 -1.52251 -4.4846 0
M  V30 6111 H 582.999 -3.93519 -5.50883 0
M  V30 6112 H 587.641 -1.47868 -3.961 0
M  V30 6113 H 585.359 -5.4566 -5.96054 0
M  V30 6114 H 588.945 -3.45245 -4.68291 0
M  V30 6115 H 587.825 -5.41551 -5.67179 0
M  V30 6116 N 585.328 1.53329 -0.364422 0
M  V30 6117 C 586.576 2.00842 0.225189 0
M  V30 6118 C 586.897 1.25345 1.49378 0
M  V30 6119 O 586.167 0.366396 1.92443 0
M  V30 6120 H 584.747 0.742009 0.0862027 0
M  V30 6121 H 587.409 1.8863 -0.490389 0
M  V30 6122 H 586.505 3.08795 0.452987 0
M  V30 6123 N 586.806 0.0935595 1.57322 0
M  V30 6124 C 588.083 -0.612692 1.85756 0
M  V30 6125 C 588.463 -1.86439 0.99013 0
M  V30 6126 O 587.811 -2.28416 0.0621362 0
M  V30 6127 C 588.021 -0.929547 3.36393 0
M  V30 6128 C 589.369 -1.29366 4.04413 0
M  V30 6129 O 590.393 -1.02061 3.41265 0
M  V30 6130 O 589.252 -1.80498 5.15832 0
M  V30 6131 H 586.346 -0.306444 0.768128 0
M  V30 6132 H 588.892 0.126141 1.69231 0
M  V30 6133 H 587.664 -0.0414766 3.91278 0
M  V30 6134 H 587.287 -1.72441 3.5826 0
M  V30 6135 N 588.284 -1.56567 -0.180126 0
M  V30 6136 C 589.231 -1.95725 -1.22313 0
M  V30 6137 C 590.201 -0.819911 -1.44453 0
M  V30 6138 O 591.386 -1.07931 -1.57339 0
M  V30 6139 C 588.526 -2.31484 -2.55947 0
M  V30 6140 C 587.639 -3.58354 -2.4126 0
M  V30 6141 C 586.774 -3.83366 -3.67701 0
M  V30 6142 C 585.813 -5.03612 -3.47909 0
M  V30 6143 N 584.95 -5.24802 -4.66398 0
M  V30 6144 H 589.79 -2.84642 -0.882198 0
M  V30 6145 H 587.327 -1.4085 -0.42422 0
M  V30 6146 H 589.285 -2.50237 -3.33822 0
M  V30 6147 H 587.915 -1.45689 -2.88053 0
M  V30 6148 H 586.967 -3.47565 -1.54606 0
M  V30 6149 H 588.279 -4.46386 -2.22577 0
M  V30 6150 H 587.433 -4.02439 -4.54013 0
M  V30 6151 H 586.172 -2.93692 -3.89353 0
M  V30 6152 H 585.177 -4.84447 -2.59983 0
M  V30 6153 H 586.402 -5.94809 -3.27688 0
M  V30 6154 H 584.348 -4.38079 -4.88286 0
M  V30 6155 H 584.265 -6.07041 -4.50596 0
M  V30 6156 H 585.533 -5.48346 -5.54019 0
M  V30 6157 N 589.762 0.448376 -1.51087 0
M  V30 6158 C 591.01 1.19635 -1.62886 0
M  V30 6159 C 591.331 1.91977 -0.342024 0
M  V30 6160 O 590.601 1.85094 0.641636 0
M  V30 6161 H 589.181 0.444598 -0.600285 0
M  V30 6162 H 591.843 0.515138 -1.87969 0
M  V30 6163 H 590.939 1.93194 -2.45117 0
M  V30 6164 N 591.24 1.41047 0.703093 0
M  V30 6165 C 592.465 1.43537 1.49706 0
M  V30 6166 C 592.89 0.0401853 1.88057 0
M  V30 6167 O 592.248 -0.954785 1.54122 0
M  V30 6168 C 592.296 2.3433 2.74084 0
M  V30 6169 O 591.4 1.79515 3.71279 0
M  V30 6170 H 590.741 0.487454 0.450871 0
M  V30 6171 H 593.271 1.85422 0.86486 0
M  V30 6172 H 593.281 2.49947 3.22476 0
M  V30 6173 H 591.956 3.35708 2.45506 0
M  V30 6174 H 590.533 1.7331 3.30179 0
M  V30 6175 N 592.718 -0.936591 1.26751 0
M  V30 6176 C 593.946 -1.71758 1.15355 0
M  V30 6177 C 594.361 -1.86549 -0.290683 0
M  V30 6178 O 593.718 -1.37616 -1.19868 0
M  V30 6179 C 593.769 -3.12193 1.82258 0
M  V30 6180 O 593.49 -2.98105 3.21038 0
M  V30 6181 C 594.991 -4.06485 1.76875 0
M  V30 6182 H 592.211 -0.537636 0.401483 0
M  V30 6183 H 594.755 -1.17382 1.67457 0
M  V30 6184 H 592.91 -3.63456 1.34083 0
M  V30 6185 H 593.324 -3.86824 3.54214 0
M  V30 6186 H 594.798 -5.02569 2.28316 0
M  V30 6187 H 595.275 -4.32986 0.736216 0
M  V30 6188 H 595.881 -3.61144 2.24623 0
M  V30 6189 N 594.196 -1.08629 -1.14182 0
M  V30 6190 C 595.106 -0.730126 -2.22949 0
M  V30 6191 C 596.122 0.26436 -1.7198 0
M  V30 6192 O 597.298 0.107742 -2.01112 0
M  V30 6193 C 594.363 -0.147227 -3.46387 0
M  V30 6194 C 593.424 -1.19662 -4.12286 0
M  V30 6195 C 592.657 -0.641437 -5.29831 0
M  V30 6196 O 592.88 0.538351 -5.67854 0
M  V30 6197 O 591.814 -1.39257 -5.85569 0
M  V30 6198 H 595.64 -1.63753 -2.55771 0
M  V30 6199 H 593.225 -0.860118 -1.22157 0
M  V30 6200 H 595.107 0.174923 -4.21037 0
M  V30 6201 H 593.782 0.733304 -3.15285 0
M  V30 6202 H 592.689 -1.57133 -3.395 0
M  V30 6203 H 594.022 -2.0495 -4.475 0
M  V30 6204 N 595.674 1.31259 -0.872281 0
M  V30 6205 C 596.584 2.32221 -0.333255 0
M  V30 6206 C 597.6 1.6481 0.558013 0
M  V30 6207 O 598.776 1.96212 0.454175 0
M  V30 6208 C 595.841 3.43708 0.454479 0
M  V30 6209 C 594.902 4.26774 -0.465024 0
M  V30 6210 C 594.135 5.32937 0.28521 0
M  V30 6211 O 594.358 5.49968 1.513 0
M  V30 6212 O 593.292 6.00834 -0.358126 0
M  V30 6213 H 597.118 2.80252 -1.17016 0
M  V30 6214 H 594.703 1.352 -0.635724 0
M  V30 6215 H 596.585 4.11656 0.900963 0
M  V30 6216 H 595.26 2.97836 1.26789 0
M  V30 6217 H 594.167 3.61571 -0.960055 0
M  V30 6218 H 595.5 4.76217 -1.2441 0
M  V30 6219 N 597.152 0.631951 1.44375 0
M  V30 6220 C 598.4 0.136497 2.01639 0
M  V30 6221 C 598.721 -1.24637 1.49969 0
M  V30 6222 O 597.991 -1.82827 0.70363 0
M  V30 6223 H 596.571 0.0474703 0.74549 0
M  V30 6224 H 599.233 0.818837 1.76865 0
M  V30 6225 H 598.329 0.104817 3.11924 0
M  V30 6226 N 598.631 -1.53133 0.372548 0
M  V30 6227 C 599.594 -2.24569 -0.458389 0
M  V30 6228 C 600.594 -1.25603 -1.00402 0
M  V30 6229 O 601.784 -1.49827 -0.888672 0
M  V30 6230 C 598.916 -2.98783 -1.6414 0
M  V30 6231 H 600.109 -2.99436 0.166799 0
M  V30 6232 H 597.662 -1.55805 0.124357 0
M  V30 6233 H 598.397 -2.28176 -2.30448 0
M  V30 6234 H 598.182 -3.71404 -1.25704 0
M  V30 6235 H 599.672 -3.53068 -2.23008 0
M  V30 6236 N 600.109 -0.101901 -1.5727 0
M  V30 6237 C 601.525 0.254739 -1.57554 0
M  V30 6238 C 601.725 1.67937 -1.11352 0
M  V30 6239 O 600.781 2.39722 -0.793081 0
M  V30 6240 C 602.094 0.036975 -3.00677 0
M  V30 6241 C 603.642 0.104199 -3.12827 0
M  V30 6242 C 604.117 -0.0856565 -4.5792 0
M  V30 6243 N 605.608 -0.0310498 -4.6319 0
M  V30 6244 C 606.343 -0.153099 -5.73196 0
M  V30 6245 N 605.839 -0.330364 -6.92012 0
M  V30 6246 N 607.632 -0.0938854 -5.62022 0
M  V30 6247 H 599.783 -1.03263 -1.85609 0
M  V30 6248 H 602.046 -0.405251 -0.857016 0
M  V30 6249 H 601.752 -0.947254 -3.38703 0
M  V30 6250 H 601.626 0.776335 -3.69124 0
M  V30 6251 H 604.013 1.07894 -2.74669 0
M  V30 6252 H 604.094 -0.666762 -2.46957 0
M  V30 6253 H 603.738 -1.05729 -4.96773 0
M  V30 6254 H 603.668 0.705082 -5.21858 0
M  V30 6255 H 606.159 0.103141 -3.77759 0
M  V30 6256 H 606.472 -0.41482 -7.71686 0
M  V30 6257 H 604.817 -0.366119 -6.94035 0
M  V30 6258 H 608.008 0.0435168 -4.6808 0
M  V30 6259 H 608.181 -0.19245 -6.47714 0
M  V30 6260 N 601.587 1.56661 0.17182 0
M  V30 6261 C 602.517 1.99401 1.21498 0
M  V30 6262 C 603.498 0.869516 1.46197 0
M  V30 6263 O 604.683 1.13556 1.57539 0
M  V30 6264 C 601.813 2.35346 2.55401 0
M  V30 6265 C 600.767 3.5075 2.45272 0
M  V30 6266 C 600.093 3.72437 3.8366 0
M  V30 6267 C 601.393 4.84216 1.95787 0
M  V30 6268 H 603.087 2.86792 0.859699 0
M  V30 6269 H 600.633 1.37977 0.412103 0
M  V30 6270 H 602.586 2.63843 3.2858 0
M  V30 6271 H 601.31 1.44864 2.92715 0
M  V30 6272 H 599.969 3.2238 1.74547 0
M  V30 6273 H 599.617 2.79246 4.18367 0
M  V30 6274 H 599.317 4.50087 3.77751 0
M  V30 6275 H 600.841 4.03334 4.58426 0
M  V30 6276 H 602.255 5.11592 2.5874 0
M  V30 6277 H 600.652 5.65498 2.00827 0
M  V30 6278 H 601.722 4.76243 0.912159 0
M  V30 6279 N 603.065 -0.440357 1.51323 0
M  V30 6280 C 603.975 -1.55955 1.75258 0
M  V30 6281 C 604.991 -1.61933 0.636687 0
M  V30 6282 O 606.167 -1.79231 0.918593 0
M  V30 6283 C 603.232 -2.9196 1.86977 0
M  V30 6284 C 602.293 -2.96122 3.10822 0
M  V30 6285 C 601.526 -4.2564 3.21973 0
M  V30 6286 O 601.749 -5.17851 2.39137 0
M  V30 6287 O 600.683 -4.36025 4.14929 0
M  V30 6288 H 604.509 -1.38673 2.70191 0
M  V30 6289 H 602.094 -0.623055 1.35788 0
M  V30 6290 H 603.976 -3.72682 1.96688 0
M  V30 6291 H 602.651 -3.09375 0.952307 0
M  V30 6292 H 601.558 -2.14366 3.06591 0
M  V30 6293 H 602.891 -2.83651 4.02247 0
M  V30 6294 N 604.543 -1.41418 -0.695603 0
M  V30 6295 C 605.49 -1.43264 -1.80954 0
M  V30 6296 C 606.46 -0.287016 -1.63601 0
M  V30 6297 O 607.645 -0.488054 -1.84452 0
M  V30 6298 C 604.785 -1.32054 -3.18835 0
M  V30 6299 C 603.898 -2.56485 -3.4762 0
M  V30 6300 C 603.033 -2.3757 -4.75115 0
M  V30 6301 C 602.072 -3.57477 -4.96867 0
M  V30 6302 N 601.209 -3.37632 -6.15588 0
M  V30 6303 H 606.049 -2.38467 -1.78711 0
M  V30 6304 H 603.586 -1.18415 -0.872715 0
M  V30 6305 H 605.544 -1.23558 -3.98484 0
M  V30 6306 H 604.174 -0.404592 -3.20254 0
M  V30 6307 H 603.226 -2.75432 -2.62376 0
M  V30 6308 H 604.538 -3.45678 -3.59594 0
M  V30 6309 H 603.692 -2.2654 -5.62818 0
M  V30 6310 H 602.431 -1.45834 -4.65386 0
M  V30 6311 H 601.436 -3.68961 -4.07612 0
M  V30 6312 H 602.661 -4.50167 -5.08455 0
M  V30 6313 H 600.607 -2.48596 -6.07072 0
M  V30 6314 H 600.524 -4.20401 -6.2833 0
M  V30 6315 H 601.792 -3.30375 -7.06026 0
M  V30 6316 N 606.021 0.929856 -1.27246 0
M  V30 6317 C 606.984 2.01172 -1.09829 0
M  V30 6318 C 607.984 1.60743 -0.0429687 0
M  V30 6319 O 609.174 1.71813 -0.287373 0
M  V30 6320 C 606.306 3.34191 -0.673003 0
M  V30 6321 H 607.499 2.18054 -2.05895 0
M  V30 6322 H 605.052 1.11036 -1.10003 0
M  V30 6323 H 605.787 3.23009 0.289134 0
M  V30 6324 H 605.572 3.64892 -1.43515 0
M  V30 6325 H 607.062 4.13646 -0.573323 0
M  V30 6326 N 607.499 1.09233 1.13605 0
M  V30 6327 C 608.446 0.729921 2.18954 0
M  V30 6328 C 609.416 -0.287916 1.63586 0
M  V30 6329 O 610.601 -0.170003 1.90041 0
M  V30 6330 C 607.741 0.154489 3.44754 0
M  V30 6331 C 606.854 1.22613 4.14234 0
M  V30 6332 C 605.989 0.613657 5.27644 0
M  V30 6333 C 605.028 1.66674 5.8897 0
M  V30 6334 N 604.165 1.07545 6.93814 0
M  V30 6335 H 609.005 1.63257 2.49302 0
M  V30 6336 H 606.542 0.815693 1.22413 0
M  V30 6337 H 608.5 -0.196923 4.16735 0
M  V30 6338 H 607.13 -0.711433 3.14863 0
M  V30 6339 H 606.182 1.69485 3.40557 0
M  V30 6340 H 607.494 2.0238 4.55899 0
M  V30 6341 H 606.648 0.210976 6.06333 0
M  V30 6342 H 605.387 -0.215584 4.87223 0
M  V30 6343 H 604.392 2.07899 5.08978 0
M  V30 6344 H 605.617 2.49861 6.31464 0
M  V30 6345 H 603.563 0.267451 6.55455 0
M  V30 6346 H 603.48 1.81011 7.3401 0
M  V30 6347 H 604.748 0.698906 7.7636 0
M  V30 6348 N 608.977 -1.30795 0.87923 0
M  V30 6349 C 609.925 -2.30231 0.331112 0
M  V30 6350 C 610.919 -1.59918 -0.558794 0
M  V30 6351 O 612.125 -1.74441 -0.443866 0
M  V30 6352 H 608.5 -0.746785 0.088409 0
M  V30 6353 H 610.471 -2.73925 1.18353 0
M  V30 6354 C 609.22 -3.44848 -0.444401 0
M  V30 6355 H 608.543 -3.99131 0.231106 0
M  V30 6356 H 609.983 -4.16516 -0.793109 0
M  V30 6357 C 608.442 -2.94329 -1.63926 0
M  V30 6358 O 608.972 -2.93875 -2.73862 0
M  V30 6359 N 607.178 -2.50413 -1.4745 0
M  V30 6360 H 606.725 -2.50982 -0.58015 0
M  V30 6361 H 606.683 -2.16969 -2.27534 0
M  V30 6362 N 610.455 -0.639598 -1.44038 0
M  V30 6363 C 611.418 0.0506628 -2.29144 0
M  V30 6364 C 612.418 0.764001 -1.41491 0
M  V30 6365 O 613.608 0.607309 -1.63271 0
M  V30 6366 C 610.74 1.0824 -3.2326 0
M  V30 6367 H 611.933 -0.697987 -2.91664 0
M  V30 6368 H 609.486 -0.400146 -1.51091 0
M  V30 6369 H 610.221 1.86075 -2.65606 0
M  V30 6370 H 610.006 0.574725 -3.87865 0
M  V30 6371 H 611.496 1.56487 -3.87171 0
M  V30 6372 N 611.933 1.52934 -0.380664 0
M  V30 6373 C 613.179 2.01765 0.20458 0
M  V30 6374 C 613.512 1.26696 1.47179 0
M  V30 6375 O 612.787 0.364936 1.91046 0
M  V30 6376 C 613.07 3.56869 0.481269 0
M  V30 6377 C 612.923 4.42617 -0.800629 0
M  V30 6378 C 614.242 4.2121 1.27554 0
M  V30 6379 H 611.361 0.733388 0.0728803 0
M  V30 6380 H 614.003 1.83068 -0.50853 0
M  V30 6381 H 612.153 3.72932 1.08875 0
M  V30 6382 H 613.825 4.38323 -1.43773 0
M  V30 6383 H 612.068 4.09977 -1.4178 0
M  V30 6384 H 612.739 5.49134 -0.561791 0
M  V30 6385 H 615.215 4.09072 0.761514 0
M  V30 6386 H 614.091 5.29732 1.43788 0
M  V30 6387 H 614.352 3.78269 2.28833 0
M  V30 6388 N 613.412 0.11024 1.57214 0
M  V30 6389 C 614.658 -0.550684 1.9518 0
M  V30 6390 C 614.991 -1.66885 0.993122 0
M  V30 6391 O 614.266 -1.94479 0.0287907 0
M  V30 6392 C 614.549 -1.09163 3.43155 0
M  V30 6393 C 614.402 0.0225198 4.49794 0
M  V30 6394 C 615.721 -1.98527 3.92778 0
M  V30 6395 H 612.84 -0.198706 0.709708 0
M  V30 6396 H 615.482 0.184024 1.89107 0
M  V30 6397 H 613.632 -1.71775 3.48462 0
M  V30 6398 H 615.304 0.657443 4.56591 0
M  V30 6399 H 613.547 0.686868 4.28328 0
M  V30 6400 H 614.218 -0.39706 5.5057 0
M  V30 6401 H 616.694 -1.458 3.8972 0
M  V30 6402 H 615.57 -2.33298 4.96853 0
M  V30 6403 H 615.831 -2.90846 3.32958 0
M  V30 6404 N 614.89 -1.56749 -0.16351 0
M  V30 6405 C 615.837 -1.97011 -1.2023 0
M  V30 6406 C 616.807 -0.835186 -1.43575 0
M  V30 6407 O 617.992 -1.09594 -1.56185 0
M  V30 6408 C 615.132 -2.34186 -2.53478 0
M  V30 6409 C 614.245 -3.60893 -2.37446 0
M  V30 6410 C 613.38 -3.87245 -3.63614 0
M  V30 6411 C 612.419 -5.07274 -3.42548 0
M  V30 6412 N 611.556 -5.29719 -4.60806 0
M  V30 6413 H 616.396 -2.85562 -0.851958 0
M  V30 6414 H 613.933 -1.41292 -0.409257 0
M  V30 6415 H 615.891 -2.53764 -3.31149 0
M  V30 6416 H 614.521 -1.48736 -2.86492 0
M  V30 6417 H 613.573 -3.49185 -1.50911 0
M  V30 6418 H 614.885 -4.48722 -2.1783 0
M  V30 6419 H 614.039 -4.07232 -4.49719 0
M  V30 6420 H 612.778 -2.97806 -3.86216 0
M  V30 6421 H 611.783 -4.87177 -2.5483 0
M  V30 6422 H 613.008 -5.98251 -3.2136 0
M  V30 6423 H 610.954 -4.43233 -4.83612 0
M  V30 6424 H 610.871 -6.11786 -4.44132 0
M  V30 6425 H 612.139 -5.54192 -5.48171 0
M  V30 6426 N 616.368 0.432326 -1.51554 0
M  V30 6427 C 617.617 1.17831 -1.63703 0
M  V30 6428 C 617.93 1.92229 -0.36156 0
M  V30 6429 O 619.136 2.69069 -0.362495 0
M  V30 6430 C 617.592 2.14318 -2.89129 0
M  V30 6431 C 617.2 1.45544 -4.23699 0
M  V30 6432 C 618.944 2.89319 -3.10636 0
M  V30 6433 C 616.851 2.40545 -5.4027 0
M  V30 6434 H 615.781 0.443533 -0.60975 0
M  V30 6435 H 618.432 0.444878 -1.78026 0
M  V30 6436 H 616.814 2.91117 -2.68452 0
M  V30 6437 H 617.988 0.742693 -4.54775 0
M  V30 6438 H 616.303 0.826772 -4.0811 0
M  V30 6439 H 618.9 3.60495 -3.94902 0
M  V30 6440 H 619.243 3.50951 -2.23918 0
M  V30 6441 H 619.776 2.19625 -3.31677 0
M  V30 6442 H 616.515 1.83594 -6.29264 0
M  V30 6443 H 616.035 3.09859 -5.13563 0
M  V30 6444 H 617.714 3.01569 -5.72421 0
M  V30 6445 N 617.846 1.41785 0.688094 0
M  V30 6446 C 619.257 1.3701 1.26828 0
M  V30 6447 C 619.608 0.056835 1.96118 0
M  V30 6448 O 618.733 -0.84475 1.99231 0
M  V30 6449 C 619.328 2.48168 2.30648 0
M  V30 6450 C 617.887 2.46766 2.84224 0
M  V30 6451 C 617.034 2.27633 1.58361 0
M  V30 6452 H 619.985 1.51192 0.482351 0
M  V30 6453 H 620.006 2.17655 3.121 0
M  V30 6454 H 619.518 3.43735 1.80188 0
M  V30 6455 H 617.619 1.54978 3.3884 0
M  V30 6456 H 617.732 3.43342 3.34145 0
M  V30 6457 H 616.096 1.75648 1.84445 0
M  V30 6458 H 616.879 3.25238 1.09887 0
M  V30 6459 N 619.324 -0.923095 1.27737 0
M  V30 6460 C 620.234 -2.05765 1.12685 0
M  V30 6461 C 621.25 -1.73911 0.0557197 0
M  V30 6462 O 622.426 -1.99674 0.263137 0
M  V30 6463 C 619.491 -3.37804 0.780363 0
M  V30 6464 C 618.552 -3.83326 1.93286 0
M  V30 6465 C 617.785 -5.09064 1.60281 0
M  V30 6466 O 618.008 -5.6809 0.512828 0
M  V30 6467 O 616.942 -5.50071 2.44347 0
M  V30 6468 H 620.768 -2.21378 2.07907 0
M  V30 6469 H 618.353 -1.04299 1.06968 0
M  V30 6470 H 620.235 -4.17097 0.600668 0
M  V30 6471 H 618.91 -3.23387 -0.142291 0
M  V30 6472 H 617.817 -3.049 2.16764 0
M  V30 6473 H 619.15 -4.02292 2.83588 0
M  V30 6474 N 620.802 -1.09834 -1.13024 0
M  V30 6475 C 621.712 -0.753731 -2.22162 0
M  V30 6476 C 622.728 0.246105 -1.72251 0
M  V30 6477 O 623.904 0.0864051 -2.01215 0
M  V30 6478 C 620.969 -0.183958 -3.46212 0
M  V30 6479 C 620.03 -1.24028 -4.10993 0
M  V30 6480 C 619.263 -0.697597 -5.29121 0
M  V30 6481 O 619.486 0.478092 -5.68393 0
M  V30 6482 O 618.42 -1.4546 -5.84059 0
M  V30 6483 H 622.246 -1.66456 -2.5402 0
M  V30 6484 H 619.831 -0.873026 -1.21238 0
M  V30 6485 H 621.713 0.130257 -4.21199 0
M  V30 6486 H 620.388 0.699823 -3.16045 0
M  V30 6487 H 619.295 -1.60725 -3.37814 0
M  V30 6488 H 620.628 -2.09685 -4.45301 0
M  V30 6489 N 622.28 1.30327 -0.886154 0
M  V30 6490 C 623.508 2.00254 -0.520176 0
M  V30 6491 C 623.923 1.66419 0.891637 0
M  V30 6492 O 623.28 0.901951 1.58654 0
M  V30 6493 C 623.331 3.54916 -0.686775 0
M  V30 6494 O 623.052 3.87547 -2.04301 0
M  V30 6495 C 624.553 4.42115 -0.323945 0
M  V30 6496 H 621.773 0.640204 -0.200947 0
M  V30 6497 H 624.317 1.66183 -1.19178 0
M  V30 6498 H 622.472 3.8735 -0.0625273 0
M  V30 6499 H 622.886 4.82247 -2.06249 0
M  V30 6500 H 624.36 5.49808 -0.491407 0
M  V30 6501 H 624.837 4.32953 0.73811 0
M  V30 6502 H 625.443 4.15129 -0.924565 0
M  V30 6503 N 623.758 0.647228 1.43697 0
M  V30 6504 C 624.668 -0.0487997 2.34549 0
M  V30 6505 C 625.684 -0.818586 1.53542 0
M  V30 6506 O 626.86 -0.767195 1.86215 0
M  V30 6507 C 623.925 -1.00734 3.31743 0
M  V30 6508 C 622.986 -0.23515 4.28655 0
M  V30 6509 C 622.219 -1.14803 5.21206 0
M  V30 6510 O 622.442 -2.38717 5.18045 0
M  V30 6511 O 621.376 -0.623667 5.9866 0
M  V30 6512 H 625.202 0.698863 2.9555 0
M  V30 6513 H 622.787 0.407412 1.43738 0
M  V30 6514 H 624.669 -1.55837 3.91526 0
M  V30 6515 H 623.344 -1.73534 2.73254 0
M  V30 6516 H 622.251 0.359319 3.7237 0
M  V30 6517 H 623.584 0.453152 4.9011 0
M  V30 6518 N 625.236 -1.5273 0.388769 0
M  V30 6519 C 626.146 -2.30165 -0.453993 0
M  V30 6520 C 627.162 -1.37058 -1.07197 0
M  V30 6521 O 628.338 -1.70127 -1.0779 0
M  V30 6522 C 625.403 -3.09303 -1.56628 0
M  V30 6523 C 624.464 -4.18117 -0.973467 0
M  V30 6524 C 623.697 -4.93472 -2.03275 0
M  V30 6525 O 623.92 -4.68913 -3.24772 0
M  V30 6526 O 622.854 -5.78833 -1.65034 0
M  V30 6527 H 626.68 -3.03185 0.176816 0
M  V30 6528 H 624.265 -1.4862 0.152501 0
M  V30 6529 H 626.147 -3.58648 -2.21246 0
M  V30 6530 H 624.822 -2.39098 -2.18206 0
M  V30 6531 H 623.729 -3.7297 -0.290556 0
M  V30 6532 H 625.062 -4.90556 -0.401908 0
M  V30 6533 N 626.714 -0.118576 -1.57153 0
M  V30 6534 C 628.125 0.40687 -1.82213 0
M  V30 6535 C 628.476 1.66636 -1.03571 0
M  V30 6536 O 627.601 2.14682 -0.272171 0
M  V30 6537 C 628.196 0.744949 -3.30509 0
M  V30 6538 C 626.755 1.21503 -3.5625 0
M  V30 6539 C 625.902 0.223511 -2.76398 0
M  V30 6540 H 628.853 -0.343712 -1.54933 0
M  V30 6541 H 628.874 1.6024 -3.45114 0
M  V30 6542 H 628.386 -0.171911 -3.87719 0
M  V30 6543 H 626.487 2.1488 -3.04396 0
M  V30 6544 H 626.6 1.16065 -4.64829 0
M  V30 6545 H 624.964 0.71046 -2.44591 0
M  V30 6546 H 625.747 -0.686439 -3.36367 0
M  V30 6547 N 628.193 1.56834 0.155195 0
M  V30 6548 C 629.442 1.82088 0.867567 0
M  V30 6549 C 629.755 0.69849 1.82703 0
M  V30 6550 O 630.961 0.836407 2.58295 0
M  V30 6551 C 629.417 3.22707 1.59336 0
M  V30 6552 C 629.025 4.42859 0.676719 0
M  V30 6553 C 630.769 3.57242 2.293 0
M  V30 6554 C 628.676 5.74501 1.40367 0
M  V30 6555 H 627.606 0.679057 0.327715 0
M  V30 6556 H 630.257 1.83105 0.120351 0
M  V30 6557 H 628.639 3.16054 2.38591 0
M  V30 6558 H 629.813 4.60731 -0.0800196 0
M  V30 6559 H 628.128 4.16311 0.0859129 0
M  V30 6560 H 630.725 4.52847 2.84312 0
M  V30 6561 H 631.068 2.82901 3.05406 0
M  V30 6562 H 631.601 3.6552 1.56972 0
M  V30 6563 H 628.34 6.51915 0.684623 0
M  V30 6564 H 627.86 5.60579 2.13332 0
M  V30 6565 H 629.539 6.17016 1.94681 0
M  V30 6566 N 629.671 -0.424282 1.51781 0
M  V30 6567 C 631.087 -0.761768 1.40247 0
M  V30 6568 C 631.287 -1.95324 0.495041 0
M  V30 6569 O 630.343 -2.5246 -0.0448949 0
M  V30 6570 C 631.656 -1.0299 2.82513 0
M  V30 6571 C 633.204 -1.13354 2.91753 0
M  V30 6572 C 633.679 -1.43453 4.34954 0
M  V30 6573 N 635.17 -1.5035 4.3812 0
M  V30 6574 C 635.905 -1.75236 5.45967 0
M  V30 6575 N 635.401 -1.97827 6.63955 0
M  V30 6576 N 637.194 -1.77126 5.33463 0
M  V30 6577 H 629.345 0.360228 2.09323 0
M  V30 6578 H 631.608 0.0988128 0.942836 0
M  V30 6579 H 631.314 -0.226961 3.50967 0
M  V30 6580 H 631.188 -1.95411 3.22637 0
M  V30 6581 H 633.575 -1.92709 2.23489 0
M  V30 6582 H 633.656 -0.188041 2.55108 0
M  V30 6583 H 633.3 -0.646209 5.03772 0
M  V30 6584 H 633.23 -2.3923 4.69123 0
M  V30 6585 H 635.721 -1.34742 3.53062 0
M  V30 6586 H 636.034 -2.16223 7.41935 0
M  V30 6587 H 634.379 -1.95123 6.67047 0
M  V30 6588 H 637.57 -1.59005 4.40267 0
M  V30 6589 H 637.743 -1.96182 6.17589 0
M  V30 6590 N 631.149 -1.42148 -0.680565 0
M  V30 6591 C 632.56 -1.3768 -1.26099 0
M  V30 6592 C 632.911 -0.0672348 -1.96085 0
M  V30 6593 O 632.036 0.834172 -1.99676 0
M  V30 6594 C 632.631 -2.49387 -2.29328 0
M  V30 6595 C 631.19 -2.4827 -2.82911 0
M  V30 6596 C 630.337 -2.2847 -1.57152 0
M  V30 6597 H 633.288 -1.51446 -0.474326 0
M  V30 6598 H 633.309 -2.19307 -3.10941 0
M  V30 6599 H 632.821 -3.44686 -1.78363 0
M  V30 6600 H 630.922 -1.56773 -3.38013 0
M  V30 6601 H 631.035 -3.45109 -3.3232 0
M  V30 6602 H 629.399 -1.76623 -1.83511 0
M  V30 6603 H 630.182 -3.25816 -1.0816 0
M  V30 6604 N 632.627 0.916307 -1.28225 0
M  V30 6605 C 634.043 1.19425 -1.05876 0
M  V30 6606 C 634.243 2.005 0.2005 0
M  V30 6607 O 633.299 2.35806 0.902873 0
M  V30 6608 C 634.612 1.93133 -2.30478 0
M  V30 6609 C 636.16 2.06026 -2.35632 0
M  V30 6610 C 636.635 2.83141 -3.59994 0
M  V30 6611 N 638.126 2.90704 -3.60618 0
M  V30 6612 C 638.861 3.50865 -4.53521 0
M  V30 6613 N 638.357 4.12327 -5.56739 0
M  V30 6614 N 640.15 3.48379 -4.41122 0
M  V30 6615 H 632.301 0.37496 -2.09064 0
M  V30 6616 H 634.564 0.228531 -0.920042 0
M  V30 6617 H 634.27 1.40985 -3.22205 0
M  V30 6618 H 634.144 2.93696 -2.36691 0
M  V30 6619 H 636.531 2.57355 -1.44404 0
M  V30 6620 H 636.612 1.04647 -2.33415 0
M  V30 6621 H 636.256 2.32492 -4.51564 0
M  V30 6622 H 636.186 3.84829 -3.59464 0
M  V30 6623 H 638.677 2.47034 -2.85977 0
M  V30 6624 H 638.99 4.56205 -6.23776 0
M  V30 6625 H 637.335 4.10839 -5.60568 0
M  V30 6626 H 640.526 2.99572 -3.59686 0
M  V30 6627 H 640.699 3.94974 -5.13712 0
M  V30 6628 N 634.105 1.10431 1.1244 0
M  V30 6629 C 635.516 0.864439 1.65482 0
M  V30 6630 C 635.867 -0.60527 1.8663 0
M  V30 6631 O 634.992 -1.46492 1.59276 0
M  V30 6632 C 635.587 1.56267 3.0061 0
M  V30 6633 C 634.146 1.3695 3.50602 0
M  V30 6634 C 633.293 1.61209 2.25626 0
M  V30 6635 H 636.244 1.26203 0.962209 0
M  V30 6636 H 636.265 1.00166 3.67079 0
M  V30 6637 H 635.777 2.63231 2.85186 0
M  V30 6638 H 633.878 0.321481 3.71211 0
M  V30 6639 H 633.991 2.11143 4.30064 0
M  V30 6640 H 632.355 1.03482 2.32731 0
M  V30 6641 H 633.138 2.69425 2.12756 0
M  V30 6642 N 635.583 -1.29855 0.893053 0
M  V30 6643 C 636.994 -1.77946 0.564998 0
M  V30 6644 C 637.345 -1.73339 -0.919134 0
M  V30 6645 O 636.47 -1.3152 -1.71847 0
M  V30 6646 C 637.065 -3.23118 1.01883 0
M  V30 6647 C 635.624 -3.69013 0.742051 0
M  V30 6648 C 634.771 -2.50121 1.19727 0
M  V30 6649 H 637.722 -1.16611 1.07646 0
M  V30 6650 H 637.743 -3.78875 0.351249 0
M  V30 6651 H 637.255 -3.26439 2.09903 0
M  V30 6652 H 635.356 -3.71173 -0.325816 0
M  V30 6653 H 635.469 -4.60117 1.33527 0
M  V30 6654 H 633.833 -2.47128 0.616418 0
M  V30 6655 H 634.616 -2.56174 2.28538 0
M  V30 6656 N 637.061 -0.65484 -1.43351 0
M  V30 6657 C 638.477 -0.32255 -1.56307 0
M  V30 6658 C 638.677 1.17324 -1.63821 0
M  V30 6659 O 637.733 1.95813 -1.59417 0
M  V30 6660 C 639.046 -1.03533 -2.82314 0
M  V30 6661 C 640.594 -1.01574 -2.9606 0
M  V30 6662 C 641.069 -1.70945 -4.24902 0
M  V30 6663 N 642.56 -1.67716 -4.3177 0
M  V30 6664 C 643.295 -2.18265 -5.30234 0
M  V30 6665 N 642.791 -2.7711 -6.34966 0
M  V30 6666 N 644.584 -2.08756 -5.21898 0
M  V30 6667 H 636.735 -1.62549 -1.36717 0
M  V30 6668 H 638.998 -0.683676 -0.656727 0
M  V30 6669 H 638.704 -2.09045 -2.8283 0
M  V30 6670 H 638.578 -0.587913 -3.7259 0
M  V30 6671 H 640.965 0.0309834 -2.95084 0
M  V30 6672 H 641.046 -1.50186 -2.07069 0
M  V30 6673 H 640.69 -2.75574 -4.26639 0
M  V30 6674 H 640.62 -1.19797 -5.12793 0
M  V30 6675 H 643.111 -1.24777 -3.56706 0
M  V30 6676 H 643.424 -3.13353 -7.06421 0
M  V30 6677 H 641.769 -2.81171 -6.35585 0
M  V30 6678 H 644.96 -1.62488 -4.38994 0
M  V30 6679 H 645.133 -2.48459 -5.98475 0
M  V30 6680 N 638.539 1.52521 -0.396863 0
M  V30 6681 C 639.95 1.86547 0.0754868 0
M  V30 6682 C 640.301 1.31621 1.45501 0
M  V30 6683 O 639.426 0.650563 2.0639 0
M  V30 6684 C 640.021 3.38495 0.143754 0
M  V30 6685 C 638.58 3.72205 0.560413 0
M  V30 6686 C 637.727 2.75954 -0.272856 0
M  V30 6687 H 640.678 1.46323 -0.614434 0
M  V30 6688 H 640.699 3.68153 0.961425 0
M  V30 6689 H 640.211 3.78442 -0.860415 0
M  V30 6690 H 638.312 3.3783 1.57167 0
M  V30 6691 H 638.425 4.78074 0.313314 0
M  V30 6692 H 636.789 2.53339 0.263 0
M  V30 6693 H 637.572 3.1874 -1.27515 0
M  V30 6694 N 640.017 0.126909 1.57088 0
M  V30 6695 C 640.964 -0.82036 2.15728 0
M  V30 6696 C 641.934 -1.25811 1.08447 0
M  V30 6697 O 643.119 -1.33422 1.36393 0
M  V30 6698 C 640.259 -2.06199 2.76724 0
M  V30 6699 C 639.372 -1.67188 3.98337 0
M  V30 6700 C 638.507 -2.86378 4.47393 0
M  V30 6701 C 637.546 -2.43644 5.61519 0
M  V30 6702 N 636.683 -3.55775 6.05284 0
M  V30 6703 H 641.523 -0.313472 2.96347 0
M  V30 6704 H 639.06 -0.14303 1.46403 0
M  V30 6705 H 641.018 -2.78959 3.10222 0
M  V30 6706 H 639.648 -2.54333 1.98782 0
M  V30 6707 H 638.7 -0.842714 3.70948 0
M  V30 6708 H 640.012 -1.31789 4.81075 0
M  V30 6709 H 639.166 -3.67353 4.82842 0
M  V30 6710 H 637.905 -3.25009 3.63621 0
M  V30 6711 H 636.91 -1.61104 5.25667 0
M  V30 6712 H 638.135 -2.06122 6.47063 0
M  V30 6713 H 636.081 -3.94065 5.24451 0
M  V30 6714 H 635.998 -3.24325 6.82898 0
M  V30 6715 H 637.266 -4.37166 6.45373 0
M  V30 6716 N 641.495 -1.56914 -0.146875 0
M  V30 6717 C 642.906 -1.72799 -0.706928 0
M  V30 6718 C 643.257 -0.741329 -1.81656 0
M  V30 6719 O 642.382 0.0920162 -2.16204 0
M  V30 6720 C 642.977 -3.13317 -1.28911 0
M  V30 6721 C 641.536 -3.30803 -1.79573 0
M  V30 6722 C 640.683 -2.68725 -0.684252 0
M  V30 6723 H 643.634 -1.58504 0.0787931 0
M  V30 6724 H 643.655 -3.13323 -2.15891 0
M  V30 6725 H 643.167 -3.85104 -0.481284 0
M  V30 6726 H 641.268 -2.64012 -2.62923 0
M  V30 6727 H 641.381 -4.38754 -1.92436 0
M  V30 6728 H 639.745 -2.29196 -1.11091 0
M  V30 6729 H 640.528 -3.43117 0.112134 0
M  V30 6730 N 642.974 0.416227 -1.52004 0
M  V30 6731 C 644.202 1.18573 -1.69553 0
M  V30 6732 C 644.617 1.84472 -0.401919 0
M  V30 6733 O 643.974 1.71593 0.621463 0
M  V30 6734 C 644.025 2.25413 -2.82615 0
M  V30 6735 O 643.746 1.62205 -4.06966 0
M  V30 6736 C 645.247 3.15297 -3.11613 0
M  V30 6737 H 642.467 0.356582 -0.56841 0
M  V30 6738 H 645.011 0.490618 -1.98528 0
M  V30 6739 H 643.166 2.90604 -2.56179 0
M  V30 6740 H 643.58 2.3298 -4.69916 0
M  V30 6741 H 645.054 3.86351 -3.94255 0
M  V30 6742 H 645.531 3.77264 -2.24874 0
M  V30 6743 H 646.137 2.55783 -3.39787 0
M  V30 6744 N 644.452 1.42507 0.673017 0
M  V30 6745 C 645.402 1.4258 1.77919 0
M  V30 6746 C 646.386 0.296885 1.58137 0
M  V30 6747 O 647.578 0.539243 1.68586 0
M  V30 6748 C 644.707 1.33238 3.1639 0
M  V30 6749 C 643.793 2.51081 3.41788 0
M  V30 6750 N 644.184 3.76498 3.37761 0
M  V30 6751 C 642.482 2.4538 3.72431 0
M  V30 6752 C 643.183 4.54784 3.62693 0
M  V30 6753 N 642.159 3.8522 3.83544 0
M  V30 6754 H 645.961 2.37442 1.73201 0
M  V30 6755 H 643.475 1.36881 0.873924 0
M  V30 6756 H 645.472 1.31372 3.9566 0
M  V30 6757 H 644.132 0.393794 3.22303 0
M  V30 6758 H 645.143 4.09068 3.17622 0
M  V30 6759 H 641.82 1.60109 3.85579 0
M  V30 6760 H 643.21 5.63774 3.65525 0
M  V30 6761 N 645.93 -0.909495 1.28709 0
M  V30 6762 C 646.862 -2.01729 1.08804 0
M  V30 6763 C 647.875 -1.62755 0.0384739 0
M  V30 6764 O 649.064 -1.76259 0.281977 0
M  V30 6765 C 646.164 -3.32952 0.63217 0
M  V30 6766 C 645.337 -4.00512 1.75809 0
M  V30 6767 C 644.396 -5.10019 1.29488 0
M  V30 6768 O 643.422 -5.32986 1.99787 0
M  V30 6769 N 644.624 -5.80278 0.1604 0
M  V30 6770 H 647.389 -2.19362 2.04207 0
M  V30 6771 H 644.95 -1.08106 1.20518 0
M  V30 6772 H 646.942 -4.03543 0.305802 0
M  V30 6773 H 645.512 -3.11759 -0.229134 0
M  V30 6774 H 644.732 -3.23413 2.25383 0
M  V30 6775 H 646.02 -4.42395 2.51325 0
M  V30 6776 H 645.418 -5.64094 -0.425937 0
M  V30 6777 H 643.975 -6.51713 -0.106663 0
M  V30 6778 N 647.408 -1.11026 -1.11852 0
M  V30 6779 C 648.819 -0.873203 -1.65021 0
M  V30 6780 C 649.17 0.595364 -1.86949 0
M  V30 6781 O 648.295 1.45645 -1.60051 0
M  V30 6782 C 648.89 -1.57859 -2.99777 0
M  V30 6783 C 647.449 -1.38807 -3.49871 0
M  V30 6784 C 646.596 -1.62403 -2.24768 0
M  V30 6785 H 649.547 -1.26712 -0.955503 0
M  V30 6786 H 649.568 -1.02111 -3.66543 0
M  V30 6787 H 649.08 -2.6474 -2.83786 0
M  V30 6788 H 647.181 -0.341163 -3.71035 0
M  V30 6789 H 647.294 -2.13421 -4.28938 0
M  V30 6790 H 645.658 -1.04714 -2.32179 0
M  V30 6791 H 646.441 -2.70549 -2.11324 0
M  V30 6792 N 648.886 1.2938 -0.899927 0
M  V30 6793 C 650.297 1.77644 -0.574427 0
M  V30 6794 C 650.648 1.73824 0.909928 0
M  V30 6795 O 649.773 1.32429 1.71147 0
M  V30 6796 C 650.368 3.22573 -1.03595 0
M  V30 6797 C 648.927 3.68614 -0.76161 0
M  V30 6798 C 648.074 2.49483 -1.21052 0
M  V30 6799 H 651.025 1.16038 -1.08263 0
M  V30 6800 H 651.046 3.78684 -0.371337 0
M  V30 6801 H 650.558 3.25321 -2.11631 0
M  V30 6802 H 648.659 3.7134 0.306127 0
M  V30 6803 H 648.772 4.59402 -1.35965 0
M  V30 6804 H 647.136 2.46798 -0.629515 0
M  V30 6805 H 647.919 2.54959 -2.29893 0
M  V30 6806 N 650.364 0.662433 1.43002 0
M  V30 6807 C 651.296 -0.062326 2.29115 0
M  V30 6808 C 652.309 -0.777926 1.43011 0
M  V30 6809 O 653.498 -0.634146 1.66856 0
M  V30 6810 C 650.598 -1.11163 3.2015 0
M  V30 6811 C 649.771 -0.472327 4.34842 0
M  V30 6812 C 648.83 -1.41974 5.06685 0
M  V30 6813 O 647.856 -0.924795 5.61637 0
M  V30 6814 N 649.058 -2.75345 5.11043 0
M  V30 6815 H 651.823 0.676838 2.91957 0
M  V30 6816 H 649.384 0.505907 1.53793 0
M  V30 6817 H 651.376 -1.74643 3.65078 0
M  V30 6818 H 649.946 -1.75266 2.58845 0
M  V30 6819 H 649.166 0.341751 3.92716 0
M  V30 6820 H 650.454 -0.0264381 5.08793 0
M  V30 6821 H 649.852 -3.18108 4.67786 0
M  V30 6822 H 648.409 -3.34105 5.59658 0
M  V30 6823 N 651.842 -1.52309 0.404946 0
M  V30 6824 C 653.07 -2.06185 -0.171818 0
M  V30 6825 C 653.485 -1.27536 -1.39212 0
M  V30 6826 O 652.842 -0.326112 -1.79563 0
M  V30 6827 C 652.893 -3.57647 -0.526417 0
M  V30 6828 O 652.614 -4.3332 0.645417 0
M  V30 6829 C 654.115 -4.27925 -1.15736 0
M  V30 6830 H 651.335 -0.670632 -0.0222328 0
M  V30 6831 H 653.879 -1.96259 0.574692 0
M  V30 6832 H 652.034 -3.67595 -1.22282 0
M  V30 6833 H 652.448 -5.23328 0.35042 0
M  V30 6834 H 653.922 -5.35093 -1.35572 0
M  V30 6835 H 654.399 -3.84134 -2.12926 0
M  V30 6836 H 655.005 -4.22335 -0.501281 0
M  V30 6837 N 653.32 -0.135238 -1.57019 0
M  V30 6838 C 654.267 0.808908 -2.1616 0
M  V30 6839 C 655.237 1.25234 -1.09113 0
M  V30 6840 O 656.422 1.32697 -1.37099 0
M  V30 6841 C 653.562 2.04729 -2.77813 0
M  V30 6842 C 652.675 1.65074 -3.99218 0
M  V30 6843 C 651.81 2.84002 -4.48906 0
M  V30 6844 C 650.849 2.40663 -5.62803 0
M  V30 6845 N 649.986 3.5256 -6.07162 0
M  V30 6846 H 654.826 0.297751 -2.96509 0
M  V30 6847 H 652.363 0.135264 -1.46477 0
M  V30 6848 H 654.321 2.7731 -3.11697 0
M  V30 6849 H 652.951 2.53275 -2.00128 0
M  V30 6850 H 652.003 0.823029 -3.7139 0
M  V30 6851 H 653.315 1.29236 -4.81767 0
M  V30 6852 H 652.469 3.64788 -4.84783 0
M  V30 6853 H 651.208 3.23076 -3.65339 0
M  V30 6854 H 650.213 1.58314 -5.26514 0
M  V30 6855 H 651.438 2.02687 -6.48147 0
M  V30 6856 H 649.384 3.91278 -5.26534 0
M  V30 6857 H 649.301 3.20699 -6.84608 0
M  V30 6858 H 650.569 4.33738 -6.47682 0
M  V30 6859 N 654.798 1.5699 0.138552 0
M  V30 6860 C 656.044 1.84966 0.846116 0
M  V30 6861 C 656.399 0.72038 1.78405 0
M  V30 6862 O 655.692 -0.281076 1.89527 0
M  V30 6863 C 655.886 3.17007 1.65049 0
M  V30 6864 C 655.715 4.42672 0.79194 0
M  V30 6865 C 654.485 5.03254 0.454293 0
M  V30 6866 C 656.683 5.14164 0.118419 0
M  V30 6867 N 654.665 6.12482 -0.416964 0
M  V30 6868 C 656.036 6.16966 -0.61263 0
M  V30 6869 C 658.091 4.97884 0.0399671 0
M  V30 6870 C 656.794 7.0525 -1.41473 0
M  V30 6871 C 658.82 5.86639 -0.748901 0
M  V30 6872 C 658.182 6.88929 -1.4682 0
M  V30 6873 H 654.281 0.727362 0.287172 0
M  V30 6874 H 656.865 1.94383 0.110972 0
M  V30 6875 H 655.036 3.08722 2.35681 0
M  V30 6876 H 656.768 3.3286 2.30187 0
M  V30 6877 H 653.523 4.6693 0.792038 0
M  V30 6878 H 653.947 6.7172 -0.843865 0
M  V30 6879 H 658.589 4.18779 0.581728 0
M  V30 6880 H 656.307 7.83777 -1.96772 0
M  V30 6881 H 659.893 5.7611 -0.811705 0
M  V30 6882 H 658.773 7.56419 -2.06882 0
M  V30 6883 N 656.276 -0.40816 1.52223 0
M  V30 6884 C 657.506 -1.17501 1.69932 0
M  V30 6885 C 657.914 -1.84729 0.408874 0
M  V30 6886 O 657.257 -1.7274 -0.625025 0
M  V30 6887 C 657.319 -2.27994 2.77955 0
M  V30 6888 C 656.983 -1.80894 4.19674 0
M  V30 6889 C 657.98 -1.29618 5.03483 0
M  V30 6890 C 655.665 -1.87698 4.65913 0
M  V30 6891 C 657.659 -0.857695 6.31603 0
M  V30 6892 C 655.346 -1.43461 5.94022 0
M  V30 6893 C 656.344 -0.925822 6.76696 0
M  V30 6894 O 656.032 -0.489841 8.02406 0
M  V30 6895 H 655.764 -0.359065 0.572755 0
M  V30 6896 H 658.318 -0.486188 1.99563 0
M  V30 6897 H 656.548 -3.00243 2.43703 0
M  V30 6898 H 658.237 -2.89749 2.84254 0
M  V30 6899 H 659.003 -1.23733 4.68951 0
M  V30 6900 H 654.882 -2.26244 4.01665 0
M  V30 6901 H 658.426 -0.459879 6.96083 0
M  V30 6902 H 654.323 -1.49026 6.28062 0
M  V30 6903 H 655.091 -0.613062 8.16201 0
M  V30 6904 N 657.755 -1.42862 -0.66545 0
M  V30 6905 C 658.983 -1.47246 -1.45349 0
M  V30 6906 C 659.398 -0.0865944 -1.88601 0
M  V30 6907 O 658.755 0.900652 -1.58728 0
M  V30 6908 C 658.806 -2.40772 -2.6965 0
M  V30 6909 O 658.527 -3.73968 -2.2821 0
M  V30 6910 C 660.028 -2.54272 -3.63126 0
M  V30 6911 H 657.248 -0.500497 -0.446927 0
M  V30 6912 H 659.792 -1.87477 -0.816871 0
M  V30 6913 H 657.947 -2.0377 -3.29479 0
M  V30 6914 H 658.361 -4.24146 -3.08546 0
M  V30 6915 H 659.835 -3.23815 -4.47043 0
M  V30 6916 H 660.312 -1.58364 -4.09656 0
M  V30 6917 H 660.918 -2.92036 -3.09185 0
M  V30 6918 N 659.233 0.902656 -1.29189 0
M  V30 6919 C 660.644 1.46809 -1.15343 0
M  V30 6920 C 660.995 1.94568 0.252517 0
M  V30 6921 O 660.12 1.83454 1.14777 0
M  V30 6922 C 660.715 2.66829 -2.08776 0
M  V30 6923 C 659.274 3.19518 -1.98961 0
M  V30 6924 C 658.421 1.92212 -1.99874 0
M  V30 6925 H 661.372 0.714282 -1.41717 0
M  V30 6926 H 661.393 3.42465 -1.65826 0
M  V30 6927 H 660.905 2.32039 -3.11094 0
M  V30 6928 H 659.006 3.59008 -0.99721 0
M  V30 6929 H 659.119 3.84016 -2.86477 0
M  V30 6930 H 657.483 2.0979 -1.44431 0
M  V30 6931 H 658.266 1.59702 -3.03891 0
M  V30 6932 N 660.711 1.11618 1.11262 0
M  V30 6933 C 661.96 0.860934 1.82403 0
M  V30 6934 C 662.273 -0.615303 1.8567 0
M  V30 6935 O 663.479 -0.986861 2.52929 0
M  V30 6936 C 661.935 1.49048 3.27586 0
M  V30 6937 C 661.543 3.00089 3.32642 0
M  V30 6938 C 663.287 1.31515 4.03614 0
M  V30 6939 C 661.194 3.56019 4.72234 0
M  V30 6940 H 660.124 0.318423 0.683464 0
M  V30 6941 H 662.775 1.34165 1.25188 0
M  V30 6942 H 661.157 0.937434 3.84744 0
M  V30 6943 H 662.331 3.61813 2.85356 0
M  V30 6944 H 660.646 3.16919 2.70096 0
M  V30 6945 H 663.243 1.70732 5.0671 0
M  V30 6946 H 663.586 0.257917 4.155 0
M  V30 6947 H 664.119 1.83694 3.52848 0
M  V30 6948 H 660.858 4.61463 4.65545 0
M  V30 6949 H 660.378 2.99066 5.19923 0
M  V30 6950 H 662.057 3.54568 5.41193 0
M  V30 6951 N 662.189 -1.289 0.906776 0
M  V30 6952 C 663.136 -2.2751 0.388313 0
M  V30 6953 C 664.106 -1.57301 -0.533439 0
M  V30 6954 O 665.291 -1.85243 -0.457148 0
M  V30 6955 C 662.431 -3.43091 -0.37181 0
M  V30 6956 C 661.544 -4.28066 0.581647 0
M  V30 6957 C 660.679 -5.30837 -0.19623 0
M  V30 6958 C 659.718 -6.07472 0.751294 0
M  V30 6959 N 658.855 -7.021 0.00737727 0
M  V30 6960 H 663.695 -2.71237 1.23428 0
M  V30 6961 H 661.232 -1.33397 0.619962 0
M  V30 6962 H 663.19 -4.08888 -0.828641 0
M  V30 6963 H 661.82 -3.00374 -1.18218 0
M  V30 6964 H 660.872 -3.62378 1.157 0
M  V30 6965 H 662.184 -4.81382 1.30665 0
M  V30 6966 H 661.338 -6.02485 -0.71394 0
M  V30 6967 H 660.077 -4.78272 -0.954324 0
M  V30 6968 H 659.082 -5.34682 1.28044 0
M  V30 6969 H 660.307 -6.62126 1.50883 0
M  V30 6970 H 658.253 -6.51894 -0.732854 0
M  V30 6971 H 658.17 -7.53004 0.672334 0
M  V30 6972 H 659.438 -7.77956 -0.490365 0
M  V30 6973 N 663.667 -0.670007 -1.42649 0
M  V30 6974 C 664.915 -0.18991 -2.01206 0
M  V30 6975 C 665.236 1.20617 -1.53221 0
M  V30 6976 O 664.506 1.80898 -0.751856 0
M  V30 6977 H 663.086 -0.0672189 -0.743969 0
M  V30 6978 H 665.748 -0.865442 -1.74631 0
M  V30 6979 H 664.844 -0.187481 -3.11536 0
M  V30 6980 N 665.145 1.52092 -0.413018 0
M  V30 6981 C 666.561 1.59471 -0.0640836 0
M  V30 6982 C 666.761 1.42562 1.42402 0
M  V30 6983 O 665.817 1.25453 2.19129 0
M  V30 6984 C 667.13 2.95392 -0.562474 0
M  V30 6985 C 668.678 3.08637 -0.520788 0
M  V30 6986 C 669.153 4.47044 -0.995752 0
M  V30 6987 N 670.644 4.53296 -0.952732 0
M  V30 6988 C 671.379 5.58669 -1.29138 0
M  V30 6989 N 670.875 6.71576 -1.70168 0
M  V30 6990 N 672.668 5.48898 -1.2111 0
M  V30 6991 H 664.819 1.6133 -1.38153 0
M  V30 6992 H 667.082 0.75916 -0.567785 0
M  V30 6993 H 666.788 3.13059 -1.60271 0
M  V30 6994 H 666.662 3.77191 0.0257875 0
M  V30 6995 H 669.049 2.90652 0.510412 0
M  V30 6996 H 669.13 2.28735 -1.14515 0
M  V30 6997 H 668.774 4.65773 -2.0253 0
M  V30 6998 H 668.704 5.25448 -0.348162 0
M  V30 6999 H 671.195 3.72248 -0.651119 0
M  V30 7000 H 671.508 7.47973 -1.9431 0
M  V30 7001 H 669.853 6.72847 -1.74075 0
M  V30 7002 H 673.044 4.59573 -0.889396 0
M  V30 7003 H 673.217 6.30912 -1.47833 0
M  V30 7004 N 666.623 0.143563 1.56945 0
M  V30 7005 C 667.553 -0.7936 2.196 0
M  V30 7006 C 668.534 -1.25955 1.14321 0
M  V30 7007 O 669.719 -1.31773 1.42651 0
M  V30 7008 C 666.849 -2.03424 2.81489 0
M  V30 7009 C 665.803 -1.70519 3.92565 0
M  V30 7010 C 665.129 -3.01817 4.41373 0
M  V30 7011 C 666.429 -0.95449 5.13504 0
M  V30 7012 H 668.123 -0.271423 2.98167 0
M  V30 7013 H 665.669 -0.12911 1.4342 0
M  V30 7014 H 667.622 -2.69463 3.23987 0
M  V30 7015 H 666.346 -2.58008 2.00248 0
M  V30 7016 H 665.005 -1.06859 3.5068 0
M  V30 7017 H 664.653 -3.54386 3.56959 0
M  V30 7018 H 664.353 -2.80565 5.16292 0
M  V30 7019 H 665.877 -3.68934 4.86539 0
M  V30 7020 H 667.291 -1.5169 5.52868 0
M  V30 7021 H 665.688 -0.842035 5.94163 0
M  V30 7022 H 666.758 0.0544033 4.84869 0
M  V30 7023 N 668.101 -1.57061 -0.130224 0
M  V30 7024 C 669.378 -1.75205 -0.869631 0
M  V30 7025 C 669.758 -0.716063 -1.98584 0
M  V30 7026 O 669.106 0.262032 -2.26993 0
M  V30 7027 C 669.316 -3.19835 -1.39666 0
M  V30 7028 C 670.664 -3.82011 -1.85345 0
M  V30 7029 O 671.688 -3.23368 -1.49371 0
M  V30 7030 O 670.547 -4.85064 -2.51744 0
M  V30 7031 H 667.641 -0.716977 -0.412157 0
M  V30 7032 H 670.187 -1.69311 -0.11484 0
M  V30 7033 H 668.959 -3.86745 -0.595288 0
M  V30 7034 H 668.582 -3.30222 -2.21448 0
M  V30 7035 N 669.579 0.400081 -1.52437 0
M  V30 7036 C 670.542 1.4707 -1.75793 0
M  V30 7037 C 671.542 1.48036 -0.627856 0
M  V30 7038 O 672.732 1.49401 -0.895817 0
M  V30 7039 C 669.864 2.86427 -1.84858 0
M  V30 7040 H 671.057 1.27649 -2.71377 0
M  V30 7041 H 668.61 0.631141 -1.42991 0
M  V30 7042 H 669.345 3.11207 -0.912194 0
M  V30 7043 H 669.13 2.87128 -2.6702 0
M  V30 7044 H 670.62 3.64023 -2.04638 0
M  V30 7045 N 671.057 1.43213 0.657864 0
M  V30 7046 C 671.987 1.50815 1.78262 0
M  V30 7047 C 672.968 0.363211 1.66177 0
M  V30 7048 O 674.153 0.579806 1.85343 0
M  V30 7049 C 671.283 1.42625 3.16663 0
M  V30 7050 C 670.237 2.5532 3.43505 0
M  V30 7051 C 669.563 2.32184 4.81658 0
M  V30 7052 C 670.863 3.97583 3.38711 0
M  V30 7053 H 672.557 2.44954 1.72157 0
M  V30 7054 H 670.103 1.17896 0.82683 0
M  V30 7055 H 672.056 1.46548 3.95097 0
M  V30 7056 H 670.78 0.449877 3.23487 0
M  V30 7057 H 669.439 2.50742 2.6744 0
M  V30 7058 H 669.087 1.32801 4.85153 0
M  V30 7059 H 668.787 3.07724 5.00579 0
M  V30 7060 H 670.311 2.37883 5.62356 0
M  V30 7061 H 671.725 4.03673 4.07089 0
M  V30 7062 H 670.122 4.73112 3.69168 0
M  V30 7063 H 671.192 4.23049 2.36976 0
M  V30 7064 N 672.536 -0.895792 1.29666 0
M  V30 7065 C 673.782 -1.64921 1.19049 0
M  V30 7066 C 674.137 -1.90707 -0.254678 0
M  V30 7067 O 673.43 -1.5092 -1.18041 0
M  V30 7068 C 673.624 -3.00075 1.94139 0
M  V30 7069 C 673.453 -2.87482 3.4581 0
M  V30 7070 C 672.223 -2.88041 4.15163 0
M  V30 7071 C 674.421 -2.64224 4.41237 0
M  V30 7072 N 672.403 -2.66226 5.5317 0
M  V30 7073 C 673.774 -2.51427 5.66732 0
M  V30 7074 C 675.829 -2.49362 4.30956 0
M  V30 7075 C 674.532 -2.25281 6.83111 0
M  V30 7076 C 676.558 -2.246 5.47091 0
M  V30 7077 C 675.92 -2.12571 6.7156 0
M  V30 7078 H 672.019 -0.608926 0.490646 0
M  V30 7079 H 674.603 -1.05648 1.63544 0
M  V30 7080 H 672.774 -3.574 1.52052 0
M  V30 7081 H 674.506 -3.64544 1.75754 0
M  V30 7082 H 671.261 -2.99471 3.66898 0
M  V30 7083 H 671.685 -2.58361 6.25762 0
M  V30 7084 H 676.327 -2.57403 3.35415 0
M  V30 7085 H 674.045 -2.15978 7.78704 0
M  V30 7086 H 677.631 -2.13939 5.41037 0
M  V30 7087 H 676.511 -1.93676 7.59907 0
M  V30 7088 N 674.014 -1.12206 -1.10668 0
M  V30 7089 C 674.977 -0.790867 -2.15123 0
M  V30 7090 C 675.977 0.193618 -1.5963 0
M  V30 7091 O 677.167 -0.0318728 -1.74171 0
M  V30 7092 C 674.299 -0.174797 -3.40452 0
M  V30 7093 H 675.492 -1.7163 -2.45933 0
M  V30 7094 H 673.045 -0.924993 -1.2599 0
M  V30 7095 H 673.78 0.760478 -3.15257 0
M  V30 7096 H 673.565 -0.88358 -3.82015 0
M  V30 7097 H 675.055 0.0405162 -4.1758 0
M  V30 7098 N 675.492 1.28418 -0.913599 0
M  V30 7099 C 676.422 2.29713 -0.418847 0
M  V30 7100 C 677.403 1.62165 0.513469 0
M  V30 7101 O 678.588 1.89576 0.421235 0
M  V30 7102 C 675.718 3.45612 0.342042 0
M  V30 7103 C 674.672 4.25056 -0.501123 0
M  V30 7104 C 673.998 5.3329 0.388097 0
M  V30 7105 C 675.298 4.91814 -1.75831 0
M  V30 7106 H 676.992 2.71346 -1.26538 0
M  V30 7107 H 674.538 1.30446 -0.609903 0
M  V30 7108 H 676.491 4.15562 0.699 0
M  V30 7109 H 675.215 3.02858 1.22248 0
M  V30 7110 H 673.874 3.56833 -0.840598 0
M  V30 7111 H 673.522 4.8678 1.26707 0
M  V30 7112 H 673.222 5.87347 -0.172459 0
M  V30 7113 H 674.746 6.06088 0.74094 0
M  V30 7114 H 676.16 5.54126 -1.47026 0
M  V30 7115 H 674.557 5.55866 -2.26126 0
M  V30 7116 H 675.627 4.16313 -2.4862 0
M  V30 7117 N 676.97 0.677563 1.42291 0
M  V30 7118 C 677.9 0.014968 2.33495 0
M  V30 7119 C 678.881 -0.786376 1.50831 0
M  V30 7120 O 680.066 -0.742975 1.79426 0
M  V30 7121 C 677.196 -0.935023 3.34477 0
M  V30 7122 C 676.15 -0.242074 4.27315 0
M  V30 7123 C 675.476 -1.30519 5.18526 0
M  V30 7124 C 676.776 0.880604 5.14823 0
M  V30 7125 H 678.47 0.776671 2.89151 0
M  V30 7126 H 676.016 0.37494 1.39033 0
M  V30 7127 H 677.969 -1.40766 3.97194 0
M  V30 7128 H 676.693 -1.72818 2.77131 0
M  V30 7129 H 675.352 0.210351 3.65996 0
M  V30 7130 H 675 -2.09041 4.57505 0
M  V30 7131 H 674.7 -0.846652 5.81468 0
M  V30 7132 H 676.224 -1.7787 5.84119 0
M  V30 7133 H 677.638 0.489062 5.7121 0
M  V30 7134 H 676.035 1.26511 5.86613 0
M  V30 7135 H 677.105 1.72818 4.53059 0
M  V30 7136 N 678.448 -1.51871 0.421078 0
M  V30 7137 C 679.864 -1.59435 0.0725398 0
M  V30 7138 C 680.064 -1.43315 -1.41644 0
M  V30 7139 O 679.12 -1.26614 -2.18461 0
M  V30 7140 C 680.433 -2.9509 0.578132 0
M  V30 7141 C 681.981 -3.08356 0.537149 0
M  V30 7142 C 682.456 -4.4651 1.01945 0
M  V30 7143 N 683.947 -4.52784 0.976758 0
M  V30 7144 C 684.682 -5.57976 1.32099 0
M  V30 7145 N 684.178 -6.70664 1.73727 0
M  V30 7146 N 685.971 -5.48248 1.2402 0
M  V30 7147 H 678.122 -1.60595 1.39007 0
M  V30 7148 H 680.385 -0.756138 0.571803 0
M  V30 7149 H 680.091 -3.12205 1.61929 0
M  V30 7150 H 679.965 -3.772 -0.00578374 0
M  V30 7151 H 682.352 -2.90919 -0.494991 0
M  V30 7152 H 682.433 -2.28125 1.15727 0
M  V30 7153 H 682.077 -4.64692 2.04997 0
M  V30 7154 H 682.007 -5.25256 0.376023 0
M  V30 7155 H 684.498 -3.71898 0.670851 0
M  V30 7156 H 684.811 -7.46932 1.98274 0
M  V30 7157 H 683.156 -6.71914 1.77641 0
M  V30 7158 H 686.347 -4.59095 0.913756 0
M  V30 7159 H 686.52 -6.30119 1.51176 0
M  V30 7160 N 679.926 -0.151884 -1.56866 0
M  V30 7161 C 681.342 0.204486 -1.58285 0
M  V30 7162 C 681.542 1.6431 -1.16639 0
M  V30 7163 O 680.598 2.37077 -0.868946 0
M  V30 7164 C 681.911 -0.0587019 -3.00643 0
M  V30 7165 C 683.459 0.00462303 -3.13 0
M  V30 7166 C 683.934 -0.231297 -4.57416 0
M  V30 7167 N 685.425 -0.178394 -4.62856 0
M  V30 7168 C 686.16 -0.335379 -5.72418 0
M  V30 7169 N 685.656 -0.550355 -6.90611 0
M  V30 7170 N 687.449 -0.272641 -5.61438 0
M  V30 7171 H 679.6 -1.09116 -1.82229 0
M  V30 7172 H 681.863 -0.432311 -0.843689 0
M  V30 7173 H 681.569 -1.05453 -3.35518 0
M  V30 7174 H 681.443 0.658508 -3.71407 0
M  V30 7175 H 683.83 0.991009 -2.77962 0
M  V30 7176 H 683.911 -0.744992 -2.44711 0
M  V30 7177 H 683.555 -1.2148 -4.93158 0
M  V30 7178 H 683.485 0.5387 -5.23837 0
M  V30 7179 H 685.976 -0.0170923 -3.77896 0
M  V30 7180 H 686.289 -0.660116 -7.69976 0
M  V30 7181 H 684.634 -0.586736 -6.92519 0
M  V30 7182 H 687.825 -0.105421 -4.67981 0
M  V30 7183 H 687.998 -0.398418 -6.46774 0
M  V30 7184 N 681.404 1.57128 0.121893 0
M  V30 7185 C 682.336 1.96773 1.17529 0
M  V30 7186 C 683.349 0.866668 1.37814 0
M  V30 7187 O 684.538 1.14497 1.3694 0
M  V30 7188 C 681.638 2.24832 2.53582 0
M  V30 7189 C 680.811 3.56138 2.53939 0
M  V30 7190 C 679.87 3.72443 3.71716 0
M  V30 7191 O 678.896 4.44584 3.55434 0
M  V30 7192 N 680.098 3.10993 4.90167 0
M  V30 7193 H 682.863 2.87743 0.838086 0
M  V30 7194 H 680.424 1.58881 0.311199 0
M  V30 7195 H 682.416 2.32958 3.30927 0
M  V30 7196 H 680.986 1.40002 2.79496 0
M  V30 7197 H 680.206 3.59226 1.62329 0
M  V30 7198 H 681.494 4.42448 2.51231 0
M  V30 7199 H 680.892 2.52345 5.06299 0
M  V30 7200 H 679.449 3.24644 5.65198 0
M  V30 7201 N 682.882 -0.391992 1.52647 0
M  V30 7202 C 684.112 -1.15692 1.71169 0
M  V30 7203 C 684.52 -1.84285 0.428444 0
M  V30 7204 O 683.863 -1.73393 -0.606669 0
M  V30 7205 C 683.925 -2.25033 2.80357 0
M  V30 7206 C 683.589 -1.76433 4.21569 0
M  V30 7207 C 684.586 -1.2427 5.0483 0
M  V30 7208 C 682.271 -1.82746 4.67877 0
M  V30 7209 C 684.265 -0.790657 6.32477 0
M  V30 7210 C 681.952 -1.37153 5.9551 0
M  V30 7211 C 682.95 -0.853997 6.7764 0
M  V30 7212 O 682.638 -0.404708 8.02881 0
M  V30 7213 H 682.37 -0.35297 0.576531 0
M  V30 7214 H 684.924 -0.464994 2.00067 0
M  V30 7215 H 683.154 -2.97641 2.46874 0
M  V30 7216 H 684.843 -2.86718 2.87311 0
M  V30 7217 H 685.609 -1.18752 4.70237 0
M  V30 7218 H 681.488 -2.21971 4.04042 0
M  V30 7219 H 685.032 -0.386024 6.96531 0
M  V30 7220 H 680.929 -1.42356 6.29607 0
M  V30 7221 H 681.697 -0.526459 8.16805 0
M  V30 7222 N 684.36 -1.4356 -0.65026 0
M  V30 7223 C 685.637 -1.35811 -1.40765 0
M  V30 7224 C 686.017 -0.00736379 -2.11099 0
M  V30 7225 O 685.365 1.00932 -2.05 0
M  V30 7226 C 685.575 -2.54332 -2.3899 0
M  V30 7227 C 686.923 -2.97551 -3.02901 0
M  V30 7228 O 687.947 -2.544 -2.49317 0
M  V30 7229 O 686.806 -3.72311 -4.00059 0
M  V30 7230 H 683.9 -0.536861 -0.629054 0
M  V30 7231 H 686.446 -1.55615 -0.676919 0
M  V30 7232 H 685.218 -3.44274 -1.85986 0
M  V30 7233 H 684.841 -2.36643 -3.19509 0
M  V30 7234 N 685.838 0.888903 -1.30139 0
M  V30 7235 C 687.254 1.17153 -1.08385 0
M  V30 7236 C 687.454 2.0088 0.157925 0
M  V30 7237 O 686.51 2.37668 0.852652 0
M  V30 7238 C 687.823 1.882 -2.34523 0
M  V30 7239 C 689.371 2.00981 -2.39949 0
M  V30 7240 C 689.846 2.75441 -3.65918 0
M  V30 7241 N 691.337 2.82989 -3.66704 0
M  V30 7242 C 692.072 3.41167 -4.60861 0
M  V30 7243 N 691.568 4.00425 -5.6536 0
M  V30 7244 N 693.361 3.38944 -4.48412 0
M  V30 7245 H 685.512 0.33053 -2.09812 0
M  V30 7246 H 687.775 0.208964 -0.924683 0
M  V30 7247 H 687.481 1.34119 -3.25123 0
M  V30 7248 H 687.355 2.88609 -2.42868 0
M  V30 7249 H 689.742 2.54234 -1.4983 0
M  V30 7250 H 689.823 0.996725 -2.35582 0
M  V30 7251 H 689.467 2.22861 -4.56394 0
M  V30 7252 H 689.397 3.77118 -3.67546 0
M  V30 7253 H 691.888 2.40912 -2.91153 0
M  V30 7254 H 692.201 4.42871 -6.33313 0
M  V30 7255 H 690.546 3.98856 -5.69157 0
M  V30 7256 H 693.737 2.91875 -3.6596 0
M  V30 7257 H 693.91 3.83989 -5.21974 0
M  V30 7258 N 687.317 1.12792 1.10072 0
M  V30 7259 C 688.563 0.886857 1.82381 0
M  V30 7260 C 688.896 -0.58576 1.85155 0
M  V30 7261 O 688.171 -1.43317 1.31493 0
M  V30 7262 C 688.454 1.46703 3.28862 0
M  V30 7263 C 688.307 3.00829 3.34398 0
M  V30 7264 C 689.626 1.12971 4.25353 0
M  V30 7265 H 686.745 0.32362 0.662148 0
M  V30 7266 H 689.387 1.39513 1.28982 0
M  V30 7267 H 687.537 1.03476 3.74466 0
M  V30 7268 H 689.209 3.52764 2.97247 0
M  V30 7269 H 687.452 3.36164 2.74183 0
M  V30 7270 H 688.123 3.36519 4.3756 0
M  V30 7271 H 690.599 1.50313 3.88001 0
M  V30 7272 H 689.475 1.56223 5.26199 0
M  V30 7273 H 689.736 0.0424452 4.4208 0
M  V30 7274 N 688.795 -1.27931 0.920396 0
M  V30 7275 C 690.02 -1.99343 0.572478 0
M  V30 7276 C 690.445 -1.68267 -0.840696 0
M  V30 7277 O 689.803 -0.918805 -1.56294 0
M  V30 7278 C 689.851 -3.51698 0.796284 0
M  V30 7279 O 688.955 -4.12157 -0.141602 0
M  V30 7280 H 688.296 -0.626065 0.221221 0
M  V30 7281 H 690.826 -1.62921 1.23765 0
M  V30 7282 H 690.836 -4.01793 0.708984 0
M  V30 7283 H 689.511 -3.73649 1.82644 0
M  V30 7284 H 688.088 -3.729 -0.005007 0
M  V30 7285 N 690.273 -0.685099 -1.4193 0
M  V30 7286 C 691.203 -0.0273506 -2.33484 0
M  V30 7287 C 692.184 0.778366 -1.51246 0
M  V30 7288 O 693.369 0.733449 -1.79817 0
M  V30 7289 C 690.499 0.917272 -3.34968 0
M  V30 7290 C 689.453 0.21941 -4.27437 0
M  V30 7291 C 688.779 1.27768 -5.1921 0
M  V30 7292 C 690.079 -0.907894 -5.14349 0
M  V30 7293 H 691.773 -0.791994 -2.88735 0
M  V30 7294 H 689.319 -0.382308 -1.38832 0
M  V30 7295 H 691.272 1.38657 -3.97935 0
M  V30 7296 H 689.996 1.71346 -2.78043 0
M  V30 7297 H 688.655 -0.229757 -3.65879 0
M  V30 7298 H 688.303 2.06612 -4.58607 0
M  V30 7299 H 688.003 0.815803 -5.81909 0
M  V30 7300 H 689.527 1.7477 -5.85054 0
M  V30 7301 H 690.941 -0.519348 -5.70943 0
M  V30 7302 H 689.338 -1.2962 -5.85934 0
M  V30 7303 H 690.408 -1.75218 -4.52136 0
M  V30 7304 N 691.751 1.51645 -0.429126 0
M  V30 7305 C 692.684 2.24083 0.431492 0
M  V30 7306 C 693.662 1.25691 1.03153 0
M  V30 7307 O 694.846 1.54802 1.07557 0
M  V30 7308 C 691.973 2.9849 1.60067 0
M  V30 7309 C 691.019 4.11474 1.12211 0
M  V30 7310 S 691.852 5.35453 0.0708449 0
M  V30 7311 C 693.008 6.13395 1.24488 0
M  V30 7312 H 693.241 2.96733 -0.183525 0
M  V30 7313 H 690.774 1.52916 -0.213574 0
M  V30 7314 H 692.732 3.4196 2.27099 0
M  V30 7315 H 691.393 2.25445 2.18708 0
M  V30 7316 H 690.586 4.62784 1.99618 0
M  V30 7317 H 690.188 3.70223 0.530149 0
M  V30 7318 H 692.48 6.41984 2.16479 0
M  V30 7319 H 693.423 7.0388 0.771921 0
M  V30 7320 H 693.831 5.44761 1.47973 0
M  V30 7321 N 693.229 0.160201 1.56784 0
M  V30 7322 C 694.645 -0.196089 1.58391 0
M  V30 7323 C 694.845 -1.63689 1.17508 0
M  V30 7324 O 693.901 -2.36613 0.881506 0
M  V30 7325 C 695.214 0.0746449 3.00607 0
M  V30 7326 C 696.762 0.0119762 3.12998 0
M  V30 7327 C 697.237 0.255551 4.57286 0
M  V30 7328 N 698.728 0.202938 4.62755 0
M  V30 7329 C 699.463 0.365731 5.72232 0
M  V30 7330 N 698.959 0.586972 6.90309 0
M  V30 7331 N 700.752 0.302411 5.61286 0
M  V30 7332 H 692.903 1.1008 1.81648 0
M  V30 7333 H 695.166 0.436779 0.841384 0
M  V30 7334 H 694.872 1.07231 3.34954 0
M  V30 7335 H 694.746 -0.638802 3.71751 0
M  V30 7336 H 697.133 -0.976254 2.78484 0
M  V30 7337 H 697.214 0.75796 2.44313 0
M  V30 7338 H 696.858 1.24094 4.92507 0
M  V30 7339 H 696.788 -0.510912 5.24116 0
M  V30 7340 H 699.279 0.0371328 3.77882 0
M  V30 7341 H 699.592 0.700941 7.69615 0
M  V30 7342 H 697.937 0.623453 6.92198 0
M  V30 7343 H 701.128 0.130238 4.67919 0
M  V30 7344 H 701.301 0.432712 6.46554 0
M  V30 7345 N 694.707 -1.5719 -0.113559 0
M  V30 7346 C 696.118 -1.74259 -0.670116 0
M  V30 7347 C 696.469 -0.779694 -1.80042 0
M  V30 7348 O 695.594 0.0461353 -2.16351 0
M  V30 7349 C 696.189 -3.15981 -1.22236 0
M  V30 7350 C 694.748 -3.34537 -1.72516 0
M  V30 7351 C 693.895 -2.70116 -0.627098 0
M  V30 7352 H 696.846 -1.58301 0.112396 0
M  V30 7353 H 696.867 -3.17832 -2.09197 0
M  V30 7354 H 696.379 -3.86038 -0.39949 0
M  V30 7355 H 694.48 -2.6953 -2.57263 0
M  V30 7356 H 694.593 -4.42737 -1.83086 0
M  V30 7357 H 692.957 -2.31501 -1.06204 0
M  V30 7358 H 693.74 -3.42802 0.184889 0
M  V30 7359 N 696.185 0.383891 -1.52853 0
M  V30 7360 C 697.117 1.48889 -1.74255 0
M  V30 7361 C 698.13 1.50405 -0.623063 0
M  V30 7362 O 699.319 1.54215 -0.898887 0
M  V30 7363 C 696.419 2.87721 -1.79081 0
M  V30 7364 C 695.592 3.10111 -3.08464 0
M  V30 7365 C 694.651 4.28954 -3.0477 0
M  V30 7366 O 693.677 4.25012 -3.78621 0
M  V30 7367 N 694.879 5.35411 -2.24311 0
M  V30 7368 H 697.644 1.30915 -2.69595 0
M  V30 7369 H 695.205 0.573454 -1.51404 0
M  V30 7370 H 697.197 3.65333 -1.7411 0
M  V30 7371 H 695.767 2.99029 -0.911052 0
M  V30 7372 H 694.987 2.20319 -3.26884 0
M  V30 7373 H 696.275 3.21928 -3.94005 0
M  V30 7374 H 695.673 5.41471 -1.63787 0
M  V30 7375 H 694.23 6.1167 -2.25175 0
M  V30 7376 N 697.663 1.43903 0.642637 0
M  V30 7377 C 698.573 1.52349 1.78401 0
M  V30 7378 C 699.589 0.409869 1.69104 0
M  V30 7379 O 700.765 0.665548 1.90085 0
M  V30 7380 C 697.83 1.45408 3.14734 0
M  V30 7381 C 696.891 2.67528 3.35749 0
M  V30 7382 C 696.124 2.60909 4.65577 0
M  V30 7383 O 696.347 1.6627 5.45628 0
M  V30 7384 O 695.281 3.5158 4.88544 0
M  V30 7385 H 699.107 2.48752 1.7423 0
M  V30 7386 H 696.692 1.26021 0.802439 0
M  V30 7387 H 698.574 1.44019 3.96026 0
M  V30 7388 H 697.249 0.521437 3.19473 0
M  V30 7389 H 696.156 2.74487 2.5418 0
M  V30 7390 H 697.489 3.598 3.35864 0
M  V30 7391 N 699.141 -0.881989 1.30609 0
M  V30 7392 C 700.389 -1.63082 1.19368 0
M  V30 7393 C 700.71 -1.93376 -0.251147 0
M  V30 7394 O 699.98 -1.5723 -1.16857 0
M  V30 7395 H 698.56 -0.604542 0.438791 0
M  V30 7396 H 701.222 -1.05658 1.63776 0
M  V30 7397 H 700.318 -2.57966 1.7567 0
M  V30 7398 N 700.619 -1.13374 -1.09472 0
M  V30 7399 C 701.896 -0.806329 -1.78207 0
M  V30 7400 C 702.276 0.702191 -1.99079 0
M  V30 7401 O 701.624 1.63931 -1.59182 0
M  V30 7402 C 701.834 -1.59271 -3.10538 0
M  V30 7403 C 703.182 -1.78509 -3.85253 0
M  V30 7404 O 704.206 -1.55866 -3.20288 0
M  V30 7405 O 703.065 -2.16287 -5.01879 0
M  V30 7406 H 700.159 -0.29435 -0.772843 0
M  V30 7407 H 702.705 -1.23833 -1.16033 0
M  V30 7408 H 701.477 -2.61792 -2.90828 0
M  V30 7409 H 701.1 -1.15562 -3.80436 0
M  V30 7410 N 702.098 1.27442 -0.927168 0
M  V30 7411 C 703.008 2.30599 -0.431448 0
M  V30 7412 C 704.024 1.67028 0.48761 0
M  V30 7413 O 705.2 1.97962 0.370546 0
M  V30 7414 C 702.265 3.45327 0.308292 0
M  V30 7415 C 701.326 4.24418 -0.645615 0
M  V30 7416 C 700.559 5.33667 0.0589164 0
M  V30 7417 O 700.782 5.5589 1.27838 0
M  V30 7418 O 699.716 5.98774 -0.612638 0
M  V30 7419 H 703.542 2.75036 -1.28797 0
M  V30 7420 H 701.127 1.32382 -0.692495 0
M  V30 7421 H 703.009 4.15107 0.725555 0
M  V30 7422 H 701.684 3.02945 1.14043 0
M  V30 7423 H 700.591 3.57174 -1.11255 0
M  V30 7424 H 701.924 4.70512 -1.44496 0
M  V30 7425 N 703.576 0.692616 1.41565 0
M  V30 7426 C 704.822 0.222664 2.01574 0
M  V30 7427 C 705.155 -1.1737 1.54719 0
M  V30 7428 O 704.43 -1.79161 0.757084 0
M  V30 7429 C 704.713 0.277064 3.59033 0
M  V30 7430 C 704.566 1.71016 4.16021 0
M  V30 7431 C 705.885 -0.36479 4.38586 0
M  V30 7432 H 703.004 0.0823839 0.732381 0
M  V30 7433 H 705.646 0.880778 1.68352 0
M  V30 7434 H 703.796 -0.283288 3.87466 0
M  V30 7435 H 705.468 2.32413 3.98475 0
M  V30 7436 H 703.711 2.24525 3.71175 0
M  V30 7437 H 704.382 1.69978 5.25178 0
M  V30 7438 H 706.858 0.112404 4.15948 0
M  V30 7439 H 705.734 -0.296169 5.481 0
M  V30 7440 H 705.995 -1.44506 4.17816 0
M  V30 7441 N 705.054 -1.51416 0.437162 0
M  V30 7442 C 706.294 -2.03995 -0.128538 0
M  V30 7443 C 706.658 -1.31417 -1.39977 0
M  V30 7444 O 707.859 -1.74369 -2.0457 0
M  V30 7445 C 706.13 -3.55757 -0.342317 0
M  V30 7446 S 707.689 -4.3006 -0.871446 0
M  V30 7447 H 704.507 -0.710283 -0.0319322 0
M  V30 7448 H 707.109 -1.86177 0.596526 0
M  V30 7449 H 705.813 -4.06148 0.589233 0
M  V30 7450 H 705.344 -3.77869 -1.09447 0
M  V30 7451 H 707.359 -4.47248 -2.14903 0
M  V30 7452 N 706.532 -0.168513 -1.56696 0
M  V30 7453 C 707.781 0.477233 -1.95973 0
M  V30 7454 C 708.094 1.64578 -1.05704 0
M  V30 7455 O 709.3 2.35758 -1.3465 0
M  V30 7456 C 707.756 0.900413 -3.48455 0
M  V30 7457 C 707.364 -0.242382 -4.47344 0
M  V30 7458 C 709.108 1.51474 -3.96555 0
M  V30 7459 C 707.015 0.200272 -5.91061 0
M  V30 7460 H 705.945 0.182061 -0.73169 0
M  V30 7461 H 708.596 -0.256297 -1.81701 0
M  V30 7462 H 706.978 1.68984 -3.58135 0
M  V30 7463 H 708.152 -1.01967 -4.49377 0
M  V30 7464 H 706.467 -0.766484 -4.09285 0
M  V30 7465 H 709.064 1.85792 -5.01384 0
M  V30 7466 H 709.407 2.41163 -3.39332 0
M  V30 7467 H 709.94 0.789802 -3.89881 0
M  V30 7468 H 706.679 -0.661775 -6.52151 0
M  V30 7469 H 706.199 0.942979 -5.92341 0
M  V30 7470 H 707.878 0.645088 -6.43776 0
M  V30 7471 N 708.01 1.57248 0.105221 0
M  V30 7472 C 709.256 1.86719 0.806692 0
M  V30 7473 C 709.611 0.758061 1.76837 0
M  V30 7474 O 708.904 -0.240812 1.90081 0
M  V30 7475 C 709.098 3.20437 1.58287 0
M  V30 7476 C 708.927 4.44252 0.697864 0
M  V30 7477 C 707.697 5.04104 0.347444 0
M  V30 7478 C 709.895 5.14299 0.00933014 0
M  V30 7479 N 707.877 6.1146 -0.546786 0
M  V30 7480 C 709.248 6.15528 -0.74336 0
M  V30 7481 C 711.303 4.97857 -0.0656505 0
M  V30 7482 C 710.006 7.02091 -1.56401 0
M  V30 7483 C 712.032 5.84919 -0.873167 0
M  V30 7484 C 711.394 6.8566 -1.61401 0
M  V30 7485 H 707.493 0.73329 0.271679 0
M  V30 7486 H 710.077 1.94575 0.0697152 0
M  V30 7487 H 708.248 3.13651 2.29079 0
M  V30 7488 H 709.98 3.37668 2.23075 0
M  V30 7489 H 706.735 4.68505 0.692817 0
M  V30 7490 H 707.159 6.69779 -0.986157 0
M  V30 7491 H 711.801 4.19919 0.492768 0
M  V30 7492 H 709.519 7.79427 -2.13353 0
M  V30 7493 H 713.105 5.74259 -0.933724 0
M  V30 7494 H 711.985 7.5186 -2.2288 0
M  V30 7495 N 709.488 -0.375779 1.53054 0
M  V30 7496 C 710.398 -1.48381 1.81715 0
M  V30 7497 C 711.414 -1.59087 0.704795 0
M  V30 7498 O 712.59 -1.75174 0.993785 0
M  V30 7499 C 709.655 -2.83767 1.99192 0
M  V30 7500 C 708.716 -2.82673 3.23102 0
M  V30 7501 C 707.949 -4.11601 3.39736 0
M  V30 7502 O 708.172 -5.07243 2.60885 0
M  V30 7503 O 707.106 -4.18034 4.33049 0
M  V30 7504 H 710.932 -1.27089 2.7583 0
M  V30 7505 H 708.517 -0.564902 1.38308 0
M  V30 7506 H 710.399 -3.64004 2.12318 0
M  V30 7507 H 709.074 -3.05057 1.08267 0
M  V30 7508 H 707.981 -2.0117 3.15407 0
M  V30 7509 H 709.314 -2.66335 4.13916 0
M  V30 7510 N 710.966 -1.44241 -0.634997 0
M  V30 7511 C 712.206 -1.48339 -1.40623 0
M  V30 7512 C 712.57 -0.111479 -1.91676 0
M  V30 7513 O 713.771 -0.0271345 -2.68786 0
M  V30 7514 C 712.042 -2.51122 -2.54308 0
M  V30 7515 S 713.601 -2.74237 -3.42548 0
M  V30 7516 H 710.419 -0.524715 -0.479787 0
M  V30 7517 H 713.021 -1.81138 -0.735489 0
M  V30 7518 H 711.725 -3.49511 -2.15106 0
M  V30 7519 H 711.256 -2.19883 -3.26213 0
M  V30 7520 H 713.271 -2.0554 -4.51628 0
M  V30 7521 N 712.444 0.87505 -1.31075 0
M  V30 7522 C 713.693 1.62245 -1.19831 0
M  V30 7523 C 714.006 1.94078 0.24357 0
M  V30 7524 O 715.212 2.67265 0.477646 0
M  V30 7525 C 713.668 2.92464 -2.09744 0
M  V30 7526 C 713.276 2.68134 -3.58898 0
M  V30 7527 C 715.02 3.70449 -2.07287 0
M  V30 7528 C 712.927 3.9423 -4.40836 0
M  V30 7529 H 711.857 0.608741 -0.444916 0
M  V30 7530 H 714.508 0.967947 -1.55894 0
M  V30 7531 H 712.89 3.59262 -1.66574 0
M  V30 7532 H 714.064 2.09776 -4.10281 0
M  V30 7533 H 712.379 2.03511 -3.6328 0
M  V30 7534 H 714.976 4.63983 -2.65752 0
M  V30 7535 H 715.319 4.02611 -1.05876 0
M  V30 7536 H 715.852 3.10528 -2.48631 0
M  V30 7537 H 712.591 3.67221 -5.42982 0
M  V30 7538 H 712.111 4.52058 -3.94213 0
M  V30 7539 H 713.79 4.62162 -4.52786 0
M  V30 7540 N 713.922 1.13953 1.08869 0
M  V30 7541 C 714.832 0.835666 2.19212 0
M  V30 7542 C 715.848 -0.182005 1.73045 0
M  V30 7543 O 717.024 -0.0116661 2.01397 0
M  V30 7544 C 714.089 0.312325 3.4529 0
M  V30 7545 C 713.15 1.39196 4.06107 0
M  V30 7546 C 712.383 0.893496 5.26168 0
M  V30 7547 O 712.606 -0.266807 5.69776 0
M  V30 7548 O 711.54 1.67037 5.78258 0
M  V30 7549 H 715.366 1.75769 2.47667 0
M  V30 7550 H 712.951 0.917421 1.17914 0
M  V30 7551 H 714.833 0.0261582 4.21392 0
M  V30 7552 H 713.508 -0.582042 3.18424 0
M  V30 7553 H 712.415 1.73152 3.31616 0
M  V30 7554 H 713.748 2.26068 4.37212 0
M  V30 7555 N 715.4 -1.26948 0.933913 0
M  V30 7556 C 716.347 -2.26635 0.436484 0
M  V30 7557 C 717.317 -1.58397 -0.499953 0
M  V30 7558 O 718.502 -1.86171 -0.417753 0
M  V30 7559 C 715.642 -3.43803 -0.298951 0
M  V30 7560 C 714.755 -4.26736 0.672316 0
M  V30 7561 C 713.89 -5.31134 -0.0835872 0
M  V30 7562 C 712.929 -6.05742 0.879979 0
M  V30 7563 N 712.066 -7.01926 0.156301 0
M  V30 7564 H 716.906 -2.68558 1.29154 0
M  V30 7565 H 714.443 -1.32052 0.648118 0
M  V30 7566 H 716.401 -4.10554 -0.741723 0
M  V30 7567 H 715.031 -3.02814 -1.1182 0
M  V30 7568 H 714.083 -3.59842 1.23361 0
M  V30 7569 H 715.395 -4.78502 1.40846 0
M  V30 7570 H 714.549 -6.03863 -0.585984 0
M  V30 7571 H 713.288 -4.80188 -0.852661 0
M  V30 7572 H 712.293 -5.31846 1.39357 0
M  V30 7573 H 713.518 -6.58777 1.64894 0
M  V30 7574 H 711.464 -6.53301 -0.594413 0
M  V30 7575 H 711.381 -7.51409 0.831906 0
M  V30 7576 H 712.649 -7.78821 -0.325239 0
M  V30 7577 N 716.879 -0.700114 -1.41195 0
M  V30 7578 C 717.789 -0.0382854 -2.34569 0
M  V30 7579 C 718.805 0.761036 -1.56474 0
M  V30 7580 O 719.981 0.697553 -1.88934 0
M  V30 7581 C 717.046 0.883522 -3.35253 0
M  V30 7582 C 716.107 0.0758957 -4.29233 0
M  V30 7583 C 715.34 0.9538 -5.25108 0
M  V30 7584 O 715.563 2.19326 -5.26547 0
M  V30 7585 O 714.497 0.401049 -6.00562 0
M  V30 7586 H 718.323 -0.808073 -2.92752 0
M  V30 7587 H 715.908 -0.460479 -1.42127 0
M  V30 7588 H 717.79 1.41199 -3.9704 0
M  V30 7589 H 716.465 1.63272 -2.79506 0
M  V30 7590 H 715.372 -0.497274 -3.7078 0
M  V30 7591 H 716.705 -0.634741 -4.8809 0
M  V30 7592 N 718.357 1.51182 -0.445186 0
M  V30 7593 C 719.287 2.30821 0.352686 0
M  V30 7594 C 720.268 1.36576 1.01395 0
M  V30 7595 O 721.453 1.65497 1.01609 0
M  V30 7596 C 718.583 3.15593 1.44976 0
M  V30 7597 C 717.537 4.1818 0.911553 0
M  V30 7598 C 716.863 4.91523 2.10497 0
M  V30 7599 C 718.163 5.22266 -0.059418 0
M  V30 7600 H 719.857 2.97771 -0.311936 0
M  V30 7601 H 717.403 1.43201 -0.151461 0
M  V30 7602 H 719.356 3.70091 2.01521 0
M  V30 7603 H 718.08 2.4648 2.14278 0
M  V30 7604 H 716.739 3.64746 0.368264 0
M  V30 7605 H 716.387 4.18906 2.78437 0
M  V30 7606 H 716.087 5.60898 1.7512 0
M  V30 7607 H 717.611 5.48847 2.6758 0
M  V30 7608 H 719.025 5.71789 0.415985 0
M  V30 7609 H 717.422 5.99213 -0.326152 0
M  V30 7610 H 718.492 4.7461 -0.993631 0
M  V30 7611 N 719.835 0.176821 1.56605 0
M  V30 7612 C 721.063 -0.472828 2.01425 0
M  V30 7613 C 721.478 -1.56436 1.05703 0
M  V30 7614 O 720.835 -1.82405 0.058808 0
M  V30 7615 C 720.886 -1.04607 3.46034 0
M  V30 7616 O 720.607 0.00189608 4.381 0
M  V30 7617 C 722.108 -1.7734 4.06282 0
M  V30 7618 H 719.328 -0.120503 0.660091 0
M  V30 7619 H 721.872 0.280166 2.02572 0
M  V30 7620 H 720.027 -1.74953 3.45645 0
M  V30 7621 H 720.441 -0.422118 5.22799 0
M  V30 7622 H 721.915 -2.12703 5.09374 0
M  V30 7623 H 722.392 -2.67043 3.4869 0
M  V30 7624 H 722.998 -1.11623 4.10391 0
M  V30 7625 N 721.313 -1.57302 -0.09688 0
M  V30 7626 C 722.276 -2.00976 -1.10188 0
M  V30 7627 C 723.276 -0.903009 -1.3305 0
M  V30 7628 O 724.466 -1.16853 -1.29194 0
M  V30 7629 C 721.598 -2.36893 -2.45142 0
M  V30 7630 H 722.791 -2.9098 -0.726003 0
M  V30 7631 H 720.344 -1.52515 -0.341872 0
M  V30 7632 H 721.079 -1.49837 -2.8761 0
M  V30 7633 H 720.864 -3.17632 -2.29897 0
M  V30 7634 H 722.354 -2.71345 -3.1743 0
M  V30 7635 O 722.83 0.240887 -1.59693 0
M  V30 7636 H 723.521 0.88365 -1.7237 0
M  V30 END ATOM
M  V30 BEGIN BOND
M  V30 END BOND
M  V30 END CTAB
M  END
$$$$
