drugbank_target|P59768 Guanine nucleotide-binding protein G(I)/G(S)/G(O) subunit gamma-2 (DB01159)
 OpenBabel12092119473D

  0  0  0     0  0            999 V3000
M  V30 BEGIN CTAB
M  V30 COUNTS 1112 1120 0 0 0
M  V30 BEGIN ATOM
M  V30 1 H -0.908 1.98254 -0.117106 0
M  V30 2 N 0 1.576 0 0
M  V30 3 C 0.933 2.03868 1.02534 0
M  V30 4 C 1.911 0.928543 1.3348 0
M  V30 5 O 3.095 1.19667 1.45644 0
M  V30 6 C 0.222 2.43627 2.35294 0
M  V30 7 C -0.732 3.65373 2.2001 0
M  V30 8 S 0.101 5.13292 1.52614 0
M  V30 9 C 1.257 5.56322 2.86805 0
M  V30 10 H 1.49 2.90518 0.631377 0
M  V30 11 H -0.977 1.52953 0.210867 0
M  V30 12 H 0.981 2.67203 3.11629 0
M  V30 13 H -0.358 1.57376 2.7183 0
M  V30 14 H -1.165 3.90944 3.18086 0
M  V30 15 H -1.563 3.418 1.51819 0
M  V30 16 H 0.729 5.58782 3.83104 0
M  V30 17 H 1.672 6.56266 2.65933 0
M  V30 18 H 2.08 4.83886 2.90714 0
M  V30 19 N 1.4781 -0.272755 1.55222 0
M  V30 20 C 2.4411 -1.32041 1.87344 0
M  V30 21 C 3.4411 -1.42342 0.74803 0
M  V30 22 O 4.6311 -1.41488 1.0162 0
M  V30 23 C 1.7631 -2.70173 2.07893 0
M  V30 24 H 2.9561 -1.04789 2.80997 0
M  V30 25 H 0.5091 -0.51083 1.47717 0
M  V30 26 H 1.2441 -3.02605 1.16622 0
M  V30 27 H 1.0291 -2.64082 2.89833 0
M  V30 28 H 2.5191 -3.45869 2.34017 0
M  V30 29 N 2.9562 -1.48159 -0.537278 0
M  V30 30 C 4.1812 -1.59707 -1.32319 0
M  V30 31 C 4.6062 -0.254859 -1.86365 0
M  V30 32 O 3.9642 0.772378 -1.64024 0
M  V30 33 C 4.0122 -2.6412 -2.45505 0
M  V30 34 O 3.1162 -2.20774 -3.48328 0
M  V30 35 H 2.4572 -0.535791 -0.392204 0
M  V30 36 H 4.9872 -1.94092 -0.647268 0
M  V30 37 H 4.9972 -2.85166 -2.91795 0
M  V30 38 H 3.6722 -3.61567 -2.05528 0
M  V30 39 H 2.2492 -2.09911 -3.08207 0
M  V30 40 N 4.4343 0.785586 -1.36625 0
M  V30 41 C 5.3823 1.91978 -1.31329 0
M  V30 42 C 6.3763 1.68162 -0.204416 0
M  V30 43 O 7.5823 1.76122 -0.371645 0
M  V30 44 H 3.9573 0.631087 -0.408942 0
M  V30 45 H 5.9283 1.93562 -2.27104 0
M  V30 46 C 4.6773 3.29055 -1.12329 0
M  V30 47 H 4.0003 3.4795 -1.96903 0
M  V30 48 H 5.4403 4.08756 -1.12671 0
M  V30 49 C 3.8993 3.36461 0.171861 0
M  V30 50 O 4.4293 3.84576 1.16035 0
M  V30 51 N 2.6353 2.89782 0.217846 0
M  V30 52 H 2.1823 2.50819 -0.587183 0
M  V30 53 H 2.1403 2.95119 1.08408 0
M  V30 54 N 5.9124 1.20967 1.01018 0
M  V30 55 C 6.8604 0.961223 2.1181 0
M  V30 56 C 7.8544 -0.0897034 1.69162 0
M  V30 57 O 9.0604 0.0612271 1.79896 0
M  V30 58 H 5.4354 0.29355 0.692338 0
M  V30 59 H 7.4064 1.90178 2.29946 0
M  V30 60 C 6.1554 0.536854 3.4353 0
M  V30 61 H 5.4784 1.33713 3.76777 0
M  V30 62 H 6.9184 0.402286 4.22087 0
M  V30 63 C 5.3774 -0.751574 3.2841 0
M  V30 64 O 5.9074 -1.80841 3.58691 0
M  V30 65 N 4.1134 -0.716079 2.81639 0
M  V30 66 H 3.6604 0.144236 2.57196 0
M  V30 67 H 3.6184 -1.57847 2.71904 0
M  V30 68 N 7.3905 -1.2043 1.01659 0
M  V30 69 C 8.6185 -1.93777 0.725132 0
M  V30 70 C 9.0335 -1.74772 -0.714166 0
M  V30 71 O 8.3905 -1.06169 -1.4844 0
M  V30 72 C 8.4415 -3.45876 1.05129 0
M  V30 73 O 8.1625 -3.6426 2.43406 0
M  V30 74 C 9.6635 -4.36368 0.780891 0
M  V30 75 H 6.8835 -0.615901 0.266284 0
M  V30 76 H 9.4275 -1.52922 1.35776 0
M  V30 77 H 7.5825 -3.8461 0.464065 0
M  V30 78 H 7.9965 -4.58246 2.55169 0
M  V30 79 H 9.4705 -5.41743 1.05918 0
M  V30 80 H 9.9475 -4.38275 -0.284937 0
M  V30 81 H 10.5535 -4.03296 1.35027 0
M  V30 82 N 8.8686 -0.792821 -1.36206 0
M  V30 83 C 9.8316 -0.199459 -2.2833 0
M  V30 84 C 10.8316 0.605189 -1.48977 0
M  V30 85 O 12.0216 0.425685 -1.68919 0
M  V30 86 C 9.1536 0.723523 -3.33134 0
M  V30 87 H 10.3466 -1.01181 -2.82316 0
M  V30 88 H 7.8996 -0.562485 -1.45828 0
M  V30 89 H 8.6346 1.56008 -2.84309 0
M  V30 90 H 8.4196 0.148436 -3.91819 0
M  V30 91 H 9.9096 1.13344 -4.01924 0
M  V30 92 N 10.3467 1.47872 -0.545128 0
M  V30 93 C 11.5717 2.07391 -0.0190611 0
M  V30 94 C 11.9967 1.39688 1.25971 0
M  V30 95 O 11.3547 0.467816 1.7516 0
M  V30 96 C 11.4027 3.60188 0.172335 0
M  V30 97 O 10.5067 3.9339 1.23766 0
M  V30 98 H 9.8477 0.662411 -0.0459059 0
M  V30 99 H 12.3777 1.90066 -0.757365 0
M  V30 100 H 12.3877 4.06129 0.390305 0
M  V30 101 H 11.0627 4.08865 -0.761725 0
M  V30 102 H 9.6397 3.5921 1.00114 0
M  V30 103 N 11.8248 0.280983 1.55075 0
M  V30 104 C 13.0738 -0.334784 1.98902 0
M  V30 105 C 13.3868 -1.56534 1.17288 0
M  V30 106 O 14.5928 -2.25443 1.51287 0
M  V30 107 C 13.0488 -0.646994 3.54037 0
M  V30 108 C 12.6568 0.564085 4.44435 0
M  V30 109 C 14.4008 -1.22506 4.06439 0
M  V30 110 C 12.3078 0.226137 5.90967 0
M  V30 111 H 11.2378 -0.128866 0.742906 0
M  V30 112 H 13.8888 0.386556 1.79382 0
M  V30 113 H 12.2708 -1.42739 3.6938 0
M  V30 114 H 13.4448 1.34082 4.40861 0
M  V30 115 H 11.7598 1.0594 4.02698 0
M  V30 116 H 14.3568 -1.49182 5.13468 0
M  V30 117 H 14.6998 -2.16085 3.55827 0
M  V30 118 H 15.2328 -0.50682 3.94558 0
M  V30 119 H 11.9718 1.12996 6.45687 0
M  V30 120 H 11.4918 -0.513717 5.97596 0
M  V30 121 H 13.1708 -0.179539 6.46751 0
M  V30 122 N 13.3029 -1.57598 0.00835791 0
M  V30 123 C 14.2659 -2.07884 -0.965242 0
M  V30 124 C 15.2659 -0.989825 -1.26725 0
M  V30 125 O 16.4559 -1.25218 -1.21104 0
M  V30 126 C 13.5879 -2.52731 -2.28779 0
M  V30 127 H 14.7809 -2.95178 -0.530112 0
M  V30 128 H 12.3339 -1.54458 -0.239283 0
M  V30 129 H 13.0689 -1.68705 -2.76964 0
M  V30 130 H 12.8539 -3.32272 -2.08177 0
M  V30 131 H 14.3439 -2.91933 -2.98605 0
M  V30 132 N 14.781 0.264519 -1.55364 0
M  V30 133 C 15.713 1.34965 -1.85248 0
M  V30 134 C 16.726 1.45136 -0.737525 0
M  V30 135 O 17.915 1.46801 -1.01547 0
M  V30 136 C 15.015 2.73008 -2.00797 0
M  V30 137 C 14.188 2.85324 -3.31525 0
M  V30 138 C 13.247 4.04097 -3.37034 0
M  V30 139 O 12.273 3.94455 -4.10358 0
M  V30 140 N 13.475 5.16458 -2.65049 0
M  V30 141 H 16.24 1.09672 -2.78913 0
M  V30 142 H 13.801 0.454635 -1.55386 0
M  V30 143 H 15.793 3.50772 -2.01844 0
M  V30 144 H 14.363 2.91087 -1.1396 0
M  V30 145 H 13.583 1.94377 -3.42945 0
M  V30 146 H 14.871 2.9049 -4.17724 0
M  V30 147 H 14.269 5.27181 -2.05175 0
M  V30 148 H 12.826 5.92422 -2.71809 0
M  V30 149 N 16.2591 1.48442 0.529413 0
M  V30 150 C 17.2221 1.62524 1.61612 0
M  V30 151 C 18.2221 0.498509 1.52877 0
M  V30 152 O 19.4121 0.76431 1.56537 0
M  V30 153 C 16.5441 1.59597 3.01233 0
M  V30 154 H 17.7371 2.59423 1.50465 0
M  V30 155 H 15.2901 1.37047 0.751514 0
M  V30 156 H 16.0251 0.641781 3.17886 0
M  V30 157 H 15.8101 2.41397 3.08982 0
M  V30 158 H 17.3001 1.72646 3.80241 0
M  V30 159 N 17.7372 -0.778329 1.37039 0
M  V30 160 C 19.1532 -1.07796 1.17695 0
M  V30 161 C 19.3532 -2.01498 0.00860115 0
M  V30 162 O 18.4092 -2.43901 -0.653352 0
M  V30 163 C 19.7222 -1.68178 2.49272 0
M  V30 164 C 21.2702 -1.80467 2.55735 0
M  V30 165 C 21.7452 -2.44263 3.87427 0
M  V30 166 N 23.2362 -2.51721 3.88833 0
M  V30 167 C 23.9712 -3.01919 4.87476 0
M  V30 168 N 23.4672 -3.5234 5.96513 0
M  V30 169 N 25.2602 -3.00733 4.74885 0
M  V30 170 H 17.4112 -0.156032 2.11826 0
M  V30 171 H 19.6742 -0.131844 0.938787 0
M  V30 172 H 19.3802 -1.06796 3.35093 0
M  V30 173 H 19.2542 -2.67554 2.65885 0
M  V30 174 H 21.6412 -2.40984 1.70325 0
M  V30 175 H 21.7222 -0.798656 2.43013 0
M  V30 176 H 21.3662 -1.84388 4.73248 0
M  V30 177 H 21.2962 -3.45458 3.9745 0
M  V30 178 H 23.7872 -2.1603 3.10063 0
M  V30 179 H 24.1002 -3.89027 6.67741 0
M  V30 180 H 22.4452 -3.50462 6.00168 0
M  V30 181 H 25.6362 -2.60638 3.88826 0
M  V30 182 H 25.8092 -3.39545 5.51918 0
M  V30 183 N 19.2153 -1.21501 -1.00376 0
M  V30 184 C 20.1623 -0.975387 -2.09177 0
M  V30 185 C 21.1323 0.0990615 -1.65804 0
M  V30 186 O 22.3173 -0.0483147 -1.90739 0
M  V30 187 C 19.4573 -0.547507 -3.40729 0
M  V30 188 C 18.5703 -1.69153 -3.97506 0
M  V30 189 C 17.7053 -1.2127 -5.17172 0
M  V30 190 C 16.7443 -2.32897 -5.66061 0
M  V30 191 N 15.8813 -1.86138 -6.76976 0
M  V30 192 H 20.7213 -1.9068 -2.29009 0
M  V30 193 H 18.2583 -0.950257 -1.12288 0
M  V30 194 H 20.2163 -0.280667 -4.16255 0
M  V30 195 H 18.8463 0.346904 -3.20931 0
M  V30 196 H 17.8983 -2.07298 -3.18954 0
M  V30 197 H 19.2103 -2.5316 -4.29781 0
M  V30 198 H 18.3643 -0.902591 -5.99948 0
M  V30 199 H 17.1033 -0.342692 -4.86495 0
M  V30 200 H 16.1083 -2.64709 -4.81881 0
M  V30 201 H 17.3333 -3.20396 -5.98768 0
M  V30 202 H 15.2793 -1.01484 -6.48103 0
M  V30 203 H 15.1963 -2.63717 -7.08512 0
M  V30 204 H 16.4643 -1.58165 -7.63285 0
M  V30 205 N 20.6934 1.19889 -1.02296 0
M  V30 206 C 21.6234 2.25141 -0.619174 0
M  V30 207 C 22.6044 1.66051 0.368915 0
M  V30 208 O 23.7894 1.92546 0.252941 0
M  V30 209 C 20.9194 3.4728 0.0368783 0
M  V30 210 C 19.8734 4.19005 -0.872865 0
M  V30 211 C 19.1994 5.34637 -0.0822402 0
M  V30 212 C 20.4994 4.74452 -2.18387 0
M  V30 213 H 22.1934 2.59171 -1.49903 0
M  V30 214 H 19.7394 1.24579 -0.722222 0
M  V30 215 H 21.6924 4.20098 0.330958 0
M  V30 216 H 20.4164 3.12433 0.95149 0
M  V30 217 H 19.0754 3.48061 -1.15105 0
M  V30 218 H 18.7234 4.96034 0.83422 0
M  V30 219 H 18.4234 5.83557 -0.688149 0
M  V30 220 H 19.9474 6.10255 0.205238 0
M  V30 221 H 21.3614 5.39055 -1.95172 0
M  V30 222 H 19.7584 5.33834 -2.74119 0
M  V30 223 H 20.8284 3.92844 -2.84257 0
M  V30 224 N 22.1715 0.800033 1.35784 0
M  V30 225 C 23.4175 0.377901 1.99248 0
M  V30 226 C 23.7505 -1.05052 1.63333 0
M  V30 227 O 23.0255 -1.72768 0.893385 0
M  V30 228 C 23.3085 0.553922 3.55814 0
M  V30 229 C 23.1615 2.0268 4.01548 0
M  V30 230 C 24.4805 -0.0244802 4.40093 0
M  V30 231 H 21.5995 0.138782 0.723815 0
M  V30 232 H 24.2415 1.00835 1.61035 0
M  V30 233 H 22.3915 0.0172398 3.88496 0
M  V30 234 H 24.0635 2.62536 3.79305 0
M  V30 235 H 22.3065 2.5256 3.52698 0
M  V30 236 H 22.9775 2.10087 5.10458 0
M  V30 237 H 25.4535 0.433775 4.13833 0
M  V30 238 H 24.3295 0.128637 5.48749 0
M  V30 239 H 24.5905 -1.11758 4.27741 0
M  V30 240 N 23.6496 -1.47581 0.552962 0
M  V30 241 C 24.5596 -2.33743 -0.200353 0
M  V30 242 C 25.5756 -1.47928 -0.916151 0
M  V30 243 O 26.7516 -1.80865 -0.885993 0
M  V30 244 C 23.8166 -3.24536 -1.21973 0
M  V30 245 C 22.8776 -4.26238 -0.511819 0
M  V30 246 C 22.1106 -5.12693 -1.48263 0
M  V30 247 O 22.3336 -5.01525 -2.71714 0
M  V30 248 O 21.2676 -5.93375 -1.00945 0
M  V30 249 H 25.0936 -2.9945 0.506304 0
M  V30 250 H 22.6786 -1.46071 0.313622 0
M  V30 251 H 24.5606 -3.80631 -1.80827 0
M  V30 252 H 23.2356 -2.61462 -1.90839 0
M  V30 253 H 22.1426 -3.73914 0.117799 0
M  V30 254 H 23.4756 -4.92014 0.135308 0
M  V30 255 N 25.1277 -0.289203 -1.54924 0
M  V30 256 C 26.0597 0.625583 -2.20497 0
M  V30 257 C 27.0727 1.10667 -1.19402 0
M  V30 258 O 28.2617 1.02615 -1.46056 0
M  V30 259 C 25.3617 1.86702 -2.82835 0
M  V30 260 C 24.5347 1.5304 -4.09753 0
M  V30 261 C 23.5937 2.62576 -4.56005 0
M  V30 262 O 22.6197 2.28167 -5.21468 0
M  V30 263 N 23.8217 3.92901 -4.27328 0
M  V30 264 H 26.5867 0.0642801 -2.99631 0
M  V30 265 H 24.1477 -0.110896 -1.6152 0
M  V30 266 H 26.1397 2.59304 -3.10715 0
M  V30 267 H 24.7097 2.33702 -2.07611 0
M  V30 268 H 23.9297 0.637564 -3.8901 0
M  V30 269 H 25.2177 1.28072 -4.92418 0
M  V30 270 H 24.6157 4.23671 -3.74859 0
M  V30 271 H 23.1727 4.61837 -4.59946 0
M  V30 272 N 26.6058 1.57591 -0.0167156 0
M  V30 273 C 27.5358 2.12496 0.967858 0
M  V30 274 C 28.5168 1.03807 1.34752 0
M  V30 275 O 29.7018 1.31577 1.42833 0
M  V30 276 C 26.8318 2.64194 2.25431 0
M  V30 277 C 25.7858 3.77559 2.01576 0
M  V30 278 C 25.1118 4.15636 3.36379 0
M  V30 279 C 26.4118 5.04151 1.36489 0
M  V30 280 H 28.1058 2.95013 0.510643 0
M  V30 281 H 25.6518 1.41915 0.244181 0
M  V30 282 H 27.6048 3.01236 2.94678 0
M  V30 283 H 26.3288 1.78821 2.73296 0
M  V30 284 H 24.9878 3.40937 1.34751 0
M  V30 285 H 24.6358 3.27263 3.81979 0
M  V30 286 H 24.3358 4.92022 3.21229 0
M  V30 287 H 25.8598 4.5525 4.06915 0
M  V30 288 H 27.2738 5.38857 1.95718 0
M  V30 289 H 25.6708 5.85453 1.31776 0
M  V30 290 H 26.7408 4.83733 0.336219 0
M  V30 291 N 28.0839 -0.256276 1.55502 0
M  V30 292 C 29.0309 -1.31714 1.89526 0
M  V30 293 C 30.0009 -1.4828 0.748479 0
M  V30 294 O 31.1859 -1.62416 1.00128 0
M  V30 295 C 28.3259 -2.66933 2.18725 0
M  V30 296 C 27.4389 -2.58452 3.4616 0
M  V30 297 C 26.5739 -3.85961 3.64976 0
M  V30 298 C 25.6129 -3.72059 4.86044 0
M  V30 299 N 24.7499 -4.9144 5.01429 0
M  V30 300 H 29.5899 -1.01998 2.80001 0
M  V30 301 H 27.1269 -0.492413 1.38613 0
M  V30 302 H 29.0849 -3.4563 2.33657 0
M  V30 303 H 27.7149 -2.94816 1.31466 0
M  V30 304 H 26.7669 -1.71374 3.3961 0
M  V30 305 H 28.0789 -2.44085 4.34999 0
M  V30 306 H 27.2329 -4.73101 3.79816 0
M  V30 307 H 25.9719 -4.03215 2.74353 0
M  V30 308 H 24.9769 -2.83302 4.7119 0
M  V30 309 H 26.2019 -3.56309 5.78118 0
M  V30 310 H 24.1479 -5.09072 4.13741 0
M  V30 311 H 24.0649 -4.79668 5.84341 0
M  V30 312 H 25.3329 -5.80104 5.20672 0
M  V30 313 N 29.562 -1.4872 -0.521534 0
M  V30 314 C 30.495 -1.58451 -1.64221 0
M  V30 315 C 31.473 -0.434513 -1.56687 0
M  V30 316 O 32.657 -0.647275 -1.77038 0
M  V30 317 C 29.784 -1.52037 -3.02659 0
M  V30 318 C 28.83 -2.71981 -3.28525 0
M  V30 319 S 29.663 -4.33869 -3.13876 0
M  V30 320 C 30.819 -4.30067 -4.54745 0
M  V30 321 H 31.052 -2.53256 -1.55719 0
M  V30 322 H 28.585 -1.37358 -0.705143 0
M  V30 323 H 30.543 -1.49023 -3.82495 0
M  V30 324 H 29.204 -0.585541 -3.08594 0
M  V30 325 H 28.397 -2.63656 -4.29536 0
M  V30 326 H 27.999 -2.72302 -2.56374 0
M  V30 327 H 30.291 -4.00521 -5.46433 0
M  V30 328 H 31.234 -5.31287 -4.68123 0
M  V30 329 H 31.642 -3.60419 -4.34463 0
M  V30 330 N 31.0401 0.771051 -1.3745 0
M  V30 331 C 31.9501 1.91538 -1.35464 0
M  V30 332 C 32.9661 1.72134 -0.254123 0
M  V30 333 O 34.1421 1.95358 -0.489626 0
M  V30 334 C 31.2071 3.26671 -1.16134 0
M  V30 335 C 30.2681 3.58723 -2.35831 0
M  V30 336 C 29.5011 4.87409 -2.17413 0
M  V30 337 O 29.7241 5.58506 -1.15876 0
M  V30 338 O 28.6581 5.18539 -3.05615 0
M  V30 339 H 32.4841 1.96165 -2.31847 0
M  V30 340 H 30.0691 0.9139 -1.18187 0
M  V30 341 H 31.9511 4.07499 -1.07345 0
M  V30 342 H 30.6261 3.22894 -0.228251 0
M  V30 343 H 29.5331 2.78127 -2.50192 0
M  V30 344 H 30.8661 3.67243 -3.27709 0
M  V30 345 N 32.5182 1.22032 0.997298 0
M  V30 346 C 33.4812 0.987909 2.06816 0
M  V30 347 C 34.4812 -0.0440084 1.6074 0
M  V30 348 O 35.6712 0.194053 1.73116 0
M  V30 349 C 32.8032 0.49132 3.37341 0
M  V30 350 H 33.9962 1.93803 2.28868 0
M  V30 351 H 31.5492 1.03838 1.16822 0
M  V30 352 H 32.2842 -0.463364 3.20973 0
M  V30 353 H 32.0692 1.23575 3.72118 0
M  V30 354 H 33.5592 0.348824 4.16141 0
M  V30 355 N 33.9963 -1.19345 1.0293 0
M  V30 356 C 34.9443 -2.24621 0.604001 0
M  V30 357 C 35.9383 -1.65452 -0.363587 0
M  V30 358 O 37.1443 -1.78497 -0.23212 0
M  V30 359 H 33.5193 -0.730858 0.177061 0
M  V30 360 H 35.4903 -2.5781 1.50255 0
M  V30 361 C 34.2393 -3.47688 -0.0289127 0
M  V30 362 H 33.5623 -3.93505 0.706651 0
M  V30 363 H 35.0023 -4.23011 -0.289432 0
M  V30 364 C 33.4613 -3.11817 -1.2756 0
M  V30 365 O 33.9913 -3.2451 -2.36762 0
M  V30 366 N 32.1973 -2.66246 -1.16453 0
M  V30 367 H 31.7443 -2.56118 -0.275914 0
M  V30 368 H 31.7023 -2.42617 -1.99961 0
M  V30 369 N 35.4744 -0.807222 -1.35358 0
M  V30 370 C 36.7234 -0.384376 -1.98004 0
M  V30 371 C 37.0364 1.0543 -1.64754 0
M  V30 372 O 38.2424 1.58029 -2.20769 0
M  V30 373 C 36.6984 -0.636326 -3.5423 0
M  V30 374 C 36.3064 -2.08759 -3.96388 0
M  V30 375 C 38.0504 -0.278869 -4.23583 0
M  V30 376 C 35.9574 -2.28525 -5.45463 0
M  V30 377 H 34.8874 -0.139986 -0.740891 0
M  V30 378 H 37.5384 -0.991369 -1.54415 0
M  V30 379 H 35.9204 0.0406256 -3.95979 0
M  V30 380 H 37.0944 -2.8024 -3.6579 0
M  V30 381 H 35.4094 -2.40497 -3.39926 0
M  V30 382 H 38.0064 -0.404599 -5.33167 0
M  V30 383 H 38.3494 0.775012 -4.09022 0
M  V30 384 H 38.8824 -0.909764 -3.87257 0
M  V30 385 H 35.6214 -3.32361 -5.64992 0
M  V30 386 H 35.1414 -1.61569 -5.77629 0
M  V30 387 H 36.8204 -2.10109 -6.11934 0
M  V30 388 N 36.9525 1.47285 -0.560781 0
M  V30 389 C 38.2295 1.9558 0.0277798 0
M  V30 390 C 38.6095 1.5034 1.48192 0
M  V30 391 O 37.9575 0.743882 2.16052 0
M  V30 392 C 38.1675 3.48789 -0.121418 0
M  V30 393 C 39.5155 4.24594 0.0220912 0
M  V30 394 O 40.5395 3.56166 -0.0491439 0
M  V30 395 O 39.3985 5.46217 0.175958 0
M  V30 396 H 36.4925 0.824663 0.0621342 0
M  V30 397 H 39.0385 1.5767 -0.627556 0
M  V30 398 H 37.8105 3.74533 -1.13316 0
M  V30 399 H 37.4335 3.93473 0.571366 0
M  V30 400 N 38.4306 0.297415 1.54768 0
M  V30 401 C 39.8466 -0.0560823 1.59501 0
M  V30 402 C 40.0466 -1.52725 1.31444 0
M  V30 403 O 39.1026 -2.27947 1.08611 0
M  V30 404 C 40.4156 0.338631 2.98787 0
M  V30 405 C 41.9636 0.287097 3.11681 0
M  V30 406 C 42.4386 0.656579 4.53269 0
M  V30 407 N 43.9296 0.608977 4.59179 0
M  V30 408 C 44.6646 0.867385 5.66802 0
M  V30 409 N 44.1606 1.19157 6.82476 0
M  V30 410 N 45.9536 0.794687 5.56454 0
M  V30 411 H 38.1046 1.25624 1.71267 0
M  V30 412 H 40.3676 0.509057 0.799728 0
M  V30 413 H 40.0736 1.36263 3.2423 0
M  V30 414 H 39.9476 -0.309508 3.75928 0
M  V30 415 H 42.3346 -0.727649 2.85988 0
M  V30 416 H 42.4156 0.969809 2.36703 0
M  V30 417 H 42.0596 1.66912 4.7969 0
M  V30 418 H 41.9896 -0.0481649 5.26578 0
M  V30 419 H 44.4806 0.369198 3.76092 0
M  V30 420 H 44.7936 1.37482 7.60473 0
M  V30 421 H 43.1386 1.22958 6.84037 0
M  V30 422 H 46.3296 0.541098 4.64962 0
M  V30 423 H 46.5026 0.999445 6.40246 0
M  V30 424 N 39.9087 -1.5758 0.0250728 0
M  V30 425 C 41.1577 -1.90811 -0.653767 0
M  V30 426 C 41.4707 -0.90273 -1.73523 0
M  V30 427 O 42.6767 -1.12614 -2.47043 0
M  V30 428 C 41.1327 -3.38804 -1.21409 0
M  V30 429 C 40.7407 -4.47692 -0.166126 0
M  V30 430 C 42.4847 -3.81108 -1.86967 0
M  V30 431 C 40.3917 -5.86779 -0.737856 0
M  V30 432 H 39.3217 -0.712063 -0.247956 0
M  V30 433 H 41.9727 -1.83281 0.0897137 0
M  V30 434 H 40.3547 -3.41252 -2.00905 0
M  V30 435 H 41.5287 -4.56797 0.606079 0
M  V30 436 H 39.8437 -4.14565 0.390466 0
M  V30 437 H 42.4407 -4.82375 -2.30692 0
M  V30 438 H 42.7837 -3.15953 -2.71071 0
M  V30 439 H 43.3167 -3.81065 -1.14167 0
M  V30 440 H 40.0557 -6.55468 0.0649577 0
M  V30 441 H 39.5757 -5.81288 -1.47864 0
M  V30 442 H 41.2547 -6.35223 -1.22884 0
M  V30 443 N 41.3868 0.248026 -1.55636 0
M  V30 444 C 42.3338 1.30707 -1.90222 0
M  V30 445 C 43.3038 1.47881 -0.756332 0
M  V30 446 O 44.4888 1.61883 -1.00988 0
M  V30 447 C 41.6288 2.65769 -2.20138 0
M  V30 448 C 40.7418 2.56612 -3.47526 0
M  V30 449 C 39.8768 3.8402 -3.67017 0
M  V30 450 C 38.9158 3.69476 -4.8801 0
M  V30 451 N 38.0528 4.88774 -5.04029 0
M  V30 452 H 42.8928 1.00512 -2.80538 0
M  V30 453 H 40.4298 0.485055 -1.38873 0
M  V30 454 H 42.3878 3.44386 -2.35487 0
M  V30 455 H 41.0178 2.94115 -1.33027 0
M  V30 456 H 40.0698 1.69571 -3.40514 0
M  V30 457 H 41.3818 2.41774 -4.36287 0
M  V30 458 H 40.5358 4.7108 -3.8232 0
M  V30 459 H 39.2748 4.01754 -2.76487 0
M  V30 460 H 38.2798 2.80799 -4.72686 0
M  V30 461 H 39.5048 3.53238 -5.8 0
M  V30 462 H 37.4508 5.0687 -4.16435 0
M  V30 463 H 37.3678 4.76562 -5.86877 0
M  V30 464 H 38.6358 5.77335 -5.23741 0
M  V30 465 N 42.8649 1.48995 0.513639 0
M  V30 466 C 44.1109 1.58076 1.27042 0
M  V30 467 C 44.4439 0.261026 1.92438 0
M  V30 468 O 43.7189 -0.734393 1.80103 0
M  V30 469 C 44.0019 2.73091 2.34719 0
M  V30 470 C 43.8549 4.14821 1.73907 0
M  V30 471 C 45.1739 2.83796 3.36375 0
M  V30 472 H 42.2929 0.575391 0.460536 0
M  V30 473 H 44.9349 1.81232 0.570516 0
M  V30 474 H 43.0849 2.53479 2.94416 0
M  V30 475 H 44.7569 4.45917 1.18135 0
M  V30 476 H 42.9999 4.21058 1.0437 0
M  V30 477 H 43.6709 4.91147 2.51949 0
M  V30 478 H 46.1469 3.01611 2.86653 0
M  V30 479 H 45.0229 3.65971 4.09093 0
M  V30 480 H 45.2839 1.92624 3.9793 0
M  V30 481 N 44.343 -0.763751 1.37857 0
M  V30 482 C 45.568 -1.55805 1.36893 0
M  V30 483 C 45.993 -1.88054 -0.0416135 0
M  V30 484 O 45.351 -1.49825 -1.02089 0
M  V30 485 C 45.399 -2.84012 2.22192 0
M  V30 486 O 44.503 -3.78732 1.63204 0
M  V30 487 H 43.844 -0.471638 0.46739 0
M  V30 488 H 46.374 -0.944657 1.81487 0
M  V30 489 H 46.384 -3.33037 2.35691 0
M  V30 490 H 45.059 -2.59869 3.24716 0
M  V30 491 H 43.636 -3.37402 1.58791 0
M  V30 492 N 45.8211 -1.22559 -0.990812 0
M  V30 493 C 46.7681 -0.997519 -2.0813 0
M  V30 494 C 47.7381 0.0814702 -1.659 0
M  V30 495 O 48.9231 -0.0685424 -1.90677 0
M  V30 496 C 46.0631 -0.583615 -3.40129 0
M  V30 497 C 45.1761 -1.7336 -3.9569 0
M  V30 498 C 44.3111 -1.26748 -5.15857 0
M  V30 499 C 43.3501 -2.38888 -5.63559 0
M  V30 500 N 42.4871 -1.93308 -6.74964 0
M  V30 501 H 47.3271 -1.93099 -2.26973 0
M  V30 502 H 44.8641 -0.962114 -1.11273 0
M  V30 503 H 46.8221 -0.324801 -4.15934 0
M  V30 504 H 45.4521 0.312845 -3.2128 0
M  V30 505 H 44.5041 -2.10669 -3.16738 0
M  V30 506 H 45.8161 -2.57704 -4.27071 0
M  V30 507 H 44.9701 -0.966173 -5.98957 0
M  V30 508 H 43.7091 -0.394272 -4.86104 0
M  V30 509 H 42.7141 -2.69805 -4.79046 0
M  V30 510 H 43.9391 -3.26728 -5.95336 0
M  V30 511 H 41.8851 -1.08352 -6.4699 0
M  V30 512 H 41.8021 -2.71217 -7.05675 0
M  V30 513 H 43.0701 -1.66252 -7.61564 0
M  V30 514 N 47.2992 1.18797 -1.03562 0
M  V30 515 C 48.2622 2.20464 -0.626769 0
M  V30 516 C 49.2622 1.57721 0.313173 0
M  V30 517 O 50.4522 1.73917 0.0992615 0
M  V30 518 C 47.5842 3.40802 0.0818498 0
M  V30 519 H 48.7772 2.58149 -1.5264 0
M  V30 520 H 46.3302 1.32593 -0.827578 0
M  V30 521 H 47.0652 3.08642 0.995518 0
M  V30 522 H 46.8502 3.8758 -0.593652 0
M  V30 523 H 48.3402 4.16092 0.354584 0
M  V30 524 N 48.7773 0.814389 1.34928 0
M  V30 525 C 49.7403 0.235759 2.27984 0
M  V30 526 C 50.7403 -0.581412 1.49921 0
M  V30 527 O 51.9303 -0.398758 1.69575 0
M  V30 528 C 49.0623 -0.670433 3.34242 0
M  V30 529 H 50.2553 1.05659 2.80671 0
M  V30 530 H 47.8083 0.585614 1.44915 0
M  V30 531 H 48.5433 -1.51466 2.86755 0
M  V30 532 H 48.3283 -0.0860822 3.92005 0
M  V30 533 H 49.8183 -1.06935 4.03676 0
M  V30 534 N 50.2554 -1.46986 0.568584 0
M  V30 535 C 51.2184 -2.28624 -0.162366 0
M  V30 536 C 52.2184 -1.37596 -0.832103 0
M  V30 537 O 53.4084 -1.60115 -0.68622 0
M  V30 538 C 50.5404 -3.17596 -1.23878 0
M  V30 539 H 51.7334 -2.94722 0.554899 0
M  V30 540 H 49.2864 -1.52863 0.325976 0
M  V30 541 H 50.0214 -2.56214 -1.98808 0
M  V30 542 H 49.8064 -3.846 -0.763219 0
M  V30 543 H 51.2964 -3.79078 -1.75185 0
M  V30 544 N 51.7335 -0.305618 -1.54608 0
M  V30 545 C 53.0105 0.355652 -1.92339 0
M  V30 546 C 53.3905 1.71324 -1.23335 0
M  V30 547 O 52.7385 2.25473 -0.370702 0
M  V30 548 C 52.9485 0.46572 -3.45879 0
M  V30 549 C 54.2965 0.734426 -4.182 0
M  V30 550 O 55.3205 0.54935 -3.51938 0
M  V30 551 O 54.1795 1.09024 -5.35515 0
M  V30 552 H 51.2735 0.199666 -0.802535 0
M  V30 553 H 53.8195 -0.354017 -1.65966 0
M  V30 554 H 52.5915 -0.488461 -3.88239 0
M  V30 555 H 52.2145 1.22367 -3.78301 0
M  V30 556 N 53.2116 1.57565 -0.0334293 0
M  V30 557 C 54.1416 2.13511 0.945265 0
M  V30 558 C 55.1226 1.05231 1.33643 0
M  V30 559 O 56.3076 1.33084 1.41429 0
M  V30 560 C 53.4376 2.6657 2.22616 0
M  V30 561 C 52.3916 3.79676 1.97561 0
M  V30 562 C 51.7176 4.1918 3.31952 0
M  V30 563 C 53.0176 5.0557 1.31135 0
M  V30 564 H 54.7116 2.95538 0.479325 0
M  V30 565 H 52.2576 1.42166 0.229115 0
M  V30 566 H 54.2106 3.04344 2.91466 0
M  V30 567 H 52.9346 1.8171 2.71384 0
M  V30 568 H 51.5936 3.42347 1.31127 0
M  V30 569 H 51.2416 3.31296 3.78487 0
M  V30 570 H 50.9416 4.95402 3.15992 0
M  V30 571 H 52.4656 4.59541 4.02063 0
M  V30 572 H 53.8796 5.40903 1.89992 0
M  V30 573 H 52.2766 5.86818 1.25559 0
M  V30 574 H 53.3466 4.84062 0.284894 0
M  V30 575 N 54.6897 -0.239769 1.55765 0
M  V30 576 C 55.6227 -1.32356 1.85895 0
M  V30 577 C 56.6007 -1.46053 0.714662 0
M  V30 578 O 57.7847 -1.62154 0.961157 0
M  V30 579 C 54.9117 -2.6962 2.04994 0
M  V30 580 C 53.9577 -2.73036 3.27648 0
M  V30 581 S 54.7907 -2.28929 4.84099 0
M  V30 582 C 55.9467 -3.68103 5.06212 0
M  V30 583 H 56.1797 -1.06601 2.77531 0
M  V30 584 H 53.7127 -0.441112 1.47965 0
M  V30 585 H 55.6707 -3.48653 2.16682 0
M  V30 586 H 54.3317 -2.92609 1.14188 0
M  V30 587 H 53.5247 -3.7386 3.38 0
M  V30 588 H 53.1267 -2.02052 3.14723 0
M  V30 589 H 55.4187 -4.63656 4.93993 0
M  V30 590 H 56.3617 -3.6268 6.08168 0
M  V30 591 H 56.7697 -3.60947 4.34025 0
M  V30 592 N 56.1678 -1.49265 -0.50573 0
M  V30 593 C 57.1308 -1.65075 -1.59006 0
M  V30 594 C 58.1308 -0.522768 -1.52065 0
M  V30 595 O 59.3208 -0.789117 -1.55302 0
M  V30 596 C 56.4528 -1.64369 -2.98656 0
M  V30 597 H 57.6458 -2.61784 -1.46319 0
M  V30 598 H 55.1988 -1.38226 -0.729616 0
M  V30 599 H 55.9338 -0.692272 -3.16825 0
M  V30 600 H 55.7188 -2.46282 -3.05103 0
M  V30 601 H 57.2088 -1.78674 -3.77446 0
M  V30 602 N 57.6459 0.756429 -1.3826 0
M  V30 603 C 58.8759 1.54341 -1.3734 0
M  V30 604 C 59.2839 1.89159 0.0393917 0
M  V30 605 O 58.6269 1.5307 1.01565 0
M  V30 606 C 58.6889 2.87238 -2.16182 0
M  V30 607 C 58.3529 2.74973 -3.65019 0
M  V30 608 C 59.3499 2.44962 -4.58574 0
M  V30 609 C 57.0349 2.92515 -4.08338 0
M  V30 610 C 59.0289 2.32642 -5.93428 0
M  V30 611 C 56.7159 2.79815 -5.43274 0
M  V30 612 C 57.7139 2.49921 -6.35632 0
M  V30 613 O 57.4019 2.37275 -7.68086 0
M  V30 614 H 57.1339 0.484281 -0.471643 0
M  V30 615 H 59.6879 0.944152 -1.82414 0
M  V30 616 H 57.9179 3.49342 -1.65822 0
M  V30 617 H 59.6069 3.48731 -2.07705 0
M  V30 618 H 60.3729 2.31081 -4.26412 0
M  V30 619 H 56.2519 3.14781 -3.368 0
M  V30 620 H 59.7959 2.0923 -6.65484 0
M  V30 621 H 55.6929 2.93269 -5.75034 0
M  V30 622 H 56.4609 2.52509 -7.78577 0
M  V30 623 N 59.124 1.23083 0.984299 0
M  V30 624 C 60.364 1.07226 1.74017 0
M  V30 625 C 60.728 -0.384766 1.88105 0
M  V30 626 O 61.929 -0.664411 2.60459 0
M  V30 627 C 60.2 1.77348 3.10294 0
M  V30 628 S 61.759 1.77014 4.01512 0
M  V30 629 H 58.577 0.383819 0.598502 0
M  V30 630 H 61.179 1.56158 1.17622 0
M  V30 631 H 59.883 2.82506 2.97689 0
M  V30 632 H 59.414 1.28682 3.71759 0
M  V30 633 H 61.429 0.825956 4.89277 0
M  V30 634 N 60.6021 -1.18246 1.0419 0
M  V30 635 C 61.5121 -2.25574 0.644476 0
M  V30 636 C 62.5281 -1.70845 -0.329826 0
M  V30 637 O 63.7041 -2.00554 -0.184443 0
M  V30 638 C 60.7691 -3.46697 0.014877 0
M  V30 639 C 59.8301 -4.16554 1.03834 0
M  V30 640 C 59.0631 -5.31894 0.438692 0
M  V30 641 O 59.2861 -5.65385 -0.754752 0
M  V30 642 O 58.2201 -5.90459 1.168 0
M  V30 643 H 62.0461 -2.61836 1.53869 0
M  V30 644 H 59.6311 -1.25352 0.812854 0
M  V30 645 H 61.5131 -4.20062 -0.335538 0
M  V30 646 H 60.1881 -3.12255 -0.853138 0
M  V30 647 H 59.0951 -3.45251 1.44057 0
M  V30 648 H 60.4281 -4.54998 1.87716 0
M  V30 649 N 62.0802 -0.821533 -1.34494 0
M  V30 650 C 63.0432 -0.247847 -2.27856 0
M  V30 651 C 64.0432 0.573453 -1.50227 0
M  V30 652 O 65.2332 0.389759 -1.69784 0
M  V30 653 C 62.3652 0.652698 -3.34593 0
M  V30 654 H 63.5582 -1.07146 -2.80107 0
M  V30 655 H 61.1112 -0.593291 -1.44602 0
M  V30 656 H 61.8462 1.49943 -2.87555 0
M  V30 657 H 61.6312 0.065292 -3.92046 0
M  V30 658 H 63.1212 1.04793 -4.04238 0
M  V30 659 N 63.5583 1.46682 -0.576371 0
M  V30 660 C 64.5083 2.27278 0.181288 0
M  V30 661 C 65.4923 1.35497 0.867721 0
M  V30 662 O 66.6843 1.59717 0.762863 0
M  V30 663 C 63.8133 3.21703 1.19841 0
M  V30 664 C 62.8993 4.20969 0.51442 0
M  V30 665 N 63.2903 5.03999 -0.426407 0
M  V30 666 C 61.5883 4.39373 0.765963 0
M  V30 667 C 62.2893 5.75812 -0.825565 0
M  V30 668 N 61.2653 5.43315 -0.176116 0
M  V30 669 H 65.0673 2.88863 -0.541785 0
M  V30 670 H 62.5813 1.57455 -0.397697 0
M  V30 671 H 64.5783 3.78145 1.75533 0
M  V30 672 H 63.2383 2.61677 1.92238 0
M  V30 673 H 64.2493 5.11659 -0.8016 0
M  V30 674 H 60.9263 3.90502 1.47698 0
M  V30 675 H 62.3163 6.52577 -1.59976 0
M  V30 676 N 65.0364 0.313813 1.54444 0
M  V30 677 C 65.9994 -0.54379 2.22656 0
M  V30 678 C 66.9994 -1.05124 1.21678 0
M  V30 679 O 68.1894 -0.945225 1.46325 0
M  V30 680 C 65.3214 -1.75427 2.92298 0
M  V30 681 H 66.5144 0.0523599 2.99854 0
M  V30 682 H 64.0674 0.0647834 1.56166 0
M  V30 683 H 64.8024 -2.38991 2.19211 0
M  V30 684 H 64.5874 -1.39791 3.66334 0
M  V30 685 H 66.0774 -2.36325 3.44297 0
M  V30 686 N 66.5145 -1.57545 0.0417849 0
M  V30 687 C 67.4615 -2.10977 -0.935805 0
M  V30 688 C 68.4315 -1.01486 -1.31491 0
M  V30 689 O 69.6165 -1.2898 -1.40602 0
M  V30 690 C 66.7565 -2.65169 -2.2086 0
M  V30 691 C 65.8695 -3.88714 -1.88482 0
M  V30 692 C 65.0045 -4.31254 -3.1015 0
M  V30 693 C 64.0435 -5.47524 -2.7365 0
M  V30 694 N 63.1805 -5.85162 -3.87982 0
M  V30 695 H 68.0205 -2.94218 -0.473249 0
M  V30 696 H 65.5575 -1.45415 -0.221981 0
M  V30 697 H 67.5155 -2.94685 -2.95325 0
M  V30 698 H 66.1455 -1.8474 -2.64709 0
M  V30 699 H 65.1975 -3.65849 -1.04205 0
M  V30 700 H 66.5095 -4.73245 -1.57608 0
M  V30 701 H 65.6635 -4.62273 -3.92923 0
M  V30 702 H 64.4025 -3.45516 -3.44195 0
M  V30 703 H 63.4075 -5.16187 -1.89291 0
M  V30 704 H 64.6325 -6.34971 -2.40807 0
M  V30 705 H 62.5785 -5.02377 -4.21846 0
M  V30 706 H 62.4955 -6.64362 -3.60775 0
M  V30 707 H 63.7635 -6.20791 -4.71422 0
M  V30 708 N 67.9926 0.231505 -1.5589 0
M  V30 709 C 68.9026 1.308 -1.94752 0
M  V30 710 C 69.9186 1.51826 -0.849989 0
M  V30 711 O 71.0946 1.6515 -1.15271 0
M  V30 712 C 68.1596 2.63968 -2.24771 0
M  V30 713 C 67.2206 2.51331 -3.48039 0
M  V30 714 C 66.4536 3.78148 -3.76616 0
M  V30 715 O 66.6766 4.80722 -3.07022 0
M  V30 716 O 65.6106 3.75857 -4.70123 0
M  V30 717 H 69.4366 1.0083 -2.86474 0
M  V30 718 H 67.0216 0.433547 -1.42971 0
M  V30 719 H 68.9036 3.42633 -2.45318 0
M  V30 720 H 67.5786 2.9364 -1.36225 0
M  V30 721 H 66.4856 1.709 -3.32782 0
M  V30 722 H 67.8186 2.26601 -4.36936 0
M  V30 723 N 69.4707 1.49531 0.497807 0
M  V30 724 C 70.7477 1.49682 1.25915 0
M  V30 725 C 71.1277 0.226339 2.09883 0
M  V30 726 O 70.4757 -0.791189 2.14365 0
M  V30 727 C 70.6857 2.77755 2.11313 0
M  V30 728 C 72.0337 3.27371 2.70395 0
M  V30 729 O 73.0577 2.78894 2.21578 0
M  V30 730 O 71.9167 4.11808 3.59272 0
M  V30 731 H 69.0107 0.599228 0.56996 0
M  V30 732 H 71.5567 1.61798 0.511816 0
M  V30 733 H 70.3287 3.61713 1.49264 0
M  V30 734 H 69.9517 2.68515 2.93233 0
M  V30 735 N 70.9488 -0.749086 1.3866 0
M  V30 736 C 72.3598 -1.32664 1.31366 0
M  V30 737 C 72.7108 -1.96179 -0.028484 0
M  V30 738 O 71.8358 -1.9537 -0.93057 0
M  V30 739 C 72.4308 -2.41219 2.37905 0
M  V30 740 C 70.9898 -2.94684 2.34176 0
M  V30 741 C 70.1368 -1.68108 2.20533 0
M  V30 742 H 73.0878 -0.547628 1.48952 0
M  V30 743 H 73.1088 -3.21268 2.0388 0
M  V30 744 H 72.6208 -1.94962 3.35576 0
M  V30 745 H 70.7218 -3.45258 1.401 0
M  V30 746 H 70.8348 -3.48757 3.2849 0
M  V30 747 H 69.1988 -1.91907 1.67463 0
M  V30 748 H 69.9818 -1.23923 3.20153 0
M  V30 749 N 72.4269 -1.23603 -0.977757 0
M  V30 750 C 73.3569 -1.04401 -2.0886 0
M  V30 751 C 74.3379 0.0399052 -1.70053 0
M  V30 752 O 75.5229 -0.125246 -1.93796 0
M  V30 753 C 72.6529 -0.637269 -3.41403 0
M  V30 754 C 71.6069 -1.66883 -3.94124 0
M  V30 755 C 70.9329 -1.11745 -5.22893 0
M  V30 756 C 72.2329 -3.06247 -4.23096 0
M  V30 757 H 73.9269 -1.97316 -2.25182 0
M  V30 758 H 71.4729 -0.950096 -1.08209 0
M  V30 759 H 73.4259 -0.48998 -4.18542 0
M  V30 760 H 72.1499 0.327557 -3.24953 0
M  V30 761 H 70.8089 -1.80416 -3.19133 0
M  V30 762 H 70.4569 -0.143527 -5.02795 0
M  V30 763 H 70.1569 -1.80672 -5.59134 0
M  V30 764 H 71.6809 -0.982067 -6.02651 0
M  V30 765 H 73.0949 -2.96001 -4.90975 0
M  V30 766 H 71.4919 -3.72436 -4.70544 0
M  V30 767 H 72.5619 -3.55041 -3.30263 0
M  V30 768 N 73.905 1.17692 -1.04816 0
M  V30 769 C 74.835 2.23777 -0.666791 0
M  V30 770 C 75.816 1.66796 0.33361 0
M  V30 771 O 77.001 1.93039 0.212042 0
M  V30 772 C 74.131 3.47281 -0.0367933 0
M  V30 773 C 73.085 4.17059 -0.961546 0
M  V30 774 C 72.411 5.34342 -0.195626 0
M  V30 775 C 73.711 4.69713 -2.28402 0
M  V30 776 H 75.405 2.55933 -1.55367 0
M  V30 777 H 72.951 1.23019 -0.748484 0
M  V30 778 H 74.904 4.20706 0.241775 0
M  V30 779 H 73.628 3.14381 0.885004 0
M  V30 780 H 72.287 3.45541 -1.22462 0
M  V30 781 H 71.935 4.97692 0.728816 0
M  V30 782 H 71.635 5.81966 -0.811775 0
M  V30 783 H 73.159 6.10553 0.0757473 0
M  V30 784 H 74.573 5.34794 -2.06563 0
M  V30 785 H 72.97 5.279 -2.8538 0
M  V30 786 H 74.04 3.86726 -2.92525 0
M  V30 787 N 75.3831 0.828654 1.34056 0
M  V30 788 C 76.6111 0.43262 2.02326 0
M  V30 789 C 77.0261 -0.963147 1.62385 0
M  V30 790 O 76.3831 -1.62425 0.832121 0
M  V30 791 C 76.4341 0.53182 3.57567 0
M  V30 792 O 76.1551 1.87258 3.96063 0
M  V30 793 C 77.6561 0.131422 4.43105 0
M  V30 794 H 74.8761 0.172923 0.648335 0
M  V30 795 H 77.4201 1.1184 1.71208 0
M  V30 796 H 75.5751 -0.105938 3.87255 0
M  V30 797 H 75.9891 1.85087 4.90758 0
M  V30 798 H 77.4631 0.251904 5.51425 0
M  V30 799 H 77.9401 -0.925645 4.29335 0
M  V30 800 H 78.5461 0.743207 4.18756 0
M  V30 801 N 76.8612 -1.46375 0.584142 0
M  V30 802 C 78.2722 -1.86031 0.157959 0
M  V30 803 C 78.6232 -1.48753 -1.27933 0
M  V30 804 O 77.7482 -0.903098 -1.96655 0
M  V30 805 C 78.3432 -3.37642 0.279892 0
M  V30 806 C 76.9022 -3.76289 -0.09143 0
M  V30 807 C 76.0492 -2.7039 0.615178 0
M  V30 808 H 79.0002 -1.37509 0.792274 0
M  V30 809 H 79.0212 -3.77275 -0.494364 0
M  V30 810 H 78.5332 -3.64742 1.32607 0
M  V30 811 H 76.6342 -3.54806 -1.13769 0
M  V30 812 H 76.7472 -4.78246 0.285886 0
M  V30 813 H 75.1112 -2.5464 0.0552833 0
M  V30 814 H 75.8942 -3.0033 1.66303 0
M  V30 815 N 78.3393 -0.321999 -1.54275 0
M  V30 816 C 79.5853 0.281461 -2.00837 0
M  V30 817 C 79.9183 1.51909 -1.20985 0
M  V30 818 O 79.1933 1.923 -0.291733 0
M  V30 819 C 79.4763 0.617162 -3.54772 0
M  V30 820 C 79.3293 -0.631064 -4.45351 0
M  V30 821 C 80.6483 1.43542 -4.16033 0
M  V30 822 H 77.7673 0.100826 -0.730071 0
M  V30 823 H 80.4093 -0.438268 -1.84876 0
M  V30 824 H 78.5593 1.23034 -3.68504 0
M  V30 825 H 80.2313 -1.26934 -4.43492 0
M  V30 826 H 78.4743 -1.26025 -4.15091 0
M  V30 827 H 79.1453 -0.351735 -5.50878 0
M  V30 828 H 81.6213 0.917134 -4.05867 0
M  V30 829 H 80.4973 1.63907 -5.23856 0
M  V30 830 H 80.7583 2.43108 -3.69257 0
M  V30 831 N 79.8174 1.5752 -0.0501392 0
M  V30 832 C 81.2284 1.80271 0.485705 0
M  V30 833 C 81.5794 0.96228 1.70981 0
M  V30 834 O 80.7044 0.178578 2.15662 0
M  V30 835 C 81.2994 3.26957 0.887938 0
M  V30 836 C 79.8584 3.5063 1.36877 0
M  V30 837 C 79.0054 2.75165 0.343468 0
M  V30 838 H 81.9564 1.56281 -0.276028 0
M  V30 839 H 81.9774 3.37821 1.75093 0
M  V30 840 H 81.4894 3.881 -0.0031809 0
M  V30 841 H 79.5904 2.94766 2.27911 0
M  V30 842 H 79.7034 4.59343 1.36164 0
M  V30 843 H 78.0674 2.4127 0.816128 0
M  V30 844 H 78.8504 3.39034 -0.539548 0
M  V30 845 N 81.2955 -0.223234 1.56011 0
M  V30 846 C 82.2585 -1.26014 1.9145 0
M  V30 847 C 83.2585 -1.3989 0.792937 0
M  V30 848 O 84.4485 -1.38184 1.0607 0
M  V30 849 C 81.5805 -2.63422 2.16383 0
M  V30 850 H 82.7735 -0.95796 2.84189 0
M  V30 851 H 80.3265 -0.463576 1.49267 0
M  V30 852 H 81.0615 -2.98741 1.2619 0
M  V30 853 H 80.8465 -2.54728 2.98088 0
M  V30 854 H 82.3365 -3.38249 2.44903 0
M  V30 855 N 82.7736 -1.49793 -0.48987 0
M  V30 856 C 83.9986 -1.63836 -1.27172 0
M  V30 857 C 84.4236 -0.31402 -1.8546 0
M  V30 858 O 83.7816 0.719803 -1.66399 0
M  V30 859 C 83.8296 -2.71797 -2.36978 0
M  V30 860 O 82.9336 -2.31744 -3.41128 0
M  V30 861 H 82.2746 -0.547997 -0.37496 0
M  V30 862 H 84.8046 -1.96053 -0.585191 0
M  V30 863 H 84.8146 -2.94305 -2.82575 0
M  V30 864 H 83.4896 -3.67923 -1.93921 0
M  V30 865 H 82.0666 -2.1961 -3.01373 0
M  V30 866 N 84.2517 0.741722 -1.39055 0
M  V30 867 C 85.1617 1.88621 -1.39496 0
M  V30 868 C 86.1777 1.71557 -0.290578 0
M  V30 869 O 87.3537 1.94275 -0.530954 0
M  V30 870 C 84.4187 3.24134 -1.23037 0
M  V30 871 C 83.4797 3.5364 -2.43387 0
M  V30 872 C 82.7127 4.82687 -2.27703 0
M  V30 873 O 82.9357 5.55922 -1.27696 0
M  V30 874 O 81.8697 5.1194 -3.16545 0
M  V30 875 H 85.6957 1.91203 -2.35956 0
M  V30 876 H 83.2807 0.888625 -1.20099 0
M  V30 877 H 85.1627 4.0513 -1.15964 0
M  V30 878 H 83.8377 3.22337 -0.296691 0
M  V30 879 H 82.7447 2.72758 -2.56035 0
M  V30 880 H 84.0777 3.60209 -3.35425 0
M  V30 881 N 85.7298 1.2412 0.971189 0
M  V30 882 C 86.6778 1.02812 2.08644 0
M  V30 883 C 87.6718 -0.0358403 1.69362 0
M  V30 884 O 88.8778 0.118429 1.7961 0
M  V30 885 H 85.2528 0.315428 0.682649 0
M  V30 886 H 87.2238 1.97397 2.23779 0
M  V30 887 C 85.9728 0.645874 3.41649 0
M  V30 888 H 85.2958 1.45632 3.72332 0
M  V30 889 H 86.7358 0.536366 4.20594 0
M  V30 890 C 85.1948 -0.646713 3.30635 0
M  V30 891 O 85.7248 -1.69338 3.64263 0
M  V30 892 N 83.9308 -0.626115 2.83775 0
M  V30 893 H 83.4778 0.225988 2.56607 0
M  V30 894 H 83.4358 -1.49117 2.76788 0
M  V30 895 N 87.2079 -1.17134 1.05439 0
M  V30 896 C 88.6189 -1.69084 0.791676 0
M  V30 897 C 88.9699 -1.83822 -0.685839 0
M  V30 898 O 88.0949 -1.52757 -1.53278 0
M  V30 899 C 88.6899 -3.07119 1.4305 0
M  V30 900 C 87.2489 -3.56225 1.21577 0
M  V30 901 C 86.3959 -2.32421 1.51247 0
M  V30 902 H 89.3469 -1.01617 1.219 0
M  V30 903 H 89.3679 -3.71087 0.84112 0
M  V30 904 H 88.8799 -2.9636 2.50584 0
M  V30 905 H 86.9809 -3.72257 0.159787 0
M  V30 906 H 87.0939 -4.38837 1.92246 0
M  V30 907 H 85.4579 -2.3701 0.932653 0
M  V30 908 H 86.2409 -2.24268 2.5992 0
M  V30 909 N 88.686 -0.835752 -1.33615 0
M  V30 910 C 89.933 -0.429959 -1.97883 0
M  V30 911 C 90.261 1.01006 -1.66217 0
M  V30 912 O 89.516 1.72047 -0.93265 0
M  V30 913 C 89.815 -0.593925 -3.52431 0
M  V30 914 C 89.481 -2.00158 -4.04039 0
M  V30 915 C 88.143 -2.38662 -4.17844 0
M  V30 916 C 90.495 -2.92117 -4.31644 0
M  V30 917 C 87.823 -3.68435 -4.56588 0
M  V30 918 C 90.175 -4.21368 -4.71838 0
M  V30 919 C 88.839 -4.59833 -4.83849 0
M  V30 920 H 88.109 -0.157333 -0.724104 0
M  V30 921 H 90.756 -1.06217 -1.59343 0
M  V30 922 H 89.061 0.121619 -3.91611 0
M  V30 923 H 90.758 -0.260282 -4.00154 0
M  V30 924 H 87.348 -1.69252 -3.93766 0
M  V30 925 H 91.532 -2.63608 -4.20505 0
M  V30 926 H 86.788 -3.98046 -4.64079 0
M  V30 927 H 90.962 -4.92703 -4.92155 0
M  V30 928 H 88.589 -5.60438 -5.13627 0
M  V30 929 N 90.1641 1.46063 -0.591896 0
M  V30 930 C 91.5801 1.57561 -0.254288 0
M  V30 931 C 91.7801 1.58565 1.24336 0
M  V30 932 O 90.8361 1.50753 2.02558 0
M  V30 933 C 92.1491 2.86549 -0.911611 0
M  V30 934 C 93.6971 3.00197 -0.886059 0
M  V30 935 C 94.1721 4.31933 -1.5231 0
M  V30 936 N 95.6631 4.38654 -1.48786 0
M  V30 937 C 96.3981 5.39222 -1.95006 0
M  V30 938 N 95.8941 6.46414 -2.49241 0
M  V30 939 N 97.6871 5.3048 -1.85868 0
M  V30 940 H 89.8381 1.43655 -1.56451 0
M  V30 941 H 92.1011 0.68583 -0.654478 0
M  V30 942 H 91.8071 2.91651 -1.96551 0
M  V30 943 H 91.6811 3.74794 -0.425368 0
M  V30 944 H 94.0681 2.9467 0.159246 0
M  V30 945 H 94.1491 2.13403 -1.41041 0
M  V30 946 H 93.7931 4.38217 -2.56765 0
M  V30 947 H 93.7231 5.17516 -0.973891 0
M  V30 948 H 96.2141 3.61793 -1.09151 0
M  V30 949 H 96.5271 7.19376 -2.82344 0
M  V30 950 H 94.8721 6.47208 -2.53272 0
M  V30 951 H 98.0631 4.45643 -1.43248 0
M  V30 952 H 98.2361 6.08711 -2.22204 0
M  V30 953 N 91.6422 0.330177 1.54103 0
M  V30 954 C 92.5522 -0.541534 2.28264 0
M  V30 955 C 93.5682 -1.12351 1.32866 0
M  V30 956 O 94.7442 -1.14206 1.65888 0
M  V30 957 C 91.8092 -1.68322 3.03098 0
M  V30 958 C 90.8702 -1.13238 4.14096 0
M  V30 959 C 90.1032 -2.21966 4.85352 0
M  V30 960 O 90.3262 -3.42437 4.56172 0
M  V30 961 O 89.2602 -1.87013 5.7211 0
M  V30 962 H 93.0862 0.060938 3.03639 0
M  V30 963 H 90.6712 0.09565 1.49093 0
M  V30 964 H 92.5532 -2.34777 3.49939 0
M  V30 965 H 91.2282 -2.27176 2.30593 0
M  V30 966 H 90.1352 -0.432736 3.71589 0
M  V30 967 H 91.4682 -0.588898 4.88664 0
M  V30 968 N 93.1203 -1.57491 0.0584922 0
M  V30 969 C 94.0673 -2.11958 -0.913376 0
M  V30 970 C 95.0373 -1.02875 -1.30407 0
M  V30 971 O 96.2223 -1.30464 -1.39226 0
M  V30 972 C 93.3623 -2.67497 -2.18035 0
M  V30 973 C 92.4753 -3.90691 -1.84349 0
M  V30 974 C 91.6103 -4.3452 -3.05559 0
M  V30 975 C 90.6493 -5.50395 -2.67827 0
M  V30 976 N 89.7863 -5.89244 -3.81754 0
M  V30 977 H 94.6263 -2.94704 -0.442017 0
M  V30 978 H 92.1633 -1.45643 -0.206545 0
M  V30 979 H 94.1213 -2.978 -2.92183 0
M  V30 980 H 92.7513 -1.87537 -2.62735 0
M  V30 981 H 91.8033 -3.66934 -1.00319 0
M  V30 982 H 93.1153 -4.7489 -1.5258 0
M  V30 983 H 92.2693 -4.66414 -3.87998 0
M  V30 984 H 91.0083 -3.49147 -3.40511 0
M  V30 985 H 90.0133 -5.18165 -1.83806 0
M  V30 986 H 91.2383 -6.3749 -2.34059 0
M  V30 987 H 89.1843 -5.06823 -4.16493 0
M  V30 988 H 89.1013 -6.68151 -3.53708 0
M  V30 989 H 90.3693 -6.25756 -4.64811 0
M  V30 990 N 94.5984 0.214957 -1.56127 0
M  V30 991 C 95.5454 1.26642 -1.92952 0
M  V30 992 C 96.5154 1.46244 -0.78753 0
M  V30 993 O 97.7004 1.59704 -1.04399 0
M  V30 994 C 94.8404 2.6104 -2.25726 0
M  V30 995 C 93.9534 2.49183 -3.52891 0
M  V30 996 C 93.0884 3.76149 -3.7508 0
M  V30 997 C 92.1274 3.59041 -4.95738 0
M  V30 998 N 91.2644 4.77972 -5.14283 0
M  V30 999 H 96.1044 0.945384 -2.82607 0
M  V30 1000 H 93.6414 0.455489 -1.3987 0
M  V30 1001 H 95.5994 3.39313 -2.42739 0
M  V30 1002 H 94.2294 2.91227 -1.39236 0
M  V30 1003 H 93.2814 1.6231 -3.44034 0
M  V30 1004 H 94.5934 2.32466 -4.41318 0
M  V30 1005 H 93.7474 4.62865 -3.92226 0
M  V30 1006 H 92.4864 3.95799 -2.84947 0
M  V30 1007 H 91.4914 2.7071 -4.78535 0
M  V30 1008 H 92.7164 3.40856 -5.87362 0
M  V30 1009 H 90.6624 4.97923 -4.27093 0
M  V30 1010 H 90.5794 4.64006 -5.96853 0
M  V30 1011 H 91.8474 5.66096 -5.35869 0
M  V30 1012 N 96.0765 1.50051 0.48192 0
M  V30 1013 C 97.3235 1.60498 1.23477 0
M  V30 1014 C 97.6515 0.300331 1.92167 0
M  V30 1015 O 96.9065 -0.713094 1.82246 0
M  V30 1016 C 97.2055 2.72717 2.30998 0
M  V30 1017 C 96.8715 4.13572 1.79636 0
M  V30 1018 C 95.5335 4.519 1.65348 0
M  V30 1019 C 97.8855 5.01649 1.41412 0
M  V30 1020 C 95.2135 5.76057 1.11244 0
M  V30 1021 C 97.5655 6.26343 0.887538 0
M  V30 1022 C 96.2295 6.63483 0.731207 0
M  V30 1023 H 95.4995 0.587303 0.451836 0
M  V30 1024 H 98.1465 1.83948 0.532468 0
M  V30 1025 H 96.4515 2.43312 3.07094 0
M  V30 1026 H 98.1485 2.78006 2.88988 0
M  V30 1027 H 94.7385 3.83329 1.91721 0
M  V30 1028 H 98.9225 4.72679 1.51289 0
M  V30 1029 H 94.1785 6.03516 0.978686 0
M  V30 1030 H 98.3525 6.93958 0.582654 0
M  V30 1031 H 95.9795 7.59568 0.309806 0
M  V30 1032 N 97.5546 -0.734337 1.39446 0
M  V30 1033 C 98.8016 -1.49391 1.36706 0
M  V30 1034 C 99.1296 -1.94465 -0.0367813 0
M  V30 1035 O 98.3846 -1.67154 -1.01774 0
M  V30 1036 C 98.6836 -2.74711 2.28623 0
M  V30 1037 C 98.3496 -2.48501 3.76242 0
M  V30 1038 C 97.0116 -2.41062 4.16464 0
M  V30 1039 C 99.3636 -2.26098 4.69606 0
M  V30 1040 C 96.6916 -2.09262 5.48112 0
M  V30 1041 C 99.0436 -1.95814 6.01531 0
M  V30 1042 C 97.7076 -1.86845 6.40816 0
M  V30 1043 H 96.9776 -0.546661 0.500243 0
M  V30 1044 H 99.6246 -0.842788 1.71957 0
M  V30 1045 H 97.9296 -3.44569 1.86492 0
M  V30 1046 H 99.6266 -3.32741 2.23796 0
M  V30 1047 H 96.2166 -2.55169 3.44364 0
M  V30 1048 H 100.401 -2.30812 4.39363 0
M  V30 1049 H 95.6566 -2.00841 5.77471 0
M  V30 1050 H 99.8306 -1.77488 6.73403 0
M  V30 1051 H 97.4576 -1.6197 7.42745 0
M  V30 1052 N 99.0327 -1.24633 -0.964593 0
M  V30 1053 C 100.273 -1.09981 -1.72289 0
M  V30 1054 C 100.637 0.354792 -1.88693 0
M  V30 1055 O 101.838 0.62289 -2.61483 0
M  V30 1056 C 100.109 -1.82262 -3.07434 0
M  V30 1057 S 101.668 -1.83379 -3.98645 0
M  V30 1058 H 98.4857 -0.393292 -0.59232 0
M  V30 1059 H 101.088 -1.58009 -1.15123 0
M  V30 1060 H 99.7917 -2.87206 -2.93157 0
M  V30 1061 H 99.3227 -1.3458 -3.69664 0
M  V30 1062 H 101.338 -0.903691 -4.87901 0
M  V30 1063 N 100.511 1.16574 -1.06058 0
M  V30 1064 C 101.474 2.19085 -0.673392 0
M  V30 1065 C 102.474 1.5835 0.279648 0
M  V30 1066 O 103.664 1.74088 0.0623488 0
M  V30 1067 C 100.796 3.40899 0.00954234 0
M  V30 1068 H 101.989 2.54853 -1.58081 0
M  V30 1069 H 99.5418 1.30808 -0.855516 0
M  V30 1070 H 100.277 3.10684 0.929826 0
M  V30 1071 H 100.062 3.86233 -0.67573 0
M  V30 1072 H 101.552 4.1675 0.266245 0
M  V30 1073 N 101.989 0.842826 1.3317 0
M  V30 1074 C 103.238 0.436738 1.96915 0
M  V30 1075 C 103.551 -1.01025 1.67491 0
M  V30 1076 O 104.757 -1.5212 2.24881 0
M  V30 1077 C 103.213 0.730021 3.52418 0
M  V30 1078 C 102.821 2.19195 3.90714 0
M  V30 1079 C 104.565 0.391076 4.22695 0
M  V30 1080 C 102.472 2.42907 5.39212 0
M  V30 1081 H 101.402 0.15958 0.736919 0
M  V30 1082 H 104.053 1.03196 1.51733 0
M  V30 1083 H 102.435 0.0643755 3.95948 0
M  V30 1084 H 103.609 2.8984 3.58231 0
M  V30 1085 H 101.924 2.49425 3.33431 0
M  V30 1086 H 104.521 0.545817 5.31907 0
M  V30 1087 H 104.864 -0.666294 4.10933 0
M  V30 1088 H 105.397 1.01212 3.84709 0
M  V30 1089 H 102.136 3.47224 5.55982 0
M  V30 1090 H 101.656 1.76827 5.73142 0
M  V30 1091 H 103.335 2.2626 6.06148 0
M  V30 1092 N 103.467 -1.45747 0.599634 0
M  V30 1093 C 104.397 -2.33235 -0.111306 0
M  V30 1094 C 105.378 -1.46359 -0.866781 0
M  V30 1095 O 106.563 -1.75146 -0.838904 0
M  V30 1096 C 103.693 -3.28932 -1.11451 0
M  V30 1097 C 102.647 -4.25381 -0.472772 0
M  V30 1098 C 101.973 -5.1071 -1.58365 0
M  V30 1099 C 103.273 -5.18831 0.600948 0
M  V30 1100 H 104.967 -2.92927 0.61919 0
M  V30 1101 H 102.513 -1.40857 0.299215 0
M  V30 1102 H 104.466 -3.89002 -1.62036 0
M  V30 1103 H 103.19 -2.67381 -1.8755 0
M  V30 1104 H 101.849 -3.66598 0.0121472 0
M  V30 1105 H 101.497 -4.45533 -2.33473 0
M  V30 1106 H 101.197 -5.7604 -1.15982 0
M  V30 1107 H 102.721 -5.73647 -2.09194 0
M  V30 1108 H 104.135 -5.73019 0.179491 0
M  V30 1109 H 102.532 -5.92595 0.946076 0
M  V30 1110 H 103.602 -4.6174 1.48068 0
M  V30 1111 O 104.984 -0.480519 -1.54186 0
M  V30 1112 H 105.675 0.0423979 -1.93654 0
M  V30 END ATOM
M  V30 BEGIN BOND
M  V30 END BOND
M  V30 END CTAB
M  END
$$$$
