drugbank_target|P60063 Arginine/agmatine antiporter (DB02451)
 OpenBabel12092120433D

  0  0  0     0  0            999 V3000
M  V30 BEGIN CTAB
M  V30 COUNTS 6714 6800 0 0 0
M  V30 BEGIN ATOM
M  V30 1 H -0.908 1.98254 -0.117106 0
M  V30 2 N 0 1.576 0 0
M  V30 3 C 0.933 2.03868 1.02534 0
M  V30 4 C 1.911 0.928543 1.3348 0
M  V30 5 O 3.095 1.19667 1.45644 0
M  V30 6 C 0.222 2.43627 2.35294 0
M  V30 7 C -0.732 3.65373 2.2001 0
M  V30 8 S 0.101 5.13292 1.52614 0
M  V30 9 C 1.257 5.56322 2.86805 0
M  V30 10 H 1.49 2.90518 0.631377 0
M  V30 11 H -0.977 1.52953 0.210867 0
M  V30 12 H 0.981 2.67203 3.11629 0
M  V30 13 H -0.358 1.57376 2.7183 0
M  V30 14 H -1.165 3.90944 3.18086 0
M  V30 15 H -1.563 3.418 1.51819 0
M  V30 16 H 0.729 5.58782 3.83104 0
M  V30 17 H 1.672 6.56266 2.65933 0
M  V30 18 H 2.08 4.83886 2.90714 0
M  V30 19 N 1.4781 -0.272755 1.55222 0
M  V30 20 C 2.7031 -1.02683 1.80197 0
M  V30 21 C 3.1281 -1.79142 0.573551 0
M  V30 22 O 2.4861 -1.74917 -0.476849 0
M  V30 23 C 2.5341 -1.9609 3.02624 0
M  V30 24 O 1.6381 -3.04863 2.77727 0
M  V30 25 H 0.9791 -0.293557 0.595584 0
M  V30 26 H 3.5091 -0.30159 2.02365 0
M  V30 27 H 3.5191 -2.38039 3.31363 0
M  V30 28 H 2.1941 -1.39851 3.91682 0
M  V30 29 H 0.7711 -2.67228 2.60084 0
M  V30 30 N 2.9562 -1.48159 -0.537278 0
M  V30 31 C 4.1812 -1.59707 -1.32319 0
M  V30 32 C 4.6062 -0.254859 -1.86365 0
M  V30 33 O 3.9642 0.772378 -1.64024 0
M  V30 34 C 4.0122 -2.6412 -2.45505 0
M  V30 35 O 3.1162 -2.20774 -3.48328 0
M  V30 36 H 2.4572 -0.535791 -0.392204 0
M  V30 37 H 4.9872 -1.94092 -0.647268 0
M  V30 38 H 4.9972 -2.85166 -2.91795 0
M  V30 39 H 3.6722 -3.61567 -2.05528 0
M  V30 40 H 2.2492 -2.09911 -3.08207 0
M  V30 41 N 4.4343 0.785586 -1.36625 0
M  V30 42 C 5.7113 1.53198 -1.21613 0
M  V30 43 C 6.0913 2.10187 0.196113 0
M  V30 44 O 5.4393 1.94318 1.20219 0
M  V30 45 C 5.6493 2.62388 -2.30116 0
M  V30 46 C 6.9973 3.30167 -2.66974 0
M  V30 47 O 8.0213 2.72674 -2.29188 0
M  V30 48 O 6.8803 4.34077 -3.32023 0
M  V30 49 H 3.9743 0.677865 -0.473738 0
M  V30 50 H 6.5203 0.823739 -1.48367 0
M  V30 51 H 5.2923 2.18299 -3.24748 0
M  V30 52 H 4.9153 3.40827 -2.0475 0
M  V30 53 N 5.9124 1.20967 1.01018 0
M  V30 54 C 6.8754 0.965918 2.07853 0
M  V30 55 C 7.8754 -0.0610545 1.60684 0
M  V30 56 O 9.0654 0.175681 1.73312 0
M  V30 57 C 6.1974 0.455513 3.37843 0
M  V30 58 H 7.3904 1.91365 2.3091 0
M  V30 59 H 4.9434 1.02594 1.17916 0
M  V30 60 H 5.6784 -0.497381 3.20463 0
M  V30 61 H 5.4634 1.19622 3.73407 0
M  V30 62 H 6.9534 0.304667 4.16487 0
M  V30 63 N 7.3905 -1.2043 1.01659 0
M  V30 64 C 8.6675 -1.8548 0.621004 0
M  V30 65 C 9.0475 -1.9091 -0.900919 0
M  V30 66 O 8.3955 -1.41694 -1.79263 0
M  V30 67 C 8.6055 -3.25119 1.2688 0
M  V30 68 C 9.9535 -4.01403 1.38423 0
M  V30 69 O 10.9775 -3.34473 1.22501 0
M  V30 70 O 9.8365 -5.21265 1.64151 0
M  V30 71 H 6.9305 -0.798761 0.214266 0
M  V30 72 H 9.4765 -1.28019 1.11396 0
M  V30 73 H 8.2485 -3.15932 2.30873 0
M  V30 74 H 7.8715 -3.90212 0.762917 0
M  V30 75 N 8.8686 -0.792821 -1.36206 0
M  V30 76 C 9.8316 -0.199459 -2.2833 0
M  V30 77 C 10.8316 0.605189 -1.48977 0
M  V30 78 O 12.0216 0.425685 -1.68919 0
M  V30 79 C 9.1536 0.723523 -3.33134 0
M  V30 80 H 10.3466 -1.01181 -2.82316 0
M  V30 81 H 7.8996 -0.562485 -1.45828 0
M  V30 82 H 8.6346 1.56008 -2.84309 0
M  V30 83 H 8.4196 0.148436 -3.91819 0
M  V30 84 H 9.9096 1.13344 -4.01924 0
M  V30 85 N 10.3467 1.47872 -0.545128 0
M  V30 86 C 11.2967 2.26842 0.229456 0
M  V30 87 C 12.2807 1.33626 0.896267 0
M  V30 88 O 13.4727 1.58063 0.79657 0
M  V30 89 C 10.6017 3.19089 1.26638 0
M  V30 90 C 9.6877 4.19783 0.603598 0
M  V30 91 N 10.0787 5.0479 -0.319405 0
M  V30 92 C 8.3767 4.3765 0.858989 0
M  V30 93 C 9.0777 5.77433 -0.703241 0
M  V30 94 N 8.0537 5.43566 -0.0608309 0
M  V30 95 H 11.8557 2.89947 -0.480391 0
M  V30 96 H 9.3697 1.58263 -0.364209 0
M  V30 97 H 11.3667 3.74337 1.83515 0
M  V30 98 H 10.0267 2.5754 1.97745 0
M  V30 99 H 11.0377 5.13244 -0.692889 0
M  V30 100 H 7.7147 3.87281 1.55948 0
M  V30 101 H 9.1047 6.55824 -1.46098 0
M  V30 102 N 11.8248 0.280983 1.55075 0
M  V30 103 C 12.7718 -0.603937 2.22758 0
M  V30 104 C 13.7418 -1.1452 1.20309 0
M  V30 105 O 14.9268 -1.19343 1.48869 0
M  V30 106 C 12.0668 -1.77947 2.95684 0
M  V30 107 C 11.1798 -1.2715 4.12864 0
M  V30 108 C 10.3148 -2.4093 4.7342 0
M  V30 109 C 9.3538 -1.87165 5.82783 0
M  V30 110 N 8.4908 -2.94441 6.37377 0
M  V30 111 H 13.3308 -0.020124 2.97993 0
M  V30 112 H 10.8678 0.00183425 1.471 0
M  V30 113 H 12.8258 -2.47055 3.36184 0
M  V30 114 H 11.4558 -2.33522 2.22861 0
M  V30 115 H 10.5078 -0.473331 3.77444 0
M  V30 116 H 11.8198 -0.837751 4.91715 0
M  V30 117 H 10.9738 -3.18021 5.1667 0
M  V30 118 H 9.7128 -2.87623 3.93859 0
M  V30 119 H 8.7178 -1.08556 5.38976 0
M  V30 120 H 9.9428 -1.41401 6.64216 0
M  V30 121 H 7.8888 -3.40505 5.60707 0
M  V30 122 H 7.8058 -2.55501 7.11516 0
M  V30 123 H 9.0738 -3.71489 6.85285 0
M  V30 124 N 13.3029 -1.57598 0.00835791 0
M  V30 125 C 14.5489 -1.91211 -0.675732 0
M  V30 126 C 14.8819 -0.883139 -1.72958 0
M  V30 127 O 14.1569 0.097016 -1.94258 0
M  V30 128 C 14.4399 -3.35379 -1.31123 0
M  V30 129 C 14.2929 -4.48999 -0.268356 0
M  V30 130 C 15.6119 -3.7912 -2.23508 0
M  V30 131 H 12.7309 -0.695374 -0.244179 0
M  V30 132 H 15.3729 -1.89901 0.0613655 0
M  V30 133 H 13.5229 -3.36626 -1.93946 0
M  V30 134 H 15.1949 -4.59887 0.360844 0
M  V30 135 H 13.4379 -4.31873 0.408482 0
M  V30 136 H 14.1089 -5.46851 -0.752218 0
M  V30 137 H 16.5849 -3.79477 -1.70693 0
M  V30 138 H 15.4609 -4.80729 -2.64936 0
M  V30 139 H 15.7219 -3.13455 -3.11766 0
M  V30 140 N 14.781 0.264519 -1.55364 0
M  V30 141 C 16.029 0.993021 -1.76021 0
M  V30 142 C 16.35 1.86511 -0.569099 0
M  V30 143 O 15.62 1.91438 0.415735 0
M  V30 144 H 14.2 0.369639 -0.649135 0
M  V30 145 H 16.862 0.286707 -1.9278 0
M  V30 146 H 15.958 1.62502 -2.66457 0
M  V30 147 N 16.2591 1.48442 0.529413 0
M  V30 148 C 17.1891 1.65902 1.64313 0
M  V30 149 C 18.1701 0.507897 1.6234 0
M  V30 150 O 19.3551 0.740503 1.79528 0
M  V30 151 C 16.4851 1.69911 3.02898 0
M  V30 152 C 15.4391 2.8453 3.19729 0
M  V30 153 C 14.7651 2.73629 4.59381 0
M  V30 154 C 16.0651 4.25821 3.02447 0
M  V30 155 H 17.7591 2.5914 1.49955 0
M  V30 156 H 15.3051 1.24709 0.719982 0
M  V30 157 H 17.2581 1.80715 3.80684 0
M  V30 158 H 15.9821 0.732524 3.18279 0
M  V30 159 H 14.6411 2.73283 2.44361 0
M  V30 160 H 14.2891 1.74938 4.71599 0
M  V30 161 H 13.9891 3.50541 4.71588 0
M  V30 162 H 15.5131 2.86401 5.39265 0
M  V30 163 H 16.9271 4.37898 3.70024 0
M  V30 164 H 15.3241 5.03735 3.26146 0
M  V30 165 H 16.3941 4.42244 1.98867 0
M  V30 166 N 17.7372 -0.778329 1.37039 0
M  V30 167 C 18.9862 -1.53189 1.3121 0
M  V30 168 C 19.2992 -1.95328 -0.103095 0
M  V30 169 O 20.5052 -2.70012 -0.283826 0
M  V30 170 C 18.9612 -2.76591 2.30272 0
M  V30 171 C 18.5692 -2.41577 3.77286 0
M  V30 172 C 20.3132 -3.5455 2.33441 0
M  V30 173 C 18.2202 -3.61441 4.68096 0
M  V30 174 H 17.1502 -0.5751 0.487622 0
M  V30 175 H 19.8012 -0.853101 1.62464 0
M  V30 176 H 18.1832 -3.46326 1.92027 0
M  V30 177 H 19.3572 -1.79668 4.2433 0
M  V30 178 H 17.6722 -1.76806 3.76999 0
M  V30 179 H 20.2692 -4.43628 2.98493 0
M  V30 180 H 20.6122 -3.93936 1.34611 0
M  V30 181 H 21.1452 -2.91805 2.7036 0
M  V30 182 H 17.8842 -3.27142 5.6803 0
M  V30 183 H 17.4042 -4.22478 4.25761 0
M  V30 184 H 19.0832 -4.28335 4.8491 0
M  V30 185 N 19.2153 -1.21501 -1.00376 0
M  V30 186 C 20.6263 -1.03146 -1.55621 0
M  V30 187 C 20.9773 0.408375 -1.91903 0
M  V30 188 O 20.1023 1.29177 -1.73616 0
M  V30 189 C 20.6973 -1.86612 -2.82775 0
M  V30 190 C 19.2563 -1.72586 -3.34501 0
M  V30 191 C 18.4033 -1.83747 -2.07683 0
M  V30 192 H 21.3543 -1.35505 -0.826081 0
M  V30 193 H 21.3753 -1.3771 -3.54706 0
M  V30 194 H 20.8873 -2.91399 -2.56336 0
M  V30 195 H 18.9883 -0.704877 -3.65872 0
M  V30 196 H 19.1013 -2.54623 -4.05837 0
M  V30 197 H 17.4653 -1.27069 -2.20739 0
M  V30 198 H 18.2483 -2.90044 -1.83655 0
M  V30 199 N 20.6934 1.19889 -1.02296 0
M  V30 200 C 21.9394 1.89701 -0.717033 0
M  V30 201 C 22.2724 1.7905 0.751989 0
M  V30 202 O 21.5474 1.17891 1.547 0
M  V30 203 C 21.8304 3.40858 -1.16136 0
M  V30 204 C 21.6834 3.60411 -2.69117 0
M  V30 205 C 23.0024 4.33876 -0.737549 0
M  V30 206 H 20.1214 0.688874 -0.261957 0
M  V30 207 H 22.7634 1.41154 -1.27183 0
M  V30 208 H 20.9134 3.82335 -0.689342 0
M  V30 209 H 22.5854 3.28145 -3.2422 0
M  V30 210 H 20.8284 3.03665 -3.0979 0
M  V30 211 H 21.4994 4.66396 -2.95261 0
M  V30 212 H 23.9754 4.00081 -1.14344 0
M  V30 213 H 22.8514 5.38242 -1.0764 0
M  V30 214 H 23.1124 4.40628 0.360436 0
M  V30 215 N 22.1715 0.800033 1.35784 0
M  V30 216 C 23.3995 0.389606 2.03199 0
M  V30 217 C 23.8145 -0.997375 1.60306 0
M  V30 218 O 23.1715 -1.64154 0.797481 0
M  V30 219 C 23.2225 0.455855 3.58614 0
M  V30 220 O 22.9435 1.78815 3.99946 0
M  V30 221 C 24.4445 0.0374032 4.43284 0
M  V30 222 H 21.6645 0.159132 0.651857 0
M  V30 223 H 24.2085 1.08183 1.73541 0
M  V30 224 H 22.3635 -0.188057 3.86943 0
M  V30 225 H 22.7775 1.74636 4.94573 0
M  V30 226 H 24.2515 0.134882 5.51835 0
M  V30 227 H 24.7285 -1.01651 4.27275 0
M  V30 228 H 25.3345 0.654215 4.20238 0
M  V30 229 N 23.6496 -1.47581 0.552962 0
M  V30 230 C 24.5796 -2.32762 -0.185451 0
M  V30 231 C 25.5606 -1.43527 -0.912905 0
M  V30 232 O 26.7456 -1.72388 -0.894201 0
M  V30 233 C 23.8756 -3.25219 -1.21859 0
M  V30 234 C 22.8296 -4.23661 -0.607864 0
M  V30 235 C 22.1556 -5.05413 -1.74533 0
M  V30 236 C 23.4556 -5.20481 0.435582 0
M  V30 237 H 25.1496 -2.94749 0.525684 0
M  V30 238 H 22.6956 -1.41738 0.254251 0
M  V30 239 H 24.6486 -3.8365 -1.7433 0
M  V30 240 H 23.3726 -2.61279 -1.95961 0
M  V30 241 H 22.0316 -3.66451 -0.104489 0
M  V30 242 H 21.6796 -4.3788 -2.47529 0
M  V30 243 H 21.3796 -5.72059 -1.34249 0
M  V30 244 H 22.9036 -5.66701 -2.27338 0
M  V30 245 H 24.3176 -5.733 -0.00290157 0
M  V30 246 H 22.7146 -5.95305 0.757067 0
M  V30 247 H 23.7846 -4.66217 1.33303 0
M  V30 248 N 25.1277 -0.289203 -1.54924 0
M  V30 249 C 26.0607 0.633823 -2.19221 0
M  V30 250 C 27.0387 1.14174 -1.15772 0
M  V30 251 O 28.2227 1.21211 -1.44361 0
M  V30 252 C 25.3497 1.86592 -2.82668 0
M  V30 253 C 24.3957 1.49227 -3.99542 0
M  V30 254 S 25.2287 0.558312 -5.32582 0
M  V30 255 C 26.3847 1.79847 -5.99505 0
M  V30 256 H 26.6177 0.0875416 -2.97171 0
M  V30 257 H 24.1507 -0.0733899 -1.54225 0
M  V30 258 H 26.1087 2.57305 -3.19851 0
M  V30 259 H 24.7697 2.38335 -2.04585 0
M  V30 260 H 23.9627 2.40945 -4.42676 0
M  V30 261 H 23.5647 0.865193 -3.63855 0
M  V30 262 H 25.8567 2.7406 -6.19595 0
M  V30 263 H 26.7997 1.4099 -6.93922 0
M  V30 264 H 27.2077 1.96982 -5.29016 0
M  V30 265 N 26.6058 1.57591 -0.0167156 0
M  V30 266 C 27.8518 1.91567 0.665582 0
M  V30 267 C 28.1848 0.892298 1.72487 0
M  V30 268 O 27.4598 -0.0867127 1.94307 0
M  V30 269 C 27.7428 3.36069 1.29342 0
M  V30 270 C 27.5958 4.49135 0.244541 0
M  V30 271 C 28.9148 3.803 2.21495 0
M  V30 272 H 26.0338 0.69666 0.240488 0
M  V30 273 H 28.6758 1.89866 -0.0714356 0
M  V30 274 H 26.8258 3.3765 1.92158 0
M  V30 275 H 28.4978 4.59689 -0.385228 0
M  V30 276 H 26.7408 4.3165 -0.431379 0
M  V30 277 H 27.4118 5.47242 0.723207 0
M  V30 278 H 29.8878 3.80377 1.68678 0
M  V30 279 H 28.7638 4.82127 2.62382 0
M  V30 280 H 29.0248 3.15104 3.101 0
M  V30 281 N 28.0839 -0.256276 1.55502 0
M  V30 282 C 29.3089 -1.00766 1.81276 0
M  V30 283 C 29.7339 -1.78524 0.59252 0
M  V30 284 O 29.0919 -1.75413 -0.45827 0
M  V30 285 C 29.1399 -1.92869 3.04687 0
M  V30 286 O 28.2439 -3.019 2.80945 0
M  V30 287 H 27.5849 -0.287224 0.598664 0
M  V30 288 H 30.1149 -0.280109 2.02674 0
M  V30 289 H 30.1249 -2.34511 3.33869 0
M  V30 290 H 28.7999 -1.35689 3.93143 0
M  V30 291 H 27.3769 -2.64454 2.62904 0
M  V30 292 N 29.562 -1.4872 -0.521534 0
M  V30 293 C 30.81 -1.56857 -1.27437 0
M  V30 294 C 31.131 -0.247982 -1.93417 0
M  V30 295 O 30.401 0.731151 -1.81744 0
M  V30 296 H 28.981 -0.577885 -0.473347 0
M  V30 297 H 31.643 -1.85233 -0.606205 0
M  V30 298 H 30.739 -2.35402 -2.0492 0
M  V30 299 N 31.0401 0.771051 -1.3745 0
M  V30 300 C 31.9881 1.90574 -1.33358 0
M  V30 301 C 32.9821 1.67936 -0.22224 0
M  V30 302 O 34.1881 1.75717 -0.390304 0
M  V30 303 H 30.5631 0.626714 -0.415612 0
M  V30 304 H 32.5341 1.91142 -2.29144 0
M  V30 305 C 31.2831 3.27845 -1.15813 0
M  V30 306 H 30.6061 3.45842 -2.00583 0
M  V30 307 H 32.0461 4.07538 -1.17 0
M  V30 308 C 30.5051 3.36625 0.136165 0
M  V30 309 O 31.0351 3.85785 1.11949 0
M  V30 310 N 29.2411 2.89997 0.187099 0
M  V30 311 H 28.7881 2.50182 -0.613753 0
M  V30 312 H 28.7461 2.96252 1.05272 0
M  V30 313 N 32.5182 1.22032 0.997298 0
M  V30 314 C 33.7672 1.03637 1.73038 0
M  V30 315 C 34.0802 -0.429475 1.90827 0
M  V30 316 O 35.2862 -0.732995 2.61418 0
M  V30 317 C 33.7422 1.80582 3.11317 0
M  V30 318 C 33.3502 3.31387 3.01474 0
M  V30 319 C 35.0942 1.70621 3.88701 0
M  V30 320 C 33.0012 4.00791 4.3488 0
M  V30 321 H 31.9312 0.384179 0.648785 0
M  V30 322 H 34.5822 1.4584 1.11368 0
M  V30 323 H 32.9642 1.31175 3.73643 0
M  V30 324 H 34.1382 3.88155 2.4834 0
M  V30 325 H 32.4532 3.41976 2.37575 0
M  V30 326 H 35.0502 2.19799 4.87434 0
M  V30 327 H 35.3932 0.665823 4.10941 0
M  V30 328 H 35.9262 2.17547 3.33044 0
M  V30 329 H 32.6652 5.05064 4.1784 0
M  V30 330 H 32.1852 3.48811 4.87945 0
M  V30 331 H 33.8642 4.06139 5.03647 0
M  V30 332 N 33.9963 -1.19345 1.0293 0
M  V30 333 C 34.9293 -2.21347 0.555029 0
M  V30 334 C 35.9073 -1.57492 -0.404351 0
M  V30 335 O 37.0913 -1.85741 -0.321352 0
M  V30 336 C 34.2183 -3.38163 -0.19064 0
M  V30 337 C 33.2643 -4.20375 0.720236 0
M  V30 338 S 34.0973 -4.88371 2.19668 0
M  V30 339 C 35.2533 -6.08597 1.46153 0
M  V30 340 H 35.4863 -2.61235 1.41929 0
M  V30 341 H 33.0193 -1.29598 0.839272 0
M  V30 342 H 34.9773 -4.05871 -0.614724 0
M  V30 343 H 33.6383 -2.9671 -1.03063 0
M  V30 344 H 32.8313 -5.03793 0.14455 0
M  V30 345 H 32.4333 -3.57987 1.08266 0
M  V30 346 H 34.7253 -6.73354 0.748357 0
M  V30 347 H 35.6683 -6.7065 2.27233 0
M  V30 348 H 36.0763 -5.56297 0.958842 0
M  V30 349 N 35.4744 -0.807222 -1.35358 0
M  V30 350 C 36.7224 -0.387122 -1.98358 0
M  V30 351 C 37.0434 1.04942 -1.64354 0
M  V30 352 O 36.3134 1.72615 -0.926339 0
M  V30 353 H 34.8934 -0.140154 -0.733734 0
M  V30 354 H 37.5554 -1.0332 -1.6526 0
M  V30 355 H 36.6514 -0.493352 -3.08176 0
M  V30 356 N 36.9525 1.47285 -0.560781 0
M  V30 357 C 38.1775 2.07359 -0.0410566 0
M  V30 358 C 38.6025 1.41017 1.24483 0
M  V30 359 O 37.9605 0.486368 1.74654 0
M  V30 360 C 38.0085 3.6035 0.134123 0
M  V30 361 O 37.1125 3.94681 1.19587 0
M  V30 362 H 36.4535 0.661887 -0.0529291 0
M  V30 363 H 38.9835 1.89252 -0.777482 0
M  V30 364 H 38.9935 4.0652 0.347207 0
M  V30 365 H 37.6685 4.08034 -0.805047 0
M  V30 366 H 36.2455 3.60251 0.962987 0
M  V30 367 N 38.4306 0.297415 1.54768 0
M  V30 368 C 39.6786 -0.312295 1.99673 0
M  V30 369 C 39.9996 -1.54686 1.18732 0
M  V30 370 O 39.2696 -1.93854 0.282382 0
M  V30 371 H 37.8496 -0.118381 0.73756 0
M  V30 372 H 40.5116 0.407915 1.90583 0
M  V30 373 H 39.6076 -0.586813 3.06534 0
M  V30 374 N 39.9087 -1.5758 0.0250728 0
M  V30 375 C 41.1547 -1.91917 -0.655413 0
M  V30 376 C 41.4877 -0.901433 -1.72011 0
M  V30 377 O 40.7627 0.0764069 -1.9435 0
M  V30 378 C 41.0457 -3.36751 -1.27558 0
M  V30 379 C 40.8987 -4.49258 -0.220719 0
M  V30 380 C 42.2177 -3.81469 -2.19475 0
M  V30 381 H 39.3367 -0.697925 -0.23679 0
M  V30 382 H 41.9787 -1.89825 0.0815036 0
M  V30 383 H 40.1287 -3.38664 -1.90365 0
M  V30 384 H 41.8007 -4.59478 0.409601 0
M  V30 385 H 40.0437 -4.31415 0.454264 0
M  V30 386 H 40.7147 -5.47618 -0.694175 0
M  V30 387 H 43.1907 -3.81266 -1.66659 0
M  V30 388 H 42.0667 -4.83512 -2.59822 0
M  V30 389 H 42.3277 -3.16744 -3.08424 0
M  V30 390 N 41.3868 0.248026 -1.55636 0
M  V30 391 C 42.6338 0.976224 -1.77415 0
M  V30 392 C 42.9618 1.85361 -0.589193 0
M  V30 393 O 42.2168 1.90973 0.427529 0
M  V30 394 C 42.5158 1.86819 -3.04686 0
M  V30 395 C 42.1818 1.14625 -4.36087 0
M  V30 396 C 40.8438 0.946723 -4.71795 0
M  V30 397 C 43.1958 0.634463 -5.17324 0
M  V30 398 C 40.5238 0.223091 -5.86276 0
M  V30 399 C 42.8758 -0.0756959 -6.32555 0
M  V30 400 C 41.5398 -0.286711 -6.66884 0
M  V30 401 H 40.8098 0.357226 -0.649208 0
M  V30 402 H 43.4568 0.246415 -1.89908 0
M  V30 403 H 41.7618 2.66502 -2.872 0
M  V30 404 H 43.4588 2.43329 -3.18735 0
M  V30 405 H 40.0488 1.3117 -4.08035 0
M  V30 406 H 44.2328 0.77616 -4.90193 0
M  V30 407 H 39.4888 0.0491185 -6.1138 0
M  V30 408 H 43.6628 -0.479899 -6.94745 0
M  V30 409 H 41.2898 -0.849389 -7.5544 0
M  V30 410 N 42.8649 1.48995 0.513639 0
M  V30 411 C 43.7949 1.67636 1.62544 0
M  V30 412 C 44.7759 0.525087 1.61793 0
M  V30 413 O 45.9609 0.759502 1.78732 0
M  V30 414 C 43.0909 1.73114 3.01079 0
M  V30 415 C 42.0449 2.87905 3.16693 0
M  V30 416 C 41.3709 2.78486 4.56453 0
M  V30 417 C 42.6709 4.29005 2.97913 0
M  V30 418 H 44.3649 2.60716 1.47198 0
M  V30 419 H 41.9109 1.25465 0.706714 0
M  V30 420 H 43.8639 1.84742 3.78746 0
M  V30 421 H 42.5879 0.766241 3.17484 0
M  V30 422 H 41.2469 2.75859 2.41448 0
M  V30 423 H 40.8949 1.7993 4.69717 0
M  V30 424 H 40.5949 3.55523 4.67843 0
M  V30 425 H 42.1189 2.92104 5.36197 0
M  V30 426 H 43.5329 4.41798 3.65359 0
M  V30 427 H 41.9299 5.07166 3.20785 0
M  V30 428 H 42.9999 4.44329 1.94165 0
M  V30 429 N 44.343 -0.763751 1.37857 0
M  V30 430 C 45.273 -1.89103 1.36975 0
M  V30 431 C 46.254 -1.68439 0.237152 0
M  V30 432 O 47.439 -1.8918 0.438713 0
M  V30 433 C 44.569 -3.26496 1.18395 0
M  V30 434 C 43.523 -3.61741 2.28751 0
M  V30 435 C 42.849 -4.97762 1.95286 0
M  V30 436 C 44.149 -3.67665 3.70972 0
M  V30 437 H 45.843 -1.90099 2.31307 0
M  V30 438 H 43.389 -0.91319 1.11341 0
M  V30 439 H 45.342 -4.05003 1.16406 0
M  V30 440 H 44.066 -3.25955 0.205215 0
M  V30 441 H 42.725 -2.85547 2.29909 0
M  V30 442 H 42.373 -4.93769 0.959221 0
M  V30 443 H 42.073 -5.22313 2.69189 0
M  V30 444 H 43.597 -5.7866 1.94898 0
M  V30 445 H 45.011 -4.36307 3.719 0
M  V30 446 H 43.408 -4.03718 4.43995 0
M  V30 447 H 44.478 -2.68134 4.0402 0
M  V30 448 N 45.8211 -1.22559 -0.990812 0
M  V30 449 C 47.2321 -1.04791 -1.54518 0
M  V30 450 C 47.5831 0.387998 -1.92325 0
M  V30 451 O 46.7081 1.27328 -1.74976 0
M  V30 452 C 47.3031 -1.896 -2.80779 0
M  V30 453 C 45.8621 -1.76124 -3.32652 0
M  V30 454 C 45.0091 -1.8594 -2.05722 0
M  V30 455 H 47.9601 -1.36374 -0.811662 0
M  V30 456 H 47.9811 -1.41464 -3.53225 0
M  V30 457 H 47.4931 -2.94101 -2.53231 0
M  V30 458 H 45.5941 -0.743643 -3.65104 0
M  V30 459 H 45.7071 -2.58913 -4.03114 0
M  V30 460 H 44.0711 -1.29403 -2.19379 0
M  V30 461 H 44.8541 -2.91976 -1.80568 0
M  V30 462 N 47.2992 1.18797 -1.03562 0
M  V30 463 C 48.2622 2.20464 -0.626769 0
M  V30 464 C 49.2622 1.57721 0.313173 0
M  V30 465 O 50.4522 1.73917 0.0992615 0
M  V30 466 C 47.5842 3.40802 0.0818498 0
M  V30 467 H 48.7772 2.58149 -1.5264 0
M  V30 468 H 46.3302 1.32593 -0.827578 0
M  V30 469 H 47.0652 3.08642 0.995518 0
M  V30 470 H 46.8502 3.8758 -0.593652 0
M  V30 471 H 48.3402 4.16092 0.354584 0
M  V30 472 N 48.7773 0.814389 1.34928 0
M  V30 473 C 49.7253 0.218424 2.31572 0
M  V30 474 C 50.7193 -0.636128 1.57002 0
M  V30 475 O 51.9253 -0.52842 1.72069 0
M  V30 476 H 48.3003 0.0518799 0.750208 0
M  V30 477 H 50.2713 1.04852 2.79372 0
M  V30 478 C 49.0203 -0.61207 3.4227 0
M  V30 479 H 48.3433 0.0361578 3.99784 0
M  V30 480 H 49.7833 -0.995317 4.12152 0
M  V30 481 C 48.2423 -1.78087 2.85984 0
M  V30 482 O 48.7723 -2.8787 2.80168 0
M  V30 483 N 46.9783 -1.59488 2.42924 0
M  V30 484 H 46.5253 -0.701874 2.47854 0
M  V30 485 H 46.4833 -2.37846 2.05613 0
M  V30 486 N 50.2554 -1.46986 0.568584 0
M  V30 487 C 51.1854 -2.32946 -0.160753 0
M  V30 488 C 52.1664 -1.44487 -0.897631 0
M  V30 489 O 53.3514 -1.73327 -0.875867 0
M  V30 490 C 50.4814 -3.26494 -1.18403 0
M  V30 491 C 49.4354 -4.24282 -0.562895 0
M  V30 492 C 48.7614 -5.07236 -1.69163 0
M  V30 493 C 50.0614 -5.19989 0.490761 0
M  V30 494 H 51.7554 -2.94175 0.556916 0
M  V30 495 H 49.3014 -1.4146 0.26927 0
M  V30 496 H 51.2544 -3.85477 -1.70251 0
M  V30 497 H 49.9784 -2.63343 -1.93179 0
M  V30 498 H 48.6374 -3.66541 -0.0656164 0
M  V30 499 H 48.2854 -4.4048 -2.42871 0
M  V30 500 H 47.9854 -5.7345 -1.28174 0
M  V30 501 H 49.5094 -5.6908 -2.21314 0
M  V30 502 H 50.9234 -5.73271 0.0579047 0
M  V30 503 H 49.3204 -5.94469 0.820165 0
M  V30 504 H 50.3904 -4.64777 1.3824 0
M  V30 505 N 51.7335 -0.305618 -1.54608 0
M  V30 506 C 52.6965 0.555591 -2.22364 0
M  V30 507 C 53.6965 1.05768 -1.21119 0
M  V30 508 O 54.8865 0.952972 -1.45822 0
M  V30 509 C 52.0185 1.76974 -2.91364 0
M  V30 510 H 53.2115 -0.0364572 -2.99878 0
M  V30 511 H 50.7645 -0.0565007 -1.56198 0
M  V30 512 H 51.4995 2.40151 -2.17941 0
M  V30 513 H 51.2845 1.41732 -3.65588 0
M  V30 514 H 52.7745 2.38148 -3.43038 0
M  V30 515 N 53.2116 1.57565 -0.0334293 0
M  V30 516 C 54.4366 1.96689 0.657895 0
M  V30 517 C 54.8616 0.910057 1.64619 0
M  V30 518 O 54.2196 -0.128598 1.80843 0
M  V30 519 C 54.2676 3.34905 1.33683 0
M  V30 520 O 53.3716 3.31574 2.45219 0
M  V30 521 H 52.7126 0.641205 0.172489 0
M  V30 522 H 55.2426 2.04372 -0.0965621 0
M  V30 523 H 55.2526 3.71234 1.69262 0
M  V30 524 H 53.9276 4.11366 0.612411 0
M  V30 525 H 52.5046 3.06968 2.11719 0
M  V30 526 N 54.6897 -0.239769 1.55765 0
M  V30 527 C 55.9177 -0.98417 1.81994 0
M  V30 528 C 56.3327 -1.7867 0.610124 0
M  V30 529 O 55.6897 -1.77571 -0.421271 0
M  V30 530 C 55.7407 -1.91635 3.06526 0
M  V30 531 O 55.4617 -1.14629 4.22838 0
M  V30 532 C 56.9627 -2.77616 3.45607 0
M  V30 533 H 54.1827 -0.28928 0.605441 0
M  V30 534 H 56.7267 -0.260499 2.02834 0
M  V30 535 H 54.8817 -2.5942 2.87715 0
M  V30 536 H 55.2957 -1.77745 4.93464 0
M  V30 537 H 56.7697 -3.38759 4.35828 0
M  V30 538 H 57.2467 -3.4909 2.6652 0
M  V30 539 H 57.8527 -2.15271 3.66795 0
M  V30 540 N 56.1678 -1.49265 -0.50573 0
M  V30 541 C 57.4158 -1.582 -1.25766 0
M  V30 542 C 57.7368 -0.268482 -1.93143 0
M  V30 543 O 57.0068 0.711833 -1.8251 0
M  V30 544 H 55.5868 -0.582873 -0.467191 0
M  V30 545 H 58.2488 -1.85865 -0.586525 0
M  V30 546 H 57.3448 -2.37563 -2.02412 0
M  V30 547 N 57.6459 0.756429 -1.3826 0
M  V30 548 C 58.8939 1.51248 -1.34047 0
M  V30 549 C 59.2149 1.94875 0.0698372 0
M  V30 550 O 58.4849 1.67436 1.01696 0
M  V30 551 H 57.0649 0.561018 -0.493222 0
M  V30 552 H 59.7269 0.899347 -1.7291 0
M  V30 553 H 58.8229 2.40472 -1.98947 0
M  V30 554 N 59.124 1.23083 0.984299 0
M  V30 555 C 60.373 1.05466 1.71929 0
M  V30 556 C 60.686 -0.409211 1.91272 0
M  V30 557 O 61.892 -0.705226 2.62181 0
M  V30 558 C 60.348 1.83874 3.09384 0
M  V30 559 C 59.956 3.34566 2.97943 0
M  V30 560 C 61.7 1.74734 3.8687 0
M  V30 561 C 59.607 4.05381 4.30605 0
M  V30 562 H 58.537 0.391039 0.644674 0
M  V30 563 H 61.188 1.47013 1.09815 0
M  V30 564 H 59.57 1.35131 3.72231 0
M  V30 565 H 60.744 3.90767 2.44209 0
M  V30 566 H 59.059 3.44476 2.33934 0
M  V30 567 H 61.656 2.24957 4.85076 0
M  V30 568 H 61.999 0.709372 4.10212 0
M  V30 569 H 62.532 2.21067 3.30717 0
M  V30 570 H 59.271 5.09467 4.1246 0
M  V30 571 H 58.791 3.53967 4.84218 0
M  V30 572 H 60.47 4.11458 4.99311 0
M  V30 573 N 60.6021 -1.18246 1.0419 0
M  V30 574 C 61.5651 -2.20128 0.638452 0
M  V30 575 C 62.5651 -1.57885 -0.304805 0
M  V30 576 O 63.7551 -1.73967 -0.0900369 0
M  V30 577 C 60.8871 -3.4084 -0.0637751 0
M  V30 578 H 62.0801 -2.57336 1.54007 0
M  V30 579 H 59.6331 -1.32152 0.834598 0
M  V30 580 H 60.3681 -3.09166 -0.979136 0
M  V30 581 H 60.1531 -3.8726 0.614198 0
M  V30 582 H 61.6431 -4.16274 -0.332512 0
M  V30 583 N 62.0802 -0.821533 -1.34494 0
M  V30 584 C 63.3292 -0.405355 -1.97585 0
M  V30 585 C 63.6422 1.03677 -1.65863 0
M  V30 586 O 64.8482 1.55679 -2.22433 0
M  V30 587 C 63.3042 -0.673861 -3.53535 0
M  V30 588 C 62.9122 -2.12951 -3.94152 0
M  V30 589 C 64.6562 -0.32378 -4.23263 0
M  V30 590 C 62.5632 -2.34298 -5.43009 0
M  V30 591 H 61.4932 -0.147836 -0.739365 0
M  V30 592 H 64.1442 -1.00769 -1.53355 0
M  V30 593 H 62.5262 -0.00137554 -3.96 0
M  V30 594 H 63.7002 -2.84104 -3.62797 0
M  V30 595 H 62.0152 -2.44089 -3.37356 0
M  V30 596 H 64.6122 -0.461126 -5.32708 0
M  V30 597 H 64.9552 0.731586 -4.09821 0
M  V30 598 H 65.4882 -0.950786 -3.8627 0
M  V30 599 H 62.2272 -3.38335 -5.61435 0
M  V30 600 H 61.7472 -1.67687 -5.75883 0
M  V30 601 H 63.4262 -2.16588 -6.09671 0
M  V30 602 N 63.5583 1.46682 -0.576371 0
M  V30 603 C 64.7883 2.06498 -0.0648694 0
M  V30 604 C 65.1963 1.42665 1.24271 0
M  V30 605 O 64.5393 0.523886 1.76071 0
M  V30 606 C 64.6013 3.5904 0.181816 0
M  V30 607 C 64.2653 4.45028 -1.0392 0
M  V30 608 C 65.2623 4.81959 -1.94966 0
M  V30 609 C 62.9473 4.86259 -1.25927 0
M  V30 610 C 64.9413 5.58942 -3.06371 0
M  V30 611 C 62.6283 5.63002 -2.37638 0
M  V30 612 C 63.6263 5.99257 -3.2769 0
M  V30 613 O 63.3143 6.7445 -4.37461 0
M  V30 614 H 63.0463 0.674028 -0.0515987 0
M  V30 615 H 65.6003 1.89393 -0.794951 0
M  V30 616 H 63.8303 3.74429 0.966436 0
M  V30 617 H 65.5193 4.00806 0.641047 0
M  V30 618 H 66.2853 4.50689 -1.79177 0
M  V30 619 H 62.1643 4.57494 -0.567448 0
M  V30 620 H 65.7083 5.87158 -3.76684 0
M  V30 621 H 61.6053 5.93686 -2.53392 0
M  V30 622 H 62.3733 6.92867 -4.35749 0
M  V30 623 N 65.0364 0.313813 1.54444 0
M  V30 624 C 66.2844 -0.291099 1.99993 0
M  V30 625 C 66.6054 -1.53418 1.20366 0
M  V30 626 O 65.8754 -1.93544 0.302927 0
M  V30 627 H 64.4554 -0.110552 0.738774 0
M  V30 628 H 67.1174 0.428106 1.9014 0
M  V30 629 H 66.2134 -0.554268 3.07139 0
M  V30 630 N 66.5145 -1.57545 0.0417849 0
M  V30 631 C 67.7605 -1.93424 -0.629168 0
M  V30 632 C 68.1155 -0.919564 -1.69002 0
M  V30 633 O 67.4085 0.0626178 -1.91498 0
M  V30 634 C 67.6025 -3.33794 -1.27735 0
M  V30 635 C 67.4315 -4.48822 -0.280806 0
M  V30 636 C 66.2015 -5.05148 0.123869 0
M  V30 637 C 68.3995 -5.12148 0.470012 0
M  V30 638 N 66.3815 -6.03703 1.11426 0
M  V30 639 C 67.7525 -6.05921 1.31377 0
M  V30 640 C 69.8075 -4.95078 0.529343 0
M  V30 641 C 68.5105 -6.84459 2.21152 0
M  V30 642 C 70.5365 -5.74235 1.41448 0
M  V30 643 C 69.8985 -6.67634 2.24598 0
M  V30 644 H 65.9975 -0.755418 -0.202158 0
M  V30 645 H 68.5815 -1.94378 0.111923 0
M  V30 646 H 66.7525 -3.33635 -1.98852 0
M  V30 647 H 68.4845 -3.56988 -1.90635 0
M  V30 648 H 65.2395 -4.72923 -0.253178 0
M  V30 649 H 65.6635 -6.57674 1.60607 0
M  V30 650 H 70.3055 -4.22683 -0.0992798 0
M  V30 651 H 68.0235 -7.56151 2.85063 0
M  V30 652 H 71.6095 -5.63057 1.46484 0
M  V30 653 H 70.4895 -7.27817 2.9198 0
M  V30 654 N 67.9926 0.231505 -1.5589 0
M  V30 655 C 68.9226 1.29022 -1.94617 0
M  V30 656 C 69.9036 1.4941 -0.813067 0
M  V30 657 O 71.0886 1.6176 -1.07459 0
M  V30 658 C 68.2186 2.64199 -2.25424 0
M  V30 659 C 67.1726 2.58484 -3.41131 0
M  V30 660 C 66.4986 3.97599 -3.57518 0
M  V30 661 C 67.7986 2.1413 -4.76388 0
M  V30 662 H 69.4926 0.968563 -2.83301 0
M  V30 663 H 67.0386 0.464479 -1.36303 0
M  V30 664 H 68.9916 3.38413 -2.51107 0
M  V30 665 H 67.7156 2.98032 -1.33583 0
M  V30 666 H 66.3746 1.86727 -3.15481 0
M  V30 667 H 66.0226 4.28723 -2.6307 0
M  V30 668 H 65.7226 3.94659 -4.35337 0
M  V30 669 H 67.2466 4.7349 -3.85538 0
M  V30 670 H 68.6606 2.78083 -5.01341 0
M  V30 671 H 67.0576 2.2227 -5.57419 0
M  V30 672 H 68.1276 1.09331 -4.72414 0
M  V30 673 N 69.4707 1.49531 0.497807 0
M  V30 674 C 70.7167 1.59415 1.25358 0
M  V30 675 C 71.0497 0.281422 1.9215 0
M  V30 676 O 70.3247 -0.715249 1.80871 0
M  V30 677 C 70.6077 2.75566 2.3181 0
M  V30 678 C 70.4607 4.16642 1.69498 0
M  V30 679 C 71.7797 2.87347 3.33346 0
M  V30 680 H 68.8987 0.580244 0.454408 0
M  V30 681 H 71.5407 1.81827 0.551262 0
M  V30 682 H 69.6907 2.56587 2.91711 0
M  V30 683 H 71.3627 4.47145 1.13399 0
M  V30 684 H 69.6057 4.22141 0.998978 0
M  V30 685 H 70.2767 4.93792 2.46725 0
M  V30 686 H 72.7527 3.04634 2.83438 0
M  V30 687 H 71.6287 3.70289 4.05188 0
M  V30 688 H 71.8897 1.96834 3.95865 0
M  V30 689 N 70.9488 -0.749086 1.3866 0
M  V30 690 C 72.1768 -1.53834 1.38358 0
M  V30 691 C 72.5918 -1.88783 -0.0255219 0
M  V30 692 O 71.9488 -1.53101 -0.993292 0
M  V30 693 C 71.9998 -2.83468 2.2434 0
M  V30 694 O 71.7208 -2.50008 3.5976 0
M  V30 695 C 73.2218 -3.7758 2.32267 0
M  V30 696 H 70.4418 -0.47585 0.473083 0
M  V30 697 H 72.9858 -0.926726 1.82297 0
M  V30 698 H 71.1408 -3.40995 1.83851 0
M  V30 699 H 71.5548 -3.33182 4.05081 0
M  V30 700 H 73.0288 -4.65478 2.96706 0
M  V30 701 H 73.5058 -4.18334 1.33765 0
M  V30 702 H 74.1118 -3.25976 2.73166 0
M  V30 703 N 72.4269 -1.23603 -0.977757 0
M  V30 704 C 73.6759 -1.06377 -1.71368 0
M  V30 705 C 73.9889 0.399062 -1.91486 0
M  V30 706 O 75.1949 0.691312 -2.62551 0
M  V30 707 C 73.6509 -1.85512 -3.08404 0
M  V30 708 C 73.2589 -3.36141 -2.96164 0
M  V30 709 C 75.0029 -1.76783 -3.85938 0
M  V30 710 C 72.9099 -4.07659 -4.28449 0
M  V30 711 H 71.8399 -0.394452 -0.642591 0
M  V30 712 H 74.4909 -1.47594 -1.09034 0
M  V30 713 H 72.8729 -1.37103 -3.71509 0
M  V30 714 H 74.0469 -3.92056 -2.42133 0
M  V30 715 H 72.3619 -3.45712 -2.32104 0
M  V30 716 H 74.9589 -2.27526 -4.83876 0
M  V30 717 H 75.3019 -0.731116 -4.0983 0
M  V30 718 H 75.8349 -2.22818 -3.2954 0
M  V30 719 H 72.5739 -5.11648 -4.09752 0
M  V30 720 H 72.0939 -3.5653 -4.82334 0
M  V30 721 H 73.7729 -4.141 -4.97122 0
M  V30 722 N 73.905 1.17692 -1.04816 0
M  V30 723 C 75.154 1.87192 -0.751132 0
M  V30 724 C 75.467 1.8169 0.724441 0
M  V30 725 O 76.673 2.46625 1.13527 0
M  V30 726 C 75.129 3.35857 -1.29338 0
M  V30 727 C 74.737 3.4987 -2.79812 0
M  V30 728 C 76.481 4.10709 -1.07322 0
M  V30 729 C 74.388 4.92536 -3.27356 0
M  V30 730 H 73.318 0.701162 -0.277288 0
M  V30 731 H 75.969 1.32932 -1.26496 0
M  V30 732 H 74.351 3.89631 -0.707376 0
M  V30 733 H 75.525 3.06332 -3.44235 0
M  V30 734 H 73.84 2.88433 -3.00325 0
M  V30 735 H 76.437 5.15952 -1.4035 0
M  V30 736 H 76.78 4.16299 -0.0108001 0
M  V30 737 H 77.313 3.6313 -1.62423 0
M  V30 738 H 74.052 4.92119 -4.33012 0
M  V30 739 H 73.572 5.3676 -2.67673 0
M  V30 740 H 75.251 5.61288 -3.21815 0
M  V30 741 N 75.3831 0.828654 1.34056 0
M  V30 742 C 76.6311 0.41863 1.97717 0
M  V30 743 C 76.9521 -1.02314 1.66002 0
M  V30 744 O 76.2221 -1.71119 0.953683 0
M  V30 745 H 74.8021 0.151809 0.731412 0
M  V30 746 H 77.4641 1.05936 1.63596 0
M  V30 747 H 76.5601 0.542318 3.07352 0
M  V30 748 N 76.8612 -1.46375 0.584142 0
M  V30 749 C 77.8242 -2.28784 -0.138108 0
M  V30 750 C 78.8242 -1.38471 -0.817462 0
M  V30 751 O 80.0142 -1.60833 -0.669199 0
M  V30 752 C 77.1462 -3.18892 -1.20503 0
M  V30 753 H 78.3392 -2.94117 0.586127 0
M  V30 754 H 75.8922 -1.52509 0.342171 0
M  V30 755 H 76.6272 -2.58309 -1.96079 0
M  V30 756 H 76.4122 -3.85388 -0.722384 0
M  V30 757 H 77.9022 -3.80914 -1.71155 0
M  V30 758 N 78.3393 -0.321999 -1.54275 0
M  V30 759 C 79.2693 0.537411 -2.27231 0
M  V30 760 C 80.2503 1.12064 -1.27968 0
M  V30 761 O 81.4353 1.14606 -1.56777 0
M  V30 762 C 78.5653 1.69919 -3.02894 0
M  V30 763 C 77.5193 1.24534 -4.09482 0
M  V30 764 C 76.8453 2.49394 -4.72977 0
M  V30 765 C 78.1453 0.361335 -5.21049 0
M  V30 766 H 79.8393 -0.0711406 -2.99315 0
M  V30 767 H 77.3853 -0.0356555 -1.43956 0
M  V30 768 H 79.3383 2.30668 -3.52662 0
M  V30 769 H 78.0623 2.33431 -2.28424 0
M  V30 770 H 76.7213 0.660782 -3.60596 0
M  V30 771 H 76.3693 3.11265 -3.95124 0
M  V30 772 H 76.0693 2.19718 -5.44975 0
M  V30 773 H 77.5933 3.10908 -5.25517 0
M  V30 774 H 79.0073 0.875072 -5.66582 0
M  V30 775 H 77.4043 0.157428 -5.99893 0
M  V30 776 H 78.4743 -0.60822 -4.8107 0
M  V30 777 N 79.8174 1.5752 -0.0501392 0
M  V30 778 C 81.0654 1.9227 0.622642 0
M  V30 779 C 81.3864 0.929083 1.71444 0
M  V30 780 O 80.6564 -0.0262186 1.95882 0
M  V30 781 H 79.2364 0.709739 0.232981 0
M  V30 782 H 81.8984 1.94628 -0.102898 0
M  V30 783 H 80.9944 2.93479 1.06191 0
M  V30 784 N 81.2955 -0.223234 1.56011 0
M  V30 785 C 82.2255 -1.27988 1.95298 0
M  V30 786 C 83.2065 -1.48976 0.820979 0
M  V30 787 O 84.3915 -1.61188 1.08315 0
M  V30 788 C 81.5215 -2.63 2.26822 0
M  V30 789 C 80.4755 -2.56671 3.42497 0
M  V30 790 C 79.8015 -3.95697 3.59622 0
M  V30 791 C 81.1015 -2.11601 4.77517 0
M  V30 792 H 82.7955 -0.953525 2.8381 0
M  V30 793 H 80.3415 -0.457244 1.36548 0
M  V30 794 H 82.2945 -3.37077 2.52898 0
M  V30 795 H 81.0185 -2.9732 1.35161 0
M  V30 796 H 79.6775 -1.85051 3.16467 0
M  V30 797 H 79.3255 -4.27322 2.6534 0
M  V30 798 H 79.0255 -3.92345 4.37424 0
M  V30 799 H 80.5495 -4.71438 3.88044 0
M  V30 800 H 81.9635 -2.7542 5.02809 0
M  V30 801 H 80.3605 -2.19311 5.5859 0
M  V30 802 H 81.4305 -1.06824 4.72987 0
M  V30 803 N 82.7736 -1.49793 -0.48987 0
M  V30 804 C 83.9986 -1.63836 -1.27172 0
M  V30 805 C 84.4236 -0.31402 -1.8546 0
M  V30 806 O 83.7816 0.719803 -1.66399 0
M  V30 807 C 83.8296 -2.71797 -2.36978 0
M  V30 808 O 82.9336 -2.31744 -3.41128 0
M  V30 809 H 82.2746 -0.547997 -0.37496 0
M  V30 810 H 84.8046 -1.96053 -0.585191 0
M  V30 811 H 84.8146 -2.94305 -2.82575 0
M  V30 812 H 83.4896 -3.67923 -1.93921 0
M  V30 813 H 82.0666 -2.1961 -3.01373 0
M  V30 814 N 84.2517 0.741722 -1.39055 0
M  V30 815 C 85.1847 1.86416 -1.31622 0
M  V30 816 C 86.1627 1.61473 -0.191076 0
M  V30 817 O 87.3467 1.84825 -0.370399 0
M  V30 818 C 84.4737 3.22266 -1.04221 0
M  V30 819 C 83.5197 3.66079 -2.18834 0
M  V30 820 S 84.3527 3.7623 -3.81066 0
M  V30 821 C 85.5087 5.14881 -3.55877 0
M  V30 822 H 85.7417 1.92437 -2.26617 0
M  V30 823 H 83.2747 0.905907 -1.25031 0
M  V30 824 H 85.2327 4.00714 -0.890964 0
M  V30 825 H 83.8937 3.1391 -0.109237 0
M  V30 826 H 83.0867 4.64648 -1.95238 0
M  V30 827 H 82.6887 2.94817 -2.30128 0
M  V30 828 H 84.9807 6.01006 -3.12726 0
M  V30 829 H 85.9237 5.43503 -4.53884 0
M  V30 830 H 86.3317 4.84239 -2.90126 0
M  V30 831 N 85.7298 1.2412 0.971189 0
M  V30 832 C 86.9758 1.08041 1.71625 0
M  V30 833 C 87.3088 -0.380407 1.90438 0
M  V30 834 O 86.5838 -1.28127 1.46334 0
M  V30 835 C 86.8668 1.81682 3.10908 0
M  V30 836 C 86.7198 3.35493 2.99608 0
M  V30 837 C 88.0388 1.58671 4.10501 0
M  V30 838 H 85.1578 0.39388 0.622919 0
M  V30 839 H 87.7998 1.52743 1.13003 0
M  V30 840 H 85.9498 1.43684 3.60953 0
M  V30 841 H 87.6218 3.83068 2.57015 0
M  V30 842 H 85.8648 3.64052 2.35899 0
M  V30 843 H 86.5358 3.82217 3.98264 0
M  V30 844 H 89.0118 1.91719 3.69301 0
M  V30 845 H 87.8878 2.1266 5.06031 0
M  V30 846 H 88.1488 0.524161 4.38982 0
M  V30 847 N 87.2079 -1.17134 1.05439 0
M  V30 848 C 88.4379 -1.91094 0.785274 0
M  V30 849 C 88.8459 -1.77198 -0.663142 0
M  V30 850 O 88.1889 -1.10835 -1.46497 0
M  V30 851 C 88.2509 -3.42594 1.08949 0
M  V30 852 C 87.9149 -3.80274 2.53458 0
M  V30 853 C 88.9119 -3.82912 3.51673 0
M  V30 854 C 86.5969 -4.11162 2.88532 0
M  V30 855 C 88.5909 -4.15913 4.83006 0
M  V30 856 C 86.2779 -4.43831 4.20068 0
M  V30 857 C 87.2759 -4.46185 5.17115 0
M  V30 858 O 86.9639 -4.78083 6.46291 0
M  V30 859 H 86.6959 -0.613073 0.284811 0
M  V30 860 H 89.2499 -1.49461 1.40893 0
M  V30 861 H 87.4799 -3.84534 0.408741 0
M  V30 862 H 89.1689 -3.97817 0.805991 0
M  V30 863 H 89.9349 -3.5917 3.25917 0
M  V30 864 H 85.8139 -4.085 2.13656 0
M  V30 865 H 89.3579 -4.17665 5.5875 0
M  V30 866 H 85.2549 -4.67037 4.45586 0
M  V30 867 H 86.0229 -4.9593 6.51149 0
M  V30 868 N 88.686 -0.835752 -1.33615 0
M  V30 869 C 89.649 -0.272 -2.2758 0
M  V30 870 C 90.649 0.557487 -1.50827 0
M  V30 871 O 91.839 0.37173 -1.70188 0
M  V30 872 C 88.971 0.617173 -3.35267 0
M  V30 873 H 90.164 -1.10111 -2.78954 0
M  V30 874 H 87.717 -0.608594 -1.43965 0
M  V30 875 H 88.452 1.46884 -2.89129 0
M  V30 876 H 88.237 0.0237066 -3.92093 0
M  V30 877 H 89.727 1.005 -4.05326 0
M  V30 878 N 90.1641 1.46063 -0.591896 0
M  V30 879 C 91.1111 2.30399 0.136069 0
M  V30 880 C 92.0811 1.41169 0.875238 0
M  V30 881 O 93.2661 1.70112 0.86409 0
M  V30 882 C 90.4061 3.25804 1.13781 0
M  V30 883 C 89.5191 4.30134 0.401137 0
M  V30 884 C 88.6541 5.12659 1.39121 0
M  V30 885 C 87.6931 6.0873 0.641462 0
M  V30 886 N 86.8301 6.8409 1.58004 0
M  V30 887 H 91.6701 2.92118 -0.589144 0
M  V30 888 H 89.2071 1.43959 -0.302342 0
M  V30 889 H 91.1651 3.79569 1.73156 0
M  V30 890 H 89.7951 2.65872 1.83062 0
M  V30 891 H 88.8471 3.79152 -0.307826 0
M  V30 892 H 90.1591 4.98458 -0.184565 0
M  V30 893 H 89.3131 5.70747 2.05749 0
M  V30 894 H 88.0521 4.44316 2.01084 0
M  V30 895 H 87.0571 5.49786 -0.0385419 0
M  V30 896 H 88.2821 6.79095 0.0270945 0
M  V30 897 H 86.2281 6.18449 2.18761 0
M  V30 898 H 86.1451 7.48709 1.04738 0
M  V30 899 H 87.4131 7.4673 2.23639 0
M  V30 900 N 91.6422 0.330177 1.54103 0
M  V30 901 C 92.5752 -0.575477 2.20825 0
M  V30 902 C 93.5532 -1.11064 1.18758 0
M  V30 903 O 94.7372 -1.17341 1.47524 0
M  V30 904 C 91.8642 -1.79032 2.87516 0
M  V30 905 C 90.9102 -1.38581 4.03358 0
M  V30 906 S 91.7432 -0.416911 5.33875 0
M  V30 907 C 92.8992 -1.63889 6.04062 0
M  V30 908 H 93.1322 -0.00872114 2.97299 0
M  V30 909 H 90.6652 0.114254 1.53977 0
M  V30 910 H 92.6232 -2.48734 3.2656 0
M  V30 911 H 91.2842 -2.32827 2.10832 0
M  V30 912 H 90.4772 -2.29123 4.48908 0
M  V30 913 H 90.0792 -0.768419 3.66021 0
M  V30 914 H 92.3712 -2.57536 6.26643 0
M  V30 915 H 93.3142 -1.22542 6.97416 0
M  V30 916 H 93.7222 -1.82887 5.34053 0
M  V30 917 N 93.1203 -1.57491 0.0584922 0
M  V30 918 C 94.3453 -1.97711 -0.62652 0
M  V30 919 C 94.7703 -0.936132 -1.63151 0
M  V30 920 O 94.1283 0.099811 -1.81025 0
M  V30 921 C 94.1763 -3.36989 -1.28338 0
M  V30 922 O 93.2803 -3.35433 -2.39913 0
M  V30 923 H 92.6213 -0.643868 -0.162266 0
M  V30 924 H 95.1513 -2.04193 0.129064 0
M  V30 925 H 95.1613 -3.73879 -1.63335 0
M  V30 926 H 93.8363 -4.12289 -0.546889 0
M  V30 927 H 92.4133 -3.10298 -2.06809 0
M  V30 928 N 94.5984 0.214957 -1.56127 0
M  V30 929 C 95.8454 0.938372 -1.79446 0
M  V30 930 C 96.1734 1.8407 -0.628378 0
M  V30 931 O 95.4284 1.91837 0.386925 0
M  V30 932 C 95.7274 1.80314 -3.0858 0
M  V30 933 C 95.3934 1.05349 -4.3842 0
M  V30 934 C 94.0554 0.846435 -4.73697 0
M  V30 935 C 96.4074 0.524588 -5.18553 0
M  V30 936 C 93.7354 0.098683 -5.86617 0
M  V30 937 C 96.0874 -0.209853 -6.32252 0
M  V30 938 C 94.7514 -0.428102 -6.66126 0
M  V30 939 H 94.0214 0.343375 -0.656639 0
M  V30 940 H 96.6684 0.206077 -1.90388 0
M  V30 941 H 94.9734 2.6035 -2.92789 0
M  V30 942 H 96.6704 2.36513 -3.23825 0
M  V30 943 H 93.2604 1.22486 -4.10725 0
M  V30 944 H 97.4444 0.672008 -4.91729 0
M  V30 945 H 92.7004 -0.0805753 -6.11347 0
M  V30 946 H 96.8744 -0.627157 -6.9357 0
M  V30 947 H 94.5014 -1.00944 -7.53468 0
M  V30 948 N 96.0765 1.50051 0.48192 0
M  V30 949 C 97.0065 1.71046 1.58951 0
M  V30 950 C 97.9875 0.559288 1.60642 0
M  V30 951 O 99.1725 0.797243 1.77081 0
M  V30 952 C 96.3025 1.79462 2.97339 0
M  V30 953 C 95.2565 2.94558 3.10515 0
M  V30 954 C 94.5825 2.88105 4.50444 0
M  V30 955 C 95.8825 4.35227 2.88747 0
M  V30 956 H 97.5765 2.6378 1.41635 0
M  V30 957 H 95.1225 1.26936 0.679942 0
M  V30 958 H 97.0755 1.92734 3.74742 0
M  V30 959 H 95.7995 0.833412 3.15788 0
M  V30 960 H 94.4585 2.80918 2.35543 0
M  V30 961 H 94.1065 1.89853 4.65795 0
M  V30 962 H 93.8065 3.65366 4.60197 0
M  V30 963 H 95.3305 3.03412 5.29881 0
M  V30 964 H 96.7445 4.49449 3.55905 0
M  V30 965 H 95.1415 5.13856 3.09955 0
M  V30 966 H 96.2115 4.48347 1.84696 0
M  V30 967 N 97.5546 -0.734337 1.39446 0
M  V30 968 C 98.8316 -1.48579 1.27215 0
M  V30 969 C 99.2116 -2.1077 -0.117968 0
M  V30 970 O 98.5596 -1.98646 -1.12924 0
M  V30 971 C 98.7696 -2.53667 2.39696 0
M  V30 972 C 100.118 -3.20031 2.79044 0
M  V30 973 O 101.142 -2.6398 2.39151 0
M  V30 974 O 100.001 -4.21455 3.47905 0
M  V30 975 H 97.0946 -0.659816 0.49857 0
M  V30 976 H 99.6406 -0.768106 1.51322 0
M  V30 977 H 98.4126 -2.06096 3.32626 0
M  V30 978 H 98.0356 -3.32994 2.17258 0
M  V30 979 N 99.0327 -1.24633 -0.964593 0
M  V30 980 C 100.444 -1.08045 -1.5226 0
M  V30 981 C 100.795 0.347116 -1.93105 0
M  V30 982 O 99.9197 1.23588 -1.77637 0
M  V30 983 C 100.515 -1.95514 -2.76695 0
M  V30 984 C 99.0737 -1.8314 -3.28841 0
M  V30 985 C 98.2207 -1.90262 -2.01732 0
M  V30 986 H 101.172 -1.38064 -0.782553 0
M  V30 987 H 101.193 -1.48925 -3.50145 0
M  V30 988 H 100.705 -2.99407 -2.46936 0
M  V30 989 H 98.8057 -0.82092 -3.63444 0
M  V30 990 H 98.9187 -2.67406 -3.97531 0
M  V30 991 H 97.2827 -1.34027 -2.16584 0
M  V30 992 H 98.0657 -2.9574 -1.74334 0
M  V30 993 N 100.511 1.16574 -1.06058 0
M  V30 994 C 101.736 1.91493 -0.796562 0
M  V30 995 C 102.161 1.76773 0.642868 0
M  V30 996 O 101.519 1.09142 1.44768 0
M  V30 997 C 101.567 3.40293 -1.19303 0
M  V30 998 O 100.671 4.11074 -0.330394 0
M  V30 999 H 100.012 0.596678 -0.291326 0
M  V30 1000 H 102.542 1.47708 -1.41575 0
M  V30 1001 H 102.552 3.91057 -1.16356 0
M  V30 1002 H 101.227 3.50326 -2.24153 0
M  V30 1003 H 99.8038 3.70513 -0.421225 0
M  V30 1004 N 101.989 0.842826 1.3317 0
M  V30 1005 C 103.4 0.496651 1.79973 0
M  V30 1006 C 103.751 -0.984641 1.69703 0
M  V30 1007 O 102.876 -1.76743 1.24863 0
M  V30 1008 C 103.471 0.894727 3.26772 0
M  V30 1009 C 102.03 0.600629 3.71577 0
M  V30 1010 C 101.177 1.10091 2.5451 0
M  V30 1011 H 104.128 1.03116 1.20635 0
M  V30 1012 H 104.149 0.206347 3.7994 0
M  V30 1013 H 103.661 1.97287 3.34215 0
M  V30 1014 H 101.762 -0.467284 3.69658 0
M  V30 1015 H 101.875 1.15863 4.64879 0
M  V30 1016 H 100.239 0.52162 2.49301 0
M  V30 1017 H 101.022 2.18591 2.64713 0
M  V30 1018 N 103.467 -1.45747 0.599634 0
M  V30 1019 C 104.715 -2.01893 0.0915472 0
M  V30 1020 C 105.036 -1.47155 -1.27946 0
M  V30 1021 O 104.306 -0.66273 -1.84349 0
M  V30 1022 H 102.886 -0.746363 0.0308524 0
M  V30 1023 H 105.548 -1.78645 0.779237 0
M  V30 1024 H 104.644 -3.1208 0.0353086 0
M  V30 1025 N 104.945 -0.338344 -1.53925 0
M  V30 1026 C 106.193 0.259245 -2.0043 0
M  V30 1027 C 106.514 1.51484 -1.22791 0
M  V30 1028 O 105.784 1.93037 -0.33368 0
M  V30 1029 H 104.364 0.0987845 -0.740439 0
M  V30 1030 H 107.026 -0.458302 -1.89435 0
M  V30 1031 H 106.122 0.505334 -3.07982 0
M  V30 1032 N 106.423 1.57458 -0.0668435 0
M  V30 1033 C 107.648 1.9804 0.616027 0
M  V30 1034 C 108.073 0.944771 1.62652 0
M  V30 1035 O 107.431 -0.0902094 1.81075 0
M  V30 1036 C 107.479 3.37665 1.26549 0
M  V30 1037 O 106.583 3.36701 2.38131 0
M  V30 1038 H 105.924 0.644719 0.158849 0
M  V30 1039 H 108.454 2.04121 -0.139891 0
M  V30 1040 H 108.464 3.7474 1.6135 0
M  V30 1041 H 107.139 4.12573 0.525016 0
M  V30 1042 H 105.716 3.1139 2.0516 0
M  V30 1043 N 107.901 -0.206675 1.56239 0
M  V30 1044 C 109.131 -0.943975 1.83773 0
M  V30 1045 C 109.539 -1.77841 0.645703 0
M  V30 1046 O 108.882 -1.79403 -0.395008 0
M  V30 1047 C 108.944 -1.899 3.05251 0
M  V30 1048 C 108.608 -1.24764 4.39639 0
M  V30 1049 C 109.605 -0.630216 5.16066 0
M  V30 1050 C 107.29 -1.25496 4.8637 0
M  V30 1051 C 109.284 -0.0287946 6.37393 0
M  V30 1052 C 106.971 -0.649698 6.07637 0
M  V30 1053 C 107.969 -0.0376845 6.8299 0
M  V30 1054 O 107.657 0.55812 8.0196 0
M  V30 1055 H 107.389 -0.281508 0.614597 0
M  V30 1056 H 109.943 -0.222458 2.04192 0
M  V30 1057 H 108.173 -2.6599 2.80689 0
M  V30 1058 H 109.862 -2.5031 3.1953 0
M  V30 1059 H 110.628 -0.616785 4.81062 0
M  V30 1060 H 106.507 -1.72072 4.27683 0
M  V30 1061 H 110.051 0.449518 6.9615 0
M  V30 1062 H 105.948 -0.660592 6.42111 0
M  V30 1063 H 106.716 0.453891 8.17241 0
M  V30 1064 N 109.379 -1.50304 -0.473955 0
M  V30 1065 C 110.342 -1.6841 -1.55469 0
M  V30 1066 C 111.342 -0.554905 -1.50922 0
M  V30 1067 O 112.532 -0.821882 -1.53593 0
M  V30 1068 C 109.664 -1.70667 -2.95102 0
M  V30 1069 H 110.857 -2.64828 -1.40733 0
M  V30 1070 H 108.41 -1.39742 -0.700132 0
M  V30 1071 H 109.145 -0.75932 -3.15285 0
M  V30 1072 H 108.93 -2.52698 -2.9981 0
M  V30 1073 H 110.42 -1.8664 -3.73571 0
M  V30 1074 N 110.857 0.726932 -1.39834 0
M  V30 1075 C 112.087 1.51393 -1.40583 0
M  V30 1076 C 112.495 1.892 -0.000740625 0
M  V30 1077 O 111.838 1.55189 0.982951 0
M  V30 1078 C 111.9 2.82588 -2.22226 0
M  V30 1079 C 111.564 2.67169 -3.70769 0
M  V30 1080 C 112.561 2.3518 -4.63666 0
M  V30 1081 C 110.246 2.83788 -4.14451 0
M  V30 1082 C 112.24 2.20002 -5.98229 0
M  V30 1083 C 109.927 2.68229 -5.49087 0
M  V30 1084 C 110.925 2.36382 -6.4079 0
M  V30 1085 O 110.613 2.2093 -7.72946 0
M  V30 1086 H 110.345 0.474168 -0.48181 0
M  V30 1087 H 112.899 0.905247 -1.84376 0
M  V30 1088 H 111.129 3.45746 -1.73195 0
M  V30 1089 H 112.818 3.44247 -2.15055 0
M  V30 1090 H 113.584 2.21984 -4.31217 0
M  V30 1091 H 109.463 3.07566 -3.43401 0
M  V30 1092 H 113.007 1.95067 -6.69772 0
M  V30 1093 H 108.904 2.81006 -5.81125 0
M  V30 1094 H 109.672 2.35937 -7.83757 0
M  V30 1095 N 112.336 1.25143 0.95797 0
M  V30 1096 C 113.299 1.05321 2.03569 0
M  V30 1097 C 114.299 0.007152 1.60798 0
M  V30 1098 O 115.489 0.24903 1.72411 0
M  V30 1099 C 112.621 0.598394 3.35607 0
M  V30 1100 H 113.814 2.00986 2.22586 0
M  V30 1101 H 111.367 1.07502 1.13459 0
M  V30 1102 H 112.102 -0.361014 3.22284 0
M  V30 1103 H 111.887 1.35351 3.67998 0
M  V30 1104 H 113.377 0.48104 4.1482 0
M  V30 1105 N 113.814 -1.1601 1.06675 0
M  V30 1106 C 115.23 -1.38622 0.790948 0
M  V30 1107 C 115.43 -1.92109 -0.607965 0
M  V30 1108 O 114.486 -2.12239 -1.36787 0
M  V30 1109 C 115.799 -2.36347 1.85905 0
M  V30 1110 C 117.347 -2.50023 1.88301 0
M  V30 1111 C 117.822 -3.51033 2.94176 0
M  V30 1112 N 119.313 -3.58563 2.93235 0
M  V30 1113 C 120.048 -4.36521 3.71803 0
M  V30 1114 N 119.544 -5.17869 4.602 0
M  V30 1115 N 121.337 -4.31541 3.60178 0
M  V30 1116 H 113.488 -0.796294 1.96908 0
M  V30 1117 H 115.751 -0.412597 0.853503 0
M  V30 1118 H 115.457 -2.04147 2.86386 0
M  V30 1119 H 115.331 -3.36042 1.71334 0
M  V30 1120 H 117.718 -2.81524 0.884769 0
M  V30 1121 H 117.799 -1.5035 2.06951 0
M  V30 1122 H 117.443 -3.20268 3.94196 0
M  V30 1123 H 117.373 -4.50445 2.72776 0
M  V30 1124 H 119.864 -3.00496 2.29152 0
M  V30 1125 H 120.177 -5.74578 5.16797 0
M  V30 1126 H 118.522 -5.17199 4.64253 0
M  V30 1127 H 121.713 -3.67051 2.90502 0
M  V30 1128 H 121.886 -4.9205 4.21653 0
M  V30 1129 N 115.292 -0.849877 -1.32721 0
M  V30 1130 C 116.708 -0.539102 -1.50219 0
M  V30 1131 C 116.908 0.931271 -1.78689 0
M  V30 1132 O 115.964 1.71455 -1.85363 0
M  V30 1133 C 117.277 -1.42196 -2.64954 0
M  V30 1134 C 118.825 -1.42189 -2.78839 0
M  V30 1135 C 119.3 -2.28985 -3.96648 0
M  V30 1136 N 120.791 -2.26754 -4.03902 0
M  V30 1137 C 121.526 -2.90644 -4.94281 0
M  V30 1138 N 121.022 -3.63629 -5.897 0
M  V30 1139 N 122.815 -2.80057 -4.87365 0
M  V30 1140 H 114.966 -1.80156 -1.12506 0
M  V30 1141 H 117.229 -0.769217 -0.554085 0
M  V30 1142 H 116.935 -2.46733 -2.50631 0
M  V30 1143 H 116.809 -1.10591 -3.60624 0
M  V30 1144 H 119.196 -0.38419 -2.92588 0
M  V30 1145 H 119.277 -1.77807 -1.83898 0
M  V30 1146 H 118.921 -3.32819 -3.83658 0
M  V30 1147 H 118.851 -1.90702 -4.90857 0
M  V30 1148 H 121.342 -1.73688 -3.3562 0
M  V30 1149 H 121.655 -4.09558 -6.55349 0
M  V30 1150 H 120 -3.67737 -5.89741 0
M  V30 1151 H 123.191 -2.22593 -4.11789 0
M  V30 1152 H 123.364 -3.30132 -5.57599 0
M  V30 1153 N 116.77 1.45427 -0.607355 0
M  V30 1154 C 118.01 2.04128 -0.105458 0
M  V30 1155 C 118.374 1.46555 1.24039 0
M  V30 1156 O 119.575 1.96608 1.833 0
M  V30 1157 C 117.846 3.57338 -0.0665324 0
M  V30 1158 S 119.405 4.37201 0.374207 0
M  V30 1159 H 116.223 0.709278 -0.0494575 0
M  V30 1160 H 118.825 1.78139 -0.805404 0
M  V30 1161 H 117.529 3.96752 -1.04957 0
M  V30 1162 H 117.06 3.87902 0.655415 0
M  V30 1163 H 119.075 4.6888 1.62377 0
M  V30 1164 N 118.248 0.346503 1.53744 0
M  V30 1165 C 119.495 -0.249104 2.00962 0
M  V30 1166 C 119.823 -1.5032 1.23426 0
M  V30 1167 O 119.078 -1.93217 0.310761 0
M  V30 1168 C 119.377 -0.605809 3.52228 0
M  V30 1169 C 119.043 0.551747 4.47512 0
M  V30 1170 C 117.705 0.86941 4.73281 0
M  V30 1171 C 120.057 1.32818 5.03993 0
M  V30 1172 C 117.385 1.96582 5.52786 0
M  V30 1173 C 119.737 2.41486 5.84694 0
M  V30 1174 C 118.401 2.73808 6.08757 0
M  V30 1175 H 117.671 -0.0911538 0.735372 0
M  V30 1176 H 120.318 0.475027 1.85515 0
M  V30 1177 H 118.623 -1.4107 3.65522 0
M  V30 1178 H 120.32 -1.07858 3.86222 0
M  V30 1179 H 116.91 0.294102 4.2759 0
M  V30 1180 H 121.094 1.09602 4.84047 0
M  V30 1181 H 116.35 2.22045 5.69654 0
M  V30 1182 H 120.524 3.02078 6.27473 0
M  V30 1183 H 118.151 3.58892 6.7015 0
M  V30 1184 N 119.726 -1.57421 0.075193 0
M  V30 1185 C 120.974 -1.93236 -0.591974 0
M  V30 1186 C 121.295 -0.956241 -1.69944 0
M  V30 1187 O 120.565 -0.00494792 -1.95899 0
M  V30 1188 H 119.145 -0.713355 -0.22166 0
M  V30 1189 H 121.807 -1.9444 0.133848 0
M  V30 1190 H 120.903 -2.95131 -1.01509 0
M  V30 1191 N 121.204 0.198386 -1.56346 0
M  V30 1192 C 122.615 0.763358 -1.70381 0
M  V30 1193 C 122.966 1.83995 -0.681203 0
M  V30 1194 O 122.091 2.15785 0.16305 0
M  V30 1195 C 122.686 1.39143 -3.08909 0
M  V30 1196 C 121.245 1.90352 -3.2472 0
M  V30 1197 C 120.392 0.772233 -2.6633 0
M  V30 1198 H 123.343 -0.0266377 -1.58678 0
M  V30 1199 H 123.364 2.26076 -3.06055 0
M  V30 1200 H 122.876 0.607638 -3.83314 0
M  V30 1201 H 120.977 2.71461 -2.55225 0
M  V30 1202 H 121.09 2.06757 -4.3219 0
M  V30 1203 H 119.454 1.18566 -2.2542 0
M  V30 1204 H 120.237 0.00073556 -3.433 0
M  V30 1205 N 122.682 1.50554 0.465978 0
M  V30 1206 C 123.929 1.61798 1.21768 0
M  V30 1207 C 124.257 0.320696 1.91838 0
M  V30 1208 O 123.512 -0.693724 1.82992 0
M  V30 1209 C 123.811 2.75152 2.28093 0
M  V30 1210 C 123.477 4.15454 1.75239 0
M  V30 1211 C 122.139 4.53628 1.60546 0
M  V30 1212 C 124.491 5.03121 1.36083 0
M  V30 1213 C 121.819 5.77204 1.05128 0
M  V30 1214 C 124.171 6.27249 0.821056 0
M  V30 1215 C 122.835 6.64221 0.660795 0
M  V30 1216 H 122.105 0.592063 0.445582 0
M  V30 1217 H 124.752 1.84503 0.512927 0
M  V30 1218 H 123.057 2.46556 3.04496 0
M  V30 1219 H 124.754 2.81055 2.86023 0
M  V30 1220 H 121.344 3.85341 1.87644 0
M  V30 1221 H 125.528 4.74257 1.46267 0
M  V30 1222 H 120.784 6.0452 0.91462 0
M  V30 1223 H 124.958 6.94537 0.509018 0
M  V30 1224 H 122.585 7.59854 0.229226 0
M  V30 1225 N 124.16 -0.719506 1.40217 0
M  V30 1226 C 125.09 -1.8465 1.42922 0
M  V30 1227 C 126.071 -1.67599 0.29062 0
M  V30 1228 O 127.256 -1.87688 0.498677 0
M  V30 1229 C 124.386 -3.22565 1.28722 0
M  V30 1230 C 123.34 -3.54281 2.40144 0
M  V30 1231 C 122.666 -4.91298 2.11023 0
M  V30 1232 C 123.966 -3.55676 3.82481 0
M  V30 1233 H 125.66 -1.82644 2.37237 0
M  V30 1234 H 123.206 -0.877305 1.1419 0
M  V30 1235 H 125.159 -4.01095 1.29232 0
M  V30 1236 H 123.883 -3.25137 0.308811 0
M  V30 1237 H 122.542 -2.78088 2.38877 0
M  V30 1238 H 122.19 -4.90468 1.11582 0
M  V30 1239 H 121.89 -5.13485 2.8567 0
M  V30 1240 H 123.414 -5.72166 2.13209 0
M  V30 1241 H 124.828 -4.24254 3.85592 0
M  V30 1242 H 123.225 -3.89388 4.56614 0
M  V30 1243 H 124.295 -2.55144 4.12346 0
M  V30 1244 N 125.638 -1.25649 -0.95132 0
M  V30 1245 C 126.886 -1.10375 -1.69298 0
M  V30 1246 C 127.207 0.355339 -1.91735 0
M  V30 1247 O 126.477 1.25188 -1.50681 0
M  V30 1248 H 125.057 -0.405461 -0.627384 0
M  V30 1249 H 127.719 -1.57823 -1.14358 0
M  V30 1250 H 126.815 -1.61465 -2.67087 0
M  V30 1251 N 127.117 1.15442 -1.07289 0
M  V30 1252 C 128.347 1.89821 -0.815576 0
M  V30 1253 C 128.755 1.7823 0.634867 0
M  V30 1254 O 128.098 1.13152 1.44715 0
M  V30 1255 C 128.16 3.40817 -1.14385 0
M  V30 1256 C 127.824 3.76193 -2.59476 0
M  V30 1257 C 128.821 3.77269 -3.57721 0
M  V30 1258 C 126.506 4.0652 -2.95037 0
M  V30 1259 C 128.5 4.08176 -4.89562 0
M  V30 1260 C 126.187 4.37092 -4.27076 0
M  V30 1261 C 127.185 4.37902 -5.24148 0
M  V30 1262 O 126.873 4.67741 -6.53815 0
M  V30 1263 H 126.605 0.608465 -0.294528 0
M  V30 1264 H 129.159 1.472 -1.43252 0
M  V30 1265 H 127.389 3.83835 -0.469865 0
M  V30 1266 H 129.078 3.96485 -0.869179 0
M  V30 1267 H 129.844 3.5394 -3.3159 0
M  V30 1268 H 125.723 4.05049 -2.20128 0
M  V30 1269 H 129.267 4.08723 -5.65324 0
M  V30 1270 H 125.164 4.59889 -4.5296 0
M  V30 1271 H 125.932 4.85509 -6.58957 0
M  V30 1272 N 128.595 0.856903 1.32268 0
M  V30 1273 C 129.527 0.260412 2.27716 0
M  V30 1274 C 130.54 -0.569137 1.52528 0
M  V30 1275 O 131.729 -0.39326 1.74114 0
M  V30 1276 C 128.829 -0.650477 3.32599 0
M  V30 1277 C 128.002 0.14372 4.37164 0
M  V30 1278 C 127.061 -0.69328 5.21613 0
M  V30 1279 O 126.087 -0.12599 5.69061 0
M  V30 1280 N 127.289 -2.00761 5.44679 0
M  V30 1281 H 130.054 1.08059 2.79541 0
M  V30 1282 H 127.615 0.717103 1.45152 0
M  V30 1283 H 129.607 -1.21581 3.86005 0
M  V30 1284 H 128.177 -1.37133 2.80915 0
M  V30 1285 H 127.397 0.890486 3.8401 0
M  V30 1286 H 128.685 0.68915 5.04111 0
M  V30 1287 H 128.083 -2.49181 5.07863 0
M  V30 1288 H 126.64 -2.52103 6.01072 0
M  V30 1289 N 130.073 -1.45103 0.615059 0
M  V30 1290 C 131.301 -2.06553 0.11977 0
M  V30 1291 C 131.716 -1.45842 -1.19898 0
M  V30 1292 O 131.073 -0.575325 -1.73194 0
M  V30 1293 C 131.124 -3.61495 -0.018364 0
M  V30 1294 O 130.845 -4.19942 1.24822 0
M  V30 1295 C 132.346 -4.39947 -0.544237 0
M  V30 1296 H 129.566 -0.667096 0.0722739 0
M  V30 1297 H 132.11 -1.8623 0.84491 0
M  V30 1298 H 130.265 -3.81135 -0.693865 0
M  V30 1299 H 130.679 -5.13204 1.0827 0
M  V30 1300 H 132.153 -5.48838 -0.589953 0
M  V30 1301 H 132.63 -4.10255 -1.56805 0
M  V30 1302 H 133.236 -4.25188 0.0974703 0
M  V30 1303 N 131.551 -0.354651 -1.53558 0
M  V30 1304 C 132.499 0.512195 -2.26891 0
M  V30 1305 C 133.493 1.09263 -1.29452 0
M  V30 1306 O 134.699 1.03709 -1.47121 0
M  V30 1307 H 131.074 0.183878 -0.729173 0
M  V30 1308 H 133.045 -0.128202 -2.98124 0
M  V30 1309 C 131.794 1.64563 -3.06291 0
M  V30 1310 H 131.117 1.20829 -3.81104 0
M  V30 1311 H 132.557 2.22711 -3.60799 0
M  V30 1312 C 131.016 2.58158 -2.16462 0
M  V30 1313 O 131.546 3.60695 -1.76811 0
M  V30 1314 N 129.752 2.27096 -1.81317 0
M  V30 1315 H 129.299 1.43751 -2.1376 0
M  V30 1316 H 129.257 2.89975 -1.21498 0
M  V30 1317 N 133.029 1.57378 -0.0835403 0
M  V30 1318 C 134.275 1.94217 0.583733 0
M  V30 1319 C 134.608 0.964653 1.68547 0
M  V30 1320 O 133.883 -0.00422258 1.945 0
M  V30 1321 C 134.166 3.41253 1.14972 0
M  V30 1322 C 134.019 4.49768 0.0538277 0
M  V30 1323 C 135.338 3.89352 2.05166 0
M  V30 1324 H 132.457 0.706233 0.210724 0
M  V30 1325 H 135.099 1.89392 -0.1519 0
M  V30 1326 H 133.249 3.45496 1.77665 0
M  V30 1327 H 134.921 4.57641 -0.579851 0
M  V30 1328 H 133.164 4.29432 -0.614068 0
M  V30 1329 H 133.835 5.49817 0.490452 0
M  V30 1330 H 136.311 3.87189 1.52393 0
M  V30 1331 H 135.187 4.92822 2.41698 0
M  V30 1332 H 135.448 3.27973 2.96456 0
M  V30 1333 N 134.507 -0.190092 1.56449 0
M  V30 1334 C 135.437 -1.23816 1.97969 0
M  V30 1335 C 136.418 -1.47201 0.852395 0
M  V30 1336 O 137.603 -1.58854 1.1171 0
M  V30 1337 C 134.733 -2.5813 2.3235 0
M  V30 1338 C 133.687 -2.49348 3.47864 0
M  V30 1339 C 133.013 -3.8798 3.67934 0
M  V30 1340 C 134.313 -2.01424 4.81898 0
M  V30 1341 H 136.007 -0.89311 2.85769 0
M  V30 1342 H 133.553 -0.428177 1.37487 0
M  V30 1343 H 135.506 -3.31637 2.59991 0
M  V30 1344 H 134.23 -2.94386 1.41438 0
M  V30 1345 H 132.889 -1.78297 3.20321 0
M  V30 1346 H 132.537 -4.21597 2.74344 0
M  V30 1347 H 132.237 -3.82978 4.45648 0
M  V30 1348 H 133.761 -4.63101 3.97957 0
M  V30 1349 H 135.175 -2.64693 5.08538 0
M  V30 1350 H 133.572 -2.07413 5.63116 0
M  V30 1351 H 134.642 -0.967677 4.75146 0
M  V30 1352 N 135.985 -1.50799 -0.457987 0
M  V30 1353 C 137.215 -1.65977 -1.23025 0
M  V30 1354 C 137.623 -0.347918 -1.85974 0
M  V30 1355 O 136.966 0.68148 -1.70592 0
M  V30 1356 C 137.028 -2.70309 -2.3701 0
M  V30 1357 C 136.692 -4.135 -1.94594 0
M  V30 1358 C 137.689 -4.98949 -1.46101 0
M  V30 1359 C 135.374 -4.5949 -2.02915 0
M  V30 1360 C 137.368 -6.28442 -1.06489 0
M  V30 1361 C 135.055 -5.88984 -1.62914 0
M  V30 1362 C 136.053 -6.73286 -1.1478 0
M  V30 1363 O 135.741 -8.00362 -0.75339 0
M  V30 1364 H 135.473 -0.56064 -0.377702 0
M  V30 1365 H 138.027 -1.97857 -0.551537 0
M  V30 1366 H 136.257 -2.337 -3.08093 0
M  V30 1367 H 137.946 -2.74574 -2.98938 0
M  V30 1368 H 138.712 -4.6463 -1.39084 0
M  V30 1369 H 134.591 -3.94009 -2.39328 0
M  V30 1370 H 138.135 -6.94194 -0.688488 0
M  V30 1371 H 134.032 -6.22822 -1.69595 0
M  V30 1372 H 134.8 -8.13744 -0.88108 0
M  V30 1373 N 137.463 0.71206 -1.40597 0
M  V30 1374 C 138.709 1.47292 -1.40274 0
M  V30 1375 C 139.064 1.92399 -0.00576812 0
M  V30 1376 O 138.357 1.65507 0.965297 0
M  V30 1377 C 138.551 2.71039 -2.32965 0
M  V30 1378 C 138.38 2.38035 -3.81536 0
M  V30 1379 C 137.15 2.29203 -4.50327 0
M  V30 1380 C 139.348 2.02076 -4.72938 0
M  V30 1381 N 137.33 1.88911 -5.84111 0
M  V30 1382 C 138.701 1.72412 -5.95545 0
M  V30 1383 C 140.756 1.88742 -4.60739 0
M  V30 1384 C 139.459 1.30756 -7.07316 0
M  V30 1385 C 141.485 1.4849 -5.72455 0
M  V30 1386 C 140.847 1.19726 -6.94151 0
M  V30 1387 H 136.946 0.536919 -0.568544 0
M  V30 1388 H 139.53 0.825424 -1.76337 0
M  V30 1389 H 137.701 3.33533 -1.99023 0
M  V30 1390 H 139.433 3.37404 -2.23474 0
M  V30 1391 H 136.188 2.47059 -4.04053 0
M  V30 1392 H 136.612 1.71293 -6.54972 0
M  V30 1393 H 141.254 2.0964 -3.67166 0
M  V30 1394 H 138.972 1.08601 -8.00769 0
M  V30 1395 H 142.558 1.38747 -5.65014 0
M  V30 1396 H 141.438 0.890482 -7.79128 0
M  V30 1397 N 138.941 1.26152 0.944643 0
M  V30 1398 C 139.871 1.09902 2.06019 0
M  V30 1399 C 140.852 0.00519538 1.70099 0
M  V30 1400 O 142.037 0.176583 1.93396 0
M  V30 1401 C 139.167 0.727562 3.39594 0
M  V30 1402 C 138.121 1.77274 3.89561 0
M  V30 1403 C 137.447 1.25569 5.19747 0
M  V30 1404 C 138.747 3.17357 4.14827 0
M  V30 1405 H 140.441 2.03217 2.19871 0
M  V30 1406 H 137.987 0.978452 1.05652 0
M  V30 1407 H 139.94 0.600777 4.17095 0
M  V30 1408 H 138.664 -0.241287 3.25707 0
M  V30 1409 H 137.323 1.88814 3.14237 0
M  V30 1410 H 136.971 0.276783 5.02238 0
M  V30 1411 H 136.671 1.95433 5.54148 0
M  V30 1412 H 138.195 1.1415 5.99835 0
M  V30 1413 H 139.609 3.08914 4.82954 0
M  V30 1414 H 138.006 3.84781 4.60504 0
M  V30 1415 H 139.076 3.63673 3.20734 0
M  V30 1416 N 140.419 -1.14872 1.07899 0
M  V30 1417 C 141.382 -2.17986 0.708161 0
M  V30 1418 C 142.382 -1.58775 -0.25442 0
M  V30 1419 O 143.572 -1.74166 -0.034645 0
M  V30 1420 C 140.704 -3.40871 0.0446929 0
M  V30 1421 H 141.897 -2.52306 1.62116 0
M  V30 1422 H 139.45 -1.2943 0.876218 0
M  V30 1423 H 140.185 -3.12124 -0.880281 0
M  V30 1424 H 139.97 -3.8511 0.737091 0
M  V30 1425 H 141.46 -4.17121 -0.19991 0
M  V30 1426 N 141.898 -0.863906 -1.31812 0
M  V30 1427 C 143.138 -0.47825 -1.98726 0
M  V30 1428 C 143.502 0.950397 -1.66828 0
M  V30 1429 O 144.703 1.44109 -2.26905 0
M  V30 1430 C 142.974 -0.721134 -3.50049 0
M  V30 1431 S 144.533 -0.434432 -4.36644 0
M  V30 1432 H 141.351 -0.178773 -0.688158 0
M  V30 1433 H 143.953 -1.11862 -1.60334 0
M  V30 1434 H 142.657 -1.75981 -3.70755 0
M  V30 1435 H 142.188 -0.0675315 -3.93342 0
M  V30 1436 H 144.203 0.735786 -4.90714 0
M  V30 1437 N 143.376 1.44774 -0.622745 0
M  V30 1438 C 144.622 2.02968 -0.13257 0
M  V30 1439 C 144.977 1.48047 1.22881 0
M  V30 1440 O 144.27 0.651625 1.80179 0
M  V30 1441 C 144.464 3.57364 -0.0508323 0
M  V30 1442 C 144.293 4.27262 -1.40275 0
M  V30 1443 C 143.063 4.64577 -1.98737 0
M  V30 1444 C 145.261 4.58248 -2.3348 0
M  V30 1445 N 143.243 5.19404 -3.27251 0
M  V30 1446 C 144.614 5.14069 -3.46603 0
M  V30 1447 C 146.669 4.40195 -2.32664 0
M  V30 1448 C 145.372 5.53738 -4.59093 0
M  V30 1449 C 147.398 4.80907 -3.44213 0
M  V30 1450 C 146.76 5.36834 -4.56058 0
M  V30 1451 H 142.859 0.776541 -0.0922354 0
M  V30 1452 H 145.443 1.76385 -0.82441 0
M  V30 1453 H 143.614 3.83576 0.610265 0
M  V30 1454 H 145.346 4.02219 0.447397 0
M  V30 1455 H 142.101 4.48622 -1.51774 0
M  V30 1456 H 142.525 5.51301 -3.92933 0
M  V30 1457 H 147.167 3.96257 -1.47446 0
M  V30 1458 H 144.885 5.96635 -5.45025 0
M  V30 1459 H 148.471 4.68659 -3.44747 0
M  V30 1460 H 147.351 5.67755 -5.40947 0
M  V30 1461 N 144.854 0.36279 1.53368 0
M  V30 1462 C 146.103 -0.22888 2.00397 0
M  V30 1463 C 146.416 -1.50096 1.25421 0
M  V30 1464 O 147.622 -2.17106 1.63025 0
M  V30 1465 C 146.078 -0.458417 3.56969 0
M  V30 1466 C 145.686 0.798877 4.4082 0
M  V30 1467 C 147.43 -1.00789 4.12361 0
M  V30 1468 C 145.337 0.539078 5.88938 0
M  V30 1469 H 144.267 -0.089305 0.748693 0
M  V30 1470 H 146.918 0.481099 1.77081 0
M  V30 1471 H 145.3 -1.22959 3.76427 0
M  V30 1472 H 146.474 1.57262 4.33134 0
M  V30 1473 H 144.789 1.27137 3.96516 0
M  V30 1474 H 147.386 -1.21754 5.20653 0
M  V30 1475 H 147.729 -1.9692 3.66781 0
M  V30 1476 H 148.262 -0.296961 3.9669 0
M  V30 1477 H 145.001 1.47064 6.3879 0
M  V30 1478 H 144.521 -0.196222 5.99479 0
M  V30 1479 H 146.2 0.163542 6.46793 0
M  V30 1480 N 146.332 -1.57332 0.0918853 0
M  V30 1481 C 147.58 -1.93853 -0.571446 0
M  V30 1482 C 147.901 -0.974212 -1.6892 0
M  V30 1483 O 147.171 -0.0257254 -1.95883 0
M  V30 1484 H 145.751 -0.715666 -0.214082 0
M  V30 1485 H 148.413 -1.94287 0.154464 0
M  V30 1486 H 147.509 -2.96191 -0.983729 0
M  V30 1487 N 147.81 0.181792 -1.56548 0
M  V30 1488 C 148.758 1.24461 -1.965 0
M  V30 1489 C 149.752 1.464 -0.852261 0
M  V30 1490 O 150.958 1.47103 -1.03733 0
M  V30 1491 H 147.333 0.418138 -0.625031 0
M  V30 1492 H 149.304 0.880714 -2.85107 0
M  V30 1493 C 148.053 2.57891 -2.33212 0
M  V30 1494 H 147.376 2.41829 -3.18369 0
M  V30 1495 H 148.816 3.3097 -2.65019 0
M  V30 1496 C 147.275 3.15871 -1.17163 0
M  V30 1497 O 147.805 3.9913 -0.453708 0
M  V30 1498 N 146.011 2.74808 -0.944936 0
M  V30 1499 H 145.558 2.07205 -1.53049 0
M  V30 1500 H 145.516 3.13939 -0.170286 0
M  V30 1501 N 149.288 1.51039 0.449983 0
M  V30 1502 C 150.537 1.62317 1.19733 0
M  V30 1503 C 150.85 0.339101 1.92638 0
M  V30 1504 O 152.056 0.331069 2.69474 0
M  V30 1505 C 150.512 2.86608 2.17678 0
M  V30 1506 C 150.12 4.21972 1.50479 0
M  V30 1507 C 151.864 3.07239 2.92924 0
M  V30 1508 C 149.771 5.37426 2.46834 0
M  V30 1509 H 148.701 0.604532 0.450619 0
M  V30 1510 H 151.352 1.77494 0.465625 0
M  V30 1511 H 149.734 2.65037 2.94231 0
M  V30 1512 H 150.908 4.53878 0.795716 0
M  V30 1513 H 149.223 4.07117 0.874344 0
M  V30 1514 H 151.82 3.90668 3.65079 0
M  V30 1515 H 152.163 2.19807 3.5354 0
M  V30 1516 H 152.696 3.29091 2.23481 0
M  V30 1517 H 149.435 6.27079 1.90926 0
M  V30 1518 H 148.955 5.09912 3.15832 0
M  V30 1519 H 150.634 5.68862 3.08228 0
M  V30 1520 N 150.766 -0.704594 1.40972 0
M  V30 1521 C 151.729 -1.80035 1.41845 0
M  V30 1522 C 152.729 -1.57774 0.310474 0
M  V30 1523 O 153.919 -1.64613 0.56992 0
M  V30 1524 C 151.051 -3.18284 1.22098 0
M  V30 1525 H 152.244 -1.80658 2.3938 0
M  V30 1526 H 149.797 -0.911329 1.26982 0
M  V30 1527 H 150.532 -3.23306 0.253672 0
M  V30 1528 H 150.317 -3.35843 2.02366 0
M  V30 1529 H 151.807 -3.98289 1.25522 0
M  V30 1530 N 152.244 -1.26651 -0.937939 0
M  V30 1531 C 153.177 -1.02811 -2.03728 0
M  V30 1532 C 154.155 0.0481915 -1.62529 0
M  V30 1533 O 155.339 -0.0948839 -1.88261 0
M  V30 1534 C 152.466 -0.557517 -3.3408 0
M  V30 1535 C 151.512 -1.62686 -3.94253 0
M  V30 1536 S 152.345 -3.21667 -4.28125 0
M  V30 1537 C 153.501 -2.76384 -5.61572 0
M  V30 1538 H 153.734 -1.95891 -2.23638 0
M  V30 1539 H 151.267 -1.10367 -1.07974 0
M  V30 1540 H 153.225 -0.292674 -4.09455 0
M  V30 1541 H 151.886 0.353062 -3.12109 0
M  V30 1542 H 151.079 -1.24866 -4.88287 0
M  V30 1543 H 150.681 -1.84324 -3.25424 0
M  V30 1544 H 152.973 -2.2105 -6.40424 0
M  V30 1545 H 153.916 -3.69123 -6.0428 0
M  V30 1546 H 154.324 -2.15847 -5.21604 0
M  V30 1547 N 153.722 1.14298 -1.08507 0
M  V30 1548 C 154.968 1.85633 -0.816581 0
M  V30 1549 C 155.301 1.82784 0.656021 0
M  V30 1550 O 154.576 1.25926 1.48233 0
M  V30 1551 C 154.859 3.34223 -1.34041 0
M  V30 1552 C 154.712 3.45639 -2.87843 0
M  V30 1553 C 156.031 4.29356 -0.9665 0
M  V30 1554 H 153.15 0.67402 -0.298104 0
M  V30 1555 H 155.792 1.34214 -1.34487 0
M  V30 1556 H 153.942 3.78144 -0.89104 0
M  V30 1557 H 155.614 3.10498 -3.41158 0
M  V30 1558 H 153.857 2.86817 -3.25451 0
M  V30 1559 H 154.528 4.50089 -3.19569 0
M  V30 1560 H 157.004 3.93457 -1.35391 0
M  V30 1561 H 155.88 5.3178 -1.3602 0
M  V30 1562 H 156.141 4.41919 0.126362 0
M  V30 1563 N 155.201 0.870884 1.31352 0
M  V30 1564 C 156.447 0.482987 1.96965 0
M  V30 1565 C 156.78 -0.962462 1.68672 0
M  V30 1566 O 156.055 -1.6779 0.98371 0
M  V30 1567 C 156.338 0.741752 3.52378 0
M  V30 1568 C 156.191 2.2368 3.9024 0
M  V30 1569 C 157.51 0.208838 4.39604 0
M  V30 1570 H 154.629 0.176955 0.715441 0
M  V30 1571 H 157.271 1.09229 1.55464 0
M  V30 1572 H 155.421 0.223149 3.87859 0
M  V30 1573 H 157.093 2.82273 3.64856 0
M  V30 1574 H 155.336 2.70901 3.38814 0
M  V30 1575 H 156.007 2.3685 4.98604 0
M  V30 1576 H 158.483 0.652529 4.10952 0
M  V30 1577 H 157.359 0.419336 5.47296 0
M  V30 1578 H 157.62 -0.889275 4.33064 0
M  V30 1579 N 156.679 -1.44442 0.630414 0
M  V30 1580 C 157.928 -2.01267 0.132073 0
M  V30 1581 C 158.241 -1.50172 -1.25331 0
M  V30 1582 O 159.447 -1.9912 -1.84562 0
M  V30 1583 C 157.903 -3.59422 0.185362 0
M  V30 1584 C 157.511 -4.19514 1.57201 0
M  V30 1585 C 159.255 -4.23724 -0.256553 0
M  V30 1586 C 157.162 -5.69891 1.58045 0
M  V30 1587 H 156.092 -0.752619 0.0456092 0
M  V30 1588 H 158.743 -1.65666 0.789106 0
M  V30 1589 H 157.125 -3.92318 -0.538759 0
M  V30 1590 H 158.299 -3.98156 2.31966 0
M  V30 1591 H 156.614 -3.67496 1.95795 0
M  V30 1592 H 159.211 -5.34019 -0.269767 0
M  V30 1593 H 159.554 -3.96013 -1.28372 0
M  V30 1594 H 160.087 -3.95629 0.41505 0
M  V30 1595 H 156.826 -6.02336 2.58597 0
M  V30 1596 H 156.346 -5.93373 0.875725 0
M  V30 1597 H 158.025 -6.33515 1.31408 0
M  V30 1598 N 158.157 -0.370918 -1.53173 0
M  V30 1599 C 159.405 0.216673 -2.00935 0
M  V30 1600 C 159.726 1.48845 -1.25977 0
M  V30 1601 O 158.996 1.92286 -0.374551 0
M  V30 1602 H 157.576 0.0830565 -0.742368 0
M  V30 1603 H 160.238 -0.49838 -1.8842 0
M  V30 1604 H 159.334 0.439893 -3.08984 0
M  V30 1605 N 159.635 1.57281 -0.100228 0
M  V30 1606 C 160.881 1.94826 0.563101 0
M  V30 1607 C 161.214 0.982475 1.67514 0
M  V30 1608 O 160.489 0.0164069 1.94493 0
M  V30 1609 C 160.772 3.42453 1.11346 0
M  V30 1610 C 160.625 4.498 0.00612081 0
M  V30 1611 C 161.944 3.91506 2.01024 0
M  V30 1612 H 159.063 0.708428 0.203221 0
M  V30 1613 H 161.705 1.8922 -0.171979 0
M  V30 1614 H 159.855 3.47361 1.7399 0
M  V30 1615 H 161.527 4.57 -0.628357 0
M  V30 1616 H 159.77 4.28756 -0.659581 0
M  V30 1617 H 160.441 5.50306 0.432109 0
M  V30 1618 H 162.917 3.88784 1.48278 0
M  V30 1619 H 161.793 4.95358 2.36457 0
M  V30 1620 H 162.054 3.31099 2.92961 0
M  V30 1621 N 161.113 -0.173488 1.56642 0
M  V30 1622 C 162.361 -0.888706 1.81512 0
M  V30 1623 C 162.682 -1.82875 0.676872 0
M  V30 1624 O 161.952 -1.93536 -0.303414 0
M  V30 1625 H 160.532 -0.331164 0.669582 0
M  V30 1626 H 163.194 -0.173823 1.94123 0
M  V30 1627 H 162.29 -1.46691 2.75478 0
M  V30 1628 N 162.591 -1.51276 -0.441967 0
M  V30 1629 C 163.821 -1.67273 -1.21257 0
M  V30 1630 C 164.229 -0.367624 -1.85594 0
M  V30 1631 O 163.572 0.663349 -1.71305 0
M  V30 1632 C 163.634 -2.72807 -2.34129 0
M  V30 1633 C 163.298 -4.1554 -1.90198 0
M  V30 1634 C 164.295 -5.00471 -1.40801 0
M  V30 1635 C 161.98 -4.61616 -1.9803 0
M  V30 1636 C 163.974 -6.29536 -0.998174 0
M  V30 1637 C 161.661 -5.90679 -1.56658 0
M  V30 1638 C 162.659 -6.74466 -1.07633 0
M  V30 1639 O 162.347 -8.01116 -0.668459 0
M  V30 1640 H 162.079 -0.564614 -0.371734 0
M  V30 1641 H 164.633 -1.9843 -0.530521 0
M  V30 1642 H 162.863 -2.36954 -3.05597 0
M  V30 1643 H 164.552 -2.77729 -2.96009 0
M  V30 1644 H 165.318 -4.66079 -1.34148 0
M  V30 1645 H 161.197 -3.96526 -2.35135 0
M  V30 1646 H 164.741 -6.94885 -0.61482 0
M  V30 1647 H 160.638 -6.24586 -1.62979 0
M  V30 1648 H 161.406 -8.14633 -0.794722 0
M  V30 1649 N 164.069 0.697108 -1.41344 0
M  V30 1650 C 164.999 1.82353 -1.45841 0
M  V30 1651 C 165.98 1.67115 -0.317247 0
M  V30 1652 O 167.165 1.86871 -0.528474 0
M  V30 1653 C 164.295 3.20476 -1.33838 0
M  V30 1654 C 163.249 3.50415 -2.4575 0
M  V30 1655 C 162.575 4.87878 -2.18813 0
M  V30 1656 C 163.875 3.49546 -3.88091 0
M  V30 1657 H 165.569 1.78846 -2.40113 0
M  V30 1658 H 163.115 0.859028 -1.15571 0
M  V30 1659 H 165.068 3.98988 -1.35596 0
M  V30 1660 H 163.792 3.24604 -0.360498 0
M  V30 1661 H 162.451 2.74253 -2.43271 0
M  V30 1662 H 162.099 4.8863 -1.19371 0
M  V30 1663 H 161.799 5.08875 -2.93803 0
M  V30 1664 H 163.323 5.68702 -2.22284 0
M  V30 1665 H 164.737 4.18066 -3.92293 0
M  V30 1666 H 163.134 3.82075 -4.62751 0
M  V30 1667 H 164.204 2.48552 -4.16353 0
M  V30 1668 N 165.547 1.27147 0.931209 0
M  V30 1669 C 166.772 1.16191 1.71797 0
M  V30 1670 C 167.197 -0.278004 1.86034 0
M  V30 1671 O 166.555 -1.20137 1.35782 0
M  V30 1672 C 166.603 1.84673 3.09723 0
M  V30 1673 O 165.707 1.14231 3.96264 0
M  V30 1674 H 165.048 0.404303 0.526721 0
M  V30 1675 H 167.578 1.68152 1.1656 0
M  V30 1676 H 167.588 1.91893 3.60057 0
M  V30 1677 H 166.263 2.89421 2.98677 0
M  V30 1678 H 164.84 1.15056 3.54706 0
M  V30 1679 N 167.025 -1.13721 1.09112 0
M  V30 1680 C 168.255 -1.88499 0.845671 0
M  V30 1681 C 168.663 -1.79218 -0.606432 0
M  V30 1682 O 168.006 -1.1544 -1.42896 0
M  V30 1683 C 168.068 -3.38954 1.19793 0
M  V30 1684 C 167.732 -3.72018 2.65428 0
M  V30 1685 C 168.729 -3.7153 3.63677 0
M  V30 1686 C 166.414 -4.01775 3.01467 0
M  V30 1687 C 168.408 -4.00336 4.95994 0
M  V30 1688 C 166.095 -4.30243 4.33975 0
M  V30 1689 C 167.093 -4.29508 5.31048 0
M  V30 1690 O 166.781 -4.5728 6.61173 0
M  V30 1691 H 166.513 -0.603702 0.304171 0
M  V30 1692 H 169.067 -1.44903 1.45576 0
M  V30 1693 H 167.297 -3.83039 0.530871 0
M  V30 1694 H 168.986 -3.95052 0.932146 0
M  V30 1695 H 169.752 -3.4862 3.37179 0
M  V30 1696 H 165.631 -4.01496 2.26544 0
M  V30 1697 H 169.175 -3.99678 5.71755 0
M  V30 1698 H 165.072 -4.52625 4.60219 0
M  V30 1699 H 165.84 -4.74964 6.66597 0
M  V30 1700 N 168.503 -0.877838 -1.30888 0
M  V30 1701 C 169.75 -0.492696 -1.96415 0
M  V30 1702 C 170.078 0.956671 -1.69346 0
M  V30 1703 O 169.333 1.68993 -0.986913 0
M  V30 1704 C 169.632 -0.705748 -3.50363 0
M  V30 1705 C 169.298 -2.1291 -3.97467 0
M  V30 1706 C 167.96 -2.51834 -4.1004 0
M  V30 1707 C 170.312 -3.05702 -4.22132 0
M  V30 1708 C 167.64 -3.82775 -4.44635 0
M  V30 1709 C 169.992 -4.36166 -4.58194 0
M  V30 1710 C 168.656 -4.74993 -4.68975 0
M  V30 1711 H 167.926 -0.18029 -0.718733 0
M  V30 1712 H 170.573 -1.11233 -1.55883 0
M  V30 1713 H 168.878 -0.00303058 -3.918 0
M  V30 1714 H 170.575 -0.387456 -3.99124 0
M  V30 1715 H 167.165 -1.81694 -3.88182 0
M  V30 1716 H 171.349 -2.76853 -4.11906 0
M  V30 1717 H 166.605 -4.12609 -4.51181 0
M  V30 1718 H 170.779 -5.08111 -4.76231 0
M  V30 1719 H 168.406 -5.76495 -4.95537 0
M  V30 1720 N 169.982 1.44106 -0.638065 0
M  V30 1721 C 171.229 2.01978 -0.14533 0
M  V30 1722 C 171.557 1.50234 1.23532 0
M  V30 1723 O 170.812 0.679548 1.83523 0
M  V30 1724 C 171.111 3.5729 -0.0887327 0
M  V30 1725 C 170.777 4.28317 -1.40909 0
M  V30 1726 C 169.439 4.47437 -1.77069 0
M  V30 1727 C 171.791 4.6867 -2.28031 0
M  V30 1728 C 169.119 5.04171 -3.00047 0
M  V30 1729 C 171.471 5.26766 -3.50286 0
M  V30 1730 C 170.135 5.44104 -3.86661 0
M  V30 1731 H 169.405 0.739089 -0.0531801 0
M  V30 1732 H 172.052 1.72781 -0.825761 0
M  V30 1733 H 170.357 3.8594 0.675095 0
M  V30 1734 H 172.054 3.99807 0.309145 0
M  V30 1735 H 168.644 4.1377 -1.1177 0
M  V30 1736 H 172.828 4.53604 -2.01388 0
M  V30 1737 H 168.084 5.15782 -3.28298 0
M  V30 1738 H 172.258 5.56983 -4.18023 0
M  V30 1739 H 169.885 5.87832 -4.82034 0
M  V30 1740 N 171.46 0.379036 1.52974 0
M  V30 1741 C 172.871 -0.0972525 1.86447 0
M  V30 1742 C 173.222 -1.47027 1.29914 0
M  V30 1743 O 172.347 -2.07135 0.626433 0
M  V30 1744 C 172.942 -0.183248 3.38304 0
M  V30 1745 C 171.501 -0.603812 3.71525 0
M  V30 1746 C 170.648 0.240632 2.76254 0
M  V30 1747 H 173.599 0.597316 1.4703 0
M  V30 1748 H 173.62 -1.00432 3.67006 0
M  V30 1749 H 173.132 0.816191 3.79421 0
M  V30 1750 H 171.233 -1.61099 3.35973 0
M  V30 1751 H 171.346 -0.369086 4.77676 0
M  V30 1752 H 169.71 -0.292548 2.53014 0
M  V30 1753 H 170.493 1.23786 3.20206 0
M  V30 1754 N 172.938 -1.57226 0.108567 0
M  V30 1755 C 174.187 -1.94008 -0.551703 0
M  V30 1756 C 174.5 -0.993442 -1.68494 0
M  V30 1757 O 175.706 -1.25551 -2.40726 0
M  V30 1758 C 174.162 -3.44763 -1.03279 0
M  V30 1759 C 173.77 -4.47943 0.0714193 0
M  V30 1760 C 175.514 -3.90483 -1.66503 0
M  V30 1761 C 173.421 -5.89865 -0.425779 0
M  V30 1762 H 172.351 -0.724206 -0.209863 0
M  V30 1763 H 175.002 -1.82547 0.186741 0
M  V30 1764 H 173.384 -3.51422 -1.82533 0
M  V30 1765 H 174.558 -4.52942 0.847365 0
M  V30 1766 H 172.873 -4.11913 0.609669 0
M  V30 1767 H 175.47 -4.93925 -2.04798 0
M  V30 1768 H 175.813 -3.29877 -2.53942 0
M  V30 1769 H 176.346 -3.86581 -0.938074 0
M  V30 1770 H 173.085 -6.54202 0.412316 0
M  V30 1771 H 172.605 -5.88309 -1.16843 0
M  V30 1772 H 174.284 -6.40844 -0.890397 0
M  V30 1773 N 174.416 0.165178 -1.56732 0
M  V30 1774 C 175.346 1.20651 -1.99914 0
M  V30 1775 C 176.327 1.45827 -0.875705 0
M  V30 1776 O 177.512 1.57057 -1.14223 0
M  V30 1777 C 174.642 2.54401 -2.36427 0
M  V30 1778 C 173.596 2.43782 -3.51787 0
M  V30 1779 C 172.922 3.82078 -3.7406 0
M  V30 1780 C 174.222 1.93732 -4.85041 0
M  V30 1781 H 175.916 0.847534 -2.87154 0
M  V30 1782 H 173.462 0.40625 -1.38151 0
M  V30 1783 H 175.415 3.27458 -2.65234 0
M  V30 1784 H 174.139 2.92098 -1.46103 0
M  V30 1785 H 172.798 1.73178 -3.23117 0
M  V30 1786 H 172.446 4.17179 -2.81017 0
M  V30 1787 H 172.146 3.7584 -4.51684 0
M  V30 1788 H 173.67 4.56712 -4.05274 0
M  V30 1789 H 175.084 2.56569 -5.12684 0
M  V30 1790 H 173.481 1.98428 -5.66345 0
M  V30 1791 H 174.551 0.891962 -4.76626 0
M  V30 1792 N 175.894 1.51508 0.433938 0
M  V30 1793 C 176.841 1.73068 1.52696 0
M  V30 1794 C 177.811 0.572441 1.55924 0
M  V30 1795 O 178.996 0.807253 1.72882 0
M  V30 1796 C 176.136 1.86474 2.90381 0
M  V30 1797 C 175.249 3.14037 2.96656 0
M  V30 1798 C 174.384 3.18019 4.25485 0
M  V30 1799 C 173.423 4.39882 4.2564 0
M  V30 1800 N 172.56 4.41394 5.45999 0
M  V30 1801 H 177.4 2.66366 1.33615 0
M  V30 1802 H 174.937 1.32008 0.649018 0
M  V30 1803 H 176.895 1.92229 3.70275 0
M  V30 1804 H 175.525 0.965809 3.08013 0
M  V30 1805 H 174.577 3.17575 2.09404 0
M  V30 1806 H 175.889 4.0394 2.92633 0
M  V30 1807 H 175.043 3.22708 5.13755 0
M  V30 1808 H 173.782 2.2601 4.3217 0
M  V30 1809 H 172.787 4.35366 3.35763 0
M  V30 1810 H 174.012 5.33159 4.20617 0
M  V30 1811 H 171.958 3.52258 5.53399 0
M  V30 1812 H 171.875 5.25111 5.4387 0
M  V30 1813 H 173.143 4.50281 6.36292 0
M  V30 1814 N 177.372 -0.689602 1.41712 0
M  V30 1815 C 178.649 -1.44457 1.31877 0
M  V30 1816 C 179.029 -2.11039 -0.0508537 0
M  V30 1817 O 178.377 -2.02138 -1.06547 0
M  V30 1818 C 178.587 -2.45913 2.47645 0
M  V30 1819 C 179.935 -3.10991 2.89084 0
M  V30 1820 O 180.959 -2.56238 2.47428 0
M  V30 1821 O 179.818 -4.10174 3.61137 0
M  V30 1822 H 176.912 -0.64362 0.519309 0
M  V30 1823 H 179.458 -0.719576 1.53689 0
M  V30 1824 H 178.23 -1.95409 3.39015 0
M  V30 1825 H 177.853 -3.25913 2.27742 0
M  V30 1826 N 178.85 -1.27639 -0.924453 0
M  V30 1827 C 180.261 -1.12834 -1.48746 0
M  V30 1828 C 180.612 0.285505 -1.94112 0
M  V30 1829 O 179.737 1.17874 -1.81479 0
M  V30 1830 C 180.332 -2.04217 -2.70334 0
M  V30 1831 C 178.891 -1.93509 -3.22848 0
M  V30 1832 C 178.038 -1.96583 -1.95577 0
M  V30 1833 H 180.989 -1.40484 -0.738233 0
M  V30 1834 H 181.01 -1.59989 -3.4523 0
M  V30 1835 H 180.522 -3.07111 -2.37285 0
M  V30 1836 H 178.623 -0.936131 -3.60649 0
M  V30 1837 H 178.736 -2.79917 -3.88823 0
M  V30 1838 H 177.1 -1.4085 -2.12211 0
M  V30 1839 H 177.883 -3.01137 -1.64837 0
M  V30 1840 N 180.328 1.1314 -1.09713 0
M  V30 1841 C 181.258 2.20748 -0.761102 0
M  V30 1842 C 182.239 1.68061 0.262566 0
M  V30 1843 O 183.424 1.93765 0.129977 0
M  V30 1844 C 180.554 3.46812 -0.184054 0
M  V30 1845 C 179.508 4.12606 -1.13757 0
M  V30 1846 C 178.834 5.33031 -0.422083 0
M  V30 1847 C 180.134 4.59603 -2.48118 0
M  V30 1848 H 181.828 2.49113 -1.66082 0
M  V30 1849 H 179.374 1.19734 -0.799987 0
M  V30 1850 H 181.327 4.21353 0.0631215 0
M  V30 1851 H 180.051 3.17851 0.750868 0
M  V30 1852 H 178.71 3.40036 -1.37007 0
M  V30 1853 H 178.358 5.00335 0.517072 0
M  V30 1854 H 178.058 5.77999 -1.05788 0
M  V30 1855 H 179.582 6.10325 -0.183277 0
M  V30 1856 H 180.996 5.25552 -2.29059 0
M  V30 1857 H 179.393 5.15321 -3.07514 0
M  V30 1858 H 180.463 3.73971 -3.08665 0
M  V30 1859 N 181.806 0.884767 1.30421 0
M  V30 1860 C 183.052 0.503851 1.96441 0
M  V30 1861 C 183.385 -0.944518 1.69684 0
M  V30 1862 O 182.66 -1.66737 1.00145 0
M  V30 1863 C 182.943 0.779085 3.51571 0
M  V30 1864 C 182.796 2.27807 3.87846 0
M  V30 1865 C 184.115 0.255452 4.39358 0
M  V30 1866 H 181.234 0.184533 0.713524 0
M  V30 1867 H 183.876 1.10872 1.54297 0
M  V30 1868 H 182.026 0.264274 3.876 0
M  V30 1869 H 183.698 2.86127 3.61841 0
M  V30 1870 H 181.941 2.74479 3.35922 0
M  V30 1871 H 182.612 2.42125 4.96064 0
M  V30 1872 H 185.088 0.696079 4.10236 0
M  V30 1873 H 183.964 0.477361 5.4682 0
M  V30 1874 H 184.225 -0.843293 4.33983 0
M  V30 1875 N 183.284 -1.43765 0.645699 0
M  V30 1876 C 184.214 -2.33471 -0.0370477 0
M  V30 1877 C 185.195 -1.49042 -0.819779 0
M  V30 1878 O 186.38 -1.77726 -0.782758 0
M  V30 1879 C 183.51 -3.32311 -1.0093 0
M  V30 1880 C 182.464 -4.2667 -0.337201 0
M  V30 1881 C 181.79 -5.1549 -1.42037 0
M  V30 1882 C 183.09 -5.16657 0.765706 0
M  V30 1883 H 184.784 -2.90809 0.712069 0
M  V30 1884 H 182.33 -1.39834 0.343876 0
M  V30 1885 H 184.283 -3.9396 -1.49578 0
M  V30 1886 H 183.007 -2.73213 -1.78948 0
M  V30 1887 H 181.666 -3.66374 0.128771 0
M  V30 1888 H 181.314 -4.52735 -2.1918 0
M  V30 1889 H 181.014 -5.79438 -0.975966 0
M  V30 1890 H 182.538 -5.80012 -1.90838 0
M  V30 1891 H 183.952 -5.72158 0.361702 0
M  V30 1892 H 182.349 -5.89286 1.13413 0
M  V30 1893 H 183.419 -4.56796 1.62683 0
M  V30 1894 N 184.763 -0.387143 -1.52771 0
M  V30 1895 C 185.991 0.195869 -2.05971 0
M  V30 1896 C 186.406 1.40691 -1.25903 0
M  V30 1897 O 185.763 1.79931 -0.305134 0
M  V30 1898 C 185.814 0.56812 -3.57008 0
M  V30 1899 O 185.535 -0.594803 -4.34043 0
M  V30 1900 C 187.036 1.20723 -4.26545 0
M  V30 1901 H 184.256 0.0300578 -0.670326 0
M  V30 1902 H 186.8 -0.551749 -1.96916 0
M  V30 1903 H 184.955 1.26564 -3.66143 0
M  V30 1904 H 185.369 -0.289322 -5.23701 0
M  V30 1905 H 186.843 1.41807 -5.33474 0
M  V30 1906 H 187.32 2.17395 -3.81623 0
M  V30 1907 H 187.926 0.550535 -4.21722 0
M  V30 1908 N 186.241 1.57166 -0.116904 0
M  V30 1909 C 187.49 1.94298 0.541407 0
M  V30 1910 C 187.803 1.00236 1.67964 0
M  V30 1911 O 189.009 1.26826 2.40057 0
M  V30 1912 C 187.465 3.45306 1.01449 0
M  V30 1913 C 187.073 4.47899 -0.0951738 0
M  V30 1914 C 188.817 3.91361 1.6443 0
M  V30 1915 C 186.724 5.90083 0.394491 0
M  V30 1916 H 185.654 0.725308 0.206019 0
M  V30 1917 H 188.305 1.82446 -0.196419 0
M  V30 1918 H 186.687 3.52385 1.80667 0
M  V30 1919 H 187.861 4.52486 -0.871374 0
M  V30 1920 H 186.176 4.11583 -0.631505 0
M  V30 1921 H 188.773 4.95004 2.02176 0
M  V30 1922 H 189.116 3.3122 2.52189 0
M  V30 1923 H 189.649 3.87073 0.917559 0
M  V30 1924 H 186.388 6.53974 -0.447004 0
M  V30 1925 H 185.908 5.88921 1.13722 0
M  V30 1926 H 187.587 6.41307 0.856399 0
M  V30 1927 N 187.719 -0.156864 1.56817 0
M  V30 1928 C 188.947 -0.886316 1.86955 0
M  V30 1929 C 189.362 -1.75185 0.703975 0
M  V30 1930 O 188.719 -1.79555 -0.326552 0
M  V30 1931 C 188.77 -1.75117 3.16253 0
M  V30 1932 O 188.491 -0.920537 4.2832 0
M  V30 1933 C 189.992 -2.58905 3.59837 0
M  V30 1934 H 187.212 -0.25678 0.619923 0
M  V30 1935 H 189.756 -0.152615 2.0393 0
M  V30 1936 H 187.911 -2.43805 3.01062 0
M  V30 1937 H 188.325 -1.51337 5.02192 0
M  V30 1938 H 189.799 -3.1518 4.53172 0
M  V30 1939 H 190.276 -3.34472 2.84649 0
M  V30 1940 H 190.882 -1.95526 3.7769 0
M  V30 1941 N 189.197 -1.51736 -0.425897 0
M  V30 1942 C 190.437 -1.66636 -1.18371 0
M  V30 1943 C 190.801 -0.379854 -1.88205 0
M  V30 1944 O 192.002 -0.404758 -2.65735 0
M  V30 1945 C 190.273 -2.84382 -2.16476 0
M  V30 1946 S 191.832 -3.19673 -3.0059 0
M  V30 1947 H 188.65 -0.586957 -0.40125 0
M  V30 1948 H 191.252 -1.89679 -0.473518 0
M  V30 1949 H 189.956 -3.76281 -1.63831 0
M  V30 1950 H 189.487 -2.63562 -2.92059 0
M  V30 1951 H 191.502 -2.66994 -4.18245 0
M  V30 1952 N 190.675 0.682077 -1.42076 0
M  V30 1953 C 191.921 1.44428 -1.42367 0
M  V30 1954 C 192.254 1.94164 -0.0373056 0
M  V30 1955 O 191.529 1.70429 0.937239 0
M  V30 1956 C 191.812 2.64654 -2.44194 0
M  V30 1957 C 191.665 2.20596 -3.91991 0
M  V30 1958 C 192.984 3.66865 -2.431 0
M  V30 1959 H 190.103 0.523834 -0.518428 0
M  V30 1960 H 192.745 0.77576 -1.73442 0
M  V30 1961 H 190.895 3.2169 -2.17826 0
M  V30 1962 H 192.567 1.68783 -4.29313 0
M  V30 1963 H 190.81 1.52242 -4.06208 0
M  V30 1964 H 191.481 3.06921 -4.58807 0
M  V30 1965 H 193.957 3.19531 -2.66532 0
M  V30 1966 H 192.833 4.48577 -3.16339 0
M  V30 1967 H 193.094 4.17493 -1.45437 0
M  V30 1968 N 192.153 1.28127 0.917671 0
M  V30 1969 C 193.399 1.15223 1.66888 0
M  V30 1970 C 193.732 -0.299293 1.9188 0
M  V30 1971 O 193.007 -1.21805 1.51637 0
M  V30 1972 C 193.29 1.94706 3.02922 0
M  V30 1973 C 193.143 3.47898 2.85109 0
M  V30 1974 C 194.462 1.75939 4.03402 0
M  V30 1975 H 191.581 0.419946 0.605652 0
M  V30 1976 H 194.223 1.57398 1.06423 0
M  V30 1977 H 192.373 1.58864 3.54534 0
M  V30 1978 H 194.045 3.93624 2.40537 0
M  V30 1979 H 192.288 3.7373 2.20246 0
M  V30 1980 H 192.959 3.98765 3.81694 0
M  V30 1981 H 195.435 2.07209 3.60837 0
M  V30 1982 H 194.311 2.33931 4.96556 0
M  V30 1983 H 194.572 0.709877 4.36364 0
M  V30 1984 N 193.631 -1.12557 1.10312 0
M  V30 1985 C 194.877 -1.84311 0.846011 0
M  V30 1986 C 195.21 -1.83805 -0.626859 0
M  V30 1987 O 194.485 -1.28268 -1.46211 0
M  V30 1988 C 194.768 -3.32048 1.39341 0
M  V30 1989 C 194.621 -3.41016 2.93305 0
M  V30 1990 C 195.94 -4.27764 1.03468 0
M  V30 1991 H 193.059 -0.669192 0.30879 0
M  V30 1992 H 195.701 -1.32057 1.36605 0
M  V30 1993 H 193.851 -3.76678 0.951087 0
M  V30 1994 H 195.523 -3.05031 3.46055 0
M  V30 1995 H 193.766 -2.81603 3.29973 0
M  V30 1996 H 194.437 -4.44948 3.26689 0
M  V30 1997 H 196.913 -3.91253 1.41633 0
M  V30 1998 H 195.789 -5.29549 1.44463 0
M  V30 1999 H 196.05 -4.42064 -0.0560404 0
M  V30 2000 N 195.109 -0.891671 -1.2995 0
M  V30 2001 C 196.039 -0.379797 -2.30391 0
M  V30 2002 C 197.02 0.540919 -1.6127 0
M  V30 2003 O 198.205 0.453352 -1.88834 0
M  V30 2004 C 195.335 0.400654 -3.44981 0
M  V30 2005 C 194.289 -0.428905 -4.25846 0
M  V30 2006 C 193.615 0.478557 -5.32554 0
M  V30 2007 C 194.915 -1.67458 -4.94727 0
M  V30 2008 H 196.609 -1.21914 -2.73454 0
M  V30 2009 H 194.155 -0.587675 -1.31462 0
M  V30 2010 H 196.108 0.769434 -4.14316 0
M  V30 2011 H 194.832 1.27371 -3.0074 0
M  V30 2012 H 193.491 -0.779911 -3.58208 0
M  V30 2013 H 193.139 1.34951 -4.84559 0
M  V30 2014 H 192.839 -0.0727433 -5.87555 0
M  V30 2015 H 194.363 0.843705 -6.04743 0
M  V30 2016 H 195.777 -1.376 -5.56542 0
M  V30 2017 H 194.174 -2.16659 -5.59624 0
M  V30 2018 H 195.244 -2.41518 -4.20473 0
M  V30 2019 N 196.587 1.43421 -0.653314 0
M  V30 2020 C 197.833 2.02641 -0.175593 0
M  V30 2021 C 198.188 1.5062 1.19713 0
M  V30 2022 O 197.481 0.689697 1.78756 0
M  V30 2023 C 197.675 3.57176 -0.126623 0
M  V30 2024 C 197.504 4.24191 -1.49306 0
M  V30 2025 C 196.274 4.60257 -2.08547 0
M  V30 2026 C 198.472 4.53193 -2.43148 0
M  V30 2027 N 196.454 5.12345 -3.38194 0
M  V30 2028 C 197.825 5.06601 -3.57429 0
M  V30 2029 C 199.88 4.35161 -2.41949 0
M  V30 2030 C 198.583 5.43875 -4.70736 0
M  V30 2031 C 200.609 4.73498 -3.54336 0
M  V30 2032 C 199.971 5.27039 -4.67343 0
M  V30 2033 H 196.07 0.77441 -0.108686 0
M  V30 2034 H 198.654 1.74596 -0.861638 0
M  V30 2035 H 196.825 3.84784 0.528766 0
M  V30 2036 H 198.557 4.03078 0.36198 0
M  V30 2037 H 195.312 4.45302 -1.61255 0
M  V30 2038 H 195.736 5.42842 -4.04538 0
M  V30 2039 H 200.378 3.9304 -1.55818 0
M  V30 2040 H 198.096 5.8494 -5.57558 0
M  V30 2041 H 201.682 4.61241 -3.5461 0
M  V30 2042 H 200.562 5.56153 -5.52868 0
M  V30 2043 N 198.065 0.39524 1.52563 0
M  V30 2044 C 199.314 -0.186321 2.00838 0
M  V30 2045 C 199.627 -1.47402 1.28577 0
M  V30 2046 O 200.833 -2.13599 1.67593 0
M  V30 2047 C 199.289 -0.382595 3.57861 0
M  V30 2048 C 198.897 0.892202 4.39026 0
M  V30 2049 C 200.641 -0.9202 4.14406 0
M  V30 2050 C 198.548 0.66388 5.87662 0
M  V30 2051 H 197.478 -0.0734041 0.750418 0
M  V30 2052 H 200.129 0.518552 1.76021 0
M  V30 2053 H 198.511 -1.14946 3.7895 0
M  V30 2054 H 199.685 1.66414 4.29701 0
M  V30 2055 H 198 1.35519 3.9373 0
M  V30 2056 H 200.597 -1.10683 5.23119 0
M  V30 2057 H 200.94 -1.89096 3.70875 0
M  V30 2058 H 201.473 -0.212751 3.97231 0
M  V30 2059 H 198.212 1.6058 6.35527 0
M  V30 2060 H 197.732 -0.0690193 5.9976 0
M  V30 2061 H 199.411 0.300699 6.46301 0
M  V30 2062 N 199.544 -1.57102 0.125237 0
M  V30 2063 C 200.791 -1.95407 -0.531248 0
M  V30 2064 C 201.119 -1.0089 -1.66287 0
M  V30 2065 O 200.374 -0.0339431 -1.95671 0
M  V30 2066 C 200.673 -3.40096 -1.09862 0
M  V30 2067 C 200.339 -4.50815 -0.0876989 0
M  V30 2068 C 199.001 -4.80824 0.19026 0
M  V30 2069 C 201.353 -5.17724 0.600902 0
M  V30 2070 C 198.681 -5.75058 1.163 0
M  V30 2071 C 201.033 -6.13005 1.56231 0
M  V30 2072 C 199.697 -6.41403 1.8482 0
M  V30 2073 H 198.967 -0.715046 -0.194397 0
M  V30 2074 H 201.614 -1.90373 0.207463 0
M  V30 2075 H 199.919 -3.41855 -1.91422 0
M  V30 2076 H 201.616 -3.6705 -1.61478 0
M  V30 2077 H 198.206 -4.27444 -0.314528 0
M  V30 2078 H 202.39 -4.94691 0.399333 0
M  V30 2079 H 197.646 -5.95362 1.39117 0
M  V30 2080 H 201.82 -6.63934 2.10153 0
M  V30 2081 H 199.447 -7.14229 2.60349 0
M  V30 2082 N 201.022 0.148545 -1.56898 0
M  V30 2083 C 202.268 0.862694 -1.83536 0
M  V30 2084 C 202.601 1.80889 -0.706604 0
M  V30 2085 O 201.876 1.92328 0.289885 0
M  V30 2086 C 202.159 1.63853 -3.20662 0
M  V30 2087 C 202.012 0.713925 -4.44098 0
M  V30 2088 C 203.331 2.60133 -3.54991 0
M  V30 2089 H 200.45 0.312179 -0.667618 0
M  V30 2090 H 203.092 0.127953 -1.89569 0
M  V30 2091 H 201.242 2.26489 -3.1565 0
M  V30 2092 H 202.914 0.098686 -4.61194 0
M  V30 2093 H 201.157 0.0234019 -4.33794 0
M  V30 2094 H 201.828 1.29278 -5.36648 0
M  V30 2095 H 204.304 2.07616 -3.60603 0
M  V30 2096 H 203.18 3.11468 -4.51972 0
M  V30 2097 H 203.441 3.41417 -2.80868 0
M  V30 2098 N 202.5 1.5196 0.417844 0
M  V30 2099 C 203.43 1.77634 1.51554 0
M  V30 2100 C 204.411 0.626918 1.58126 0
M  V30 2101 O 205.596 0.871632 1.7354 0
M  V30 2102 C 202.726 1.91911 2.8946 0
M  V30 2103 C 201.68 3.07463 2.97743 0
M  V30 2104 C 201.006 3.06951 4.37819 0
M  V30 2105 C 202.306 4.47082 2.70027 0
M  V30 2106 H 204 2.6955 1.3032 0
M  V30 2107 H 201.546 1.29706 0.625492 0
M  V30 2108 H 203.499 2.08455 3.6623 0
M  V30 2109 H 202.223 0.966598 3.11969 0
M  V30 2110 H 200.882 2.90656 2.23416 0
M  V30 2111 H 200.53 2.09438 4.57323 0
M  V30 2112 H 200.23 3.84556 4.44286 0
M  V30 2113 H 201.754 3.25613 5.16535 0
M  V30 2114 H 203.168 4.6414 3.36522 0
M  V30 2115 H 201.565 5.2654 2.87881 0
M  V30 2116 H 202.635 4.55777 1.65514 0
M  V30 2117 N 203.978 -0.674533 1.42435 0
M  V30 2118 C 204.908 -1.80009 1.48724 0
M  V30 2119 C 205.889 -1.6659 0.343793 0
M  V30 2120 O 207.074 -1.86007 0.558137 0
M  V30 2121 C 204.204 -3.18306 1.38919 0
M  V30 2122 C 203.158 -3.46461 2.51294 0
M  V30 2123 C 202.484 -4.84335 2.26547 0
M  V30 2124 C 203.784 -3.43328 3.93603 0
M  V30 2125 H 205.478 -1.75004 2.42928 0
M  V30 2126 H 203.024 -0.840533 1.16923 0
M  V30 2127 H 204.977 -3.9678 1.41927 0
M  V30 2128 H 203.701 -3.2399 0.412094 0
M  V30 2129 H 202.36 -2.70348 2.47604 0
M  V30 2130 H 202.008 -4.86669 1.2713 0
M  V30 2131 H 201.708 -5.04136 3.01861 0
M  V30 2132 H 203.232 -5.65094 2.31304 0
M  V30 2133 H 204.646 -4.11772 3.98894 0
M  V30 2134 H 203.043 -3.74664 4.68771 0
M  V30 2135 H 204.113 -2.41897 4.20255 0
M  V30 2136 N 205.456 -1.28612 -0.910864 0
M  V30 2137 C 206.404 -1.1265 -2.03501 0
M  V30 2138 C 207.398 -0.0450054 -1.6934 0
M  V30 2139 O 208.604 -0.203988 -1.7884 0
M  V30 2140 H 204.979 -0.347639 -0.666822 0
M  V30 2141 H 206.95 -2.07849 -2.14106 0
M  V30 2142 C 205.699 -0.808143 -3.38178 0
M  V30 2143 H 205.022 -1.63231 -3.6496 0
M  V30 2144 H 206.462 -0.736426 -4.17556 0
M  V30 2145 C 204.921 0.488226 -3.33344 0
M  V30 2146 O 205.451 1.51766 -3.71927 0
M  V30 2147 N 203.657 0.490009 -2.86439 0
M  V30 2148 H 203.204 -0.348161 -2.55236 0
M  V30 2149 H 203.162 1.35741 -2.83587 0
M  V30 2150 N 206.934 1.1197 -1.10907 0
M  V30 2151 C 208.183 1.82947 -0.849302 0
M  V30 2152 C 208.496 1.85275 0.627112 0
M  V30 2153 O 209.702 2.52296 1.00295 0
M  V30 2154 C 208.158 3.28529 -1.46959 0
M  V30 2155 C 207.766 3.34546 -2.97965 0
M  V30 2156 C 209.51 4.04443 -1.28942 0
M  V30 2157 C 207.417 4.74491 -3.53004 0
M  V30 2158 H 206.347 0.685477 -0.314065 0
M  V30 2159 H 208.998 1.2604 -1.33365 0
M  V30 2160 H 207.38 3.85333 -0.912917 0
M  V30 2161 H 208.554 2.87654 -3.59989 0
M  V30 2162 H 206.869 2.72108 -3.15192 0
M  V30 2163 H 209.466 5.07787 -1.67502 0
M  V30 2164 H 209.809 4.15656 -0.231456 0
M  V30 2165 H 210.342 3.5401 -1.81443 0
M  V30 2166 H 207.081 4.68474 -4.58489 0
M  V30 2167 H 206.601 5.21816 -2.9575 0
M  V30 2168 H 208.28 5.4344 -3.51115 0
M  V30 2169 N 208.412 0.89855 1.29475 0
M  V30 2170 C 209.658 0.524658 1.95896 0
M  V30 2171 C 209.991 -0.926468 1.70676 0
M  V30 2172 O 209.266 -1.65665 1.01908 0
M  V30 2173 C 209.549 0.81633 3.50725 0
M  V30 2174 C 209.402 2.31907 3.85408 0
M  V30 2175 C 210.721 0.302038 4.39062 0
M  V30 2176 H 207.84 0.19209 0.711527 0
M  V30 2177 H 210.482 1.12502 1.53112 0
M  V30 2178 H 208.632 0.305369 3.87298 0
M  V30 2179 H 210.304 2.89949 3.58786 0
M  V30 2180 H 208.547 2.78027 3.32992 0
M  V30 2181 H 209.218 2.47373 4.93468 0
M  V30 2182 H 211.694 0.739551 4.09475 0
M  V30 2183 H 210.57 0.535331 5.46283 0
M  V30 2184 H 210.831 -0.797216 4.34853 0
M  V30 2185 N 209.89 -1.43072 0.660911 0
M  V30 2186 C 211.138 -2.01323 0.177094 0
M  V30 2187 C 211.459 -1.5245 -1.2159 0
M  V30 2188 O 210.729 -0.740322 -1.81373 0
M  V30 2189 H 209.309 -0.744382 0.0624804 0
M  V30 2190 H 211.971 -1.75179 0.854305 0
M  V30 2191 H 211.067 -3.11649 0.167641 0
M  V30 2192 N 211.368 -0.403325 -1.52352 0
M  V30 2193 C 212.779 0.0675782 -1.86578 0
M  V30 2194 C 213.13 1.44941 -1.32236 0
M  V30 2195 O 212.255 2.06112 -0.659307 0
M  V30 2196 C 212.85 0.129404 -3.38553 0
M  V30 2197 C 211.409 0.544629 -3.72439 0
M  V30 2198 C 210.556 -0.284551 -2.75836 0
M  V30 2199 H 213.507 -0.620631 -1.46061 0
M  V30 2200 H 213.528 0.94581 -3.68558 0
M  V30 2201 H 213.04 -0.87645 -3.78074 0
M  V30 2202 H 211.141 1.55734 -3.38493 0
M  V30 2203 H 211.254 0.293046 -4.78203 0
M  V30 2204 H 209.618 0.252258 -2.53448 0
M  V30 2205 H 210.401 -1.28865 -3.18196 0
M  V30 2206 N 212.846 1.57033 -0.133567 0
M  V30 2207 C 213.793 2.16074 0.811208 0
M  V30 2208 C 214.763 1.08979 1.2535 0
M  V30 2209 O 215.948 1.36958 1.32843 0
M  V30 2210 C 213.088 2.77595 2.05024 0
M  V30 2211 C 212.201 3.99042 1.65498 0
M  V30 2212 C 211.336 4.48603 2.84479 0
M  V30 2213 C 210.375 5.62547 2.41262 0
M  V30 2214 N 209.512 6.06787 3.53206 0
M  V30 2215 H 214.352 2.96477 0.300906 0
M  V30 2216 H 211.889 1.46462 0.136822 0
M  V30 2217 H 213.847 3.11402 2.77642 0
M  V30 2218 H 212.477 1.99859 2.53488 0
M  V30 2219 H 211.529 3.71302 0.826981 0
M  V30 2220 H 212.841 4.81629 1.29748 0
M  V30 2221 H 211.995 4.84395 3.65303 0
M  V30 2222 H 210.734 3.64995 3.23465 0
M  V30 2223 H 209.739 5.26345 1.58874 0
M  V30 2224 H 210.964 6.47931 2.03377 0
M  V30 2225 H 208.91 5.26117 3.91838 0
M  V30 2226 H 208.827 6.84266 3.21427 0
M  V30 2227 H 210.095 6.4722 4.34427 0
M  V30 2228 N 214.325 -0.140222 1.56975 0
M  V30 2229 C 215.258 -1.20266 1.93936 0
M  V30 2230 C 216.236 -1.41212 0.806099 0
M  V30 2231 O 217.42 -1.55713 1.06234 0
M  V30 2232 C 214.547 -2.56037 2.21726 0
M  V30 2233 C 213.593 -2.51646 3.44349 0
M  V30 2234 S 214.426 -1.97678 4.97678 0
M  V30 2235 C 215.582 -3.35165 5.28597 0
M  V30 2236 H 215.815 -0.887358 2.83749 0
M  V30 2237 H 213.348 -0.346119 1.50471 0
M  V30 2238 H 215.306 -3.34167 2.38416 0
M  V30 2239 H 213.967 -2.84755 1.32566 0
M  V30 2240 H 213.16 -3.51608 3.61092 0
M  V30 2241 H 212.762 -1.81628 3.26936 0
M  V30 2242 H 215.054 -4.31302 5.2248 0
M  V30 2243 H 215.997 -3.23269 6.30002 0
M  V30 2244 H 216.405 -3.32614 4.56101 0
M  V30 2245 N 215.803 -1.52179 -0.40978 0
M  V30 2246 C 217.052 -1.65434 -1.15388 0
M  V30 2247 C 217.365 -0.390056 -1.91671 0
M  V30 2248 O 218.571 -0.402399 -2.68501 0
M  V30 2249 C 217.027 -2.92279 -2.10003 0
M  V30 2250 C 216.635 -4.25813 -1.39239 0
M  V30 2251 C 218.379 -3.14897 -2.84675 0
M  V30 2252 C 216.286 -5.43782 -2.32498 0
M  V30 2253 H 215.216 -0.616267 -0.434432 0
M  V30 2254 H 217.867 -1.78666 -0.418401 0
M  V30 2255 H 216.249 -2.72744 -2.871 0
M  V30 2256 H 217.423 -4.55828 -0.675099 0
M  V30 2257 H 215.738 -4.09292 -0.766097 0
M  V30 2258 H 218.335 -4.0021 -3.54593 0
M  V30 2259 H 218.678 -2.29103 -3.47588 0
M  V30 2260 H 219.211 -3.34901 -2.14677 0
M  V30 2261 H 215.95 -6.3192 -1.74233 0
M  V30 2262 H 215.47 -5.18106 -3.02201 0
M  V30 2263 H 217.149 -5.76834 -2.93038 0
M  V30 2264 N 217.281 0.66697 -1.42791 0
M  V30 2265 C 218.509 1.45505 -1.47091 0
M  V30 2266 C 218.924 1.8861 -0.0845873 0
M  V30 2267 O 218.281 1.58632 0.90234 0
M  V30 2268 C 218.332 2.69906 -2.40485 0
M  V30 2269 O 218.053 2.28608 -3.73725 0
M  V30 2270 C 219.554 3.63396 -2.53886 0
M  V30 2271 H 216.774 0.447459 -0.500022 0
M  V30 2272 H 219.318 0.818866 -1.8739 0
M  V30 2273 H 217.473 3.29696 -2.03419 0
M  V30 2274 H 217.887 3.08997 -4.23817 0
M  V30 2275 H 219.361 4.47387 -3.2334 0
M  V30 2276 H 219.838 4.09824 -1.57927 0
M  V30 2277 H 220.444 3.09495 -2.91706 0
M  V30 2278 N 218.759 1.29093 0.90403 0
M  V30 2279 C 220.175 1.07011 1.1841 0
M  V30 2280 C 220.375 -0.181358 2.00682 0
M  V30 2281 O 219.431 -0.880331 2.36657 0
M  V30 2282 C 220.744 2.32311 1.90924 0
M  V30 2283 C 222.292 2.37587 2.03768 0
M  V30 2284 C 222.767 3.62679 2.79693 0
M  V30 2285 N 224.258 3.63376 2.87249 0
M  V30 2286 C 224.993 4.56848 3.46522 0
M  V30 2287 N 224.489 5.60648 4.06996 0
M  V30 2288 N 226.282 4.44426 3.44154 0
M  V30 2289 H 218.433 2.09412 0.354993 0
M  V30 2290 H 220.696 0.922181 0.219742 0
M  V30 2291 H 220.402 3.23536 1.37905 0
M  V30 2292 H 220.276 2.39483 2.91424 0
M  V30 2293 H 222.663 1.46853 2.55965 0
M  V30 2294 H 222.744 2.34403 1.02415 0
M  V30 2295 H 222.388 4.53762 2.28173 0
M  V30 2296 H 222.318 3.63119 3.81381 0
M  V30 2297 H 224.809 2.88321 2.44293 0
M  V30 2298 H 225.122 6.28101 4.50232 0
M  V30 2299 H 223.467 5.64463 4.05471 0
M  V30 2300 H 226.658 3.62529 2.96126 0
M  V30 2301 H 226.831 5.17457 3.90054 0
M  V30 2302 N 220.237 -1.11381 1.11499 0
M  V30 2303 C 221.483 -1.83403 0.865512 0
M  V30 2304 C 221.816 -1.84459 -0.607329 0
M  V30 2305 O 221.091 -1.29811 -1.44842 0
M  V30 2306 C 221.374 -3.30552 1.42855 0
M  V30 2307 C 221.227 -3.37886 2.96906 0
M  V30 2308 C 222.546 -4.26643 1.08 0
M  V30 2309 H 219.665 -0.665879 0.31587 0
M  V30 2310 H 222.307 -1.30601 1.37998 0
M  V30 2311 H 220.457 -3.75648 0.990985 0
M  V30 2312 H 222.129 -3.01343 3.49271 0
M  V30 2313 H 220.372 -2.78088 3.32941 0
M  V30 2314 H 221.043 -4.41458 3.31389 0
M  V30 2315 H 223.519 -3.89729 1.45775 0
M  V30 2316 H 222.395 -5.27986 1.50072 0
M  V30 2317 H 222.656 -4.42099 -0.00915037 0
M  V30 2318 N 221.715 -0.905404 -1.28997 0
M  V30 2319 C 222.647 -0.344748 -2.26592 0
M  V30 2320 C 223.66 0.512135 -1.54535 0
M  V30 2321 O 224.849 0.328368 -1.75454 0
M  V30 2322 C 221.949 0.526587 -3.34784 0
M  V30 2323 C 221.122 -0.305871 -4.36329 0
M  V30 2324 C 220.181 0.499209 -5.23827 0
M  V30 2325 O 219.207 -0.0853004 -5.69136 0
M  V30 2326 N 220.409 1.80408 -5.51755 0
M  V30 2327 H 223.174 -1.18359 -2.75338 0
M  V30 2328 H 220.735 -0.770481 -1.42391 0
M  V30 2329 H 222.727 1.07171 -3.90252 0
M  V30 2330 H 221.297 1.26613 -2.85811 0
M  V30 2331 H 220.517 -1.0324 -3.80441 0
M  V30 2332 H 221.805 -0.875773 -5.01206 0
M  V30 2333 H 221.203 2.3016 -5.16762 0
M  V30 2334 H 219.76 2.29621 -6.10014 0
M  V30 2335 N 223.193 1.4272 -0.668489 0
M  V30 2336 C 224.156 2.292 0.00448567 0
M  V30 2337 C 225.156 1.43001 0.735339 0
M  V30 2338 O 226.346 1.64461 0.57429 0
M  V30 2339 C 223.478 3.25375 1.01705 0
M  V30 2340 H 224.671 2.90199 -0.756608 0
M  V30 2341 H 222.224 1.50254 -0.430506 0
M  V30 2342 H 222.959 2.69301 1.80686 0
M  V30 2343 H 222.744 3.88944 0.496463 0
M  V30 2344 H 224.234 3.90245 1.48655 0
M  V30 2345 N 224.671 0.411399 1.52136 0
M  V30 2346 C 225.917 -0.163888 2.02137 0
M  V30 2347 C 226.25 -1.44597 1.29636 0
M  V30 2348 O 225.525 -1.90272 0.403353 0
M  V30 2349 C 225.808 -0.40927 3.57767 0
M  V30 2350 C 225.661 0.889643 4.40914 0
M  V30 2351 C 226.98 -1.19042 4.23694 0
M  V30 2352 H 224.099 -0.0580896 0.734707 0
M  V30 2353 H 226.741 0.54531 1.82007 0
M  V30 2354 H 224.891 -1.0134 3.7505 0
M  V30 2355 H 226.563 1.52575 4.35337 0
M  V30 2356 H 224.806 1.50011 4.07037 0
M  V30 2357 H 225.477 0.672314 5.4789 0
M  V30 2358 H 227.953 -0.678942 4.10524 0
M  V30 2359 H 226.829 -1.33086 5.32522 0
M  V30 2360 H 227.09 -2.21166 3.82803 0
M  V30 2361 N 226.149 -1.5696 0.141893 0
M  V30 2362 C 227.112 -2.15316 -0.785587 0
M  V30 2363 C 228.112 -1.09366 -1.1788 0
M  V30 2364 O 229.302 -1.35031 -1.10056 0
M  V30 2365 C 226.434 -2.71211 -2.06537 0
M  V30 2366 H 227.627 -2.98608 -0.278041 0
M  V30 2367 H 225.18 -1.5593 -0.107519 0
M  V30 2368 H 225.915 -1.91571 -2.6167 0
M  V30 2369 H 225.7 -3.4872 -1.79268 0
M  V30 2370 H 227.19 -3.16189 -2.72789 0
M  V30 2371 N 227.627 0.131896 -1.57047 0
M  V30 2372 C 228.855 0.856461 -1.88341 0
M  V30 2373 C 229.27 1.74042 -0.731757 0
M  V30 2374 O 228.627 1.80051 0.297945 0
M  V30 2375 C 228.678 1.70064 -3.18999 0
M  V30 2376 O 228.399 0.852278 -4.2973 0
M  V30 2377 C 229.9 2.53148 -3.63911 0
M  V30 2378 H 227.12 0.246885 -0.62393 0
M  V30 2379 H 229.664 0.120152 -2.04147 0
M  V30 2380 H 227.819 2.38984 -3.04902 0
M  V30 2381 H 228.233 1.43329 -5.04537 0
M  V30 2382 H 229.707 3.07931 -4.58129 0
M  V30 2383 H 230.184 3.29901 -2.89935 0
M  V30 2384 H 230.79 1.89492 -3.80753 0
M  V30 2385 N 229.106 1.52395 0.401703 0
M  V30 2386 C 230.352 1.67065 1.14966 0
M  V30 2387 C 230.685 0.403052 1.89971 0
M  V30 2388 O 229.96 -0.598774 1.85054 0
M  V30 2389 C 230.243 2.8975 2.13815 0
M  V30 2390 C 230.096 4.26578 1.42658 0
M  V30 2391 C 231.415 3.07965 3.14397 0
M  V30 2392 H 228.534 0.607968 0.416587 0
M  V30 2393 H 231.176 1.84965 0.434511 0
M  V30 2394 H 229.326 2.74619 2.74803 0
M  V30 2395 H 230.998 4.53451 0.847329 0
M  V30 2396 H 229.241 4.27639 0.72849 0
M  V30 2397 H 229.912 5.08483 2.14823 0
M  V30 2398 H 232.388 3.22043 2.63491 0
M  V30 2399 H 231.264 3.95308 3.80819 0
M  V30 2400 H 231.525 2.21611 3.82545 0
M  V30 2401 N 230.584 -0.659388 1.43143 0
M  V30 2402 C 231.514 -1.78422 1.50625 0
M  V30 2403 C 232.495 -1.66216 0.361443 0
M  V30 2404 O 233.68 -1.85404 0.577834 0
M  V30 2405 C 230.81 -3.16815 1.42287 0
M  V30 2406 C 229.764 -3.43777 2.54954 0
M  V30 2407 C 229.09 -4.81905 2.31671 0
M  V30 2408 C 230.39 -3.39134 3.97222 0
M  V30 2409 H 232.084 -1.72417 2.44771 0
M  V30 2410 H 229.63 -0.828084 1.17808 0
M  V30 2411 H 231.583 -3.95253 1.46127 0
M  V30 2412 H 230.307 -3.23534 0.446435 0
M  V30 2413 H 228.966 -2.67707 2.50457 0
M  V30 2414 H 228.614 -4.85294 1.32284 0
M  V30 2415 H 228.314 -5.00906 3.07192 0
M  V30 2416 H 229.838 -5.62609 2.37284 0
M  V30 2417 H 231.252 -4.07518 4.03239 0
M  V30 2418 H 229.649 -3.69671 4.72719 0
M  V30 2419 H 230.719 -2.37426 4.22797 0
M  V30 2420 N 232.062 -1.29571 -0.897171 0
M  V30 2421 C 233.025 -1.14913 -1.98312 0
M  V30 2422 C 234.025 -0.0838629 -1.60581 0
M  V30 2423 O 235.215 -0.331006 -1.71026 0
M  V30 2424 C 232.347 -0.757835 -3.3237 0
M  V30 2425 H 233.54 -2.11377 -2.12743 0
M  V30 2426 H 231.093 -1.12793 -1.08201 0
M  V30 2427 H 231.828 0.206837 -3.2364 0
M  V30 2428 H 231.613 -1.52755 -3.61121 0
M  V30 2429 H 233.103 -0.678408 -4.12053 0
M  V30 2430 N 233.54 1.10788 -1.12088 0
M  V30 2431 C 234.47 2.19083 -0.807755 0
M  V30 2432 C 235.451 1.6858 0.226859 0
M  V30 2433 O 236.636 1.93997 0.0888475 0
M  V30 2434 C 233.766 3.46344 -0.257576 0
M  V30 2435 C 232.72 4.101 -1.22483 0
M  V30 2436 C 232.046 5.32016 -0.535052 0
M  V30 2437 C 233.346 4.54236 -2.57811 0
M  V30 2438 H 235.04 2.45534 -1.71328 0
M  V30 2439 H 232.586 1.1801 -0.825205 0
M  V30 2440 H 234.539 4.21392 -0.0262679 0
M  V30 2441 H 233.263 3.19373 0.683278 0
M  V30 2442 H 231.922 3.37054 -1.44189 0
M  V30 2443 H 231.57 5.01319 0.410827 0
M  V30 2444 H 231.27 5.75625 -1.18024 0
M  V30 2445 H 232.794 6.09799 -0.312695 0
M  V30 2446 H 234.208 5.20575 -2.40155 0
M  V30 2447 H 232.605 5.08682 -3.18375 0
M  V30 2448 H 233.675 3.6734 -3.16528 0
M  V30 2449 N 235.018 0.912232 1.28515 0
M  V30 2450 C 236.267 0.540504 1.94323 0
M  V30 2451 C 236.58 -0.920044 1.72611 0
M  V30 2452 O 237.786 -1.39986 2.32629 0
M  V30 2453 C 236.242 0.915803 3.48053 0
M  V30 2454 C 235.85 2.39598 3.78546 0
M  V30 2455 C 237.594 0.614588 4.20027 0
M  V30 2456 C 235.501 2.71148 5.25578 0
M  V30 2457 H 234.431 0.198418 0.727424 0
M  V30 2458 H 237.082 1.11094 1.46049 0
M  V30 2459 H 235.464 0.274168 3.9505 0
M  V30 2460 H 236.638 3.08422 3.42364 0
M  V30 2461 H 234.953 2.66749 3.1974 0
M  V30 2462 H 237.55 0.827002 5.28266 0
M  V30 2463 H 237.893 -0.447531 4.13887 0
M  V30 2464 H 238.426 1.21462 3.78803 0
M  V30 2465 H 235.165 3.76207 5.36794 0
M  V30 2466 H 234.685 2.0696 5.62963 0
M  V30 2467 H 236.364 2.58072 5.93302 0
M  V30 2468 N 236.496 -1.42363 0.676048 0
M  V30 2469 C 237.907 -1.84649 0.275948 0
M  V30 2470 C 238.258 -1.56588 -1.18214 0
M  V30 2471 O 237.383 -1.02634 -1.90513 0
M  V30 2472 C 237.978 -3.35178 0.494053 0
M  V30 2473 C 236.537 -3.76109 0.148061 0
M  V30 2474 C 235.684 -2.65931 0.785891 0
M  V30 2475 H 238.635 -1.32192 0.878121 0
M  V30 2476 H 238.656 -3.79655 -0.25343 0
M  V30 2477 H 238.168 -3.55571 1.55535 0
M  V30 2478 H 236.269 -3.61323 -0.909742 0
M  V30 2479 H 236.382 -4.7546 0.589454 0
M  V30 2480 H 234.746 -2.53773 0.217113 0
M  V30 2481 H 235.529 -2.89146 1.85067 0
M  V30 2482 N 237.974 -0.419461 -1.51915 0
M  V30 2483 C 239.223 0.154346 -2.01109 0
M  V30 2484 C 239.536 1.45338 -1.30905 0
M  V30 2485 O 240.742 2.10906 -1.7097 0
M  V30 2486 C 239.198 0.325615 -3.58424 0
M  V30 2487 C 238.806 -0.961934 -4.37551 0
M  V30 2488 C 240.55 0.854155 -4.15818 0
M  V30 2489 C 238.457 -0.757287 -5.86531 0
M  V30 2490 H 237.387 0.0614563 -0.751491 0
M  V30 2491 H 240.038 -0.54649 -1.75173 0
M  V30 2492 H 238.42 1.08903 -3.80731 0
M  V30 2493 H 239.594 -1.7323 -4.26999 0
M  V30 2494 H 237.909 -1.41766 -3.91524 0
M  V30 2495 H 240.506 1.02346 -5.24814 0
M  V30 2496 H 240.849 1.83172 -3.73837 0
M  V30 2497 H 241.382 0.149528 -3.97519 0
M  V30 2498 H 238.121 -1.70671 -6.32892 0
M  V30 2499 H 237.641 -0.0264061 -5.99794 0
M  V30 2500 H 239.32 -0.403482 -6.45741 0
M  V30 2501 N 239.452 1.56882 -0.150215 0
M  V30 2502 C 240.698 1.96518 0.500834 0
M  V30 2503 C 241.031 1.03527 1.64304 0
M  V30 2504 O 240.306 0.0782751 1.94342 0
M  V30 2505 C 240.589 3.45822 1.00395 0
M  V30 2506 C 240.442 4.49591 -0.136983 0
M  V30 2507 C 241.761 3.97704 1.88467 0
M  V30 2508 H 238.88 0.714535 0.18058 0
M  V30 2509 H 241.522 1.88577 -0.232091 0
M  V30 2510 H 239.672 3.5272 1.62851 0
M  V30 2511 H 241.344 4.5477 -0.77343 0
M  V30 2512 H 239.587 4.26441 -0.795652 0
M  V30 2513 H 240.258 5.51402 0.256815 0
M  V30 2514 H 242.734 3.93304 1.35834 0
M  V30 2515 H 241.61 5.0263 2.20578 0
M  V30 2516 H 241.871 3.40252 2.82279 0
M  V30 2517 N 240.93 -0.123565 1.57115 0
M  V30 2518 C 242.178 -0.83051 1.84247 0
M  V30 2519 C 242.499 -1.80629 0.73471 0
M  V30 2520 O 241.769 -1.94403 -0.241688 0
M  V30 2521 H 240.349 -0.309694 0.679778 0
M  V30 2522 H 243.011 -0.111976 1.94578 0
M  V30 2523 H 242.107 -1.37852 2.80006 0
M  V30 2524 N 242.408 -1.52605 -0.393616 0
M  V30 2525 C 243.657 -1.66649 -1.13627 0
M  V30 2526 C 243.97 -0.410364 -1.91247 0
M  V30 2527 O 245.176 -0.430854 -2.68059 0
M  V30 2528 C 243.632 -2.9449 -2.06891 0
M  V30 2529 C 243.24 -4.27266 -1.34714 0
M  V30 2530 C 244.984 -3.17899 -2.81319 0
M  V30 2531 C 242.891 -5.46217 -2.26717 0
M  V30 2532 H 241.821 -0.62084 -0.427871 0
M  V30 2533 H 244.472 -1.791 -0.399428 0
M  V30 2534 H 242.854 -2.75774 -2.84191 0
M  V30 2535 H 244.028 -4.56518 -0.626714 0
M  V30 2536 H 242.343 -4.10081 -0.722643 0
M  V30 2537 H 244.94 -4.03949 -3.50328 0
M  V30 2538 H 245.283 -2.32777 -3.45139 0
M  V30 2539 H 245.816 -3.37159 -2.11113 0
M  V30 2540 H 242.555 -6.33733 -1.67521 0
M  V30 2541 H 242.075 -5.21283 -2.96689 0
M  V30 2542 H 243.754 -5.7991 -2.86903 0
M  V30 2543 N 243.887 0.651787 -1.4349 0
M  V30 2544 C 244.85 1.74647 -1.48429 0
M  V30 2545 C 245.85 1.56513 -0.368817 0
M  V30 2546 O 247.04 1.62385 -0.630623 0
M  V30 2547 C 244.172 3.13533 -1.33827 0
M  V30 2548 H 245.365 1.71649 -2.4592 0
M  V30 2549 H 242.918 0.863573 -1.30277 0
M  V30 2550 H 243.653 3.22142 -0.37349 0
M  V30 2551 H 243.438 3.28101 -2.14691 0
M  V30 2552 H 244.928 3.93356 -1.40218 0
M  V30 2553 N 245.365 1.30045 0.890287 0
M  V30 2554 C 246.611 1.18737 1.64406 0
M  V30 2555 C 246.944 -0.258525 1.92472 0
M  V30 2556 O 246.219 -1.18562 1.54186 0
M  V30 2557 C 246.502 2.01087 2.98724 0
M  V30 2558 C 246.355 3.53867 2.77665 0
M  V30 2559 C 247.674 1.84457 3.9958 0
M  V30 2560 H 244.793 0.432698 0.596608 0
M  V30 2561 H 247.435 1.5962 1.0306 0
M  V30 2562 H 245.585 1.66349 3.51084 0
M  V30 2563 H 247.257 3.98637 2.32133 0
M  V30 2564 H 245.5 3.78318 2.12269 0
M  V30 2565 H 246.171 4.06772 3.7315 0
M  V30 2566 H 248.647 2.14817 3.56361 0
M  V30 2567 H 247.523 2.44411 4.91482 0
M  V30 2568 H 247.784 0.802276 4.3476 0
M  V30 2569 N 246.843 -1.10192 1.12674 0
M  V30 2570 C 248.09 -1.82205 0.883606 0
M  V30 2571 C 248.418 -1.8532 -0.590492 0
M  V30 2572 O 247.673 -1.31137 -1.45264 0
M  V30 2573 C 247.972 -3.28552 1.4067 0
M  V30 2574 C 247.638 -3.45582 2.89627 0
M  V30 2575 C 246.3 -3.49937 3.30299 0
M  V30 2576 C 248.652 -3.50768 3.85501 0
M  V30 2577 C 245.98 -3.57049 4.65546 0
M  V30 2578 C 248.332 -3.59414 5.20581 0
M  V30 2579 C 246.996 -3.62034 5.60792 0
M  V30 2580 H 246.266 -0.666735 0.323334 0
M  V30 2581 H 248.913 -1.29868 1.40736 0
M  V30 2582 H 247.218 -3.83473 0.80347 0
M  V30 2583 H 248.915 -3.82788 1.19475 0
M  V30 2584 H 245.505 -3.42871 2.57172 0
M  V30 2585 H 249.689 -3.46651 3.55171 0
M  V30 2586 H 244.945 -3.57361 4.96088 0
M  V30 2587 H 249.119 -3.62371 5.94693 0
M  V30 2588 H 246.746 -3.67298 6.6558 0
M  V30 2589 N 248.321 -0.919034 -1.28029 0
M  V30 2590 C 249.569 -0.553838 -1.94363 0
M  V30 2591 C 249.89 0.906357 -1.72656 0
M  V30 2592 O 249.16 1.64143 -1.0693 0
M  V30 2593 H 247.74 -0.201834 -0.719216 0
M  V30 2594 H 250.402 -1.16954 -1.55909 0
M  V30 2595 H 249.498 -0.752758 -3.02886 0
M  V30 2596 N 249.799 1.42003 -0.683588 0
M  V30 2597 C 251.045 2.02223 -0.218536 0
M  V30 2598 C 251.4 1.53126 1.16492 0
M  V30 2599 O 250.693 0.727459 1.77253 0
M  V30 2600 C 250.887 3.56827 -0.202357 0
M  V30 2601 C 250.716 4.20928 -1.5827 0
M  V30 2602 C 249.486 4.5573 -2.18262 0
M  V30 2603 C 251.684 4.47933 -2.52706 0
M  V30 2604 N 249.666 5.05056 -3.48986 0
M  V30 2605 C 251.037 4.98906 -3.68094 0
M  V30 2606 C 253.092 4.29931 -2.51125 0
M  V30 2607 C 251.795 5.33768 -4.82166 0
M  V30 2608 C 253.821 4.65875 -3.643 0
M  V30 2609 C 253.183 5.17008 -4.78417 0
M  V30 2610 H 249.282 0.771931 -0.125088 0
M  V30 2611 H 251.866 1.72729 -0.898479 0
M  V30 2612 H 250.037 3.85819 0.447029 0
M  V30 2613 H 251.769 4.03755 0.276399 0
M  V30 2614 H 248.524 4.41781 -1.70665 0
M  V30 2615 H 248.948 5.34139 -4.15962 0
M  V30 2616 H 253.59 3.89647 -1.6412 0
M  V30 2617 H 251.308 5.72981 -5.6984 0
M  V30 2618 H 254.894 4.53615 -3.64314 0
M  V30 2619 H 253.774 5.44301 -5.64541 0
M  V30 2620 N 251.277 0.427512 1.51691 0
M  V30 2621 C 252.524 -0.142229 2.02 0
M  V30 2622 C 252.852 -1.43566 1.31221 0
M  V30 2623 O 252.107 -1.91298 0.412744 0
M  V30 2624 C 252.406 -0.418249 3.54944 0
M  V30 2625 C 252.072 0.788187 4.43958 0
M  V30 2626 C 250.734 1.11906 4.68007 0
M  V30 2627 C 253.086 1.59347 4.96244 0
M  V30 2628 C 250.414 2.25608 5.41588 0
M  V30 2629 C 252.766 2.7214 5.71072 0
M  V30 2630 C 251.43 3.05692 5.93387 0
M  V30 2631 H 250.7 -0.0520451 0.73917 0
M  V30 2632 H 253.347 0.572697 1.82736 0
M  V30 2633 H 251.652 -1.21496 3.72486 0
M  V30 2634 H 253.349 -0.872339 3.91397 0
M  V30 2635 H 249.939 0.520344 4.2543 0
M  V30 2636 H 254.123 1.35106 4.77556 0
M  V30 2637 H 249.379 2.51929 5.57083 0
M  V30 2638 H 253.553 3.34914 6.10578 0
M  V30 2639 H 251.18 3.9391 6.50184 0
M  V30 2640 N 252.755 -1.56801 0.158532 0
M  V30 2641 C 254.001 -1.97559 -0.483957 0
M  V30 2642 C 254.356 -1.04239 -1.61716 0
M  V30 2643 O 253.649 -0.079603 -1.91435 0
M  V30 2644 C 253.843 -3.4235 -1.02623 0
M  V30 2645 C 253.672 -4.49669 0.0528929 0
M  V30 2646 C 252.442 -5.02838 0.498234 0
M  V30 2647 C 254.64 -5.0725 0.848616 0
M  V30 2648 N 252.622 -5.93775 1.559 0
M  V30 2649 C 253.993 -5.94506 1.7596 0
M  V30 2650 C 256.048 -4.89788 0.895121 0
M  V30 2651 C 254.751 -6.66169 2.71314 0
M  V30 2652 C 256.777 -5.62161 1.83654 0
M  V30 2653 C 256.139 -6.49134 2.73503 0
M  V30 2654 H 252.238 -0.768332 -0.145566 0
M  V30 2655 H 254.822 -1.93012 0.255799 0
M  V30 2656 H 252.993 -3.47467 -1.73555 0
M  V30 2657 H 254.725 -3.70145 -1.63629 0
M  V30 2658 H 251.48 -4.73498 0.0983222 0
M  V30 2659 H 251.904 -6.43948 2.08949 0
M  V30 2660 H 256.546 -4.22255 0.21453 0
M  V30 2661 H 254.264 -7.32923 3.40367 0
M  V30 2662 H 257.85 -5.5064 1.87847 0
M  V30 2663 H 256.73 -7.04153 3.45163 0
M  V30 2664 N 254.233 0.115231 -1.57178 0
M  V30 2665 C 255.48 0.822351 -1.8505 0
M  V30 2666 C 255.808 1.79701 -0.744168 0
M  V30 2667 O 255.063 1.93909 0.26414 0
M  V30 2668 C 255.362 1.60324 -3.19423 0
M  V30 2669 C 255.028 0.772536 -4.44233 0
M  V30 2670 C 253.69 0.543468 -4.78121 0
M  V30 2671 C 256.042 0.193746 -5.2084 0
M  V30 2672 C 253.37 -0.274583 -5.86057 0
M  V30 2673 C 255.722 -0.611517 -6.29637 0
M  V30 2674 C 254.386 -0.850867 -6.62055 0
M  V30 2675 H 253.656 0.30092 -0.677147 0
M  V30 2676 H 256.303 0.0845802 -1.91313 0
M  V30 2677 H 254.608 2.41203 -3.08753 0
M  V30 2678 H 256.305 2.1544 -3.38211 0
M  V30 2679 H 252.895 0.96117 -4.17683 0
M  V30 2680 H 257.079 0.357926 -4.95008 0
M  V30 2681 H 252.335 -0.469206 -6.09597 0
M  V30 2682 H 256.509 -1.06697 -6.88178 0
M  V30 2683 H 254.136 -1.48657 -7.45523 0
M  V30 2684 N 255.711 1.52812 0.385517 0
M  V30 2685 C 257.127 1.4214 0.725829 0
M  V30 2686 C 257.327 0.544589 1.94001 0
M  V30 2687 O 256.383 0.0193693 2.52493 0
M  V30 2688 C 257.696 2.85042 0.957668 0
M  V30 2689 C 259.244 2.94543 1.05892 0
M  V30 2690 C 259.719 4.38464 1.32337 0
M  V30 2691 N 261.21 4.41804 1.39151 0
M  V30 2692 C 261.945 5.5025 1.61285 0
M  V30 2693 N 261.441 6.68775 1.80866 0
M  V30 2694 N 263.234 5.37798 1.63492 0
M  V30 2695 H 255.385 2.08338 -0.413383 0
M  V30 2696 H 257.648 0.940016 -0.122775 0
M  V30 2697 H 257.354 3.51431 0.137568 0
M  V30 2698 H 257.228 3.27505 1.87137 0
M  V30 2699 H 259.615 2.28321 1.86959 0
M  V30 2700 H 259.696 2.55504 0.123057 0
M  V30 2701 H 259.34 5.05254 0.517793 0
M  V30 2702 H 259.27 4.75059 2.27214 0
M  V30 2703 H 261.761 3.56377 1.25713 0
M  V30 2704 H 262.074 7.47197 1.97271 0
M  V30 2705 H 260.419 6.71797 1.78083 0
M  V30 2706 H 263.61 4.44171 1.47749 0
M  V30 2707 H 263.783 6.22382 1.80402 0
M  V30 2708 N 257.189 -0.644168 1.43834 0
M  V30 2709 C 258.437 -1.40117 1.45642 0
M  V30 2710 C 258.758 -1.94814 0.0852413 0
M  V30 2711 O 258.028 -1.74988 -0.880688 0
M  V30 2712 H 256.608 -0.52005 0.536243 0
M  V30 2713 H 259.27 -0.7591 1.7951 0
M  V30 2714 H 258.366 -2.23902 2.17427 0
M  V30 2715 N 258.668 -1.30515 -0.883378 0
M  V30 2716 C 259.578 -1.18959 -2.02203 0
M  V30 2717 C 260.594 -0.109172 -1.73657 0
M  V30 2718 O 261.77 -0.324413 -1.9877 0
M  V30 2719 C 258.835 -0.883871 -3.35244 0
M  V30 2720 C 257.896 -2.04982 -3.77201 0
M  V30 2721 C 257.129 -1.75859 -5.03894 0
M  V30 2722 O 257.352 -0.687276 -5.66244 0
M  V30 2723 O 256.286 -2.61146 -5.42297 0
M  V30 2724 H 260.112 -2.14616 -2.1488 0
M  V30 2725 H 257.697 -1.10124 -1.0096 0
M  V30 2726 H 259.579 -0.728644 -4.15053 0
M  V30 2727 H 258.254 0.0427798 -3.23672 0
M  V30 2728 H 257.161 -2.26038 -2.9809 0
M  V30 2729 H 258.494 -2.95825 -3.93381 0
M  V30 2730 N 260.146 1.09593 -1.13257 0
M  V30 2731 C 261.374 1.855 -0.916378 0
M  V30 2732 C 261.789 1.81069 0.534738 0
M  V30 2733 O 261.146 1.20562 1.37007 0
M  V30 2734 C 261.197 3.33546 -1.39388 0
M  V30 2735 O 260.918 3.37927 -2.78813 0
M  V30 2736 C 262.419 4.26299 -1.21588 0
M  V30 2737 H 259.639 0.585991 -0.326887 0
M  V30 2738 H 262.183 1.38488 -1.5047 0
M  V30 2739 H 260.338 3.77992 -0.848597 0
M  V30 2740 H 260.752 4.30254 -2.9997 0
M  V30 2741 H 262.226 5.28341 -1.59876 0
M  V30 2742 H 262.703 4.38918 -0.157376 0
M  V30 2743 H 263.309 3.87668 -1.7491 0
M  V30 2744 N 261.624 0.925811 1.2754 0
M  V30 2745 C 262.854 0.580666 1.98272 0
M  V30 2746 C 263.262 -0.845207 1.69272 0
M  V30 2747 O 262.605 -1.57306 0.948707 0
M  V30 2748 C 262.667 0.724418 3.52126 0
M  V30 2749 C 262.331 2.12206 4.04744 0
M  V30 2750 C 263.328 3.09604 4.17662 0
M  V30 2751 C 261.013 2.4385 4.39138 0
M  V30 2752 C 263.007 4.36755 4.64246 0
M  V30 2753 C 260.694 3.71237 4.85414 0
M  V30 2754 C 261.692 4.67503 4.97926 0
M  V30 2755 O 261.38 5.92624 5.43187 0
M  V30 2756 H 261.112 0.218987 0.639547 0
M  V30 2757 H 263.666 1.24452 1.63404 0
M  V30 2758 H 261.896 0.0034663 3.867 0
M  V30 2759 H 263.585 0.384607 4.04074 0
M  V30 2760 H 264.351 2.86478 3.91351 0
M  V30 2761 H 260.23 1.69665 4.28643 0
M  V30 2762 H 263.774 5.11898 4.73927 0
M  V30 2763 H 259.671 3.94182 5.11166 0
M  V30 2764 H 260.439 5.95585 5.61445 0
M  V30 2765 N 263.102 -1.41638 0.69111 0
M  V30 2766 C 264.035 -2.28183 -0.0274913 0
M  V30 2767 C 265.013 -1.41984 -0.792424 0
M  V30 2768 O 266.197 -1.71415 -0.784169 0
M  V30 2769 C 263.324 -3.22135 -1.04628 0
M  V30 2770 C 262.37 -4.24848 -0.375037 0
M  V30 2771 S 263.203 -5.28231 0.879321 0
M  V30 2772 C 264.359 -6.25748 -0.137983 0
M  V30 2773 H 264.592 -2.88782 0.706553 0
M  V30 2774 H 262.125 -1.46709 0.481222 0
M  V30 2775 H 264.083 -3.76797 -1.62894 0
M  V30 2776 H 262.744 -2.6064 -1.75287 0
M  V30 2777 H 261.937 -4.90837 -1.14433 0
M  V30 2778 H 261.539 -3.73758 0.134434 0
M  V30 2779 H 263.831 -6.70188 -0.992659 0
M  V30 2780 H 264.774 -7.06417 0.487867 0
M  V30 2781 H 265.182 -5.62363 -0.490762 0
M  V30 2782 N 264.58 -0.43555 -1.51462 0
M  V30 2783 C 265.543 0.365137 -2.26273 0
M  V30 2784 C 266.543 0.951227 -1.29647 0
M  V30 2785 O 267.733 0.825958 -1.53374 0
M  V30 2786 C 264.865 1.51645 -3.05314 0
M  V30 2787 H 266.058 -0.290474 -2.9849 0
M  V30 2788 H 263.611 -0.188676 -1.55157 0
M  V30 2789 H 264.346 2.20816 -2.3751 0
M  V30 2790 H 264.131 1.10238 -3.76284 0
M  V30 2791 H 265.621 2.08218 -3.61987 0
M  V30 2792 N 266.058 1.56714 -0.166846 0
M  V30 2793 C 267.021 2.16539 0.751232 0
M  V30 2794 C 268.021 1.11228 1.16125 0
M  V30 2795 O 269.211 1.36765 1.07894 0
M  V30 2796 C 266.343 2.74462 2.02196 0
M  V30 2797 H 267.536 2.99013 0.230499 0
M  V30 2798 H 265.089 1.56081 0.0826982 0
M  V30 2799 H 265.824 1.95709 2.58589 0
M  V30 2800 H 265.609 3.51527 1.73698 0
M  V30 2801 H 267.099 3.20489 2.67725 0
M  V30 2802 N 267.536 -0.106894 1.57237 0
M  V30 2803 C 268.782 -0.808678 1.86633 0
M  V30 2804 C 269.137 -1.76917 0.756178 0
M  V30 2805 O 268.43 -1.90055 -0.242834 0
M  V30 2806 C 268.624 -1.58628 3.20268 0
M  V30 2807 C 268.453 -0.702592 4.44178 0
M  V30 2808 C 267.223 -0.352808 5.04067 0
M  V30 2809 C 269.421 -0.0148031 5.14298 0
M  V30 2810 N 267.403 0.540279 6.11518 0
M  V30 2811 C 268.774 0.736809 6.15606 0
M  V30 2812 C 270.829 0.0603524 4.97863 0
M  V30 2813 C 269.532 1.55654 7.02257 0
M  V30 2814 C 271.558 0.866942 5.85011 0
M  V30 2815 C 270.92 1.60671 6.85831 0
M  V30 2816 H 267.019 -0.27246 0.733001 0
M  V30 2817 H 269.603 -0.0717858 1.94568 0
M  V30 2818 H 267.774 -2.29413 3.13408 0
M  V30 2819 H 269.506 -2.23434 3.3743 0
M  V30 2820 H 266.261 -0.697802 4.68431 0
M  V30 2821 H 266.685 0.979029 6.69884 0
M  V30 2822 H 271.327 -0.497236 4.19866 0
M  V30 2823 H 269.045 2.12524 7.79653 0
M  V30 2824 H 272.631 0.927612 5.74358 0
M  V30 2825 H 271.511 2.2208 7.52097 0
M  V30 2826 N 269.014 -1.53014 -0.377408 0
M  V30 2827 C 269.962 -1.7927 -1.48206 0
M  V30 2828 C 270.956 -0.661195 -1.55963 0
M  V30 2829 O 272.162 -0.843908 -1.58991 0
M  V30 2830 H 268.537 -0.567425 -0.493491 0
M  V30 2831 H 270.508 -2.71753 -1.2326 0
M  V30 2832 C 269.257 -1.98894 -2.85196 0
M  V30 2833 H 268.58 -2.85395 -2.79981 0
M  V30 2834 H 270.02 -2.21249 -3.61698 0
M  V30 2835 C 268.479 -0.764691 -3.28107 0
M  V30 2836 O 269.009 0.0523226 -4.01666 0
M  V30 2837 N 267.215 -0.591493 -2.84517 0
M  V30 2838 H 266.762 -1.25749 -2.24822 0
M  V30 2839 H 266.72 0.226253 -3.13585 0
M  V30 2840 N 270.492 0.636531 -1.44174 0
M  V30 2841 C 271.738 1.39826 -1.4689 0
M  V30 2842 C 272.071 1.93947 -0.0990585 0
M  V30 2843 O 271.346 1.73325 0.882544 0
M  V30 2844 C 271.629 2.56751 -2.5249 0
M  V30 2845 C 271.482 2.08014 -3.98811 0
M  V30 2846 C 272.801 3.58946 -2.54649 0
M  V30 2847 H 269.92 0.507075 -0.53483 0
M  V30 2848 H 272.562 0.720188 -1.75822 0
M  V30 2849 H 270.712 3.14597 -2.2795 0
M  V30 2850 H 272.384 1.5504 -4.34466 0
M  V30 2851 H 270.627 1.39242 -4.10846 0
M  V30 2852 H 271.298 2.92169 -4.68339 0
M  V30 2853 H 273.774 3.1089 -2.76563 0
M  V30 2854 H 272.65 4.38286 -3.3045 0
M  V30 2855 H 272.911 4.12655 -1.58646 0
M  V30 2856 N 271.97 1.30982 0.876444 0
M  V30 2857 C 273.195 1.23373 1.66715 0
M  V30 2858 C 273.62 -0.19885 1.87046 0
M  V30 2859 O 272.978 -1.1427 1.40756 0
M  V30 2860 C 273.026 1.97644 3.01611 0
M  V30 2861 O 272.13 1.30935 3.91062 0
M  V30 2862 H 271.471 0.426279 0.509099 0
M  V30 2863 H 274.001 1.72944 1.09323 0
M  V30 2864 H 274.011 2.06992 3.51594 0
M  V30 2865 H 272.686 3.01829 2.86133 0
M  V30 2866 H 271.263 1.29996 3.49507 0
M  V30 2867 N 273.449 -1.08991 1.13837 0
M  V30 2868 C 274.697 -1.80899 0.901098 0
M  V30 2869 C 275.018 -1.86356 -0.574134 0
M  V30 2870 O 274.288 -1.35235 -1.41733 0
M  V30 2871 H 272.868 -0.669966 0.330386 0
M  V30 2872 H 275.53 -1.318 1.43578 0
M  V30 2873 H 274.626 -2.83929 1.29578 0
M  V30 2874 N 274.927 -0.932562 -1.27047 0
M  V30 2875 C 275.857 -0.452902 -2.29066 0
M  V30 2876 C 276.838 0.489338 -1.62909 0
M  V30 2877 O 278.023 0.393046 -1.90181 0
M  V30 2878 C 275.153 0.290698 -3.46081 0
M  V30 2879 C 274.107 -0.564168 -4.24265 0
M  V30 2880 C 273.433 0.308886 -5.33807 0
M  V30 2881 C 274.733 -1.83112 -4.89149 0
M  V30 2882 H 276.427 -1.30552 -2.69437 0
M  V30 2883 H 273.973 -0.629201 -1.29526 0
M  V30 2884 H 275.926 0.637233 -4.16554 0
M  V30 2885 H 274.65 1.17738 -3.0464 0
M  V30 2886 H 273.309 -0.893477 -3.55545 0
M  V30 2887 H 272.957 1.19467 -4.88607 0
M  V30 2888 H 272.657 -0.259633 -5.87026 0
M  V30 2889 H 274.181 0.650884 -6.07121 0
M  V30 2890 H 275.595 -1.55236 -5.51883 0
M  V30 2891 H 273.992 -2.34353 -5.52448 0
M  V30 2892 H 275.062 -2.54772 -4.12576 0
M  V30 2893 N 276.405 1.4127 -0.698611 0
M  V30 2894 C 277.653 2.00782 -0.230409 0
M  V30 2895 C 277.974 1.5562 1.17505 0
M  V30 2896 O 277.244 0.78815 1.79346 0
M  V30 2897 H 275.824 0.742464 -0.0821944 0
M  V30 2898 H 278.486 1.72852 -0.90045 0
M  V30 2899 H 277.582 3.11095 -0.25021 0
M  V30 2900 N 277.883 0.443576 1.51229 0
M  V30 2901 C 279.111 -0.11929 2.06556 0
M  V30 2902 C 279.526 -1.35921 1.31038 0
M  V30 2903 O 278.883 -1.78675 0.371704 0
M  V30 2904 C 278.934 -0.435228 3.5887 0
M  V30 2905 O 278.655 0.755486 4.31537 0
M  V30 2906 C 280.156 -1.04808 4.30732 0
M  V30 2907 H 277.376 -0.0051584 0.67098 0
M  V30 2908 H 279.92 0.624453 1.94733 0
M  V30 2909 H 278.075 -1.12887 3.70588 0
M  V30 2910 H 278.489 0.483491 5.22267 0
M  V30 2911 H 279.963 -1.2191 5.3837 0
M  V30 2912 H 280.44 -2.03081 3.89429 0
M  V30 2913 H 281.046 -0.393637 4.23474 0
M  V30 2914 N 279.361 -1.56624 0.175154 0
M  V30 2915 C 280.608 -1.96999 -0.468811 0
M  V30 2916 C 280.936 -1.06129 -1.62994 0
M  V30 2917 O 280.191 -0.0961771 -1.95464 0
M  V30 2918 C 280.49 -3.43419 -0.989864 0
M  V30 2919 C 280.156 -4.50866 0.0557687 0
M  V30 2920 C 278.818 -4.79975 0.343134 0
M  V30 2921 C 281.17 -5.15551 0.765308 0
M  V30 2922 C 278.498 -5.71066 1.34536 0
M  V30 2923 C 280.85 -6.07724 1.75654 0
M  V30 2924 C 279.514 -6.35199 2.05132 0
M  V30 2925 H 278.784 -0.720869 -0.17155 0
M  V30 2926 H 281.431 -1.89616 0.267924 0
M  V30 2927 H 279.736 -3.47772 -1.80449 0
M  V30 2928 H 281.433 -3.72002 -1.49719 0
M  V30 2929 H 278.023 -4.28229 -0.178381 0
M  V30 2930 H 282.207 -4.9317 0.556513 0
M  V30 2931 H 277.463 -5.90635 1.57988 0
M  V30 2932 H 281.637 -6.56912 2.31169 0
M  V30 2933 H 279.264 -7.05584 2.8294 0
M  V30 2934 N 280.839 0.0985539 -1.57292 0
M  V30 2935 C 282.087 0.801092 -1.85545 0
M  V30 2936 C 282.408 1.79438 -0.763353 0
M  V30 2937 O 281.678 1.94763 0.21073 0
M  V30 2938 H 280.258 0.29884 -0.684619 0
M  V30 2939 H 282.92 0.0810064 -1.94732 0
M  V30 2940 H 282.016 1.3338 -2.82163 0
M  V30 2941 N 282.317 1.53212 0.369288 0
M  V30 2942 C 283.28 1.7872 1.43498 0
M  V30 2943 C 284.28 0.657554 1.46741 0
M  V30 2944 O 285.47 0.925736 1.47566 0
M  V30 2945 C 282.602 1.90591 2.82645 0
M  V30 2946 H 283.795 2.73894 1.22156 0
M  V30 2947 H 281.348 1.44233 0.602203 0
M  V30 2948 H 282.083 0.974709 3.09306 0
M  V30 2949 H 281.868 2.72751 2.8169 0
M  V30 2950 H 283.358 2.11931 3.59826 0
M  V30 2951 N 283.795 -0.628877 1.44509 0
M  V30 2952 C 285.044 -1.38437 1.4669 0
M  V30 2953 C 285.357 -1.95322 0.104272 0
M  V30 2954 O 286.563 -2.715 0.00362163 0
M  V30 2955 C 285.019 -2.50659 2.5826 0
M  V30 2956 C 284.627 -2.00277 4.0074 0
M  V30 2957 C 286.371 -3.27844 2.69664 0
M  V30 2958 C 284.278 -3.09854 5.0373 0
M  V30 2959 H 283.208 -0.520245 0.545766 0
M  V30 2960 H 285.859 -0.676313 1.70582 0
M  V30 2961 H 284.241 -3.2405 2.27612 0
M  V30 2962 H 285.415 -1.33736 4.40966 0
M  V30 2963 H 283.73 -1.35901 3.93599 0
M  V30 2964 H 286.327 -4.09534 3.43781 0
M  V30 2965 H 286.67 -3.77471 1.75559 0
M  V30 2966 H 287.203 -2.61543 2.99733 0
M  V30 2967 H 283.942 -2.65168 5.99472 0
M  V30 2968 H 283.462 -3.7503 4.68095 0
M  V30 2969 H 285.141 -3.74592 5.27532 0
M  V30 2970 N 285.273 -1.31445 -0.869486 0
M  V30 2971 C 286.205 -1.14955 -1.98287 0
M  V30 2972 C 287.218 -0.0885037 -1.62559 0
M  V30 2973 O 288.407 -0.336044 -1.75308 0
M  V30 2974 C 285.507 -0.734255 -3.3085 0
M  V30 2975 C 284.68 -1.88042 -3.94917 0
M  V30 2976 C 283.739 -1.4511 -5.05796 0
M  V30 2977 O 282.765 -2.16082 -5.2659 0
M  V30 2978 N 283.967 -0.338763 -5.79511 0
M  V30 2979 H 286.732 -2.10856 -2.12979 0
M  V30 2980 H 284.293 -1.23786 -1.04349 0
M  V30 2981 H 286.285 -0.42975 -4.02412 0
M  V30 2982 H 284.855 0.133158 -3.12316 0
M  V30 2983 H 284.075 -2.35222 -3.1633 0
M  V30 2984 H 285.363 -2.6481 -4.34457 0
M  V30 2985 H 284.761 0.252274 -5.65137 0
M  V30 2986 H 283.318 -0.0937925 -6.51733 0
M  V30 2987 N 286.751 1.08385 -1.14413 0
M  V30 2988 C 287.976 1.85057 -0.936413 0
M  V30 2989 C 288.401 1.81055 0.509971 0
M  V30 2990 O 287.759 1.1958 1.36273 0
M  V30 2991 C 287.807 3.30505 -1.44217 0
M  V30 2992 O 286.911 4.07491 -0.634409 0
M  V30 2993 H 286.252 0.573425 -0.334784 0
M  V30 2994 H 288.782 1.36799 -1.52142 0
M  V30 2995 H 288.792 3.81348 -1.45043 0
M  V30 2996 H 287.467 3.32734 -2.49522 0
M  V30 2997 H 286.044 3.66368 -0.694902 0
M  V30 2998 N 288.23 0.939286 1.26551 0
M  V30 2999 C 289.458 0.602536 1.97932 0
M  V30 3000 C 289.873 -0.82206 1.69964 0
M  V30 3001 O 289.23 -1.54789 0.966784 0
M  V30 3002 C 289.281 0.832946 3.51773 0
M  V30 3003 O 289.002 2.20151 3.78768 0
M  V30 3004 C 290.503 0.506483 4.40397 0
M  V30 3005 H 287.723 0.227248 0.631347 0
M  V30 3006 H 290.267 1.25948 1.61113 0
M  V30 3007 H 288.422 0.222644 3.8676 0
M  V30 3008 H 288.836 2.26013 4.73306 0
M  V30 3009 H 290.31 0.718333 5.47306 0
M  V30 3010 H 290.787 -0.558451 4.35635 0
M  V30 3011 H 291.393 1.09543 4.10951 0
M  V30 3012 N 289.708 -1.40897 0.706093 0
M  V30 3013 C 290.638 -2.33418 0.0620085 0
M  V30 3014 C 291.619 -1.52385 -0.755827 0
M  V30 3015 O 292.804 -1.80886 -0.706674 0
M  V30 3016 C 289.934 -3.36293 -0.867445 0
M  V30 3017 C 288.888 -4.27716 -0.155932 0
M  V30 3018 C 288.214 -5.2105 -1.20046 0
M  V30 3019 C 289.514 -5.12944 0.984149 0
M  V30 3020 H 291.208 -2.87527 0.83477 0
M  V30 3021 H 288.754 -1.38249 0.402875 0
M  V30 3022 H 290.707 -3.99949 -1.32735 0
M  V30 3023 H 289.431 -2.80556 -1.67199 0
M  V30 3024 H 288.09 -3.65498 0.284047 0
M  V30 3025 H 287.738 -4.61624 -1.99781 0
M  V30 3026 H 287.438 -5.83056 -0.729328 0
M  V30 3027 H 288.962 -5.87584 -1.66066 0
M  V30 3028 H 290.376 -5.70109 0.604048 0
M  V30 3029 H 288.773 -5.83945 1.38304 0
M  V30 3030 H 289.843 -4.49485 1.81911 0
M  V30 3031 N 291.186 -0.45159 -1.50991 0
M  V30 3032 C 292.134 0.366864 -2.29689 0
M  V30 3033 C 293.128 1.00809 -1.36139 0
M  V30 3034 O 294.334 0.941427 -1.53418 0
M  V30 3035 H 290.709 0.137133 -0.739391 0
M  V30 3036 H 292.68 -0.317538 -2.96706 0
M  V30 3037 C 291.429 1.44751 -3.16137 0
M  V30 3038 H 290.752 0.963473 -3.88017 0
M  V30 3039 H 292.192 1.99315 -3.74232 0
M  V30 3040 C 290.651 2.43869 -2.32442 0
M  V30 3041 O 291.181 3.4872 -1.99392 0
M  V30 3042 N 289.387 2.15105 -1.95392 0
M  V30 3043 H 288.934 1.29866 -2.22469 0
M  V30 3044 H 288.892 2.81661 -1.39693 0
M  V30 3045 N 292.664 1.56529 -0.183458 0
M  V30 3046 C 293.91 1.97537 0.459036 0
M  V30 3047 C 294.243 1.06989 1.62071 0
M  V30 3048 O 293.518 0.11948 1.94133 0
M  V30 3049 C 293.801 3.47874 0.930368 0
M  V30 3050 C 293.654 4.492 -0.232317 0
M  V30 3051 C 294.973 4.01612 1.79989 0
M  V30 3052 H 292.092 0.718204 0.165383 0
M  V30 3053 H 294.734 1.88042 -0.272038 0
M  V30 3054 H 292.884 3.56095 1.55333 0
M  V30 3055 H 294.556 4.53027 -0.86972 0
M  V30 3056 H 292.799 4.24657 -0.885928 0
M  V30 3057 H 293.47 5.51823 0.139796 0
M  V30 3058 H 295.946 3.96097 1.27461 0
M  V30 3059 H 294.822 5.07195 2.09867 0
M  V30 3060 H 295.083 3.46163 2.74998 0
M  V30 3061 N 294.142 -0.090211 1.57342 0
M  V30 3062 C 295.37 -0.806224 1.90546 0
M  V30 3063 C 295.785 -1.72041 0.777644 0
M  V30 3064 O 295.142 -1.80778 -0.250103 0
M  V30 3065 C 295.193 -1.61546 3.23396 0
M  V30 3066 O 294.914 -0.738043 4.31839 0
M  V30 3067 C 296.415 -2.4341 3.70495 0
M  V30 3068 H 293.635 -0.230256 0.630257 0
M  V30 3069 H 296.179 -0.0659843 2.04394 0
M  V30 3070 H 294.334 -2.30816 3.11131 0
M  V30 3071 H 294.748 -1.29901 5.08159 0
M  V30 3072 H 296.222 -2.95676 4.66133 0
M  V30 3073 H 296.699 -3.22098 2.98579 0
M  V30 3074 H 297.305 -1.79331 3.85643 0
M  V30 3075 N 295.62 -1.53406 -0.361157 0
M  V30 3076 C 296.55 -1.83136 -1.44857 0
M  V30 3077 C 297.531 -0.685174 -1.5569 0
M  V30 3078 O 298.716 -0.93544 -1.70186 0
M  V30 3079 C 295.846 -2.02522 -2.82138 0
M  V30 3080 C 294.8 -3.18302 -2.86126 0
M  V30 3081 C 294.126 -3.22989 -4.26125 0
M  V30 3082 C 295.426 -4.56796 -2.53248 0
M  V30 3083 H 297.12 -2.74201 -1.20226 0
M  V30 3084 H 294.666 -1.31938 -0.576922 0
M  V30 3085 H 296.619 -2.21904 -3.58241 0
M  V30 3086 H 295.343 -1.08172 -3.08166 0
M  V30 3087 H 294.002 -2.98747 -2.12475 0
M  V30 3088 H 293.65 -2.26267 -4.49235 0
M  V30 3089 H 293.35 -4.00781 -4.29708 0
M  V30 3090 H 294.874 -3.44559 -5.04094 0
M  V30 3091 H 296.288 -4.7631 -3.19064 0
M  V30 3092 H 294.685 -5.36862 -2.68141 0
M  V30 3093 H 295.755 -4.61606 -1.48484 0
M  V30 3094 N 297.098 0.621204 -1.44841 0
M  V30 3095 C 298.344 1.38073 -1.49357 0
M  V30 3096 C 298.699 1.91973 -0.128115 0
M  V30 3097 O 297.992 1.71311 0.858087 0
M  V30 3098 C 298.186 2.55675 -2.4973 0
M  V30 3099 C 298.015 2.13289 -3.95901 0
M  V30 3100 C 296.785 2.001 -4.63991 0
M  V30 3101 C 298.983 1.7159 -4.84831 0
M  V30 3102 N 296.965 1.51381 -5.94943 0
M  V30 3103 C 298.336 1.34188 -6.05304 0
M  V30 3104 C 300.391 1.59059 -4.7181 0
M  V30 3105 C 299.094 0.855085 -7.14199 0
M  V30 3106 C 301.12 1.11784 -5.8074 0
M  V30 3107 C 300.482 0.753385 -7.0036 0
M  V30 3108 H 296.581 0.499675 -0.601539 0
M  V30 3109 H 299.165 0.711609 -1.8123 0
M  V30 3110 H 297.336 3.20201 -2.19832 0
M  V30 3111 H 299.068 3.22509 -2.4448 0
M  V30 3112 H 295.823 2.20863 -4.18947 0
M  V30 3113 H 296.247 1.29293 -6.64539 0
M  V30 3114 H 300.889 1.85865 -3.79755 0
M  V30 3115 H 298.607 0.574552 -8.06055 0
M  V30 3116 H 302.193 1.02533 -5.72694 0
M  V30 3117 H 301.073 0.393183 -7.83214 0
M  V30 3118 N 298.576 1.31904 0.862503 0
M  V30 3119 C 299.801 1.25135 1.65397 0
M  V30 3120 C 300.226 -0.179 1.87246 0
M  V30 3121 O 299.584 -1.1277 1.4196 0
M  V30 3122 C 299.632 2.00832 2.99498 0
M  V30 3123 O 298.736 1.35075 3.89652 0
M  V30 3124 H 298.077 0.431655 0.504549 0
M  V30 3125 H 300.607 1.74094 1.07483 0
M  V30 3126 H 300.617 2.10709 3.49379 0
M  V30 3127 H 299.292 3.04847 2.82916 0
M  V30 3128 H 297.869 1.33696 3.48109 0
M  V30 3129 N 300.054 -1.07777 1.14986 0
M  V30 3130 C 301.301 -1.8029 0.922056 0
M  V30 3131 C 301.629 -1.86531 -0.55105 0
M  V30 3132 O 300.884 -1.34189 -1.42449 0
M  V30 3133 C 301.183 -3.25495 1.47608 0
M  V30 3134 C 300.849 -3.39361 2.96893 0
M  V30 3135 C 299.511 -3.42852 3.37647 0
M  V30 3136 C 301.863 -3.42512 3.92854 0
M  V30 3137 C 299.191 -3.47094 4.73015 0
M  V30 3138 C 301.543 -3.4829 5.28088 0
M  V30 3139 C 300.207 -3.50058 5.68345 0
M  V30 3140 H 299.477 -0.659727 0.337404 0
M  V30 3141 H 302.124 -1.26854 1.43459 0
M  V30 3142 H 300.429 -3.81683 0.88463 0
M  V30 3143 H 302.126 -3.80168 1.27568 0
M  V30 3144 H 298.716 -3.37339 2.64387 0
M  V30 3145 H 302.9 -3.3904 3.62444 0
M  V30 3146 H 298.156 -3.46758 5.03556 0
M  V30 3147 H 302.33 -3.49675 6.02246 0
M  V30 3148 H 299.957 -3.53097 6.73221 0
M  V30 3149 N 301.532 -0.945985 -1.26051 0
M  V30 3150 C 302.781 -0.591836 -1.92822 0
M  V30 3151 C 303.094 0.873956 -1.7499 0
M  V30 3152 O 304.3 1.33769 -2.36259 0
M  V30 3153 C 302.756 -1.00776 -3.45503 0
M  V30 3154 C 302.364 -2.4955 -3.7206 0
M  V30 3155 C 304.108 -0.725735 -4.1825 0
M  V30 3156 C 302.015 -2.84988 -5.18205 0
M  V30 3157 H 300.945 -0.217635 -0.721908 0
M  V30 3158 H 303.596 -1.14927 -1.43052 0
M  V30 3159 H 301.978 -0.378812 -3.94184 0
M  V30 3160 H 303.152 -3.1739 -3.34066 0
M  V30 3161 H 301.467 -2.75133 -3.12555 0
M  V30 3162 H 304.064 -0.966771 -5.25887 0
M  V30 3163 H 304.407 0.337639 -4.14929 0
M  V30 3164 H 304.94 -1.31463 -3.7545 0
M  V30 3165 H 301.679 -3.90307 -5.26631 0
M  V30 3166 H 301.199 -2.21813 -5.57278 0
M  V30 3167 H 302.878 -2.73712 -5.86252 0
M  V30 3168 N 303.011 1.40521 -0.713556 0
M  V30 3169 C 304.259 2.00527 -0.251692 0
M  V30 3170 C 304.58 1.56857 1.15848 0
M  V30 3171 O 303.85 0.807127 1.785 0
M  V30 3172 H 302.43 0.741551 -0.0900646 0
M  V30 3173 H 305.092 1.71887 -0.918733 0
M  V30 3174 H 304.188 3.10813 -0.283192 0
M  V30 3175 N 304.489 0.459591 1.5075 0
M  V30 3176 C 305.735 -0.0994966 2.02556 0
M  V30 3177 C 306.068 -1.40399 1.3417 0
M  V30 3178 O 305.343 -1.88892 0.463683 0
M  V30 3179 C 305.626 -0.295242 3.58888 0
M  V30 3180 C 305.479 1.02947 4.37861 0
M  V30 3181 C 306.798 -1.05502 4.27267 0
M  V30 3182 H 303.917 -0.034686 0.736183 0
M  V30 3183 H 306.559 0.602938 1.8018 0
M  V30 3184 H 304.709 -0.893563 3.78084 0
M  V30 3185 H 306.381 1.66348 4.30263 0
M  V30 3186 H 304.624 1.62885 4.02058 0
M  V30 3187 H 305.295 0.846281 5.45474 0
M  V30 3188 H 307.771 -0.547993 4.12476 0
M  V30 3189 H 306.647 -1.16077 5.36486 0
M  V30 3190 H 306.908 -2.08875 3.89645 0
M  V30 3191 N 305.967 -1.56429 0.191757 0
M  V30 3192 C 306.877 -2.22541 -0.742481 0
M  V30 3193 C 307.893 -1.22342 -1.23727 0
M  V30 3194 O 309.069 -1.55069 -1.28513 0
M  V30 3195 C 306.134 -2.8692 -1.94623 0
M  V30 3196 C 305.195 -4.02378 -1.49633 0
M  V30 3197 C 304.428 -4.63678 -2.6427 0
M  V30 3198 O 304.651 -4.23895 -3.81666 0
M  V30 3199 O 303.585 -5.53202 -2.37174 0
M  V30 3200 H 307.411 -3.02977 -0.209462 0
M  V30 3201 H 304.996 -1.49353 -0.0373832 0
M  V30 3202 H 306.878 -3.27663 -2.64982 0
M  V30 3203 H 305.553 -2.09466 -2.46791 0
M  V30 3204 H 304.46 -3.66265 -0.761636 0
M  V30 3205 H 305.793 -4.81487 -1.02134 0
M  V30 3206 N 307.445 0.0818655 -1.57387 0
M  V30 3207 C 308.67 0.799946 -1.91352 0
M  V30 3208 C 309.095 1.70833 -0.787258 0
M  V30 3209 O 308.453 1.79419 0.26048 0
M  V30 3210 C 308.501 1.57812 -3.24234 0
M  V30 3211 O 307.605 2.68806 -3.12757 0
M  V30 3212 H 306.946 0.21891 -0.626877 0
M  V30 3213 H 309.476 0.0531256 -2.04531 0
M  V30 3214 H 309.486 1.95952 -3.57864 0
M  V30 3215 H 308.161 0.911548 -4.05788 0
M  V30 3216 H 306.738 2.33597 -2.90666 0
M  V30 3217 N 308.923 1.53595 0.353017 0
M  V30 3218 C 309.886 1.80232 1.41594 0
M  V30 3219 C 310.886 0.673081 1.46035 0
M  V30 3220 O 312.076 0.941335 1.46576 0
M  V30 3221 C 309.208 1.93578 2.80607 0
M  V30 3222 H 310.401 2.75174 1.19244 0
M  V30 3223 H 307.954 1.44864 0.586872 0
M  V30 3224 H 308.689 1.00746 3.08254 0
M  V30 3225 H 308.474 2.75724 2.78781 0
M  V30 3226 H 309.964 2.15735 3.57558 0
M  V30 3227 N 310.401 -0.613514 1.45168 0
M  V30 3228 C 311.626 -1.40437 1.52618 0
M  V30 3229 C 312.051 -1.87438 0.157707 0
M  V30 3230 O 311.409 -1.59791 -0.856537 0
M  V30 3231 C 311.457 -2.58894 2.51011 0
M  V30 3232 O 310.561 -3.59326 2.02382 0
M  V30 3233 H 309.902 -0.419506 0.514695 0
M  V30 3234 H 312.432 -0.747215 1.90467 0
M  V30 3235 H 312.442 -3.06214 2.69624 0
M  V30 3236 H 311.117 -2.24032 3.50403 0
M  V30 3237 H 309.694 -3.18695 1.93618 0
M  V30 3238 N 311.879 -1.3236 -0.855495 0
M  V30 3239 C 313.125 -1.23054 -1.612 0
M  V30 3240 C 313.458 0.207404 -1.93089 0
M  V30 3241 O 312.733 1.14432 -1.57275 0
M  V30 3242 C 313.016 -2.08937 -2.93287 0
M  V30 3243 C 312.869 -3.61105 -2.68185 0
M  V30 3244 C 314.188 -1.94986 -3.94549 0
M  V30 3245 H 311.307 -0.448364 -0.584926 0
M  V30 3246 H 313.949 -1.62297 -0.987917 0
M  V30 3247 H 312.099 -1.75599 -3.46551 0
M  V30 3248 H 313.771 -4.04652 -2.21483 0
M  V30 3249 H 312.014 -3.83813 -2.02164 0
M  V30 3250 H 312.685 -4.16522 -3.62234 0
M  V30 3251 H 315.161 -2.24189 -3.5054 0
M  V30 3252 H 314.037 -2.57356 -4.84829 0
M  V30 3253 H 314.298 -0.917263 -4.3248 0
M  V30 3254 N 313.357 1.07166 -1.15556 0
M  V30 3255 C 314.32 2.12589 -0.856644 0
M  V30 3256 C 315.32 1.6015 0.14444 0
M  V30 3257 O 316.51 1.7399 -0.0854163 0
M  V30 3258 C 313.642 3.39753 -0.279405 0
M  V30 3259 H 314.835 2.40539 -1.79112 0
M  V30 3260 H 312.388 1.23086 -0.963298 0
M  V30 3261 H 313.123 3.17447 0.663174 0
M  V30 3262 H 312.908 3.79117 -1.00063 0
M  V30 3263 H 314.398 4.17507 -0.0879113 0
M  V30 3264 N 314.835 0.952656 1.25548 0
M  V30 3265 C 315.798 0.475794 2.24207 0
M  V30 3266 C 316.798 -0.419428 1.55234 0
M  V30 3267 O 317.988 -0.216994 1.72843 0
M  V30 3268 C 315.12 -0.312814 3.39462 0
M  V30 3269 H 316.313 1.34779 2.67908 0
M  V30 3270 H 313.866 0.735739 1.37901 0
M  V30 3271 H 314.601 -1.20257 3.01179 0
M  V30 3272 H 314.386 0.329404 3.90714 0
M  V30 3273 H 315.876 -0.635986 4.12729 0
M  V30 3274 N 316.313 -1.40141 0.720998 0
M  V30 3275 C 317.561 -2.0039 0.262323 0
M  V30 3276 C 317.882 -1.57469 -1.15015 0
M  V30 3277 O 317.152 -0.816582 -1.78069 0
M  V30 3278 H 315.732 -0.741063 0.093996 0
M  V30 3279 H 318.394 -1.71398 0.927835 0
M  V30 3280 H 317.49 -3.10658 0.299671 0
M  V30 3281 N 317.792 -0.46758 -1.50504 0
M  V30 3282 C 319.038 0.0887532 -2.02606 0
M  V30 3283 C 319.371 1.39686 -1.34913 0
M  V30 3284 O 318.646 1.88644 -0.473694 0
M  V30 3285 C 318.929 0.276206 -3.59039 0
M  V30 3286 C 318.782 -1.05267 -4.37309 0
M  V30 3287 C 320.101 1.03235 -4.27821 0
M  V30 3288 H 317.22 0.0307814 -0.736357 0
M  V30 3289 H 319.862 -0.612485 -1.79857 0
M  V30 3290 H 318.012 0.8735 -3.78553 0
M  V30 3291 H 319.684 -1.68628 -4.29374 0
M  V30 3292 H 317.927 -1.65015 -4.01189 0
M  V30 3293 H 318.598 -0.875197 -5.45018 0
M  V30 3294 H 321.074 0.526111 -4.12761 0
M  V30 3295 H 319.95 1.1323 -5.37094 0
M  V30 3296 H 320.211 2.06806 -3.90748 0
M  V30 3297 N 319.27 1.56325 -0.20005 0
M  V30 3298 C 320.516 1.98012 0.438059 0
M  V30 3299 C 320.849 1.08702 1.60927 0
M  V30 3300 O 320.124 0.140064 1.93995 0
M  V30 3301 C 320.407 3.48841 0.893419 0
M  V30 3302 C 320.26 4.48928 -0.279947 0
M  V30 3303 C 321.579 4.03498 1.75719 0
M  V30 3304 H 318.698 0.719918 0.157757 0
M  V30 3305 H 321.34 1.87743 -0.291968 0
M  V30 3306 H 319.49 3.57723 1.51547 0
M  V30 3307 H 321.162 4.52079 -0.91772 0
M  V30 3308 H 319.405 4.23694 -0.930919 0
M  V30 3309 H 320.076 5.5194 0.0812601 0
M  V30 3310 H 322.552 3.97427 1.23253 0
M  V30 3311 H 321.428 5.09393 2.04476 0
M  V30 3312 H 321.689 3.4906 2.71311 0
M  V30 3313 N 320.748 -0.0735177 1.57428 0
M  V30 3314 C 321.695 -1.08756 2.0357 0
M  V30 3315 C 322.665 -1.38559 0.916 0
M  V30 3316 O 323.85 -1.49656 1.18354 0
M  V30 3317 C 320.99 -2.39657 2.48311 0
M  V30 3318 C 320.103 -2.16399 3.73892 0
M  V30 3319 C 319.238 -3.40852 4.07423 0
M  V30 3320 C 318.277 -3.1295 5.2605 0
M  V30 3321 N 317.414 -4.29729 5.55228 0
M  V30 3322 H 322.254 -0.687104 2.8997 0
M  V30 3323 H 319.791 -0.327709 1.43403 0
M  V30 3324 H 321.749 -3.16081 2.72303 0
M  V30 3325 H 320.379 -2.77508 1.64891 0
M  V30 3326 H 319.431 -1.30676 3.57251 0
M  V30 3327 H 320.743 -1.91788 4.60455 0
M  V30 3328 H 319.897 -4.25671 4.32306 0
M  V30 3329 H 318.636 -3.68537 3.19425 0
M  V30 3330 H 317.641 -2.26526 5.00965 0
M  V30 3331 H 318.866 -2.86589 6.15665 0
M  V30 3332 H 316.812 -4.57448 4.70188 0
M  V30 3333 H 316.729 -4.08385 6.36206 0
M  V30 3334 H 317.997 -5.1555 5.84661 0
M  V30 3335 N 322.226 -1.5378 -0.344866 0
M  V30 3336 C 323.174 -1.82373 -1.4437 0
M  V30 3337 C 324.168 -0.694128 -1.54526 0
M  V30 3338 O 325.374 -0.877442 -1.57165 0
M  V30 3339 H 321.749 -0.577765 -0.481344 0
M  V30 3340 H 323.72 -2.74306 -1.17468 0
M  V30 3341 C 322.469 -2.04898 -2.80913 0
M  V30 3342 H 321.792 -2.9127 -2.73865 0
M  V30 3343 H 323.232 -2.28871 -3.56923 0
M  V30 3344 C 321.691 -0.834116 -3.26411 0
M  V30 3345 O 322.221 -0.0328885 -4.01687 0
M  V30 3346 N 320.427 -0.65171 -2.83198 0
M  V30 3347 H 319.974 -1.30489 -2.22104 0
M  V30 3348 H 319.932 0.159686 -3.13994 0
M  V30 3349 N 323.704 0.605807 -1.45491 0
M  V30 3350 C 325.115 1.18777 -1.44045 0
M  V30 3351 C 325.466 1.95471 -0.169001 0
M  V30 3352 O 324.591 2.0374 0.729324 0
M  V30 3353 C 325.186 2.16064 -2.60963 0
M  V30 3354 C 323.745 2.69633 -2.62631 0
M  V30 3355 C 322.892 1.45072 -2.36325 0
M  V30 3356 H 325.843 0.395017 -1.53705 0
M  V30 3357 H 325.864 2.9913 -2.35163 0
M  V30 3358 H 325.376 1.60217 -3.53486 0
M  V30 3359 H 323.477 3.29414 -1.74119 0
M  V30 3360 H 323.59 3.13944 -3.61906 0
M  V30 3361 H 321.954 1.74089 -1.85917 0
M  V30 3362 H 322.737 0.910899 -3.30995 0
M  V30 3363 N 325.182 1.32811 0.848464 0
M  V30 3364 C 326.129 1.22265 1.95755 0
M  V30 3365 C 327.099 0.103413 1.65778 0
M  V30 3366 O 328.284 0.280033 1.88734 0
M  V30 3367 C 325.424 0.958014 3.31536 0
M  V30 3368 C 324.537 2.16262 3.73971 0
M  V30 3369 C 323.672 1.83295 4.98575 0
M  V30 3370 C 322.711 3.00041 5.33518 0
M  V30 3371 N 321.848 2.67125 6.49299 0
M  V30 3372 H 326.688 2.17128 2.04107 0
M  V30 3373 H 324.225 1.07982 0.998913 0
M  V30 3374 H 326.183 0.785052 4.09747 0
M  V30 3375 H 324.813 0.046159 3.22767 0
M  V30 3376 H 323.865 2.44565 2.91362 0
M  V30 3377 H 325.177 3.03572 3.95785 0
M  V30 3378 H 324.331 1.62586 5.84509 0
M  V30 3379 H 323.07 0.932078 4.7871 0
M  V30 3380 H 322.075 3.21374 4.46093 0
M  V30 3381 H 323.3 3.90869 5.55336 0
M  V30 3382 H 321.246 1.79586 6.3094 0
M  V30 3383 H 321.163 3.47965 6.71161 0
M  V30 3384 H 322.431 2.49861 7.3837 0
M  V30 3385 N 326.66 -1.06551 1.16123 0
M  V30 3386 C 328.076 -1.3142 0.905585 0
M  V30 3387 C 328.276 -1.96571 -0.442964 0
M  V30 3388 O 327.332 -2.23068 -1.18308 0
M  V30 3389 C 328.645 -2.19741 2.05267 0
M  V30 3390 C 330.193 -2.33165 2.08813 0
M  V30 3391 C 330.668 -3.24838 3.22868 0
M  V30 3392 N 332.159 -3.32421 3.22568 0
M  V30 3393 C 332.894 -4.0344 4.0746 0
M  V30 3394 N 332.39 -4.77003 5.02434 0
M  V30 3395 N 334.183 -3.99464 3.95456 0
M  V30 3396 H 326.334 -0.626548 2.02949 0
M  V30 3397 H 328.597 -0.338777 0.8854 0
M  V30 3398 H 328.303 -1.79142 3.02657 0
M  V30 3399 H 328.177 -3.20313 1.99198 0
M  V30 3400 H 330.564 -2.73013 1.12018 0
M  V30 3401 H 330.645 -1.3227 2.18948 0
M  V30 3402 H 330.289 -2.85708 4.19921 0
M  V30 3403 H 330.219 -4.25707 3.0997 0
M  V30 3404 H 332.71 -2.79994 2.53795 0
M  V30 3405 H 333.023 -5.28712 5.63634 0
M  V30 3406 H 331.368 -4.75992 5.06415 0
M  V30 3407 H 334.559 -3.4111 3.20564 0
M  V30 3408 H 334.732 -4.54544 4.61837 0
M  V30 3409 N 328.138 -0.959301 -1.25041 0
M  V30 3410 C 329.086 -0.474437 -2.2771 0
M  V30 3411 C 330.08 0.457697 -1.631 0
M  V30 3412 O 331.286 0.333912 -1.76876 0
M  V30 3413 H 327.661 -0.134936 -0.739795 0
M  V30 3414 H 329.632 -1.35251 -2.65988 0
M  V30 3415 C 328.381 0.227884 -3.46952 0
M  V30 3416 H 327.704 -0.480248 -3.96905 0
M  V30 3417 H 329.144 0.531091 -4.20661 0
M  V30 3418 C 327.603 1.452 -3.04004 0
M  V30 3419 O 328.133 2.54949 -3.10426 0
M  V30 3420 N 326.339 1.31502 -2.59144 0
M  V30 3421 H 325.886 0.422065 -2.54119 0
M  V30 3422 H 325.844 2.13521 -2.30773 0
M  V30 3423 N 329.616 1.39756 -0.72842 0
M  V30 3424 C 330.862 2.00942 -0.273892 0
M  V30 3425 C 331.195 1.57656 1.13394 0
M  V30 3426 O 330.47 0.802434 1.77176 0
M  V30 3427 C 330.753 3.58211 -0.368346 0
M  V30 3428 C 330.606 4.11534 -1.81548 0
M  V30 3429 C 331.925 4.39372 0.253054 0
M  V30 3430 H 329.044 0.730047 -0.100996 0
M  V30 3431 H 331.686 1.66056 -0.923337 0
M  V30 3432 H 329.836 3.88061 0.184588 0
M  V30 3433 H 331.508 3.92431 -2.42478 0
M  V30 3434 H 329.751 3.65341 -2.33898 0
M  V30 3435 H 330.422 5.20682 -1.83288 0
M  V30 3436 H 332.898 4.15527 -0.218224 0
M  V30 3437 H 331.774 5.48677 0.156585 0
M  V30 3438 H 332.035 4.21358 1.33826 0
M  V30 3439 N 331.094 0.475555 1.50254 0
M  V30 3440 C 332.505 0.0215174 1.86688 0
M  V30 3441 C 332.856 -1.38467 1.39001 0
M  V30 3442 O 331.981 -2.02732 0.756894 0
M  V30 3443 C 332.576 0.0322715 3.38785 0
M  V30 3444 C 331.135 -0.366314 3.74613 0
M  V30 3445 C 330.282 0.415832 2.74164 0
M  V30 3446 H 333.233 0.689612 1.42934 0
M  V30 3447 H 333.254 -0.76889 3.7265 0
M  V30 3448 H 332.766 1.05584 3.73462 0
M  V30 3449 H 330.867 -1.39406 3.45538 0
M  V30 3450 H 330.98 -0.064555 4.79057 0
M  V30 3451 H 329.344 -0.131048 2.54363 0
M  V30 3452 H 330.127 1.43899 3.11686 0
M  V30 3453 N 332.573 -1.56217 0.208337 0
M  V30 3454 C 333.822 -1.97124 -0.427204 0
M  V30 3455 C 334.135 -1.09859 -1.61835 0
M  V30 3456 O 335.341 -1.40606 -2.32255 0
M  V30 3457 C 333.797 -3.50633 -0.811442 0
M  V30 3458 C 333.405 -4.46582 0.35615 0
M  V30 3459 C 335.149 -4.00282 -1.41332 0
M  V30 3460 C 333.056 -5.91379 -0.0497852 0
M  V30 3461 H 331.986 -0.736086 -0.163381 0
M  V30 3462 H 334.637 -1.8099 0.302456 0
M  V30 3463 H 333.019 -3.62319 -1.59815 0
M  V30 3464 H 334.193 -4.46636 1.1337 0
M  V30 3465 H 332.508 -4.07202 0.870396 0
M  V30 3466 H 335.105 -5.0595 -1.72972 0
M  V30 3467 H 335.448 -3.45359 -2.32449 0
M  V30 3468 H 335.981 -3.91764 -0.690323 0
M  V30 3469 H 332.72 -6.50255 0.827529 0
M  V30 3470 H 332.24 -5.94549 -0.791926 0
M  V30 3471 H 333.919 -6.45209 -0.481042 0
M  V30 3472 N 334.051 0.0651679 -1.57465 0
M  V30 3473 C 335.014 1.06117 -2.03155 0
M  V30 3474 C 336.014 1.31204 -0.929632 0
M  V30 3475 O 337.204 1.26813 -1.19432 0
M  V30 3476 C 334.336 2.4032 -2.41783 0
M  V30 3477 H 335.529 0.667231 -2.92383 0
M  V30 3478 H 333.082 0.311075 -1.53173 0
M  V30 3479 H 333.817 2.84532 -1.55601 0
M  V30 3480 H 333.602 2.23451 -3.22199 0
M  V30 3481 H 335.092 3.11898 -2.77685 0
M  V30 3482 N 335.529 1.53961 0.336706 0
M  V30 3483 C 336.757 1.75483 1.09605 0
M  V30 3484 C 337.172 0.4972 1.82136 0
M  V30 3485 O 336.529 -0.53149 1.74589 0
M  V30 3486 C 336.58 2.93943 2.10428 0
M  V30 3487 O 336.301 4.14842 1.40846 0
M  V30 3488 C 337.802 3.27571 2.98684 0
M  V30 3489 H 335.022 0.586166 0.326574 0
M  V30 3490 H 337.566 2.00808 0.38683 0
M  V30 3491 H 335.721 2.70929 2.76905 0
M  V30 3492 H 336.135 4.81383 2.08255 0
M  V30 3493 H 337.609 4.13791 3.6535 0
M  V30 3494 H 338.086 2.44168 3.65074 0
M  V30 3495 H 338.692 3.52615 2.37787 0
M  V30 3496 N 337.007 -0.598083 1.45811 0
M  V30 3497 C 338.256 -1.35295 1.49594 0
M  V30 3498 C 338.569 -1.95057 0.145679 0
M  V30 3499 O 339.775 -2.71431 0.0612099 0
M  V30 3500 C 338.231 -2.45124 2.63519 0
M  V30 3501 C 337.839 -1.91732 4.04899 0
M  V30 3502 C 339.583 -3.2205 2.76558 0
M  V30 3503 C 337.49 -2.991 5.1019 0
M  V30 3504 H 336.42 -0.508552 0.556679 0
M  V30 3505 H 339.071 -0.639977 1.71978 0
M  V30 3506 H 337.453 -3.19149 2.34435 0
M  V30 3507 H 338.627 -1.24352 4.43704 0
M  V30 3508 H 336.942 -1.27522 3.96393 0
M  V30 3509 H 339.539 -4.0215 3.52391 0
M  V30 3510 H 339.882 -3.73663 1.83526 0
M  V30 3511 H 340.415 -2.55127 3.05213 0
M  V30 3512 H 337.154 -2.52393 6.04961 0
M  V30 3513 H 336.674 -3.65017 4.75944 0
M  V30 3514 H 338.353 -3.63318 5.35359 0
M  V30 3515 N 338.485 -1.33259 -0.841409 0
M  V30 3516 C 339.733 -1.24326 -1.59334 0
M  V30 3517 C 340.054 0.191564 -1.94057 0
M  V30 3518 O 339.324 1.11967 -1.60749 0
M  V30 3519 H 337.904 -0.457174 -0.590763 0
M  V30 3520 H 340.566 -1.66947 -1.00571 0
M  V30 3521 H 339.662 -1.8352 -2.52442 0
M  V30 3522 N 339.963 1.05934 -1.16686 0
M  V30 3523 C 341.211 1.78447 -0.948744 0
M  V30 3524 C 341.532 1.87813 0.524523 0
M  V30 3525 O 340.802 1.38945 1.38098 0
M  V30 3526 H 339.382 0.660971 -0.348033 0
M  V30 3527 H 342.044 1.27947 -1.47022 0
M  V30 3528 H 341.14 2.80394 -1.37061 0
M  V30 3529 N 341.441 0.965919 1.2453 0
M  V30 3530 C 342.687 0.62776 1.92839 0
M  V30 3531 C 343.02 -0.834694 1.75347 0
M  V30 3532 O 342.295 -1.60031 1.10546 0
M  V30 3533 C 342.578 1.00109 3.45905 0
M  V30 3534 C 342.431 2.52011 3.72573 0
M  V30 3535 C 343.75 0.53435 4.36844 0
M  V30 3536 H 340.869 0.229537 0.700344 0
M  V30 3537 H 343.511 1.2046 1.46933 0
M  V30 3538 H 341.661 0.510238 3.85135 0
M  V30 3539 H 343.333 3.08559 3.42912 0
M  V30 3540 H 341.576 2.95287 3.17786 0
M  V30 3541 H 342.247 2.73183 4.79661 0
M  V30 3542 H 344.723 0.955565 4.04979 0
M  V30 3543 H 343.599 0.824152 5.42678 0
M  V30 3544 H 343.86 -0.565589 4.38467 0
M  V30 3545 N 342.919 -1.39368 0.735821 0
M  V30 3546 C 343.849 -2.33234 0.111506 0
M  V30 3547 C 344.83 -1.53954 -0.723334 0
M  V30 3548 O 346.015 -1.82344 -0.668147 0
M  V30 3549 C 343.145 -3.38057 -0.795917 0
M  V30 3550 C 342.099 -4.2795 -0.065172 0
M  V30 3551 C 341.425 -5.23479 -1.08967 0
M  V30 3552 C 342.725 -5.10741 1.09273 0
M  V30 3553 H 344.419 -2.85692 0.895571 0
M  V30 3554 H 341.965 -1.37364 0.432109 0
M  V30 3555 H 343.918 -4.02675 -1.24221 0
M  V30 3556 H 342.642 -2.8404 -1.61211 0
M  V30 3557 H 341.301 -3.64813 0.361511 0
M  V30 3558 H 340.949 -4.65758 -1.89944 0
M  V30 3559 H 340.649 -5.84472 -0.605489 0
M  V30 3560 H 342.173 -5.90974 -1.53565 0
M  V30 3561 H 343.587 -5.68699 0.724841 0
M  V30 3562 H 341.984 -5.8088 1.50659 0
M  V30 3563 H 343.054 -4.45525 1.91404 0
M  V30 3564 N 344.397 -0.483516 -1.5 0
M  V30 3565 C 345.646 0.0689102 -2.01582 0
M  V30 3566 C 345.959 1.39655 -1.36952 0
M  V30 3567 O 347.165 2.03465 -1.79762 0
M  V30 3568 C 345.621 0.173302 -3.59483 0
M  V30 3569 C 345.229 -1.14665 -4.33077 0
M  V30 3570 C 346.973 0.677024 -4.19066 0
M  V30 3571 C 344.88 -1.00537 -5.82792 0
M  V30 3572 H 343.81 0.0295277 -0.753422 0
M  V30 3573 H 346.461 -0.620295 -1.72698 0
M  V30 3574 H 344.843 0.926569 -3.85007 0
M  V30 3575 H 346.017 -1.91184 -4.19268 0
M  V30 3576 H 344.332 -1.58244 -3.85159 0
M  V30 3577 H 346.929 0.799952 -5.28682 0
M  V30 3578 H 347.272 1.67151 -3.81269 0
M  V30 3579 H 347.805 -0.0192083 -3.97795 0
M  V30 3580 H 344.544 -1.9736 -6.25083 0
M  V30 3581 H 344.064 -0.280776 -5.99142 0
M  V30 3582 H 345.743 -0.677 -6.43448 0
M  V30 3583 N 345.875 1.56104 -0.216619 0
M  V30 3584 C 346.838 2.18819 0.681962 0
M  V30 3585 C 347.838 1.14866 1.12528 0
M  V30 3586 O 349.028 1.40128 1.03488 0
M  V30 3587 C 346.16 2.80756 1.93362 0
M  V30 3588 H 347.353 2.99595 0.135254 0
M  V30 3589 H 344.906 1.56265 0.0330003 0
M  V30 3590 H 345.641 2.03837 2.52232 0
M  V30 3591 H 345.426 3.56876 1.62426 0
M  V30 3592 H 346.916 3.28844 2.57393 0
M  V30 3593 N 347.353 -0.0568162 1.57498 0
M  V30 3594 C 348.316 -1.05038 2.03715 0
M  V30 3595 C 349.316 -1.30709 0.936577 0
M  V30 3596 O 350.506 -1.26178 1.20103 0
M  V30 3597 C 347.638 -2.39034 2.43055 0
M  V30 3598 H 348.831 -0.651715 2.92733 0
M  V30 3599 H 346.384 -0.302947 1.53336 0
M  V30 3600 H 347.119 -2.83703 1.57108 0
M  V30 3601 H 346.904 -2.21739 3.2338 0
M  V30 3602 H 348.394 -3.10421 2.79336 0
M  V30 3603 N 348.832 -1.54138 -0.328536 0
M  V30 3604 C 350.078 -1.7236 -1.06865 0
M  V30 3605 C 350.411 -0.493231 -1.87832 0
M  V30 3606 O 349.686 0.5098 -1.877 0
M  V30 3607 C 349.969 -2.99621 -1.99747 0
M  V30 3608 C 349.822 -4.32899 -1.22143 0
M  V30 3609 C 351.141 -3.22615 -2.99345 0
M  V30 3610 H 348.26 -0.627151 -0.387105 0
M  V30 3611 H 350.902 -1.86827 -0.345767 0
M  V30 3612 H 349.052 -2.87418 -2.61387 0
M  V30 3613 H 350.724 -4.56978 -0.630017 0
M  V30 3614 H 348.967 -4.30628 -0.523628 0
M  V30 3615 H 349.638 -5.18154 -1.90318 0
M  V30 3616 H 352.114 -3.34248 -2.47826 0
M  V30 3617 H 350.99 -4.13027 -3.61524 0
M  V30 3618 H 351.251 -2.3961 -3.71536 0
M  V30 3619 N 350.31 0.590341 -1.46126 0
M  V30 3620 C 351.55 1.35995 -1.52593 0
M  V30 3621 C 351.914 1.91243 -0.170368 0
M  V30 3622 O 353.115 2.68576 -0.109775 0
M  V30 3623 C 351.386 2.46465 -2.58823 0
M  V30 3624 S 352.945 3.33953 -2.84641 0
M  V30 3625 H 349.763 0.463425 -0.53922 0
M  V30 3626 H 352.365 0.67944 -1.83314 0
M  V30 3627 H 351.069 2.04256 -3.5596 0
M  V30 3628 H 350.6 3.19297 -2.2981 0
M  V30 3629 H 352.615 4.45094 -2.19331 0
M  V30 3630 N 351.788 1.33704 0.83433 0
M  V30 3631 C 353.018 1.28281 1.6195 0
M  V30 3632 C 353.426 -0.147603 1.88623 0
M  V30 3633 O 352.769 -1.1016 1.47005 0
M  V30 3634 C 352.831 1.99386 2.99141 0
M  V30 3635 C 352.495 3.48681 2.95416 0
M  V30 3636 C 353.492 4.438 2.70809 0
M  V30 3637 C 351.177 3.90925 3.15409 0
M  V30 3638 C 353.171 5.79138 2.66229 0
M  V30 3639 C 350.858 5.26366 3.10454 0
M  V30 3640 C 351.856 6.20284 2.85895 0
M  V30 3641 O 351.544 7.53245 2.80852 0
M  V30 3642 H 351.276 0.44315 0.510484 0
M  V30 3643 H 353.83 1.76711 1.04702 0
M  V30 3644 H 352.06 1.45554 3.58261 0
M  V30 3645 H 353.749 1.87403 3.60049 0
M  V30 3646 H 354.515 4.12485 2.5511 0
M  V30 3647 H 350.394 3.18229 3.33543 0
M  V30 3648 H 353.938 6.52416 2.4698 0
M  V30 3649 H 349.835 5.57304 3.25703 0
M  V30 3650 H 350.603 7.62846 2.96661 0
M  V30 3651 N 353.266 -1.05314 1.17247 0
M  V30 3652 C 354.512 -1.78557 0.961513 0
M  V30 3653 C 354.845 -1.87419 -0.508697 0
M  V30 3654 O 354.12 -1.37307 -1.37757 0
M  V30 3655 C 354.403 -3.22514 1.60176 0
M  V30 3656 C 354.256 -3.21673 3.14399 0
M  V30 3657 C 355.575 -4.20318 1.30463 0
M  V30 3658 H 352.694 -0.6482 0.350723 0
M  V30 3659 H 355.336 -1.23102 1.44727 0
M  V30 3660 H 353.486 -3.69867 1.18871 0
M  V30 3661 H 355.158 -2.82405 3.64753 0
M  V30 3662 H 353.401 -2.60048 3.47214 0
M  V30 3663 H 354.072 -4.23271 3.54324 0
M  V30 3664 H 356.548 -3.81454 1.66229 0
M  V30 3665 H 355.424 -5.19289 1.77848 0
M  V30 3666 H 355.685 -4.41526 0.22521 0
M  V30 3667 N 354.744 -0.972509 -1.24016 0
M  V30 3668 C 355.674 -0.525548 -2.27509 0
M  V30 3669 C 356.655 0.437262 -1.64384 0
M  V30 3670 O 357.84 0.332343 -1.91335 0
M  V30 3671 C 354.97 0.180448 -3.46831 0
M  V30 3672 C 353.924 -0.698859 -4.22256 0
M  V30 3673 C 353.25 0.138903 -5.3452 0
M  V30 3674 C 354.55 -1.98582 -4.83076 0
M  V30 3675 H 356.244 -1.39058 -2.65148 0
M  V30 3676 H 353.79 -0.67009 -1.27459 0
M  V30 3677 H 355.743 0.504387 -4.18371 0
M  V30 3678 H 354.467 1.07987 -3.08231 0
M  V30 3679 H 353.126 -1.00614 -3.52523 0
M  V30 3680 H 352.774 1.03862 -4.9216 0
M  V30 3681 H 352.474 -0.446259 -5.85903 0
M  V30 3682 H 353.998 0.457404 -6.08884 0
M  V30 3683 H 355.412 -1.72715 -5.46665 0
M  V30 3684 H 353.809 -2.5181 -5.44713 0
M  V30 3685 H 354.879 -2.67769 -4.04262 0
M  V30 3686 N 356.222 1.38976 -0.743202 0
M  V30 3687 C 357.447 2.05161 -0.303936 0
M  V30 3688 C 357.872 1.55677 1.05576 0
M  V30 3689 O 357.23 0.704131 1.67068 0
M  V30 3690 C 357.278 3.59138 -0.324373 0
M  V30 3691 O 356.382 4.06668 0.685204 0
M  V30 3692 H 355.723 0.649815 -0.136518 0
M  V30 3693 H 358.253 1.77852 -1.01142 0
M  V30 3694 H 358.263 4.07639 -0.171618 0
M  V30 3695 H 356.938 3.94515 -1.31647 0
M  V30 3696 H 355.515 3.69561 0.497913 0
M  V30 3697 N 357.7 0.491464 1.49741 0
M  V30 3698 C 358.928 -0.0535151 2.06831 0
M  V30 3699 C 359.343 -1.31683 1.35296 0
M  V30 3700 O 358.7 -1.77402 0.42836 0
M  V30 3701 C 358.751 -0.320835 3.60073 0
M  V30 3702 O 358.472 0.892394 4.28915 0
M  V30 3703 C 359.973 -0.910519 4.33848 0
M  V30 3704 H 357.193 0.0161909 0.670805 0
M  V30 3705 H 359.737 0.68609 1.92647 0
M  V30 3706 H 357.892 -1.0104 3.73991 0
M  V30 3707 H 358.306 0.649401 5.20464 0
M  V30 3708 H 359.78 -1.04721 5.41976 0
M  V30 3709 H 360.257 -1.90589 3.95692 0
M  V30 3710 H 360.863 -0.258712 4.24512 0
M  V30 3711 N 359.178 -1.55987 0.224894 0
M  V30 3712 C 360.406 -2.02784 -0.410665 0
M  V30 3713 C 360.821 -1.10464 -1.53112 0
M  V30 3714 O 360.178 -0.114871 -1.82138 0
M  V30 3715 C 360.229 -3.49087 -0.939165 0
M  V30 3716 O 359.95 -4.37887 0.136614 0
M  V30 3717 C 361.451 -4.11543 -1.64763 0
M  V30 3718 H 358.671 -0.663484 -0.100148 0
M  V30 3719 H 361.215 -2.01614 0.342326 0
M  V30 3720 H 359.37 -3.50861 -1.64242 0
M  V30 3721 H 359.784 -5.23849 -0.261155 0
M  V30 3722 H 361.258 -5.15673 -1.96939 0
M  V30 3723 H 361.735 -3.56736 -2.56195 0
M  V30 3724 H 362.341 -4.13629 -0.989503 0
M  V30 3725 N 360.656 0.0484629 -1.57525 0
M  V30 3726 C 361.619 1.03956 -2.04269 0
M  V30 3727 C 362.619 1.30211 -0.943496 0
M  V30 3728 O 363.809 1.25539 -1.20771 0
M  V30 3729 C 360.941 2.37742 -2.44319 0
M  V30 3730 H 362.134 0.636182 -2.93075 0
M  V30 3731 H 359.687 0.294811 -1.53494 0
M  V30 3732 H 360.422 2.82866 -1.5861 0
M  V30 3733 H 360.207 2.20021 -3.24551 0
M  V30 3734 H 361.697 3.08936 -2.80978 0
M  V30 3735 N 362.134 1.5431 0.320358 0
M  V30 3736 C 363.383 1.7188 1.05546 0
M  V30 3737 C 363.696 0.501143 1.89071 0
M  V30 3738 O 364.902 0.558258 2.65699 0
M  V30 3739 C 363.358 3.04025 1.92605 0
M  V30 3740 C 362.966 4.33207 1.14176 0
M  V30 3741 C 364.71 3.30959 2.65832 0
M  V30 3742 C 362.617 5.56412 2.00399 0
M  V30 3743 H 361.547 0.640547 0.397763 0
M  V30 3744 H 364.198 1.80802 0.313522 0
M  V30 3745 H 362.58 2.89019 2.7071 0
M  V30 3746 H 363.754 4.58989 0.40819 0
M  V30 3747 H 362.069 4.13062 0.526165 0
M  V30 3748 H 364.666 4.20203 3.30656 0
M  V30 3749 H 365.009 2.48979 3.33639 0
M  V30 3750 H 365.542 3.46847 1.94787 0
M  V30 3751 H 362.281 6.41004 1.37094 0
M  V30 3752 H 361.801 5.34844 2.7148 0
M  V30 3753 H 363.48 5.92938 2.58908 0
M  V30 3754 N 363.613 -0.582584 1.46437 0
M  V30 3755 C 364.546 -1.70633 1.51524 0
M  V30 3756 C 365.524 -1.58349 0.369351 0
M  V30 3757 O 366.708 -1.79563 0.573516 0
M  V30 3758 C 363.835 -3.08687 1.39392 0
M  V30 3759 C 362.881 -3.3949 2.58164 0
M  V30 3760 S 363.714 -3.31548 4.20519 0
M  V30 3761 C 364.87 -4.72139 4.10896 0
M  V30 3762 H 365.103 -1.66058 2.46601 0
M  V30 3763 H 362.636 -0.761337 1.34324 0
M  V30 3764 H 364.594 -3.8833 1.33079 0
M  V30 3765 H 363.255 -3.10751 0.457436 0
M  V30 3766 H 362.448 -4.40071 2.45669 0
M  V30 3767 H 362.05 -2.67415 2.61468 0
M  V30 3768 H 364.342 -5.62527 3.77584 0
M  V30 3769 H 365.285 -4.89692 5.11476 0
M  V30 3770 H 365.693 -4.48995 3.42146 0
M  V30 3771 N 365.091 -1.34144 -0.827227 0
M  V30 3772 C 366.339 -1.26009 -1.58007 0
M  V30 3773 C 366.66 0.170971 -1.94249 0
M  V30 3774 O 365.93 1.10256 -1.61927 0
M  V30 3775 H 364.51 -0.463414 -0.585881 0
M  V30 3776 H 367.172 -1.68005 -0.987951 0
M  V30 3777 H 366.268 -1.86187 -2.50481 0
M  V30 3778 N 366.569 1.04691 -1.17803 0
M  V30 3779 C 367.502 2.12068 -0.842765 0
M  V30 3780 C 368.48 1.61455 0.192608 0
M  V30 3781 O 369.664 1.88359 0.072995 0
M  V30 3782 C 366.791 3.37715 -0.258063 0
M  V30 3783 C 365.837 4.07164 -1.26962 0
M  V30 3784 S 366.67 4.55047 -2.82299 0
M  V30 3785 C 367.826 5.83935 -2.25323 0
M  V30 3786 H 368.059 2.4018 -1.75217 0
M  V30 3787 H 365.592 1.17366 -1.00323 0
M  V30 3788 H 367.55 4.10435 0.0727935 0
M  V30 3789 H 366.211 3.0773 0.629357 0
M  V30 3790 H 365.404 4.9746 -0.809263 0
M  V30 3791 H 365.006 3.40533 -1.54639 0
M  V30 3792 H 367.298 6.57552 -1.63192 0
M  V30 3793 H 368.241 6.34725 -3.13894 0
M  V30 3794 H 368.649 5.3874 -1.68582 0
M  V30 3795 N 368.047 0.979072 1.23499 0
M  V30 3796 C 369.296 0.642751 1.91185 0
M  V30 3797 C 369.609 -0.827253 1.77245 0
M  V30 3798 O 370.815 -1.27458 2.39722 0
M  V30 3799 C 369.271 1.09901 3.42709 0
M  V30 3800 C 368.879 2.59327 3.65313 0
M  V30 3801 C 370.623 0.836371 4.16179 0
M  V30 3802 C 368.53 2.98627 5.10467 0
M  V30 3803 H 367.46 0.236698 0.715884 0
M  V30 3804 H 370.111 1.1868 1.39955 0
M  V30 3805 H 368.493 0.48319 3.93041 0
M  V30 3806 H 369.667 3.26136 3.25533 0
M  V30 3807 H 367.982 2.83323 3.05151 0
M  V30 3808 H 370.579 1.10586 5.23139 0
M  V30 3809 H 370.922 -0.227509 4.15678 0
M  V30 3810 H 371.455 1.41371 3.71832 0
M  V30 3811 H 368.194 4.04133 5.16098 0
M  V30 3812 H 367.714 2.3651 5.51201 0
M  V30 3813 H 369.393 2.89159 5.78788 0
M  V30 3814 N 369.525 -1.3858 0.750561 0
M  V30 3815 C 370.936 -1.82927 0.373438 0
M  V30 3816 C 371.287 -1.62634 -1.09748 0
M  V30 3817 O 370.412 -1.12588 -1.84805 0
M  V30 3818 C 371.007 -3.32088 0.671029 0
M  V30 3819 C 369.566 -3.74795 0.34722 0
M  V30 3820 C 368.713 -2.61391 0.92575 0
M  V30 3821 H 371.664 -1.27351 0.946958 0
M  V30 3822 H 371.685 -3.80465 -0.0518269 0
M  V30 3823 H 371.197 -3.46826 1.74164 0
M  V30 3824 H 369.298 -3.65638 -0.716933 0
M  V30 3825 H 369.411 -4.71667 0.840656 0
M  V30 3826 H 367.775 -2.52265 0.351327 0
M  V30 3827 H 368.558 -2.78929 2.00133 0
M  V30 3828 N 371.003 -0.499398 -1.49478 0
M  V30 3829 C 371.951 0.293604 -2.3074 0
M  V30 3830 C 372.945 0.96427 -1.39277 0
M  V30 3831 O 374.151 0.892141 -1.56336 0
M  V30 3832 H 370.526 0.113541 -0.743379 0
M  V30 3833 H 372.497 -0.411772 -2.95545 0
M  V30 3834 C 371.246 1.3462 -3.20582 0
M  V30 3835 H 370.569 0.83954 -3.90886 0
M  V30 3836 H 372.009 1.87308 -3.80384 0
M  V30 3837 C 370.468 2.36351 -2.40083 0
M  V30 3838 O 370.998 3.422 -2.10385 0
M  V30 3839 N 369.204 2.0878 -2.02137 0
M  V30 3840 H 368.751 1.22723 -2.26488 0
M  V30 3841 H 368.709 2.77075 -1.48583 0
M  V30 3842 N 372.481 1.55866 -0.233164 0
M  V30 3843 C 373.444 2.1953 0.658715 0
M  V30 3844 C 374.444 1.16053 1.11303 0
M  V30 3845 O 375.634 1.41218 1.01996 0
M  V30 3846 C 372.766 2.82791 1.90373 0
M  V30 3847 H 373.959 2.99721 0.10347 0
M  V30 3848 H 371.512 1.56291 0.0164245 0
M  V30 3849 H 372.247 2.06501 2.50056 0
M  V30 3850 H 372.032 3.58578 1.58632 0
M  V30 3851 H 373.522 3.31556 2.53891 0
M  V30 3852 N 373.959 -0.0401083 1.57549 0
M  V30 3853 C 374.922 -1.02871 2.04817 0
M  V30 3854 C 375.922 -1.29708 0.950388 0
M  V30 3855 O 377.112 -1.24897 1.21435 0
M  V30 3856 C 374.244 -2.36443 2.45576 0
M  V30 3857 H 375.437 -0.620631 2.93408 0
M  V30 3858 H 372.99 -0.286667 1.53649 0
M  V30 3859 H 373.725 -2.82021 1.60108 0
M  V30 3860 H 373.51 -2.18296 3.25713 0
M  V30 3861 H 375 -3.07441 2.82612 0
M  V30 3862 N 375.437 -1.54477 -0.31217 0
M  V30 3863 C 376.367 -1.87652 -1.38957 0
M  V30 3864 C 377.348 -0.734358 -1.53431 0
M  V30 3865 O 378.533 -0.98911 -1.67123 0
M  V30 3866 C 375.663 -2.11396 -2.75552 0
M  V30 3867 C 374.617 -3.27243 -2.75855 0
M  V30 3868 C 373.943 -3.36382 -4.15633 0
M  V30 3869 C 375.243 -4.64622 -2.38587 0
M  V30 3870 H 376.937 -2.77887 -1.11442 0
M  V30 3871 H 374.483 -1.33707 -0.534655 0
M  V30 3872 H 376.436 -2.33189 -3.51 0
M  V30 3873 H 375.16 -1.17921 -3.04569 0
M  V30 3874 H 373.819 -3.05356 -2.02863 0
M  V30 3875 H 373.467 -2.40445 -4.41809 0
M  V30 3876 H 373.167 -4.14249 -4.1674 0
M  V30 3877 H 374.691 -3.60422 -4.92877 0
M  V30 3878 H 376.105 -4.86219 -3.03749 0
M  V30 3879 H 374.502 -5.45121 -2.50925 0
M  V30 3880 H 375.572 -4.66097 -1.33723 0
M  V30 3881 N 376.915 0.57481 -1.46744 0
M  V30 3882 C 378.331 0.898981 -1.31873 0
M  V30 3883 C 378.531 1.99313 -0.29605 0
M  V30 3884 O 377.587 2.50728 0.298621 0
M  V30 3885 C 378.9 1.30886 -2.7072 0
M  V30 3886 C 380.448 1.42127 -2.78871 0
M  V30 3887 C 380.923 1.86478 -4.18318 0
M  V30 3888 N 382.414 1.93658 -4.20774 0
M  V30 3889 C 383.149 2.29267 -5.2557 0
M  V30 3890 N 382.645 2.63612 -6.40688 0
M  V30 3891 N 384.438 2.29889 -5.1294 0
M  V30 3892 H 376.589 -0.147839 -2.11885 0
M  V30 3893 H 378.852 -0.00347013 -0.947994 0
M  V30 3894 H 378.558 0.578853 -3.46904 0
M  V30 3895 H 378.432 2.26874 -3.01343 0
M  V30 3896 H 380.819 2.14213 -2.0297 0
M  V30 3897 H 380.9 0.443705 -2.51922 0
M  V30 3898 H 380.544 1.14968 -4.94717 0
M  V30 3899 H 380.474 2.85207 -4.42679 0
M  V30 3900 H 382.965 1.69574 -3.37718 0
M  V30 3901 H 383.278 2.89759 -7.16421 0
M  V30 3902 H 381.623 2.61232 -6.44036 0
M  V30 3903 H 384.814 2.02485 -4.22039 0
M  V30 3904 H 384.987 2.57312 -5.94722 0
M  V30 3905 N 378.394 1.34581 0.820102 0
M  V30 3906 C 379.64 1.27285 1.57881 0
M  V30 3907 C 379.973 -0.156137 1.93571 0
M  V30 3908 O 379.248 -1.10222 1.60254 0
M  V30 3909 C 379.531 2.16639 2.87645 0
M  V30 3910 C 379.384 3.68088 2.58517 0
M  V30 3911 C 380.703 2.05378 3.8924 0
M  V30 3912 H 377.822 0.463714 0.572833 0
M  V30 3913 H 380.464 1.64859 0.944539 0
M  V30 3914 H 378.614 1.84725 3.41773 0
M  V30 3915 H 380.286 4.10382 2.10676 0
M  V30 3916 H 378.529 3.89038 1.91917 0
M  V30 3917 H 379.2 4.2598 3.51063 0
M  V30 3918 H 381.676 2.33404 3.44473 0
M  V30 3919 H 380.552 2.7012 4.77835 0
M  V30 3920 H 380.813 1.0316 4.29896 0
M  V30 3921 N 379.872 -1.04064 1.18357 0
M  V30 3922 C 381.097 -1.81454 1.00445 0
M  V30 3923 C 381.522 -1.82823 -0.442423 0
M  V30 3924 O 380.88 -1.24555 -1.31741 0
M  V30 3925 C 380.928 -3.24925 1.56384 0
M  V30 3926 O 380.032 -4.04856 0.785209 0
M  V30 3927 H 379.373 -0.560604 0.355835 0
M  V30 3928 H 381.903 -1.31059 1.57114 0
M  V30 3929 H 381.913 -3.75702 1.59097 0
M  V30 3930 H 380.588 -3.23244 2.61699 0
M  V30 3931 H 379.165 -3.63537 0.830399 0
M  V30 3932 N 381.35 -0.985608 -1.22978 0
M  V30 3933 C 382.313 -0.535071 -2.22867 0
M  V30 3934 C 383.313 0.378123 -1.56291 0
M  V30 3935 O 384.503 0.171092 -1.73358 0
M  V30 3936 C 381.635 0.222702 -3.40172 0
M  V30 3937 H 382.828 -1.41835 -2.6424 0
M  V30 3938 H 380.381 -0.772042 -1.35901 0
M  V30 3939 H 381.116 1.12229 -3.04262 0
M  V30 3940 H 380.901 -0.43288 -3.89703 0
M  V30 3941 H 382.391 0.526335 -4.1427 0
M  V30 3942 N 382.828 1.3818 -0.7579 0
M  V30 3943 C 384.053 2.04827 -0.325679 0
M  V30 3944 C 384.478 1.56788 1.03919 0
M  V30 3945 O 383.836 0.721811 1.66312 0
M  V30 3946 C 383.884 3.58774 -0.362447 0
M  V30 3947 O 382.988 4.07372 0.642033 0
M  V30 3948 H 382.329 0.64833 -0.143402 0
M  V30 3949 H 384.859 1.7677 -1.03023 0
M  V30 3950 H 384.869 4.07434 -0.214844 0
M  V30 3951 H 383.544 3.93096 -1.35824 0
M  V30 3952 H 382.121 3.70068 0.458688 0
M  V30 3953 N 384.306 0.507319 1.49211 0
M  V30 3954 C 385.717 0.0611118 1.866 0
M  V30 3955 C 386.068 -1.35488 1.41907 0
M  V30 3956 O 385.193 -2.0108 0.799726 0
M  V30 3957 C 385.788 0.104125 3.3864 0
M  V30 3958 C 384.347 -0.28677 3.75306 0
M  V30 3959 C 383.494 0.473893 2.73221 0
M  V30 3960 H 386.445 0.719775 1.41439 0
M  V30 3961 H 386.466 -0.689672 3.74198 0
M  V30 3962 H 385.978 1.13482 3.71138 0
M  V30 3963 H 384.079 -1.32046 3.48417 0
M  V30 3964 H 384.192 0.0370745 4.79086 0
M  V30 3965 H 382.556 -0.0770644 2.54583 0
M  V30 3966 H 383.339 1.50478 3.08563 0
M  V30 3967 N 385.784 -1.5574 0.241426 0
M  V30 3968 C 387.031 -1.9881 -0.384836 0
M  V30 3969 C 387.359 -1.12947 -1.58346 0
M  V30 3970 O 386.614 -0.178993 -1.9488 0
M  V30 3971 C 386.913 -3.47308 -0.843317 0
M  V30 3972 C 386.579 -4.50223 0.246946 0
M  V30 3973 C 385.241 -4.78088 0.546399 0
M  V30 3974 C 387.593 -5.11841 0.983282 0
M  V30 3975 C 384.921 -5.64846 1.58636 0
M  V30 3976 C 387.273 -5.99727 2.01272 0
M  V30 3977 C 385.937 -6.25927 2.31888 0
M  V30 3978 H 385.207 -0.727496 -0.140821 0
M  V30 3979 H 387.854 -1.8831 0.348106 0
M  V30 3980 H 386.159 -3.55112 -1.65537 0
M  V30 3981 H 387.856 -3.78017 -1.33806 0
M  V30 3982 H 384.446 -4.286 0.00340639 0
M  V30 3983 H 388.63 -4.90366 0.765182 0
M  V30 3984 H 383.886 -5.83403 1.82896 0
M  V30 3985 H 388.06 -6.46517 2.58823 0
M  V30 3986 H 385.687 -6.92949 3.12611 0
M  V30 3987 N 387.262 0.0317525 -1.57568 0
M  V30 3988 C 388.51 0.721676 -1.88776 0
M  V30 3989 C 388.831 1.76039 -0.838772 0
M  V30 3990 O 388.101 1.95482 0.127935 0
M  V30 3991 H 386.681 0.269534 -0.696678 0
M  V30 3992 H 389.343 -0.00165879 -1.949 0
M  V30 3993 H 388.439 1.21293 -2.87566 0
M  V30 3994 N 388.74 1.54641 0.303973 0
M  V30 3995 C 390.017 1.64455 1.05896 0
M  V30 3996 C 390.397 0.490923 2.05312 0
M  V30 3997 O 389.745 -0.512685 2.22674 0
M  V30 3998 C 389.955 3.02331 1.74347 0
M  V30 3999 C 391.303 3.59045 2.26653 0
M  V30 4000 O 392.327 3.04764 1.84384 0
M  V30 4001 O 391.186 4.54081 3.04093 0
M  V30 4002 H 388.28 0.666729 0.489287 0
M  V30 4003 H 390.826 1.66986 0.302298 0
M  V30 4004 H 389.598 3.77734 1.02142 0
M  V30 4005 H 389.221 3.03565 2.56777 0
M  V30 4006 N 390.218 -0.567019 1.47046 0
M  V30 4007 C 391.181 -1.65696 1.58359 0
M  V30 4008 C 392.181 -1.54097 0.459441 0
M  V30 4009 O 393.371 -1.58432 0.724225 0
M  V30 4010 C 390.503 -3.05197 1.51879 0
M  V30 4011 H 391.696 -1.57019 2.5551 0
M  V30 4012 H 389.249 -0.786148 1.3509 0
M  V30 4013 H 389.984 -3.19417 0.560673 0
M  V30 4014 H 389.769 -3.15025 2.33455 0
M  V30 4015 H 391.259 -3.84511 1.62913 0
M  V30 4016 N 391.696 -1.35014 -0.812953 0
M  V30 4017 C 392.659 -1.27292 -1.90602 0
M  V30 4018 C 393.659 -0.185817 -1.59723 0
M  V30 4019 O 394.849 -0.439102 -1.68575 0
M  V30 4020 C 391.981 -0.967676 -3.26877 0
M  V30 4021 H 393.174 -2.24479 -1.9887 0
M  V30 4022 H 390.727 -1.19446 -1.00808 0
M  V30 4023 H 391.462 0.0005954 -3.243 0
M  V30 4024 H 391.247 -1.75412 -3.50675 0
M  V30 4025 H 392.737 -0.939085 -4.06904 0
M  V30 4026 N 393.175 1.03435 -1.18907 0
M  V30 4027 C 394.591 1.28973 -0.940111 0
M  V30 4028 C 394.791 1.97676 0.390691 0
M  V30 4029 O 393.847 2.26127 1.12352 0
M  V30 4030 C 395.16 2.14221 -2.11021 0
M  V30 4031 C 396.708 2.27547 -2.14922 0
M  V30 4032 C 397.183 3.16164 -3.31367 0
M  V30 4033 N 398.674 3.23752 -3.31269 0
M  V30 4034 C 399.409 3.92495 -4.18014 0
M  V30 4035 N 398.905 4.63515 -5.14904 0
M  V30 4036 N 400.698 3.88838 -4.05908 0
M  V30 4037 H 392.849 0.57252 -2.04538 0
M  V30 4038 H 395.112 0.315184 -0.894071 0
M  V30 4039 H 394.818 1.71054 -3.073 0
M  V30 4040 H 394.692 3.14919 -2.0762 0
M  V30 4041 H 397.079 2.69947 -1.19217 0
M  V30 4042 H 397.16 1.26418 -2.22378 0
M  V30 4043 H 396.804 2.74474 -4.27348 0
M  V30 4044 H 396.734 4.17339 -3.21148 0
M  V30 4045 H 399.225 2.73167 -2.61129 0
M  V30 4046 H 399.538 5.13583 -5.77453 0
M  V30 4047 H 397.883 4.62398 -5.18857 0
M  V30 4048 H 401.074 3.32491 -3.29495 0
M  V30 4049 H 401.247 4.4214 -4.73726 0
M  V30 4050 N 394.653 0.992116 1.22453 0
M  V30 4051 C 395.586 0.486701 2.22949 0
M  V30 4052 C 396.564 -0.45259 1.56174 0
M  V30 4053 O 397.748 -0.378317 1.84665 0
M  V30 4054 C 394.875 -0.294537 3.37417 0
M  V30 4055 C 393.921 0.590628 4.22391 0
M  V30 4056 S 394.754 2.04546 4.94895 0
M  V30 4057 C 395.91 1.27369 6.12803 0
M  V30 4058 H 396.143 1.33828 2.65475 0
M  V30 4059 H 393.676 0.799023 1.32117 0
M  V30 4060 H 395.634 -0.739241 4.03789 0
M  V30 4061 H 394.295 -1.12139 2.934 0
M  V30 4062 H 393.488 -0.0104375 5.03999 0
M  V30 4063 H 393.09 0.972064 3.61147 0
M  V30 4064 H 395.382 0.540943 6.75337 0
M  V30 4065 H 396.325 2.06502 6.7732 0
M  V30 4066 H 396.733 0.787324 5.58983 0
M  V30 4067 N 396.131 -1.37776 0.765217 0
M  V30 4068 C 397.094 -2.28686 0.153416 0
M  V30 4069 C 398.094 -1.47727 -0.635081 0
M  V30 4070 O 399.284 -1.68027 -0.459632 0
M  V30 4071 C 396.416 -3.31608 -0.790495 0
M  V30 4072 H 397.609 -2.84297 0.954723 0
M  V30 4073 H 395.162 -1.46932 0.53299 0
M  V30 4074 H 395.897 -2.81109 -1.61705 0
M  V30 4075 H 395.682 -3.9144 -0.227348 0
M  V30 4076 H 397.172 -3.99559 -1.21419 0
M  V30 4077 N 397.609 -0.515225 -1.4894 0
M  V30 4078 C 398.539 0.244628 -2.32215 0
M  V30 4079 C 399.52 0.949136 -1.41157 0
M  V30 4080 O 400.705 0.937783 -1.70057 0
M  V30 4081 C 397.835 1.30096 -3.22013 0
M  V30 4082 C 396.789 0.715486 -4.21977 0
M  V30 4083 C 396.115 1.87339 -5.00808 0
M  V30 4084 C 397.415 -0.302982 -5.2142 0
M  V30 4085 H 399.109 -0.450501 -2.95991 0
M  V30 4086 H 396.655 -0.218098 -1.42339 0
M  V30 4087 H 398.608 1.84037 -3.79089 0
M  V30 4088 H 397.332 2.02547 -2.56207 0
M  V30 4089 H 395.991 0.197715 -3.66066 0
M  V30 4090 H 395.639 2.58592 -4.31438 0
M  V30 4091 H 395.339 1.48764 -5.68457 0
M  V30 4092 H 396.863 2.41686 -5.60732 0
M  V30 4093 H 398.277 0.148802 -5.73107 0
M  V30 4094 H 396.674 -0.60532 -5.97039 0
M  V30 4095 H 397.744 -1.21395 -4.69459 0
M  V30 4096 N 399.087 1.5561 -0.249682 0
M  V30 4097 C 400.335 1.98618 0.373548 0
M  V30 4098 C 400.656 1.13919 1.58264 0
M  V30 4099 O 399.926 0.222637 1.94631 0
M  V30 4100 H 398.506 0.733571 0.141006 0
M  V30 4101 H 401.168 1.91748 -0.349117 0
M  V30 4102 H 400.264 3.04584 0.680796 0
M  V30 4103 N 400.565 -0.0233959 1.57583 0
M  V30 4104 C 401.842 -0.748794 1.807 0
M  V30 4105 C 402.222 -1.9327 0.849106 0
M  V30 4106 O 401.57 -2.28247 -0.107468 0
M  V30 4107 C 401.78 -1.17651 3.28571 0
M  V30 4108 C 403.128 -1.59008 3.93702 0
M  V30 4109 O 404.152 -1.27094 3.32755 0
M  V30 4110 O 403.011 -2.18264 5.01022 0
M  V30 4111 H 400.105 -0.362578 0.743281 0
M  V30 4112 H 402.651 0.000261958 1.697 0
M  V30 4113 H 401.423 -0.331603 3.89892 0
M  V30 4114 H 401.046 -1.98541 3.44481 0
M  V30 4115 N 402.043 -1.548 -0.295768 0
M  V30 4116 C 403.271 -1.78327 -1.04914 0
M  V30 4117 C 403.686 -0.545316 -1.80753 0
M  V30 4118 O 403.043 0.485013 -1.75937 0
M  V30 4119 C 403.094 -2.99418 -2.02561 0
M  V30 4120 O 402.815 -4.18431 -1.29798 0
M  V30 4121 C 404.316 -3.35375 -2.89895 0
M  V30 4122 H 401.536 -0.594618 -0.310918 0
M  V30 4123 H 404.08 -2.01763 -0.333454 0
M  V30 4124 H 402.235 -2.78175 -2.69624 0
M  V30 4125 H 402.649 -4.86736 -1.95419 0
M  V30 4126 H 404.123 -4.23332 -3.54251 0
M  V30 4127 H 404.6 -2.53761 -3.58472 0
M  V30 4128 H 405.206 -3.58796 -2.28355 0
M  V30 4129 N 403.521 0.559213 -1.47345 0
M  V30 4130 C 404.484 1.64854 -1.59235 0
M  V30 4131 C 405.484 1.53851 -0.467607 0
M  V30 4132 O 406.674 1.58045 -0.732617 0
M  V30 4133 C 403.806 3.04388 -1.53496 0
M  V30 4134 H 404.999 1.55662 -2.56339 0
M  V30 4135 H 402.552 0.778973 -1.35505 0
M  V30 4136 H 403.287 3.19115 -0.577604 0
M  V30 4137 H 403.072 3.13783 -2.35123 0
M  V30 4138 H 404.562 3.83642 -1.6495 0
M  V30 4139 N 404.999 1.35443 0.805782 0
M  V30 4140 C 406.247 1.28507 1.55982 0
M  V30 4141 C 406.568 -0.140046 1.94496 0
M  V30 4142 O 405.838 -1.07666 1.63661 0
M  V30 4143 H 404.418 0.472676 0.578434 0
M  V30 4144 H 407.08 1.69555 0.961098 0
M  V30 4145 H 406.176 1.90148 2.47488 0
M  V30 4146 N 406.477 -1.02803 1.19454 0
M  V30 4147 C 407.44 -2.09264 0.934955 0
M  V30 4148 C 408.44 -1.60576 -0.0849015 0
M  V30 4149 O 409.63 -1.73554 0.149933 0
M  V30 4150 C 406.762 -3.38482 0.40531 0
M  V30 4151 H 407.955 -2.33726 1.87916 0
M  V30 4152 H 405.508 -1.19426 1.00832 0
M  V30 4153 H 406.243 -3.19689 -0.544899 0
M  V30 4154 H 406.028 -3.75142 1.14065 0
M  V30 4155 H 407.518 -4.16894 0.242806 0
M  V30 4156 N 407.956 -0.998596 -1.21925 0
M  V30 4157 C 409.205 -0.673085 -1.90138 0
M  V30 4158 C 409.518 0.79895 -1.78539 0
M  V30 4159 O 410.724 1.23628 -2.4172 0
M  V30 4160 C 409.18 -1.15339 -3.40918 0
M  V30 4161 C 408.788 -2.65106 -3.61141 0
M  V30 4162 C 410.532 -0.902476 -4.14796 0
M  V30 4163 C 408.439 -3.0671 -5.05651 0
M  V30 4164 H 407.369 -0.248057 -0.712028 0
M  V30 4165 H 410.02 -1.20891 -1.38049 0
M  V30 4166 H 408.402 -0.545658 -3.92223 0
M  V30 4167 H 409.576 -3.31274 -3.20304 0
M  V30 4168 H 407.891 -2.88142 -3.00605 0
M  V30 4169 H 410.488 -1.18895 -5.21314 0
M  V30 4170 H 410.831 0.161349 -4.15987 0
M  V30 4171 H 411.364 -1.47269 -3.69536 0
M  V30 4172 H 408.103 -4.12292 -5.09603 0
M  V30 4173 H 407.623 -2.45249 -5.47369 0
M  V30 4174 H 409.302 -2.9833 -5.74115 0
M  V30 4175 N 409.434 1.37368 -0.772513 0
M  V30 4176 C 410.68 1.99969 -0.337681 0
M  V30 4177 C 411.013 1.61184 1.08321 0
M  V30 4178 O 410.288 0.858395 1.74533 0
M  V30 4179 C 410.571 3.56858 -0.482121 0
M  V30 4180 C 410.424 4.0555 -1.94549 0
M  V30 4181 C 411.743 4.39955 0.113143 0
M  V30 4182 H 408.862 0.726464 -0.124171 0
M  V30 4183 H 411.504 1.63034 -0.975699 0
M  V30 4184 H 409.654 3.88452 0.0610361 0
M  V30 4185 H 411.326 3.84518 -2.54841 0
M  V30 4186 H 409.569 3.57715 -2.45403 0
M  V30 4187 H 410.24 5.14587 -1.9976 0
M  V30 4188 H 412.716 4.14623 -0.35031 0
M  V30 4189 H 411.592 5.48897 -0.0180514 0
M  V30 4190 H 411.853 4.25403 1.20354 0
M  V30 4191 N 410.912 0.523116 1.48665 0
M  V30 4192 C 412.137 -0.0117284 2.07397 0
M  V30 4193 C 412.562 -1.28031 1.37803 0
M  V30 4194 O 411.92 -1.75836 0.441762 0
M  V30 4195 C 411.968 -0.225786 3.59892 0
M  V30 4196 O 411.072 -1.29592 3.91509 0
M  V30 4197 H 410.413 0.0360673 0.66302 0
M  V30 4198 H 412.943 0.729066 1.9117 0
M  V30 4199 H 412.953 -0.450552 4.05505 0
M  V30 4200 H 411.628 0.700944 4.09951 0
M  V30 4201 H 410.205 -1.05436 3.57684 0
M  V30 4202 N 412.39 -1.55475 0.257931 0
M  V30 4203 C 413.637 -1.99207 -0.363728 0
M  V30 4204 C 413.965 -1.1462 -1.57139 0
M  V30 4205 O 413.22 -0.199653 -1.94679 0
M  V30 4206 C 413.519 -3.48183 -0.806433 0
M  V30 4207 C 413.185 -4.49936 0.294684 0
M  V30 4208 C 411.847 -4.77481 0.597076 0
M  V30 4209 C 414.199 -5.10769 1.03751 0
M  V30 4210 C 411.527 -5.63132 1.64618 0
M  V30 4211 C 413.879 -5.97558 2.07622 0
M  V30 4212 C 412.543 -6.23432 2.38514 0
M  V30 4213 H 411.813 -0.728949 -0.133097 0
M  V30 4214 H 414.46 -1.8793 0.368059 0
M  V30 4215 H 412.765 -3.56848 -1.61761 0
M  V30 4216 H 414.462 -3.79415 -1.29789 0
M  V30 4217 H 411.052 -4.28572 0.0488649 0
M  V30 4218 H 415.236 -4.89527 0.817149 0
M  V30 4219 H 410.492 -5.8143 1.89074 0
M  V30 4220 H 414.666 -6.43735 2.65666 0
M  V30 4221 H 412.293 -6.89594 3.19943 0
M  V30 4222 N 413.868 0.0150385 -1.57593 0
M  V30 4223 C 415.108 0.70768 -1.91758 0
M  V30 4224 C 415.472 1.71764 -0.857974 0
M  V30 4225 O 416.673 2.45956 -1.0844 0
M  V30 4226 C 414.944 1.34736 -3.3103 0
M  V30 4227 S 416.503 2.06721 -3.87056 0
M  V30 4228 H 413.321 0.234119 -0.671349 0
M  V30 4229 H 415.923 -0.0380373 -1.95463 0
M  V30 4230 H 414.627 0.59926 -4.06001 0
M  V30 4231 H 414.158 2.13133 -3.30663 0
M  V30 4232 H 416.173 3.34047 -3.66915 0
M  V30 4233 N 415.346 1.54954 0.287554 0
M  V30 4234 C 416.309 1.86076 1.33823 0
M  V30 4235 C 417.309 0.734414 1.43049 0
M  V30 4236 O 418.499 1.00266 1.42452 0
M  V30 4237 C 415.631 2.05305 2.72144 0
M  V30 4238 H 416.824 2.79984 1.07465 0
M  V30 4239 H 414.377 1.47223 0.524902 0
M  V30 4240 H 415.112 1.1373 3.03704 0
M  V30 4241 H 414.897 2.873 2.66836 0
M  V30 4242 H 416.387 2.30706 3.48087 0
M  V30 4243 N 416.824 -0.551391 1.4764 0
M  V30 4244 C 417.787 -1.64007 1.60107 0
M  V30 4245 C 418.787 -1.53601 0.47576 0
M  V30 4246 O 419.977 -1.57655 0.740988 0
M  V30 4247 C 417.109 -3.03569 1.55108 0
M  V30 4248 H 418.302 -1.543 2.57161 0
M  V30 4249 H 415.855 -0.771776 1.35917 0
M  V30 4250 H 416.59 -3.18804 0.594519 0
M  V30 4251 H 416.375 -3.12532 2.36783 0
M  V30 4252 H 417.865 -3.82762 1.66982 0
M  V30 4253 N 418.302 -1.35869 -0.798587 0
M  V30 4254 C 419.265 -1.29307 -1.89242 0
M  V30 4255 C 420.265 -0.202747 -1.59517 0
M  V30 4256 O 421.455 -0.456957 -1.681 0
M  V30 4257 C 418.587 -1.00229 -3.25833 0
M  V30 4258 H 419.78 -2.26576 -1.96478 0
M  V30 4259 H 417.333 -1.20509 -0.995358 0
M  V30 4260 H 418.068 -0.033801 -3.24282 0
M  V30 4261 H 417.853 -1.79121 -3.48795 0
M  V30 4262 H 419.343 -0.98219 -4.05885 0
M  V30 4263 N 419.78 1.02168 -1.19998 0
M  V30 4264 C 421.028 1.75338 -1.00504 0
M  V30 4265 C 421.349 1.89387 0.464506 0
M  V30 4266 O 420.619 1.43268 1.33608 0
M  V30 4267 H 419.199 0.649564 -0.368885 0
M  V30 4268 H 421.861 1.23205 -1.51018 0
M  V30 4269 H 420.957 2.75892 -1.45912 0
M  V30 4270 N 421.258 1.00505 1.21394 0
M  V30 4271 C 422.498 0.696149 1.9218 0
M  V30 4272 C 422.862 -0.759099 1.76357 0
M  V30 4273 O 424.063 -1.17998 2.41516 0
M  V30 4274 C 422.334 1.10571 3.39866 0
M  V30 4275 S 423.893 0.91702 4.29111 0
M  V30 4276 H 420.711 0.254147 0.664026 0
M  V30 4277 H 423.313 1.28988 1.46909 0
M  V30 4278 H 422.017 2.16096 3.489 0
M  V30 4279 H 421.548 0.504268 3.90155 0
M  V30 4280 H 423.563 -0.185855 4.95852 0
M  V30 4281 N 422.737 -1.36956 0.779787 0
M  V30 4282 C 423.667 -2.32761 0.185651 0
M  V30 4283 C 424.648 -1.56177 -0.673989 0
M  V30 4284 O 425.833 -1.84378 -0.609797 0
M  V30 4285 C 422.963 -3.40418 -0.687964 0
M  V30 4286 C 421.917 -4.27941 0.0710102 0
M  V30 4287 C 421.243 -5.26681 -0.922573 0
M  V30 4288 C 422.543 -5.07006 1.25467 0
M  V30 4289 H 424.237 -2.82698 0.986008 0
M  V30 4290 H 421.783 -1.3592 0.475592 0
M  V30 4291 H 423.736 -4.06423 -1.11348 0
M  V30 4292 H 422.46 -2.89025 -1.52093 0
M  V30 4293 H 421.119 -3.63478 0.47739 0
M  V30 4294 H 420.767 -4.71565 -1.7503 0
M  V30 4295 H 420.467 -5.86103 -0.419237 0
M  V30 4296 H 421.991 -5.9556 -1.34686 0
M  V30 4297 H 423.405 -5.66105 0.905401 0
M  V30 4298 H 421.802 -5.75793 1.69063 0
M  V30 4299 H 422.872 -4.3921 2.05481 0
M  V30 4300 N 424.215 -0.530993 -1.48385 0
M  V30 4301 C 425.463 0.00273189 -2.021 0
M  V30 4302 C 425.784 1.34672 -1.41027 0
M  V30 4303 O 425.054 1.8724 -0.576012 0
M  V30 4304 H 423.634 0.00399774 -0.746989 0
M  V30 4305 H 426.296 -0.695054 -1.82085 0
M  V30 4306 H 425.392 0.11031 -3.11905 0
M  V30 4307 N 425.693 1.55336 -0.266172 0
M  V30 4308 C 426.918 2.04258 0.359661 0
M  V30 4309 C 427.343 1.14359 1.49344 0
M  V30 4310 O 426.701 0.140369 1.80756 0
M  V30 4311 C 426.749 3.50997 0.826635 0
M  V30 4312 O 425.853 3.64204 1.93466 0
M  V30 4313 H 425.194 0.659668 0.075727 0
M  V30 4314 H 427.724 2.00694 -0.39786 0
M  V30 4315 H 427.734 3.9219 1.12477 0
M  V30 4316 H 426.409 4.159 -0.00293032 0
M  V30 4317 H 424.986 3.34913 1.63974 0
M  V30 4318 N 427.171 -0.0066808 1.57599 0
M  V30 4319 C 428.101 -0.999296 2.11036 0
M  V30 4320 C 429.082 -1.36278 1.01795 0
M  V30 4321 O 430.267 -1.4477 1.29442 0
M  V30 4322 C 427.397 -2.29328 2.60818 0
M  V30 4323 C 426.351 -2.07159 3.74525 0
M  V30 4324 C 425.677 -3.42512 4.10596 0
M  V30 4325 C 426.977 -1.43959 5.02069 0
M  V30 4326 H 428.671 -0.554382 2.94223 0
M  V30 4327 H 426.217 -0.265221 1.41536 0
M  V30 4328 H 428.17 -2.99117 2.96828 0
M  V30 4329 H 426.894 -2.7592 1.74745 0
M  V30 4330 H 425.553 -1.39797 3.38899 0
M  V30 4331 H 425.201 -3.86795 3.21556 0
M  V30 4332 H 424.901 -3.28498 4.87199 0
M  V30 4333 H 426.425 -4.13628 4.4916 0
M  V30 4334 H 427.839 -2.03696 5.35893 0
M  V30 4335 H 426.236 -1.40452 5.83432 0
M  V30 4336 H 427.306 -0.407992 4.83181 0
M  V30 4337 N 428.649 -1.55105 -0.279332 0
M  V30 4338 C 429.897 -1.75066 -1.00977 0
M  V30 4339 C 430.218 -0.551276 -1.87045 0
M  V30 4340 O 429.488 0.433984 -1.91032 0
M  V30 4341 H 428.068 -0.645578 -0.375816 0
M  V30 4342 H 430.73 -1.92497 -0.305089 0
M  V30 4343 H 429.826 -2.64894 -1.65038 0
M  V30 4344 N 430.127 0.543554 -1.4793 0
M  V30 4345 C 431.375 1.29752 -1.54948 0
M  V30 4346 C 431.696 1.93764 -0.219242 0
M  V30 4347 O 430.966 1.80639 0.75805 0
M  V30 4348 H 429.546 0.481874 -0.570795 0
M  V30 4349 H 432.208 0.633636 -1.84312 0
M  V30 4350 H 431.304 2.08392 -2.32334 0
M  V30 4351 N 431.605 1.3629 0.791371 0
M  V30 4352 C 432.851 1.31613 1.5508 0
M  V30 4353 C 433.206 -0.104372 1.92117 0
M  V30 4354 O 432.499 -1.05845 1.5971 0
M  V30 4355 C 432.693 2.17068 2.8393 0
M  V30 4356 C 432.522 3.67285 2.59484 0
M  V30 4357 C 431.292 4.36469 2.54604 0
M  V30 4358 C 433.49 4.60595 2.28816 0
M  V30 4359 N 431.472 5.7234 2.22036 0
M  V30 4360 C 432.843 5.847 2.06218 0
M  V30 4361 C 434.898 4.4918 2.14806 0
M  V30 4362 C 433.601 6.98671 1.71028 0
M  V30 4363 C 435.627 5.63017 1.81014 0
M  V30 4364 C 434.989 6.86159 1.59263 0
M  V30 4365 H 431.088 0.536878 0.568582 0
M  V30 4366 H 433.672 1.71323 0.925007 0
M  V30 4367 H 431.843 1.79605 3.44378 0
M  V30 4368 H 433.575 2.03795 3.49642 0
M  V30 4369 H 430.33 3.89249 2.69782 0
M  V30 4370 H 430.754 6.44093 2.08503 0
M  V30 4371 H 435.396 3.54564 2.30313 0
M  V30 4372 H 433.114 7.9324 1.54259 0
M  V30 4373 H 436.7 5.56146 1.70861 0
M  V30 4374 H 435.58 7.72753 1.335 0
M  V30 4375 N 433.083 -1.0153 1.20538 0
M  V30 4376 C 434.311 -1.78746 1.04199 0
M  V30 4377 C 434.726 -1.84323 -0.408733 0
M  V30 4378 O 434.083 -1.29714 -1.28377 0
M  V30 4379 C 434.134 -3.23152 1.62035 0
M  V30 4380 O 433.855 -3.17918 3.0143 0
M  V30 4381 C 435.356 -4.16911 1.50666 0
M  V30 4382 H 432.576 -0.56208 0.366479 0
M  V30 4383 H 435.12 -1.27794 1.59653 0
M  V30 4384 H 433.275 -3.71248 1.10697 0
M  V30 4385 H 433.689 -4.08567 3.28897 0
M  V30 4386 H 435.163 -5.16072 1.95892 0
M  V30 4387 H 435.64 -4.36791 0.459363 0
M  V30 4388 H 436.246 -3.74698 2.01201 0
M  V30 4389 N 434.561 -1.01147 -1.20859 0
M  V30 4390 C 435.491 -0.597663 -2.25722 0
M  V30 4391 C 436.472 0.384744 -1.65692 0
M  V30 4392 O 437.657 0.271303 -1.92296 0
M  V30 4393 C 434.787 0.0700149 -3.47229 0
M  V30 4394 C 433.741 -0.832843 -4.19819 0
M  V30 4395 C 433.067 -0.0312202 -5.34691 0
M  V30 4396 C 434.367 -2.1385 -4.76514 0
M  V30 4397 H 436.061 -1.47423 -2.60589 0
M  V30 4398 H 433.607 -0.710301 -1.25263 0
M  V30 4399 H 435.56 0.37103 -4.19763 0
M  V30 4400 H 434.284 0.981259 -3.11511 0
M  V30 4401 H 432.943 -1.11778 -3.49144 0
M  V30 4402 H 432.591 0.881515 -4.95215 0
M  V30 4403 H 432.291 -0.632434 -5.84187 0
M  V30 4404 H 433.815 0.26346 -6.10031 0
M  V30 4405 H 435.229 -1.9002 -5.40893 0
M  V30 4406 H 433.626 -2.69012 -5.36426 0
M  V30 4407 H 434.696 -2.80495 -3.95538 0
M  V30 4408 N 436.039 1.36541 -0.78704 0
M  V30 4409 C 436.969 2.32659 -0.197992 0
M  V30 4410 C 437.95 1.56533 0.665697 0
M  V30 4411 O 439.135 1.84698 0.60001 0
M  V30 4412 C 436.265 3.40778 0.669901 0
M  V30 4413 C 435.219 4.27897 -0.0937039 0
M  V30 4414 C 434.545 5.27163 0.894629 0
M  V30 4415 C 435.845 5.06334 -1.28154 0
M  V30 4416 H 437.539 2.82171 -1.00099 0
M  V30 4417 H 435.085 1.35665 -0.482793 0
M  V30 4418 H 437.038 4.07008 1.09191 0
M  V30 4419 H 435.762 2.89827 1.50558 0
M  V30 4420 H 434.421 3.6322 -0.49666 0
M  V30 4421 H 434.069 4.72486 1.72527 0
M  V30 4422 H 433.769 5.86317 0.388149 0
M  V30 4423 H 435.293 5.96266 1.31525 0
M  V30 4424 H 436.707 5.65617 -0.93541 0
M  V30 4425 H 435.104 5.74888 -1.72115 0
M  V30 4426 H 436.174 4.38114 -2.07807 0
M  V30 4427 N 437.518 0.538854 1.48102 0
M  V30 4428 C 438.481 -0.208395 2.28251 0
M  V30 4429 C 439.481 -0.859656 1.35892 0
M  V30 4430 O 440.671 -0.71834 1.58699 0
M  V30 4431 C 437.803 -1.30252 3.15035 0
M  V30 4432 H 438.996 0.495407 2.9578 0
M  V30 4433 H 436.549 0.295112 1.53489 0
M  V30 4434 H 437.284 -2.0393 2.52157 0
M  V30 4435 H 437.069 -0.840551 3.82985 0
M  V30 4436 H 438.559 -1.82787 3.75471 0
M  V30 4437 N 438.996 -1.55193 0.274407 0
M  V30 4438 C 440.244 -1.99187 -0.341902 0
M  V30 4439 C 440.565 -1.16422 -1.56431 0
M  V30 4440 O 439.835 -0.253573 -1.94252 0
M  V30 4441 H 438.415 -0.735721 -0.129317 0
M  V30 4442 H 441.077 -1.91168 0.379578 0
M  V30 4443 H 440.173 -3.05629 -0.632253 0
M  V30 4444 N 440.474 -0.00167713 -1.576 0
M  V30 4445 C 441.406 1.0174 -2.05382 0
M  V30 4446 C 442.419 1.30595 -0.972052 0
M  V30 4447 O 443.608 1.27542 -1.24882 0
M  V30 4448 C 440.708 2.35174 -2.44022 0
M  V30 4449 C 439.881 2.25234 -3.74951 0
M  V30 4450 C 438.94 3.4137 -4.00441 0
M  V30 4451 O 437.966 3.19483 -4.71083 0
M  V30 4452 N 439.168 4.64275 -3.48467 0
M  V30 4453 H 441.933 0.609902 -2.93428 0
M  V30 4454 H 439.494 0.185672 -1.60832 0
M  V30 4455 H 441.486 3.11643 -2.58187 0
M  V30 4456 H 440.056 2.67659 -1.61485 0
M  V30 4457 H 439.276 1.33664 -3.70847 0
M  V30 4458 H 440.564 2.15767 -4.60784 0
M  V30 4459 H 439.962 4.84955 -2.91264 0
M  V30 4460 H 438.519 5.38005 -3.67959 0
M  V30 4461 N 441.952 1.55251 0.271103 0
M  V30 4462 C 443.18 1.79974 1.02064 0
M  V30 4463 C 443.595 0.574003 1.79863 0
M  V30 4464 O 442.952 -0.456962 1.76686 0
M  V30 4465 C 443.003 3.02603 1.97772 0
M  V30 4466 O 442.724 4.20443 1.23124 0
M  V30 4467 C 444.225 3.39944 2.84522 0
M  V30 4468 H 441.445 0.599489 0.301419 0
M  V30 4469 H 443.989 2.02268 0.301313 0
M  V30 4470 H 442.144 2.8243 2.65165 0
M  V30 4471 H 442.558 4.89783 1.87651 0
M  V30 4472 H 444.032 4.28915 3.47471 0
M  V30 4473 H 444.509 2.59432 3.54389 0
M  V30 4474 H 445.115 3.62383 2.22618 0
M  V30 4475 N 443.43 -0.535701 1.48216 0
M  V30 4476 C 444.393 -1.623 1.61838 0
M  V30 4477 C 445.393 -1.53087 0.492024 0
M  V30 4478 O 446.583 -1.5686 0.757668 0
M  V30 4479 C 443.715 -3.01907 1.58319 0
M  V30 4480 H 444.908 -1.51564 2.58783 0
M  V30 4481 H 442.461 -0.757317 1.36727 0
M  V30 4482 H 443.196 -3.18155 0.628299 0
M  V30 4483 H 442.981 -3.10003 2.40085 0
M  V30 4484 H 444.471 -3.80969 1.71033 0
M  V30 4485 N 444.908 -1.36708 -0.784132 0
M  V30 4486 C 445.855 -1.31466 -1.89698 0
M  V30 4487 C 446.825 -0.18239 -1.65096 0
M  V30 4488 O 448.01 -0.369762 -1.87183 0
M  V30 4489 C 445.15 -1.1151 -3.26588 0
M  V30 4490 C 444.263 -2.33859 -3.63227 0
M  V30 4491 C 443.398 -2.06873 -4.89262 0
M  V30 4492 C 442.437 -3.25154 -5.18595 0
M  V30 4493 N 441.574 -2.978 -6.35814 0
M  V30 4494 H 446.414 -2.26619 -1.93515 0
M  V30 4495 H 443.951 -1.12625 -0.946256 0
M  V30 4496 H 445.909 -0.979653 -4.05535 0
M  V30 4497 H 444.539 -0.200103 -3.22179 0
M  V30 4498 H 443.591 -2.58188 -2.79362 0
M  V30 4499 H 444.903 -3.22109 -3.8085 0
M  V30 4500 H 444.057 -1.90289 -5.76086 0
M  V30 4501 H 442.796 -1.15942 -4.73718 0
M  V30 4502 H 441.801 -3.42292 -4.30251 0
M  V30 4503 H 443.026 -4.1692 -5.36055 0
M  V30 4504 H 440.972 -2.09485 -6.21653 0
M  V30 4505 H 440.889 -3.7959 -6.53794 0
M  V30 4506 H 442.157 -2.84805 -7.25607 0
M  V30 4507 N 446.386 1.0089 -1.21074 0
M  V30 4508 C 447.349 2.0775 -0.968129 0
M  V30 4509 C 448.349 1.6069 0.0593445 0
M  V30 4510 O 449.539 1.73293 -0.177525 0
M  V30 4511 C 446.671 3.37794 -0.459108 0
M  V30 4512 H 447.864 2.30707 -1.9161 0
M  V30 4513 H 445.417 1.17807 -1.02719 0
M  V30 4514 H 446.152 3.20516 0.49397 0
M  V30 4515 H 445.937 3.7328 -1.20019 0
M  V30 4516 H 447.427 4.16454 -0.309099 0
M  V30 4517 N 447.864 1.01787 1.20321 0
M  V30 4518 C 448.827 0.593972 2.2137 0
M  V30 4519 C 449.827 -0.336553 1.57239 0
M  V30 4520 O 451.017 -0.125069 1.7375 0
M  V30 4521 C 448.149 -0.132433 3.40643 0
M  V30 4522 H 449.342 1.48791 2.60387 0
M  V30 4523 H 446.895 0.807803 1.33807 0
M  V30 4524 H 447.63 -1.04123 3.0713 0
M  V30 4525 H 447.415 0.53605 3.88418 0
M  V30 4526 H 448.905 -0.416314 4.1552 0
M  V30 4527 N 449.342 -1.36122 0.79427 0
M  V30 4528 C 450.305 -2.28309 0.201889 0
M  V30 4529 C 451.305 -1.49041 -0.603603 0
M  V30 4530 O 452.495 -1.68964 -0.423888 0
M  V30 4531 C 449.627 -3.3321 -0.719978 0
M  V30 4532 H 450.82 -2.82208 1.01481 0
M  V30 4533 H 448.373 -1.45768 0.564037 0
M  V30 4534 H 449.108 -2.84475 -1.55706 0
M  V30 4535 H 448.893 -3.91835 -0.144266 0
M  V30 4536 H 450.383 -4.02044 -1.12916 0
M  V30 4537 N 450.82 -0.546701 -1.47814 0
M  V30 4538 C 452.097 0.0464413 -1.95545 0
M  V30 4539 C 452.477 1.4962 -1.48919 0
M  V30 4540 O 451.825 2.16752 -0.723232 0
M  V30 4541 C 452.035 -0.0881298 -3.48889 0
M  V30 4542 C 453.383 0.0626059 -4.24554 0
M  V30 4543 O 454.407 -0.0151555 -3.56197 0
M  V30 4544 O 453.266 0.228071 -5.46024 0
M  V30 4545 H 450.36 0.0700004 -0.824032 0
M  V30 4546 H 452.906 -0.612482 -1.58262 0
M  V30 4547 H 451.678 -1.09737 -3.75597 0
M  V30 4548 H 451.301 0.608886 -3.9291 0
M  V30 4549 N 452.299 1.55045 -0.282633 0
M  V30 4550 C 453.576 1.9179 0.384166 0
M  V30 4551 C 453.956 1.20778 1.73136 0
M  V30 4552 O 453.304 0.33719 2.25998 0
M  V30 4553 C 453.514 3.45149 0.517014 0
M  V30 4554 C 454.862 4.17064 0.796427 0
M  V30 4555 O 455.886 3.51084 0.601535 0
M  V30 4556 O 454.745 5.33837 1.16962 0
M  V30 4557 H 451.839 0.799483 0.211558 0
M  V30 4558 H 454.385 1.66474 -0.32934 0
M  V30 4559 H 453.157 3.88922 -0.430772 0
M  V30 4560 H 452.78 3.76443 1.2797 0
M  V30 4561 N 453.777 0.010035 1.57597 0
M  V30 4562 C 455.025 -0.671371 1.90623 0
M  V30 4563 C 455.346 -1.73753 0.885151 0
M  V30 4564 O 454.616 -1.95752 -0.0760611 0
M  V30 4565 H 453.196 -0.250968 0.703579 0
M  V30 4566 H 455.858 0.0533325 1.94827 0
M  V30 4567 H 454.954 -1.13626 2.90681 0
M  V30 4568 N 455.255 -1.55392 -0.262866 0
M  V30 4569 C 456.185 -1.91978 -1.32917 0
M  V30 4570 C 457.166 -0.7828 -1.51017 0
M  V30 4571 O 458.351 -1.04178 -1.63892 0
M  V30 4572 C 455.481 -2.20055 -2.68687 0
M  V30 4573 C 454.435 -3.35854 -2.65304 0
M  V30 4574 C 453.761 -3.49435 -4.04721 0
M  V30 4575 C 455.061 -4.71977 -2.23685 0
M  V30 4576 H 456.755 -2.81292 -1.02544 0
M  V30 4577 H 454.301 -1.3534 -0.491846 0
M  V30 4578 H 456.254 -2.44237 -3.43404 0
M  V30 4579 H 454.978 -1.27551 -3.00663 0
M  V30 4580 H 453.637 -3.11655 -1.93045 0
M  V30 4581 H 453.285 -2.54379 -4.33936 0
M  V30 4582 H 452.985 -4.27297 -4.0335 0
M  V30 4583 H 454.509 -3.7592 -4.81161 0
M  V30 4584 H 455.923 -4.95637 -2.88127 0
M  V30 4585 H 454.32 -5.52828 -2.33456 0
M  V30 4586 H 455.39 -4.70115 -1.18827 0
M  V30 4587 N 456.733 0.527833 -1.48498 0
M  V30 4588 C 457.98 1.28354 -1.56625 0
M  V30 4589 C 458.308 1.93 -0.241096 0
M  V30 4590 O 457.563 1.79967 0.768798 0
M  V30 4591 C 457.862 2.39275 -2.65485 0
M  V30 4592 C 457.528 1.92268 -4.07853 0
M  V30 4593 C 456.19 1.79166 -4.46602 0
M  V30 4594 C 458.542 1.56771 -4.97064 0
M  V30 4595 C 455.87 1.28905 -5.72364 0
M  V30 4596 C 458.222 1.07972 -6.23318 0
M  V30 4597 C 456.886 0.934887 -6.60921 0
M  V30 4598 H 456.156 0.469682 -0.573131 0
M  V30 4599 H 458.803 0.588781 -1.82224 0
M  V30 4600 H 457.108 3.1443 -2.33754 0
M  V30 4601 H 458.805 2.974 -2.68988 0
M  V30 4602 H 455.395 2.03417 -3.77252 0
M  V30 4603 H 459.579 1.65753 -4.67803 0
M  V30 4604 H 454.835 1.16381 -6.00221 0
M  V30 4605 H 459.009 0.795775 -6.91838 0
M  V30 4606 H 456.636 0.543231 -7.58257 0
M  V30 4607 N 458.211 1.37122 0.776871 0
M  V30 4608 C 459.622 1.28667 1.35284 0
M  V30 4609 C 459.973 -0.0680035 1.96082 0
M  V30 4610 O 459.098 -0.969743 1.93455 0
M  V30 4611 C 459.693 2.32997 2.45963 0
M  V30 4612 C 458.252 2.28191 2.99342 0
M  V30 4613 C 457.399 2.17101 1.72517 0
M  V30 4614 H 460.35 1.47819 0.577527 0
M  V30 4615 H 460.371 1.97366 3.2531 0
M  V30 4616 H 459.883 3.3158 2.01684 0
M  V30 4617 H 457.984 1.33115 3.4801 0
M  V30 4618 H 458.097 3.21397 3.55304 0
M  V30 4619 H 456.461 1.63562 1.95242 0
M  V30 4620 H 457.244 3.17591 1.30348 0
M  V30 4621 N 459.689 -1.00246 1.21608 0
M  V30 4622 C 461.1 -1.55511 1.03312 0
M  V30 4623 C 461.451 -1.91946 -0.406332 0
M  V30 4624 O 460.576 -1.73753 -1.28992 0
M  V30 4625 C 461.171 -2.82576 1.86913 0
M  V30 4626 C 459.73 -3.34318 1.72941 0
M  V30 4627 C 458.877 -2.07487 1.83968 0
M  V30 4628 H 461.828 -0.824638 1.35593 0
M  V30 4629 H 461.849 -3.54559 1.38087 0
M  V30 4630 H 461.361 -2.56026 2.91672 0
M  V30 4631 H 459.462 -3.65797 0.70877 0
M  V30 4632 H 459.575 -4.05566 2.55055 0
M  V30 4633 H 457.939 -2.20603 1.27304 0
M  V30 4634 H 458.722 -1.83346 2.9024 0
M  V30 4635 N 461.167 -1.02423 -1.1978 0
M  V30 4636 C 462.416 -0.713265 -1.88667 0
M  V30 4637 C 462.729 0.7609 -1.80193 0
M  V30 4638 O 463.935 1.18473 -2.44288 0
M  V30 4639 C 462.391 -1.22545 -3.38394 0
M  V30 4640 C 461.999 -2.72706 -3.55437 0
M  V30 4641 C 463.743 -0.990257 -4.12788 0
M  V30 4642 C 461.65 -3.17367 -4.99031 0
M  V30 4643 H 460.58 -0.263105 -0.706606 0
M  V30 4644 H 463.231 -1.23792 -1.35454 0
M  V30 4645 H 461.613 -0.628732 -3.90977 0
M  V30 4646 H 462.787 -3.37993 -3.13205 0
M  V30 4647 H 461.102 -2.94453 -2.94425 0
M  V30 4648 H 463.699 -1.29926 -5.18675 0
M  V30 4649 H 464.042 0.0730761 -4.16236 0
M  V30 4650 H 464.575 -1.55074 -3.66329 0
M  V30 4651 H 461.314 -4.23009 -5.00743 0
M  V30 4652 H 460.834 -2.56805 -5.42044 0
M  V30 4653 H 462.513 -3.10441 -5.67658 0
M  V30 4654 N 462.645 1.35699 -0.801477 0
M  V30 4655 C 463.892 1.98913 -0.379459 0
M  V30 4656 C 464.22 1.63592 1.05204 0
M  V30 4657 O 463.475 0.888563 1.74365 0
M  V30 4658 C 463.774 3.53828 -0.504041 0
M  V30 4659 C 463.44 4.09002 -1.8981 0
M  V30 4660 C 462.102 4.23783 -2.27951 0
M  V30 4661 C 464.454 4.38939 -2.81038 0
M  V30 4662 C 461.782 4.65816 -3.56696 0
M  V30 4663 C 464.134 4.82409 -4.09224 0
M  V30 4664 C 462.798 4.95395 -4.4737 0
M  V30 4665 H 462.068 0.727874 -0.138854 0
M  V30 4666 H 464.715 1.61994 -1.02128 0
M  V30 4667 H 463.02 3.91175 0.221242 0
M  V30 4668 H 464.717 4.00687 -0.158361 0
M  V30 4669 H 461.307 3.97946 -1.59176 0
M  V30 4670 H 465.491 4.27077 -2.52821 0
M  V30 4671 H 460.747 4.74059 -3.86106 0
M  V30 4672 H 464.921 5.04535 -4.80018 0
M  V30 4673 H 462.548 5.27724 -5.47185 0
M  V30 4674 N 464.123 0.554532 1.47522 0
M  V30 4675 C 465.086 -0.184174 2.28459 0
M  V30 4676 C 466.086 -0.845195 1.36796 0
M  V30 4677 O 467.276 -0.701467 1.59452 0
M  V30 4678 C 464.408 -1.26903 3.16399 0
M  V30 4679 H 465.601 0.526751 2.95238 0
M  V30 4680 H 463.154 0.311375 1.53167 0
M  V30 4681 H 463.889 -2.01244 2.54306 0
M  V30 4682 H 463.674 -0.799883 3.83854 0
M  V30 4683 H 465.164 -1.78794 3.77389 0
M  V30 4684 N 465.601 -1.54893 0.290851 0
M  V30 4685 C 467.017 -1.59476 -0.0628432 0
M  V30 4686 C 467.217 -1.30795 -1.5328 0
M  V30 4687 O 466.273 -1.07644 -2.28406 0
M  V30 4688 C 467.586 -2.98928 0.325962 0
M  V30 4689 C 469.134 -3.11799 0.273882 0
M  V30 4690 C 469.609 -4.53544 0.637359 0
M  V30 4691 N 471.1 -4.59433 0.589507 0
M  V30 4692 C 471.835 -5.67164 0.84335 0
M  V30 4693 N 471.331 -6.82975 1.16263 0
M  V30 4694 N 473.124 -5.56786 0.771091 0
M  V30 4695 H 465.275 -1.71798 1.24896 0
M  V30 4696 H 467.538 -0.801879 0.505663 0
M  V30 4697 H 467.244 -3.24805 1.34887 0
M  V30 4698 H 467.118 -3.75793 -0.325441 0
M  V30 4699 H 469.505 -2.85677 -0.739765 0
M  V30 4700 H 469.586 -2.37112 0.959766 0
M  V30 4701 H 469.23 -4.80394 1.64877 0
M  V30 4702 H 469.16 -5.26553 -0.0704866 0
M  V30 4703 H 471.651 -3.76245 0.353252 0
M  V30 4704 H 471.964 -7.61048 1.34257 0
M  V30 4705 H 470.309 -6.84552 1.20057 0
M  V30 4706 H 473.5 -4.65187 0.521383 0
M  V30 4707 H 473.673 -6.40664 0.972295 0
M  V30 4708 N 467.08 -0.0183926 -1.57589 0
M  V30 4709 C 468.326 0.663543 -1.91638 0
M  V30 4710 C 468.659 1.72392 -0.894134 0
M  V30 4711 O 467.934 1.94316 0.0846449 0
M  V30 4712 C 468.217 1.28984 -3.36207 0
M  V30 4713 C 468.07 0.239761 -4.49161 0
M  V30 4714 C 469.389 2.2109 -3.80536 0
M  V30 4715 H 466.508 0.239746 -0.696915 0
M  V30 4716 H 469.15 -0.073456 -1.89858 0
M  V30 4717 H 467.3 1.91799 -3.37854 0
M  V30 4718 H 468.972 -0.390119 -4.59647 0
M  V30 4719 H 467.215 -0.435972 -4.31604 0
M  V30 4720 H 467.886 0.717383 -5.47319 0
M  V30 4721 H 470.362 1.68273 -3.80557 0
M  V30 4722 H 469.238 2.61869 -4.82406 0
M  V30 4723 H 469.499 3.09764 -3.15434 0
M  V30 4724 N 468.558 1.5553 0.254621 0
M  V30 4725 C 469.506 1.9048 1.33492 0
M  V30 4726 C 470.5 0.78304 1.50216 0
M  V30 4727 O 471.706 0.967582 1.51782 0
M  V30 4728 H 468.081 0.604846 0.44684 0
M  V30 4729 H 470.052 2.80688 1.01275 0
M  V30 4730 C 468.801 2.20928 2.68489 0
M  V30 4731 H 468.124 3.06742 2.56417 0
M  V30 4732 H 469.564 2.49291 3.42972 0
M  V30 4733 C 468.023 1.023 3.20993 0
M  V30 4734 O 468.553 0.267027 4.00811 0
M  V30 4735 N 466.759 0.815714 2.78917 0
M  V30 4736 H 466.306 1.43217 2.14119 0
M  V30 4737 H 466.264 0.0236532 3.14391 0
M  V30 4738 N 470.036 -0.519951 1.48776 0
M  V30 4739 C 470.983 -1.62352 1.64044 0
M  V30 4740 C 471.953 -1.58945 0.482251 0
M  V30 4741 O 473.138 -1.77219 0.706971 0
M  V30 4742 C 470.278 -3.00579 1.69547 0
M  V30 4743 C 469.391 -3.14145 2.96541 0
M  V30 4744 C 468.526 -4.42991 2.93142 0
M  V30 4745 C 467.565 -4.50122 4.14797 0
M  V30 4746 N 466.702 -5.7037 4.09418 0
M  V30 4747 H 471.542 -1.48643 2.58281 0
M  V30 4748 H 469.079 -0.723516 1.28077 0
M  V30 4749 H 471.037 -3.80671 1.70719 0
M  V30 4750 H 469.667 -3.13036 0.787918 0
M  V30 4751 H 468.719 -2.27239 3.05068 0
M  V30 4752 H 470.031 -3.15275 3.86527 0
M  V30 4753 H 469.185 -5.31385 2.92772 0
M  V30 4754 H 467.924 -4.44398 2.00902 0
M  V30 4755 H 466.929 -3.60133 4.15433 0
M  V30 4756 H 468.154 -4.50445 5.08208 0
M  V30 4757 H 466.1 -5.72655 3.20004 0
M  V30 4758 H 466.017 -5.73036 4.93119 0
M  V30 4759 H 467.285 -6.61023 4.13121 0
M  V30 4760 N 471.514 -1.37532 -0.769588 0
M  V30 4761 C 472.477 -1.33292 -1.86456 0
M  V30 4762 C 473.477 -0.236537 -1.59051 0
M  V30 4763 O 474.667 -0.492511 -1.67093 0
M  V30 4764 C 471.799 -1.07118 -3.23633 0
M  V30 4765 H 472.992 -2.30692 -1.91628 0
M  V30 4766 H 470.545 -1.22593 -0.969572 0
M  V30 4767 H 471.28 -0.102578 -3.24138 0
M  V30 4768 H 471.065 -1.86479 -3.44917 0
M  V30 4769 H 472.555 -1.06806 -4.03711 0
M  V30 4770 N 472.992 0.995999 -1.22138 0
M  V30 4771 C 474.24 1.73167 -1.042 0
M  V30 4772 C 474.561 1.90329 0.42423 0
M  V30 4773 O 473.831 1.4607 1.30539 0
M  V30 4774 H 472.411 0.641593 -0.38258 0
M  V30 4775 H 475.073 1.19974 -1.53598 0
M  V30 4776 H 474.169 2.72734 -1.51731 0
M  V30 4777 N 474.47 1.03057 1.19235 0
M  V30 4778 C 475.698 0.747697 1.92917 0
M  V30 4779 C 476.113 -0.69372 1.75593 0
M  V30 4780 O 475.47 -1.47191 1.07894 0
M  V30 4781 C 475.521 1.09159 3.44625 0
M  V30 4782 O 475.242 2.47641 3.61394 0
M  V30 4783 C 476.743 0.831763 4.35427 0
M  V30 4784 H 473.963 0.273453 0.612751 0
M  V30 4785 H 476.507 1.37552 1.51327 0
M  V30 4786 H 474.662 0.508919 3.84043 0
M  V30 4787 H 475.076 2.60499 4.55237 0
M  V30 4788 H 476.55 1.12233 5.4047 0
M  V30 4789 H 477.027 -0.233769 4.38577 0
M  V30 4790 H 477.633 1.39725 4.01693 0
M  V30 4791 N 475.948 -1.35272 0.808662 0
M  V30 4792 C 477.359 -1.81179 0.450688 0
M  V30 4793 C 477.71 -1.67143 -1.02751 0
M  V30 4794 O 476.835 -1.20325 -1.79864 0
M  V30 4795 C 477.43 -3.28943 0.811275 0
M  V30 4796 C 475.989 -3.72985 0.505871 0
M  V30 4797 C 475.136 -2.57229 1.03578 0
M  V30 4798 H 478.087 -1.2322 1.00012 0
M  V30 4799 H 478.108 -3.80342 0.109588 0
M  V30 4800 H 477.62 -3.39127 1.88718 0
M  V30 4801 H 475.721 -3.68349 -0.561209 0
M  V30 4802 H 475.834 -4.67677 1.03995 0
M  V30 4803 H 474.198 -2.50548 0.458005 0
M  V30 4804 H 474.981 -2.7019 2.11784 0
M  V30 4805 N 477.426 -0.562348 -1.47226 0
M  V30 4806 C 478.672 -0.0402761 -2.0276 0
M  V30 4807 C 479.005 1.30823 -1.43523 0
M  V30 4808 O 478.28 1.85249 -0.592705 0
M  V30 4809 C 478.563 0.047311 -3.60069 0
M  V30 4810 C 478.416 -1.32865 -4.29729 0
M  V30 4811 C 479.735 0.758182 -4.3352 0
M  V30 4812 H 476.854 -0.0161105 -0.736824 0
M  V30 4813 H 479.496 -0.725628 -1.75598 0
M  V30 4814 H 477.646 0.630986 -3.83342 0
M  V30 4815 H 479.318 -1.95593 -4.17781 0
M  V30 4816 H 477.561 -1.90195 -3.89882 0
M  V30 4817 H 478.232 -1.22004 -5.38349 0
M  V30 4818 H 480.708 0.262546 -4.15271 0
M  V30 4819 H 479.584 0.78844 -5.43208 0
M  V30 4820 H 479.845 1.81537 -4.03109 0
M  V30 4821 N 478.904 1.54736 -0.299062 0
M  V30 4822 C 479.867 2.22127 0.565012 0
M  V30 4823 C 480.867 1.20669 1.06281 0
M  V30 4824 O 482.057 1.45417 0.959145 0
M  V30 4825 C 479.189 2.90611 1.78208 0
M  V30 4826 H 480.382 2.99891 -0.0237448 0
M  V30 4827 H 477.935 1.5622 -0.0498788 0
M  V30 4828 H 478.67 2.16921 2.41072 0
M  V30 4829 H 478.455 3.64984 1.43281 0
M  V30 4830 H 479.945 3.42026 2.396 0
M  V30 4831 N 480.382 0.0267497 1.57577 0
M  V30 4832 C 481.63 -0.651116 1.91324 0
M  V30 4833 C 481.951 -1.72804 0.90353 0
M  V30 4834 O 481.221 -1.95822 -0.0552946 0
M  V30 4835 H 479.801 -0.243491 0.706202 0
M  V30 4836 H 482.463 0.0739935 1.94759 0
M  V30 4837 H 481.559 -1.10536 2.9187 0
M  V30 4838 N 481.861 -1.55662 -0.24637 0
M  V30 4839 C 482.791 -1.93377 -1.30873 0
M  V30 4840 C 483.772 -0.798773 -1.50179 0
M  V30 4841 O 484.957 -1.0591 -1.62778 0
M  V30 4842 C 482.087 -2.22893 -2.66338 0
M  V30 4843 C 481.041 -3.38649 -2.61727 0
M  V30 4844 C 480.367 -3.53708 -4.00992 0
M  V30 4845 C 481.667 -4.74323 -2.18666 0
M  V30 4846 H 483.361 -2.82363 -0.995552 0
M  V30 4847 H 480.907 -1.35854 -0.477464 0
M  V30 4848 H 482.86 -2.47866 -3.40794 0
M  V30 4849 H 481.584 -1.30733 -2.99293 0
M  V30 4850 H 480.243 -3.13685 -1.89729 0
M  V30 4851 H 479.891 -2.58967 -4.31214 0
M  V30 4852 H 479.591 -4.31551 -3.98795 0
M  V30 4853 H 481.115 -3.81003 -4.77147 0
M  V30 4854 H 482.529 -4.98665 -2.82854 0
M  V30 4855 H 480.926 -5.55273 -2.27579 0
M  V30 4856 H 481.996 -4.71349 -1.13834 0
M  V30 4857 N 483.339 0.512053 -1.4905 0
M  V30 4858 C 484.588 1.26343 -1.57227 0
M  V30 4859 C 484.901 1.93876 -0.259155 0
M  V30 4860 O 486.107 2.70612 -0.219358 0
M  V30 4861 C 484.563 2.29343 -2.77362 0
M  V30 4862 C 484.171 1.67799 -4.15388 0
M  V30 4863 C 485.915 3.05378 -2.94864 0
M  V30 4864 C 483.822 2.68845 -5.2676 0
M  V30 4865 H 482.752 0.475231 -0.585382 0
M  V30 4866 H 485.403 0.53862 -1.75417 0
M  V30 4867 H 483.785 3.04938 -2.52643 0
M  V30 4868 H 484.959 0.982715 -4.50199 0
M  V30 4869 H 483.274 1.04194 -4.03153 0
M  V30 4870 H 485.871 3.80921 -3.75238 0
M  V30 4871 H 486.214 3.62327 -2.05 0
M  V30 4872 H 486.747 2.36898 -3.19569 0
M  V30 4873 H 483.486 2.16692 -6.18647 0
M  V30 4874 H 483.006 3.36647 -4.96416 0
M  V30 4875 H 484.685 3.31487 -5.5563 0
M  V30 4876 N 484.817 1.37938 0.762283 0
M  V30 4877 C 486.066 1.32989 1.51647 0
M  V30 4878 C 486.379 -0.0802922 1.95435 0
M  V30 4879 O 487.585 -0.252295 2.70325 0
M  V30 4880 C 486.041 2.33485 2.73885 0
M  V30 4881 C 485.649 3.80079 2.37157 0
M  V30 4882 C 487.393 2.37563 3.51801 0
M  V30 4883 C 485.3 4.72283 3.55954 0
M  V30 4884 H 484.23 0.494301 0.56937 0
M  V30 4885 H 486.881 1.63448 0.834083 0
M  V30 4886 H 485.263 1.96056 3.44061 0
M  V30 4887 H 486.437 4.26398 1.74704 0
M  V30 4888 H 484.752 3.79037 1.72395 0
M  V30 4889 H 487.349 3.0365 4.40114 0
M  V30 4890 H 487.692 1.39199 3.92338 0
M  V30 4891 H 488.225 2.73747 2.8863 0
M  V30 4892 H 484.964 5.7181 3.2049 0
M  V30 4893 H 484.484 4.30663 4.1748 0
M  V30 4894 H 486.163 4.89876 4.22647 0
M  V30 4895 N 486.295 -0.989507 1.22664 0
M  V30 4896 C 487.541 -1.7321 1.05481 0
M  V30 4897 C 487.874 -1.89852 -0.408635 0
M  V30 4898 O 487.149 -1.44416 -1.30285 0
M  V30 4899 C 487.432 -3.1357 1.77047 0
M  V30 4900 C 487.285 -3.04555 3.31008 0
M  V30 4901 C 488.604 -4.12812 1.5256 0
M  V30 4902 H 485.723 -0.628697 0.384589 0
M  V30 4903 H 488.365 -1.15258 1.51049 0
M  V30 4904 H 486.515 -3.63046 1.3831 0
M  V30 4905 H 488.187 -2.62674 3.7921 0
M  V30 4906 H 486.43 -2.41278 3.6051 0
M  V30 4907 H 487.101 -4.03894 3.76263 0
M  V30 4908 H 489.577 -3.72106 1.86215 0
M  V30 4909 H 488.453 -5.09132 2.05124 0
M  V30 4910 H 488.714 -4.39711 0.458936 0
M  V30 4911 N 487.773 -1.03688 -1.18687 0
M  V30 4912 C 489.021 -0.736572 -1.88199 0
M  V30 4913 C 489.342 0.737665 -1.80509 0
M  V30 4914 O 488.612 1.53204 -1.22088 0
M  V30 4915 H 487.192 -0.269466 -0.696704 0
M  V30 4916 H 489.854 -1.31282 -1.44052 0
M  V30 4917 H 488.95 -1.03802 -2.94332 0
M  V30 4918 N 489.251 1.34841 -0.815825 0
M  V30 4919 C 490.5 1.97755 -0.396976 0
M  V30 4920 C 490.813 1.65422 1.04379 0
M  V30 4921 O 492.019 2.21771 1.5662 0
M  V30 4922 C 490.475 3.53818 -0.658869 0
M  V30 4923 C 490.083 3.95051 -2.11278 0
M  V30 4924 C 491.827 4.23397 -0.305834 0
M  V30 4925 C 489.734 5.43997 -2.31994 0
M  V30 4926 H 488.664 0.739985 -0.1447 0
M  V30 4927 H 491.315 1.53781 -1.00118 0
M  V30 4928 H 489.697 3.95997 0.0154112 0
M  V30 4929 H 490.871 3.63998 -2.82564 0
M  V30 4930 H 489.186 3.38388 -2.42657 0
M  V30 4931 H 491.783 5.32899 -0.43854 0
M  V30 4932 H 492.126 4.09508 0.748952 0
M  V30 4933 H 492.659 3.8667 -0.934403 0
M  V30 4934 H 489.398 5.62865 -3.35952 0
M  V30 4935 H 488.918 5.76589 -1.65244 0
M  V30 4936 H 490.597 6.10584 -2.14001 0
M  V30 4937 N 490.729 0.570148 1.46925 0
M  V30 4938 C 491.659 -0.158274 2.32963 0
M  V30 4939 C 492.64 -0.896093 1.44583 0
M  V30 4940 O 493.825 -0.874022 1.7342 0
M  V30 4941 C 490.955 -1.18055 3.26619 0
M  V30 4942 C 489.909 -0.558379 4.24342 0
M  V30 4943 C 489.235 -1.68623 5.07415 0
M  V30 4944 C 490.535 0.496295 5.19937 0
M  V30 4945 H 492.229 0.560046 2.94115 0
M  V30 4946 H 489.775 0.270775 1.41431 0
M  V30 4947 H 491.728 -1.69841 3.85658 0
M  V30 4948 H 490.452 -1.92899 2.63548 0
M  V30 4949 H 489.111 -0.0617157 3.66548 0
M  V30 4950 H 488.759 -2.42402 4.40738 0
M  V30 4951 H 488.459 -1.27564 5.73586 0
M  V30 4952 H 489.983 -2.20709 5.69315 0
M  V30 4953 H 491.397 0.0640052 5.73264 0
M  V30 4954 H 489.794 0.82649 5.94381 0
M  V30 4955 H 490.864 1.38735 4.6463 0
M  V30 4956 N 492.207 -1.54576 0.307264 0
M  V30 4957 C 493.14 -2.19946 -0.608195 0
M  V30 4958 C 494.118 -1.17096 -1.12815 0
M  V30 4959 O 495.302 -1.45766 -1.19518 0
M  V30 4960 C 492.429 -2.84826 -1.8328 0
M  V30 4961 C 491.475 -4.01256 -1.44554 0
M  V30 4962 S 492.308 -5.33197 -0.49612 0
M  V30 4963 C 493.464 -6.01563 -1.72838 0
M  V30 4964 H 493.697 -2.97253 -0.0528544 0
M  V30 4965 H 491.23 -1.54129 0.0913837 0
M  V30 4966 H 493.188 -3.22832 -2.53554 0
M  V30 4967 H 491.849 -2.07353 -2.35931 0
M  V30 4968 H 491.042 -4.45457 -2.35762 0
M  V30 4969 H 490.644 -3.6484 -0.822671 0
M  V30 4970 H 492.936 -6.22751 -2.6681 0
M  V30 4971 H 493.879 -6.9552 -1.32882 0
M  V30 4972 H 494.287 -5.31279 -1.90795 0
M  V30 4973 N 493.685 -0.035106 -1.57561 0
M  V30 4974 C 494.913 0.652258 -1.9635 0
M  V30 4975 C 495.328 1.65317 -0.911897 0
M  V30 4976 O 494.685 1.82194 0.105657 0
M  V30 4977 C 494.736 1.35337 -3.35211 0
M  V30 4978 O 494.457 0.392548 -4.36338 0
M  V30 4979 C 495.958 2.13199 -3.88666 0
M  V30 4980 H 493.178 0.179444 -0.646561 0
M  V30 4981 H 495.722 -0.0966459 -2.04271 0
M  V30 4982 H 493.877 2.05362 -3.28489 0
M  V30 4983 H 494.291 0.891097 -5.16875 0
M  V30 4984 H 495.765 2.577 -4.88154 0
M  V30 4985 H 496.242 2.97353 -3.23231 0
M  V30 4986 H 496.848 1.48118 -3.98674 0
M  V30 4987 N 495.163 1.55791 0.238111 0
M  V30 4988 C 496.412 1.77234 0.962868 0
M  V30 4989 C 496.725 0.600661 1.86149 0
M  V30 4990 O 497.931 0.698315 2.62366 0
M  V30 4991 C 496.387 3.13808 1.76218 0
M  V30 4992 C 495.995 4.3865 0.910518 0
M  V30 4993 C 497.739 3.44585 2.47914 0
M  V30 4994 C 495.646 5.66252 1.70623 0
M  V30 4995 H 494.576 0.660731 0.36325 0
M  V30 4996 H 497.227 1.8221 0.217242 0
M  V30 4997 H 495.609 3.02963 2.55009 0
M  V30 4998 H 496.783 4.60507 0.164316 0
M  V30 4999 H 495.098 4.15271 0.30647 0
M  V30 5000 H 497.695 4.3714 3.07917 0
M  V30 5001 H 498.038 2.66314 3.19973 0
M  V30 5002 H 498.571 3.56685 1.76127 0
M  V30 5003 H 495.31 6.47369 1.02923 0
M  V30 5004 H 494.83 5.48483 2.42748 0
M  V30 5005 H 496.509 6.05829 2.27114 0
M  V30 5006 N 496.642 -0.504142 1.49319 0
M  V30 5007 C 497.889 -1.25846 1.58647 0
M  V30 5008 C 498.217 -1.92592 0.27177 0
M  V30 5009 O 497.472 -1.81167 -0.74007 0
M  V30 5010 C 497.771 -2.35021 2.69258 0
M  V30 5011 C 497.437 -1.85755 4.1086 0
M  V30 5012 C 496.099 -1.72038 4.49395 0
M  V30 5013 C 498.451 -1.48844 4.99495 0
M  V30 5014 C 495.779 -1.19783 5.74342 0
M  V30 5015 C 498.131 -0.980422 6.24956 0
M  V30 5016 C 496.795 -0.829622 6.62324 0
M  V30 5017 H 496.065 -0.460505 0.580531 0
M  V30 5018 H 498.712 -0.559716 1.83138 0
M  V30 5019 H 497.017 -3.10672 2.38726 0
M  V30 5020 H 498.714 -2.93083 2.73685 0
M  V30 5021 H 495.304 -1.9739 3.80441 0
M  V30 5022 H 499.488 -1.5829 4.70381 0
M  V30 5023 H 494.744 -1.06817 6.01997 0
M  V30 5024 H 498.918 -0.685608 6.93017 0
M  V30 5025 H 496.545 -0.42253 7.59025 0
M  V30 5026 N 498.12 -1.38341 -0.754957 0
M  V30 5027 C 499.052 -1.31347 -1.87831 0
M  V30 5028 C 500.065 -0.225955 -1.61224 0
M  V30 5029 O 501.254 -0.48341 -1.7183 0
M  V30 5030 C 498.354 -1.01201 -3.23437 0
M  V30 5031 C 497.527 -2.20834 -3.77559 0
M  V30 5032 C 496.586 -1.87454 -4.91678 0
M  V30 5033 O 495.612 -2.59934 -5.06382 0
M  V30 5034 N 496.814 -0.828682 -5.74555 0
M  V30 5035 H 499.579 -2.28147 -1.94342 0
M  V30 5036 H 497.14 -1.32184 -0.934828 0
M  V30 5037 H 499.132 -0.769249 -3.97322 0
M  V30 5038 H 497.702 -0.132011 -3.12321 0
M  V30 5039 H 496.922 -2.61184 -2.95256 0
M  V30 5040 H 498.21 -3.00678 -4.10451 0
M  V30 5041 H 497.608 -0.227591 -5.65242 0
M  V30 5042 H 496.165 -0.645802 -6.48593 0
M  V30 5043 N 499.598 0.982988 -1.23187 0
M  V30 5044 C 500.528 2.09301 -1.03515 0
M  V30 5045 C 501.509 1.70035 0.0471136 0
M  V30 5046 O 502.694 1.93847 -0.117029 0
M  V30 5047 C 499.824 3.4167 -0.622791 0
M  V30 5048 C 498.778 3.94828 -1.65211 0
M  V30 5049 C 498.104 5.23362 -1.09527 0
M  V30 5050 C 499.404 4.2439 -3.04451 0
M  V30 5051 H 501.098 2.26016 -1.96359 0
M  V30 5052 H 498.644 1.08611 -0.945501 0
M  V30 5053 H 500.597 4.18746 -0.472233 0
M  V30 5054 H 499.321 3.24811 0.341329 0
M  V30 5055 H 497.98 3.19895 -1.79061 0
M  V30 5056 H 497.628 5.02852 -0.122211 0
M  V30 5057 H 497.328 5.59895 -1.783 0
M  V30 5058 H 498.852 6.03062 -0.956511 0
M  V30 5059 H 500.266 4.92225 -2.93917 0
M  V30 5060 H 498.663 4.72118 -3.70438 0
M  V30 5061 H 499.733 3.31765 -3.53638 0
M  V30 5062 N 501.076 1.04316 1.18135 0
M  V30 5063 C 502.301 0.768047 1.92655 0
M  V30 5064 C 502.726 -0.66904 1.758 0
M  V30 5065 O 502.084 -1.46372 1.06981 0
M  V30 5066 C 502.132 1.14239 3.42026 0
M  V30 5067 O 501.236 0.269333 4.1152 0
M  V30 5068 H 500.577 0.282436 0.600937 0
M  V30 5069 H 503.107 1.39367 1.49793 0
M  V30 5070 H 503.117 1.10538 3.92741 0
M  V30 5071 H 501.792 2.18928 3.53615 0
M  V30 5072 H 500.369 0.366175 3.71098 0
M  V30 5073 N 502.554 -1.34406 0.822964 0
M  V30 5074 C 503.779 -2.0304 0.423034 0
M  V30 5075 C 504.204 -1.61568 -0.963196 0
M  V30 5076 O 503.562 -0.800339 -1.62678 0
M  V30 5077 C 503.61 -3.56636 0.53321 0
M  V30 5078 O 502.714 -4.09971 -0.446939 0
M  V30 5079 H 502.055 -0.64075 0.174171 0
M  V30 5080 H 504.585 -1.71653 1.11339 0
M  V30 5081 H 504.595 -4.05945 0.408991 0
M  V30 5082 H 503.27 -3.86168 1.54425 0
M  V30 5083 H 501.847 -3.71835 -0.281601 0
M  V30 5084 N 504.032 -0.577932 -1.46621 0
M  V30 5085 C 505.281 -0.0594281 -2.01612 0
M  V30 5086 C 505.594 1.30663 -1.45556 0
M  V30 5087 O 506.8 1.91621 -1.92337 0
M  V30 5088 C 505.256 -0.0556666 -3.59857 0
M  V30 5089 C 504.864 -1.41975 -4.24908 0
M  V30 5090 C 506.608 0.409143 -4.22524 0
M  V30 5091 C 504.515 -1.37397 -5.75218 0
M  V30 5092 H 503.445 -0.0184469 -0.753774 0
M  V30 5093 H 506.096 -0.728869 -1.68404 0
M  V30 5094 H 504.478 0.679843 -3.90121 0
M  V30 5095 H 505.652 -2.17461 -4.0626 0
M  V30 5096 H 503.967 -1.82419 -3.74316 0
M  V30 5097 H 506.564 0.46211 -5.32699 0
M  V30 5098 H 506.907 1.42565 -3.91128 0
M  V30 5099 H 507.44 -0.272152 -3.96868 0
M  V30 5100 H 504.179 -2.36714 -6.11267 0
M  V30 5101 H 503.699 -0.661239 -5.96144 0
M  V30 5102 H 505.378 -1.08484 -6.3784 0
M  V30 5103 N 505.51 1.54411 -0.315457 0
M  V30 5104 C 506.735 2.05299 0.294496 0
M  V30 5105 C 507.16 1.19052 1.4563 0
M  V30 5106 O 506.518 0.197804 1.80218 0
M  V30 5107 C 506.566 3.5345 0.714549 0
M  V30 5108 O 505.67 3.70175 1.81781 0
M  V30 5109 H 505.011 0.661743 0.0547019 0
M  V30 5110 H 507.541 1.99327 -0.461508 0
M  V30 5111 H 507.551 3.9557 0.999426 0
M  V30 5112 H 506.226 4.1568 -0.135244 0
M  V30 5113 H 504.803 3.3996 1.53236 0
M  V30 5114 N 506.988 0.0434614 1.5754 0
M  V30 5115 C 508.399 -0.493343 1.80064 0
M  V30 5116 C 508.75 -1.71388 0.955023 0
M  V30 5117 O 507.875 -2.15736 0.169434 0
M  V30 5118 C 508.47 -0.90179 3.26578 0
M  V30 5119 C 507.029 -1.38362 3.50047 0
M  V30 5120 C 506.176 -0.355129 2.75017 0
M  V30 5121 H 509.127 0.2694 1.56397 0
M  V30 5122 H 509.148 -1.76523 3.37075 0
M  V30 5123 H 508.66 -0.013271 3.88098 0
M  V30 5124 H 506.761 -2.29159 2.93798 0
M  V30 5125 H 506.874 -1.3811 4.58762 0
M  V30 5126 H 505.238 -0.826348 2.40922 0
M  V30 5127 H 506.021 0.525172 3.39259 0
M  V30 5128 N 508.466 -1.55915 -0.229846 0
M  V30 5129 C 509.414 -1.9258 -1.30444 0
M  V30 5130 C 510.408 -0.806839 -1.48951 0
M  V30 5131 O 511.614 -0.991606 -1.50224 0
M  V30 5132 H 507.989 -0.611878 -0.437161 0
M  V30 5133 H 509.96 -2.82264 -0.96797 0
M  V30 5134 C 508.709 -2.25171 -2.6494 0
M  V30 5135 H 508.032 -3.10782 -2.51504 0
M  V30 5136 H 509.472 -2.54716 -3.38963 0
M  V30 5137 C 507.931 -1.07394 -3.19324 0
M  V30 5138 O 508.461 -0.330759 -4.00336 0
M  V30 5139 N 506.667 -0.859984 -2.77584 0
M  V30 5140 H 506.214 -1.46605 -2.11813 0
M  V30 5141 H 506.172 -0.0736671 -3.14314 0
M  V30 5142 N 509.944 0.496216 -1.49584 0
M  V30 5143 C 510.907 1.57952 -1.66084 0
M  V30 5144 C 511.907 1.51729 -0.53244 0
M  V30 5145 O 513.097 1.54796 -0.79899 0
M  V30 5146 C 510.229 2.97604 -1.66268 0
M  V30 5147 H 511.422 1.44649 -2.6271 0
M  V30 5148 H 508.975 0.7208 -1.38687 0
M  V30 5149 H 509.71 3.16378 -0.712432 0
M  V30 5150 H 509.495 3.03528 -2.4822 0
M  V30 5151 H 510.985 3.76301 -1.81073 0
M  V30 5152 N 511.423 1.38739 0.74761 0
M  V30 5153 C 512.651 1.38521 1.53686 0
M  V30 5154 C 513.066 -0.0235129 1.88785 0
M  V30 5155 O 512.423 -0.991662 1.53207 0
M  V30 5156 C 512.474 2.24641 2.83229 0
M  V30 5157 O 512.195 3.60026 2.49625 0
M  V30 5158 C 513.696 2.32669 3.77333 0
M  V30 5159 H 510.916 0.473589 0.475347 0
M  V30 5160 H 513.46 1.82395 0.924786 0
M  V30 5161 H 511.615 1.84213 3.40799 0
M  V30 5162 H 512.029 4.05435 3.3275 0
M  V30 5163 H 513.503 2.97201 4.65162 0
M  V30 5164 H 513.98 1.3421 4.18192 0
M  V30 5165 H 514.586 2.73512 3.25685 0
M  V30 5166 N 512.901 -0.976442 1.23707 0
M  V30 5167 C 513.848 -2.06952 1.02174 0
M  V30 5168 C 514.818 -1.65984 -0.0621034 0
M  V30 5169 O 516.003 -1.90584 0.0907906 0
M  V30 5170 C 513.143 -3.39425 0.62327 0
M  V30 5171 C 512.256 -3.9364 1.77966 0
M  V30 5172 C 511.391 -5.14343 1.3276 0
M  V30 5173 C 510.43 -5.60733 2.45449 0
M  V30 5174 N 509.567 -6.72662 2.01172 0
M  V30 5175 H 514.407 -2.24704 1.95734 0
M  V30 5176 H 511.944 -1.10143 0.975034 0
M  V30 5177 H 513.902 -4.15526 0.37332 0
M  V30 5178 H 512.532 -3.21624 -0.275329 0
M  V30 5179 H 511.584 -3.14258 2.14351 0
M  V30 5180 H 512.896 -4.24035 2.62671 0
M  V30 5181 H 512.05 -5.97789 1.03601 0
M  V30 5182 H 510.789 -4.8561 0.450975 0
M  V30 5183 H 509.794 -4.75865 2.75378 0
M  V30 5184 H 511.019 -5.91483 3.33654 0
M  V30 5185 H 508.965 -6.45681 1.15895 0
M  V30 5186 H 508.882 -7.02462 2.79434 0
M  V30 5187 H 510.15 -7.59572 1.75129 0
M  V30 5188 N 514.379 -1.04941 -1.1758 0
M  V30 5189 C 515.289 -0.658826 -2.25159 0
M  V30 5190 C 516.305 0.318941 -1.71052 0
M  V30 5191 O 517.481 0.171669 -2.00667 0
M  V30 5192 C 514.546 -0.0369522 -3.4668 0
M  V30 5193 C 513.607 -1.06484 -4.15884 0
M  V30 5194 C 512.84 -0.472551 -5.31604 0
M  V30 5195 O 513.063 0.718736 -5.65854 0
M  V30 5196 O 511.997 -1.20557 -5.89703 0
M  V30 5197 H 515.823 -1.55533 -2.60851 0
M  V30 5198 H 513.408 -0.820819 -1.24832 0
M  V30 5199 H 515.29 0.308784 -4.20267 0
M  V30 5200 H 513.965 0.833238 -3.12792 0
M  V30 5201 H 512.872 -1.46253 -3.44327 0
M  V30 5202 H 514.205 -1.9061 -4.53794 0
M  V30 5203 N 515.857 1.33968 -0.830081 0
M  V30 5204 C 517.104 1.98063 -0.421566 0
M  V30 5205 C 517.432 1.65787 1.0171 0
M  V30 5206 O 516.687 0.925348 1.72441 0
M  V30 5207 C 516.986 3.52679 -0.57898 0
M  V30 5208 C 516.652 4.04884 -1.98443 0
M  V30 5209 C 515.314 4.18852 -2.36888 0
M  V30 5210 C 517.666 4.32879 -2.90285 0
M  V30 5211 C 514.994 4.58145 -3.66497 0
M  V30 5212 C 517.346 4.7362 -4.19364 0
M  V30 5213 C 516.01 4.85794 -4.57778 0
M  V30 5214 H 515.28 0.724765 -0.154262 0
M  V30 5215 H 517.927 1.59792 -1.05541 0
M  V30 5216 H 516.232 3.91556 0.138219 0
M  V30 5217 H 517.929 4.00261 -0.243317 0
M  V30 5218 H 514.519 3.9448 -1.67581 0
M  V30 5219 H 518.703 4.21619 -2.61823 0
M  V30 5220 H 513.959 4.65762 -3.96075 0
M  V30 5221 H 518.133 4.9424 -4.90612 0
M  V30 5222 H 515.76 5.15998 -5.58256 0
M  V30 5223 N 517.335 0.585699 1.46312 0
M  V30 5224 C 518.583 0.072278 2.01971 0
M  V30 5225 C 518.904 -1.29345 1.45928 0
M  V30 5226 O 518.174 -1.84973 0.645109 0
M  V30 5227 H 516.754 0.023729 0.746623 0
M  V30 5228 H 519.416 0.762155 1.7938 0
M  V30 5229 H 518.512 0.00552767 3.121 0
M  V30 5230 N 518.813 -1.54241 0.323641 0
M  V30 5231 C 519.743 -2.27289 -0.534993 0
M  V30 5232 C 520.724 -1.28087 -1.11927 0
M  V30 5233 O 521.909 -1.56899 -1.14439 0
M  V30 5234 C 519.039 -3.03075 -1.69596 0
M  V30 5235 C 517.993 -4.09614 -1.24098 0
M  V30 5236 C 517.319 -4.73242 -2.4889 0
M  V30 5237 C 518.619 -5.21087 -0.355789 0
M  V30 5238 H 520.313 -2.99308 0.0743257 0
M  V30 5239 H 517.859 -1.43952 0.0371874 0
M  V30 5240 H 519.812 -3.52907 -2.30293 0
M  V30 5241 H 518.536 -2.28673 -2.33187 0
M  V30 5242 H 517.195 -3.60666 -0.656945 0
M  V30 5243 H 516.843 -3.95455 -3.10845 0
M  V30 5244 H 516.543 -5.45209 -2.19138 0
M  V30 5245 H 518.067 -5.25848 -3.10348 0
M  V30 5246 H 519.481 -5.66675 -0.869042 0
M  V30 5247 H 517.878 -5.9991 -0.151045 0
M  V30 5248 H 518.948 -4.81005 0.613339 0
M  V30 5249 N 520.291 -0.0518155 -1.57515 0
M  V30 5250 C 521.537 0.622745 -1.93002 0
M  V30 5251 C 521.87 1.70456 -0.930499 0
M  V30 5252 O 521.145 1.94452 0.0434086 0
M  V30 5253 C 521.428 1.21824 -3.38867 0
M  V30 5254 C 521.281 0.144434 -4.49568 0
M  V30 5255 C 522.6 2.12968 -3.8514 0
M  V30 5256 H 519.719 0.22491 -0.701844 0
M  V30 5257 H 522.361 -0.113711 -1.89659 0
M  V30 5258 H 520.511 1.8459 -3.41846 0
M  V30 5259 H 522.183 -0.48753 -4.58717 0
M  V30 5260 H 520.426 -0.527424 -4.30582 0
M  V30 5261 H 521.097 0.601127 -5.48717 0
M  V30 5262 H 523.573 1.60163 -3.8404 0
M  V30 5263 H 522.449 2.51578 -4.87852 0
M  V30 5264 H 522.71 3.03004 -3.21934 0
M  V30 5265 N 521.769 1.56035 0.221574 0
M  V30 5266 C 522.994 1.83476 0.967026 0
M  V30 5267 C 523.419 0.632139 1.7716 0
M  V30 5268 O 522.777 -0.419082 1.7639 0
M  V30 5269 C 522.825 3.08907 1.86034 0
M  V30 5270 O 521.929 2.876 2.95567 0
M  V30 5271 H 521.27 0.604913 0.273817 0
M  V30 5272 H 523.8 2.03247 0.234893 0
M  V30 5273 H 523.81 3.3901 2.27016 0
M  V30 5274 H 522.485 3.96068 1.26898 0
M  V30 5275 H 521.062 2.6873 2.58532 0
M  V30 5276 N 523.247 -0.488276 1.49845 0
M  V30 5277 C 524.472 -1.26997 1.63971 0
M  V30 5278 C 524.897 -1.85427 0.315994 0
M  V30 5279 O 524.255 -1.66475 -0.718032 0
M  V30 5280 C 524.303 -2.36689 2.72049 0
M  V30 5281 O 523.407 -3.40882 2.32107 0
M  V30 5282 H 522.748 -0.374376 0.548396 0
M  V30 5283 H 525.278 -0.583104 1.96115 0
M  V30 5284 H 525.288 -2.82262 2.94605 0
M  V30 5285 H 523.963 -1.93529 3.68129 0
M  V30 5286 H 522.54 -3.01139 2.19931 0
M  V30 5287 N 524.725 -1.39134 -0.740242 0
M  V30 5288 C 525.971 -1.36273 -1.50192 0
M  V30 5289 C 526.304 0.0430136 -1.94152 0
M  V30 5290 O 525.579 1.00691 -1.66408 0
M  V30 5291 C 525.862 -2.33041 -2.74525 0
M  V30 5292 C 525.715 -3.82535 -2.36617 0
M  V30 5293 C 527.034 -2.27723 -3.76604 0
M  V30 5294 H 524.153 -0.496323 -0.544823 0
M  V30 5295 H 526.795 -1.70085 -0.846815 0
M  V30 5296 H 524.945 -2.04337 -3.30422 0
M  V30 5297 H 526.617 -4.21967 -1.86391 0
M  V30 5298 H 524.86 -3.99565 -1.68909 0
M  V30 5299 H 525.531 -4.45723 -3.2563 0
M  V30 5300 H 528.007 -2.53091 -3.30279 0
M  V30 5301 H 526.883 -2.97519 -4.61274 0
M  V30 5302 H 527.144 -1.28049 -4.2315 0
M  V30 5303 N 526.204 0.969867 -1.24223 0
M  V30 5304 C 527.429 1.75289 -1.10853 0
M  V30 5305 C 527.854 1.85091 0.335079 0
M  V30 5306 O 527.212 1.32024 1.24255 0
M  V30 5307 C 527.26 3.15255 -1.75062 0
M  V30 5308 O 526.364 3.99589 -1.01992 0
M  V30 5309 H 525.705 0.538904 -0.387915 0
M  V30 5310 H 528.235 1.21675 -1.64488 0
M  V30 5311 H 528.245 3.65787 -1.80731 0
M  V30 5312 H 526.92 3.07436 -2.801 0
M  V30 5313 H 525.497 3.58077 -1.04094 0
M  V30 5314 N 527.682 1.05563 1.17022 0
M  V30 5315 C 528.928 0.769074 1.87652 0
M  V30 5316 C 529.261 -0.702326 1.81055 0
M  V30 5317 O 528.536 -1.5139 1.22112 0
M  V30 5318 C 528.819 1.25492 3.37526 0
M  V30 5319 C 528.672 2.78953 3.52853 0
M  V30 5320 C 529.991 0.856919 4.31677 0
M  V30 5321 H 527.11 0.280854 0.681388 0
M  V30 5322 H 529.752 1.31027 1.37593 0
M  V30 5323 H 527.902 0.794516 3.80289 0
M  V30 5324 H 529.574 3.33146 3.19079 0
M  V30 5325 H 527.817 3.18046 2.95007 0
M  V30 5326 H 528.488 3.08011 4.58076 0
M  V30 5327 H 530.964 1.25334 3.96775 0
M  V30 5328 H 529.84 1.22443 5.35069 0
M  V30 5329 H 530.101 -0.238787 4.41455 0
M  V30 5330 N 529.16 -1.33526 0.837174 0
M  V30 5331 C 530.409 -1.97098 0.428387 0
M  V30 5332 C 530.722 -1.67062 -1.01734 0
M  V30 5333 O 531.928 -2.24235 -1.53072 0
M  V30 5334 C 530.384 -3.52725 0.715075 0
M  V30 5335 C 529.992 -3.9164 2.17537 0
M  V30 5336 C 531.736 -4.22857 0.373154 0
M  V30 5337 C 529.643 -5.40237 2.40619 0
M  V30 5338 H 528.573 -0.737589 0.156455 0
M  V30 5339 H 531.224 -1.52169 1.02552 0
M  V30 5340 H 529.606 -3.95971 0.0475904 0
M  V30 5341 H 530.78 -3.59456 2.88319 0
M  V30 5342 H 529.095 -3.34485 2.4801 0
M  V30 5343 H 531.692 -5.32133 0.523264 0
M  V30 5344 H 532.035 -4.10647 -0.683708 0
M  V30 5345 H 532.568 -3.85135 0.995801 0
M  V30 5346 H 529.307 -5.57449 3.44864 0
M  V30 5347 H 528.827 -5.73887 1.74396 0
M  V30 5348 H 530.506 -6.07102 2.23688 0
M  V30 5349 N 530.638 -0.59345 -1.46 0
M  V30 5350 C 531.885 -0.0831523 -2.02329 0
M  V30 5351 C 532.213 1.28093 -1.46364 0
M  V30 5352 O 531.468 1.85526 -0.622793 0
M  V30 5353 C 531.767 0.021178 -3.57394 0
M  V30 5354 C 531.433 -1.27671 -4.32448 0
M  V30 5355 C 530.095 -1.63227 -4.5267 0
M  V30 5356 C 532.447 -2.13511 -4.7546 0
M  V30 5357 C 529.775 -2.84401 -5.1316 0
M  V30 5358 C 532.127 -3.33922 -5.37289 0
M  V30 5359 C 530.791 -3.69747 -5.55737 0
M  V30 5360 H 530.061 -0.0304276 -0.740375 0
M  V30 5361 H 532.708 -0.772239 -1.75239 0
M  V30 5362 H 531.013 0.793454 -3.83682 0
M  V30 5363 H 532.71 0.431942 -3.98667 0
M  V30 5364 H 529.3 -0.989937 -4.17011 0
M  V30 5365 H 533.484 -1.87344 -4.59582 0
M  V30 5366 H 528.74 -3.12282 -5.25633 0
M  V30 5367 H 532.914 -4.00698 -5.69574 0
M  V30 5368 H 530.541 -4.6373 -6.02377 0
M  V30 5369 N 532.116 1.54067 -0.331816 0
M  V30 5370 C 533.344 2.05131 0.269996 0
M  V30 5371 C 533.759 1.20749 1.45138 0
M  V30 5372 O 533.116 0.240069 1.80914 0
M  V30 5373 C 533.167 3.54728 0.696456 0
M  V30 5374 O 532.888 4.35906 -0.43794 0
M  V30 5375 C 534.389 4.21916 1.36021 0
M  V30 5376 H 531.609 0.668807 0.0542042 0
M  V30 5377 H 534.153 1.98777 -0.4804 0
M  V30 5378 H 532.308 3.61342 1.39681 0
M  V30 5379 H 532.722 5.24404 -0.100334 0
M  V30 5380 H 534.196 5.28015 1.60947 0
M  V30 5381 H 534.673 3.73538 2.31011 0
M  V30 5382 H 535.279 4.19463 0.702212 0
M  V30 5383 N 533.594 0.0601682 1.57485 0
M  V30 5384 C 534.524 -0.90889 2.15085 0
M  V30 5385 C 535.505 -1.31838 1.07484 0
M  V30 5386 O 536.69 -1.3915 1.35466 0
M  V30 5387 C 533.82 -2.18059 2.7031 0
M  V30 5388 C 532.774 -1.91088 3.82974 0
M  V30 5389 C 532.1 -3.24789 4.24754 0
M  V30 5390 C 533.4 -1.22535 5.07723 0
M  V30 5391 H 535.094 -0.429093 2.96309 0
M  V30 5392 H 532.64 -0.204952 1.42534 0
M  V30 5393 H 534.593 -2.86258 3.09248 0
M  V30 5394 H 533.317 -2.6826 1.8629 0
M  V30 5395 H 531.976 -1.25297 3.44523 0
M  V30 5396 H 531.624 -3.72809 3.37672 0
M  V30 5397 H 531.324 -3.07538 5.00694 0
M  V30 5398 H 532.848 -3.94205 4.66299 0
M  V30 5399 H 534.262 -1.80783 5.4405 0
M  V30 5400 H 532.659 -1.1558 5.88864 0
M  V30 5401 H 533.729 -0.202692 4.84476 0
M  V30 5402 N 535.072 -1.5615 -0.213296 0
M  V30 5403 C 536.318 -1.79812 -0.937849 0
M  V30 5404 C 536.651 -0.631201 -1.83656 0
M  V30 5405 O 535.926 0.369165 -1.90964 0
M  V30 5406 C 536.209 -3.13613 -1.76972 0
M  V30 5407 C 536.062 -4.40766 -0.89695 0
M  V30 5408 C 537.381 -3.43931 -2.7459 0
M  V30 5409 H 534.5 -0.654138 -0.339518 0
M  V30 5410 H 537.142 -1.88877 -0.20623 0
M  V30 5411 H 535.292 -3.06015 -2.39347 0
M  V30 5412 H 536.964 -4.60392 -0.289306 0
M  V30 5413 H 535.207 -4.33326 -0.202756 0
M  V30 5414 H 535.878 -5.30843 -1.51358 0
M  V30 5415 H 538.354 -3.5171 -2.22349 0
M  V30 5416 H 537.23 -4.38706 -3.29891 0
M  V30 5417 H 537.491 -2.6651 -3.52739 0
M  V30 5418 N 536.55 0.480323 -1.50102 0
M  V30 5419 C 537.961 1.06142 -1.53593 0
M  V30 5420 C 538.312 1.93335 -0.334055 0
M  V30 5421 O 537.437 2.09188 0.55403 0
M  V30 5422 C 538.032 1.9317 -2.78336 0
M  V30 5423 C 536.591 2.46405 -2.84538 0
M  V30 5424 C 535.738 1.24521 -2.4777 0
M  V30 5425 H 538.689 0.26333 -1.565 0
M  V30 5426 H 538.71 2.78123 -2.59669 0
M  V30 5427 H 538.222 1.29683 -3.65792 0
M  V30 5428 H 536.323 3.13472 -2.01411 0
M  V30 5429 H 536.436 2.82143 -3.87211 0
M  V30 5430 H 534.8 1.57706 -2.00003 0
M  V30 5431 H 535.583 0.627102 -3.37524 0
M  V30 5432 N 538.028 1.39524 0.732853 0
M  V30 5433 C 539.258 1.3994 1.51988 0
M  V30 5434 C 539.666 -0.00727973 1.89199 0
M  V30 5435 O 539.009 -0.989521 1.54771 0
M  V30 5436 C 539.071 2.21026 2.83527 0
M  V30 5437 C 538.735 3.69633 2.68738 0
M  V30 5438 C 539.732 4.62665 2.37143 0
M  V30 5439 C 537.417 4.13244 2.85542 0
M  V30 5440 C 539.411 5.97291 2.22536 0
M  V30 5441 C 537.098 5.47945 2.70554 0
M  V30 5442 C 538.096 6.39783 2.39097 0
M  V30 5443 O 537.784 7.72002 2.24204 0
M  V30 5444 H 537.516 0.479795 0.476206 0
M  V30 5445 H 540.07 1.8399 0.913054 0
M  V30 5446 H 538.3 1.71728 3.46477 0
M  V30 5447 H 539.989 2.13594 3.45156 0
M  V30 5448 H 540.755 4.30272 2.2381 0
M  V30 5449 H 536.634 3.42094 3.09019 0
M  V30 5450 H 540.178 6.68939 1.97905 0
M  V30 5451 H 536.075 5.79928 2.83466 0
M  V30 5452 H 536.843 7.8275 2.39258 0
M  V30 5453 N 539.506 -0.963266 1.24736 0
M  V30 5454 C 540.436 -2.07628 1.06832 0
M  V30 5455 C 541.417 -1.70088 -0.0200566 0
M  V30 5456 O 542.602 -1.93636 0.147854 0
M  V30 5457 C 539.732 -3.40636 0.677069 0
M  V30 5458 C 538.686 -3.9215 1.71471 0
M  V30 5459 C 538.012 -5.21553 1.1784 0
M  V30 5460 C 539.312 -4.19493 3.11164 0
M  V30 5461 H 541.006 -2.22864 1.9993 0
M  V30 5462 H 538.552 -1.07093 0.96266 0
M  V30 5463 H 540.505 -4.17941 0.538792 0
M  V30 5464 H 539.229 -3.25313 -0.289612 0
M  V30 5465 H 537.888 -3.17005 1.84128 0
M  V30 5466 H 537.536 -5.02593 0.202195 0
M  V30 5467 H 537.236 -5.56988 1.87185 0
M  V30 5468 H 538.76 -6.01463 1.05233 0
M  V30 5469 H 540.174 -4.87487 3.01711 0
M  V30 5470 H 538.571 -4.66165 3.77902 0
M  V30 5471 H 539.641 -3.26097 3.58871 0
M  V30 5472 N 540.985 -1.06182 -1.16461 0
M  V30 5473 C 542.215 -0.797425 -1.9059 0
M  V30 5474 C 542.623 0.651845 -1.77616 0
M  V30 5475 O 541.966 1.45788 -1.11766 0
M  V30 5476 C 542.028 -1.11128 -3.41893 0
M  V30 5477 C 541.692 -2.55874 -3.78652 0
M  V30 5478 C 542.689 -3.54104 -3.80665 0
M  V30 5479 C 540.374 -2.91144 -4.09317 0
M  V30 5480 C 542.368 -4.85645 -4.12829 0
M  V30 5481 C 540.055 -4.22885 -4.41148 0
M  V30 5482 C 541.053 -5.19945 -4.42883 0
M  V30 5483 O 540.741 -6.49322 -4.73959 0
M  V30 5484 H 540.473 -0.288709 -0.611247 0
M  V30 5485 H 543.027 -1.41841 -1.4856 0
M  V30 5486 H 541.257 -0.433217 -3.84266 0
M  V30 5487 H 542.946 -0.831306 -3.97296 0
M  V30 5488 H 543.712 -3.28197 -3.57088 0
M  V30 5489 H 539.591 -2.16252 -4.07131 0
M  V30 5490 H 543.135 -5.61398 -4.14099 0
M  V30 5491 H 539.032 -4.48551 -4.6419 0
M  V30 5492 H 539.8 -6.54294 -4.91774 0
M  V30 5493 N 542.463 1.3308 -0.844243 0
M  V30 5494 C 543.691 2.01808 -0.456203 0
M  V30 5495 C 544.106 1.63498 0.944131 0
M  V30 5496 O 543.463 0.85102 1.61443 0
M  V30 5497 C 543.514 3.56922 -0.573513 0
M  V30 5498 O 543.235 3.93851 -1.91868 0
M  V30 5499 C 544.736 4.42922 -0.183125 0
M  V30 5500 H 541.956 0.646273 -0.180477 0
M  V30 5501 H 544.5 1.69891 -1.1383 0
M  V30 5502 H 542.655 3.87352 0.0607367 0
M  V30 5503 H 543.069 4.88564 -1.90802 0
M  V30 5504 H 544.543 5.51093 -0.316241 0
M  V30 5505 H 545.02 4.30386 0.875477 0
M  V30 5506 H 545.626 4.1786 -0.792027 0
M  V30 5507 N 543.941 0.601185 1.45683 0
M  V30 5508 C 545.181 0.0968037 2.04171 0
M  V30 5509 C 545.545 -1.2466 1.46027 0
M  V30 5510 O 546.746 -1.84132 1.95829 0
M  V30 5511 C 545.017 0.051384 3.57363 0
M  V30 5512 S 546.576 -0.392737 4.37039 0
M  V30 5513 H 543.394 0.0464504 0.709481 0
M  V30 5514 H 545.996 0.797846 1.78479 0
M  V30 5515 H 544.7 1.03274 3.97193 0
M  V30 5516 H 544.231 -0.671853 3.87621 0
M  V30 5517 H 546.246 -1.64364 4.68187 0
M  V30 5518 N 545.419 -1.53889 0.339982 0
M  V30 5519 C 546.382 -2.23547 -0.50592 0
M  V30 5520 C 547.382 -1.23445 -1.03044 0
M  V30 5521 O 548.572 -1.47909 -0.920253 0
M  V30 5522 C 545.704 -2.95234 -1.7044 0
M  V30 5523 H 546.897 -2.99722 0.103247 0
M  V30 5524 H 544.45 -1.56033 0.0912804 0
M  V30 5525 H 545.185 -2.23236 -2.35236 0
M  V30 5526 H 544.97 -3.68654 -1.33553 0
M  V30 5527 H 546.46 -3.48258 -2.30447 0
M  V30 5528 N 546.897 -0.0685191 -1.57451 0
M  V30 5529 C 547.86 0.885173 -2.11417 0
M  V30 5530 C 548.86 1.22853 -1.03748 0
M  V30 5531 O 550.05 1.16235 -1.2975 0
M  V30 5532 C 547.182 2.18964 -2.61281 0
M  V30 5533 H 548.375 0.417034 -2.96986 0
M  V30 5534 H 545.928 0.18014 -1.55258 0
M  V30 5535 H 546.663 2.70321 -1.79156 0
M  V30 5536 H 546.448 1.9534 -3.39977 0
M  V30 5537 H 547.938 2.87242 -3.0312 0
M  V30 5538 N 548.375 1.56261 0.205012 0
M  V30 5539 C 549.305 1.96779 1.257 0
M  V30 5540 C 550.286 0.838309 1.48008 0
M  V30 5541 O 551.471 1.10189 1.59913 0
M  V30 5542 C 548.601 2.29876 2.60335 0
M  V30 5543 C 547.555 3.45469 2.52656 0
M  V30 5544 C 546.881 3.64215 3.91473 0
M  V30 5545 C 548.181 4.79954 2.06014 0
M  V30 5546 H 549.875 2.84904 0.920338 0
M  V30 5547 H 547.421 1.37072 0.441277 0
M  V30 5548 H 549.374 2.56814 3.34102 0
M  V30 5549 H 548.098 1.38622 2.95722 0
M  V30 5550 H 546.757 3.18605 1.81345 0
M  V30 5551 H 546.405 2.70309 4.24196 0
M  V30 5552 H 546.105 4.41973 3.87213 0
M  V30 5553 H 547.629 3.93519 4.66878 0
M  V30 5554 H 549.043 5.05989 2.69533 0
M  V30 5555 H 547.44 5.61111 2.12777 0
M  V30 5556 H 548.51 4.74201 1.01297 0
M  V30 5557 N 549.853 -0.472356 1.50355 0
M  V30 5558 C 550.783 -1.57859 1.72055 0
M  V30 5559 C 551.764 -1.60283 0.569505 0
M  V30 5560 O 552.949 -1.7657 0.808503 0
M  V30 5561 C 550.079 -2.96191 1.81351 0
M  V30 5562 C 549.033 -3.08633 2.96529 0
M  V30 5563 C 548.359 -4.486 2.90968 0
M  V30 5564 C 549.659 -2.85969 4.37057 0
M  V30 5565 H 551.353 -1.39953 2.64676 0
M  V30 5566 H 548.899 -0.671846 1.27367 0
M  V30 5567 H 550.852 -3.73507 1.95117 0
M  V30 5568 H 549.576 -3.15251 0.853502 0
M  V30 5569 H 548.235 -2.33749 2.82413 0
M  V30 5570 H 547.883 -4.64577 1.92815 0
M  V30 5571 H 547.583 -4.57861 3.68289 0
M  V30 5572 H 549.107 -5.27938 3.0678 0
M  V30 5573 H 550.521 -3.53036 4.51706 0
M  V30 5574 H 548.918 -3.06677 5.15819 0
M  V30 5575 H 549.988 -1.81838 4.49514 0
M  V30 5576 N 551.331 -1.39911 -0.725443 0
M  V30 5577 C 552.261 -1.42138 -1.85254 0
M  V30 5578 C 553.242 -0.283513 -1.67721 0
M  V30 5579 O 554.427 -0.490717 -1.87898 0
M  V30 5580 C 551.557 -1.27354 -3.23107 0
M  V30 5581 C 550.511 -2.3864 -3.55296 0
M  V30 5582 C 549.837 -2.08939 -4.92188 0
M  V30 5583 C 551.137 -3.8097 -3.57295 0
M  V30 5584 H 552.831 -2.36461 -1.83648 0
M  V30 5585 H 550.377 -1.13817 -0.882138 0
M  V30 5586 H 552.33 -1.2753 -4.01639 0
M  V30 5587 H 551.054 -0.295025 -3.25265 0
M  V30 5588 H 549.713 -2.37696 -2.79099 0
M  V30 5589 H 549.361 -1.09502 -4.90936 0
M  V30 5590 H 549.061 -2.83491 -5.14691 0
M  V30 5591 H 550.585 -2.10781 -5.73065 0
M  V30 5592 H 551.999 -3.8379 -4.25885 0
M  V30 5593 H 550.396 -4.5496 -3.9132 0
M  V30 5594 H 551.466 -4.11261 -2.5689 0
M  V30 5595 N 552.809 0.956637 -1.25245 0
M  V30 5596 C 553.739 2.07058 -1.07931 0
M  V30 5597 C 554.72 1.70096 0.0110361 0
M  V30 5598 O 555.905 1.93555 -0.158121 0
M  V30 5599 C 553.035 3.40272 -0.695124 0
M  V30 5600 C 551.989 3.91235 -1.73549 0
M  V30 5601 C 551.315 5.20921 -1.20604 0
M  V30 5602 C 552.615 4.17837 -3.13385 0
M  V30 5603 H 554.309 2.218 -2.01109 0
M  V30 5604 H 551.855 1.06581 -0.968326 0
M  V30 5605 H 553.808 4.1765 -0.560949 0
M  V30 5606 H 552.532 3.25462 0.272355 0
M  V30 5607 H 551.191 3.16025 -1.85807 0
M  V30 5608 H 550.839 5.02479 -0.228846 0
M  V30 5609 H 550.539 5.55987 -1.90136 0
M  V30 5610 H 552.063 6.00897 -1.08421 0
M  V30 5611 H 553.477 4.8588 -3.04292 0
M  V30 5612 H 551.874 4.64154 -3.80369 0
M  V30 5613 H 552.944 3.2419 -3.60595 0
M  V30 5614 N 554.287 1.06798 1.15896 0
M  V30 5615 C 555.535 0.786211 1.8618 0
M  V30 5616 C 555.856 -0.689547 1.82401 0
M  V30 5617 O 555.126 -1.49913 1.26107 0
M  V30 5618 H 553.706 0.287843 0.689315 0
M  V30 5619 H 556.368 1.35055 1.40521 0
M  V30 5620 H 555.464 1.1157 2.91477 0
M  V30 5621 N 555.766 -1.3263 0.851289 0
M  V30 5622 C 556.716 -2.26451 0.265302 0
M  V30 5623 C 557.7 -1.49814 -0.586899 0
M  V30 5624 O 558.892 -1.71525 -0.436834 0
M  V30 5625 C 556.021 -3.38895 -0.548212 0
M  V30 5626 C 555.107 -4.2292 0.316189 0
M  V30 5627 N 555.498 -4.86014 1.40084 0
M  V30 5628 C 553.796 -4.45876 0.105356 0
M  V30 5629 C 554.497 -5.48667 1.93235 0
M  V30 5630 N 553.473 -5.29455 1.232 0
M  V30 5631 H 557.275 -2.72757 1.09457 0
M  V30 5632 H 554.789 -1.4668 0.697047 0
M  V30 5633 H 556.786 -4.05111 -0.984402 0
M  V30 5634 H 555.446 -2.94135 -1.37531 0
M  V30 5635 H 556.457 -4.86212 1.78377 0
M  V30 5636 H 553.134 -4.11804 -0.687299 0
M  V30 5637 H 554.524 -6.08865 2.84135 0
M  V30 5638 N 557.244 -0.608902 -1.45362 0
M  V30 5639 C 558.492 -0.104401 -2.0183 0
M  V30 5640 C 558.813 1.27007 -1.47967 0
M  V30 5641 O 558.083 1.83924 -0.674455 0
M  V30 5642 H 556.663 -0.0356042 -0.746151 0
M  V30 5643 H 559.325 -0.790596 -1.78145 0
M  V30 5644 H 558.421 -0.0551793 -3.12051 0
M  V30 5645 N 558.722 1.53707 -0.348139 0
M  V30 5646 C 559.672 2.2193 0.522592 0
M  V30 5647 C 560.656 1.20831 1.06248 0
M  V30 5648 O 561.848 1.46357 0.995415 0
M  V30 5649 C 558.977 2.99904 1.6707 0
M  V30 5650 C 558.063 4.08364 1.14454 0
M  V30 5651 N 558.454 5.04656 0.339958 0
M  V30 5652 C 556.752 4.22757 1.421 0
M  V30 5653 C 557.453 5.81675 0.0538806 0
M  V30 5654 N 556.429 5.39739 0.646776 0
M  V30 5655 H 560.231 2.93733 -0.099135 0
M  V30 5656 H 557.745 1.61656 -0.15524 0
M  V30 5657 H 559.742 3.47284 2.30651 0
M  V30 5658 H 558.402 2.29629 2.29566 0
M  V30 5659 H 559.413 5.17896 -0.0193552 0
M  V30 5660 H 556.09 3.63704 2.05002 0
M  V30 5661 H 557.48 6.69256 -0.595443 0
M  V30 5662 N 560.2 0.0768682 1.57412 0
M  V30 5663 C 561.447 -0.591085 1.93681 0
M  V30 5664 C 561.775 -1.69311 0.957286 0
M  V30 5665 O 561.03 -1.95682 -0.0262428 0
M  V30 5666 C 561.329 -1.20268 3.36557 0
M  V30 5667 C 560.995 -0.226286 4.50332 0
M  V30 5668 C 559.657 0.0423142 4.81181 0
M  V30 5669 C 562.009 0.441415 5.19327 0
M  V30 5670 C 559.337 0.985616 5.78362 0
M  V30 5671 C 561.689 1.37307 6.17519 0
M  V30 5672 C 560.353 1.65009 6.46783 0
M  V30 5673 H 559.623 -0.216293 0.70873 0
M  V30 5674 H 562.27 0.148824 1.90921 0
M  V30 5675 H 560.575 -2.01844 3.35807 0
M  V30 5676 H 562.272 -1.72688 3.61911 0
M  V30 5677 H 558.862 -0.445821 4.26275 0
M  V30 5678 H 563.046 0.247023 4.95685 0
M  V30 5679 H 558.302 1.20743 5.99359 0
M  V30 5680 H 562.476 1.89637 6.70083 0
M  V30 5681 H 560.103 2.38263 7.21897 0
M  V30 5682 N 561.678 -1.56367 -0.196722 0
M  V30 5683 C 562.926 -1.80172 -0.915554 0
M  V30 5684 C 563.247 -0.649649 -1.8386 0
M  V30 5685 O 562.517 0.332111 -1.93064 0
M  V30 5686 H 561.097 -0.664592 -0.341067 0
M  V30 5687 H 563.759 -1.93844 -0.202622 0
M  V30 5688 H 562.855 -2.7327 -1.50764 0
M  V30 5689 N 563.156 0.464375 -1.50603 0
M  V30 5690 C 564.103 1.56152 -1.69956 0
M  V30 5691 C 565.073 1.57046 -0.54091 0
M  V30 5692 O 566.258 1.74473 -0.772258 0
M  V30 5693 C 563.398 2.94079 -1.80586 0
M  V30 5694 C 562.511 3.02923 -3.07996 0
M  V30 5695 C 561.646 4.31806 -3.09382 0
M  V30 5696 C 560.685 4.34417 -4.31218 0
M  V30 5697 N 559.822 5.54782 -4.30304 0
M  V30 5698 H 564.662 1.38955 -2.6362 0
M  V30 5699 H 562.199 0.675482 -1.30674 0
M  V30 5700 H 564.157 3.74073 -1.8473 0
M  V30 5701 H 562.787 3.09896 -0.903556 0
M  V30 5702 H 561.839 2.1576 -3.13292 0
M  V30 5703 H 563.151 3.00712 -3.97962 0
M  V30 5704 H 562.305 5.20153 -3.12292 0
M  V30 5705 H 561.044 4.36636 -2.17257 0
M  V30 5706 H 560.049 3.44467 -4.28512 0
M  V30 5707 H 561.274 4.31273 -5.24576 0
M  V30 5708 H 559.22 5.60384 -3.41037 0
M  V30 5709 H 559.137 5.54339 -5.14047 0
M  V30 5710 H 560.405 6.45235 -4.3737 0
M  V30 5711 N 564.634 1.40294 0.718013 0
M  V30 5712 C 565.597 1.4012 1.81381 0
M  V30 5713 C 566.597 0.295405 1.58063 0
M  V30 5714 O 567.787 0.554187 1.6515 0
M  V30 5715 C 564.919 1.19056 3.19435 0
M  V30 5716 H 566.112 2.37645 1.82933 0
M  V30 5717 H 563.665 1.26107 0.923405 0
M  V30 5718 H 564.4 0.222809 3.23534 0
M  V30 5719 H 564.185 1.99152 3.37758 0
M  V30 5720 H 565.675 1.21716 3.99468 0
M  V30 5721 N 566.112 -0.949982 1.2575 0
M  V30 5722 C 567.528 -1.22191 1.02672 0
M  V30 5723 C 567.728 -1.99898 -0.253588 0
M  V30 5724 O 566.784 -2.33329 -0.965076 0
M  V30 5725 C 568.097 -1.99175 2.25277 0
M  V30 5726 C 569.645 -2.12201 2.30087 0
M  V30 5727 C 570.12 -2.92586 3.5236 0
M  V30 5728 N 571.611 -3.00163 3.52784 0
M  V30 5729 C 572.346 -3.62766 4.44059 0
M  V30 5730 N 571.842 -4.26943 5.45611 0
M  V30 5731 N 573.635 -3.59953 4.3173 0
M  V30 5732 H 565.786 -0.430258 2.07996 0
M  V30 5733 H 568.049 -0.252844 0.91366 0
M  V30 5734 H 567.755 -1.49479 3.18354 0
M  V30 5735 H 567.629 -2.99868 2.28821 0
M  V30 5736 H 570.016 -2.61093 1.3753 0
M  V30 5737 H 570.097 -1.10799 2.30559 0
M  V30 5738 H 569.741 -2.44383 4.45241 0
M  V30 5739 H 569.671 -3.94224 3.49134 0
M  V30 5740 H 572.162 -2.54529 2.79327 0
M  V30 5741 H 572.475 -4.72583 6.11461 0
M  V30 5742 H 570.82 -4.25557 5.49478 0
M  V30 5743 H 574.011 -3.09003 3.51617 0
M  V30 5744 H 574.184 -4.08455 5.03059 0
M  V30 5745 N 567.59 -1.07411 -1.15328 0
M  V30 5746 C 569.001 -0.820261 -1.67716 0
M  V30 5747 C 569.352 0.654539 -1.8496 0
M  V30 5748 O 568.477 1.50664 -1.55337 0
M  V30 5749 C 569.072 -1.48242 -3.04647 0
M  V30 5750 C 567.631 -1.27606 -3.5411 0
M  V30 5751 C 566.778 -1.5517 -2.29821 0
M  V30 5752 H 569.729 -1.23608 -0.995332 0
M  V30 5753 H 569.75 -0.903984 -3.69606 0
M  V30 5754 H 569.262 -2.55578 -2.92064 0
M  V30 5755 H 567.363 -0.222948 -3.71932 0
M  V30 5756 H 567.476 -1.99667 -4.35511 0
M  V30 5757 H 565.84 -0.972747 -2.35393 0
M  V30 5758 H 566.623 -2.63689 -2.19824 0
M  V30 5759 N 569.068 1.32177 -0.85831 0
M  V30 5760 C 570.031 2.27086 -0.310588 0
M  V30 5761 C 571.031 1.51751 0.531806 0
M  V30 5762 O 572.221 1.70794 0.34279 0
M  V30 5763 C 569.353 3.36266 0.560179 0
M  V30 5764 H 570.546 2.77045 -1.1483 0
M  V30 5765 H 568.099 1.42911 -0.632942 0
M  V30 5766 H 568.834 2.9158 1.41956 0
M  V30 5767 H 568.619 3.92077 -0.0428473 0
M  V30 5768 H 570.109 4.06974 0.936056 0
M  V30 5769 N 570.547 0.616602 1.45037 0
M  V30 5770 C 571.777 0.121791 2.06241 0
M  V30 5771 C 572.185 -1.20289 1.46038 0
M  V30 5772 O 571.528 -1.7456 0.572242 0
M  V30 5773 C 571.59 -0.0827345 3.59405 0
M  V30 5774 C 571.254 1.16153 4.41993 0
M  V30 5775 C 572.251 2.08183 4.76399 0
M  V30 5776 C 569.936 1.39288 4.82601 0
M  V30 5777 C 571.93 3.21668 5.5028 0
M  V30 5778 C 569.617 2.53073 5.56235 0
M  V30 5779 C 570.615 3.44091 5.89992 0
M  V30 5780 O 570.303 4.55894 6.6213 0
M  V30 5781 H 570.035 0.0701667 0.672349 0
M  V30 5782 H 572.589 0.846877 1.87129 0
M  V30 5783 H 570.819 -0.862812 3.76952 0
M  V30 5784 H 572.508 -0.530273 4.02421 0
M  V30 5785 H 573.274 1.91538 4.45576 0
M  V30 5786 H 569.153 0.693396 4.55755 0
M  V30 5787 H 572.697 3.92733 5.76547 0
M  V30 5788 H 568.594 2.69667 5.86472 0
M  V30 5789 H 569.362 4.5469 6.80587 0
M  V30 5790 N 572.025 -1.5352 0.356285 0
M  V30 5791 C 572.955 -2.28372 -0.486661 0
M  V30 5792 C 573.936 -1.30432 -1.09185 0
M  V30 5793 O 575.121 -1.59291 -1.11085 0
M  V30 5794 C 572.251 -3.06604 -1.63129 0
M  V30 5795 C 571.205 -4.12154 -1.15381 0
M  V30 5796 C 570.531 -4.78415 -2.38796 0
M  V30 5797 C 571.831 -5.21724 -0.245179 0
M  V30 5798 H 573.525 -2.99083 0.137797 0
M  V30 5799 H 571.071 -1.43841 0.0677134 0
M  V30 5800 H 573.024 -3.57712 -2.22755 0
M  V30 5801 H 571.748 -2.33568 -2.28284 0
M  V30 5802 H 570.407 -3.61978 -0.580294 0
M  V30 5803 H 570.055 -4.01959 -3.02387 0
M  V30 5804 H 569.755 -5.49734 -2.07524 0
M  V30 5805 H 571.279 -5.32313 -2.99125 0
M  V30 5806 H 572.693 -5.68391 -0.748646 0
M  V30 5807 H 571.09 -6.00095 -0.0237608 0
M  V30 5808 H 572.16 -4.79596 0.715229 0
M  V30 5809 N 573.503 -0.0852151 -1.57369 0
M  V30 5810 C 574.466 0.8627 -2.12344 0
M  V30 5811 C 575.466 1.21746 -1.05046 0
M  V30 5812 O 576.656 1.14852 -1.30976 0
M  V30 5813 C 573.788 2.1618 -2.63589 0
M  V30 5814 H 574.981 0.385511 -2.97412 0
M  V30 5815 H 572.534 0.163663 -1.55441 0
M  V30 5816 H 573.269 2.68406 -1.82013 0
M  V30 5817 H 573.054 1.91723 -3.4203 0
M  V30 5818 H 574.544 2.84011 -3.06149 0
M  V30 5819 N 574.981 1.5647 0.188427 0
M  V30 5820 C 576.227 1.81281 0.909124 0
M  V30 5821 C 576.56 0.66034 1.82628 0
M  V30 5822 O 575.835 -0.338737 1.91528 0
M  V30 5823 C 576.118 3.16388 1.7196 0
M  V30 5824 C 575.971 4.42137 0.826714 0
M  V30 5825 C 577.29 3.48256 2.69083 0
M  V30 5826 H 574.409 0.659457 0.329068 0
M  V30 5827 H 577.051 1.89182 0.176156 0
M  V30 5828 H 575.201 3.09784 2.34448 0
M  V30 5829 H 576.873 4.60794 0.216025 0
M  V30 5830 H 575.116 4.33594 0.133792 0
M  V30 5831 H 575.787 5.33184 1.42893 0
M  V30 5832 H 578.263 3.55203 2.16726 0
M  V30 5833 H 577.139 4.43899 3.2287 0
M  V30 5834 H 577.4 2.72088 3.48455 0
M  V30 5835 N 576.459 -0.456382 1.50847 0
M  V30 5836 C 577.687 -1.23026 1.66349 0
M  V30 5837 C 578.102 -1.85473 0.352868 0
M  V30 5838 O 577.459 -1.69885 -0.666739 0
M  V30 5839 C 577.51 -2.32827 2.76539 0
M  V30 5840 O 577.231 -1.72938 4.02522 0
M  V30 5841 C 578.732 -3.23448 3.03144 0
M  V30 5842 H 575.952 -0.371527 0.558756 0
M  V30 5843 H 578.496 -0.543082 1.97157 0
M  V30 5844 H 576.651 -2.97294 2.48384 0
M  V30 5845 H 577.065 -2.45357 4.63573 0
M  V30 5846 H 578.539 -3.96669 3.83872 0
M  V30 5847 H 579.016 -3.83094 2.14793 0
M  V30 5848 H 579.622 -2.64702 3.32886 0
M  V30 5849 N 577.937 -1.40673 -0.710563 0
M  V30 5850 C 579.165 -1.42547 -1.4996 0
M  V30 5851 C 579.58 -0.0265485 -1.88781 0
M  V30 5852 O 578.937 0.950694 -1.55782 0
M  V30 5853 C 578.988 -2.32071 -2.77173 0
M  V30 5854 O 578.709 -3.66518 -2.39992 0
M  V30 5855 C 580.21 -2.42591 -3.71032 0
M  V30 5856 H 577.43 -0.486025 -0.462623 0
M  V30 5857 H 579.974 -1.84783 -0.876102 0
M  V30 5858 H 578.129 -1.93184 -3.35795 0
M  V30 5859 H 578.543 -4.14115 -3.21884 0
M  V30 5860 H 580.017 -3.09429 -4.57119 0
M  V30 5861 H 580.494 -1.4525 -4.14486 0
M  V30 5862 H 581.1 -2.82051 -3.18319 0
M  V30 5863 N 579.415 0.9433 -1.26252 0
M  V30 5864 C 580.664 1.68369 -1.11062 0
M  V30 5865 C 580.977 1.92514 0.346104 0
M  V30 5866 O 582.183 2.64358 0.618646 0
M  V30 5867 C 580.639 3.03171 -1.93946 0
M  V30 5868 C 580.247 2.86782 -3.4418 0
M  V30 5869 C 581.991 3.80916 -1.87359 0
M  V30 5870 C 579.898 4.17044 -4.19319 0
M  V30 5871 H 578.828 0.631469 -0.412023 0
M  V30 5872 H 581.479 1.04922 -1.50544 0
M  V30 5873 H 579.861 3.67587 -1.47296 0
M  V30 5874 H 581.035 2.31229 -3.98585 0
M  V30 5875 H 579.35 2.22482 -3.51981 0
M  V30 5876 H 581.947 4.77417 -2.40784 0
M  V30 5877 H 582.29 4.07658 -0.843857 0
M  V30 5878 H 582.823 3.2327 -2.31821 0
M  V30 5879 H 579.562 3.95487 -5.22753 0
M  V30 5880 H 579.082 4.72319 -3.69696 0
M  V30 5881 H 580.761 4.85513 -4.27651 0
M  V30 5882 N 580.893 1.08022 1.14757 0
M  V30 5883 C 581.856 0.71048 2.1791 0
M  V30 5884 C 582.856 -0.252731 1.58801 0
M  V30 5885 O 584.046 -0.0327915 1.74169 0
M  V30 5886 C 581.178 0.0483203 3.40866 0
M  V30 5887 H 582.371 1.62384 2.52134 0
M  V30 5888 H 579.924 0.877595 1.29337 0
M  V30 5889 H 580.659 -0.876959 3.12218 0
M  V30 5890 H 580.444 0.741189 3.85031 0
M  V30 5891 H 581.934 -0.195471 4.17142 0
M  V30 5892 N 582.371 -1.3172 0.865308 0
M  V30 5893 C 583.618 -1.96876 0.473931 0
M  V30 5894 C 583.946 -1.68425 -0.972786 0
M  V30 5895 O 583.201 -0.970742 -1.69927 0
M  V30 5896 C 583.5 -3.5102 0.672283 0
M  V30 5897 C 583.166 -3.9948 2.09108 0
M  V30 5898 C 581.828 -4.12425 2.4791 0
M  V30 5899 C 584.18 -4.2503 3.0166 0
M  V30 5900 C 581.508 -4.48267 3.78515 0
M  V30 5901 C 583.86 -4.62335 4.31774 0
M  V30 5902 C 582.524 -4.73486 4.70497 0
M  V30 5903 H 581.794 -0.72042 0.173424 0
M  V30 5904 H 584.441 -1.56937 1.0974 0
M  V30 5905 H 582.746 -3.91785 -0.034356 0
M  V30 5906 H 584.443 -3.99475 0.349353 0
M  V30 5907 H 581.033 -3.89898 1.77981 0
M  V30 5908 H 585.217 -4.14529 2.7291 0
M  V30 5909 H 580.473 -4.55097 4.08285 0
M  V30 5910 H 584.647 -4.81058 5.03543 0
M  V30 5911 H 582.274 -5.01016 5.71741 0
M  V30 5912 N 583.85 -0.624285 -1.44708 0
M  V30 5913 C 584.779 0.0717025 -2.3339 0
M  V30 5914 C 585.76 0.841814 -1.47809 0
M  V30 5915 O 586.946 0.809056 -1.76544 0
M  V30 5916 C 584.076 1.05852 -3.30776 0
M  V30 5917 C 583.029 0.400503 -4.26122 0
M  V30 5918 C 582.356 1.49674 -5.13324 0
M  V30 5919 C 583.656 -0.688924 -5.17737 0
M  V30 5920 H 585.35 -0.668819 -2.91834 0
M  V30 5921 H 582.896 -0.32308 -1.40329 0
M  V30 5922 H 584.849 1.5541 -3.91696 0
M  V30 5923 H 583.572 1.82984 -2.70526 0
M  V30 5924 H 582.231 -0.0743687 -3.66525 0
M  V30 5925 H 581.88 2.25877 -4.49431 0
M  V30 5926 H 581.58 1.06188 -5.77926 0
M  V30 5927 H 583.104 1.99427 -5.77115 0
M  V30 5928 H 584.518 -0.276724 -5.72632 0
M  V30 5929 H 582.915 -1.04652 -5.90904 0
M  V30 5930 H 583.985 -1.55884 -4.5916 0
M  V30 5931 N 585.328 1.53329 -0.364422 0
M  V30 5932 C 586.558 2.05359 0.226096 0
M  V30 5933 C 586.966 1.23777 1.43094 0
M  V30 5934 O 586.309 0.271139 1.81688 0
M  V30 5935 C 586.371 3.52918 0.684794 0
M  V30 5936 C 586.035 4.55218 -0.403206 0
M  V30 5937 C 587.032 5.04583 -1.2527 0
M  V30 5938 C 584.717 4.99134 -0.563117 0
M  V30 5939 C 586.711 5.96463 -2.24745 0
M  V30 5940 C 584.398 5.9082 -1.56124 0
M  V30 5941 C 585.396 6.39375 -2.40184 0
M  V30 5942 O 585.084 7.29255 -3.38293 0
M  V30 5943 H 584.816 0.674588 0.0436772 0
M  V30 5944 H 587.37 1.98688 -0.520782 0
M  V30 5945 H 585.6 3.57122 1.48326 0
M  V30 5946 H 587.289 3.87812 1.19818 0
M  V30 5947 H 588.055 4.71403 -1.14034 0
M  V30 5948 H 583.934 4.60928 0.0813909 0
M  V30 5949 H 587.478 6.34285 -2.90393 0
M  V30 5950 H 583.375 6.23414 -1.67407 0
M  V30 5951 H 584.143 7.47249 -3.34009 0
M  V30 5952 N 586.806 0.0935595 1.57322 0
M  V30 5953 C 588.046 -0.573901 1.96178 0
M  V30 5954 C 588.41 -1.65445 0.97426 0
M  V30 5955 O 589.611 -2.37901 1.25126 0
M  V30 5956 C 587.882 -1.11612 3.39526 0
M  V30 5957 S 589.441 -1.79566 4.00377 0
M  V30 5958 H 586.259 -0.187315 0.685882 0
M  V30 5959 H 588.861 0.172597 1.94737 0
M  V30 5960 H 587.565 -0.31815 4.09165 0
M  V30 5961 H 587.096 -1.89848 3.4456 0
M  V30 5962 H 589.111 -3.07978 3.89056 0
M  V30 5963 N 588.284 -1.56567 -0.180126 0
M  V30 5964 C 589.533 -1.80685 -0.896426 0
M  V30 5965 C 589.846 -0.669335 -1.83791 0
M  V30 5966 O 591.052 -0.795209 -2.59593 0
M  V30 5967 C 589.508 -3.20132 -1.6445 0
M  V30 5968 C 589.116 -4.41727 -0.747088 0
M  V30 5969 C 590.86 -3.53549 -2.34955 0
M  V30 5970 C 588.767 -5.72195 -1.49489 0
M  V30 5971 H 587.697 -0.673758 -0.338477 0
M  V30 5972 H 590.348 -1.8289 -0.149467 0
M  V30 5973 H 588.73 -3.12218 -2.43589 0
M  V30 5974 H 589.904 -4.608 0.00671129 0
M  V30 5975 H 588.219 -4.16122 -0.152134 0
M  V30 5976 H 590.816 -4.48267 -2.91481 0
M  V30 5977 H 591.159 -2.78006 -3.09868 0
M  V30 5978 H 591.692 -3.62976 -1.62768 0
M  V30 5979 H 588.431 -6.50743 -0.788251 0
M  V30 5980 H 587.951 -5.57115 -2.22224 0
M  V30 5981 H 589.63 -6.1384 -2.04472 0
M  V30 5982 N 589.762 0.448376 -1.51087 0
M  V30 5983 C 591.008 1.19748 -1.64414 0
M  V30 5984 C 591.363 1.89177 -0.350715 0
M  V30 5985 O 590.656 1.80135 0.652834 0
M  V30 5986 C 590.85 2.24866 -2.77795 0
M  V30 5987 C 590.679 1.65753 -4.18038 0
M  V30 5988 C 589.449 1.44728 -4.8413 0
M  V30 5989 C 591.647 1.13985 -5.0151 0
M  V30 5990 N 589.629 0.810962 -6.0852 0
M  V30 5991 C 591 0.628141 -6.1681 0
M  V30 5992 C 593.055 1.03055 -4.87118 0
M  V30 5993 C 591.758 0.0178906 -7.19298 0
M  V30 5994 C 593.784 0.434212 -5.89804 0
M  V30 5995 C 593.146 -0.0670069 -7.04368 0
M  V30 5996 H 589.245 0.426254 -0.655615 0
M  V30 5997 H 591.829 0.495806 -1.88281 0
M  V30 5998 H 590 2.92434 -2.55611 0
M  V30 5999 H 591.732 2.91857 -2.8036 0
M  V30 6000 H 588.487 1.70593 -4.41809 0
M  V30 6001 H 588.911 0.510563 -6.75072 0
M  V30 6002 H 593.553 1.40395 -3.9881 0
M  V30 6003 H 591.271 -0.367662 -8.07263 0
M  V30 6004 H 594.857 0.3517 -5.80736 0
M  V30 6005 H 593.737 -0.521209 -7.82466 0
M  V30 6006 N 591.24 1.41047 0.703093 0
M  V30 6007 C 592.203 1.42036 1.79884 0
M  V30 6008 C 593.203 0.312153 1.57741 0
M  V30 6009 O 594.393 0.571672 1.64553 0
M  V30 6010 C 591.525 1.22437 3.18154 0
M  V30 6011 H 592.718 2.39572 1.80403 0
M  V30 6012 H 590.271 1.27079 0.909977 0
M  V30 6013 H 591.006 0.257112 3.23279 0
M  V30 6014 H 590.791 2.02723 3.35627 0
M  V30 6015 H 592.281 1.25946 3.98155 0
M  V30 6016 N 592.718 -0.936591 1.26751 0
M  V30 6017 C 593.964 -1.6858 1.12733 0
M  V30 6018 C 594.297 -1.91414 -0.327745 0
M  V30 6019 O 593.572 -1.49812 -1.24043 0
M  V30 6020 C 593.855 -3.05779 1.90187 0
M  V30 6021 C 593.708 -2.90242 3.43627 0
M  V30 6022 C 595.027 -4.0597 1.69931 0
M  V30 6023 H 592.146 -0.61182 0.410908 0
M  V30 6024 H 594.788 -1.08747 1.55801 0
M  V30 6025 H 592.938 -3.56853 1.53584 0
M  V30 6026 H 594.61 -2.46354 3.9001 0
M  V30 6027 H 592.853 -2.2577 3.70419 0
M  V30 6028 H 593.524 -3.87572 3.93055 0
M  V30 6029 H 596 -3.63874 2.0183 0
M  V30 6030 H 594.876 -4.99974 2.26534 0
M  V30 6031 H 595.137 -4.37369 0.64502 0
M  V30 6032 N 594.196 -1.08629 -1.14182 0
M  V30 6033 C 595.442 -0.818556 -1.85546 0
M  V30 6034 C 595.775 0.654076 -1.82854 0
M  V30 6035 O 595.05 1.48099 -1.26083 0
M  V30 6036 C 595.333 -1.34397 -3.3408 0
M  V30 6037 C 595.186 -2.8821 -3.45333 0
M  V30 6038 C 596.505 -0.971069 -4.29253 0
M  V30 6039 H 593.624 -0.298821 -0.673702 0
M  V30 6040 H 596.266 -1.34629 -1.34071 0
M  V30 6041 H 594.416 -0.895064 -3.78049 0
M  V30 6042 H 596.088 -3.41488 -3.10134 0
M  V30 6043 H 594.331 -3.25756 -2.86471 0
M  V30 6044 H 595.002 -3.20047 -4.49749 0
M  V30 6045 H 597.478 -1.35809 -3.93313 0
M  V30 6046 H 596.354 -1.36586 -5.31635 0
M  V30 6047 H 596.615 0.121659 -4.41933 0
M  V30 6048 N 595.674 1.31259 -0.872281 0
M  V30 6049 C 596.922 1.96233 -0.483409 0
M  V30 6050 C 597.243 1.69276 0.968012 0
M  V30 6051 O 596.513 1.00943 1.67891 0
M  V30 6052 H 595.093 0.726025 -0.175774 0
M  V30 6053 H 597.755 1.60024 -1.11258 0
M  V30 6054 H 596.851 3.05403 -0.643075 0
M  V30 6055 N 597.152 0.631951 1.44375 0
M  V30 6056 C 598.377 0.142146 2.06912 0
M  V30 6057 C 598.802 -1.17456 1.4692 0
M  V30 6058 O 598.16 -1.72074 0.570975 0
M  V30 6059 C 598.208 0.0417952 3.60576 0
M  V30 6060 O 597.312 -1.00194 4.00044 0
M  V30 6061 H 596.653 0.0851491 0.658518 0
M  V30 6062 H 599.183 0.868863 1.85235 0
M  V30 6063 H 599.193 -0.148517 4.0773 0
M  V30 6064 H 597.868 1.0031 4.03622 0
M  V30 6065 H 596.445 -0.786131 3.64519 0
M  V30 6066 N 598.631 -1.53133 0.372548 0
M  V30 6067 C 599.879 -2.00958 -0.214534 0
M  V30 6068 C 600.2 -1.26135 -1.48711 0
M  V30 6069 O 599.47 -0.376597 -1.92246 0
M  V30 6070 H 598.05 -0.742456 -0.0822664 0
M  V30 6071 H 600.712 -1.88367 0.500385 0
M  V30 6072 H 599.808 -3.09031 -0.436605 0
M  V30 6073 N 600.109 -0.101901 -1.5727 0
M  V30 6074 C 601.072 0.840129 -2.13247 0
M  V30 6075 C 602.072 1.20625 -1.06331 0
M  V30 6076 O 603.262 1.13456 -1.32186 0
M  V30 6077 C 600.394 2.13372 -2.65867 0
M  V30 6078 H 601.587 0.353945 -2.97804 0
M  V30 6079 H 599.14 0.147167 -1.55606 0
M  V30 6080 H 599.875 2.66461 -1.84849 0
M  V30 6081 H 599.66 1.88085 -3.44044 0
M  V30 6082 H 601.15 2.80748 -3.09145 0
M  V30 6083 N 601.587 1.56661 0.17182 0
M  V30 6084 C 602.534 1.96371 1.21273 0
M  V30 6085 C 603.504 0.82756 1.44016 0
M  V30 6086 O 604.689 1.08764 1.56764 0
M  V30 6087 C 601.829 2.32838 2.54716 0
M  V30 6088 C 600.942 3.59628 2.39356 0
M  V30 6089 C 600.077 3.85311 3.65662 0
M  V30 6090 C 599.116 5.0545 3.45234 0
M  V30 6091 N 598.253 5.27268 4.63608 0
M  V30 6092 H 603.093 2.85106 0.86709 0
M  V30 6093 H 600.63 1.41073 0.416744 0
M  V30 6094 H 602.588 2.52004 3.3249 0
M  V30 6095 H 601.218 1.47214 2.87277 0
M  V30 6096 H 600.27 3.4838 1.52761 0
M  V30 6097 H 601.582 4.4756 2.20207 0
M  V30 6098 H 600.736 4.04841 4.51872 0
M  V30 6099 H 599.475 2.95753 3.8779 0
M  V30 6100 H 598.48 4.85819 2.5741 0
M  V30 6101 H 599.705 5.96538 3.24529 0
M  V30 6102 H 597.651 4.40662 4.85956 0
M  V30 6103 H 597.568 6.09422 4.4737 0
M  V30 6104 H 598.836 5.51277 5.51103 0
M  V30 6105 N 603.065 -0.440357 1.51323 0
M  V30 6106 C 603.975 -1.55955 1.75258 0
M  V30 6107 C 604.991 -1.61933 0.636687 0
M  V30 6108 O 606.167 -1.79231 0.918593 0
M  V30 6109 C 603.232 -2.9196 1.86977 0
M  V30 6110 C 602.293 -2.96122 3.10822 0
M  V30 6111 C 601.526 -4.2564 3.21973 0
M  V30 6112 O 601.749 -5.17851 2.39137 0
M  V30 6113 O 600.683 -4.36025 4.14929 0
M  V30 6114 H 604.509 -1.38673 2.70191 0
M  V30 6115 H 602.094 -0.623055 1.35788 0
M  V30 6116 H 603.976 -3.72682 1.96688 0
M  V30 6117 H 602.651 -3.09375 0.952307 0
M  V30 6118 H 601.558 -2.14366 3.06591 0
M  V30 6119 H 602.891 -2.83651 4.02247 0
M  V30 6120 N 604.543 -1.41418 -0.695603 0
M  V30 6121 C 605.789 -1.40982 -1.4578 0
M  V30 6122 C 606.122 -0.0187763 -1.94191 0
M  V30 6123 O 605.397 0.95346 -1.69527 0
M  V30 6124 C 605.68 -2.41657 -2.66972 0
M  V30 6125 C 605.533 -3.89869 -2.24327 0
M  V30 6126 C 606.852 -2.39589 -3.69168 0
M  V30 6127 H 603.971 -0.513405 -0.528757 0
M  V30 6128 H 606.613 -1.72693 -0.792275 0
M  V30 6129 H 604.763 -2.14746 -3.23754 0
M  V30 6130 H 606.435 -4.27683 -1.72872 0
M  V30 6131 H 604.678 -4.04737 -1.56111 0
M  V30 6132 H 605.349 -4.55857 -3.11285 0
M  V30 6133 H 607.825 -2.63471 -3.2206 0
M  V30 6134 H 606.701 -3.12044 -4.51575 0
M  V30 6135 H 606.962 -1.41447 -4.18862 0
M  V30 6136 N 606.021 0.929856 -1.27246 0
M  V30 6137 C 606.954 2.03069 -1.04106 0
M  V30 6138 C 607.932 1.62556 0.0378417 0
M  V30 6139 O 609.116 1.88197 -0.106869 0
M  V30 6140 C 606.243 3.33718 -0.578778 0
M  V30 6141 C 605.289 3.93209 -1.65193 0
M  V30 6142 S 606.122 4.26068 -3.24386 0
M  V30 6143 C 607.278 5.598 -2.79954 0
M  V30 6144 H 607.511 2.22386 -1.97311 0
M  V30 6145 H 605.044 1.07269 -1.11053 0
M  V30 6146 H 607.002 4.09261 -0.31874 0
M  V30 6147 H 605.663 3.12328 0.333182 0
M  V30 6148 H 604.856 4.87482 -1.27973 0
M  V30 6149 H 604.458 3.24243 -1.86393 0
M  V30 6150 H 606.75 6.39004 -2.25123 0
M  V30 6151 H 607.693 6.01917 -3.72963 0
M  V30 6152 H 608.101 5.20219 -2.19164 0
M  V30 6153 N 607.499 1.09233 1.13605 0
M  V30 6154 C 608.745 0.838255 1.85324 0
M  V30 6155 C 609.1 -0.629314 1.81817 0
M  V30 6156 O 608.393 -1.45729 1.24393 0
M  V30 6157 C 608.587 1.305 3.32723 0
M  V30 6158 C 608.416 2.81641 3.50583 0
M  V30 6159 C 607.186 3.49494 3.64941 0
M  V30 6160 C 609.384 3.79789 3.46792 0
M  V30 6161 N 607.366 4.89082 3.71042 0
M  V30 6162 C 608.737 5.05319 3.59239 0
M  V30 6163 C 610.792 3.72673 3.30181 0
M  V30 6164 C 609.495 6.24574 3.56791 0
M  V30 6165 C 611.521 4.91413 3.29039 0
M  V30 6166 C 610.883 6.15785 3.42035 0
M  V30 6167 H 606.982 0.359572 0.69443 0
M  V30 6168 H 609.566 1.39232 1.36098 0
M  V30 6169 H 607.737 0.778411 3.8052 0
M  V30 6170 H 609.469 0.996465 3.92241 0
M  V30 6171 H 606.224 2.9992 3.66531 0
M  V30 6172 H 606.648 5.61787 3.77789 0
M  V30 6173 H 611.29 2.77444 3.19037 0
M  V30 6174 H 609.008 7.20105 3.66708 0
M  V30 6175 H 612.594 4.87604 3.17386 0
M  V30 6176 H 611.474 7.06126 3.41111 0
M  V30 6177 N 608.977 -1.30795 0.87923 0
M  V30 6178 C 610.202 -2.01063 0.508769 0
M  V30 6179 C 610.627 -1.65508 -0.893803 0
M  V30 6180 O 609.985 -0.868616 -1.59138 0
M  V30 6181 C 610.033 -3.54054 0.683991 0
M  V30 6182 O 609.137 -4.11498 -0.272654 0
M  V30 6183 H 608.478 -0.632786 0.201191 0
M  V30 6184 H 611.008 -1.66776 1.18519 0
M  V30 6185 H 611.018 -4.03845 0.580798 0
M  V30 6186 H 609.693 -3.79271 1.70665 0
M  V30 6187 H 608.27 -3.72695 -0.12364 0
M  V30 6188 N 610.455 -0.639598 -1.44038 0
M  V30 6189 C 611.702 -0.14748 -2.01962 0
M  V30 6190 C 612.03 1.23372 -1.50365 0
M  V30 6191 O 611.285 1.8345 -0.681501 0
M  V30 6192 C 611.584 -0.0925348 -3.5728 0
M  V30 6193 C 611.25 -1.41365 -4.28167 0
M  V30 6194 C 609.912 -1.77545 -4.47248 0
M  V30 6195 C 612.264 -2.2853 -4.68427 0
M  V30 6196 C 609.592 -3.00583 -5.03852 0
M  V30 6197 C 611.944 -3.50846 -5.26393 0
M  V30 6198 C 610.608 -3.8724 -5.43692 0
M  V30 6199 H 609.878 -0.0539666 -0.739032 0
M  V30 6200 H 612.525 -0.827599 -1.72694 0
M  V30 6201 H 610.83 0.670987 -3.86012 0
M  V30 6202 H 612.527 0.304891 -3.99839 0
M  V30 6203 H 609.117 -1.1221 -4.13651 0
M  V30 6204 H 613.301 -2.0187 -4.5339 0
M  V30 6205 H 608.557 -3.28846 -5.15432 0
M  V30 6206 H 612.731 -4.18616 -5.56537 0
M  V30 6207 H 610.358 -4.8266 -5.87319 0
M  V30 6208 N 611.933 1.52934 -0.380664 0
M  V30 6209 C 613.179 2.01765 0.20458 0
M  V30 6210 C 613.512 1.26696 1.47179 0
M  V30 6211 O 612.787 0.364936 1.91046 0
M  V30 6212 C 613.07 3.56869 0.481269 0
M  V30 6213 C 612.923 4.42617 -0.800629 0
M  V30 6214 C 614.242 4.2121 1.27554 0
M  V30 6215 H 611.361 0.733388 0.0728803 0
M  V30 6216 H 614.003 1.83068 -0.50853 0
M  V30 6217 H 612.153 3.72932 1.08875 0
M  V30 6218 H 613.825 4.38323 -1.43773 0
M  V30 6219 H 612.068 4.09977 -1.4178 0
M  V30 6220 H 612.739 5.49134 -0.561791 0
M  V30 6221 H 615.215 4.09072 0.761514 0
M  V30 6222 H 614.091 5.29732 1.43788 0
M  V30 6223 H 614.352 3.78269 2.28833 0
M  V30 6224 N 613.412 0.11024 1.57214 0
M  V30 6225 C 614.64 -0.557834 1.99238 0
M  V30 6226 C 615.055 -1.60778 0.989734 0
M  V30 6227 O 614.412 -1.82491 -0.0186092 0
M  V30 6228 C 614.463 -1.19189 3.41286 0
M  V30 6229 O 614.184 -0.183919 4.37714 0
M  V30 6230 C 615.685 -1.94413 3.98395 0
M  V30 6231 H 612.905 -0.148392 0.654386 0
M  V30 6232 H 615.449 0.193996 2.03578 0
M  V30 6233 H 613.604 -1.89456 3.37913 0
M  V30 6234 H 614.018 -0.643475 5.20538 0
M  V30 6235 H 615.492 -2.34116 4.99894 0
M  V30 6236 H 615.969 -2.81592 3.3705 0
M  V30 6237 H 616.575 -1.28928 4.05287 0
M  V30 6238 N 614.89 -1.56749 -0.16351 0
M  V30 6239 C 615.82 -2.00042 -1.20438 0
M  V30 6240 C 616.801 -0.877256 -1.45733 0
M  V30 6241 O 617.986 -1.1439 -1.56935 0
M  V30 6242 C 615.116 -2.36697 -2.54149 0
M  V30 6243 C 614.07 -3.52046 -2.43408 0
M  V30 6244 C 613.396 -3.74466 -3.81679 0
M  V30 6245 C 614.696 -4.85247 -1.93216 0
M  V30 6246 H 616.39 -2.87244 -0.844477 0
M  V30 6247 H 613.936 -1.38194 -0.40478 0
M  V30 6248 H 615.889 -2.65582 -3.27176 0
M  V30 6249 H 614.613 -1.46414 -2.91943 0
M  V30 6250 H 613.272 -3.23301 -1.72834 0
M  V30 6251 H 612.92 -2.81461 -4.1688 0
M  V30 6252 H 612.62 -4.52084 -3.75359 0
M  V30 6253 H 614.144 -4.0576 -4.5628 0
M  V30 6254 H 615.558 -5.12957 -2.56023 0
M  V30 6255 H 613.955 -5.66556 -1.97825 0
M  V30 6256 H 615.025 -4.7672 -0.88689 0
M  V30 6257 N 616.368 0.432326 -1.51554 0
M  V30 6258 C 617.301 1.54525 -1.6792 0
M  V30 6259 C 618.279 1.53831 -0.526764 0
M  V30 6260 O 619.463 1.72884 -0.751233 0
M  V30 6261 C 616.59 2.931 -1.69736 0
M  V30 6262 C 615.636 3.11799 -2.91005 0
M  V30 6263 S 616.469 2.87565 -4.51737 0
M  V30 6264 C 617.625 4.28412 -4.56305 0
M  V30 6265 H 617.858 1.4041 -2.62054 0
M  V30 6266 H 615.391 0.622357 -1.41301 0
M  V30 6267 H 617.349 3.72974 -1.71467 0
M  V30 6268 H 616.01 3.04574 -0.767705 0
M  V30 6269 H 615.203 4.13127 -2.8869 0
M  V30 6270 H 614.805 2.39757 -2.87041 0
M  V30 6271 H 617.097 5.21692 -4.32254 0
M  V30 6272 H 618.04 4.35758 -5.58141 0
M  V30 6273 H 618.448 4.12301 -3.85576 0
M  V30 6274 N 617.846 1.41785 0.688094 0
M  V30 6275 C 619.092 1.41753 1.4503 0
M  V30 6276 C 619.425 0.0290745 1.94178 0
M  V30 6277 O 618.7 -0.944456 1.7003 0
M  V30 6278 C 618.983 2.43069 2.65686 0
M  V30 6279 C 618.836 3.91053 2.22256 0
M  V30 6280 C 620.155 2.41543 3.67893 0
M  V30 6281 H 617.274 0.516202 0.526027 0
M  V30 6282 H 619.916 1.73111 0.783105 0
M  V30 6283 H 618.066 2.1646 3.2261 0
M  V30 6284 H 619.738 4.28594 1.70602 0
M  V30 6285 H 617.981 4.05559 1.53963 0
M  V30 6286 H 618.652 4.57501 3.08863 0
M  V30 6287 H 621.128 2.65175 3.20658 0
M  V30 6288 H 620.004 3.14434 4.49914 0
M  V30 6289 H 620.265 1.43666 4.18106 0
M  V30 6290 N 619.324 -0.923095 1.27737 0
M  V30 6291 C 620.573 -1.66581 1.13727 0
M  V30 6292 C 620.886 -1.9304 -0.315433 0
M  V30 6293 O 622.092 -2.65309 -0.57651 0
M  V30 6294 C 620.548 -3.00047 1.98745 0
M  V30 6295 C 620.156 -2.8127 3.48699 0
M  V30 6296 C 621.9 -3.77887 1.93395 0
M  V30 6297 C 619.807 -4.1032 4.25901 0
M  V30 6298 H 618.737 -0.624834 0.422017 0
M  V30 6299 H 621.388 -1.02514 1.52194 0
M  V30 6300 H 619.77 -3.65197 1.53125 0
M  V30 6301 H 620.944 -2.24859 4.02213 0
M  V30 6302 H 619.259 -2.16854 3.55476 0
M  V30 6303 H 621.856 -4.73526 2.48348 0
M  V30 6304 H 622.199 -4.06264 0.908605 0
M  V30 6305 H 622.732 -3.19541 2.36935 0
M  V30 6306 H 619.471 -3.8712 5.28978 0
M  V30 6307 H 618.991 -4.66377 3.77163 0
M  V30 6308 H 620.67 -4.78648 4.35321 0
M  V30 6309 N 620.802 -1.09834 -1.13024 0
M  V30 6310 C 622.03 -0.858902 -1.8823 0
M  V30 6311 C 622.445 0.590164 -1.79339 0
M  V30 6312 O 621.802 1.4065 -1.16292 0
M  V30 6313 C 621.853 -1.29066 -3.37675 0
M  V30 6314 O 621.574 -2.6829 -3.46341 0
M  V30 6315 C 623.075 -1.08421 -4.29837 0
M  V30 6316 H 620.295 -0.308713 -0.595766 0
M  V30 6317 H 622.839 -1.4614 -1.4305 0
M  V30 6318 H 620.994 -0.731961 -3.80422 0
M  V30 6319 H 621.408 -2.86598 -4.39274 0
M  V30 6320 H 622.882 -1.43553 -5.33007 0
M  V30 6321 H 623.359 -0.0223315 -4.39194 0
M  V30 6322 H 623.965 -1.62907 -3.92863 0
M  V30 6323 N 622.28 1.30327 -0.886154 0
M  V30 6324 C 623.243 2.26376 -0.358687 0
M  V30 6325 C 624.243 1.52845 0.499498 0
M  V30 6326 O 625.433 1.71483 0.306485 0
M  V30 6327 C 622.565 3.37379 0.488726 0
M  V30 6328 H 623.758 2.74547 -1.20681 0
M  V30 6329 H 621.311 1.41536 -0.663113 0
M  V30 6330 H 622.046 2.94526 1.35739 0
M  V30 6331 H 621.831 3.91897 -0.126003 0
M  V30 6332 H 623.321 4.08868 0.84952 0
M  V30 6333 N 623.758 0.647228 1.43697 0
M  V30 6334 C 624.691 -0.097646 2.27991 0
M  V30 6335 C 625.669 -0.83571 1.3948 0
M  V30 6336 O 626.853 -0.836509 1.68922 0
M  V30 6337 C 623.98 -1.14484 3.18765 0
M  V30 6338 C 623.026 -0.505503 4.23494 0
M  V30 6339 S 623.859 0.716471 5.30685 0
M  V30 6340 C 625.015 -0.330339 6.25028 0
M  V30 6341 H 625.248 0.617417 2.90818 0
M  V30 6342 H 622.781 0.435881 1.4812 0
M  V30 6343 H 624.739 -1.74403 3.7161 0
M  V30 6344 H 623.4 -1.83219 2.55127 0
M  V30 6345 H 622.593 -1.29473 4.87086 0
M  V30 6346 H 622.195 0.0194377 3.73995 0
M  V30 6347 H 624.487 -1.19828 6.66819 0
M  V30 6348 H 625.43 0.270409 7.07583 0
M  V30 6349 H 625.838 -0.663459 5.60588 0
M  V30 6350 N 625.236 -1.5273 0.388769 0
M  V30 6351 C 626.466 -2.05693 -0.193397 0
M  V30 6352 C 626.874 -1.26038 -1.41107 0
M  V30 6353 O 626.217 -0.30001 -1.81234 0
M  V30 6354 C 626.279 -3.53962 -0.628561 0
M  V30 6355 C 625.943 -4.54519 0.475576 0
M  V30 6356 C 626.94 -5.02526 1.33281 0
M  V30 6357 C 624.625 -4.98174 0.642453 0
M  V30 6358 C 626.619 -5.92812 2.34205 0
M  V30 6359 C 624.306 -5.88262 1.65503 0
M  V30 6360 C 625.304 -6.35473 2.50325 0
M  V30 6361 O 624.992 -7.23781 3.49852 0
M  V30 6362 H 624.724 -0.675197 -0.0329395 0
M  V30 6363 H 627.278 -1.97835 0.552326 0
M  V30 6364 H 625.508 -3.59437 -1.42625 0
M  V30 6365 H 627.197 -3.89669 -1.13633 0
M  V30 6366 H 627.963 -4.6953 1.21519 0
M  V30 6367 H 623.842 -4.60999 -0.00805093 0
M  V30 6368 H 627.386 -6.29585 3.00447 0
M  V30 6369 H 623.283 -6.20672 1.77304 0
M  V30 6370 H 624.051 -7.4184 3.45855 0
M  V30 6371 N 626.714 -0.118576 -1.57153 0
M  V30 6372 C 627.677 0.817464 -2.14127 0
M  V30 6373 C 628.677 1.1949 -1.07604 0
M  V30 6374 O 629.867 1.12048 -1.33382 0
M  V30 6375 C 626.999 2.10541 -2.68115 0
M  V30 6376 H 628.192 0.322339 -2.98163 0
M  V30 6377 H 625.745 0.130655 -1.55753 0
M  V30 6378 H 626.48 2.64485 -1.87665 0
M  V30 6379 H 626.265 1.84425 -3.4602 0
M  V30 6380 H 627.755 2.77453 -3.12105 0
M  V30 6381 N 628.193 1.56834 0.155195 0
M  V30 6382 C 629.123 2.00678 1.19376 0
M  V30 6383 C 630.104 0.884973 1.45266 0
M  V30 6384 O 631.289 1.1522 1.56326 0
M  V30 6385 C 628.419 2.38042 2.5289 0
M  V30 6386 C 627.373 3.53332 2.41538 0
M  V30 6387 C 626.699 3.76485 3.79688 0
M  V30 6388 C 627.999 4.86265 1.9064 0
M  V30 6389 H 629.693 2.87688 0.829232 0
M  V30 6390 H 627.239 1.38407 0.397445 0
M  V30 6391 H 629.192 2.67314 3.25763 0
M  V30 6392 H 627.916 1.4796 2.91162 0
M  V30 6393 H 626.575 3.24213 1.71117 0
M  V30 6394 H 626.223 2.83667 4.15382 0
M  V30 6395 H 625.923 4.54068 3.72956 0
M  V30 6396 H 627.447 4.08174 4.54122 0
M  V30 6397 H 628.861 5.14308 2.53299 0
M  V30 6398 H 627.258 5.67597 1.94818 0
M  V30 6399 H 628.328 4.77184 0.861596 0
M  V30 6400 N 629.671 -0.424282 1.51781 0
M  V30 6401 C 630.619 -1.53649 1.74628 0
M  V30 6402 C 631.613 -1.57923 0.612922 0
M  V30 6403 O 632.819 -1.61511 0.794618 0
M  V30 6404 H 629.194 -0.510706 0.551981 0
M  V30 6405 H 631.165 -1.31558 2.67834 0
M  V30 6406 C 629.914 -2.91177 1.9003 0
M  V30 6407 H 629.237 -2.88625 2.76651 0
M  V30 6408 H 630.677 -3.6833 2.10021 0
M  V30 6409 C 629.136 -3.30303 0.663435 0
M  V30 6410 O 629.666 -4.01315 -0.175812 0
M  V30 6411 N 627.872 -2.86201 0.503723 0
M  V30 6412 H 627.419 -2.28583 1.18776 0
M  V30 6413 H 627.377 -3.12741 -0.322575 0
M  V30 6414 N 631.149 -1.42148 -0.680565 0
M  V30 6415 C 632.379 -1.45485 -1.46689 0
M  V30 6416 C 632.787 -0.0629451 -1.89095 0
M  V30 6417 O 632.13 0.931397 -1.58337 0
M  V30 6418 C 632.192 -2.31397 -2.75129 0
M  V30 6419 C 631.856 -3.79353 -2.54834 0
M  V30 6420 C 632.853 -4.71148 -2.19808 0
M  V30 6421 C 630.538 -4.23557 -2.70008 0
M  V30 6422 C 632.532 -6.05139 -2.00215 0
M  V30 6423 C 630.219 -5.57609 -2.50031 0
M  V30 6424 C 631.217 -6.48216 -2.15187 0
M  V30 6425 O 630.905 -7.79792 -1.95397 0
M  V30 6426 H 630.637 -0.497139 -0.458071 0
M  V30 6427 H 633.191 -1.87252 -0.844139 0
M  V30 6428 H 631.421 -1.84468 -3.39865 0
M  V30 6429 H 633.11 -2.26257 -3.36991 0
M  V30 6430 H 633.876 -4.38282 -2.07686 0
M  V30 6431 H 629.755 -3.53327 -2.96109 0
M  V30 6432 H 633.299 -6.75823 -1.72941 0
M  V30 6433 H 629.196 -5.9005 -2.61748 0
M  V30 6434 H 629.964 -7.91091 -2.10042 0
M  V30 6435 N 632.627 0.916307 -1.28225 0
M  V30 6436 C 633.575 2.03977 -1.11786 0
M  V30 6437 C 634.569 1.69358 -0.0378265 0
M  V30 6438 O 635.775 1.78925 -0.196405 0
M  V30 6439 H 632.15 0.66829 -0.344809 0
M  V30 6440 H 634.121 2.14985 -2.06939 0
M  V30 6441 C 632.87 3.38518 -0.7938 0
M  V30 6442 H 632.193 3.65649 -1.61682 0
M  V30 6443 H 633.633 4.17864 -0.718719 0
M  V30 6444 C 632.092 3.33134 0.502353 0
M  V30 6445 O 632.622 3.71281 1.53341 0
M  V30 6446 N 630.828 2.86229 0.502147 0
M  V30 6447 H 630.375 2.55382 -0.337338 0
M  V30 6448 H 630.333 2.83009 1.36942 0
M  V30 6449 N 634.105 1.10431 1.1244 0
M  V30 6450 C 635.521 0.836096 1.35947 0
M  V30 6451 C 635.721 -0.544475 1.94004 0
M  V30 6452 O 634.777 -1.29735 2.16622 0
M  V30 6453 C 636.09 1.93575 2.30107 0
M  V30 6454 C 637.638 1.9642 2.43697 0
M  V30 6455 C 638.113 3.05559 3.41171 0
M  V30 6456 N 639.604 3.04865 3.48728 0
M  V30 6457 C 640.339 3.85954 4.24061 0
M  V30 6458 N 639.835 4.76977 5.02458 0
M  V30 6459 N 641.628 3.74172 4.19466 0
M  V30 6460 H 633.779 1.9942 0.731124 0
M  V30 6461 H 636.042 0.866607 0.384312 0
M  V30 6462 H 635.748 2.92943 1.94621 0
M  V30 6463 H 635.622 1.8229 3.30227 0
M  V30 6464 H 638.009 0.97685 2.78463 0
M  V30 6465 H 638.09 2.11782 1.43465 0
M  V30 6466 H 637.734 4.04513 3.07135 0
M  V30 6467 H 637.664 2.87438 4.41234 0
M  V30 6468 H 640.155 2.38908 2.92799 0
M  V30 6469 H 640.468 5.35409 5.57277 0
M  V30 6470 H 638.813 4.81006 5.01655 0
M  V30 6471 H 642.004 3.02412 3.57302 0
M  V30 6472 H 642.177 4.37602 4.77921 0
M  V30 6473 N 635.583 -1.29855 0.893053 0
M  V30 6474 C 636.513 -2.3035 0.382249 0
M  V30 6475 C 637.494 -1.61328 -0.539203 0
M  V30 6476 O 638.679 -1.88882 -0.451342 0
M  V30 6477 C 635.809 -3.45024 -0.396983 0
M  V30 6478 C 634.763 -4.258 0.433437 0
M  V30 6479 C 634.089 -5.32605 -0.472889 0
M  V30 6480 C 635.389 -4.94549 1.67984 0
M  V30 6481 H 637.083 -2.73325 1.22205 0
M  V30 6482 H 634.629 -1.314 0.589073 0
M  V30 6483 H 636.582 -4.14398 -0.765024 0
M  V30 6484 H 635.306 -3.00875 -1.2705 0
M  V30 6485 H 633.965 -3.58125 0.783723 0
M  V30 6486 H 633.613 -4.84702 -1.34435 0
M  V30 6487 H 633.313 -5.87547 0.0789958 0
M  V30 6488 H 634.837 -6.04832 -0.837269 0
M  V30 6489 H 636.251 -5.56395 1.38192 0
M  V30 6490 H 634.648 -5.59393 2.17254 0
M  V30 6491 H 635.718 -4.20215 2.41965 0
M  V30 6492 N 637.061 -0.65484 -1.43351 0
M  V30 6493 C 638.011 0.0581325 -2.27926 0
M  V30 6494 C 638.995 0.793188 -1.3999 0
M  V30 6495 O 640.187 0.675387 -1.63608 0
M  V30 6496 C 637.316 1.02272 -3.27712 0
M  V30 6497 C 636.402 0.286048 -4.23134 0
M  V30 6498 N 636.793 -0.698298 -5.00957 0
M  V30 6499 C 635.091 0.527272 -4.42872 0
M  V30 6500 C 635.792 -1.1357 -5.70506 0
M  V30 6501 N 634.768 -0.469631 -5.41568 0
M  V30 6502 H 638.57 -0.697182 -2.85511 0
M  V30 6503 H 636.084 -0.482252 -1.55074 0
M  V30 6504 H 638.081 1.5483 -3.87083 0
M  V30 6505 H 636.741 1.77807 -2.71688 0
M  V30 6506 H 637.752 -1.07708 -5.06576 0
M  V30 6507 H 634.429 1.26367 -3.97916 0
M  V30 6508 H 635.819 -1.95027 -6.42973 0
M  V30 6509 N 638.539 1.52521 -0.396863 0
M  V30 6510 C 639.486 2.26671 0.434624 0
M  V30 6511 C 640.456 1.28584 1.05144 0
M  V30 6512 O 641.641 1.57426 1.07804 0
M  V30 6513 C 638.781 3.08234 1.55196 0
M  V30 6514 C 637.894 4.21261 0.957262 0
M  V30 6515 C 637.029 4.90205 2.04627 0
M  V30 6516 C 636.068 5.95213 1.42787 0
M  V30 6517 N 635.205 6.57723 2.45651 0
M  V30 6518 H 640.045 2.973 -0.204139 0
M  V30 6519 H 637.582 1.46669 -0.112505 0
M  V30 6520 H 639.54 3.53819 2.2106 0
M  V30 6521 H 638.17 2.398 2.16092 0
M  V30 6522 H 637.222 3.79935 0.188005 0
M  V30 6523 H 638.534 4.96624 0.465416 0
M  V30 6524 H 637.688 5.39133 2.78246 0
M  V30 6525 H 636.427 4.14383 2.57174 0
M  V30 6526 H 635.432 5.45616 0.676968 0
M  V30 6527 H 636.657 6.72972 0.910255 0
M  V30 6528 H 634.603 5.84737 2.97353 0
M  V30 6529 H 634.52 7.28723 2.01243 0
M  V30 6530 H 635.788 7.11293 3.18876 0
M  V30 6531 N 640.017 0.126909 1.57088 0
M  V30 6532 C 640.965 -0.837618 2.16995 0
M  V30 6533 C 641.959 -1.26974 1.12133 0
M  V30 6534 O 643.165 -1.24056 1.30423 0
M  V30 6535 H 639.54 -0.288256 0.694559 0
M  V30 6536 H 641.511 -0.307957 2.96807 0
M  V30 6537 C 640.26 -2.07474 2.79016 0
M  V30 6538 H 639.583 -1.75117 3.59408 0
M  V30 6539 H 641.023 -2.72949 3.24461 0
M  V30 6540 C 639.482 -2.86967 1.76498 0
M  V30 6541 O 640.012 -3.82625 1.22316 0
M  V30 6542 N 638.218 -2.51111 1.46258 0
M  V30 6543 H 637.765 -1.73389 1.90509 0
M  V30 6544 H 637.723 -3.04594 0.779085 0
M  V30 6545 N 641.495 -1.56914 -0.146875 0
M  V30 6546 C 642.906 -1.72799 -0.706928 0
M  V30 6547 C 643.257 -0.741329 -1.81656 0
M  V30 6548 O 642.382 0.0920162 -2.16204 0
M  V30 6549 C 642.977 -3.13317 -1.28911 0
M  V30 6550 C 641.536 -3.30803 -1.79573 0
M  V30 6551 C 640.683 -2.68725 -0.684252 0
M  V30 6552 H 643.634 -1.58504 0.0787931 0
M  V30 6553 H 643.655 -3.13323 -2.15891 0
M  V30 6554 H 643.167 -3.85104 -0.481284 0
M  V30 6555 H 641.268 -2.64012 -2.62923 0
M  V30 6556 H 641.381 -4.38754 -1.92436 0
M  V30 6557 H 639.745 -2.29196 -1.11091 0
M  V30 6558 H 640.528 -3.43117 0.112134 0
M  V30 6559 N 642.974 0.416227 -1.52004 0
M  V30 6560 C 644.204 1.18401 -1.69307 0
M  V30 6561 C 644.612 1.84943 -0.399072 0
M  V30 6562 O 643.955 1.72406 0.634177 0
M  V30 6563 C 644.017 2.29465 -2.76742 0
M  V30 6564 C 643.681 1.83117 -4.18709 0
M  V30 6565 C 644.678 1.32286 -5.02789 0
M  V30 6566 C 642.363 1.90167 -4.64911 0
M  V30 6567 C 644.357 0.891178 -6.31139 0
M  V30 6568 C 642.044 1.4661 -5.93253 0
M  V30 6569 C 643.042 0.961696 -6.76196 0
M  V30 6570 O 642.73 0.532388 -8.02135 0
M  V30 6571 H 642.462 0.362098 -0.570843 0
M  V30 6572 H 645.016 0.496764 -1.99302 0
M  V30 6573 H 643.246 3.01531 -2.42107 0
M  V30 6574 H 644.935 2.91252 -2.82713 0
M  V30 6575 H 645.701 1.26218 -4.68288 0
M  V30 6576 H 641.58 2.28371 -4.00459 0
M  V30 6577 H 645.124 0.496788 -6.95829 0
M  V30 6578 H 641.021 1.52355 -6.27263 0
M  V30 6579 H 641.789 0.656339 -8.15864 0
M  V30 6580 N 644.452 1.42507 0.673017 0
M  V30 6581 C 645.863 1.38347 1.25367 0
M  V30 6582 C 646.214 0.0776327 1.96046 0
M  V30 6583 O 645.339 -0.823571 2.00116 0
M  V30 6584 C 645.934 2.506 2.28002 0
M  V30 6585 C 644.493 2.49767 2.81591 0
M  V30 6586 C 643.64 2.293 1.55938 0
M  V30 6587 H 646.591 1.51695 0.466288 0
M  V30 6588 H 646.612 2.20953 3.09774 0
M  V30 6589 H 646.124 3.45627 1.76532 0
M  V30 6590 H 644.225 1.58563 3.37177 0
M  V30 6591 H 644.338 3.46867 3.30485 0
M  V30 6592 H 642.702 1.77594 1.82572 0
M  V30 6593 H 643.485 3.26385 1.06431 0
M  V30 6594 N 645.93 -0.909495 1.28709 0
M  V30 6595 C 646.86 -2.0291 1.15542 0
M  V30 6596 C 647.841 -1.7002 0.0521017 0
M  V30 6597 O 649.026 -1.92835 0.229849 0
M  V30 6598 C 646.156 -3.37458 0.820935 0
M  V30 6599 C 645.11 -3.84524 1.87949 0
M  V30 6600 C 644.436 -5.16086 1.39854 0
M  V30 6601 C 645.736 -4.05918 3.28676 0
M  V30 6602 H 647.43 -2.14183 2.09203 0
M  V30 6603 H 644.976 -1.02913 1.00722 0
M  V30 6604 H 646.929 -4.1528 0.715571 0
M  V30 6605 H 645.653 -3.26249 -0.151374 0
M  V30 6606 H 644.312 -3.08911 1.97408 0
M  V30 6607 H 643.96 -5.01284 0.41518 0
M  V30 6608 H 643.66 -5.48547 2.1064 0
M  V30 6609 H 645.184 -5.96459 1.30649 0
M  V30 6610 H 646.598 -4.74252 3.22115 0
M  V30 6611 H 644.995 -4.49717 3.97334 0
M  V30 6612 H 646.065 -3.10583 3.72379 0
M  V30 6613 N 647.408 -1.11026 -1.11852 0
M  V30 6614 C 648.685 -0.768347 -1.79877 0
M  V30 6615 C 649.065 0.744261 -1.97545 0
M  V30 6616 O 648.413 1.67271 -1.55669 0
M  V30 6617 C 648.623 -1.52648 -3.13846 0
M  V30 6618 C 649.971 -1.70297 -3.88953 0
M  V30 6619 O 650.995 -1.49037 -3.23522 0
M  V30 6620 O 649.854 -2.05593 -5.06353 0
M  V30 6621 H 646.948 -0.277891 -0.778913 0
M  V30 6622 H 649.494 -1.21343 -1.18633 0
M  V30 6623 H 648.266 -2.55564 -2.96315 0
M  V30 6624 H 647.889 -1.07466 -3.82801 0
M  V30 6625 N 648.886 1.2938 -0.899927 0
M  V30 6626 C 649.849 2.25983 -0.382677 0
M  V30 6627 C 650.849 1.53366 0.483259 0
M  V30 6628 O 652.039 1.71798 0.28828 0
M  V30 6629 C 649.171 3.37878 0.452915 0
M  V30 6630 H 650.364 2.73252 -1.23586 0
M  V30 6631 H 647.917 1.40825 -0.678088 0
M  V30 6632 H 648.652 2.95949 1.32608 0
M  V30 6633 H 648.437 3.91742 -0.167562 0
M  V30 6634 H 649.927 4.09746 0.806107 0
M  V30 6635 N 650.364 0.662433 1.43002 0
M  V30 6636 C 651.775 0.258315 1.84904 0
M  V30 6637 C 652.126 -1.19703 1.55453 0
M  V30 6638 O 651.251 -1.91484 1.00811 0
M  V30 6639 C 651.846 0.462047 3.35635 0
M  V30 6640 C 650.405 0.112165 3.76233 0
M  V30 6641 C 649.552 0.760479 2.66668 0
M  V30 6642 H 652.503 0.865467 1.33024 0
M  V30 6643 H 652.524 -0.289646 3.79396 0
M  V30 6644 H 652.036 1.52135 3.57039 0
M  V30 6645 H 650.137 -0.944179 3.60439 0
M  V30 6646 H 650.25 0.544058 4.76001 0
M  V30 6647 H 648.614 0.192887 2.53969 0
M  V30 6648 H 649.397 1.82299 2.90898 0
M  V30 6649 N 651.842 -1.52309 0.404946 0
M  V30 6650 C 653.091 -2.00952 -0.173529 0
M  V30 6651 C 653.404 -1.29512 -1.46581 0
M  V30 6652 O 654.61 -1.6895 -2.12528 0
M  V30 6653 C 653.066 -3.58097 -0.359801 0
M  V30 6654 C 652.674 -4.38449 0.920138 0
M  V30 6655 C 654.418 -4.14984 -0.893794 0
M  V30 6656 C 652.325 -5.87227 0.701285 0
M  V30 6657 H 651.255 -0.750871 -0.0686244 0
M  V30 6658 H 653.906 -1.75687 0.529749 0
M  V30 6659 H 652.288 -3.79675 -1.12531 0
M  V30 6660 H 653.462 -4.28633 1.69147 0
M  V30 6661 H 651.777 -3.92859 1.38024 0
M  V30 6662 H 654.374 -5.23813 -1.0735 0
M  V30 6663 H 654.717 -3.72072 -1.8673 0
M  V30 6664 H 655.25 -3.97358 -0.187453 0
M  V30 6665 H 651.989 -6.34491 1.64624 0
M  V30 6666 H 651.509 -5.99792 -0.0308288 0
M  V30 6667 H 653.188 -6.46096 0.341846 0
M  V30 6668 N 653.32 -0.135238 -1.57019 0
M  V30 6669 C 654.545 0.529343 -2.00531 0
M  V30 6670 C 654.97 1.58391 -1.01459 0
M  V30 6671 O 654.328 1.81296 0.0113986 0
M  V30 6672 C 654.376 1.11748 -3.42848 0
M  V30 6673 O 653.48 2.23267 -3.46736 0
M  V30 6674 H 652.821 0.130669 -0.651016 0
M  V30 6675 H 655.351 -0.228503 -2.0332 0
M  V30 6676 H 655.361 1.44905 -3.81401 0
M  V30 6677 H 654.036 0.345147 -4.14465 0
M  V30 6678 H 652.613 1.91428 -3.20015 0
M  V30 6679 N 654.798 1.5699 0.138552 0
M  V30 6680 C 655.745 1.98899 1.17081 0
M  V30 6681 C 656.715 0.857922 1.42228 0
M  V30 6682 O 657.9 1.12065 1.54422 0
M  V30 6683 C 655.04 2.38189 2.4972 0
M  V30 6684 C 654.153 3.64624 2.31674 0
M  V30 6685 C 653.288 3.9298 3.57407 0
M  V30 6686 C 652.327 5.1266 3.34435 0
M  V30 6687 N 651.464 5.36983 4.5232 0
M  V30 6688 H 656.304 2.86881 0.80642 0
M  V30 6689 H 653.841 1.41925 0.386727 0
M  V30 6690 H 655.799 2.59 3.2707 0
M  V30 6691 H 654.429 1.53275 2.84089 0
M  V30 6692 H 653.481 3.51542 1.45337 0
M  V30 6693 H 654.793 4.52131 2.10664 0
M  V30 6694 H 653.947 4.14335 4.43183 0
M  V30 6695 H 652.686 3.03912 3.8143 0
M  V30 6696 H 651.691 4.9117 2.47048 0
M  V30 6697 H 652.916 6.03288 3.11802 0
M  V30 6698 H 650.862 4.50871 4.76499 0
M  V30 6699 H 650.779 6.18775 4.34343 0
M  V30 6700 H 652.047 5.62842 5.39285 0
M  V30 6701 N 656.276 -0.40816 1.52223 0
M  V30 6702 C 657.553 -1.16807 1.56893 0
M  V30 6703 C 657.933 -2.08169 0.350537 0
M  V30 6704 O 657.281 -2.18684 -0.662536 0
M  V30 6705 C 657.491 -1.94451 2.8981 0
M  V30 6706 C 658.839 -2.50484 3.42845 0
M  V30 6707 O 659.863 -2.0463 2.91556 0
M  V30 6708 O 658.722 -3.34192 4.3241 0
M  V30 6709 H 655.816 -0.533382 0.632007 0
M  V30 6710 H 658.362 -0.414862 1.64551 0
M  V30 6711 H 657.134 -1.27527 3.69936 0
M  V30 6712 H 656.757 -2.76775 2.85449 0
M  V30 6713 O 657.793 -1.51699 -0.554045 0
M  V30 6714 H 658.484 -1.51323 -1.20918 0
M  V30 END ATOM
M  V30 BEGIN BOND
M  V30 END BOND
M  V30 END CTAB
M  END
$$$$
