drugbank_target|P60174 Triosephosphate isomerase (DB01593; DB01695; DB02726; DB03026; DB03132; DB03135; DB03314; DB03379; DB03900; DB04326; DB04447; DB04510; DB07387; DB11638; DB14487; DB14533; DB14548)
 OpenBabel12092120423D

  0  0  0     0  0            999 V3000
M  V30 BEGIN CTAB
M  V30 COUNTS 4322 4364 0 0 0
M  V30 BEGIN ATOM
M  V30 1 H -0.908 1.98254 -0.117106 0
M  V30 2 N 0 1.576 0 0
M  V30 3 C 0.933 2.03868 1.02534 0
M  V30 4 C 1.911 0.928543 1.3348 0
M  V30 5 O 3.095 1.19667 1.45644 0
M  V30 6 C 0.222 2.43627 2.35294 0
M  V30 7 C -0.732 3.65373 2.2001 0
M  V30 8 S 0.101 5.13292 1.52614 0
M  V30 9 C 1.257 5.56322 2.86805 0
M  V30 10 H 1.49 2.90518 0.631377 0
M  V30 11 H -0.977 1.52953 0.210867 0
M  V30 12 H 0.981 2.67203 3.11629 0
M  V30 13 H -0.358 1.57376 2.7183 0
M  V30 14 H -1.165 3.90944 3.18086 0
M  V30 15 H -1.563 3.418 1.51819 0
M  V30 16 H 0.729 5.58782 3.83104 0
M  V30 17 H 1.672 6.56266 2.65933 0
M  V30 18 H 2.08 4.83886 2.90714 0
M  V30 19 N 1.4781 -0.272755 1.55222 0
M  V30 20 C 2.4411 -1.32041 1.87344 0
M  V30 21 C 3.4411 -1.42342 0.74803 0
M  V30 22 O 4.6311 -1.41488 1.0162 0
M  V30 23 C 1.7631 -2.70173 2.07893 0
M  V30 24 H 2.9561 -1.04789 2.80997 0
M  V30 25 H 0.5091 -0.51083 1.47717 0
M  V30 26 H 1.2441 -3.02605 1.16622 0
M  V30 27 H 1.0291 -2.64082 2.89833 0
M  V30 28 H 2.5191 -3.45869 2.34017 0
M  V30 29 N 2.9562 -1.48159 -0.537278 0
M  V30 30 C 3.8662 -1.64807 -1.6696 0
M  V30 31 C 4.8822 -0.530651 -1.65711 0
M  V30 32 O 6.0582 -0.800784 -1.84796 0
M  V30 33 C 3.1232 -1.67708 -3.03438 0
M  V30 34 C 2.1842 -2.91025 -3.156 0
M  V30 35 C 1.4172 -2.93778 -4.45567 0
M  V30 36 O 1.6402 -2.05153 -5.3223 0
M  V30 37 O 0.5742 -3.85868 -4.61941 0
M  V30 38 H 4.4002 -2.6066 -1.55853 0
M  V30 39 H 1.9852 -1.31475 -0.709549 0
M  V30 40 H 3.8672 -1.7218 -3.84619 0
M  V30 41 H 2.5422 -0.750278 -3.14885 0
M  V30 42 H 1.4492 -2.92089 -2.33741 0
M  V30 43 H 2.7822 -3.83065 -3.09066 0
M  V30 44 N 4.4343 0.785586 -1.36625 0
M  V30 45 C 5.7113 1.53198 -1.21613 0
M  V30 46 C 6.0913 2.10187 0.196113 0
M  V30 47 O 5.4393 1.94318 1.20219 0
M  V30 48 C 5.6493 2.62388 -2.30116 0
M  V30 49 C 6.9973 3.30167 -2.66974 0
M  V30 50 O 8.0213 2.72674 -2.29188 0
M  V30 51 O 6.8803 4.34077 -3.32023 0
M  V30 52 H 3.9743 0.677865 -0.473738 0
M  V30 53 H 6.5203 0.823739 -1.48367 0
M  V30 54 H 5.2923 2.18299 -3.24748 0
M  V30 55 H 4.9153 3.40827 -2.0475 0
M  V30 56 N 5.9124 1.20967 1.01018 0
M  V30 57 C 7.1604 1.02172 1.74371 0
M  V30 58 C 7.4814 -0.446414 1.89821 0
M  V30 59 O 6.7514 -1.32234 1.44537 0
M  V30 60 H 5.3314 0.375066 0.646014 0
M  V30 61 H 7.9934 1.52187 1.21758 0
M  V30 62 H 7.0894 1.48538 2.74487 0
M  V30 63 N 7.3905 -1.2043 1.01659 0
M  V30 64 C 8.3005 -2.2689 0.596484 0
M  V30 65 C 9.3165 -1.70107 -0.36599 0
M  V30 66 O 10.4925 -2.00117 -0.226942 0
M  V30 67 C 7.5575 -3.4665 -0.0586659 0
M  V30 68 C 6.6185 -4.18662 0.949751 0
M  V30 69 C 5.8515 -5.32705 0.32577 0
M  V30 70 O 6.0745 -5.63656 -0.874509 0
M  V30 71 O 5.0085 -5.92803 1.04249 0
M  V30 72 H 8.8345 -2.65041 1.4828 0
M  V30 73 H 6.4195 -1.27048 0.786082 0
M  V30 74 H 8.3015 -4.19256 -0.424564 0
M  V30 75 H 6.9765 -3.10375 -0.91918 0
M  V30 76 H 5.8835 -3.48229 1.36702 0
M  V30 77 H 7.2165 -4.58878 1.78023 0
M  V30 78 N 8.8686 -0.792821 -1.36206 0
M  V30 79 C 9.7786 -0.194808 -2.3379 0
M  V30 80 C 10.7946 0.654869 -1.61206 0
M  V30 81 O 11.9706 0.569856 -1.9317 0
M  V30 82 C 9.0356 0.657721 -3.40404 0
M  V30 83 C 8.0966 -0.210849 -4.28782 0
M  V30 84 C 7.3296 0.601086 -5.30304 0
M  V30 85 O 7.5526 1.83682 -5.40016 0
M  V30 86 O 6.4866 -0.000808277 -6.019 0
M  V30 87 H 10.3126 -1.00172 -2.86704 0
M  V30 88 H 7.8976 -0.554341 -1.38735 0
M  V30 89 H 9.7796 1.14375 -4.05581 0
M  V30 90 H 8.4546 1.44247 -2.89784 0
M  V30 91 H 7.3616 -0.743714 -3.66633 0
M  V30 92 H 8.6946 -0.959195 -4.82763 0
M  V30 93 N 10.3467 1.47872 -0.545128 0
M  V30 94 C 11.3097 2.28337 0.198717 0
M  V30 95 C 12.3097 1.36255 0.853888 0
M  V30 96 O 13.4997 1.59003 0.711606 0
M  V30 97 C 10.6317 3.15585 1.28915 0
M  V30 98 H 11.8247 2.95567 -0.507941 0
M  V30 99 H 9.3777 1.53362 -0.301616 0
M  V30 100 H 10.1127 2.53019 2.02859 0
M  V30 101 H 9.8977 3.83337 0.824309 0
M  V30 102 H 11.3877 3.76243 1.81194 0
M  V30 103 N 11.8248 0.280983 1.55075 0
M  V30 104 C 12.7348 -0.61388 2.26426 0
M  V30 105 C 13.7508 -1.16521 1.29224 0
M  V30 106 O 14.9268 -1.19426 1.62171 0
M  V30 107 C 11.9918 -1.7788 2.9759 0
M  V30 108 C 11.0528 -1.26355 4.10284 0
M  V30 109 C 10.2858 -2.37295 4.78045 0
M  V30 110 O 10.5088 -3.56777 4.45047 0
M  V30 111 O 9.4428 -2.05119 5.65871 0
M  V30 112 H 13.2688 -0.0356932 3.03679 0
M  V30 113 H 10.8538 0.0481686 1.49322 0
M  V30 114 H 12.7358 -2.45791 3.42293 0
M  V30 115 H 11.4108 -2.34397 2.23249 0
M  V30 116 H 10.3178 -0.550735 3.70024 0
M  V30 117 H 11.6508 -0.744065 4.86543 0
M  V30 118 N 13.3029 -1.57598 0.00835791 0
M  V30 119 C 14.5499 -1.90928 -0.674732 0
M  V30 120 C 14.8779 -0.88277 -1.73313 0
M  V30 121 O 14.1329 0.111294 -1.95383 0
M  V30 122 C 14.4319 -3.3101 -1.34787 0
M  V30 123 C 14.0979 -4.48922 -0.421861 0
M  V30 124 C 12.7599 -4.8091 -0.166927 0
M  V30 125 C 15.1119 -5.20755 0.215211 0
M  V30 126 C 12.4399 -5.821 0.733232 0
M  V30 127 C 14.7919 -6.22905 1.1033 0
M  V30 128 C 13.4559 -6.53346 1.36733 0
M  V30 129 H 12.7259 -0.698656 -0.246902 0
M  V30 130 H 15.3729 -1.91387 0.0656779 0
M  V30 131 H 13.6779 -3.26714 -2.16253 0
M  V30 132 H 15.3749 -3.54061 -1.8826 0
M  V30 133 H 11.9649 -4.23934 -0.630729 0
M  V30 134 H 16.1489 -4.9629 0.0312829 0
M  V30 135 H 11.4049 -6.04042 0.945712 0
M  V30 136 H 15.5789 -6.77694 1.60325 0
M  V30 137 H 13.2059 -7.31573 2.06652 0
M  V30 138 N 14.781 0.264519 -1.55364 0
M  V30 139 C 15.731 1.32966 -1.85214 0
M  V30 140 C 16.715 1.44306 -0.711653 0
M  V30 141 O 17.907 1.47844 -0.973192 0
M  V30 142 C 15.036 2.68839 -2.13495 0
M  V30 143 C 14.122 2.61575 -3.33825 0
M  V30 144 N 14.513 2.23933 -4.53528 0
M  V30 145 C 12.811 2.92621 -3.36584 0
M  V30 146 C 13.512 2.26868 -5.35636 0
M  V30 147 N 12.488 2.65677 -4.74254 0
M  V30 148 H 16.29 1.02884 -2.75304 0
M  V30 149 H 13.804 0.473157 -1.55354 0
M  V30 150 H 15.801 3.45685 -2.33039 0
M  V30 151 H 14.461 2.99802 -1.24694 0
M  V30 152 H 15.472 1.95769 -4.79474 0
M  V30 153 H 12.149 3.2824 -2.58002 0
M  V30 154 H 13.539 2.00254 -6.41364 0
M  V30 155 N 16.2591 1.48442 0.529413 0
M  V30 156 C 17.5061 1.56488 1.28521 0
M  V30 157 C 17.8341 0.239042 1.93025 0
M  V30 158 O 17.0891 -0.770713 1.79885 0
M  V30 159 C 17.3881 2.6523 2.39558 0
M  V30 160 C 17.0541 4.07648 1.92702 0
M  V30 161 C 15.7161 4.46411 1.79641 0
M  V30 162 C 18.0681 4.96896 1.573 0
M  V30 163 C 15.3961 5.72226 1.29514 0
M  V30 164 C 17.7481 6.23202 1.08636 0
M  V30 165 C 16.4121 6.60821 0.941919 0
M  V30 166 H 15.6821 0.572631 0.470292 0
M  V30 167 H 18.3291 1.82161 0.59072 0
M  V30 168 H 16.6341 2.33419 3.14679 0
M  V30 169 H 18.3311 2.68671 2.97686 0
M  V30 170 H 14.9211 3.77036 2.03819 0
M  V30 171 H 19.1051 4.67626 1.66251 0
M  V30 172 H 14.3611 6.00097 1.17019 0
M  V30 173 H 18.5351 6.91753 0.803136 0
M  V30 174 H 16.1621 7.58198 0.5513 0
M  V30 175 N 17.7372 -0.778329 1.37039 0
M  V30 176 C 18.7002 -1.87301 1.32102 0
M  V30 177 C 19.7002 -1.59198 0.226405 0
M  V30 178 O 20.8902 -1.67403 0.481861 0
M  V30 179 C 18.0222 -3.24309 1.05055 0
M  V30 180 H 19.2152 -1.93093 2.29467 0
M  V30 181 H 16.7682 -0.977358 1.21973 0
M  V30 182 H 17.5032 -3.24196 0.0819373 0
M  V30 183 H 17.2882 -3.46098 1.84279 0
M  V30 184 H 18.7782 -4.04382 1.04234 0
M  V30 185 N 19.2153 -1.21501 -1.00376 0
M  V30 186 C 20.1783 -0.976927 -2.07337 0
M  V30 187 C 21.1783 0.0525322 -1.60714 0
M  V30 188 O 22.3683 -0.184869 -1.73216 0
M  V30 189 C 19.5003 -0.473423 -3.37597 0
M  V30 190 H 20.6933 -1.92587 -2.29892 0
M  V30 191 H 18.2463 -1.03217 -1.17371 0
M  V30 192 H 18.9813 0.480379 -3.20722 0
M  V30 193 H 18.7663 -1.216 -3.72768 0
M  V30 194 H 20.2563 -0.32675 -4.1632 0
M  V30 195 N 20.6934 1.19889 -1.02296 0
M  V30 196 C 21.6234 2.25141 -0.619174 0
M  V30 197 C 22.6044 1.66051 0.368915 0
M  V30 198 O 23.7894 1.92546 0.252941 0
M  V30 199 C 20.9194 3.4728 0.0368783 0
M  V30 200 C 19.8734 4.19005 -0.872865 0
M  V30 201 C 19.1994 5.34637 -0.0822402 0
M  V30 202 C 20.4994 4.74452 -2.18387 0
M  V30 203 H 22.1934 2.59171 -1.49903 0
M  V30 204 H 19.7394 1.24579 -0.722222 0
M  V30 205 H 21.6924 4.20098 0.330958 0
M  V30 206 H 20.4164 3.12433 0.95149 0
M  V30 207 H 19.0754 3.48061 -1.15105 0
M  V30 208 H 18.7234 4.96034 0.83422 0
M  V30 209 H 18.4234 5.83557 -0.688149 0
M  V30 210 H 19.9474 6.10255 0.205238 0
M  V30 211 H 21.3614 5.39055 -1.95172 0
M  V30 212 H 19.7584 5.33834 -2.74119 0
M  V30 213 H 20.8284 3.92844 -2.84257 0
M  V30 214 N 22.1715 0.800033 1.35784 0
M  V30 215 C 23.4015 0.389041 2.02904 0
M  V30 216 C 23.8095 -1.0027 1.60445 0
M  V30 217 O 23.1525 -1.65633 0.794453 0
M  V30 218 C 23.2145 0.385495 3.57427 0
M  V30 219 C 22.8785 1.72662 4.23127 0
M  V30 220 C 23.8755 2.68385 4.4527 0
M  V30 221 C 21.5605 2.00883 4.60381 0
M  V30 222 C 23.5545 3.90517 5.03761 0
M  V30 223 C 21.2415 3.2328 5.18588 0
M  V30 224 C 22.2395 4.17915 5.40218 0
M  V30 225 O 21.9275 5.38153 5.97199 0
M  V30 226 H 21.6595 0.157032 0.657508 0
M  V30 227 H 24.2135 1.08311 1.74522 0
M  V30 228 H 22.4435 -0.365128 3.84972 0
M  V30 229 H 24.1325 -0.00228296 4.059 0
M  V30 230 H 24.8985 2.47872 4.16874 0
M  V30 231 H 20.7775 1.28037 4.42863 0
M  V30 232 H 24.3215 4.64395 5.2056 0
M  V30 233 H 20.2185 3.43667 5.4641 0
M  V30 234 H 20.9865 5.3936 6.15656 0
M  V30 235 N 23.6496 -1.47581 0.552962 0
M  V30 236 C 24.8986 -2.01684 0.0251995 0
M  V30 237 C 25.2116 -1.43317 -1.33115 0
M  V30 238 O 26.4176 -1.89057 -1.94858 0
M  V30 239 C 24.8736 -3.599 -0.00542052 0
M  V30 240 C 24.4816 -4.27257 1.34742 0
M  V30 241 C 26.2256 -4.21768 -0.4808 0
M  V30 242 C 24.1326 -5.77467 1.27614 0
M  V30 243 H 23.0626 -0.753979 0.00565033 0
M  V30 244 H 25.7136 -1.69616 0.70018 0
M  V30 245 H 24.0956 -3.88911 -0.745961 0
M  V30 246 H 25.2696 -4.09893 2.10534 0
M  V30 247 H 23.5846 -3.77358 1.76039 0
M  V30 248 H 26.1816 -5.31838 -0.55246 0
M  V30 249 H 26.5246 -3.88651 -1.49184 0
M  V30 250 H 27.0576 -3.97273 0.204752 0
M  V30 251 H 23.7966 -6.15196 2.26304 0
M  V30 252 H 23.3166 -5.9718 0.55996 0
M  V30 253 H 24.9956 -6.3959 0.976421 0
M  V30 254 N 25.1277 -0.289203 -1.54924 0
M  V30 255 C 26.3527 0.329299 -2.04769 0
M  V30 256 C 26.7777 1.4763 -1.16564 0
M  V30 257 O 26.1357 1.80527 -0.167186 0
M  V30 258 C 26.1837 0.774438 -3.52186 0
M  V30 259 O 25.2877 1.88038 -3.67036 0
M  V30 260 H 24.6287 0.0659259 -0.660719 0
M  V30 261 H 27.1587 -0.42761 -2.00082 0
M  V30 262 H 27.1687 1.06642 -3.93816 0
M  V30 263 H 25.8437 -0.0646707 -4.1585 0
M  V30 264 H 24.4207 1.58985 -3.3731 0
M  V30 265 N 26.6058 1.57591 -0.0167156 0
M  V30 266 C 27.8538 1.90906 0.663285 0
M  V30 267 C 28.1748 0.892509 1.73376 0
M  V30 268 O 27.4448 -0.0677623 1.95783 0
M  V30 269 H 26.0248 0.704637 0.247983 0
M  V30 270 H 28.6868 1.94803 -0.0615909 0
M  V30 271 H 27.7828 2.9116 1.12393 0
M  V30 272 N 28.0839 -0.256276 1.55502 0
M  V30 273 C 29.0159 -1.33981 1.85962 0
M  V30 274 C 30.0289 -1.44743 0.745212 0
M  V30 275 O 31.2179 -1.4626 1.02324 0
M  V30 276 C 28.3179 -2.7194 2.02242 0
M  V30 277 C 27.4909 -2.83562 3.33033 0
M  V30 278 C 26.5499 -4.02304 3.39172 0
M  V30 279 O 25.5759 -3.92273 4.12444 0
M  V30 280 N 26.7779 -5.15045 2.67784 0
M  V30 281 H 29.5429 -1.08191 2.7949 0
M  V30 282 H 27.1039 -0.446388 1.55624 0
M  V30 283 H 29.0959 -3.49697 2.03701 0
M  V30 284 H 27.6659 -2.90479 1.15502 0
M  V30 285 H 26.8859 -1.92555 3.43971 0
M  V30 286 H 28.1739 -2.88271 4.19258 0
M  V30 287 H 27.5719 -5.26085 2.07968 0
M  V30 288 H 26.1289 -5.90972 2.74947 0
M  V30 289 N 29.562 -1.4872 -0.521534 0
M  V30 290 C 30.808 -1.58378 -1.27624 0
M  V30 291 C 31.163 -0.258028 -1.90662 0
M  V30 292 O 30.456 0.739917 -1.76736 0
M  V30 293 C 30.65 -2.66497 -2.38148 0
M  V30 294 C 30.479 -4.09456 -1.85945 0
M  V30 295 C 29.249 -4.76495 -1.68168 0
M  V30 296 C 31.447 -4.95353 -1.3831 0
M  V30 297 N 29.429 -6.0384 -1.1068 0
M  V30 298 C 30.8 -6.13012 -0.928238 0
M  V30 299 C 32.855 -4.81512 -1.26692 0
M  V30 300 C 31.558 -7.18354 -0.368701 0
M  V30 301 C 33.584 -5.86984 -0.721368 0
M  V30 302 C 32.946 -7.03857 -0.276623 0
M  V30 303 H 29.045 -0.634045 -0.457724 0
M  V30 304 H 31.629 -1.85639 -0.587049 0
M  V30 305 H 29.8 -2.41043 -3.04553 0
M  V30 306 H 31.532 -2.65791 -3.05184 0
M  V30 307 H 28.287 -4.32962 -1.91939 0
M  V30 308 H 28.711 -6.71778 -0.839217 0
M  V30 309 H 33.353 -3.91487 -1.5968 0
M  V30 310 H 31.071 -8.08096 -0.0265122 0
M  V30 311 H 34.657 -5.78329 -0.634531 0
M  V30 312 H 33.537 -7.84077 0.138947 0
M  V30 313 N 31.0401 0.771051 -1.3745 0
M  V30 314 C 32.4511 1.34737 -1.29239 0
M  V30 315 C 32.8021 1.96109 0.0596908 0
M  V30 316 O 31.9271 1.93865 0.961534 0
M  V30 317 C 32.5221 2.44973 -2.34037 0
M  V30 318 C 31.0811 2.98372 -2.29458 0
M  V30 319 C 30.2281 1.71595 -2.17831 0
M  V30 320 H 33.1791 0.571256 -1.48062 0
M  V30 321 H 33.2001 3.24471 -1.98744 0
M  V30 322 H 32.7121 2.00276 -3.32432 0
M  V30 323 H 30.8131 3.47443 -1.34589 0
M  V30 324 H 30.9261 3.53939 -3.229 0
M  V30 325 H 29.2901 1.94547 -1.64388 0
M  V30 326 H 30.0731 1.29001 -3.18141 0
M  V30 327 N 32.5182 1.22032 0.997298 0
M  V30 328 C 33.9342 0.979326 1.26021 0
M  V30 329 C 34.1342 -0.32972 1.98784 0
M  V30 330 O 33.1902 -1.05345 2.29475 0
M  V30 331 C 34.5032 2.17509 2.07631 0
M  V30 332 C 36.0512 2.21817 2.2083 0
M  V30 333 C 36.5262 3.40933 3.05825 0
M  V30 334 N 38.0172 3.41067 3.13412 0
M  V30 335 C 38.7522 4.29885 3.79455 0
M  V30 336 N 38.2482 5.28914 4.47462 0
M  V30 337 N 40.0412 4.17673 3.76173 0
M  V30 338 H 32.1922 2.06202 0.509352 0
M  V30 339 H 34.4552 0.90334 0.287541 0
M  V30 340 H 34.1612 3.12415 1.61524 0
M  V30 341 H 34.0352 2.17206 3.08385 0
M  V30 342 H 36.4222 1.27462 2.66153 0
M  V30 343 H 36.5032 2.2616 1.1952 0
M  V30 344 H 36.1472 4.35586 2.61203 0
M  V30 345 H 36.0772 3.33829 4.07266 0
M  V30 346 H 38.5682 2.69406 2.65007 0
M  V30 347 H 38.8812 5.92973 4.95583 0
M  V30 348 H 37.2262 5.32831 4.46224 0
M  V30 349 H 40.4172 3.39564 3.22202 0
M  V30 350 H 40.5902 4.87098 4.27363 0
M  V30 351 N 33.9963 -1.19345 1.0293 0
M  V30 352 C 34.9263 -2.2481 0.631105 0
M  V30 353 C 35.9073 -1.66245 -0.360104 0
M  V30 354 O 37.0923 -1.92677 -0.242726 0
M  V30 355 C 34.2223 -3.47295 -0.0184607 0
M  V30 356 C 33.1763 -4.18536 0.895073 0
M  V30 357 C 32.5023 -5.34586 0.110592 0
M  V30 358 C 33.8023 -4.73287 2.209 0
M  V30 359 H 35.4963 -2.58372 1.51275 0
M  V30 360 H 33.0423 -1.24194 0.728818 0
M  V30 361 H 34.9953 -4.20268 -0.308675 0
M  V30 362 H 33.7193 -3.12933 -0.934907 0
M  V30 363 H 32.3783 -3.47446 1.16949 0
M  V30 364 H 32.0263 -4.96469 -0.807902 0
M  V30 365 H 31.7263 -5.83183 0.719087 0
M  V30 366 H 33.2503 -6.10355 -0.172871 0
M  V30 367 H 34.6643 -5.38013 1.98028 0
M  V30 368 H 33.0613 -5.32373 2.76946 0
M  V30 369 H 34.1313 -3.91331 2.86336 0
M  V30 370 N 35.4744 -0.807222 -1.35358 0
M  V30 371 C 36.8904 -0.491038 -1.51858 0
M  V30 372 C 37.0904 0.987648 -1.75635 0
M  V30 373 O 36.1464 1.77265 -1.79815 0
M  V30 374 C 37.4594 -1.33695 -2.69344 0
M  V30 375 C 39.0074 -1.33246 -2.83222 0
M  V30 376 C 39.4824 -2.1625 -4.03733 0
M  V30 377 N 40.9734 -2.1379 -4.10911 0
M  V30 378 C 41.7084 -2.74772 -5.03277 0
M  V30 379 N 41.2044 -3.44684 -6.0097 0
M  V30 380 N 42.9974 -2.6441 -4.96028 0
M  V30 381 H 35.1484 -1.76485 -1.18181 0
M  V30 382 H 37.4114 -0.751199 -0.578276 0
M  V30 383 H 37.1174 -2.38634 -2.58354 0
M  V30 384 H 36.9914 -0.990618 -3.6396 0
M  V30 385 H 39.3784 -0.290911 -2.93663 0
M  V30 386 H 39.4594 -1.71866 -1.89461 0
M  V30 387 H 39.1034 -3.20445 -3.94052 0
M  V30 388 H 39.0334 -1.74989 -4.96675 0
M  V30 389 H 41.5244 -1.62923 -3.40976 0
M  V30 390 H 41.8374 -3.88501 -6.68047 0
M  V30 391 H 40.1824 -3.48788 -6.01142 0
M  V30 392 H 43.3734 -2.0938 -4.18662 0
M  V30 393 H 43.5464 -3.12225 -5.6782 0
M  V30 394 N 36.9525 1.47285 -0.560781 0
M  V30 395 C 37.9155 2.28535 0.174488 0
M  V30 396 C 38.9155 1.37153 0.839388 0
M  V30 397 O 40.1055 1.59748 0.694702 0
M  V30 398 C 37.2375 3.16934 1.25561 0
M  V30 399 H 38.4305 2.95012 -0.539262 0
M  V30 400 H 35.9835 1.53034 -0.317865 0
M  V30 401 H 36.7185 2.55157 2.00164 0
M  V30 402 H 36.5035 3.8419 0.783604 0
M  V30 403 H 37.9935 3.78143 1.77193 0
M  V30 404 N 38.4306 0.297415 1.54768 0
M  V30 405 C 39.7076 -0.365847 1.92148 0
M  V30 406 C 40.0876 -1.71975 1.22424 0
M  V30 407 O 39.4356 -2.25666 0.358739 0
M  V30 408 C 39.6456 -0.484056 3.45627 0
M  V30 409 C 40.9936 -0.756594 4.17805 0
M  V30 410 O 42.0176 -0.568007 3.51642 0
M  V30 411 O 40.8766 -1.11863 5.34929 0
M  V30 412 H 37.9706 -0.203919 0.801465 0
M  V30 413 H 40.5166 0.34521 1.66152 0
M  V30 414 H 39.2886 0.467865 3.88493 0
M  V30 415 H 38.9116 -1.24372 3.77647 0
M  V30 416 N 39.9087 -1.5758 0.0250728 0
M  V30 417 C 41.1367 -1.9593 -0.664747 0
M  V30 418 C 41.5517 -0.901352 -1.65895 0
M  V30 419 O 40.9087 0.117255 -1.82123 0
M  V30 420 C 40.9597 -3.34342 -1.37468 0
M  V30 421 O 40.6807 -4.36079 -0.420324 0
M  V30 422 C 42.1817 -3.873 -2.1567 0
M  V30 423 H 39.4017 -0.645405 -0.183557 0
M  V30 424 H 41.9457 -2.04329 0.0836372 0
M  V30 425 H 40.1007 -3.27175 -2.0745 0
M  V30 426 H 40.5147 -5.16297 -0.923991 0
M  V30 427 H 41.9887 -4.86504 -2.60803 0
M  V30 428 H 42.4657 -3.21331 -2.99405 0
M  V30 429 H 43.0717 -3.97723 -1.50654 0
M  V30 430 N 41.3868 0.248026 -1.55636 0
M  V30 431 C 42.6638 0.998988 -1.68165 0
M  V30 432 C 43.0438 2.03409 -0.564621 0
M  V30 433 O 42.3918 2.24378 0.432076 0
M  V30 434 C 42.6018 1.63334 -3.0842 0
M  V30 435 C 43.9498 2.13562 -3.66983 0
M  V30 436 O 44.9738 1.73277 -3.11213 0
M  V30 437 O 43.8328 2.87526 -4.64749 0
M  V30 438 H 40.9268 0.464933 -0.683935 0
M  V30 439 H 43.4728 0.241902 -1.67967 0
M  V30 440 H 42.2448 0.884583 -3.8117 0
M  V30 441 H 41.8678 2.45666 -3.12624 0
M  V30 442 N 42.8649 1.48995 0.513639 0
M  V30 443 C 43.7949 1.67636 1.62544 0
M  V30 444 C 44.7759 0.525087 1.61793 0
M  V30 445 O 45.9609 0.759502 1.78732 0
M  V30 446 C 43.0909 1.73114 3.01079 0
M  V30 447 C 42.0449 2.87905 3.16693 0
M  V30 448 C 41.3709 2.78486 4.56453 0
M  V30 449 C 42.6709 4.29005 2.97913 0
M  V30 450 H 44.3649 2.60716 1.47198 0
M  V30 451 H 41.9109 1.25465 0.706714 0
M  V30 452 H 43.8639 1.84742 3.78746 0
M  V30 453 H 42.5879 0.766241 3.17484 0
M  V30 454 H 41.2469 2.75859 2.41448 0
M  V30 455 H 40.8949 1.7993 4.69717 0
M  V30 456 H 40.5949 3.55523 4.67843 0
M  V30 457 H 42.1189 2.92104 5.36197 0
M  V30 458 H 43.5329 4.41798 3.65359 0
M  V30 459 H 41.9299 5.07166 3.20785 0
M  V30 460 H 42.9999 4.44329 1.94165 0
M  V30 461 N 44.343 -0.763751 1.37857 0
M  V30 462 C 45.275 -1.88664 1.30148 0
M  V30 463 C 46.288 -1.61365 0.215685 0
M  V30 464 O 47.477 -1.72134 0.472459 0
M  V30 465 C 44.577 -3.24075 0.991396 0
M  V30 466 C 43.75 -3.78958 2.18426 0
M  V30 467 C 42.809 -4.92862 1.8432 0
M  V30 468 O 41.835 -5.08027 2.56704 0
M  V30 469 N 43.037 -5.75071 0.792081 0
M  V30 470 H 45.802 -1.95791 2.26905 0
M  V30 471 H 43.363 -0.943226 1.31586 0
M  V30 472 H 45.355 -3.97804 0.743935 0
M  V30 473 H 43.925 -3.12399 0.112122 0
M  V30 474 H 43.145 -2.96913 2.59299 0
M  V30 475 H 44.433 -4.12357 2.98058 0
M  V30 476 H 43.831 -5.65375 0.191595 0
M  V30 477 H 42.388 -6.48991 0.60449 0
M  V30 478 N 45.8211 -1.22559 -0.990812 0
M  V30 479 C 47.2371 -0.985996 -1.255 0
M  V30 480 C 47.4371 0.319173 -1.98956 0
M  V30 481 O 46.4931 1.04127 -2.3003 0
M  V30 482 C 47.8061 -2.18607 -2.06474 0
M  V30 483 C 49.3541 -2.22985 -2.19651 0
M  V30 484 C 49.8291 -3.4255 -3.04012 0
M  V30 485 N 51.3201 -3.42725 -3.11599 0
M  V30 486 C 52.0551 -4.31892 -3.7717 0
M  V30 487 N 51.5511 -5.31279 -4.44651 0
M  V30 488 N 53.3441 -4.19662 -3.73952 0
M  V30 489 H 45.4951 -2.06469 -0.49841 0
M  V30 490 H 47.7581 -0.904853 -0.282747 0
M  V30 491 H 47.4641 -3.13267 -1.59865 0
M  V30 492 H 47.3381 -2.18838 -3.07229 0
M  V30 493 H 49.7251 -1.28871 -2.65474 0
M  V30 494 H 49.8061 -2.26791 -1.18319 0
M  V30 495 H 49.4501 -4.36965 -2.58889 0
M  V30 496 H 49.3801 -3.35984 -4.0549 0
M  V30 497 H 51.8711 -2.70807 -2.63575 0
M  V30 498 H 52.1841 -5.95593 -4.92431 0
M  V30 499 H 50.5291 -5.3519 -4.43392 0
M  V30 500 H 53.7201 -3.41268 -3.20396 0
M  V30 501 H 53.8931 -4.89358 -4.24774 0
M  V30 502 N 47.2992 1.18797 -1.03562 0
M  V30 503 C 48.2292 2.24472 -0.643019 0
M  V30 504 C 49.2102 1.66433 0.351283 0
M  V30 505 O 50.3952 1.92803 0.232505 0
M  V30 506 C 47.5252 3.473 4.24935e-05 0
M  V30 507 C 46.4792 4.18055 -0.917257 0
M  V30 508 C 45.8052 5.34519 -0.138941 0
M  V30 509 C 47.1052 4.72109 -2.23407 0
M  V30 510 H 48.7992 2.57566 -1.52643 0
M  V30 511 H 46.3452 1.23806 -0.735394 0
M  V30 512 H 48.2982 4.20426 0.286383 0
M  V30 513 H 47.0222 3.13424 0.918299 0
M  V30 514 H 45.6812 3.46821 -1.1879 0
M  V30 515 H 45.3292 4.96891 0.781562 0
M  V30 516 H 45.0292 5.82794 -0.750005 0
M  V30 517 H 46.5532 6.10438 0.1405 0
M  V30 518 H 47.9672 5.36955 -2.00879 0
M  V30 519 H 46.3642 5.30897 -2.79765 0
M  V30 520 H 47.4342 3.89807 -2.88407 0
M  V30 521 N 48.7773 0.814389 1.34928 0
M  V30 522 C 50.0253 0.397636 1.9815 0
M  V30 523 C 50.3463 -1.04069 1.64908 0
M  V30 524 O 49.6163 -1.72121 0.93548 0
M  V30 525 H 48.1963 0.144043 0.732981 0
M  V30 526 H 50.8583 1.04195 1.6471 0
M  V30 527 H 49.9543 0.509688 3.0791 0
M  V30 528 N 50.2554 -1.46986 0.568584 0
M  V30 529 C 51.4804 -2.07335 0.0520528 0
M  V30 530 C 51.9054 -1.41675 -1.23733 0
M  V30 531 O 51.2634 -0.495623 -1.74394 0
M  V30 532 C 51.3114 -3.60417 -0.11501 0
M  V30 533 O 50.4154 -3.95309 -1.17492 0
M  V30 534 H 49.7564 -0.661597 0.0564385 0
M  V30 535 H 52.2864 -1.88837 0.787507 0
M  V30 536 H 52.2964 -4.06698 -0.325644 0
M  V30 537 H 50.9714 -4.07601 0.826675 0
M  V30 538 H 49.5484 -3.60757 -0.943869 0
M  V30 539 N 51.7335 -0.305618 -1.54608 0
M  V30 540 C 52.9585 0.307562 -2.05107 0
M  V30 541 C 53.3835 1.46385 -1.18123 0
M  V30 542 O 52.7415 1.8034 -0.186324 0
M  V30 543 C 52.7895 0.73704 -3.52987 0
M  V30 544 O 51.8935 1.84134 -3.6901 0
M  V30 545 H 51.2345 0.0589143 -0.661381 0
M  V30 546 H 53.7645 -0.448807 -1.99617 0
M  V30 547 H 53.7745 1.02459 -3.94925 0
M  V30 548 H 52.4495 -0.108773 -4.15758 0
M  V30 549 H 51.0265 1.55398 -3.38978 0
M  V30 550 N 53.2116 1.57565 -0.0334293 0
M  V30 551 C 54.1746 2.09393 0.932048 0
M  V30 552 C 55.1746 1.00986 1.25134 0
M  V30 553 O 56.3646 1.27129 1.19096 0
M  V30 554 C 53.4966 2.56338 2.2473 0
M  V30 555 H 54.6896 2.95984 0.483085 0
M  V30 556 H 52.2426 1.54819 0.21468 0
M  V30 557 H 52.9776 1.7309 2.74245 0
M  V30 558 H 52.7626 3.35542 2.02865 0
M  V30 559 H 54.2526 2.96646 2.93923 0
M  V30 560 N 54.6897 -0.239769 1.55765 0
M  V30 561 C 55.6227 -1.32356 1.85895 0
M  V30 562 C 56.6007 -1.46053 0.714662 0
M  V30 563 O 57.7847 -1.62154 0.961157 0
M  V30 564 C 54.9117 -2.6962 2.04994 0
M  V30 565 C 53.9577 -2.73036 3.27648 0
M  V30 566 S 54.7907 -2.28929 4.84099 0
M  V30 567 C 55.9467 -3.68103 5.06212 0
M  V30 568 H 56.1797 -1.06601 2.77531 0
M  V30 569 H 53.7127 -0.441112 1.47965 0
M  V30 570 H 55.6707 -3.48653 2.16682 0
M  V30 571 H 54.3317 -2.92609 1.14188 0
M  V30 572 H 53.5247 -3.7386 3.38 0
M  V30 573 H 53.1267 -2.02052 3.14723 0
M  V30 574 H 55.4187 -4.63656 4.93993 0
M  V30 575 H 56.3617 -3.6268 6.08168 0
M  V30 576 H 56.7697 -3.60947 4.34025 0
M  V30 577 N 56.1678 -1.49265 -0.50573 0
M  V30 578 C 57.1308 -1.65075 -1.59006 0
M  V30 579 C 58.1308 -0.522768 -1.52065 0
M  V30 580 O 59.3208 -0.789117 -1.55302 0
M  V30 581 C 56.4528 -1.64369 -2.98656 0
M  V30 582 H 57.6458 -2.61784 -1.46319 0
M  V30 583 H 55.1988 -1.38226 -0.729616 0
M  V30 584 H 55.9338 -0.692272 -3.16825 0
M  V30 585 H 55.7188 -2.46282 -3.05103 0
M  V30 586 H 57.2088 -1.78674 -3.77446 0
M  V30 587 N 57.6459 0.756429 -1.3826 0
M  V30 588 C 59.0569 1.33359 -1.30661 0
M  V30 589 C 59.4079 1.96161 0.0388875 0
M  V30 590 O 58.5329 1.94874 0.940918 0
M  V30 591 C 59.1279 2.42477 -2.36622 0
M  V30 592 C 57.6869 2.95922 -2.3261 0
M  V30 593 C 56.8339 1.69275 -2.19639 0
M  V30 594 H 59.7849 0.55552 -1.4866 0
M  V30 595 H 59.8059 3.22345 -2.02174 0
M  V30 596 H 59.3179 1.96739 -3.34538 0
M  V30 597 H 57.4189 3.45996 -1.38267 0
M  V30 598 H 57.5319 3.50494 -3.26636 0
M  V30 599 H 55.8959 1.92793 -1.66442 0
M  V30 600 H 56.6789 1.25619 -3.19491 0
M  V30 601 N 59.124 1.23083 0.984299 0
M  V30 602 C 60.349 1.088 1.76571 0
M  V30 603 C 60.774 -0.356657 1.84688 0
M  V30 604 O 60.132 -1.25788 1.30565 0
M  V30 605 C 60.18 1.71371 3.17277 0
M  V30 606 O 59.284 0.973213 4.00752 0
M  V30 607 H 58.625 0.381599 0.543395 0
M  V30 608 H 61.155 1.63057 1.23587 0
M  V30 609 H 61.165 1.76449 3.67872 0
M  V30 610 H 59.84 2.76493 3.10684 0
M  V30 611 H 58.417 0.999078 3.59267 0
M  V30 612 N 60.6021 -1.18246 1.0419 0
M  V30 613 C 62.0181 -1.40269 0.761366 0
M  V30 614 C 62.2181 -1.90777 -0.648578 0
M  V30 615 O 61.2741 -2.0929 -1.41258 0
M  V30 616 C 62.5871 -2.40237 1.8085 0
M  V30 617 C 64.1351 -2.53961 1.82955 0
M  V30 618 C 64.6101 -3.57194 2.86664 0
M  V30 619 N 66.1011 -3.64702 2.85563 0
M  V30 620 C 66.8361 -4.44309 3.6246 0
M  V30 621 N 66.3321 -5.27514 4.49111 0
M  V30 622 N 68.1251 -4.39084 3.50944 0
M  V30 623 H 60.2761 -0.837882 1.95175 0
M  V30 624 H 62.5391 -0.430608 0.84456 0
M  V30 625 H 62.2451 -2.10176 2.81991 0
M  V30 626 H 62.1191 -3.39601 1.64168 0
M  V30 627 H 64.5061 -2.83338 0.824855 0
M  V30 628 H 64.5871 -1.54706 2.03715 0
M  V30 629 H 64.2311 -3.28558 3.87314 0
M  V30 630 H 64.1611 -4.5613 2.6316 0
M  V30 631 H 66.6521 -3.05289 2.22727 0
M  V30 632 H 66.9651 -5.85411 5.04493 0
M  V30 633 H 65.3101 -5.2693 4.53178 0
M  V30 634 H 68.5011 -3.7313 2.82651 0
M  V30 635 H 68.6741 -5.00883 4.11121 0
M  V30 636 N 62.0802 -0.821533 -1.34494 0
M  V30 637 C 63.0272 -0.240397 -2.29545 0
M  V30 638 C 63.9972 0.634031 -1.53523 0
M  V30 639 O 65.1822 0.575966 -1.81899 0
M  V30 640 C 62.3222 0.592869 -3.39969 0
M  V30 641 C 61.4352 -0.30365 -4.30932 0
M  V30 642 C 60.5702 0.539049 -5.28458 0
M  V30 643 C 59.6092 -0.356942 -6.11058 0
M  V30 644 N 58.7462 0.446603 -7.00678 0
M  V30 645 H 63.5862 -1.05632 -2.7865 0
M  V30 646 H 61.1232 -0.532413 -1.37127 0
M  V30 647 H 63.0812 1.09129 -4.02675 0
M  V30 648 H 61.7112 1.37392 -2.92102 0
M  V30 649 H 60.7632 -0.920276 -3.691 0
M  V30 650 H 62.0752 -0.992661 -4.88823 0
M  V30 651 H 61.2292 1.102 -5.96608 0
M  V30 652 H 59.9682 1.26157 -4.71101 0
M  V30 653 H 58.9732 -0.932047 -5.41842 0
M  V30 654 H 60.1982 -1.07755 -6.70497 0
M  V30 655 H 58.1442 1.15282 -6.45791 0
M  V30 656 H 58.0612 -0.184048 -7.55776 0
M  V30 657 H 59.3292 0.992352 -7.73158 0
M  V30 658 N 63.5583 1.46682 -0.576371 0
M  V30 659 C 64.8053 2.02412 -0.0595339 0
M  V30 660 C 65.1333 1.44859 1.29793 0
M  V30 661 O 64.3883 0.601099 1.8624 0
M  V30 662 C 64.6873 3.57345 0.062886 0
M  V30 663 C 64.3533 4.33908 -1.22616 0
M  V30 664 C 63.0153 4.54544 -1.57933 0
M  V30 665 C 65.3673 4.77919 -2.07948 0
M  V30 666 C 62.6953 5.16444 -2.78393 0
M  V30 667 C 65.0473 5.41149 -3.27629 0
M  V30 668 C 63.7113 5.60014 -3.63236 0
M  V30 669 H 62.9813 0.74068 -0.021785 0
M  V30 670 H 65.6283 1.76128 -0.751735 0
M  V30 671 H 63.9333 3.82729 0.838178 0
M  V30 672 H 65.6303 3.98136 0.478439 0
M  V30 673 H 62.2203 4.18138 -0.941202 0
M  V30 674 H 66.4043 4.61738 -1.81967 0
M  V30 675 H 61.6603 5.29242 -3.06126 0
M  V30 676 H 65.8343 5.74211 -3.94023 0
M  V30 677 H 63.4613 6.07748 -4.56669 0
M  V30 678 N 65.0364 0.313813 1.54444 0
M  V30 679 C 66.2834 -0.291675 2.00388 0
M  V30 680 C 66.6114 -1.52904 1.2021 0
M  V30 681 O 65.8664 -1.93833 0.269707 0
M  V30 682 C 66.1654 -0.680386 3.50864 0
M  V30 683 C 65.8314 0.456699 4.48581 0
M  V30 684 C 64.4934 0.768824 4.75018 0
M  V30 685 C 66.8454 1.22098 5.06697 0
M  V30 686 C 64.1734 1.84812 5.56831 0
M  V30 687 C 66.5254 2.29029 5.89685 0
M  V30 688 C 65.1894 2.60834 6.14428 0
M  V30 689 H 64.4594 -0.106732 0.733273 0
M  V30 690 H 67.1064 0.43557 1.86481 0
M  V30 691 H 65.4114 -1.48791 3.62448 0
M  V30 692 H 67.1084 -1.16026 3.83847 0
M  V30 693 H 63.6984 0.203337 4.28117 0
M  V30 694 H 67.8824 0.993096 4.86263 0
M  V30 695 H 63.1384 2.09912 5.74236 0
M  V30 696 H 67.3124 2.887 6.33739 0
M  V30 697 H 64.9394 3.44596 6.77612 0
M  V30 698 N 66.5145 -1.57545 0.0417849 0
M  V30 699 C 67.7605 -1.92601 -0.635021 0
M  V30 700 C 68.0935 -0.919627 -1.71045 0
M  V30 701 O 67.3685 0.0557892 -1.9442 0
M  V30 702 C 67.6515 -3.38085 -1.23979 0
M  V30 703 C 67.5045 -4.49467 -0.173057 0
M  V30 704 C 68.8235 -3.83776 -2.15416 0
M  V30 705 H 65.9425 -0.700397 -0.229374 0
M  V30 706 H 68.5845 -1.89728 0.101633 0
M  V30 707 H 66.7345 -3.40664 -1.86762 0
M  V30 708 H 68.4065 -4.59018 0.458312 0
M  V30 709 H 66.6495 -4.30909 0.499996 0
M  V30 710 H 67.3205 -5.48323 -0.636054 0
M  V30 711 H 69.7965 -3.83013 -1.62605 0
M  V30 712 H 68.6725 -4.8624 -2.54679 0
M  V30 713 H 68.9335 -3.19998 -3.05047 0
M  V30 714 N 67.9926 0.231505 -1.5589 0
M  V30 715 C 69.2406 0.955461 -1.78088 0
M  V30 716 C 69.5616 1.85262 -0.608533 0
M  V30 717 O 68.8316 1.92277 0.375035 0
M  V30 718 H 67.4116 0.355787 -0.656829 0
M  V30 719 H 70.0736 0.245751 -1.93344 0
M  V30 720 H 69.1696 1.56814 -2.69844 0
M  V30 721 N 69.4707 1.49531 0.497807 0
M  V30 722 C 70.7187 1.58865 1.24926 0
M  V30 723 C 71.0397 0.278721 1.92998 0
M  V30 724 O 70.3097 -0.702144 1.82885 0
M  V30 725 H 68.8897 0.585343 0.464094 0
M  V30 726 H 71.5517 1.86174 0.57666 0
M  V30 727 H 70.6477 2.38633 2.01149 0
M  V30 728 N 70.9488 -0.749086 1.3866 0
M  V30 729 C 71.8968 -1.88428 1.36373 0
M  V30 730 C 72.8908 -1.67561 0.248929 0
M  V30 731 O 74.0968 -1.75074 0.41821 0
M  V30 732 H 70.4718 -0.620023 0.42553 0
M  V30 733 H 72.4428 -1.87473 2.32156 0
M  V30 734 C 71.1918 -3.25961 1.21014 0
M  V30 735 H 70.5148 -3.42607 2.06059 0
M  V30 736 H 71.9548 -4.05625 1.23469 0
M  V30 737 C 70.4138 -3.36799 -0.0825941 0
M  V30 738 O 70.9438 -3.87517 -1.05797 0
M  V30 739 N 69.1498 -2.90258 -0.140939 0
M  V30 740 H 68.6968 -2.49174 0.653477 0
M  V30 741 H 68.6548 -2.97889 -1.00545 0
M  V30 742 N 72.4269 -1.23603 -0.977757 0
M  V30 743 C 73.6729 -1.08136 -1.72274 0
M  V30 744 C 74.0279 0.377453 -1.88661 0
M  V30 745 O 73.3209 1.27552 -1.42972 0
M  V30 746 C 73.5149 -1.7433 -3.11999 0
M  V30 747 C 73.3439 -3.26498 -3.0924 0
M  V30 748 C 72.1139 -3.9567 -3.14282 0
M  V30 749 C 74.3119 -4.2323 -2.92201 0
M  V30 750 N 72.2939 -5.34799 -3.01436 0
M  V30 751 C 73.6649 -5.49289 -2.87544 0
M  V30 752 C 75.7199 -4.13931 -2.76705 0
M  V30 753 C 74.4229 -6.67116 -2.68978 0
M  V30 754 C 76.4489 -5.31424 -2.59504 0
M  V30 755 C 75.8109 -6.5641 -2.55548 0
M  V30 756 H 71.9099 -0.450247 -0.639376 0
M  V30 757 H 74.4939 -1.5637 -1.16002 0
M  V30 758 H 72.6649 -1.28624 -3.66484 0
M  V30 759 H 74.3969 -1.51815 -3.75146 0
M  V30 760 H 71.1519 -3.46767 -3.22567 0
M  V30 761 H 71.5759 -6.07748 -2.98281 0
M  V30 762 H 76.2179 -3.1807 -2.78552 0
M  V30 763 H 73.9359 -7.63109 -2.65876 0
M  V30 764 H 77.5219 -5.26072 -2.48474 0
M  V30 765 H 76.4019 -7.45795 -2.42405 0
M  V30 766 N 73.905 1.17692 -1.04816 0
M  V30 767 C 74.852 2.21581 -0.645797 0
M  V30 768 C 75.822 1.62367 0.350159 0
M  V30 769 O 77.007 1.89254 0.242433 0
M  V30 770 C 74.147 3.45092 -0.0227568 0
M  V30 771 C 73.26 4.18613 -1.06709 0
M  V30 772 C 72.395 5.29602 -0.411767 0
M  V30 773 C 71.434 5.94904 -1.44067 0
M  V30 774 N 70.571 6.97414 -0.809781 0
M  V30 775 H 75.411 2.55353 -1.5362 0
M  V30 776 H 72.948 1.25438 -0.768364 0
M  V30 777 H 74.906 4.15679 0.35588 0
M  V30 778 H 73.536 3.11917 0.831122 0
M  V30 779 H 72.588 3.46779 -1.5636 0
M  V30 780 H 73.9 4.63293 -1.84827 0
M  V30 781 H 73.054 6.06696 0.0206623 0
M  V30 782 H 71.793 4.86045 0.401438 0
M  V30 783 H 70.798 5.16544 -1.88316 0
M  V30 784 H 72.023 6.40542 -2.25571 0
M  V30 785 H 69.969 6.55998 -0.0170186 0
M  V30 786 H 69.886 7.40386 -1.52856 0
M  V30 787 H 71.154 7.78463 -0.401999 0
M  V30 788 N 75.3831 0.828654 1.34056 0
M  V30 789 C 76.3161 0.199763 2.27324 0
M  V30 790 C 77.2941 -0.647168 1.49166 0
M  V30 791 O 78.4781 -0.609661 1.78369 0
M  V30 792 C 75.6051 -0.720455 3.30949 0
M  V30 793 C 74.6511 0.0496888 4.26471 0
M  V30 794 S 75.4841 1.40072 5.16856 0
M  V30 795 C 76.6401 0.485527 6.24014 0
M  V30 796 H 76.8731 0.990478 2.80316 0
M  V30 797 H 74.4061 0.624857 1.41191 0
M  V30 798 H 76.3641 -1.24581 3.91139 0
M  V30 799 H 75.0251 -1.48474 2.76793 0
M  V30 800 H 74.2181 -0.650104 4.9979 0
M  V30 801 H 73.8201 0.505779 3.70564 0
M  V30 802 H 76.1121 -0.320672 6.76741 0
M  V30 803 H 77.0551 1.18856 6.98054 0
M  V30 804 H 77.4631 0.0714109 5.64455 0
M  V30 805 N 76.8612 -1.46375 0.584142 0
M  V30 806 C 77.8092 -2.32042 -0.161047 0
M  V30 807 C 78.8032 -1.44569 -0.882966 0
M  V30 808 O 80.0092 -1.61186 -0.801191 0
M  V30 809 H 76.3842 -0.748659 -0.0708033 0
M  V30 810 H 78.3552 -2.92704 0.580269 0
M  V30 811 C 77.1042 -3.27762 -1.1605 0
M  V30 812 H 76.4272 -3.95051 -0.614419 0
M  V30 813 H 77.8672 -3.90481 -1.65228 0
M  V30 814 C 76.3262 -2.53218 -2.22221 0
M  V30 815 O 76.8562 -2.29628 -3.29597 0
M  V30 816 N 75.0622 -2.13756 -1.96868 0
M  V30 817 H 74.6092 -2.33142 -1.09557 0
M  V30 818 H 74.5672 -1.642 -2.68115 0
M  V30 819 N 78.3393 -0.321999 -1.54275 0
M  V30 820 C 79.5873 0.280489 -2.00144 0
M  V30 821 C 79.9083 1.52777 -1.21178 0
M  V30 822 O 79.1783 1.9338 -0.313187 0
M  V30 823 H 77.7583 0.106632 -0.73935 0
M  V30 824 H 80.4203 -0.438184 -1.8991 0
M  V30 825 H 79.5163 0.537972 -3.07428 0
M  V30 826 N 79.8174 1.5752 -0.0501392 0
M  V30 827 C 81.2334 1.56631 0.306402 0
M  V30 828 C 81.4334 1.0577 1.71508 0
M  V30 829 O 80.4894 0.713837 2.422 0
M  V30 830 C 81.8024 3.00393 0.135811 0
M  V30 831 C 83.3504 3.12315 0.206993 0
M  V30 832 C 83.8254 4.57954 0.064944 0
M  V30 833 N 85.3164 4.63041 0.121254 0
M  V30 834 C 86.0514 5.73389 0.0354381 0
M  V30 835 N 85.5474 6.92724 -0.102666 0
M  V30 836 N 87.3404 5.62026 0.090946 0
M  V30 837 H 79.4914 1.88903 -0.971046 0
M  V30 838 H 81.7544 0.869876 -0.376855 0
M  V30 839 H 81.4604 3.41635 -0.835384 0
M  V30 840 H 81.3344 3.66373 0.897275 0
M  V30 841 H 83.7214 2.70973 1.16866 0
M  V30 842 H 83.8024 2.49016 -0.585208 0
M  V30 843 H 83.4464 4.99981 -0.893394 0
M  V30 844 H 83.3764 5.19258 0.876277 0
M  V30 845 H 85.8674 3.77216 0.227284 0
M  V30 846 H 86.1804 7.72633 -0.160882 0
M  V30 847 H 84.5254 6.94864 -0.137737 0
M  V30 848 H 87.7164 4.67684 0.197388 0
M  V30 849 H 87.8894 6.47997 0.0206089 0
M  V30 850 N 81.2955 -0.223234 1.56011 0
M  V30 851 C 82.2425 -1.27664 1.92277 0
M  V30 852 C 83.2125 -1.46659 0.779763 0
M  V30 853 O 84.3975 -1.60256 1.03551 0
M  V30 854 C 81.5375 -2.62234 2.24338 0
M  V30 855 C 80.6505 -2.51051 3.51564 0
M  V30 856 C 79.7855 -3.78133 3.7308 0
M  V30 857 C 78.8245 -3.61665 4.93827 0
M  V30 858 N 77.9615 -4.80693 5.11741 0
M  V30 859 H 82.8015 -0.960358 2.82101 0
M  V30 860 H 80.3385 -0.462901 1.39627 0
M  V30 861 H 82.2965 -3.40596 2.40936 0
M  V30 862 H 80.9265 -2.91961 1.3769 0
M  V30 863 H 79.9785 -1.64132 3.43169 0
M  V30 864 H 81.2905 -2.34803 4.40079 0
M  V30 865 H 80.4445 -4.64938 3.89766 0
M  V30 866 H 79.1835 -3.97304 2.82844 0
M  V30 867 H 78.1885 -2.73244 4.77093 0
M  V30 868 H 79.4135 -3.43966 5.85546 0
M  V30 869 H 77.3595 -5.00181 4.24446 0
M  V30 870 H 77.2765 -4.67165 5.94384 0
M  V30 871 H 78.5445 -5.6893 5.3286 0
M  V30 872 N 82.7736 -1.49793 -0.48987 0
M  V30 873 C 83.7056 -1.63413 -1.60713 0
M  V30 874 C 84.7186 -0.516329 -1.54395 0
M  V30 875 O 85.9076 -0.788812 -1.60125 0
M  V30 876 C 83.0076 -1.58516 -2.99543 0
M  V30 877 C 82.1806 -2.86016 -3.30928 0
M  V30 878 C 81.2396 -2.74018 -4.49222 0
M  V30 879 O 80.2656 -3.47964 -4.50455 0
M  V30 880 N 81.4676 -1.86309 -5.4979 0
M  V30 881 H 84.2326 -2.59777 -1.49452 0
M  V30 882 H 81.7936 -1.47022 -0.677955 0
M  V30 883 H 83.7856 -1.48128 -3.76617 0
M  V30 884 H 82.3556 -0.69965 -3.0467 0
M  V30 885 H 81.5756 -3.10672 -2.42645 0
M  V30 886 H 82.8636 -3.70521 -3.487 0
M  V30 887 H 82.2616 -1.2551 -5.51601 0
M  V30 888 H 80.8186 -1.81837 -6.25922 0
M  V30 889 N 84.2517 0.741722 -1.39055 0
M  V30 890 C 85.4767 1.53607 -1.39354 0
M  V30 891 C 85.9017 1.88096 0.0116905 0
M  V30 892 O 85.2597 1.5143 0.996924 0
M  V30 893 C 85.3077 2.80441 -2.26682 0
M  V30 894 O 84.4117 3.76088 -1.69208 0
M  V30 895 H 83.7527 0.464142 -0.474835 0
M  V30 896 H 86.2827 0.915665 -1.82967 0
M  V30 897 H 86.2927 3.29246 -2.40959 0
M  V30 898 H 84.9677 2.5467 -3.2881 0
M  V30 899 H 83.5447 3.34833 -1.64138 0
M  V30 900 N 85.7298 1.2412 0.971189 0
M  V30 901 C 86.6598 1.05508 2.08304 0
M  V30 902 C 87.6408 -0.0308864 1.70072 0
M  V30 903 O 88.8258 0.135521 1.93727 0
M  V30 904 C 85.9558 0.655365 3.4106 0
M  V30 905 C 84.9098 1.68971 3.93234 0
M  V30 906 C 84.2358 1.14516 5.22293 0
M  V30 907 C 85.5358 3.08487 4.21465 0
M  V30 908 H 87.2298 1.98507 2.24132 0
M  V30 909 H 84.7758 0.955821 1.07704 0
M  V30 910 H 86.7288 0.51217 4.18276 0
M  V30 911 H 85.4528 -0.31032 3.25122 0
M  V30 912 H 84.1118 1.82106 3.18171 0
M  V30 913 H 83.7598 0.170189 5.02712 0
M  V30 914 H 83.4598 1.83635 5.58168 0
M  V30 915 H 84.9838 1.01401 6.02121 0
M  V30 916 H 86.3978 2.98601 4.89398 0
M  V30 917 H 84.7948 3.74926 4.68562 0
M  V30 918 H 85.8648 3.56787 3.28376 0
M  V30 919 N 87.2079 -1.17134 1.05439 0
M  V30 920 C 88.4559 -1.87085 0.764429 0
M  V30 921 C 88.7769 -1.81584 -0.710787 0
M  V30 922 O 88.0469 -1.24349 -1.51374 0
M  V30 923 H 86.6269 -0.692627 0.279779 0
M  V30 924 H 89.2889 -1.42087 1.33406 0
M  V30 925 H 88.3849 -2.92759 1.0816 0
M  V30 926 N 88.686 -0.835752 -1.33615 0
M  V30 927 C 89.596 -0.269088 -2.33052 0
M  V30 928 C 90.612 0.603251 -1.63208 0
M  V30 929 O 91.788 0.508112 -1.94885 0
M  V30 930 C 88.853 0.549091 -3.42324 0
M  V30 931 C 87.914 -0.347156 -4.27894 0
M  V30 932 C 87.147 0.43207 -5.31948 0
M  V30 933 O 87.37 1.66409 -5.45586 0
M  V30 934 O 86.304 -0.192298 -6.01593 0
M  V30 935 H 90.13 -1.09243 -2.83372 0
M  V30 936 H 87.715 -0.598198 -1.36901 0
M  V30 937 H 89.597 1.01414 -4.09015 0
M  V30 938 H 88.272 1.34955 -2.94226 0
M  V30 939 H 87.179 -0.859979 -3.64081 0
M  V30 940 H 88.512 -1.1123 -4.79467 0
M  V30 941 N 90.1641 1.46063 -0.591896 0
M  V30 942 C 91.0941 2.33172 0.123673 0
M  V30 943 C 92.0751 1.45897 0.87453 0
M  V30 944 O 93.2601 1.74698 0.848181 0
M  V30 945 C 90.3901 3.28336 1.13194 0
M  V30 946 C 89.3441 4.25124 0.495324 0
M  V30 947 C 88.6701 5.09863 1.61071 0
M  V30 948 C 89.9701 5.19143 -0.573425 0
M  V30 949 H 91.6641 2.93252 -0.603646 0
M  V30 950 H 89.2101 1.41014 -0.291741 0
M  V30 951 H 91.1631 3.88137 1.64097 0
M  V30 952 H 89.8871 2.66383 1.88965 0
M  V30 953 H 88.5461 3.66599 0.00729452 0
M  V30 954 H 88.1941 4.44288 2.35832 0
M  V30 955 H 87.8941 5.75417 1.19035 0
M  V30 956 H 89.4181 5.72529 2.12233 0
M  V30 957 H 90.8321 5.73106 -0.1491 0
M  V30 958 H 89.2291 5.93089 -0.914636 0
M  V30 959 H 90.2991 4.62519 -1.45617 0
M  V30 960 N 91.6422 0.330177 1.54103 0
M  V30 961 C 92.8912 -0.271336 1.99867 0
M  V30 962 C 93.2042 -1.52723 1.22209 0
M  V30 963 O 94.4102 -2.20515 1.58383 0
M  V30 964 C 92.8662 -0.534032 3.55916 0
M  V30 965 C 92.4742 0.705193 4.42415 0
M  V30 966 C 94.2182 -1.09514 4.1013 0
M  V30 967 C 92.1252 0.414035 5.89949 0
M  V30 968 H 91.0552 -0.105166 0.74663 0
M  V30 969 H 93.7062 0.443429 1.78062 0
M  V30 970 H 92.0882 -1.30915 3.73734 0
M  V30 971 H 93.2622 1.4804 4.36372 0
M  V30 972 H 91.5772 1.18698 3.99124 0
M  V30 973 H 94.1742 -1.3277 5.17954 0
M  V30 974 H 94.5172 -2.04656 3.62521 0
M  V30 975 H 95.0502 -0.381038 3.95971 0
M  V30 976 H 91.7892 1.33481 6.41766 0
M  V30 977 H 91.3092 -0.323336 5.98928 0
M  V30 978 H 92.9882 0.0263105 6.46995 0
M  V30 979 N 93.1203 -1.57491 0.0584922 0
M  V30 980 C 94.3683 -1.92597 -0.612436 0
M  V30 981 C 94.6893 -0.938162 -1.70949 0
M  V30 982 O 93.9593 0.0158301 -1.95894 0
M  V30 983 H 92.5393 -0.710964 -0.229214 0
M  V30 984 H 95.2013 -1.94571 0.113218 0
M  V30 985 H 94.2973 -2.94038 -1.04633 0
M  V30 986 N 94.5984 0.214957 -1.56127 0
M  V30 987 C 95.8264 0.955092 -1.83536 0
M  V30 988 C 96.2414 1.77677 -0.638472 0
M  V30 989 O 95.5984 1.78219 0.392968 0
M  V30 990 C 95.6494 1.86734 -3.09536 0
M  V30 991 O 95.3704 1.07887 -4.24608 0
M  V30 992 C 96.8714 2.72082 -3.4998 0
M  V30 993 H 94.0914 0.279611 -0.609966 0
M  V30 994 H 96.6354 0.228197 -2.03223 0
M  V30 995 H 94.7904 2.5481 -2.91806 0
M  V30 996 H 95.2044 1.69872 -4.9623 0
M  V30 997 H 96.6784 3.31782 -4.41163 0
M  V30 998 H 97.1554 3.44806 -2.7204 0
M  V30 999 H 97.7614 2.09409 -3.70173 0
M  V30 1000 N 96.0765 1.50051 0.48192 0
M  V30 1001 C 97.0065 1.71046 1.58951 0
M  V30 1002 C 97.9875 0.559288 1.60642 0
M  V30 1003 O 99.1725 0.797243 1.77081 0
M  V30 1004 C 96.3025 1.79462 2.97339 0
M  V30 1005 C 95.2565 2.94558 3.10515 0
M  V30 1006 C 94.5825 2.88105 4.50444 0
M  V30 1007 C 95.8825 4.35227 2.88747 0
M  V30 1008 H 97.5765 2.6378 1.41635 0
M  V30 1009 H 95.1225 1.26936 0.679942 0
M  V30 1010 H 97.0755 1.92734 3.74742 0
M  V30 1011 H 95.7995 0.833412 3.15788 0
M  V30 1012 H 94.4585 2.80918 2.35543 0
M  V30 1013 H 94.1065 1.89853 4.65795 0
M  V30 1014 H 93.8065 3.65366 4.60197 0
M  V30 1015 H 95.3305 3.03412 5.29881 0
M  V30 1016 H 96.7445 4.49449 3.55905 0
M  V30 1017 H 95.1415 5.13856 3.09955 0
M  V30 1018 H 96.2115 4.48347 1.84696 0
M  V30 1019 N 97.5546 -0.734337 1.39446 0
M  V30 1020 C 98.5026 -1.86971 1.38364 0
M  V30 1021 C 99.4966 -1.67288 0.266687 0
M  V30 1022 O 100.703 -1.74621 0.436755 0
M  V30 1023 H 97.0776 -0.615474 0.432082 0
M  V30 1024 H 99.0486 -1.85 2.34132 0
M  V30 1025 C 97.7976 -3.2466 1.24465 0
M  V30 1026 H 97.1206 -3.40402 2.09682 0
M  V30 1027 H 98.5606 -4.04292 1.27764 0
M  V30 1028 C 97.0196 -3.36867 -0.0468674 0
M  V30 1029 O 97.5496 -3.88618 -1.01681 0
M  V30 1030 N 95.7556 -2.90391 -0.110145 0
M  V30 1031 H 95.3026 -2.48466 0.679868 0
M  V30 1032 H 95.2606 -2.98939 -0.973799 0
M  V30 1033 N 99.0327 -1.24633 -0.964593 0
M  V30 1034 C 99.9957 -1.0424 -2.04124 0
M  V30 1035 C 100.996 0.00137563 -1.608 0
M  V30 1036 O 102.186 -0.239883 -1.7254 0
M  V30 1037 C 99.3177 -0.580588 -3.3592 0
M  V30 1038 H 100.511 -1.99803 -2.23649 0
M  V30 1039 H 98.0637 -1.06899 -1.14027 0
M  V30 1040 H 98.7987 0.3781 -3.22088 0
M  V30 1041 H 98.5837 -1.33398 -3.6871 0
M  V30 1042 H 100.074 -0.459034 -4.15069 0
M  V30 1043 N 100.511 1.16574 -1.06058 0
M  V30 1044 C 101.474 2.19085 -0.673392 0
M  V30 1045 C 102.474 1.5835 0.279648 0
M  V30 1046 O 103.664 1.74088 0.0623488 0
M  V30 1047 C 100.796 3.40899 0.00954234 0
M  V30 1048 H 101.989 2.54853 -1.58081 0
M  V30 1049 H 99.5418 1.30808 -0.855516 0
M  V30 1050 H 100.277 3.10684 0.929826 0
M  V30 1051 H 100.062 3.86233 -0.67573 0
M  V30 1052 H 101.552 4.1675 0.266245 0
M  V30 1053 N 101.989 0.842826 1.3317 0
M  V30 1054 C 102.936 0.276885 2.29133 0
M  V30 1055 C 103.906 -0.609527 1.54512 0
M  V30 1056 O 105.091 -0.546955 1.82792 0
M  V30 1057 C 102.231 -0.538707 3.40869 0
M  V30 1058 C 101.344 0.372169 4.30394 0
M  V30 1059 C 100.479 -0.454908 5.29249 0
M  V30 1060 C 99.5179 0.45411 6.10413 0
M  V30 1061 N 98.6549 -0.335075 7.013 0
M  V30 1062 H 103.495 1.10052 2.76934 0
M  V30 1063 H 101.032 0.554161 1.36262 0
M  V30 1064 H 102.99 -1.02709 4.0436 0
M  V30 1065 H 101.62 -1.32727 2.9425 0
M  V30 1066 H 100.672 0.97888 3.6759 0
M  V30 1067 H 101.984 1.0703 4.87182 0
M  V30 1068 H 101.138 -1.00695 5.98285 0
M  V30 1069 H 99.8769 -1.18646 4.73048 0
M  V30 1070 H 98.8819 1.01813 5.40291 0
M  V30 1071 H 100.107 1.18409 6.68697 0
M  V30 1072 H 98.0529 -1.04994 6.47543 0
M  V30 1073 H 97.9699 0.304262 7.55387 0
M  V30 1074 H 99.2379 -0.869224 7.74638 0
M  V30 1075 N 103.467 -1.45747 0.599634 0
M  V30 1076 C 104.713 -2.02592 0.0918643 0
M  V30 1077 C 105.046 -1.46806 -1.27128 0
M  V30 1078 O 104.321 -0.639658 -1.83681 0
M  V30 1079 C 104.604 -3.60073 0.0443398 0
M  V30 1080 C 104.457 -4.26208 1.43759 0
M  V30 1081 C 105.776 -4.35309 -0.647608 0
M  V30 1082 H 102.895 -0.736175 0.034857 0
M  V30 1083 H 105.537 -1.73694 0.770081 0
M  V30 1084 H 103.687 -3.84823 -0.533224 0
M  V30 1085 H 105.359 -4.12668 2.06162 0
M  V30 1086 H 103.602 -3.84916 2.00056 0
M  V30 1087 H 104.273 -5.35069 1.35665 0
M  V30 1088 H 106.749 -4.15805 -0.156776 0
M  V30 1089 H 105.625 -5.45038 -0.649942 0
M  V30 1090 H 105.886 -4.07598 -1.71219 0
M  V30 1091 N 104.945 -0.338344 -1.53925 0
M  V30 1092 C 106.356 0.146651 -1.86123 0
M  V30 1093 C 106.707 1.5042 -1.2597 0
M  V30 1094 O 105.832 2.08723 -0.571294 0
M  V30 1095 C 106.427 0.272879 -3.37699 0
M  V30 1096 C 104.986 0.702103 -3.69794 0
M  V30 1097 C 104.133 -0.167304 -2.76795 0
M  V30 1098 H 107.084 -0.558123 -1.48562 0
M  V30 1099 H 107.105 1.10128 -3.64214 0
M  V30 1100 H 106.617 -0.715307 -3.81451 0
M  V30 1101 H 104.718 1.6995 -3.31584 0
M  V30 1102 H 104.831 0.495604 -4.7653 0
M  V30 1103 H 103.195 0.359527 -2.5215 0
M  V30 1104 H 103.978 -1.15253 -3.23375 0
M  V30 1105 N 106.423 1.57458 -0.0668435 0
M  V30 1106 C 107.386 2.11323 0.887422 0
M  V30 1107 C 108.386 1.03618 1.22964 0
M  V30 1108 O 109.576 1.29626 1.16373 0
M  V30 1109 C 106.708 2.61048 2.19242 0
M  V30 1110 H 107.901 2.96942 0.420194 0
M  V30 1111 H 105.454 1.55239 0.181793 0
M  V30 1112 H 106.189 1.78868 2.70512 0
M  V30 1113 H 105.974 3.39769 1.95702 0
M  V30 1114 H 107.464 3.02814 2.87565 0
M  V30 1115 N 107.901 -0.206675 1.56239 0
M  V30 1116 C 109.178 -0.954051 1.70755 0
M  V30 1117 C 109.558 -2.01841 0.618353 0
M  V30 1118 O 108.906 -2.25444 -0.372434 0
M  V30 1119 C 109.116 -1.551 3.12642 0
M  V30 1120 C 110.464 -2.03757 3.72516 0
M  V30 1121 O 111.488 -1.64965 3.15698 0
M  V30 1122 O 110.347 -2.75103 4.72208 0
M  V30 1123 H 107.441 -0.446636 0.696021 0
M  V30 1124 H 109.987 -0.197283 1.68549 0
M  V30 1125 H 108.759 -0.783212 3.83382 0
M  V30 1126 H 108.382 -2.37291 3.19028 0
M  V30 1127 N 109.379 -1.50304 -0.473955 0
M  V30 1128 C 110.607 -1.64902 -1.24959 0
M  V30 1129 C 111.022 -0.331198 -1.85872 0
M  V30 1130 O 110.379 0.68652 -1.69095 0
M  V30 1131 C 110.43 -2.73803 -2.36038 0
M  V30 1132 O 110.151 -4.00477 -1.77624 0
M  V30 1133 C 111.652 -2.99349 -3.26964 0
M  V30 1134 H 108.872 -0.554383 -0.378022 0
M  V30 1135 H 111.416 -1.9651 -0.566054 0
M  V30 1136 H 109.571 -2.44898 -3.00173 0
M  V30 1137 H 109.985 -4.60678 -2.5075 0
M  V30 1138 H 111.459 -3.79217 -4.01121 0
M  V30 1139 H 111.936 -2.10307 -3.85574 0
M  V30 1140 H 112.542 -3.29774 -2.68569 0
M  V30 1141 N 110.857 0.726932 -1.39834 0
M  V30 1142 C 111.767 1.87131 -1.41489 0
M  V30 1143 C 112.783 1.71239 -0.308757 0
M  V30 1144 O 113.959 1.93701 -0.551529 0
M  V30 1145 C 111.024 3.22811 -1.26468 0
M  V30 1146 C 110.085 3.51039 -2.47124 0
M  V30 1147 C 109.318 4.80245 -2.3281 0
M  V30 1148 O 109.541 5.54537 -1.33585 0
M  V30 1149 O 108.475 5.08554 -3.21957 0
M  V30 1150 H 112.301 1.8869 -2.3797 0
M  V30 1151 H 109.886 0.875837 -1.21035 0
M  V30 1152 H 111.768 4.03877 -1.20255 0
M  V30 1153 H 110.443 3.22005 -0.330862 0
M  V30 1154 H 109.35 2.70027 -2.58914 0
M  V30 1155 H 110.683 3.56632 -3.39227 0
M  V30 1156 N 112.336 1.25143 0.95797 0
M  V30 1157 C 113.582 1.09855 1.70469 0
M  V30 1158 C 113.915 -0.360187 1.90831 0
M  V30 1159 O 113.19 -1.26568 1.47685 0
M  V30 1160 C 113.473 1.8497 3.08963 0
M  V30 1161 C 113.326 3.38652 2.96032 0
M  V30 1162 C 114.645 1.63016 4.08795 0
M  V30 1163 H 111.764 0.400465 0.618706 0
M  V30 1164 H 114.406 1.53933 1.11376 0
M  V30 1165 H 112.556 1.47505 3.59409 0
M  V30 1166 H 114.228 3.85772 2.52938 0
M  V30 1167 H 112.471 3.66534 2.32025 0
M  V30 1168 H 113.142 3.8642 3.94187 0
M  V30 1169 H 115.618 1.95625 3.67247 0
M  V30 1170 H 114.494 2.18015 5.03747 0
M  V30 1171 H 114.755 0.570692 4.38401 0
M  V30 1172 N 113.814 -1.1601 1.06675 0
M  V30 1173 C 115.06 -1.86909 0.786945 0
M  V30 1174 C 115.393 -1.81717 -0.685018 0
M  V30 1175 O 114.668 -1.23551 -1.50218 0
M  V30 1176 C 114.951 -3.36313 1.28707 0
M  V30 1177 C 114.804 -3.50175 2.82308 0
M  V30 1178 C 116.123 -4.3084 0.898071 0
M  V30 1179 H 113.242 -0.678677 0.287343 0
M  V30 1180 H 115.884 -1.36336 1.32334 0
M  V30 1181 H 114.034 -3.79513 0.830768 0
M  V30 1182 H 115.706 -3.15886 3.36175 0
M  V30 1183 H 113.949 -2.91959 3.20847 0
M  V30 1184 H 114.62 -4.55116 3.12368 0
M  V30 1185 H 117.096 -3.95561 1.29114 0
M  V30 1186 H 115.972 -5.33876 1.27543 0
M  V30 1187 H 116.233 -4.41662 -0.196651 0
M  V30 1188 N 115.292 -0.849877 -1.32721 0
M  V30 1189 C 116.532 -0.457146 -1.99222 0
M  V30 1190 C 116.896 0.968038 -1.6581 0
M  V30 1191 O 118.097 1.46507 -2.25364 0
M  V30 1192 C 116.368 -0.683966 -3.50794 0
M  V30 1193 S 117.927 -0.388095 -4.3708 0
M  V30 1194 H 114.745 -0.171464 -0.690015 0
M  V30 1195 H 117.347 -1.10155 -1.61512 0
M  V30 1196 H 116.051 -1.72038 -3.726 0
M  V30 1197 H 115.582 -0.0258086 -3.93392 0
M  V30 1198 H 117.597 0.787791 -4.89906 0
M  V30 1199 N 116.77 1.45427 -0.607355 0
M  V30 1200 C 117.733 2.28974 0.101693 0
M  V30 1201 C 118.733 1.39754 0.795329 0
M  V30 1202 O 119.923 1.61878 0.643527 0
M  V30 1203 C 117.055 3.20768 1.15414 0
M  V30 1204 H 118.248 2.93147 -0.632844 0
M  V30 1205 H 115.801 1.51945 -0.366391 0
M  V30 1206 H 116.536 2.61395 1.91945 0
M  V30 1207 H 116.321 3.86489 0.66098 0
M  V30 1208 H 117.811 3.83589 1.65073 0
M  V30 1209 N 118.248 0.346503 1.53744 0
M  V30 1210 C 119.659 -0.136779 1.86198 0
M  V30 1211 C 120.01 -1.49749 1.26766 0
M  V30 1212 O 119.135 -2.08417 0.582355 0
M  V30 1213 C 119.73 -0.254966 3.37839 0
M  V30 1214 C 118.289 -0.682482 3.70161 0
M  V30 1215 C 117.436 0.181981 2.76702 0
M  V30 1216 H 120.387 0.565994 1.48264 0
M  V30 1217 H 120.408 -1.08195 3.64793 0
M  V30 1218 H 119.92 0.735526 3.81066 0
M  V30 1219 H 118.021 -1.68189 3.3248 0
M  V30 1220 H 118.134 -0.470326 4.76786 0
M  V30 1221 H 116.498 -0.34615 2.52337 0
M  V30 1222 H 117.281 1.16966 3.2276 0
M  V30 1223 N 119.726 -1.57421 0.075193 0
M  V30 1224 C 121.137 -1.81021 -0.456964 0
M  V30 1225 C 121.488 -0.98936 -1.69429 0
M  V30 1226 O 120.613 -0.212865 -2.15351 0
M  V30 1227 C 121.208 -3.28329 -0.83581 0
M  V30 1228 C 119.767 -3.52764 -1.31281 0
M  V30 1229 C 118.914 -2.75676 -0.299648 0
M  V30 1230 H 121.865 -1.55822 0.300856 0
M  V30 1231 H 121.886 -3.40564 -1.69696 0
M  V30 1232 H 121.398 -3.88046 0.0649238 0
M  V30 1233 H 119.499 -2.98355 -2.23193 0
M  V30 1234 H 119.612 -4.61451 -1.28839 0
M  V30 1235 H 117.976 -2.42538 -0.777641 0
M  V30 1236 H 118.759 -3.38132 0.593417 0
M  V30 1237 N 121.204 0.198386 -1.56346 0
M  V30 1238 C 122.432 0.935572 -1.84539 0
M  V30 1239 C 122.847 1.76989 -0.657281 0
M  V30 1240 O 122.204 1.78626 0.374043 0
M  V30 1241 C 122.255 1.8344 -3.11499 0
M  V30 1242 O 121.976 1.03377 -4.25728 0
M  V30 1243 C 123.477 2.68355 -3.52846 0
M  V30 1244 H 120.697 0.273126 -0.612897 0
M  V30 1245 H 123.241 0.20663 -2.03453 0
M  V30 1246 H 121.396 2.51701 -2.94492 0
M  V30 1247 H 121.81 1.64599 -4.98003 0
M  V30 1248 H 123.284 3.27085 -4.44657 0
M  V30 1249 H 123.761 3.41901 -2.75681 0
M  V30 1250 H 124.367 2.05471 -3.72373 0
M  V30 1251 N 122.682 1.50554 0.465978 0
M  V30 1252 C 123.645 1.69233 1.54574 0
M  V30 1253 C 124.645 0.562901 1.50626 0
M  V30 1254 O 125.835 0.830016 1.53155 0
M  V30 1255 C 122.967 1.7223 2.94193 0
M  V30 1256 H 124.16 2.65571 1.39327 0
M  V30 1257 H 121.713 1.40111 0.692711 0
M  V30 1258 H 122.448 0.77603 3.14878 0
M  V30 1259 H 122.233 2.54285 2.98466 0
M  V30 1260 H 123.723 1.88618 3.72576 0
M  V30 1261 N 124.16 -0.719506 1.40217 0
M  V30 1262 C 125.39 -1.50646 1.41384 0
M  V30 1263 C 125.798 -1.89197 0.0107743 0
M  V30 1264 O 125.141 -1.55709 -0.974708 0
M  V30 1265 C 125.203 -2.81405 2.23722 0
M  V30 1266 C 124.867 -2.65199 3.72181 0
M  V30 1267 C 125.864 -2.32717 4.64907 0
M  V30 1268 C 123.549 -2.81586 4.1595 0
M  V30 1269 C 125.543 -2.16827 5.99387 0
M  V30 1270 C 123.23 -2.65313 5.50502 0
M  V30 1271 C 124.228 -2.32981 6.42035 0
M  V30 1272 O 123.916 -2.16827 7.74107 0
M  V30 1273 H 123.648 -0.471606 0.484318 0
M  V30 1274 H 126.202 -0.895456 1.84853 0
M  V30 1275 H 124.432 -3.44823 1.75026 0
M  V30 1276 H 126.121 -3.43102 2.16878 0
M  V30 1277 H 126.887 -2.19694 4.32388 0
M  V30 1278 H 122.766 -3.0574 3.45027 0
M  V30 1279 H 126.31 -1.91513 6.70797 0
M  V30 1280 H 122.207 -2.7792 5.82607 0
M  V30 1281 H 122.975 -2.31778 7.84998 0
M  V30 1282 N 125.638 -1.25649 -0.95132 0
M  V30 1283 C 126.887 -1.09988 -1.69073 0
M  V30 1284 C 127.2 0.358355 -1.92289 0
M  V30 1285 O 128.406 0.635466 -2.63958 0
M  V30 1286 C 126.862 -1.92012 -3.044 0
M  V30 1287 C 126.47 -3.42347 -2.88968 0
M  V30 1288 C 128.214 -1.8493 -3.82101 0
M  V30 1289 C 126.121 -4.16655 -4.19705 0
M  V30 1290 H 125.051 -0.407993 -0.63408 0
M  V30 1291 H 127.702 -1.49873 -1.05879 0
M  V30 1292 H 126.084 -1.44952 -3.68517 0
M  V30 1293 H 127.258 -3.97104 -2.33762 0
M  V30 1294 H 125.573 -3.50557 -2.24719 0
M  V30 1295 H 128.17 -2.37739 -4.78941 0
M  V30 1296 H 128.513 -0.817883 -4.08187 0
M  V30 1297 H 129.046 -2.29758 -3.2474 0
M  V30 1298 H 125.785 -5.20224 -3.98807 0
M  V30 1299 H 125.305 -3.66681 -4.74663 0
M  V30 1300 H 126.984 -4.24551 -4.88227 0
M  V30 1301 N 127.117 1.15442 -1.07289 0
M  V30 1302 C 128.394 1.82306 -0.708792 0
M  V30 1303 C 128.774 1.94991 0.808807 0
M  V30 1304 O 128.122 1.50085 1.72298 0
M  V30 1305 C 128.332 3.18695 -1.42247 0
M  V30 1306 C 129.68 3.94341 -1.57417 0
M  V30 1307 O 130.704 3.28247 -1.38319 0
M  V30 1308 O 129.563 5.12839 -1.88834 0
M  V30 1309 H 126.657 0.787628 -0.252132 0
M  V30 1310 H 129.203 1.22559 -1.17377 0
M  V30 1311 H 127.975 3.04557 -2.45684 0
M  V30 1312 H 127.598 3.86128 -0.948223 0
M  V30 1313 N 128.595 0.856903 1.32268 0
M  V30 1314 C 129.842 0.461386 1.97174 0
M  V30 1315 C 130.17 -0.983491 1.67803 0
M  V30 1316 O 129.425 -1.70541 0.959903 0
M  V30 1317 C 129.724 0.649919 3.51441 0
M  V30 1318 C 129.39 2.0656 4.00804 0
M  V30 1319 C 128.052 2.45279 4.13995 0
M  V30 1320 C 130.404 2.98947 4.26943 0
M  V30 1321 C 127.732 3.75653 4.50668 0
M  V30 1322 C 130.084 4.28822 4.65075 0
M  V30 1323 C 128.748 4.67472 4.76472 0
M  V30 1324 H 128.018 0.168833 0.72151 0
M  V30 1325 H 130.665 1.08739 1.57633 0
M  V30 1326 H 128.97 -0.0593018 3.91755 0
M  V30 1327 H 130.667 0.32391 3.9969 0
M  V30 1328 H 127.257 1.75495 3.91024 0
M  V30 1329 H 131.441 2.70265 4.16258 0
M  V30 1330 H 126.697 4.05379 4.57688 0
M  V30 1331 H 130.871 5.0047 4.84255 0
M  V30 1332 H 128.498 5.68539 5.04646 0
M  V30 1333 N 130.073 -1.45103 0.615059 0
M  V30 1334 C 131.036 -2.29025 -0.0895485 0
M  V30 1335 C 132.036 -1.40174 -0.787906 0
M  V30 1336 O 133.226 -1.62217 -0.634933 0
M  V30 1337 C 130.358 -3.21376 -1.13711 0
M  V30 1338 H 131.551 -2.92807 0.648382 0
M  V30 1339 H 129.104 -1.51749 0.374444 0
M  V30 1340 H 129.839 -2.6241 -1.90556 0
M  V30 1341 H 129.624 -3.86834 -0.640475 0
M  V30 1342 H 131.114 -3.84459 -1.63036 0
M  V30 1343 N 131.551 -0.354651 -1.53558 0
M  V30 1344 C 132.967 -0.00315426 -1.596 0
M  V30 1345 C 133.167 1.47741 -1.37021 0
M  V30 1346 O 132.223 2.23759 -1.16996 0
M  V30 1347 C 133.536 -0.44929 -2.97325 0
M  V30 1348 C 135.084 -0.402578 -3.104 0
M  V30 1349 C 135.559 -0.824355 -4.5052 0
M  V30 1350 N 137.05 -0.778979 -4.56603 0
M  V30 1351 C 137.785 -1.07715 -5.63192 0
M  V30 1352 N 137.281 -1.44405 -6.77583 0
M  V30 1353 N 139.074 -1.00066 -5.53121 0
M  V30 1354 H 131.225 -1.31893 -1.66487 0
M  V30 1355 H 133.488 -0.538388 -0.780284 0
M  V30 1356 H 133.194 -1.48202 -3.1895 0
M  V30 1357 H 133.068 0.169772 -3.76818 0
M  V30 1358 H 135.455 0.621004 -2.88492 0
M  V30 1359 H 135.536 -1.05699 -2.32941 0
M  V30 1360 H 135.18 -1.846 -4.73165 0
M  V30 1361 H 135.11 -0.147304 -5.26394 0
M  V30 1362 H 137.601 -0.508528 -3.74463 0
M  V30 1363 H 137.914 -1.65612 -7.54846 0
M  V30 1364 H 136.259 -1.4826 -6.79002 0
M  V30 1365 H 139.45 -0.713293 -4.62633 0
M  V30 1366 H 139.623 -1.23638 -6.36096 0
M  V30 1367 N 133.029 1.57378 -0.0835403 0
M  V30 1368 C 133.961 2.10389 0.909338 0
M  V30 1369 C 134.974 1.03858 1.25369 0
M  V30 1370 O 136.163 1.31338 1.20882 0
M  V30 1371 C 133.263 2.55908 2.2218 0
M  V30 1372 C 132.436 3.86145 2.05453 0
M  V30 1373 C 131.495 4.17633 3.20108 0
M  V30 1374 O 130.521 4.87043 2.94581 0
M  V30 1375 N 131.723 3.72113 4.45547 0
M  V30 1376 H 134.488 2.962 0.456657 0
M  V30 1377 H 132.049 1.61579 0.101877 0
M  V30 1378 H 134.041 2.74027 2.97811 0
M  V30 1379 H 132.611 1.75171 2.58909 0
M  V30 1380 H 131.831 3.7729 1.1422 0
M  V30 1381 H 133.119 4.7137 1.91541 0
M  V30 1382 H 132.517 3.16062 4.69171 0
M  V30 1383 H 131.074 3.95409 5.18165 0
M  V30 1384 N 134.507 -0.190092 1.56449 0
M  V30 1385 C 135.454 -1.23557 1.94942 0
M  V30 1386 C 136.424 -1.44972 0.810696 0
M  V30 1387 O 137.609 -1.58023 1.06927 0
M  V30 1388 C 134.749 -2.57416 2.2985 0
M  V30 1389 C 133.862 -2.43537 3.5681 0
M  V30 1390 C 132.997 -3.70134 3.81017 0
M  V30 1391 C 132.036 -3.51109 5.01387 0
M  V30 1392 N 131.173 -4.6973 5.21822 0
M  V30 1393 H 136.013 -0.900304 2.84075 0
M  V30 1394 H 133.55 -0.43318 1.40577 0
M  V30 1395 H 135.508 -3.35409 2.48106 0
M  V30 1396 H 134.138 -2.88975 1.43852 0
M  V30 1397 H 133.19 -1.56816 3.46573 0
M  V30 1398 H 134.502 -2.25415 4.4496 0
M  V30 1399 H 133.656 -4.56566 3.9954 0
M  V30 1400 H 132.395 -3.91215 2.91207 0
M  V30 1401 H 131.4 -2.63063 4.82782 0
M  V30 1402 H 132.625 -3.31468 5.9271 0
M  V30 1403 H 130.571 -4.91065 4.34961 0
M  V30 1404 H 130.488 -4.54452 6.0416 0
M  V30 1405 H 131.756 -5.57499 5.44808 0
M  V30 1406 N 135.985 -1.50799 -0.457987 0
M  V30 1407 C 136.915 -1.73553 -1.5621 0
M  V30 1408 C 137.896 -0.584774 -1.59732 0
M  V30 1409 O 139.081 -0.825314 -1.7579 0
M  V30 1410 C 136.211 -1.84169 -2.94447 0
M  V30 1411 C 135.165 -2.99461 -3.0579 0
M  V30 1412 C 134.491 -2.95235 -4.45803 0
M  V30 1413 C 135.791 -4.39766 -2.81786 0
M  V30 1414 H 137.485 -2.66 -1.37421 0
M  V30 1415 H 135.031 -1.28002 -0.659662 0
M  V30 1416 H 136.984 -1.98672 -3.71628 0
M  V30 1417 H 135.708 -0.883545 -3.14422 0
M  V30 1418 H 134.367 -2.8463 -2.31044 0
M  V30 1419 H 134.015 -1.97239 -4.62715 0
M  V30 1420 H 133.715 -3.72642 -4.54326 0
M  V30 1421 H 135.239 -3.11803 -5.24987 0
M  V30 1422 H 136.653 -4.55054 -3.4871 0
M  V30 1423 H 135.05 -5.18722 -3.0174 0
M  V30 1424 H 136.12 -4.51229 -1.7754 0
M  V30 1425 N 137.463 0.71206 -1.40597 0
M  V30 1426 C 138.74 1.46536 -1.29563 0
M  V30 1427 C 139.12 2.10931 0.0844217 0
M  V30 1428 O 138.468 2.00418 1.0975 0
M  V30 1429 C 138.678 2.49821 -2.43701 0
M  V30 1430 C 140.026 3.15551 -2.841 0
M  V30 1431 O 141.05 2.60142 -2.4332 0
M  V30 1432 O 139.909 4.15867 -3.54566 0
M  V30 1433 H 137.003 0.651801 -0.509004 0
M  V30 1434 H 139.549 0.743935 -1.52524 0
M  V30 1435 H 138.321 2.00778 -3.35863 0
M  V30 1436 H 137.944 3.29495 -2.22528 0
M  V30 1437 N 138.941 1.26152 0.944643 0
M  V30 1438 C 140.352 1.10454 1.50522 0
M  V30 1439 C 140.703 -0.31635 1.93633 0
M  V30 1440 O 139.828 -1.20746 1.79581 0
M  V30 1441 C 140.423 1.99891 2.73549 0
M  V30 1442 C 138.982 1.88348 3.25886 0
M  V30 1443 C 138.129 1.93447 1.9868 0
M  V30 1444 H 141.08 1.39292 0.760489 0
M  V30 1445 H 141.101 1.54477 3.47732 0
M  V30 1446 H 140.613 3.03297 2.42141 0
M  V30 1447 H 138.714 0.878636 3.62092 0
M  V30 1448 H 138.827 2.73696 3.93227 0
M  V30 1449 H 137.191 1.37456 2.14425 0
M  V30 1450 H 137.974 2.98476 1.69607 0
M  V30 1451 N 140.419 -1.14872 1.07899 0
M  V30 1452 C 141.366 -2.19791 0.704319 0
M  V30 1453 C 142.336 -1.63238 -0.306987 0
M  V30 1454 O 143.521 -1.8983 -0.192171 0
M  V30 1455 C 140.661 -3.44911 0.114244 0
M  V30 1456 C 139.774 -4.15637 1.1777 0
M  V30 1457 C 138.909 -5.28324 0.552037 0
M  V30 1458 C 137.948 -5.90875 1.59789 0
M  V30 1459 N 137.085 -6.95022 0.994404 0
M  V30 1460 H 141.925 -2.5119 1.60336 0
M  V30 1461 H 139.462 -1.23356 0.801352 0
M  V30 1462 H 141.42 -4.16477 -0.245544 0
M  V30 1463 H 140.05 -3.14011 -0.74813 0
M  V30 1464 H 139.102 -3.42512 1.65499 0
M  V30 1465 H 140.414 -4.5823 1.97046 0
M  V30 1466 H 139.568 -6.06538 0.1402 0
M  V30 1467 H 138.307 -4.86939 -0.272431 0
M  V30 1468 H 137.312 -5.11369 2.01945 0
M  V30 1469 H 138.537 -6.34337 2.42474 0
M  V30 1470 H 136.483 -6.55722 0.190939 0
M  V30 1471 H 136.4 -7.36073 1.72432 0
M  V30 1472 H 137.668 -7.77123 0.608253 0
M  V30 1473 N 141.898 -0.863906 -1.31812 0
M  V30 1474 C 143.147 -0.46801 -1.96195 0
M  V30 1475 C 143.46 0.983474 -1.69077 0
M  V30 1476 O 144.666 1.48523 -2.27273 0
M  V30 1477 C 143.122 -0.785995 -3.51212 0
M  V30 1478 C 142.73 -2.25383 -3.87178 0
M  V30 1479 C 144.474 -0.458274 -4.22019 0
M  V30 1480 C 142.381 -2.51455 -5.3528 0
M  V30 1481 H 141.311 -0.171283 -0.734287 0
M  V30 1482 H 143.962 -1.05597 -1.50072 0
M  V30 1483 H 142.344 -0.127359 -3.95795 0
M  V30 1484 H 143.518 -2.95502 -3.53575 0
M  V30 1485 H 141.833 -2.54698 -3.2942 0
M  V30 1486 H 144.43 -0.630369 -5.30971 0
M  V30 1487 H 144.773 0.600834 -4.11941 0
M  V30 1488 H 145.306 -1.07319 -3.8305 0
M  V30 1489 H 142.045 -3.56025 -5.50387 0
M  V30 1490 H 141.565 -1.85923 -5.70257 0
M  V30 1491 H 143.244 -2.35874 -6.02472 0
M  V30 1492 N 143.376 1.44774 -0.622745 0
M  V30 1493 C 144.339 2.29069 0.0774015 0
M  V30 1494 C 145.339 1.4059 0.780461 0
M  V30 1495 O 146.529 1.62551 0.626322 0
M  V30 1496 C 143.661 3.21974 1.12006 0
M  V30 1497 H 144.854 2.92459 -0.663901 0
M  V30 1498 H 142.407 1.51548 -0.382486 0
M  V30 1499 H 143.142 2.63417 1.89162 0
M  V30 1500 H 142.927 3.87168 0.619951 0
M  V30 1501 H 144.417 3.85318 1.60995 0
M  V30 1502 N 144.854 0.36279 1.53368 0
M  V30 1503 C 146.1 -0.228113 2.01513 0
M  V30 1504 C 146.433 -1.48648 1.2497 0
M  V30 1505 O 145.708 -1.91459 0.342616 0
M  V30 1506 C 145.991 -0.522884 3.56284 0
M  V30 1507 C 145.844 0.74892 4.43521 0
M  V30 1508 C 147.163 -1.32461 4.19693 0
M  V30 1509 H 144.282 -0.0814343 0.732487 0
M  V30 1510 H 146.924 0.48713 1.83649 0
M  V30 1511 H 145.074 -1.1322 3.71636 0
M  V30 1512 H 146.746 1.38648 4.39971 0
M  V30 1513 H 144.989 1.36986 4.11603 0
M  V30 1514 H 145.66 0.497667 5.49752 0
M  V30 1515 H 148.136 -0.809203 4.08156 0
M  V30 1516 H 147.012 -1.49961 5.28018 0
M  V30 1517 H 147.273 -2.33232 3.75573 0
M  V30 1518 N 146.332 -1.57332 0.0918853 0
M  V30 1519 C 147.295 -2.12708 -0.85369 0
M  V30 1520 C 148.295 -1.05561 -1.213 0
M  V30 1521 O 149.485 -1.31461 -1.14296 0
M  V30 1522 C 146.617 -2.64503 -2.15061 0
M  V30 1523 H 147.81 -2.97573 -0.3729 0
M  V30 1524 H 145.363 -1.55509 -0.157072 0
M  V30 1525 H 146.098 -1.83149 -2.67632 0
M  V30 1526 H 145.883 -3.4284 -1.90272 0
M  V30 1527 H 147.373 -3.07351 -2.82711 0
M  V30 1528 N 147.81 0.181792 -1.56548 0
M  V30 1529 C 148.773 1.20894 -1.94724 0
M  V30 1530 C 149.773 1.37738 -0.829747 0
M  V30 1531 O 150.963 1.35323 -1.09697 0
M  V30 1532 C 148.095 2.57593 -2.23291 0
M  V30 1533 H 149.288 0.882275 -2.86629 0
M  V30 1534 H 146.841 0.423838 -1.50444 0
M  V30 1535 H 147.576 2.95291 -1.34067 0
M  V30 1536 H 147.361 2.46735 -3.04736 0
M  V30 1537 H 148.851 3.31637 -2.53785 0
M  V30 1538 N 149.288 1.51039 0.449983 0
M  V30 1539 C 150.22 1.67617 1.56324 0
M  V30 1540 C 151.233 0.557083 1.52972 0
M  V30 1541 O 152.422 0.830989 1.57977 0
M  V30 1542 C 149.522 1.66402 2.95235 0
M  V30 1543 C 148.695 2.9469 3.23229 0
M  V30 1544 C 147.754 2.85832 4.41799 0
M  V30 1545 O 146.78 3.59785 4.41071 0
M  V30 1546 N 147.982 2.00821 5.44657 0
M  V30 1547 H 150.747 2.63648 1.42512 0
M  V30 1548 H 148.308 1.48767 0.638737 0
M  V30 1549 H 150.3 1.58062 3.72557 0
M  V30 1550 H 148.87 0.780182 3.02708 0
M  V30 1551 H 148.09 3.16996 2.34323 0
M  V30 1552 H 149.378 3.79636 3.38754 0
M  V30 1553 H 148.776 1.40091 5.48079 0
M  V30 1554 H 147.333 1.98368 6.20881 0
M  V30 1555 N 150.766 -0.704594 1.40972 0
M  V30 1556 C 151.714 -1.83994 1.42299 0
M  V30 1557 C 152.708 -1.66684 0.302111 0
M  V30 1558 O 153.914 -1.73655 0.473697 0
M  V30 1559 H 150.289 -0.606171 0.44504 0
M  V30 1560 H 152.26 -1.79992 2.38003 0
M  V30 1561 C 151.009 -3.21946 1.31323 0
M  V30 1562 H 150.332 -3.35878 2.16855 0
M  V30 1563 H 151.772 -4.01491 1.36311 0
M  V30 1564 C 150.231 -3.36891 0.0245977 0
M  V30 1565 O 150.761 -3.90687 -0.934153 0
M  V30 1566 N 148.967 -2.90559 -0.0485243 0
M  V30 1567 H 148.514 -2.46968 0.732419 0
M  V30 1568 H 148.472 -3.00937 -0.910171 0
M  V30 1569 N 152.244 -1.26651 -0.937939 0
M  V30 1570 C 153.484 -1.13611 -1.69917 0
M  V30 1571 C 153.848 0.314687 -1.89404 0
M  V30 1572 O 155.049 0.567285 -2.62746 0
M  V30 1573 C 153.32 -1.88742 -3.03498 0
M  V30 1574 S 154.879 -1.91794 -3.94665 0
M  V30 1575 H 151.697 -0.405767 -0.583844 0
M  V30 1576 H 154.299 -1.60416 -1.11745 0
M  V30 1577 H 153.003 -2.9336 -2.86999 0
M  V30 1578 H 152.534 -1.42391 -3.66727 0
M  V30 1579 H 154.549 -1.00698 -4.85875 0
M  V30 1580 N 153.722 1.14298 -1.08507 0
M  V30 1581 C 154.952 1.88945 -0.835663 0
M  V30 1582 C 155.36 1.78894 0.615928 0
M  V30 1583 O 154.703 1.1468 1.43506 0
M  V30 1584 C 154.765 3.39585 -1.17994 0
M  V30 1585 C 154.429 3.7342 -2.63451 0
M  V30 1586 C 155.426 3.73454 -3.61702 0
M  V30 1587 C 153.111 4.03368 -2.99332 0
M  V30 1588 C 155.105 4.02961 -4.93864 0
M  V30 1589 C 152.792 4.32538 -4.31687 0
M  V30 1590 C 153.79 4.32318 -5.28763 0
M  V30 1591 O 153.478 4.6078 -6.58739 0
M  V30 1592 H 153.21 0.605307 -0.300965 0
M  V30 1593 H 155.764 1.45673 -1.44806 0
M  V30 1594 H 153.994 3.83315 -0.51055 0
M  V30 1595 H 155.683 3.9554 -0.911182 0
M  V30 1596 H 156.449 3.50403 -3.35325 0
M  V30 1597 H 152.328 4.02692 -2.24411 0
M  V30 1598 H 155.872 4.02704 -5.69627 0
M  V30 1599 H 151.769 4.55059 -4.57812 0
M  V30 1600 H 152.537 4.78492 -6.64069 0
M  V30 1601 N 155.201 0.870884 1.31352 0
M  V30 1602 C 156.148 0.325425 2.28494 0
M  V30 1603 C 157.118 -0.576615 1.5577 0
M  V30 1604 O 158.303 -0.508059 1.83911 0
M  V30 1605 C 155.443 -0.466283 3.41935 0
M  V30 1606 C 154.556 0.463378 4.29508 0
M  V30 1607 C 153.691 -0.342544 5.30094 0
M  V30 1608 C 152.73 0.583486 6.09313 0
M  V30 1609 N 151.867 -0.186244 7.01853 0
M  V30 1610 H 156.707 1.15901 2.74538 0
M  V30 1611 H 154.244 0.58294 1.35056 0
M  V30 1612 H 156.202 -0.941085 4.06447 0
M  V30 1613 H 154.832 -1.26456 2.97 0
M  V30 1614 H 153.884 1.05663 3.65431 0
M  V30 1615 H 155.196 1.1734 4.84802 0
M  V30 1616 H 154.35 -0.879816 6.00287 0
M  V30 1617 H 153.089 -1.08585 4.75458 0
M  V30 1618 H 152.094 1.13251 5.3801 0
M  V30 1619 H 153.319 1.32566 6.66035 0
M  V30 1620 H 151.265 -0.912348 6.49625 0
M  V30 1621 H 151.182 0.464422 7.54572 0
M  V30 1622 H 152.45 -0.704716 7.76308 0
M  V30 1623 N 156.679 -1.44442 0.630414 0
M  V30 1624 C 157.925 -2.02351 0.134816 0
M  V30 1625 C 158.258 -1.4947 -1.23986 0
M  V30 1626 O 157.533 -0.678475 -1.82283 0
M  V30 1627 C 157.816 -3.59898 0.120707 0
M  V30 1628 C 157.669 -4.23063 1.52767 0
M  V30 1629 C 158.988 -4.36585 -0.555127 0
M  V30 1630 H 156.107 -0.73527 0.0504646 0
M  V30 1631 H 158.749 -1.72022 0.806751 0
M  V30 1632 H 156.899 -3.85868 -0.451477 0
M  V30 1633 H 158.571 -4.08202 2.14869 0
M  V30 1634 H 156.814 -3.80586 2.08175 0
M  V30 1635 H 157.485 -5.32071 1.46984 0
M  V30 1636 H 159.961 -4.16044 -0.0685429 0
M  V30 1637 H 158.837 -5.46294 -0.534185 0
M  V30 1638 H 159.098 -4.11138 -1.62535 0
M  V30 1639 N 158.157 -0.370918 -1.53173 0
M  V30 1640 C 159.385 0.217704 -2.05751 0
M  V30 1641 C 159.8 1.42018 -1.24404 0
M  V30 1642 O 159.157 1.80245 -0.286033 0
M  V30 1643 C 159.208 0.605954 -3.56385 0
M  V30 1644 O 158.929 -0.548734 -4.3465 0
M  V30 1645 C 160.43 1.2524 -4.25241 0
M  V30 1646 H 157.65 0.0371659 -0.66997 0
M  V30 1647 H 160.194 -0.530832 -1.9749 0
M  V30 1648 H 158.349 1.3044 -3.6478 0
M  V30 1649 H 158.763 -0.23376 -5.23979 0
M  V30 1650 H 160.237 1.47458 -5.3194 0
M  V30 1651 H 160.714 2.2143 -3.79296 0
M  V30 1652 H 161.32 0.595233 -4.21114 0
M  V30 1653 N 159.635 1.57281 -0.100228 0
M  V30 1654 C 160.583 2.15542 0.874328 0
M  V30 1655 C 161.577 1.09962 1.28859 0
M  V30 1656 O 162.783 1.28298 1.26252 0
M  V30 1657 H 159.158 0.689567 0.300003 0
M  V30 1658 H 161.129 2.96241 0.35829 0
M  V30 1659 C 159.878 2.75454 2.1218 0
M  V30 1660 H 159.201 3.56384 1.81193 0
M  V30 1661 H 160.641 3.19781 2.78417 0
M  V30 1662 C 159.1 1.71602 2.89921 0
M  V30 1663 O 159.63 1.15804 3.84646 0
M  V30 1664 N 157.836 1.41975 2.53558 0
M  V30 1665 H 157.383 1.87539 1.76598 0
M  V30 1666 H 157.341 0.727274 3.05873 0
M  V30 1667 N 161.113 -0.173488 1.56642 0
M  V30 1668 C 162.361 -0.888706 1.81512 0
M  V30 1669 C 162.682 -1.82875 0.676872 0
M  V30 1670 O 161.952 -1.93536 -0.303414 0
M  V30 1671 H 160.532 -0.331164 0.669582 0
M  V30 1672 H 163.194 -0.173823 1.94123 0
M  V30 1673 H 162.29 -1.46691 2.75478 0
M  V30 1674 N 162.591 -1.51276 -0.441967 0
M  V30 1675 C 163.554 -1.7167 -1.51862 0
M  V30 1676 C 164.554 -0.586793 -1.49711 0
M  V30 1677 O 165.744 -0.854276 -1.51815 0
M  V30 1678 C 162.876 -1.76889 -2.91416 0
M  V30 1679 H 164.069 -2.67754 -1.35084 0
M  V30 1680 H 161.622 -1.41196 -0.670333 0
M  V30 1681 H 162.357 -0.826026 -3.13604 0
M  V30 1682 H 162.142 -2.59001 -2.94382 0
M  V30 1683 H 163.632 -1.94522 -3.69528 0
M  V30 1684 N 164.069 0.697108 -1.41344 0
M  V30 1685 C 165.316 1.45714 -1.40619 0
M  V30 1686 C 165.644 1.94494 -0.0147907 0
M  V30 1687 O 164.899 1.69794 0.973066 0
M  V30 1688 C 165.198 2.68553 -2.35826 0
M  V30 1689 C 164.864 2.38438 -3.82698 0
M  V30 1690 C 163.526 2.29936 -4.22709 0
M  V30 1691 C 165.878 2.13567 -4.75435 0
M  V30 1692 C 163.206 1.94656 -5.53467 0
M  V30 1693 C 165.558 1.79797 -6.06511 0
M  V30 1694 C 164.222 1.69789 -6.45545 0
M  V30 1695 H 163.492 0.533206 -0.51456 0
M  V30 1696 H 166.139 0.796901 -1.74131 0
M  V30 1697 H 164.444 3.39503 -1.95563 0
M  V30 1698 H 166.141 3.2669 -2.32539 0
M  V30 1699 H 162.731 2.4595 -3.51008 0
M  V30 1700 H 166.915 2.19082 -4.45328 0
M  V30 1701 H 162.171 1.8546 -5.82593 0
M  V30 1702 H 166.345 1.59572 -6.77872 0
M  V30 1703 H 163.972 1.4222 -7.46778 0
M  V30 1704 N 165.547 1.27147 0.931209 0
M  V30 1705 C 166.775 1.16082 1.71267 0
M  V30 1706 C 167.19 -0.282772 1.8667 0
M  V30 1707 O 166.547 -1.19283 1.38122 0
M  V30 1708 C 166.598 1.8358 3.11417 0
M  V30 1709 O 166.319 3.22299 2.96741 0
M  V30 1710 C 167.82 1.78597 4.05732 0
M  V30 1711 H 165.04 0.403758 0.535929 0
M  V30 1712 H 167.584 1.67953 1.16671 0
M  V30 1713 H 165.739 1.35623 3.62885 0
M  V30 1714 H 166.153 3.55851 3.85319 0
M  V30 1715 H 167.627 2.30444 5.01597 0
M  V30 1716 H 168.104 0.754564 4.3267 0
M  V30 1717 H 168.71 2.26152 3.60188 0
M  V30 1718 N 167.025 -1.13721 1.09112 0
M  V30 1719 C 168.273 -1.84559 0.823562 0
M  V30 1720 C 168.594 -1.83754 -0.652658 0
M  V30 1721 O 167.864 -1.29102 -1.47342 0
M  V30 1722 H 166.444 -0.683376 0.301673 0
M  V30 1723 H 169.106 -1.37771 1.37859 0
M  V30 1724 H 168.202 -2.8917 1.17419 0
M  V30 1725 N 168.503 -0.877838 -1.30888 0
M  V30 1726 C 169.413 -0.343096 -2.32078 0
M  V30 1727 C 170.429 0.551022 -1.65045 0
M  V30 1728 O 171.605 0.445854 -1.96403 0
M  V30 1729 C 168.67 0.439905 -3.43898 0
M  V30 1730 C 167.731 -0.483111 -4.26573 0
M  V30 1731 C 166.964 0.262616 -5.33053 0
M  V30 1732 O 167.187 1.48967 -5.50604 0
M  V30 1733 O 166.121 -0.383593 -6.00676 0
M  V30 1734 H 169.947 -1.18203 -2.79753 0
M  V30 1735 H 167.532 -0.64145 -1.34929 0
M  V30 1736 H 169.414 0.883504 -4.12034 0
M  V30 1737 H 168.089 1.25526 -2.98371 0
M  V30 1738 H 166.996 -0.975374 -3.61161 0
M  V30 1739 H 168.329 -1.26427 -4.75686 0
M  V30 1740 N 169.982 1.44106 -0.638065 0
M  V30 1741 C 171.231 2.01194 -0.142744 0
M  V30 1742 C 171.544 1.50835 1.24532 0
M  V30 1743 O 172.75 2.00096 1.83504 0
M  V30 1744 C 171.206 3.59319 -0.20442 0
M  V30 1745 C 170.814 4.18674 -1.59423 0
M  V30 1746 C 172.558 4.23854 0.234079 0
M  V30 1747 C 170.465 5.69045 -1.61065 0
M  V30 1748 H 169.395 0.752367 -0.0495998 0
M  V30 1749 H 172.046 1.65246 -0.797881 0
M  V30 1750 H 170.428 3.92598 0.517946 0
M  V30 1751 H 171.602 3.96921 -2.34074 0
M  V30 1752 H 169.917 3.66453 -1.97741 0
M  V30 1753 H 172.514 5.34155 0.241443 0
M  V30 1754 H 172.857 3.96688 1.2627 0
M  V30 1755 H 173.39 3.95403 -0.436025 0
M  V30 1756 H 170.129 6.00956 -2.61787 0
M  V30 1757 H 169.649 5.929 -0.90718 0
M  V30 1758 H 171.328 6.32809 -1.34766 0
M  V30 1759 N 171.46 0.379036 1.52974 0
M  V30 1760 C 172.685 -0.209353 2.06341 0
M  V30 1761 C 173.11 -1.40583 1.24972 0
M  V30 1762 O 172.468 -1.79246 0.272155 0
M  V30 1763 C 172.516 -0.567786 3.56102 0
M  V30 1764 O 171.62 -1.66318 3.77375 0
M  V30 1765 H 170.961 -0.0272919 0.663439 0
M  V30 1766 H 173.491 0.543536 1.97248 0
M  V30 1767 H 173.501 -0.835003 3.99364 0
M  V30 1768 H 172.176 0.307013 4.14765 0
M  V30 1769 H 170.753 -1.39048 3.46006 0
M  V30 1770 N 172.938 -1.57226 0.108567 0
M  V30 1771 C 174.349 -1.8195 -0.418464 0
M  V30 1772 C 174.7 -1.02508 -1.67292 0
M  V30 1773 O 173.825 -0.258496 -2.14851 0
M  V30 1774 C 174.42 -3.30028 -0.765979 0
M  V30 1775 C 172.979 -3.55469 -1.23769 0
M  V30 1776 C 172.126 -2.7625 -0.241106 0
M  V30 1777 H 175.077 -1.55149 0.33384 0
M  V30 1778 H 175.098 -3.44086 -1.62434 0
M  V30 1779 H 174.61 -3.87821 0.147219 0
M  V30 1780 H 172.711 -3.03022 -2.16814 0
M  V30 1781 H 172.824 -4.6408 -1.19022 0
M  V30 1782 H 171.188 -2.44133 -0.72602 0
M  V30 1783 H 171.971 -3.36797 0.665007 0
M  V30 1784 N 174.416 0.165178 -1.56732 0
M  V30 1785 C 175.664 0.879068 -1.8198 0
M  V30 1786 C 175.985 1.82514 -0.686561 0
M  V30 1787 O 175.255 1.93694 0.293146 0
M  V30 1788 H 173.835 0.327608 -0.671329 0
M  V30 1789 H 176.497 0.163526 -1.94213 0
M  V30 1790 H 175.593 1.45228 -2.76252 0
M  V30 1791 N 175.894 1.51508 0.433938 0
M  V30 1792 C 176.827 1.67756 1.54704 0
M  V30 1793 C 177.805 0.525127 1.53887 0
M  V30 1794 O 178.989 0.749393 1.72963 0
M  V30 1795 C 176.116 1.69424 2.9328 0
M  V30 1796 C 175.162 2.90673 3.12108 0
M  V30 1797 S 175.995 4.51431 2.88046 0
M  V30 1798 C 177.151 4.55849 4.28897 0
M  V30 1799 H 177.384 2.61904 1.40689 0
M  V30 1800 H 174.917 1.41235 0.62386 0
M  V30 1801 H 176.875 1.7107 3.73156 0
M  V30 1802 H 175.536 0.764464 3.04655 0
M  V30 1803 H 174.729 2.88251 4.13434 0
M  V30 1804 H 174.331 2.86786 2.40062 0
M  V30 1805 H 176.623 4.31699 5.22152 0
M  V30 1806 H 177.566 5.57676 4.36351 0
M  V30 1807 H 177.974 3.85137 4.12711 0
M  V30 1808 N 177.372 -0.689602 1.41712 0
M  V30 1809 C 178.621 -1.44534 1.40686 0
M  V30 1810 C 178.934 -1.95588 0.0213352 0
M  V30 1811 O 180.14 -2.71271 -0.111534 0
M  V30 1812 C 178.596 -2.61387 2.47396 0
M  V30 1813 C 178.204 -2.17094 3.91885 0
M  V30 1814 C 179.948 -3.38986 2.55517 0
M  V30 1815 C 177.855 -3.3094 4.90135 0
M  V30 1816 H 176.785 -0.542925 0.52321 0
M  V30 1817 H 179.436 -0.748054 1.6756 0
M  V30 1818 H 177.818 -3.33412 2.13664 0
M  V30 1819 H 178.992 -1.52318 4.34897 0
M  V30 1820 H 177.307 -1.52473 3.8748 0
M  V30 1821 H 179.904 -4.23747 3.26102 0
M  V30 1822 H 180.247 -3.84578 1.59391 0
M  V30 1823 H 180.78 -2.74021 2.8837 0
M  V30 1824 H 177.519 -2.90355 5.87685 0
M  V30 1825 H 177.039 -3.94546 4.51767 0
M  V30 1826 H 178.718 -3.9663 5.11169 0
M  V30 1827 N 178.85 -1.27639 -0.924453 0
M  V30 1828 C 179.797 -1.10644 -2.0255 0
M  V30 1829 C 180.767 -0.00658438 -1.66099 0
M  V30 1830 O 181.952 -0.16952 -1.90045 0
M  V30 1831 C 179.092 -0.76309 -3.36557 0
M  V30 1832 C 178.205 -1.94091 -3.85944 0
M  V30 1833 C 177.34 -1.53914 -5.08413 0
M  V30 1834 C 176.379 -2.68425 -5.50104 0
M  V30 1835 N 175.516 -2.28815 -6.63768 0
M  V30 1836 H 180.356 -2.04858 -2.16419 0
M  V30 1837 H 177.893 -1.01974 -1.06017 0
M  V30 1838 H 179.851 -0.544822 -4.13627 0
M  V30 1839 H 178.481 0.142102 -3.22487 0
M  V30 1840 H 177.533 -2.27162 -3.05125 0
M  V30 1841 H 178.845 -2.7998 -4.12811 0
M  V30 1842 H 177.999 -1.28231 -5.92994 0
M  V30 1843 H 176.738 -0.651391 -4.8333 0
M  V30 1844 H 175.743 -2.94819 -4.64071 0
M  V30 1845 H 176.968 -3.57826 -5.7718 0
M  V30 1846 H 174.914 -1.42495 -6.40337 0
M  V30 1847 H 174.831 -3.08242 -6.90306 0
M  V30 1848 H 176.099 -2.06387 -7.51681 0
M  V30 1849 N 180.328 1.1314 -1.09713 0
M  V30 1850 C 181.605 1.80762 -0.747302 0
M  V30 1851 C 181.985 1.96663 0.767265 0
M  V30 1852 O 181.333 1.53706 1.69076 0
M  V30 1853 C 181.543 3.15606 -1.48975 0
M  V30 1854 C 182.891 3.90914 -1.65746 0
M  V30 1855 O 183.915 3.25239 -1.45251 0
M  V30 1856 O 182.774 5.08718 -1.9967 0
M  V30 1857 H 179.868 0.782103 -0.268782 0
M  V30 1858 H 182.414 1.20041 -1.19951 0
M  V30 1859 H 181.186 2.99278 -2.52088 0
M  V30 1860 H 180.809 3.84029 -1.02991 0
M  V30 1861 N 181.806 0.884767 1.30421 0
M  V30 1862 C 183.046 0.509806 1.9794 0
M  V30 1863 C 183.41 -0.923736 1.68319 0
M  V30 1864 O 184.611 -1.40481 2.29169 0
M  V30 1865 C 182.882 0.776732 3.48858 0
M  V30 1866 S 184.441 0.503843 4.35898 0
M  V30 1867 H 181.259 0.189699 0.685227 0
M  V30 1868 H 183.861 1.14399 1.58535 0
M  V30 1869 H 182.565 1.81857 3.67908 0
M  V30 1870 H 182.096 0.1301 3.93185 0
M  V30 1871 H 184.111 -0.657625 4.91823 0
M  V30 1872 N 183.284 -1.43765 0.645699 0
M  V30 1873 C 184.532 -2.01499 0.155731 0
M  V30 1874 C 184.853 -1.51151 -1.232 0
M  V30 1875 O 184.123 -0.721044 -1.82148 0
M  V30 1876 H 182.703 -0.745003 0.0545817 0
M  V30 1877 H 185.365 -1.76075 0.835677 0
M  V30 1878 H 184.461 -3.1181 0.134577 0
M  V30 1879 N 184.763 -0.387143 -1.52771 0
M  V30 1880 C 185.726 0.436939 -2.24997 0
M  V30 1881 C 186.726 0.991991 -1.26555 0
M  V30 1882 O 187.916 0.874335 -1.50669 0
M  V30 1883 C 185.048 1.61281 -3.00335 0
M  V30 1884 H 186.241 -0.195365 -2.99263 0
M  V30 1885 H 183.794 -0.139218 -1.55679 0
M  V30 1886 H 184.529 2.2826 -2.30364 0
M  V30 1887 H 184.314 1.22154 -3.72587 0
M  V30 1888 H 185.804 2.19629 -3.5518 0
M  V30 1889 N 186.241 1.57166 -0.116904 0
M  V30 1890 C 187.469 1.99473 0.549383 0
M  V30 1891 C 187.884 0.996541 1.60357 0
M  V30 1892 O 187.241 -0.0108731 1.82497 0
M  V30 1893 C 187.292 3.41788 1.17741 0
M  V30 1894 O 187.013 4.37788 0.165362 0
M  V30 1895 C 188.514 3.99216 1.92722 0
M  V30 1896 H 185.734 0.655009 0.145616 0
M  V30 1897 H 188.278 2.03494 -0.202625 0
M  V30 1898 H 186.433 3.38713 1.88021 0
M  V30 1899 H 186.847 5.20806 0.621403 0
M  V30 1900 H 188.321 5.00882 2.31995 0
M  V30 1901 H 188.798 3.3824 2.80161 0
M  V30 1902 H 189.404 4.0583 1.27209 0
M  V30 1903 N 187.719 -0.156864 1.56817 0
M  V30 1904 C 188.965 -0.867645 1.83966 0
M  V30 1905 C 189.32 -1.79233 0.699511 0
M  V30 1906 O 188.613 -1.89186 -0.303176 0
M  V30 1907 C 188.807 -1.68737 3.1506 0
M  V30 1908 C 188.636 -0.843548 4.41718 0
M  V30 1909 C 187.406 -0.512994 5.02689 0
M  V30 1910 C 189.604 -0.178416 5.1399 0
M  V30 1911 N 187.586 0.345456 6.12927 0
M  V30 1912 C 188.957 0.540586 6.17639 0
M  V30 1913 C 191.012 -0.0980696 4.97803 0
M  V30 1914 C 189.715 1.33233 7.06853 0
M  V30 1915 C 191.741 0.680387 5.87473 0
M  V30 1916 C 191.103 1.3877 6.90596 0
M  V30 1917 H 187.202 -0.295642 0.723961 0
M  V30 1918 H 189.786 -0.13365 1.94241 0
M  V30 1919 H 187.957 -2.39268 3.0595 0
M  V30 1920 H 189.689 -2.34056 3.30151 0
M  V30 1921 H 186.444 -0.846476 4.65974 0
M  V30 1922 H 186.868 0.765415 6.72659 0
M  V30 1923 H 191.51 -0.630562 4.18071 0
M  V30 1924 H 189.228 1.87612 7.8602 0
M  V30 1925 H 192.814 0.744415 5.77018 0
M  V30 1926 H 191.694 1.9804 7.58782 0
M  V30 1927 N 189.197 -1.51736 -0.425897 0
M  V30 1928 C 190.443 -1.65214 -1.1761 0
M  V30 1929 C 190.776 -0.372778 -1.90589 0
M  V30 1930 O 190.051 0.628139 -1.84078 0
M  V30 1931 C 190.334 -2.86312 -2.18398 0
M  V30 1932 C 190.187 -4.24254 -1.49426 0
M  V30 1933 C 191.506 -3.02925 -3.19256 0
M  V30 1934 H 188.625 -0.601263 -0.426206 0
M  V30 1935 H 191.267 -1.8425 -0.463882 0
M  V30 1936 H 189.417 -2.70213 -2.79137 0
M  V30 1937 H 191.089 -4.52046 -0.919362 0
M  V30 1938 H 189.332 -4.26426 -0.796432 0
M  V30 1939 H 190.003 -5.05001 -2.22885 0
M  V30 1940 H 192.479 -3.1781 -2.68581 0
M  V30 1941 H 191.355 -3.89199 -3.8706 0
M  V30 1942 H 191.616 -2.15497 -3.86023 0
M  V30 1943 N 190.675 0.682077 -1.42076 0
M  V30 1944 C 191.921 1.44428 -1.42367 0
M  V30 1945 C 192.254 1.94164 -0.0373056 0
M  V30 1946 O 191.529 1.70429 0.937239 0
M  V30 1947 C 191.812 2.64654 -2.44194 0
M  V30 1948 C 191.665 2.20596 -3.91991 0
M  V30 1949 C 192.984 3.66865 -2.431 0
M  V30 1950 H 190.103 0.523834 -0.518428 0
M  V30 1951 H 192.745 0.77576 -1.73442 0
M  V30 1952 H 190.895 3.2169 -2.17826 0
M  V30 1953 H 192.567 1.68783 -4.29313 0
M  V30 1954 H 190.81 1.52242 -4.06208 0
M  V30 1955 H 191.481 3.06921 -4.58807 0
M  V30 1956 H 193.957 3.19531 -2.66532 0
M  V30 1957 H 192.833 4.48577 -3.16339 0
M  V30 1958 H 193.094 4.17493 -1.45437 0
M  V30 1959 N 192.153 1.28127 0.917671 0
M  V30 1960 C 193.083 1.14248 2.03641 0
M  V30 1961 C 194.064 0.0412748 1.7005 0
M  V30 1962 O 195.249 0.217566 1.92977 0
M  V30 1963 C 192.379 0.799431 3.37974 0
M  V30 1964 C 191.333 1.85497 3.85713 0
M  V30 1965 C 190.659 1.36565 5.16966 0
M  V30 1966 C 191.959 3.26085 4.08002 0
M  V30 1967 H 193.653 2.07835 2.15511 0
M  V30 1968 H 191.199 1.00064 1.03553 0
M  V30 1969 H 193.152 0.689114 4.15727 0
M  V30 1970 H 191.876 -0.172145 3.26146 0
M  V30 1971 H 190.535 1.95437 3.10161 0
M  V30 1972 H 190.183 0.383253 5.01538 0
M  V30 1973 H 189.883 2.07143 5.49878 0
M  V30 1974 H 191.407 1.26848 5.97279 0
M  V30 1975 H 192.821 3.19089 4.76293 0
M  V30 1976 H 191.218 3.94462 4.52238 0
M  V30 1977 H 192.288 3.70394 3.12948 0
M  V30 1978 N 193.631 -1.12557 1.10312 0
M  V30 1979 C 194.879 -1.83675 0.843091 0
M  V30 1980 C 195.2 -1.84435 -0.633131 0
M  V30 1981 O 194.47 -1.30657 -1.45964 0
M  V30 1982 H 193.05 -0.680138 0.308904 0
M  V30 1983 H 195.712 -1.36301 1.39313 0
M  V30 1984 H 194.808 -2.87908 1.2048 0
M  V30 1985 N 195.109 -0.891671 -1.2995 0
M  V30 1986 C 196.059 -0.334811 -2.25528 0
M  V30 1987 C 197.043 0.540553 -1.51548 0
M  V30 1988 O 198.235 0.383882 -1.72787 0
M  V30 1989 C 195.364 0.44374 -3.4042 0
M  V30 1990 C 194.45 -0.44609 -4.21747 0
M  V30 1991 N 194.841 -1.54963 -4.81477 0
M  V30 1992 C 193.139 -0.242415 -4.45341 0
M  V30 1993 C 193.84 -2.10015 -5.42465 0
M  V30 1994 N 192.816 -1.39423 -5.25416 0
M  V30 1995 H 196.618 -1.17792 -2.69262 0
M  V30 1996 H 194.132 -0.741822 -1.44467 0
M  V30 1997 H 196.129 0.859362 -4.07947 0
M  V30 1998 H 194.789 1.28421 -2.98225 0
M  V30 1999 H 195.8 -1.93244 -4.80497 0
M  V30 2000 H 192.477 0.560342 -4.13723 0
M  V30 2001 H 193.867 -3.02724 -5.9984 0
M  V30 2002 N 196.587 1.43421 -0.653314 0
M  V30 2003 C 197.812 2.06678 -0.172846 0
M  V30 2004 C 198.237 1.48648 1.15262 0
M  V30 2005 O 197.595 0.596457 1.71208 0
M  V30 2006 C 197.643 3.60474 -0.0953184 0
M  V30 2007 O 196.747 4.01487 0.942442 0
M  V30 2008 H 196.088 0.657181 -0.0949155 0
M  V30 2009 H 198.618 1.83925 -0.896265 0
M  V30 2010 H 198.628 4.07905 0.0879728 0
M  V30 2011 H 197.303 4.02088 -1.06291 0
M  V30 2012 H 195.88 3.65646 0.731932 0
M  V30 2013 N 198.065 0.39524 1.52563 0
M  V30 2014 C 198.975 -0.444232 2.30356 0
M  V30 2015 C 199.991 -1.06615 1.37511 0
M  V30 2016 O 201.167 -1.07067 1.70583 0
M  V30 2017 C 198.232 -1.55315 3.09964 0
M  V30 2018 C 197.293 -0.955734 4.18526 0
M  V30 2019 C 196.526 -2.01181 4.9433 0
M  V30 2020 O 196.749 -3.22781 4.70285 0
M  V30 2021 O 195.683 -1.62579 5.79527 0
M  V30 2022 H 199.509 0.189667 3.03107 0
M  V30 2023 H 197.094 0.1588 1.48554 0
M  V30 2024 H 198.976 -2.19724 3.59582 0
M  V30 2025 H 197.651 -2.17191 2.4002 0
M  V30 2026 H 196.558 -0.274743 3.7309 0
M  V30 2027 H 197.891 -0.381109 4.90722 0
M  V30 2028 N 199.544 -1.57102 0.125237 0
M  V30 2029 C 200.96 -1.57915 -0.231322 0
M  V30 2030 C 201.16 -1.13833 -1.66266 0
M  V30 2031 O 200.216 -0.828581 -2.38518 0
M  V30 2032 C 201.529 -3.00699 0.00766489 0
M  V30 2033 C 203.077 -3.12947 -0.0577483 0
M  V30 2034 C 203.552 -4.57742 0.153626 0
M  V30 2035 N 205.043 -4.63092 0.0998073 0
M  V30 2036 C 205.778 -5.72905 0.238174 0
M  V30 2037 N 205.274 -6.91445 0.433057 0
M  V30 2038 N 207.067 -5.6182 0.177308 0
M  V30 2039 H 199.218 -1.84055 1.06007 0
M  V30 2040 H 201.481 -0.850905 0.417929 0
M  V30 2041 H 201.187 -3.3726 0.997431 0
M  V30 2042 H 201.061 -3.70236 -0.721452 0
M  V30 2043 H 203.448 -2.7624 -1.03804 0
M  V30 2044 H 203.529 -2.4594 0.70335 0
M  V30 2045 H 203.173 -4.95149 1.13092 0
M  V30 2046 H 203.103 -5.22848 -0.627534 0
M  V30 2047 H 205.594 -3.77871 -0.047051 0
M  V30 2048 H 205.907 -7.70985 0.529332 0
M  V30 2049 H 204.252 -6.93415 0.469109 0
M  V30 2050 H 207.443 -4.68093 0.0259748 0
M  V30 2051 H 207.616 -6.47357 0.288582 0
M  V30 2052 N 201.022 0.148545 -1.56898 0
M  V30 2053 C 202.438 0.501131 -1.51528 0
M  V30 2054 C 202.638 1.83458 -0.833399 0
M  V30 2055 O 201.694 2.49259 -0.40328 0
M  V30 2056 C 203.007 0.512864 -2.96294 0
M  V30 2057 C 204.555 0.598487 -3.07225 0
M  V30 2058 C 205.03 0.640897 -4.53494 0
M  V30 2059 N 206.521 0.703163 -4.57832 0
M  V30 2060 C 207.256 0.756935 -5.68382 0
M  V30 2061 N 206.752 0.770147 -6.88506 0
M  V30 2062 N 208.545 0.797698 -5.56411 0
M  V30 2063 H 200.696 -0.725532 -1.99624 0
M  V30 2064 H 202.959 -0.264358 -0.910395 0
M  V30 2065 H 202.665 -0.398691 -3.49433 0
M  V30 2066 H 202.539 1.35133 -3.52163 0
M  V30 2067 H 204.926 1.50046 -2.54106 0
M  V30 2068 H 205.007 -0.267093 -2.54402 0
M  V30 2069 H 204.651 -0.256915 -5.0725 0
M  V30 2070 H 204.581 1.52295 -5.04097 0
M  V30 2071 H 207.072 0.700314 -3.71354 0
M  V30 2072 H 207.385 0.812983 -7.68512 0
M  V30 2073 H 205.73 0.738049 -6.9107 0
M  V30 2074 H 208.921 0.784535 -4.61479 0
M  V30 2075 H 209.094 0.83614 -6.42583 0
M  V30 2076 N 202.5 1.5196 0.417844 0
M  V30 2077 C 203.45 1.7106 1.5074 0
M  V30 2078 C 204.434 0.564487 1.50673 0
M  V30 2079 O 205.626 0.821206 1.56797 0
M  V30 2080 C 202.755 1.85677 2.88754 0
M  V30 2081 C 201.841 3.06133 2.93502 0
M  V30 2082 N 202.232 4.28987 2.67962 0
M  V30 2083 C 200.53 3.05787 3.24669 0
M  V30 2084 C 201.231 5.10395 2.79055 0
M  V30 2085 N 200.207 4.45455 3.11561 0
M  V30 2086 H 204.009 2.63696 1.29775 0
M  V30 2087 H 201.523 1.49873 0.625436 0
M  V30 2088 H 203.52 1.97475 3.67164 0
M  V30 2089 H 202.18 0.942348 3.10725 0
M  V30 2090 H 203.191 4.57607 2.4252 0
M  V30 2091 H 199.868 2.2405 3.52289 0
M  V30 2092 H 201.258 6.18247 2.63097 0
M  V30 2093 N 203.978 -0.674533 1.42435 0
M  V30 2094 C 205.224 -1.43671 1.43131 0
M  V30 2095 C 205.557 -1.94142 0.0476021 0
M  V30 2096 O 204.832 -1.70924 -0.928188 0
M  V30 2097 C 205.115 -2.63355 2.45594 0
M  V30 2098 C 204.968 -2.18514 3.93156 0
M  V30 2099 C 206.287 -3.65571 2.45043 0
M  V30 2100 H 203.406 -0.521077 0.521198 0
M  V30 2101 H 206.048 -0.766551 1.7385 0
M  V30 2102 H 204.198 -3.2053 2.19528 0
M  V30 2103 H 205.87 -1.66504 4.30202 0
M  V30 2104 H 204.113 -1.50086 4.07009 0
M  V30 2105 H 204.784 -3.04484 4.60428 0
M  V30 2106 H 207.26 -3.18113 2.68223 0
M  V30 2107 H 206.136 -4.46893 3.18713 0
M  V30 2108 H 206.397 -4.16716 1.47649 0
M  V30 2109 N 205.456 -1.28612 -0.910864 0
M  V30 2110 C 206.703 -1.15934 -1.66029 0
M  V30 2111 C 207.031 0.291483 -1.92303 0
M  V30 2112 O 206.286 1.22816 -1.52364 0
M  V30 2113 C 206.585 -1.90624 -3.0232 0
M  V30 2114 C 206.251 -3.40405 -2.95695 0
M  V30 2115 C 204.913 -3.81255 -2.93595 0
M  V30 2116 C 207.265 -4.359 -2.85728 0
M  V30 2117 C 204.593 -5.15936 -2.79334 0
M  V30 2118 C 206.945 -5.70657 -2.73007 0
M  V30 2119 C 205.609 -6.10779 -2.69267 0
M  V30 2120 H 204.879 -0.424234 -0.607541 0
M  V30 2121 H 207.526 -1.5942 -1.06101 0
M  V30 2122 H 205.831 -1.39696 -3.6605 0
M  V30 2123 H 207.528 -1.78228 -3.59215 0
M  V30 2124 H 204.118 -3.07927 -2.98125 0
M  V30 2125 H 208.302 -4.053 -2.86436 0
M  V30 2126 H 203.558 -5.46146 -2.74835 0
M  V30 2127 H 207.732 -6.44311 -2.64264 0
M  V30 2128 H 205.359 -7.1509 -2.57974 0
M  V30 2129 N 206.934 1.1197 -1.10907 0
M  V30 2130 C 208.182 1.83225 -0.852819 0
M  V30 2131 C 208.503 1.84769 0.623341 0
M  V30 2132 O 207.773 1.3143 1.45269 0
M  V30 2133 H 206.353 0.67849 -0.312507 0
M  V30 2134 H 209.015 1.3556 -1.40033 0
M  V30 2135 H 208.111 2.87265 -1.22005 0
M  V30 2136 N 208.412 0.89855 1.29475 0
M  V30 2137 C 209.322 0.379974 2.31502 0
M  V30 2138 C 210.338 -0.524695 1.659 0
M  V30 2139 O 211.514 -0.414551 1.97087 0
M  V30 2140 C 208.579 -0.385138 3.44554 0
M  V30 2141 C 207.64 0.550914 4.2575 0
M  V30 2142 C 206.873 -0.177778 5.33404 0
M  V30 2143 O 207.096 -1.40189 5.52904 0
M  V30 2144 O 206.03 0.479106 5.9999 0
M  V30 2145 H 209.856 1.22639 2.77837 0
M  V30 2146 H 207.441 0.662834 1.33891 0
M  V30 2147 H 209.323 -0.817841 4.13388 0
M  V30 2148 H 207.998 -1.20763 3.0033 0
M  V30 2149 H 206.905 1.03271 3.59564 0
M  V30 2150 H 208.238 1.33979 4.73614 0
M  V30 2151 N 209.89 -1.43072 0.660911 0
M  V30 2152 C 211.115 -2.06584 0.183805 0
M  V30 2153 C 211.54 -1.49257 -1.14472 0
M  V30 2154 O 210.898 -0.605528 -1.70889 0
M  V30 2155 C 210.946 -3.60418 0.114434 0
M  V30 2156 O 210.05 -4.01981 -0.921137 0
M  V30 2157 H 209.391 -0.656669 0.0983994 0
M  V30 2158 H 211.921 -1.83447 0.906006 0
M  V30 2159 H 211.931 -4.07946 -0.0663394 0
M  V30 2160 H 210.606 -4.01519 1.08422 0
M  V30 2161 H 209.183 -3.66029 -0.71253 0
M  V30 2162 N 211.368 -0.403325 -1.52352 0
M  V30 2163 C 212.645 0.232611 -1.94212 0
M  V30 2164 C 213.025 1.63133 -1.33981 0
M  V30 2165 O 212.373 2.22659 -0.513344 0
M  V30 2166 C 212.583 0.244811 -3.4814 0
M  V30 2167 C 213.931 0.46698 -4.22024 0
M  V30 2168 O 214.955 0.324419 -3.5472 0
M  V30 2169 O 213.814 0.74747 -5.41364 0
M  V30 2170 H 210.908 0.148223 -0.813609 0
M  V30 2171 H 213.454 -0.458848 -1.63379 0
M  V30 2172 H 212.226 -0.734378 -3.84347 0
M  V30 2173 H 211.849 0.980611 -3.85318 0
M  V30 2174 N 212.846 1.57033 -0.133567 0
M  V30 2175 C 213.756 2.19632 0.824564 0
M  V30 2176 C 214.772 1.17666 1.28182 0
M  V30 2177 O 215.948 1.50193 1.3418 0
M  V30 2178 C 213.013 2.79499 2.05137 0
M  V30 2179 C 212.074 3.96548 1.64464 0
M  V30 2180 C 211.307 4.5355 2.81297 0
M  V30 2181 O 211.53 4.09438 3.97136 0
M  V30 2182 O 210.464 5.44018 2.57542 0
M  V30 2183 H 214.29 3.01991 0.321766 0
M  V30 2184 H 211.875 1.49112 0.0927889 0
M  V30 2185 H 213.757 3.17602 2.7696 0
M  V30 2186 H 212.432 2.00162 2.54395 0
M  V30 2187 H 211.339 3.63186 0.897048 0
M  V30 2188 H 212.672 4.77364 1.19934 0
M  V30 2189 N 214.325 -0.140222 1.56975 0
M  V30 2190 C 215.255 -1.17456 2.01808 0
M  V30 2191 C 216.236 -1.44415 0.898794 0
M  V30 2192 O 217.421 -1.5522 1.16707 0
M  V30 2193 C 214.551 -2.50607 2.40444 0
M  V30 2194 C 213.505 -2.38155 3.55621 0
M  V30 2195 C 212.831 -3.76078 3.80091 0
M  V30 2196 C 214.131 -1.85991 4.88062 0
M  V30 2197 H 215.825 -0.801743 2.88466 0
M  V30 2198 H 213.371 -0.38422 1.38779 0
M  V30 2199 H 215.324 -3.23197 2.7041 0
M  V30 2200 H 214.048 -2.89737 1.50732 0
M  V30 2201 H 212.707 -1.68016 3.25832 0
M  V30 2202 H 212.355 -4.12656 2.87618 0
M  V30 2203 H 212.055 -3.68606 4.57606 0
M  V30 2204 H 213.579 -4.50206 4.12488 0
M  V30 2205 H 214.993 -2.4838 5.16701 0
M  V30 2206 H 213.39 -1.89393 5.6943 0
M  V30 2207 H 214.46 -0.816023 4.77984 0
M  V30 2208 N 215.803 -1.52179 -0.40978 0
M  V30 2209 C 217.052 -1.65434 -1.15388 0
M  V30 2210 C 217.365 -0.390056 -1.91671 0
M  V30 2211 O 218.571 -0.402399 -2.68501 0
M  V30 2212 C 217.027 -2.92279 -2.10003 0
M  V30 2213 C 216.635 -4.25813 -1.39239 0
M  V30 2214 C 218.379 -3.14897 -2.84675 0
M  V30 2215 C 216.286 -5.43782 -2.32498 0
M  V30 2216 H 215.216 -0.616267 -0.434432 0
M  V30 2217 H 217.867 -1.78666 -0.418401 0
M  V30 2218 H 216.249 -2.72744 -2.871 0
M  V30 2219 H 217.423 -4.55828 -0.675099 0
M  V30 2220 H 215.738 -4.09292 -0.766097 0
M  V30 2221 H 218.335 -4.0021 -3.54593 0
M  V30 2222 H 218.678 -2.29103 -3.47588 0
M  V30 2223 H 219.211 -3.34901 -2.14677 0
M  V30 2224 H 215.95 -6.3192 -1.74233 0
M  V30 2225 H 215.47 -5.18106 -3.02201 0
M  V30 2226 H 217.149 -5.76834 -2.93038 0
M  V30 2227 N 217.281 0.66697 -1.42791 0
M  V30 2228 C 218.529 1.42417 -1.43394 0
M  V30 2229 C 218.85 1.94925 -0.0542373 0
M  V30 2230 O 218.12 1.73564 0.908415 0
M  V30 2231 H 216.7 0.528515 -0.527902 0
M  V30 2232 H 219.362 0.787562 -1.78279 0
M  V30 2233 H 218.458 2.27333 -2.13837 0
M  V30 2234 N 218.759 1.29093 0.90403 0
M  V30 2235 C 219.691 1.09658 2.01266 0
M  V30 2236 C 220.704 0.0453729 1.62737 0
M  V30 2237 O 221.893 0.289446 1.76138 0
M  V30 2238 C 218.993 0.646278 3.32681 0
M  V30 2239 C 218.166 1.77505 3.99763 0
M  V30 2240 C 217.225 1.31649 5.09465 0
M  V30 2241 O 216.251 2.02045 5.32134 0
M  V30 2242 N 217.453 0.184997 5.80205 0
M  V30 2243 H 220.218 2.05135 2.18494 0
M  V30 2244 H 217.779 1.20975 1.07594 0
M  V30 2245 H 219.771 0.322906 4.0341 0
M  V30 2246 H 218.341 -0.215916 3.11853 0
M  V30 2247 H 217.561 2.26752 3.22455 0
M  V30 2248 H 218.849 2.53198 4.41325 0
M  V30 2249 H 218.247 -0.402021 5.6427 0
M  V30 2250 H 216.804 -0.0790358 6.51752 0
M  V30 2251 N 220.237 -1.11381 1.11499 0
M  V30 2252 C 221.184 -2.17439 0.773887 0
M  V30 2253 C 222.154 -1.64132 -0.254899 0
M  V30 2254 O 223.339 -1.90345 -0.13168 0
M  V30 2255 C 220.479 -3.44373 0.223917 0
M  V30 2256 C 219.592 -4.1168 1.30934 0
M  V30 2257 C 218.727 -5.263 0.71984 0
M  V30 2258 C 217.766 -5.85493 1.78507 0
M  V30 2259 N 216.903 -6.91507 1.21502 0
M  V30 2260 H 221.743 -2.45962 1.68246 0
M  V30 2261 H 219.28 -1.20744 0.840191 0
M  V30 2262 H 221.238 -4.17047 -0.112921 0
M  V30 2263 H 219.868 -3.16232 -0.647851 0
M  V30 2264 H 218.92 -3.37073 1.76312 0
M  V30 2265 H 220.232 -4.51729 2.11524 0
M  V30 2266 H 219.386 -6.05785 0.333094 0
M  V30 2267 H 218.125 -4.87559 -0.117377 0
M  V30 2268 H 217.13 -5.04686 2.18111 0
M  V30 2269 H 218.355 -6.26301 2.62533 0
M  V30 2270 H 216.301 -6.54783 0.399455 0
M  V30 2271 H 216.218 -7.30214 1.95763 0
M  V30 2272 H 217.486 -7.74795 0.855181 0
M  V30 2273 N 221.715 -0.905404 -1.28997 0
M  V30 2274 C 222.961 -0.535039 -1.95615 0
M  V30 2275 C 223.294 0.917404 -1.71165 0
M  V30 2276 O 222.569 1.65123 -1.02785 0
M  V30 2277 C 222.852 -0.834918 -3.50287 0
M  V30 2278 C 222.705 -2.33948 -3.84172 0
M  V30 2279 C 224.024 -0.325318 -4.38896 0
M  V30 2280 H 221.143 -0.195861 -0.710498 0
M  V30 2281 H 223.785 -1.13313 -1.52513 0
M  V30 2282 H 221.935 -0.325904 -3.87131 0
M  V30 2283 H 223.607 -2.91847 -3.57243 0
M  V30 2284 H 221.85 -2.79789 -3.31513 0
M  V30 2285 H 222.521 -2.49987 -4.92149 0
M  V30 2286 H 224.997 -0.761256 -4.09077 0
M  V30 2287 H 223.873 -0.564295 -5.45992 0
M  V30 2288 H 224.134 0.774144 -4.35269 0
M  V30 2289 N 223.193 1.4272 -0.668489 0
M  V30 2290 C 224.156 2.292 0.00448567 0
M  V30 2291 C 225.156 1.43001 0.735339 0
M  V30 2292 O 226.346 1.64461 0.57429 0
M  V30 2293 C 223.478 3.25375 1.01705 0
M  V30 2294 H 224.671 2.90199 -0.756608 0
M  V30 2295 H 222.224 1.50254 -0.430506 0
M  V30 2296 H 222.959 2.69301 1.80686 0
M  V30 2297 H 222.744 3.88944 0.496463 0
M  V30 2298 H 224.234 3.90245 1.48655 0
M  V30 2299 N 224.671 0.411399 1.52136 0
M  V30 2300 C 225.621 -0.430376 2.23901 0
M  V30 2301 C 226.605 -1.0116 1.25121 0
M  V30 2302 O 227.797 -0.934044 1.50348 0
M  V30 2303 C 224.926 -1.54527 3.06556 0
M  V30 2304 C 224.012 -0.9747 4.12747 0
M  V30 2305 N 224.403 -0.130991 5.0563 0
M  V30 2306 C 222.701 -1.24497 4.28271 0
M  V30 2307 C 223.402 0.186689 5.814 0
M  V30 2308 N 222.378 -0.42304 5.41951 0
M  V30 2309 H 226.18 0.220509 2.93072 0
M  V30 2310 H 223.694 0.221952 1.60876 0
M  V30 2311 H 225.691 -2.16093 3.56524 0
M  V30 2312 H 224.351 -2.19875 2.38925 0
M  V30 2313 H 225.362 0.23349 5.17373 0
M  V30 2314 H 222.039 -1.89787 3.7187 0
M  V30 2315 H 223.429 0.871673 6.66222 0
M  V30 2316 N 226.149 -1.5696 0.141893 0
M  V30 2317 C 227.112 -2.15316 -0.785587 0
M  V30 2318 C 228.112 -1.09366 -1.1788 0
M  V30 2319 O 229.302 -1.35031 -1.10056 0
M  V30 2320 C 226.434 -2.71211 -2.06537 0
M  V30 2321 H 227.627 -2.98608 -0.278041 0
M  V30 2322 H 225.18 -1.5593 -0.107519 0
M  V30 2323 H 225.915 -1.91571 -2.6167 0
M  V30 2324 H 225.7 -3.4872 -1.79268 0
M  V30 2325 H 227.19 -3.16189 -2.72789 0
M  V30 2326 N 227.627 0.131896 -1.57047 0
M  V30 2327 C 228.557 1.16384 -2.02428 0
M  V30 2328 C 229.538 1.43936 -0.90644 0
M  V30 2329 O 230.723 1.54599 -1.17528 0
M  V30 2330 C 227.853 2.49328 -2.4177 0
M  V30 2331 C 226.807 2.36266 -3.56879 0
M  V30 2332 C 226.133 3.74057 -3.8208 0
M  V30 2333 C 227.433 1.834 -4.89042 0
M  V30 2334 H 229.127 0.786433 -2.88887 0
M  V30 2335 H 226.673 0.376855 -1.38981 0
M  V30 2336 H 228.626 3.21759 -2.7212 0
M  V30 2337 H 227.35 2.88934 -1.52266 0
M  V30 2338 H 226.009 1.66286 -3.26718 0
M  V30 2339 H 225.657 4.11125 -2.89803 0
M  V30 2340 H 225.357 3.66174 -4.59554 0
M  V30 2341 H 226.881 4.48012 -4.1487 0
M  V30 2342 H 228.295 2.45636 -5.18011 0
M  V30 2343 H 226.692 1.8637 -5.70426 0
M  V30 2344 H 227.762 0.790662 -4.7841 0
M  V30 2345 N 229.106 1.52395 0.401703 0
M  V30 2346 C 230.069 1.75636 1.47257 0
M  V30 2347 C 231.069 0.62628 1.48103 0
M  V30 2348 O 232.259 0.894227 1.49497 0
M  V30 2349 C 229.391 1.84553 2.86624 0
M  V30 2350 H 230.584 2.71241 1.27938 0
M  V30 2351 H 228.137 1.42923 0.632662 0
M  V30 2352 H 228.872 0.908882 3.11303 0
M  V30 2353 H 228.657 2.66715 2.87412 0
M  V30 2354 H 230.147 2.04251 3.64241 0
M  V30 2355 N 230.584 -0.659388 1.43143 0
M  V30 2356 C 231.494 -1.80167 1.50256 0
M  V30 2357 C 232.51 -1.69571 0.390106 0
M  V30 2358 O 233.686 -1.90849 0.643319 0
M  V30 2359 C 230.751 -3.16409 1.41725 0
M  V30 2360 C 229.812 -3.38848 2.63591 0
M  V30 2361 C 229.045 -4.68591 2.55458 0
M  V30 2362 O 229.268 -5.47532 1.59891 0
M  V30 2363 O 228.202 -4.92614 3.45854 0
M  V30 2364 H 232.028 -1.77121 2.46702 0
M  V30 2365 H 229.613 -0.817092 1.25076 0
M  V30 2366 H 231.495 -3.9768 1.39387 0
M  V30 2367 H 230.17 -3.20059 0.484118 0
M  V30 2368 H 229.077 -2.57366 2.71502 0
M  V30 2369 H 230.41 -3.4004 3.55856 0
M  V30 2370 N 232.062 -1.29571 -0.897171 0
M  V30 2371 C 233.31 -1.17456 -1.64464 0
M  V30 2372 C 233.631 0.273698 -1.9307 0
M  V30 2373 O 232.901 1.18684 -1.55855 0
M  V30 2374 H 231.481 -0.431706 -0.609622 0
M  V30 2375 H 234.143 -1.62531 -1.07562 0
M  V30 2376 H 233.239 -1.72648 -2.59998 0
M  V30 2377 N 233.54 1.10788 -1.12088 0
M  V30 2378 C 234.47 2.19083 -0.807755 0
M  V30 2379 C 235.451 1.6858 0.226859 0
M  V30 2380 O 236.636 1.93997 0.0888475 0
M  V30 2381 C 233.766 3.46344 -0.257576 0
M  V30 2382 C 232.72 4.101 -1.22483 0
M  V30 2383 C 232.046 5.32016 -0.535052 0
M  V30 2384 C 233.346 4.54236 -2.57811 0
M  V30 2385 H 235.04 2.45534 -1.71328 0
M  V30 2386 H 232.586 1.1801 -0.825205 0
M  V30 2387 H 234.539 4.21392 -0.0262679 0
M  V30 2388 H 233.263 3.19373 0.683278 0
M  V30 2389 H 231.922 3.37054 -1.44189 0
M  V30 2390 H 231.57 5.01319 0.410827 0
M  V30 2391 H 231.27 5.75625 -1.18024 0
M  V30 2392 H 232.794 6.09799 -0.312695 0
M  V30 2393 H 234.208 5.20575 -2.40155 0
M  V30 2394 H 232.605 5.08682 -3.18375 0
M  V30 2395 H 233.675 3.6734 -3.16528 0
M  V30 2396 N 235.018 0.912232 1.28515 0
M  V30 2397 C 236.266 0.543523 1.94654 0
M  V30 2398 C 236.587 -0.9155 1.72173 0
M  V30 2399 O 235.857 -1.64708 1.06058 0
M  V30 2400 H 234.437 0.198017 0.720277 0
M  V30 2401 H 237.099 1.16126 1.56527 0
M  V30 2402 H 236.195 0.736684 3.03281 0
M  V30 2403 N 236.496 -1.42363 0.676048 0
M  V30 2404 C 237.742 -2.0182 0.199125 0
M  V30 2405 C 238.075 -1.53339 -1.19168 0
M  V30 2406 O 237.35 -0.736124 -1.80032 0
M  V30 2407 C 237.633 -3.59331 0.235144 0
M  V30 2408 C 237.486 -4.17989 1.66149 0
M  V30 2409 C 238.805 -4.3813 -0.41595 0
M  V30 2410 H 235.924 -0.733293 0.0738311 0
M  V30 2411 H 238.566 -1.69368 0.86107 0
M  V30 2412 H 236.716 -3.87109 -0.328487 0
M  V30 2413 H 238.388 -4.0116 2.27747 0
M  V30 2414 H 236.631 -3.7377 2.20178 0
M  V30 2415 H 237.302 -5.27126 1.63837 0
M  V30 2416 H 239.778 -4.16051 0.0638529 0
M  V30 2417 H 238.654 -5.47717 -0.360115 0
M  V30 2418 H 238.915 -4.16101 -1.49373 0
M  V30 2419 N 237.974 -0.419461 -1.51915 0
M  V30 2420 C 239.223 0.154346 -2.01109 0
M  V30 2421 C 239.536 1.45338 -1.30905 0
M  V30 2422 O 240.742 2.10906 -1.7097 0
M  V30 2423 C 239.198 0.325615 -3.58424 0
M  V30 2424 C 238.806 -0.961934 -4.37551 0
M  V30 2425 C 240.55 0.854155 -4.15818 0
M  V30 2426 C 238.457 -0.757287 -5.86531 0
M  V30 2427 H 237.387 0.0614563 -0.751491 0
M  V30 2428 H 240.038 -0.54649 -1.75173 0
M  V30 2429 H 238.42 1.08903 -3.80731 0
M  V30 2430 H 239.594 -1.7323 -4.26999 0
M  V30 2431 H 237.909 -1.41766 -3.91524 0
M  V30 2432 H 240.506 1.02346 -5.24814 0
M  V30 2433 H 240.849 1.83172 -3.73837 0
M  V30 2434 H 241.382 0.149528 -3.97519 0
M  V30 2435 H 238.121 -1.70671 -6.32892 0
M  V30 2436 H 237.641 -0.0264061 -5.99794 0
M  V30 2437 H 239.32 -0.403482 -6.45741 0
M  V30 2438 N 239.452 1.56882 -0.150215 0
M  V30 2439 C 240.415 2.1573 0.774157 0
M  V30 2440 C 241.415 1.0999 1.17298 0
M  V30 2441 O 242.605 1.35613 1.09338 0
M  V30 2442 C 239.737 2.72302 2.05096 0
M  V30 2443 H 240.93 2.98752 0.262201 0
M  V30 2444 H 238.483 1.55985 0.099248 0
M  V30 2445 H 239.218 1.92956 2.6065 0
M  V30 2446 H 239.003 3.49665 1.77416 0
M  V30 2447 H 240.493 3.17632 2.71109 0
M  V30 2448 N 240.93 -0.123565 1.57115 0
M  V30 2449 C 242.17 -0.838097 1.86428 0
M  V30 2450 C 242.534 -1.77266 0.737611 0
M  V30 2451 O 243.735 -2.52842 0.912389 0
M  V30 2452 C 242.006 -1.57219 3.20962 0
M  V30 2453 S 243.565 -2.32893 3.71896 0
M  V30 2454 H 240.383 -0.279811 0.653626 0
M  V30 2455 H 242.985 -0.0967034 1.95261 0
M  V30 2456 H 241.689 -0.877522 4.00909 0
M  V30 2457 H 241.22 -2.35405 3.15195 0
M  V30 2458 H 243.235 -3.5853 3.43032 0
M  V30 2459 N 242.408 -1.52605 -0.393616 0
M  V30 2460 C 243.657 -1.66649 -1.13627 0
M  V30 2461 C 243.97 -0.410364 -1.91247 0
M  V30 2462 O 245.176 -0.430854 -2.68059 0
M  V30 2463 C 243.632 -2.9449 -2.06891 0
M  V30 2464 C 243.24 -4.27266 -1.34714 0
M  V30 2465 C 244.984 -3.17899 -2.81319 0
M  V30 2466 C 242.891 -5.46217 -2.26717 0
M  V30 2467 H 241.821 -0.62084 -0.427871 0
M  V30 2468 H 244.472 -1.791 -0.399428 0
M  V30 2469 H 242.854 -2.75774 -2.84191 0
M  V30 2470 H 244.028 -4.56518 -0.626714 0
M  V30 2471 H 242.343 -4.10081 -0.722643 0
M  V30 2472 H 244.94 -4.03949 -3.50328 0
M  V30 2473 H 245.283 -2.32777 -3.45139 0
M  V30 2474 H 245.816 -3.37159 -2.11113 0
M  V30 2475 H 242.555 -6.33733 -1.67521 0
M  V30 2476 H 242.075 -5.21283 -2.96689 0
M  V30 2477 H 243.754 -5.7991 -2.86903 0
M  V30 2478 N 243.887 0.651787 -1.4349 0
M  V30 2479 C 245.135 1.40888 -1.44897 0
M  V30 2480 C 245.456 1.94856 -0.0749086 0
M  V30 2481 O 244.726 1.74518 0.889956 0
M  V30 2482 H 243.306 0.522887 -0.533478 0
M  V30 2483 H 245.968 0.768609 -1.79104 0
M  V30 2484 H 245.064 2.25052 -2.16236 0
M  V30 2485 N 245.365 1.30045 0.890287 0
M  V30 2486 C 246.275 1.17885 2.02831 0
M  V30 2487 C 247.291 0.0999609 1.73713 0
M  V30 2488 O 248.467 0.313867 1.98939 0
M  V30 2489 C 245.532 0.866079 3.35708 0
M  V30 2490 C 244.593 2.02979 3.78283 0
M  V30 2491 C 243.826 1.73184 5.0482 0
M  V30 2492 O 244.049 0.657237 5.66601 0
M  V30 2493 O 242.983 2.58267 5.43674 0
M  V30 2494 H 246.809 2.13474 2.16015 0
M  V30 2495 H 244.394 1.09587 1.01543 0
M  V30 2496 H 246.276 0.706623 4.15433 0
M  V30 2497 H 244.951 -0.0599443 3.23644 0
M  V30 2498 H 243.858 2.24454 2.99285 0
M  V30 2499 H 245.191 2.93734 3.94944 0
M  V30 2500 N 246.843 -1.10192 1.12674 0
M  V30 2501 C 247.79 -2.16606 0.796906 0
M  V30 2502 C 248.76 -1.64394 -0.237476 0
M  V30 2503 O 249.945 -1.90474 -0.111484 0
M  V30 2504 C 247.085 -3.44116 0.26043 0
M  V30 2505 C 246.198 -4.10268 1.35293 0
M  V30 2506 C 245.333 -5.25507 0.775621 0
M  V30 2507 C 244.372 -5.83567 1.84706 0
M  V30 2508 N 243.509 -6.90179 1.28829 0
M  V30 2509 H 248.349 -2.44163 1.70846 0
M  V30 2510 H 245.886 -1.19846 0.85295 0
M  V30 2511 H 247.844 -4.17143 -0.0686814 0
M  V30 2512 H 246.474 -3.16901 -0.614274 0
M  V30 2513 H 245.526 -3.35184 1.79877 0
M  V30 2514 H 246.838 -4.4946 2.16303 0
M  V30 2515 H 245.992 -6.05398 0.397327 0
M  V30 2516 H 244.731 -4.87656 -0.0656581 0
M  V30 2517 H 243.736 -5.02344 2.23452 0
M  V30 2518 H 244.961 -6.23482 2.69161 0
M  V30 2519 H 242.907 -6.54322 0.468881 0
M  V30 2520 H 242.824 -7.28097 2.03497 0
M  V30 2521 H 244.092 -7.73844 0.937311 0
M  V30 2522 N 248.321 -0.919034 -1.28029 0
M  V30 2523 C 249.251 -0.428581 -2.29533 0
M  V30 2524 C 250.232 0.50659 -1.62381 0
M  V30 2525 O 251.417 0.413195 -1.89753 0
M  V30 2526 C 248.547 0.327388 -3.45753 0
M  V30 2527 C 247.501 -0.519137 -4.2484 0
M  V30 2528 C 246.827 0.365486 -5.33449 0
M  V30 2529 C 248.127 -1.77914 -4.91064 0
M  V30 2530 H 249.821 -1.27687 -2.70807 0
M  V30 2531 H 247.367 -0.615428 -1.30186 0
M  V30 2532 H 249.32 0.681378 -4.15855 0
M  V30 2533 H 248.044 1.20963 -3.03374 0
M  V30 2534 H 246.703 -0.855717 -3.56473 0
M  V30 2535 H 246.351 1.24642 -4.87312 0
M  V30 2536 H 246.051 -0.197356 -5.87268 0
M  V30 2537 H 247.575 0.715241 -6.06396 0
M  V30 2538 H 248.989 -1.49374 -5.53498 0
M  V30 2539 H 247.386 -2.2848 -5.54903 0
M  V30 2540 H 248.456 -2.50382 -4.15255 0
M  V30 2541 N 249.799 1.42003 -0.683588 0
M  V30 2542 C 251.076 1.95112 -0.138075 0
M  V30 2543 C 251.456 1.62359 1.34918 0
M  V30 2544 O 250.804 0.924311 2.08971 0
M  V30 2545 C 251.014 3.46505 -0.416581 0
M  V30 2546 C 252.362 4.23254 -0.337834 0
M  V30 2547 O 253.386 3.54468 -0.35082 0
M  V30 2548 O 252.245 5.45743 -0.287596 0
M  V30 2549 H 249.339 0.826961 -0.00797996 0
M  V30 2550 H 251.885 1.51784 -0.758924 0
M  V30 2551 H 250.657 3.63582 -1.4465 0
M  V30 2552 H 250.28 3.969 0.235839 0
M  V30 2553 N 251.277 0.427512 1.51691 0
M  V30 2554 C 252.187 -0.39527 2.31246 0
M  V30 2555 C 253.203 -1.03674 1.39742 0
M  V30 2556 O 254.379 -1.03425 1.72816 0
M  V30 2557 C 251.444 -1.48706 3.13189 0
M  V30 2558 C 250.505 -0.866743 4.20459 0
M  V30 2559 C 249.738 -1.90651 4.98486 0
M  V30 2560 O 249.961 -3.12733 4.77026 0
M  V30 2561 O 248.895 -1.5025 5.82845 0
M  V30 2562 H 252.721 0.253918 3.02637 0
M  V30 2563 H 250.306 0.190274 1.48183 0
M  V30 2564 H 252.188 -2.12047 3.64162 0
M  V30 2565 H 250.863 -2.12051 2.44573 0
M  V30 2566 H 249.77 -0.195544 3.73589 0
M  V30 2567 H 251.103 -0.276934 4.9142 0
M  V30 2568 N 252.755 -1.56801 0.158532 0
M  V30 2569 C 254.171 -1.5837 -0.197774 0
M  V30 2570 C 254.371 -1.17334 -1.63814 0
M  V30 2571 O 253.427 -0.878988 -2.36707 0
M  V30 2572 C 254.74 -3.00615 0.0714459 0
M  V30 2573 C 256.288 -3.12999 0.00864533 0
M  V30 2574 C 256.763 -4.57313 0.250685 0
M  V30 2575 N 258.254 -4.62777 0.198014 0
M  V30 2576 C 258.989 -5.72271 0.359642 0
M  V30 2577 N 258.485 -6.90371 0.579625 0
M  V30 2578 N 260.278 -5.61318 0.296438 0
M  V30 2579 H 252.429 -1.81765 1.09887 0
M  V30 2580 H 254.692 -0.841849 0.435884 0
M  V30 2581 H 254.398 -3.35068 1.06874 0
M  V30 2582 H 254.272 -3.71683 -0.642757 0
M  V30 2583 H 256.659 -2.7838 -0.979217 0
M  V30 2584 H 256.74 -2.44393 0.755359 0
M  V30 2585 H 256.384 -4.92639 1.2357 0
M  V30 2586 H 256.314 -5.24061 -0.516489 0
M  V30 2587 H 258.805 -3.77885 0.0331115 0
M  V30 2588 H 259.118 -7.69689 0.69275 0
M  V30 2589 H 257.463 -6.92264 0.616087 0
M  V30 2590 H 260.654 -4.67932 0.125258 0
M  V30 2591 H 260.827 -6.46599 0.425831 0
M  V30 2592 N 254.233 0.115231 -1.57178 0
M  V30 2593 C 255.143 1.15994 -2.03918 0
M  V30 2594 C 256.159 1.45103 -0.960268 0
M  V30 2595 O 257.335 1.56144 -1.27204 0
M  V30 2596 C 254.4 2.46568 -2.43732 0
M  V30 2597 C 253.461 2.24822 -3.65723 0
M  V30 2598 C 252.694 3.4917 -4.03629 0
M  V30 2599 O 252.917 4.56623 -3.41835 0
M  V30 2600 O 251.851 3.39949 -4.96708 0
M  V30 2601 H 255.677 0.793019 -2.93164 0
M  V30 2602 H 253.262 0.3263 -1.45793 0
M  V30 2603 H 255.144 3.23492 -2.70057 0
M  V30 2604 H 253.819 2.82726 -1.57631 0
M  V30 2605 H 252.726 1.45744 -3.44542 0
M  V30 2606 H 254.059 1.93566 -4.52541 0
M  V30 2607 N 255.711 1.52812 0.385517 0
M  V30 2608 C 256.674 1.77188 1.45386 0
M  V30 2609 C 257.674 0.641953 1.4743 0
M  V30 2610 O 258.864 0.910033 1.4854 0
M  V30 2611 C 255.996 1.87582 2.8465 0
M  V30 2612 H 257.189 2.72583 1.25054 0
M  V30 2613 H 254.742 1.43586 0.617467 0
M  V30 2614 H 255.477 0.941849 3.10322 0
M  V30 2615 H 255.262 2.69748 2.84567 0
M  V30 2616 H 256.752 2.08102 3.62054 0
M  V30 2617 N 257.189 -0.644168 1.43834 0
M  V30 2618 C 258.437 -1.40117 1.45642 0
M  V30 2619 C 258.758 -1.94814 0.0852413 0
M  V30 2620 O 258.028 -1.74988 -0.880688 0
M  V30 2621 H 256.608 -0.52005 0.536243 0
M  V30 2622 H 259.27 -0.7591 1.7951 0
M  V30 2623 H 258.366 -2.23902 2.17427 0
M  V30 2624 N 258.668 -1.30515 -0.883378 0
M  V30 2625 C 259.917 -1.18795 -1.63005 0
M  V30 2626 C 260.23 0.255923 -1.93919 0
M  V30 2627 O 261.436 0.494654 -2.66956 0
M  V30 2628 C 259.892 -2.07878 -2.93794 0
M  V30 2629 C 259.5 -3.57184 -2.70414 0
M  V30 2630 C 261.244 -2.04924 -3.71761 0
M  V30 2631 C 259.151 -4.38317 -3.97029 0
M  V30 2632 H 258.081 -0.441031 -0.611562 0
M  V30 2633 H 260.732 -1.55275 -0.977854 0
M  V30 2634 H 259.114 -1.64283 -3.60315 0
M  V30 2635 H 260.288 -4.08937 -2.12384 0
M  V30 2636 H 258.603 -3.61976 -2.0582 0
M  V30 2637 H 261.2 -2.62792 -4.65665 0
M  V30 2638 H 261.543 -1.0331 -4.03277 0
M  V30 2639 H 262.076 -2.46649 -3.12104 0
M  V30 2640 H 258.815 -5.40632 -3.70671 0
M  V30 2641 H 258.335 -3.91326 -4.54559 0
M  V30 2642 H 260.014 -4.49834 -4.65036 0
M  V30 2643 N 260.146 1.09593 -1.13257 0
M  V30 2644 C 261.374 1.855 -0.916378 0
M  V30 2645 C 261.789 1.81069 0.534738 0
M  V30 2646 O 261.146 1.20562 1.37007 0
M  V30 2647 C 261.197 3.33546 -1.39388 0
M  V30 2648 O 260.918 3.37927 -2.78813 0
M  V30 2649 C 262.419 4.26299 -1.21588 0
M  V30 2650 H 259.639 0.585991 -0.326887 0
M  V30 2651 H 262.183 1.38488 -1.5047 0
M  V30 2652 H 260.338 3.77992 -0.848597 0
M  V30 2653 H 260.752 4.30254 -2.9997 0
M  V30 2654 H 262.226 5.28341 -1.59876 0
M  V30 2655 H 262.703 4.38918 -0.157376 0
M  V30 2656 H 263.309 3.87668 -1.7491 0
M  V30 2657 N 261.624 0.925811 1.2754 0
M  V30 2658 C 262.534 0.428993 2.30644 0
M  V30 2659 C 263.55 -0.489387 1.66976 0
M  V30 2660 O 264.726 -0.372653 1.97922 0
M  V30 2661 C 261.791 -0.311967 3.45294 0
M  V30 2662 C 260.852 0.641098 4.24486 0
M  V30 2663 C 260.085 -0.0645955 5.33661 0
M  V30 2664 O 260.308 -1.28429 5.55754 0
M  V30 2665 O 259.242 0.606265 5.98839 0
M  V30 2666 H 263.068 1.28504 2.75173 0
M  V30 2667 H 260.653 0.691086 1.32455 0
M  V30 2668 H 262.535 -0.729972 4.15029 0
M  V30 2669 H 261.21 -1.14365 3.02824 0
M  V30 2670 H 260.117 1.10874 3.57292 0
M  V30 2671 H 261.45 1.43995 4.70666 0
M  V30 2672 N 263.102 -1.41638 0.69111 0
M  V30 2673 C 264.049 -2.30789 0.0229705 0
M  V30 2674 C 265.019 -1.46863 -0.775911 0
M  V30 2675 O 266.204 -1.75661 -0.74485 0
M  V30 2676 C 263.344 -3.32868 -0.910666 0
M  V30 2677 C 262.457 -4.31875 -0.103874 0
M  V30 2678 C 261.592 -5.21024 -1.03475 0
M  V30 2679 C 260.631 -6.11702 -0.220598 0
M  V30 2680 N 259.768 -6.93349 -1.10504 0
M  V30 2681 H 264.608 -2.87366 0.788978 0
M  V30 2682 H 262.145 -1.41535 0.400794 0
M  V30 2683 H 264.103 -3.90596 -1.46597 0
M  V30 2684 H 262.733 -2.77851 -1.64312 0
M  V30 2685 H 261.785 -3.76131 0.568285 0
M  V30 2686 H 263.097 -4.96003 0.527504 0
M  V30 2687 H 262.251 -5.83565 -1.65943 0
M  V30 2688 H 260.99 -4.57112 -1.69999 0
M  V30 2689 H 259.995 -5.48215 0.417187 0
M  V30 2690 H 261.22 -6.77668 0.440784 0
M  V30 2691 H 259.166 -6.3205 -1.75638 0
M  V30 2692 H 259.083 -7.54146 -0.529125 0
M  V30 2693 H 260.351 -7.60362 -1.71667 0
M  V30 2694 N 264.58 -0.43555 -1.51462 0
M  V30 2695 C 265.826 0.131709 -2.02372 0
M  V30 2696 C 266.159 1.42516 -1.3192 0
M  V30 2697 O 265.434 1.89606 -0.433573 0
M  V30 2698 C 265.717 0.352301 -3.58373 0
M  V30 2699 C 265.57 -0.959676 -4.39443 0
M  V30 2700 C 266.889 1.12286 -4.25535 0
M  V30 2701 H 264.008 0.0463936 -0.735538 0
M  V30 2702 H 266.65 -0.574197 -1.81116 0
M  V30 2703 H 264.8 0.9536 -3.76615 0
M  V30 2704 H 266.472 -1.59482 -4.32855 0
M  V30 2705 H 264.715 -1.56468 -4.04599 0
M  V30 2706 H 265.386 -0.759394 -5.46752 0
M  V30 2707 H 267.862 0.613545 -4.11552 0
M  V30 2708 H 266.738 1.24598 -5.34571 0
M  V30 2709 H 266.999 2.15048 -3.86273 0
M  V30 2710 N 266.058 1.56714 -0.166846 0
M  V30 2711 C 267.304 1.97039 0.479962 0
M  V30 2712 C 267.637 1.05264 1.63197 0
M  V30 2713 O 266.912 0.0988833 1.94248 0
M  V30 2714 C 267.195 3.46867 0.967212 0
M  V30 2715 C 267.048 4.49421 -0.18466 0
M  V30 2716 C 268.367 3.9968 1.84238 0
M  V30 2717 H 265.486 0.71641 0.172992 0
M  V30 2718 H 268.128 1.8832 -0.252079 0
M  V30 2719 H 266.278 3.54428 1.59101 0
M  V30 2720 H 267.95 4.53924 -0.821621 0
M  V30 2721 H 266.193 4.25573 -0.840837 0
M  V30 2722 H 266.864 5.51644 0.198317 0
M  V30 2723 H 269.34 3.94723 1.31655 0
M  V30 2724 H 268.216 5.04941 2.15234 0
M  V30 2725 H 268.477 3.43226 2.78654 0
M  V30 2726 N 267.536 -0.106894 1.57237 0
M  V30 2727 C 268.783 -0.812526 1.85484 0
M  V30 2728 C 269.111 -1.79304 0.753687 0
M  V30 2729 O 268.366 -1.94047 -0.253853 0
M  V30 2730 C 268.665 -1.58628 3.20268 0
M  V30 2731 C 268.331 -0.748967 4.44636 0
M  V30 2732 C 266.993 -0.518104 4.78403 0
M  V30 2733 C 269.345 -0.166122 5.20935 0
M  V30 2734 C 266.673 0.305659 5.85903 0
M  V30 2735 C 269.025 0.644899 6.29304 0
M  V30 2736 C 267.689 0.885965 6.61594 0
M  V30 2737 H 266.959 -0.297324 0.678734 0
M  V30 2738 H 269.606 -0.0744332 1.91355 0
M  V30 2739 H 267.911 -2.39562 3.10028 0
M  V30 2740 H 269.608 -2.13643 3.39349 0
M  V30 2741 H 266.198 -0.939006 4.18187 0
M  V30 2742 H 270.382 -0.33167 4.95191 0
M  V30 2743 H 265.638 0.501528 6.0934 0
M  V30 2744 H 269.812 1.10345 6.87602 0
M  V30 2745 H 267.439 1.52609 7.44725 0
M  V30 2746 N 269.014 -1.53014 -0.377408 0
M  V30 2747 C 269.924 -1.81557 -1.48574 0
M  V30 2748 C 270.94 -0.703102 -1.59162 0
M  V30 2749 O 272.116 -0.99192 -1.75279 0
M  V30 2750 C 269.181 -1.9889 -2.83978 0
M  V30 2751 C 268.242 -3.22801 -2.83016 0
M  V30 2752 C 267.475 -3.39298 -4.11962 0
M  V30 2753 O 267.698 -2.60345 -5.0752 0
M  V30 2754 O 266.632 -4.32604 -4.18494 0
M  V30 2755 H 270.458 -2.75695 -1.27382 0
M  V30 2756 H 268.043 -1.38248 -0.566373 0
M  V30 2757 H 269.925 -2.11931 -3.6423 0
M  V30 2758 H 268.6 -1.07942 -3.05172 0
M  V30 2759 H 267.507 -3.15193 -2.01505 0
M  V30 2760 H 268.84 -4.13632 -2.66775 0
M  V30 2761 N 270.492 0.636531 -1.44174 0
M  V30 2762 C 271.424 1.7618 -1.46606 0
M  V30 2763 C 272.437 1.58768 -0.360091 0
M  V30 2764 O 273.626 1.67181 -0.625518 0
M  V30 2765 C 270.726 3.13833 -1.27915 0
M  V30 2766 C 269.899 3.57753 -2.51658 0
M  V30 2767 C 268.958 4.74265 -2.27945 0
M  V30 2768 O 267.984 4.82852 -3.01401 0
M  V30 2769 N 269.186 5.65604 -1.30662 0
M  V30 2770 H 271.951 1.74567 -2.43612 0
M  V30 2771 H 269.512 0.820924 -1.39544 0
M  V30 2772 H 271.504 3.8949 -1.09907 0
M  V30 2773 H 270.074 3.10121 -0.39293 0
M  V30 2774 H 269.294 2.72362 -2.84978 0
M  V30 2775 H 270.582 3.83847 -3.33974 0
M  V30 2776 H 269.98 5.61354 -0.699844 0
M  V30 2777 H 268.537 6.40913 -1.18634 0
M  V30 2778 N 271.97 1.30982 0.876444 0
M  V30 2779 C 273.198 1.23242 1.6619 0
M  V30 2780 C 273.613 -0.203345 1.87702 0
M  V30 2781 O 272.97 -1.13317 1.43057 0
M  V30 2782 C 273.021 1.96623 3.03351 0
M  V30 2783 O 272.742 3.34594 2.82804 0
M  V30 2784 C 274.243 1.95644 3.97792 0
M  V30 2785 H 271.463 0.426126 0.518322 0
M  V30 2786 H 274.007 1.7275 1.09442 0
M  V30 2787 H 272.162 1.50892 3.56806 0
M  V30 2788 H 272.576 3.71873 3.69879 0
M  V30 2789 H 274.05 2.51511 4.91372 0
M  V30 2790 H 274.527 0.937395 4.2908 0
M  V30 2791 H 275.133 2.41225 3.50272 0
M  V30 2792 N 273.449 -1.08991 1.13837 0
M  V30 2793 C 274.396 -2.15748 0.819835 0
M  V30 2794 C 275.366 -1.64636 -0.220026 0
M  V30 2795 O 276.551 -1.90582 -0.0912757 0
M  V30 2796 C 273.691 -3.4382 0.296913 0
M  V30 2797 C 272.804 -4.0881 1.39636 0
M  V30 2798 C 271.939 -5.24655 0.831314 0
M  V30 2799 C 270.978 -5.81575 1.90886 0
M  V30 2800 N 270.115 -6.88774 1.36142 0
M  V30 2801 H 274.955 -2.42338 1.73426 0
M  V30 2802 H 272.492 -1.18935 0.865613 0
M  V30 2803 H 274.45 -4.17193 -0.0244339 0
M  V30 2804 H 273.08 -3.17535 -0.580628 0
M  V30 2805 H 272.132 -3.33258 1.83422 0
M  V30 2806 H 273.444 -4.47141 2.21058 0
M  V30 2807 H 272.598 -6.04942 0.461515 0
M  V30 2808 H 271.337 -4.87698 -0.013932 0
M  V30 2809 H 270.342 -4.99946 2.28767 0
M  V30 2810 H 271.567 -6.20592 2.75758 0
M  V30 2811 H 269.513 -6.53788 0.538254 0
M  V30 2812 H 269.43 -7.25898 2.11208 0
M  V30 2813 H 270.698 -7.72806 1.01933 0
M  V30 2814 N 274.927 -0.932562 -1.27047 0
M  V30 2815 C 276.173 -0.576412 -1.94436 0
M  V30 2816 C 276.506 0.880891 -1.73072 0
M  V30 2817 O 275.781 1.62905 -1.06264 0
M  V30 2818 C 276.064 -0.909031 -3.48437 0
M  V30 2819 C 275.917 -2.42044 -3.79123 0
M  V30 2820 C 277.236 -0.418341 -4.38107 0
M  V30 2821 H 274.355 -0.210888 -0.706184 0
M  V30 2822 H 276.997 -1.16522 -1.50075 0
M  V30 2823 H 275.147 -0.407947 -3.86352 0
M  V30 2824 H 276.819 -2.99359 -3.50973 0
M  V30 2825 H 275.062 -2.86758 -3.25503 0
M  V30 2826 H 275.733 -2.6037 -4.86736 0
M  V30 2827 H 278.209 -0.847856 -4.0737 0
M  V30 2828 H 277.085 -0.679981 -5.44672 0
M  V30 2829 H 277.346 0.681642 -4.36814 0
M  V30 2830 N 276.405 1.4127 -0.698611 0
M  V30 2831 C 277.654 2.00408 -0.227949 0
M  V30 2832 C 277.967 1.55981 1.18023 0
M  V30 2833 O 279.173 2.07699 1.74852 0
M  V30 2834 C 277.629 3.58129 -0.356636 0
M  V30 2835 C 277.237 4.11536 -1.77037 0
M  V30 2836 C 278.981 4.24466 0.0540969 0
M  V30 2837 C 276.888 5.61701 -1.85055 0
M  V30 2838 H 275.818 0.749586 -0.0814657 0
M  V30 2839 H 278.469 1.61713 -0.867249 0
M  V30 2840 H 276.851 3.94442 0.350965 0
M  V30 2841 H 278.025 3.86636 -2.50698 0
M  V30 2842 H 276.34 3.57736 -2.13105 0
M  V30 2843 H 278.937 5.34698 0.0146723 0
M  V30 2844 H 279.28 4.01687 1.09332 0
M  V30 2845 H 279.813 3.93198 -0.603337 0
M  V30 2846 H 276.552 5.89312 -2.8704 0
M  V30 2847 H 276.072 5.88519 -1.15783 0
M  V30 2848 H 277.751 6.26524 -1.61484 0
M  V30 2849 N 277.883 0.443576 1.51229 0
M  V30 2850 C 278.846 -0.353132 2.26463 0
M  V30 2851 C 279.846 -0.944338 1.3015 0
M  V30 2852 O 281.036 -0.817813 1.5381 0
M  V30 2853 C 278.168 -1.50023 3.06114 0
M  V30 2854 H 279.361 0.3063 2.98332 0
M  V30 2855 H 276.914 0.196902 1.55055 0
M  V30 2856 H 277.649 -2.19553 2.38677 0
M  V30 2857 H 277.434 -1.08241 3.76864 0
M  V30 2858 H 278.924 -2.06296 3.63087 0
M  V30 2859 N 279.361 -1.56624 0.175154 0
M  V30 2860 C 280.638 -1.88688 -0.515373 0
M  V30 2861 C 281.018 -1.08564 -1.81044 0
M  V30 2862 O 280.366 -0.180703 -2.27784 0
M  V30 2863 C 280.576 -3.40768 -0.753552 0
M  V30 2864 C 281.924 -4.10587 -1.08184 0
M  V30 2865 O 282.948 -3.46106 -0.841961 0
M  V30 2866 O 281.807 -5.24512 -1.53459 0
M  V30 2867 H 278.901 -0.78301 -0.26613 0
M  V30 2868 H 281.447 -1.68347 0.213877 0
M  V30 2869 H 280.219 -3.90965 0.161829 0
M  V30 2870 H 279.842 -3.66733 -1.53598 0
M  V30 2871 N 280.839 0.0985539 -1.57292 0
M  V30 2872 C 281.787 1.1387 -2.02821 0
M  V30 2873 C 282.781 1.41676 -0.928666 0
M  V30 2874 O 283.987 1.41398 -1.11385 0
M  V30 2875 H 280.362 0.384419 -0.646317 0
M  V30 2876 H 282.333 0.728347 -2.89375 0
M  V30 2877 C 281.082 2.45166 -2.46554 0
M  V30 2878 H 280.405 2.24613 -3.3074 0
M  V30 2879 H 281.845 3.16456 -2.8219 0
M  V30 2880 C 280.304 3.09216 -1.33742 0
M  V30 2881 O 280.834 3.96163 -0.66464 0
M  V30 2882 N 279.04 2.69413 -1.08928 0
M  V30 2883 H 278.587 1.98801 -1.63817 0
M  V30 2884 H 278.545 3.12594 -0.336458 0
M  V30 2885 N 282.317 1.53212 0.369288 0
M  V30 2886 C 283.563 1.69466 1.11397 0
M  V30 2887 C 283.896 0.443257 1.89074 0
M  V30 2888 O 283.171 -0.559386 1.86282 0
M  V30 2889 C 283.454 2.9422 2.07621 0
M  V30 2890 C 283.307 4.29508 1.33577 0
M  V30 2891 C 284.626 3.14565 3.07794 0
M  V30 2892 H 281.745 0.616667 0.403597 0
M  V30 2893 H 284.387 1.85845 0.395179 0
M  V30 2894 H 282.537 2.80387 2.68916 0
M  V30 2895 H 284.209 4.55147 0.750955 0
M  V30 2896 H 282.452 4.29088 0.637618 0
M  V30 2897 H 283.123 5.12926 2.03989 0
M  V30 2898 H 285.599 3.2756 2.56601 0
M  V30 2899 H 284.475 4.03297 3.72348 0
M  V30 2900 H 284.736 2.29675 3.77759 0
M  V30 2901 N 283.795 -0.628877 1.44509 0
M  V30 2902 C 284.742 -1.74074 1.51549 0
M  V30 2903 C 285.712 -1.62084 0.363021 0
M  V30 2904 O 286.897 -1.81975 0.573567 0
M  V30 2905 C 284.037 -3.12328 1.46784 0
M  V30 2906 C 283.15 -3.35277 2.72422 0
M  V30 2907 C 282.285 -4.63515 2.59475 0
M  V30 2908 C 281.324 -4.7965 3.80266 0
M  V30 2909 N 280.461 -5.99168 3.65981 0
M  V30 2910 H 285.301 -1.67392 2.46544 0
M  V30 2911 H 282.838 -0.816527 1.22357 0
M  V30 2912 H 284.796 -3.92286 1.42012 0
M  V30 2913 H 283.426 -3.18018 0.553544 0
M  V30 2914 H 282.478 -2.49242 2.87372 0
M  V30 2915 H 283.79 -3.43078 3.62076 0
M  V30 2916 H 282.944 -5.51638 2.52548 0
M  V30 2917 H 281.683 -4.58076 1.67384 0
M  V30 2918 H 280.688 -3.89957 3.87574 0
M  V30 2919 H 281.913 -4.86902 4.73395 0
M  V30 2920 H 279.859 -5.94814 2.76644 0
M  V30 2921 H 279.776 -6.08035 4.49254 0
M  V30 2922 H 281.044 -6.89846 3.6295 0
M  V30 2923 N 285.273 -1.31445 -0.869486 0
M  V30 2924 C 286.55 -1.11795 -1.60503 0
M  V30 2925 C 286.93 0.327168 -2.08549 0
M  V30 2926 O 286.278 1.32135 -1.8642 0
M  V30 2927 C 286.488 -2.13258 -2.76265 0
M  V30 2928 C 287.836 -2.45805 -3.46215 0
M  V30 2929 O 288.86 -2.11688 -2.86473 0
M  V30 2930 O 287.719 -3.04228 -4.5399 0
M  V30 2931 H 284.813 -0.430421 -0.706163 0
M  V30 2932 H 287.359 -1.42925 -0.914907 0
M  V30 2933 H 286.131 -3.10461 -2.3818 0
M  V30 2934 H 285.754 -1.83035 -3.52964 0
M  V30 2935 N 286.751 1.08385 -1.14413 0
M  V30 2936 C 287.997 1.81212 -0.923793 0
M  V30 2937 C 288.352 1.84555 0.543814 0
M  V30 2938 O 287.645 1.31056 1.39767 0
M  V30 2939 C 287.839 3.26273 -1.45879 0
M  V30 2940 C 287.668 3.37063 -2.97689 0
M  V30 2941 C 286.438 3.4824 -3.66138 0
M  V30 2942 C 288.636 3.28698 -3.95553 0
M  V30 2943 N 286.618 3.47824 -5.05858 0
M  V30 2944 C 287.989 3.35276 -5.21527 0
M  V30 2945 C 290.044 3.12437 -3.8767 0
M  V30 2946 C 288.747 3.27267 -6.40538 0
M  V30 2947 C 290.773 3.05757 -5.06228 0
M  V30 2948 C 290.135 3.12938 -6.3107 0
M  V30 2949 H 286.234 0.6769 -0.391574 0
M  V30 2950 H 288.818 1.29455 -1.45429 0
M  V30 2951 H 286.989 3.76474 -0.95507 0
M  V30 2952 H 288.721 3.87165 -1.17835 0
M  V30 2953 H 285.476 3.52141 -3.16692 0
M  V30 2954 H 285.9 3.51171 -5.78798 0
M  V30 2955 H 290.542 3.05747 -2.92025 0
M  V30 2956 H 288.26 3.32718 -7.36427 0
M  V30 2957 H 291.846 2.94295 -5.01878 0
M  V30 2958 H 290.726 3.078 -7.21269 0
M  V30 2959 N 288.23 0.939286 1.26551 0
M  V30 2960 C 289.455 0.602008 1.98471 0
M  V30 2961 C 289.88 -0.815624 1.69497 0
M  V30 2962 O 289.238 -1.54912 0.941905 0
M  V30 2963 C 289.286 0.848407 3.50477 0
M  V30 2964 O 288.39 -0.0804009 4.12322 0
M  V30 2965 H 287.731 0.23049 0.622712 0
M  V30 2966 H 290.261 1.2617 1.61066 0
M  V30 2967 H 290.271 0.768553 4.00696 0
M  V30 2968 H 288.946 1.88171 3.70897 0
M  V30 2969 H 287.523 0.0503508 3.72866 0
M  V30 2970 N 289.708 -1.40897 0.706093 0
M  V30 2971 C 290.655 -2.30751 0.0474474 0
M  V30 2972 C 291.625 -1.47678 -0.76029 0
M  V30 2973 O 292.81 -1.76441 -0.726177 0
M  V30 2974 C 289.95 -3.33815 -0.875309 0
M  V30 2975 C 289.063 -4.31961 -0.0580623 0
M  V30 2976 C 288.198 -5.22093 -0.979425 0
M  V30 2977 C 287.237 -6.11902 -0.155706 0
M  V30 2978 N 286.374 -6.94482 -1.03144 0
M  V30 2979 H 291.214 -2.86513 0.819413 0
M  V30 2980 H 288.751 -1.41102 0.415783 0
M  V30 2981 H 290.709 -3.92129 -1.42446 0
M  V30 2982 H 289.339 -2.79579 -1.61356 0
M  V30 2983 H 288.391 -3.75507 0.608147 0
M  V30 2984 H 289.703 -4.95415 0.580082 0
M  V30 2985 H 288.857 -5.85292 -1.59744 0
M  V30 2986 H 287.596 -4.5889 -1.65141 0
M  V30 2987 H 286.601 -5.47742 0.475309 0
M  V30 2988 H 287.826 -6.77162 0.512635 0
M  V30 2989 H 285.772 -6.33877 -1.68924 0
M  V30 2990 H 285.689 -7.54665 -0.449108 0
M  V30 2991 H 286.957 -7.6214 -1.63593 0
M  V30 2992 N 291.186 -0.45159 -1.50991 0
M  V30 2993 C 292.432 0.110237 -2.025 0
M  V30 2994 C 292.765 1.41109 -1.33424 0
M  V30 2995 O 292.04 1.89135 -0.453659 0
M  V30 2996 C 292.323 0.314271 -3.58726 0
M  V30 2997 C 292.176 -1.00623 -4.38401 0
M  V30 2998 C 293.495 1.07767 -4.26702 0
M  V30 2999 H 290.614 0.0385897 -0.735989 0
M  V30 3000 H 293.256 -0.593374 -1.80497 0
M  V30 3001 H 291.406 0.913601 -3.77605 0
M  V30 3002 H 293.078 -1.64064 -4.31139 0
M  V30 3003 H 291.321 -1.6075 -4.02917 0
M  V30 3004 H 291.992 -0.817341 -5.45915 0
M  V30 3005 H 294.468 0.56986 -4.12179 0
M  V30 3006 H 293.344 1.18921 -5.35863 0
M  V30 3007 H 293.605 2.10939 -3.88532 0
M  V30 3008 N 292.664 1.56529 -0.183458 0
M  V30 3009 C 293.91 1.97537 0.459036 0
M  V30 3010 C 294.243 1.06989 1.62071 0
M  V30 3011 O 293.518 0.11948 1.94133 0
M  V30 3012 C 293.801 3.47874 0.930368 0
M  V30 3013 C 293.654 4.492 -0.232317 0
M  V30 3014 C 294.973 4.01612 1.79989 0
M  V30 3015 H 292.092 0.718204 0.165383 0
M  V30 3016 H 294.734 1.88042 -0.272038 0
M  V30 3017 H 292.884 3.56095 1.55333 0
M  V30 3018 H 294.556 4.53027 -0.86972 0
M  V30 3019 H 292.799 4.24657 -0.885928 0
M  V30 3020 H 293.47 5.51823 0.139796 0
M  V30 3021 H 295.946 3.96097 1.27461 0
M  V30 3022 H 294.822 5.07195 2.09867 0
M  V30 3023 H 295.083 3.46163 2.74998 0
M  V30 3024 N 294.142 -0.090211 1.57342 0
M  V30 3025 C 295.072 -1.10976 2.05443 0
M  V30 3026 C 296.053 -1.41482 0.944284 0
M  V30 3027 O 297.238 -1.51428 1.21586 0
M  V30 3028 C 294.368 -2.42831 2.48295 0
M  V30 3029 C 293.322 -2.26721 3.63018 0
M  V30 3030 C 292.648 -3.63796 3.91863 0
M  V30 3031 C 293.948 -1.7037 4.93732 0
M  V30 3032 H 295.642 -0.709564 2.9087 0
M  V30 3033 H 293.188 -0.339874 1.39932 0
M  V30 3034 H 295.141 -3.14431 2.80555 0
M  V30 3035 H 293.865 -2.84795 1.59873 0
M  V30 3036 H 292.524 -1.57565 3.31012 0
M  V30 3037 H 292.172 -4.03297 3.00601 0
M  V30 3038 H 291.872 -3.53861 4.69101 0
M  V30 3039 H 293.396 -4.36855 4.26603 0
M  V30 3040 H 294.81 -2.31816 5.24342 0
M  V30 3041 H 293.207 -1.71181 5.75167 0
M  V30 3042 H 294.277 -0.663542 4.80339 0
M  V30 3043 N 295.62 -1.53406 -0.361157 0
M  V30 3044 C 296.583 -1.79479 -1.42548 0
M  V30 3045 C 297.583 -0.665327 -1.4639 0
M  V30 3046 O 298.773 -0.933549 -1.47073 0
M  V30 3047 C 295.905 -1.92087 -2.8163 0
M  V30 3048 H 297.098 -2.74538 -1.20701 0
M  V30 3049 H 294.651 -1.4455 -0.594546 0
M  V30 3050 H 295.386 -0.991099 -3.08784 0
M  V30 3051 H 295.171 -2.74241 -2.80239 0
M  V30 3052 H 296.661 -2.13836 -3.58697 0
M  V30 3053 N 297.098 0.621204 -1.44841 0
M  V30 3054 C 298.328 1.40548 -1.51426 0
M  V30 3055 C 298.736 1.88673 -0.141083 0
M  V30 3056 O 298.079 1.62053 0.865128 0
M  V30 3057 C 298.141 2.65325 -2.42576 0
M  V30 3058 C 297.805 2.3893 -3.89566 0
M  V30 3059 C 298.802 2.00138 -4.79834 0
M  V30 3060 C 296.487 2.52263 -4.3436 0
M  V30 3061 C 298.481 1.75021 -6.129 0
M  V30 3062 C 296.168 2.2676 -5.67471 0
M  V30 3063 C 297.166 1.88199 -6.56559 0
M  V30 3064 O 296.854 1.62986 -7.87204 0
M  V30 3065 H 296.586 0.437122 -0.515655 0
M  V30 3066 H 299.14 0.765987 -1.90583 0
M  V30 3067 H 297.37 3.31947 -1.98364 0
M  V30 3068 H 299.059 3.27347 -2.39998 0
M  V30 3069 H 299.825 1.89386 -4.46495 0
M  V30 3070 H 295.704 2.81246 -3.65269 0
M  V30 3071 H 299.248 1.44848 -6.82396 0
M  V30 3072 H 295.145 2.37125 -6.00368 0
M  V30 3073 H 295.913 1.7715 -7.991 0
M  V30 3074 N 298.576 1.31904 0.862503 0
M  V30 3075 C 299.486 1.22161 2.00285 0
M  V30 3076 C 300.502 0.136785 1.73462 0
M  V30 3077 O 301.678 0.355994 1.98229 0
M  V30 3078 C 298.743 0.937093 3.33796 0
M  V30 3079 C 297.804 2.10957 3.73893 0
M  V30 3080 C 297.037 1.83853 5.01033 0
M  V30 3081 O 297.26 0.777274 5.65079 0
M  V30 3082 O 296.194 2.69741 5.38074 0
M  V30 3083 H 300.02 2.18008 2.11439 0
M  V30 3084 H 297.605 1.11716 0.991957 0
M  V30 3085 H 299.487 0.794583 4.13841 0
M  V30 3086 H 298.162 0.00871894 3.23699 0
M  V30 3087 H 297.069 2.30752 2.94456 0
M  V30 3088 H 298.402 3.02046 3.88625 0
M  V30 3089 N 300.054 -1.07777 1.14986 0
M  V30 3090 C 301.465 -1.61766 0.932127 0
M  V30 3091 C 301.816 -1.88974 -0.527581 0
M  V30 3092 O 300.941 -1.65198 -1.39781 0
M  V30 3093 C 301.536 -2.93891 1.68563 0
M  V30 3094 C 300.095 -3.44639 1.5133 0
M  V30 3095 C 299.242 -2.18767 1.704 0
M  V30 3096 H 302.193 -0.909201 1.30074 0
M  V30 3097 H 302.214 -3.62623 1.15259 0
M  V30 3098 H 301.726 -2.74057 2.74799 0
M  V30 3099 H 299.827 -3.69564 0.474702 0
M  V30 3100 H 299.94 -4.20966 2.28746 0
M  V30 3101 H 298.304 -2.28253 1.13016 0
M  V30 3102 H 299.087 -2.01433 2.77992 0
M  V30 3103 N 301.532 -0.945985 -1.26051 0
M  V30 3104 C 302.778 -0.597002 -1.93814 0
M  V30 3105 C 303.111 0.862484 -1.73997 0
M  V30 3106 O 302.386 1.61769 -1.07986 0
M  V30 3107 C 302.669 -0.945937 -3.47454 0
M  V30 3108 C 302.522 -2.46052 -3.76535 0
M  V30 3109 C 303.841 -0.464785 -4.37639 0
M  V30 3110 H 300.96 -0.218366 -0.703907 0
M  V30 3111 H 303.602 -1.18107 -1.48831 0
M  V30 3112 H 301.752 -0.448902 -3.85898 0
M  V30 3113 H 303.424 -3.03065 -3.47778 0
M  V30 3114 H 301.667 -2.90194 -3.22444 0
M  V30 3115 H 302.338 -2.65517 -4.83947 0
M  V30 3116 H 304.814 -0.891016 -4.06448 0
M  V30 3117 H 303.69 -0.737712 -5.4392 0
M  V30 3118 H 303.951 0.635274 -4.37512 0
M  V30 3119 N 303.011 1.40521 -0.713556 0
M  V30 3120 C 304.257 2.01714 -0.261382 0
M  V30 3121 C 304.612 1.55562 1.13217 0
M  V30 3122 O 303.905 0.764893 1.7567 0
M  V30 3123 C 304.099 3.56317 -0.278 0
M  V30 3124 C 303.928 4.17476 -1.67163 0
M  V30 3125 C 302.698 4.50998 -2.2788 0
M  V30 3126 C 304.896 4.42472 -2.6215 0
M  V30 3127 N 302.878 4.9754 -3.5962 0
M  V30 3128 C 304.249 4.90985 -3.78594 0
M  V30 3129 C 306.304 4.24508 -2.60188 0
M  V30 3130 C 305.007 5.2342 -4.9338 0
M  V30 3131 C 307.033 4.58043 -3.741 0
M  V30 3132 C 306.395 5.06743 -4.89276 0
M  V30 3133 H 302.494 0.769104 -0.141434 0
M  V30 3134 H 305.078 1.70785 -0.934915 0
M  V30 3135 H 303.249 3.8668 0.36509 0
M  V30 3136 H 304.981 4.0425 0.190695 0
M  V30 3137 H 301.736 4.38062 -1.79997 0
M  V30 3138 H 302.16 5.25196 -4.27198 0
M  V30 3139 H 306.802 3.86078 -1.72348 0
M  V30 3140 H 304.52 5.60765 -5.81866 0
M  V30 3141 H 308.106 4.45785 -3.73854 0
M  V30 3142 H 306.986 5.32204 -5.75959 0
M  V30 3143 N 304.489 0.459591 1.5075 0
M  V30 3144 C 305.452 -0.329093 2.26825 0
M  V30 3145 C 306.452 -0.930481 1.31144 0
M  V30 3146 O 307.642 -0.801453 1.54669 0
M  V30 3147 C 304.774 -1.46768 3.07688 0
M  V30 3148 H 305.967 0.337924 2.9799 0
M  V30 3149 H 303.52 0.213336 1.54837 0
M  V30 3150 H 304.255 -2.17009 2.40993 0
M  V30 3151 H 304.04 -1.04238 3.77991 0
M  V30 3152 H 305.53 -2.02433 3.65254 0
M  V30 3153 N 305.967 -1.56429 0.191757 0
M  V30 3154 C 307.216 -1.9666 -0.448088 0
M  V30 3155 C 307.529 -1.08136 -1.62991 0
M  V30 3156 O 308.735 -1.38135 -2.33733 0
M  V30 3157 C 307.191 -3.49753 -0.848585 0
M  V30 3158 C 306.799 -4.46935 0.308764 0
M  V30 3159 C 308.543 -3.9876 -1.4557 0
M  V30 3160 C 306.45 -5.91293 -0.112506 0
M  V30 3161 H 305.38 -0.734312 -0.171179 0
M  V30 3162 H 308.031 -1.81301 0.283242 0
M  V30 3163 H 306.413 -3.60604 -1.63649 0
M  V30 3164 H 307.587 -4.47813 1.08627 0
M  V30 3165 H 305.902 -4.08102 0.827158 0
M  V30 3166 H 308.499 -5.04086 -1.78328 0
M  V30 3167 H 308.842 -3.42875 -2.36099 0
M  V30 3168 H 309.375 -3.9101 -0.731836 0
M  V30 3169 H 306.114 -6.51097 0.758514 0
M  V30 3170 H 305.634 -5.93676 -0.854941 0
M  V30 3171 H 307.313 -6.44663 -0.549448 0
M  V30 3172 N 307.445 0.0818655 -1.57387 0
M  V30 3173 C 308.693 0.781368 -1.86384 0
M  V30 3174 C 309.014 1.78618 -0.782342 0
M  V30 3175 O 308.284 1.94976 0.190061 0
M  V30 3176 H 306.864 0.291562 -0.687751 0
M  V30 3177 H 309.526 0.060348 -1.94807 0
M  V30 3178 H 308.622 1.3038 -2.83562 0
M  V30 3179 N 308.923 1.53595 0.353017 0
M  V30 3180 C 310.151 1.74311 1.1146 0
M  V30 3181 C 310.566 0.477854 1.82653 0
M  V30 3182 O 309.923 -0.549977 1.74016 0
M  V30 3183 C 309.974 2.91694 2.13534 0
M  V30 3184 O 309.695 4.13325 1.45238 0
M  V30 3185 C 311.196 3.24384 3.02142 0
M  V30 3186 H 308.416 0.582669 0.332773 0
M  V30 3187 H 310.96 2.00386 0.408107 0
M  V30 3188 H 309.115 2.67977 2.79763 0
M  V30 3189 H 309.529 4.79148 2.13349 0
M  V30 3190 H 311.003 4.09893 3.69718 0
M  V30 3191 H 311.48 2.40282 3.67643 0
M  V30 3192 H 312.086 3.50073 2.41514 0
M  V30 3193 N 310.401 -0.613514 1.45168 0
M  V30 3194 C 311.649 -1.36997 1.48581 0
M  V30 3195 C 311.97 -1.94589 0.126545 0
M  V30 3196 O 311.24 -1.76816 -0.843372 0
M  V30 3197 H 309.82 -0.508558 0.547154 0
M  V30 3198 H 312.482 -0.720853 1.81079 0
M  V30 3199 H 311.578 -2.1924 2.22127 0
M  V30 3200 N 311.879 -1.3236 -0.855495 0
M  V30 3201 C 312.826 -1.21225 -1.964 0
M  V30 3202 C 313.796 -0.0946204 -1.6583 0
M  V30 3203 O 314.981 -0.27002 -1.8888 0
M  V30 3204 C 312.121 -0.940419 -3.32039 0
M  V30 3205 C 311.234 -2.14276 -3.75113 0
M  V30 3206 C 310.369 -1.80648 -4.9954 0
M  V30 3207 C 309.408 -2.97208 -5.35102 0
M  V30 3208 N 308.545 -2.63678 -6.50706 0
M  V30 3209 H 313.385 -2.16042 -2.05255 0
M  V30 3210 H 310.922 -1.07451 -1.00463 0
M  V30 3211 H 312.88 -0.763311 -4.10158 0
M  V30 3212 H 311.51 -0.0290413 -3.22787 0
M  V30 3213 H 310.562 -2.43017 -2.92655 0
M  V30 3214 H 311.874 -3.01468 -3.97389 0
M  V30 3215 H 311.028 -1.59484 -5.85363 0
M  V30 3216 H 309.767 -0.906678 -4.79198 0
M  V30 3217 H 308.772 -3.19004 -4.47791 0
M  V30 3218 H 309.997 -3.87918 -5.57401 0
M  V30 3219 H 307.943 -1.76238 -6.31883 0
M  V30 3220 H 307.86 -3.444 -6.72997 0
M  V30 3221 H 309.128 -2.45942 -7.39684 0
M  V30 3222 N 313.357 1.07166 -1.15556 0
M  V30 3223 C 314.585 1.83514 -0.955519 0
M  V30 3224 C 315 1.82163 0.49621 0
M  V30 3225 O 314.357 1.23441 1.34419 0
M  V30 3226 C 314.408 3.30515 -1.46432 0
M  V30 3227 O 314.129 3.31937 -2.85918 0
M  V30 3228 C 315.63 4.23625 -1.30603 0
M  V30 3229 H 312.85 0.578926 -0.339244 0
M  V30 3230 H 315.394 1.35265 -1.53374 0
M  V30 3231 H 313.549 3.76106 -0.928584 0
M  V30 3232 H 313.963 4.23794 -3.09029 0
M  V30 3233 H 315.437 5.24831 -1.71047 0
M  V30 3234 H 315.914 4.38485 -0.250441 0
M  V30 3235 H 316.52 3.83871 -1.83094 0
M  V30 3236 N 314.835 0.952656 1.25548 0
M  V30 3237 C 315.798 0.475794 2.24207 0
M  V30 3238 C 316.798 -0.419428 1.55234 0
M  V30 3239 O 317.988 -0.216994 1.72843 0
M  V30 3240 C 315.12 -0.312814 3.39462 0
M  V30 3241 H 316.313 1.34779 2.67908 0
M  V30 3242 H 313.866 0.735739 1.37901 0
M  V30 3243 H 314.601 -1.20257 3.01179 0
M  V30 3244 H 314.386 0.329404 3.90714 0
M  V30 3245 H 315.876 -0.635986 4.12729 0
M  V30 3246 N 316.313 -1.40141 0.720998 0
M  V30 3247 C 317.541 -2.05096 0.272656 0
M  V30 3248 C 317.956 -1.54334 -1.0875 0
M  V30 3249 O 317.313 -0.702211 -1.6845 0
M  V30 3250 C 317.364 -3.60636 0.249835 0
M  V30 3251 O 317.085 -4.09526 1.55629 0
M  V30 3252 C 318.586 -4.42772 -0.216396 0
M  V30 3253 H 315.806 -0.659897 0.121558 0
M  V30 3254 H 318.35 -1.79449 0.980723 0
M  V30 3255 H 316.505 -3.85232 -0.409237 0
M  V30 3256 H 316.919 -5.03758 1.4604 0
M  V30 3257 H 318.393 -5.51702 -0.181212 0
M  V30 3258 H 318.87 -4.20756 -1.25941 0
M  V30 3259 H 319.476 -4.23294 0.412596 0
M  V30 3260 N 317.792 -0.46758 -1.50504 0
M  V30 3261 C 319.203 -0.0116166 -1.86696 0
M  V30 3262 C 319.554 1.39202 -1.38265 0
M  V30 3263 O 318.679 2.0313 -0.746132 0
M  V30 3264 C 319.274 -0.0143044 -3.38797 0
M  V30 3265 C 317.833 0.386175 -3.74414 0
M  V30 3266 C 316.98 -0.401287 -2.74381 0
M  V30 3267 H 319.931 -0.682022 -1.43297 0
M  V30 3268 H 319.952 0.788641 -3.72237 0
M  V30 3269 H 319.464 -1.03602 -3.74016 0
M  V30 3270 H 317.565 1.41237 -3.44794 0
M  V30 3271 H 317.678 0.0899596 -4.79016 0
M  V30 3272 H 316.042 0.144536 -2.5429 0
M  V30 3273 H 316.825 -1.42244 -3.12444 0
M  V30 3274 N 319.27 1.56325 -0.20005 0
M  V30 3275 C 320.202 2.16555 0.750771 0
M  V30 3276 C 321.215 1.12871 1.1732 0
M  V30 3277 O 322.404 1.39943 1.10807 0
M  V30 3278 C 319.504 2.71684 2.02586 0
M  V30 3279 C 318.677 4.00321 1.76244 0
M  V30 3280 C 317.736 4.40227 2.88248 0
M  V30 3281 O 316.762 5.07552 2.57642 0
M  V30 3282 N 317.964 4.04138 4.16717 0
M  V30 3283 H 320.729 2.98772 0.235685 0
M  V30 3284 H 318.29 1.6189 -0.0182594 0
M  V30 3285 H 320.282 2.95363 2.76664 0
M  V30 3286 H 318.852 1.93893 2.45202 0
M  V30 3287 H 318.072 3.84723 0.85919 0
M  V30 3288 H 319.36 4.84279 1.56048 0
M  V30 3289 H 318.758 3.49993 4.44434 0
M  V30 3290 H 317.315 4.32756 4.87407 0
M  V30 3291 N 320.748 -0.0735177 1.57428 0
M  V30 3292 C 321.68 -1.11423 2.00294 0
M  V30 3293 C 322.693 -1.35084 0.908637 0
M  V30 3294 O 323.882 -1.33355 1.18654 0
M  V30 3295 C 320.982 -2.46548 2.32523 0
M  V30 3296 C 320.155 -2.42867 3.63778 0
M  V30 3297 C 319.214 -3.60087 3.83697 0
M  V30 3298 O 318.24 -3.41595 4.55304 0
M  V30 3299 N 319.442 -4.80372 3.25919 0
M  V30 3300 H 322.207 -0.749206 2.90184 0
M  V30 3301 H 319.768 -0.262195 1.59763 0
M  V30 3302 H 321.76 -3.23607 2.43024 0
M  V30 3303 H 320.33 -2.75059 1.48531 0
M  V30 3304 H 319.55 -1.51206 3.64047 0
M  V30 3305 H 320.838 -2.37506 4.49965 0
M  V30 3306 H 320.236 -4.983 2.67795 0
M  V30 3307 H 318.793 -5.54948 3.41871 0
M  V30 3308 N 322.226 -1.5378 -0.344866 0
M  V30 3309 C 323.189 -1.80981 -1.40637 0
M  V30 3310 C 324.189 -0.680816 -1.45676 0
M  V30 3311 O 325.379 -0.949095 -1.46075 0
M  V30 3312 C 322.511 -1.95063 -2.79577 0
M  V30 3313 H 323.704 -2.75803 -1.17783 0
M  V30 3314 H 321.257 -1.45173 -0.579181 0
M  V30 3315 H 321.992 -1.02379 -3.07716 0
M  V30 3316 H 321.777 -2.77198 -2.77315 0
M  V30 3317 H 323.267 -2.17629 -3.56409 0
M  V30 3318 N 323.704 0.605807 -1.45491 0
M  V30 3319 C 324.636 1.73031 -1.5031 0
M  V30 3320 C 325.649 1.57968 -0.393687 0
M  V30 3321 O 326.838 1.65817 -0.660839 0
M  V30 3322 C 323.938 3.11049 -1.34543 0
M  V30 3323 C 323.111 3.52334 -2.59189 0
M  V30 3324 C 322.17 4.69323 -2.37954 0
M  V30 3325 O 321.196 4.7635 -3.11575 0
M  V30 3326 N 322.398 5.62705 -1.4263 0
M  V30 3327 H 325.163 1.6936 -2.4726 0
M  V30 3328 H 322.724 0.79114 -1.41254 0
M  V30 3329 H 324.716 3.87071 -1.18144 0
M  V30 3330 H 323.286 3.09217 -0.458623 0
M  V30 3331 H 322.506 2.66256 -2.90691 0
M  V30 3332 H 323.794 3.76677 -3.42041 0
M  V30 3333 H 323.192 5.59744 -0.818758 0
M  V30 3334 H 321.749 6.38252 -1.32202 0
M  V30 3335 N 325.182 1.32811 0.848464 0
M  V30 3336 C 326.092 1.24278 1.98978 0
M  V30 3337 C 327.108 0.155176 1.73307 0
M  V30 3338 O 328.284 0.376999 1.9784 0
M  V30 3339 C 325.349 0.972444 3.32783 0
M  V30 3340 C 324.41 2.14911 3.71634 0
M  V30 3341 C 323.643 1.89157 4.99054 0
M  V30 3342 O 323.866 0.837165 5.64223 0
M  V30 3343 O 322.8 2.75433 5.35183 0
M  V30 3344 H 326.626 2.20238 2.09115 0
M  V30 3345 H 324.211 1.12762 0.980052 0
M  V30 3346 H 326.093 0.838432 4.12975 0
M  V30 3347 H 324.768 0.043051 3.23671 0
M  V30 3348 H 323.675 2.33862 2.91992 0
M  V30 3349 H 325.008 3.06151 3.85399 0
M  V30 3350 N 326.66 -1.06551 1.16123 0
M  V30 3351 C 327.906 -1.79567 0.94252 0
M  V30 3352 C 328.239 -1.86869 -0.528547 0
M  V30 3353 O 327.514 -1.35838 -1.39206 0
M  V30 3354 C 327.797 -3.24195 1.56747 0
M  V30 3355 C 327.65 -3.24989 3.10969 0
M  V30 3356 C 328.969 -4.21678 1.25998 0
M  V30 3357 H 326.088 -0.651883 0.343828 0
M  V30 3358 H 328.73 -1.2463 1.43413 0
M  V30 3359 H 326.88 -3.71107 1.14942 0
M  V30 3360 H 328.552 -2.86258 3.61737 0
M  V30 3361 H 326.795 -2.63716 3.44436 0
M  V30 3362 H 327.466 -4.27005 3.49815 0
M  V30 3363 H 329.942 -3.83196 1.62174 0
M  V30 3364 H 328.818 -5.21146 1.7233 0
M  V30 3365 H 329.079 -4.4174 0.178367 0
M  V30 3366 N 328.138 -0.959301 -1.25041 0
M  V30 3367 C 329.088 -0.453888 -2.23436 0
M  V30 3368 C 330.072 0.459461 -1.542 0
M  V30 3369 O 331.264 0.291752 -1.74579 0
M  V30 3370 C 328.393 0.262667 -3.42294 0
M  V30 3371 C 327.479 -0.669022 -4.1879 0
M  V30 3372 N 327.87 -1.80267 -4.72586 0
M  V30 3373 C 326.168 -0.47814 -4.4343 0
M  V30 3374 C 326.869 -2.38475 -5.3057 0
M  V30 3375 N 325.845 -1.67078 -5.17287 0
M  V30 3376 H 329.647 -1.319 -2.6264 0
M  V30 3377 H 327.161 -0.817358 -1.40332 0
M  V30 3378 H 329.158 0.641911 -4.11929 0
M  V30 3379 H 327.818 1.12432 -3.04613 0
M  V30 3380 H 328.829 -2.18442 -4.69578 0
M  V30 3381 H 325.506 0.340249 -4.16111 0
M  V30 3382 H 326.896 -3.34094 -5.8295 0
M  V30 3383 N 329.616 1.39756 -0.72842 0
M  V30 3384 C 330.526 2.34444 -0.0855374 0
M  V30 3385 C 331.542 1.57976 0.729356 0
M  V30 3386 O 332.718 1.90301 0.659346 0
M  V30 3387 C 329.783 3.36965 0.815798 0
M  V30 3388 C 328.844 4.29299 -0.0105996 0
M  V30 3389 C 328.077 5.26923 0.84781 0
M  V30 3390 O 328.3 5.30859 2.08673 0
M  V30 3391 O 327.234 6.01249 0.279969 0
M  V30 3392 H 331.06 2.91065 -0.866892 0
M  V30 3393 H 328.645 1.4117 -0.48902 0
M  V30 3394 H 330.527 3.99804 1.33171 0
M  V30 3395 H 329.202 2.82739 1.57608 0
M  V30 3396 H 328.109 3.69703 -0.571877 0
M  V30 3397 H 329.442 4.86712 -0.73295 0
M  V30 3398 N 331.094 0.475555 1.50254 0
M  V30 3399 C 332.041 -0.316293 2.28622 0
M  V30 3400 C 333.011 -0.983227 1.33873 0
M  V30 3401 O 334.196 -0.994805 1.62814 0
M  V30 3402 C 331.336 -1.38975 3.1588 0
M  V30 3403 C 330.449 -0.737146 4.25664 0
M  V30 3404 C 329.584 -1.78887 5.00173 0
M  V30 3405 C 328.623 -1.11676 6.01826 0
M  V30 3406 N 327.76 -2.11154 6.69596 0
M  V30 3407 H 332.6 0.358297 2.95838 0
M  V30 3408 H 330.137 0.188541 1.45887 0
M  V30 3409 H 332.095 -2.02383 3.64825 0
M  V30 3410 H 330.725 -2.03344 2.50701 0
M  V30 3411 H 329.777 0.0096065 3.80399 0
M  V30 3412 H 331.089 -0.206816 4.98371 0
M  V30 3413 H 330.243 -2.49865 5.52859 0
M  V30 3414 H 328.982 -2.35302 4.27182 0
M  V30 3415 H 327.987 -0.392633 5.48396 0
M  V30 3416 H 329.212 -0.55945 6.76792 0
M  V30 3417 H 327.158 -2.66577 5.99394 0
M  V30 3418 H 327.075 -1.63118 7.38193 0
M  V30 3419 H 328.343 -2.81497 7.26897 0
M  V30 3420 N 332.573 -1.56217 0.208337 0
M  V30 3421 C 333.503 -2.22694 -0.702116 0
M  V30 3422 C 334.484 -1.19432 -1.2112 0
M  V30 3423 O 335.669 -1.47978 -1.25762 0
M  V30 3424 C 332.799 -2.8966 -1.9161 0
M  V30 3425 C 331.753 -3.9928 -1.5414 0
M  V30 3426 C 331.079 -4.53476 -2.83308 0
M  V30 3427 C 332.379 -5.17012 -0.741339 0
M  V30 3428 H 334.073 -2.99034 -0.147898 0
M  V30 3429 H 331.619 -1.43831 -0.0696951 0
M  V30 3430 H 333.572 -3.34852 -2.55836 0
M  V30 3431 H 332.296 -2.10746 -2.49507 0
M  V30 3432 H 330.955 -3.54799 -0.922668 0
M  V30 3433 H 330.603 -3.71308 -3.39322 0
M  V30 3434 H 330.303 -5.27451 -2.58976 0
M  V30 3435 H 331.827 -5.01378 -3.485 0
M  V30 3436 H 333.241 -5.58667 -1.28699 0
M  V30 3437 H 331.638 -5.97137 -0.595627 0
M  V30 3438 H 332.708 -4.8423 0.254851 0
M  V30 3439 N 334.051 0.0651679 -1.57465 0
M  V30 3440 C 335.467 0.420105 -1.53972 0
M  V30 3441 C 335.667 1.78782 -0.929474 0
M  V30 3442 O 334.723 2.46771 -0.534839 0
M  V30 3443 C 336.036 0.355084 -2.98596 0
M  V30 3444 C 337.584 0.434792 -3.09965 0
M  V30 3445 C 338.059 0.399609 -4.56253 0
M  V30 3446 N 339.55 0.459488 -4.60915 0
M  V30 3447 C 340.285 0.454584 -5.71595 0
M  V30 3448 N 339.781 0.404102 -6.9162 0
M  V30 3449 N 341.574 0.501635 -5.59857 0
M  V30 3450 H 333.725 -0.830328 -1.95498 0
M  V30 3451 H 335.988 -0.312244 -0.895102 0
M  V30 3452 H 335.694 -0.583357 -3.46828 0
M  V30 3453 H 335.568 1.16275 -3.58831 0
M  V30 3454 H 337.955 1.36366 -2.61703 0
M  V30 3455 H 338.036 -0.40157 -2.52628 0
M  V30 3456 H 337.68 -0.525436 -5.05175 0
M  V30 3457 H 337.61 1.25359 -5.11461 0
M  V30 3458 H 340.101 0.502482 -3.74544 0
M  V30 3459 H 340.414 0.404468 -7.71741 0
M  V30 3460 H 338.759 0.37069 -6.94011 0
M  V30 3461 H 341.95 0.538812 -4.64989 0
M  V30 3462 H 342.123 0.494345 -6.46112 0
M  V30 3463 N 335.529 1.53961 0.336706 0
M  V30 3464 C 336.777 1.71197 1.07405 0
M  V30 3465 C 337.098 0.481475 1.88962 0
M  V30 3466 O 336.368 -0.504585 1.8929 0
M  V30 3467 H 334.948 0.631185 0.399517 0
M  V30 3468 H 337.61 1.91232 0.376323 0
M  V30 3469 H 336.706 2.58587 1.74755 0
M  V30 3470 N 337.007 -0.598083 1.45811 0
M  V30 3471 C 338.253 -1.35679 1.51535 0
M  V30 3472 C 338.608 -1.91745 0.15864 0
M  V30 3473 O 337.901 -1.72654 -0.830724 0
M  V30 3474 C 338.095 -2.51669 2.53766 0
M  V30 3475 C 337.924 -2.06963 3.99245 0
M  V30 3476 C 336.694 -1.92693 4.67116 0
M  V30 3477 C 338.892 -1.63855 4.875 0
M  V30 3478 N 336.874 -1.41897 5.97276 0
M  V30 3479 C 338.245 -1.24541 6.07363 0
M  V30 3480 C 340.3 -1.51533 4.74281 0
M  V30 3481 C 339.003 -0.741354 7.15469 0
M  V30 3482 C 341.029 -1.0253 5.82444 0
M  V30 3483 C 340.391 -0.641869 7.01469 0
M  V30 3484 H 336.49 -0.490042 0.609412 0
M  V30 3485 H 339.074 -0.682687 1.82339 0
M  V30 3486 H 337.245 -3.16663 2.24898 0
M  V30 3487 H 338.977 -3.18578 2.4958 0
M  V30 3488 H 335.732 -2.1417 4.22408 0
M  V30 3489 H 336.156 -1.18704 6.66512 0
M  V30 3490 H 340.798 -1.798 3.82664 0
M  V30 3491 H 338.516 -0.446243 8.06867 0
M  V30 3492 H 342.102 -0.934088 5.74253 0
M  V30 3493 H 340.982 -0.268531 7.8374 0
M  V30 3494 N 338.485 -1.33259 -0.841409 0
M  V30 3495 C 339.415 -1.25926 -1.96634 0
M  V30 3496 C 340.396 -0.140349 -1.6952 0
M  V30 3497 O 341.581 -0.329707 -1.91381 0
M  V30 3498 C 338.711 -0.99512 -3.32738 0
M  V30 3499 C 337.665 -2.0767 -3.74242 0
M  V30 3500 C 336.991 -1.66474 -5.08125 0
M  V30 3501 C 338.291 -3.49318 -3.88297 0
M  V30 3502 H 339.985 -2.20046 -2.03027 0
M  V30 3503 H 337.531 -1.05931 -0.975425 0
M  V30 3504 H 339.484 -0.930323 -4.11002 0
M  V30 3505 H 338.208 -0.0183004 -3.26595 0
M  V30 3506 H 336.867 -2.13187 -2.98239 0
M  V30 3507 H 336.515 -0.675012 -4.9845 0
M  V30 3508 H 336.215 -2.3885 -5.36865 0
M  V30 3509 H 337.739 -1.61455 -5.88867 0
M  V30 3510 H 339.153 -3.46316 -4.56879 0
M  V30 3511 H 337.55 -4.20158 -4.28471 0
M  V30 3512 H 338.62 -3.8801 -2.9082 0
M  V30 3513 N 339.963 1.05934 -1.16686 0
M  V30 3514 C 340.91 2.13499 -0.876748 0
M  V30 3515 C 341.88 1.65162 0.176299 0
M  V30 3516 O 343.065 1.90757 0.0407143 0
M  V30 3517 C 340.205 3.42912 -0.387967 0
M  V30 3518 C 339.318 4.04964 -1.50426 0
M  V30 3519 C 338.453 5.22266 -0.970125 0
M  V30 3520 C 337.492 5.76309 -2.06238 0
M  V30 3521 N 336.629 6.84922 -1.54356 0
M  V30 3522 H 341.469 2.37654 -1.7979 0
M  V30 3523 H 339.006 1.16598 -0.896843 0
M  V30 3524 H 340.964 4.17111 -0.086186 0
M  V30 3525 H 339.594 3.18963 0.496235 0
M  V30 3526 H 338.646 3.28277 -1.92193 0
M  V30 3527 H 339.958 4.41122 -2.32836 0
M  V30 3528 H 339.112 6.03506 -0.621743 0
M  V30 3529 H 337.851 4.87564 -0.115377 0
M  V30 3530 H 336.856 4.93704 -2.41942 0
M  V30 3531 H 338.081 6.13062 -2.92115 0
M  V30 3532 H 336.027 6.52131 -0.711406 0
M  V30 3533 H 335.944 7.20043 -2.30379 0
M  V30 3534 H 337.212 7.69832 -1.22387 0
M  V30 3535 N 341.441 0.965919 1.2453 0
M  V30 3536 C 342.666 0.643971 1.97149 0
M  V30 3537 C 343.091 -0.779487 1.71189 0
M  V30 3538 O 342.449 -1.5288 0.974553 0
M  V30 3539 C 342.497 0.922557 3.48599 0
M  V30 3540 O 341.601 0.00707672 4.12399 0
M  V30 3541 H 340.942 0.243647 0.617683 0
M  V30 3542 H 343.472 1.29558 1.58353 0
M  V30 3543 H 343.482 0.853373 3.98976 0
M  V30 3544 H 342.157 1.95996 3.66822 0
M  V30 3545 H 340.734 0.12943 3.72675 0
M  V30 3546 N 342.919 -1.39368 0.735821 0
M  V30 3547 C 343.867 -2.32443 0.0855131 0
M  V30 3548 C 344.861 -1.53104 -0.724954 0
M  V30 3549 O 346.067 -1.68762 -0.626047 0
M  V30 3550 H 342.442 -0.751948 0.00885257 0
M  V30 3551 H 344.413 -2.84916 0.886883 0
M  V30 3552 C 343.162 -3.38206 -0.806983 0
M  V30 3553 H 342.485 -3.99335 -0.19274 0
M  V30 3554 H 343.925 -4.05779 -1.2296 0
M  V30 3555 C 342.384 -2.75321 -1.94165 0
M  V30 3556 O 342.914 -2.63231 -3.03435 0
M  V30 3557 N 341.12 -2.33396 -1.73132 0
M  V30 3558 H 340.667 -2.4343 -0.842596 0
M  V30 3559 H 340.625 -1.91661 -2.49225 0
M  V30 3560 N 344.397 -0.483516 -1.5 0
M  V30 3561 C 345.643 0.0672592 -2.02688 0
M  V30 3562 C 345.976 1.38247 -1.36387 0
M  V30 3563 O 345.251 1.88131 -0.493675 0
M  V30 3564 C 345.534 0.238109 -3.59312 0
M  V30 3565 C 345.387 -1.099 -4.36168 0
M  V30 3566 C 346.706 0.986916 -4.28892 0
M  V30 3567 H 343.825 0.0229696 -0.736642 0
M  V30 3568 H 346.467 -0.631527 -1.79197 0
M  V30 3569 H 344.617 0.8333 -3.79458 0
M  V30 3570 H 346.289 -1.73172 -4.27562 0
M  V30 3571 H 344.532 -1.69261 -3.99416 0
M  V30 3572 H 345.203 -0.932954 -5.44059 0
M  V30 3573 H 347.679 0.482302 -4.13295 0
M  V30 3574 H 346.555 1.07527 -5.38265 0
M  V30 3575 H 346.816 2.0265 -3.92919 0
M  V30 3576 N 345.875 1.56104 -0.216619 0
M  V30 3577 C 347.1 2.0301 0.424462 0
M  V30 3578 C 347.525 1.0955 1.52907 0
M  V30 3579 O 346.883 0.0827914 1.81111 0
M  V30 3580 C 346.931 3.4819 0.937883 0
M  V30 3581 O 346.035 3.57865 2.04955 0
M  V30 3582 H 345.376 0.656925 0.0966755 0
M  V30 3583 H 347.906 2.01859 -0.33381 0
M  V30 3584 H 347.916 3.88413 1.24897 0
M  V30 3585 H 346.591 4.15699 0.129387 0
M  V30 3586 H 345.168 3.29527 1.74546 0
M  V30 3587 N 347.353 -0.0568162 1.57498 0
M  V30 3588 C 348.63 -0.786954 1.79071 0
M  V30 3589 C 349.01 -1.95028 0.80792 0
M  V30 3590 O 348.358 -2.27968 -0.155858 0
M  V30 3591 C 348.568 -1.24594 3.26002 0
M  V30 3592 C 349.916 -1.67323 3.90241 0
M  V30 3593 O 350.94 -1.34124 3.29984 0
M  V30 3594 O 349.799 -2.28842 4.9628 0
M  V30 3595 H 346.893 -0.378262 0.735423 0
M  V30 3596 H 349.439 -0.035734 1.69662 0
M  V30 3597 H 348.211 -0.41423 3.89101 0
M  V30 3598 H 347.834 -2.05803 3.40192 0
M  V30 3599 N 348.832 -1.54138 -0.328536 0
M  V30 3600 C 349.795 -1.82462 -1.38709 0
M  V30 3601 C 350.795 -0.696229 -1.44946 0
M  V30 3602 O 351.985 -0.964535 -1.4506 0
M  V30 3603 C 349.117 -1.98018 -2.77492 0
M  V30 3604 H 350.31 -2.77037 -1.14851 0
M  V30 3605 H 347.863 -1.45779 -0.563751 0
M  V30 3606 H 348.598 -1.05637 -3.06613 0
M  V30 3607 H 348.383 -2.80124 -2.74359 0
M  V30 3608 H 349.873 -2.21396 -3.54081 0
M  V30 3609 N 350.31 0.590341 -1.46126 0
M  V30 3610 C 351.556 1.35082 -1.51264 0
M  V30 3611 C 351.889 1.93534 -0.160711 0
M  V30 3612 O 351.164 1.76045 0.826956 0
M  V30 3613 C 351.447 2.48588 -2.6053 0
M  V30 3614 C 351.3 1.95221 -4.05227 0
M  V30 3615 C 352.619 3.50662 -2.6594 0
M  V30 3616 H 349.738 0.489803 -0.550692 0
M  V30 3617 H 352.38 0.663887 -1.78024 0
M  V30 3618 H 350.53 3.07186 -2.37843 0
M  V30 3619 H 352.202 1.41139 -4.39178 0
M  V30 3620 H 350.445 1.26101 -4.15068 0
M  V30 3621 H 351.116 2.77121 -4.77397 0
M  V30 3622 H 353.592 3.01934 -2.86313 0
M  V30 3623 H 352.468 4.27551 -3.44226 0
M  V30 3624 H 352.729 4.07399 -1.71694 0
M  V30 3625 N 351.788 1.33704 0.83433 0
M  V30 3626 C 352.751 1.24244 1.92603 0
M  V30 3627 C 353.751 0.160383 1.59998 0
M  V30 3628 O 354.941 0.412228 1.69252 0
M  V30 3629 C 352.073 0.91555 3.28376 0
M  V30 3630 H 353.266 2.21287 2.02416 0
M  V30 3631 H 350.819 1.17827 1.02696 0
M  V30 3632 H 351.554 -0.0521886 3.24258 0
M  V30 3633 H 351.339 1.69811 3.53422 0
M  V30 3634 H 352.829 0.874231 4.08347 0
M  V30 3635 N 353.266 -1.05314 1.17247 0
M  V30 3636 C 354.198 -2.13023 0.845812 0
M  V30 3637 C 355.211 -1.62096 -0.151246 0
M  V30 3638 O 356.4 -1.78343 0.0748818 0
M  V30 3639 C 353.5 -3.38047 0.240292 0
M  V30 3640 C 352.673 -4.18255 1.27991 0
M  V30 3641 C 351.732 -5.21625 0.692375 0
M  V30 3642 O 350.758 -5.52619 1.36385 0
M  V30 3643 N 351.96 -5.78201 -0.516178 0
M  V30 3644 H 354.725 -2.41642 1.77283 0
M  V30 3645 H 352.286 -1.21401 1.07115 0
M  V30 3646 H 354.278 -4.04359 -0.16603 0
M  V30 3647 H 352.848 -3.06972 -0.590487 0
M  V30 3648 H 352.068 -3.47451 1.86203 0
M  V30 3649 H 353.356 -4.68643 1.98119 0
M  V30 3650 H 352.754 -5.55301 -1.07969 0
M  V30 3651 H 351.311 -6.4604 -0.86458 0
M  V30 3652 N 354.744 -0.972509 -1.24016 0
M  V30 3653 C 355.969 -0.654417 -1.96805 0
M  V30 3654 C 356.394 0.770398 -1.716 0
M  V30 3655 O 355.752 1.52361 -0.982647 0
M  V30 3656 C 355.8 -0.941031 -3.48105 0
M  V30 3657 O 354.904 -0.0289472 -4.1239 0
M  V30 3658 H 354.245 -0.24692 -0.616382 0
M  V30 3659 H 356.775 -1.30396 -1.57664 0
M  V30 3660 H 356.785 -0.87452 -3.98517 0
M  V30 3661 H 355.46 -1.97939 -3.65777 0
M  V30 3662 H 354.037 -0.149192 -3.72601 0
M  V30 3663 N 356.222 1.38976 -0.743202 0
M  V30 3664 C 357.45 2.04636 -0.30525 0
M  V30 3665 C 357.865 1.56044 1.06281 0
M  V30 3666 O 357.222 0.728921 1.67311 0
M  V30 3667 C 357.273 3.60193 -0.307177 0
M  V30 3668 O 356.994 4.06998 -1.62124 0
M  V30 3669 C 358.495 4.4306 0.145928 0
M  V30 3670 H 355.715 0.65788 -0.132041 0
M  V30 3671 H 358.259 1.77866 -1.00915 0
M  V30 3672 H 356.414 3.85835 0.347898 0
M  V30 3673 H 356.828 5.01371 -1.54036 0
M  V30 3674 H 358.302 5.51921 0.0934183 0
M  V30 3675 H 358.779 4.22706 1.19231 0
M  V30 3676 H 359.385 4.22584 -0.479886 0
M  V30 3677 N 357.7 0.491464 1.49741 0
M  V30 3678 C 359.116 0.146835 1.58923 0
M  V30 3679 C 359.316 -1.34804 1.49767 0
M  V30 3680 O 358.372 -2.12317 1.36667 0
M  V30 3681 C 359.685 0.715157 2.92072 0
M  V30 3682 C 361.233 0.680407 3.05515 0
M  V30 3683 C 361.708 1.22663 4.41269 0
M  V30 3684 N 363.199 1.18691 4.47735 0
M  V30 3685 C 363.934 1.57984 5.51207 0
M  V30 3686 N 363.43 2.04824 6.6183 0
M  V30 3687 N 365.223 1.49459 5.41866 0
M  V30 3688 H 357.374 1.46347 1.53936 0
M  V30 3689 H 359.637 0.606453 0.728642 0
M  V30 3690 H 359.343 1.76317 3.04311 0
M  V30 3691 H 359.217 0.17018 3.76816 0
M  V30 3692 H 361.604 -0.358743 2.92911 0
M  V30 3693 H 361.685 1.26242 2.22478 0
M  V30 3694 H 361.329 2.26451 4.54623 0
M  V30 3695 H 361.259 0.620637 5.2293 0
M  V30 3696 H 363.75 0.843605 3.68364 0
M  V30 3697 H 364.063 2.32901 7.3687 0
M  V30 3698 H 362.408 2.08791 6.62896 0
M  V30 3699 H 365.599 1.12692 4.54333 0
M  V30 3700 H 365.772 1.80406 6.22381 0
M  V30 3701 N 359.178 -1.55987 0.224894 0
M  V30 3702 C 360.427 -1.97566 -0.406273 0
M  V30 3703 C 360.74 -1.11569 -1.6066 0
M  V30 3704 O 361.946 -1.43062 -2.3075 0
M  V30 3705 C 360.402 -3.51474 -0.774207 0
M  V30 3706 C 360.01 -4.46179 0.403496 0
M  V30 3707 C 361.754 -4.01758 -1.37079 0
M  V30 3708 C 359.661 -5.91399 0.0129412 0
M  V30 3709 H 358.591 -0.737777 -0.155565 0
M  V30 3710 H 361.242 -1.80659 0.321635 0
M  V30 3711 H 359.624 -3.63994 -1.55963 0
M  V30 3712 H 360.798 -4.45409 1.18101 0
M  V30 3713 H 359.113 -4.06255 0.913536 0
M  V30 3714 H 361.71 -5.07756 -1.67596 0
M  V30 3715 H 362.053 -3.47805 -2.28773 0
M  V30 3716 H 362.586 -3.92475 -0.648733 0
M  V30 3717 H 359.325 -6.49341 0.896451 0
M  V30 3718 H 358.845 -5.95356 -0.728821 0
M  V30 3719 H 360.524 -6.45683 -0.412582 0
M  V30 3720 N 360.656 0.0484629 -1.57525 0
M  V30 3721 C 361.905 0.742065 -1.87553 0
M  V30 3722 C 362.218 1.77545 -0.820802 0
M  V30 3723 O 363.424 2.52027 -1.00967 0
M  V30 3724 C 361.88 1.37081 -3.32771 0
M  V30 3725 C 361.488 0.374786 -4.4643 0
M  V30 3726 C 363.232 2.04542 -3.71972 0
M  V30 3727 C 361.139 1.01077 -5.82698 0
M  V30 3728 H 360.069 0.280903 -0.699721 0
M  V30 3729 H 362.72 -0.00411877 -1.835 0
M  V30 3730 H 361.102 2.16605 -3.31509 0
M  V30 3731 H 362.276 -0.392331 -4.59127 0
M  V30 3732 H 360.591 -0.196653 -4.15935 0
M  V30 3733 H 363.188 2.52943 -4.71088 0
M  V30 3734 H 363.531 2.85515 -3.02964 0
M  V30 3735 H 364.064 1.31819 -3.75325 0
M  V30 3736 H 360.803 0.240878 -6.55057 0
M  V30 3737 H 360.323 1.74819 -5.73758 0
M  V30 3738 H 362.002 1.52383 -6.28799 0
M  V30 3739 N 362.134 1.5431 0.320358 0
M  V30 3740 C 363.364 1.7638 1.07582 0
M  V30 3741 C 363.772 0.513944 1.82086 0
M  V30 3742 O 363.115 -0.525123 1.76035 0
M  V30 3743 C 363.177 2.9055 2.1171 0
M  V30 3744 C 362.841 4.2934 1.56575 0
M  V30 3745 C 363.838 5.10077 1.00586 0
M  V30 3746 C 361.523 4.75893 1.60722 0
M  V30 3747 C 363.517 6.35477 0.494756 0
M  V30 3748 C 361.204 6.0126 1.09224 0
M  V30 3749 C 362.202 6.80886 0.53696 0
M  V30 3750 O 361.89 8.03894 0.0297371 0
M  V30 3751 H 361.622 0.592369 0.325692 0
M  V30 3752 H 364.176 2.02019 0.37116 0
M  V30 3753 H 362.406 2.60489 2.85801 0
M  V30 3754 H 364.095 3.00373 2.73003 0
M  V30 3755 H 364.861 4.75265 0.966869 0
M  V30 3756 H 360.74 4.13957 2.02882 0
M  V30 3757 H 364.284 6.97574 0.0606842 0
M  V30 3758 H 360.181 6.35562 1.12831 0
M  V30 3759 H 360.949 8.18372 0.14486 0
M  V30 3760 N 363.613 -0.582584 1.46437 0
M  V30 3761 C 364.861 -1.33814 1.51453 0
M  V30 3762 C 365.182 -1.94277 0.167792 0
M  V30 3763 O 364.452 -1.78566 -0.805677 0
M  V30 3764 H 363.032 -0.496838 0.557818 0
M  V30 3765 H 365.694 -0.682281 1.82568 0
M  V30 3766 H 364.79 -2.14479 2.26728 0
M  V30 3767 N 365.091 -1.34144 -0.827227 0
M  V30 3768 C 366.339 -1.26009 -1.58007 0
M  V30 3769 C 366.66 0.170971 -1.94249 0
M  V30 3770 O 365.93 1.10256 -1.61927 0
M  V30 3771 H 364.51 -0.463414 -0.585881 0
M  V30 3772 H 367.172 -1.68005 -0.987951 0
M  V30 3773 H 366.268 -1.86187 -2.50481 0
M  V30 3774 N 366.569 1.04691 -1.17803 0
M  V30 3775 C 367.794 1.81984 -0.994813 0
M  V30 3776 C 368.219 1.82586 0.452112 0
M  V30 3777 O 367.577 1.23854 1.324 0
M  V30 3778 C 367.625 3.2575 -1.54659 0
M  V30 3779 O 366.729 4.05267 -0.763728 0
M  V30 3780 H 366.07 0.562483 -0.352857 0
M  V30 3781 H 368.6 1.3189 -1.56417 0
M  V30 3782 H 368.61 3.76541 -1.57102 0
M  V30 3783 H 367.285 3.24627 -2.59981 0
M  V30 3784 H 365.862 3.63972 -0.811108 0
M  V30 3785 N 368.047 0.979072 1.23499 0
M  V30 3786 C 369.293 0.648178 1.92163 0
M  V30 3787 C 369.626 -0.816049 1.76222 0
M  V30 3788 O 368.901 -1.58849 1.12237 0
M  V30 3789 C 369.184 1.03773 3.44824 0
M  V30 3790 C 369.037 2.55948 3.69879 0
M  V30 3791 C 370.356 0.580653 4.36253 0
M  V30 3792 H 367.475 0.236952 0.69787 0
M  V30 3793 H 370.117 1.22012 1.45647 0
M  V30 3794 H 368.267 0.551058 3.84572 0
M  V30 3795 H 369.939 3.12179 3.3962 0
M  V30 3796 H 368.182 2.98641 3.14636 0
M  V30 3797 H 368.853 2.78255 4.76737 0
M  V30 3798 H 371.329 0.998465 4.03943 0
M  V30 3799 H 370.205 0.881663 5.41773 0
M  V30 3800 H 370.466 -0.519052 4.39042 0
M  V30 3801 N 369.525 -1.3858 0.750561 0
M  V30 3802 C 370.753 -2.04471 0.316098 0
M  V30 3803 C 371.168 -1.56606 -1.05452 0
M  V30 3804 O 370.525 -0.737784 -1.66922 0
M  V30 3805 C 370.576 -3.60025 0.326275 0
M  V30 3806 O 370.297 -4.06133 1.6428 0
M  V30 3807 C 371.798 -4.43131 -0.122429 0
M  V30 3808 H 369.018 -0.65717 0.135528 0
M  V30 3809 H 371.562 -1.77329 1.01857 0
M  V30 3810 H 369.717 -3.86014 -0.327431 0
M  V30 3811 H 370.131 -5.00547 1.56693 0
M  V30 3812 H 371.605 -5.51963 -0.0641473 0
M  V30 3813 H 372.082 -4.23333 -1.16988 0
M  V30 3814 H 372.688 -4.22323 0.50229 0
M  V30 3815 N 371.003 -0.499398 -1.49478 0
M  V30 3816 C 372.251 0.0455996 -2.02049 0
M  V30 3817 C 372.572 1.37633 -1.38138 0
M  V30 3818 O 371.842 1.8842 -0.536166 0
M  V30 3819 H 370.422 0.0198416 -0.746736 0
M  V30 3820 H 373.084 -0.656274 -1.83519 0
M  V30 3821 H 372.18 0.176445 -3.11601 0
M  V30 3822 N 372.481 1.55866 -0.233164 0
M  V30 3823 C 373.444 2.1953 0.658715 0
M  V30 3824 C 374.444 1.16053 1.11303 0
M  V30 3825 O 375.634 1.41218 1.01996 0
M  V30 3826 C 372.766 2.82791 1.90373 0
M  V30 3827 H 373.959 2.99721 0.10347 0
M  V30 3828 H 371.512 1.56291 0.0164245 0
M  V30 3829 H 372.247 2.06501 2.50056 0
M  V30 3830 H 372.032 3.58578 1.58632 0
M  V30 3831 H 373.522 3.31556 2.53891 0
M  V30 3832 N 373.959 -0.0401083 1.57549 0
M  V30 3833 C 375.187 -0.745196 1.93014 0
M  V30 3834 C 375.602 -1.6948 0.831984 0
M  V30 3835 O 374.959 -1.81482 -0.192463 0
M  V30 3836 C 375.01 -1.51176 3.28372 0
M  V30 3837 O 374.731 -0.600284 4.33968 0
M  V30 3838 C 376.232 -2.315 3.78051 0
M  V30 3839 H 373.452 -0.210088 0.637263 0
M  V30 3840 H 375.996 -0.000924689 2.045 0
M  V30 3841 H 374.151 -2.20801 3.18317 0
M  V30 3842 H 374.565 -1.13669 5.12035 0
M  V30 3843 H 376.039 -2.80697 4.75303 0
M  V30 3844 H 376.516 -3.12436 3.08675 0
M  V30 3845 H 377.122 -1.66971 3.91153 0
M  V30 3846 N 375.437 -1.54477 -0.31217 0
M  V30 3847 C 376.677 -1.74958 -1.05684 0
M  V30 3848 C 377.041 -0.518414 -1.84869 0
M  V30 3849 O 378.242 -0.600759 -2.62001 0
M  V30 3850 C 376.513 -2.99656 -1.94785 0
M  V30 3851 S 378.072 -3.4109 -2.76049 0
M  V30 3852 H 374.89 -0.615104 -0.356606 0
M  V30 3853 H 377.492 -1.92669 -0.331514 0
M  V30 3854 H 376.196 -3.87397 -1.35468 0
M  V30 3855 H 375.727 -2.845 -2.71704 0
M  V30 3856 H 377.742 -2.97283 -3.97287 0
M  V30 3857 N 376.915 0.57481 -1.46744 0
M  V30 3858 C 377.862 1.68329 -1.57905 0
M  V30 3859 C 378.832 1.60625 -0.422927 0
M  V30 3860 O 380.017 1.79721 -0.640711 0
M  V30 3861 C 377.157 3.06665 -1.58274 0
M  V30 3862 C 376.27 3.24935 -2.84678 0
M  V30 3863 C 375.405 4.53566 -2.76499 0
M  V30 3864 C 374.444 4.65207 -3.97806 0
M  V30 3865 N 373.581 5.85172 -3.87967 0
M  V30 3866 H 378.421 1.58127 -2.52587 0
M  V30 3867 H 375.958 0.770552 -1.25303 0
M  V30 3868 H 377.916 3.86745 -1.56473 0
M  V30 3869 H 376.546 3.15745 -0.671194 0
M  V30 3870 H 375.598 2.38405 -2.96424 0
M  V30 3871 H 376.91 3.29403 -3.7456 0
M  V30 3872 H 376.064 5.41885 -2.72848 0
M  V30 3873 H 374.803 4.51548 -1.8427 0
M  V30 3874 H 373.808 3.75304 -4.0178 0
M  V30 3875 H 375.033 4.68997 -4.9114 0
M  V30 3876 H 372.979 5.84137 -2.98529 0
M  V30 3877 H 372.896 5.90943 -4.71511 0
M  V30 3878 H 374.164 6.759 -3.88303 0
M  V30 3879 N 378.394 1.34581 0.820102 0
M  V30 3880 C 379.304 1.28471 1.96297 0
M  V30 3881 C 380.32 0.191902 1.72939 0
M  V30 3882 O 381.496 0.418879 1.96996 0
M  V30 3883 C 378.561 1.04281 3.30645 0
M  V30 3884 C 377.622 2.22745 3.66992 0
M  V30 3885 C 376.855 1.997 4.9493 0
M  V30 3886 O 377.078 0.956656 5.6232 0
M  V30 3887 O 376.012 2.86723 5.2922 0
M  V30 3888 H 379.838 2.24624 2.04396 0
M  V30 3889 H 377.423 1.14816 0.955913 0
M  V30 3890 H 379.305 0.925841 4.11104 0
M  V30 3891 H 377.98 0.111697 3.23507 0
M  V30 3892 H 376.887 2.40003 2.86966 0
M  V30 3893 H 378.22 3.14257 3.78819 0
M  V30 3894 N 379.872 -1.04064 1.18357 0
M  V30 3895 C 380.802 -2.14001 0.934113 0
M  V30 3896 C 381.783 -1.69616 -0.128186 0
M  V30 3897 O 382.968 -1.94185 0.0244093 0
M  V30 3898 C 380.098 -3.44253 0.459066 0
M  V30 3899 C 379.052 -4.02261 1.46185 0
M  V30 3900 C 378.378 -5.27992 0.844322 0
M  V30 3901 C 379.678 -4.38432 2.83856 0
M  V30 3902 H 381.372 -2.35127 1.85352 0
M  V30 3903 H 378.918 -1.12998 0.892604 0
M  V30 3904 H 380.871 -4.20522 0.271907 0
M  V30 3905 H 379.595 -3.22813 -0.495912 0
M  V30 3906 H 378.254 -3.28074 1.63595 0
M  V30 3907 H 377.902 -5.02862 -0.117845 0
M  V30 3908 H 377.602 -5.67765 1.51384 0
M  V30 3909 H 379.126 -6.06938 0.667693 0
M  V30 3910 H 380.54 -5.05688 2.70098 0
M  V30 3911 H 378.937 -4.89254 3.47491 0
M  V30 3912 H 380.007 -3.4826 3.37406 0
M  V30 3913 N 381.35 -0.985608 -1.22978 0
M  V30 3914 C 382.313 -0.535071 -2.22867 0
M  V30 3915 C 383.313 0.378123 -1.56291 0
M  V30 3916 O 384.503 0.171092 -1.73358 0
M  V30 3917 C 381.635 0.222702 -3.40172 0
M  V30 3918 H 382.828 -1.41835 -2.6424 0
M  V30 3919 H 380.381 -0.772042 -1.35901 0
M  V30 3920 H 381.116 1.12229 -3.04262 0
M  V30 3921 H 380.901 -0.43288 -3.89703 0
M  V30 3922 H 382.391 0.526335 -4.1427 0
M  V30 3923 N 382.828 1.3818 -0.7579 0
M  V30 3924 C 384.053 2.04827 -0.325679 0
M  V30 3925 C 384.478 1.56788 1.03919 0
M  V30 3926 O 383.836 0.721811 1.66312 0
M  V30 3927 C 383.884 3.58774 -0.362447 0
M  V30 3928 O 382.988 4.07372 0.642033 0
M  V30 3929 H 382.329 0.64833 -0.143402 0
M  V30 3930 H 384.859 1.7677 -1.03023 0
M  V30 3931 H 384.869 4.07434 -0.214844 0
M  V30 3932 H 383.544 3.93096 -1.35824 0
M  V30 3933 H 382.121 3.70068 0.458688 0
M  V30 3934 N 384.306 0.507319 1.49211 0
M  V30 3935 C 385.238 -0.304532 2.27168 0
M  V30 3936 C 386.251 -0.924956 1.33972 0
M  V30 3937 O 387.44 -0.807227 1.59205 0
M  V30 3938 C 384.54 -1.44431 3.06583 0
M  V30 3939 C 383.713 -0.930026 4.27398 0
M  V30 3940 C 382.772 -1.94817 4.88807 0
M  V30 3941 O 381.798 -1.51418 5.4869 0
M  V30 3942 N 383 -3.279 4.79022 0
M  V30 3943 H 385.765 0.36395 2.97482 0
M  V30 3944 H 383.326 0.340249 1.58284 0
M  V30 3945 H 385.318 -2.12311 3.44537 0
M  V30 3946 H 383.888 -2.01684 2.38835 0
M  V30 3947 H 383.108 -0.0759244 3.94127 0
M  V30 3948 H 384.396 -0.564932 5.05654 0
M  V30 3949 H 383.794 -3.65843 4.3148 0
M  V30 3950 H 382.351 -3.91476 5.21142 0
M  V30 3951 N 385.784 -1.5574 0.241426 0
M  V30 3952 C 387.195 -1.84842 -0.262755 0
M  V30 3953 C 387.546 -1.16317 -1.58003 0
M  V30 3954 O 386.671 -0.439653 -2.11887 0
M  V30 3955 C 387.266 -3.35332 -0.483523 0
M  V30 3956 C 385.825 -3.6468 -0.931977 0
M  V30 3957 C 384.972 -2.77299 -0.0061151 0
M  V30 3958 H 387.923 -1.51761 0.464129 0
M  V30 3959 H 387.944 -3.56615 -1.32688 0
M  V30 3960 H 387.456 -3.85178 0.47537 0
M  V30 3961 H 385.557 -3.20307 -1.90353 0
M  V30 3962 H 385.67 -4.72498 -0.792628 0
M  V30 3963 H 384.034 -2.49408 -0.516503 0
M  V30 3964 H 384.817 -3.2995 0.948052 0
M  V30 3965 N 387.262 0.0317525 -1.57568 0
M  V30 3966 C 388.539 0.758366 -1.803 0
M  V30 3967 C 388.919 1.93718 -0.838845 0
M  V30 3968 O 388.267 2.28187 0.119571 0
M  V30 3969 C 388.477 1.19392 -3.27943 0
M  V30 3970 C 389.825 1.61094 -3.92854 0
M  V30 3971 O 390.849 1.28857 -3.32076 0
M  V30 3972 O 389.708 2.20918 -4.99858 0
M  V30 3973 H 386.802 0.366514 -0.741348 0
M  V30 3974 H 389.348 0.00873765 -1.69698 0
M  V30 3975 H 388.12 0.352275 -3.89711 0
M  V30 3976 H 387.743 2.00365 -3.43424 0
M  V30 3977 N 388.74 1.54641 0.303973 0
M  V30 3978 C 389.986 1.74038 1.04109 0
M  V30 3979 C 390.319 0.523051 1.87024 0
M  V30 3980 O 389.594 -0.479874 1.88487 0
M  V30 3981 C 389.877 3.02761 1.94955 0
M  V30 3982 C 389.73 4.34787 1.1524 0
M  V30 3983 C 391.049 3.27336 2.94175 0
M  V30 3984 H 388.168 0.63323 0.377079 0
M  V30 3985 H 390.81 1.87354 0.316001 0
M  V30 3986 H 388.96 2.9154 2.56782 0
M  V30 3987 H 390.632 4.57922 0.557236 0
M  V30 3988 H 388.875 4.31407 0.455053 0
M  V30 3989 H 389.546 5.21116 1.8205 0
M  V30 3990 H 392.022 3.38148 2.42477 0
M  V30 3991 H 390.898 4.18726 3.54908 0
M  V30 3992 H 391.159 2.45491 3.67677 0
M  V30 3993 N 390.218 -0.567019 1.47046 0
M  V30 3994 C 391.495 -1.3276 1.43646 0
M  V30 3995 C 391.875 -2.1071 0.128186 0
M  V30 3996 O 391.223 -2.10441 -0.890326 0
M  V30 3997 C 391.433 -2.2404 2.67595 0
M  V30 3998 C 392.781 -2.85372 3.14401 0
M  V30 3999 O 393.805 -2.34346 2.68254 0
M  V30 4000 O 392.664 -3.78091 3.946 0
M  V30 4001 H 389.758 -0.597293 0.571988 0
M  V30 4002 H 392.304 -0.586735 1.59234 0
M  V30 4003 H 391.076 -1.65975 3.54356 0
M  V30 4004 H 390.699 -3.05439 2.54544 0
M  V30 4005 N 391.696 -1.35014 -0.812953 0
M  V30 4006 C 392.944 -1.27678 -1.56661 0
M  V30 4007 C 393.265 0.150359 -1.94419 0
M  V30 4008 O 392.535 1.08532 -1.63088 0
M  V30 4009 H 391.115 -0.469602 -0.580933 0
M  V30 4010 H 393.777 -1.69043 -0.970076 0
M  V30 4011 H 392.873 -1.88833 -2.48492 0
M  V30 4012 N 393.175 1.03435 -1.18907 0
M  V30 4013 C 394.422 1.76743 -0.988334 0
M  V30 4014 C 394.75 1.88447 0.481441 0
M  V30 4015 O 394.005 1.39383 1.37371 0
M  V30 4016 C 394.304 3.19792 -1.59586 0
M  V30 4017 C 393.97 3.28108 -3.09283 0
M  V30 4018 C 392.632 3.30084 -3.5014 0
M  V30 4019 C 394.984 3.27696 -4.05296 0
M  V30 4020 C 392.312 3.29299 -4.85571 0
M  V30 4021 C 394.664 3.28451 -5.4065 0
M  V30 4022 C 393.328 3.28723 -5.80946 0
M  V30 4023 H 392.598 0.64675 -0.361657 0
M  V30 4024 H 395.245 1.21442 -1.48068 0
M  V30 4025 H 393.55 3.78136 -1.02568 0
M  V30 4026 H 395.247 3.75171 -1.41589 0
M  V30 4027 H 391.837 3.27294 -2.76725 0
M  V30 4028 H 396.021 3.25354 -3.74778 0
M  V30 4029 H 391.277 3.2783 -5.16079 0
M  V30 4030 H 395.451 3.27082 -6.14809 0
M  V30 4031 H 393.078 3.27868 -6.85862 0
M  V30 4032 N 394.653 0.992116 1.22453 0
M  V30 4033 C 395.583 0.561677 2.26644 0
M  V30 4034 C 396.564 -0.411055 1.65059 0
M  V30 4035 O 397.749 -0.301861 1.9184 0
M  V30 4036 C 394.879 -0.125247 3.47074 0
M  V30 4037 C 393.833 0.765948 4.21091 0
M  V30 4038 C 393.159 -0.0538484 5.34673 0
M  V30 4039 C 394.459 2.06242 4.79856 0
M  V30 4040 H 396.153 1.43259 2.62902 0
M  V30 4041 H 393.699 0.690283 1.26377 0
M  V30 4042 H 395.652 -0.437764 4.1912 0
M  V30 4043 H 394.376 -1.03069 3.0991 0
M  V30 4044 H 393.035 1.0621 3.50878 0
M  V30 4045 H 392.683 -0.960188 4.9375 0
M  V30 4046 H 392.383 0.539415 5.85119 0
M  V30 4047 H 393.907 -0.360477 6.09535 0
M  V30 4048 H 395.321 1.8139 5.43848 0
M  V30 4049 H 393.718 2.60444 5.40638 0
M  V30 4050 H 394.788 2.74167 3.99951 0
M  V30 4051 N 396.131 -1.37776 0.765217 0
M  V30 4052 C 397.377 -2.00145 0.327072 0
M  V30 4053 C 397.71 -1.60607 -1.09175 0
M  V30 4054 O 396.985 -0.849127 -1.74986 0
M  V30 4055 C 397.268 -3.57109 0.46319 0
M  V30 4056 C 397.121 -4.06576 1.92395 0
M  V30 4057 C 398.44 -4.39888 -0.136473 0
M  V30 4058 H 395.559 -0.727113 0.120316 0
M  V30 4059 H 398.201 -1.63549 0.967039 0
M  V30 4060 H 396.351 -3.88414 -0.0816358 0
M  V30 4061 H 398.023 -3.85864 2.52798 0
M  V30 4062 H 396.266 -3.59011 2.43503 0
M  V30 4063 H 396.937 -5.15639 1.97028 0
M  V30 4064 H 399.413 -4.14803 0.328317 0
M  V30 4065 H 398.289 -5.48899 -0.0110582 0
M  V30 4066 H 398.55 -4.24758 -1.22608 0
M  V30 4067 N 397.609 -0.515225 -1.4894 0
M  V30 4068 C 398.857 0.0241671 -2.02086 0
M  V30 4069 C 399.178 1.3616 -1.3959 0
M  V30 4070 O 398.448 1.87841 -0.556121 0
M  V30 4071 H 397.028 0.0119203 -0.746905 0
M  V30 4072 H 399.69 -0.675702 -1.82812 0
M  V30 4073 H 398.786 0.143385 -3.1177 0
M  V30 4074 N 399.087 1.5561 -0.249682 0
M  V30 4075 C 400.335 1.98618 0.373548 0
M  V30 4076 C 400.656 1.13919 1.58264 0
M  V30 4077 O 399.926 0.222637 1.94631 0
M  V30 4078 H 398.506 0.733571 0.141006 0
M  V30 4079 H 401.168 1.91748 -0.349117 0
M  V30 4080 H 400.264 3.04584 0.680796 0
M  V30 4081 N 400.565 -0.0233959 1.57583 0
M  V30 4082 C 401.528 -1.00693 2.05897 0
M  V30 4083 C 402.528 -1.28693 0.964092 0
M  V30 4084 O 403.718 -1.23602 1.22753 0
M  V30 4085 C 400.85 -2.33825 2.4807 0
M  V30 4086 H 402.043 -0.589476 2.9405 0
M  V30 4087 H 399.596 -0.270354 1.53944 0
M  V30 4088 H 400.331 -2.80307 1.6309 0
M  V30 4089 H 400.116 -2.1483 3.2801 0
M  V30 4090 H 401.606 -3.04426 2.85857 0
M  V30 4091 N 402.043 -1.548 -0.295768 0
M  V30 4092 C 403.268 -1.78653 -1.05346 0
M  V30 4093 C 403.693 -0.546894 -1.79974 0
M  V30 4094 O 403.051 0.502763 -1.7419 0
M  V30 4095 C 403.099 -2.99679 -2.00561 0
M  V30 4096 O 402.203 -2.7317 -3.08953 0
M  V30 4097 H 401.544 -0.59116 -0.302367 0
M  V30 4098 H 404.074 -2.01895 -0.331598 0
M  V30 4099 H 404.084 -3.27793 -2.42932 0
M  V30 4100 H 402.759 -3.89562 -1.4565 0
M  V30 4101 H 401.336 -2.56089 -2.71059 0
M  V30 4102 N 403.521 0.559213 -1.47345 0
M  V30 4103 C 404.451 1.67622 -1.62558 0
M  V30 4104 C 405.432 1.63331 -0.475087 0
M  V30 4105 O 406.617 1.80983 -0.704182 0
M  V30 4106 C 403.747 3.0626 -1.63774 0
M  V30 4107 C 402.701 3.25397 -2.7803 0
M  V30 4108 C 402.027 4.64801 -2.64318 0
M  V30 4109 C 403.327 3.10965 -4.19641 0
M  V30 4110 H 405.021 1.55146 -2.56067 0
M  V30 4111 H 402.567 0.744961 -1.23233 0
M  V30 4112 H 404.52 3.84247 -1.73008 0
M  V30 4113 H 403.244 3.1969 -0.66825 0
M  V30 4114 H 401.903 2.49817 -2.68304 0
M  V30 4115 H 401.551 4.75028 -1.65401 0
M  V30 4116 H 401.251 4.78555 -3.40968 0
M  V30 4117 H 402.775 5.44926 -2.75478 0
M  V30 4118 H 404.189 3.78772 -4.30354 0
M  V30 4119 H 402.586 3.36229 -4.97062 0
M  V30 4120 H 403.656 2.07736 -4.38148 0
M  V30 4121 N 404.999 1.35443 0.805782 0
M  V30 4122 C 405.946 1.28431 1.91766 0
M  V30 4123 C 406.916 0.156102 1.65365 0
M  V30 4124 O 408.101 0.339936 1.87747 0
M  V30 4125 C 405.241 1.06301 3.2832 0
M  V30 4126 C 404.354 2.2805 3.66902 0
M  V30 4127 C 403.489 1.99064 4.92491 0
M  V30 4128 C 402.528 3.16863 5.23703 0
M  V30 4129 N 401.665 2.87647 6.40471 0
M  V30 4130 H 406.505 2.23511 1.97096 0
M  V30 4131 H 404.042 1.11105 0.964054 0
M  V30 4132 H 406 0.915012 4.07042 0
M  V30 4133 H 404.63 0.148822 3.22457 0
M  V30 4134 H 403.682 2.53711 2.83434 0
M  V30 4135 H 404.994 3.1601 3.85927 0
M  V30 4136 H 404.148 1.81099 5.7904 0
M  V30 4137 H 402.887 1.0839 4.75503 0
M  V30 4138 H 401.892 3.35404 4.35642 0
M  V30 4139 H 403.117 4.08339 5.4262 0
M  V30 4140 H 401.063 1.99568 6.24907 0
M  V30 4141 H 400.98 3.69141 6.59751 0
M  V30 4142 H 402.248 2.73226 7.30047 0
M  V30 4143 N 406.477 -1.02803 1.19454 0
M  V30 4144 C 407.888 -1.57667 0.999899 0
M  V30 4145 C 408.239 -1.91041 -0.446956 0
M  V30 4146 O 407.364 -1.70978 -1.32648 0
M  V30 4147 C 407.959 -2.86477 1.80877 0
M  V30 4148 C 406.518 -3.37911 1.65811 0
M  V30 4149 C 405.665 -2.11343 1.79526 0
M  V30 4150 H 408.616 -0.853214 1.33813 0
M  V30 4151 H 408.637 -3.57408 1.30536 0
M  V30 4152 H 408.149 -2.62155 2.86175 0
M  V30 4153 H 406.25 -3.67218 0.63102 0
M  V30 4154 H 406.363 -4.10885 2.46395 0
M  V30 4155 H 404.727 -2.23254 1.22596 0
M  V30 4156 H 405.51 -1.89461 2.86285 0
M  V30 4157 N 407.956 -0.998596 -1.21925 0
M  V30 4158 C 408.866 -0.562736 -2.27751 0
M  V30 4159 C 409.882 0.391203 -1.69545 0
M  V30 4160 O 411.058 0.256625 -1.99758 0
M  V30 4161 C 408.123 0.11012 -3.46525 0
M  V30 4162 C 407.184 -0.887495 -4.20026 0
M  V30 4163 C 406.417 -0.246654 -5.3313 0
M  V30 4164 O 406.64 0.958088 -5.62296 0
M  V30 4165 O 405.574 -0.954374 -5.94286 0
M  V30 4166 H 409.4 -1.44329 -2.67213 0
M  V30 4167 H 406.985 -0.767135 -1.28201 0
M  V30 4168 H 408.867 0.486756 -4.18579 0
M  V30 4169 H 407.542 0.965154 -3.08976 0
M  V30 4170 H 406.449 -1.31517 -3.5022 0
M  V30 4171 H 407.782 -1.71191 -4.6147 0
M  V30 4172 N 409.434 1.37368 -0.772513 0
M  V30 4173 C 410.681 1.99673 -0.337182 0
M  V30 4174 C 411.009 1.61324 1.0865 0
M  V30 4175 O 410.264 0.851377 1.7621 0
M  V30 4176 C 410.563 3.54817 -0.428876 0
M  V30 4177 C 410.229 4.12936 -1.81092 0
M  V30 4178 C 408.891 4.28523 -2.1891 0
M  V30 4179 C 411.243 4.44801 -2.71664 0
M  V30 4180 C 408.571 4.73277 -3.46735 0
M  V30 4181 C 410.923 4.90981 -3.98899 0
M  V30 4182 C 409.587 5.04773 -4.36761 0
M  V30 4183 H 408.857 0.730656 -0.123384 0
M  V30 4184 H 411.504 1.64124 -0.986686 0
M  V30 4185 H 409.809 3.90618 0.304167 0
M  V30 4186 H 411.506 4.00933 -0.0733334 0
M  V30 4187 H 408.096 4.01233 -1.50699 0
M  V30 4188 H 412.28 4.32344 -2.43706 0
M  V30 4189 H 407.536 4.82142 -3.75964 0
M  V30 4190 H 411.71 5.14603 -4.69208 0
M  V30 4191 H 409.337 5.39211 -5.35868 0
M  V30 4192 N 410.912 0.523116 1.48665 0
M  V30 4193 C 412.158 -0.0134963 2.02796 0
M  V30 4194 C 412.491 -1.34582 1.40004 0
M  V30 4195 O 411.766 -1.86756 0.543381 0
M  V30 4196 C 412.049 -0.14276 3.59817 0
M  V30 4197 C 411.902 1.21425 4.331 0
M  V30 4198 C 413.221 -0.872856 4.31357 0
M  V30 4199 H 410.34 -0.00343074 0.736992 0
M  V30 4200 H 412.982 0.678816 1.7746 0
M  V30 4201 H 411.132 -0.732401 3.81534 0
M  V30 4202 H 412.804 1.84447 4.2282 0
M  V30 4203 H 411.047 1.79791 3.94788 0
M  V30 4204 H 411.718 1.07687 5.41394 0
M  V30 4205 H 414.194 -0.372555 4.14429 0
M  V30 4206 H 413.07 -0.932185 5.40927 0
M  V30 4207 H 413.331 -1.92161 3.98154 0
M  V30 4208 N 412.39 -1.55475 0.257931 0
M  V30 4209 C 413.667 -1.91155 -0.414629 0
M  V30 4210 C 414.047 -1.18008 -1.75035 0
M  V30 4211 O 413.395 -0.301193 -2.26506 0
M  V30 4212 C 413.605 -3.44283 -0.571859 0
M  V30 4213 C 414.953 -4.15744 -0.862678 0
M  V30 4214 O 415.977 -3.50083 -0.657314 0
M  V30 4215 O 414.836 -5.31909 -1.2544 0
M  V30 4216 H 411.93 -0.796016 -0.22425 0
M  V30 4217 H 414.476 -1.66976 0.302814 0
M  V30 4218 H 413.248 -3.89558 0.368844 0
M  V30 4219 H 412.871 -3.7436 -1.33943 0
M  V30 4220 N 413.868 0.0150385 -1.57593 0
M  V30 4221 C 415.117 0.702115 -1.89085 0
M  V30 4222 C 415.43 1.75764 -0.858277 0
M  V30 4223 O 416.636 2.49829 -1.0629 0
M  V30 4224 C 415.092 1.29992 -3.35604 0
M  V30 4225 C 414.7 0.280007 -4.47124 0
M  V30 4226 C 416.444 1.96606 -3.76227 0
M  V30 4227 C 414.351 0.886949 -5.84711 0
M  V30 4228 H 413.281 0.265997 -0.705522 0
M  V30 4229 H 415.932 -0.0430408 -1.8345 0
M  V30 4230 H 414.314 2.09525 -3.36029 0
M  V30 4231 H 415.488 -0.489631 -4.58191 0
M  V30 4232 H 413.803 -0.284835 -4.15425 0
M  V30 4233 H 416.4 2.42893 -4.76347 0
M  V30 4234 H 416.743 2.79024 -3.08952 0
M  V30 4235 H 417.276 1.23828 -3.78036 0
M  V30 4236 H 414.015 0.101876 -6.55421 0
M  V30 4237 H 413.535 1.6261 -5.77337 0
M  V30 4238 H 415.214 1.39011 -6.3189 0
M  V30 4239 N 415.346 1.54954 0.287554 0
M  V30 4240 C 416.595 1.74081 1.01877 0
M  V30 4241 C 416.908 0.541135 1.87966 0
M  V30 4242 O 418.114 0.614491 2.64455 0
M  V30 4243 C 416.57 3.08042 1.86113 0
M  V30 4244 C 416.178 4.35531 1.04961 0
M  V30 4245 C 417.922 3.36523 2.58752 0
M  V30 4246 C 415.829 5.60538 1.88551 0
M  V30 4247 H 414.759 0.64884 0.384087 0
M  V30 4248 H 417.41 1.81426 0.275101 0
M  V30 4249 H 415.792 2.94696 2.64519 0
M  V30 4250 H 416.966 4.59751 0.31074 0
M  V30 4251 H 415.281 4.14085 0.43843 0
M  V30 4252 H 417.878 4.27122 3.21668 0
M  V30 4253 H 418.221 2.56 3.28283 0
M  V30 4254 H 418.754 3.50901 1.87386 0
M  V30 4255 H 415.493 6.43767 1.23466 0
M  V30 4256 H 415.013 5.40483 2.60074 0
M  V30 4257 H 416.692 5.98297 2.46273 0
M  V30 4258 N 416.824 -0.551391 1.4764 0
M  V30 4259 C 417.772 -1.67896 1.60978 0
M  V30 4260 C 418.766 -1.62549 0.476877 0
M  V30 4261 O 419.972 -1.67664 0.654878 0
M  V30 4262 H 416.347 -0.555649 0.506713 0
M  V30 4263 H 418.318 -1.53784 2.55721 0
M  V30 4264 C 417.067 -3.06234 1.64669 0
M  V30 4265 H 416.39 -3.11033 2.51194 0
M  V30 4266 H 417.83 -3.84804 1.7805 0
M  V30 4267 C 416.289 -3.34737 0.381115 0
M  V30 4268 O 416.819 -3.98381 -0.515297 0
M  V30 4269 N 415.025 -2.8944 0.259354 0
M  V30 4270 H 414.572 -2.37827 0.98976 0
M  V30 4271 H 414.53 -3.08882 -0.586464 0
M  V30 4272 N 418.302 -1.35869 -0.798587 0
M  V30 4273 C 419.265 -1.29307 -1.89242 0
M  V30 4274 C 420.265 -0.202747 -1.59517 0
M  V30 4275 O 421.455 -0.456957 -1.681 0
M  V30 4276 C 418.587 -1.00229 -3.25833 0
M  V30 4277 H 419.78 -2.26576 -1.96478 0
M  V30 4278 H 417.333 -1.20509 -0.995358 0
M  V30 4279 H 418.068 -0.033801 -3.24282 0
M  V30 4280 H 417.853 -1.79121 -3.48795 0
M  V30 4281 H 419.343 -0.98219 -4.05885 0
M  V30 4282 N 419.78 1.02168 -1.19998 0
M  V30 4283 C 420.727 2.10601 -0.944228 0
M  V30 4284 C 421.697 1.65639 0.123664 0
M  V30 4285 O 422.882 1.9079 -0.0199941 0
M  V30 4286 C 420.022 3.41504 -0.496865 0
M  V30 4287 C 419.135 3.99973 -1.63234 0
M  V30 4288 C 418.27 5.18915 -1.13579 0
M  V30 4289 C 417.309 5.69456 -2.24468 0
M  V30 4290 N 416.446 6.79665 -1.76068 0
M  V30 4291 H 421.286 2.31814 -1.8726 0
M  V30 4292 H 418.823 1.13686 -0.933483 0
M  V30 4293 H 420.781 4.16626 -0.218843 0
M  V30 4294 H 419.411 3.2038 0.394508 0
M  V30 4295 H 418.463 3.21997 -2.0254 0
M  V30 4296 H 419.775 4.33492 -2.46752 0
M  V30 4297 H 418.929 6.01222 -0.813429 0
M  V30 4298 H 417.668 4.8695 -0.270434 0
M  V30 4299 H 416.673 4.85757 -2.57526 0
M  V30 4300 H 417.898 6.03459 -3.11472 0
M  V30 4301 H 415.844 6.49538 -0.918516 0
M  V30 4302 H 415.761 7.12349 -2.5317 0
M  V30 4303 H 417.029 7.65549 -1.46817 0
M  V30 4304 N 421.258 1.00505 1.21394 0
M  V30 4305 C 422.19 0.52372 2.23136 0
M  V30 4306 C 423.203 -0.387714 1.58116 0
M  V30 4307 O 424.392 -0.187905 1.77508 0
M  V30 4308 C 421.492 -0.258885 3.3791 0
M  V30 4309 C 420.665 0.651634 4.32519 0
M  V30 4310 C 419.724 -0.0813705 5.26137 0
M  V30 4311 O 418.75 0.537295 5.66658 0
M  V30 4312 N 419.952 -1.35992 5.64346 0
M  V30 4313 H 422.717 1.39865 2.65062 0
M  V30 4314 H 420.278 0.881196 1.35818 0
M  V30 4315 H 422.27 -0.758208 3.97534 0
M  V30 4316 H 420.84 -1.035 2.94968 0
M  V30 4317 H 420.06 1.33145 3.71034 0
M  V30 4318 H 421.348 1.27129 4.92662 0
M  V30 4319 H 420.746 -1.88368 5.33417 0
M  V30 4320 H 419.303 -1.8042 6.26332 0
M  V30 4321 O 422.775 -1.32987 0.916334 0
M  V30 4322 H 423.466 -1.86192 0.534057 0
M  V30 END ATOM
M  V30 BEGIN BOND
M  V30 END BOND
M  V30 END CTAB
M  END
$$$$
