drugbank_target|P60355 Manganese catalase (DB03814)
 OpenBabel12092120243D

  0  0  0     0  0            999 V3000
M  V30 BEGIN CTAB
M  V30 COUNTS 4083 4127 0 0 0
M  V30 BEGIN ATOM
M  V30 1 H -0.908 1.98254 -0.117106 0
M  V30 2 N 0 1.576 0 0
M  V30 3 C 0.933 2.03868 1.02534 0
M  V30 4 C 1.911 0.928543 1.3348 0
M  V30 5 O 3.095 1.19667 1.45644 0
M  V30 6 C 0.222 2.43627 2.35294 0
M  V30 7 C -0.732 3.65373 2.2001 0
M  V30 8 S 0.101 5.13292 1.52614 0
M  V30 9 C 1.257 5.56322 2.86805 0
M  V30 10 H 1.49 2.90518 0.631377 0
M  V30 11 H -0.977 1.52953 0.210867 0
M  V30 12 H 0.981 2.67203 3.11629 0
M  V30 13 H -0.358 1.57376 2.7183 0
M  V30 14 H -1.165 3.90944 3.18086 0
M  V30 15 H -1.563 3.418 1.51819 0
M  V30 16 H 0.729 5.58782 3.83104 0
M  V30 17 H 1.672 6.56266 2.65933 0
M  V30 18 H 2.08 4.83886 2.90714 0
M  V30 19 N 1.4781 -0.272755 1.55222 0
M  V30 20 C 2.7251 -1.00433 1.7584 0
M  V30 21 C 3.0531 -1.86275 0.559629 0
M  V30 22 O 2.3081 -1.90269 -0.457857 0
M  V30 23 C 2.6071 -1.91642 3.01675 0
M  V30 24 C 2.2731 -1.21548 4.34208 0
M  V30 25 C 0.9351 -1.02166 4.70229 0
M  V30 26 C 3.2871 -0.716684 5.16249 0
M  V30 27 C 0.6151 -0.316334 5.85847 0
M  V30 28 C 2.9671 -0.0249476 6.32595 0
M  V30 29 C 1.6311 0.180579 6.67256 0
M  V30 30 H 0.9011 -0.367509 0.643443 0
M  V30 31 H 3.5481 -0.276596 1.89492 0
M  V30 32 H 1.8531 -2.71037 2.82924 0
M  V30 33 H 3.5501 -2.48369 3.14824 0
M  V30 34 H 0.1401 -1.37645 4.05896 0
M  V30 35 H 4.3241 -0.854047 4.88896 0
M  V30 36 H -0.4199 -0.146378 6.11225 0
M  V30 37 H 3.7541 0.369311 6.9542 0
M  V30 38 H 1.3811 0.729098 7.56696 0
M  V30 39 N 2.9562 -1.48159 -0.537278 0
M  V30 40 C 3.9032 -1.62138 -1.64256 0
M  V30 41 C 4.8732 -0.463668 -1.59497 0
M  V30 42 O 6.0582 -0.686241 -1.78032 0
M  V30 43 C 3.1982 -1.66028 -3.02537 0
M  V30 44 C 2.3112 -2.92855 -3.17585 0
M  V30 45 C 1.4462 -2.87952 -4.46382 0
M  V30 46 C 0.4852 -4.09516 -4.54932 0
M  V30 47 N -0.3778 -4.02733 -5.75109 0
M  V30 48 H 4.4622 -2.56529 -1.51647 0
M  V30 49 H 1.9992 -1.27224 -0.738414 0
M  V30 50 H 3.9572 -1.66265 -3.82638 0
M  V30 51 H 2.5872 -0.751331 -3.13934 0
M  V30 52 H 1.6392 -3.02395 -2.30784 0
M  V30 53 H 2.9512 -3.82822 -3.19764 0
M  V30 54 H 2.1052 -2.8655 -5.34765 0
M  V30 55 H 0.8442 -1.95702 -4.46712 0
M  V30 56 H -0.1508 -4.11201 -3.64957 0
M  V30 57 H 1.0742 -5.02917 -4.56346 0
M  V30 58 H -0.9798 -3.13299 -5.76351 0
M  V30 59 H -1.0628 -4.86397 -5.78752 0
M  V30 60 H 0.2052 -4.05379 -6.65799 0
M  V30 61 N 4.4343 0.785586 -1.36625 0
M  V30 62 C 5.3843 1.88822 -1.27789 0
M  V30 63 C 6.3683 1.60014 -0.168579 0
M  V30 64 O 7.5603 1.72381 -0.401737 0
M  V30 65 C 4.6893 3.26092 -1.07327 0
M  V30 66 C 3.7753 3.60897 -2.22743 0
M  V30 67 N 4.1663 3.66982 -3.48077 0
M  V30 68 C 2.4643 3.90981 -2.14593 0
M  V30 69 C 3.1653 3.98137 -4.24101 0
M  V30 70 N 2.1413 4.13319 -3.53084 0
M  V30 71 H 5.9433 1.91759 -2.22723 0
M  V30 72 H 3.4573 0.981311 -1.29399 0
M  V30 73 H 5.4543 4.04954 -0.990842 0
M  V30 74 H 4.1143 3.24428 -0.132977 0
M  V30 75 H 5.1253 3.49531 -3.82163 0
M  V30 76 H 1.8023 3.9722 -1.2854 0
M  V30 77 H 3.1923 4.09737 -5.32509 0
M  V30 78 N 5.9124 1.20967 1.01018 0
M  V30 79 C 7.1404 1.04956 1.78303 0
M  V30 80 C 7.5554 -0.400915 1.84494 0
M  V30 81 O 6.9124 -1.27826 1.30257 0
M  V30 82 C 6.9634 1.63403 3.22462 0
M  V30 83 O 6.6844 3.02775 3.16637 0
M  V30 84 C 8.1854 1.52432 4.16268 0
M  V30 85 H 5.4054 0.368858 0.560522 0
M  V30 86 H 7.9494 1.60193 1.27116 0
M  V30 87 H 6.1044 1.1227 3.70775 0
M  V30 88 H 6.5184 3.30626 4.07169 0
M  V30 89 H 7.9924 1.98078 5.15237 0
M  V30 90 H 8.4694 0.477875 4.36592 0
M  V30 91 H 9.0754 2.02787 3.73841 0
M  V30 92 N 7.3905 -1.2043 1.01659 0
M  V30 93 C 8.8065 -1.41852 0.731442 0
M  V30 94 C 9.0065 -1.89358 -0.688898 0
M  V30 95 O 8.0625 -2.06247 -1.45666 0
M  V30 96 C 9.3755 -2.44019 1.75714 0
M  V30 97 C 10.9235 -2.57785 1.77527 0
M  V30 98 C 11.3985 -3.63194 2.79023 0
M  V30 99 N 12.8895 -3.70678 2.77763 0
M  V30 100 C 13.6245 -4.51897 3.52954 0
M  V30 101 N 13.1205 -5.36921 4.37821 0
M  V30 102 N 14.9135 -4.4643 3.41551 0
M  V30 103 H 7.0645 -0.879093 1.93354 0
M  V30 104 H 9.3275 -0.448425 0.835236 0
M  V30 105 H 9.0335 -2.1611 2.77469 0
M  V30 106 H 8.9075 -3.43007 1.56927 0
M  V30 107 H 11.2945 -2.85023 0.764569 0
M  V30 108 H 11.3755 -1.58992 2.00387 0
M  V30 109 H 11.0195 -3.36699 3.80258 0
M  V30 110 H 10.9495 -4.61609 2.53425 0
M  V30 111 H 13.4405 -3.09944 2.16201 0
M  V30 112 H 13.7535 -5.95981 4.91962 0
M  V30 113 H 12.0985 -5.36424 4.41899 0
M  V30 114 H 15.2895 -3.79042 2.74672 0
M  V30 115 H 15.4625 -5.09491 4.00404 0
M  V30 116 N 8.8686 -0.792821 -1.36206 0
M  V30 117 C 9.8156 -0.191653 -2.30003 0
M  V30 118 C 10.7856 0.666453 -1.52143 0
M  V30 119 O 11.9706 0.61442 -1.80636 0
M  V30 120 C 9.1106 0.664848 -3.38635 0
M  V30 121 C 8.2236 -0.212175 -4.31479 0
M  V30 122 C 7.3586 0.651022 -5.27196 0
M  V30 123 C 6.3976 -0.227247 -6.11678 0
M  V30 124 N 5.5346 0.595127 -6.99573 0
M  V30 125 H 10.3746 -0.996978 -2.80828 0
M  V30 126 H 7.9116 -0.503206 -1.38225 0
M  V30 127 H 9.8696 1.17645 -4.00269 0
M  V30 128 H 8.4996 1.43557 -2.89122 0
M  V30 129 H 7.5516 -0.841777 -3.70969 0
M  V30 130 H 8.8636 -0.888751 -4.90818 0
M  V30 131 H 8.0176 1.2283 -5.94136 0
M  V30 132 H 6.7566 1.36121 -4.68319 0
M  V30 133 H 5.7616 -0.816904 -5.43697 0
M  V30 134 H 6.9866 -0.93509 -6.72631 0
M  V30 135 H 4.9326 1.28955 -6.432 0
M  V30 136 H 4.8496 -0.0236952 -7.55996 0
M  V30 137 H 6.1176 1.15613 -7.70879 0
M  V30 138 N 10.3467 1.47872 -0.545128 0
M  V30 139 C 11.2767 2.32661 0.197793 0
M  V30 140 C 12.2577 1.43041 0.920504 0
M  V30 141 O 13.4427 1.71912 0.90333 0
M  V30 142 C 10.5727 3.24569 1.23582 0
M  V30 143 C 9.5267 4.23333 0.630323 0
M  V30 144 C 8.8527 5.0448 1.77211 0
M  V30 145 C 10.1527 5.20704 -0.407974 0
M  V30 146 H 11.8467 2.95024 -0.510045 0
M  V30 147 H 9.3927 1.4187 -0.246731 0
M  V30 148 H 11.3457 3.8272 1.76362 0
M  V30 149 H 10.0697 2.60236 1.97344 0
M  V30 150 H 8.7287 3.6639 0.123922 0
M  V30 151 H 8.3767 4.36561 2.49847 0
M  V30 152 H 8.0767 5.71339 1.37281 0
M  V30 153 H 9.6007 5.65487 2.3034 0
M  V30 154 H 11.0147 5.7329 0.033305 0
M  V30 155 H 9.4117 5.95699 -0.725486 0
M  V30 156 H 10.4817 4.66917 -1.30828 0
M  V30 157 N 11.8248 0.280983 1.55075 0
M  V30 158 C 12.7568 -0.637268 2.20163 0
M  V30 159 C 13.7698 -1.11298 1.18813 0
M  V30 160 O 14.9588 -1.03388 1.4551 0
M  V30 161 C 12.0588 -1.88199 2.81841 0
M  V30 162 C 11.2318 -1.55211 4.08936 0
M  V30 163 C 10.2908 -2.64991 4.54606 0
M  V30 164 O 9.3168 -2.30929 5.2025 0
M  V30 165 N 10.5188 -3.95161 4.25238 0
M  V30 166 H 13.2838 -0.0801694 2.99593 0
M  V30 167 H 10.8448 0.102329 1.61576 0
M  V30 168 H 12.8368 -2.60948 3.09335 0
M  V30 169 H 11.4068 -2.34799 2.06369 0
M  V30 170 H 10.6268 -0.658185 3.88666 0
M  V30 171 H 11.9148 -1.30681 4.91732 0
M  V30 172 H 11.3128 -4.25653 3.72607 0
M  V30 173 H 9.8698 -4.6427 4.5749 0
M  V30 174 N 13.3029 -1.57598 0.00835791 0
M  V30 175 C 14.5329 -1.94931 -0.684496 0
M  V30 176 C 14.9409 -0.882233 -1.67372 0
M  V30 177 O 14.2839 0.146621 -1.83114 0
M  V30 178 C 14.3459 -3.283 -1.4649 0
M  V30 179 C 14.0099 -4.52548 -0.63634 0
M  V30 180 C 15.0069 -5.19839 0.0795586 0
M  V30 181 C 12.6919 -4.98942 -0.579849 0
M  V30 182 C 14.6859 -6.3183 0.840843 0
M  V30 183 C 12.3729 -6.10819 0.185155 0
M  V30 184 C 13.3709 -6.77121 0.894227 0
M  V30 185 O 13.0589 -7.86853 1.64673 0
M  V30 186 H 12.7909 -0.647249 -0.19505 0
M  V30 187 H 15.3449 -2.05318 0.0581272 0
M  V30 188 H 13.5749 -3.14345 -2.2522 0
M  V30 189 H 15.2639 -3.50685 -2.04389 0
M  V30 190 H 16.0299 -4.84979 0.0451202 0
M  V30 191 H 11.9089 -4.47155 -1.1213 0
M  V30 192 H 15.4529 -6.83513 1.39483 0
M  V30 193 H 11.3499 -6.4512 0.221384 0
M  V30 194 H 12.1179 -8.03412 1.56432 0
M  V30 195 N 14.781 0.264519 -1.55364 0
M  V30 196 C 15.729 1.34702 -1.89626 0
M  V30 197 C 16.723 1.50712 -0.773459 0
M  V30 198 O 17.929 1.52395 -0.957897 0
M  V30 199 H 14.304 0.450682 -0.601988 0
M  V30 200 H 16.275 1.0306 -2.80038 0
M  V30 201 C 15.024 2.6989 -2.19214 0
M  V30 202 H 14.347 2.58365 -3.05103 0
M  V30 203 H 15.787 3.44553 -2.47102 0
M  V30 204 C 14.246 3.21637 -1.00254 0
M  V30 205 O 14.776 4.00973 -0.241501 0
M  V30 206 N 12.982 2.7943 -0.797938 0
M  V30 207 H 12.529 2.15026 -1.4185 0
M  V30 208 H 12.487 3.144 -0.00363422 0
M  V30 209 N 16.2591 1.48442 0.529413 0
M  V30 210 C 17.2221 1.62524 1.61612 0
M  V30 211 C 18.2221 0.498509 1.52877 0
M  V30 212 O 19.4121 0.76431 1.56537 0
M  V30 213 C 16.5441 1.59597 3.01233 0
M  V30 214 H 17.7371 2.59423 1.50465 0
M  V30 215 H 15.2901 1.37047 0.751514 0
M  V30 216 H 16.0251 0.641781 3.17886 0
M  V30 217 H 15.8101 2.41397 3.08982 0
M  V30 218 H 17.3001 1.72646 3.80241 0
M  V30 219 N 17.7372 -0.778329 1.37039 0
M  V30 220 C 18.6842 -1.89139 1.32269 0
M  V30 221 C 19.6542 -1.65017 0.189387 0
M  V30 222 O 20.8392 -1.87024 0.377693 0
M  V30 223 C 17.9792 -3.26112 1.12894 0
M  V30 224 C 17.0922 -3.62233 2.35396 0
M  V30 225 C 16.2272 -4.8838 2.08946 0
M  V30 226 C 15.2662 -5.17212 3.2735 0
M  V30 227 N 14.4032 -6.34546 3.00492 0
M  V30 228 H 19.2432 -1.92552 2.27437 0
M  V30 229 H 16.7802 -0.941473 1.13025 0
M  V30 230 H 18.7382 -4.05116 0.996835 0
M  V30 231 H 17.3682 -3.22091 0.213758 0
M  V30 232 H 16.4202 -2.78265 2.5937 0
M  V30 233 H 17.7322 -3.79481 3.23721 0
M  V30 234 H 16.8862 -5.75274 1.92729 0
M  V30 235 H 15.6252 -4.73222 1.17949 0
M  V30 236 H 14.6302 -4.28796 3.44113 0
M  V30 237 H 15.8552 -5.34283 4.19188 0
M  V30 238 H 13.8012 -6.20759 2.12118 0
M  V30 239 H 13.7182 -6.52179 3.82358 0
M  V30 240 H 14.9862 -7.24394 2.87879 0
M  V30 241 N 19.2153 -1.21501 -1.00376 0
M  V30 242 C 20.6263 -1.03146 -1.55621 0
M  V30 243 C 20.9773 0.408375 -1.91903 0
M  V30 244 O 20.1023 1.29177 -1.73616 0
M  V30 245 C 20.6973 -1.86612 -2.82775 0
M  V30 246 C 19.2563 -1.72586 -3.34501 0
M  V30 247 C 18.4033 -1.83747 -2.07683 0
M  V30 248 H 21.3543 -1.35505 -0.826081 0
M  V30 249 H 21.3753 -1.3771 -3.54706 0
M  V30 250 H 20.8873 -2.91399 -2.56336 0
M  V30 251 H 18.9883 -0.704877 -3.65872 0
M  V30 252 H 19.1013 -2.54623 -4.05837 0
M  V30 253 H 17.4653 -1.27069 -2.20739 0
M  V30 254 H 18.2483 -2.90044 -1.83655 0
M  V30 255 N 20.6934 1.19889 -1.02296 0
M  V30 256 C 21.9704 1.85148 -0.630832 0
M  V30 257 C 22.3504 1.91385 0.890782 0
M  V30 258 O 21.6984 1.42642 1.78509 0
M  V30 259 C 21.9084 3.24442 -1.28602 0
M  V30 260 C 23.2564 4.00663 -1.4055 0
M  V30 261 O 24.2804 3.33818 -1.24273 0
M  V30 262 O 23.1394 5.20387 -1.66913 0
M  V30 263 H 20.2334 0.797613 -0.218499 0
M  V30 264 H 22.7794 1.27427 -1.12074 0
M  V30 265 H 21.5514 3.14704 -2.32545 0
M  V30 266 H 21.1744 3.89802 -0.7836 0
M  V30 267 N 22.1715 0.800033 1.35784 0
M  V30 268 C 23.5875 0.482977 1.52117 0
M  V30 269 C 23.7875 -0.996948 1.75109 0
M  V30 270 O 22.8435 -1.78216 1.78872 0
M  V30 271 C 24.1565 1.32264 2.70049 0
M  V30 272 C 25.7045 1.31742 2.83924 0
M  V30 273 C 26.1795 2.14106 4.04874 0
M  V30 274 N 27.6705 2.11607 4.12039 0
M  V30 275 C 28.4055 2.72099 5.04727 0
M  V30 276 N 27.9015 3.41492 6.02789 0
M  V30 277 N 29.6945 2.61776 4.97423 0
M  V30 278 H 21.8455 1.75856 1.19115 0
M  V30 279 H 24.1085 0.748122 0.582252 0
M  V30 280 H 23.8145 2.37261 2.59616 0
M  V30 281 H 23.6885 0.971303 3.6448 0
M  V30 282 H 26.0755 0.275333 2.93813 0
M  V30 283 H 26.1565 1.70859 1.9037 0
M  V30 284 H 25.8005 3.18351 3.95746 0
M  V30 285 H 25.7305 1.72353 4.97596 0
M  V30 286 H 28.2215 1.61112 3.41835 0
M  V30 287 H 28.5345 3.84953 6.70098 0
M  V30 288 H 26.8795 3.45596 6.02983 0
M  V30 289 H 30.0705 2.07157 4.19766 0
M  V30 290 H 30.2435 3.0921 5.69468 0
M  V30 291 N 23.6496 -1.47581 0.552962 0
M  V30 292 C 24.8746 -2.07378 0.0300593 0
M  V30 293 C 25.2996 -1.40355 -1.25229 0
M  V30 294 O 24.6576 -0.477099 -1.7491 0
M  V30 295 C 24.7056 -3.60274 -0.153231 0
M  V30 296 O 23.8096 -3.94041 -1.21678 0
M  V30 297 H 23.1506 -0.662158 0.0494182 0
M  V30 298 H 25.6806 -1.89662 0.767434 0
M  V30 299 H 25.6906 -4.0633 -0.368761 0
M  V30 300 H 24.3656 -4.08455 0.783397 0
M  V30 301 H 22.9426 -3.59735 -0.982079 0
M  V30 302 N 25.1277 -0.289203 -1.54924 0
M  V30 303 C 26.4047 0.376032 -1.91951 0
M  V30 304 C 26.7847 1.72622 -1.21511 0
M  V30 305 O 26.1327 2.25853 -0.346767 0
M  V30 306 C 26.3427 0.502378 -3.45365 0
M  V30 307 C 27.6907 0.778741 -4.17398 0
M  V30 308 O 28.7147 0.586647 -3.51336 0
M  V30 309 O 27.5737 1.14698 -5.34328 0
M  V30 310 H 24.6677 0.208167 -0.800372 0
M  V30 311 H 27.2137 -0.336394 -1.66332 0
M  V30 312 H 25.9857 -0.447255 -3.88736 0
M  V30 313 H 25.6087 1.26373 -3.76982 0
M  V30 314 N 26.6058 1.57591 -0.0167156 0
M  V30 315 C 28.0168 1.79201 0.523834 0
M  V30 316 C 28.3678 0.925796 1.72984 0
M  V30 317 O 27.4928 0.132792 2.15992 0
M  V30 318 C 28.0878 3.25 0.957091 0
M  V30 319 C 26.6468 3.47648 1.44283 0
M  V30 320 C 25.7938 2.74374 0.401757 0
M  V30 321 H 28.7448 1.56831 -0.242816 0
M  V30 322 H 28.7658 3.34031 1.82219 0
M  V30 323 H 28.2778 3.88019 0.0791415 0
M  V30 324 H 26.3788 2.89866 2.34113 0
M  V30 325 H 26.4918 4.56352 1.45877 0
M  V30 326 H 24.8558 2.39485 0.867121 0
M  V30 327 H 25.6388 3.40102 -0.467513 0
M  V30 328 N 28.0839 -0.256276 1.55502 0
M  V30 329 C 29.3329 -0.983486 1.76098 0
M  V30 330 C 29.6459 -1.86837 0.578896 0
M  V30 331 O 30.8519 -2.63163 0.667648 0
M  V30 332 C 29.3079 -1.79868 3.1173 0
M  V30 333 C 28.9159 -0.961648 4.37557 0
M  V30 334 C 30.6599 -2.51919 3.41668 0
M  V30 335 C 28.5669 -1.77219 5.64223 0
M  V30 336 H 27.4969 -0.370936 0.656447 0
M  V30 337 H 30.1479 -0.238492 1.81944 0
M  V30 338 H 28.5299 -2.58527 2.99966 0
M  V30 339 H 29.7039 -0.218048 4.60284 0
M  V30 340 H 28.0189 -0.354913 4.14885 0
M  V30 341 H 30.6159 -3.12998 4.33516 0
M  V30 342 H 30.9589 -3.23059 2.62562 0
M  V30 343 H 31.4919 -1.80278 3.54605 0
M  V30 344 H 28.2309 -1.10471 6.46124 0
M  V30 345 H 27.7509 -2.49132 5.45613 0
M  V30 346 H 29.4299 -2.34169 6.03137 0
M  V30 347 N 29.562 -1.4872 -0.521534 0
M  V30 348 C 30.495 -1.58451 -1.64221 0
M  V30 349 C 31.473 -0.434513 -1.56687 0
M  V30 350 O 32.657 -0.647275 -1.77038 0
M  V30 351 C 29.784 -1.52037 -3.02659 0
M  V30 352 C 28.83 -2.71981 -3.28525 0
M  V30 353 S 29.663 -4.33869 -3.13876 0
M  V30 354 C 30.819 -4.30067 -4.54745 0
M  V30 355 H 31.052 -2.53256 -1.55719 0
M  V30 356 H 28.585 -1.37358 -0.705143 0
M  V30 357 H 30.543 -1.49023 -3.82495 0
M  V30 358 H 29.204 -0.585541 -3.08594 0
M  V30 359 H 28.397 -2.63656 -4.29536 0
M  V30 360 H 27.999 -2.72302 -2.56374 0
M  V30 361 H 30.291 -4.00521 -5.46433 0
M  V30 362 H 31.234 -5.31287 -4.68123 0
M  V30 363 H 31.642 -3.60419 -4.34463 0
M  V30 364 N 31.0401 0.771051 -1.3745 0
M  V30 365 C 32.0031 1.86598 -1.33093 0
M  V30 366 C 33.0031 1.59076 -0.234845 0
M  V30 367 O 34.1931 1.67145 -0.490732 0
M  V30 368 C 31.3251 3.23747 -1.06773 0
M  V30 369 H 32.5181 1.91873 -2.30488 0
M  V30 370 H 30.0711 0.970876 -1.2249 0
M  V30 371 H 30.8061 3.24148 -0.099129 0
M  V30 372 H 30.5911 3.45115 -1.86112 0
M  V30 373 H 32.0811 4.03824 -1.06377 0
M  V30 374 N 32.5182 1.22032 0.997298 0
M  V30 375 C 33.9342 0.979326 1.26021 0
M  V30 376 C 34.1342 -0.32972 1.98784 0
M  V30 377 O 33.1902 -1.05345 2.29475 0
M  V30 378 C 34.5032 2.17509 2.07631 0
M  V30 379 C 36.0512 2.21817 2.2083 0
M  V30 380 C 36.5262 3.40933 3.05825 0
M  V30 381 N 38.0172 3.41067 3.13412 0
M  V30 382 C 38.7522 4.29885 3.79455 0
M  V30 383 N 38.2482 5.28914 4.47462 0
M  V30 384 N 40.0412 4.17673 3.76173 0
M  V30 385 H 32.1922 2.06202 0.509352 0
M  V30 386 H 34.4552 0.90334 0.287541 0
M  V30 387 H 34.1612 3.12415 1.61524 0
M  V30 388 H 34.0352 2.17206 3.08385 0
M  V30 389 H 36.4222 1.27462 2.66153 0
M  V30 390 H 36.5032 2.2616 1.1952 0
M  V30 391 H 36.1472 4.35586 2.61203 0
M  V30 392 H 36.0772 3.33829 4.07266 0
M  V30 393 H 38.5682 2.69406 2.65007 0
M  V30 394 H 38.8812 5.92973 4.95583 0
M  V30 395 H 37.2262 5.32831 4.46224 0
M  V30 396 H 40.4172 3.39564 3.22202 0
M  V30 397 H 40.5902 4.87098 4.27363 0
M  V30 398 N 33.9963 -1.19345 1.0293 0
M  V30 399 C 35.4123 -1.41069 0.746446 0
M  V30 400 C 35.6123 -1.90078 -0.668776 0
M  V30 401 O 34.6683 -2.0778 -1.4347 0
M  V30 402 C 35.9813 -2.42141 1.78292 0
M  V30 403 C 37.5293 -2.55887 1.80252 0
M  V30 404 C 38.0043 -3.60214 2.8286 0
M  V30 405 N 39.4953 -3.67711 2.81679 0
M  V30 406 C 40.2303 -4.48128 3.57727 0
M  V30 407 N 39.7263 -5.32248 4.43491 0
M  V30 408 N 41.5193 -4.42782 3.46267 0
M  V30 409 H 33.6703 -0.858536 1.94275 0
M  V30 410 H 35.9333 -0.439541 0.839945 0
M  V30 411 H 35.6393 -2.13155 2.79746 0
M  V30 412 H 35.5133 -3.41323 1.60557 0
M  V30 413 H 37.9003 -2.84196 0.794757 0
M  V30 414 H 37.9813 -1.56858 2.02062 0
M  V30 415 H 37.6253 -3.32647 3.83807 0
M  V30 416 H 37.5553 -4.58895 2.58307 0
M  V30 417 H 40.0463 -3.07634 2.19476 0
M  V30 418 H 40.3593 -5.90729 4.98256 0
M  V30 419 H 38.7043 -5.31707 4.47564 0
M  V30 420 H 41.8953 -3.76107 2.78677 0
M  V30 421 H 42.0683 -5.05215 4.05785 0
M  V30 422 N 35.4744 -0.807222 -1.35358 0
M  V30 423 C 36.4044 -0.232509 -2.3234 0
M  V30 424 C 37.3854 0.642386 -1.57504 0
M  V30 425 O 38.5704 0.572526 -1.85569 0
M  V30 426 C 35.7004 0.619238 -3.41735 0
M  V30 427 C 34.6544 -0.157215 -4.27711 0
M  V30 428 C 33.9804 0.816273 -5.28433 0
M  V30 429 C 35.2804 -1.35656 -5.04376 0
M  V30 430 H 36.9744 -1.04276 -2.80654 0
M  V30 431 H 34.5204 -0.50288 -1.34934 0
M  V30 432 H 36.4734 1.03137 -4.08584 0
M  V30 433 H 35.1974 1.46239 -2.92031 0
M  V30 434 H 33.8564 -0.550525 -3.62443 0
M  V30 435 H 33.5044 1.65494 -4.74996 0
M  V30 436 H 33.2044 0.301067 -5.86828 0
M  V30 437 H 34.7284 1.22659 -5.98153 0
M  V30 438 H 36.1424 -1.01927 -5.64166 0
M  V30 439 H 34.5394 -1.8063 -5.7227 0
M  V30 440 H 35.6094 -2.14288 -4.34981 0
M  V30 441 N 36.9525 1.47285 -0.560781 0
M  V30 442 C 37.8845 2.28118 0.222438 0
M  V30 443 C 38.8975 1.37219 0.876056 0
M  V30 444 O 40.0865 1.62011 0.749307 0
M  V30 445 C 37.1865 3.1159 1.33285 0
M  V30 446 C 36.3595 4.30473 0.77534 0
M  V30 447 C 35.4185 4.95513 1.77069 0
M  V30 448 O 34.4445 5.53792 1.31539 0
M  V30 449 N 35.6465 4.90531 3.10418 0
M  V30 450 H 38.4115 2.95976 -0.470958 0
M  V30 451 H 35.9725 1.56955 -0.39709 0
M  V30 452 H 37.9645 3.51967 1.99752 0
M  V30 453 H 36.5345 2.45951 1.92943 0
M  V30 454 H 35.7545 3.94144 -0.0662113 0
M  V30 455 H 37.0425 5.07362 0.382272 0
M  V30 456 H 36.4405 4.44389 3.5005 0
M  V30 457 H 34.9975 5.34917 3.72434 0
M  V30 458 N 38.4306 0.297415 1.54768 0
M  V30 459 C 39.3406 -0.58983 2.27064 0
M  V30 460 C 40.3566 -1.15144 1.30453 0
M  V30 461 O 41.5326 -1.17699 1.63428 0
M  V30 462 C 38.5976 -1.74714 2.9946 0
M  V30 463 C 37.6586 -1.21997 4.11601 0
M  V30 464 C 36.8916 -2.32212 4.80535 0
M  V30 465 O 37.1146 -3.52036 4.48806 0
M  V30 466 O 36.0486 -1.99106 5.68014 0
M  V30 467 H 39.8746 -0.00348199 3.037 0
M  V30 468 H 37.4596 0.0640035 1.49263 0
M  V30 469 H 39.3416 -2.42147 3.44881 0
M  V30 470 H 38.0166 -2.32016 2.25722 0
M  V30 471 H 36.9236 -0.511458 3.70587 0
M  V30 472 H 38.2566 -0.692419 4.87305 0
M  V30 473 N 39.9087 -1.5758 0.0250728 0
M  V30 474 C 41.1337 -1.96337 -0.668317 0
M  V30 475 C 41.5587 -0.901314 -1.651 0
M  V30 476 O 40.9167 0.138187 -1.80773 0
M  V30 477 C 40.9647 -3.34191 -1.35457 0
M  V30 478 O 40.0687 -3.30269 -2.46974 0
M  V30 479 H 39.4097 -0.640281 -0.175887 0
M  V30 480 H 41.9397 -2.0442 0.0857224 0
M  V30 481 H 41.9497 -3.70331 -1.71228 0
M  V30 482 H 40.6247 -4.11036 -0.634218 0
M  V30 483 H 39.2017 -3.05841 -2.13344 0
M  V30 484 N 41.3868 0.248026 -1.55636 0
M  V30 485 C 42.3168 1.31079 -1.93237 0
M  V30 486 C 43.2978 1.50264 -0.797174 0
M  V30 487 O 44.4828 1.62891 -1.05737 0
M  V30 488 C 41.6128 2.66575 -2.22609 0
M  V30 489 C 40.5668 2.62087 -3.3837 0
M  V30 490 C 39.8928 4.01369 -3.53281 0
M  V30 491 C 41.1928 2.19171 -4.7409 0
M  V30 492 H 42.8868 0.998556 -2.82257 0
M  V30 493 H 40.4328 0.47891 -1.35803 0
M  V30 494 H 42.3858 3.41057 -2.47503 0
M  V30 495 H 41.1098 2.99432 -1.30414 0
M  V30 496 H 39.7688 1.90063 -3.13483 0
M  V30 497 H 39.4168 4.31489 -2.58508 0
M  V30 498 H 39.1168 3.99254 -4.31127 0
M  V30 499 H 40.6408 4.77552 -3.80495 0
M  V30 500 H 42.0548 2.83384 -4.98363 0
M  V30 501 H 40.4518 2.2817 -5.5503 0
M  V30 502 H 41.5218 1.14336 -4.71227 0
M  V30 503 N 42.8649 1.48995 0.513639 0
M  V30 504 C 44.1129 1.57531 1.26604 0
M  V30 505 C 44.4339 0.258236 1.93283 0
M  V30 506 O 43.7039 -0.721502 1.8213 0
M  V30 507 H 42.2839 0.580387 0.470276 0
M  V30 508 H 44.9459 1.85552 0.596373 0
M  V30 509 H 44.0419 2.36486 2.03669 0
M  V30 510 N 44.343 -0.763751 1.37857 0
M  V30 511 C 45.591 -1.51957 1.33243 0
M  V30 512 C 45.912 -1.94835 -0.0801709 0
M  V30 513 O 45.182 -1.66894 -1.02582 0
M  V30 514 H 43.762 -0.563626 0.49024 0
M  V30 515 H 46.424 -0.908504 1.7243 0
M  V30 516 H 45.52 -2.41523 1.97669 0
M  V30 517 N 45.8211 -1.22559 -0.990812 0
M  V30 518 C 46.7531 -0.955325 -2.08342 0
M  V30 519 C 47.7661 0.0668408 -1.62663 0
M  V30 520 O 48.9551 -0.167421 -1.77713 0
M  V30 521 C 46.0551 -0.415566 -3.36342 0
M  V30 522 C 45.2281 -1.49544 -4.11042 0
M  V30 523 C 44.2871 -0.962399 -5.17324 0
M  V30 524 O 43.3131 -1.64907 -5.44788 0
M  V30 525 N 44.5151 0.215134 -5.80101 0
M  V30 526 H 47.2801 -1.89596 -2.32106 0
M  V30 527 H 44.8411 -1.13276 -1.15673 0
M  V30 528 H 46.8331 -0.0442386 -4.04676 0
M  V30 529 H 45.4031 0.430232 -3.09625 0
M  V30 530 H 44.6231 -2.04 -3.37309 0
M  V30 531 H 45.9111 -2.22195 -4.57719 0
M  V30 532 H 45.3091 0.789779 -5.6016 0
M  V30 533 H 43.8661 0.527826 -6.49659 0
M  V30 534 N 47.2992 1.18797 -1.03562 0
M  V30 535 C 48.5452 1.89192 -0.746867 0
M  V30 536 C 48.9002 1.78531 0.717245 0
M  V30 537 O 48.1932 1.17137 1.51622 0
M  V30 538 C 48.3872 3.38692 -1.14117 0
M  V30 539 C 48.2162 3.63902 -2.64207 0
M  V30 540 C 46.9862 3.81553 -3.31279 0
M  V30 541 C 49.1842 3.64903 -3.62423 0
M  V30 542 N 47.1662 3.94455 -4.70402 0
M  V30 543 C 48.5372 3.83458 -4.87196 0
M  V30 544 C 50.5922 3.47965 -3.56125 0
M  V30 545 C 49.2952 3.86829 -6.06429 0
M  V30 546 C 51.3212 3.52616 -4.7478 0
M  V30 547 C 50.6832 3.71663 -5.9837 0
M  V30 548 H 46.7822 0.711141 -0.325273 0
M  V30 549 H 49.3662 1.42727 -1.32428 0
M  V30 550 H 47.5372 3.83864 -0.591889 0
M  V30 551 H 49.2692 3.96634 -0.803966 0
M  V30 552 H 46.0242 3.80723 -2.81686 0
M  V30 553 H 46.4482 4.0474 -5.42692 0
M  V30 554 H 51.0902 3.32189 -2.61553 0
M  V30 555 H 48.8082 4.01395 -7.01362 0
M  V30 556 H 52.3942 3.40791 -4.71543 0
M  V30 557 H 51.2742 3.75145 -6.88648 0
M  V30 558 N 48.7773 0.814389 1.34928 0
M  V30 559 C 50.0253 0.397636 1.9815 0
M  V30 560 C 50.3463 -1.04069 1.64908 0
M  V30 561 O 49.6163 -1.72121 0.93548 0
M  V30 562 H 48.1963 0.144043 0.732981 0
M  V30 563 H 50.8583 1.04195 1.6471 0
M  V30 564 H 49.9543 0.509688 3.0791 0
M  V30 565 N 50.2554 -1.46986 0.568584 0
M  V30 566 C 51.1654 -2.33942 -0.17555 0
M  V30 567 C 52.1814 -1.48891 -0.90041 0
M  V30 568 O 53.3574 -1.81794 -0.86676 0
M  V30 569 C 50.4224 -3.25811 -1.18524 0
M  V30 570 C 49.4834 -4.26757 -0.466582 0
M  V30 571 C 48.7164 -5.14236 -1.42817 0
M  V30 572 O 48.9394 -5.04379 -2.66379 0
M  V30 573 O 47.8734 -5.94412 -0.946453 0
M  V30 574 H 51.6994 -2.98896 0.538036 0
M  V30 575 H 49.2844 -1.4573 0.329097 0
M  V30 576 H 51.1664 -3.82527 -1.76779 0
M  V30 577 H 49.8414 -2.63471 -1.88055 0
M  V30 578 H 48.7484 -3.73769 0.157451 0
M  V30 579 H 50.0814 -4.91843 0.187485 0
M  V30 580 N 51.7335 -0.305618 -1.54608 0
M  V30 581 C 52.9615 0.304775 -2.04643 0
M  V30 582 C 53.3765 1.47167 -1.18268 0
M  V30 583 O 52.7335 1.81296 -0.209328 0
M  V30 584 C 52.7845 0.756564 -3.53495 0
M  V30 585 O 52.5055 -0.36389 -4.36586 0
M  V30 586 C 54.0065 1.43163 -4.19546 0
M  V30 587 H 51.2265 0.0655481 -0.667791 0
M  V30 588 H 53.7705 -0.446592 -1.99564 0
M  V30 589 H 51.9255 1.45794 -3.58919 0
M  V30 590 H 52.3395 -0.0113121 -5.24499 0
M  V30 591 H 53.8135 1.69886 -5.25207 0
M  V30 592 H 54.2905 2.37318 -3.69563 0
M  V30 593 H 54.8965 0.773307 -4.18211 0
M  V30 594 N 53.2116 1.57565 -0.0334293 0
M  V30 595 C 54.4396 1.9628 0.654347 0
M  V30 596 C 54.8546 0.910138 1.65414 0
M  V30 597 O 54.2116 -0.107595 1.82183 0
M  V30 598 C 54.2626 3.35067 1.35693 0
M  V30 599 O 53.9836 4.36296 0.397191 0
M  V30 600 C 55.4846 3.88439 2.13613 0
M  V30 601 H 52.7046 0.646369 0.180132 0
M  V30 602 H 55.2486 2.04282 -0.0944721 0
M  V30 603 H 53.4036 3.2827 2.05712 0
M  V30 604 H 53.8176 5.1678 0.896597 0
M  V30 605 H 55.2916 4.8788 2.58219 0
M  V30 606 H 55.7686 3.22914 2.97696 0
M  V30 607 H 56.3746 3.98516 1.48543 0
M  V30 608 N 54.6897 -0.239769 1.55765 0
M  V30 609 C 55.9377 -0.964892 1.77579 0
M  V30 610 C 56.2587 -1.85582 0.598699 0
M  V30 611 O 55.5287 -1.92075 -0.385226 0
M  V30 612 H 54.1087 -0.359265 0.654933 0
M  V30 613 H 56.7707 -0.256001 1.93211 0
M  V30 614 H 55.8667 -1.58243 2.69009 0
M  V30 615 N 56.1678 -1.49265 -0.50573 0
M  V30 616 C 57.1008 -1.60183 -1.62532 0
M  V30 617 C 58.0788 -0.451107 -1.56217 0
M  V30 618 O 59.2628 -0.666016 -1.76342 0
M  V30 619 C 56.3898 -1.55238 -3.01029 0
M  V30 620 C 55.4358 -2.7545 -3.25621 0
M  V30 621 S 56.2688 -4.37174 -3.09256 0
M  V30 622 C 57.4248 -4.34866 -4.50158 0
M  V30 623 H 57.6578 -2.54894 -1.53025 0
M  V30 624 H 55.1908 -1.38098 -0.690535 0
M  V30 625 H 57.1488 -1.53071 -3.80893 0
M  V30 626 H 55.8098 -0.618238 -3.07956 0
M  V30 627 H 55.0028 -2.68197 -4.26716 0
M  V30 628 H 54.6048 -2.75005 -2.53472 0
M  V30 629 H 56.8968 -4.06295 -5.42154 0
M  V30 630 H 57.8398 -5.36223 -4.62462 0
M  V30 631 H 58.2478 -3.65007 -4.30616 0
M  V30 632 N 57.6459 0.756429 -1.3826 0
M  V30 633 C 58.5789 1.87802 -1.29637 0
M  V30 634 C 59.5569 1.61667 -0.173939 0
M  V30 635 O 60.7409 1.85208 -0.350775 0
M  V30 636 C 57.8679 3.23354 -1.00797 0
M  V30 637 C 56.9139 3.68379 -2.14939 0
M  V30 638 S 57.7469 3.8025 -3.77054 0
M  V30 639 C 58.9029 5.18626 -3.50396 0
M  V30 640 H 59.1359 1.94829 -2.24564 0
M  V30 641 H 56.6689 0.919117 -1.24063 0
M  V30 642 H 58.6269 4.01637 -0.848413 0
M  V30 643 H 57.2879 3.14008 -0.0759369 0
M  V30 644 H 56.4809 4.66693 -1.90299 0
M  V30 645 H 56.0829 2.97242 -2.26988 0
M  V30 646 H 58.3749 6.04289 -3.06334 0
M  V30 647 H 59.3179 5.48286 -4.48094 0
M  V30 648 H 59.7259 4.87289 -2.84973 0
M  V30 649 N 59.124 1.23083 0.984299 0
M  V30 650 C 60.349 1.088 1.76571 0
M  V30 651 C 60.774 -0.356657 1.84688 0
M  V30 652 O 60.132 -1.25788 1.30565 0
M  V30 653 C 60.18 1.71371 3.17277 0
M  V30 654 O 59.284 0.973213 4.00752 0
M  V30 655 H 58.625 0.381599 0.543395 0
M  V30 656 H 61.155 1.63057 1.23587 0
M  V30 657 H 61.165 1.76449 3.67872 0
M  V30 658 H 59.84 2.76493 3.10684 0
M  V30 659 H 58.417 0.999078 3.59267 0
M  V30 660 N 60.6021 -1.18246 1.0419 0
M  V30 661 C 61.8321 -1.91916 0.764961 0
M  V30 662 C 62.2401 -1.76485 -0.681898 0
M  V30 663 O 61.5831 -1.09275 -1.47664 0
M  V30 664 C 61.6451 -3.4373 1.05309 0
M  V30 665 C 61.3091 -3.8294 2.4941 0
M  V30 666 C 62.3061 -3.86621 3.47592 0
M  V30 667 C 59.9911 -4.142 2.84155 0
M  V30 668 C 61.9851 -4.21013 4.78568 0
M  V30 669 C 59.6721 -4.48262 4.15337 0
M  V30 670 C 60.6701 -4.51645 5.12353 0
M  V30 671 O 60.3581 -4.84911 6.41183 0
M  V30 672 H 60.0901 -0.61606 0.278292 0
M  V30 673 H 62.6441 -1.50947 1.39299 0
M  V30 674 H 60.8741 -3.84946 0.367933 0
M  V30 675 H 62.5631 -3.9865 0.763752 0
M  V30 676 H 63.3291 -3.62607 3.22089 0
M  V30 677 H 59.2081 -4.10743 2.09311 0
M  V30 678 H 62.7521 -4.23568 5.54289 0
M  V30 679 H 58.6491 -4.71737 4.40607 0
M  V30 680 H 59.4171 -5.02809 6.45852 0
M  V30 681 N 62.0802 -0.821533 -1.34494 0
M  V30 682 C 63.0102 -0.257138 -2.3208 0
M  V30 683 C 63.9912 0.625645 -1.58176 0
M  V30 684 O 65.1762 0.552811 -1.86166 0
M  V30 685 C 62.3062 0.582958 -3.42372 0
M  V30 686 C 61.2602 -0.202571 -4.2752 0
M  V30 687 C 60.5862 0.760179 -5.29269 0
M  V30 688 C 61.8862 -1.40998 -5.02908 0
M  V30 689 H 63.5802 -1.07247 -2.79532 0
M  V30 690 H 61.1262 -0.517163 -1.34393 0
M  V30 691 H 63.0792 0.987972 -4.09655 0
M  V30 692 H 61.8032 1.43133 -2.93565 0
M  V30 693 H 60.4622 -0.588936 -3.61838 0
M  V30 694 H 60.1102 1.60447 -4.76724 0
M  V30 695 H 59.8102 0.238809 -5.87115 0
M  V30 696 H 61.3342 1.16308 -5.9942 0
M  V30 697 H 62.7482 -1.07905 -5.63054 0
M  V30 698 H 61.1452 -1.86689 -5.70322 0
M  V30 699 H 62.2152 -2.1889 -4.32684 0
M  V30 700 N 63.5583 1.46682 -0.576371 0
M  V30 701 C 64.7833 2.07304 -0.0630475 0
M  V30 702 C 65.2083 1.42329 1.2298 0
M  V30 703 O 64.5663 0.504865 1.74129 0
M  V30 704 C 64.6143 3.60472 0.095895 0
M  V30 705 O 63.7183 3.95927 1.15394 0
M  V30 706 H 63.0593 0.661288 -0.0599463 0
M  V30 707 H 65.5893 1.88417 -0.797511 0
M  V30 708 H 65.5993 4.06865 0.304071 0
M  V30 709 H 64.2743 4.07157 -0.84828 0
M  V30 710 H 62.8513 3.61252 0.924724 0
M  V30 711 N 65.0364 0.313813 1.54444 0
M  V30 712 C 65.9684 -0.590425 2.21465 0
M  V30 713 C 66.9814 -1.08753 1.21147 0
M  V30 714 O 68.1704 -1.00278 1.4767 0
M  V30 715 C 65.2704 -1.82179 2.85769 0
M  V30 716 C 64.4434 -1.46502 4.12136 0
M  V30 717 C 63.5024 -2.55288 4.60124 0
M  V30 718 O 62.5284 -2.19842 5.25032 0
M  V30 719 N 63.7304 -3.86053 4.33525 0
M  V30 720 H 66.4954 -0.0166033 2.99695 0
M  V30 721 H 64.0564 0.136578 1.61323 0
M  V30 722 H 66.0484 -2.54328 3.14801 0
M  V30 723 H 64.6184 -2.30369 2.11303 0
M  V30 724 H 63.8384 -0.575595 3.89975 0
M  V30 725 H 65.1264 -1.20221 4.94393 0
M  V30 726 H 64.5244 -4.17654 3.81552 0
M  V30 727 H 63.0814 -4.54461 4.67235 0
M  V30 728 N 66.5145 -1.57545 0.0417849 0
M  V30 729 C 67.7625 -1.91937 -0.632829 0
M  V30 730 C 68.0835 -0.919978 -1.71934 0
M  V30 731 O 67.3535 0.0366064 -1.95866 0
M  V30 732 H 65.9335 -0.708493 -0.236742 0
M  V30 733 H 68.5955 -1.9468 0.0925745 0
M  V30 734 H 67.6915 -2.92912 -1.07746 0
M  V30 735 N 67.9926 0.231505 -1.5589 0
M  V30 736 C 69.2386 0.954429 -1.79617 0
M  V30 737 C 69.5936 1.82367 -0.613199 0
M  V30 738 O 68.8866 1.87524 0.393094 0
M  V30 739 C 69.0806 1.83577 -3.0665 0
M  V30 740 C 68.9096 1.05334 -4.3719 0
M  V30 741 C 67.6796 0.75225 -4.99669 0
M  V30 742 C 69.8776 0.423444 -5.12554 0
M  V30 743 N 67.8596 -0.052627 -6.13877 0
M  V30 744 C 69.2306 -0.245287 -6.19515 0
M  V30 745 C 71.2856 0.335466 -4.96769 0
M  V30 746 C 69.9886 -0.993566 -7.12405 0
M  V30 747 C 72.0146 -0.399321 -5.9005 0
M  V30 748 C 71.3766 -1.05663 -6.9643 0
M  V30 749 H 67.4756 0.329846 -0.709031 0
M  V30 750 H 70.0596 0.226172 -1.93382 0
M  V30 751 H 68.2306 2.53592 -2.94186 0
M  V30 752 H 69.9626 2.49541 -3.18608 0
M  V30 753 H 66.7176 1.06783 -4.61405 0
M  V30 754 H 67.1416 -0.443609 -6.75545 0
M  V30 755 H 71.7836 0.829311 -4.14587 0
M  V30 756 H 69.5016 -1.49896 -7.94076 0
M  V30 757 H 73.0876 -0.468265 -5.79913 0
M  V30 758 H 71.9676 -1.61612 -7.67366 0
M  V30 759 N 69.4707 1.49531 0.497807 0
M  V30 760 C 70.4337 1.65916 1.58128 0
M  V30 761 C 71.4337 0.530825 1.51786 0
M  V30 762 O 72.6237 0.797342 1.54881 0
M  V30 763 C 69.7557 1.65951 2.9778 0
M  V30 764 H 70.9487 2.62556 1.44929 0
M  V30 765 H 68.5017 1.38611 0.722275 0
M  V30 766 H 69.2367 0.709065 3.16453 0
M  V30 767 H 69.0217 2.47897 3.03792 0
M  V30 768 H 70.5117 1.80673 3.76493 0
M  V30 769 N 70.9488 -0.749086 1.3866 0
M  V30 770 C 72.1738 -1.54344 1.38538 0
M  V30 771 C 72.5988 -1.88088 -0.0216655 0
M  V30 772 O 71.9568 -1.50899 -1.00494 0
M  V30 773 C 72.0048 -2.8164 2.25192 0
M  V30 774 O 71.1088 -3.7698 1.67212 0
M  V30 775 H 70.4498 -0.466654 0.472367 0
M  V30 776 H 72.9798 -0.925355 1.82478 0
M  V30 777 H 72.9898 -3.30519 2.3921 0
M  V30 778 H 71.6648 -2.56411 3.27454 0
M  V30 779 H 70.2418 -3.35699 1.6236 0
M  V30 780 N 72.4269 -1.23603 -0.977757 0
M  V30 781 C 73.6549 -1.09646 -1.75458 0
M  V30 782 C 74.0699 0.351859 -1.85492 0
M  V30 783 O 73.4269 1.24327 -1.336 0
M  V30 784 C 73.4779 -1.71895 -3.18016 0
M  V30 785 O 73.1989 -3.11063 -3.08498 0
M  V30 786 C 74.6999 -1.63415 -4.12081 0
M  V30 787 H 71.9199 -0.38359 -0.550545 0
M  V30 788 H 74.4639 -1.63507 -1.22824 0
M  V30 789 H 72.6189 -1.22061 -3.67668 0
M  V30 790 H 73.0329 -3.41305 -3.9826 0
M  V30 791 H 74.5069 -2.11669 -5.09804 0
M  V30 792 H 74.9839 -0.593462 -4.35172 0
M  V30 793 H 75.5899 -2.12628 -3.68334 0
M  V30 794 N 73.905 1.17692 -1.04816 0
M  V30 795 C 75.153 1.87488 -0.754497 0
M  V30 796 C 75.474 1.81205 0.720407 0
M  V30 797 O 74.744 1.23544 1.52032 0
M  V30 798 H 73.324 0.694101 -0.276102 0
M  V30 799 H 75.986 1.42793 -1.32651 0
M  V30 800 H 75.082 2.93328 -1.06606 0
M  V30 801 N 75.3831 0.828654 1.34056 0
M  V30 802 C 76.3461 0.259927 2.27721 0
M  V30 803 C 77.3461 -0.565478 1.50529 0
M  V30 804 O 78.5361 -0.38075 1.69988 0
M  V30 805 C 75.6681 -0.634944 3.34935 0
M  V30 806 H 76.8611 1.0863 2.79534 0
M  V30 807 H 74.4141 0.600951 1.44285 0
M  V30 808 H 75.1491 -1.48416 2.88346 0
M  V30 809 H 74.9341 -0.0444999 3.92075 0
M  V30 810 H 76.4241 -1.02648 4.04788 0
M  V30 811 N 76.8612 -1.46375 0.584142 0
M  V30 812 C 77.7712 -2.34115 -0.150728 0
M  V30 813 C 78.7872 -1.49838 -0.884567 0
M  V30 814 O 79.9632 -1.82704 -0.847429 0
M  V30 815 C 77.0282 -3.2705 -1.15062 0
M  V30 816 C 76.0892 -4.27228 -0.421293 0
M  V30 817 C 75.3222 -5.15722 -1.37355 0
M  V30 818 O 75.5452 -5.07176 -2.61014 0
M  V30 819 O 74.4792 -5.95383 -0.883355 0
M  V30 820 H 78.3052 -2.98309 0.569708 0
M  V30 821 H 75.8902 -1.45373 0.344535 0
M  V30 822 H 77.7722 -3.84381 -1.72712 0
M  V30 823 H 76.4472 -2.65451 -1.8525 0
M  V30 824 H 75.3542 -3.7358 0.197085 0
M  V30 825 H 76.6872 -4.91616 0.239641 0
M  V30 826 N 78.3393 -0.321999 -1.54275 0
M  V30 827 C 79.2863 0.544664 -2.24281 0
M  V30 828 C 80.2563 1.1129 -1.23303 0
M  V30 829 O 81.4413 1.15354 -1.51981 0
M  V30 830 C 78.5813 1.70045 -3.00298 0
M  V30 831 C 77.6943 1.16159 -4.1609 0
M  V30 832 C 76.8293 2.28293 -4.79641 0
M  V30 833 C 75.8683 1.71648 -5.8754 0
M  V30 834 N 75.0053 2.77438 -6.44959 0
M  V30 835 H 79.8453 -0.0588907 -2.97942 0
M  V30 836 H 77.3823 -0.0408345 -1.47043 0
M  V30 837 H 79.3403 2.38054 -3.42616 0
M  V30 838 H 77.9703 2.27531 -2.28975 0
M  V30 839 H 77.0223 0.373092 -3.78566 0
M  V30 840 H 78.3343 0.707087 -4.93763 0
M  V30 841 H 77.4883 3.0421 -5.2492 0
M  V30 842 H 76.2273 2.77079 -4.01346 0
M  V30 843 H 75.2323 0.942282 -5.41665 0
M  V30 844 H 76.4573 1.23741 -6.67731 0
M  V30 845 H 74.4033 3.25519 -5.69538 0
M  V30 846 H 74.3203 2.36547 -7.1804 0
M  V30 847 H 75.5883 3.53189 -6.94894 0
M  V30 848 N 79.8174 1.5752 -0.0501392 0
M  V30 849 C 81.0474 1.96678 0.632573 0
M  V30 850 C 81.4554 0.926298 1.64974 0
M  V30 851 O 80.7984 -0.09802 1.83438 0
M  V30 852 C 80.8604 3.32068 1.37735 0
M  V30 853 C 80.5244 4.54076 0.516131 0
M  V30 854 C 81.5214 5.19445 -0.217357 0
M  V30 855 C 79.2064 5.00304 0.44736 0
M  V30 856 C 81.2004 6.29378 -1.00807 0
M  V30 857 C 78.8874 6.10114 -0.347038 0
M  V30 858 C 79.8854 6.74512 -1.07344 0
M  V30 859 O 79.5734 7.82211 -1.85477 0
M  V30 860 H 79.3054 0.652193 0.177821 0
M  V30 861 H 81.8594 2.05091 -0.112543 0
M  V30 862 H 80.0894 3.20206 2.16807 0
M  V30 863 H 81.7784 3.55981 1.95019 0
M  V30 864 H 82.5444 4.84689 -0.173688 0
M  V30 865 H 78.4234 4.49971 1.00235 0
M  V30 866 H 81.9674 6.79575 -1.57556 0
M  V30 867 H 77.8644 6.44307 -0.392349 0
M  V30 868 H 78.6324 7.98982 -1.77678 0
M  V30 869 N 81.2955 -0.223234 1.56011 0
M  V30 870 C 82.2425 -1.27664 1.92277 0
M  V30 871 C 83.2125 -1.46659 0.779763 0
M  V30 872 O 84.3975 -1.60256 1.03551 0
M  V30 873 C 81.5375 -2.62234 2.24338 0
M  V30 874 C 80.6505 -2.51051 3.51564 0
M  V30 875 C 79.7855 -3.78133 3.7308 0
M  V30 876 C 78.8245 -3.61665 4.93827 0
M  V30 877 N 77.9615 -4.80693 5.11741 0
M  V30 878 H 82.8015 -0.960358 2.82101 0
M  V30 879 H 80.3385 -0.462901 1.39627 0
M  V30 880 H 82.2965 -3.40596 2.40936 0
M  V30 881 H 80.9265 -2.91961 1.3769 0
M  V30 882 H 79.9785 -1.64132 3.43169 0
M  V30 883 H 81.2905 -2.34803 4.40079 0
M  V30 884 H 80.4445 -4.64938 3.89766 0
M  V30 885 H 79.1835 -3.97304 2.82844 0
M  V30 886 H 78.1885 -2.73244 4.77093 0
M  V30 887 H 79.4135 -3.43966 5.85546 0
M  V30 888 H 77.3595 -5.00181 4.24446 0
M  V30 889 H 77.2765 -4.67165 5.94384 0
M  V30 890 H 78.5445 -5.6893 5.3286 0
M  V30 891 N 82.7736 -1.49793 -0.48987 0
M  V30 892 C 84.0506 -1.50348 -1.25119 0
M  V30 893 C 84.4306 -0.237466 -2.0976 0
M  V30 894 O 83.7786 0.77981 -2.14782 0
M  V30 895 C 83.9886 -2.78872 -2.09837 0
M  V30 896 C 85.3366 -3.288 -2.68655 0
M  V30 897 O 86.3606 -2.80065 -2.20096 0
M  V30 898 O 85.2196 -4.13707 -3.57083 0
M  V30 899 H 82.3136 -0.602242 -0.566775 0
M  V30 900 H 84.8596 -1.62067 -0.503229 0
M  V30 901 H 83.6316 -3.62499 -1.47343 0
M  V30 902 H 83.2546 -2.70066 -2.91805 0
M  V30 903 N 84.2517 0.741722 -1.39055 0
M  V30 904 C 85.1817 1.869 -1.39966 0
M  V30 905 C 86.1627 1.6804 -0.26392 0
M  V30 906 O 87.3477 1.88458 -0.468755 0
M  V30 907 C 84.4777 3.24572 -1.23574 0
M  V30 908 C 83.4317 3.58056 -2.34477 0
M  V30 909 C 82.7577 4.94593 -2.0318 0
M  V30 910 C 84.0577 3.61716 -3.76774 0
M  V30 911 H 85.7517 1.86395 -2.34302 0
M  V30 912 H 83.2977 0.895361 -1.1278 0
M  V30 913 H 85.2507 4.031 -1.22834 0
M  V30 914 H 83.9747 3.25587 -0.257045 0
M  V30 915 H 82.6337 2.81854 -2.34423 0
M  V30 916 H 82.2817 4.92181 -1.03765 0
M  V30 917 H 81.9817 5.17964 -2.77465 0
M  V30 918 H 83.5057 5.75486 -2.04079 0
M  V30 919 H 84.9197 4.30335 -3.78794 0
M  V30 920 H 83.3167 3.96603 -4.50362 0
M  V30 921 H 84.3867 2.61672 -4.08235 0
M  V30 922 N 85.7298 1.2412 0.971189 0
M  V30 923 C 86.6598 1.05508 2.08304 0
M  V30 924 C 87.6408 -0.0308864 1.70072 0
M  V30 925 O 88.8258 0.135521 1.93727 0
M  V30 926 C 85.9558 0.655365 3.4106 0
M  V30 927 C 84.9098 1.68971 3.93234 0
M  V30 928 C 84.2358 1.14516 5.22293 0
M  V30 929 C 85.5358 3.08487 4.21465 0
M  V30 930 H 87.2298 1.98507 2.24132 0
M  V30 931 H 84.7758 0.955821 1.07704 0
M  V30 932 H 86.7288 0.51217 4.18276 0
M  V30 933 H 85.4528 -0.31032 3.25122 0
M  V30 934 H 84.1118 1.82106 3.18171 0
M  V30 935 H 83.7598 0.170189 5.02712 0
M  V30 936 H 83.4598 1.83635 5.58168 0
M  V30 937 H 84.9838 1.01401 6.02121 0
M  V30 938 H 86.3978 2.98601 4.89398 0
M  V30 939 H 84.7948 3.74926 4.68562 0
M  V30 940 H 85.8648 3.56787 3.28376 0
M  V30 941 N 87.2079 -1.17134 1.05439 0
M  V30 942 C 88.1379 -2.2342 0.678649 0
M  V30 943 C 89.1189 -1.66971 -0.32476 0
M  V30 944 O 90.3039 -1.93149 -0.201802 0
M  V30 945 C 87.4339 -3.47256 0.0552099 0
M  V30 946 C 86.3879 -4.16543 0.98365 0
M  V30 947 C 85.7139 -5.34231 0.223961 0
M  V30 948 C 87.0139 -4.68495 2.3089 0
M  V30 949 H 88.7079 -2.55105 1.56722 0
M  V30 950 H 86.2539 -1.2262 0.754998 0
M  V30 951 H 88.2069 -4.20828 -0.21946 0
M  V30 952 H 86.9309 -3.14846 -0.868319 0
M  V30 953 H 85.5899 -3.44887 1.24293 0
M  V30 954 H 85.2379 -4.98071 -0.702412 0
M  V30 955 H 84.9379 -5.81527 0.842627 0
M  V30 956 H 86.4619 -6.10585 -0.0433671 0
M  V30 957 H 87.8759 -5.33691 2.09396 0
M  V30 958 H 86.2729 -5.26379 2.88176 0
M  V30 959 H 87.3429 -3.85169 2.94572 0
M  V30 960 N 88.686 -0.835752 -1.33615 0
M  V30 961 C 89.963 -0.352017 -1.92406 0
M  V30 962 C 90.343 1.16225 -1.76224 0
M  V30 963 O 89.691 1.97526 -1.14873 0
M  V30 964 C 89.901 -0.795485 -3.39813 0
M  V30 965 C 91.249 -0.801703 -4.16963 0
M  V30 966 O 92.273 -0.738889 -3.48452 0
M  V30 967 O 91.132 -0.886607 -5.3926 0
M  V30 968 H 88.226 -0.0989641 -0.821057 0
M  V30 969 H 90.772 -0.921397 -1.42507 0
M  V30 970 H 89.544 -1.83795 -3.45449 0
M  V30 971 H 89.167 -0.202505 -3.97084 0
M  V30 972 N 90.1641 1.46063 -0.591896 0
M  V30 973 C 91.3921 2.06717 -0.0868936 0
M  V30 974 C 91.8071 1.43916 1.22203 0
M  V30 975 O 91.1641 0.547698 1.74088 0
M  V30 976 C 91.2151 3.6142 0.0758725 0
M  V30 977 O 90.9361 4.21874 -1.18126 0
M  V30 978 C 92.4371 4.39025 0.61416 0
M  V30 979 H 89.6571 0.668162 -0.0616518 0
M  V30 980 H 92.2011 1.8755 -0.815175 0
M  V30 981 H 90.3561 3.79983 0.754413 0
M  V30 982 H 90.7701 5.14861 -1.00092 0
M  V30 983 H 92.2441 5.4783 0.677193 0
M  V30 984 H 92.7211 4.07708 1.63312 0
M  V30 985 H 93.3271 4.2529 -0.0298142 0
M  V30 986 N 91.6422 0.330177 1.54103 0
M  V30 987 C 92.8902 -0.269871 2.0029 0
M  V30 988 C 93.2112 -1.52133 1.21986 0
M  V30 989 O 92.4812 -1.93212 0.323438 0
M  V30 990 H 91.0612 -0.10271 0.739905 0
M  V30 991 H 93.7232 0.448249 1.89675 0
M  V30 992 H 92.8192 -0.52166 3.07709 0
M  V30 993 N 93.1203 -1.57491 0.0584922 0
M  V30 994 C 94.3483 -1.97296 -0.623037 0
M  V30 995 C 94.7633 -0.936338 -1.63946 0
M  V30 996 O 94.1203 0.0785981 -1.82331 0
M  V30 997 C 94.1713 -3.37183 -1.30345 0
M  V30 998 O 93.8923 -4.36872 -0.32773 0
M  V30 999 C 95.3933 -3.91788 -2.07406 0
M  V30 1000 H 92.6133 -0.649153 -0.169826 0
M  V30 1001 H 95.1573 -2.04106 0.12696 0
M  V30 1002 H 93.3123 -3.31502 -2.00463 0
M  V30 1003 H 93.7263 -5.18141 -0.814269 0
M  V30 1004 H 95.2003 -4.91926 -2.50425 0
M  V30 1005 H 95.6773 -3.27609 -2.92521 0
M  V30 1006 H 96.2833 -4.00829 -1.42184 0
M  V30 1007 N 94.5984 0.214957 -1.56127 0
M  V30 1008 C 95.5084 1.28727 -1.96129 0
M  V30 1009 C 96.5244 1.50916 -0.866044 0
M  V30 1010 O 97.7004 1.63918 -1.17016 0
M  V30 1011 C 94.7654 2.61569 -2.27558 0
M  V30 1012 C 93.8264 2.47625 -3.50685 0
M  V30 1013 C 93.0594 3.74132 -3.80606 0
M  V30 1014 O 93.2824 4.77438 -3.12104 0
M  V30 1015 O 92.2164 3.70849 -4.74083 0
M  V30 1016 H 96.0424 0.977855 -2.87527 0
M  V30 1017 H 93.6274 0.418358 -1.43423 0
M  V30 1018 H 95.5094 3.40012 -2.48938 0
M  V30 1019 H 94.1844 2.92178 -1.39332 0
M  V30 1020 H 93.0914 1.67361 -3.34576 0
M  V30 1021 H 94.4244 2.21954 -4.39315 0
M  V30 1022 N 96.0765 1.50051 0.48192 0
M  V30 1023 C 96.9865 1.7089 1.60728 0
M  V30 1024 C 98.0025 0.591788 1.63627 0
M  V30 1025 O 99.1785 0.868817 1.81696 0
M  V30 1026 C 96.2435 1.78855 2.97005 0
M  V30 1027 C 95.3045 3.02537 3.04581 0
M  V30 1028 C 94.5375 3.10112 4.34357 0
M  V30 1029 O 94.7605 2.24765 5.24249 0
M  V30 1030 O 93.6945 4.02747 4.47301 0
M  V30 1031 H 97.5205 2.66264 1.46072 0
M  V30 1032 H 95.1055 1.34018 0.660264 0
M  V30 1033 H 96.9875 1.86336 3.77964 0
M  V30 1034 H 95.6625 0.866628 3.11883 0
M  V30 1035 H 94.5695 3.00563 2.22739 0
M  V30 1036 H 95.9025 3.94272 2.94636 0
M  V30 1037 N 97.5546 -0.734337 1.39446 0
M  V30 1038 C 98.4876 -1.85715 1.32609 0
M  V30 1039 C 99.4656 -1.6137 0.199636 0
M  V30 1040 O 100.65 -1.84626 0.380195 0
M  V30 1041 C 97.7766 -3.21709 1.05929 0
M  V30 1042 C 96.8226 -3.64913 2.20773 0
M  V30 1043 S 97.6556 -3.74203 3.83056 0
M  V30 1044 C 98.8116 -5.12986 3.58603 0
M  V30 1045 H 99.0446 -1.91232 2.27635 0
M  V30 1046 H 96.5776 -0.899263 1.25509 0
M  V30 1047 H 98.5356 -4.00236 0.912203 0
M  V30 1048 H 97.1966 -3.13848 0.125883 0
M  V30 1049 H 96.3896 -4.63606 1.97699 0
M  V30 1050 H 95.9916 -2.93593 2.31688 0
M  V30 1051 H 98.2836 -5.99339 3.15909 0
M  V30 1052 H 99.2266 -5.41088 4.5676 0
M  V30 1053 H 99.6346 -4.82694 2.9269 0
M  V30 1054 N 99.0327 -1.24633 -0.964593 0
M  V30 1055 C 99.9957 -1.0424 -2.04124 0
M  V30 1056 C 100.996 0.00137563 -1.608 0
M  V30 1057 O 102.186 -0.239883 -1.7254 0
M  V30 1058 C 99.3177 -0.580588 -3.3592 0
M  V30 1059 H 100.511 -1.99803 -2.23649 0
M  V30 1060 H 98.0637 -1.06899 -1.14027 0
M  V30 1061 H 98.7987 0.3781 -3.22088 0
M  V30 1062 H 98.5837 -1.33398 -3.6871 0
M  V30 1063 H 100.074 -0.459034 -4.15069 0
M  V30 1064 N 100.511 1.16574 -1.06058 0
M  V30 1065 C 101.461 2.18854 -0.63929 0
M  V30 1066 C 102.445 1.57505 0.328798 0
M  V30 1067 O 103.637 1.76408 0.144623 0
M  V30 1068 C 100.766 3.43291 -0.0247203 0
M  V30 1069 C 99.8518 4.11722 -1.01716 0
M  V30 1070 N 100.243 4.55841 -2.19186 0
M  V30 1071 C 98.5408 4.37872 -0.847569 0
M  V30 1072 C 99.2418 5.08751 -2.82042 0
M  V30 1073 N 98.2178 5.01489 -2.09784 0
M  V30 1074 H 102.02 2.5068 -1.53417 0
M  V30 1075 H 99.5338 1.32999 -0.931935 0
M  V30 1076 H 101.531 4.15856 0.294915 0
M  V30 1077 H 100.191 3.12954 0.865448 0
M  V30 1078 H 101.202 4.49649 -2.56975 0
M  V30 1079 H 97.8788 4.17499 -0.00918848 0
M  V30 1080 H 99.2688 5.52944 -3.81709 0
M  V30 1081 N 101.989 0.842826 1.3317 0
M  V30 1082 C 103.235 0.441099 1.97945 0
M  V30 1083 C 103.568 -0.998024 1.66593 0
M  V30 1084 O 102.843 -1.69839 0.947898 0
M  V30 1085 C 103.126 0.666841 3.53872 0
M  V30 1086 C 102.979 2.15352 3.94897 0
M  V30 1087 C 104.298 0.115544 4.39948 0
M  V30 1088 H 101.417 0.161739 0.719034 0
M  V30 1089 H 104.059 1.05907 1.57746 0
M  V30 1090 H 102.209 0.140828 3.88245 0
M  V30 1091 H 103.881 2.7447 3.70761 0
M  V30 1092 H 102.124 2.63653 3.44484 0
M  V30 1093 H 102.795 2.26221 5.03516 0
M  V30 1094 H 105.271 0.565213 4.12243 0
M  V30 1095 H 104.147 0.303152 5.48062 0
M  V30 1096 H 104.408 -0.980935 4.3108 0
M  V30 1097 N 103.467 -1.45747 0.599634 0
M  V30 1098 C 104.377 -2.34262 -0.125888 0
M  V30 1099 C 105.393 -1.50768 -0.868625 0
M  V30 1100 O 106.569 -1.83592 -0.828003 0
M  V30 1101 C 103.634 -3.28252 -1.11587 0
M  V30 1102 C 102.695 -4.27651 -0.375956 0
M  V30 1103 C 101.928 -5.1715 -1.31877 0
M  V30 1104 O 102.151 -5.09916 -2.55621 0
M  V30 1105 O 101.085 -5.96286 -0.820157 0
M  V30 1106 H 104.911 -2.97688 0.601315 0
M  V30 1107 H 102.496 -1.44999 0.359934 0
M  V30 1108 H 104.378 -3.86191 -1.68626 0
M  V30 1109 H 103.053 -2.67401 -1.82424 0
M  V30 1110 H 101.96 -3.7335 0.236698 0
M  V30 1111 H 103.293 -4.91334 0.29177 0
M  V30 1112 N 104.945 -0.338344 -1.53925 0
M  V30 1113 C 105.878 0.563758 -2.21127 0
M  V30 1114 C 106.856 1.10433 -1.19345 0
M  V30 1115 O 108.04 1.16557 -1.48144 0
M  V30 1116 C 105.167 1.77505 -2.88461 0
M  V30 1117 C 104.213 1.3644 -4.04087 0
M  V30 1118 S 105.046 0.388593 -5.34088 0
M  V30 1119 C 106.202 1.60683 -6.04923 0
M  V30 1120 H 106.435 -0.00704546 -2.97299 0
M  V30 1121 H 103.968 -0.122418 -1.53914 0
M  V30 1122 H 105.926 2.46999 -3.27875 0
M  V30 1123 H 104.587 2.31706 -2.12064 0
M  V30 1124 H 103.78 2.26739 -4.50117 0
M  V30 1125 H 103.382 0.748998 -3.66423 0
M  V30 1126 H 105.674 2.54209 -6.28 0
M  V30 1127 H 106.617 1.18842 -6.98056 0
M  V30 1128 H 107.025 1.80052 -5.35015 0
M  V30 1129 N 106.423 1.57458 -0.0668435 0
M  V30 1130 C 107.672 1.92477 0.602947 0
M  V30 1131 C 107.985 0.948419 1.71068 0
M  V30 1132 O 109.191 1.19124 2.43971 0
M  V30 1133 C 107.647 3.41903 1.12383 0
M  V30 1134 C 107.255 4.47975 0.04737 0
M  V30 1135 C 108.999 3.85931 1.76797 0
M  V30 1136 C 106.906 5.88529 0.582022 0
M  V30 1137 H 105.836 0.718387 0.22899 0
M  V30 1138 H 108.487 1.82978 -0.138276 0
M  V30 1139 H 106.869 3.46459 1.91787 0
M  V30 1140 H 108.043 4.55029 -0.726978 0
M  V30 1141 H 106.358 4.13384 -0.500243 0
M  V30 1142 H 108.955 4.88322 2.17821 0
M  V30 1143 H 109.298 3.23029 2.62599 0
M  V30 1144 H 109.831 3.83958 1.04024 0
M  V30 1145 H 106.57 6.55065 -0.238721 0
M  V30 1146 H 106.09 5.85004 1.324 0
M  V30 1147 H 107.769 6.38258 1.05999 0
M  V30 1148 N 107.901 -0.206675 1.56239 0
M  V30 1149 C 109.126 -0.949474 1.8439 0
M  V30 1150 C 109.551 -1.76549 0.649016 0
M  V30 1151 O 108.909 -1.76782 -0.402231 0
M  V30 1152 C 108.957 -1.83078 3.10668 0
M  V30 1153 O 108.061 -2.9281 2.90407 0
M  V30 1154 H 107.402 -0.268033 0.607499 0
M  V30 1155 H 109.932 -0.215488 2.03462 0
M  V30 1156 H 109.942 -2.2377 3.41161 0
M  V30 1157 H 108.617 -1.23112 3.97261 0
M  V30 1158 H 107.194 -2.55956 2.71184 0
M  V30 1159 N 109.379 -1.50304 -0.473955 0
M  V30 1160 C 110.607 -1.64902 -1.24959 0
M  V30 1161 C 111.022 -0.331198 -1.85872 0
M  V30 1162 O 110.379 0.68652 -1.69095 0
M  V30 1163 C 110.43 -2.73803 -2.36038 0
M  V30 1164 O 110.151 -4.00477 -1.77624 0
M  V30 1165 C 111.652 -2.99349 -3.26964 0
M  V30 1166 H 108.872 -0.554383 -0.378022 0
M  V30 1167 H 111.416 -1.9651 -0.566054 0
M  V30 1168 H 109.571 -2.44898 -3.00173 0
M  V30 1169 H 109.985 -4.60678 -2.5075 0
M  V30 1170 H 111.459 -3.79217 -4.01121 0
M  V30 1171 H 111.936 -2.10307 -3.85574 0
M  V30 1172 H 112.542 -3.29774 -2.68569 0
M  V30 1173 N 110.857 0.726932 -1.39834 0
M  V30 1174 C 111.79 1.8501 -1.33592 0
M  V30 1175 C 112.768 1.61262 -0.208191 0
M  V30 1176 O 113.952 1.84422 -0.389981 0
M  V30 1177 C 111.079 3.21143 -1.07633 0
M  V30 1178 C 110.125 3.63737 -2.22705 0
M  V30 1179 S 110.958 3.72167 -3.85035 0
M  V30 1180 C 112.114 5.11077 -3.61318 0
M  V30 1181 H 112.347 1.90022 -2.28646 0
M  V30 1182 H 109.88 0.892595 -1.25985 0
M  V30 1183 H 111.838 3.99747 -0.933415 0
M  V30 1184 H 110.499 3.13776 -0.142526 0
M  V30 1185 H 109.692 4.62551 -2.00155 0
M  V30 1186 H 109.294 2.9236 -2.33242 0
M  V30 1187 H 111.586 5.97656 -3.19083 0
M  V30 1188 H 112.529 5.38658 -4.59623 0
M  V30 1189 H 112.937 4.81135 -2.95245 0
M  V30 1190 N 112.336 1.25143 0.95797 0
M  V30 1191 C 113.585 1.0909 1.69654 0
M  V30 1192 C 113.898 -0.368548 1.92097 0
M  V30 1193 O 115.104 -0.649455 2.63618 0
M  V30 1194 C 113.56 1.90395 3.05414 0
M  V30 1195 C 113.168 3.4081 2.90779 0
M  V30 1196 C 114.912 1.82901 3.83076 0
M  V30 1197 C 112.819 4.14423 4.21909 0
M  V30 1198 H 111.749 0.404625 0.636235 0
M  V30 1199 H 114.4 1.4931 1.06672 0
M  V30 1200 H 112.782 1.42996 3.69281 0
M  V30 1201 H 113.956 3.95859 2.35865 0
M  V30 1202 H 112.271 3.49361 2.26575 0
M  V30 1203 H 114.868 2.35196 4.80195 0
M  V30 1204 H 115.211 0.796224 4.08615 0
M  V30 1205 H 115.744 2.28033 3.25954 0
M  V30 1206 H 112.483 5.18102 4.01561 0
M  V30 1207 H 112.003 3.64159 4.76601 0
M  V30 1208 H 113.682 4.21956 4.90471 0
M  V30 1209 N 113.814 -1.1601 1.06675 0
M  V30 1210 C 115.062 -1.86264 0.784229 0
M  V30 1211 C 115.383 -1.82328 -0.691488 0
M  V30 1212 O 114.653 -1.25947 -1.50047 0
M  V30 1213 H 113.233 -0.689621 0.28711 0
M  V30 1214 H 115.895 -1.40664 1.34906 0
M  V30 1215 H 114.991 -2.91595 1.11259 0
M  V30 1216 N 115.292 -0.849877 -1.32721 0
M  V30 1217 C 116.522 -0.46408 -2.0132 0
M  V30 1218 C 116.93 0.94246 -1.64056 0
M  V30 1219 O 116.273 1.6257 -0.855379 0
M  V30 1220 C 116.335 -0.517887 -3.5575 0
M  V30 1221 C 115.999 -1.88248 -4.16427 0
M  V30 1222 C 116.996 -2.84726 -4.35002 0
M  V30 1223 C 114.681 -2.17832 -4.52609 0
M  V30 1224 C 116.675 -4.08945 -4.8892 0
M  V30 1225 C 114.362 -3.42304 -5.06232 0
M  V30 1226 C 115.36 -4.37677 -5.24335 0
M  V30 1227 O 115.048 -5.59946 -5.76815 0
M  V30 1228 H 114.78 -0.181327 -0.651227 0
M  V30 1229 H 117.334 -1.14713 -1.70382 0
M  V30 1230 H 115.564 0.221997 -3.86062 0
M  V30 1231 H 117.253 -0.148366 -4.05629 0
M  V30 1232 H 118.019 -2.63174 -4.07388 0
M  V30 1233 H 113.898 -1.44385 -4.37806 0
M  V30 1234 H 117.442 -4.83396 -5.02966 0
M  V30 1235 H 113.339 -3.63709 -5.33278 0
M  V30 1236 H 114.107 -5.61838 -5.95214 0
M  V30 1237 N 116.77 1.45427 -0.607355 0
M  V30 1238 C 117.7 2.3329 0.0989352 0
M  V30 1239 C 118.681 1.46816 0.859007 0
M  V30 1240 O 119.866 1.75588 0.829604 0
M  V30 1241 C 116.996 3.29518 1.09705 0
M  V30 1242 C 115.95 4.25626 0.450206 0
M  V30 1243 C 115.276 5.11542 1.55655 0
M  V30 1244 C 116.576 5.18505 -0.628455 0
M  V30 1245 H 118.27 2.92595 -0.634716 0
M  V30 1246 H 115.816 1.40696 -0.306681 0
M  V30 1247 H 117.769 3.89855 1.59971 0
M  V30 1248 H 116.493 2.68372 1.86129 0
M  V30 1249 H 115.152 3.66586 -0.0315886 0
M  V30 1250 H 114.8 4.46765 2.31107 0
M  V30 1251 H 114.5 5.76647 1.12925 0
M  V30 1252 H 116.024 5.74748 2.06148 0
M  V30 1253 H 117.438 5.72916 -0.209877 0
M  V30 1254 H 115.835 5.92085 -0.977489 0
M  V30 1255 H 116.905 4.60948 -1.50514 0
M  V30 1256 N 118.248 0.346503 1.53744 0
M  V30 1257 C 119.178 -0.501193 2.28058 0
M  V30 1258 C 120.159 -1.10014 1.29734 0
M  V30 1259 O 121.344 -1.12097 1.58581 0
M  V30 1260 C 118.474 -1.65078 3.05559 0
M  V30 1261 C 117.428 -1.18003 4.11411 0
M  V30 1262 C 116.754 -2.41837 4.76884 0
M  V30 1263 C 118.054 -0.278394 5.21558 0
M  V30 1264 H 119.748 0.11875 2.99164 0
M  V30 1265 H 117.294 0.0585531 1.43881 0
M  V30 1266 H 119.247 -2.25028 3.56287 0
M  V30 1267 H 117.971 -2.29767 2.32109 0
M  V30 1268 H 116.63 -0.603331 3.61601 0
M  V30 1269 H 116.278 -3.0494 4.00026 0
M  V30 1270 H 115.978 -2.1102 5.48402 0
M  V30 1271 H 117.502 -3.02508 5.30397 0
M  V30 1272 H 118.916 -0.784823 5.67903 0
M  V30 1273 H 117.313 -0.0619707 6.00068 0
M  V30 1274 H 118.383 0.684677 4.80042 0
M  V30 1275 N 119.726 -1.57421 0.075193 0
M  V30 1276 C 120.636 -2.1642 -0.905511 0
M  V30 1277 C 121.652 -1.12828 -1.32461 0
M  V30 1278 O 122.828 -1.45109 -1.39661 0
M  V30 1279 C 119.893 -2.71693 -2.15369 0
M  V30 1280 C 118.954 -3.90171 -1.79068 0
M  V30 1281 C 118.187 -4.42798 -2.97936 0
M  V30 1282 O 118.41 -3.94416 -4.12058 0
M  V30 1283 O 117.344 -5.34085 -2.77555 0
M  V30 1284 H 121.17 -3.00588 -0.433626 0
M  V30 1285 H 118.755 -1.48664 -0.148067 0
M  V30 1286 H 120.637 -3.07104 -2.88557 0
M  V30 1287 H 119.312 -1.90582 -2.61649 0
M  V30 1288 H 118.219 -3.59606 -1.03122 0
M  V30 1289 H 119.552 -4.72584 -1.37569 0
M  V30 1290 N 121.204 0.198386 -1.56346 0
M  V30 1291 C 122.481 0.944982 -1.71258 0
M  V30 1292 C 122.861 2.0151 -0.629048 0
M  V30 1293 O 122.209 2.25639 0.360473 0
M  V30 1294 C 122.419 1.5344 -3.1346 0
M  V30 1295 C 123.767 2.01778 -3.73591 0
M  V30 1296 O 124.791 1.63288 -3.16568 0
M  V30 1297 O 123.65 2.72594 -4.73661 0
M  V30 1298 H 120.744 0.442939 -0.69838 0
M  V30 1299 H 123.29 0.188342 -1.68652 0
M  V30 1300 H 122.062 0.762869 -3.83792 0
M  V30 1301 H 121.685 2.35596 -3.20282 0
M  V30 1302 N 122.682 1.50554 0.465978 0
M  V30 1303 C 123.645 1.69233 1.54574 0
M  V30 1304 C 124.645 0.562901 1.50626 0
M  V30 1305 O 125.835 0.830016 1.53155 0
M  V30 1306 C 122.967 1.7223 2.94193 0
M  V30 1307 H 124.16 2.65571 1.39327 0
M  V30 1308 H 121.713 1.40111 0.692711 0
M  V30 1309 H 122.448 0.77603 3.14878 0
M  V30 1310 H 122.233 2.54285 2.98466 0
M  V30 1311 H 123.723 1.88618 3.72576 0
M  V30 1312 N 124.16 -0.719506 1.40217 0
M  V30 1313 C 125.571 -1.29848 1.34151 0
M  V30 1314 C 125.922 -1.96196 0.0131349 0
M  V30 1315 O 125.047 -1.973 -0.88892 0
M  V30 1316 C 125.642 -2.36118 2.42968 0
M  V30 1317 C 124.201 -2.8965 2.40374 0
M  V30 1318 C 123.348 -1.63393 2.24049 0
M  V30 1319 H 126.299 -0.51591 1.5008 0
M  V30 1320 H 126.32 -3.16871 2.10649 0
M  V30 1321 H 125.832 -1.878 3.39636 0
M  V30 1322 H 123.933 -3.42208 1.47392 0
M  V30 1323 H 124.046 -3.4171 3.35814 0
M  V30 1324 H 122.41 -1.88312 1.71495 0
M  V30 1325 H 123.193 -1.17104 3.2271 0
M  V30 1326 N 125.638 -1.25649 -0.95132 0
M  V30 1327 C 126.885 -1.10594 -1.69633 0
M  V30 1328 C 127.213 0.352515 -1.91279 0
M  V30 1329 O 126.468 1.27601 -1.4838 0
M  V30 1330 C 126.767 -1.80909 -3.08231 0
M  V30 1331 C 126.433 -3.30825 -3.06375 0
M  V30 1332 C 125.095 -3.71722 -3.05576 0
M  V30 1333 C 127.447 -4.26589 -2.99452 0
M  V30 1334 C 124.775 -5.06788 -2.95606 0
M  V30 1335 C 127.127 -5.61683 -2.91024 0
M  V30 1336 C 125.791 -6.01904 -2.88562 0
M  V30 1337 H 125.061 -0.404691 -0.620731 0
M  V30 1338 H 127.708 -1.55964 -1.11119 0
M  V30 1339 H 126.013 -1.27979 -3.70309 0
M  V30 1340 H 127.71 -1.6671 -3.64704 0
M  V30 1341 H 124.3 -2.98287 -3.07771 0
M  V30 1342 H 128.484 -3.95982 -2.99185 0
M  V30 1343 H 123.74 -5.37126 -2.92071 0
M  V30 1344 H 127.914 -6.35578 -2.84629 0
M  V30 1345 H 125.541 -7.06521 -2.80593 0
M  V30 1346 N 127.117 1.15442 -1.07289 0
M  V30 1347 C 128.365 1.85845 -0.794096 0
M  V30 1348 C 128.686 1.82692 0.681809 0
M  V30 1349 O 127.956 1.26741 1.49377 0
M  V30 1350 H 126.536 0.688089 -0.290763 0
M  V30 1351 H 129.198 1.39947 -1.3565 0
M  V30 1352 H 128.294 2.91001 -1.12804 0
M  V30 1353 N 128.595 0.856903 1.32268 0
M  V30 1354 C 130.006 0.515711 1.79436 0
M  V30 1355 C 130.357 -0.966586 1.70738 0
M  V30 1356 O 129.482 -1.75409 1.26731 0
M  V30 1357 C 130.077 0.929335 3.25805 0
M  V30 1358 C 128.636 0.640006 3.70919 0
M  V30 1359 C 127.783 1.12784 2.53328 0
M  V30 1360 H 130.734 1.04389 1.19535 0
M  V30 1361 H 130.755 0.246633 3.797 0
M  V30 1362 H 130.267 2.00821 3.32103 0
M  V30 1363 H 128.368 -0.428051 3.70133 0
M  V30 1364 H 128.481 1.20788 4.63624 0
M  V30 1365 H 126.845 0.548033 2.48734 0
M  V30 1366 H 127.628 2.21387 2.62379 0
M  V30 1367 N 130.073 -1.45103 0.615059 0
M  V30 1368 C 130.983 -2.34382 -0.101034 0
M  V30 1369 C 131.999 -1.51681 -0.852585 0
M  V30 1370 O 133.175 -1.8446 -0.808484 0
M  V30 1371 C 130.24 -3.29417 -1.08099 0
M  V30 1372 C 129.301 -4.28025 -0.330577 0
M  V30 1373 C 128.534 -5.1852 -1.26385 0
M  V30 1374 O 128.757 -5.12598 -2.50198 0
M  V30 1375 O 127.691 -5.97122 -0.756866 0
M  V30 1376 H 131.517 -2.97033 0.632855 0
M  V30 1377 H 129.102 -1.4461 0.375293 0
M  V30 1378 H 130.984 -3.87958 -1.6452 0
M  V30 1379 H 129.659 -2.69321 -1.79577 0
M  V30 1380 H 128.566 -3.73078 0.276283 0
M  V30 1381 H 129.899 -4.90997 0.343866 0
M  V30 1382 N 131.551 -0.354651 -1.53558 0
M  V30 1383 C 132.828 0.294281 -1.93374 0
M  V30 1384 C 133.208 1.67313 -1.28723 0
M  V30 1385 O 132.556 2.24179 -0.442247 0
M  V30 1386 C 132.766 0.355445 -3.47185 0
M  V30 1387 C 134.114 0.601007 -4.20325 0
M  V30 1388 O 135.138 0.437106 -3.53508 0
M  V30 1389 O 133.997 0.919322 -5.38712 0
M  V30 1390 H 131.091 0.174033 -0.808481 0
M  V30 1391 H 133.637 -0.406638 -1.64756 0
M  V30 1392 H 132.409 -0.611729 -3.86489 0
M  V30 1393 H 132.032 1.1027 -3.82003 0
M  V30 1394 N 133.029 1.57378 -0.0835403 0
M  V30 1395 C 133.959 2.1641 0.87686 0
M  V30 1396 C 134.94 1.09429 1.30228 0
M  V30 1397 O 136.125 1.37516 1.37124 0
M  V30 1398 C 133.255 2.73517 2.14022 0
M  V30 1399 C 132.209 3.85769 1.85381 0
M  V30 1400 C 131.535 4.29529 3.18448 0
M  V30 1401 C 132.835 5.09486 1.14984 0
M  V30 1402 H 134.529 2.96914 0.385059 0
M  V30 1403 H 132.075 1.42823 0.18377 0
M  V30 1404 H 134.028 3.13463 2.81636 0
M  V30 1405 H 132.752 1.90252 2.65465 0
M  V30 1406 H 131.411 3.46345 1.20169 0
M  V30 1407 H 131.059 3.43169 3.67755 0
M  V30 1408 H 130.759 5.05204 3.00071 0
M  V30 1409 H 132.283 4.72099 3.8724 0
M  V30 1410 H 133.697 5.46674 1.72687 0
M  V30 1411 H 132.094 5.90515 1.06826 0
M  V30 1412 H 133.164 4.84724 0.130749 0
M  V30 1413 N 134.507 -0.190092 1.56449 0
M  V30 1414 C 135.454 -1.23557 1.94942 0
M  V30 1415 C 136.424 -1.44972 0.810696 0
M  V30 1416 O 137.609 -1.58023 1.06927 0
M  V30 1417 C 134.749 -2.57416 2.2985 0
M  V30 1418 C 133.862 -2.43537 3.5681 0
M  V30 1419 C 132.997 -3.70134 3.81017 0
M  V30 1420 C 132.036 -3.51109 5.01387 0
M  V30 1421 N 131.173 -4.6973 5.21822 0
M  V30 1422 H 136.013 -0.900304 2.84075 0
M  V30 1423 H 133.55 -0.43318 1.40577 0
M  V30 1424 H 135.508 -3.35409 2.48106 0
M  V30 1425 H 134.138 -2.88975 1.43852 0
M  V30 1426 H 133.19 -1.56816 3.46573 0
M  V30 1427 H 134.502 -2.25415 4.4496 0
M  V30 1428 H 133.656 -4.56566 3.9954 0
M  V30 1429 H 132.395 -3.91215 2.91207 0
M  V30 1430 H 131.4 -2.63063 4.82782 0
M  V30 1431 H 132.625 -3.31468 5.9271 0
M  V30 1432 H 130.571 -4.91065 4.34961 0
M  V30 1433 H 130.488 -4.54452 6.0416 0
M  V30 1434 H 131.756 -5.57499 5.44808 0
M  V30 1435 N 135.985 -1.50799 -0.457987 0
M  V30 1436 C 137.401 -1.38515 -0.792819 0
M  V30 1437 C 137.601 -0.451409 -1.96379 0
M  V30 1438 O 136.657 0.10112 -2.52297 0
M  V30 1439 C 137.97 -2.80149 -1.09258 0
M  V30 1440 C 139.518 -2.89156 -1.19825 0
M  V30 1441 C 139.993 -4.31651 -1.53106 0
M  V30 1442 N 141.484 -4.34662 -1.60072 0
M  V30 1443 C 142.219 -5.41928 -1.87354 0
M  V30 1444 N 141.715 -6.59384 -2.12568 0
M  V30 1445 N 143.508 -5.29385 -1.88965 0
M  V30 1446 H 135.659 -2.10073 0.313511 0
M  V30 1447 H 137.922 -0.944803 0.0777862 0
M  V30 1448 H 137.628 -3.50374 -0.305084 0
M  V30 1449 H 137.502 -3.18204 -2.02549 0
M  V30 1450 H 139.889 -2.19141 -1.97639 0
M  V30 1451 H 139.97 -2.54626 -0.244821 0
M  V30 1452 H 139.614 -5.02208 -0.758266 0
M  V30 1453 H 139.544 -4.63678 -2.49621 0
M  V30 1454 H 142.035 -3.49973 -1.42573 0
M  V30 1455 H 142.348 -7.36934 -2.32696 0
M  V30 1456 H 140.693 -6.62535 -2.09933 0
M  V30 1457 H 143.884 -4.36616 -1.68772 0
M  V30 1458 H 144.057 -6.13066 -2.09891 0
M  V30 1459 N 137.463 0.71206 -1.40597 0
M  V30 1460 C 138.74 1.46536 -1.29563 0
M  V30 1461 C 139.12 2.10931 0.0844217 0
M  V30 1462 O 138.468 2.00418 1.0975 0
M  V30 1463 C 138.678 2.49821 -2.43701 0
M  V30 1464 C 140.026 3.15551 -2.841 0
M  V30 1465 O 141.05 2.60142 -2.4332 0
M  V30 1466 O 139.909 4.15867 -3.54566 0
M  V30 1467 H 137.003 0.651801 -0.509004 0
M  V30 1468 H 139.549 0.743935 -1.52524 0
M  V30 1469 H 138.321 2.00778 -3.35863 0
M  V30 1470 H 137.944 3.29495 -2.22528 0
M  V30 1471 N 138.941 1.26152 0.944643 0
M  V30 1472 C 140.352 1.10454 1.50522 0
M  V30 1473 C 140.703 -0.31635 1.93633 0
M  V30 1474 O 139.828 -1.20746 1.79581 0
M  V30 1475 C 140.423 1.99891 2.73549 0
M  V30 1476 C 138.982 1.88348 3.25886 0
M  V30 1477 C 138.129 1.93447 1.9868 0
M  V30 1478 H 141.08 1.39292 0.760489 0
M  V30 1479 H 141.101 1.54477 3.47732 0
M  V30 1480 H 140.613 3.03297 2.42141 0
M  V30 1481 H 138.714 0.878636 3.62092 0
M  V30 1482 H 138.827 2.73696 3.93227 0
M  V30 1483 H 137.191 1.37456 2.14425 0
M  V30 1484 H 137.974 2.98476 1.69607 0
M  V30 1485 N 140.419 -1.14872 1.07899 0
M  V30 1486 C 141.644 -1.90202 0.826926 0
M  V30 1487 C 142.069 -1.77774 -0.614664 0
M  V30 1488 O 141.427 -1.11431 -1.43013 0
M  V30 1489 C 141.475 -3.38352 1.24702 0
M  V30 1490 O 140.579 -4.10497 0.39575 0
M  V30 1491 H 139.92 -0.591968 0.300782 0
M  V30 1492 H 142.45 -1.45437 1.43907 0
M  V30 1493 H 142.46 -3.89156 1.22563 0
M  V30 1494 H 141.135 -3.46715 2.29698 0
M  V30 1495 H 139.712 -3.69796 0.480117 0
M  V30 1496 N 141.898 -0.863906 -1.31812 0
M  V30 1497 C 142.828 -0.330843 -2.31144 0
M  V30 1498 C 143.809 0.575005 -1.60087 0
M  V30 1499 O 144.994 0.493304 -1.8783 0
M  V30 1500 C 142.124 0.47374 -3.44054 0
M  V30 1501 C 141.078 -0.338481 -4.26659 0
M  V30 1502 C 140.404 0.591412 -5.31419 0
M  V30 1503 C 141.704 -1.56926 -4.98168 0
M  V30 1504 H 143.398 -1.16086 -2.75979 0
M  V30 1505 H 140.944 -0.559657 -1.32679 0
M  V30 1506 H 142.897 0.857143 -4.12591 0
M  V30 1507 H 141.621 1.33721 -2.9797 0
M  V30 1508 H 140.28 -0.703754 -3.59782 0
M  V30 1509 H 139.928 1.45199 -4.81587 0
M  V30 1510 H 139.628 0.0519022 -5.87577 0
M  V30 1511 H 141.152 0.97179 -6.02817 0
M  V30 1512 H 142.566 -1.25764 -5.59336 0
M  V30 1513 H 140.963 -2.04739 -5.64094 0
M  V30 1514 H 142.033 -2.32544 -4.25501 0
M  V30 1515 N 143.376 1.44774 -0.622745 0
M  V30 1516 C 144.339 2.29069 0.0774015 0
M  V30 1517 C 145.339 1.4059 0.780461 0
M  V30 1518 O 146.529 1.62551 0.626322 0
M  V30 1519 C 143.661 3.21974 1.12006 0
M  V30 1520 H 144.854 2.92459 -0.663901 0
M  V30 1521 H 142.407 1.51548 -0.382486 0
M  V30 1522 H 143.142 2.63417 1.89162 0
M  V30 1523 H 142.927 3.87168 0.619951 0
M  V30 1524 H 144.417 3.85318 1.60995 0
M  V30 1525 N 144.854 0.36279 1.53368 0
M  V30 1526 C 146.082 -0.228613 2.05633 0
M  V30 1527 C 146.497 -1.42676 1.23649 0
M  V30 1528 O 145.854 -1.80394 0.27647 0
M  V30 1529 C 145.905 -0.624845 3.56059 0
M  V30 1530 O 145.626 0.525675 4.34935 0
M  V30 1531 C 147.127 -1.27493 4.24571 0
M  V30 1532 H 144.347 -0.0407183 0.669763 0
M  V30 1533 H 146.891 0.520352 1.97769 0
M  V30 1534 H 145.046 -1.32373 3.64083 0
M  V30 1535 H 145.46 0.205969 5.24095 0
M  V30 1536 H 146.934 -1.50277 5.31151 0
M  V30 1537 H 147.411 -2.23439 3.78116 0
M  V30 1538 H 148.017 -0.617558 4.20792 0
M  V30 1539 N 146.332 -1.57332 0.0918853 0
M  V30 1540 C 147.56 -1.98574 -0.581048 0
M  V30 1541 C 147.975 -0.970903 -1.61923 0
M  V30 1542 O 147.332 0.0399054 -1.82456 0
M  V30 1543 C 147.383 -3.39872 -1.23164 0
M  V30 1544 O 147.104 -4.37469 -0.234989 0
M  V30 1545 C 148.605 -3.96099 -1.99049 0
M  V30 1546 H 145.825 -0.65261 -0.156018 0
M  V30 1547 H 148.369 -2.0379 0.170225 0
M  V30 1548 H 146.524 -3.35679 -1.93386 0
M  V30 1549 H 146.938 -5.19751 -0.70418 0
M  V30 1550 H 148.412 -4.97127 -2.39934 0
M  V30 1551 H 148.889 -3.3374 -2.85507 0
M  V30 1552 H 149.495 -4.03755 -1.3365 0
M  V30 1553 N 147.81 0.181792 -1.56548 0
M  V30 1554 C 148.743 1.25366 -1.90679 0
M  V30 1555 C 149.721 1.43299 -0.768376 0
M  V30 1556 O 150.905 1.58475 -1.02068 0
M  V30 1557 C 148.032 2.61826 -2.1486 0
M  V30 1558 C 147.078 2.60688 -3.37556 0
M  V30 1559 S 147.911 2.10804 -4.92262 0
M  V30 1560 C 149.067 3.49062 -5.19525 0
M  V30 1561 H 149.3 0.962277 -2.81296 0
M  V30 1562 H 146.833 0.385892 -1.495 0
M  V30 1563 H 148.791 3.40371 -2.29473 0
M  V30 1564 H 147.452 2.88169 -1.24969 0
M  V30 1565 H 146.645 3.61058 -3.51643 0
M  V30 1566 H 146.247 1.90232 -3.22006 0
M  V30 1567 H 148.539 4.45003 -5.10861 0
M  V30 1568 H 149.482 3.39859 -6.2121 0
M  V30 1569 H 149.89 3.4459 -4.47122 0
M  V30 1570 N 149.288 1.51039 0.449983 0
M  V30 1571 C 150.251 1.70863 1.5277 0
M  V30 1572 C 151.251 0.578846 1.5002 0
M  V30 1573 O 152.441 0.846213 1.52266 0
M  V30 1574 C 149.573 1.75341 2.9235 0
M  V30 1575 H 150.766 2.67034 1.36502 0
M  V30 1576 H 148.319 1.40838 0.677812 0
M  V30 1577 H 149.054 0.809383 3.14037 0
M  V30 1578 H 148.839 2.57436 2.95752 0
M  V30 1579 H 150.329 1.92559 3.70555 0
M  V30 1580 N 150.766 -0.704594 1.40972 0
M  V30 1581 C 152.014 -1.46169 1.39568 0
M  V30 1582 C 152.335 -1.95 0.00253745 0
M  V30 1583 O 151.605 -1.71095 -0.954114 0
M  V30 1584 H 150.185 -0.542326 0.513704 0
M  V30 1585 H 152.847 -0.834553 1.76128 0
M  V30 1586 H 151.943 -2.32922 2.07735 0
M  V30 1587 N 152.244 -1.26651 -0.937939 0
M  V30 1588 C 153.177 -1.02811 -2.03728 0
M  V30 1589 C 154.155 0.0481915 -1.62529 0
M  V30 1590 O 155.339 -0.0948839 -1.88261 0
M  V30 1591 C 152.466 -0.557517 -3.3408 0
M  V30 1592 C 151.512 -1.62686 -3.94253 0
M  V30 1593 S 152.345 -3.21667 -4.28125 0
M  V30 1594 C 153.501 -2.76384 -5.61572 0
M  V30 1595 H 153.734 -1.95891 -2.23638 0
M  V30 1596 H 151.267 -1.10367 -1.07974 0
M  V30 1597 H 153.225 -0.292674 -4.09455 0
M  V30 1598 H 151.886 0.353062 -3.12109 0
M  V30 1599 H 151.079 -1.24866 -4.88287 0
M  V30 1600 H 150.681 -1.84324 -3.25424 0
M  V30 1601 H 152.973 -2.2105 -6.40424 0
M  V30 1602 H 153.916 -3.69123 -6.0428 0
M  V30 1603 H 154.324 -2.15847 -5.21604 0
M  V30 1604 N 153.722 1.14298 -1.08507 0
M  V30 1605 C 154.999 1.81544 -0.728088 0
M  V30 1606 C 155.379 1.95838 0.78808 0
M  V30 1607 O 154.727 1.51904 1.70697 0
M  V30 1608 C 154.937 3.17169 -1.45619 0
M  V30 1609 C 156.285 3.9265 -1.61591 0
M  V30 1610 O 157.309 3.26762 -1.41793 0
M  V30 1611 O 156.168 5.10807 -1.94263 0
M  V30 1612 H 153.262 0.78491 -0.260471 0
M  V30 1613 H 155.808 1.21307 -1.18671 0
M  V30 1614 H 154.58 3.01934 -2.489 0
M  V30 1615 H 154.203 3.851 -0.989124 0
M  V30 1616 N 155.201 0.870884 1.31352 0
M  V30 1617 C 156.612 0.534714 1.78879 0
M  V30 1618 C 156.963 -0.948423 1.71754 0
M  V30 1619 O 156.088 -1.74055 1.28584 0
M  V30 1620 C 156.683 0.963839 3.24801 0
M  V30 1621 C 155.242 0.679311 3.70219 0
M  V30 1622 C 154.389 1.15465 2.52117 0
M  V30 1623 H 157.34 1.05651 1.18421 0
M  V30 1624 H 157.361 0.286892 3.79417 0
M  V30 1625 H 156.873 2.04332 3.29955 0
M  V30 1626 H 154.974 -0.388769 3.70566 0
M  V30 1627 H 155.087 1.25698 4.62317 0
M  V30 1628 H 153.451 0.574383 2.48139 0
M  V30 1629 H 154.234 2.24157 2.60016 0
M  V30 1630 N 156.679 -1.44442 0.630414 0
M  V30 1631 C 157.589 -2.34476 -0.0761693 0
M  V30 1632 C 158.605 -1.52576 -0.836449 0
M  V30 1633 O 159.781 -1.85307 -0.788874 0
M  V30 1634 C 156.846 -3.30545 -1.04599 0
M  V30 1635 C 155.907 -4.28352 -0.28516 0
M  V30 1636 C 155.14 -5.19831 -1.20878 0
M  V30 1637 O 155.363 -5.15223 -2.44747 0
M  V30 1638 O 154.297 -5.97892 -0.693491 0
M  V30 1639 H 158.123 -2.96345 0.664324 0
M  V30 1640 H 155.708 -1.44203 0.39061 0
M  V30 1641 H 157.59 -3.89681 -1.60396 0
M  V30 1642 H 156.265 -2.7121 -1.76711 0
M  V30 1643 H 155.172 -3.72764 0.315837 0
M  V30 1644 H 156.505 -4.90605 0.395924 0
M  V30 1645 N 158.157 -0.370918 -1.53173 0
M  V30 1646 C 159.107 0.489588 -2.22681 0
M  V30 1647 C 160.091 1.04442 -1.22395 0
M  V30 1648 O 161.283 0.973578 -1.47819 0
M  V30 1649 C 158.412 1.626 -3.02351 0
M  V30 1650 C 157.498 1.08379 -4.10018 0
M  V30 1651 N 157.889 0.265004 -5.05105 0
M  V30 1652 C 156.187 1.35809 -4.2482 0
M  V30 1653 C 156.888 -0.0324755 -5.81691 0
M  V30 1654 N 155.864 0.566581 -5.40639 0
M  V30 1655 H 159.666 -0.142729 -2.93553 0
M  V30 1656 H 157.18 -0.179221 -1.61408 0
M  V30 1657 H 159.177 2.2547 -3.50669 0
M  V30 1658 H 157.837 2.26132 -2.33011 0
M  V30 1659 H 158.848 -0.0962352 -5.17811 0
M  V30 1660 H 155.525 1.9958 -3.66707 0
M  V30 1661 H 156.915 -0.69473 -6.68299 0
M  V30 1662 N 159.635 1.57281 -0.100228 0
M  V30 1663 C 160.86 1.99302 0.573881 0
M  V30 1664 C 161.285 0.979059 1.60611 0
M  V30 1665 O 160.643 -0.0517803 1.81226 0
M  V30 1666 C 160.691 3.40274 1.19358 0
M  V30 1667 O 159.795 3.41676 2.30935 0
M  V30 1668 H 159.136 0.647944 0.145138 0
M  V30 1669 H 161.666 2.03779 -0.183156 0
M  V30 1670 H 161.676 3.78078 1.53365 0
M  V30 1671 H 160.351 4.13594 0.437385 0
M  V30 1672 H 158.928 3.15672 1.98509 0
M  V30 1673 N 161.113 -0.173488 1.56642 0
M  V30 1674 C 162.043 -1.2171 1.99271 0
M  V30 1675 C 163.024 -1.46289 0.867959 0
M  V30 1676 O 164.209 -1.5766 1.13388 0
M  V30 1677 C 161.339 -2.55651 2.35074 0
M  V30 1678 C 160.293 -2.45645 3.50489 0
M  V30 1679 C 159.619 -3.84056 3.72028 0
M  V30 1680 C 160.919 -1.96302 4.84007 0
M  V30 1681 H 162.613 -0.86275 2.867 0
M  V30 1682 H 160.159 -0.413571 1.37933 0
M  V30 1683 H 162.112 -3.2886 2.63494 0
M  V30 1684 H 160.836 -2.92869 1.44552 0
M  V30 1685 H 159.495 -1.7489 3.22194 0
M  V30 1686 H 159.143 -4.18664 2.788 0
M  V30 1687 H 158.843 -3.7823 4.49684 0
M  V30 1688 H 160.367 -4.58854 4.02846 0
M  V30 1689 H 161.781 -2.59284 5.11317 0
M  V30 1690 H 160.178 -2.01429 5.65284 0
M  V30 1691 H 161.248 -0.917226 4.76146 0
M  V30 1692 N 162.591 -1.51276 -0.441967 0
M  V30 1693 C 163.837 -1.63958 -1.19355 0
M  V30 1694 C 164.17 -0.352543 -1.90973 0
M  V30 1695 O 163.445 0.647627 -1.83401 0
M  V30 1696 C 163.728 -2.83979 -2.21422 0
M  V30 1697 C 163.581 -4.22646 -1.53918 0
M  V30 1698 C 164.9 -2.99521 -3.22451 0
M  V30 1699 H 162.019 -0.596709 -0.432559 0
M  V30 1700 H 164.661 -1.83748 -0.483398 0
M  V30 1701 H 162.811 -2.67237 -2.81987 0
M  V30 1702 H 164.483 -4.51045 -0.967256 0
M  V30 1703 H 162.726 -4.25558 -0.841615 0
M  V30 1704 H 163.397 -5.02609 -2.28229 0
M  V30 1705 H 165.873 -3.14944 -2.71937 0
M  V30 1706 H 164.749 -3.85072 -3.91166 0
M  V30 1707 H 165.01 -2.11391 -3.88287 0
M  V30 1708 N 164.069 0.697108 -1.41344 0
M  V30 1709 C 165.019 1.80313 -1.39539 0
M  V30 1710 C 166.003 1.58618 -0.270001 0
M  V30 1711 O 167.195 1.69477 -0.510551 0
M  V30 1712 C 164.324 3.18606 -1.27848 0
M  V30 1713 C 163.41 3.46001 -2.45244 0
M  V30 1714 N 163.801 3.44103 -3.70711 0
M  V30 1715 C 162.099 3.76542 -2.39023 0
M  V30 1716 C 162.8 3.7036 -4.48563 0
M  V30 1717 N 161.776 3.90027 -3.78655 0
M  V30 1718 H 165.578 1.77207 -2.34468 0
M  V30 1719 H 163.092 0.897031 -1.35378 0
M  V30 1720 H 165.089 3.97833 -1.24637 0
M  V30 1721 H 163.749 3.22925 -0.339032 0
M  V30 1722 H 164.76 3.2452 -4.03618 0
M  V30 1723 H 161.437 3.88241 -1.53542 0
M  V30 1724 H 162.827 3.75042 -5.57488 0
M  V30 1725 N 165.547 1.27147 0.931209 0
M  V30 1726 C 166.795 1.13055 1.6752 0
M  V30 1727 C 167.116 -0.324791 1.92276 0
M  V30 1728 O 166.386 -1.22775 1.52654 0
M  V30 1729 H 164.966 0.415391 0.620854 0
M  V30 1730 H 167.628 1.59623 1.11833 0
M  V30 1731 H 166.724 1.65694 2.64485 0
M  V30 1732 N 167.025 -1.13721 1.09112 0
M  V30 1733 C 167.955 -2.21148 0.749385 0
M  V30 1734 C 168.936 -1.6792 -0.271475 0
M  V30 1735 O 170.121 -1.93693 -0.140251 0
M  V30 1736 C 167.251 -3.46905 0.165659 0
M  V30 1737 C 166.205 -4.13203 1.11567 0
M  V30 1738 C 165.531 -5.33248 0.393809 0
M  V30 1739 C 166.831 -4.60912 2.45678 0
M  V30 1740 H 168.525 -2.4999 1.64758 0
M  V30 1741 H 166.071 -1.20156 0.793626 0
M  V30 1742 H 168.024 -4.21313 -0.085466 0
M  V30 1743 H 166.748 -3.17449 -0.767714 0
M  V30 1744 H 165.407 -3.40758 1.35202 0
M  V30 1745 H 165.055 -5.00054 -0.543599 0
M  V30 1746 H 164.755 -5.78552 1.02721 0
M  V30 1747 H 166.279 -6.10413 0.150908 0
M  V30 1748 H 167.693 -5.26759 2.26269 0
M  V30 1749 H 166.09 -5.16944 3.04776 0
M  V30 1750 H 167.16 -3.75603 3.06677 0
M  V30 1751 N 168.503 -0.877838 -1.30888 0
M  V30 1752 C 169.451 -0.328662 -2.30266 0
M  V30 1753 C 170.445 0.560496 -1.59859 0
M  V30 1754 O 171.651 0.445722 -1.74394 0
M  V30 1755 H 168.026 -0.0876142 -0.746879 0
M  V30 1756 H 169.997 -1.18061 -2.74051 0
M  V30 1757 C 168.746 0.448071 -3.44801 0
M  V30 1758 H 168.069 -0.226859 -3.99156 0
M  V30 1759 H 169.509 0.797541 -4.16432 0
M  V30 1760 C 167.968 1.64239 -2.94155 0
M  V30 1761 O 168.498 2.74175 -2.93583 0
M  V30 1762 N 166.704 1.47716 -2.50256 0
M  V30 1763 H 166.251 0.582821 -2.5092 0
M  V30 1764 H 166.209 2.27765 -2.16727 0
M  V30 1765 N 169.982 1.44106 -0.638065 0
M  V30 1766 C 170.945 2.29138 0.0531013 0
M  V30 1767 C 171.945 1.41409 0.765506 0
M  V30 1768 O 173.135 1.63206 0.609046 0
M  V30 1769 C 170.267 3.23144 1.08584 0
M  V30 1770 H 171.46 2.91739 -0.694883 0
M  V30 1771 H 169.013 1.51134 -0.398538 0
M  V30 1772 H 169.748 2.65408 1.86357 0
M  V30 1773 H 169.533 3.87804 0.578852 0
M  V30 1774 H 171.023 3.87004 1.56899 0
M  V30 1775 N 171.46 0.379036 1.52974 0
M  V30 1776 C 172.685 -0.209353 2.06341 0
M  V30 1777 C 173.11 -1.40583 1.24972 0
M  V30 1778 O 172.468 -1.79246 0.272155 0
M  V30 1779 C 172.516 -0.567786 3.56102 0
M  V30 1780 O 171.62 -1.66318 3.77375 0
M  V30 1781 H 170.961 -0.0272919 0.663439 0
M  V30 1782 H 173.491 0.543536 1.97248 0
M  V30 1783 H 173.501 -0.835003 3.99364 0
M  V30 1784 H 172.176 0.307013 4.14765 0
M  V30 1785 H 170.753 -1.39048 3.46006 0
M  V30 1786 N 172.938 -1.57226 0.108567 0
M  V30 1787 C 173.868 -2.17778 -0.84232 0
M  V30 1788 C 174.849 -1.11487 -1.2847 0
M  V30 1789 O 176.034 -1.39681 -1.34918 0
M  V30 1790 C 173.164 -2.76888 -2.09644 0
M  V30 1791 C 172.118 -3.88669 -1.79221 0
M  V30 1792 C 171.444 -4.34541 -3.11574 0
M  V30 1793 C 172.744 -5.11251 -1.06864 0
M  V30 1794 H 174.438 -2.97489 -0.337774 0
M  V30 1795 H 171.984 -1.43097 -0.161025 0
M  V30 1796 H 173.937 -3.17904 -2.76614 0
M  V30 1797 H 172.661 -1.94451 -2.62405 0
M  V30 1798 H 171.32 -3.48213 -1.14644 0
M  V30 1799 H 170.968 -3.48977 -3.62249 0
M  V30 1800 H 170.668 -5.09914 -2.91996 0
M  V30 1801 H 172.192 -4.782 -3.7968 0
M  V30 1802 H 173.606 -5.49352 -1.63968 0
M  V30 1803 H 172.003 -5.9214 -0.974178 0
M  V30 1804 H 173.073 -4.8487 -0.0536168 0
M  V30 1805 N 174.416 0.165178 -1.56732 0
M  V30 1806 C 175.364 1.22369 -1.97809 0
M  V30 1807 C 176.358 1.45488 -0.867741 0
M  V30 1808 O 177.564 1.45995 -1.05288 0
M  V30 1809 H 173.939 0.411486 -0.629431 0
M  V30 1810 H 175.91 0.850425 -2.86025 0
M  V30 1811 C 174.659 2.55403 -2.35934 0
M  V30 1812 H 173.982 2.38438 -3.20916 0
M  V30 1813 H 175.422 3.2814 -2.68514 0
M  V30 1814 C 173.881 3.14611 -1.20506 0
M  V30 1815 O 174.411 3.98626 -0.496016 0
M  V30 1816 N 172.617 2.7379 -0.97403 0
M  V30 1817 H 172.164 2.0557 -1.55238 0
M  V30 1818 H 172.122 3.1374 -0.203573 0
M  V30 1819 N 175.894 1.51508 0.433938 0
M  V30 1820 C 176.842 1.73646 1.54757 0
M  V30 1821 C 177.836 0.602854 1.5831 0
M  V30 1822 O 179.042 0.784318 1.62014 0
M  V30 1823 H 175.417 0.548718 0.51421 0
M  V30 1824 H 177.388 2.66991 1.33261 0
M  V30 1825 C 176.137 1.88172 2.92381 0
M  V30 1826 H 175.46 2.74808 2.90381 0
M  V30 1827 H 176.9 2.07672 3.6966 0
M  V30 1828 C 175.359 0.64239 3.30719 0
M  V30 1829 O 175.889 -0.201362 4.01195 0
M  V30 1830 N 174.095 0.485489 2.86516 0
M  V30 1831 H 173.642 1.17318 2.29334 0
M  V30 1832 H 173.6 -0.342482 3.12529 0
M  V30 1833 N 177.372 -0.689602 1.41712 0
M  V30 1834 C 178.783 -1.26973 1.36875 0
M  V30 1835 C 179.134 -1.96124 0.054748 0
M  V30 1836 O 178.259 -1.99141 -0.84687 0
M  V30 1837 C 178.854 -2.30912 2.47922 0
M  V30 1838 C 177.413 -2.84486 2.46464 0
M  V30 1839 C 176.56 -1.58603 2.27465 0
M  V30 1840 H 179.511 -0.48396 1.51141 0
M  V30 1841 H 179.532 -3.12331 2.17323 0
M  V30 1842 H 179.044 -1.80554 3.43543 0
M  V30 1843 H 177.145 -3.39005 1.54617 0
M  V30 1844 H 177.258 -3.34511 3.42986 0
M  V30 1845 H 175.622 -1.84632 1.75451 0
M  V30 1846 H 176.405 -1.10233 3.25121 0
M  V30 1847 N 178.85 -1.27639 -0.924453 0
M  V30 1848 C 179.798 -1.10485 -2.04685 0
M  V30 1849 C 180.792 -0.0270421 -1.69378 0
M  V30 1850 O 181.998 -0.185008 -1.79047 0
M  V30 1851 H 178.373 -0.340546 -0.670472 0
M  V30 1852 H 180.344 -2.05566 -2.16298 0
M  V30 1853 C 179.093 -0.772229 -3.39016 0
M  V30 1854 H 178.416 -1.59351 -3.66671 0
M  V30 1855 H 179.856 -0.692097 -4.18313 0
M  V30 1856 C 178.315 0.523554 -3.32807 0
M  V30 1857 O 178.845 1.55702 -3.70297 0
M  V30 1858 N 177.051 0.520363 -2.85903 0
M  V30 1859 H 176.598 -0.32107 -2.55591 0
M  V30 1860 H 176.556 1.38742 -2.82131 0
M  V30 1861 N 180.328 1.1314 -1.09713 0
M  V30 1862 C 181.576 1.84119 -0.833338 0
M  V30 1863 C 181.897 1.84097 0.642904 0
M  V30 1864 O 181.167 1.29881 1.46655 0
M  V30 1865 H 179.747 0.681766 -0.305293 0
M  V30 1866 H 182.409 1.37038 -1.38588 0
M  V30 1867 H 181.505 2.88543 -1.18951 0
M  V30 1868 N 181.806 0.884767 1.30421 0
M  V30 1869 C 182.769 0.356277 2.26414 0
M  V30 1870 C 183.769 -0.501124 1.52792 0
M  V30 1871 O 184.959 -0.30831 1.7145 0
M  V30 1872 C 182.091 -0.492316 3.37326 0
M  V30 1873 H 183.284 1.20389 2.74675 0
M  V30 1874 H 180.837 0.661607 1.41607 0
M  V30 1875 H 181.572 -1.36052 2.94381 0
M  V30 1876 H 181.357 0.121832 3.91911 0
M  V30 1877 H 182.847 -0.853871 4.08777 0
M  V30 1878 N 183.284 -1.43765 0.645699 0
M  V30 1879 C 184.247 -2.29163 -0.0409488 0
M  V30 1880 C 185.247 -1.41813 -0.757996 0
M  V30 1881 O 186.437 -1.63527 -0.600382 0
M  V30 1882 C 183.569 -3.23716 -1.06869 0
M  V30 1883 H 184.762 -2.91366 0.710345 0
M  V30 1884 H 182.315 -1.5092 0.406547 0
M  V30 1885 H 183.05 -2.66393 -1.84947 0
M  V30 1886 H 182.835 -3.88105 -0.558277 0
M  V30 1887 H 184.325 -3.87831 -1.54845 0
M  V30 1888 N 184.763 -0.387143 -1.52771 0
M  V30 1889 C 186.009 0.188506 -2.02525 0
M  V30 1890 C 186.364 1.44649 -1.26864 0
M  V30 1891 O 185.657 1.88189 -0.359945 0
M  V30 1892 C 185.851 0.512209 -3.53711 0
M  V30 1893 C 185.68 -0.712855 -4.44014 0
M  V30 1894 C 184.45 -1.23147 -4.90064 0
M  V30 1895 C 186.648 -1.58453 -4.89282 0
M  V30 1896 N 184.63 -2.41431 -5.64433 0
M  V30 1897 C 186.001 -2.61381 -5.6221 0
M  V30 1898 C 188.056 -1.60488 -4.71326 0
M  V30 1899 C 186.759 -3.66227 -6.19088 0
M  V30 1900 C 188.785 -2.6424 -5.29085 0
M  V30 1901 C 188.147 -3.6589 -6.01917 0
M  V30 1902 H 184.246 0.0311236 -0.78138 0
M  V30 1903 H 186.83 -0.536548 -1.87161 0
M  V30 1904 H 185.001 1.20632 -3.69192 0
M  V30 1905 H 186.733 1.07482 -3.90166 0
M  V30 1906 H 183.488 -0.792795 -4.66917 0
M  V30 1907 H 183.912 -3.01274 -6.0627 0
M  V30 1908 H 188.554 -0.83247 -4.14524 0
M  V30 1909 H 186.272 -4.44337 -6.74974 0
M  V30 1910 H 189.858 -2.66695 -5.17074 0
M  V30 1911 H 188.738 -4.44855 -6.45813 0
M  V30 1912 N 186.241 1.57166 -0.116904 0
M  V30 1913 C 187.189 2.16457 0.851418 0
M  V30 1914 C 188.183 1.11323 1.27686 0
M  V30 1915 O 189.389 1.2963 1.24884 0
M  V30 1916 H 185.764 0.69271 0.292672 0
M  V30 1917 H 187.735 2.96605 0.32685 0
M  V30 1918 C 186.484 2.77689 2.09246 0
M  V30 1919 H 185.807 3.58285 1.77402 0
M  V30 1920 H 187.247 3.22716 2.7501 0
M  V30 1921 C 185.706 1.74667 2.88085 0
M  V30 1922 O 186.236 1.19877 3.83396 0
M  V30 1923 N 184.442 1.44656 2.52038 0
M  V30 1924 H 183.989 1.89402 1.74599 0
M  V30 1925 H 183.947 0.759675 3.05084 0
M  V30 1926 N 187.719 -0.156864 1.56817 0
M  V30 1927 C 188.682 -1.17781 1.96622 0
M  V30 1928 C 189.682 -1.36401 0.851555 0
M  V30 1929 O 190.872 -1.33561 1.11836 0
M  V30 1930 C 188.004 -2.54008 2.27361 0
M  V30 1931 H 189.197 -0.836564 2.87996 0
M  V30 1932 H 186.75 -0.39985 1.51099 0
M  V30 1933 H 187.485 -2.9312 1.38748 0
M  V30 1934 H 187.27 -2.41856 3.08623 0
M  V30 1935 H 188.76 -3.27558 2.59029 0
M  V30 1936 N 189.197 -1.51736 -0.425897 0
M  V30 1937 C 190.445 -1.64644 -1.17204 0
M  V30 1938 C 190.766 -0.370486 -1.91448 0
M  V30 1939 O 190.036 0.614088 -1.86026 0
M  V30 1940 H 188.616 -0.606819 -0.435638 0
M  V30 1941 H 191.278 -1.88713 -0.487177 0
M  V30 1942 H 190.374 -2.47958 -1.89534 0
M  V30 1943 N 190.675 0.682077 -1.42076 0
M  V30 1944 C 191.905 1.46844 -1.45329 0
M  V30 1945 C 192.313 1.89102 -0.0609328 0
M  V30 1946 O 191.656 1.58238 0.933082 0
M  V30 1947 C 191.718 2.75375 -2.31104 0
M  V30 1948 C 191.382 2.55238 -3.79081 0
M  V30 1949 C 192.379 2.20309 -4.70914 0
M  V30 1950 C 190.064 2.70459 -4.2327 0
M  V30 1951 C 192.058 2.00859 -6.04925 0
M  V30 1952 C 189.745 2.50624 -5.57343 0
M  V30 1953 C 190.743 2.15876 -6.47986 0
M  V30 1954 O 190.431 1.96227 -7.79583 0
M  V30 1955 H 190.163 0.4586 -0.496651 0
M  V30 1956 H 192.717 0.846131 -1.87162 0
M  V30 1957 H 190.947 3.40061 -1.84107 0
M  V30 1958 H 192.636 3.37231 -2.25898 0
M  V30 1959 H 193.402 2.08153 -4.38061 0
M  V30 1960 H 189.281 2.96485 -3.53012 0
M  V30 1961 H 192.825 1.7366 -6.75639 0
M  V30 1962 H 188.722 2.62375 -5.89771 0
M  V30 1963 H 189.49 2.10883 -7.90867 0
M  V30 1964 N 192.153 1.28127 0.917671 0
M  V30 1965 C 193.399 1.15223 1.66888 0
M  V30 1966 C 193.732 -0.299293 1.9188 0
M  V30 1967 O 193.007 -1.21805 1.51637 0
M  V30 1968 C 193.29 1.94706 3.02922 0
M  V30 1969 C 193.143 3.47898 2.85109 0
M  V30 1970 C 194.462 1.75939 4.03402 0
M  V30 1971 H 191.581 0.419946 0.605652 0
M  V30 1972 H 194.223 1.57398 1.06423 0
M  V30 1973 H 192.373 1.58864 3.54534 0
M  V30 1974 H 194.045 3.93624 2.40537 0
M  V30 1975 H 192.288 3.7373 2.20246 0
M  V30 1976 H 192.959 3.98765 3.81694 0
M  V30 1977 H 195.435 2.07209 3.60837 0
M  V30 1978 H 194.311 2.33931 4.96556 0
M  V30 1979 H 194.572 0.709877 4.36364 0
M  V30 1980 N 193.631 -1.12557 1.10312 0
M  V30 1981 C 194.859 -1.87864 0.866873 0
M  V30 1982 C 195.274 -1.79588 -0.582557 0
M  V30 1983 O 194.631 -1.16887 -1.40156 0
M  V30 1984 C 194.682 -3.37125 1.30496 0
M  V30 1985 O 194.403 -3.45201 2.69755 0
M  V30 1986 C 195.904 -4.29373 1.10243 0
M  V30 1987 H 193.124 -0.594452 0.311236 0
M  V30 1988 H 195.668 -1.42429 1.46745 0
M  V30 1989 H 193.823 -3.80109 0.748081 0
M  V30 1990 H 194.237 -4.38056 2.88457 0
M  V30 1991 H 195.711 -5.32394 1.45811 0
M  V30 1992 H 196.188 -4.39181 0.0409492 0
M  V30 1993 H 196.794 -3.92169 1.64571 0
M  V30 1994 N 195.109 -0.891671 -1.2995 0
M  V30 1995 C 196.334 -0.527932 -2.00568 0
M  V30 1996 C 196.759 0.877969 -1.66353 0
M  V30 1997 O 196.117 1.58301 -0.883762 0
M  V30 1998 C 196.165 -0.717745 -3.53385 0
M  V30 1999 O 195.269 0.233376 -4.11739 0
M  V30 2000 H 194.61 -0.20722 -0.630837 0
M  V30 2001 H 197.14 -1.20105 -1.65638 0
M  V30 2002 H 197.15 -0.619307 -4.03272 0
M  V30 2003 H 195.825 -1.74276 -3.77625 0
M  V30 2004 H 194.402 0.0880706 -3.72796 0
M  V30 2005 N 196.587 1.43421 -0.653314 0
M  V30 2006 C 197.812 2.06678 -0.172846 0
M  V30 2007 C 198.237 1.48648 1.15262 0
M  V30 2008 O 197.595 0.596457 1.71208 0
M  V30 2009 C 197.643 3.60474 -0.0953184 0
M  V30 2010 O 196.747 4.01487 0.942442 0
M  V30 2011 H 196.088 0.657181 -0.0949155 0
M  V30 2012 H 198.618 1.83925 -0.896265 0
M  V30 2013 H 198.628 4.07905 0.0879728 0
M  V30 2014 H 197.303 4.02088 -1.06291 0
M  V30 2015 H 195.88 3.65646 0.731932 0
M  V30 2016 N 198.065 0.39524 1.52563 0
M  V30 2017 C 199.313 -0.184678 2.01254 0
M  V30 2018 C 199.634 -1.46822 1.28329 0
M  V30 2019 O 198.904 -1.91666 0.405094 0
M  V30 2020 H 197.484 -0.0712355 0.743596 0
M  V30 2021 H 200.146 0.528293 1.87603 0
M  V30 2022 H 199.242 -0.390681 3.09645 0
M  V30 2023 N 199.544 -1.57102 0.125237 0
M  V30 2024 C 200.492 -2.16905 -0.839927 0
M  V30 2025 C 201.486 -1.11998 -1.27094 0
M  V30 2026 O 202.692 -1.3029 -1.24195 0
M  V30 2027 H 199.067 -0.694252 -0.288995 0
M  V30 2028 H 201.038 -2.96774 -0.311115 0
M  V30 2029 C 199.787 -2.78795 -2.07771 0
M  V30 2030 H 199.11 -3.59221 -1.755 0
M  V30 2031 H 200.55 -3.2417 -2.73295 0
M  V30 2032 C 199.009 -1.76193 -2.87155 0
M  V30 2033 O 199.539 -1.21909 -3.82755 0
M  V30 2034 N 197.745 -1.45991 -2.51267 0
M  V30 2035 H 197.292 -1.90325 -1.73592 0
M  V30 2036 H 197.25 -0.775844 -3.04677 0
M  V30 2037 N 201.022 0.148545 -1.56898 0
M  V30 2038 C 201.952 1.18524 -2.01182 0
M  V30 2039 C 202.933 1.4489 -0.891123 0
M  V30 2040 O 204.118 1.55836 -1.15882 0
M  V30 2041 C 201.248 2.51879 -2.39112 0
M  V30 2042 C 200.202 2.40038 -3.54353 0
M  V30 2043 C 199.528 3.78089 -3.78091 0
M  V30 2044 C 200.828 1.88577 -4.87069 0
M  V30 2045 H 202.522 0.817029 -2.88036 0
M  V30 2046 H 200.068 0.391575 -1.38574 0
M  V30 2047 H 202.021 3.24627 -2.68692 0
M  V30 2048 H 200.745 2.90532 -1.49193 0
M  V30 2049 H 199.404 1.69742 -3.24936 0
M  V30 2050 H 199.052 4.14175 -2.85426 0
M  V30 2051 H 198.752 3.71028 -4.55645 0
M  V30 2052 H 200.276 4.52387 -4.10095 0
M  V30 2053 H 201.69 2.51117 -5.15377 0
M  V30 2054 H 200.087 1.9241 -5.68417 0
M  V30 2055 H 201.157 0.84136 -4.77545 0
M  V30 2056 N 202.5 1.5196 0.417844 0
M  V30 2057 C 203.746 1.65836 1.16732 0
M  V30 2058 C 204.079 0.382881 1.90388 0
M  V30 2059 O 203.354 -0.618368 1.84408 0
M  V30 2060 C 203.637 2.87466 2.16876 0
M  V30 2061 C 203.49 4.25041 1.47174 0
M  V30 2062 C 204.809 3.04613 3.17646 0
M  V30 2063 H 201.928 0.603515 0.423011 0
M  V30 2064 H 204.57 1.84494 0.454105 0
M  V30 2065 H 202.72 2.71689 2.777 0
M  V30 2066 H 204.392 4.52527 0.895376 0
M  V30 2067 H 202.635 4.26843 0.773806 0
M  V30 2068 H 203.306 5.06176 2.20204 0
M  V30 2069 H 205.782 3.1923 2.66892 0
M  V30 2070 H 204.658 3.91247 3.8499 0
M  V30 2071 H 204.919 2.17541 3.84874 0
M  V30 2072 N 203.978 -0.674533 1.42435 0
M  V30 2073 C 204.941 -1.76986 1.45632 0
M  V30 2074 C 205.941 -1.5708 0.343871 0
M  V30 2075 O 207.131 -1.63367 0.604709 0
M  V30 2076 C 204.263 -3.15623 1.28822 0
M  V30 2077 H 205.456 -1.75539 2.43158 0
M  V30 2078 H 203.009 -0.884189 1.28887 0
M  V30 2079 H 203.744 -3.22696 0.322193 0
M  V30 2080 H 203.529 -3.31475 2.09444 0
M  V30 2081 H 205.019 -3.95537 1.33942 0
M  V30 2082 N 205.456 -1.28612 -0.910864 0
M  V30 2083 C 206.733 -1.06632 -1.63979 0
M  V30 2084 C 207.113 0.393351 -2.07403 0
M  V30 2085 O 206.461 1.37999 -1.82122 0
M  V30 2086 C 206.671 -2.0436 -2.8291 0
M  V30 2087 C 208.019 -2.34666 -3.5386 0
M  V30 2088 O 209.043 -2.02467 -2.93062 0
M  V30 2089 O 207.902 -2.89631 -4.63439 0
M  V30 2090 H 204.996 -0.407737 -0.7195 0
M  V30 2091 H 207.542 -1.39942 -0.959914 0
M  V30 2092 H 206.314 -3.02727 -2.47936 0
M  V30 2093 H 205.937 -1.71714 -3.58609 0
M  V30 2094 N 206.934 1.1197 -1.10907 0
M  V30 2095 C 207.867 2.16998 -0.706192 0
M  V30 2096 C 208.845 1.59903 0.294897 0
M  V30 2097 O 210.029 1.87513 0.192636 0
M  V30 2098 C 207.156 3.38673 -0.0427664 0
M  V30 2099 C 206.202 4.14414 -1.00811 0
M  V30 2100 S 207.035 4.72079 -2.52789 0
M  V30 2101 C 208.191 5.97083 -1.87731 0
M  V30 2102 H 208.424 2.50837 -1.59587 0
M  V30 2103 H 205.957 1.23508 -0.926555 0
M  V30 2104 H 207.915 4.09142 0.333668 0
M  V30 2105 H 206.576 3.03105 0.823788 0
M  V30 2106 H 205.769 5.016 -0.491259 0
M  V30 2107 H 205.371 3.49678 -1.3267 0
M  V30 2108 H 207.663 6.66599 -1.21044 0
M  V30 2109 H 208.606 6.53403 -2.72892 0
M  V30 2110 H 209.014 5.4837 -1.33979 0
M  V30 2111 N 208.412 0.89855 1.29475 0
M  V30 2112 C 209.828 0.594483 1.48115 0
M  V30 2113 C 210.028 -0.86431 1.82022 0
M  V30 2114 O 209.084 -1.64457 1.91599 0
M  V30 2115 C 210.397 1.51932 2.59494 0
M  V30 2116 C 211.945 1.5244 2.7337 0
M  V30 2117 C 212.42 2.43548 3.87877 0
M  V30 2118 N 213.911 2.41589 3.95208 0
M  V30 2119 C 214.646 3.08789 4.83153 0
M  V30 2120 N 214.142 3.85265 5.75798 0
M  V30 2121 N 215.935 2.97952 4.76635 0
M  V30 2122 H 208.086 1.84207 1.05742 0
M  V30 2123 H 210.349 0.789251 0.525154 0
M  V30 2124 H 210.055 2.55865 2.41301 0
M  V30 2125 H 209.929 1.23899 3.56271 0
M  V30 2126 H 212.316 0.492518 2.90961 0
M  V30 2127 H 212.397 1.8451 1.77172 0
M  V30 2128 H 212.041 3.46829 3.71041 0
M  V30 2129 H 211.971 2.08788 4.83441 0
M  V30 2130 H 214.462 1.86025 3.28943 0
M  V30 2131 H 214.775 4.33598 6.39697 0
M  V30 2132 H 213.12 3.89371 5.75687 0
M  V30 2133 H 216.311 2.37723 4.03244 0
M  V30 2134 H 216.484 3.50599 5.44962 0
M  V30 2135 N 209.89 -1.43072 0.660911 0
M  V30 2136 C 211.137 -2.01721 0.177445 0
M  V30 2137 C 211.465 -1.5218 -1.21126 0
M  V30 2138 O 210.72 -0.708659 -1.82419 0
M  V30 2139 C 211.019 -3.57103 0.145563 0
M  V30 2140 C 210.685 -4.26021 1.47705 0
M  V30 2141 C 209.347 -4.44563 1.84165 0
M  V30 2142 C 211.699 -4.64983 2.35458 0
M  V30 2143 C 209.027 -4.99334 3.0803 0
M  V30 2144 C 211.379 -5.21127 3.58622 0
M  V30 2145 C 210.043 -5.37884 3.95268 0
M  V30 2146 H 209.313 -0.73815 0.0649317 0
M  V30 2147 H 211.96 -1.71446 0.853144 0
M  V30 2148 H 210.265 -3.86965 -0.61361 0
M  V30 2149 H 211.962 -4.00248 -0.2455 0
M  V30 2150 H 208.552 -4.11939 1.18339 0
M  V30 2151 H 212.736 -4.50343 2.08579 0
M  V30 2152 H 207.992 -5.10493 3.36462 0
M  V30 2153 H 212.166 -5.50262 4.26831 0
M  V30 2154 H 209.793 -5.80089 4.91325 0
M  V30 2155 N 211.368 -0.403325 -1.52352 0
M  V30 2156 C 212.316 0.439752 -2.28405 0
M  V30 2157 C 213.31 1.05089 -1.32863 0
M  V30 2158 O 214.516 0.989759 -1.50345 0
M  V30 2159 H 210.891 0.160587 -0.734653 0
M  V30 2160 H 212.862 -0.222983 -2.97566 0
M  V30 2161 C 211.611 1.54736 -3.11371 0
M  V30 2162 H 210.934 1.08643 -3.84755 0
M  V30 2163 H 212.374 2.1112 -3.67701 0
M  V30 2164 C 210.833 2.51141 -2.24566 0
M  V30 2165 O 211.363 3.54887 -1.88196 0
M  V30 2166 N 209.569 2.21213 -1.8845 0
M  V30 2167 H 209.116 1.36878 -2.18225 0
M  V30 2168 H 209.074 2.85963 -1.30662 0
M  V30 2169 N 212.846 1.57033 -0.133567 0
M  V30 2170 C 214.092 1.95976 0.521649 0
M  V30 2171 C 214.425 1.01779 1.65393 0
M  V30 2172 O 213.7 0.0576581 1.94415 0
M  V30 2173 C 213.983 3.44738 1.04057 0
M  V30 2174 C 213.836 4.49711 -0.0892897 0
M  V30 2175 C 215.155 3.95682 1.92675 0
M  V30 2176 H 212.274 0.712579 0.188149 0
M  V30 2177 H 214.916 1.88813 -0.212076 0
M  V30 2178 H 213.066 3.50973 1.66583 0
M  V30 2179 H 214.738 4.55565 -0.725152 0
M  V30 2180 H 212.981 4.27261 -0.750378 0
M  V30 2181 H 213.652 5.51099 0.315284 0
M  V30 2182 H 216.128 3.91841 1.39998 0
M  V30 2183 H 215.004 5.00262 2.25897 0
M  V30 2184 H 215.265 3.37239 2.85872 0
M  V30 2185 N 214.325 -0.140222 1.56975 0
M  V30 2186 C 215.571 -0.852949 1.83991 0
M  V30 2187 C 215.904 -1.80512 0.716187 0
M  V30 2188 O 215.179 -1.92479 -0.279681 0
M  V30 2189 C 215.462 -1.6215 3.21527 0
M  V30 2190 C 215.315 -0.690363 4.4447 0
M  V30 2191 C 216.634 -2.58247 3.56366 0
M  V30 2192 H 213.753 -0.308634 0.669264 0
M  V30 2193 H 216.395 -0.117898 1.89634 0
M  V30 2194 H 214.545 -2.24812 3.16847 0
M  V30 2195 H 216.217 -0.0742264 4.6124 0
M  V30 2196 H 214.46 -0.000396433 4.338 0
M  V30 2197 H 215.131 -1.2643 5.37326 0
M  V30 2198 H 217.607 -2.05701 3.61699 0
M  V30 2199 H 216.483 -3.09067 4.53617 0
M  V30 2200 H 216.744 -3.39923 2.82674 0
M  V30 2201 N 215.803 -1.52179 -0.40978 0
M  V30 2202 C 217.219 -1.40968 -0.74835 0
M  V30 2203 C 217.419 -0.513657 -1.94843 0
M  V30 2204 O 216.475 0.0208026 -2.52491 0
M  V30 2205 C 217.788 -2.83483 -1.0029 0
M  V30 2206 C 219.336 -2.92821 -1.10565 0
M  V30 2207 C 219.811 -4.36303 -1.39296 0
M  V30 2208 N 221.302 -4.39535 -1.46162 0
M  V30 2209 C 222.037 -5.47614 -1.70018 0
M  V30 2210 N 221.533 -6.65812 -1.91483 0
M  V30 2211 N 223.326 -5.35129 -1.72027 0
M  V30 2212 H 215.477 -2.0897 0.380186 0
M  V30 2213 H 217.74 -0.94185 0.107805 0
M  V30 2214 H 217.446 -3.51168 -0.193461 0
M  V30 2215 H 217.32 -3.24487 -1.92323 0
M  V30 2216 H 219.707 -2.25318 -1.90568 0
M  V30 2217 H 219.788 -2.55276 -0.16369 0
M  V30 2218 H 219.432 -5.04366 -0.598109 0
M  V30 2219 H 219.362 -4.71385 -2.34743 0
M  V30 2220 H 221.853 -3.54332 -1.31367 0
M  V30 2221 H 222.166 -7.43964 -2.09134 0
M  V30 2222 H 220.511 -6.68879 -1.88749 0
M  V30 2223 H 223.702 -4.41764 -1.54796 0
M  V30 2224 H 223.875 -6.19433 -1.9028 0
M  V30 2225 N 217.281 0.66697 -1.42791 0
M  V30 2226 C 218.191 1.80962 -1.49299 0
M  V30 2227 C 219.207 1.69775 -0.381108 0
M  V30 2228 O 220.383 1.91188 -0.633188 0
M  V30 2229 C 217.448 3.17156 -1.40045 0
M  V30 2230 C 216.509 3.40242 -2.6179 0
M  V30 2231 C 215.742 4.69939 -2.52969 0
M  V30 2232 O 215.965 5.48372 -1.56985 0
M  V30 2233 O 214.899 4.94441 -3.43237 0
M  V30 2234 H 218.725 1.78427 -2.45759 0
M  V30 2235 H 216.31 0.823713 -1.24641 0
M  V30 2236 H 218.192 3.98413 -1.37276 0
M  V30 2237 H 216.867 3.20312 -0.467138 0
M  V30 2238 H 215.774 2.58802 -2.70134 0
M  V30 2239 H 217.107 3.41923 -3.54047 0
M  V30 2240 N 218.759 1.29093 0.90403 0
M  V30 2241 C 219.984 1.19809 1.69294 0
M  V30 2242 C 220.409 -0.238481 1.86582 0
M  V30 2243 O 219.767 -1.1723 1.383 0
M  V30 2244 C 219.815 1.91202 3.05736 0
M  V30 2245 O 218.919 1.22611 3.93752 0
M  V30 2246 H 218.26 0.415385 0.518027 0
M  V30 2247 H 220.79 1.70586 1.12967 0
M  V30 2248 H 220.8 1.99487 3.55906 0
M  V30 2249 H 219.475 2.95692 2.92471 0
M  V30 2250 H 218.052 1.22554 3.52186 0
M  V30 2251 N 220.237 -1.11381 1.11499 0
M  V30 2252 C 221.147 -2.21019 0.786628 0
M  V30 2253 C 222.163 -1.72597 -0.220507 0
M  V30 2254 O 223.339 -2.01321 -0.0565251 0
M  V30 2255 C 220.404 -3.459 0.235333 0
M  V30 2256 C 219.465 -4.09107 1.30115 0
M  V30 2257 C 218.698 -5.28027 0.776068 0
M  V30 2258 O 218.921 -5.6904 -0.393661 0
M  V30 2259 O 217.855 -5.81835 1.54114 0
M  V30 2260 H 221.681 -2.51521 1.70209 0
M  V30 2261 H 219.266 -1.19928 0.890928 0
M  V30 2262 H 221.148 -4.21346 -0.067715 0
M  V30 2263 H 219.823 -3.17049 -0.652828 0
M  V30 2264 H 218.73 -3.35391 1.65722 0
M  V30 2265 H 220.063 -4.42139 2.16273 0
M  V30 2266 N 221.715 -0.905404 -1.28997 0
M  V30 2267 C 222.678 -0.392253 -2.25819 0
M  V30 2268 C 223.678 0.476753 -1.5357 0
M  V30 2269 O 224.868 0.280994 -1.71919 0
M  V30 2270 C 222 0.438588 -3.38067 0
M  V30 2271 H 223.193 -1.24743 -2.72725 0
M  V30 2272 H 220.746 -0.684051 -1.40536 0
M  V30 2273 H 221.481 1.31352 -2.96508 0
M  V30 2274 H 221.266 -0.184167 -3.91667 0
M  V30 2275 H 222.756 0.78873 -4.10084 0
M  V30 2276 N 223.193 1.4272 -0.668489 0
M  V30 2277 C 224.609 1.55992 -0.33745 0
M  V30 2278 C 224.809 1.64933 1.15756 0
M  V30 2279 O 223.865 1.61278 1.94282 0
M  V30 2280 C 225.178 2.81314 -1.06222 0
M  V30 2281 C 226.726 2.95078 -1.04394 0
M  V30 2282 C 227.201 4.23252 -1.74991 0
M  V30 2283 N 228.692 4.3015 -1.71829 0
M  V30 2284 C 229.427 5.28127 -2.23315 0
M  V30 2285 N 228.923 6.32293 -2.83156 0
M  V30 2286 N 230.716 5.19882 -2.13726 0
M  V30 2287 H 222.867 1.3516 -1.63846 0
M  V30 2288 H 225.13 0.650174 -0.689912 0
M  V30 2289 H 224.836 2.80823 -2.11734 0
M  V30 2290 H 224.71 3.72012 -0.62344 0
M  V30 2291 H 227.097 2.951 0.0028244 0
M  V30 2292 H 227.178 2.05627 -1.52155 0
M  V30 2293 H 226.822 4.2399 -2.79633 0
M  V30 2294 H 226.752 5.11626 -1.24685 0
M  V30 2295 H 229.243 3.55499 -1.28175 0
M  V30 2296 H 229.556 7.03398 -3.20079 0
M  V30 2297 H 227.901 6.32873 -2.87223 0
M  V30 2298 H 231.092 4.37423 -1.66669 0
M  V30 2299 H 231.265 5.96077 -2.54158 0
M  V30 2300 N 224.671 0.411399 1.52136 0
M  V30 2301 C 225.601 -0.404015 2.29978 0
M  V30 2302 C 226.582 -1.04412 1.34284 0
M  V30 2303 O 227.767 -1.0527 1.63192 0
M  V30 2304 C 224.897 -1.5197 3.12286 0
M  V30 2305 C 223.851 -1.00448 4.16046 0
M  V30 2306 C 223.177 -2.21393 4.86712 0
M  V30 2307 C 224.477 -0.0569336 5.22269 0
M  V30 2308 H 226.171 0.245529 2.98392 0
M  V30 2309 H 223.717 0.119525 1.43503 0
M  V30 2310 H 225.67 -2.09715 3.6551 0
M  V30 2311 H 224.394 -2.19716 2.41646 0
M  V30 2312 H 223.053 -0.449421 3.63835 0
M  V30 2313 H 222.701 -2.87699 4.12599 0
M  V30 2314 H 222.401 -1.87571 5.56858 0
M  V30 2315 H 223.925 -2.7974 5.4275 0
M  V30 2316 H 225.339 -0.54325 5.7072 0
M  V30 2317 H 223.736 0.192594 5.99791 0
M  V30 2318 H 224.806 0.887663 4.76706 0
M  V30 2319 N 226.149 -1.5696 0.141893 0
M  V30 2320 C 227.081 -2.13619 -0.830627 0
M  V30 2321 C 228.094 -1.08439 -1.21428 0
M  V30 2322 O 229.283 -1.35734 -1.15925 0
M  V30 2323 C 226.383 -2.63978 -2.12529 0
M  V30 2324 C 225.556 -3.93504 -1.9098 0
M  V30 2325 C 224.615 -4.29225 -3.04388 0
M  V30 2326 O 223.641 -4.97641 -2.76302 0
M  V30 2327 N 224.843 -3.88393 -4.31429 0
M  V30 2328 H 227.608 -2.97691 -0.34641 0
M  V30 2329 H 225.169 -1.61846 -0.0418375 0
M  V30 2330 H 227.161 -2.84891 -2.87436 0
M  V30 2331 H 225.731 -1.84659 -2.52229 0
M  V30 2332 H 224.951 -3.81269 -1.00139 0
M  V30 2333 H 226.239 -4.78154 -1.73914 0
M  V30 2334 H 225.637 -3.33257 -4.57117 0
M  V30 2335 H 224.194 -4.14368 -5.03133 0
M  V30 2336 N 227.627 0.131896 -1.57047 0
M  V30 2337 C 228.873 0.843179 -1.84441 0
M  V30 2338 C 229.206 1.80129 -0.725749 0
M  V30 2339 O 228.481 1.92624 0.269469 0
M  V30 2340 C 228.764 1.60442 -3.22382 0
M  V30 2341 C 228.617 0.666782 -4.4483 0
M  V30 2342 C 229.936 2.56354 -3.5773 0
M  V30 2343 H 227.055 0.305081 -0.670891 0
M  V30 2344 H 229.697 0.107839 -1.89694 0
M  V30 2345 H 227.847 2.23128 -3.18035 0
M  V30 2346 H 229.519 0.0497646 -4.61273 0
M  V30 2347 H 227.762 -0.022609 -4.33794 0
M  V30 2348 H 228.433 1.23579 -5.37989 0
M  V30 2349 H 230.909 2.0378 -3.62785 0
M  V30 2350 H 229.785 3.06657 -4.5525 0
M  V30 2351 H 230.046 3.38419 -2.84473 0
M  V30 2352 N 229.106 1.52395 0.401703 0
M  V30 2353 C 230.331 1.70972 1.17403 0
M  V30 2354 C 230.756 0.421615 1.83314 0
M  V30 2355 O 230.114 -0.621564 1.70312 0
M  V30 2356 C 230.162 2.85151 2.20728 0
M  V30 2357 O 229.266 2.51238 3.27037 0
M  V30 2358 H 228.607 0.568927 0.342372 0
M  V30 2359 H 231.137 1.99131 0.469891 0
M  V30 2360 H 231.147 3.10279 2.64936 0
M  V30 2361 H 229.822 3.78603 1.7214 0
M  V30 2362 H 228.399 2.36808 2.88057 0
M  V30 2363 N 230.584 -0.659388 1.43143 0
M  V30 2364 C 232 -0.974337 1.26407 0
M  V30 2365 C 232.2 -2.007 0.179341 0
M  V30 2366 O 231.256 -2.4856 -0.444295 0
M  V30 2367 C 232.569 -1.46447 2.62628 0
M  V30 2368 C 234.117 -1.58144 2.7011 0
M  V30 2369 C 234.592 -2.1055 4.06734 0
M  V30 2370 N 236.083 -2.17861 4.08767 0
M  V30 2371 C 236.818 -2.59519 5.1131 0
M  V30 2372 N 236.314 -3.00518 6.24228 0
M  V30 2373 N 238.107 -2.59404 4.98664 0
M  V30 2374 H 230.258 0.0240528 2.12386 0
M  V30 2375 H 232.521 -0.0518065 0.946583 0
M  V30 2376 H 232.227 -0.780123 3.42939 0
M  V30 2377 H 232.101 -2.44058 2.87603 0
M  V30 2378 H 234.488 -2.25682 1.90136 0
M  V30 2379 H 234.569 -0.589828 2.48907 0
M  V30 2380 H 234.213 -1.43616 4.87172 0
M  V30 2381 H 234.143 -3.10531 4.25298 0
M  V30 2382 H 236.634 -1.88975 3.27257 0
M  V30 2383 H 236.947 -3.31036 6.98309 0
M  V30 2384 H 235.292 -2.98337 6.2771 0
M  V30 2385 H 238.483 -2.26747 4.09516 0
M  V30 2386 H 238.656 -2.91548 5.78709 0
M  V30 2387 N 232.062 -1.29571 -0.897171 0
M  V30 2388 C 232.992 -1.17473 -2.01798 0
M  V30 2389 C 233.973 -0.068323 -1.69963 0
M  V30 2390 O 235.158 -0.248239 -1.92607 0
M  V30 2391 C 232.288 -0.853099 -3.36659 0
M  V30 2392 C 231.242 -1.9161 -3.82713 0
M  V30 2393 C 230.568 -1.44773 -5.14728 0
M  V30 2394 C 231.868 -3.32535 -4.02763 0
M  V30 2395 H 233.562 -2.11237 -2.12177 0
M  V30 2396 H 231.108 -1.01699 -1.01948 0
M  V30 2397 H 233.061 -0.755165 -4.14578 0
M  V30 2398 H 231.785 0.120236 -3.26379 0
M  V30 2399 H 230.444 -2.00346 -3.07013 0
M  V30 2400 H 230.092 -0.462995 -5.00865 0
M  V30 2401 H 229.792 -2.15865 -5.46513 0
M  V30 2402 H 231.316 -1.36334 -5.95185 0
M  V30 2403 H 232.73 -3.26626 -4.71156 0
M  V30 2404 H 231.127 -4.01607 -4.45905 0
M  V30 2405 H 232.197 -3.75326 -3.07016 0
M  V30 2406 N 233.54 1.10788 -1.12088 0
M  V30 2407 C 234.77 1.86191 -0.895351 0
M  V30 2408 C 235.178 1.80763 0.558702 0
M  V30 2409 O 234.521 1.19188 1.39785 0
M  V30 2410 C 234.583 3.35659 -1.28737 0
M  V30 2411 C 234.247 3.64849 -2.75198 0
M  V30 2412 C 235.244 3.61757 -3.734 0
M  V30 2413 C 232.929 3.93641 -3.12013 0
M  V30 2414 C 234.923 3.87045 -5.06434 0
M  V30 2415 C 232.61 4.18585 -4.4523 0
M  V30 2416 C 233.608 4.15277 -5.42249 0
M  V30 2417 O 233.296 4.3959 -6.73065 0
M  V30 2418 H 233.028 0.595425 -0.32007 0
M  V30 2419 H 235.582 1.40992 -1.49367 0
M  V30 2420 H 233.812 3.81497 -0.63224 0
M  V30 2421 H 235.501 3.92441 -1.03656 0
M  V30 2422 H 236.267 3.39557 -3.46303 0
M  V30 2423 H 232.146 3.95348 -2.37109 0
M  V30 2424 H 235.69 3.84378 -5.82151 0
M  V30 2425 H 231.587 4.40264 -4.72057 0
M  V30 2426 H 232.355 4.57123 -6.78956 0
M  V30 2427 N 235.018 0.912232 1.28515 0
M  V30 2428 C 236.243 0.559774 1.99703 0
M  V30 2429 C 236.668 -0.851393 1.67729 0
M  V30 2430 O 236.026 -1.56875 0.908834 0
M  V30 2431 C 236.074 0.773874 3.52198 0
M  V30 2432 O 235.178 -0.167842 4.12058 0
M  V30 2433 H 234.519 0.21723 0.627461 0
M  V30 2434 H 237.049 1.22725 1.63706 0
M  V30 2435 H 237.059 0.683386 4.02236 0
M  V30 2436 H 235.734 1.80261 3.74805 0
M  V30 2437 H 234.311 -0.0287509 3.72889 0
M  V30 2438 N 236.496 -1.42363 0.676048 0
M  V30 2439 C 237.429 -2.28141 -0.0516916 0
M  V30 2440 C 238.407 -1.41135 -0.807439 0
M  V30 2441 O 239.591 -1.70573 -0.802305 0
M  V30 2442 C 236.718 -3.21007 -1.08039 0
M  V30 2443 C 235.764 -4.24426 -0.420076 0
M  V30 2444 S 236.597 -5.29134 0.823246 0
M  V30 2445 C 237.753 -6.25566 -0.204344 0
M  V30 2446 H 237.986 -2.89515 0.675884 0
M  V30 2447 H 235.519 -1.47211 0.465635 0
M  V30 2448 H 237.477 -3.75048 -1.66881 0
M  V30 2449 H 236.138 -2.58766 -1.78042 0
M  V30 2450 H 235.331 -4.89596 -1.19633 0
M  V30 2451 H 234.933 -3.7388 0.0947845 0
M  V30 2452 H 237.225 -6.69098 -1.06369 0
M  V30 2453 H 238.168 -7.06895 0.412915 0
M  V30 2454 H 238.576 -5.61811 -0.55038 0
M  V30 2455 N 237.974 -0.419461 -1.51915 0
M  V30 2456 C 239.202 0.152136 -2.0634 0
M  V30 2457 C 239.617 1.37988 -1.28859 0
M  V30 2458 O 238.974 1.79243 -0.343232 0
M  V30 2459 C 239.025 0.492266 -3.58133 0
M  V30 2460 O 238.746 -0.686736 -4.32684 0
M  V30 2461 C 240.247 1.11648 -4.2901 0
M  V30 2462 H 237.467 0.0158325 -0.670813 0
M  V30 2463 H 240.011 -0.593394 -1.95702 0
M  V30 2464 H 238.166 1.18769 -3.68745 0
M  V30 2465 H 238.58 -0.400341 -5.2297 0
M  V30 2466 H 240.054 1.3046 -5.36362 0
M  V30 2467 H 240.531 2.09251 -3.86148 0
M  V30 2468 H 241.137 0.460958 -4.22795 0
M  V30 2469 N 239.452 1.56882 -0.150215 0
M  V30 2470 C 240.362 2.20494 0.801222 0
M  V30 2471 C 241.378 1.19019 1.26927 0
M  V30 2472 O 242.554 1.51607 1.32579 0
M  V30 2473 C 239.619 2.81659 2.02161 0
M  V30 2474 C 238.68 3.9827 1.60249 0
M  V30 2475 C 237.913 4.56508 2.7647 0
M  V30 2476 O 238.136 4.13627 3.92771 0
M  V30 2477 O 237.07 5.46719 2.51757 0
M  V30 2478 H 240.896 3.02315 0.289717 0
M  V30 2479 H 238.481 1.49202 0.0769684 0
M  V30 2480 H 240.363 3.20522 2.73576 0
M  V30 2481 H 239.038 2.02849 2.52258 0
M  V30 2482 H 237.945 3.64117 0.858477 0
M  V30 2483 H 239.278 4.78609 1.14864 0
M  V30 2484 N 240.93 -0.123565 1.57115 0
M  V30 2485 C 242.207 -0.862196 1.75572 0
M  V30 2486 C 242.587 -1.98279 0.724475 0
M  V30 2487 O 241.935 -2.27102 -0.252407 0
M  V30 2488 C 242.145 -1.38309 3.20424 0
M  V30 2489 C 243.493 -1.83724 3.82793 0
M  V30 2490 O 244.517 -1.47999 3.23998 0
M  V30 2491 O 243.376 -2.49685 4.86127 0
M  V30 2492 H 240.47 -0.409113 0.718718 0
M  V30 2493 H 243.016 -0.107661 1.69358 0
M  V30 2494 H 241.788 -0.578889 3.86994 0
M  V30 2495 H 241.411 -2.20046 3.31158 0
M  V30 2496 N 242.408 -1.52605 -0.393616 0
M  V30 2497 C 243.318 -1.79971 -1.50492 0
M  V30 2498 C 244.334 -0.686181 -1.59899 0
M  V30 2499 O 245.51 -0.973274 -1.76322 0
M  V30 2500 C 242.575 -1.95867 -2.86072 0
M  V30 2501 C 241.636 -3.19781 -2.86424 0
M  V30 2502 C 240.869 -3.34909 -4.15538 0
M  V30 2503 O 241.092 -2.54948 -5.10253 0
M  V30 2504 O 240.026 -4.28141 -4.23059 0
M  V30 2505 H 243.852 -2.74328 -1.30299 0
M  V30 2506 H 241.437 -1.3764 -0.581005 0
M  V30 2507 H 243.319 -2.08056 -3.66457 0
M  V30 2508 H 241.994 -1.04699 -3.063 0
M  V30 2509 H 240.901 -3.13038 -2.04837 0
M  V30 2510 H 242.234 -4.1078 -2.71147 0
M  V30 2511 N 243.887 0.651787 -1.4349 0
M  V30 2512 C 245.135 1.40888 -1.44897 0
M  V30 2513 C 245.456 1.94856 -0.0749086 0
M  V30 2514 O 244.726 1.74518 0.889956 0
M  V30 2515 H 243.306 0.522887 -0.533478 0
M  V30 2516 H 245.968 0.768609 -1.79104 0
M  V30 2517 H 245.064 2.25052 -2.16236 0
M  V30 2518 N 245.365 1.30045 0.890287 0
M  V30 2519 C 246.611 1.18737 1.64406 0
M  V30 2520 C 246.944 -0.258525 1.92472 0
M  V30 2521 O 246.219 -1.18562 1.54186 0
M  V30 2522 C 246.502 2.01087 2.98724 0
M  V30 2523 C 246.355 3.53867 2.77665 0
M  V30 2524 C 247.674 1.84457 3.9958 0
M  V30 2525 H 244.793 0.432698 0.596608 0
M  V30 2526 H 247.435 1.5962 1.0306 0
M  V30 2527 H 245.585 1.66349 3.51084 0
M  V30 2528 H 247.257 3.98637 2.32133 0
M  V30 2529 H 245.5 3.78318 2.12269 0
M  V30 2530 H 246.171 4.06772 3.7315 0
M  V30 2531 H 248.647 2.14817 3.56361 0
M  V30 2532 H 247.523 2.44411 4.91482 0
M  V30 2533 H 247.784 0.802276 4.3476 0
M  V30 2534 N 246.843 -1.10192 1.12674 0
M  V30 2535 C 248.259 -1.34235 0.863317 0
M  V30 2536 C 248.459 -1.95062 -0.505277 0
M  V30 2537 O 247.515 -2.19192 -1.25345 0
M  V30 2538 C 248.828 -2.2616 1.98172 0
M  V30 2539 C 250.376 -2.3969 2.0129 0
M  V30 2540 C 250.851 -3.34946 3.1237 0
M  V30 2541 N 252.342 -3.42515 3.11829 0
M  V30 2542 C 253.077 -4.16199 3.94419 0
M  V30 2543 N 252.573 -4.92747 4.87004 0
M  V30 2544 N 254.366 -4.11843 3.82547 0
M  V30 2545 H 246.517 -0.690798 2.00853 0
M  V30 2546 H 248.78 -0.366774 0.874174 0
M  V30 2547 H 248.486 -1.8868 2.96804 0
M  V30 2548 H 248.36 -3.26488 1.88906 0
M  V30 2549 H 250.747 -2.76438 1.03276 0
M  V30 2550 H 250.828 -1.39169 2.14629 0
M  V30 2551 H 250.472 -2.98923 4.10619 0
M  V30 2552 H 250.402 -4.35353 2.96269 0
M  V30 2553 H 252.893 -2.87926 2.44759 0
M  V30 2554 H 253.206 -5.46376 5.46528 0
M  V30 2555 H 251.551 -4.91862 4.91016 0
M  V30 2556 H 254.742 -3.51136 3.0955 0
M  V30 2557 H 254.915 -4.69007 4.47142 0
M  V30 2558 N 248.321 -0.919034 -1.28029 0
M  V30 2559 C 249.598 -0.473668 -1.89778 0
M  V30 2560 C 249.978 1.04783 -1.83259 0
M  V30 2561 O 249.326 1.8982 -1.27202 0
M  V30 2562 C 249.536 -1.00998 -3.34066 0
M  V30 2563 C 250.884 -1.06525 -4.1102 0
M  V30 2564 O 251.908 -0.958996 -3.43048 0
M  V30 2565 O 250.767 -1.22776 -5.3253 0
M  V30 2566 H 247.861 -0.15098 -0.813101 0
M  V30 2567 H 250.407 -1.01016 -1.36359 0
M  V30 2568 H 249.179 -2.05392 -3.33061 0
M  V30 2569 H 248.802 -0.454626 -3.94992 0
M  V30 2570 N 249.799 1.42003 -0.683588 0
M  V30 2571 C 250.732 2.28166 0.039592 0
M  V30 2572 C 251.71 1.41562 0.799942 0
M  V30 2573 O 252.894 1.70997 0.793248 0
M  V30 2574 C 250.021 3.21575 1.06335 0
M  V30 2575 C 249.067 4.24643 0.397562 0
M  V30 2576 S 249.9 5.2869 -0.851296 0
M  V30 2577 C 251.056 6.25666 0.171166 0
M  V30 2578 H 251.289 2.89153 -0.691229 0
M  V30 2579 H 248.822 1.46962 -0.473435 0
M  V30 2580 H 250.78 3.75928 1.6489 0
M  V30 2581 H 249.441 2.59707 1.76667 0
M  V30 2582 H 248.634 4.90223 1.17035 0
M  V30 2583 H 248.236 3.73824 -0.114611 0
M  V30 2584 H 250.528 6.69653 1.02819 0
M  V30 2585 H 251.471 7.06666 -0.450397 0
M  V30 2586 H 251.879 5.62095 0.520578 0
M  V30 2587 N 251.277 0.427512 1.51691 0
M  V30 2588 C 252.207 -0.3796 2.30394 0
M  V30 2589 C 253.188 -1.02982 1.35384 0
M  V30 2590 O 254.373 -1.03534 1.643 0
M  V30 2591 C 251.503 -1.48649 3.1388 0
M  V30 2592 C 250.457 -0.960294 4.17088 0
M  V30 2593 C 249.783 -2.16219 4.89033 0
M  V30 2594 C 251.083 -0.00153679 5.223 0
M  V30 2595 H 252.777 0.277164 2.98114 0
M  V30 2596 H 250.323 0.134739 1.43368 0
M  V30 2597 H 252.276 -2.05826 3.67714 0
M  V30 2598 H 251 -2.1714 2.43962 0
M  V30 2599 H 249.659 -0.410806 3.64291 0
M  V30 2600 H 249.307 -2.83307 4.15628 0
M  V30 2601 H 249.007 -1.81654 5.58816 0
M  V30 2602 H 250.531 -2.73968 5.45687 0
M  V30 2603 H 251.945 -0.482687 5.71264 0
M  V30 2604 H 250.342 0.256199 5.99553 0
M  V30 2605 H 251.412 0.938174 4.75738 0
M  V30 2606 N 252.755 -1.56801 0.158532 0
M  V30 2607 C 253.702 -2.17337 -0.776729 0
M  V30 2608 C 254.672 -1.1096 -1.23601 0
M  V30 2609 O 255.857 -1.39054 -1.30647 0
M  V30 2610 C 252.997 -2.80822 -2.00582 0
M  V30 2611 C 252.11 -4.01624 -1.59129 0
M  V30 2612 C 251.245 -4.53072 -2.77306 0
M  V30 2613 C 250.284 -5.66314 -2.32282 0
M  V30 2614 N 249.421 -6.12329 -3.43508 0
M  V30 2615 H 254.261 -2.96918 -0.253701 0
M  V30 2616 H 251.798 -1.46661 -0.113504 0
M  V30 2617 H 253.756 -3.15779 -2.72652 0
M  V30 2618 H 252.386 -2.03866 -2.50277 0
M  V30 2619 H 251.438 -3.72571 -0.767806 0
M  V30 2620 H 252.75 -4.83633 -1.2207 0
M  V30 2621 H 251.904 -4.90145 -3.57551 0
M  V30 2622 H 250.643 -3.70095 -3.17617 0
M  V30 2623 H 249.648 -5.28806 -1.5048 0
M  V30 2624 H 250.873 -6.51085 -1.93043 0
M  V30 2625 H 248.819 -5.32284 -3.83418 0
M  V30 2626 H 248.736 -6.89293 -3.105 0
M  V30 2627 H 250.004 -6.5405 -4.24075 0
M  V30 2628 N 254.233 0.115231 -1.57178 0
M  V30 2629 C 255.48 0.822351 -1.8505 0
M  V30 2630 C 255.808 1.79701 -0.744168 0
M  V30 2631 O 255.063 1.93909 0.26414 0
M  V30 2632 C 255.362 1.60324 -3.19423 0
M  V30 2633 C 255.028 0.772536 -4.44233 0
M  V30 2634 C 253.69 0.543468 -4.78121 0
M  V30 2635 C 256.042 0.193746 -5.2084 0
M  V30 2636 C 253.37 -0.274583 -5.86057 0
M  V30 2637 C 255.722 -0.611517 -6.29637 0
M  V30 2638 C 254.386 -0.850867 -6.62055 0
M  V30 2639 H 253.656 0.30092 -0.677147 0
M  V30 2640 H 256.303 0.0845802 -1.91313 0
M  V30 2641 H 254.608 2.41203 -3.08753 0
M  V30 2642 H 256.305 2.1544 -3.38211 0
M  V30 2643 H 252.895 0.96117 -4.17683 0
M  V30 2644 H 257.079 0.357926 -4.95008 0
M  V30 2645 H 252.335 -0.469206 -6.09597 0
M  V30 2646 H 256.509 -1.06697 -6.88178 0
M  V30 2647 H 254.136 -1.48657 -7.45523 0
M  V30 2648 N 255.711 1.52812 0.385517 0
M  V30 2649 C 256.641 1.80808 1.47752 0
M  V30 2650 C 257.622 0.660318 1.5676 0
M  V30 2651 O 258.807 0.908246 1.71652 0
M  V30 2652 C 255.937 1.98008 2.85324 0
M  V30 2653 C 254.891 3.13709 2.91154 0
M  V30 2654 C 254.217 3.16169 4.31209 0
M  V30 2655 C 255.517 4.52709 2.60483 0
M  V30 2656 H 257.211 2.72253 1.24573 0
M  V30 2657 H 254.757 1.31003 0.597839 0
M  V30 2658 H 256.71 2.16176 3.61726 0
M  V30 2659 H 255.434 1.03255 3.09848 0
M  V30 2660 H 254.093 2.95329 2.17201 0
M  V30 2661 H 253.741 2.19092 4.52778 0
M  V30 2662 H 253.441 3.93894 4.36029 0
M  V30 2663 H 254.965 3.36496 5.09512 0
M  V30 2664 H 256.379 4.71173 3.26602 0
M  V30 2665 H 254.776 5.32528 2.76648 0
M  V30 2666 H 255.846 4.59186 1.55809 0
M  V30 2667 N 257.189 -0.644168 1.43834 0
M  V30 2668 C 258.119 -1.76814 1.52509 0
M  V30 2669 C 259.1 -1.65823 0.379052 0
M  V30 2670 O 260.285 -1.84781 0.597466 0
M  V30 2671 C 257.415 -3.15288 1.4564 0
M  V30 2672 C 256.369 -3.41053 2.58586 0
M  V30 2673 C 255.695 -4.79421 2.36769 0
M  V30 2674 C 256.995 -3.34902 4.00797 0
M  V30 2675 H 258.689 -1.69812 2.46586 0
M  V30 2676 H 256.235 -0.815542 1.1868 0
M  V30 2677 H 258.188 -3.93681 1.50311 0
M  V30 2678 H 256.912 -3.23043 0.480725 0
M  V30 2679 H 255.571 -2.65035 2.53282 0
M  V30 2680 H 255.219 -4.83863 1.37424 0
M  V30 2681 H 254.919 -4.9762 3.12487 0
M  V30 2682 H 256.443 -5.6006 2.43238 0
M  V30 2683 H 257.857 -4.03218 4.07539 0
M  V30 2684 H 256.254 -3.64637 4.76613 0
M  V30 2685 H 257.324 -2.32928 4.25291 0
M  V30 2686 N 258.668 -1.30515 -0.883378 0
M  V30 2687 C 259.631 -1.1701 -1.97082 0
M  V30 2688 C 260.631 -0.10089 -1.60483 0
M  V30 2689 O 261.821 -0.349127 -1.70666 0
M  V30 2690 C 258.953 -0.793045 -3.31547 0
M  V30 2691 H 260.146 -2.13622 -2.10489 0
M  V30 2692 H 257.699 -1.13935 -1.06998 0
M  V30 2693 H 258.434 0.172499 -3.23841 0
M  V30 2694 H 258.219 -1.56576 -3.5948 0
M  V30 2695 H 259.709 -0.722073 -4.1131 0
M  V30 2696 N 260.146 1.09593 -1.13257 0
M  V30 2697 C 261.562 1.33775 -0.870423 0
M  V30 2698 C 261.762 1.95327 0.494926 0
M  V30 2699 O 260.818 2.19853 1.2418 0
M  V30 2700 C 262.131 2.25106 -1.99369 0
M  V30 2701 C 263.679 2.3862 -2.02558 0
M  V30 2702 C 264.154 3.33285 -3.14142 0
M  V30 2703 N 265.645 3.40857 -3.13641 0
M  V30 2704 C 266.38 4.14101 -3.96621 0
M  V30 2705 N 265.876 4.90157 -4.8961 0
M  V30 2706 N 267.669 4.09808 -3.84726 0
M  V30 2707 H 259.82 0.680136 -2.01216 0
M  V30 2708 H 262.083 0.362133 -0.876107 0
M  V30 2709 H 261.789 1.87103 -2.97801 0
M  V30 2710 H 261.663 3.25481 -1.90635 0
M  V30 2711 H 264.05 2.75887 -1.0474 0
M  V30 2712 H 264.131 1.38028 -2.15364 0
M  V30 2713 H 263.775 2.96741 -4.12198 0
M  V30 2714 H 263.705 4.33776 -2.98574 0
M  V30 2715 H 266.196 2.86624 -2.46282 0
M  V30 2716 H 266.509 5.4347 -5.49418 0
M  V30 2717 H 264.854 4.89251 -4.93617 0
M  V30 2718 H 268.045 3.4949 -3.11408 0
M  V30 2719 H 268.218 4.66629 -4.49623 0
M  V30 2720 N 261.624 0.925811 1.2754 0
M  V30 2721 C 262.534 0.428993 2.30644 0
M  V30 2722 C 263.55 -0.489387 1.66976 0
M  V30 2723 O 264.726 -0.372653 1.97922 0
M  V30 2724 C 261.791 -0.311967 3.45294 0
M  V30 2725 C 260.852 0.641098 4.24486 0
M  V30 2726 C 260.085 -0.0645955 5.33661 0
M  V30 2727 O 260.308 -1.28429 5.55754 0
M  V30 2728 O 259.242 0.606265 5.98839 0
M  V30 2729 H 263.068 1.28504 2.75173 0
M  V30 2730 H 260.653 0.691086 1.32455 0
M  V30 2731 H 262.535 -0.729972 4.15029 0
M  V30 2732 H 261.21 -1.14365 3.02824 0
M  V30 2733 H 260.117 1.10874 3.57292 0
M  V30 2734 H 261.45 1.43995 4.70666 0
M  V30 2735 N 263.102 -1.41638 0.69111 0
M  V30 2736 C 264.33 -2.05628 0.22909 0
M  V30 2737 C 264.745 -1.51992 -1.11999 0
M  V30 2738 O 264.102 -0.666322 -1.69901 0
M  V30 2739 C 264.153 -3.61084 0.173283 0
M  V30 2740 O 263.874 -4.12735 1.46907 0
M  V30 2741 C 265.375 -4.42213 -0.310266 0
M  V30 2742 H 262.595 -0.662327 0.107534 0
M  V30 2743 H 265.139 -1.81489 0.942438 0
M  V30 2744 H 263.294 -3.84278 -0.490858 0
M  V30 2745 H 263.708 -5.06743 1.35322 0
M  V30 2746 H 265.182 -5.51194 -0.298196 0
M  V30 2747 H 265.659 -4.1799 -1.34838 0
M  V30 2748 H 266.265 -4.24074 0.322716 0
M  V30 2749 N 264.58 -0.43555 -1.51462 0
M  V30 2750 C 265.512 0.41257 -2.25456 0
M  V30 2751 C 266.525 0.987822 -1.29406 0
M  V30 2752 O 267.714 0.882266 -1.55172 0
M  V30 2753 C 264.814 1.58894 -2.99342 0
M  V30 2754 C 263.987 1.13288 -4.22474 0
M  V30 2755 C 263.046 2.17917 -4.78956 0
M  V30 2756 O 262.072 1.77425 -5.40841 0
M  V30 2757 N 263.274 3.50382 -4.62832 0
M  V30 2758 H 266.039 -0.221603 -2.9888 0
M  V30 2759 H 263.6 -0.264342 -1.59727 0
M  V30 2760 H 265.592 2.28508 -3.34015 0
M  V30 2761 H 264.162 2.12849 -2.28941 0
M  V30 2762 H 263.382 0.263881 -3.93316 0
M  V30 2763 H 264.67 0.805542 -5.02383 0
M  V30 2764 H 264.068 3.86013 -4.13534 0
M  V30 2765 H 262.625 4.15895 -5.01871 0
M  V30 2766 N 266.058 1.56714 -0.166846 0
M  V30 2767 C 267.008 2.14338 0.777382 0
M  V30 2768 C 267.992 1.07642 1.19591 0
M  V30 2769 O 269.184 1.33775 1.15902 0
M  V30 2770 C 266.313 2.78417 2.00846 0
M  V30 2771 C 265.399 3.92264 1.61212 0
M  V30 2772 N 265.79 4.97268 0.925104 0
M  V30 2773 C 264.088 4.03342 1.90346 0
M  V30 2774 C 264.789 5.77093 0.730627 0
M  V30 2775 N 263.765 5.2854 1.27067 0
M  V30 2776 H 267.567 2.9289 0.243466 0
M  V30 2777 H 265.081 1.62364 0.0339954 0
M  V30 2778 H 267.078 3.18073 2.69509 0
M  V30 2779 H 265.738 2.01344 2.54736 0
M  V30 2780 H 266.749 5.14601 0.583646 0
M  V30 2781 H 263.426 3.37368 2.45946 0
M  V30 2782 H 264.816 6.71638 0.187668 0
M  V30 2783 N 267.536 -0.106894 1.57237 0
M  V30 2784 C 268.468 -1.15646 1.97885 0
M  V30 2785 C 269.481 -1.36981 0.879779 0
M  V30 2786 O 270.67 -1.35841 1.15799 0
M  V30 2787 C 267.77 -2.51425 2.27241 0
M  V30 2788 C 266.943 -2.50529 3.58545 0
M  V30 2789 C 266.002 -3.68145 3.75973 0
M  V30 2790 O 265.028 -3.51176 4.47956 0
M  V30 2791 N 266.23 -4.87177 3.15656 0
M  V30 2792 H 268.995 -0.81059 2.8853 0
M  V30 2793 H 266.556 -0.296024 1.59171 0
M  V30 2794 H 268.548 -3.28689 2.36105 0
M  V30 2795 H 267.118 -2.78147 1.42663 0
M  V30 2796 H 266.338 -1.58894 3.60758 0
M  V30 2797 H 267.626 -2.46997 4.44826 0
M  V30 2798 H 267.024 -5.03868 2.57165 0
M  V30 2799 H 265.581 -5.62075 3.30023 0
M  V30 2800 N 269.014 -1.53014 -0.377408 0
M  V30 2801 C 269.944 -1.81589 -1.46791 0
M  V30 2802 C 270.925 -0.668622 -1.56408 0
M  V30 2803 O 272.11 -0.917337 -1.71168 0
M  V30 2804 C 269.24 -1.99519 -2.8427 0
M  V30 2805 C 268.194 -3.15249 -2.89486 0
M  V30 2806 C 267.52 -3.18451 -4.29527 0
M  V30 2807 C 268.82 -4.54084 -2.58079 0
M  V30 2808 H 270.514 -2.7291 -1.23127 0
M  V30 2809 H 268.06 -1.31319 -0.590883 0
M  V30 2810 H 270.013 -2.18092 -3.60575 0
M  V30 2811 H 268.737 -1.04897 -3.09296 0
M  V30 2812 H 267.396 -2.96477 -2.15631 0
M  V30 2813 H 267.044 -2.2149 -4.5161 0
M  V30 2814 H 266.744 -3.962 -4.33934 0
M  V30 2815 H 268.268 -3.39193 -5.07721 0
M  V30 2816 H 269.682 -4.72899 -3.24098 0
M  V30 2817 H 268.079 -5.33987 -2.7382 0
M  V30 2818 H 269.149 -4.60006 -1.53372 0
M  V30 2819 N 270.492 0.636531 -1.44174 0
M  V30 2820 C 271.424 1.7618 -1.46606 0
M  V30 2821 C 272.437 1.58768 -0.360091 0
M  V30 2822 O 273.626 1.67181 -0.625518 0
M  V30 2823 C 270.726 3.13833 -1.27915 0
M  V30 2824 C 269.899 3.57753 -2.51658 0
M  V30 2825 C 268.958 4.74265 -2.27945 0
M  V30 2826 O 267.984 4.82852 -3.01401 0
M  V30 2827 N 269.186 5.65604 -1.30662 0
M  V30 2828 H 271.951 1.74567 -2.43612 0
M  V30 2829 H 269.512 0.820924 -1.39544 0
M  V30 2830 H 271.504 3.8949 -1.09907 0
M  V30 2831 H 270.074 3.10121 -0.39293 0
M  V30 2832 H 269.294 2.72362 -2.84978 0
M  V30 2833 H 270.582 3.83847 -3.33974 0
M  V30 2834 H 269.98 5.61354 -0.699844 0
M  V30 2835 H 268.537 6.40913 -1.18634 0
M  V30 2836 N 271.97 1.30982 0.876444 0
M  V30 2837 C 273.217 1.20296 1.62896 0
M  V30 2838 C 273.545 -0.240395 1.93009 0
M  V30 2839 O 272.8 -1.18733 1.55567 0
M  V30 2840 C 273.099 1.98572 2.9716 0
M  V30 2841 C 272.765 3.48125 2.86566 0
M  V30 2842 C 271.427 3.88905 2.83383 0
M  V30 2843 C 273.779 4.43322 2.74071 0
M  V30 2844 C 271.107 5.2316 2.65556 0
M  V30 2845 C 273.459 5.77695 2.57781 0
M  V30 2846 C 272.123 6.17704 2.52979 0
M  V30 2847 H 271.393 0.440193 0.59608 0
M  V30 2848 H 274.04 1.62177 1.01837 0
M  V30 2849 H 272.345 1.49352 3.62217 0
M  V30 2850 H 274.042 1.8769 3.54364 0
M  V30 2851 H 270.632 3.15723 2.89856 0
M  V30 2852 H 274.816 4.12752 2.75589 0
M  V30 2853 H 270.072 5.53241 2.60259 0
M  V30 2854 H 274.246 6.51091 2.47089 0
M  V30 2855 H 271.873 7.21678 2.38924 0
M  V30 2856 N 273.449 -1.08991 1.13837 0
M  V30 2857 C 274.382 -2.15049 0.763477 0
M  V30 2858 C 275.36 -1.60629 -0.252398 0
M  V30 2859 O 276.544 -1.87958 -0.142853 0
M  V30 2860 C 273.671 -3.38441 0.132545 0
M  V30 2861 C 272.717 -4.11596 1.11763 0
M  V30 2862 S 273.55 -4.6521 2.65216 0
M  V30 2863 C 274.706 -5.91896 2.03495 0
M  V30 2864 H 274.939 -2.46518 1.66182 0
M  V30 2865 H 272.472 -1.21008 0.958976 0
M  V30 2866 H 274.43 -4.09883 -0.225074 0
M  V30 2867 H 273.091 -3.05182 -0.743135 0
M  V30 2868 H 272.284 -5.00121 0.624076 0
M  V30 2869 H 271.886 -3.46038 1.41894 0
M  V30 2870 H 274.178 -6.63156 1.38675 0
M  V30 2871 H 275.121 -6.45938 2.9012 0
M  V30 2872 H 275.529 -5.44625 1.48471 0
M  V30 2873 N 274.927 -0.932562 -1.27047 0
M  V30 2874 C 275.874 -0.434072 -2.26681 0
M  V30 2875 C 276.844 0.501639 -1.58344 0
M  V30 2876 O 278.029 0.419734 -1.86126 0
M  V30 2877 C 275.169 0.30261 -3.43771 0
M  V30 2878 C 274.282 -0.667774 -4.26808 0
M  V30 2879 C 273.417 0.0892393 -5.31125 0
M  V30 2880 C 272.456 -0.873532 -6.05835 0
M  V30 2881 N 271.593 -0.148832 -7.01942 0
M  V30 2882 H 276.433 -1.28868 -2.68695 0
M  V30 2883 H 273.97 -0.646713 -1.32121 0
M  V30 2884 H 275.928 0.746092 -4.10474 0
M  V30 2885 H 274.558 1.12142 -3.02695 0
M  V30 2886 H 273.61 -1.22978 -3.59973 0
M  V30 2887 H 274.922 -1.40337 -4.78651 0
M  V30 2888 H 274.076 0.592409 -6.03801 0
M  V30 2889 H 272.815 0.85777 -4.80097 0
M  V30 2890 H 271.82 -1.38791 -5.31994 0
M  V30 2891 H 273.045 -1.64193 -6.58952 0
M  V30 2892 H 270.991 0.601365 -6.53238 0
M  V30 2893 H 270.908 -0.82391 -7.51497 0
M  V30 2894 H 272.176 0.333527 -7.78786 0
M  V30 2895 N 276.405 1.4127 -0.698611 0
M  V30 2896 C 277.368 2.29158 -0.044132 0
M  V30 2897 C 278.368 1.44529 0.704841 0
M  V30 2898 O 279.558 1.65643 0.539276 0
M  V30 2899 C 276.69 3.27459 0.947809 0
M  V30 2900 H 277.883 2.88529 -0.817994 0
M  V30 2901 H 275.436 1.49307 -0.46228 0
M  V30 2902 H 276.171 2.73073 1.74933 0
M  V30 2903 H 275.956 3.8991 0.41385 0
M  V30 2904 H 277.446 3.93311 1.40344 0
M  V30 2905 N 277.883 0.443576 1.51229 0
M  V30 2906 C 278.815 -0.400608 2.25672 0
M  V30 2907 C 279.828 -0.980945 1.29928 0
M  V30 2908 O 281.017 -0.874024 1.55638 0
M  V30 2909 C 278.117 -1.57304 3.00181 0
M  V30 2910 C 277.29 -1.11046 4.23069 0
M  V30 2911 C 276.349 -2.15374 4.80105 0
M  V30 2912 O 275.375 -1.74554 5.41774 0
M  V30 2913 N 276.577 -3.47922 4.64683 0
M  V30 2914 H 279.342 0.23745 2.98758 0
M  V30 2915 H 276.903 0.272809 1.59585 0
M  V30 2916 H 278.895 -2.26733 3.35223 0
M  V30 2917 H 277.465 -2.11632 2.30066 0
M  V30 2918 H 276.685 -0.243019 3.9345 0
M  V30 2919 H 277.973 -0.778888 5.02803 0
M  V30 2920 H 277.371 -3.83815 4.15575 0
M  V30 2921 H 275.928 -4.13228 5.0407 0
M  V30 2922 N 279.361 -1.56624 0.175154 0
M  V30 2923 C 280.271 -2.21741 -0.766042 0
M  V30 2924 C 281.287 -1.21023 -1.25018 0
M  V30 2925 O 282.463 -1.53697 -1.3015 0
M  V30 2926 C 279.528 -2.84839 -1.97655 0
M  V30 2927 C 278.589 -4.00769 -1.53892 0
M  V30 2928 C 277.822 -4.60849 -2.69173 0
M  V30 2929 O 278.045 -4.19823 -3.86141 0
M  V30 2930 O 276.979 -5.50655 -2.43028 0
M  V30 2931 H 280.805 -3.02738 -0.241585 0
M  V30 2932 H 278.39 -1.49305 -0.053222 0
M  V30 2933 H 280.272 -3.24834 -2.68442 0
M  V30 2934 H 278.947 -2.06836 -2.48999 0
M  V30 2935 H 277.854 -3.65436 -0.80044 0
M  V30 2936 H 279.187 -4.80376 -1.07236 0
M  V30 2937 N 280.839 0.0985539 -1.57292 0
M  V30 2938 C 281.749 1.13824 -2.05137 0
M  V30 2939 C 282.765 1.44076 -0.975604 0
M  V30 2940 O 283.941 1.54786 -1.28853 0
M  V30 2941 C 281.006 2.43969 -2.46333 0
M  V30 2942 C 280.067 2.2093 -3.68087 0
M  V30 2943 C 279.3 3.44869 -4.0731 0
M  V30 2944 O 279.523 4.52972 -3.46659 0
M  V30 2945 O 278.457 3.34661 -5.00285 0
M  V30 2946 H 282.283 0.761881 -2.93988 0
M  V30 2947 H 279.868 0.310818 -1.46131 0
M  V30 2948 H 281.75 3.20609 -2.73473 0
M  V30 2949 H 280.425 2.81038 -1.60621 0
M  V30 2950 H 279.332 1.42081 -3.46069 0
M  V30 2951 H 280.665 1.88755 -4.54568 0
M  V30 2952 N 282.317 1.53212 0.369288 0
M  V30 2953 C 283.247 1.82365 1.45826 0
M  V30 2954 C 284.228 0.676907 1.56051 0
M  V30 2955 O 285.413 0.926401 1.70679 0
M  V30 2956 C 282.543 2.01023 2.83208 0
M  V30 2957 C 281.497 3.1678 2.8781 0
M  V30 2958 C 280.823 3.20724 4.27832 0
M  V30 2959 C 282.123 4.55447 2.55667 0
M  V30 2960 H 283.817 2.73559 1.21678 0
M  V30 2961 H 281.363 1.3163 0.583911 0
M  V30 2962 H 283.316 2.20001 3.59413 0
M  V30 2963 H 282.04 1.06536 3.08736 0
M  V30 2964 H 280.699 2.97616 2.14056 0
M  V30 2965 H 280.347 2.23882 4.50429 0
M  V30 2966 H 280.047 3.98496 4.31827 0
M  V30 2967 H 281.571 3.41881 5.05915 0
M  V30 2968 H 282.985 4.74611 3.21586 0
M  V30 2969 H 281.382 5.35432 2.70984 0
M  V30 2970 H 282.452 4.60812 1.5093 0
M  V30 2971 N 283.795 -0.628877 1.44509 0
M  V30 2972 C 284.705 -1.7694 1.54044 0
M  V30 2973 C 285.721 -1.68705 0.425987 0
M  V30 2974 O 286.897 -1.89442 0.683656 0
M  V30 2975 C 283.962 -3.13332 1.48405 0
M  V30 2976 C 283.023 -3.33181 2.70719 0
M  V30 2977 C 282.256 -4.63067 2.6534 0
M  V30 2978 O 282.479 -5.44017 1.71469 0
M  V30 2979 O 281.413 -4.85167 3.56226 0
M  V30 2980 H 285.239 -1.71848 2.50403 0
M  V30 2981 H 282.824 -0.790378 1.26781 0
M  V30 2982 H 284.706 -3.94634 1.47791 0
M  V30 2983 H 283.381 -3.1896 0.551898 0
M  V30 2984 H 282.288 -2.51549 2.769 0
M  V30 2985 H 283.621 -3.32416 3.62988 0
M  V30 2986 N 285.273 -1.31445 -0.869486 0
M  V30 2987 C 286.183 -1.21097 -2.0093 0
M  V30 2988 C 287.199 -0.127584 -1.73532 0
M  V30 2989 O 288.375 -0.345477 -1.98415 0
M  V30 2990 C 285.44 -0.919378 -3.34288 0
M  V30 2991 C 284.501 -2.08971 -3.75006 0
M  V30 2992 C 283.734 -1.81194 -5.02001 0
M  V30 2993 O 283.957 -0.747296 -5.65484 0
M  V30 2994 O 282.891 -2.66883 -5.39497 0
M  V30 2995 H 286.717 -2.16883 -2.12592 0
M  V30 2996 H 284.302 -1.11189 -0.997868 0
M  V30 2997 H 286.184 -0.772625 -4.14257 0
M  V30 2998 H 284.859 0.00844772 -3.23699 0
M  V30 2999 H 283.766 -2.29187 -2.95676 0
M  V30 3000 H 285.099 -2.9998 -3.90221 0
M  V30 3001 N 286.751 1.08385 -1.14413 0
M  V30 3002 C 287.698 2.15311 -0.831265 0
M  V30 3003 C 288.668 1.64751 0.211292 0
M  V30 3004 O 289.853 1.90627 0.0811674 0
M  V30 3005 C 286.993 3.43658 -0.315143 0
M  V30 3006 C 286.106 4.08064 -1.41802 0
M  V30 3007 C 285.241 5.24207 -0.859126 0
M  V30 3008 C 284.28 5.80554 -1.93967 0
M  V30 3009 N 283.417 6.88042 -1.39793 0
M  V30 3010 H 288.257 2.41415 -1.74708 0
M  V30 3011 H 285.794 1.18474 -0.871909 0
M  V30 3012 H 287.752 4.172 0.00230884 0
M  V30 3013 H 286.382 3.17839 0.56378 0
M  V30 3014 H 285.434 3.3228 -1.85187 0
M  V30 3015 H 286.746 4.45962 -2.23427 0
M  V30 3016 H 285.9 6.04689 -0.49359 0
M  V30 3017 H 284.639 4.87699 -0.011932 0
M  V30 3018 H 283.644 4.98725 -2.31415 0
M  V30 3019 H 284.869 6.19121 -2.79046 0
M  V30 3020 H 282.815 6.53493 -0.572919 0
M  V30 3021 H 282.732 7.24767 -2.15054 0
M  V30 3022 H 284 7.72255 -1.0603 0
M  V30 3023 N 288.23 0.939286 1.26551 0
M  V30 3024 C 289.46 0.601663 1.97645 0
M  V30 3025 C 289.868 -0.827206 1.70159 0
M  V30 3026 O 289.211 -1.56291 0.965338 0
M  V30 3027 C 289.273 0.761725 3.51337 0
M  V30 3028 C 288.937 2.16487 4.0247 0
M  V30 3029 C 289.934 3.14016 4.14355 0
M  V30 3030 C 287.619 2.48494 4.36527 0
M  V30 3031 C 289.613 4.41654 4.59587 0
M  V30 3032 C 287.3 3.76364 4.81449 0
M  V30 3033 C 288.298 4.72758 4.92939 0
M  V30 3034 O 287.986 5.98352 5.36871 0
M  V30 3035 H 287.718 0.225758 0.637189 0
M  V30 3036 H 290.272 1.26178 1.62075 0
M  V30 3037 H 288.502 0.0444808 3.86674 0
M  V30 3038 H 290.191 0.427442 4.03643 0
M  V30 3039 H 290.957 2.90613 3.8829 0
M  V30 3040 H 286.836 1.74202 4.26819 0
M  V30 3041 H 290.38 5.16896 4.68471 0
M  V30 3042 H 286.277 3.99582 5.06956 0
M  V30 3043 H 287.045 6.01507 5.55096 0
M  V30 3044 N 289.708 -1.40897 0.706093 0
M  V30 3045 C 290.956 -2.00657 0.241054 0
M  V30 3046 C 291.277 -1.56241 -1.16678 0
M  V30 3047 O 290.547 -0.79765 -1.78926 0
M  V30 3048 H 289.127 -0.742018 0.0861308 0
M  V30 3049 H 291.789 -1.72372 0.909604 0
M  V30 3050 H 290.885 -3.10958 0.266705 0
M  V30 3051 N 291.186 -0.45159 -1.50991 0
M  V30 3052 C 292.435 0.111653 -2.01391 0
M  V30 3053 C 292.748 1.42529 -1.33959 0
M  V30 3054 O 293.954 2.07232 -1.75405 0
M  V30 3055 C 292.41 0.249514 -3.59034 0
M  V30 3056 C 292.018 -1.05453 -4.35412 0
M  V30 3057 C 293.762 0.765762 -4.17536 0
M  V30 3058 C 291.669 -0.881529 -5.84793 0
M  V30 3059 H 290.599 0.0455022 -0.752626 0
M  V30 3060 H 293.25 -0.583524 -1.73975 0
M  V30 3061 H 291.632 1.00803 -3.82955 0
M  V30 3062 H 292.806 -1.82248 -4.23229 0
M  V30 3063 H 291.121 -1.50039 -3.88429 0
M  V30 3064 H 293.718 0.911913 -5.26866 0
M  V30 3065 H 294.061 1.75201 -3.77638 0
M  V30 3066 H 294.594 0.0651744 -3.97747 0
M  V30 3067 H 291.333 -1.84057 -6.29129 0
M  V30 3068 H 290.853 -0.153625 -5.99603 0
M  V30 3069 H 292.532 -0.540363 -6.4474 0
M  V30 3070 N 292.664 1.56529 -0.183458 0
M  V30 3071 C 293.913 1.96419 0.458511 0
M  V30 3072 C 294.226 1.0727 1.63562 0
M  V30 3073 O 295.432 1.36893 2.34462 0
M  V30 3074 C 293.888 3.49298 0.867122 0
M  V30 3075 C 293.496 4.47092 -0.285057 0
M  V30 3076 C 295.24 3.97983 1.47683 0
M  V30 3077 C 293.147 5.91225 0.143862 0
M  V30 3078 H 292.077 0.733394 0.175071 0
M  V30 3079 H 294.728 1.81448 -0.273624 0
M  V30 3080 H 293.11 3.59731 1.65559 0
M  V30 3081 H 294.284 4.48383 -1.0625 0
M  V30 3082 H 292.599 4.08535 -0.805503 0
M  V30 3083 H 295.196 5.03134 1.80999 0
M  V30 3084 H 295.539 3.41618 2.37914 0
M  V30 3085 H 296.072 3.90617 0.752562 0
M  V30 3086 H 292.811 6.5149 -0.723974 0
M  V30 3087 H 292.331 5.93214 0.886413 0
M  V30 3088 H 294.01 6.44362 0.583628 0
M  V30 3089 N 294.142 -0.090211 1.57342 0
M  V30 3090 C 295.388 -0.793982 1.86611 0
M  V30 3091 C 295.721 -1.78142 0.773252 0
M  V30 3092 O 294.996 -1.93271 -0.218304 0
M  V30 3093 C 295.279 -1.51839 3.26523 0
M  V30 3094 C 295.132 -0.548609 4.46442 0
M  V30 3095 C 296.451 -2.46779 3.64401 0
M  V30 3096 H 293.57 -0.287186 0.678744 0
M  V30 3097 H 296.212 -0.0575076 1.89913 0
M  V30 3098 H 294.362 -2.14617 3.23839 0
M  V30 3099 H 296.034 0.0725513 4.61243 0
M  V30 3100 H 294.277 0.137614 4.33582 0
M  V30 3101 H 294.948 -1.09271 5.41076 0
M  V30 3102 H 297.424 -1.94089 3.68061 0
M  V30 3103 H 296.3 -2.94479 4.63221 0
M  V30 3104 H 296.561 -3.30758 2.93346 0
M  V30 3105 N 295.62 -1.53406 -0.361157 0
M  V30 3106 C 297.031 -1.61442 -0.937728 0
M  V30 3107 C 297.382 -0.48461 -1.90121 0
M  V30 3108 O 296.507 0.388312 -2.12888 0
M  V30 3109 C 297.102 -2.92624 -1.70753 0
M  V30 3110 C 295.661 -3.02981 -2.23337 0
M  V30 3111 C 294.808 -2.5677 -1.04712 0
M  V30 3112 H 297.759 -1.58083 -0.139816 0
M  V30 3113 H 297.78 -2.80675 -2.56908 0
M  V30 3114 H 297.292 -3.74834 -1.00604 0
M  V30 3115 H 295.393 -2.25368 -2.96715 0
M  V30 3116 H 295.506 -4.0814 -2.50916 0
M  V30 3117 H 293.87 -2.11752 -1.41539 0
M  V30 3118 H 294.653 -3.41402 -0.360539 0
M  V30 3119 N 297.098 0.621204 -1.44841 0
M  V30 3120 C 298.346 1.37783 -1.47852 0
M  V30 3121 C 298.667 1.94653 -0.116224 0
M  V30 3122 O 297.937 1.76367 0.852737 0
M  V30 3123 H 296.517 0.511453 -0.544449 0
M  V30 3124 H 299.179 0.730446 -1.80694 0
M  V30 3125 H 298.275 2.20414 -2.20961 0
M  V30 3126 N 298.576 1.31904 0.862503 0
M  V30 3127 C 299.853 1.12644 1.59908 0
M  V30 3128 C 300.233 -0.316104 2.0872 0
M  V30 3129 O 299.581 -1.31145 1.87118 0
M  V30 3130 C 299.791 2.1472 2.7513 0
M  V30 3131 C 301.139 2.47637 3.44907 0
M  V30 3132 O 302.163 2.13205 2.85346 0
M  V30 3133 O 301.022 3.06632 4.52371 0
M  V30 3134 H 298.116 0.43416 0.703871 0
M  V30 3135 H 300.662 1.43408 0.907314 0
M  V30 3136 H 299.434 3.1172 2.3653 0
M  V30 3137 H 299.057 1.84905 3.51989 0
M  V30 3138 N 300.054 -1.07777 1.14986 0
M  V30 3139 C 300.987 -2.14228 0.786243 0
M  V30 3140 C 301.965 -1.60888 -0.235347 0
M  V30 3141 O 303.149 -1.88099 -0.122909 0
M  V30 3142 C 300.276 -3.38281 0.168433 0
M  V30 3143 C 299.322 -4.10387 1.16123 0
M  V30 3144 S 300.155 -4.62371 2.70135 0
M  V30 3145 C 301.311 -5.89704 2.09762 0
M  V30 3146 H 301.544 -2.44741 1.68787 0
M  V30 3147 H 299.077 -1.19984 0.971756 0
M  V30 3148 H 301.035 -4.10098 -0.181588 0
M  V30 3149 H 299.696 -3.05953 -0.710725 0
M  V30 3150 H 298.889 -4.99431 0.677086 0
M  V30 3151 H 298.491 -3.44513 1.45556 0
M  V30 3152 H 300.783 -6.61648 1.45701 0
M  V30 3153 H 301.726 -6.42824 2.96955 0
M  V30 3154 H 302.134 -5.4302 1.54239 0
M  V30 3155 N 301.532 -0.945985 -1.26051 0
M  V30 3156 C 302.479 -0.45809 -2.26208 0
M  V30 3157 C 303.449 0.484816 -1.58867 0
M  V30 3158 O 304.634 0.399969 -1.86561 0
M  V30 3159 C 301.774 0.266131 -3.44072 0
M  V30 3160 C 300.887 -0.713005 -4.26075 0
M  V30 3161 C 300.022 0.0329013 -5.3119 0
M  V30 3162 C 299.061 -0.93774 -6.04874 0
M  V30 3163 N 298.198 -0.223274 -7.01745 0
M  V30 3164 H 303.038 -1.3171 -2.67313 0
M  V30 3165 H 300.575 -0.66069 -1.31428 0
M  V30 3166 H 302.533 0.702514 -4.11243 0
M  V30 3167 H 301.163 1.08925 -3.03867 0
M  V30 3168 H 300.215 -1.26789 -3.58648 0
M  V30 3169 H 301.527 -1.45406 -4.77136 0
M  V30 3170 H 300.681 0.528335 -6.04395 0
M  V30 3171 H 299.42 0.806801 -4.8098 0
M  V30 3172 H 298.425 -1.44425 -5.30492 0
M  V30 3173 H 299.65 -1.71172 -6.57173 0
M  V30 3174 H 297.596 0.532046 -6.53839 0
M  V30 3175 H 297.513 -0.90357 -7.50581 0
M  V30 3176 H 298.781 0.250907 -7.79096 0
M  V30 3177 N 303.011 1.40521 -0.713556 0
M  V30 3178 C 303.921 2.34522 -0.0606667 0
M  V30 3179 C 304.937 1.57193 0.74607 0
M  V30 3180 O 306.113 1.89591 0.679493 0
M  V30 3181 C 303.178 3.36081 0.851491 0
M  V30 3182 C 302.239 4.29286 0.0349339 0
M  V30 3183 C 301.472 5.25994 0.903649 0
M  V30 3184 O 301.695 5.28616 2.14292 0
M  V30 3185 O 300.629 6.00918 0.343723 0
M  V30 3186 H 304.455 2.91968 -0.835972 0
M  V30 3187 H 302.04 1.41681 -0.47402 0
M  V30 3188 H 303.922 3.98369 1.37404 0
M  V30 3189 H 302.597 2.81052 1.60598 0
M  V30 3190 H 301.504 3.70289 -0.532633 0
M  V30 3191 H 302.837 4.87462 -0.681287 0
M  V30 3192 N 304.489 0.459591 1.5075 0
M  V30 3193 C 305.738 -0.100971 2.01447 0
M  V30 3194 C 306.051 -1.41816 1.34713 0
M  V30 3195 O 307.257 -2.06299 1.76502 0
M  V30 3196 C 305.713 -0.23047 3.59161 0
M  V30 3197 C 305.321 1.0776 4.34847 0
M  V30 3198 C 307.065 -0.743608 4.17936 0
M  V30 3199 C 304.972 0.91253 5.84317 0
M  V30 3200 H 303.902 -0.0415102 0.752856 0
M  V30 3201 H 306.553 0.592742 1.73663 0
M  V30 3202 H 304.935 -0.987703 3.83485 0
M  V30 3203 H 306.109 1.8449 4.22256 0
M  V30 3204 H 304.424 1.52097 3.87628 0
M  V30 3205 H 307.021 -0.883959 5.27343 0
M  V30 3206 H 307.364 -1.73196 3.78562 0
M  V30 3207 H 307.897 -0.04408 3.97776 0
M  V30 3208 H 304.636 1.87391 6.28144 0
M  V30 3209 H 304.156 0.185422 5.99513 0
M  V30 3210 H 305.835 0.574547 6.44444 0
M  V30 3211 N 305.967 -1.56429 0.191757 0
M  V30 3212 C 306.877 -2.22541 -0.742481 0
M  V30 3213 C 307.893 -1.22342 -1.23727 0
M  V30 3214 O 309.069 -1.55069 -1.28513 0
M  V30 3215 C 306.134 -2.8692 -1.94623 0
M  V30 3216 C 305.195 -4.02378 -1.49633 0
M  V30 3217 C 304.428 -4.63678 -2.6427 0
M  V30 3218 O 304.651 -4.23895 -3.81666 0
M  V30 3219 O 303.585 -5.53202 -2.37174 0
M  V30 3220 H 307.411 -3.02977 -0.209462 0
M  V30 3221 H 304.996 -1.49353 -0.0373832 0
M  V30 3222 H 306.878 -3.27663 -2.64982 0
M  V30 3223 H 305.553 -2.09466 -2.46791 0
M  V30 3224 H 304.46 -3.66265 -0.761636 0
M  V30 3225 H 305.793 -4.81487 -1.02134 0
M  V30 3226 N 307.445 0.0818655 -1.57387 0
M  V30 3227 C 308.395 1.10501 -1.99433 0
M  V30 3228 C 309.379 1.35041 -0.874798 0
M  V30 3229 O 310.571 1.35511 -1.13868 0
M  V30 3230 C 307.7 2.42159 -2.43339 0
M  V30 3231 C 306.786 2.20937 -3.62005 0
M  V30 3232 N 307.177 1.69616 -4.76512 0
M  V30 3233 C 305.475 2.51451 -3.68359 0
M  V30 3234 C 306.176 1.62973 -5.58404 0
M  V30 3235 N 305.152 2.08664 -5.01956 0
M  V30 3236 H 308.954 0.701373 -2.85408 0
M  V30 3237 H 306.468 0.289096 -1.59806 0
M  V30 3238 H 308.465 3.16208 -2.71695 0
M  V30 3239 H 307.125 2.83249 -1.58746 0
M  V30 3240 H 308.136 1.38624 -4.99003 0
M  V30 3241 H 304.813 2.95975 -2.94457 0
M  V30 3242 H 306.203 1.24233 -6.60315 0
M  V30 3243 N 308.923 1.53595 0.353017 0
M  V30 3244 C 310.148 1.7462 1.11904 0
M  V30 3245 C 310.573 0.479721 1.8188 0
M  V30 3246 O 309.931 -0.567066 1.72204 0
M  V30 3247 C 309.979 2.92029 2.11545 0
M  V30 3248 O 309.083 2.61516 3.18878 0
M  V30 3249 H 308.424 0.579531 0.324099 0
M  V30 3250 H 310.954 2.00525 0.406301 0
M  V30 3251 H 310.964 3.18551 2.5493 0
M  V30 3252 H 309.639 3.83888 1.60008 0
M  V30 3253 H 308.216 2.45852 2.80377 0
M  V30 3254 N 310.401 -0.613514 1.45168 0
M  V30 3255 C 311.311 -1.75296 1.55912 0
M  V30 3256 C 312.327 -1.68244 0.443856 0
M  V30 3257 O 313.503 -1.88706 0.70371 0
M  V30 3258 C 310.568 -3.1174 1.5172 0
M  V30 3259 C 309.629 -3.30291 2.74238 0
M  V30 3260 C 308.862 -4.60226 2.70236 0
M  V30 3261 O 309.085 -5.42168 1.77229 0
M  V30 3262 O 308.019 -4.81361 3.61352 0
M  V30 3263 H 311.845 -1.69183 2.52212 0
M  V30 3264 H 309.43 -0.776886 1.27612 0
M  V30 3265 H 311.312 -3.93044 1.51968 0
M  V30 3266 H 309.987 -3.18357 0.585697 0
M  V30 3267 H 308.894 -2.48598 2.79553 0
M  V30 3268 H 310.227 -3.28547 3.66494 0
M  V30 3269 N 311.879 -1.3236 -0.855495 0
M  V30 3270 C 313.126 -1.22872 -1.60962 0
M  V30 3271 C 313.454 0.209658 -1.93367 0
M  V30 3272 O 312.709 1.16243 -1.57436 0
M  V30 3273 C 313.008 -2.03275 -2.93963 0
M  V30 3274 C 312.674 -3.5264 -2.80991 0
M  V30 3275 C 311.336 -3.93364 -2.7716 0
M  V30 3276 C 313.688 -4.47626 -2.66983 0
M  V30 3277 C 311.016 -5.27319 -2.572 0
M  V30 3278 C 313.368 -5.81723 -2.48558 0
M  V30 3279 C 312.032 -6.2165 -2.4312 0
M  V30 3280 H 311.302 -0.44962 -0.589001 0
M  V30 3281 H 313.949 -1.63777 -0.992442 0
M  V30 3282 H 312.254 -1.55095 -3.59795 0
M  V30 3283 H 313.951 -1.93303 -3.51333 0
M  V30 3284 H 310.541 -3.20295 -2.84797 0
M  V30 3285 H 314.725 -4.17084 -2.68988 0
M  V30 3286 H 309.981 -5.57311 -2.51424 0
M  V30 3287 H 314.155 -6.5494 -2.36699 0
M  V30 3288 H 311.782 -7.25388 -2.27412 0
M  V30 3289 N 313.357 1.07166 -1.15556 0
M  V30 3290 C 314.582 1.84053 -0.955988 0
M  V30 3291 C 315.007 1.81586 0.490739 0
M  V30 3292 O 314.365 1.21018 1.34997 0
M  V30 3293 C 314.413 3.28957 -1.47714 0
M  V30 3294 O 313.517 4.06795 -0.677593 0
M  V30 3295 H 312.858 0.569842 -0.340847 0
M  V30 3296 H 315.388 1.35178 -1.53584 0
M  V30 3297 H 315.398 3.79788 -1.4908 0
M  V30 3298 H 314.073 3.30068 -2.53037 0
M  V30 3299 H 312.65 3.6561 -0.733721 0
M  V30 3300 N 314.835 0.952656 1.25548 0
M  V30 3301 C 315.785 0.442033 2.23674 0
M  V30 3302 C 316.769 -0.467632 1.53955 0
M  V30 3303 O 317.961 -0.301006 1.74422 0
M  V30 3304 C 315.09 -0.280816 3.4215 0
M  V30 3305 C 314.176 0.646803 4.19139 0
M  V30 3306 N 314.567 1.77759 4.73535 0
M  V30 3307 C 312.865 0.454617 4.43677 0
M  V30 3308 C 313.566 2.35658 5.31827 0
M  V30 3309 N 312.542 1.64333 5.18166 0
M  V30 3310 H 316.344 1.30505 2.63336 0
M  V30 3311 H 313.858 0.809904 1.40763 0
M  V30 3312 H 315.855 -0.663747 4.11582 0
M  V30 3313 H 314.515 -1.14046 3.04012 0
M  V30 3314 H 315.526 2.15949 4.7073 0
M  V30 3315 H 312.203 -0.362312 4.15925 0
M  V30 3316 H 313.593 3.30998 5.84713 0
M  V30 3317 N 316.313 -1.40141 0.720998 0
M  V30 3318 C 317.559 -2.01084 0.263231 0
M  V30 3319 C 317.892 -1.57052 -1.14229 0
M  V30 3320 O 317.167 -0.793027 -1.77599 0
M  V30 3321 C 317.45 -3.58401 0.349344 0
M  V30 3322 C 317.303 -4.12491 1.79363 0
M  V30 3323 C 318.622 -4.39231 -0.276351 0
M  V30 3324 H 315.741 -0.730572 0.0971228 0
M  V30 3325 H 318.383 -1.66543 0.914518 0
M  V30 3326 H 316.533 -3.87958 -0.205165 0
M  V30 3327 H 318.205 -3.93711 2.40394 0
M  V30 3328 H 316.448 -3.66576 2.31958 0
M  V30 3329 H 317.119 -5.21646 1.80524 0
M  V30 3330 H 319.595 -4.15637 0.196184 0
M  V30 3331 H 318.471 -5.48586 -0.185681 0
M  V30 3332 H 318.732 -4.20643 -1.36059 0
M  V30 3333 N 317.792 -0.46758 -1.50504 0
M  V30 3334 C 318.722 0.318381 -2.31319 0
M  V30 3335 C 319.703 0.993564 -1.38066 0
M  V30 3336 O 320.888 0.991411 -1.66987 0
M  V30 3337 C 318.018 1.40275 -3.17711 0
M  V30 3338 C 316.972 0.849373 -4.19487 0
M  V30 3339 C 316.298 2.03177 -4.94594 0
M  V30 3340 C 317.598 -0.136942 -5.2212 0
M  V30 3341 H 319.292 -0.356106 -2.97275 0
M  V30 3342 H 316.838 -0.172703 -1.42961 0
M  V30 3343 H 318.791 1.96004 -3.73042 0
M  V30 3344 H 317.515 2.10596 -2.49634 0
M  V30 3345 H 316.174 0.314076 -3.65252 0
M  V30 3346 H 315.822 2.72187 -4.22993 0
M  V30 3347 H 315.522 1.66774 -5.63436 0
M  V30 3348 H 317.046 2.59403 -5.52759 0
M  V30 3349 H 318.46 0.331056 -5.72343 0
M  V30 3350 H 316.857 -0.41507 -5.98663 0
M  V30 3351 H 317.927 -1.06398 -4.73083 0
M  V30 3352 N 319.27 1.56325 -0.20005 0
M  V30 3353 C 320.203 2.15234 0.758267 0
M  V30 3354 C 321.181 1.09046 1.20614 0
M  V30 3355 O 322.365 1.37186 1.29276 0
M  V30 3356 C 319.492 2.71524 2.02466 0
M  V30 3357 C 318.538 3.90345 1.71852 0
M  V30 3358 S 319.371 5.28513 0.862249 0
M  V30 3359 C 320.527 5.88227 2.13868 0
M  V30 3360 H 320.76 2.96183 0.2575 0
M  V30 3361 H 318.293 1.54393 0.0150099 0
M  V30 3362 H 320.251 3.04598 2.75191 0
M  V30 3363 H 318.912 1.90607 2.49655 0
M  V30 3364 H 318.105 4.28158 2.65888 0
M  V30 3365 H 317.707 3.58306 1.07205 0
M  V30 3366 H 319.999 6.02891 3.09076 0
M  V30 3367 H 320.942 6.84714 1.80479 0
M  V30 3368 H 321.35 5.16874 2.2694 0
M  V30 3369 N 320.748 -0.0735177 1.57428 0
M  V30 3370 C 321.696 -1.10628 2.04607 0
M  V30 3371 C 322.69 -1.40181 0.951088 0
M  V30 3372 O 323.896 -1.39608 1.1362 0
M  V30 3373 H 320.271 -0.374088 0.652351 0
M  V30 3374 H 322.242 -0.682218 2.90497 0
M  V30 3375 C 320.991 -2.41212 2.50423 0
M  V30 3376 H 320.314 -2.19322 3.34272 0
M  V30 3377 H 321.754 -3.11927 2.87189 0
M  V30 3378 C 320.213 -3.0705 1.38644 0
M  V30 3379 O 320.743 -3.95056 0.727582 0
M  V30 3380 N 318.949 -2.67645 1.132 0
M  V30 3381 H 318.496 -1.96169 1.66959 0
M  V30 3382 H 318.454 -3.1202 0.386147 0
M  V30 3383 N 322.226 -1.5378 -0.344866 0
M  V30 3384 C 323.473 -1.70963 -1.08526 0
M  V30 3385 C 323.801 -0.472126 -1.88683 0
M  V30 3386 O 323.056 0.546116 -1.87926 0
M  V30 3387 C 323.355 -2.92407 -2.05506 0
M  V30 3388 C 323.021 -4.28066 -1.41671 0
M  V30 3389 C 321.683 -4.64951 -1.2399 0
M  V30 3390 C 324.035 -5.12344 -0.956726 0
M  V30 3391 C 321.363 -5.83733 -0.589277 0
M  V30 3392 C 323.715 -6.3179 -0.320015 0
M  V30 3393 C 322.379 -6.67372 -0.130881 0
M  V30 3394 H 321.649 -0.625598 -0.397124 0
M  V30 3395 H 324.296 -1.87995 -0.36469 0
M  V30 3396 H 322.601 -2.69973 -2.8394 0
M  V30 3397 H 324.298 -3.02895 -2.62784 0
M  V30 3398 H 320.888 -3.99034 -1.56429 0
M  V30 3399 H 325.072 -4.8438 -1.08118 0
M  V30 3400 H 320.328 -6.09877 -0.431344 0
M  V30 3401 H 324.502 -6.96386 0.0445072 0
M  V30 3402 H 322.129 -7.59273 0.375318 0
M  V30 3403 N 323.704 0.605807 -1.45491 0
M  V30 3404 C 324.929 1.39625 -1.53361 0
M  V30 3405 C 325.354 1.87351 -0.167645 0
M  V30 3406 O 324.712 1.60243 0.848051 0
M  V30 3407 C 324.76 2.57559 -2.5238 0
M  V30 3408 O 323.864 3.58248 -2.04285 0
M  V30 3409 H 323.205 0.416771 -0.516912 0
M  V30 3410 H 325.735 0.737103 -1.90861 0
M  V30 3411 H 325.745 3.0478 -2.71244 0
M  V30 3412 H 324.42 2.22171 -3.51586 0
M  V30 3413 H 322.997 3.17664 -1.95305 0
M  V30 3414 N 325.182 1.32811 0.848464 0
M  V30 3415 C 326.459 1.14334 1.58704 0
M  V30 3416 C 326.839 -0.293948 2.09043 0
M  V30 3417 O 326.187 -1.29153 1.88499 0
M  V30 3418 C 326.397 2.17626 2.72837 0
M  V30 3419 C 327.745 2.51282 3.42261 0
M  V30 3420 O 328.769 2.16219 2.83068 0
M  V30 3421 O 327.628 3.11413 4.49093 0
M  V30 3422 H 324.722 0.441601 0.699226 0
M  V30 3423 H 327.268 1.44362 0.892053 0
M  V30 3424 H 326.04 3.14211 2.3321 0
M  V30 3425 H 325.663 1.88628 3.50008 0
M  V30 3426 N 326.66 -1.06551 1.16123 0
M  V30 3427 C 327.908 -1.78947 0.939267 0
M  V30 3428 C 328.229 -1.87532 -0.534476 0
M  V30 3429 O 327.499 -1.38211 -1.38833 0
M  V30 3430 H 326.079 -0.662807 0.344523 0
M  V30 3431 H 328.741 -1.28725 1.46342 0
M  V30 3432 H 327.837 -2.81117 1.35572 0
M  V30 3433 N 328.138 -0.959301 -1.25041 0
M  V30 3434 C 329.415 -0.533805 -1.88175 0
M  V30 3435 C 329.795 0.988994 -1.865 0
M  V30 3436 O 329.143 1.85677 -1.33177 0
M  V30 3437 C 329.353 -1.11575 -3.30684 0
M  V30 3438 C 330.701 -1.19548 -4.07423 0
M  V30 3439 O 331.725 -1.06765 -3.39823 0
M  V30 3440 O 330.584 -1.39656 -5.28354 0
M  V30 3441 H 327.678 -0.176772 -0.807887 0
M  V30 3442 H 330.224 -1.05303 -1.33076 0
M  V30 3443 H 328.996 -2.15884 -3.26358 0
M  V30 3444 H 328.619 -0.580059 -3.93346 0
M  V30 3445 N 329.616 1.39756 -0.72842 0
M  V30 3446 C 330.864 2.00248 -0.272946 0
M  V30 3447 C 331.185 1.58077 1.14178 0
M  V30 3448 O 330.455 0.826014 1.77634 0
M  V30 3449 H 329.035 0.740554 -0.0979247 0
M  V30 3450 H 331.697 1.70903 -0.936912 0
M  V30 3451 H 330.793 3.10495 -0.316142 0
M  V30 3452 N 331.094 0.475555 1.50254 0
M  V30 3453 C 332.319 -0.0777042 2.07254 0
M  V30 3454 C 332.744 -1.3235 1.3366 0
M  V30 3455 O 332.102 -1.77152 0.385597 0
M  V30 3456 C 332.15 -0.340169 3.58992 0
M  V30 3457 O 331.254 -1.41982 3.87188 0
M  V30 3458 H 330.595 0.0149556 0.663832 0
M  V30 3459 H 333.125 0.667878 1.93392 0
M  V30 3460 H 333.135 -0.579332 4.03866 0
M  V30 3461 H 331.81 0.570167 4.11973 0
M  V30 3462 H 330.387 -1.16762 3.54148 0
M  V30 3463 N 332.573 -1.56217 0.208337 0
M  V30 3464 C 333.52 -2.19699 -0.707192 0
M  V30 3465 C 334.49 -1.14836 -1.20008 0
M  V30 3466 O 335.675 -1.4314 -1.26157 0
M  V30 3467 C 332.815 -2.87061 -1.91546 0
M  V30 3468 C 331.928 -4.06483 -1.46271 0
M  V30 3469 C 331.063 -4.61665 -2.62752 0
M  V30 3470 C 330.102 -5.73417 -2.14147 0
M  V30 3471 N 329.239 -6.22948 -3.23853 0
M  V30 3472 H 334.079 -2.97575 -0.159111 0
M  V30 3473 H 331.616 -1.46948 -0.0667874 0
M  V30 3474 H 333.574 -3.24294 -2.62468 0
M  V30 3475 H 332.204 -2.11725 -2.43664 0
M  V30 3476 H 331.256 -3.74825 -0.648886 0
M  V30 3477 H 332.568 -4.87271 -1.06622 0
M  V30 3478 H 331.722 -5.01272 -3.41776 0
M  V30 3479 H 330.461 -3.80013 -3.05682 0
M  V30 3480 H 329.466 -5.33326 -1.33581 0
M  V30 3481 H 330.691 -6.56897 -1.72232 0
M  V30 3482 H 328.637 -5.44213 -3.6629 0
M  V30 3483 H 328.554 -6.98823 -2.88414 0
M  V30 3484 H 329.822 -6.6721 -4.03052 0
M  V30 3485 N 334.051 0.0651679 -1.57465 0
M  V30 3486 C 335.014 1.06117 -2.03155 0
M  V30 3487 C 336.014 1.31204 -0.929632 0
M  V30 3488 O 337.204 1.26813 -1.19432 0
M  V30 3489 C 334.336 2.4032 -2.41783 0
M  V30 3490 H 335.529 0.667231 -2.92383 0
M  V30 3491 H 333.082 0.311075 -1.53173 0
M  V30 3492 H 333.817 2.84532 -1.55601 0
M  V30 3493 H 333.602 2.23451 -3.22199 0
M  V30 3494 H 335.092 3.11898 -2.77685 0
M  V30 3495 N 335.529 1.53961 0.336706 0
M  V30 3496 C 336.776 1.71536 1.07618 0
M  V30 3497 C 337.104 0.482125 1.8843 0
M  V30 3498 O 336.359 -0.536142 1.88213 0
M  V30 3499 C 336.658 2.93493 2.03953 0
M  V30 3500 C 336.324 4.28811 1.39399 0
M  V30 3501 C 334.986 4.65602 1.21523 0
M  V30 3502 C 337.338 5.12844 0.929541 0
M  V30 3503 C 334.666 5.84037 0.558312 0
M  V30 3504 C 337.018 6.31951 0.286505 0
M  V30 3505 C 335.682 6.67432 0.0954869 0
M  V30 3506 H 334.952 0.627696 0.393801 0
M  V30 3507 H 337.599 1.88186 0.354715 0
M  V30 3508 H 335.904 2.71475 2.82504 0
M  V30 3509 H 337.601 3.04285 2.61174 0
M  V30 3510 H 334.191 3.99858 1.54311 0
M  V30 3511 H 338.375 4.84947 1.05548 0
M  V30 3512 H 333.631 6.10097 0.398995 0
M  V30 3513 H 337.805 6.96352 -0.0814376 0
M  V30 3514 H 335.432 7.59063 -0.415579 0
M  V30 3515 N 337.007 -0.598083 1.45811 0
M  V30 3516 C 337.917 -1.73632 1.57763 0
M  V30 3517 C 338.933 -1.67763 0.461676 0
M  V30 3518 O 340.109 -1.87949 0.723685 0
M  V30 3519 C 337.174 -3.10114 1.55018 0
M  V30 3520 C 336.235 -3.27364 2.77726 0
M  V30 3521 C 335.468 -4.57334 2.75102 0
M  V30 3522 O 335.691 -5.40258 1.8297 0
M  V30 3523 O 334.625 -4.77502 3.66437 0
M  V30 3524 H 338.451 -1.66498 2.53992 0
M  V30 3525 H 336.036 -0.763308 1.28429 0
M  V30 3526 H 337.918 -3.9141 1.56129 0
M  V30 3527 H 336.593 -3.17718 0.619431 0
M  V30 3528 H 335.5 -2.45619 2.82174 0
M  V30 3529 H 336.833 -3.24641 3.69958 0
M  V30 3530 N 338.485 -1.33259 -0.841409 0
M  V30 3531 C 339.733 -1.24326 -1.59334 0
M  V30 3532 C 340.054 0.191564 -1.94057 0
M  V30 3533 O 339.324 1.11967 -1.60749 0
M  V30 3534 H 337.904 -0.457174 -0.590763 0
M  V30 3535 H 340.566 -1.66947 -1.00571 0
M  V30 3536 H 339.662 -1.8352 -2.52442 0
M  V30 3537 N 339.963 1.05934 -1.16686 0
M  V30 3538 C 340.895 2.13468 -0.834503 0
M  V30 3539 C 341.908 1.62013 0.15984 0
M  V30 3540 O 343.097 1.7838 -0.0654228 0
M  V30 3541 C 340.197 3.3817 -0.222361 0
M  V30 3542 C 339.37 4.18928 -1.25771 0
M  V30 3543 C 338.429 5.21985 -0.664703 0
M  V30 3544 O 337.455 5.53334 -1.33453 0
M  V30 3545 N 338.657 5.77919 0.546834 0
M  V30 3546 H 341.422 2.42578 -1.75999 0
M  V30 3547 H 338.983 1.21967 -1.06469 0
M  V30 3548 H 340.975 4.04266 0.187472 0
M  V30 3549 H 339.545 3.06655 0.606758 0
M  V30 3550 H 338.765 3.48433 -1.84358 0
M  V30 3551 H 340.053 4.69687 -1.95631 0
M  V30 3552 H 339.451 5.54721 1.10912 0
M  V30 3553 H 338.008 6.45573 0.898829 0
M  V30 3554 N 341.441 0.965919 1.2453 0
M  V30 3555 C 342.687 0.62776 1.92839 0
M  V30 3556 C 343.02 -0.834694 1.75347 0
M  V30 3557 O 342.295 -1.60031 1.10546 0
M  V30 3558 C 342.578 1.00109 3.45905 0
M  V30 3559 C 342.431 2.52011 3.72573 0
M  V30 3560 C 343.75 0.53435 4.36844 0
M  V30 3561 H 340.869 0.229537 0.700344 0
M  V30 3562 H 343.511 1.2046 1.46933 0
M  V30 3563 H 341.661 0.510238 3.85135 0
M  V30 3564 H 343.333 3.08559 3.42912 0
M  V30 3565 H 341.576 2.95287 3.17786 0
M  V30 3566 H 342.247 2.73183 4.79661 0
M  V30 3567 H 344.723 0.955565 4.04979 0
M  V30 3568 H 343.599 0.824152 5.42678 0
M  V30 3569 H 343.86 -0.565589 4.38467 0
M  V30 3570 N 342.919 -1.39368 0.735821 0
M  V30 3571 C 343.882 -2.2896 0.104874 0
M  V30 3572 C 344.882 -1.46347 -0.666274 0
M  V30 3573 O 346.072 -1.67014 -0.49517 0
M  V30 3574 C 343.204 -3.29857 -0.860656 0
M  V30 3575 H 344.397 -2.86259 0.894205 0
M  V30 3576 H 341.95 -1.48029 0.501704 0
M  V30 3577 H 342.685 -2.77615 -1.67631 0
M  V30 3578 H 342.47 -3.9087 -0.310327 0
M  V30 3579 H 343.96 -3.96893 -1.29867 0
M  V30 3580 N 344.397 -0.483516 -1.5 0
M  V30 3581 C 345.344 0.304164 -2.28787 0
M  V30 3582 C 346.314 0.976114 -1.34392 0
M  V30 3583 O 347.499 0.986156 -1.63339 0
M  V30 3584 C 344.639 1.37298 -3.16612 0
M  V30 3585 C 343.752 0.714561 -4.26049 0
M  V30 3586 C 342.887 1.76232 -5.01114 0
M  V30 3587 C 341.926 1.08483 -6.0241 0
M  V30 3588 N 341.063 2.076 -6.70706 0
M  V30 3589 H 345.903 -0.373981 -2.95644 0
M  V30 3590 H 343.44 -0.196275 -1.45785 0
M  V30 3591 H 345.398 2.00445 -3.65893 0
M  V30 3592 H 344.028 2.02012 -2.51776 0
M  V30 3593 H 343.08 -0.0297798 -3.80388 0
M  V30 3594 H 344.392 0.180383 -4.98474 0
M  V30 3595 H 343.546 2.46929 -5.54176 0
M  V30 3596 H 342.285 2.33033 -4.28424 0
M  V30 3597 H 341.29 0.363545 -5.48597 0
M  V30 3598 H 342.515 0.523551 -6.77079 0
M  V30 3599 H 340.461 2.63394 -6.00799 0
M  V30 3600 H 340.378 1.59201 -7.39047 0
M  V30 3601 H 341.646 2.77639 -7.2838 0
M  V30 3602 N 345.875 1.56104 -0.216619 0
M  V30 3603 C 347.152 1.89988 0.465165 0
M  V30 3604 C 347.532 1.13326 1.78102 0
M  V30 3605 O 346.88 0.241033 2.27225 0
M  V30 3606 C 347.09 3.42646 0.662939 0
M  V30 3607 C 348.438 4.13311 0.972602 0
M  V30 3608 O 349.462 3.48217 0.749901 0
M  V30 3609 O 348.321 5.28396 1.39499 0
M  V30 3610 H 345.415 0.78979 0.245276 0
M  V30 3611 H 347.961 1.67721 -0.258436 0
M  V30 3612 H 346.733 3.90399 -0.26543 0
M  V30 3613 H 346.356 3.70677 1.43821 0
M  V30 3614 N 347.353 -0.0568162 1.57498 0
M  V30 3615 C 348.601 -0.751617 1.87604 0
M  V30 3616 C 348.922 -1.77351 0.81066 0
M  V30 3617 O 348.192 -1.95254 -0.159018 0
M  V30 3618 H 346.772 -0.280583 0.692302 0
M  V30 3619 H 349.434 -0.0293483 1.94878 0
M  V30 3620 H 348.53 -1.25852 2.856 0
M  V30 3621 N 348.832 -1.54138 -0.328536 0
M  V30 3622 C 349.742 -1.86192 -1.42723 0
M  V30 3623 C 350.758 -0.753382 -1.56844 0
M  V30 3624 O 351.934 -1.04718 -1.72035 0
M  V30 3625 C 348.999 -2.07824 -2.77507 0
M  V30 3626 C 348.06 -3.31641 -2.72603 0
M  V30 3627 C 347.293 -3.52232 -4.00959 0
M  V30 3628 O 347.516 -2.7636 -4.9898 0
M  V30 3629 O 346.45 -4.45699 -4.0452 0
M  V30 3630 H 350.276 -2.79608 -1.18547 0
M  V30 3631 H 347.861 -1.3998 -0.522104 0
M  V30 3632 H 349.743 -2.23411 -3.57303 0
M  V30 3633 H 348.418 -1.17596 -3.01584 0
M  V30 3634 H 347.325 -3.21444 -1.91376 0
M  V30 3635 H 348.658 -4.2191 -2.53481 0
M  V30 3636 N 350.31 0.590341 -1.46126 0
M  V30 3637 C 351.257 1.69994 -1.56111 0
M  V30 3638 C 352.227 1.61065 -0.405867 0
M  V30 3639 O 353.412 1.8039 -0.621613 0
M  V30 3640 C 350.552 3.08326 -1.55013 0
M  V30 3641 C 349.665 3.27936 -2.81215 0
M  V30 3642 C 348.8 4.56473 -2.71673 0
M  V30 3643 C 347.839 4.694 -3.92849 0
M  V30 3644 N 346.976 5.89254 -3.81738 0
M  V30 3645 H 351.816 1.60797 -2.50895 0
M  V30 3646 H 349.353 0.783799 -1.24479 0
M  V30 3647 H 351.311 3.88383 -1.52362 0
M  V30 3648 H 349.941 3.16439 -0.637667 0
M  V30 3649 H 348.993 2.41536 -2.93879 0
M  V30 3650 H 350.305 3.33357 -3.71045 0
M  V30 3651 H 349.459 5.44748 -2.67085 0
M  V30 3652 H 348.198 4.53477 -1.7947 0
M  V30 3653 H 347.203 3.79544 -3.97777 0
M  V30 3654 H 348.428 4.7418 -4.86138 0
M  V30 3655 H 346.374 5.87271 -2.92317 0
M  V30 3656 H 346.291 5.95911 -4.65217 0
M  V30 3657 H 347.559 6.79981 -3.81112 0
M  V30 3658 N 351.788 1.33704 0.83433 0
M  V30 3659 C 353.035 1.25417 1.58987 0
M  V30 3660 C 353.363 -0.178869 1.93676 0
M  V30 3661 O 352.618 -1.13723 1.59265 0
M  V30 3662 C 352.917 2.07926 2.90692 0
M  V30 3663 C 352.583 3.57066 2.75345 0
M  V30 3664 C 351.245 3.97724 2.70867 0
M  V30 3665 C 353.597 4.51817 2.59828 0
M  V30 3666 C 350.925 5.31344 2.48778 0
M  V30 3667 C 353.277 5.85604 2.39272 0
M  V30 3668 C 351.941 6.25439 2.33199 0
M  V30 3669 H 351.211 0.458934 0.581774 0
M  V30 3670 H 353.858 1.65335 0.966261 0
M  V30 3671 H 352.163 1.608 3.57282 0
M  V30 3672 H 353.86 1.98868 3.48213 0
M  V30 3673 H 350.45 3.24785 2.79665 0
M  V30 3674 H 354.634 4.21311 2.62319 0
M  V30 3675 H 349.89 5.61241 2.42526 0
M  V30 3676 H 354.064 6.58623 2.2625 0
M  V30 3677 H 351.691 7.28914 2.15843 0
M  V30 3678 N 353.266 -1.05314 1.17247 0
M  V30 3679 C 354.494 -1.81971 0.984593 0
M  V30 3680 C 354.909 -1.82929 -0.467166 0
M  V30 3681 O 354.266 -1.25564 -1.32438 0
M  V30 3682 C 354.317 -3.28143 1.51672 0
M  V30 3683 O 354.038 -3.27347 2.91163 0
M  V30 3684 C 355.539 -4.21493 1.37326 0
M  V30 3685 H 352.759 -0.573455 0.348411 0
M  V30 3686 H 355.303 -1.32808 1.55506 0
M  V30 3687 H 353.458 -3.74582 0.988302 0
M  V30 3688 H 353.872 -4.18824 3.15732 0
M  V30 3689 H 355.346 -5.22043 1.79375 0
M  V30 3690 H 355.823 -4.38031 0.320169 0
M  V30 3691 H 356.429 -3.80909 1.89178 0
M  V30 3692 N 354.744 -0.972509 -1.24016 0
M  V30 3693 C 355.974 -0.653853 -1.9598 0
M  V30 3694 C 356.382 0.781801 -1.72292 0
M  V30 3695 O 355.725 1.53677 -1.00644 0
M  V30 3696 C 355.787 -0.854608 -3.49194 0
M  V30 3697 C 355.451 -2.27082 -3.96589 0
M  V30 3698 C 356.448 -3.24892 -4.05883 0
M  V30 3699 C 354.133 -2.5998 -4.29786 0
M  V30 3700 C 356.127 -4.53684 -4.47716 0
M  V30 3701 C 353.814 -3.88997 -4.71301 0
M  V30 3702 C 354.812 -4.85661 -4.80232 0
M  V30 3703 O 354.5 -6.12376 -5.20818 0
M  V30 3704 H 354.232 -0.242572 -0.630979 0
M  V30 3705 H 356.786 -1.30431 -1.58673 0
M  V30 3706 H 355.016 -0.146985 -3.86421 0
M  V30 3707 H 356.705 -0.534311 -4.02368 0
M  V30 3708 H 357.471 -3.00805 -3.80449 0
M  V30 3709 H 353.35 -1.85457 -4.22051 0
M  V30 3710 H 356.894 -5.29135 -4.54601 0
M  V30 3711 H 352.791 -4.12882 -4.96184 0
M  V30 3712 H 353.559 -6.16013 -5.38953 0
M  V30 3713 N 356.222 1.38976 -0.743202 0
M  V30 3714 C 357.154 2.29096 -0.0689228 0
M  V30 3715 C 358.167 1.47229 0.694791 0
M  V30 3716 O 359.356 1.70212 0.537597 0
M  V30 3717 C 356.456 3.25988 0.926548 0
M  V30 3718 C 355.629 4.36833 0.222647 0
M  V30 3719 C 354.688 5.13981 1.12739 0
M  V30 3720 O 353.714 5.6601 0.601795 0
M  V30 3721 N 354.916 5.25966 2.45641 0
M  V30 3722 H 357.681 2.87604 -0.842846 0
M  V30 3723 H 355.242 1.50645 -0.593109 0
M  V30 3724 H 357.234 3.74476 1.5346 0
M  V30 3725 H 355.804 2.68453 1.60162 0
M  V30 3726 H 355.024 3.90116 -0.565983 0
M  V30 3727 H 356.312 5.0811 -0.264841 0
M  V30 3728 H 355.71 4.85228 2.9081 0
M  V30 3729 H 354.267 5.77865 3.01522 0
M  V30 3730 N 357.7 0.491464 1.49741 0
M  V30 3731 C 358.61 -0.296835 2.32715 0
M  V30 3732 C 359.626 -0.976536 1.44013 0
M  V30 3733 O 360.802 -0.960023 1.77047 0
M  V30 3734 C 357.867 -1.35288 3.19215 0
M  V30 3735 C 356.928 -0.687632 4.23757 0
M  V30 3736 C 356.161 -1.69336 5.06123 0
M  V30 3737 O 356.384 -2.92219 4.89861 0
M  V30 3738 O 355.318 -1.25394 5.88693 0
M  V30 3739 H 359.144 0.382048 3.01287 0
M  V30 3740 H 356.729 0.252953 1.47243 0
M  V30 3741 H 358.611 -1.96411 3.72828 0
M  V30 3742 H 357.286 -2.01487 2.53347 0
M  V30 3743 H 356.193 -0.0369159 3.74082 0
M  V30 3744 H 357.526 -0.0682566 4.92153 0
M  V30 3745 N 359.178 -1.55987 0.224894 0
M  V30 3746 C 360.126 -2.21808 -0.700283 0
M  V30 3747 C 361.12 -1.19854 -1.19714 0
M  V30 3748 O 362.326 -1.37925 -1.15658 0
M  V30 3749 H 358.701 -0.711226 -0.244258 0
M  V30 3750 H 360.672 -2.98152 -0.121749 0
M  V30 3751 C 359.421 -2.91444 -1.8962 0
M  V30 3752 H 358.744 -3.69655 -1.52299 0
M  V30 3753 H 360.184 -3.40894 -2.52125 0
M  V30 3754 C 358.643 -1.94098 -2.75368 0
M  V30 3755 O 359.173 -1.46004 -3.74227 0
M  V30 3756 N 357.379 -1.61675 -2.41474 0
M  V30 3757 H 356.926 -2.00979 -1.61137 0
M  V30 3758 H 356.884 -0.968036 -2.99126 0
M  V30 3759 N 360.656 0.0484629 -1.57525 0
M  V30 3760 C 362.067 0.597486 -1.76881 0
M  V30 3761 C 362.418 1.76664 -0.853475 0
M  V30 3762 O 361.543 2.16357 -0.0433656 0
M  V30 3763 C 362.138 1.09066 -3.20765 0
M  V30 3764 C 360.697 1.58535 -3.41385 0
M  V30 3765 C 359.844 0.514868 -2.72478 0
M  V30 3766 H 362.795 -0.177758 -1.57701 0
M  V30 3767 H 362.816 1.95875 -3.2621 0
M  V30 3768 H 362.328 0.239521 -3.8736 0
M  V30 3769 H 360.429 2.45898 -2.79937 0
M  V30 3770 H 360.542 1.64622 -4.49929 0
M  V30 3771 H 358.906 0.965407 -2.35695 0
M  V30 3772 H 359.689 -0.32648 -3.41744 0
M  V30 3773 N 362.134 1.5431 0.320358 0
M  V30 3774 C 363.044 1.86946 1.41734 0
M  V30 3775 C 364.06 0.761689 1.56443 0
M  V30 3776 O 365.236 1.05629 1.71477 0
M  V30 3777 C 362.301 2.09293 2.76401 0
M  V30 3778 C 361.362 3.33082 2.70841 0
M  V30 3779 C 360.595 3.54353 3.99086 0
M  V30 3780 O 360.818 2.79002 4.97508 0
M  V30 3781 O 359.752 4.47838 4.0215 0
M  V30 3782 H 363.578 2.80232 1.17062 0
M  V30 3783 H 361.163 1.40255 0.514673 0
M  V30 3784 H 363.045 2.25303 3.56113 0
M  V30 3785 H 361.72 1.19194 3.00956 0
M  V30 3786 H 360.627 3.22454 1.89668 0
M  V30 3787 H 361.96 4.23249 2.5124 0
M  V30 3788 N 363.613 -0.582584 1.46437 0
M  V30 3789 C 364.576 -1.67366 1.56592 0
M  V30 3790 C 365.576 -1.54575 0.443072 0
M  V30 3791 O 366.766 -1.59191 0.707381 0
M  V30 3792 C 363.898 -3.06791 1.48634 0
M  V30 3793 H 365.091 -1.5972 2.5383 0
M  V30 3794 H 362.644 -0.800432 1.34249 0
M  V30 3795 H 363.379 -3.19993 0.526763 0
M  V30 3796 H 363.164 -3.17484 2.30101 0
M  V30 3797 H 364.654 -3.86218 1.58826 0
M  V30 3798 N 365.091 -1.34144 -0.827227 0
M  V30 3799 C 366.024 -1.19707 -1.94282 0
M  V30 3800 C 367.002 -0.0897256 -1.62352 0
M  V30 3801 O 368.186 -0.254095 -1.8678 0
M  V30 3802 C 365.313 -0.838646 -3.28153 0
M  V30 3803 C 364.359 -1.95514 -3.79047 0
M  V30 3804 S 365.192 -3.56793 -3.99323 0
M  V30 3805 C 366.348 -3.22983 -5.36127 0
M  V30 3806 H 366.581 -2.1414 -2.06231 0
M  V30 3807 H 364.114 -1.19121 -0.982321 0
M  V30 3808 H 366.072 -0.638637 -4.05502 0
M  V30 3809 H 364.733 0.0872776 -3.13979 0
M  V30 3810 H 363.926 -1.658 -4.75948 0
M  V30 3811 H 363.528 -2.11241 -3.08631 0
M  V30 3812 H 365.82 -2.74531 -6.19386 0
M  V30 3813 H 366.763 -4.19008 -5.70822 0
M  V30 3814 H 367.171 -2.59276 -5.01434 0
M  V30 3815 N 366.569 1.04691 -1.17803 0
M  V30 3816 C 367.817 1.7743 -0.967617 0
M  V30 3817 C 368.138 1.88359 0.504574 0
M  V30 3818 O 367.408 1.40402 1.36617 0
M  V30 3819 H 365.988 0.657242 -0.355024 0
M  V30 3820 H 368.65 1.2638 -1.48371 0
M  V30 3821 H 367.746 2.78924 -1.40027 0
M  V30 3822 N 368.047 0.979072 1.23499 0
M  V30 3823 C 369.295 0.645941 1.91499 0
M  V30 3824 C 369.616 -0.822948 1.76784 0
M  V30 3825 O 368.886 -1.58854 1.14639 0
M  V30 3826 H 367.466 0.235919 0.708767 0
M  V30 3827 H 370.128 1.2426 1.50152 0
M  V30 3828 H 369.224 0.896411 2.9895 0
M  V30 3829 N 369.525 -1.3858 0.750561 0
M  V30 3830 C 370.774 -1.99424 0.302172 0
M  V30 3831 C 371.087 -1.60254 -1.12152 0
M  V30 3832 O 372.293 -2.14046 -1.67023 0
M  V30 3833 C 370.749 -3.56558 0.489307 0
M  V30 3834 C 370.357 -4.04682 1.92189 0
M  V30 3835 C 372.101 -4.24374 0.103478 0
M  V30 3836 C 370.008 -5.54446 2.05775 0
M  V30 3837 H 368.938 -0.746046 0.10923 0
M  V30 3838 H 371.589 -1.58383 0.92667 0
M  V30 3839 H 369.971 -3.95472 -0.204329 0
M  V30 3840 H 371.145 -3.77065 2.64875 0
M  V30 3841 H 369.46 -3.4958 2.26236 0
M  V30 3842 H 372.057 -5.34384 0.183787 0
M  V30 3843 H 372.4 -4.05468 -0.943481 0
M  V30 3844 H 372.933 -3.90688 0.748854 0
M  V30 3845 H 369.672 -5.78252 3.08714 0
M  V30 3846 H 369.192 -5.83816 1.37546 0
M  V30 3847 H 370.871 -6.20099 1.84626 0
M  V30 3848 N 371.003 -0.499398 -1.49478 0
M  V30 3849 C 372.414 -0.051215 -1.8663 0
M  V30 3850 C 372.765 1.36238 -1.41186 0
M  V30 3851 O 371.89 2.01502 -0.789051 0
M  V30 3852 C 372.485 -0.0861651 -3.3869 0
M  V30 3853 C 371.044 0.30667 -3.75149 0
M  V30 3854 C 370.191 -0.459397 -2.73468 0
M  V30 3855 H 373.142 -0.712264 -1.41818 0
M  V30 3856 H 373.163 0.709507 -3.73826 0
M  V30 3857 H 372.675 -1.11512 -3.71735 0
M  V30 3858 H 370.776 1.33892 -3.47712 0
M  V30 3859 H 370.889 -0.0116669 -4.79099 0
M  V30 3860 H 369.253 0.0905645 -2.54539 0
M  V30 3861 H 370.036 -1.4884 -3.09357 0
M  V30 3862 N 372.481 1.55866 -0.233164 0
M  V30 3863 C 373.431 2.17442 0.685774 0
M  V30 3864 C 374.415 1.12617 1.14918 0
M  V30 3865 O 375.607 1.3857 1.10124 0
M  V30 3866 C 372.736 2.86685 1.88856 0
M  V30 3867 C 371.822 3.98749 1.4443 0
M  V30 3868 N 372.213 5.00744 0.713364 0
M  V30 3869 C 370.511 4.11052 1.73068 0
M  V30 3870 C 371.212 5.79673 0.485205 0
M  V30 3871 N 370.188 5.33454 1.04536 0
M  V30 3872 H 373.99 2.93659 0.119022 0
M  V30 3873 H 371.504 1.62362 -0.0348995 0
M  V30 3874 H 373.501 3.29218 2.55776 0
M  V30 3875 H 372.161 2.11967 2.45967 0
M  V30 3876 H 373.172 5.16613 0.364861 0
M  V30 3877 H 369.849 3.47495 2.31416 0
M  V30 3878 H 371.239 6.71829 -0.097365 0
M  V30 3879 N 373.959 -0.0401083 1.57549 0
M  V30 3880 C 375.208 -0.732108 1.87944 0
M  V30 3881 C 375.521 -1.77107 0.830206 0
M  V30 3882 O 376.727 -2.51488 1.02302 0
M  V30 3883 C 375.183 -1.35315 3.33494 0
M  V30 3884 C 374.791 -0.351105 4.46622 0
M  V30 3885 C 376.535 -2.02566 3.73051 0
M  V30 3886 C 374.442 -0.979859 5.83226 0
M  V30 3887 H 373.372 -0.277188 0.701201 0
M  V30 3888 H 376.023 0.0138501 1.83495 0
M  V30 3889 H 374.405 -2.14844 3.32653 0
M  V30 3890 H 375.579 0.416674 4.58912 0
M  V30 3891 H 373.894 0.218708 4.15825 0
M  V30 3892 H 376.491 -2.50441 4.72423 0
M  V30 3893 H 376.834 -2.83904 3.04474 0
M  V30 3894 H 377.367 -1.29827 3.76018 0
M  V30 3895 H 374.106 -0.206135 6.55176 0
M  V30 3896 H 373.626 -1.71774 5.74677 0
M  V30 3897 H 375.305 -1.49046 6.29599 0
M  V30 3898 N 375.437 -1.54477 -0.31217 0
M  V30 3899 C 376.384 -1.84655 -1.38461 0
M  V30 3900 C 377.354 -0.694536 -1.50882 0
M  V30 3901 O 378.539 -0.942081 -1.6592 0
M  V30 3902 C 375.679 -2.0896 -2.74645 0
M  V30 3903 C 374.792 -3.36618 -2.70763 0
M  V30 3904 C 373.927 -3.50824 -3.98868 0
M  V30 3905 C 372.966 -4.72315 -3.89339 0
M  V30 3906 N 372.103 -4.83387 -5.09197 0
M  V30 3907 H 376.943 -2.76142 -1.12026 0
M  V30 3908 H 374.48 -1.36748 -0.542065 0
M  V30 3909 H 376.438 -2.21045 -3.53829 0
M  V30 3910 H 375.068 -1.20752 -2.99364 0
M  V30 3911 H 374.12 -3.33211 -1.83506 0
M  V30 3912 H 375.432 -4.25917 -2.59608 0
M  V30 3913 H 374.586 -3.62513 -4.86486 0
M  V30 3914 H 373.325 -2.59638 -4.12843 0
M  V30 3915 H 372.33 -4.6067 -3.00105 0
M  V30 3916 H 373.555 -5.64897 -3.76919 0
M  V30 3917 H 371.501 -3.9512 -5.23657 0
M  V30 3918 H 371.418 -5.66669 -5.00422 0
M  V30 3919 H 372.686 -4.9942 -5.98498 0
M  V30 3920 N 376.915 0.57481 -1.46744 0
M  V30 3921 C 378.326 1.15695 -1.46532 0
M  V30 3922 C 378.677 1.95068 -0.210425 0
M  V30 3923 O 377.802 2.05241 0.685944 0
M  V30 3924 C 378.397 2.1048 -2.65487 0
M  V30 3925 C 376.956 2.64002 -2.68291 0
M  V30 3926 C 376.103 1.40026 -2.39349 0
M  V30 3927 H 379.054 0.362325 -1.54509 0
M  V30 3928 H 379.075 2.94074 -2.41455 0
M  V30 3929 H 378.587 1.52683 -3.56805 0
M  V30 3930 H 376.688 3.25646 -1.81067 0
M  V30 3931 H 376.801 3.06197 -3.68483 0
M  V30 3932 H 375.165 1.70106 -1.89568 0
M  V30 3933 H 375.948 0.840485 -3.32852 0
M  V30 3934 N 378.394 1.34581 0.820102 0
M  V30 3935 C 379.642 1.26845 1.57336 0
M  V30 3936 C 379.963 -0.160667 1.94337 0
M  V30 3937 O 379.233 -1.09396 1.6251 0
M  V30 3938 H 377.813 0.466514 0.583415 0
M  V30 3939 H 380.475 1.68526 0.979027 0
M  V30 3940 H 379.571 1.87513 2.4949 0
M  V30 3941 N 379.872 -1.04064 1.18357 0
M  V30 3942 C 381.149 -1.74252 0.888581 0
M  V30 3943 C 381.529 -2.02138 -0.60856 0
M  V30 3944 O 380.877 -1.66656 -1.56327 0
M  V30 3945 C 381.087 -3.0277 1.73584 0
M  V30 3946 C 382.435 -3.76506 1.96286 0
M  V30 3947 O 383.459 -3.12668 1.70637 0
M  V30 3948 O 382.318 -4.91243 2.39464 0
M  V30 3949 H 379.412 -0.758271 0.330082 0
M  V30 3950 H 381.958 -1.1013 1.2911 0
M  V30 3951 H 380.73 -2.78299 2.75073 0
M  V30 3952 H 380.353 -3.74631 1.33183 0
M  V30 3953 N 381.35 -0.985608 -1.22978 0
M  V30 3954 C 382.761 -0.693593 -1.73338 0
M  V30 3955 C 383.112 0.789935 -1.79595 0
M  V30 3956 O 382.237 1.61771 -1.43733 0
M  V30 3957 C 382.832 -1.25235 -3.14804 0
M  V30 3958 C 381.391 -1.00987 -3.626 0
M  V30 3959 C 380.538 -1.37695 -2.40698 0
M  V30 3960 H 383.489 -1.15884 -1.08428 0
M  V30 3961 H 383.51 -0.627329 -3.75293 0
M  V30 3962 H 383.022 -2.33209 -3.10218 0
M  V30 3963 H 381.123 0.0535565 -3.72562 0
M  V30 3964 H 381.236 -1.66812 -4.49122 0
M  V30 3965 H 379.6 -0.795459 -2.4196 0
M  V30 3966 H 380.383 -2.46657 -2.38779 0
M  V30 3967 N 382.828 1.3818 -0.7579 0
M  V30 3968 C 384.244 1.5353 -0.435972 0
M  V30 3969 C 384.444 1.71961 1.05032 0
M  V30 3970 O 383.5 1.73307 1.83633 0
M  V30 3971 C 384.813 2.73989 -1.23898 0
M  V30 3972 C 386.361 2.87841 -1.22949 0
M  V30 3973 C 386.836 4.11266 -2.01554 0
M  V30 3974 N 388.327 4.18352 -1.98837 0
M  V30 3975 C 389.062 5.12856 -2.5645 0
M  V30 3976 N 388.558 6.13005 -3.22794 0
M  V30 3977 N 390.351 5.05238 -2.46356 0
M  V30 3978 H 382.502 1.24467 -1.7211 0
M  V30 3979 H 384.765 0.604982 -0.729864 0
M  V30 3980 H 384.471 2.66789 -2.29165 0
M  V30 3981 H 384.345 3.67294 -0.858764 0
M  V30 3982 H 386.732 2.9452 -0.184854 0
M  V30 3983 H 386.813 1.95534 -1.64924 0
M  V30 3984 H 386.457 4.05349 -3.06031 0
M  V30 3985 H 386.387 5.02661 -1.5697 0
M  V30 3986 H 388.878 3.46628 -1.50524 0
M  V30 3987 H 389.191 6.81619 -3.64165 0
M  V30 3988 H 387.536 6.13325 -3.2689 0
M  V30 3989 H 390.727 4.25938 -1.9415 0
M  V30 3990 H 390.9 5.78707 -2.91552 0
M  V30 3991 N 384.306 0.507319 1.49211 0
M  V30 3992 C 385.236 -0.256939 2.32082 0
M  V30 3993 C 386.217 -0.956609 1.40652 0
M  V30 3994 O 387.402 -0.946788 1.69557 0
M  V30 3995 C 384.532 -1.31802 3.21318 0
M  V30 3996 C 383.486 -0.737855 4.21592 0
M  V30 3997 C 382.812 -1.89992 4.99807 0
M  V30 3998 C 384.112 0.275325 5.21574 0
M  V30 3999 H 385.806 0.434798 2.96226 0
M  V30 4000 H 383.352 0.210546 1.42452 0
M  V30 4001 H 385.305 -1.86045 3.78107 0
M  V30 4002 H 384.029 -2.03903 2.5513 0
M  V30 4003 H 382.688 -0.217126 3.65956 0
M  V30 4004 H 382.336 -2.60877 4.30061 0
M  V30 4005 H 382.036 -1.51777 5.6766 0
M  V30 4006 H 383.56 -2.44657 5.59442 0
M  V30 4007 H 384.974 -0.179193 5.7302 0
M  V30 4008 H 383.371 0.573649 5.97352 0
M  V30 4009 H 384.441 1.18903 4.70096 0
M  V30 4010 N 385.784 -1.5574 0.241426 0
M  V30 4011 C 386.734 -2.17803 -0.674233 0
M  V30 4012 C 387.718 -1.13225 -1.14319 0
M  V30 4013 O 388.91 -1.39153 -1.09387 0
M  V30 4014 C 386.039 -2.87682 -1.87333 0
M  V30 4015 C 385.125 -3.99509 -1.42313 0
M  V30 4016 N 385.516 -5.01115 -0.686798 0
M  V30 4017 C 383.814 -4.11964 -1.70885 0
M  V30 4018 C 384.515 -5.79922 -0.454456 0
M  V30 4019 N 383.491 -5.34001 -1.01705 0
M  V30 4020 H 387.293 -2.93718 -0.103447 0
M  V30 4021 H 384.807 -1.62342 0.0435095 0
M  V30 4022 H 386.804 -3.3057 -2.54026 0
M  V30 4023 H 385.464 -2.13269 -2.4484 0
M  V30 4024 H 386.475 -5.16799 -0.337459 0
M  V30 4025 H 383.152 -3.48718 -2.2957 0
M  V30 4026 H 384.542 -6.71768 0.132992 0
M  V30 4027 N 387.262 0.0317525 -1.57568 0
M  V30 4028 C 388.21 1.05165 -2.07468 0
M  V30 4029 C 389.204 1.3761 -0.98792 0
M  V30 4030 O 390.41 1.36546 -1.17282 0
M  V30 4031 H 386.785 0.35666 -0.66204 0
M  V30 4032 H 388.756 0.604958 -2.92203 0
M  V30 4033 C 387.505 2.34488 -2.56731 0
M  V30 4034 H 386.828 2.10383 -3.39969 0
M  V30 4035 H 388.268 3.04203 -2.95358 0
M  V30 4036 C 386.727 3.03266 -1.46736 0
M  V30 4037 O 387.257 3.92988 -0.832069 0
M  V30 4038 N 385.463 2.6455 -1.20256 0
M  V30 4039 H 385.01 1.91674 -1.72102 0
M  V30 4040 H 384.968 3.10886 -0.468737 0
M  V30 4041 N 388.74 1.54641 0.303973 0
M  V30 4042 C 389.69 1.8177 1.37636 0
M  V30 4043 C 390.674 0.674697 1.46071 0
M  V30 4044 O 391.866 0.935251 1.50273 0
M  V30 4045 C 388.995 2.06584 2.74186 0
M  V30 4046 C 388.081 3.2706 2.69986 0
M  V30 4047 N 388.472 4.47682 2.35402 0
M  V30 4048 C 386.77 3.29028 3.01092 0
M  V30 4049 C 387.471 5.29689 2.40426 0
M  V30 4050 N 386.447 4.67339 2.7766 0
M  V30 4051 H 390.249 2.72596 1.09857 0
M  V30 4052 H 387.763 1.541 0.51254 0
M  V30 4053 H 389.76 2.24166 3.51504 0
M  V30 4054 H 388.42 1.17024 3.02879 0
M  V30 4055 H 389.431 4.74336 2.07908 0
M  V30 4056 H 386.108 2.49565 3.34699 0
M  V30 4057 H 387.498 6.3606 2.16512 0
M  V30 4058 N 390.218 -0.567019 1.47046 0
M  V30 4059 C 391.15 -1.68985 1.54844 0
M  V30 4060 C 392.163 -1.56869 0.435431 0
M  V30 4061 O 393.352 -1.64006 0.70457 0
M  V30 4062 C 390.452 -3.07373 1.42742 0
M  V30 4063 C 389.625 -3.45339 2.6844 0
M  V30 4064 C 388.684 -4.62849 2.50314 0
M  V30 4065 O 387.71 -4.67922 3.24095 0
M  V30 4066 N 388.912 -5.58726 1.57499 0
M  V30 4067 H 391.677 -1.62745 2.51663 0
M  V30 4068 H 389.238 -0.753411 1.43302 0
M  V30 4069 H 391.23 -3.83803 1.28365 0
M  V30 4070 H 389.8 -3.07893 0.540445 0
M  V30 4071 H 389.02 -2.58455 2.97648 0
M  V30 4072 H 390.308 -3.67476 3.51907 0
M  V30 4073 H 389.706 -5.57376 0.966876 0
M  V30 4074 H 388.263 -6.34523 1.49078 0
M  V30 4075 N 391.696 -1.35014 -0.812953 0
M  V30 4076 C 392.944 -1.27678 -1.56661 0
M  V30 4077 C 393.265 0.150359 -1.94419 0
M  V30 4078 O 392.535 1.08532 -1.63088 0
M  V30 4079 H 391.115 -0.469602 -0.580933 0
M  V30 4080 H 393.777 -1.69043 -0.970076 0
M  V30 4081 H 392.873 -1.88833 -2.48492 0
M  V30 4082 O 393.213 0.951708 -1.30479 0
M  V30 4083 H 393.904 1.58029 -1.12012 0
M  V30 END ATOM
M  V30 BEGIN BOND
M  V30 END BOND
M  V30 END CTAB
M  END
$$$$
