drugbank_target|P60484 Phosphatidylinositol 3,4,5-trisphosphate 3-phosphatase and dual-specificity protein phosphatase PTEN (DB04327)
 OpenBabel12092121023D

  0  0  0     0  0            999 V3000
M  V30 BEGIN CTAB
M  V30 COUNTS 6530 6617 0 0 0
M  V30 BEGIN ATOM
M  V30 1 H -0.908 1.98254 -0.117106 0
M  V30 2 N 0 1.576 0 0
M  V30 3 C 0.933 2.03868 1.02534 0
M  V30 4 C 1.911 0.928543 1.3348 0
M  V30 5 O 3.095 1.19667 1.45644 0
M  V30 6 C 0.222 2.43627 2.35294 0
M  V30 7 C -0.732 3.65373 2.2001 0
M  V30 8 S 0.101 5.13292 1.52614 0
M  V30 9 C 1.257 5.56322 2.86805 0
M  V30 10 H 1.49 2.90518 0.631377 0
M  V30 11 H -0.977 1.52953 0.210867 0
M  V30 12 H 0.981 2.67203 3.11629 0
M  V30 13 H -0.358 1.57376 2.7183 0
M  V30 14 H -1.165 3.90944 3.18086 0
M  V30 15 H -1.563 3.418 1.51819 0
M  V30 16 H 0.729 5.58782 3.83104 0
M  V30 17 H 1.672 6.56266 2.65933 0
M  V30 18 H 2.08 4.83886 2.90714 0
M  V30 19 N 1.4781 -0.272755 1.55222 0
M  V30 20 C 2.7061 -1.02255 1.79865 0
M  V30 21 C 3.1211 -1.79924 0.572088 0
M  V30 22 O 2.4781 -1.76638 -0.458842 0
M  V30 23 C 2.5291 -1.98094 3.02392 0
M  V30 24 O 2.2501 -1.23572 4.20311 0
M  V30 25 C 3.7511 -2.84884 3.39641 0
M  V30 26 H 0.9711 -0.302057 0.599168 0
M  V30 27 H 3.5151 -0.303465 2.02236 0
M  V30 28 H 1.6701 -2.65465 2.82147 0
M  V30 29 H 2.0841 -1.88172 4.89583 0
M  V30 30 H 3.5581 -3.47927 4.28545 0
M  V30 31 H 4.0351 -3.54665 2.59055 0
M  V30 32 H 4.6411 -2.23003 3.62146 0
M  V30 33 N 2.9562 -1.48159 -0.537278 0
M  V30 34 C 3.9192 -1.61665 -1.62472 0
M  V30 35 C 4.9192 -0.490395 -1.5314 0
M  V30 36 O 6.1092 -0.755998 -1.5694 0
M  V30 37 C 3.2412 -1.57997 -3.02076 0
M  V30 38 H 4.4342 -2.58621 -1.51839 0
M  V30 39 H 1.9872 -1.36647 -0.758771 0
M  V30 40 H 2.7222 -0.624913 -3.18222 0
M  V30 41 H 2.5072 -2.39755 -3.10258 0
M  V30 42 H 3.9972 -1.70627 -3.81151 0
M  V30 43 N 4.4343 0.785586 -1.36625 0
M  V30 44 C 5.6833 1.53883 -1.30396 0
M  V30 45 C 5.9963 1.95271 0.113452 0
M  V30 46 O 7.2023 2.69858 0.298142 0
M  V30 47 C 5.6583 2.77808 -2.28802 0
M  V30 48 C 5.2663 2.43574 -3.75999 0
M  V30 49 C 7.0103 3.55783 -2.31558 0
M  V30 50 C 4.9173 3.63919 -4.66173 0
M  V30 51 H 3.8473 0.577678 -0.484566 0
M  V30 52 H 6.4983 0.861705 -1.62009 0
M  V30 53 H 4.8803 3.47339 -1.90188 0
M  V30 54 H 6.0543 1.81916 -4.23371 0
M  V30 55 H 4.3693 1.78803 -3.76056 0
M  V30 56 H 6.9663 4.45205 -2.96137 0
M  V30 57 H 7.3093 3.94644 -1.3252 0
M  V30 58 H 7.8423 2.93235 -2.68809 0
M  V30 59 H 4.5813 3.3015 -5.66287 0
M  V30 60 H 4.1013 4.2473 -4.23515 0
M  V30 61 H 5.7803 4.30901 -4.82632 0
M  V30 62 N 5.9124 1.20967 1.01018 0
M  V30 63 C 7.1614 1.01796 1.74128 0
M  V30 64 C 7.4744 -0.449691 1.90361 0
M  V30 65 O 8.6804 -0.76068 2.60626 0
M  V30 66 C 7.1364 1.7727 3.13215 0
M  V30 67 C 6.7444 3.28171 3.04972 0
M  V30 68 C 8.4884 1.66489 3.90489 0
M  V30 69 C 6.3954 3.96156 4.39107 0
M  V30 70 H 5.3254 0.377276 0.652824 0
M  V30 71 H 7.9764 1.44651 1.12909 0
M  V30 72 H 6.3584 1.27205 3.75013 0
M  V30 73 H 7.5324 3.85499 2.52443 0
M  V30 74 H 5.8474 3.39437 2.41188 0
M  V30 75 H 8.4444 2.14617 4.89738 0
M  V30 76 H 8.7874 0.6222 4.11624 0
M  V30 77 H 9.3204 2.14003 3.35332 0
M  V30 78 H 6.0594 5.00604 4.23174 0
M  V30 79 H 5.5794 3.43617 4.91617 0
M  V30 80 H 7.2584 4.00774 5.07926 0
M  V30 81 N 7.3905 -1.2043 1.01659 0
M  V30 82 C 8.3375 -2.23215 0.586822 0
M  V30 83 C 9.3075 -1.61382 -0.393085 0
M  V30 84 O 10.4925 -1.88544 -0.292525 0
M  V30 85 C 7.6325 -3.45032 -0.0687464 0
M  V30 86 C 6.7455 -4.21296 0.955724 0
M  V30 87 C 5.8805 -5.30507 0.271208 0
M  V30 88 C 4.9195 -5.98515 1.28244 0
M  V30 89 N 4.0565 -6.99316 0.62459 0
M  V30 90 H 8.8965 -2.59336 1.46796 0
M  V30 91 H 6.4335 -1.27431 0.734836 0
M  V30 92 H 8.3915 -4.1459 -0.465965 0
M  V30 93 H 7.0215 -3.09604 -0.913529 0
M  V30 94 H 6.0735 -3.50803 1.4711 0
M  V30 95 H 7.3855 -4.6803 1.72479 0
M  V30 96 H 6.5395 -6.06428 -0.18151 0
M  V30 97 H 5.2785 -4.8481 -0.530163 0
M  V30 98 H 4.2835 -5.21355 1.74554 0
M  V30 99 H 5.5085 -6.46298 2.08509 0
M  V30 100 H 3.4545 -6.55812 -0.156914 0
M  V30 101 H 3.3715 -7.44178 1.33172 0
M  V30 102 H 4.6395 -7.79255 0.195462 0
M  V30 103 N 8.8686 -0.792821 -1.36206 0
M  V30 104 C 9.7786 -0.194808 -2.3379 0
M  V30 105 C 10.7946 0.654869 -1.61206 0
M  V30 106 O 11.9706 0.569856 -1.9317 0
M  V30 107 C 9.0356 0.657721 -3.40404 0
M  V30 108 C 8.0966 -0.210849 -4.28782 0
M  V30 109 C 7.3296 0.601086 -5.30304 0
M  V30 110 O 7.5526 1.83682 -5.40016 0
M  V30 111 O 6.4866 -0.000808277 -6.019 0
M  V30 112 H 10.3126 -1.00172 -2.86704 0
M  V30 113 H 7.8976 -0.554341 -1.38735 0
M  V30 114 H 9.7796 1.14375 -4.05581 0
M  V30 115 H 8.4546 1.44247 -2.89784 0
M  V30 116 H 7.3616 -0.743714 -3.66633 0
M  V30 117 H 8.6946 -0.959195 -4.82763 0
M  V30 118 N 10.3467 1.47872 -0.545128 0
M  V30 119 C 11.5957 2.01695 -0.0145033 0
M  V30 120 C 11.9087 1.42609 1.33873 0
M  V30 121 O 13.1147 1.88021 1.95858 0
M  V30 122 C 11.5707 3.59892 0.0245068 0
M  V30 123 C 11.1787 4.27966 -1.32475 0
M  V30 124 C 12.9227 4.21507 0.50316 0
M  V30 125 C 10.8297 5.78136 -1.2455 0
M  V30 126 H 9.7597 0.753998 -0.00165172 0
M  V30 127 H 12.4107 1.69985 -0.691175 0
M  V30 128 H 10.7927 3.88509 0.766575 0
M  V30 129 H 11.9667 4.11003 -2.08357 0
M  V30 130 H 10.2817 3.78286 -1.74036 0
M  V30 131 H 12.8787 5.31538 0.580656 0
M  V30 132 H 13.2217 3.87855 1.51243 0
M  V30 133 H 13.7547 3.97376 -0.183681 0
M  V30 134 H 10.4937 6.16388 -2.23039 0
M  V30 135 H 10.0137 5.97469 -0.528282 0
M  V30 136 H 11.6927 6.40099 -0.942488 0
M  V30 137 N 11.8248 0.280983 1.55075 0
M  V30 138 C 13.0708 -0.33461 2.00021 0
M  V30 139 C 13.4038 -1.55063 1.16915 0
M  V30 140 O 12.6788 -1.93006 0.240646 0
M  V30 141 C 12.9618 -0.711007 3.53011 0
M  V30 142 C 12.8148 0.512766 4.46868 0
M  V30 143 C 14.1338 -1.54522 4.12081 0
M  V30 144 H 11.2528 -0.120147 0.727141 0
M  V30 145 H 13.8948 0.389097 1.85973 0
M  V30 146 H 12.0448 -1.32761 3.65112 0
M  V30 147 H 13.7168 1.15131 4.46702 0
M  V30 148 H 11.9598 1.14975 4.18286 0
M  V30 149 H 12.6308 0.205556 5.51617 0
M  V30 150 H 15.1068 -1.02442 4.03293 0
M  V30 151 H 13.9828 -1.77739 5.19327 0
M  V30 152 H 14.2438 -2.52813 3.62682 0
M  V30 153 N 13.3029 -1.57598 0.00835791 0
M  V30 154 C 14.5279 -1.95617 -0.689103 0
M  V30 155 C 14.9529 -0.883753 -1.66046 0
M  V30 156 O 14.3109 0.157352 -1.80616 0
M  V30 157 C 14.3589 -3.32736 -1.38994 0
M  V30 158 O 13.4629 -3.27631 -2.50463 0
M  V30 159 H 12.8039 -0.638379 -0.182668 0
M  V30 160 H 15.3339 -2.045 0.064036 0
M  V30 161 H 15.3439 -3.68494 -1.75147 0
M  V30 162 H 14.0189 -4.1034 -0.677778 0
M  V30 163 H 12.5959 -3.03561 -2.16576 0
M  V30 164 N 14.781 0.264519 -1.55364 0
M  V30 165 C 16.197 0.61215 -1.47394 0
M  V30 166 C 16.397 1.89134 -0.695018 0
M  V30 167 O 15.453 2.51563 -0.217275 0
M  V30 168 C 16.766 0.731235 -2.91674 0
M  V30 169 C 18.314 0.82473 -3.01939 0
M  V30 170 C 18.789 0.975522 -4.4749 0
M  V30 171 N 20.28 1.04083 -4.51354 0
M  V30 172 C 21.015 1.17646 -5.61201 0
M  V30 173 N 20.511 1.27874 -6.80896 0
M  V30 174 N 22.304 1.20823 -5.48961 0
M  V30 175 H 14.455 -0.575456 -2.04456 0
M  V30 176 H 16.718 -0.196099 -0.927496 0
M  V30 177 H 16.424 -0.138392 -3.51428 0
M  V30 178 H 16.298 1.60883 -3.41169 0
M  V30 179 H 18.685 1.68482 -2.42276 0
M  V30 180 H 18.766 -0.0776479 -2.55682 0
M  V30 181 H 18.41 0.120058 -5.07758 0
M  V30 182 H 18.34 1.89268 -4.91412 0
M  V30 183 H 20.831 0.973846 -3.65136 0
M  V30 184 H 21.144 1.38081 -7.60364 0
M  V30 185 H 19.489 1.24863 -6.83692 0
M  V30 186 H 22.68 1.12469 -4.54388 0
M  V30 187 H 22.853 1.31049 -6.3461 0
M  V30 188 N 16.2591 1.48442 0.529413 0
M  V30 189 C 17.2071 1.63452 1.65487 0
M  V30 190 C 18.2011 0.500955 1.61823 0
M  V30 191 O 19.4071 0.679695 1.66674 0
M  V30 192 H 15.7821 0.514905 0.548066 0
M  V30 193 H 17.7531 2.57975 1.49971 0
M  V30 194 C 16.5021 1.69196 3.03756 0
M  V30 195 H 15.8251 2.55784 3.07269 0
M  V30 196 H 17.2651 1.83743 3.82119 0
M  V30 197 C 15.7241 0.430765 3.34135 0
M  V30 198 O 16.2541 -0.4561 3.99102 0
M  V30 199 N 14.4601 0.302293 2.89023 0
M  V30 200 H 14.0071 1.02496 2.36331 0
M  V30 201 H 13.9651 -0.540546 3.09718 0
M  V30 202 N 17.7372 -0.778329 1.37039 0
M  V30 203 C 18.6842 -1.89139 1.32269 0
M  V30 204 C 19.6542 -1.65017 0.189387 0
M  V30 205 O 20.8392 -1.87024 0.377693 0
M  V30 206 C 17.9792 -3.26112 1.12894 0
M  V30 207 C 17.0922 -3.62233 2.35396 0
M  V30 208 C 16.2272 -4.8838 2.08946 0
M  V30 209 C 15.2662 -5.17212 3.2735 0
M  V30 210 N 14.4032 -6.34546 3.00492 0
M  V30 211 H 19.2432 -1.92552 2.27437 0
M  V30 212 H 16.7802 -0.941473 1.13025 0
M  V30 213 H 18.7382 -4.05116 0.996835 0
M  V30 214 H 17.3682 -3.22091 0.213758 0
M  V30 215 H 16.4202 -2.78265 2.5937 0
M  V30 216 H 17.7322 -3.79481 3.23721 0
M  V30 217 H 16.8862 -5.75274 1.92729 0
M  V30 218 H 15.6252 -4.73222 1.17949 0
M  V30 219 H 14.6302 -4.28796 3.44113 0
M  V30 220 H 15.8552 -5.34283 4.19188 0
M  V30 221 H 13.8012 -6.20759 2.12118 0
M  V30 222 H 13.7182 -6.52179 3.82358 0
M  V30 223 H 14.9862 -7.24394 2.87879 0
M  V30 224 N 19.2153 -1.21501 -1.00376 0
M  V30 225 C 20.6313 -0.972629 -1.26539 0
M  V30 226 C 20.8313 0.340257 -1.98606 0
M  V30 227 O 19.8873 1.06561 -2.28913 0
M  V30 228 C 21.2003 -2.16404 -2.08781 0
M  V30 229 C 22.7483 -2.20643 -2.22004 0
M  V30 230 C 23.2233 -3.39306 -3.07629 0
M  V30 231 N 24.7143 -3.39401 -3.15217 0
M  V30 232 C 25.4493 -4.27867 -3.81729 0
M  V30 233 N 24.9453 -5.26533 -4.5026 0
M  V30 234 N 26.7383 -4.15672 -3.78382 0
M  V30 235 H 18.8893 -2.05929 -0.520281 0
M  V30 236 H 21.1523 -0.901803 -0.292328 0
M  V30 237 H 20.8583 -3.11554 -1.63178 0
M  V30 238 H 20.7323 -2.15567 -3.09533 0
M  V30 239 H 23.1193 -1.26048 -2.66825 0
M  V30 240 H 23.2003 -2.25523 -1.20718 0
M  V30 241 H 22.8443 -4.34195 -2.63509 0
M  V30 242 H 22.7743 -3.31665 -4.09031 0
M  V30 243 H 25.2653 -2.67997 -2.66432 0
M  V30 244 H 25.5783 -5.90337 -4.98721 0
M  V30 245 H 23.9233 -5.30457 -4.49044 0
M  V30 246 H 27.1143 -3.3785 -3.23998 0
M  V30 247 H 27.2873 -4.84825 -4.2994 0
M  V30 248 N 20.6934 1.19889 -1.02296 0
M  V30 249 C 22.1094 1.41462 -0.738954 0
M  V30 250 C 22.3094 1.89721 0.678846 0
M  V30 251 O 21.3654 2.07016 1.4457 0
M  V30 252 C 22.6784 2.43083 -1.77005 0
M  V30 253 C 24.2264 2.5684 -1.78892 0
M  V30 254 C 24.7014 3.61709 -2.80945 0
M  V30 255 N 26.1924 3.69199 -2.79725 0
M  V30 256 C 26.9274 4.50019 -3.55345 0
M  V30 257 N 26.4234 5.34592 -4.40662 0
M  V30 258 N 28.2164 4.44612 -3.43914 0
M  V30 259 H 20.3674 0.868827 -1.93817 0
M  V30 260 H 22.6304 0.44399 -0.837602 0
M  V30 261 H 22.3364 2.14636 -2.78612 0
M  V30 262 H 22.2104 3.4217 -1.58744 0
M  V30 263 H 24.5974 2.84614 -0.779674 0
M  V30 264 H 24.6784 1.57927 -2.01228 0
M  V30 265 H 24.3224 3.34678 -3.82038 0
M  V30 266 H 24.2524 4.60259 -2.5587 0
M  V30 267 H 26.7434 3.08794 -2.17842 0
M  V30 268 H 27.0564 5.93363 -4.95116 0
M  V30 269 H 25.4014 5.34073 -4.44737 0
M  V30 270 H 28.5924 3.7758 -2.76679 0
M  V30 271 H 28.7654 5.0736 -4.031 0
M  V30 272 N 22.1715 0.800033 1.35784 0
M  V30 273 C 23.4015 0.389041 2.02904 0
M  V30 274 C 23.8095 -1.0027 1.60445 0
M  V30 275 O 23.1525 -1.65633 0.794453 0
M  V30 276 C 23.2145 0.385495 3.57427 0
M  V30 277 C 22.8785 1.72662 4.23127 0
M  V30 278 C 23.8755 2.68385 4.4527 0
M  V30 279 C 21.5605 2.00883 4.60381 0
M  V30 280 C 23.5545 3.90517 5.03761 0
M  V30 281 C 21.2415 3.2328 5.18588 0
M  V30 282 C 22.2395 4.17915 5.40218 0
M  V30 283 O 21.9275 5.38153 5.97199 0
M  V30 284 H 21.6595 0.157032 0.657508 0
M  V30 285 H 24.2135 1.08311 1.74522 0
M  V30 286 H 22.4435 -0.365128 3.84972 0
M  V30 287 H 24.1325 -0.00228296 4.059 0
M  V30 288 H 24.8985 2.47872 4.16874 0
M  V30 289 H 20.7775 1.28037 4.42863 0
M  V30 290 H 24.3215 4.64395 5.2056 0
M  V30 291 H 20.2185 3.43667 5.4641 0
M  V30 292 H 20.9865 5.3936 6.15656 0
M  V30 293 N 23.6496 -1.47581 0.552962 0
M  V30 294 C 24.5816 -2.27997 -0.234533 0
M  V30 295 C 25.5946 -1.36753 -0.883321 0
M  V30 296 O 26.7836 -1.61612 -0.757889 0
M  V30 297 C 23.8836 -3.10879 -1.34935 0
M  V30 298 C 23.0566 -4.30056 -0.798158 0
M  V30 299 C 22.1156 -4.94567 -1.79694 0
M  V30 300 O 21.1416 -5.53087 -1.34474 0
M  V30 301 N 22.3436 -4.88878 -3.13015 0
M  V30 302 H 25.1086 -2.96222 0.455255 0
M  V30 303 H 22.6696 -1.57163 0.388761 0
M  V30 304 H 24.6616 -3.50903 -2.01616 0
M  V30 305 H 23.2316 -2.44924 -1.94244 0
M  V30 306 H 22.4516 -3.94174 0.0453079 0
M  V30 307 H 23.7396 -5.07152 -0.409173 0
M  V30 308 H 23.1376 -4.42526 -3.52402 0
M  V30 309 H 21.6946 -5.32934 -3.75266 0
M  V30 310 N 25.1277 -0.289203 -1.54924 0
M  V30 311 C 26.0377 0.601863 -2.26748 0
M  V30 312 C 27.0537 1.15834 -1.2984 0
M  V30 313 O 28.2297 1.18564 -1.62802 0
M  V30 314 C 25.2947 1.76299 -2.98529 0
M  V30 315 C 24.3557 1.24178 -4.10948 0
M  V30 316 C 23.5887 2.34757 -4.79296 0
M  V30 317 O 23.8117 3.54411 -4.46933 0
M  V30 318 O 22.7457 2.02115 -5.66951 0
M  V30 319 H 26.5717 0.0195879 -3.03694 0
M  V30 320 H 24.1567 -0.0560868 -1.49295 0
M  V30 321 H 26.0387 2.43973 -3.43592 0
M  V30 322 H 24.7137 2.33209 -2.24488 0
M  V30 323 H 23.6207 0.531104 -3.70311 0
M  V30 324 H 24.9537 0.718252 -4.86931 0
M  V30 325 N 26.6058 1.57591 -0.0167156 0
M  V30 326 C 27.8828 1.82547 0.702564 0
M  V30 327 C 28.2628 0.898018 1.91047 0
M  V30 328 O 27.6108 -0.0493456 2.28447 0
M  V30 329 C 27.8208 3.31459 1.09251 0
M  V30 330 C 29.1688 3.97622 1.48937 0
M  V30 331 O 30.1928 3.35881 1.18584 0
M  V30 332 O 29.0518 5.06415 2.05442 0
M  V30 333 H 26.1458 0.752268 0.343544 0
M  V30 334 H 28.6918 1.69644 -0.0434495 0
M  V30 335 H 27.4638 3.9061 0.23227 0
M  V30 336 H 27.0868 3.49422 1.89709 0
M  V30 337 N 28.0839 -0.256276 1.55502 0
M  V30 338 C 29.3319 -0.983672 1.76545 0
M  V30 339 C 29.6529 -1.86206 0.578982 0
M  V30 340 O 28.9229 -1.91656 -0.405577 0
M  V30 341 H 27.5029 -0.366191 0.651086 0
M  V30 342 H 30.1649 -0.276479 1.92929 0
M  V30 343 H 29.2609 -1.61087 2.67315 0
M  V30 344 N 29.562 -1.4872 -0.521534 0
M  V30 345 C 30.809 -1.57168 -1.27689 0
M  V30 346 C 31.137 -0.249275 -1.92896 0
M  V30 347 O 30.392 0.761162 -1.80291 0
M  V30 348 C 30.691 -2.66497 -2.38148 0
M  V30 349 C 30.357 -4.08664 -1.90538 0
M  V30 350 C 29.019 -4.47357 -1.77271 0
M  V30 351 C 31.371 -4.97724 -1.54663 0
M  V30 352 C 28.699 -5.72905 -1.26478 0
M  V30 353 C 31.051 -6.2377 -1.05329 0
M  V30 354 C 29.715 -6.61311 -0.906861 0
M  V30 355 H 28.985 -0.575117 -0.467249 0
M  V30 356 H 31.632 -1.82472 -0.581051 0
M  V30 357 H 29.937 -2.35085 -3.13437 0
M  V30 358 H 31.634 -2.70246 -2.96257 0
M  V30 359 H 28.224 -3.78111 -2.01816 0
M  V30 360 H 32.408 -4.68501 -1.63768 0
M  V30 361 H 27.664 -6.00709 -1.13835 0
M  V30 362 H 31.838 -6.9217 -0.76644 0
M  V30 363 H 29.465 -7.5848 -0.511083 0
M  V30 364 N 31.0401 0.771051 -1.3745 0
M  V30 365 C 32.3171 1.519 -1.23231 0
M  V30 366 C 32.6971 2.10383 0.173809 0
M  V30 367 O 32.0451 1.95583 1.18151 0
M  V30 368 C 32.2551 2.59933 -2.32886 0
M  V30 369 C 33.6031 3.27316 -2.70461 0
M  V30 370 O 34.6271 2.70228 -2.32068 0
M  V30 371 O 33.4861 4.30531 -3.36608 0
M  V30 372 H 30.5801 0.672803 -0.480901 0
M  V30 373 H 33.1261 0.807957 -1.49232 0
M  V30 374 H 31.8981 2.14842 -3.27045 0
M  V30 375 H 31.5211 3.38637 -2.08353 0
M  V30 376 N 32.5182 1.22032 0.997298 0
M  V30 377 C 33.4482 1.01065 2.10495 0
M  V30 378 C 34.4292 -0.0669542 1.69968 0
M  V30 379 O 35.6142 0.0943987 1.9397 0
M  V30 380 C 32.7442 0.582874 3.42374 0
M  V30 381 C 31.6982 1.60592 3.96729 0
M  V30 382 C 31.0242 1.03412 5.24605 0
M  V30 383 C 32.3242 2.99478 4.27914 0
M  V30 384 H 34.0182 1.93708 2.28292 0
M  V30 385 H 31.5642 0.932761 1.09707 0
M  V30 386 H 33.5172 0.423332 4.19268 0
M  V30 387 H 32.2412 -0.379213 3.24391 0
M  V30 388 H 30.9002 1.75316 3.21963 0
M  V30 389 H 30.5482 0.063518 5.0296 0
M  V30 390 H 30.2482 1.71754 5.61938 0
M  V30 391 H 31.7722 0.886066 6.04137 0
M  V30 392 H 33.1862 2.88153 4.95622 0
M  V30 393 H 31.5832 3.64903 4.76409 0
M  V30 394 H 32.6532 3.49742 3.3587 0
M  V30 395 N 33.9963 -1.19345 1.0293 0
M  V30 396 C 35.2733 -1.84811 0.640642 0
M  V30 397 C 35.6533 -1.91855 -0.88062 0
M  V30 398 O 35.0013 -1.43587 -1.7775 0
M  V30 399 C 35.2113 -3.23755 1.30321 0
M  V30 400 C 36.5593 -3.99912 1.42673 0
M  V30 401 O 37.5833 -3.33155 1.26041 0
M  V30 402 O 36.4423 -5.19494 1.6967 0
M  V30 403 H 33.5363 -0.796443 0.222726 0
M  V30 404 H 36.0823 -1.26831 1.12748 0
M  V30 405 H 34.8543 -3.13466 2.34211 0
M  V30 406 H 34.4773 -3.89381 0.804261 0
M  V30 407 N 35.4744 -0.807222 -1.35358 0
M  V30 408 C 36.4044 -0.232509 -2.3234 0
M  V30 409 C 37.3854 0.642386 -1.57504 0
M  V30 410 O 38.5704 0.572526 -1.85569 0
M  V30 411 C 35.7004 0.619238 -3.41735 0
M  V30 412 C 34.6544 -0.157215 -4.27711 0
M  V30 413 C 33.9804 0.816273 -5.28433 0
M  V30 414 C 35.2804 -1.35656 -5.04376 0
M  V30 415 H 36.9744 -1.04276 -2.80654 0
M  V30 416 H 34.5204 -0.50288 -1.34934 0
M  V30 417 H 36.4734 1.03137 -4.08584 0
M  V30 418 H 35.1974 1.46239 -2.92031 0
M  V30 419 H 33.8564 -0.550525 -3.62443 0
M  V30 420 H 33.5044 1.65494 -4.74996 0
M  V30 421 H 33.2044 0.301067 -5.86828 0
M  V30 422 H 34.7284 1.22659 -5.98153 0
M  V30 423 H 36.1424 -1.01927 -5.64166 0
M  V30 424 H 34.5394 -1.8063 -5.7227 0
M  V30 425 H 35.6094 -2.14288 -4.34981 0
M  V30 426 N 36.9525 1.47285 -0.560781 0
M  V30 427 C 38.1805 2.06855 -0.0430262 0
M  V30 428 C 38.5955 1.41291 1.25229 0
M  V30 429 O 37.9525 0.510648 1.7521 0
M  V30 430 C 38.0035 3.61178 0.152518 0
M  V30 431 O 37.7245 4.24285 -1.0915 0
M  V30 432 C 39.2255 4.37624 0.707145 0
M  V30 433 H 36.4455 0.669319 -0.0474652 0
M  V30 434 H 38.9895 1.89237 -0.77521 0
M  V30 435 H 37.1445 3.78298 0.834843 0
M  V30 436 H 37.5585 5.16868 -0.891482 0
M  V30 437 H 39.0325 5.46271 0.793244 0
M  V30 438 H 39.5095 4.04152 1.71923 0
M  V30 439 H 40.1155 4.25257 0.0604027 0
M  V30 440 N 38.4306 0.297415 1.54768 0
M  V30 441 C 39.6606 -0.315165 2.04182 0
M  V30 442 C 40.0686 -1.4834 1.17439 0
M  V30 443 O 39.4116 -1.82695 0.191891 0
M  V30 444 C 39.4736 -0.837583 3.49607 0
M  V30 445 C 39.1376 0.204912 4.5654 0
M  V30 446 C 40.1346 1.03214 5.09552 0
M  V30 447 C 37.8196 0.345578 5.0111 0
M  V30 448 C 39.8136 1.986 6.05671 0
M  V30 449 C 37.5006 1.30289 5.97049 0
M  V30 450 C 38.4986 2.12159 6.49213 0
M  V30 451 O 38.1866 3.06268 7.43273 0
M  V30 452 H 37.9186 -0.0729646 0.672051 0
M  V30 453 H 40.4726 0.433907 2.00765 0
M  V30 454 H 38.7026 -1.63712 3.50336 0
M  V30 455 H 40.3916 -1.36566 3.82236 0
M  V30 456 H 41.1576 0.934312 4.75916 0
M  V30 457 H 37.0366 -0.28171 4.60138 0
M  V30 458 H 40.5806 2.62542 6.46311 0
M  V30 459 H 36.4776 1.40145 6.30103 0
M  V30 460 H 37.2456 3.01205 7.61064 0
M  V30 461 N 39.9087 -1.5758 0.0250728 0
M  V30 462 C 41.1577 -1.90811 -0.653767 0
M  V30 463 C 41.4707 -0.90273 -1.73523 0
M  V30 464 O 42.6767 -1.12614 -2.47043 0
M  V30 465 C 41.1327 -3.38804 -1.21409 0
M  V30 466 C 40.7407 -4.47692 -0.166126 0
M  V30 467 C 42.4847 -3.81108 -1.86967 0
M  V30 468 C 40.3917 -5.86779 -0.737856 0
M  V30 469 H 39.3217 -0.712063 -0.247956 0
M  V30 470 H 41.9727 -1.83281 0.0897137 0
M  V30 471 H 40.3547 -3.41252 -2.00905 0
M  V30 472 H 41.5287 -4.56797 0.606079 0
M  V30 473 H 39.8437 -4.14565 0.390466 0
M  V30 474 H 42.4407 -4.82375 -2.30692 0
M  V30 475 H 42.7837 -3.15953 -2.71071 0
M  V30 476 H 43.3167 -3.81065 -1.14167 0
M  V30 477 H 40.0557 -6.55468 0.0649577 0
M  V30 478 H 39.5757 -5.81288 -1.47864 0
M  V30 479 H 41.2547 -6.35223 -1.22884 0
M  V30 480 N 41.3868 0.248026 -1.55636 0
M  V30 481 C 42.6168 0.992367 -1.81206 0
M  V30 482 C 43.0248 1.7949 -0.598324 0
M  V30 483 O 42.3678 1.78292 0.442434 0
M  V30 484 C 42.4298 1.97926 -3.00109 0
M  V30 485 C 42.0938 1.36377 -4.36177 0
M  V30 486 C 43.0908 0.76682 -5.14214 0
M  V30 487 C 40.7758 1.38347 -4.82872 0
M  V30 488 C 42.7698 0.197778 -6.37093 0
M  V30 489 C 40.4568 0.810574 -6.057 0
M  V30 490 C 41.4548 0.218754 -6.8265 0
M  V30 491 O 41.1428 -0.345298 -8.03158 0
M  V30 492 H 40.8748 0.297704 -0.606917 0
M  V30 493 H 43.4288 0.276517 -2.0353 0
M  V30 494 H 41.6588 2.73339 -2.73538 0
M  V30 495 H 43.3478 2.58694 -3.12781 0
M  V30 496 H 44.1138 0.744114 -4.79258 0
M  V30 497 H 39.9928 1.8335 -4.2297 0
M  V30 498 H 43.5368 -0.264788 -6.97097 0
M  V30 499 H 39.4338 0.830604 -6.40134 0
M  V30 500 H 40.2018 -0.237055 -8.18157 0
M  V30 501 N 42.8649 1.48995 0.513639 0
M  V30 502 C 44.2759 1.5119 1.09537 0
M  V30 503 C 44.6269 0.290906 1.94031 0
M  V30 504 O 43.7519 -0.60049 2.07902 0
M  V30 505 C 44.3469 2.73964 1.99322 0
M  V30 506 C 42.9059 2.78978 2.52682 0
M  V30 507 C 42.0529 2.44934 1.30009 0
M  V30 508 H 45.0039 1.55875 0.298125 0
M  V30 509 H 45.0249 2.53409 2.83838 0
M  V30 510 H 44.5369 3.62813 1.37799 0
M  V30 511 H 42.6379 1.94378 3.1788 0
M  V30 512 H 42.7509 3.8083 2.90698 0
M  V30 513 H 41.1149 1.9644 1.62122 0
M  V30 514 H 41.8979 3.36043 0.702131 0
M  V30 515 N 44.343 -0.763751 1.37857 0
M  V30 516 C 45.291 -1.89864 1.34367 0
M  V30 517 C 46.285 -1.67816 0.231143 0
M  V30 518 O 47.491 -1.75508 0.399617 0
M  V30 519 H 43.866 -0.624501 0.41893 0
M  V30 520 H 45.837 -1.89925 2.30155 0
M  V30 521 C 44.586 -3.27227 1.1755 0
M  V30 522 H 43.909 -3.44773 2.02414 0
M  V30 523 H 45.349 -4.06911 1.1916 0
M  V30 524 C 43.808 -3.36692 -0.118311 0
M  V30 525 O 44.338 -3.86374 -1.09902 0
M  V30 526 N 42.544 -2.90092 -0.171717 0
M  V30 527 H 42.091 -2.49853 0.627012 0
M  V30 528 H 42.049 -2.96806 -1.03699 0
M  V30 529 N 45.8211 -1.22559 -0.990812 0
M  V30 530 C 47.0701 -1.04553 -1.72486 0
M  V30 531 C 47.3831 0.419349 -1.91052 0
M  V30 532 O 48.5891 0.719121 -2.61803 0
M  V30 533 C 47.0451 -1.82231 -3.10355 0
M  V30 534 C 46.6531 -3.32981 -2.99713 0
M  V30 535 C 48.3971 -1.7268 -3.87791 0
M  V30 536 C 46.3041 -4.03091 -4.32748 0
M  V30 537 H 45.2341 -0.387614 -0.646739 0
M  V30 538 H 47.8851 -1.46429 -1.10593 0
M  V30 539 H 46.2671 -1.33155 -3.72942 0
M  V30 540 H 47.4411 -3.89466 -2.46278 0
M  V30 541 H 45.7561 -3.43231 -2.35758 0
M  V30 542 H 48.3531 -2.22381 -4.86262 0
M  V30 543 H 48.6961 -0.687607 -4.10582 0
M  V30 544 H 49.2291 -2.1931 -3.31885 0
M  V30 545 H 45.9681 -5.07273 -4.15156 0
M  V30 546 H 45.4881 -3.51394 -4.86089 0
M  V30 547 H 47.1671 -4.08804 -5.01486 0
M  V30 548 N 47.2992 1.18797 -1.03562 0
M  V30 549 C 48.5482 1.87978 -0.731235 0
M  V30 550 C 48.8612 1.80911 0.743671 0
M  V30 551 O 50.0672 2.45407 1.16137 0
M  V30 552 C 48.5232 3.3721 -1.25768 0
M  V30 553 C 48.1312 3.52818 -2.76085 0
M  V30 554 C 49.8752 4.11825 -1.0296 0
M  V30 555 C 47.7822 4.9598 -3.22114 0
M  V30 556 H 46.7122 0.704063 -0.269835 0
M  V30 557 H 49.3632 1.34266 -1.25079 0
M  V30 558 H 47.7452 3.90359 -0.666011 0
M  V30 559 H 48.9192 3.09965 -3.40966 0
M  V30 560 H 47.2342 2.91602 -2.97249 0
M  V30 561 H 49.8312 5.17411 -1.34869 0
M  V30 562 H 50.1742 4.16287 0.0333546 0
M  V30 563 H 50.7072 3.64833 -1.58562 0
M  V30 564 H 47.4462 4.96684 -4.27768 0
M  V30 565 H 46.9662 5.39569 -2.61965 0
M  V30 566 H 48.6452 5.6467 -3.15844 0
M  V30 567 N 48.7773 0.814389 1.34928 0
M  V30 568 C 49.7403 0.235759 2.27984 0
M  V30 569 C 50.7403 -0.581412 1.49921 0
M  V30 570 O 51.9303 -0.398758 1.69575 0
M  V30 571 C 49.0623 -0.670433 3.34242 0
M  V30 572 H 50.2553 1.05659 2.80671 0
M  V30 573 H 47.8083 0.585614 1.44915 0
M  V30 574 H 48.5433 -1.51466 2.86755 0
M  V30 575 H 48.3283 -0.0860822 3.92005 0
M  V30 576 H 49.8183 -1.06935 4.03676 0
M  V30 577 N 50.2554 -1.46986 0.568584 0
M  V30 578 C 51.1884 -2.27129 -0.220779 0
M  V30 579 C 52.1664 -1.34757 -0.909905 0
M  V30 580 O 53.3504 -1.64152 -0.926622 0
M  V30 581 C 50.4774 -3.12108 -1.31553 0
M  V30 582 C 49.5234 -4.20141 -0.733748 0
M  V30 583 S 50.3564 -5.33783 0.428479 0
M  V30 584 C 51.5124 -6.22327 -0.667811 0
M  V30 585 H 51.7454 -2.93731 0.459267 0
M  V30 586 H 49.2784 -1.5026 0.355154 0
M  V30 587 H 51.2364 -3.61636 -1.94241 0
M  V30 588 H 49.8974 -2.44847 -1.96746 0
M  V30 589 H 49.0904 -4.79373 -1.5562 0
M  V30 590 H 48.6924 -3.73553 -0.182812 0
M  V30 591 H 50.9844 -6.59364 -1.55708 0
M  V30 592 H 51.9274 -7.0801 -0.11258 0
M  V30 593 H 52.3354 -5.5618 -0.965601 0
M  V30 594 N 51.7335 -0.305618 -1.54608 0
M  V30 595 C 52.9815 0.301701 -1.99835 0
M  V30 596 C 53.3025 1.54054 -1.19551 0
M  V30 597 O 52.5725 1.93702 -0.292658 0
M  V30 598 H 51.1525 0.114468 -0.738178 0
M  V30 599 H 53.8145 -0.418016 -1.90364 0
M  V30 600 H 52.9105 0.570548 -3.06841 0
M  V30 601 N 53.2116 1.57565 -0.0334293 0
M  V30 602 C 54.4586 1.91978 0.644272 0
M  V30 603 C 54.7866 0.910231 1.71887 0
M  V30 604 O 54.0416 -0.0801961 1.95536 0
M  V30 605 C 54.3406 3.33112 1.29504 0
M  V30 606 C 54.0066 4.49537 0.350388 0
M  V30 607 C 52.6686 4.81115 0.0903974 0
M  V30 608 C 55.0206 5.20347 -0.298032 0
M  V30 609 C 52.3486 5.8086 -0.825746 0
M  V30 610 C 54.7006 6.2107 -1.20226 0
M  V30 611 C 53.3646 6.51088 -1.4711 0
M  V30 612 H 52.6346 0.702496 0.235756 0
M  V30 613 H 55.2816 1.91259 -0.0961176 0
M  V30 614 H 53.5866 3.30113 2.11028 0
M  V30 615 H 55.2836 3.57011 1.82603 0
M  V30 616 H 51.8736 4.24883 0.563205 0
M  V30 617 H 56.0576 4.96178 -0.110234 0
M  V30 618 H 51.3136 6.02461 -1.04169 0
M  V30 619 H 55.4876 6.75057 -1.71086 0
M  V30 620 H 53.1146 7.28193 -2.18264 0
M  V30 621 N 54.6897 -0.239769 1.55765 0
M  V30 622 C 56.1007 -0.808263 1.68297 0
M  V30 623 C 56.4517 -1.85736 0.632181 0
M  V30 624 O 55.5767 -2.15277 -0.220204 0
M  V30 625 C 56.1717 -1.47284 3.05111 0
M  V30 626 C 54.7307 -1.98895 3.19559 0
M  V30 627 C 53.8777 -0.842575 2.64189 0
M  V30 628 H 56.8287 -0.0154422 1.58692 0
M  V30 629 H 56.8497 -2.34111 2.99954 0
M  V30 630 H 56.3617 -0.709053 3.81568 0
M  V30 631 H 54.4627 -2.78132 2.47938 0
M  V30 632 H 54.5757 -2.18143 4.26556 0
M  V30 633 H 52.9397 -1.24501 2.22197 0
M  V30 634 H 53.7227 -0.0917552 3.43177 0
M  V30 635 N 56.1678 -1.49265 -0.50573 0
M  V30 636 C 57.1308 -1.65075 -1.59006 0
M  V30 637 C 58.1308 -0.522768 -1.52065 0
M  V30 638 O 59.3208 -0.789117 -1.55302 0
M  V30 639 C 56.4528 -1.64369 -2.98656 0
M  V30 640 H 57.6458 -2.61784 -1.46319 0
M  V30 641 H 55.1988 -1.38226 -0.729616 0
M  V30 642 H 55.9338 -0.692272 -3.16825 0
M  V30 643 H 55.7188 -2.46282 -3.05103 0
M  V30 644 H 57.2088 -1.78674 -3.77446 0
M  V30 645 N 57.6459 0.756429 -1.3826 0
M  V30 646 C 58.5559 1.9009 -1.37488 0
M  V30 647 C 59.5719 1.71855 -0.272366 0
M  V30 648 O 60.7479 1.94827 -0.510318 0
M  V30 649 C 57.8129 3.25421 -1.19592 0
M  V30 650 C 56.8739 3.56202 -2.39622 0
M  V30 651 C 56.1069 4.85075 -2.2257 0
M  V30 652 O 56.3299 5.57246 -1.21793 0
M  V30 653 O 55.2639 5.15269 -3.11098 0
M  V30 654 H 59.0899 1.93695 -2.33914 0
M  V30 655 H 56.6749 0.901313 -1.1915 0
M  V30 656 H 58.5569 4.06337 -1.11661 0
M  V30 657 H 57.2319 3.22634 -0.262486 0
M  V30 658 H 56.1389 2.75458 -2.53128 0
M  V30 659 H 57.4719 3.63747 -3.31586 0
M  V30 660 N 59.124 1.23083 0.984299 0
M  V30 661 C 60.54 0.992637 1.24975 0
M  V30 662 C 60.74 -0.308618 1.99123 0
M  V30 663 O 59.796 -1.02905 2.30579 0
M  V30 664 C 61.109 2.19698 2.05312 0
M  V30 665 C 62.657 2.24147 2.18465 0
M  V30 666 C 63.132 3.44157 3.02192 0
M  V30 667 N 64.623 3.44372 3.09777 0
M  V30 668 C 65.358 4.33886 3.74874 0
M  V30 669 N 64.854 5.3363 4.41827 0
M  V30 670 N 66.647 4.21639 3.71721 0
M  V30 671 H 58.798 2.06731 0.487453 0
M  V30 672 H 61.061 0.906339 0.277944 0
M  V30 673 H 60.767 3.1411 1.58201 0
M  V30 674 H 60.641 2.20465 3.06064 0
M  V30 675 H 63.028 1.30277 2.64786 0
M  V30 676 H 63.109 2.27415 1.17115 0
M  V30 677 H 62.753 4.38332 2.56568 0
M  V30 678 H 62.683 3.3813 4.03702 0
M  V30 679 H 65.174 2.72201 2.62135 0
M  V30 680 H 65.487 5.98196 4.89266 0
M  V30 681 H 63.832 5.37534 4.40548 0
M  V30 682 H 67.023 3.42962 3.18582 0
M  V30 683 H 67.196 4.91604 4.22173 0
M  V30 684 N 60.6021 -1.18246 1.0419 0
M  V30 685 C 61.5321 -2.24127 0.654914 0
M  V30 686 C 62.5131 -1.66617 -0.342451 0
M  V30 687 O 63.6981 -1.92924 -0.222277 0
M  V30 688 C 60.8281 -3.47295 0.0183757 0
M  V30 689 C 59.7821 -4.17563 0.939414 0
M  V30 690 C 59.1081 -5.34438 0.167286 0
M  V30 691 C 60.4081 -4.70917 2.25908 0
M  V30 692 H 62.1021 -2.56753 1.54007 0
M  V30 693 H 59.6481 -1.23414 0.74195 0
M  V30 694 H 61.6011 -4.20572 -0.264082 0
M  V30 695 H 60.3251 -3.13907 -0.901664 0
M  V30 696 H 58.9841 -3.46186 1.20628 0
M  V30 697 H 58.6321 -4.97298 -0.7552 0
M  V30 698 H 58.3321 -5.82388 0.780901 0
M  V30 699 H 59.8561 -6.10504 -0.108125 0
M  V30 700 H 61.2701 -5.35882 2.03724 0
M  V30 701 H 59.6671 -5.29406 2.82577 0
M  V30 702 H 60.7371 -3.88272 2.9047 0
M  V30 703 N 62.0802 -0.821533 -1.34494 0
M  V30 704 C 62.9902 -0.244355 -2.33324 0
M  V30 705 C 64.0062 0.620527 -1.62559 0
M  V30 706 O 65.1822 0.528754 -1.94335 0
M  V30 707 C 62.2472 0.585368 -3.41723 0
M  V30 708 C 61.3082 -0.301752 -4.28238 0
M  V30 709 C 60.5412 0.488466 -5.3146 0
M  V30 710 O 60.7642 1.72186 -5.4379 0
M  V30 711 O 59.6982 -0.12848 -6.01763 0
M  V30 712 H 63.5242 -1.06231 -2.84515 0
M  V30 713 H 61.1092 -0.583645 -1.37528 0
M  V30 714 H 62.9912 1.05747 -4.07916 0
M  V30 715 H 61.6662 1.38068 -2.92778 0
M  V30 716 H 60.5732 -0.821315 -3.64973 0
M  V30 717 H 61.9062 -1.06138 -4.8062 0
M  V30 718 N 63.5583 1.46682 -0.576371 0
M  V30 719 C 64.8063 2.02013 -0.0594163 0
M  V30 720 C 65.1273 1.45101 1.30271 0
M  V30 721 O 64.3973 0.633317 1.8538 0
M  V30 722 H 62.9773 0.746759 -0.0189745 0
M  V30 723 H 65.6393 1.79862 -0.750717 0
M  V30 724 H 64.7353 3.12097 0.014345 0
M  V30 725 N 65.0364 0.313813 1.54444 0
M  V30 726 C 66.2824 -0.292108 2.00685 0
M  V30 727 C 66.6154 -1.52548 1.20177 0
M  V30 728 O 65.8904 -1.92452 0.281531 0
M  V30 729 C 66.1734 -0.635968 3.5444 0
M  V30 730 C 66.0264 0.607437 4.4568 0
M  V30 731 C 67.3454 -1.45747 4.15266 0
M  V30 732 H 64.4644 -0.104697 0.729526 0
M  V30 733 H 67.1064 0.428457 1.85106 0
M  V30 734 H 65.2564 -1.24986 3.67846 0
M  V30 735 H 66.9284 1.24581 4.44159 0
M  V30 736 H 65.1714 1.23822 4.15753 0
M  V30 737 H 65.8424 0.322515 5.51057 0
M  V30 738 H 68.3184 -0.938645 4.05375 0
M  V30 739 H 67.1944 -1.66683 5.2298 0
M  V30 740 H 67.4554 -2.45063 3.67963 0
M  V30 741 N 66.5145 -1.57545 0.0417849 0
M  V30 742 C 67.7445 -1.96339 -0.642995 0
M  V30 743 C 68.1525 -0.917536 -1.65463 0
M  V30 744 O 67.4955 0.107747 -1.83384 0
M  V30 745 C 67.5575 -3.31333 -1.39494 0
M  V30 746 C 67.2215 -4.53796 -0.540204 0
M  V30 747 C 68.2185 -5.19553 0.189806 0
M  V30 748 C 65.9035 -5.0006 -0.473886 0
M  V30 749 C 67.8975 -6.29904 0.974674 0
M  V30 750 C 65.5845 -6.10289 0.314677 0
M  V30 751 C 66.5825 -6.75072 1.03765 0
M  V30 752 O 66.2705 -7.83183 1.81327 0
M  V30 753 H 66.0025 -0.651241 -0.181277 0
M  V30 754 H 68.5565 -2.05148 0.101665 0
M  V30 755 H 66.7865 -3.19052 -2.18502 0
M  V30 756 H 68.4755 -3.54942 -1.96904 0
M  V30 757 H 69.2415 -4.84774 0.147981 0
M  V30 758 H 65.1205 -4.49433 -1.0262 0
M  V30 759 H 68.6645 -6.80401 1.5395 0
M  V30 760 H 64.5615 -6.44506 0.358174 0
M  V30 761 H 65.3295 -7.99913 1.73438 0
M  V30 762 N 67.9926 0.231505 -1.5589 0
M  V30 763 C 69.4086 0.580748 -1.48659 0
M  V30 764 C 69.6086 1.87617 -0.73498 0
M  V30 765 O 68.6646 2.51046 -0.270586 0
M  V30 766 C 69.9776 0.669202 -2.93159 0
M  V30 767 C 71.5256 0.760499 -3.03621 0
M  V30 768 C 72.0006 0.880383 -4.49459 0
M  V30 769 N 73.4916 0.944861 -4.53461 0
M  V30 770 C 74.2266 1.05716 -5.63571 0
M  V30 771 N 73.7226 1.13403 -6.83456 0
M  V30 772 N 75.5156 1.09152 -5.514 0
M  V30 773 H 67.6666 -0.618695 -2.03189 0
M  V30 774 H 69.9296 -0.215728 -0.923128 0
M  V30 775 H 69.6356 -0.212904 -3.51055 0
M  V30 776 H 69.5096 1.5361 -3.44505 0
M  V30 777 H 71.8966 1.63305 -2.45796 0
M  V30 778 H 71.9776 -0.131864 -2.5546 0
M  V30 779 H 71.6216 0.0123284 -5.07899 0
M  V30 780 H 71.5516 1.78802 -4.95316 0
M  V30 781 H 74.0426 0.896176 -3.6712 0
M  V30 782 H 74.3556 1.21921 -7.63122 0
M  V30 783 H 72.7006 1.10333 -6.86186 0
M  V30 784 H 75.8916 1.02805 -4.56671 0
M  V30 785 H 76.0646 1.17558 -6.37247 0
M  V30 786 N 69.4707 1.49531 0.497807 0
M  V30 787 C 70.4187 1.66926 1.61983 0
M  V30 788 C 71.4127 0.535167 1.60724 0
M  V30 789 O 72.6187 0.714896 1.65195 0
M  V30 790 H 68.9937 0.526415 0.537021 0
M  V30 791 H 70.9647 2.61098 1.44465 0
M  V30 792 C 69.7137 1.75602 3.00099 0
M  V30 793 H 69.0367 2.62244 3.01775 0
M  V30 794 H 70.4767 1.91807 3.78135 0
M  V30 795 C 68.9357 0.501543 3.33146 0
M  V30 796 O 69.4657 -0.371342 3.9998 0
M  V30 797 N 67.6717 0.363531 2.88317 0
M  V30 798 H 67.2187 1.07485 2.34104 0
M  V30 799 H 67.1767 -0.474728 3.10795 0
M  V30 800 N 70.9488 -0.749086 1.3866 0
M  V30 801 C 71.8968 -1.88428 1.36373 0
M  V30 802 C 72.8908 -1.67561 0.248929 0
M  V30 803 O 74.0968 -1.75074 0.41821 0
M  V30 804 H 70.4718 -0.620023 0.42553 0
M  V30 805 H 72.4428 -1.87473 2.32156 0
M  V30 806 C 71.1918 -3.25961 1.21014 0
M  V30 807 H 70.5148 -3.42607 2.06059 0
M  V30 808 H 71.9548 -4.05625 1.23469 0
M  V30 809 C 70.4138 -3.36799 -0.0825941 0
M  V30 810 O 70.9438 -3.87517 -1.05797 0
M  V30 811 N 69.1498 -2.90258 -0.140939 0
M  V30 812 H 68.6968 -2.49174 0.653477 0
M  V30 813 H 68.6548 -2.97889 -1.00545 0
M  V30 814 N 72.4269 -1.23603 -0.977757 0
M  V30 815 C 73.6759 -1.06377 -1.71368 0
M  V30 816 C 73.9889 0.399062 -1.91486 0
M  V30 817 O 75.1949 0.691312 -2.62551 0
M  V30 818 C 73.6509 -1.85512 -3.08404 0
M  V30 819 C 73.2589 -3.36141 -2.96164 0
M  V30 820 C 75.0029 -1.76783 -3.85938 0
M  V30 821 C 72.9099 -4.07659 -4.28449 0
M  V30 822 H 71.8399 -0.394452 -0.642591 0
M  V30 823 H 74.4909 -1.47594 -1.09034 0
M  V30 824 H 72.8729 -1.37103 -3.71509 0
M  V30 825 H 74.0469 -3.92056 -2.42133 0
M  V30 826 H 72.3619 -3.45712 -2.32104 0
M  V30 827 H 74.9589 -2.27526 -4.83876 0
M  V30 828 H 75.3019 -0.731116 -4.0983 0
M  V30 829 H 75.8349 -2.22818 -3.2954 0
M  V30 830 H 72.5739 -5.11648 -4.09752 0
M  V30 831 H 72.0939 -3.5653 -4.82334 0
M  V30 832 H 73.7729 -4.141 -4.97122 0
M  V30 833 N 73.905 1.17692 -1.04816 0
M  V30 834 C 75.182 1.83768 -0.669963 0
M  V30 835 C 75.562 1.93232 0.849986 0
M  V30 836 O 74.91 1.46397 1.75443 0
M  V30 837 C 75.12 3.21641 -1.35455 0
M  V30 838 C 76.468 3.97592 -1.49017 0
M  V30 839 O 77.492 3.31107 -1.31326 0
M  V30 840 O 76.351 5.16729 -1.77914 0
M  V30 841 H 73.445 0.792799 -0.235368 0
M  V30 842 H 75.991 1.25021 -1.14751 0
M  V30 843 H 74.763 3.097 -2.39168 0
M  V30 844 H 74.386 3.88052 -0.866107 0
M  V30 845 N 75.3831 0.828654 1.34056 0
M  V30 846 C 76.6601 0.341809 1.9259 0
M  V30 847 C 77.0401 -1.17158 1.75605 0
M  V30 848 O 76.3881 -1.98132 1.13824 0
M  V30 849 C 76.5981 0.777453 3.4023 0
M  V30 850 C 77.9461 0.779579 4.17382 0
M  V30 851 O 78.9701 0.7204 3.48839 0
M  V30 852 O 77.8291 0.857996 5.39723 0
M  V30 853 H 74.9231 0.0946085 0.821571 0
M  V30 854 H 77.4691 0.913827 1.42994 0
M  V30 855 H 76.2411 1.8196 3.46419 0
M  V30 856 H 75.8641 0.181444 3.97186 0
M  V30 857 N 76.8612 -1.46375 0.584142 0
M  V30 858 C 78.1072 -2.02678 0.0703716 0
M  V30 859 C 78.4402 -1.4545 -1.28678 0
M  V30 860 O 77.7152 -0.62014 -1.84349 0
M  V30 861 C 77.9982 -3.60099 0.00614674 0
M  V30 862 C 77.8512 -4.27709 1.3923 0
M  V30 863 C 79.1702 -4.34598 -0.693742 0
M  V30 864 H 76.2892 -0.736504 0.027047 0
M  V30 865 H 78.9312 -1.74501 0.751615 0
M  V30 866 H 77.0812 -3.84236 -0.574009 0
M  V30 867 H 78.7532 -4.14832 2.01773 0
M  V30 868 H 76.9962 -3.87016 1.95962 0
M  V30 869 H 77.6672 -5.36478 1.29982 0
M  V30 870 H 80.1432 -4.15615 -0.200869 0
M  V30 871 H 79.0192 -5.44318 -0.707714 0
M  V30 872 H 79.2802 -4.05759 -1.75533 0
M  V30 873 N 78.3393 -0.321999 -1.54275 0
M  V30 874 C 79.5853 0.281461 -2.00837 0
M  V30 875 C 79.9183 1.51909 -1.20985 0
M  V30 876 O 79.1933 1.923 -0.291733 0
M  V30 877 C 79.4763 0.617162 -3.54772 0
M  V30 878 C 79.3293 -0.631064 -4.45351 0
M  V30 879 C 80.6483 1.43542 -4.16033 0
M  V30 880 H 77.7673 0.100826 -0.730071 0
M  V30 881 H 80.4093 -0.438268 -1.84876 0
M  V30 882 H 78.5593 1.23034 -3.68504 0
M  V30 883 H 80.2313 -1.26934 -4.43492 0
M  V30 884 H 78.4743 -1.26025 -4.15091 0
M  V30 885 H 79.1453 -0.351735 -5.50878 0
M  V30 886 H 81.6213 0.917134 -4.05867 0
M  V30 887 H 80.4973 1.63907 -5.23856 0
M  V30 888 H 80.7583 2.43108 -3.69257 0
M  V30 889 N 79.8174 1.5752 -0.0501392 0
M  V30 890 C 81.2334 1.56631 0.306402 0
M  V30 891 C 81.4334 1.0577 1.71508 0
M  V30 892 O 80.4894 0.713837 2.422 0
M  V30 893 C 81.8024 3.00393 0.135811 0
M  V30 894 C 83.3504 3.12315 0.206993 0
M  V30 895 C 83.8254 4.57954 0.064944 0
M  V30 896 N 85.3164 4.63041 0.121254 0
M  V30 897 C 86.0514 5.73389 0.0354381 0
M  V30 898 N 85.5474 6.92724 -0.102666 0
M  V30 899 N 87.3404 5.62026 0.090946 0
M  V30 900 H 79.4914 1.88903 -0.971046 0
M  V30 901 H 81.7544 0.869876 -0.376855 0
M  V30 902 H 81.4604 3.41635 -0.835384 0
M  V30 903 H 81.3344 3.66373 0.897275 0
M  V30 904 H 83.7214 2.70973 1.16866 0
M  V30 905 H 83.8024 2.49016 -0.585208 0
M  V30 906 H 83.4464 4.99981 -0.893394 0
M  V30 907 H 83.3764 5.19258 0.876277 0
M  V30 908 H 85.8674 3.77216 0.227284 0
M  V30 909 H 86.1804 7.72633 -0.160882 0
M  V30 910 H 84.5254 6.94864 -0.137737 0
M  V30 911 H 87.7164 4.67684 0.197388 0
M  V30 912 H 87.8894 6.47997 0.0206089 0
M  V30 913 N 81.2955 -0.223234 1.56011 0
M  V30 914 C 82.5425 -0.947875 1.78946 0
M  V30 915 C 82.8705 -1.844 0.618608 0
M  V30 916 O 82.1255 -1.91629 -0.397093 0
M  V30 917 C 82.4245 -1.81948 3.0762 0
M  V30 918 C 82.0905 -1.07672 4.37856 0
M  V30 919 C 80.7525 -0.871544 4.73242 0
M  V30 920 C 83.1045 -0.552081 5.18268 0
M  V30 921 C 80.4325 -0.129791 5.86556 0
M  V30 922 C 82.7845 0.17632 6.32354 0
M  V30 923 C 81.4485 0.39277 6.66343 0
M  V30 924 H 80.7185 -0.346852 0.654809 0
M  V30 925 H 83.3655 -0.216171 1.90276 0
M  V30 926 H 81.6705 -2.61899 2.91404 0
M  V30 927 H 83.3675 -2.38227 3.22566 0
M  V30 928 H 79.9575 -1.24662 4.1007 0
M  V30 929 H 84.1415 -0.698076 4.91366 0
M  V30 930 H 79.3975 0.048153 6.11381 0
M  V30 931 H 83.5715 0.590367 6.93893 0
M  V30 932 H 81.1985 0.969466 7.53993 0
M  V30 933 N 82.7736 -1.49793 -0.48987 0
M  V30 934 C 83.7036 -1.70201 -1.59856 0
M  V30 935 C 84.6846 -0.55076 -1.60937 0
M  V30 936 O 85.8696 -0.787841 -1.77501 0
M  V30 937 C 82.9996 -1.77882 -2.98287 0
M  V30 938 C 81.9536 -2.92907 -3.12073 0
M  V30 939 C 81.2796 -2.85712 -4.51965 0
M  V30 940 C 82.5796 -4.3369 -2.91051 0
M  V30 941 H 84.2736 -2.63025 -1.43032 0
M  V30 942 H 81.8196 -1.26574 -0.686664 0
M  V30 943 H 83.7726 -1.90744 -3.75759 0
M  V30 944 H 82.4966 -0.816653 -3.16225 0
M  V30 945 H 81.1556 -2.79665 -2.37029 0
M  V30 946 H 80.8036 -1.8738 -4.66795 0
M  V30 947 H 80.5036 -3.62921 -4.62128 0
M  V30 948 H 82.0276 -3.00598 -5.31482 0
M  V30 949 H 83.4416 -4.47555 -3.58284 0
M  V30 950 H 81.8386 -5.12205 -3.12675 0
M  V30 951 H 82.9086 -4.47362 -1.87071 0
M  V30 952 N 84.2517 0.741722 -1.39055 0
M  V30 953 C 85.5287 1.49252 -1.26425 0
M  V30 954 C 85.9087 2.10705 0.129144 0
M  V30 955 O 85.2567 1.98045 1.13976 0
M  V30 956 C 85.4667 2.54934 -2.38347 0
M  V30 957 C 86.8147 3.21506 -2.77343 0
M  V30 958 O 87.8387 2.65245 -2.37747 0
M  V30 959 O 86.6977 4.23294 -3.45665 0
M  V30 960 H 83.7917 0.662451 -0.495064 0
M  V30 961 H 86.3377 0.776121 -1.50912 0
M  V30 962 H 85.1097 2.07857 -3.31529 0
M  V30 963 H 84.7327 3.34141 -2.15489 0
M  V30 964 N 85.7298 1.2412 0.971189 0
M  V30 965 C 86.9548 1.10667 1.75407 0
M  V30 966 C 87.3798 -0.337048 1.85056 0
M  V30 967 O 86.7378 -1.24396 1.31892 0
M  V30 968 C 86.7858 1.74726 3.15441 0
M  V30 969 O 85.8898 1.01566 3.99697 0
M  V30 970 H 85.2308 0.387341 0.539317 0
M  V30 971 H 87.7608 1.64358 1.2185 0
M  V30 972 H 87.7708 1.80341 3.6598 0
M  V30 973 H 86.4458 2.79773 3.07734 0
M  V30 974 H 85.0228 1.03713 3.58187 0
M  V30 975 N 87.2079 -1.17134 1.05439 0
M  V30 976 C 88.1549 -2.21235 0.657539 0
M  V30 977 C 89.1249 -1.62551 -0.341543 0
M  V30 978 O 90.3099 -1.89379 -0.232393 0
M  V30 979 C 87.4499 -3.45076 0.0410575 0
M  V30 980 C 86.5629 -4.18042 1.08927 0
M  V30 981 C 85.6979 -5.29376 0.439848 0
M  V30 982 C 84.7369 -5.94132 1.4722 0
M  V30 983 N 83.8739 -6.96975 0.846756 0
M  V30 984 H 88.7139 -2.54534 1.54972 0
M  V30 985 H 86.2509 -1.25028 0.775006 0
M  V30 986 H 88.2089 -4.15862 -0.33383 0
M  V30 987 H 86.8389 -3.12353 -0.814568 0
M  V30 988 H 85.8909 -3.45945 1.58196 0
M  V30 989 H 87.2029 -4.62306 1.87282 0
M  V30 990 H 86.3569 -6.06699 0.0115125 0
M  V30 991 H 85.0959 -4.86251 -0.375656 0
M  V30 992 H 84.1009 -5.15538 1.91052 0
M  V30 993 H 85.3259 -6.39337 2.28965 0
M  V30 994 H 83.2719 -6.5598 0.0518075 0
M  V30 995 H 83.1889 -7.39565 1.5678 0
M  V30 996 H 84.4569 -7.78239 0.443277 0
M  V30 997 N 88.686 -0.835752 -1.33615 0
M  V30 998 C 89.636 -0.238856 -2.26745 0
M  V30 999 C 90.62 0.604343 -1.49119 0
M  V30 1000 O 91.812 0.456822 -1.71003 0
M  V30 1001 C 88.941 0.587725 -3.38232 0
M  V30 1002 C 88.027 -0.266811 -4.2326 0
M  V30 1003 N 88.418 -1.34403 -4.87616 0
M  V30 1004 C 86.716 -0.0533131 -4.45968 0
M  V30 1005 C 87.417 -1.86819 -5.50884 0
M  V30 1006 N 86.393 -1.17013 -5.30857 0
M  V30 1007 H 90.195 -1.06266 -2.74016 0
M  V30 1008 H 87.709 -0.679881 -1.47483 0
M  V30 1009 H 89.706 1.03161 -4.03935 0
M  V30 1010 H 88.366 1.40954 -2.9251 0
M  V30 1011 H 89.377 -1.7269 -4.88261 0
M  V30 1012 H 86.054 0.735312 -4.10974 0
M  V30 1013 H 87.444 -2.7701 -6.1214 0
M  V30 1014 N 90.1641 1.46063 -0.591896 0
M  V30 1015 C 91.1111 2.30399 0.136069 0
M  V30 1016 C 92.0811 1.41169 0.875238 0
M  V30 1017 O 93.2661 1.70112 0.86409 0
M  V30 1018 C 90.4061 3.25804 1.13781 0
M  V30 1019 C 89.5191 4.30134 0.401137 0
M  V30 1020 C 88.6541 5.12659 1.39121 0
M  V30 1021 C 87.6931 6.0873 0.641462 0
M  V30 1022 N 86.8301 6.8409 1.58004 0
M  V30 1023 H 91.6701 2.92118 -0.589144 0
M  V30 1024 H 89.2071 1.43959 -0.302342 0
M  V30 1025 H 91.1651 3.79569 1.73156 0
M  V30 1026 H 89.7951 2.65872 1.83062 0
M  V30 1027 H 88.8471 3.79152 -0.307826 0
M  V30 1028 H 90.1591 4.98458 -0.184565 0
M  V30 1029 H 89.3131 5.70747 2.05749 0
M  V30 1030 H 88.0521 4.44316 2.01084 0
M  V30 1031 H 87.0571 5.49786 -0.0385419 0
M  V30 1032 H 88.2821 6.79095 0.0270945 0
M  V30 1033 H 86.2281 6.18449 2.18761 0
M  V30 1034 H 86.1451 7.48709 1.04738 0
M  V30 1035 H 87.4131 7.4673 2.23639 0
M  V30 1036 N 91.6422 0.330177 1.54103 0
M  V30 1037 C 92.5902 -0.548226 2.26047 0
M  V30 1038 C 93.5842 -1.11309 1.27698 0
M  V30 1039 O 94.7902 -1.06036 1.45452 0
M  V30 1040 H 91.1652 -0.195456 0.726155 0
M  V30 1041 H 93.1362 0.0807567 2.98291 0
M  V30 1042 C 91.8852 -1.69415 3.03634 0
M  V30 1043 H 91.2082 -1.26876 3.79134 0
M  V30 1044 H 92.6482 -2.28423 3.5721 0
M  V30 1045 C 91.1072 -2.61569 2.12328 0
M  V30 1046 O 91.6372 -3.63462 1.7105 0
M  V30 1047 N 89.8432 -2.29952 1.77681 0
M  V30 1048 H 89.3902 -1.47134 2.11446 0
M  V30 1049 H 89.3482 -2.91871 1.16869 0
M  V30 1050 N 93.1203 -1.57491 0.0584922 0
M  V30 1051 C 94.0703 -2.08474 -0.923188 0
M  V30 1052 C 95.0543 -0.991479 -1.26722 0
M  V30 1053 O 96.2463 -1.25473 -1.24842 0
M  V30 1054 C 93.3753 -2.6392 -2.19548 0
M  V30 1055 C 92.4613 -3.80227 -1.87852 0
M  V30 1056 N 92.8523 -4.89714 -1.26546 0
M  V30 1057 C 91.1503 -3.89271 -2.17679 0
M  V30 1058 C 91.8513 -5.70689 -1.12644 0
M  V30 1059 N 90.8273 -5.18531 -1.63176 0
M  V30 1060 H 94.6293 -2.90517 -0.444653 0
M  V30 1061 H 92.1433 -1.61745 -0.145764 0
M  V30 1062 H 94.1403 -2.98752 -2.9078 0
M  V30 1063 H 92.8003 -1.83318 -2.68001 0
M  V30 1064 H 93.8113 -5.09358 -0.936757 0
M  V30 1065 H 90.4883 -3.19623 -2.68602 0
M  V30 1066 H 91.8783 -6.6875 -0.6499 0
M  V30 1067 N 94.5984 0.214957 -1.56127 0
M  V30 1068 C 95.8284 0.953707 -1.8327 0
M  V30 1069 C 96.2364 1.78181 -0.636262 0
M  V30 1070 O 95.5794 1.79191 0.404516 0
M  V30 1071 C 95.6414 1.91516 -3.0424 0
M  V30 1072 C 95.3054 1.27094 -4.38972 0
M  V30 1073 C 96.3024 0.657575 -5.15725 0
M  V30 1074 C 93.9874 1.28073 -4.85698 0
M  V30 1075 C 95.9814 0.0625968 -6.37369 0
M  V30 1076 C 93.6684 0.681914 -6.07283 0
M  V30 1077 C 94.6664 0.0739046 -6.8296 0
M  V30 1078 O 94.3544 -0.515582 -8.02245 0
M  V30 1079 H 94.0864 0.284764 -0.613095 0
M  V30 1080 H 96.6404 0.233283 -2.04071 0
M  V30 1081 H 94.8704 2.67475 -2.79274 0
M  V30 1082 H 96.5594 2.52001 -3.18198 0
M  V30 1083 H 97.3254 0.642288 -4.80728 0
M  V30 1084 H 93.2044 1.74337 -4.26764 0
M  V30 1085 H 96.7484 -0.412593 -6.96379 0
M  V30 1086 H 92.6454 0.694636 -6.41752 0
M  V30 1087 H 93.4134 -0.410544 -8.1747 0
M  V30 1088 N 96.0765 1.50051 0.48192 0
M  V30 1089 C 97.0235 1.68122 1.58125 0
M  V30 1090 C 97.9935 0.522545 1.57666 0
M  V30 1091 O 99.1785 0.751844 1.75362 0
M  V30 1092 C 96.3185 1.77142 2.96167 0
M  V30 1093 C 95.4315 3.0444 3.06497 0
M  V30 1094 C 94.5665 3.04321 4.35387 0
M  V30 1095 C 93.6055 4.26118 4.3942 0
M  V30 1096 N 92.7425 4.238 5.59766 0
M  V30 1097 H 97.5825 2.6198 1.42022 0
M  V30 1098 H 95.1195 1.29877 0.690687 0
M  V30 1099 H 97.0775 1.80352 3.76203 0
M  V30 1100 H 95.7075 0.867329 3.1093 0
M  V30 1101 H 94.7595 3.10752 2.19402 0
M  V30 1102 H 96.0715 3.94426 3.05336 0
M  V30 1103 H 95.2255 3.062 5.23762 0
M  V30 1104 H 93.9645 2.12147 4.39141 0
M  V30 1105 H 92.9695 4.24463 3.49444 0
M  V30 1106 H 94.1945 5.19507 4.37366 0
M  V30 1107 H 92.1405 3.34474 5.64326 0
M  V30 1108 H 92.0575 5.07542 5.60301 0
M  V30 1109 H 93.3255 4.2981 6.50295 0
M  V30 1110 N 97.5546 -0.734337 1.39446 0
M  V30 1111 C 98.8036 -1.48937 1.36017 0
M  V30 1112 C 99.1166 -1.95557 -0.0409005 0
M  V30 1113 O 100.323 -2.70779 -0.19778 0
M  V30 1114 C 98.7786 -2.69125 2.38955 0
M  V30 1115 C 98.3866 -2.29452 3.8478 0
M  V30 1116 C 100.131 -3.46944 2.44603 0
M  V30 1117 C 98.0376 -3.46366 4.79358 0
M  V30 1118 H 96.9676 -0.559296 0.505672 0
M  V30 1119 H 99.6186 -0.800983 1.65095 0
M  V30 1120 H 98.0006 -3.40041 2.02948 0
M  V30 1121 H 99.1746 -1.66077 4.29831 0
M  V30 1122 H 97.4896 -1.64723 3.82433 0
M  V30 1123 H 100.087 -4.33907 3.12456 0
M  V30 1124 H 100.43 -3.89454 1.47076 0
M  V30 1125 H 100.963 -2.83056 2.79507 0
M  V30 1126 H 97.7016 -3.08905 5.78151 0
M  V30 1127 H 97.2216 -4.08719 4.38986 0
M  V30 1128 H 98.9006 -4.12691 4.98292 0
M  V30 1129 N 99.0327 -1.24633 -0.964593 0
M  V30 1130 C 100.263 -1.11339 -1.74032 0
M  V30 1131 C 100.671 0.336593 -1.86182 0
M  V30 1132 O 100.014 1.24389 -1.35178 0
M  V30 1133 C 100.076 -1.68284 -3.1768 0
M  V30 1134 C 99.7397 -3.17196 -3.28992 0
M  V30 1135 C 100.737 -4.14308 -3.14078 0
M  V30 1136 C 98.4217 -3.57215 -3.53133 0
M  V30 1137 C 100.416 -5.4942 -3.23135 0
M  V30 1138 C 98.1027 -4.92468 -3.61827 0
M  V30 1139 C 99.1007 -5.8838 -3.46841 0
M  V30 1140 O 98.7887 -7.21173 -3.55197 0
M  V30 1141 H 98.5207 -0.389551 -0.552472 0
M  V30 1142 H 101.075 -1.65282 -1.21946 0
M  V30 1143 H 99.3047 -1.08777 -3.71085 0
M  V30 1144 H 100.994 -1.50234 -3.77074 0
M  V30 1145 H 101.76 -3.84731 -2.95308 0
M  V30 1146 H 97.6387 -2.83063 -3.63863 0
M  V30 1147 H 101.183 -6.24263 -3.11355 0
M  V30 1148 H 97.0797 -5.21714 -3.80111 0
M  V30 1149 H 97.8477 -7.29135 -3.71892 0
M  V30 1150 N 100.511 1.16574 -1.06058 0
M  V30 1151 C 101.459 2.22941 -0.663343 0
M  V30 1152 C 102.453 1.66358 0.319593 0
M  V30 1153 O 103.659 1.7905 0.184713 0
M  V30 1154 H 100.034 0.725907 -0.196376 0
M  V30 1155 H 102.005 2.53736 -1.57037 0
M  V30 1156 C 100.754 3.47642 -0.0632808 0
M  V30 1157 H 100.077 3.91493 -0.810733 0
M  V30 1158 H 101.517 4.2363 0.177177 0
M  V30 1159 C 99.9758 3.1509 1.19248 0
M  V30 1160 O 100.506 3.30673 2.28075 0
M  V30 1161 N 98.7118 2.6924 1.09353 0
M  V30 1162 H 98.2588 2.5676 0.207912 0
M  V30 1163 H 98.2168 2.47833 1.93458 0
M  V30 1164 N 101.989 0.842826 1.3317 0
M  V30 1165 C 102.919 0.294028 2.31641 0
M  V30 1166 C 103.9 -0.600401 1.59151 0
M  V30 1167 O 105.085 -0.523124 1.87022 0
M  V30 1168 C 102.215 -0.528416 3.43257 0
M  V30 1169 C 101.169 0.27056 4.27144 0
M  V30 1170 C 100.495 -0.675881 5.30411 0
M  V30 1171 C 101.795 1.48981 5.00602 0
M  V30 1172 H 103.489 1.11681 2.77791 0
M  V30 1173 H 101.035 0.538478 1.33553 0
M  V30 1174 H 102.988 -0.922674 4.11175 0
M  V30 1175 H 101.712 -1.38445 2.95805 0
M  V30 1176 H 100.371 0.646427 3.60856 0
M  V30 1177 H 100.019 -1.52842 4.79216 0
M  V30 1178 H 99.7189 -0.145374 5.8742 0
M  V30 1179 H 101.243 -1.06757 6.01195 0
M  V30 1180 H 102.657 1.16849 5.61266 0
M  V30 1181 H 101.054 1.95739 5.6728 0
M  V30 1182 H 102.124 2.25746 4.29147 0
M  V30 1183 N 103.467 -1.45747 0.599634 0
M  V30 1184 C 104.707 -2.04181 0.0946309 0
M  V30 1185 C 105.071 -1.45895 -1.24815 0
M  V30 1186 O 106.272 -1.95633 -1.8434 0
M  V30 1187 C 104.543 -3.57368 0.047581 0
M  V30 1188 S 106.102 -4.36997 -0.397387 0
M  V30 1189 H 102.92 -0.70953 0.0456954 0
M  V30 1190 H 105.522 -1.78564 0.795946 0
M  V30 1191 H 104.226 -3.97303 1.02852 0
M  V30 1192 H 103.757 -3.87549 -0.675977 0
M  V30 1193 H 105.772 -4.68012 -1.64862 0
M  V30 1194 N 104.945 -0.338344 -1.53925 0
M  V30 1195 C 105.908 0.508299 -2.23493 0
M  V30 1196 C 106.908 1.03175 -1.23335 0
M  V30 1197 O 108.098 0.921826 -1.47811 0
M  V30 1198 C 105.23 1.70754 -2.95052 0
M  V30 1199 H 106.423 -0.100058 -2.99733 0
M  V30 1200 H 103.976 -0.0896198 -1.56043 0
M  V30 1201 H 104.711 2.35474 -2.22986 0
M  V30 1202 H 104.496 1.33946 -3.68512 0
M  V30 1203 H 105.986 2.30818 -3.48013 0
M  V30 1204 N 106.423 1.57458 -0.0668435 0
M  V30 1205 C 107.333 2.15937 0.916975 0
M  V30 1206 C 108.349 1.12123 1.33058 0
M  V30 1207 O 109.525 1.44366 1.40429 0
M  V30 1208 C 106.59 2.70547 2.16807 0
M  V30 1209 C 105.651 3.89215 1.81135 0
M  V30 1210 C 104.884 4.41211 3.0028 0
M  V30 1211 O 105.107 3.92225 4.14144 0
M  V30 1212 O 104.041 5.32605 2.80384 0
M  V30 1213 H 107.867 3.00354 0.449561 0
M  V30 1214 H 105.452 1.48584 0.155949 0
M  V30 1215 H 107.334 3.0557 2.90181 0
M  V30 1216 H 106.009 1.89192 2.62656 0
M  V30 1217 H 104.916 3.59054 1.05028 0
M  V30 1218 H 106.249 4.71848 1.40073 0
M  V30 1219 N 107.901 -0.206675 1.56239 0
M  V30 1220 C 109.317 -0.557025 1.49564 0
M  V30 1221 C 109.517 -1.86424 0.764735 0
M  V30 1222 O 108.573 -2.50584 0.310491 0
M  V30 1223 C 109.886 -0.622478 2.94186 0
M  V30 1224 C 111.434 -0.712099 3.04792 0
M  V30 1225 C 111.909 -0.808767 4.50803 0
M  V30 1226 N 113.4 -0.8726 4.54907 0
M  V30 1227 C 114.135 -0.967365 5.65181 0
M  V30 1228 N 113.631 -1.02515 6.85173 0
M  V30 1229 N 115.424 -1.00366 5.53067 0
M  V30 1230 H 107.575 0.650943 2.02179 0
M  V30 1231 H 109.838 0.230387 0.919579 0
M  V30 1232 H 109.544 0.268727 3.50672 0
M  V30 1233 H 109.418 -1.4811 3.46905 0
M  V30 1234 H 111.805 -1.59374 2.48363 0
M  V30 1235 H 111.886 0.172489 2.55218 0
M  V30 1236 H 111.53 0.0684754 5.07854 0
M  V30 1237 H 111.46 -1.70899 4.98098 0
M  V30 1238 H 113.951 -0.837657 3.68499 0
M  V30 1239 H 114.264 -1.09765 7.64965 0
M  V30 1240 H 112.609 -0.994026 6.87855 0
M  V30 1241 H 115.8 -0.95527 4.58249 0
M  V30 1242 H 115.973 -1.07405 6.39037 0
M  V30 1243 N 109.379 -1.50304 -0.473955 0
M  V30 1244 C 110.329 -1.65347 -1.56985 0
M  V30 1245 C 111.313 -0.508176 -1.52664 0
M  V30 1246 O 112.505 -0.762446 -1.59737 0
M  V30 1247 C 109.634 -1.74832 -2.95447 0
M  V30 1248 C 108.72 -2.95028 -3.04662 0
M  V30 1249 N 109.111 -4.18747 -2.83698 0
M  V30 1250 C 107.409 -2.93527 -3.35795 0
M  V30 1251 C 108.11 -4.99687 -2.97805 0
M  V30 1252 N 107.086 -4.33585 -3.2788 0
M  V30 1253 H 110.888 -2.58698 -1.39472 0
M  V30 1254 H 108.402 -1.47449 -0.680629 0
M  V30 1255 H 110.399 -1.83712 -3.7424 0
M  V30 1256 H 109.059 -0.826376 -3.14008 0
M  V30 1257 H 110.07 -4.48291 -2.59337 0
M  V30 1258 H 106.747 -2.10821 -3.60362 0
M  V30 1259 H 108.137 -6.08057 -2.85861 0
M  V30 1260 N 110.857 0.726932 -1.39834 0
M  V30 1261 C 112.087 1.51393 -1.40583 0
M  V30 1262 C 112.495 1.892 -0.000740625 0
M  V30 1263 O 111.838 1.55189 0.982951 0
M  V30 1264 C 111.9 2.82588 -2.22226 0
M  V30 1265 C 111.564 2.67169 -3.70769 0
M  V30 1266 C 112.561 2.3518 -4.63666 0
M  V30 1267 C 110.246 2.83788 -4.14451 0
M  V30 1268 C 112.24 2.20002 -5.98229 0
M  V30 1269 C 109.927 2.68229 -5.49087 0
M  V30 1270 C 110.925 2.36382 -6.4079 0
M  V30 1271 O 110.613 2.2093 -7.72946 0
M  V30 1272 H 110.345 0.474168 -0.48181 0
M  V30 1273 H 112.899 0.905247 -1.84376 0
M  V30 1274 H 111.129 3.45746 -1.73195 0
M  V30 1275 H 112.818 3.44247 -2.15055 0
M  V30 1276 H 113.584 2.21984 -4.31217 0
M  V30 1277 H 109.463 3.07566 -3.43401 0
M  V30 1278 H 113.007 1.95067 -6.69772 0
M  V30 1279 H 108.904 2.81006 -5.81125 0
M  V30 1280 H 109.672 2.35937 -7.83757 0
M  V30 1281 N 112.336 1.25143 0.95797 0
M  V30 1282 C 113.613 1.00472 1.67823 0
M  V30 1283 C 113.993 -0.470056 2.058 0
M  V30 1284 O 113.341 -1.44663 1.76875 0
M  V30 1285 C 113.551 1.9372 2.90299 0
M  V30 1286 C 114.899 2.21371 3.62326 0
M  V30 1287 O 115.923 1.91451 3.00375 0
M  V30 1288 O 114.782 2.72231 4.7387 0
M  V30 1289 H 111.876 0.380752 0.734137 0
M  V30 1290 H 114.422 1.36283 1.01119 0
M  V30 1291 H 113.194 2.93316 2.59001 0
M  V30 1292 H 112.817 1.58286 3.64735 0
M  V30 1293 N 113.814 -1.1601 1.06675 0
M  V30 1294 C 115.042 -1.90527 0.806667 0
M  V30 1295 C 115.457 -1.77643 -0.639396 0
M  V30 1296 O 114.814 -1.12369 -1.43803 0
M  V30 1297 C 114.865 -3.41106 1.19705 0
M  V30 1298 O 114.586 -3.53608 2.58636 0
M  V30 1299 C 116.087 -4.32663 0.965266 0
M  V30 1300 H 113.307 -0.604053 0.292166 0
M  V30 1301 H 115.851 -1.47026 1.4214 0
M  V30 1302 H 114.006 -3.82296 0.626774 0
M  V30 1303 H 114.42 -4.47011 2.74375 0
M  V30 1304 H 115.894 -5.36763 1.288 0
M  V30 1305 H 116.371 -4.39089 -0.0987936 0
M  V30 1306 H 116.977 -3.97206 1.52011 0
M  V30 1307 N 115.292 -0.849877 -1.32721 0
M  V30 1308 C 116.255 -0.296122 -2.27279 0
M  V30 1309 C 117.255 0.541458 -1.5141 0
M  V30 1310 O 118.445 0.353658 -1.70572 0
M  V30 1311 C 115.577 0.581579 -3.35902 0
M  V30 1312 H 116.77 -1.13064 -2.77771 0
M  V30 1313 H 114.323 -0.62383 -1.43311 0
M  V30 1314 H 115.058 1.43809 -2.9067 0
M  V30 1315 H 114.843 -0.0178814 -3.92096 0
M  V30 1316 H 116.333 0.961951 -4.0637 0
M  V30 1317 N 116.77 1.45427 -0.607355 0
M  V30 1318 C 117.717 2.3053 0.111625 0
M  V30 1319 C 118.687 1.4209 0.860216 0
M  V30 1320 O 119.872 1.71019 0.845998 0
M  V30 1321 C 117.012 3.26992 1.10319 0
M  V30 1322 C 116.125 4.30535 0.355493 0
M  V30 1323 C 115.26 5.14105 1.33676 0
M  V30 1324 C 114.299 6.09376 0.576862 0
M  V30 1325 N 113.436 6.85727 1.5074 0
M  V30 1326 H 118.276 2.91477 -0.620093 0
M  V30 1327 H 115.813 1.43631 -0.317594 0
M  V30 1328 H 117.771 3.81385 1.6912 0
M  V30 1329 H 116.401 2.67799 1.80232 0
M  V30 1330 H 115.453 3.78805 -0.348023 0
M  V30 1331 H 116.765 4.98235 -0.237423 0
M  V30 1332 H 115.919 5.72897 1.99684 0
M  V30 1333 H 114.658 4.46423 1.9636 0
M  V30 1334 H 113.663 5.49715 -0.0968519 0
M  V30 1335 H 114.888 6.79085 -0.0449341 0
M  V30 1336 H 112.834 6.20735 2.12189 0
M  V30 1337 H 112.751 7.49778 0.967913 0
M  V30 1338 H 114.019 7.4906 2.15706 0
M  V30 1339 N 118.248 0.346503 1.53744 0
M  V30 1340 C 119.495 -0.249104 2.00962 0
M  V30 1341 C 119.823 -1.5032 1.23426 0
M  V30 1342 O 119.078 -1.93217 0.310761 0
M  V30 1343 C 119.377 -0.605809 3.52228 0
M  V30 1344 C 119.043 0.551747 4.47512 0
M  V30 1345 C 117.705 0.86941 4.73281 0
M  V30 1346 C 120.057 1.32818 5.03993 0
M  V30 1347 C 117.385 1.96582 5.52786 0
M  V30 1348 C 119.737 2.41486 5.84694 0
M  V30 1349 C 118.401 2.73808 6.08757 0
M  V30 1350 H 117.671 -0.0911538 0.735372 0
M  V30 1351 H 120.318 0.475027 1.85515 0
M  V30 1352 H 118.623 -1.4107 3.65522 0
M  V30 1353 H 120.32 -1.07858 3.86222 0
M  V30 1354 H 116.91 0.294102 4.2759 0
M  V30 1355 H 121.094 1.09602 4.84047 0
M  V30 1356 H 116.35 2.22045 5.69654 0
M  V30 1357 H 120.524 3.02078 6.27473 0
M  V30 1358 H 118.151 3.58892 6.7015 0
M  V30 1359 N 119.726 -1.57421 0.075193 0
M  V30 1360 C 120.674 -2.14124 -0.908508 0
M  V30 1361 C 121.668 -1.07898 -1.30592 0
M  V30 1362 O 122.874 -1.26273 -1.28277 0
M  V30 1363 H 119.249 -0.684707 -0.310935 0
M  V30 1364 H 121.22 -2.95634 -0.405374 0
M  V30 1365 C 119.969 -2.72044 -2.16535 0
M  V30 1366 H 119.292 -3.53456 -1.86839 0
M  V30 1367 H 120.732 -3.15311 -2.83469 0
M  V30 1368 C 119.191 -1.66968 -2.92615 0
M  V30 1369 O 119.721 -1.0967 -3.86439 0
M  V30 1370 N 117.927 -1.37923 -2.55784 0
M  V30 1371 H 117.474 -1.84706 -1.79559 0
M  V30 1372 H 117.432 -0.67852 -3.06991 0
M  V30 1373 N 121.204 0.198386 -1.56346 0
M  V30 1374 C 122.444 0.92609 -1.82217 0
M  V30 1375 C 122.808 1.80584 -0.652195 0
M  V30 1376 O 124.009 2.56907 -0.790716 0
M  V30 1377 C 122.28 1.72354 -3.13096 0
M  V30 1378 S 123.839 2.50371 -3.6036 0
M  V30 1379 H 120.657 0.310677 -0.639532 0
M  V30 1380 H 123.259 0.189755 -1.94577 0
M  V30 1381 H 121.963 1.0678 -3.96265 0
M  V30 1382 H 121.494 2.50175 -3.03605 0
M  V30 1383 H 123.509 3.74488 -3.25535 0
M  V30 1384 N 122.682 1.50554 0.465978 0
M  V30 1385 C 124.098 1.38093 0.800154 0
M  V30 1386 C 124.298 0.440988 1.96615 0
M  V30 1387 O 123.354 -0.114499 2.5224 0
M  V30 1388 C 124.667 2.79565 1.10742 0
M  V30 1389 C 126.215 2.88516 1.21357 0
M  V30 1390 C 126.69 4.30833 1.55393 0
M  V30 1391 N 128.181 4.33807 1.62375 0
M  V30 1392 C 128.916 5.40927 1.90225 0
M  V30 1393 N 128.412 6.58247 2.16062 0
M  V30 1394 N 130.205 5.28376 1.9177 0
M  V30 1395 H 122.356 2.10237 -0.302366 0
M  V30 1396 H 124.619 0.945203 -0.0727746 0
M  V30 1397 H 124.325 3.50208 0.323661 0
M  V30 1398 H 124.199 3.17125 2.04234 0
M  V30 1399 H 126.586 2.1809 1.98799 0
M  V30 1400 H 126.667 2.54492 0.258321 0
M  V30 1401 H 126.311 5.01799 0.784889 0
M  V30 1402 H 126.241 4.62347 2.52076 0
M  V30 1403 H 128.732 3.49212 1.44427 0
M  V30 1404 H 129.045 7.3569 2.36601 0
M  V30 1405 H 127.39 6.61413 2.13444 0
M  V30 1406 H 130.581 4.35715 1.71085 0
M  V30 1407 H 130.754 6.11944 2.13139 0
M  V30 1408 N 124.16 -0.719506 1.40217 0
M  V30 1409 C 125.406 -1.48152 1.38488 0
M  V30 1410 C 125.739 -1.94195 -0.0141867 0
M  V30 1411 O 125.014 -1.67884 -0.982096 0
M  V30 1412 C 125.297 -2.71035 2.37091 0
M  V30 1413 C 125.15 -2.30912 3.86005 0
M  V30 1414 C 126.469 -3.73182 2.33288 0
M  V30 1415 H 123.588 -0.537395 0.504357 0
M  V30 1416 H 126.23 -0.821472 1.71324 0
M  V30 1417 H 124.38 -3.27352 2.0922 0
M  V30 1418 H 126.052 -1.80107 4.24687 0
M  V30 1419 H 124.295 -1.62958 4.02029 0
M  V30 1420 H 124.966 -3.18978 4.50508 0
M  V30 1421 H 127.442 -3.26485 2.57966 0
M  V30 1422 H 126.318 -4.56806 3.04334 0
M  V30 1423 H 126.579 -4.21202 1.34317 0
M  V30 1424 N 125.638 -1.25649 -0.95132 0
M  V30 1425 C 126.601 -1.06399 -2.03007 0
M  V30 1426 C 127.601 -0.0156794 -1.60792 0
M  V30 1427 O 128.791 -0.25817 -1.72276 0
M  V30 1428 C 125.923 -0.616184 -3.35285 0
M  V30 1429 H 127.116 -2.02164 -2.21517 0
M  V30 1430 H 124.669 -1.08103 -1.12887 0
M  V30 1431 H 125.404 0.343917 -3.22471 0
M  V30 1432 H 125.189 -1.37301 -3.67275 0
M  V30 1433 H 126.679 -0.503032 -4.14559 0
M  V30 1434 N 127.117 1.15442 -1.07289 0
M  V30 1435 C 128.049 2.19773 -0.650585 0
M  V30 1436 C 129.062 1.60076 0.296572 0
M  V30 1437 O 130.251 1.78293 0.0859905 0
M  V30 1438 C 127.351 3.38838 0.0650398 0
M  V30 1439 C 126.524 4.2808 -0.898141 0
M  V30 1440 C 125.583 5.2574 -0.219926 0
M  V30 1441 O 124.609 5.62654 -0.860773 0
M  V30 1442 N 125.811 5.71205 1.03466 0
M  V30 1443 H 128.576 2.56622 -1.54808 0
M  V30 1444 H 126.137 1.30551 -0.957494 0
M  V30 1445 H 128.129 4.01222 0.529415 0
M  V30 1446 H 126.699 3.00409 0.864466 0
M  V30 1447 H 125.919 3.62804 -1.54165 0
M  V30 1448 H 127.207 4.84577 -1.5512 0
M  V30 1449 H 126.605 5.43325 1.57526 0
M  V30 1450 H 125.162 6.35633 1.44272 0
M  V30 1451 N 128.595 0.856903 1.32268 0
M  V30 1452 C 129.825 0.47475 2.01071 0
M  V30 1453 C 130.233 -0.933746 1.64553 0
M  V30 1454 O 129.576 -1.62114 0.863989 0
M  V30 1455 C 129.638 0.536746 3.55471 0
M  V30 1456 C 129.302 1.90453 4.15423 0
M  V30 1457 C 130.299 2.87029 4.33486 0
M  V30 1458 C 127.984 2.20229 4.51447 0
M  V30 1459 C 129.978 4.11532 4.86744 0
M  V30 1460 C 127.665 3.44984 5.0441 0
M  V30 1461 C 128.663 4.40452 5.22007 0
M  V30 1462 O 128.351 5.62998 5.73837 0
M  V30 1463 H 128.083 0.184778 0.650256 0
M  V30 1464 H 130.637 1.15615 1.69771 0
M  V30 1465 H 128.867 -0.20152 3.86175 0
M  V30 1466 H 130.556 0.169875 4.05544 0
M  V30 1467 H 131.322 2.6533 4.05986 0
M  V30 1468 H 127.201 1.46705 4.37034 0
M  V30 1469 H 130.745 4.86056 5.00395 0
M  V30 1470 H 126.642 3.66532 5.31342 0
M  V30 1471 H 127.41 5.64987 5.92226 0
M  V30 1472 N 130.073 -1.45103 0.615059 0
M  V30 1473 C 131.484 -1.85654 0.197383 0
M  V30 1474 C 131.835 -1.51433 -1.24749 0
M  V30 1475 O 130.96 -0.944608 -1.94695 0
M  V30 1476 C 131.555 -3.36972 0.351448 0
M  V30 1477 C 130.114 -3.76398 -0.011593 0
M  V30 1478 C 129.261 -2.69024 0.672394 0
M  V30 1479 H 132.212 -1.35797 0.821263 0
M  V30 1480 H 132.233 -3.78239 -0.414227 0
M  V30 1481 H 131.745 -3.61847 1.40314 0
M  V30 1482 H 129.846 -3.5714 -1.06217 0
M  V30 1483 H 129.959 -4.77532 0.387265 0
M  V30 1484 H 128.323 -2.54465 0.109284 0
M  V30 1485 H 129.106 -2.96735 1.72636 0
M  V30 1486 N 131.551 -0.354651 -1.53558 0
M  V30 1487 C 132.798 0.238443 -2.01091 0
M  V30 1488 C 133.126 1.49663 -1.24222 0
M  V30 1489 O 132.381 1.93049 -0.321003 0
M  V30 1490 C 132.68 0.587121 -3.52545 0
M  V30 1491 C 132.346 -0.575472 -4.47213 0
M  V30 1492 C 131.008 -0.894497 -4.72813 0
M  V30 1493 C 133.36 -1.35489 -5.03281 0
M  V30 1494 C 130.688 -1.99511 -5.51736 0
M  V30 1495 C 133.04 -2.44583 -5.83405 0
M  V30 1496 C 131.704 -2.77033 -6.07296 0
M  V30 1497 H 130.974 0.0872526 -0.735845 0
M  V30 1498 H 133.621 -0.484859 -1.8526 0
M  V30 1499 H 131.926 1.39129 -3.66265 0
M  V30 1500 H 133.623 1.05809 -3.86789 0
M  V30 1501 H 130.213 -0.316774 -4.27428 0
M  V30 1502 H 134.397 -1.12167 -4.83459 0
M  V30 1503 H 129.653 -2.25063 -5.68469 0
M  V30 1504 H 133.827 -3.05401 -6.25862 0
M  V30 1505 H 131.454 -3.6244 -6.68237 0
M  V30 1506 N 133.029 1.57378 -0.0835403 0
M  V30 1507 C 133.939 2.16897 0.894021 0
M  V30 1508 C 134.955 1.13528 1.31861 0
M  V30 1509 O 136.131 1.45848 1.3889 0
M  V30 1510 C 133.196 2.72831 2.13925 0
M  V30 1511 C 132.257 3.91115 1.76997 0
M  V30 1512 C 131.49 4.44371 2.95584 0
M  V30 1513 O 131.713 3.96596 4.09961 0
M  V30 1514 O 130.647 5.35549 2.74719 0
M  V30 1515 H 134.473 3.00814 0.417679 0
M  V30 1516 H 132.058 1.48741 0.140181 0
M  V30 1517 H 133.94 3.0863 2.86924 0
M  V30 1518 H 132.615 1.91967 2.60635 0
M  V30 1519 H 131.522 3.60148 1.01214 0
M  V30 1520 H 132.855 4.73307 1.3506 0
M  V30 1521 N 134.507 -0.190092 1.56449 0
M  V30 1522 C 135.784 -0.935886 1.71757 0
M  V30 1523 C 136.164 -2.01173 0.639726 0
M  V30 1524 O 135.512 -2.25827 -0.348502 0
M  V30 1525 C 135.722 -1.51775 3.1427 0
M  V30 1526 C 137.07 -1.99794 3.74656 0
M  V30 1527 O 138.094 -1.61607 3.1743 0
M  V30 1528 O 136.953 -2.70079 4.751 0
M  V30 1529 H 134.047 -0.439229 0.700719 0
M  V30 1530 H 136.593 -0.179395 1.68749 0
M  V30 1531 H 135.365 -0.742505 3.84191 0
M  V30 1532 H 134.988 -2.33894 3.21527 0
M  V30 1533 N 135.985 -1.50799 -0.457987 0
M  V30 1534 C 136.935 -1.67003 -1.55222 0
M  V30 1535 C 137.919 -0.52434 -1.52117 0
M  V30 1536 O 139.111 -0.779345 -1.58919 0
M  V30 1537 C 136.24 -1.77956 -2.93576 0
M  V30 1538 C 135.326 -2.98243 -3.01516 0
M  V30 1539 N 135.717 -4.21732 -2.79241 0
M  V30 1540 C 134.015 -2.97072 -3.32662 0
M  V30 1541 C 134.716 -5.02817 -2.92489 0
M  V30 1542 N 133.692 -4.37038 -3.23262 0
M  V30 1543 H 137.494 -2.60163 -1.36721 0
M  V30 1544 H 135.008 -1.48163 -0.664952 0
M  V30 1545 H 137.005 -1.87671 -3.72271 0
M  V30 1546 H 135.665 -0.859634 -3.13114 0
M  V30 1547 H 136.676 -4.51016 -2.54567 0
M  V30 1548 H 133.353 -2.14631 -3.58106 0
M  V30 1549 H 134.743 -6.11054 -2.79396 0
M  V30 1550 N 137.463 0.71206 -1.40597 0
M  V30 1551 C 138.411 1.84746 -1.41321 0
M  V30 1552 C 139.405 1.66842 -0.293268 0
M  V30 1553 O 140.611 1.73904 -0.464481 0
M  V30 1554 H 136.986 0.608522 -0.441819 0
M  V30 1555 H 138.957 1.81252 -2.37045 0
M  V30 1556 C 137.706 3.22638 -1.29614 0
M  V30 1557 H 137.029 3.37023 -2.15071 0
M  V30 1558 H 138.469 4.02209 -1.3418 0
M  V30 1559 C 136.928 3.36899 -0.00673121 0
M  V30 1560 O 137.458 3.90186 0.954859 0
M  V30 1561 N 135.664 2.9053 0.0639327 0
M  V30 1562 H 135.211 2.47353 -0.719311 0
M  V30 1563 H 135.169 3.0045 0.926118 0
M  V30 1564 N 138.941 1.26152 0.944643 0
M  V30 1565 C 140.352 1.10454 1.50522 0
M  V30 1566 C 140.703 -0.31635 1.93633 0
M  V30 1567 O 139.828 -1.20746 1.79581 0
M  V30 1568 C 140.423 1.99891 2.73549 0
M  V30 1569 C 138.982 1.88348 3.25886 0
M  V30 1570 C 138.129 1.93447 1.9868 0
M  V30 1571 H 141.08 1.39292 0.760489 0
M  V30 1572 H 141.101 1.54477 3.47732 0
M  V30 1573 H 140.613 3.03297 2.42141 0
M  V30 1574 H 138.714 0.878636 3.62092 0
M  V30 1575 H 138.827 2.73696 3.93227 0
M  V30 1576 H 137.191 1.37456 2.14425 0
M  V30 1577 H 137.974 2.98476 1.69607 0
M  V30 1578 N 140.419 -1.14872 1.07899 0
M  V30 1579 C 141.83 -1.67367 0.827363 0
M  V30 1580 C 142.181 -1.85236 -0.646693 0
M  V30 1581 O 141.306 -1.55974 -1.50004 0
M  V30 1582 C 141.901 -3.04016 1.49532 0
M  V30 1583 C 140.46 -3.53566 1.29106 0
M  V30 1584 C 139.607 -2.29161 1.56143 0
M  V30 1585 H 142.558 -0.990083 1.24028 0
M  V30 1586 H 142.579 -3.69219 0.919643 0
M  V30 1587 H 142.091 -2.90978 2.56814 0
M  V30 1588 H 140.192 -3.71835 0.238713 0
M  V30 1589 H 140.305 -4.34661 2.01511 0
M  V30 1590 H 138.669 -2.34978 0.982717 0
M  V30 1591 H 139.452 -2.18705 2.64619 0
M  V30 1592 N 141.898 -0.863906 -1.31812 0
M  V30 1593 C 142.83 -0.272485 -2.27575 0
M  V30 1594 C 143.843 0.56104 -1.52827 0
M  V30 1595 O 145.032 0.384021 -1.7432 0
M  V30 1596 C 142.132 0.63283 -3.32939 0
M  V30 1597 C 141.305 -0.166902 -4.37081 0
M  V30 1598 C 140.364 0.665608 -5.21973 0
M  V30 1599 O 139.39 0.0958091 -5.69119 0
M  V30 1600 N 140.592 1.9787 -5.45736 0
M  V30 1601 H 143.357 -1.0954 -2.78964 0
M  V30 1602 H 140.918 -0.724791 -1.4477 0
M  V30 1603 H 142.91 1.19532 -3.86645 0
M  V30 1604 H 141.48 1.35642 -2.81638 0
M  V30 1605 H 140.7 -0.910838 -3.83533 0
M  V30 1606 H 141.988 -0.715874 -5.03739 0
M  V30 1607 H 141.386 2.46484 -5.09178 0
M  V30 1608 H 139.943 2.48911 -6.024 0
M  V30 1609 N 143.376 1.44774 -0.622745 0
M  V30 1610 C 144.306 2.33382 0.0741861 0
M  V30 1611 C 145.287 1.47719 0.843387 0
M  V30 1612 O 146.472 1.76458 0.810934 0
M  V30 1613 C 143.602 3.30663 1.06204 0
M  V30 1614 C 142.556 4.26079 0.405037 0
M  V30 1615 C 141.882 5.13165 1.5022 0
M  V30 1616 C 143.182 5.1781 -0.683414 0
M  V30 1617 H 144.876 2.91905 -0.665713 0
M  V30 1618 H 142.422 1.40363 -0.321587 0
M  V30 1619 H 144.375 3.9153 1.55827 0
M  V30 1620 H 143.099 2.70331 1.83272 0
M  V30 1621 H 141.758 3.66532 -0.0704683 0
M  V30 1622 H 141.406 4.49191 2.26355 0
M  V30 1623 H 141.106 5.77812 1.06803 0
M  V30 1624 H 142.63 5.76902 2.00041 0
M  V30 1625 H 144.044 5.72661 -0.270631 0
M  V30 1626 H 142.441 5.91015 -1.04023 0
M  V30 1627 H 143.511 4.59326 -1.55395 0
M  V30 1628 N 144.854 0.36279 1.53368 0
M  V30 1629 C 145.764 -0.492994 2.29362 0
M  V30 1630 C 146.78 -1.09507 1.35219 0
M  V30 1631 O 147.956 -1.10662 1.68273 0
M  V30 1632 C 145.021 -1.61855 3.066 0
M  V30 1633 C 144.082 -1.04429 4.16405 0
M  V30 1634 C 143.315 -2.11621 4.89951 0
M  V30 1635 O 143.538 -3.32684 4.63333 0
M  V30 1636 O 142.472 -1.74835 5.75948 0
M  V30 1637 H 146.298 0.125331 3.03441 0
M  V30 1638 H 143.883 0.127253 1.48857 0
M  V30 1639 H 145.765 -2.27302 3.54841 0
M  V30 1640 H 144.44 -2.22233 2.3536 0
M  V30 1641 H 143.347 -0.353819 3.72423 0
M  V30 1642 H 144.68 -0.485113 4.89804 0
M  V30 1643 N 146.332 -1.57332 0.0918853 0
M  V30 1644 C 147.262 -2.16872 -0.865371 0
M  V30 1645 C 148.243 -1.10118 -1.29646 0
M  V30 1646 O 149.428 -1.38242 -1.36392 0
M  V30 1647 C 146.558 -2.74649 -2.12569 0
M  V30 1648 C 145.512 -3.86747 -1.83333 0
M  V30 1649 C 144.838 -4.31212 -3.16166 0
M  V30 1650 C 146.138 -5.10089 -1.1228 0
M  V30 1651 H 147.832 -2.97114 -0.369307 0
M  V30 1652 H 145.378 -1.42918 -0.176194 0
M  V30 1653 H 147.331 -3.14952 -2.7997 0
M  V30 1654 H 146.055 -1.91657 -2.64452 0
M  V30 1655 H 144.714 -3.46978 -1.18331 0
M  V30 1656 H 144.362 -3.45115 -3.6593 0
M  V30 1657 H 144.062 -5.06788 -2.97388 0
M  V30 1658 H 145.586 -4.74146 -3.84731 0
M  V30 1659 H 147 -5.47582 -1.69785 0
M  V30 1660 H 145.397 -5.91073 -1.03693 0
M  V30 1661 H 146.467 -4.84786 -0.105041 0
M  V30 1662 N 147.81 0.181792 -1.56548 0
M  V30 1663 C 149.059 0.898348 -1.8059 0
M  V30 1664 C 149.372 1.83862 -0.667379 0
M  V30 1665 O 150.578 2.59678 -0.792446 0
M  V30 1666 C 149.034 1.64791 -3.19956 0
M  V30 1667 C 148.642 0.751789 -4.41647 0
M  V30 1668 C 150.386 2.35331 -3.53298 0
M  V30 1669 C 148.293 1.50098 -5.72035 0
M  V30 1670 H 147.223 0.339194 -0.673397 0
M  V30 1671 H 149.874 0.151413 -1.82874 0
M  V30 1672 H 148.256 2.43921 -3.11959 0
M  V30 1673 H 149.43 -0.0018076 -4.608 0
M  V30 1674 H 147.745 0.156562 -4.16106 0
M  V30 1675 H 150.342 2.91958 -4.47956 0
M  V30 1676 H 150.685 3.10164 -2.77676 0
M  V30 1677 H 151.218 1.63154 -3.62803 0
M  V30 1678 H 147.957 0.795175 -6.50659 0
M  V30 1679 H 147.477 2.22817 -5.56878 0
M  V30 1680 H 149.156 2.05125 -6.13622 0
M  V30 1681 N 149.288 1.51039 0.449983 0
M  V30 1682 C 150.235 1.71439 1.54523 0
M  V30 1683 C 151.205 0.555871 1.56522 0
M  V30 1684 O 152.39 0.788871 1.73728 0
M  V30 1685 C 149.53 1.83384 2.92343 0
M  V30 1686 C 148.643 3.10873 2.9997 0
M  V30 1687 C 147.778 3.13488 4.28834 0
M  V30 1688 C 146.817 4.35343 4.30282 0
M  V30 1689 N 145.954 4.35579 5.5065 0
M  V30 1690 H 150.794 2.64934 1.36433 0
M  V30 1691 H 148.331 1.31312 0.662982 0
M  V30 1692 H 150.289 1.88291 3.72293 0
M  V30 1693 H 148.919 0.933086 3.0902 0
M  V30 1694 H 147.971 3.15336 2.12761 0
M  V30 1695 H 149.283 4.00814 2.96901 0
M  V30 1696 H 148.437 3.17241 5.17149 0
M  V30 1697 H 147.176 2.21414 4.34543 0
M  V30 1698 H 146.181 4.3178 3.40362 0
M  V30 1699 H 147.406 5.28668 4.26248 0
M  V30 1700 H 145.352 3.46369 5.57104 0
M  V30 1701 H 145.269 5.19313 5.49409 0
M  V30 1702 H 146.537 4.43507 6.41032 0
M  V30 1703 N 150.766 -0.704594 1.40972 0
M  V30 1704 C 152.177 -1.28418 1.3552 0
M  V30 1705 C 152.528 -1.96171 0.0339434 0
M  V30 1706 O 151.653 -1.98231 -0.867944 0
M  V30 1707 C 152.248 -2.33528 2.45459 0
M  V30 1708 C 150.807 -2.87085 2.43433 0
M  V30 1709 C 149.954 -1.61007 2.2577 0
M  V30 1710 H 152.905 -0.499963 1.50619 0
M  V30 1711 H 152.926 -3.14619 2.13998 0
M  V30 1712 H 152.438 -1.84187 3.41609 0
M  V30 1713 H 150.539 -3.40626 1.51013 0
M  V30 1714 H 150.652 -3.3813 3.39419 0
M  V30 1715 H 149.016 -1.86482 1.73483 0
M  V30 1716 H 149.799 -1.13675 3.23933 0
M  V30 1717 N 152.244 -1.26651 -0.937939 0
M  V30 1718 C 153.491 -1.12387 -1.6845 0
M  V30 1719 C 153.819 0.332208 -1.91642 0
M  V30 1720 O 153.074 1.2602 -1.49725 0
M  V30 1721 C 153.373 -1.84168 -3.06295 0
M  V30 1722 C 153.039 -3.34056 -3.02849 0
M  V30 1723 C 151.701 -3.74942 -3.01616 0
M  V30 1724 C 154.053 -4.29741 -2.9491 0
M  V30 1725 C 151.381 -5.09894 -2.90215 0
M  V30 1726 C 153.733 -5.64738 -2.8505 0
M  V30 1727 C 152.397 -6.0493 -2.82162 0
M  V30 1728 H 151.667 -0.411252 -0.616403 0
M  V30 1729 H 154.314 -1.57134 -1.09459 0
M  V30 1730 H 152.619 -1.319 -3.6893 0
M  V30 1731 H 154.316 -1.70569 -3.62915 0
M  V30 1732 H 150.906 -3.01534 -3.0459 0
M  V30 1733 H 155.09 -3.99133 -2.94969 0
M  V30 1734 H 150.346 -5.40194 -2.86358 0
M  V30 1735 H 154.52 -6.38561 -2.77872 0
M  V30 1736 H 152.147 -7.09457 -2.73084 0
M  V30 1737 N 153.722 1.14298 -1.08507 0
M  V30 1738 C 154.962 1.87016 -0.824894 0
M  V30 1739 C 155.326 1.81099 0.637735 0
M  V30 1740 O 156.527 2.48963 1.01345 0
M  V30 1741 C 154.798 3.31584 -1.33368 0
M  V30 1742 S 156.357 4.21903 -1.20596 0
M  V30 1743 H 153.175 0.645259 -0.2986 0
M  V30 1744 H 155.777 1.37822 -1.38656 0
M  V30 1745 H 154.481 3.33439 -2.39262 0
M  V30 1746 H 154.012 3.85836 -0.767734 0
M  V30 1747 H 156.027 4.95971 -0.150891 0
M  V30 1748 N 155.201 0.870884 1.31352 0
M  V30 1749 C 156.111 0.330783 2.32256 0
M  V30 1750 C 157.127 -0.559767 1.6475 0
M  V30 1751 O 158.303 -0.456263 1.96164 0
M  V30 1752 C 155.368 -0.458137 3.4366 0
M  V30 1753 C 154.429 0.460482 4.26823 0
M  V30 1754 C 153.662 -0.290881 5.32907 0
M  V30 1755 O 153.885 -1.51885 5.49806 0
M  V30 1756 O 152.819 0.351732 6.00871 0
M  V30 1757 H 156.645 1.16718 2.80376 0
M  V30 1758 H 154.23 0.634285 1.35267 0
M  V30 1759 H 156.112 -0.905343 4.1156 0
M  V30 1760 H 154.787 -1.27106 2.97701 0
M  V30 1761 H 153.694 0.956207 3.61673 0
M  V30 1762 H 155.027 1.23903 4.7635 0
M  V30 1763 N 156.679 -1.44442 0.630414 0
M  V30 1764 C 157.956 -1.9549 0.0655657 0
M  V30 1765 C 158.336 -1.5724 -1.40851 0
M  V30 1766 O 157.684 -0.846116 -2.12257 0
M  V30 1767 C 157.894 -3.47812 0.287691 0
M  V30 1768 C 159.242 -4.24216 0.180513 0
M  V30 1769 O 160.266 -3.55526 0.219019 0
M  V30 1770 O 159.125 -5.46434 0.0848493 0
M  V30 1771 H 156.219 -0.826688 -0.0227177 0
M  V30 1772 H 158.765 -1.54496 0.702068 0
M  V30 1773 H 157.537 -3.687 1.31056 0
M  V30 1774 H 157.16 -3.95751 -0.382984 0
M  V30 1775 N 158.157 -0.370918 -1.53173 0
M  V30 1776 C 159.087 0.464847 -2.28826 0
M  V30 1777 C 160.068 1.07936 -1.31468 0
M  V30 1778 O 161.253 1.0956 -1.60344 0
M  V30 1779 C 158.383 1.60196 -3.08147 0
M  V30 1780 C 157.337 1.11443 -4.13237 0
M  V30 1781 C 156.663 2.3422 -4.80672 0
M  V30 1782 C 157.963 0.195384 -5.21934 0
M  V30 1783 H 159.657 -0.166329 -2.98938 0
M  V30 1784 H 157.203 -0.0814359 -1.4377 0
M  V30 1785 H 159.156 2.19332 -3.59822 0
M  V30 1786 H 157.88 2.26045 -2.35735 0
M  V30 1787 H 156.539 0.545727 -3.62515 0
M  V30 1788 H 156.187 2.98537 -4.04827 0
M  V30 1789 H 155.887 2.02269 -5.51689 0
M  V30 1790 H 157.411 2.94032 -5.35143 0
M  V30 1791 H 158.825 0.694375 -5.69079 0
M  V30 1792 H 157.222 -0.0335027 -6.00091 0
M  V30 1793 H 158.292 -0.760961 -4.78892 0
M  V30 1794 N 159.635 1.57281 -0.100228 0
M  V30 1795 C 160.912 1.86014 0.604812 0
M  V30 1796 C 161.292 0.998025 1.86018 0
M  V30 1797 O 160.64 0.0718184 2.28387 0
M  V30 1798 C 160.85 3.36784 0.915278 0
M  V30 1799 C 162.198 4.04957 1.27651 0
M  V30 1800 O 163.222 3.41695 1.00613 0
M  V30 1801 O 162.081 5.16593 1.7831 0
M  V30 1802 H 159.175 0.76942 0.303185 0
M  V30 1803 H 161.721 1.69176 -0.133313 0
M  V30 1804 H 160.493 3.91292 0.0248896 0
M  V30 1805 H 160.116 3.58987 1.70921 0
M  V30 1806 N 161.113 -0.173488 1.56642 0
M  V30 1807 C 162.045 -1.23935 1.92802 0
M  V30 1808 C 163.058 -1.40589 0.820889 0
M  V30 1809 O 164.247 -1.40631 1.09933 0
M  V30 1810 C 161.347 -2.60837 2.16373 0
M  V30 1811 C 160.52 -2.6551 3.47596 0
M  V30 1812 C 159.579 -3.8376 3.60021 0
M  V30 1813 O 158.605 -3.69859 4.32658 0
M  V30 1814 N 159.807 -5.00127 2.94709 0
M  V30 1815 H 162.572 -0.932236 2.84832 0
M  V30 1816 H 160.133 -0.363268 1.57772 0
M  V30 1817 H 162.125 -3.38407 2.21952 0
M  V30 1818 H 160.695 -2.83948 1.30738 0
M  V30 1819 H 159.915 -1.74052 3.53694 0
M  V30 1820 H 161.203 -2.65641 4.33949 0
M  V30 1821 H 160.601 -5.14322 2.35563 0
M  V30 1822 H 159.158 -5.75567 3.05886 0
M  V30 1823 N 162.591 -1.51276 -0.441967 0
M  V30 1824 C 163.837 -1.6492 -1.1905 0
M  V30 1825 C 164.192 -0.358731 -1.89026 0
M  V30 1826 O 163.485 0.645193 -1.8041 0
M  V30 1827 C 163.679 -2.78746 -2.23686 0
M  V30 1828 C 163.508 -4.18737 -1.63979 0
M  V30 1829 C 162.278 -4.84739 -1.42674 0
M  V30 1830 C 164.476 -5.01988 -1.11858 0
M  V30 1831 N 162.458 -6.08858 -0.785159 0
M  V30 1832 C 163.829 -6.17071 -0.601989 0
M  V30 1833 C 165.884 -4.87551 -1.0099 0
M  V30 1834 C 164.587 -7.19299 0.0126012 0
M  V30 1835 C 166.613 -5.89983 -0.409206 0
M  V30 1836 C 165.975 -7.04333 0.0968651 0
M  V30 1837 H 162.074 -0.657416 -0.423471 0
M  V30 1838 H 164.658 -1.8849 -0.48782 0
M  V30 1839 H 162.829 -2.56848 -2.91348 0
M  V30 1840 H 164.561 -2.81595 -2.90666 0
M  V30 1841 H 161.316 -4.42528 -1.68719 0
M  V30 1842 H 161.74 -6.75282 -0.481942 0
M  V30 1843 H 166.382 -3.99401 -1.38703 0
M  V30 1844 H 164.1 -8.071 0.401879 0
M  V30 1845 H 167.686 -5.8088 -0.327079 0
M  V30 1846 H 166.566 -7.82238 0.554373 0
M  V30 1847 N 164.069 0.697108 -1.41344 0
M  V30 1848 C 164.999 1.82353 -1.45841 0
M  V30 1849 C 165.98 1.67115 -0.317247 0
M  V30 1850 O 167.165 1.86871 -0.528474 0
M  V30 1851 C 164.295 3.20476 -1.33838 0
M  V30 1852 C 163.249 3.50415 -2.4575 0
M  V30 1853 C 162.575 4.87878 -2.18813 0
M  V30 1854 C 163.875 3.49546 -3.88091 0
M  V30 1855 H 165.569 1.78846 -2.40113 0
M  V30 1856 H 163.115 0.859028 -1.15571 0
M  V30 1857 H 165.068 3.98988 -1.35596 0
M  V30 1858 H 163.792 3.24604 -0.360498 0
M  V30 1859 H 162.451 2.74253 -2.43271 0
M  V30 1860 H 162.099 4.8863 -1.19371 0
M  V30 1861 H 161.799 5.08875 -2.93803 0
M  V30 1862 H 163.323 5.68702 -2.22284 0
M  V30 1863 H 164.737 4.18066 -3.92293 0
M  V30 1864 H 163.134 3.82075 -4.62751 0
M  V30 1865 H 164.204 2.48552 -4.16353 0
M  V30 1866 N 165.547 1.27147 0.931209 0
M  V30 1867 C 166.772 1.16191 1.71797 0
M  V30 1868 C 167.197 -0.278004 1.86034 0
M  V30 1869 O 166.555 -1.20137 1.35782 0
M  V30 1870 C 166.603 1.84673 3.09723 0
M  V30 1871 O 165.707 1.14231 3.96264 0
M  V30 1872 H 165.048 0.404303 0.526721 0
M  V30 1873 H 167.578 1.68152 1.1656 0
M  V30 1874 H 167.588 1.91893 3.60057 0
M  V30 1875 H 166.263 2.89421 2.98677 0
M  V30 1876 H 164.84 1.15056 3.54706 0
M  V30 1877 N 167.025 -1.13721 1.09112 0
M  V30 1878 C 167.935 -2.22638 0.73957 0
M  V30 1879 C 168.951 -1.72091 -0.257068 0
M  V30 1880 O 170.127 -2.01155 -0.0992154 0
M  V30 1881 C 167.192 -3.46322 0.16191 0
M  V30 1882 C 166.253 -4.11775 1.21408 0
M  V30 1883 C 165.486 -5.29555 0.663891 0
M  V30 1884 O 165.709 -5.68077 -0.514274 0
M  V30 1885 O 164.643 -5.84973 1.41738 0
M  V30 1886 H 168.469 -2.55074 1.64836 0
M  V30 1887 H 166.054 -1.21791 0.865289 0
M  V30 1888 H 167.936 -4.21107 -0.157073 0
M  V30 1889 H 166.611 -3.15593 -0.719932 0
M  V30 1890 H 165.518 -3.3883 1.58571 0
M  V30 1891 H 166.851 -4.46627 2.06845 0
M  V30 1892 N 168.503 -0.877838 -1.30888 0
M  V30 1893 C 169.78 -0.413052 -1.91189 0
M  V30 1894 C 170.16 1.1056 -1.79832 0
M  V30 1895 O 169.508 1.93771 -1.21099 0
M  V30 1896 C 169.718 -0.903191 -3.3711 0
M  V30 1897 C 171.066 -0.93395 -4.14201 0
M  V30 1898 O 172.09 -0.849373 -3.45925 0
M  V30 1899 O 170.949 -1.05772 -5.36167 0
M  V30 1900 H 168.043 -0.125035 -0.817493 0
M  V30 1901 H 170.589 -0.966269 -1.39504 0
M  V30 1902 H 169.361 -1.94692 -3.39427 0
M  V30 1903 H 168.984 -0.328732 -3.96239 0
M  V30 1904 N 169.982 1.44106 -0.638065 0
M  V30 1905 C 171.259 1.95453 -0.0759321 0
M  V30 1906 C 171.639 1.57984 1.40015 0
M  V30 1907 O 170.987 0.857361 2.11806 0
M  V30 1908 C 171.197 3.47655 -0.306132 0
M  V30 1909 C 172.545 4.24114 -0.203008 0
M  V30 1910 O 173.569 3.55405 -0.237871 0
M  V30 1911 O 172.428 5.46381 -0.113827 0
M  V30 1912 H 169.522 0.826797 0.0183332 0
M  V30 1913 H 172.068 1.54122 -0.710251 0
M  V30 1914 H 170.84 3.68 -1.3301 0
M  V30 1915 H 170.463 3.95949 0.361991 0
M  V30 1916 N 171.46 0.379036 1.52974 0
M  V30 1917 C 172.408 -0.476033 2.27677 0
M  V30 1918 C 173.402 -1.0719 1.31174 0
M  V30 1919 O 174.608 -1.01355 1.48752 0
M  V30 1920 H 170.983 -0.172255 0.732006 0
M  V30 1921 H 172.954 0.175615 2.97883 0
M  V30 1922 C 171.703 -1.5967 3.0887 0
M  V30 1923 H 171.026 -1.1475 3.82978 0
M  V30 1924 H 172.466 -2.16943 3.64296 0
M  V30 1925 C 170.925 -2.54682 2.20542 0
M  V30 1926 O 171.455 -3.57836 1.82527 0
M  V30 1927 N 169.661 -2.24183 1.84907 0
M  V30 1928 H 169.208 -1.40333 2.1602 0
M  V30 1929 H 169.166 -2.88006 1.26096 0
M  V30 1930 N 172.938 -1.57226 0.108567 0
M  V30 1931 C 173.888 -2.11305 -0.856396 0
M  V30 1932 C 174.872 -1.03129 -1.23504 0
M  V30 1933 O 176.064 -1.29381 -1.20787 0
M  V30 1934 C 173.193 -2.70771 -2.11041 0
M  V30 1935 C 172.279 -3.86011 -1.7566 0
M  V30 1936 N 172.67 -4.93492 -1.10902 0
M  V30 1937 C 170.968 -3.95999 -2.05185 0
M  V30 1938 C 171.669 -5.73984 -0.944308 0
M  V30 1939 N 170.645 -5.2346 -1.46596 0
M  V30 1940 H 174.447 -2.91784 -0.352002 0
M  V30 1941 H 171.961 -1.62126 -0.0942324 0
M  V30 1942 H 173.958 -3.07851 -2.81128 0
M  V30 1943 H 172.618 -1.91751 -2.62034 0
M  V30 1944 H 173.629 -5.1208 -0.774235 0
M  V30 1945 H 170.306 -3.28007 -2.58298 0
M  V30 1946 H 171.696 -6.70479 -0.436813 0
M  V30 1947 N 174.416 0.165178 -1.56732 0
M  V30 1948 C 175.662 0.882112 -1.82611 0
M  V30 1949 C 175.995 1.81628 -0.687378 0
M  V30 1950 O 175.27 1.92009 0.310267 0
M  V30 1951 C 175.553 1.67245 -3.18906 0
M  V30 1952 C 175.406 0.760987 -4.43316 0
M  V30 1953 C 176.725 2.63884 -3.52212 0
M  V30 1954 H 173.844 0.319242 -0.664269 0
M  V30 1955 H 176.486 0.148052 -1.89422 0
M  V30 1956 H 174.636 2.29824 -3.1323 0
M  V30 1957 H 176.308 0.147596 -4.61064 0
M  V30 1958 H 174.551 0.0694102 -4.33744 0
M  V30 1959 H 175.222 1.34962 -5.35247 0
M  V30 1960 H 177.698 2.11429 -3.58381 0
M  V30 1961 H 176.574 3.16245 -4.48643 0
M  V30 1962 H 176.835 3.44377 -2.77231 0
M  V30 1963 N 175.894 1.51508 0.433938 0
M  V30 1964 C 176.857 1.72473 1.50949 0
M  V30 1965 C 177.857 0.594725 1.49398 0
M  V30 1966 O 179.047 0.862315 1.5136 0
M  V30 1967 C 176.179 1.78431 2.90474 0
M  V30 1968 H 177.372 2.68467 1.33662 0
M  V30 1969 H 174.925 1.41549 0.662836 0
M  V30 1970 H 175.66 0.842645 3.13161 0
M  V30 1971 H 175.445 2.60558 2.93005 0
M  V30 1972 H 176.935 1.96479 3.68491 0
M  V30 1973 N 177.372 -0.689602 1.41712 0
M  V30 1974 C 178.335 -1.78521 1.43746 0
M  V30 1975 C 179.335 -1.57436 0.327191 0
M  V30 1976 O 180.525 -1.64 0.587348 0
M  V30 1977 C 177.657 -3.16971 1.25467 0
M  V30 1978 H 178.85 -1.78108 2.41283 0
M  V30 1979 H 176.403 -0.89781 1.27942 0
M  V30 1980 H 177.138 -3.23019 0.287948 0
M  V30 1981 H 176.923 -3.33678 2.05917 0
M  V30 1982 H 178.413 -3.96935 1.2974 0
M  V30 1983 N 178.85 -1.27639 -0.924453 0
M  V30 1984 C 180.099 -1.13549 -1.66702 0
M  V30 1985 C 180.412 0.317487 -1.93006 0
M  V30 1986 O 181.618 0.579333 -2.65247 0
M  V30 1987 C 180.074 -1.98426 -3.00259 0
M  V30 1988 C 179.682 -3.484 -2.81641 0
M  V30 1989 C 181.426 -1.92993 -3.78092 0
M  V30 1990 C 179.333 -4.25464 -4.10773 0
M  V30 1991 H 178.263 -0.421351 -0.625283 0
M  V30 1992 H 180.914 -1.52085 -1.02676 0
M  V30 1993 H 179.296 -1.52736 -3.6536 0
M  V30 1994 H 180.47 -4.01973 -2.25287 0
M  V30 1995 H 178.785 -3.55245 -2.17232 0
M  V30 1996 H 181.382 -2.47844 -4.7379 0
M  V30 1997 H 181.725 -0.904281 -4.0636 0
M  V30 1998 H 182.258 -2.36595 -3.19793 0
M  V30 1999 H 178.997 -5.28566 -3.87683 0
M  V30 2000 H 178.517 -3.76667 -4.66779 0
M  V30 2001 H 180.196 -4.34812 -4.79111 0
M  V30 2002 N 180.328 1.1314 -1.09713 0
M  V30 2003 C 181.278 2.16709 -0.708593 0
M  V30 2004 C 182.262 1.58471 0.278523 0
M  V30 2005 O 183.454 1.76779 0.088427 0
M  V30 2006 C 180.583 3.43039 -0.133923 0
M  V30 2007 C 179.669 4.08277 -1.14763 0
M  V30 2008 N 180.06 4.48637 -2.33577 0
M  V30 2009 C 178.358 4.34954 -0.986446 0
M  V30 2010 C 179.059 4.9952 -2.98085 0
M  V30 2011 N 178.035 4.94561 -2.25632 0
M  V30 2012 H 181.837 2.45672 -1.61315 0
M  V30 2013 H 179.351 1.29967 -0.973775 0
M  V30 2014 H 181.348 4.16583 0.162465 0
M  V30 2015 H 180.008 3.15549 0.765447 0
M  V30 2016 H 181.019 4.41246 -2.7115 0
M  V30 2017 H 177.696 4.17258 -0.142008 0
M  V30 2018 H 179.086 5.40521 -3.99108 0
M  V30 2019 N 181.806 0.884767 1.30421 0
M  V30 2020 C 183.046 0.509806 1.9794 0
M  V30 2021 C 183.41 -0.923736 1.68319 0
M  V30 2022 O 184.611 -1.40481 2.29169 0
M  V30 2023 C 182.882 0.776732 3.48858 0
M  V30 2024 S 184.441 0.503843 4.35898 0
M  V30 2025 H 181.259 0.189699 0.685227 0
M  V30 2026 H 183.861 1.14399 1.58535 0
M  V30 2027 H 182.565 1.81857 3.67908 0
M  V30 2028 H 182.096 0.1301 3.93185 0
M  V30 2029 H 184.111 -0.657625 4.91823 0
M  V30 2030 N 183.284 -1.43765 0.645699 0
M  V30 2031 C 184.231 -2.30745 -0.0504648 0
M  V30 2032 C 185.201 -1.4432 -0.822241 0
M  V30 2033 O 186.386 -1.73202 -0.800358 0
M  V30 2034 C 183.526 -3.29802 -1.0161 0
M  V30 2035 C 182.639 -4.31326 -0.241219 0
M  V30 2036 C 181.774 -5.17469 -1.19998 0
M  V30 2037 C 180.813 -6.10691 -0.415094 0
M  V30 2038 N 179.95 -6.89483 -1.32506 0
M  V30 2039 H 184.79 -2.8973 0.697155 0
M  V30 2040 H 182.327 -1.42738 0.355563 0
M  V30 2041 H 184.285 -3.85734 -1.58949 0
M  V30 2042 H 182.915 -2.72483 -1.73069 0
M  V30 2043 H 181.967 -3.77749 0.448334 0
M  V30 2044 H 183.279 -4.9743 0.369437 0
M  V30 2045 H 182.433 -5.7799 -1.84424 0
M  V30 2046 H 181.172 -4.51473 -1.84455 0
M  V30 2047 H 180.177 -5.49265 0.242565 0
M  V30 2048 H 181.402 -6.78727 0.224966 0
M  V30 2049 H 179.348 -6.26142 -1.95657 0
M  V30 2050 H 179.265 -7.52081 -0.768783 0
M  V30 2051 H 180.533 -7.54516 -1.9577 0
M  V30 2052 N 184.763 -0.387143 -1.52771 0
M  V30 2053 C 185.726 0.436939 -2.24997 0
M  V30 2054 C 186.726 0.991991 -1.26555 0
M  V30 2055 O 187.916 0.874335 -1.50669 0
M  V30 2056 C 185.048 1.61281 -3.00335 0
M  V30 2057 H 186.241 -0.195365 -2.99263 0
M  V30 2058 H 183.794 -0.139218 -1.55679 0
M  V30 2059 H 184.529 2.2826 -2.30364 0
M  V30 2060 H 184.314 1.22154 -3.72587 0
M  V30 2061 H 185.804 2.19629 -3.5518 0
M  V30 2062 N 186.241 1.57166 -0.116904 0
M  V30 2063 C 187.489 1.94737 0.540533 0
M  V30 2064 C 187.81 1.00096 1.67349 0
M  V30 2065 O 187.08 0.0568854 1.95817 0
M  V30 2066 H 185.66 0.718981 0.202669 0
M  V30 2067 H 188.322 1.94017 -0.185353 0
M  V30 2068 H 187.418 2.97719 0.936483 0
M  V30 2069 N 187.719 -0.156864 1.56817 0
M  V30 2070 C 188.666 -1.19394 1.97519 0
M  V30 2071 C 189.636 -1.4322 0.841265 0
M  V30 2072 O 190.821 -1.55719 1.10255 0
M  V30 2073 C 187.961 -2.52483 2.35258 0
M  V30 2074 C 187.074 -2.35914 3.61896 0
M  V30 2075 C 186.209 -3.61969 3.88782 0
M  V30 2076 C 185.248 -3.40395 5.08722 0
M  V30 2077 N 184.385 -4.58556 5.31668 0
M  V30 2078 H 189.225 -0.839845 2.85921 0
M  V30 2079 H 186.762 -0.403264 1.41464 0
M  V30 2080 H 188.72 -3.30071 2.55165 0
M  V30 2081 H 187.35 -2.85859 1.49949 0
M  V30 2082 H 186.402 -1.49429 3.49821 0
M  V30 2083 H 187.714 -2.15926 4.49641 0
M  V30 2084 H 186.868 -4.47989 4.09135 0
M  V30 2085 H 185.607 -3.84951 2.9944 0
M  V30 2086 H 184.612 -2.52763 4.88253 0
M  V30 2087 H 185.837 -3.18822 5.99608 0
M  V30 2088 H 183.783 -4.81729 4.45279 0
M  V30 2089 H 183.7 -4.41535 6.13664 0
M  V30 2090 H 184.968 -5.45817 5.5651 0
M  V30 2091 N 189.197 -1.51736 -0.425897 0
M  V30 2092 C 190.445 -1.64644 -1.17204 0
M  V30 2093 C 190.766 -0.370486 -1.91448 0
M  V30 2094 O 190.036 0.614088 -1.86026 0
M  V30 2095 H 188.616 -0.606819 -0.435638 0
M  V30 2096 H 191.278 -1.88713 -0.487177 0
M  V30 2097 H 190.374 -2.47958 -1.89534 0
M  V30 2098 N 190.675 0.682077 -1.42076 0
M  V30 2099 C 192.091 0.994324 -1.24841 0
M  V30 2100 C 192.291 2.0096 -0.147389 0
M  V30 2101 O 191.347 2.47822 0.483782 0
M  V30 2102 C 192.66 1.50607 -2.60265 0
M  V30 2103 C 194.208 1.62421 -2.6756 0
M  V30 2104 C 194.683 2.16994 -4.03333 0
M  V30 2105 N 196.174 2.24337 -4.0525 0
M  V30 2106 C 196.909 2.67621 -5.07116 0
M  V30 2107 N 196.405 3.1041 -6.19368 0
M  V30 2108 N 198.198 2.67305 -4.94474 0
M  V30 2109 H 190.349 0.00973908 -2.12398 0
M  V30 2110 H 192.612 0.0668593 -0.945639 0
M  V30 2111 H 192.318 0.834583 -3.41654 0
M  V30 2112 H 192.192 2.48602 -2.83684 0
M  V30 2113 H 194.579 2.28678 -1.86521 0
M  V30 2114 H 194.66 0.629352 -2.47937 0
M  V30 2115 H 194.304 1.51349 -4.84826 0
M  V30 2116 H 194.234 3.17258 -4.20304 0
M  V30 2117 H 196.725 1.94158 -3.24209 0
M  V30 2118 H 197.038 3.42103 -6.92954 0
M  V30 2119 H 195.383 3.08286 -6.22884 0
M  V30 2120 H 198.574 2.33233 -4.05857 0
M  V30 2121 H 198.747 3.00718 -5.73997 0
M  V30 2122 N 192.153 1.28127 0.917671 0
M  V30 2123 C 193.381 1.17892 1.70026 0
M  V30 2124 C 193.796 -0.262958 1.8696 0
M  V30 2125 O 193.153 -1.17811 1.3938 0
M  V30 2126 C 193.204 1.86872 3.09453 0
M  V30 2127 O 192.925 3.25428 2.93306 0
M  V30 2128 C 194.426 1.8289 4.03815 0
M  V30 2129 H 191.646 0.40942 0.531617 0
M  V30 2130 H 194.19 1.69181 1.14883 0
M  V30 2131 H 192.345 1.39464 3.61426 0
M  V30 2132 H 192.759 3.59918 3.81523 0
M  V30 2133 H 194.233 2.35751 4.99125 0
M  V30 2134 H 194.71 0.800412 4.31845 0
M  V30 2135 H 195.316 2.29959 3.57769 0
M  V30 2136 N 193.631 -1.12557 1.10312 0
M  V30 2137 C 194.879 -1.83675 0.843091 0
M  V30 2138 C 195.2 -1.84435 -0.633131 0
M  V30 2139 O 194.47 -1.30657 -1.45964 0
M  V30 2140 H 193.05 -0.680138 0.308904 0
M  V30 2141 H 195.712 -1.36301 1.39313 0
M  V30 2142 H 194.808 -2.87908 1.2048 0
M  V30 2143 N 195.109 -0.891671 -1.2995 0
M  V30 2144 C 196.355 -0.514261 -1.96171 0
M  V30 2145 C 196.688 0.935506 -1.70182 0
M  V30 2146 O 195.963 1.66204 -1.01028 0
M  V30 2147 C 196.246 -0.797719 -3.51153 0
M  V30 2148 C 196.099 -2.2986 -3.86632 0
M  V30 2149 C 197.418 -0.278749 -4.39216 0
M  V30 2150 H 194.537 -0.188314 -0.712535 0
M  V30 2151 H 197.179 -1.11689 -1.53706 0
M  V30 2152 H 195.329 -0.284826 -3.87455 0
M  V30 2153 H 197.001 -2.88042 -3.60319 0
M  V30 2154 H 195.244 -2.76257 -3.34462 0
M  V30 2155 H 195.915 -2.44753 -4.94773 0
M  V30 2156 H 198.391 -0.717825 -4.09862 0
M  V30 2157 H 197.267 -0.506353 -5.46559 0
M  V30 2158 H 197.528 0.820266 -4.34424 0
M  V30 2159 N 196.587 1.43421 -0.653314 0
M  V30 2160 C 197.52 2.2803 0.0879804 0
M  V30 2161 C 198.498 1.39833 0.82979 0
M  V30 2162 O 199.682 1.69275 0.829341 0
M  V30 2163 C 196.809 3.19247 1.13132 0
M  V30 2164 C 195.855 4.23704 0.487546 0
M  V30 2165 S 196.688 5.30377 -0.738961 0
M  V30 2166 C 197.844 6.25162 0.30384 0
M  V30 2167 H 198.077 2.90554 -0.629739 0
M  V30 2168 H 195.61 1.47934 -0.442156 0
M  V30 2169 H 197.568 3.72346 1.72827 0
M  V30 2170 H 196.229 2.55901 1.82136 0
M  V30 2171 H 195.422 4.87631 1.27407 0
M  V30 2172 H 195.024 3.73983 -0.0352915 0
M  V30 2173 H 197.316 6.67321 1.17 0
M  V30 2174 H 198.259 7.07463 -0.300402 0
M  V30 2175 H 198.667 5.60864 0.63969 0
M  V30 2176 N 198.065 0.39524 1.52563 0
M  V30 2177 C 199.314 -0.186321 2.00838 0
M  V30 2178 C 199.627 -1.47402 1.28577 0
M  V30 2179 O 200.833 -2.13599 1.67593 0
M  V30 2180 C 199.289 -0.382595 3.57861 0
M  V30 2181 C 198.897 0.892202 4.39026 0
M  V30 2182 C 200.641 -0.9202 4.14406 0
M  V30 2183 C 198.548 0.66388 5.87662 0
M  V30 2184 H 197.478 -0.0734041 0.750418 0
M  V30 2185 H 200.129 0.518552 1.76021 0
M  V30 2186 H 198.511 -1.14946 3.7895 0
M  V30 2187 H 199.685 1.66414 4.29701 0
M  V30 2188 H 198 1.35519 3.9373 0
M  V30 2189 H 200.597 -1.10683 5.23119 0
M  V30 2190 H 200.94 -1.89096 3.70875 0
M  V30 2191 H 201.473 -0.212751 3.97231 0
M  V30 2192 H 198.212 1.6058 6.35527 0
M  V30 2193 H 197.732 -0.0690193 5.9976 0
M  V30 2194 H 199.411 0.300699 6.46301 0
M  V30 2195 N 199.544 -1.57102 0.125237 0
M  V30 2196 C 200.784 -1.97294 -0.534259 0
M  V30 2197 C 201.148 -1.0074 -1.63449 0
M  V30 2198 O 202.349 -1.29893 -2.35332 0
M  V30 2199 C 200.62 -3.41705 -1.04748 0
M  V30 2200 S 202.179 -4.03913 -1.71463 0
M  V30 2201 H 198.997 -0.689517 -0.173458 0
M  V30 2202 H 201.599 -1.94349 0.211797 0
M  V30 2203 H 200.303 -4.09723 -0.235649 0
M  V30 2204 H 199.834 -3.48315 -1.82867 0
M  V30 2205 H 201.849 -3.95182 -3.00077 0
M  V30 2206 N 201.022 0.148545 -1.56898 0
M  V30 2207 C 201.985 1.16736 -1.97244 0
M  V30 2208 C 202.985 1.35947 -0.858777 0
M  V30 2209 O 204.175 1.32966 -1.12542 0
M  V30 2210 C 201.307 2.52798 -2.28705 0
M  V30 2211 H 202.5 0.821279 -2.88435 0
M  V30 2212 H 200.053 0.391831 -1.51309 0
M  V30 2213 H 200.788 2.92381 -1.403 0
M  V30 2214 H 200.573 2.40216 -3.09901 0
M  V30 2215 H 202.063 3.26179 -2.60762 0
M  V30 2216 N 202.5 1.5196 0.417844 0
M  V30 2217 C 203.73 1.69181 1.18581 0
M  V30 2218 C 204.138 0.397104 1.84986 0
M  V30 2219 O 203.481 -0.636011 1.72339 0
M  V30 2220 C 203.543 2.76497 2.29759 0
M  V30 2221 C 203.207 4.18514 1.83563 0
M  V30 2222 C 204.204 5.02648 1.32821 0
M  V30 2223 C 201.889 4.64708 1.90661 0
M  V30 2224 C 203.883 6.31044 0.897894 0
M  V30 2225 C 201.57 5.93096 1.47241 0
M  V30 2226 C 202.568 6.76093 0.968891 0
M  V30 2227 O 202.256 8.02078 0.540924 0
M  V30 2228 H 201.988 0.570457 0.362705 0
M  V30 2229 H 204.542 1.99249 0.498885 0
M  V30 2230 H 202.772 2.41786 3.01789 0
M  V30 2231 H 204.461 2.82403 2.91553 0
M  V30 2232 H 205.227 4.68154 1.26716 0
M  V30 2233 H 201.106 4.00216 2.28797 0
M  V30 2234 H 204.65 6.95776 0.504192 0
M  V30 2235 H 200.547 6.271 1.53022 0
M  V30 2236 H 201.315 8.15794 0.66502 0
M  V30 2237 N 203.978 -0.674533 1.42435 0
M  V30 2238 C 204.908 -1.80009 1.48724 0
M  V30 2239 C 205.889 -1.6659 0.343793 0
M  V30 2240 O 207.074 -1.86007 0.558137 0
M  V30 2241 C 204.204 -3.18306 1.38919 0
M  V30 2242 C 203.158 -3.46461 2.51294 0
M  V30 2243 C 202.484 -4.84335 2.26547 0
M  V30 2244 C 203.784 -3.43328 3.93603 0
M  V30 2245 H 205.478 -1.75004 2.42928 0
M  V30 2246 H 203.024 -0.840533 1.16923 0
M  V30 2247 H 204.977 -3.9678 1.41927 0
M  V30 2248 H 203.701 -3.2399 0.412094 0
M  V30 2249 H 202.36 -2.70348 2.47604 0
M  V30 2250 H 202.008 -4.86669 1.2713 0
M  V30 2251 H 201.708 -5.04136 3.01861 0
M  V30 2252 H 203.232 -5.65094 2.31304 0
M  V30 2253 H 204.646 -4.11772 3.98894 0
M  V30 2254 H 203.043 -3.74664 4.68771 0
M  V30 2255 H 204.113 -2.41897 4.20255 0
M  V30 2256 N 205.456 -1.28612 -0.910864 0
M  V30 2257 C 206.386 -1.15326 -2.03032 0
M  V30 2258 C 207.367 -0.0502924 -1.70026 0
M  V30 2259 O 208.552 -0.227797 -1.92859 0
M  V30 2260 C 205.682 -0.817343 -3.37545 0
M  V30 2261 C 204.636 -1.8754 -3.84724 0
M  V30 2262 C 203.962 -1.39305 -5.16235 0
M  V30 2263 C 205.262 -3.28244 -4.06267 0
M  V30 2264 H 206.956 -2.08975 -2.14406 0
M  V30 2265 H 204.502 -1.00612 -1.03021 0
M  V30 2266 H 206.455 -0.711151 -4.15356 0
M  V30 2267 H 205.179 0.154846 -3.26233 0
M  V30 2268 H 203.838 -1.97079 -3.09121 0
M  V30 2269 H 203.486 -0.409846 -5.01328 0
M  V30 2270 H 203.186 -2.10057 -5.48771 0
M  V30 2271 H 204.71 -1.30014 -5.96598 0
M  V30 2272 H 206.124 -3.21611 -4.74594 0
M  V30 2273 H 204.521 -3.96855 -4.5014 0
M  V30 2274 H 205.591 -3.72048 -3.10979 0
M  V30 2275 N 206.934 1.1197 -1.10907 0
M  V30 2276 C 207.884 2.15946 -0.731538 0
M  V30 2277 C 208.868 1.58758 0.261699 0
M  V30 2278 O 210.06 1.76863 0.0696722 0
M  V30 2279 C 207.189 3.42877 -0.170299 0
M  V30 2280 C 206.275 4.07037 -1.19087 0
M  V30 2281 N 206.666 4.46135 -2.38322 0
M  V30 2282 C 204.964 4.33884 -1.03252 0
M  V30 2283 C 205.665 4.96331 -3.03366 0
M  V30 2284 N 204.641 4.9214 -2.30865 0
M  V30 2285 H 208.443 2.43947 -1.63912 0
M  V30 2286 H 205.957 1.28927 -0.987505 0
M  V30 2287 H 207.954 4.16732 0.118271 0
M  V30 2288 H 206.614 3.16343 0.731935 0
M  V30 2289 H 207.625 4.38345 -2.75815 0
M  V30 2290 H 204.302 4.17084 -0.186256 0
M  V30 2291 H 205.692 5.36257 -4.04818 0
M  V30 2292 N 208.412 0.89855 1.29475 0
M  V30 2293 C 209.828 0.594483 1.48115 0
M  V30 2294 C 210.028 -0.86431 1.82022 0
M  V30 2295 O 209.084 -1.64457 1.91599 0
M  V30 2296 C 210.397 1.51932 2.59494 0
M  V30 2297 C 211.945 1.5244 2.7337 0
M  V30 2298 C 212.42 2.43548 3.87877 0
M  V30 2299 N 213.911 2.41589 3.95208 0
M  V30 2300 C 214.646 3.08789 4.83153 0
M  V30 2301 N 214.142 3.85265 5.75798 0
M  V30 2302 N 215.935 2.97952 4.76635 0
M  V30 2303 H 208.086 1.84207 1.05742 0
M  V30 2304 H 210.349 0.789251 0.525154 0
M  V30 2305 H 210.055 2.55865 2.41301 0
M  V30 2306 H 209.929 1.23899 3.56271 0
M  V30 2307 H 212.316 0.492518 2.90961 0
M  V30 2308 H 212.397 1.8451 1.77172 0
M  V30 2309 H 212.041 3.46829 3.71041 0
M  V30 2310 H 211.971 2.08788 4.83441 0
M  V30 2311 H 214.462 1.86025 3.28943 0
M  V30 2312 H 214.775 4.33598 6.39697 0
M  V30 2313 H 213.12 3.89371 5.75687 0
M  V30 2314 H 216.311 2.37723 4.03244 0
M  V30 2315 H 216.484 3.50599 5.44962 0
M  V30 2316 N 209.89 -1.43072 0.660911 0
M  V30 2317 C 211.138 -2.01323 0.177094 0
M  V30 2318 C 211.459 -1.5245 -1.2159 0
M  V30 2319 O 210.729 -0.740322 -1.81373 0
M  V30 2320 H 209.309 -0.744382 0.0624804 0
M  V30 2321 H 211.971 -1.75179 0.854305 0
M  V30 2322 H 211.067 -3.11649 0.167641 0
M  V30 2323 N 211.368 -0.403325 -1.52352 0
M  V30 2324 C 212.315 0.425011 -2.26853 0
M  V30 2325 C 213.285 1.04598 -1.29029 0
M  V30 2326 O 214.47 1.07135 -1.57882 0
M  V30 2327 C 211.61 1.53888 -3.08889 0
M  V30 2328 C 210.723 0.939396 -4.21663 0
M  V30 2329 C 209.858 2.02547 -4.91068 0
M  V30 2330 C 208.897 1.40263 -5.95813 0
M  V30 2331 N 208.034 2.4286 -6.58759 0
M  V30 2332 H 212.874 -0.21674 -2.97211 0
M  V30 2333 H 210.411 -0.118722 -1.4662 0
M  V30 2334 H 212.369 2.19558 -3.54753 0
M  V30 2335 H 210.999 2.15074 -2.40714 0
M  V30 2336 H 210.051 0.171898 -3.80011 0
M  V30 2337 H 211.363 0.44436 -4.96817 0
M  V30 2338 H 210.517 2.75958 -5.40308 0
M  V30 2339 H 209.256 2.55415 -4.15469 0
M  V30 2340 H 208.261 0.653833 -5.45898 0
M  V30 2341 H 209.486 0.881719 -6.73352 0
M  V30 2342 H 207.432 2.94871 -5.85992 0
M  V30 2343 H 207.349 1.98152 -7.2957 0
M  V30 2344 H 208.617 3.15858 -7.12639 0
M  V30 2345 N 212.846 1.57033 -0.133567 0
M  V30 2346 C 214.093 1.95686 0.520877 0
M  V30 2347 C 214.421 1.0177 1.6575 0
M  V30 2348 O 213.676 0.0443195 1.9565 0
M  V30 2349 C 213.975 3.40674 1.08057 0
M  V30 2350 C 213.641 4.50855 0.0637899 0
M  V30 2351 C 212.303 4.80716 -0.215757 0
M  V30 2352 C 214.655 5.17398 -0.62835 0
M  V30 2353 C 211.983 5.74433 -1.19348 0
M  V30 2354 C 214.335 6.12167 -1.5948 0
M  V30 2355 C 212.999 6.40414 -1.88218 0
M  V30 2356 H 212.269 0.716067 0.190602 0
M  V30 2357 H 214.916 1.9026 -0.217556 0
M  V30 2358 H 213.221 3.42865 1.89606 0
M  V30 2359 H 214.918 3.67902 1.59529 0
M  V30 2360 H 211.508 4.27605 0.291855 0
M  V30 2361 H 215.692 4.94472 -0.425562 0
M  V30 2362 H 210.948 5.94616 -1.42272 0
M  V30 2363 H 215.122 6.6281 -2.13671 0
M  V30 2364 H 212.749 7.12838 -2.64133 0
M  V30 2365 N 214.325 -0.140222 1.56975 0
M  V30 2366 C 215.255 -1.17456 2.01808 0
M  V30 2367 C 216.236 -1.44415 0.898794 0
M  V30 2368 O 217.421 -1.5522 1.16707 0
M  V30 2369 C 214.551 -2.50607 2.40444 0
M  V30 2370 C 213.505 -2.38155 3.55621 0
M  V30 2371 C 212.831 -3.76078 3.80091 0
M  V30 2372 C 214.131 -1.85991 4.88062 0
M  V30 2373 H 215.825 -0.801743 2.88466 0
M  V30 2374 H 213.371 -0.38422 1.38779 0
M  V30 2375 H 215.324 -3.23197 2.7041 0
M  V30 2376 H 214.048 -2.89737 1.50732 0
M  V30 2377 H 212.707 -1.68016 3.25832 0
M  V30 2378 H 212.355 -4.12656 2.87618 0
M  V30 2379 H 212.055 -3.68606 4.57606 0
M  V30 2380 H 213.579 -4.50206 4.12488 0
M  V30 2381 H 214.993 -2.4838 5.16701 0
M  V30 2382 H 213.39 -1.89393 5.6943 0
M  V30 2383 H 214.46 -0.816023 4.77984 0
M  V30 2384 N 215.803 -1.52179 -0.40978 0
M  V30 2385 C 216.75 -1.75475 -1.49924 0
M  V30 2386 C 217.72 -0.597175 -1.54994 0
M  V30 2387 O 218.905 -0.834655 -1.71575 0
M  V30 2388 C 216.045 -1.9107 -2.87378 0
M  V30 2389 C 215.158 -3.18717 -2.91622 0
M  V30 2390 C 214.293 -3.24747 -4.20372 0
M  V30 2391 C 213.332 -4.46598 -4.18588 0
M  V30 2392 N 212.469 -4.50025 -5.38908 0
M  V30 2393 H 217.309 -2.68458 -1.29361 0
M  V30 2394 H 214.846 -1.33024 -0.627934 0
M  V30 2395 H 216.804 -1.98096 -3.6717 0
M  V30 2396 H 215.434 -1.01469 -3.06437 0
M  V30 2397 H 214.486 -3.20866 -2.04326 0
M  V30 2398 H 215.798 -4.08544 -2.86169 0
M  V30 2399 H 214.952 -3.30841 -5.08556 0
M  V30 2400 H 213.691 -2.32857 -4.28519 0
M  V30 2401 H 212.696 -4.40652 -3.28794 0
M  V30 2402 H 213.921 -5.39783 -4.12081 0
M  V30 2403 H 211.867 -3.61017 -5.47725 0
M  V30 2404 H 211.784 -5.33697 -5.35447 0
M  V30 2405 H 213.052 -4.60347 -6.29048 0
M  V30 2406 N 217.281 0.66697 -1.42791 0
M  V30 2407 C 218.244 1.76211 -1.46568 0
M  V30 2408 C 219.244 1.56896 -0.352196 0
M  V30 2409 O 220.434 1.63044 -0.613364 0
M  V30 2410 C 217.566 3.14935 -1.30494 0
M  V30 2411 H 218.759 1.74247 -2.44086 0
M  V30 2412 H 216.312 0.877342 -1.29354 0
M  V30 2413 H 217.047 3.2252 -0.339301 0
M  V30 2414 H 216.832 3.30359 -2.11199 0
M  V30 2415 H 218.322 3.94821 -1.36038 0
M  V30 2416 N 218.759 1.29093 0.90403 0
M  V30 2417 C 219.691 1.09658 2.01266 0
M  V30 2418 C 220.704 0.0453729 1.62737 0
M  V30 2419 O 221.893 0.289446 1.76138 0
M  V30 2420 C 218.993 0.646278 3.32681 0
M  V30 2421 C 218.166 1.77505 3.99763 0
M  V30 2422 C 217.225 1.31649 5.09465 0
M  V30 2423 O 216.251 2.02045 5.32134 0
M  V30 2424 N 217.453 0.184997 5.80205 0
M  V30 2425 H 220.218 2.05135 2.18494 0
M  V30 2426 H 217.779 1.20975 1.07594 0
M  V30 2427 H 219.771 0.322906 4.0341 0
M  V30 2428 H 218.341 -0.215916 3.11853 0
M  V30 2429 H 217.561 2.26752 3.22455 0
M  V30 2430 H 218.849 2.53198 4.41325 0
M  V30 2431 H 218.247 -0.402021 5.6427 0
M  V30 2432 H 216.804 -0.0790358 6.51752 0
M  V30 2433 N 220.237 -1.11381 1.11499 0
M  V30 2434 C 221.147 -2.21019 0.786628 0
M  V30 2435 C 222.163 -1.72597 -0.220507 0
M  V30 2436 O 223.339 -2.01321 -0.0565251 0
M  V30 2437 C 220.404 -3.459 0.235333 0
M  V30 2438 C 219.465 -4.09107 1.30115 0
M  V30 2439 C 218.698 -5.28027 0.776068 0
M  V30 2440 O 218.921 -5.6904 -0.393661 0
M  V30 2441 O 217.855 -5.81835 1.54114 0
M  V30 2442 H 221.681 -2.51521 1.70209 0
M  V30 2443 H 219.266 -1.19928 0.890928 0
M  V30 2444 H 221.148 -4.21346 -0.067715 0
M  V30 2445 H 219.823 -3.17049 -0.652828 0
M  V30 2446 H 218.73 -3.35391 1.65722 0
M  V30 2447 H 220.063 -4.42139 2.16273 0
M  V30 2448 N 221.715 -0.905404 -1.28997 0
M  V30 2449 C 222.678 -0.392253 -2.25819 0
M  V30 2450 C 223.678 0.476753 -1.5357 0
M  V30 2451 O 224.868 0.280994 -1.71919 0
M  V30 2452 C 222 0.438588 -3.38067 0
M  V30 2453 H 223.193 -1.24743 -2.72725 0
M  V30 2454 H 220.746 -0.684051 -1.40536 0
M  V30 2455 H 221.481 1.31352 -2.96508 0
M  V30 2456 H 221.266 -0.184167 -3.91667 0
M  V30 2457 H 222.756 0.78873 -4.10084 0
M  V30 2458 N 223.193 1.4272 -0.668489 0
M  V30 2459 C 224.123 2.335 -0.000100175 0
M  V30 2460 C 225.104 1.50328 0.795964 0
M  V30 2461 O 226.289 1.78949 0.754385 0
M  V30 2462 C 223.419 3.33874 0.956302 0
M  V30 2463 C 222.373 4.27152 0.269278 0
M  V30 2464 C 221.699 5.17684 1.33818 0
M  V30 2465 C 222.999 5.15373 -0.847805 0
M  V30 2466 H 224.693 2.89639 -0.758244 0
M  V30 2467 H 222.239 1.39269 -0.366079 0
M  V30 2468 H 224.192 3.9629 1.43292 0
M  V30 2469 H 222.916 2.76025 1.74579 0
M  V30 2470 H 221.575 3.66123 -0.187042 0
M  V30 2471 H 221.223 4.56165 2.1195 0
M  V30 2472 H 220.923 5.80918 0.883659 0
M  V30 2473 H 222.447 5.82974 1.81586 0
M  V30 2474 H 223.861 5.7151 -0.452681 0
M  V30 2475 H 222.258 5.87407 -1.22773 0
M  V30 2476 H 223.328 4.5415 -1.69929 0
M  V30 2477 N 224.671 0.411399 1.52136 0
M  V30 2478 C 225.948 -0.222308 1.94333 0
M  V30 2479 C 226.328 -1.6242 1.34844 0
M  V30 2480 O 225.676 -2.22384 0.525145 0
M  V30 2481 C 225.886 -0.226345 3.48265 0
M  V30 2482 C 227.234 -0.444592 4.22266 0
M  V30 2483 O 228.258 -0.305602 3.54887 0
M  V30 2484 O 227.117 -0.718749 5.41753 0
M  V30 2485 H 224.211 -0.143907 0.814383 0
M  V30 2486 H 226.757 0.467506 1.63133 0
M  V30 2487 H 225.529 0.75475 3.83952 0
M  V30 2488 H 225.152 -0.960163 3.85832 0
M  V30 2489 N 226.149 -1.5696 0.141893 0
M  V30 2490 C 227.396 -1.9596 -0.510492 0
M  V30 2491 C 227.724 -1.02648 -1.65208 0
M  V30 2492 O 226.979 -0.0546947 -1.95624 0
M  V30 2493 C 227.278 -3.41242 -1.06249 0
M  V30 2494 C 226.944 -4.50882 -0.0398791 0
M  V30 2495 C 225.606 -4.80595 0.241247 0
M  V30 2496 C 227.958 -5.17058 0.65578 0
M  V30 2497 C 225.286 -5.73792 1.22393 0
M  V30 2498 C 227.638 -6.11313 1.62724 0
M  V30 2499 C 226.302 -6.39407 1.91612 0
M  V30 2500 H 225.572 -0.717068 -0.186802 0
M  V30 2501 H 228.219 -1.90142 0.227643 0
M  V30 2502 H 226.524 -3.43866 -1.87785 0
M  V30 2503 H 228.221 -3.68742 -1.57576 0
M  V30 2504 H 224.811 -4.27754 -0.269174 0
M  V30 2505 H 228.995 -4.94239 0.451779 0
M  V30 2506 H 224.251 -5.93853 1.45424 0
M  V30 2507 H 228.425 -6.61668 2.17183 0
M  V30 2508 H 226.052 -7.11427 2.6791 0
M  V30 2509 N 227.627 0.131896 -1.57047 0
M  V30 2510 C 228.857 0.855219 -1.88068 0
M  V30 2511 C 229.265 1.74557 -0.729817 0
M  V30 2512 O 228.608 1.81083 0.308962 0
M  V30 2513 C 228.67 1.75119 -3.13964 0
M  V30 2514 C 228.334 1.03646 -4.45091 0
M  V30 2515 C 229.331 0.383276 -5.18485 0
M  V30 2516 C 227.016 1.02148 -4.91804 0
M  V30 2517 C 229.01 -0.275347 -6.36805 0
M  V30 2518 C 226.697 0.359047 -6.10044 0
M  V30 2519 C 227.695 -0.288222 -6.82392 0
M  V30 2520 O 227.383 -0.94011 -7.98384 0
M  V30 2521 H 227.115 0.251864 -0.627328 0
M  V30 2522 H 229.669 0.124782 -2.05021 0
M  V30 2523 H 227.899 2.52295 -2.9306 0
M  V30 2524 H 229.588 2.3478 -3.31109 0
M  V30 2525 H 230.354 0.386562 -4.83457 0
M  V30 2526 H 226.233 1.5147 -4.35405 0
M  V30 2527 H 229.777 -0.781148 -6.93213 0
M  V30 2528 H 225.674 0.35348 -6.44531 0
M  V30 2529 H 226.442 -0.84329 -8.14144 0
M  V30 2530 N 229.106 1.52395 0.401703 0
M  V30 2531 C 230.354 1.66488 1.14569 0
M  V30 2532 C 230.675 0.400897 1.90835 0
M  V30 2533 O 229.945 -0.584415 1.8698 0
M  V30 2534 H 228.525 0.613672 0.425929 0
M  V30 2535 H 231.187 1.89464 0.457093 0
M  V30 2536 H 230.283 2.50942 1.85566 0
M  V30 2537 N 230.584 -0.659388 1.43143 0
M  V30 2538 C 231.494 -1.80167 1.50256 0
M  V30 2539 C 232.51 -1.69571 0.390106 0
M  V30 2540 O 233.686 -1.90849 0.643319 0
M  V30 2541 C 230.751 -3.16409 1.41725 0
M  V30 2542 C 229.812 -3.38848 2.63591 0
M  V30 2543 C 229.045 -4.68591 2.55458 0
M  V30 2544 O 229.268 -5.47532 1.59891 0
M  V30 2545 O 228.202 -4.92614 3.45854 0
M  V30 2546 H 232.028 -1.77121 2.46702 0
M  V30 2547 H 229.613 -0.817092 1.25076 0
M  V30 2548 H 231.495 -3.9768 1.39387 0
M  V30 2549 H 230.17 -3.20059 0.484118 0
M  V30 2550 H 229.077 -2.57366 2.71502 0
M  V30 2551 H 230.41 -3.4004 3.55856 0
M  V30 2552 N 232.062 -1.29571 -0.897171 0
M  V30 2553 C 233.308 -1.17863 -1.65034 0
M  V30 2554 C 233.641 0.268729 -1.92332 0
M  V30 2555 O 232.916 1.19378 -1.53555 0
M  V30 2556 C 233.199 -1.995 -2.99786 0
M  V30 2557 C 233.052 -3.5239 -2.79538 0
M  V30 2558 C 234.371 -1.82335 -4.00552 0
M  V30 2559 H 231.49 -0.429528 -0.598895 0
M  V30 2560 H 234.132 -1.59072 -1.03905 0
M  V30 2561 H 232.282 -1.64485 -3.51962 0
M  V30 2562 H 233.954 -3.97401 -2.34244 0
M  V30 2563 H 232.197 -3.77187 -2.14273 0
M  V30 2564 H 232.868 -4.04787 -3.75302 0
M  V30 2565 H 235.344 -2.12924 -3.57495 0
M  V30 2566 H 234.22 -2.41801 -4.92771 0
M  V30 2567 H 234.481 -0.779209 -4.35179 0
M  V30 2568 N 233.54 1.10788 -1.12088 0
M  V30 2569 C 234.956 1.34691 -0.856186 0
M  V30 2570 C 235.156 1.94791 0.515615 0
M  V30 2571 O 234.212 2.18524 1.26505 0
M  V30 2572 C 235.525 2.27208 -1.9697 0
M  V30 2573 C 237.073 2.40755 -2.00016 0
M  V30 2574 C 237.548 3.36598 -3.1059 0
M  V30 2575 N 239.039 3.44164 -3.10008 0
M  V30 2576 C 239.774 4.18284 -3.92206 0
M  V30 2577 N 239.27 4.95322 -4.84384 0
M  V30 2578 N 241.063 4.13865 -3.80357 0
M  V30 2579 H 233.214 0.70144 -2.00483 0
M  V30 2580 H 235.477 0.371405 -0.872217 0
M  V30 2581 H 235.183 1.90251 -2.958 0
M  V30 2582 H 235.057 3.27485 -1.87172 0
M  V30 2583 H 237.444 2.76982 -1.01808 0
M  V30 2584 H 237.525 1.40305 -2.13888 0
M  V30 2585 H 237.169 3.01096 -4.09028 0
M  V30 2586 H 237.099 4.36918 -2.93956 0
M  V30 2587 H 239.59 2.8922 -2.43228 0
M  V30 2588 H 239.903 5.49267 -5.43623 0
M  V30 2589 H 238.248 4.94459 -4.884 0
M  V30 2590 H 241.439 3.52773 -3.07683 0
M  V30 2591 H 241.612 4.71372 -4.44649 0
M  V30 2592 N 235.018 0.912232 1.28515 0
M  V30 2593 C 236.246 0.560416 1.99166 0
M  V30 2594 C 236.661 -0.857927 1.68182 0
M  V30 2595 O 236.018 -1.56805 0.933733 0
M  V30 2596 C 236.069 0.758142 3.53461 0
M  V30 2597 O 235.79 2.12067 3.83352 0
M  V30 2598 C 237.291 0.412954 4.41372 0
M  V30 2599 H 234.511 0.213805 0.636026 0
M  V30 2600 H 237.055 1.22502 1.63749 0
M  V30 2601 H 235.21 0.140556 3.87145 0
M  V30 2602 H 235.624 2.15923 4.77993 0
M  V30 2603 H 237.098 0.60208 5.48707 0
M  V30 2604 H 237.575 -0.65073 4.34353 0
M  V30 2605 H 238.181 1.00802 4.13182 0
M  V30 2606 N 236.496 -1.42363 0.676048 0
M  V30 2607 C 237.912 -1.55811 0.345718 0
M  V30 2608 C 238.112 -1.65544 -1.14879 0
M  V30 2609 O 237.168 -1.62306 -1.93424 0
M  V30 2610 C 238.481 -2.80746 1.07713 0
M  V30 2611 C 240.029 -2.9452 1.05958 0
M  V30 2612 C 240.504 -4.22318 1.77233 0
M  V30 2613 N 241.995 -4.29233 1.74108 0
M  V30 2614 C 242.73 -5.26935 2.26113 0
M  V30 2615 N 242.226 -6.30783 2.86505 0
M  V30 2616 N 244.019 -5.18741 2.1648 0
M  V30 2617 H 236.17 -1.34289 1.6456 0
M  V30 2618 H 238.433 -0.646506 0.69335 0
M  V30 2619 H 238.139 -2.79696 2.13221 0
M  V30 2620 H 238.013 -3.71676 0.64316 0
M  V30 2621 H 240.4 -2.95097 0.0128255 0
M  V30 2622 H 240.481 -2.04817 1.53244 0
M  V30 2623 H 240.125 -4.22502 2.81877 0
M  V30 2624 H 240.055 -5.10958 1.27396 0
M  V30 2625 H 242.546 -3.54814 1.30059 0
M  V30 2626 H 242.859 -7.01691 3.23805 0
M  V30 2627 H 241.204 -6.31341 2.90575 0
M  V30 2628 H 244.395 -4.36533 1.68987 0
M  V30 2629 H 244.568 -5.94721 2.57316 0
M  V30 2630 N 237.974 -0.419461 -1.51915 0
M  V30 2631 C 239.251 0.211999 -1.94448 0
M  V30 2632 C 239.631 1.61703 -1.35703 0
M  V30 2633 O 238.979 2.22102 -0.536931 0
M  V30 2634 C 239.189 0.207872 -3.4838 0
M  V30 2635 C 240.537 0.422192 -4.22496 0
M  V30 2636 O 241.561 0.286778 -3.55044 0
M  V30 2637 O 240.42 0.690009 -5.42126 0
M  V30 2638 H 237.514 0.139586 -0.815135 0
M  V30 2639 H 240.06 -0.476151 -1.62883 0
M  V30 2640 H 238.832 -0.775102 -3.83546 0
M  V30 2641 H 238.455 0.939688 -3.86336 0
M  V30 2642 N 239.452 1.56882 -0.150215 0
M  V30 2643 C 240.399 2.16922 0.788244 0
M  V30 2644 C 241.369 1.10303 1.24187 0
M  V30 2645 O 242.554 1.38359 1.31383 0
M  V30 2646 C 239.694 2.79754 2.02068 0
M  V30 2647 C 238.807 4.00775 1.61257 0
M  V30 2648 C 237.942 4.51595 2.79705 0
M  V30 2649 C 236.981 5.65074 2.35282 0
M  V30 2650 N 236.118 6.10499 3.4675 0
M  V30 2651 H 240.958 2.96779 0.269444 0
M  V30 2652 H 238.495 1.46599 0.12128 0
M  V30 2653 H 240.453 3.14329 2.74323 0
M  V30 2654 H 239.083 2.02536 2.51354 0
M  V30 2655 H 238.135 3.72158 0.787553 0
M  V30 2656 H 239.447 4.82978 1.24633 0
M  V30 2657 H 238.601 4.88242 3.60145 0
M  V30 2658 H 237.34 3.68406 3.19576 0
M  V30 2659 H 236.345 5.28 1.53283 0
M  V30 2660 H 237.57 6.50052 1.96493 0
M  V30 2661 H 235.516 5.30243 3.86236 0
M  V30 2662 H 235.433 6.87637 3.14152 0
M  V30 2663 H 236.701 6.51791 4.27537 0
M  V30 2664 N 240.93 -0.123565 1.57115 0
M  V30 2665 C 241.877 -1.15177 2.00007 0
M  V30 2666 C 242.847 -1.41403 0.871454 0
M  V30 2667 O 244.032 -1.53346 1.13533 0
M  V30 2668 C 241.172 -2.47436 2.40561 0
M  V30 2669 C 240.285 -2.28184 3.66819 0
M  V30 2670 C 239.42 -3.53641 3.96373 0
M  V30 2671 C 238.459 -3.29528 5.15827 0
M  V30 2672 N 237.596 -4.47175 5.41275 0
M  V30 2673 H 242.436 -0.779008 2.87638 0
M  V30 2674 H 239.973 -0.373166 1.42288 0
M  V30 2675 H 241.931 -3.24584 2.62109 0
M  V30 2676 H 240.561 -2.82614 1.55978 0
M  V30 2677 H 239.613 -1.41976 3.52912 0
M  V30 2678 H 240.925 -2.0634 4.5412 0
M  V30 2679 H 240.079 -4.39209 4.18545 0
M  V30 2680 H 238.818 -3.78512 3.07538 0
M  V30 2681 H 237.823 -2.42349 4.93505 0
M  V30 2682 H 239.048 -3.06031 6.06236 0
M  V30 2683 H 236.994 -4.72175 4.55397 0
M  V30 2684 H 236.911 -4.28419 6.22891 0
M  V30 2685 H 238.179 -5.3389 5.67963 0
M  V30 2686 N 242.408 -1.52605 -0.393616 0
M  V30 2687 C 243.656 -1.67093 -1.13685 0
M  V30 2688 C 243.977 -0.411011 -1.90619 0
M  V30 2689 O 243.247 0.574491 -1.87287 0
M  V30 2690 H 241.827 -0.615923 -0.422668 0
M  V30 2691 H 244.489 -1.89704 -0.447039 0
M  V30 2692 H 243.585 -2.51922 -1.84232 0
M  V30 2693 N 243.887 0.651787 -1.4349 0
M  V30 2694 C 245.133 1.41376 -1.45398 0
M  V30 2695 C 245.466 1.94041 -0.0784823 0
M  V30 2696 O 244.741 1.72379 0.900878 0
M  V30 2697 C 245.024 2.59414 -2.49752 0
M  V30 2698 C 244.877 2.12232 -3.96582 0
M  V30 2699 C 246.196 3.61626 -2.50827 0
M  V30 2700 H 243.315 0.512719 -0.529422 0
M  V30 2701 H 245.957 0.738796 -1.75048 0
M  V30 2702 H 244.107 3.16997 -2.246 0
M  V30 2703 H 245.779 1.59639 -4.32797 0
M  V30 2704 H 244.022 1.43592 -4.09346 0
M  V30 2705 H 244.693 2.9712 -4.65214 0
M  V30 2706 H 247.169 3.13805 -2.7325 0
M  V30 2707 H 246.045 4.41766 -3.25783 0
M  V30 2708 H 246.306 4.14314 -1.5426 0
M  V30 2709 N 245.365 1.30045 0.890287 0
M  V30 2710 C 246.593 1.21472 1.67487 0
M  V30 2711 C 247.008 -0.223241 1.87476 0
M  V30 2712 O 246.365 -1.14828 1.41847 0
M  V30 2713 C 246.416 1.93394 3.05419 0
M  V30 2714 O 246.137 3.31576 2.86337 0
M  V30 2715 C 247.638 1.91414 3.99844 0
M  V30 2716 H 244.858 0.420604 0.522813 0
M  V30 2717 H 247.402 1.7158 1.11268 0
M  V30 2718 H 245.557 1.47099 3.58386 0
M  V30 2719 H 245.971 3.67929 3.73802 0
M  V30 2720 H 247.445 2.46285 4.94012 0
M  V30 2721 H 247.922 0.891833 4.3005 0
M  V30 2722 H 248.528 2.37496 3.52811 0
M  V30 2723 N 246.843 -1.10192 1.12674 0
M  V30 2724 C 248.092 -1.81573 0.8783 0
M  V30 2725 C 248.405 -1.86249 -0.597557 0
M  V30 2726 O 249.611 -2.5386 -0.962681 0
M  V30 2727 C 248.067 -3.26149 1.52167 0
M  V30 2728 C 247.675 -3.29763 3.03249 0
M  V30 2729 C 249.419 -4.0234 1.3536 0
M  V30 2730 C 247.326 -4.68815 3.60508 0
M  V30 2731 H 246.256 -0.680394 0.324931 0
M  V30 2732 H 248.907 -1.23902 1.35353 0
M  V30 2733 H 247.289 -3.83832 0.974104 0
M  V30 2734 H 248.463 -2.8189 3.6452 0
M  V30 2735 H 246.778 -2.67059 3.19481 0
M  V30 2736 H 249.375 -5.05058 1.75559 0
M  V30 2737 H 249.718 -4.15235 0.297554 0
M  V30 2738 H 250.251 -3.51079 1.87052 0
M  V30 2739 H 246.99 -4.61121 4.65884 0
M  V30 2740 H 246.51 -5.17045 3.04014 0
M  V30 2741 H 248.189 -5.37785 3.59717 0
M  V30 2742 N 248.321 -0.919034 -1.28029 0
M  V30 2743 C 249.732 -0.600735 -1.76771 0
M  V30 2744 C 250.083 0.884024 -1.75156 0
M  V30 2745 O 249.208 1.69163 -1.34956 0
M  V30 2746 C 249.803 -1.08372 -3.21 0
M  V30 2747 C 248.362 -0.816248 -3.67443 0
M  V30 2748 C 247.509 -1.24742 -2.47658 0
M  V30 2749 H 250.46 -1.09974 -1.14418 0
M  V30 2750 H 250.481 -0.427512 -3.78091 0
M  V30 2751 H 249.993 -2.16437 -3.22144 0
M  V30 2752 H 248.094 0.250968 -3.71754 0
M  V30 2753 H 248.207 -1.4277 -4.57333 0
M  V30 2754 H 246.571 -0.666083 -2.45836 0
M  V30 2755 H 247.354 -2.33653 -2.51518 0
M  V30 2756 N 249.799 1.42003 -0.683588 0
M  V30 2757 C 251.024 2.06265 -0.216647 0
M  V30 2758 C 251.449 1.51059 1.12083 0
M  V30 2759 O 250.807 0.632638 1.69904 0
M  V30 2760 C 250.855 3.60191 -0.171759 0
M  V30 2761 O 249.959 4.03396 0.857069 0
M  V30 2762 H 249.3 0.65502 -0.108834 0
M  V30 2763 H 251.83 1.81982 -0.935077 0
M  V30 2764 H 251.84 4.08 0.0014303 0
M  V30 2765 H 250.515 3.99743 -1.14796 0
M  V30 2766 H 249.092 3.67117 0.654208 0
M  V30 2767 N 251.277 0.427512 1.51691 0
M  V30 2768 C 252.209 -0.424521 2.25234 0
M  V30 2769 C 253.222 -0.994671 1.2888 0
M  V30 2770 O 254.411 -0.890483 1.54702 0
M  V30 2771 C 251.511 -1.60479 2.98496 0
M  V30 2772 C 250.684 -1.15527 4.21868 0
M  V30 2773 C 249.743 -2.20454 4.77793 0
M  V30 2774 O 248.769 -1.8029 5.39893 0
M  V30 2775 N 249.971 -3.52831 4.60967 0
M  V30 2776 H 252.736 0.205749 2.98993 0
M  V30 2777 H 250.297 0.255867 1.59865 0
M  V30 2778 H 252.289 -2.30276 3.32799 0
M  V30 2779 H 250.859 -2.14061 2.27809 0
M  V30 2780 H 250.079 -0.284736 3.9317 0
M  V30 2781 H 251.367 -0.832173 5.01949 0
M  V30 2782 H 250.765 -3.88201 4.11481 0
M  V30 2783 H 249.322 -4.18551 4.99658 0
M  V30 2784 N 252.755 -1.56801 0.158532 0
M  V30 2785 C 254.171 -1.5837 -0.197774 0
M  V30 2786 C 254.371 -1.17334 -1.63814 0
M  V30 2787 O 253.427 -0.878988 -2.36707 0
M  V30 2788 C 254.74 -3.00615 0.0714459 0
M  V30 2789 C 256.288 -3.12999 0.00864533 0
M  V30 2790 C 256.763 -4.57313 0.250685 0
M  V30 2791 N 258.254 -4.62777 0.198014 0
M  V30 2792 C 258.989 -5.72271 0.359642 0
M  V30 2793 N 258.485 -6.90371 0.579625 0
M  V30 2794 N 260.278 -5.61318 0.296438 0
M  V30 2795 H 252.429 -1.81765 1.09887 0
M  V30 2796 H 254.692 -0.841849 0.435884 0
M  V30 2797 H 254.398 -3.35068 1.06874 0
M  V30 2798 H 254.272 -3.71683 -0.642757 0
M  V30 2799 H 256.659 -2.7838 -0.979217 0
M  V30 2800 H 256.74 -2.44393 0.755359 0
M  V30 2801 H 256.384 -4.92639 1.2357 0
M  V30 2802 H 256.314 -5.24061 -0.516489 0
M  V30 2803 H 258.805 -3.77885 0.0331115 0
M  V30 2804 H 259.118 -7.69689 0.69275 0
M  V30 2805 H 257.463 -6.92264 0.616087 0
M  V30 2806 H 260.654 -4.67932 0.125258 0
M  V30 2807 H 260.827 -6.46599 0.425831 0
M  V30 2808 N 254.233 0.115231 -1.57178 0
M  V30 2809 C 255.649 0.468877 -1.52557 0
M  V30 2810 C 255.849 1.81649 -0.872125 0
M  V30 2811 O 254.905 2.48347 -0.45606 0
M  V30 2812 C 256.218 0.4499 -2.97315 0
M  V30 2813 C 257.766 0.533185 -3.08425 0
M  V30 2814 C 258.241 0.54456 -4.54751 0
M  V30 2815 N 259.732 0.605892 -4.5922 0
M  V30 2816 C 260.467 0.636203 -5.6986 0
M  V30 2817 N 259.963 0.623931 -6.89985 0
M  V30 2818 N 261.756 0.679496 -5.57978 0
M  V30 2819 H 253.907 -0.767712 -1.9804 0
M  V30 2820 H 256.17 -0.283609 -0.904583 0
M  V30 2821 H 255.876 -0.472721 -3.48509 0
M  V30 2822 H 255.75 1.27632 -3.5495 0
M  V30 2823 H 258.137 1.44623 -2.57232 0
M  V30 2824 H 258.218 -0.320995 -2.53778 0
M  V30 2825 H 257.862 -0.364452 -5.06591 0
M  V30 2826 H 257.792 1.41568 -5.07214 0
M  V30 2827 H 260.283 0.621386 -3.72756 0
M  V30 2828 H 260.596 0.649787 -7.70063 0
M  V30 2829 H 258.941 0.591296 -6.9248 0
M  V30 2830 H 262.132 0.686472 -4.63039 0
M  V30 2831 H 262.305 0.69965 -6.44212 0
M  V30 2832 N 255.711 1.52812 0.385517 0
M  V30 2833 C 256.941 1.71658 1.14966 0
M  V30 2834 C 257.349 0.436253 1.84102 0
M  V30 2835 O 256.692 -0.599313 1.73649 0
M  V30 2836 C 256.754 2.81309 2.23843 0
M  V30 2837 C 256.418 4.22313 1.74644 0
M  V30 2838 C 257.415 5.05352 1.22129 0
M  V30 2839 C 255.1 4.68648 1.80761 0
M  V30 2840 C 257.094 6.32807 0.763838 0
M  V30 2841 C 254.781 5.96086 1.34627 0
M  V30 2842 C 255.779 6.77996 0.825264 0
M  V30 2843 O 255.467 8.03045 0.370669 0
M  V30 2844 H 255.199 0.578022 0.350523 0
M  V30 2845 H 257.753 2.00263 0.456509 0
M  V30 2846 H 255.983 2.48133 2.96592 0
M  V30 2847 H 257.672 2.88524 2.85497 0
M  V30 2848 H 258.438 4.70736 1.16758 0
M  V30 2849 H 254.317 4.04979 2.20256 0
M  V30 2850 H 257.861 6.96689 0.356494 0
M  V30 2851 H 253.758 6.30205 1.39686 0
M  V30 2852 H 254.526 8.17021 0.491829 0
M  V30 2853 N 257.189 -0.644168 1.43834 0
M  V30 2854 C 258.435 -1.40603 1.46146 0
M  V30 2855 C 258.768 -1.93997 0.0887717 0
M  V30 2856 O 258.043 -1.72854 -0.891724 0
M  V30 2857 C 258.326 -2.58086 2.51124 0
M  V30 2858 C 258.179 -2.10126 3.97702 0
M  V30 2859 C 259.498 -3.60291 2.52742 0
M  V30 2860 H 256.617 -0.509905 0.532134 0
M  V30 2861 H 259.259 -0.729502 1.75437 0
M  V30 2862 H 257.409 -3.15801 2.26278 0
M  V30 2863 H 259.081 -1.57342 4.33637 0
M  V30 2864 H 257.324 -1.41419 4.10101 0
M  V30 2865 H 257.995 -2.94649 4.66783 0
M  V30 2866 H 260.471 -3.12352 2.7491 0
M  V30 2867 H 259.347 -4.40032 3.28121 0
M  V30 2868 H 259.608 -4.1349 1.56455 0
M  V30 2869 N 258.668 -1.30515 -0.883378 0
M  V30 2870 C 259.898 -1.22182 -1.66599 0
M  V30 2871 C 260.306 0.217507 -1.87946 0
M  V30 2872 O 259.649 1.1554 -1.42815 0
M  V30 2873 C 259.711 -1.88146 -3.06335 0
M  V30 2874 C 259.375 -3.37476 -3.08154 0
M  V30 2875 C 260.372 -4.33443 -2.87094 0
M  V30 2876 C 258.057 -3.7895 -3.29701 0
M  V30 2877 C 260.051 -5.68858 -2.8754 0
M  V30 2878 C 257.738 -5.14482 -3.29776 0
M  V30 2879 C 258.736 -6.09246 -3.0872 0
M  V30 2880 O 258.424 -7.42302 -3.08615 0
M  V30 2881 H 258.156 -0.423898 -0.52658 0
M  V30 2882 H 260.71 -1.72703 -1.11188 0
M  V30 2883 H 258.94 -1.32157 -3.63416 0
M  V30 2884 H 260.629 -1.7391 -3.66756 0
M  V30 2885 H 261.395 -4.02733 -2.70243 0
M  V30 2886 H 257.274 -3.05631 -3.45124 0
M  V30 2887 H 260.818 -6.428 -2.71024 0
M  V30 2888 H 256.715 -5.44832 -3.46163 0
M  V30 2889 H 257.483 -7.5131 -3.24769 0
M  V30 2890 N 260.146 1.09593 -1.13257 0
M  V30 2891 C 261.376 1.85231 -0.915049 0
M  V30 2892 C 261.784 1.81345 0.539498 0
M  V30 2893 O 261.127 1.20664 1.38513 0
M  V30 2894 C 261.189 3.34275 -1.3229 0
M  V30 2895 C 260.853 3.6191 -2.79052 0
M  V30 2896 C 261.85 3.57777 -3.77216 0
M  V30 2897 C 259.535 3.90309 -3.16171 0
M  V30 2898 C 261.529 3.81652 -5.1051 0
M  V30 2899 C 259.216 4.13839 -4.49644 0
M  V30 2900 C 260.214 4.09502 -5.46623 0
M  V30 2901 O 259.902 4.32426 -6.77689 0
M  V30 2902 H 259.634 0.591997 -0.326367 0
M  V30 2903 H 262.188 1.394 -1.50854 0
M  V30 2904 H 260.418 3.80805 -0.672667 0
M  V30 2905 H 262.107 3.9132 -1.07812 0
M  V30 2906 H 262.873 3.35865 -3.49885 0
M  V30 2907 H 258.752 3.92811 -2.41289 0
M  V30 2908 H 262.296 3.78182 -5.86195 0
M  V30 2909 H 258.193 4.35232 -4.767 0
M  V30 2910 H 258.961 4.49896 -6.83766 0
M  V30 2911 N 261.624 0.925811 1.2754 0
M  V30 2912 C 262.854 0.580666 1.98272 0
M  V30 2913 C 263.262 -0.845207 1.69272 0
M  V30 2914 O 262.605 -1.57306 0.948707 0
M  V30 2915 C 262.667 0.724418 3.52126 0
M  V30 2916 C 262.331 2.12206 4.04744 0
M  V30 2917 C 263.328 3.09604 4.17662 0
M  V30 2918 C 261.013 2.4385 4.39138 0
M  V30 2919 C 263.007 4.36755 4.64246 0
M  V30 2920 C 260.694 3.71237 4.85414 0
M  V30 2921 C 261.692 4.67503 4.97926 0
M  V30 2922 O 261.38 5.92624 5.43187 0
M  V30 2923 H 261.112 0.218987 0.639547 0
M  V30 2924 H 263.666 1.24452 1.63404 0
M  V30 2925 H 261.896 0.0034663 3.867 0
M  V30 2926 H 263.585 0.384607 4.04074 0
M  V30 2927 H 264.351 2.86478 3.91351 0
M  V30 2928 H 260.23 1.69665 4.28643 0
M  V30 2929 H 263.774 5.11898 4.73927 0
M  V30 2930 H 259.671 3.94182 5.11166 0
M  V30 2931 H 260.439 5.95585 5.61445 0
M  V30 2932 N 263.102 -1.41638 0.69111 0
M  V30 2933 C 264.327 -2.06148 0.227583 0
M  V30 2934 C 264.752 -1.51652 -1.11281 0
M  V30 2935 O 264.11 -0.64164 -1.69566 0
M  V30 2936 C 264.158 -3.60095 0.190858 0
M  V30 2937 O 263.262 -4.03845 -0.835664 0
M  V30 2938 H 262.603 -0.654434 0.112306 0
M  V30 2939 H 265.133 -1.81484 0.944714 0
M  V30 2940 H 265.143 -4.07995 0.020207 0
M  V30 2941 H 263.818 -3.99129 1.16915 0
M  V30 2942 H 262.395 -3.67458 -0.63473 0
M  V30 2943 N 264.58 -0.43555 -1.51462 0
M  V30 2944 C 265.81 0.130053 -2.0619 0
M  V30 2945 C 266.218 1.37164 -1.30317 0
M  V30 2946 O 265.561 1.80225 -0.355598 0
M  V30 2947 C 265.623 0.519418 -3.55728 0
M  V30 2948 C 265.287 -0.615119 -4.52841 0
M  V30 2949 C 266.284 -1.48671 -4.9819 0
M  V30 2950 C 263.969 -0.795341 -4.95963 0
M  V30 2951 C 265.963 -2.52324 -5.8533 0
M  V30 2952 C 263.65 -1.83514 -5.82894 0
M  V30 2953 C 264.648 -2.69748 -6.27475 0
M  V30 2954 O 264.336 -3.71944 -7.1268 0
M  V30 2955 H 264.068 0.0121612 -0.675891 0
M  V30 2956 H 266.622 -0.6129 -1.96043 0
M  V30 2957 H 264.852 1.31505 -3.63653 0
M  V30 2958 H 266.541 1.01597 -3.92979 0
M  V30 2959 H 267.307 -1.359 -4.65571 0
M  V30 2960 H 263.186 -0.133713 -4.60806 0
M  V30 2961 H 266.73 -3.19665 -6.20048 0
M  V30 2962 H 262.627 -1.96306 -6.14926 0
M  V30 2963 H 263.395 -3.68503 -7.30854 0
M  V30 2964 N 266.058 1.56714 -0.166846 0
M  V30 2965 C 266.988 2.20754 0.760913 0
M  V30 2966 C 267.969 1.16178 1.24244 0
M  V30 2967 O 269.154 1.44592 1.29641 0
M  V30 2968 C 266.284 2.84478 1.99223 0
M  V30 2969 C 265.238 3.95053 1.64672 0
M  V30 2970 C 264.564 4.45805 2.95232 0
M  V30 2971 C 265.864 5.14865 0.878155 0
M  V30 2972 H 267.558 2.98537 0.22713 0
M  V30 2973 H 265.104 1.43596 0.107805 0
M  V30 2974 H 267.057 3.27951 2.64624 0
M  V30 2975 H 265.781 2.04056 2.55007 0
M  V30 2976 H 264.44 3.52228 1.01641 0
M  V30 2977 H 264.088 3.62181 3.49047 0
M  V30 2978 H 263.788 5.204 2.7287 0
M  V30 2979 H 265.312 4.91962 3.6167 0
M  V30 2980 H 266.726 5.55059 1.43466 0
M  V30 2981 H 265.123 5.95348 0.753738 0
M  V30 2982 H 266.193 4.84735 -0.126377 0
M  V30 2983 N 267.536 -0.106894 1.57237 0
M  V30 2984 C 268.466 -1.13148 2.04254 0
M  V30 2985 C 269.447 -1.42476 0.929224 0
M  V30 2986 O 270.632 -1.52709 1.19973 0
M  V30 2987 C 267.762 -2.4545 2.45706 0
M  V30 2988 C 266.716 -2.30558 3.60592 0
M  V30 2989 C 266.042 -3.67931 3.87983 0
M  V30 2990 C 267.342 -1.75597 4.91897 0
M  V30 2991 H 269.036 -0.740374 2.90101 0
M  V30 2992 H 266.582 -0.354696 1.39563 0
M  V30 2993 H 268.535 -3.17389 2.77205 0
M  V30 2994 H 267.259 -2.86475 1.56843 0
M  V30 2995 H 265.918 -1.61067 3.29322 0
M  V30 2996 H 265.566 -4.06462 2.96306 0
M  V30 2997 H 265.266 -3.58817 4.65322 0
M  V30 2998 H 266.79 -4.41356 4.21945 0
M  V30 2999 H 268.204 -2.37364 5.21854 0
M  V30 3000 H 266.601 -1.77272 5.73319 0
M  V30 3001 H 267.671 -0.714451 4.79608 0
M  V30 3002 N 269.014 -1.53014 -0.377408 0
M  V30 3003 C 269.961 -1.78616 -1.46168 0
M  V30 3004 C 270.931 -0.629917 -1.53692 0
M  V30 3005 O 272.116 -0.870861 -1.69766 0
M  V30 3006 C 269.256 -1.97123 -2.8326 0
M  V30 3007 C 268.369 -3.24831 -2.84796 0
M  V30 3008 C 267.504 -3.33591 -4.13389 0
M  V30 3009 C 266.543 -4.55377 -4.09021 0
M  V30 3010 N 265.68 -4.61355 -5.29241 0
M  V30 3011 H 270.52 -2.71142 -1.23637 0
M  V30 3012 H 268.057 -1.34326 -0.599577 0
M  V30 3013 H 270.015 -2.05839 -3.62886 0
M  V30 3014 H 268.645 -1.07946 -3.04216 0
M  V30 3015 H 267.697 -3.25128 -1.97474 0
M  V30 3016 H 269.009 -4.14523 -2.77439 0
M  V30 3017 H 268.163 -3.41554 -5.01424 0
M  V30 3018 H 266.902 -2.41894 -4.23484 0
M  V30 3019 H 265.907 -4.47527 -3.19373 0
M  V30 3020 H 267.132 -5.48402 -4.00539 0
M  V30 3021 H 265.078 -3.72554 -5.39944 0
M  V30 3022 H 264.995 -5.44935 -5.24006 0
M  V30 3023 H 266.263 -4.73586 -6.19141 0
M  V30 3024 N 270.492 0.636531 -1.44174 0
M  V30 3025 C 271.44 1.76995 -1.50915 0
M  V30 3026 C 272.434 1.65053 -0.381295 0
M  V30 3027 O 273.64 1.71197 -0.55601 0
M  V30 3028 H 270.015 0.584247 -0.473455 0
M  V30 3029 H 271.986 1.68432 -2.4632 0
M  V30 3030 C 270.735 3.15314 -1.46534 0
M  V30 3031 H 270.058 3.25149 -2.32633 0
M  V30 3032 H 271.498 3.9453 -1.55312 0
M  V30 3033 C 269.957 3.3639 -0.185305 0
M  V30 3034 O 270.487 3.94699 0.746688 0
M  V30 3035 N 268.693 2.9046 -0.0901606 0
M  V30 3036 H 268.24 2.43193 -0.849416 0
M  V30 3037 H 268.198 3.04937 0.765553 0
M  V30 3038 N 271.97 1.30982 0.876444 0
M  V30 3039 C 272.92 1.14688 1.97055 0
M  V30 3040 C 273.904 0.0596593 1.60789 0
M  V30 3041 O 275.096 0.283892 1.74708 0
M  V30 3042 C 272.225 0.849627 3.3262 0
M  V30 3043 C 271.311 1.97752 3.75173 0
M  V30 3044 N 271.702 3.22384 3.89746 0
M  V30 3045 C 270 1.8758 4.04635 0
M  V30 3046 C 270.701 3.96121 4.25985 0
M  V30 3047 N 269.677 3.24237 4.36315 0
M  V30 3048 H 273.479 2.09204 2.06424 0
M  V30 3049 H 270.993 1.22445 1.06682 0
M  V30 3050 H 272.99 0.713895 4.10742 0
M  V30 3051 H 271.65 -0.087376 3.24582 0
M  V30 3052 H 272.661 3.57575 3.74647 0
M  V30 3053 H 269.338 1.01303 4.05024 0
M  V30 3054 H 270.728 5.03491 4.44911 0
M  V30 3055 N 273.449 -1.08991 1.13837 0
M  V30 3056 C 274.379 -2.17771 0.842507 0
M  V30 3057 C 275.36 -1.6892 -0.20001 0
M  V30 3058 O 276.545 -1.94113 -0.0579731 0
M  V30 3059 C 273.675 -3.4589 0.312644 0
M  V30 3060 C 272.629 -4.08099 1.28992 0
M  V30 3061 C 271.955 -5.31098 0.619623 0
M  V30 3062 C 273.255 -4.50077 2.65005 0
M  V30 3063 H 274.949 -2.42777 1.75213 0
M  V30 3064 H 272.495 -1.16682 0.843875 0
M  V30 3065 H 274.448 -4.21297 0.0933043 0
M  V30 3066 H 273.172 -3.20419 -0.632382 0
M  V30 3067 H 271.831 -3.34717 1.49533 0
M  V30 3068 H 271.479 -5.0191 -0.33102 0
M  V30 3069 H 271.179 -5.73674 1.27167 0
M  V30 3070 H 272.703 -6.09224 0.409669 0
M  V30 3071 H 274.117 -5.16688 2.48407 0
M  V30 3072 H 272.514 -5.03553 3.26427 0
M  V30 3073 H 273.584 -3.62257 3.22332 0
M  V30 3074 N 274.927 -0.932562 -1.27047 0
M  V30 3075 C 276.204 -0.49377 -1.89265 0
M  V30 3076 C 276.584 1.02833 -1.8436 0
M  V30 3077 O 275.932 1.88461 -1.29209 0
M  V30 3078 C 276.142 -1.04536 -3.32976 0
M  V30 3079 C 277.49 -1.10879 -4.09867 0
M  V30 3080 O 278.514 -0.995327 -3.42011 0
M  V30 3081 O 277.373 -1.28417 -5.31198 0
M  V30 3082 H 274.467 -0.159596 -0.811454 0
M  V30 3083 H 277.013 -1.02457 -1.3528 0
M  V30 3084 H 275.785 -2.08913 -3.30864 0
M  V30 3085 H 275.408 -0.496494 -3.94488 0
M  V30 3086 N 276.405 1.4127 -0.698611 0
M  V30 3087 C 277.635 2.05205 -0.239644 0
M  V30 3088 C 278.043 1.52684 1.11733 0
M  V30 3089 O 277.386 0.671222 1.70998 0
M  V30 3090 C 277.448 3.59289 -0.123126 0
M  V30 3091 C 277.112 4.34619 -1.41263 0
M  V30 3092 C 278.109 4.63701 -2.35111 0
M  V30 3093 C 275.794 4.73837 -1.66684 0
M  V30 3094 C 277.788 5.30966 -3.52639 0
M  V30 3095 C 275.475 5.40837 -2.84498 0
M  V30 3096 C 276.473 5.69329 -3.77298 0
M  V30 3097 O 276.161 6.34949 -4.93047 0
M  V30 3098 H 275.893 0.66723 -0.108537 0
M  V30 3099 H 278.447 1.81974 -0.952602 0
M  V30 3100 H 276.677 3.81272 0.645628 0
M  V30 3101 H 278.366 4.04797 0.299056 0
M  V30 3102 H 279.132 4.33882 -2.16729 0
M  V30 3103 H 275.011 4.51039 -0.953135 0
M  V30 3104 H 278.555 5.53121 -4.25091 0
M  V30 3105 H 274.452 5.70075 -3.02795 0
M  V30 3106 H 275.22 6.53445 -4.92902 0
M  V30 3107 N 277.883 0.443576 1.51229 0
M  V30 3108 C 279.299 0.0962001 1.5931 0
M  V30 3109 C 279.499 -1.39501 1.45402 0
M  V30 3110 O 278.555 -2.16557 1.29843 0
M  V30 3111 C 279.868 0.621875 2.94199 0
M  V30 3112 C 281.416 0.582865 3.07525 0
M  V30 3113 C 281.891 1.08562 4.44948 0
M  V30 3114 N 283.382 1.04387 4.51284 0
M  V30 3115 C 284.117 1.40368 5.55954 0
M  V30 3116 N 283.613 1.83664 6.68011 0
M  V30 3117 N 285.406 1.32145 5.46346 0
M  V30 3118 H 277.557 1.41376 1.58514 0
M  V30 3119 H 279.82 0.582965 0.747567 0
M  V30 3120 H 279.526 1.66546 3.09767 0
M  V30 3121 H 279.4 0.0502125 3.77167 0
M  V30 3122 H 281.787 -0.451749 2.91622 0
M  V30 3123 H 281.868 1.191 2.26382 0
M  V30 3124 H 281.512 2.11873 4.61598 0
M  V30 3125 H 281.442 0.453956 5.2464 0
M  V30 3126 H 283.933 0.725986 3.70861 0
M  V30 3127 H 284.246 2.0934 7.43906 0
M  V30 3128 H 282.591 1.87596 6.69203 0
M  V30 3129 H 285.782 0.981808 4.57688 0
M  V30 3130 H 285.955 1.60514 6.27805 0
M  V30 3131 N 279.361 -1.56624 0.175154 0
M  V30 3132 C 280.772 -1.83561 -0.340916 0
M  V30 3133 C 281.123 -1.09511 -1.62794 0
M  V30 3134 O 280.248 -0.349389 -2.13561 0
M  V30 3135 C 280.843 -3.32979 -0.625313 0
M  V30 3136 C 279.402 -3.60399 -1.08581 0
M  V30 3137 C 278.549 -2.77024 -0.123722 0
M  V30 3138 H 281.5 -1.53593 0.399344 0
M  V30 3139 H 281.521 -3.50666 -1.47694 0
M  V30 3140 H 281.033 -3.86847 0.311575 0
M  V30 3141 H 279.134 -3.11945 -2.03767 0
M  V30 3142 H 279.247 -4.68711 -0.992317 0
M  V30 3143 H 277.611 -2.46993 -0.621821 0
M  V30 3144 H 278.394 -3.33674 0.807256 0
M  V30 3145 N 280.839 0.0985539 -1.57292 0
M  V30 3146 C 282.085 0.803867 -1.86188 0
M  V30 3147 C 282.418 1.78549 -0.763794 0
M  V30 3148 O 281.693 1.93153 0.22855 0
M  V30 3149 C 281.976 1.53568 -3.25713 0
M  V30 3150 C 281.829 0.572277 -4.46145 0
M  V30 3151 C 283.148 2.48708 -3.63087 0
M  V30 3152 H 280.267 0.290781 -0.677211 0
M  V30 3153 H 282.909 0.0675783 -1.8988 0
M  V30 3154 H 281.059 2.16332 -3.22696 0
M  V30 3155 H 282.731 -0.0480894 -4.61275 0
M  V30 3156 H 280.974 -0.114618 -4.33649 0
M  V30 3157 H 281.645 1.12139 -5.40489 0
M  V30 3158 H 284.121 1.96039 -3.67026 0
M  V30 3159 H 282.997 2.96932 -4.61652 0
M  V30 3160 H 283.258 3.32309 -2.91588 0
M  V30 3161 N 282.317 1.53212 0.369288 0
M  V30 3162 C 283.28 1.7872 1.43498 0
M  V30 3163 C 284.28 0.657554 1.46741 0
M  V30 3164 O 285.47 0.925736 1.47566 0
M  V30 3165 C 282.602 1.90591 2.82645 0
M  V30 3166 H 283.795 2.73894 1.22156 0
M  V30 3167 H 281.348 1.44233 0.602203 0
M  V30 3168 H 282.083 0.974709 3.09306 0
M  V30 3169 H 281.868 2.72751 2.8169 0
M  V30 3170 H 283.358 2.11931 3.59826 0
M  V30 3171 N 283.795 -0.628877 1.44509 0
M  V30 3172 C 284.725 -1.75187 1.54376 0
M  V30 3173 C 285.706 -1.65411 0.396618 0
M  V30 3174 O 286.891 -1.84137 0.617031 0
M  V30 3175 C 284.021 -3.13725 1.48976 0
M  V30 3176 C 282.975 -3.38291 2.62189 0
M  V30 3177 C 282.301 -4.76883 2.41841 0
M  V30 3178 C 283.601 -3.30632 4.04326 0
M  V30 3179 H 285.295 -1.67187 2.48373 0
M  V30 3180 H 282.841 -0.802909 1.19538 0
M  V30 3181 H 284.794 -3.92064 1.54478 0
M  V30 3182 H 283.518 -3.22515 0.514961 0
M  V30 3183 H 282.177 -2.62334 2.56079 0
M  V30 3184 H 281.825 -4.82378 1.42548 0
M  V30 3185 H 281.525 -4.94278 3.17747 0
M  V30 3186 H 283.049 -5.57449 2.49165 0
M  V30 3187 H 284.463 -3.98873 4.11793 0
M  V30 3188 H 282.86 -3.59561 4.80454 0
M  V30 3189 H 283.93 -2.28404 4.27738 0
M  V30 3190 N 285.273 -1.31445 -0.869486 0
M  V30 3191 C 286.203 -1.21727 -1.99261 0
M  V30 3192 C 287.184 -0.104359 -1.6978 0
M  V30 3193 O 288.369 -0.289038 -1.92037 0
M  V30 3194 C 285.499 -0.924317 -3.34774 0
M  V30 3195 C 284.453 -1.99685 -3.78563 0
M  V30 3196 C 283.779 -1.55658 -5.11541 0
M  V30 3197 C 285.079 -3.41003 -3.95619 0
M  V30 3198 H 286.773 -2.1569 -2.07649 0
M  V30 3199 H 284.319 -1.03839 -0.997675 0
M  V30 3200 H 286.272 -0.842934 -4.12883 0
M  V30 3201 H 284.996 0.0509793 -3.2656 0
M  V30 3202 H 283.655 -2.06813 -3.02694 0
M  V30 3203 H 283.303 -0.569132 -4.9977 0
M  V30 3204 H 283.003 -2.27409 -5.41811 0
M  V30 3205 H 284.527 -1.48928 -5.92159 0
M  V30 3206 H 285.941 -3.36547 -4.64122 0
M  V30 3207 H 284.338 -4.10975 -4.37286 0
M  V30 3208 H 285.408 -3.81754 -2.98985 0
M  V30 3209 N 286.751 1.08385 -1.14413 0
M  V30 3210 C 287.998 1.80776 -0.912482 0
M  V30 3211 C 288.326 1.86236 0.560934 0
M  V30 3212 O 287.581 1.33431 1.43159 0
M  V30 3213 C 287.88 3.26273 -1.45879 0
M  V30 3214 C 287.546 3.4093 -2.95089 0
M  V30 3215 C 286.208 3.44638 -3.35824 0
M  V30 3216 C 288.56 3.44591 -3.91033 0
M  V30 3217 C 285.888 3.49597 -4.71167 0
M  V30 3218 C 288.24 3.51086 -5.26233 0
M  V30 3219 C 286.904 3.53067 -5.6648 0
M  V30 3220 H 286.174 0.661507 -0.333901 0
M  V30 3221 H 288.821 1.27613 -1.42784 0
M  V30 3222 H 287.126 3.82146 -0.864376 0
M  V30 3223 H 288.823 3.80839 -1.2555 0
M  V30 3224 H 285.413 3.38736 -2.62594 0
M  V30 3225 H 289.597 3.40957 -3.60641 0
M  V30 3226 H 284.853 3.49424 -5.0171 0
M  V30 3227 H 289.027 3.52864 -6.00383 0
M  V30 3228 H 286.654 3.56662 -6.71339 0
M  V30 3229 N 288.23 0.939286 1.26551 0
M  V30 3230 C 289.18 0.418284 2.2413 0
M  V30 3231 C 290.164 -0.483935 1.5345 0
M  V30 3232 O 291.356 -0.319489 1.74093 0
M  V30 3233 C 288.485 -0.31709 3.41832 0
M  V30 3234 C 287.571 0.602311 4.19801 0
M  V30 3235 N 287.962 1.72726 4.75394 0
M  V30 3236 C 286.26 0.407534 4.44134 0
M  V30 3237 C 286.961 2.30004 5.34297 0
M  V30 3238 N 285.937 1.58828 5.1988 0
M  V30 3239 H 289.739 1.27705 2.64705 0
M  V30 3240 H 287.253 0.794929 1.41614 0
M  V30 3241 H 289.25 -0.707364 4.10855 0
M  V30 3242 H 287.91 -1.17264 3.02786 0
M  V30 3243 H 288.921 2.10944 4.72994 0
M  V30 3244 H 285.598 -0.406406 4.15517 0
M  V30 3245 H 286.988 3.24778 5.88191 0
M  V30 3246 N 289.708 -1.40897 0.706093 0
M  V30 3247 C 290.655 -2.30751 0.0474474 0
M  V30 3248 C 291.625 -1.47678 -0.76029 0
M  V30 3249 O 292.81 -1.76441 -0.726177 0
M  V30 3250 C 289.95 -3.33815 -0.875309 0
M  V30 3251 C 289.063 -4.31961 -0.0580623 0
M  V30 3252 C 288.198 -5.22093 -0.979425 0
M  V30 3253 C 287.237 -6.11902 -0.155706 0
M  V30 3254 N 286.374 -6.94482 -1.03144 0
M  V30 3255 H 291.214 -2.86513 0.819413 0
M  V30 3256 H 288.751 -1.41102 0.415783 0
M  V30 3257 H 290.709 -3.92129 -1.42446 0
M  V30 3258 H 289.339 -2.79579 -1.61356 0
M  V30 3259 H 288.391 -3.75507 0.608147 0
M  V30 3260 H 289.703 -4.95415 0.580082 0
M  V30 3261 H 288.857 -5.85292 -1.59744 0
M  V30 3262 H 287.596 -4.5889 -1.65141 0
M  V30 3263 H 286.601 -5.47742 0.475309 0
M  V30 3264 H 287.826 -6.77162 0.512635 0
M  V30 3265 H 285.772 -6.33877 -1.68924 0
M  V30 3266 H 285.689 -7.54665 -0.449108 0
M  V30 3267 H 286.957 -7.6214 -1.63593 0
M  V30 3268 N 291.186 -0.45159 -1.50991 0
M  V30 3269 C 292.119 0.398179 -2.24699 0
M  V30 3270 C 293.097 1.01276 -1.27208 0
M  V30 3271 O 294.281 1.05247 -1.56382 0
M  V30 3272 C 291.408 1.55618 -3.00833 0
M  V30 3273 C 290.454 1.0609 -4.13095 0
M  V30 3274 S 291.287 -0.00865136 -5.35499 0
M  V30 3275 C 292.443 1.15369 -6.15175 0
M  V30 3276 H 292.676 -0.227555 -2.96428 0
M  V30 3277 H 290.209 -0.236251 -1.52582 0
M  V30 3278 H 292.167 2.21997 -3.45293 0
M  V30 3279 H 290.828 2.15337 -2.28667 0
M  V30 3280 H 290.021 1.92726 -4.65696 0
M  V30 3281 H 289.623 0.47513 -3.7097 0
M  V30 3282 H 291.915 2.06925 -6.45126 0
M  V30 3283 H 292.858 0.667344 -7.04948 0
M  V30 3284 H 293.266 1.3987 -5.46897 0
M  V30 3285 N 292.664 1.56529 -0.183458 0
M  V30 3286 C 293.597 2.14417 0.781052 0
M  V30 3287 C 294.575 1.07761 1.21763 0
M  V30 3288 O 295.759 1.35807 1.30724 0
M  V30 3289 C 292.886 2.69361 2.05335 0
M  V30 3290 C 291.932 3.885 1.75982 0
M  V30 3291 S 292.765 5.27568 0.918256 0
M  V30 3292 C 293.921 5.85926 2.20095 0
M  V30 3293 H 294.154 2.95893 0.2889 0
M  V30 3294 H 291.687 1.54368 0.0313844 0
M  V30 3295 H 293.645 3.01662 2.78406 0
M  V30 3296 H 292.306 1.87949 2.51663 0
M  V30 3297 H 291.499 4.25314 2.70415 0
M  V30 3298 H 291.101 3.57149 1.10999 0
M  V30 3299 H 293.393 5.99579 3.15453 0
M  V30 3300 H 294.336 6.82761 1.87731 0
M  V30 3301 H 294.744 5.14438 2.32409 0
M  V30 3302 N 294.142 -0.090211 1.57342 0
M  V30 3303 C 295.389 -0.792807 1.86335 0
M  V30 3304 C 295.717 -1.78494 0.772662 0
M  V30 3305 O 294.972 -1.94305 -0.233258 0
M  V30 3306 C 295.271 -1.55222 3.21933 0
M  V30 3307 C 294.937 -0.701765 4.45406 0
M  V30 3308 C 293.599 -0.467334 4.78925 0
M  V30 3309 C 295.951 -0.11086 5.21082 0
M  V30 3310 C 293.279 0.367785 5.85546 0
M  V30 3311 C 295.631 0.711609 6.28585 0
M  V30 3312 C 294.295 0.956086 6.60617 0
M  V30 3313 H 293.565 -0.290109 0.681849 0
M  V30 3314 H 296.212 -0.0541332 1.91423 0
M  V30 3315 H 294.517 -2.3626 3.12551 0
M  V30 3316 H 296.214 -2.10032 3.41595 0
M  V30 3317 H 292.804 -0.894598 4.1916 0
M  V30 3318 H 296.988 -0.279129 4.95514 0
M  V30 3319 H 292.244 0.566128 6.08773 0
M  V30 3320 H 296.418 1.17632 6.86393 0
M  V30 3321 H 294.045 1.60499 7.43064 0
M  V30 3322 N 295.62 -1.53406 -0.361157 0
M  V30 3323 C 296.53 -1.83122 -1.4664 0
M  V30 3324 C 297.546 -0.719943 -1.58407 0
M  V30 3325 O 298.722 -1.01046 -1.74218 0
M  V30 3326 C 295.787 -2.01891 -2.81853 0
M  V30 3327 C 294.848 -3.25784 -2.79577 0
M  V30 3328 C 294.081 -3.43648 -4.0834 0
M  V30 3329 O 294.304 -2.65714 -5.0473 0
M  V30 3330 O 293.238 -4.37018 -4.13883 0
M  V30 3331 H 297.064 -2.7703 -1.24451 0
M  V30 3332 H 294.649 -1.38841 -0.551678 0
M  V30 3333 H 296.531 -2.15782 -3.61962 0
M  V30 3334 H 295.206 -1.11173 -3.0401 0
M  V30 3335 H 294.113 -3.17312 -1.98151 0
M  V30 3336 H 295.446 -4.16439 -2.62373 0
M  V30 3337 N 297.098 0.621204 -1.44841 0
M  V30 3338 C 298.326 1.40752 -1.51646 0
M  V30 3339 C 298.741 1.88246 -0.144549 0
M  V30 3340 O 298.098 1.61422 0.851416 0
M  V30 3341 C 298.149 2.62119 -2.4895 0
M  V30 3342 O 297.87 2.16602 -3.80808 0
M  V30 3343 C 299.371 3.55135 -2.65319 0
M  V30 3344 H 296.591 0.431325 -0.514004 0
M  V30 3345 H 299.135 0.758835 -1.899 0
M  V30 3346 H 297.29 3.23058 -2.13805 0
M  V30 3347 H 297.704 2.95358 -4.33433 0
M  V30 3348 H 299.178 4.36874 -3.37409 0
M  V30 3349 H 299.655 4.04592 -1.70886 0
M  V30 3350 H 300.261 3.00058 -3.01405 0
M  V30 3351 N 298.576 1.31904 0.862503 0
M  V30 3352 C 299.825 1.21373 1.61094 0
M  V30 3353 C 300.138 -0.22504 1.94301 0
M  V30 3354 O 301.344 -0.452121 2.67709 0
M  V30 3355 C 299.8 2.12525 2.9045 0
M  V30 3356 C 299.408 3.61441 2.64697 0
M  V30 3357 C 301.152 2.10813 3.68454 0
M  V30 3358 C 299.059 4.44578 3.90006 0
M  V30 3359 H 297.989 0.450705 0.604468 0
M  V30 3360 H 300.64 1.56811 0.953027 0
M  V30 3361 H 299.022 1.69994 3.57656 0
M  V30 3362 H 300.196 4.12264 2.05851 0
M  V30 3363 H 298.511 3.65205 2.00036 0
M  V30 3364 H 301.108 2.70167 4.61426 0
M  V30 3365 H 301.451 1.09713 4.01583 0
M  V30 3366 H 301.984 2.51583 3.08141 0
M  V30 3367 H 298.723 5.46461 3.62023 0
M  V30 3368 H 298.243 3.98508 4.48276 0
M  V30 3369 H 299.922 4.57176 4.5782 0
M  V30 3370 N 300.054 -1.07777 1.14986 0
M  V30 3371 C 301.465 -1.61766 0.932127 0
M  V30 3372 C 301.816 -1.88974 -0.527581 0
M  V30 3373 O 300.941 -1.65198 -1.39781 0
M  V30 3374 C 301.536 -2.93891 1.68563 0
M  V30 3375 C 300.095 -3.44639 1.5133 0
M  V30 3376 C 299.242 -2.18767 1.704 0
M  V30 3377 H 302.193 -0.909201 1.30074 0
M  V30 3378 H 302.214 -3.62623 1.15259 0
M  V30 3379 H 301.726 -2.74057 2.74799 0
M  V30 3380 H 299.827 -3.69564 0.474702 0
M  V30 3381 H 299.94 -4.20966 2.28746 0
M  V30 3382 H 298.304 -2.28253 1.13016 0
M  V30 3383 H 299.087 -2.01433 2.77992 0
M  V30 3384 N 301.532 -0.945985 -1.26051 0
M  V30 3385 C 302.465 -0.403619 -2.24602 0
M  V30 3386 C 303.443 0.510241 -1.54387 0
M  V30 3387 O 304.627 0.446593 -1.83133 0
M  V30 3388 C 301.754 0.419564 -3.36091 0
M  V30 3389 C 300.8 -0.433454 -4.24292 0
M  V30 3390 S 301.633 -1.86037 -5.02146 0
M  V30 3391 C 302.789 -1.04538 -6.17108 0
M  V30 3392 H 303.022 -1.23883 -2.7026 0
M  V30 3393 H 300.555 -0.749438 -1.34992 0
M  V30 3394 H 302.513 0.888595 -4.00767 0
M  V30 3395 H 301.174 1.22951 -2.89036 0
M  V30 3396 H 300.367 0.197486 -5.03613 0
M  V30 3397 H 299.969 -0.837357 -3.64506 0
M  V30 3398 H 302.261 -0.289923 -6.76879 0
M  V30 3399 H 303.204 -1.81222 -6.84518 0
M  V30 3400 H 303.612 -0.579319 -5.61519 0
M  V30 3401 N 303.011 1.40521 -0.713556 0
M  V30 3402 C 304.258 2.00923 -0.25219 0
M  V30 3403 C 304.586 1.56571 1.15395 0
M  V30 3404 O 303.841 0.775874 1.79663 0
M  V30 3405 C 304.14 3.56317 -0.278 0
M  V30 3406 C 303.806 4.20246 -1.63415 0
M  V30 3407 C 302.468 4.37422 -2.00538 0
M  V30 3408 C 304.82 4.55923 -2.52554 0
M  V30 3409 C 302.148 4.87558 -3.2635 0
M  V30 3410 C 304.5 5.07458 -3.77716 0
M  V30 3411 C 303.164 5.22843 -4.14959 0
M  V30 3412 H 302.434 0.735231 -0.0922829 0
M  V30 3413 H 305.081 1.68161 -0.916188 0
M  V30 3414 H 303.386 3.88976 0.469567 0
M  V30 3415 H 305.083 4.00883 0.0967819 0
M  V30 3416 H 301.673 4.07263 -1.33546 0
M  V30 3417 H 305.857 4.42291 -2.25149 0
M  V30 3418 H 301.113 4.97654 -3.55176 0
M  V30 3419 H 305.287 5.34041 -4.4696 0
M  V30 3420 H 302.914 5.61454 -5.12516 0
M  V30 3421 N 304.489 0.459591 1.5075 0
M  V30 3422 C 305.714 -0.0996819 2.0716 0
M  V30 3423 C 306.139 -1.33761 1.32249 0
M  V30 3424 O 305.497 -1.77551 0.366786 0
M  V30 3425 C 305.545 -0.378226 3.58611 0
M  V30 3426 O 304.649 -1.46081 3.85661 0
M  V30 3427 H 303.99 0.00791392 0.663953 0
M  V30 3428 H 306.52 0.647329 1.9409 0
M  V30 3429 H 306.53 -0.622135 4.03229 0
M  V30 3430 H 305.205 0.526439 4.12555 0
M  V30 3431 H 303.782 -1.20511 3.5289 0
M  V30 3432 N 305.967 -1.56429 0.191757 0
M  V30 3433 C 307.215 -1.97095 -0.447006 0
M  V30 3434 C 307.536 -1.07967 -1.62383 0
M  V30 3435 O 306.806 -0.150248 -1.95323 0
M  V30 3436 H 305.386 -0.727832 -0.168135 0
M  V30 3437 H 308.048 -1.92911 0.27771 0
M  V30 3438 H 307.144 -3.01848 -0.793371 0
M  V30 3439 N 307.445 0.0818655 -1.57387 0
M  V30 3440 C 308.693 0.781368 -1.86384 0
M  V30 3441 C 309.014 1.78618 -0.782342 0
M  V30 3442 O 308.284 1.94976 0.190061 0
M  V30 3443 H 306.864 0.291562 -0.687751 0
M  V30 3444 H 309.526 0.060348 -1.94807 0
M  V30 3445 H 308.622 1.3038 -2.83562 0
M  V30 3446 N 308.923 1.53595 0.353017 0
M  V30 3447 C 310.151 1.74311 1.1146 0
M  V30 3448 C 310.566 0.477854 1.82653 0
M  V30 3449 O 309.923 -0.549977 1.74016 0
M  V30 3450 C 309.974 2.91694 2.13534 0
M  V30 3451 O 309.695 4.13325 1.45238 0
M  V30 3452 C 311.196 3.24384 3.02142 0
M  V30 3453 H 308.416 0.582669 0.332773 0
M  V30 3454 H 310.96 2.00386 0.408107 0
M  V30 3455 H 309.115 2.67977 2.79763 0
M  V30 3456 H 309.529 4.79148 2.13349 0
M  V30 3457 H 311.003 4.09893 3.69718 0
M  V30 3458 H 311.48 2.40282 3.67643 0
M  V30 3459 H 312.086 3.50073 2.41514 0
M  V30 3460 N 310.401 -0.613514 1.45168 0
M  V30 3461 C 311.641 -1.38405 1.5041 0
M  V30 3462 C 312.005 -1.91489 0.139922 0
M  V30 3463 O 313.206 -2.68716 0.067033 0
M  V30 3464 C 311.477 -2.50552 2.5487 0
M  V30 3465 S 313.036 -3.38439 2.79292 0
M  V30 3466 H 309.854 -0.471945 0.531779 0
M  V30 3467 H 312.456 -0.708518 1.82209 0
M  V30 3468 H 311.16 -2.09894 3.52665 0
M  V30 3469 H 310.691 -3.22913 2.24701 0
M  V30 3470 H 312.706 -4.48527 2.12222 0
M  V30 3471 N 311.879 -1.3236 -0.855495 0
M  V30 3472 C 312.827 -1.2118 -1.9854 0
M  V30 3473 C 313.821 -0.116788 -1.68997 0
M  V30 3474 O 315.027 -0.279657 -1.77814 0
M  V30 3475 H 311.402 -0.375608 -0.651477 0
M  V30 3476 H 313.373 -2.16743 -2.05098 0
M  V30 3477 C 312.122 -0.950849 -3.34446 0
M  V30 3478 H 311.445 -1.78563 -3.57708 0
M  V30 3479 H 312.885 -0.912863 -4.14057 0
M  V30 3480 C 311.344 0.346404 -3.35114 0
M  V30 3481 O 311.874 1.35855 -3.7803 0
M  V30 3482 N 310.08 0.36808 -2.88259 0
M  V30 3483 H 309.627 -0.456102 -2.5353 0
M  V30 3484 H 309.585 1.23591 -2.89089 0
M  V30 3485 N 313.357 1.07166 -1.15556 0
M  V30 3486 C 314.768 1.6127 -0.940693 0
M  V30 3487 C 315.119 1.89251 0.517551 0
M  V30 3488 O 314.244 1.65937 1.38903 0
M  V30 3489 C 314.839 2.92993 -1.7012 0
M  V30 3490 C 313.398 3.43832 -1.53156 0
M  V30 3491 C 312.545 2.1786 -1.71558 0
M  V30 3492 H 315.496 0.90229 -1.30554 0
M  V30 3493 H 315.517 3.62007 -1.17181 0
M  V30 3494 H 315.029 2.72596 -2.76248 0
M  V30 3495 H 313.13 3.69307 -0.494294 0
M  V30 3496 H 313.243 4.19747 -2.30975 0
M  V30 3497 H 311.607 2.2765 -1.14225 0
M  V30 3498 H 312.39 1.99956 -2.79056 0
M  V30 3499 N 314.835 0.952656 1.25548 0
M  V30 3500 C 315.767 0.428609 2.25157 0
M  V30 3501 C 316.78 -0.454428 1.56329 0
M  V30 3502 O 317.969 -0.263023 1.76552 0
M  V30 3503 C 315.069 -0.401972 3.36508 0
M  V30 3504 C 314.242 0.467601 4.34893 0
M  V30 3505 C 313.301 -0.30445 5.25319 0
M  V30 3506 O 312.327 0.296473 5.68427 0
M  V30 3507 N 313.529 -1.59805 5.5807 0
M  V30 3508 H 316.294 1.28497 2.70756 0
M  V30 3509 H 313.855 0.822798 1.39433 0
M  V30 3510 H 315.847 -0.926134 3.9396 0
M  V30 3511 H 314.417 -1.15918 2.90313 0
M  V30 3512 H 313.637 1.17288 3.76347 0
M  V30 3513 H 314.925 1.06119 4.97611 0
M  V30 3514 H 314.323 -2.10823 5.24948 0
M  V30 3515 H 312.88 -2.06822 6.18116 0
M  V30 3516 N 316.313 -1.40141 0.720998 0
M  V30 3517 C 317.56 -2.00787 0.262842 0
M  V30 3518 C 317.888 -1.5718 -1.14563 0
M  V30 3519 O 317.143 -0.785391 -1.79249 0
M  V30 3520 C 317.442 -3.56165 0.296892 0
M  V30 3521 C 317.108 -4.19373 1.65641 0
M  V30 3522 C 315.77 -4.36352 2.02855 0
M  V30 3523 C 318.122 -4.54578 2.54968 0
M  V30 3524 C 315.45 -4.8582 3.28931 0
M  V30 3525 C 317.802 -5.05447 3.80402 0
M  V30 3526 C 316.466 -5.20635 4.17726 0
M  V30 3527 H 315.736 -0.734731 0.0961807 0
M  V30 3528 H 318.383 -1.67673 0.925093 0
M  V30 3529 H 316.688 -3.8922 -0.448932 0
M  V30 3530 H 318.385 -4.00929 -0.0755208 0
M  V30 3531 H 314.975 -4.06549 1.35704 0
M  V30 3532 H 319.159 -4.41091 2.27491 0
M  V30 3533 H 314.415 -4.95764 3.57811 0
M  V30 3534 H 318.589 -5.31663 4.49786 0
M  V30 3535 H 316.216 -5.58728 5.15487 0
M  V30 3536 N 317.792 -0.46758 -1.50504 0
M  V30 3537 C 319.038 0.0887532 -2.02606 0
M  V30 3538 C 319.371 1.39686 -1.34913 0
M  V30 3539 O 318.646 1.88644 -0.473694 0
M  V30 3540 C 318.929 0.276206 -3.59039 0
M  V30 3541 C 318.782 -1.05267 -4.37309 0
M  V30 3542 C 320.101 1.03235 -4.27821 0
M  V30 3543 H 317.22 0.0307814 -0.736357 0
M  V30 3544 H 319.862 -0.612485 -1.79857 0
M  V30 3545 H 318.012 0.8735 -3.78553 0
M  V30 3546 H 319.684 -1.68628 -4.29374 0
M  V30 3547 H 317.927 -1.65015 -4.01189 0
M  V30 3548 H 318.598 -0.875197 -5.45018 0
M  V30 3549 H 321.074 0.526111 -4.12761 0
M  V30 3550 H 319.95 1.1323 -5.37094 0
M  V30 3551 H 320.211 2.06806 -3.90748 0
M  V30 3552 N 319.27 1.56325 -0.20005 0
M  V30 3553 C 320.516 1.98012 0.438059 0
M  V30 3554 C 320.849 1.08702 1.60927 0
M  V30 3555 O 320.124 0.140064 1.93995 0
M  V30 3556 C 320.407 3.48841 0.893419 0
M  V30 3557 C 320.26 4.48928 -0.279947 0
M  V30 3558 C 321.579 4.03498 1.75719 0
M  V30 3559 H 318.698 0.719918 0.157757 0
M  V30 3560 H 321.34 1.87743 -0.291968 0
M  V30 3561 H 319.49 3.57723 1.51547 0
M  V30 3562 H 321.162 4.52079 -0.91772 0
M  V30 3563 H 319.405 4.23694 -0.930919 0
M  V30 3564 H 320.076 5.5194 0.0812601 0
M  V30 3565 H 322.552 3.97427 1.23253 0
M  V30 3566 H 321.428 5.09393 2.04476 0
M  V30 3567 H 321.689 3.4906 2.71311 0
M  V30 3568 N 320.748 -0.0735177 1.57428 0
M  V30 3569 C 321.988 -0.778363 1.89 0
M  V30 3570 C 322.352 -1.7483 0.793634 0
M  V30 3571 O 323.553 -2.49811 0.992367 0
M  V30 3572 C 321.824 -1.46929 3.25802 0
M  V30 3573 S 323.383 -2.20943 3.79117 0
M  V30 3574 H 320.201 -0.258874 0.662197 0
M  V30 3575 H 322.803 -0.0345338 1.95469 0
M  V30 3576 H 321.507 -0.749532 4.03497 0
M  V30 3577 H 321.038 -2.25258 3.22525 0
M  V30 3578 H 323.053 -3.47435 3.54265 0
M  V30 3579 N 322.226 -1.5378 -0.344866 0
M  V30 3580 C 323.158 -1.77988 -1.44406 0
M  V30 3581 C 324.171 -0.661138 -1.48771 0
M  V30 3582 O 325.36 -0.937842 -1.51877 0
M  V30 3583 C 322.46 -1.86345 -2.8307 0
M  V30 3584 C 321.633 -3.16256 -3.0216 0
M  V30 3585 C 320.692 -3.15588 -4.21059 0
M  V30 3586 O 319.718 -3.89314 -4.15239 0
M  V30 3587 N 320.92 -2.37864 -5.29529 0
M  V30 3588 H 323.685 -2.72839 -1.24012 0
M  V30 3589 H 321.246 -1.52814 -0.534737 0
M  V30 3590 H 323.238 -1.83351 -3.60783 0
M  V30 3591 H 321.808 -0.986858 -2.96614 0
M  V30 3592 H 321.028 -3.32385 -2.11929 0
M  V30 3593 H 322.316 -4.0207 -3.11797 0
M  V30 3594 H 321.714 -1.77514 -5.37127 0
M  V30 3595 H 320.271 -2.40668 -6.05741 0
M  V30 3596 N 323.704 0.605807 -1.45491 0
M  V30 3597 C 324.634 1.72709 -1.57143 0
M  V30 3598 C 325.615 1.6476 -0.422884 0
M  V30 3599 O 326.8 1.83132 -0.646247 0
M  V30 3600 C 323.93 3.11316 -1.53948 0
M  V30 3601 C 322.884 3.34077 -2.67537 0
M  V30 3602 C 322.21 4.72975 -2.49397 0
M  V30 3603 C 323.51 3.24158 -4.09535 0
M  V30 3604 H 325.204 1.63214 -2.51001 0
M  V30 3605 H 322.75 0.78379 -1.208 0
M  V30 3606 H 324.703 3.89557 -1.60696 0
M  V30 3607 H 323.427 3.21655 -0.566205 0
M  V30 3608 H 322.086 2.58227 -2.6022 0
M  V30 3609 H 321.734 4.8005 -1.50205 0
M  V30 3610 H 321.434 4.8916 -3.25571 0
M  V30 3611 H 322.958 5.53414 -2.58002 0
M  V30 3612 H 324.372 3.92271 -4.18086 0
M  V30 3613 H 322.769 3.51872 -4.86113 0
M  V30 3614 H 323.839 2.2157 -4.31317 0
M  V30 3615 N 325.182 1.32811 0.848464 0
M  V30 3616 C 326.129 1.22265 1.95755 0
M  V30 3617 C 327.099 0.103413 1.65778 0
M  V30 3618 O 328.284 0.280033 1.88734 0
M  V30 3619 C 325.424 0.958014 3.31536 0
M  V30 3620 C 324.537 2.16262 3.73971 0
M  V30 3621 C 323.672 1.83295 4.98575 0
M  V30 3622 C 322.711 3.00041 5.33518 0
M  V30 3623 N 321.848 2.67125 6.49299 0
M  V30 3624 H 326.688 2.17128 2.04107 0
M  V30 3625 H 324.225 1.07982 0.998913 0
M  V30 3626 H 326.183 0.785052 4.09747 0
M  V30 3627 H 324.813 0.046159 3.22767 0
M  V30 3628 H 323.865 2.44565 2.91362 0
M  V30 3629 H 325.177 3.03572 3.95785 0
M  V30 3630 H 324.331 1.62586 5.84509 0
M  V30 3631 H 323.07 0.932078 4.7871 0
M  V30 3632 H 322.075 3.21374 4.46093 0
M  V30 3633 H 323.3 3.90869 5.55336 0
M  V30 3634 H 321.246 1.79586 6.3094 0
M  V30 3635 H 321.163 3.47965 6.71161 0
M  V30 3636 H 322.431 2.49861 7.3837 0
M  V30 3637 N 326.66 -1.06551 1.16123 0
M  V30 3638 C 327.906 -1.79567 0.94252 0
M  V30 3639 C 328.239 -1.86869 -0.528547 0
M  V30 3640 O 327.514 -1.35838 -1.39206 0
M  V30 3641 C 327.797 -3.24195 1.56747 0
M  V30 3642 C 327.65 -3.24989 3.10969 0
M  V30 3643 C 328.969 -4.21678 1.25998 0
M  V30 3644 H 326.088 -0.651883 0.343828 0
M  V30 3645 H 328.73 -1.2463 1.43413 0
M  V30 3646 H 326.88 -3.71107 1.14942 0
M  V30 3647 H 328.552 -2.86258 3.61737 0
M  V30 3648 H 326.795 -2.63716 3.44436 0
M  V30 3649 H 327.466 -4.27005 3.49815 0
M  V30 3650 H 329.942 -3.83196 1.62174 0
M  V30 3651 H 328.818 -5.21146 1.7233 0
M  V30 3652 H 329.079 -4.4174 0.178367 0
M  V30 3653 N 328.138 -0.959301 -1.25041 0
M  V30 3654 C 329.085 -0.482057 -2.2571 0
M  V30 3655 C 330.055 0.467939 -1.59372 0
M  V30 3656 O 331.24 0.380159 -1.86974 0
M  V30 3657 C 328.38 0.229623 -3.44335 0
M  V30 3658 C 327.493 -0.758156 -4.25295 0
M  V30 3659 C 326.628 -0.0234403 -5.31195 0
M  V30 3660 C 325.667 -1.00184 -6.03846 0
M  V30 3661 N 324.804 -0.29769 -7.01469 0
M  V30 3662 H 329.644 -1.34538 -2.65901 0
M  V30 3663 H 327.181 -0.674592 -1.3072 0
M  V30 3664 H 329.139 0.658856 -4.11965 0
M  V30 3665 H 327.769 1.05696 -3.05005 0
M  V30 3666 H 326.821 -1.30586 -3.57284 0
M  V30 3667 H 328.133 -1.50458 -4.75567 0
M  V30 3668 H 327.287 0.464201 -6.04922 0
M  V30 3669 H 326.026 0.755741 -4.81809 0
M  V30 3670 H 325.031 -1.50044 -5.2893 0
M  V30 3671 H 326.256 -1.78133 -6.55321 0
M  V30 3672 H 324.202 0.462668 -6.54366 0
M  V30 3673 H 324.119 -0.983128 -7.4958 0
M  V30 3674 H 325.387 0.16826 -7.79318 0
M  V30 3675 N 329.616 1.39756 -0.72842 0
M  V30 3676 C 330.865 1.99879 -0.270407 0
M  V30 3677 C 331.178 1.58449 1.14688 0
M  V30 3678 O 332.384 2.11362 1.70407 0
M  V30 3679 C 330.84 3.57292 -0.43252 0
M  V30 3680 C 330.448 4.07688 -1.85727 0
M  V30 3681 C 332.192 4.24485 -0.0359507 0
M  V30 3682 C 330.099 5.5765 -1.96928 0
M  V30 3683 H 329.029 0.747689 -0.0973472 0
M  V30 3684 H 331.68 1.59837 -0.901355 0
M  V30 3685 H 330.062 3.95097 0.267219 0
M  V30 3686 H 331.236 3.81231 -2.58843 0
M  V30 3687 H 329.551 3.53135 -2.20646 0
M  V30 3688 H 332.148 5.34609 -0.0987484 0
M  V30 3689 H 332.491 4.03915 1.00787 0
M  V30 3690 H 333.024 3.9183 -0.686604 0
M  V30 3691 H 329.763 5.8309 -2.99476 0
M  V30 3692 H 329.283 5.8593 -1.28241 0
M  V30 3693 H 330.962 6.22957 -1.74737 0
M  V30 3694 N 331.094 0.475555 1.50254 0
M  V30 3695 C 332.324 -0.0753399 2.06463 0
M  V30 3696 C 332.732 -1.33661 1.33908 0
M  V30 3697 O 332.075 -1.79219 0.403257 0
M  V30 3698 C 332.137 -0.424921 3.5698 0
M  V30 3699 C 331.801 0.734965 4.51051 0
M  V30 3700 C 332.798 1.61827 4.94073 0
M  V30 3701 C 330.483 0.926557 4.9368 0
M  V30 3702 C 332.477 2.67754 5.78434 0
M  V30 3703 C 330.164 1.98904 5.77824 0
M  V30 3704 C 331.162 2.8629 6.20103 0
M  V30 3705 O 330.85 3.90708 7.02568 0
M  V30 3706 H 330.582 0.00576308 0.675975 0
M  V30 3707 H 333.136 0.664662 1.94349 0
M  V30 3708 H 331.366 -1.21817 3.67012 0
M  V30 3709 H 333.055 -0.911422 3.95535 0
M  V30 3710 H 333.821 1.48196 4.61804 0
M  V30 3711 H 329.7 0.25584 4.6029 0
M  V30 3712 H 333.244 3.35992 6.11355 0
M  V30 3713 H 329.141 2.12541 6.09505 0
M  V30 3714 H 329.909 3.87751 7.20827 0
M  V30 3715 N 332.573 -1.56217 0.208337 0
M  V30 3716 C 333.798 -2.02782 -0.435222 0
M  V30 3717 C 334.223 -1.08738 -1.53485 0
M  V30 3718 O 333.581 -0.0731855 -1.81152 0
M  V30 3719 C 333.629 -3.47687 -0.956335 0
M  V30 3720 O 332.733 -3.56773 -2.06849 0
M  V30 3721 H 332.074 -0.656403 -0.100158 0
M  V30 3722 H 334.604 -2.02033 0.3231 0
M  V30 3723 H 334.614 -3.87745 -1.26955 0
M  V30 3724 H 333.289 -4.15624 -0.15143 0
M  V30 3725 H 331.866 -3.28597 -1.76292 0
M  V30 3726 N 334.051 0.0651679 -1.57465 0
M  V30 3727 C 335.276 0.779605 -1.9219 0
M  V30 3728 C 335.701 1.69988 -0.805333 0
M  V30 3729 O 335.059 1.79685 0.241435 0
M  V30 3730 C 335.107 1.54364 -3.2589 0
M  V30 3731 O 334.211 2.65474 -3.1559 0
M  V30 3732 H 333.552 0.212249 -0.629163 0
M  V30 3733 H 336.082 0.0314294 -2.04576 0
M  V30 3734 H 336.092 1.92146 -3.59922 0
M  V30 3735 H 334.767 0.868457 -4.06732 0
M  V30 3736 H 333.344 2.30501 -2.93128 0
M  V30 3737 N 335.529 1.53961 0.336706 0
M  V30 3738 C 336.477 1.83136 1.43401 0
M  V30 3739 C 337.471 0.702313 1.54156 0
M  V30 3740 O 338.677 0.885765 1.56698 0
M  V30 3741 H 335.052 0.580309 0.478273 0
M  V30 3742 H 337.023 2.74925 1.16012 0
M  V30 3743 C 335.772 2.06385 2.79822 0
M  V30 3744 H 335.095 2.92718 2.72316 0
M  V30 3745 H 336.535 2.30761 3.55704 0
M  V30 3746 C 334.994 0.851414 3.25964 0
M  V30 3747 O 335.524 0.0541904 4.01663 0
M  V30 3748 N 333.73 0.66672 2.82848 0
M  V30 3749 H 333.277 1.31665 2.21409 0
M  V30 3750 H 333.235 -0.143032 3.14074 0
M  V30 3751 N 337.007 -0.598083 1.45811 0
M  V30 3752 C 338.232 -1.3881 1.54099 0
M  V30 3753 C 338.657 -1.8726 0.177578 0
M  V30 3754 O 338.015 -1.6069 -0.839541 0
M  V30 3755 C 338.063 -2.56217 2.53743 0
M  V30 3756 O 337.167 -3.5716 2.06182 0
M  V30 3757 H 336.508 -0.414024 0.519115 0
M  V30 3758 H 339.038 -0.726971 1.91249 0
M  V30 3759 H 339.048 -3.03337 2.72856 0
M  V30 3760 H 337.723 -2.20303 3.5276 0
M  V30 3761 H 336.3 -3.16624 1.96987 0
M  V30 3762 N 338.485 -1.33259 -0.841409 0
M  V30 3763 C 339.733 -1.24326 -1.59334 0
M  V30 3764 C 340.054 0.191564 -1.94057 0
M  V30 3765 O 339.324 1.11967 -1.60749 0
M  V30 3766 H 337.904 -0.457174 -0.590763 0
M  V30 3767 H 340.566 -1.66947 -1.00571 0
M  V30 3768 H 339.662 -1.8352 -2.52442 0
M  V30 3769 N 339.963 1.05934 -1.16686 0
M  V30 3770 C 341.374 1.60263 -0.957745 0
M  V30 3771 C 341.725 1.89789 0.49745 0
M  V30 3772 O 340.85 1.67401 1.37135 0
M  V30 3773 C 341.445 2.91172 -1.73218 0
M  V30 3774 C 340.004 3.42188 -1.56794 0
M  V30 3775 C 339.151 2.16028 -1.73859 0
M  V30 3776 H 342.102 0.888392 -1.31504 0
M  V30 3777 H 342.123 3.60744 -1.21014 0
M  V30 3778 H 341.635 2.6965 -2.79124 0
M  V30 3779 H 339.736 3.68762 -0.533437 0
M  V30 3780 H 339.849 4.17273 -2.35414 0
M  V30 3781 H 338.213 2.26426 -1.16633 0
M  V30 3782 H 338.996 1.96985 -2.81161 0
M  V30 3783 N 341.441 0.965919 1.2453 0
M  V30 3784 C 342.669 0.644385 1.96609 0
M  V30 3785 C 343.084 -0.785823 1.71669 0
M  V30 3786 O 342.441 -1.52703 0.999399 0
M  V30 3787 C 342.492 0.907375 3.49927 0
M  V30 3788 O 342.213 2.28136 3.74013 0
M  V30 3789 C 343.714 0.599784 4.39224 0
M  V30 3790 H 340.934 0.240588 0.626385 0
M  V30 3791 H 343.478 1.29337 1.58405 0
M  V30 3792 H 341.633 0.304631 3.862 0
M  V30 3793 H 342.047 2.36002 4.68405 0
M  V30 3794 H 343.521 0.834263 5.45659 0
M  V30 3795 H 343.998 -0.465921 4.36722 0
M  V30 3796 H 344.604 1.18235 4.08535 0
M  V30 3797 N 342.919 -1.39368 0.735821 0
M  V30 3798 C 344.335 -1.54204 0.411492 0
M  V30 3799 C 344.535 -1.70268 -1.07755 0
M  V30 3800 O 343.591 -1.70364 -1.86366 0
M  V30 3801 C 344.904 -2.75925 1.19523 0
M  V30 3802 C 346.452 -2.89761 1.18354 0
M  V30 3803 C 346.927 -4.14421 1.94986 0
M  V30 3804 N 348.418 -4.21462 1.92156 0
M  V30 3805 C 349.153 -5.16871 2.48258 0
M  V30 3806 N 348.649 -6.18063 3.13001 0
M  V30 3807 N 350.442 -5.09093 2.38287 0
M  V30 3808 H 342.593 -1.27189 1.70108 0
M  V30 3809 H 344.856 -0.616517 0.720147 0
M  V30 3810 H 344.562 -2.70401 2.24892 0
M  V30 3811 H 344.436 -3.68614 0.800222 0
M  V30 3812 H 346.823 -2.94777 0.137975 0
M  V30 3813 H 346.904 -1.98133 1.61793 0
M  V30 3814 H 346.548 -4.10166 2.99543 0
M  V30 3815 H 346.478 -5.05095 1.48953 0
M  V30 3816 H 348.969 -3.48979 1.44991 0
M  V30 3817 H 349.282 -6.87326 3.53275 0
M  V30 3818 H 347.627 -6.18448 3.17091 0
M  V30 3819 H 350.818 -4.28973 1.8735 0
M  V30 3820 H 350.991 -5.83272 2.82308 0
M  V30 3821 N 344.397 -0.483516 -1.5 0
M  V30 3822 C 345.813 -0.138404 -1.58999 0
M  V30 3823 C 346.013 1.35597 -1.4905 0
M  V30 3824 O 345.069 2.13039 -1.35539 0
M  V30 3825 C 346.382 -0.699658 -2.92447 0
M  V30 3826 C 347.93 -0.664195 -3.05872 0
M  V30 3827 C 348.405 -1.20321 -4.41913 0
M  V30 3828 N 349.896 -1.16315 -4.48358 0
M  V30 3829 C 350.631 -1.55058 -5.52037 0
M  V30 3830 N 350.127 -2.01311 -6.62907 0
M  V30 3831 N 351.92 -1.46584 -5.42651 0
M  V30 3832 H 344.071 -1.45529 -1.5471 0
M  V30 3833 H 346.334 -0.60258 -0.731848 0
M  V30 3834 H 346.04 -1.747 -3.05242 0
M  V30 3835 H 345.914 -0.150194 -3.76901 0
M  V30 3836 H 348.301 0.374272 -2.92717 0
M  V30 3837 H 348.382 -1.25061 -2.23144 0
M  V30 3838 H 348.026 -2.24037 -4.55818 0
M  V30 3839 H 347.956 -0.592896 -5.23252 0
M  V30 3840 H 350.447 -0.824058 -3.68806 0
M  V30 3841 H 350.76 -2.2899 -7.38095 0
M  V30 3842 H 349.105 -2.05273 -6.63994 0
M  V30 3843 H 352.296 -1.10281 -4.54924 0
M  V30 3844 H 352.469 -1.77103 -6.23329 0
M  V30 3845 N 345.875 1.56104 -0.216619 0
M  V30 3846 C 346.785 2.23694 0.706982 0
M  V30 3847 C 347.801 1.24295 1.21765 0
M  V30 3848 O 348.977 1.57094 1.2603 0
M  V30 3849 C 346.042 2.8998 1.90033 0
M  V30 3850 C 345.103 4.04708 1.43213 0
M  V30 3851 C 344.336 4.67824 2.56859 0
M  V30 3852 O 344.559 4.29913 3.74874 0
M  V30 3853 O 343.493 5.56905 2.28343 0
M  V30 3854 H 347.319 3.03272 0.161235 0
M  V30 3855 H 344.904 1.49394 0.0136177 0
M  V30 3856 H 346.786 3.31837 2.59735 0
M  V30 3857 H 345.461 2.13365 2.43428 0
M  V30 3858 H 344.368 3.6743 0.70327 0
M  V30 3859 H 345.701 4.83051 0.944615 0
M  V30 3860 N 347.353 -0.0568162 1.57498 0
M  V30 3861 C 348.63 -0.786954 1.79071 0
M  V30 3862 C 349.01 -1.95028 0.80792 0
M  V30 3863 O 348.358 -2.27968 -0.155858 0
M  V30 3864 C 348.568 -1.24594 3.26002 0
M  V30 3865 C 349.916 -1.67323 3.90241 0
M  V30 3866 O 350.94 -1.34124 3.29984 0
M  V30 3867 O 349.799 -2.28842 4.9628 0
M  V30 3868 H 346.893 -0.378262 0.735423 0
M  V30 3869 H 349.439 -0.035734 1.69662 0
M  V30 3870 H 348.211 -0.41423 3.89101 0
M  V30 3871 H 347.834 -2.05803 3.40192 0
M  V30 3872 N 348.832 -1.54138 -0.328536 0
M  V30 3873 C 349.779 -1.83176 -1.40411 0
M  V30 3874 C 350.749 -0.678494 -1.5161 0
M  V30 3875 O 351.934 -0.92443 -1.6691 0
M  V30 3876 C 349.074 -2.06035 -2.76846 0
M  V30 3877 C 348.187 -3.33727 -2.74318 0
M  V30 3878 C 347.322 -3.46574 -4.02567 0
M  V30 3879 C 346.361 -4.68159 -3.94327 0
M  V30 3880 N 345.498 -4.77959 -5.14296 0
M  V30 3881 H 350.338 -2.74938 -1.14948 0
M  V30 3882 H 347.875 -1.36166 -0.556538 0
M  V30 3883 H 349.833 -2.1728 -3.56153 0
M  V30 3884 H 348.463 -1.1757 -3.00628 0
M  V30 3885 H 347.515 -3.31246 -1.8703 0
M  V30 3886 H 348.827 -4.23139 -2.64111 0
M  V30 3887 H 347.981 -3.57333 -4.90304 0
M  V30 3888 H 346.72 -2.55245 -4.15574 0
M  V30 3889 H 345.725 -4.57461 -3.04974 0
M  V30 3890 H 346.95 -5.60868 -3.82889 0
M  V30 3891 H 344.896 -3.89544 -5.27818 0
M  V30 3892 H 344.813 -5.6133 -5.06404 0
M  V30 3893 H 346.081 -4.93044 -6.03761 0
M  V30 3894 N 350.31 0.590341 -1.46126 0
M  V30 3895 C 351.557 1.34882 -1.5104 0
M  V30 3896 C 351.885 1.93849 -0.159021 0
M  V30 3897 O 351.14 1.76544 0.844436 0
M  V30 3898 C 351.439 2.5032 -2.55097 0
M  V30 3899 C 351.105 2.09394 -3.99331 0
M  V30 3900 C 349.767 1.97947 -4.38601 0
M  V30 3901 C 352.119 1.77712 -4.89967 0
M  V30 3902 C 349.447 1.53065 -5.66381 0
M  V30 3903 C 351.799 1.34312 -6.18177 0
M  V30 3904 C 350.463 1.21436 -6.56361 0
M  V30 3905 H 349.733 0.493568 -0.552695 0
M  V30 3906 H 352.38 0.665539 -1.79563 0
M  V30 3907 H 350.685 3.24062 -2.20207 0
M  V30 3908 H 352.382 3.08541 -2.56132 0
M  V30 3909 H 348.972 2.19235 -3.68285 0
M  V30 3910 H 353.156 1.85445 -4.60352 0
M  V30 3911 H 348.412 1.41733 -5.94745 0
M  V30 3912 H 352.586 1.08849 -6.87841 0
M  V30 3913 H 350.213 0.864345 -7.5527 0
M  V30 3914 N 351.788 1.33704 0.83433 0
M  V30 3915 C 352.721 1.18675 1.94914 0
M  V30 3916 C 353.699 0.0811145 1.62398 0
M  V30 3917 O 354.883 0.244186 1.86912 0
M  V30 3918 C 352.01 0.821231 3.28593 0
M  V30 3919 C 351.056 1.93501 3.80079 0
M  V30 3920 S 351.889 3.54671 4.01209 0
M  V30 3921 C 353.045 3.20136 5.37833 0
M  V30 3922 H 353.278 2.13043 2.07364 0
M  V30 3923 H 350.811 1.18598 0.988624 0
M  V30 3924 H 352.769 0.617123 4.05835 0
M  V30 3925 H 351.43 -0.103927 3.13928 0
M  V30 3926 H 350.623 1.63273 4.76821 0
M  V30 3927 H 350.225 2.09601 3.09747 0
M  V30 3928 H 352.517 2.71242 6.20833 0
M  V30 3929 H 353.46 4.15975 5.73036 0
M  V30 3930 H 353.868 2.56613 5.02802 0
M  V30 3931 N 353.266 -1.05314 1.17247 0
M  V30 3932 C 354.496 -1.81707 0.983166 0
M  V30 3933 C 354.904 -1.83222 -0.471822 0
M  V30 3934 O 354.247 -1.25721 -1.3394 0
M  V30 3935 C 354.309 -3.29134 1.44606 0
M  V30 3936 C 353.973 -3.51304 2.92292 0
M  V30 3937 C 354.97 -3.4353 3.90235 0
M  V30 3938 C 352.655 -3.78306 3.30439 0
M  V30 3939 C 354.649 -3.62442 5.24323 0
M  V30 3940 C 352.336 -3.96866 4.64694 0
M  V30 3941 C 353.334 -3.88933 5.61445 0
M  V30 3942 O 353.022 -4.06976 6.93272 0
M  V30 3943 H 352.754 -0.579476 0.348114 0
M  V30 3944 H 355.308 -1.33705 1.55924 0
M  V30 3945 H 353.538 -3.78046 0.813537 0
M  V30 3946 H 355.227 -3.87049 1.22262 0
M  V30 3947 H 355.993 -3.22648 3.62109 0
M  V30 3948 H 351.872 -3.83585 2.55702 0
M  V30 3949 H 355.416 -3.56165 5.99827 0
M  V30 3950 H 351.313 -4.1724 4.92525 0
M  V30 3951 H 352.081 -4.24209 6.99992 0
M  V30 3952 N 354.744 -0.972509 -1.24016 0
M  V30 3953 C 355.991 -0.637034 -1.92219 0
M  V30 3954 C 356.319 0.828418 -1.75976 0
M  V30 3955 O 355.574 1.61206 -1.10955 0
M  V30 3956 C 355.873 -0.963694 -3.44162 0
M  V30 3957 C 355.539 -2.41807 -3.80579 0
M  V30 3958 C 354.201 -2.81556 -3.9023 0
M  V30 3959 C 356.553 -3.36172 -3.98293 0
M  V30 3960 C 353.881 -4.14702 -4.15017 0
M  V30 3961 C 356.233 -4.68952 -4.24578 0
M  V30 3962 C 354.897 -5.08472 -4.32449 0
M  V30 3963 H 354.167 -0.233107 -0.703379 0
M  V30 3964 H 356.814 -1.2249 -1.47202 0
M  V30 3965 H 355.119 -0.29365 -3.90698 0
M  V30 3966 H 356.816 -0.682449 -3.9515 0
M  V30 3967 H 353.406 -2.09988 -3.73635 0
M  V30 3968 H 357.59 -3.06644 -3.90234 0
M  V30 3969 H 352.846 -4.4494 -4.19331 0
M  V30 3970 H 357.02 -5.42037 -4.37229 0
M  V30 3971 H 354.647 -6.11665 -4.51409 0
M  V30 3972 N 356.222 1.38976 -0.743202 0
M  V30 3973 C 357.132 2.3434 -0.110399 0
M  V30 3974 C 358.148 1.58741 0.712559 0
M  V30 3975 O 359.324 1.9099 0.639125 0
M  V30 3976 C 356.389 3.37812 0.780012 0
M  V30 3977 C 355.45 4.29263 -0.0561319 0
M  V30 3978 C 354.683 5.27793 0.791875 0
M  V30 3979 O 354.906 5.33043 2.03031 0
M  V30 3980 O 353.84 6.01512 0.216183 0
M  V30 3981 H 357.666 2.90129 -0.897714 0
M  V30 3982 H 355.251 1.40643 -0.503966 0
M  V30 3983 H 357.133 4.01194 1.28923 0
M  V30 3984 H 355.808 2.84395 1.546 0
M  V30 3985 H 354.715 3.69076 -0.611056 0
M  V30 3986 H 356.048 4.85907 -0.784531 0
M  V30 3987 N 357.7 0.491464 1.49741 0
M  V30 3988 C 358.947 -0.0564256 2.02421 0
M  V30 3989 C 359.275 -1.37872 1.37192 0
M  V30 3990 O 358.53 -1.89375 0.493508 0
M  V30 3991 C 358.829 -0.267329 3.56399 0
M  V30 3992 C 358.495 0.975775 4.40215 0
M  V30 3993 C 357.157 1.31655 4.62839 0
M  V30 3994 C 359.509 1.80251 4.89039 0
M  V30 3995 C 356.837 2.48375 5.31532 0
M  V30 3996 C 359.189 2.96116 5.59015 0
M  V30 3997 C 357.853 3.30585 5.79888 0
M  V30 3998 H 357.123 -0.0206476 0.740712 0
M  V30 3999 H 359.77 0.649686 1.80143 0
M  V30 4000 H 358.075 -1.05588 3.77304 0
M  V30 4001 H 359.772 -0.705549 3.94744 0
M  V30 4002 H 356.362 0.700315 4.2284 0
M  V30 4003 H 360.546 1.55239 4.71396 0
M  V30 4004 H 355.802 2.7533 5.45897 0
M  V30 4005 H 359.976 3.60509 5.95824 0
M  V30 4006 H 357.603 4.21132 6.32892 0
M  V30 4007 N 359.178 -1.55987 0.224894 0
M  V30 4008 C 360.589 -1.84553 -0.282345 0
M  V30 4009 C 360.94 -1.14634 -1.59227 0
M  V30 4010 O 360.065 -0.417155 -2.12341 0
M  V30 4011 C 360.66 -3.348 -0.519062 0
M  V30 4012 C 359.219 -3.63671 -0.970604 0
M  V30 4013 C 358.366 -2.77277 -0.0355261 0
M  V30 4014 H 361.317 -1.52245 0.448006 0
M  V30 4015 H 361.338 -3.55187 -1.36463 0
M  V30 4016 H 360.85 -3.8566 0.43449 0
M  V30 4017 H 358.951 -3.1827 -1.9374 0
M  V30 4018 H 359.064 -4.71631 -0.842698 0
M  V30 4019 H 357.428 -2.48846 -0.542927 0
M  V30 4020 H 358.211 -3.30937 0.913003 0
M  V30 4021 N 360.656 0.0484629 -1.57525 0
M  V30 4022 C 361.588 1.08222 -2.02041 0
M  V30 4023 C 362.601 1.33621 -0.930012 0
M  V30 4024 O 363.79 1.3145 -1.20761 0
M  V30 4025 C 360.89 2.42818 -2.36416 0
M  V30 4026 C 360.063 2.37049 -3.67596 0
M  V30 4027 C 359.122 3.53937 -3.89378 0
M  V30 4028 O 358.148 3.34308 -4.60681 0
M  V30 4029 N 359.35 4.75126 -3.3352 0
M  V30 4030 H 362.115 0.702946 -2.9134 0
M  V30 4031 H 359.676 0.236745 -1.6016 0
M  V30 4032 H 361.668 3.197 -2.48141 0
M  V30 4033 H 360.238 2.72661 -1.52888 0
M  V30 4034 H 359.458 1.45395 -3.66407 0
M  V30 4035 H 360.746 2.30318 -4.53686 0
M  V30 4036 H 360.144 4.93976 -2.75688 0
M  V30 4037 H 358.701 5.49439 -3.50656 0
M  V30 4038 N 362.134 1.5431 0.320358 0
M  V30 4039 C 363.545 1.63872 0.894594 0
M  V30 4040 C 363.896 0.534847 1.88769 0
M  V30 4041 O 363.021 -0.331732 2.13842 0
M  V30 4042 C 363.616 2.97049 1.62934 0
M  V30 4043 C 362.175 3.08796 2.15226 0
M  V30 4044 C 361.322 2.59456 0.978671 0
M  V30 4045 H 364.273 1.58398 0.0978544 0
M  V30 4046 H 364.294 2.87388 2.49376 0
M  V30 4047 H 363.806 3.7737 0.906302 0
M  V30 4048 H 361.907 2.33156 2.90636 0
M  V30 4049 H 362.02 4.14649 2.40006 0
M  V30 4050 H 360.384 2.1543 1.35875 0
M  V30 4051 H 361.167 3.42237 0.269895 0
M  V30 4052 N 363.613 -0.582584 1.46437 0
M  V30 4053 C 364.543 -1.70187 1.59871 0
M  V30 4054 C 365.524 -1.64066 0.449042 0
M  V30 4055 O 366.709 -1.82081 0.6753 0
M  V30 4056 C 363.839 -3.08827 1.58881 0
M  V30 4057 C 362.793 -3.29779 2.72819 0
M  V30 4058 C 362.119 -4.68947 2.5689 0
M  V30 4059 C 363.419 -3.17601 4.1464 0
M  V30 4060 H 365.113 -1.592 2.53566 0
M  V30 4061 H 362.659 -0.764472 1.22032 0
M  V30 4062 H 364.612 -3.86951 1.66873 0
M  V30 4063 H 363.336 -3.20713 0.617306 0
M  V30 4064 H 361.995 -2.54054 2.64296 0
M  V30 4065 H 361.643 -4.77599 1.57823 0
M  V30 4066 H 361.343 -4.83919 3.33312 0
M  V30 4067 H 362.867 -5.4924 2.66773 0
M  V30 4068 H 364.281 -3.8557 4.24274 0
M  V30 4069 H 362.678 -3.44094 4.9165 0
M  V30 4070 H 363.748 -2.14681 4.34788 0
M  V30 4071 N 365.091 -1.34144 -0.827227 0
M  V30 4072 C 366.502 -1.23557 -1.39966 0
M  V30 4073 C 366.853 0.140731 -1.95695 0
M  V30 4074 O 365.978 1.04087 -1.89723 0
M  V30 4075 C 366.573 -2.23708 -2.54441 0
M  V30 4076 C 365.132 -2.16924 -3.07605 0
M  V30 4077 C 364.279 -2.10549 -1.80456 0
M  V30 4078 H 367.23 -1.45573 -0.631991 0
M  V30 4079 H 367.251 -1.85157 -3.32411 0
M  V30 4080 H 366.763 -3.23866 -2.13851 0
M  V30 4081 H 364.864 -1.20107 -3.52711 0
M  V30 4082 H 364.977 -3.07988 -3.66988 0
M  V30 4083 H 363.341 -1.56203 -2.01178 0
M  V30 4084 H 364.124 -3.12535 -1.42046 0
M  V30 4085 N 366.569 1.04691 -1.17803 0
M  V30 4086 C 367.815 1.78045 -0.970969 0
M  V30 4087 C 368.148 1.87686 0.498751 0
M  V30 4088 O 367.423 1.38035 1.37027 0
M  V30 4089 C 367.706 3.2166 -1.61884 0
M  V30 4090 C 367.559 3.20001 -3.161 0
M  V30 4091 C 368.878 4.1962 -1.3269 0
M  V30 4092 H 365.997 0.64633 -0.354155 0
M  V30 4093 H 368.639 1.22333 -1.45378 0
M  V30 4094 H 366.789 3.69232 -1.20831 0
M  V30 4095 H 368.461 2.80467 -3.66246 0
M  V30 4096 H 366.704 2.58203 -3.48588 0
M  V30 4097 H 367.375 4.21386 -3.56564 0
M  V30 4098 H 369.851 3.80567 -1.68249 0
M  V30 4099 H 368.727 5.18339 -1.80599 0
M  V30 4100 H 368.988 4.414 -0.248622 0
M  V30 4101 N 368.047 0.979072 1.23499 0
M  V30 4102 C 369.287 0.655228 1.93613 0
M  V30 4103 C 369.651 -0.796336 1.74707 0
M  V30 4104 O 370.852 -1.23094 2.38959 0
M  V30 4105 C 369.123 1.03337 3.42135 0
M  V30 4106 S 370.682 0.825793 4.3096 0
M  V30 4107 H 367.5 0.240004 0.669267 0
M  V30 4108 H 370.102 1.25843 1.49612 0
M  V30 4109 H 368.806 2.08646 3.53405 0
M  V30 4110 H 368.337 0.421397 3.91137 0
M  V30 4111 H 370.352 -0.290991 4.95346 0
M  V30 4112 N 369.525 -1.3858 0.750561 0
M  V30 4113 C 370.773 -1.99789 0.30477 0
M  V30 4114 C 371.094 -1.59874 -1.11649 0
M  V30 4115 O 370.364 -0.85417 -1.76297 0
M  V30 4116 H 368.944 -0.738902 0.109694 0
M  V30 4117 H 371.606 -1.69391 0.963983 0
M  V30 4118 H 370.702 -3.09952 0.365499 0
M  V30 4119 N 371.003 -0.499398 -1.49478 0
M  V30 4120 C 372.28 0.108629 -1.95298 0
M  V30 4121 C 372.66 1.54282 -1.44084 0
M  V30 4122 O 372.008 2.18944 -0.653908 0
M  V30 4123 C 372.218 0.0229111 -3.48992 0
M  V30 4124 C 373.566 0.197643 -4.2414 0
M  V30 4125 O 374.59 0.0981735 -3.56065 0
M  V30 4126 O 373.449 0.401669 -5.45022 0
M  V30 4127 H 370.543 0.096181 -0.821388 0
M  V30 4128 H 373.089 -0.561822 -1.6013 0
M  V30 4129 H 371.861 -0.977321 -3.78899 0
M  V30 4130 H 371.484 0.733579 -3.90774 0
M  V30 4131 N 372.481 1.55866 -0.233164 0
M  V30 4132 C 373.73 1.97779 0.39579 0
M  V30 4133 C 374.043 1.12419 1.60066 0
M  V30 4134 O 375.249 1.44283 2.29988 0
M  V30 4135 C 373.705 3.5188 0.755556 0
M  V30 4136 C 373.313 4.45959 -0.427152 0
M  V30 4137 C 375.057 4.02479 1.34946 0
M  V30 4138 C 372.964 5.91383 -0.0443043 0
M  V30 4139 H 371.894 0.738592 0.15165 0
M  V30 4140 H 374.545 1.80486 -0.331212 0
M  V30 4141 H 372.927 3.64816 1.5403 0
M  V30 4142 H 374.101 4.44776 -1.20462 0
M  V30 4143 H 372.416 4.05765 -0.935068 0
M  V30 4144 H 375.013 5.08637 1.649 0
M  V30 4145 H 375.356 3.49014 2.26925 0
M  V30 4146 H 375.889 3.92813 0.62791 0
M  V30 4147 H 372.628 6.48857 -0.930874 0
M  V30 4148 H 372.148 5.95734 0.697238 0
M  V30 4149 H 373.827 6.45893 0.378334 0
M  V30 4150 N 373.959 -0.0401083 1.57549 0
M  V30 4151 C 374.906 -1.04413 2.05831 0
M  V30 4152 C 375.876 -1.36585 0.945184 0
M  V30 4153 O 377.061 -1.47112 1.21502 0
M  V30 4154 C 374.201 -2.34336 2.53339 0
M  V30 4155 C 373.314 -2.08419 3.78398 0
M  V30 4156 C 372.449 -3.32133 4.14561 0
M  V30 4157 C 371.488 -3.01721 5.3257 0
M  V30 4158 N 370.625 -4.17855 5.64218 0
M  V30 4159 H 375.465 -0.625442 2.91363 0
M  V30 4160 H 373.002 -0.297218 1.44066 0
M  V30 4161 H 374.96 -3.10234 2.78946 0
M  V30 4162 H 373.59 -2.73948 1.7074 0
M  V30 4163 H 372.642 -1.23069 3.59942 0
M  V30 4164 H 373.954 -1.81978 4.64419 0
M  V30 4165 H 373.108 -4.16406 4.41238 0
M  V30 4166 H 371.847 -3.61678 3.2717 0
M  V30 4167 H 370.852 -2.15849 5.05657 0
M  V30 4168 H 372.077 -2.73466 6.21605 0
M  V30 4169 H 370.023 -4.47372 4.79786 0
M  V30 4170 H 369.94 -3.94798 6.44725 0
M  V30 4171 H 371.208 -5.03033 5.95465 0
M  V30 4172 N 375.437 -1.54477 -0.31217 0
M  V30 4173 C 376.683 -1.73483 -1.0503 0
M  V30 4174 C 377.016 -0.513125 -1.87298 0
M  V30 4175 O 376.291 0.489864 -1.8823 0
M  V30 4176 C 376.574 -3.01723 -1.96558 0
M  V30 4177 C 376.427 -4.3417 -1.17545 0
M  V30 4178 C 377.746 -3.25772 -2.95907 0
M  V30 4179 H 374.865 -0.631222 -0.380432 0
M  V30 4180 H 377.507 -1.87184 -0.325932 0
M  V30 4181 H 375.657 -2.90174 -2.58324 0
M  V30 4182 H 377.329 -4.5762 -0.581513 0
M  V30 4183 H 375.572 -4.31159 -0.477925 0
M  V30 4184 H 376.243 -5.20143 -1.84811 0
M  V30 4185 H 378.719 -3.36857 -2.44267 0
M  V30 4186 H 377.595 -4.16838 -3.57123 0
M  V30 4187 H 377.856 -2.43537 -3.68974 0
M  V30 4188 N 376.915 0.57481 -1.46744 0
M  V30 4189 C 377.825 1.711 -1.60505 0
M  V30 4190 C 378.841 1.67008 -0.488307 0
M  V30 4191 O 380.017 1.86774 -0.753495 0
M  V30 4192 C 377.082 3.07608 -1.59932 0
M  V30 4193 C 376.143 3.22904 -2.82898 0
M  V30 4194 C 375.376 4.529 -2.82343 0
M  V30 4195 O 375.599 5.37278 -1.91542 0
M  V30 4196 O 374.533 4.71611 -3.73987 0
M  V30 4197 H 378.359 1.62436 -2.56609 0
M  V30 4198 H 375.944 0.742779 -1.29627 0
M  V30 4199 H 377.826 3.88877 -1.62336 0
M  V30 4200 H 376.501 3.16692 -0.669898 0
M  V30 4201 H 375.408 2.41099 -2.86046 0
M  V30 4202 H 376.741 3.18715 -3.75076 0
M  V30 4203 N 378.394 1.34581 0.820102 0
M  V30 4204 C 379.641 1.27096 1.57648 0
M  V30 4205 C 379.969 -0.158317 1.93855 0
M  V30 4206 O 379.224 -1.12028 1.60463 0
M  V30 4207 C 379.523 2.10997 2.8847 0
M  V30 4208 C 379.189 3.59966 2.71543 0
M  V30 4209 C 377.851 4.00575 2.66634 0
M  V30 4210 C 380.203 4.54548 2.55021 0
M  V30 4211 C 377.531 5.33953 2.43128 0
M  V30 4212 C 379.883 5.88109 2.33047 0
M  V30 4213 C 378.547 6.27878 2.26552 0
M  V30 4214 H 377.817 0.465078 0.576874 0
M  V30 4215 H 380.464 1.6635 0.948671 0
M  V30 4216 H 378.769 1.6458 3.55557 0
M  V30 4217 H 380.466 2.0255 3.46084 0
M  V30 4218 H 377.056 3.27733 2.76205 0
M  V30 4219 H 381.24 4.24069 2.57835 0
M  V30 4220 H 376.496 5.63781 2.3656 0
M  V30 4221 H 380.67 6.60985 2.19251 0
M  V30 4222 H 378.297 7.31162 2.081 0
M  V30 4223 N 379.872 -1.04064 1.18357 0
M  V30 4224 C 381.119 -1.77265 0.978947 0
M  V30 4225 C 381.447 -1.88189 -0.491428 0
M  V30 4226 O 380.702 -1.38653 -1.38108 0
M  V30 4227 C 381.001 -3.20634 1.57888 0
M  V30 4228 C 380.667 -3.29743 3.07539 0
M  V30 4229 C 379.329 -3.31937 3.48384 0
M  V30 4230 C 381.681 -3.29841 4.03552 0
M  V30 4231 C 379.009 -3.3187 4.83818 0
M  V30 4232 C 381.361 -3.31313 5.38901 0
M  V30 4233 C 380.025 -3.31799 5.79194 0
M  V30 4234 H 379.295 -0.648659 0.358222 0
M  V30 4235 H 381.942 -1.22225 1.47422 0
M  V30 4236 H 380.247 -3.78675 1.00561 0
M  V30 4237 H 381.944 -3.75917 1.39598 0
M  V30 4238 H 378.534 -3.28757 2.74986 0
M  V30 4239 H 382.718 -3.27337 3.73047 0
M  V30 4240 H 377.974 -3.30562 5.14333 0
M  V30 4241 H 382.148 -3.30338 6.13066 0
M  V30 4242 H 379.775 -3.315 6.84114 0
M  V30 4243 N 381.35 -0.985608 -1.22978 0
M  V30 4244 C 382.3 -0.50118 -2.22423 0
M  V30 4245 C 383.284 0.426649 -1.5514 0
M  V30 4246 O 384.476 0.254656 -1.75159 0
M  V30 4247 C 381.605 0.190003 -3.42774 0
M  V30 4248 C 380.691 -0.757703 -4.17276 0
M  V30 4249 N 381.082 -1.90251 -4.68656 0
M  V30 4250 C 379.38 -0.57209 -4.42316 0
M  V30 4251 C 380.081 -2.49676 -5.25392 0
M  V30 4252 N 379.057 -1.78013 -5.13627 0
M  V30 4253 H 382.859 -1.37441 -2.59783 0
M  V30 4254 H 380.373 -0.846941 -1.38567 0
M  V30 4255 H 382.37 0.55439 -4.13197 0
M  V30 4256 H 381.03 1.05946 -3.06929 0
M  V30 4257 H 382.041 -2.28354 -4.64839 0
M  V30 4258 H 378.718 0.251909 -4.16739 0
M  V30 4259 H 380.108 -3.46384 -5.75732 0
M  V30 4260 N 382.828 1.3818 -0.7579 0
M  V30 4261 C 383.775 2.30416 -0.133057 0
M  V30 4262 C 384.745 1.50398 0.704957 0
M  V30 4263 O 385.93 1.79014 0.660192 0
M  V30 4264 C 383.07 3.36834 0.750813 0
M  V30 4265 C 382.183 4.31879 -0.102297 0
M  V30 4266 C 381.318 5.25368 0.784979 0
M  V30 4267 C 380.357 6.12058 -0.0715046 0
M  V30 4268 N 379.494 6.97832 0.772972 0
M  V30 4269 H 384.334 2.83274 -0.925186 0
M  V30 4270 H 381.871 1.39461 -0.467866 0
M  V30 4271 H 383.829 3.97145 1.27794 0
M  V30 4272 H 382.459 2.85374 1.50868 0
M  V30 4273 H 381.511 3.72991 -0.747095 0
M  V30 4274 H 382.823 4.92921 -0.763552 0
M  V30 4275 H 381.977 5.90818 1.37911 0
M  V30 4276 H 380.716 4.64703 1.47996 0
M  V30 4277 H 379.721 5.456 -0.678272 0
M  V30 4278 H 380.946 6.74793 -0.763606 0
M  V30 4279 H 378.892 6.3971 1.45282 0
M  V30 4280 H 378.809 7.55812 0.168709 0
M  V30 4281 H 380.077 7.67687 1.35194 0
M  V30 4282 N 384.306 0.507319 1.49211 0
M  V30 4283 C 385.238 -0.304532 2.27168 0
M  V30 4284 C 386.251 -0.924956 1.33972 0
M  V30 4285 O 387.44 -0.807227 1.59205 0
M  V30 4286 C 384.54 -1.44431 3.06583 0
M  V30 4287 C 383.713 -0.930026 4.27398 0
M  V30 4288 C 382.772 -1.94817 4.88807 0
M  V30 4289 O 381.798 -1.51418 5.4869 0
M  V30 4290 N 383 -3.279 4.79022 0
M  V30 4291 H 385.765 0.36395 2.97482 0
M  V30 4292 H 383.326 0.340249 1.58284 0
M  V30 4293 H 385.318 -2.12311 3.44537 0
M  V30 4294 H 383.888 -2.01684 2.38835 0
M  V30 4295 H 383.108 -0.0759244 3.94127 0
M  V30 4296 H 384.396 -0.564932 5.05654 0
M  V30 4297 H 383.794 -3.65843 4.3148 0
M  V30 4298 H 382.351 -3.91476 5.21142 0
M  V30 4299 N 385.784 -1.5574 0.241426 0
M  V30 4300 C 386.732 -2.22538 -0.676718 0
M  V30 4301 C 387.726 -1.21117 -1.18436 0
M  V30 4302 O 388.932 -1.39144 -1.14188 0
M  V30 4303 H 385.307 -0.713776 -0.236701 0
M  V30 4304 H 387.278 -2.98264 -0.0901187 0
M  V30 4305 C 386.027 -2.93439 -1.86518 0
M  V30 4306 H 385.35 -3.7125 -1.4837 0
M  V30 4307 H 386.79 -3.43549 -2.48495 0
M  V30 4308 C 385.249 -1.97008 -2.73294 0
M  V30 4309 O 385.779 -1.49965 -3.72657 0
M  V30 4310 N 383.985 -1.64227 -2.39745 0
M  V30 4311 H 383.532 -2.02677 -1.58996 0
M  V30 4312 H 383.49 -0.999708 -2.98083 0
M  V30 4313 N 387.262 0.0317525 -1.57568 0
M  V30 4314 C 388.209 1.0332 -2.06382 0
M  V30 4315 C 389.179 1.36082 -0.952414 0
M  V30 4316 O 390.364 1.46466 -1.2228 0
M  V30 4317 C 387.504 2.32989 -2.54578 0
M  V30 4318 C 386.617 2.0641 -3.79498 0
M  V30 4319 C 385.752 3.2993 -4.16317 0
M  V30 4320 C 384.791 2.98893 -5.34162 0
M  V30 4321 N 383.928 4.14857 -5.66426 0
M  V30 4322 H 388.768 0.609982 -2.9169 0
M  V30 4323 H 386.305 0.289573 -1.44222 0
M  V30 4324 H 388.263 3.0875 -2.80587 0
M  V30 4325 H 386.893 2.73039 -1.7219 0
M  V30 4326 H 385.945 1.21158 -3.6059 0
M  V30 4327 H 387.257 1.79513 -4.65378 0
M  V30 4328 H 386.411 4.1406 -4.4344 0
M  V30 4329 H 385.15 3.59938 -3.29083 0
M  V30 4330 H 384.155 2.13164 -5.06795 0
M  V30 4331 H 385.38 2.70165 -6.23047 0
M  V30 4332 H 383.326 4.44821 -4.82151 0
M  V30 4333 H 383.243 3.91374 -6.4681 0
M  V30 4334 H 384.511 4.99868 -5.98124 0
M  V30 4335 N 388.74 1.54641 0.303973 0
M  V30 4336 C 389.673 1.80263 1.3993 0
M  V30 4337 C 390.651 0.653657 1.48883 0
M  V30 4338 O 391.835 0.893284 1.6599 0
M  V30 4339 C 388.962 1.9367 2.77866 0
M  V30 4340 C 388.008 3.16078 2.86351 0
M  V30 4341 S 388.841 4.74219 2.4875 0
M  V30 4342 C 389.997 4.90558 3.88721 0
M  V30 4343 H 390.23 2.72886 1.17986 0
M  V30 4344 H 387.763 1.46014 0.501918 0
M  V30 4345 H 389.721 2.0208 3.57315 0
M  V30 4346 H 388.382 1.01991 2.9708 0
M  V30 4347 H 387.575 3.22252 3.87517 0
M  V30 4348 H 387.177 3.06099 2.14893 0
M  V30 4349 H 389.469 4.74398 4.83687 0
M  V30 4350 H 390.412 5.92651 3.87518 0
M  V30 4351 H 390.82 4.18728 3.78585 0
M  V30 4352 N 390.218 -0.567019 1.47046 0
M  V30 4353 C 391.148 -1.68482 1.61667 0
M  V30 4354 C 392.129 -1.6358 0.466418 0
M  V30 4355 O 393.314 -1.81354 0.694574 0
M  V30 4356 C 390.444 -3.07124 1.62148 0
M  V30 4357 C 389.398 -3.26867 2.76301 0
M  V30 4358 C 388.724 -4.66196 2.61849 0
M  V30 4359 C 390.024 -3.13186 4.17986 0
M  V30 4360 H 391.718 -1.56502 2.5524 0
M  V30 4361 H 389.264 -0.751486 1.22836 0
M  V30 4362 H 391.217 -3.8516 1.70968 0
M  V30 4363 H 389.941 -3.2004 0.651287 0
M  V30 4364 H 388.6 -2.51237 2.66975 0
M  V30 4365 H 388.248 -4.75898 1.62879 0
M  V30 4366 H 387.948 -4.80356 3.38425 0
M  V30 4367 H 389.472 -5.46379 2.72584 0
M  V30 4368 H 390.886 -3.81049 4.2834 0
M  V30 4369 H 389.283 -3.3886 4.95272 0
M  V30 4370 H 390.353 -2.10057 4.3704 0
M  V30 4371 N 391.696 -1.35014 -0.812953 0
M  V30 4372 C 392.643 -1.27412 -1.92444 0
M  V30 4373 C 393.613 -0.14733 -1.65445 0
M  V30 4374 O 394.798 -0.329974 -1.87925 0
M  V30 4375 C 391.938 -1.04558 -3.28879 0
M  V30 4376 C 391.051 -2.26101 -3.68106 0
M  V30 4377 C 390.186 -1.96449 -4.9354 0
M  V30 4378 C 389.225 -3.14081 -5.25376 0
M  V30 4379 N 388.362 -2.84246 -6.41988 0
M  V30 4380 H 393.202 -2.22463 -1.98278 0
M  V30 4381 H 390.739 -1.10593 -0.969933 0
M  V30 4382 H 392.697 -0.893413 -4.07522 0
M  V30 4383 H 391.327 -0.131719 -3.22531 0
M  V30 4384 H 390.379 -2.52204 -2.84775 0
M  V30 4385 H 391.691 -3.13959 -3.87597 0
M  V30 4386 H 390.845 -1.78026 -5.79993 0
M  V30 4387 H 389.584 -1.05867 -4.76071 0
M  V30 4388 H 388.589 -3.33089 -4.37415 0
M  V30 4389 H 389.814 -4.05455 -5.44778 0
M  V30 4390 H 387.76 -1.96252 -6.25956 0
M  V30 4391 H 387.677 -3.65637 -6.61699 0
M  V30 4392 H 388.945 -2.6935 -7.31485 0
M  V30 4393 N 393.175 1.03435 -1.18907 0
M  V30 4394 C 394.122 2.11591 -0.921837 0
M  V30 4395 C 395.092 1.65499 0.141226 0
M  V30 4396 O 396.277 1.908 0.000242829 0
M  V30 4397 C 393.417 3.42012 -0.460616 0
M  V30 4398 C 392.53 4.01682 -1.58982 0
M  V30 4399 C 391.665 5.20091 -1.08069 0
M  V30 4400 C 390.704 5.71805 -2.18416 0
M  V30 4401 N 389.841 6.81494 -1.68849 0
M  V30 4402 H 394.681 2.33787 -1.8479 0
M  V30 4403 H 392.218 1.1467 -0.921373 0
M  V30 4404 H 394.176 4.16834 -0.174642 0
M  V30 4405 H 392.806 3.19944 0.428467 0
M  V30 4406 H 391.858 3.24127 -1.99113 0
M  V30 4407 H 393.17 4.36084 -2.4214 0
M  V30 4408 H 392.324 6.02051 -0.749615 0
M  V30 4409 H 391.063 4.87209 -0.218771 0
M  V30 4410 H 390.068 4.88461 -2.5236 0
M  V30 4411 H 391.293 6.06728 -3.05054 0
M  V30 4412 H 389.239 6.50475 -0.849572 0
M  V30 4413 H 389.156 7.14994 -2.45601 0
M  V30 4414 H 390.424 7.67063 -1.38689 0
M  V30 4415 N 394.653 0.992116 1.22453 0
M  V30 4416 C 395.93 0.583508 1.86694 0
M  V30 4417 C 396.31 -0.9392 1.89056 0
M  V30 4418 O 395.658 -1.82081 1.38053 0
M  V30 4419 C 395.868 1.20304 3.2761 0
M  V30 4420 C 397.216 1.30308 4.0411 0
M  V30 4421 O 398.24 1.15737 3.36873 0
M  V30 4422 O 397.099 1.53615 5.24466 0
M  V30 4423 H 394.193 0.198129 0.802916 0
M  V30 4424 H 396.739 1.08794 1.30238 0
M  V30 4425 H 395.511 2.24461 3.2052 0
M  V30 4426 H 395.134 0.684144 3.9167 0
M  V30 4427 N 396.131 -1.37776 0.765217 0
M  V30 4428 C 397.078 -2.30342 0.145274 0
M  V30 4429 C 398.048 -1.5077 -0.696971 0
M  V30 4430 O 399.233 -1.79362 -0.650689 0
M  V30 4431 C 396.373 -3.37227 -0.732939 0
M  V30 4432 C 395.486 -4.31819 0.125199 0
M  V30 4433 C 394.621 -5.25777 -0.757107 0
M  V30 4434 C 393.66 -6.12012 0.103963 0
M  V30 4435 N 392.797 -6.98232 -0.735953 0
M  V30 4436 H 397.637 -2.8278 0.940195 0
M  V30 4437 H 395.174 -1.39211 0.475255 0
M  V30 4438 H 397.132 -3.97818 -1.25686 0
M  V30 4439 H 395.762 -2.86171 -1.49353 0
M  V30 4440 H 394.814 -3.7259 0.766865 0
M  V30 4441 H 396.126 -4.92509 0.789683 0
M  V30 4442 H 395.28 -5.91541 -1.34776 0
M  V30 4443 H 394.019 -4.65481 -1.45529 0
M  V30 4444 H 393.024 -5.45233 0.707197 0
M  V30 4445 H 394.249 -6.74379 0.799381 0
M  V30 4446 H 392.195 -6.40472 -1.41887 0
M  V30 4447 H 392.112 -7.55891 -0.128624 0
M  V30 4448 H 393.38 -7.68393 -1.31121 0
M  V30 4449 N 397.609 -0.515225 -1.4894 0
M  V30 4450 C 398.542 0.302518 -2.26186 0
M  V30 4451 C 399.52 0.957895 -1.31389 0
M  V30 4452 O 400.704 0.985198 -1.60705 0
M  V30 4453 C 397.831 1.42719 -3.07163 0
M  V30 4454 C 396.877 0.884736 -4.17223 0
M  V30 4455 S 397.71 -0.235767 -5.34981 0
M  V30 4456 C 398.866 0.891731 -6.19515 0
M  V30 4457 H 399.099 -0.353076 -2.95196 0
M  V30 4458 H 396.632 -0.300753 -1.51443 0
M  V30 4459 H 398.59 2.07152 -3.54398 0
M  V30 4460 H 397.251 2.05445 -2.37595 0
M  V30 4461 H 396.444 1.72801 -4.73451 0
M  V30 4462 H 396.046 0.317362 -3.72651 0
M  V30 4463 H 398.338 1.79377 -6.53322 0
M  V30 4464 H 399.281 0.367751 -7.07144 0
M  V30 4465 H 399.689 1.16548 -5.52338 0
M  V30 4466 N 399.087 1.5561 -0.249682 0
M  V30 4467 C 400.334 1.99011 0.374287 0
M  V30 4468 C 400.662 1.13785 1.57744 0
M  V30 4469 O 399.917 0.189326 1.94782 0
M  V30 4470 C 400.216 3.4775 0.824887 0
M  V30 4471 C 399.882 4.50086 -0.270819 0
M  V30 4472 C 398.544 4.77791 -0.571746 0
M  V30 4473 C 400.896 5.11312 -1.01041 0
M  V30 4474 C 398.224 5.63997 -1.61629 0
M  V30 4475 C 400.576 5.98651 -2.0445 0
M  V30 4476 C 399.24 6.24688 -2.35204 0
M  V30 4477 H 398.51 0.728233 0.136961 0
M  V30 4478 H 401.157 1.88122 -0.358087 0
M  V30 4479 H 399.462 3.55985 1.63651 0
M  V30 4480 H 401.159 3.78721 1.31799 0
M  V30 4481 H 397.749 4.28592 -0.026136 0
M  V30 4482 H 401.933 4.89953 -0.791177 0
M  V30 4483 H 397.189 5.82425 -1.85988 0
M  V30 4484 H 401.363 6.45135 -2.62248 0
M  V30 4485 H 398.99 6.91281 -3.16282 0
M  V30 4486 N 400.565 -0.0233959 1.57583 0
M  V30 4487 C 401.515 -1.03023 2.03397 0
M  V30 4488 C 402.499 -1.31701 0.924315 0
M  V30 4489 O 403.691 -1.31191 1.18819 0
M  V30 4490 C 400.82 -2.32961 2.52159 0
M  V30 4491 C 399.906 -2.07349 3.69956 0
M  V30 4492 N 400.297 -1.51814 4.82479 0
M  V30 4493 C 398.595 -2.37606 3.77438 0
M  V30 4494 C 399.296 -1.42136 5.64068 0
M  V30 4495 N 398.272 -1.89891 5.09355 0
M  V30 4496 H 402.074 -0.594962 2.87815 0
M  V30 4497 H 399.588 -0.229586 1.60769 0
M  V30 4498 H 401.585 -3.05906 2.83244 0
M  V30 4499 H 400.245 -2.77162 1.69149 0
M  V30 4500 H 401.256 -1.20008 5.03804 0
M  V30 4501 H 397.933 -2.84842 3.05239 0
M  V30 4502 H 399.323 -0.996405 6.64471 0
M  V30 4503 N 402.043 -1.548 -0.295768 0
M  V30 4504 C 403.29 -1.74329 -1.03032 0
M  V30 4505 C 403.618 -0.531915 -1.87085 0
M  V30 4506 O 402.873 0.486052 -1.89568 0
M  V30 4507 C 403.172 -2.98797 -1.961 0
M  V30 4508 C 402.838 -4.32356 -1.2798 0
M  V30 4509 C 401.5 -4.68661 -1.09135 0
M  V30 4510 C 403.852 -5.15128 -0.793243 0
M  V30 4511 C 401.18 -5.85312 -0.403269 0
M  V30 4512 C 403.532 -6.32488 -0.118854 0
M  V30 4513 C 402.196 -6.6745 0.0815043 0
M  V30 4514 H 401.466 -0.637916 -0.37702 0
M  V30 4515 H 404.113 -1.8906 -0.304696 0
M  V30 4516 H 402.418 -2.78869 -2.75207 0
M  V30 4517 H 404.115 -3.11102 -2.53015 0
M  V30 4518 H 400.705 -4.03808 -1.43655 0
M  V30 4519 H 404.889 -4.87575 -0.92653 0
M  V30 4520 H 400.145 -6.1094 -0.237098 0
M  V30 4521 H 404.319 -6.95892 0.266035 0
M  V30 4522 H 401.946 -7.57695 0.616685 0
M  V30 4523 N 403.521 0.559213 -1.47345 0
M  V30 4524 C 404.767 1.31614 -1.55079 0
M  V30 4525 C 405.122 1.91257 -0.209422 0
M  V30 4526 O 404.415 1.74796 0.784656 0
M  V30 4527 C 404.609 2.44853 -2.6035 0
M  V30 4528 C 404.438 1.96305 -4.04591 0
M  V30 4529 C 403.208 1.8024 -4.72061 0
M  V30 4530 C 405.406 1.50872 -4.91673 0
M  V30 4531 N 403.388 1.26011 -6.00828 0
M  V30 4532 C 404.759 1.08395 -6.10451 0
M  V30 4533 C 406.814 1.38905 -4.78132 0
M  V30 4534 C 405.517 0.551399 -7.17183 0
M  V30 4535 C 407.543 0.870518 -5.84958 0
M  V30 4536 C 406.905 0.455661 -7.02925 0
M  V30 4537 H 403.004 0.473712 -0.62219 0
M  V30 4538 H 405.588 0.634103 -1.84085 0
M  V30 4539 H 403.759 3.10589 -2.33215 0
M  V30 4540 H 405.491 3.11849 -2.57938 0
M  V30 4541 H 402.246 2.02895 -4.27937 0
M  V30 4542 H 402.67 1.00991 -6.69425 0
M  V30 4543 H 407.312 1.69591 -3.87297 0
M  V30 4544 H 405.03 0.232159 -8.07766 0
M  V30 4545 H 408.616 0.781507 -5.76527 0
M  V30 4546 H 407.496 0.0606414 -7.84177 0
M  V30 4547 N 404.999 1.35443 0.805782 0
M  V30 4548 C 406.245 1.28952 1.56522 0
M  V30 4549 C 406.578 -0.135597 1.93726 0
M  V30 4550 O 405.853 -1.08516 1.61414 0
M  V30 4551 C 406.136 2.19678 2.85331 0
M  V30 4552 C 405.989 3.7081 2.54598 0
M  V30 4553 C 407.308 2.09495 3.8704 0
M  V30 4554 H 404.427 0.469764 0.567883 0
M  V30 4555 H 407.069 1.65851 0.927001 0
M  V30 4556 H 405.219 1.8834 3.39795 0
M  V30 4557 H 406.891 4.12593 2.06312 0
M  V30 4558 H 405.134 3.91051 1.8778 0
M  V30 4559 H 405.805 4.29679 3.46525 0
M  V30 4560 H 408.281 2.37045 3.41978 0
M  V30 4561 H 407.157 2.75173 4.74943 0
M  V30 4562 H 407.418 1.07714 4.28777 0
M  V30 4563 N 406.477 -1.02803 1.19454 0
M  V30 4564 C 407.425 -2.13213 0.929673 0
M  V30 4565 C 408.419 -1.69011 -0.114806 0
M  V30 4566 O 409.625 -1.79967 0.0345147 0
M  V30 4567 H 406 -0.69662 0.28324 0
M  V30 4568 H 407.971 -2.32744 1.86743 0
M  V30 4569 C 406.72 -3.4429 0.485797 0
M  V30 4570 H 406.043 -3.7872 1.28105 0
M  V30 4571 H 407.483 -4.22638 0.339582 0
M  V30 4572 C 405.942 -3.27258 -0.800244 0
M  V30 4573 O 406.472 -3.55967 -1.86146 0
M  V30 4574 N 404.678 -2.80545 -0.75781 0
M  V30 4575 H 404.225 -2.57382 0.106039 0
M  V30 4576 H 404.183 -2.6953 -1.61867 0
M  V30 4577 N 407.956 -0.998596 -1.21925 0
M  V30 4578 C 409.184 -0.696286 -1.94832 0
M  V30 4579 C 409.599 0.740032 -1.73692 0
M  V30 4580 O 408.956 1.5 -1.03953 0
M  V30 4581 C 409.007 -0.999833 -3.47398 0
M  V30 4582 O 408.728 -2.37972 -3.67833 0
M  V30 4583 C 410.229 -0.716025 -4.37479 0
M  V30 4584 H 407.449 -0.257111 -0.619786 0
M  V30 4585 H 409.993 -1.33491 -1.54921 0
M  V30 4586 H 408.148 -0.406918 -3.85257 0
M  V30 4587 H 408.562 -2.48338 -4.61983 0
M  V30 4588 H 410.036 -0.978642 -5.43256 0
M  V30 4589 H 410.513 0.349968 -4.37803 0
M  V30 4590 H 411.119 -1.29025 -4.05256 0
M  V30 4591 N 409.434 1.37368 -0.772513 0
M  V30 4592 C 410.681 1.99673 -0.337182 0
M  V30 4593 C 411.009 1.61324 1.0865 0
M  V30 4594 O 410.264 0.851377 1.7621 0
M  V30 4595 C 410.563 3.54817 -0.428876 0
M  V30 4596 C 410.229 4.12936 -1.81092 0
M  V30 4597 C 408.891 4.28523 -2.1891 0
M  V30 4598 C 411.243 4.44801 -2.71664 0
M  V30 4599 C 408.571 4.73277 -3.46735 0
M  V30 4600 C 410.923 4.90981 -3.98899 0
M  V30 4601 C 409.587 5.04773 -4.36761 0
M  V30 4602 H 408.857 0.730656 -0.123384 0
M  V30 4603 H 411.504 1.64124 -0.986686 0
M  V30 4604 H 409.809 3.90618 0.304167 0
M  V30 4605 H 411.506 4.00933 -0.0733334 0
M  V30 4606 H 408.096 4.01233 -1.50699 0
M  V30 4607 H 412.28 4.32344 -2.43706 0
M  V30 4608 H 407.536 4.82142 -3.75964 0
M  V30 4609 H 411.71 5.14603 -4.69208 0
M  V30 4610 H 409.337 5.39211 -5.35868 0
M  V30 4611 N 410.912 0.523116 1.48665 0
M  V30 4612 C 412.159 -0.0134763 2.02496 0
M  V30 4613 C 412.487 -1.3493 1.40086 0
M  V30 4614 O 411.742 -1.88286 0.533567 0
M  V30 4615 C 412.041 -0.191671 3.56886 0
M  V30 4616 C 411.707 1.06893 4.38046 0
M  V30 4617 C 410.369 1.41443 4.59943 0
M  V30 4618 C 412.721 1.90584 4.85106 0
M  V30 4619 C 410.049 2.59594 5.26144 0
M  V30 4620 C 412.401 3.07907 5.52609 0
M  V30 4621 C 411.065 3.42811 5.72745 0
M  V30 4622 H 410.335 -0.00493133 0.740984 0
M  V30 4623 H 412.982 0.687751 1.78724 0
M  V30 4624 H 411.287 -0.97561 3.79459 0
M  V30 4625 H 412.984 -0.621659 3.96152 0
M  V30 4626 H 409.574 0.789848 4.21259 0
M  V30 4627 H 413.758 1.65203 4.67997 0
M  V30 4628 H 409.014 2.86847 5.39934 0
M  V30 4629 H 413.188 3.73066 5.88043 0
M  V30 4630 H 410.815 4.34462 6.23816 0
M  V30 4631 N 412.39 -1.55475 0.257931 0
M  V30 4632 C 413.639 -1.98383 -0.364275 0
M  V30 4633 C 413.952 -1.14952 -1.58258 0
M  V30 4634 O 415.158 -1.47924 -2.27664 0
M  V30 4635 C 413.614 -3.53037 -0.699479 0
M  V30 4636 C 413.222 -4.45223 0.498046 0
M  V30 4637 C 414.966 -4.04575 -1.28526 0
M  V30 4638 C 412.873 -5.91238 0.138383 0
M  V30 4639 H 411.803 -0.740911 -0.13988 0
M  V30 4640 H 414.454 -1.79936 0.359883 0
M  V30 4641 H 412.836 -3.6722 -1.48207 0
M  V30 4642 H 414.01 -4.42803 1.27522 0
M  V30 4643 H 412.325 -4.04226 0.999503 0
M  V30 4644 H 414.922 -5.11196 -1.56788 0
M  V30 4645 H 415.265 -3.5258 -2.21344 0
M  V30 4646 H 415.798 -3.93762 -0.565337 0
M  V30 4647 H 412.537 -6.47294 1.03398 0
M  V30 4648 H 412.057 -5.96768 -0.602374 0
M  V30 4649 H 413.736 -6.46413 -0.27553 0
M  V30 4650 N 413.868 0.0150385 -1.57593 0
M  V30 4651 C 415.279 0.559832 -1.78109 0
M  V30 4652 C 415.63 1.74814 -0.890756 0
M  V30 4653 O 414.755 2.16216 -0.0892482 0
M  V30 4654 C 415.35 1.02238 -3.23006 0
M  V30 4655 C 413.909 1.51258 -3.44671 0
M  V30 4656 C 413.056 0.456955 -2.73509 0
M  V30 4657 H 416.007 -0.211169 -1.57289 0
M  V30 4658 H 416.028 1.88912 -3.30292 0
M  V30 4659 H 415.54 0.157302 -3.87781 0
M  V30 4660 H 413.641 2.39905 -2.8509 0
M  V30 4661 H 413.754 1.55042 -4.5332 0
M  V30 4662 H 412.118 0.915196 -2.37689 0
M  V30 4663 H 412.901 -0.398896 -3.40975 0
M  V30 4664 N 415.346 1.54954 0.287554 0
M  V30 4665 C 416.594 1.74528 1.01904 0
M  V30 4666 C 416.915 0.541349 1.87335 0
M  V30 4667 O 416.185 -0.444108 1.908 0
M  V30 4668 H 414.765 0.643576 0.379235 0
M  V30 4669 H 417.427 1.92333 0.315294 0
M  V30 4670 H 416.523 2.64015 1.6644 0
M  V30 4671 N 416.824 -0.551391 1.4764 0
M  V30 4672 C 418.235 -1.13349 1.48354 0
M  V30 4673 C 418.586 -1.94709 0.241432 0
M  V30 4674 O 417.711 -2.06306 -0.653205 0
M  V30 4675 C 418.306 -2.0623 2.68802 0
M  V30 4676 C 416.865 -2.597 2.72457 0
M  V30 4677 C 416.012 -1.36201 2.41546 0
M  V30 4678 H 418.963 -0.337698 1.55065 0
M  V30 4679 H 418.984 -2.90196 2.46103 0
M  V30 4680 H 418.496 -1.46987 3.59188 0
M  V30 4681 H 416.597 -3.22724 1.86225 0
M  V30 4682 H 416.71 -3.00296 3.73308 0
M  V30 4683 H 415.074 -1.67068 1.9225 0
M  V30 4684 H 415.857 -0.787425 3.34147 0
M  V30 4685 N 418.302 -1.35869 -0.798587 0
M  V30 4686 C 419.212 -1.31578 -1.94228 0
M  V30 4687 C 420.228 -0.21939 -1.72611 0
M  V30 4688 O 421.404 -0.450167 -1.96305 0
M  V30 4689 C 418.469 -1.09528 -3.28944 0
M  V30 4690 C 417.53 -2.28556 -3.63402 0
M  V30 4691 C 416.763 -2.07549 -4.9169 0
M  V30 4692 O 416.986 -1.046 -5.60727 0
M  V30 4693 O 415.92 -2.95106 -5.24591 0
M  V30 4694 H 419.746 -2.27847 -2.00796 0
M  V30 4695 H 417.331 -1.16322 -0.937526 0
M  V30 4696 H 419.213 -0.991127 -4.09579 0
M  V30 4697 H 417.888 -0.16315 -3.23289 0
M  V30 4698 H 416.795 -2.44538 -2.83112 0
M  V30 4699 H 418.128 -3.20244 -3.73771 0
M  V30 4700 N 419.78 1.02168 -1.19998 0
M  V30 4701 C 420.69 2.14069 -0.959774 0
M  V30 4702 C 421.706 1.73804 0.082655 0
M  V30 4703 O 422.882 2.01133 -0.103633 0
M  V30 4704 C 419.947 3.42936 -0.509459 0
M  V30 4705 C 419.008 3.97474 -1.62213 0
M  V30 4706 C 418.241 5.2019 -1.19321 0
M  V30 4707 O 418.464 5.70369 -0.0597726 0
M  V30 4708 O 417.398 5.67749 -1.99863 0
M  V30 4709 H 421.224 2.37199 -1.89658 0
M  V30 4710 H 418.809 1.12469 -0.983411 0
M  V30 4711 H 420.691 4.20551 -0.267322 0
M  V30 4712 H 419.366 3.21234 0.398821 0
M  V30 4713 H 418.273 3.21161 -1.9185 0
M  V30 4714 H 419.606 4.23555 -2.50723 0
M  V30 4715 N 421.258 1.00505 1.21394 0
M  V30 4716 C 422.486 0.706609 1.9446 0
M  V30 4717 C 422.901 -0.73081 1.74082 0
M  V30 4718 O 422.258 -1.49446 1.04747 0
M  V30 4719 C 422.309 1.01824 3.46863 0
M  V30 4720 O 422.03 2.39919 3.66566 0
M  V30 4721 C 423.531 0.739216 4.37093 0
M  V30 4722 H 420.751 0.260394 0.618414 0
M  V30 4723 H 423.295 1.34311 1.54211 0
M  V30 4724 H 421.45 0.427343 3.85036 0
M  V30 4725 H 421.864 2.50784 4.6066 0
M  V30 4726 H 423.338 1.00744 5.42729 0
M  V30 4727 H 423.815 -0.326746 4.37983 0
M  V30 4728 H 424.421 1.31173 4.04566 0
M  V30 4729 N 422.737 -1.36956 0.779787 0
M  V30 4730 C 423.962 -2.04283 0.358224 0
M  V30 4731 C 424.387 -1.58422 -1.01411 0
M  V30 4732 O 423.745 -0.748179 -1.65142 0
M  V30 4733 C 423.793 -3.58152 0.419479 0
M  V30 4734 O 422.897 -4.08342 -0.577142 0
M  V30 4735 H 422.238 -0.645967 0.153698 0
M  V30 4736 H 424.768 -1.75108 1.05822 0
M  V30 4737 H 424.778 -4.07041 0.279636 0
M  V30 4738 H 423.453 -3.90886 1.42061 0
M  V30 4739 H 422.03 -3.70751 -0.399755 0
M  V30 4740 N 424.215 -0.530993 -1.48385 0
M  V30 4741 C 425.125 0.23503 -2.3342 0
M  V30 4742 C 426.141 0.93801 -1.46552 0
M  V30 4743 O 427.317 0.912745 -1.7953 0
M  V30 4744 C 424.382 1.26778 -3.22689 0
M  V30 4745 C 423.443 0.575038 -4.25431 0
M  V30 4746 C 422.676 1.55858 -5.10435 0
M  V30 4747 O 422.899 2.79129 -4.97437 0
M  V30 4748 O 421.833 1.09742 -5.91811 0
M  V30 4749 H 425.659 -0.461794 -3.00169 0
M  V30 4750 H 423.244 -0.291903 -1.46521 0
M  V30 4751 H 425.126 1.86457 -3.77904 0
M  V30 4752 H 423.801 1.94699 -2.586 0
M  V30 4753 H 422.708 -0.0622782 -3.74048 0
M  V30 4754 H 424.041 -0.062253 -4.92161 0
M  V30 4755 N 425.693 1.55336 -0.266172 0
M  V30 4756 C 426.64 2.22172 0.625165 0
M  V30 4757 C 427.61 1.19211 1.15663 0
M  V30 4758 O 428.795 1.47723 1.20758 0
M  V30 4759 C 425.935 2.93972 1.8076 0
M  V30 4760 C 425.048 4.11632 1.31084 0
M  V30 4761 C 424.183 4.71099 2.45436 0
M  V30 4762 C 423.222 5.8097 1.92718 0
M  V30 4763 N 422.359 6.34538 3.00509 0
M  V30 4764 H 427.199 2.9796 0.0485582 0
M  V30 4765 H 424.736 1.47095 0.0122024 0
M  V30 4766 H 426.694 3.33811 2.50251 0
M  V30 4767 H 425.324 2.20623 2.35638 0
M  V30 4768 H 424.376 3.76975 0.509326 0
M  V30 4769 H 425.688 4.90893 0.884633 0
M  V30 4770 H 424.842 5.13612 3.22936 0
M  V30 4771 H 423.581 3.91096 2.91368 0
M  V30 4772 H 422.586 5.37916 1.13695 0
M  V30 4773 H 423.811 6.62836 1.47733 0
M  V30 4774 H 421.757 5.57433 3.45839 0
M  V30 4775 H 421.674 7.09046 2.62279 0
M  V30 4776 H 422.942 6.81709 3.78011 0
M  V30 4777 N 427.171 -0.0066808 1.57599 0
M  V30 4778 C 428.417 -0.693947 1.90558 0
M  V30 4779 C 428.75 -1.73792 0.866594 0
M  V30 4780 O 428.025 -1.94156 -0.115548 0
M  V30 4781 C 428.308 -1.34317 3.34112 0
M  V30 4782 C 428.161 -0.311189 4.48722 0
M  V30 4783 C 429.48 -2.27116 3.7697 0
M  V30 4784 H 426.599 -0.250803 0.693013 0
M  V30 4785 H 429.241 0.043242 1.89951 0
M  V30 4786 H 427.391 -1.9715 3.3476 0
M  V30 4787 H 429.063 0.316944 4.6021 0
M  V30 4788 H 427.306 0.367253 4.32243 0
M  V30 4789 H 427.977 -0.804366 5.46108 0
M  V30 4790 H 430.453 -1.74306 3.77831 0
M  V30 4791 H 429.329 -2.69511 4.78179 0
M  V30 4792 H 429.59 -3.14743 3.10466 0
M  V30 4793 N 428.649 -1.55105 -0.279332 0
M  V30 4794 C 429.559 -1.90638 -1.36727 0
M  V30 4795 C 430.575 -0.802899 -1.54368 0
M  V30 4796 O 431.751 -1.10138 -1.68616 0
M  V30 4797 C 428.816 -2.16547 -2.70755 0
M  V30 4798 C 427.877 -3.40146 -2.61915 0
M  V30 4799 C 427.11 -3.6481 -3.8955 0
M  V30 4800 O 427.333 -2.92095 -4.89935 0
M  V30 4801 O 426.267 -4.58343 -3.90135 0
M  V30 4802 H 430.093 -2.83237 -1.09591 0
M  V30 4803 H 427.678 -1.4157 -0.477306 0
M  V30 4804 H 429.56 -2.34665 -3.50014 0
M  V30 4805 H 428.235 -1.27131 -2.9769 0
M  V30 4806 H 427.142 -3.2737 -1.81052 0
M  V30 4807 H 428.475 -4.29761 -2.3993 0
M  V30 4808 N 430.127 0.543554 -1.4793 0
M  V30 4809 C 431.075 1.67039 -1.61866 0
M  V30 4810 C 432.069 1.62294 -0.48549 0
M  V30 4811 O 433.275 1.67315 -0.66376 0
M  V30 4812 H 429.65 0.552954 -0.509652 0
M  V30 4813 H 431.621 1.52426 -2.56533 0
M  V30 4814 C 430.37 3.05357 -1.6629 0
M  V30 4815 H 429.693 3.09696 -2.5284 0
M  V30 4816 H 431.133 3.83855 -1.80088 0
M  V30 4817 C 429.592 3.34531 -0.398861 0
M  V30 4818 O 430.122 3.98649 0.494162 0
M  V30 4819 N 428.328 2.89299 -0.2747 0
M  V30 4820 H 427.875 2.37298 -1.00236 0
M  V30 4821 H 427.833 3.09188 0.570075 0
M  V30 4822 N 431.605 1.3629 0.791371 0
M  V30 4823 C 432.853 1.30154 1.5461 0
M  V30 4824 C 433.174 -0.119409 1.94634 0
M  V30 4825 O 432.444 -1.05924 1.64794 0
M  V30 4826 H 431.024 0.478784 0.573389 0
M  V30 4827 H 433.686 1.70565 0.94306 0
M  V30 4828 H 432.782 1.92762 2.45457 0
M  V30 4829 N 433.083 -1.0153 1.20538 0
M  V30 4830 C 434.308 -1.79283 1.04271 0
M  V30 4831 C 434.733 -1.8372 -0.403544 0
M  V30 4832 O 434.091 -1.27321 -1.2907 0
M  V30 4833 C 434.139 -3.21535 1.63241 0
M  V30 4834 O 433.243 -4.03099 0.870908 0
M  V30 4835 H 432.584 -0.55293 0.367647 0
M  V30 4836 H 435.114 -1.27696 1.59859 0
M  V30 4837 H 435.124 -3.72243 1.6703 0
M  V30 4838 H 433.799 -3.1762 2.68497 0
M  V30 4839 H 432.376 -3.61693 0.907323 0
M  V30 4840 N 434.561 -1.01147 -1.20859 0
M  V30 4841 C 435.491 -0.597663 -2.25722 0
M  V30 4842 C 436.472 0.384744 -1.65692 0
M  V30 4843 O 437.657 0.271303 -1.92296 0
M  V30 4844 C 434.787 0.0700149 -3.47229 0
M  V30 4845 C 433.741 -0.832843 -4.19819 0
M  V30 4846 C 433.067 -0.0312202 -5.34691 0
M  V30 4847 C 434.367 -2.1385 -4.76514 0
M  V30 4848 H 436.061 -1.47423 -2.60589 0
M  V30 4849 H 433.607 -0.710301 -1.25263 0
M  V30 4850 H 435.56 0.37103 -4.19763 0
M  V30 4851 H 434.284 0.981259 -3.11511 0
M  V30 4852 H 432.943 -1.11778 -3.49144 0
M  V30 4853 H 432.591 0.881515 -4.95215 0
M  V30 4854 H 432.291 -0.632434 -5.84187 0
M  V30 4855 H 433.815 0.26346 -6.10031 0
M  V30 4856 H 435.229 -1.9002 -5.40893 0
M  V30 4857 H 433.626 -2.69012 -5.36426 0
M  V30 4858 H 434.696 -2.80495 -3.95538 0
M  V30 4859 N 436.039 1.36541 -0.78704 0
M  V30 4860 C 437.279 2.01138 -0.363714 0
M  V30 4861 C 437.643 1.61114 1.04433 0
M  V30 4862 O 438.844 2.18285 1.56861 0
M  V30 4863 C 437.115 3.53603 -0.519582 0
M  V30 4864 S 438.674 4.38415 -0.183782 0
M  V30 4865 H 435.492 0.697263 -0.13909 0
M  V30 4866 H 438.094 1.66475 -1.02501 0
M  V30 4867 H 436.798 3.8022 -1.5447 0
M  V30 4868 H 436.329 3.93084 0.15773 0
M  V30 4869 H 438.344 4.85698 1.01547 0
M  V30 4870 N 437.518 0.538854 1.48102 0
M  V30 4871 C 438.795 -0.0568108 1.95517 0
M  V30 4872 C 439.175 -1.50408 1.48124 0
M  V30 4873 O 438.523 -2.17133 0.711727 0
M  V30 4874 C 438.733 0.0696262 3.48931 0
M  V30 4875 C 440.081 -0.0851202 4.24515 0
M  V30 4876 O 441.105 -0.0037347 3.562 0
M  V30 4877 O 439.964 -0.257025 5.45895 0
M  V30 4878 H 437.058 -0.0743695 0.823649 0
M  V30 4879 H 439.604 0.604081 1.58584 0
M  V30 4880 H 438.376 1.07744 3.76174 0
M  V30 4881 H 437.999 -0.629714 3.92582 0
M  V30 4882 N 438.996 -1.55193 0.274407 0
M  V30 4883 C 439.928 -2.1989 -0.646595 0
M  V30 4884 C 440.941 -1.1834 -1.11801 0
M  V30 4885 O 442.13 -1.4507 -1.04004 0
M  V30 4886 C 439.23 -2.8104 -1.89393 0
M  V30 4887 C 438.403 -4.08274 -1.56943 0
M  V30 4888 C 437.462 -4.53478 -2.66916 0
M  V30 4889 O 436.488 -5.19267 -2.33132 0
M  V30 4890 N 437.69 -4.2356 -3.9696 0
M  V30 4891 H 440.455 -2.99556 -0.0928686 0
M  V30 4892 H 438.016 -1.61618 0.0954783 0
M  V30 4893 H 440.008 -3.08226 -2.62257 0
M  V30 4894 H 438.578 -2.05372 -2.35672 0
M  V30 4895 H 437.798 -3.88384 -0.674655 0
M  V30 4896 H 439.086 -4.91173 -1.32764 0
M  V30 4897 H 438.484 -3.70799 -4.27229 0
M  V30 4898 H 437.041 -4.55518 -4.66205 0
M  V30 4899 N 440.474 -0.00167713 -1.576 0
M  V30 4900 C 441.384 1.00548 -2.1196 0
M  V30 4901 C 442.4 1.3758 -1.06526 0
M  V30 4902 O 443.576 1.46278 -1.38436 0
M  V30 4903 C 440.641 2.27809 -2.6135 0
M  V30 4904 C 439.702 1.97074 -3.81393 0
M  V30 4905 C 438.935 3.18267 -4.28417 0
M  V30 4906 O 439.158 4.30009 -3.74765 0
M  V30 4907 O 438.092 3.02167 -5.20556 0
M  V30 4908 H 441.918 0.573373 -2.98238 0
M  V30 4909 H 439.503 0.217255 -1.47812 0
M  V30 4910 H 441.385 3.02568 -2.93309 0
M  V30 4911 H 440.06 2.70254 -1.78169 0
M  V30 4912 H 438.967 1.19785 -3.54404 0
M  V30 4913 H 440.3 1.59464 -4.65652 0
M  V30 4914 N 441.952 1.55251 0.271103 0
M  V30 4915 C 443.201 1.75151 1.00025 0
M  V30 4916 C 443.514 0.561041 1.87381 0
M  V30 4917 O 444.72 0.642506 2.63788 0
M  V30 4918 C 443.176 3.09999 1.82835 0
M  V30 4919 C 442.784 4.3662 1.00336 0
M  V30 4920 C 444.528 3.39249 2.55168 0
M  V30 4921 C 442.435 5.62506 1.82595 0
M  V30 4922 H 441.365 0.652877 0.377183 0
M  V30 4923 H 444.016 1.81708 0.255843 0
M  V30 4924 H 442.398 2.97485 2.61378 0
M  V30 4925 H 443.572 4.60055 0.261959 0
M  V30 4926 H 441.887 4.14527 0.394486 0
M  V30 4927 H 444.484 4.3051 3.1712 0
M  V30 4928 H 444.827 2.59467 3.2555 0
M  V30 4929 H 445.36 3.52869 1.83653 0
M  V30 4930 H 442.099 6.45041 1.16631 0
M  V30 4931 H 441.619 5.43211 2.54327 0
M  V30 4932 H 443.298 6.00875 2.39913 0
M  V30 4933 N 443.43 -0.535701 1.48216 0
M  V30 4934 C 444.707 -1.29683 1.46429 0
M  V30 4935 C 445.087 -2.10391 0.172852 0
M  V30 4936 O 444.435 -2.12282 -0.845488 0
M  V30 4937 C 444.645 -2.18313 2.72287 0
M  V30 4938 C 445.993 -2.78639 3.20383 0
M  V30 4939 O 447.017 -2.28604 2.73164 0
M  V30 4940 O 445.876 -3.69636 4.02531 0
M  V30 4941 H 442.97 -0.585026 0.584529 0
M  V30 4942 H 445.516 -0.552827 1.60443 0
M  V30 4943 H 444.288 -1.58421 3.57797 0
M  V30 4944 H 443.911 -2.99971 2.60966 0
M  V30 4945 N 444.908 -1.36708 -0.784132 0
M  V30 4946 C 446.133 -1.34565 -1.5782 0
M  V30 4947 C 446.558 0.0695257 -1.87971 0
M  V30 4948 O 445.916 1.04302 -1.48293 0
M  V30 4949 C 445.964 -2.17952 -2.87279 0
M  V30 4950 O 445.068 -1.57563 -3.81114 0
M  V30 4951 H 444.409 -0.460337 -0.478524 0
M  V30 4952 H 446.939 -1.80064 -0.971495 0
M  V30 4953 H 446.949 -2.30721 -3.365 0
M  V30 4954 H 445.624 -3.20823 -2.64661 0
M  V30 4955 H 444.201 -1.53764 -3.39722 0
M  V30 4956 N 446.386 1.0089 -1.21074 0
M  V30 4957 C 447.635 1.74019 -1.01981 0
M  V30 4958 C 447.948 1.90408 0.447665 0
M  V30 4959 O 449.154 2.60707 0.757906 0
M  V30 4960 C 447.61 3.13026 -1.77603 0
M  V30 4961 C 447.218 3.04623 -3.28495 0
M  V30 4962 C 448.962 3.90312 -1.66904 0
M  V30 4963 C 446.869 4.38685 -3.96623 0
M  V30 4964 H 445.799 0.652422 -0.377971 0
M  V30 4965 H 448.45 1.12755 -1.44771 0
M  V30 4966 H 446.832 3.74878 -1.27604 0
M  V30 4967 H 448.006 2.52032 -3.85767 0
M  V30 4968 H 446.321 2.40827 -3.39693 0
M  V30 4969 H 448.918 4.8951 -2.15138 0
M  V30 4970 H 449.261 4.11558 -0.62658 0
M  V30 4971 H 449.794 3.35104 -2.14359 0
M  V30 4972 H 446.533 4.22641 -5.01054 0
M  V30 4973 H 446.053 4.91252 -3.4414 0
M  V30 4974 H 447.732 5.075 -4.01314 0
M  V30 4975 N 447.864 1.01787 1.20321 0
M  V30 4976 C 449.104 0.716493 1.91431 0
M  V30 4977 C 449.468 -0.740352 1.77152 0
M  V30 4978 O 450.669 -1.1543 2.42754 0
M  V30 4979 C 448.94 1.14169 3.38674 0
M  V30 4980 S 450.499 0.962482 4.28114 0
M  V30 4981 H 447.317 0.261175 0.661293 0
M  V30 4982 H 449.919 1.30539 1.45533 0
M  V30 4983 H 448.623 2.19784 3.46588 0
M  V30 4984 H 448.154 0.545621 3.89598 0
M  V30 4985 H 450.169 -0.133253 4.96021 0
M  V30 4986 N 449.342 -1.36122 0.79427 0
M  V30 4987 C 450.567 -2.03891 0.379871 0
M  V30 4988 C 450.992 -1.59488 -0.997251 0
M  V30 4989 O 450.35 -0.765652 -1.64339 0
M  V30 4990 C 450.398 -3.57687 0.457442 0
M  V30 4991 O 449.502 -4.08931 -0.5338 0
M  V30 4992 H 448.843 -0.6443 0.160541 0
M  V30 4993 H 451.373 -1.73976 1.07673 0
M  V30 4994 H 451.383 -4.06721 0.322792 0
M  V30 4995 H 450.058 -3.89357 1.46199 0
M  V30 4996 H 448.635 -3.71154 -0.360409 0
M  V30 4997 N 450.82 -0.546701 -1.47814 0
M  V30 4998 C 452.069 -0.0166497 -2.01693 0
M  V30 4999 C 452.382 1.33721 -1.42752 0
M  V30 5000 O 453.588 1.95658 -1.8823 0
M  V30 5001 C 452.044 0.0206769 -3.59894 0
M  V30 5002 C 451.652 -1.3293 -4.27824 0
M  V30 5003 C 453.396 0.498674 -4.21561 0
M  V30 5004 C 451.303 -1.25165 -5.78003 0
M  V30 5005 H 450.233 -0.0024541 -0.753996 0
M  V30 5006 H 452.884 -0.692984 -1.69912 0
M  V30 5007 H 451.266 0.76244 -3.88591 0
M  V30 5008 H 452.44 -2.08795 -4.10781 0
M  V30 5009 H 450.755 -1.74438 -3.78101 0
M  V30 5010 H 453.352 0.575 -5.31599 0
M  V30 5011 H 453.695 1.5083 -3.88016 0
M  V30 5012 H 454.228 -0.18791 -3.97356 0
M  V30 5013 H 450.967 -2.23695 -6.1615 0
M  V30 5014 H 450.487 -0.53464 -5.97412 0
M  V30 5015 H 452.166 -0.949299 -6.39998 0
M  V30 5016 N 452.299 1.55045 -0.282633 0
M  V30 5017 C 453.209 2.26491 0.61147 0
M  V30 5018 C 454.225 1.29348 1.16384 0
M  V30 5019 O 455.401 1.62298 1.19253 0
M  V30 5020 C 452.466 2.97779 1.77563 0
M  V30 5021 C 451.527 4.10418 1.25919 0
M  V30 5022 C 450.76 4.78297 2.36786 0
M  V30 5023 O 450.983 4.45426 3.56303 0
M  V30 5024 O 449.917 5.66089 2.04517 0
M  V30 5025 H 453.743 3.03683 0.0324615 0
M  V30 5026 H 451.328 1.49317 -0.0497576 0
M  V30 5027 H 453.21 3.42554 2.45427 0
M  V30 5028 H 451.885 2.23498 2.34159 0
M  V30 5029 H 450.792 3.70082 0.546797 0
M  V30 5030 H 452.125 4.86622 0.738887 0
M  V30 5031 N 453.777 0.010035 1.57597 0
M  V30 5032 C 455.193 -0.346164 1.55801 0
M  V30 5033 C 455.393 -1.74144 1.01371 0
M  V30 5034 O 454.449 -2.43938 0.651968 0
M  V30 5035 C 455.762 -0.212216 2.9995 0
M  V30 5036 C 457.31 -0.286409 3.11687 0
M  V30 5037 C 457.785 -0.18147 4.5764 0
M  V30 5038 N 459.276 -0.239056 4.62583 0
M  V30 5039 C 460.011 -0.181351 5.73113 0
M  V30 5040 N 459.507 -0.073661 6.92761 0
M  V30 5041 N 461.3 -0.233949 5.61613 0
M  V30 5042 H 453.451 0.922657 1.91313 0
M  V30 5043 H 455.714 0.354595 0.879185 0
M  V30 5044 H 455.42 0.748169 3.4365 0
M  V30 5045 H 455.294 -0.990224 3.6397 0
M  V30 5046 H 457.681 -1.23724 2.67911 0
M  V30 5047 H 457.762 0.521645 2.50425 0
M  V30 5048 H 457.406 0.765863 5.02093 0
M  V30 5049 H 457.336 -1.00814 5.1686 0
M  V30 5050 H 459.827 -0.32321 3.76515 0
M  V30 5051 H 460.14 -0.0358003 7.72792 0
M  V30 5052 H 458.485 -0.0391461 6.94989 0
M  V30 5053 H 461.676 -0.316347 4.6703 0
M  V30 5054 H 461.849 -0.185514 6.47734 0
M  V30 5055 N 455.255 -1.55392 -0.262866 0
M  V30 5056 C 456.218 -1.88181 -1.30846 0
M  V30 5057 C 457.218 -0.757079 -1.41862 0
M  V30 5058 O 458.408 -1.02519 -1.40838 0
M  V30 5059 C 455.54 -2.09609 -2.68844 0
M  V30 5060 H 456.733 -2.81659 -1.02997 0
M  V30 5061 H 454.286 -1.48039 -0.501414 0
M  V30 5062 H 455.021 -1.18547 -3.01856 0
M  V30 5063 H 454.806 -2.91508 -2.62231 0
M  V30 5064 H 456.296 -2.36215 -3.44372 0
M  V30 5065 N 456.733 0.527833 -1.48498 0
M  V30 5066 C 458.01 1.28905 -1.47115 0
M  V30 5067 C 458.39 2.10297 -0.184007 0
M  V30 5068 O 457.738 2.12728 0.834218 0
M  V30 5069 C 457.948 2.16866 -2.73441 0
M  V30 5070 C 459.296 2.76936 -3.21857 0
M  V30 5071 O 460.32 2.27152 -2.74373 0
M  V30 5072 O 459.179 3.67496 -4.04486 0
M  V30 5073 H 456.273 0.581918 -0.587623 0
M  V30 5074 H 458.819 0.544311 -1.60734 0
M  V30 5075 H 457.591 1.56521 -3.58632 0
M  V30 5076 H 457.214 2.98583 -2.62553 0
M  V30 5077 N 458.211 1.37122 0.776871 0
M  V30 5078 C 459.159 1.32549 1.91138 0
M  V30 5079 C 460.153 0.215119 1.68029 0
M  V30 5080 O 461.359 0.382852 1.75881 0
M  V30 5081 H 457.734 0.412952 0.62847 0
M  V30 5082 H 459.705 2.28332 1.92112 0
M  V30 5083 C 458.454 1.14422 3.28333 0
M  V30 5084 H 457.777 1.99115 3.46689 0
M  V30 5085 H 459.217 1.15272 4.0803 0
M  V30 5086 C 457.676 -0.150434 3.36564 0
M  V30 5087 O 458.206 -1.13584 3.85307 0
M  V30 5088 N 456.412 -0.19939 2.89915 0
M  V30 5089 H 455.959 0.603142 2.5044 0
M  V30 5090 H 455.917 -1.06526 2.95803 0
M  V30 5091 N 459.689 -1.00246 1.21608 0
M  V30 5092 C 460.966 -1.71336 0.943568 0
M  V30 5093 C 461.346 -2.03972 -0.543943 0
M  V30 5094 O 460.694 -1.71545 -1.50946 0
M  V30 5095 C 460.904 -2.97094 1.83128 0
M  V30 5096 C 462.252 -3.70071 2.08165 0
M  V30 5097 O 463.276 -3.07081 1.80498 0
M  V30 5098 O 462.135 -4.83376 2.54971 0
M  V30 5099 H 459.229 -0.747386 0.354039 0
M  V30 5100 H 461.775 -1.05967 1.32549 0
M  V30 5101 H 460.547 -2.69407 2.83788 0
M  V30 5102 H 460.17 -3.70204 1.45034 0
M  V30 5103 N 461.167 -1.02423 -1.1978 0
M  V30 5104 C 462.114 -0.601023 -2.22837 0
M  V30 5105 C 463.084 0.382801 -1.61629 0
M  V30 5106 O 464.269 0.280514 -1.88727 0
M  V30 5107 C 461.409 0.0467755 -3.45068 0
M  V30 5108 C 460.522 -0.98253 -4.20678 0
M  V30 5109 C 459.657 -0.304982 -5.30324 0
M  V30 5110 C 458.696 -1.32052 -5.97686 0
M  V30 5111 N 457.833 -0.669105 -6.98904 0
M  V30 5112 H 462.673 -1.48444 -2.58396 0
M  V30 5113 H 460.21 -0.742936 -1.2696 0
M  V30 5114 H 462.168 0.439556 -4.14878 0
M  V30 5115 H 460.798 0.893796 -3.10179 0
M  V30 5116 H 459.85 -1.49341 -3.49859 0
M  V30 5117 H 461.162 -1.75455 -4.66923 0
M  V30 5118 H 460.316 0.142893 -6.06532 0
M  V30 5119 H 459.055 0.499283 -4.85138 0
M  V30 5120 H 458.06 -1.7787 -5.20233 0
M  V30 5121 H 459.285 -2.1262 -6.44957 0
M  V30 5122 H 457.231 0.115152 -6.55899 0
M  V30 5123 H 457.148 -1.37908 -7.43315 0
M  V30 5124 H 458.416 -0.245076 -7.79115 0
M  V30 5125 N 462.645 1.35699 -0.801477 0
M  V30 5126 C 463.555 2.33661 -0.209691 0
M  V30 5127 C 464.571 1.6162 0.644591 0
M  V30 5128 O 465.747 1.93529 0.557545 0
M  V30 5129 C 462.812 3.40816 0.636033 0
M  V30 5130 C 461.873 4.28639 -0.238147 0
M  V30 5131 C 461.106 5.30676 0.567307 0
M  V30 5132 O 461.329 5.41174 1.8024 0
M  V30 5133 O 460.263 6.01887 -0.0391336 0
M  V30 5134 H 464.089 2.8606 -1.01996 0
M  V30 5135 H 461.674 1.38379 -0.563164 0
M  V30 5136 H 463.556 4.06301 1.11791 0
M  V30 5137 H 462.231 2.90696 1.42399 0
M  V30 5138 H 461.138 3.66152 -0.767044 0
M  V30 5139 H 462.471 4.82143 -0.989915 0
M  V30 5140 N 464.123 0.554532 1.47522 0
M  V30 5141 C 465.353 0.0342074 2.06572 0
M  V30 5142 C 465.761 -1.26375 1.40805 0
M  V30 5143 O 465.104 -1.7683 0.49769 0
M  V30 5144 C 465.166 -0.235096 3.5873 0
M  V30 5145 C 464.83 0.973024 4.46521 0
M  V30 5146 C 465.827 1.8779 4.848 0
M  V30 5147 C 463.512 1.18694 4.88075 0
M  V30 5148 C 465.506 2.98039 5.63428 0
M  V30 5149 C 463.193 2.29254 5.66468 0
M  V30 5150 C 464.191 3.18757 6.04055 0
M  V30 5151 O 463.879 4.27401 6.8087 0
M  V30 5152 H 463.611 0.041587 0.67472 0
M  V30 5153 H 466.165 0.766748 1.90552 0
M  V30 5154 H 464.395 -1.02191 3.72953 0
M  V30 5155 H 466.084 -0.700477 3.9981 0
M  V30 5156 H 466.85 1.72467 4.53299 0
M  V30 5157 H 462.729 0.49947 4.58286 0
M  V30 5158 H 466.273 3.67926 5.92685 0
M  V30 5159 H 462.17 2.4455 5.97382 0
M  V30 5160 H 462.938 4.25415 6.9926 0
M  V30 5161 N 465.601 -1.54893 0.290851 0
M  V30 5162 C 466.531 -2.26103 -0.583084 0
M  V30 5163 C 467.512 -1.25684 -1.14619 0
M  V30 5164 O 468.697 -1.54436 -1.17741 0
M  V30 5165 C 465.827 -2.99409 -1.75987 0
M  V30 5166 C 464.781 -4.0689 -1.32758 0
M  V30 5167 C 464.107 -4.67856 -2.58872 0
M  V30 5168 C 465.407 -5.20215 -0.46624 0
M  V30 5169 H 467.101 -2.99398 0.0108214 0
M  V30 5170 H 464.647 -1.43998 0.00664468 0
M  V30 5171 H 466.6 -3.47943 -2.37727 0
M  V30 5172 H 465.324 -2.23675 -2.37985 0
M  V30 5173 H 463.983 -3.59191 -0.733299 0
M  V30 5174 H 463.631 -3.88772 -3.19163 0
M  V30 5175 H 463.331 -5.40438 -2.30653 0
M  V30 5176 H 464.855 -5.19147 -3.21433 0
M  V30 5177 H 466.269 -5.64704 -0.989047 0
M  V30 5178 H 464.666 -5.99455 -0.27826 0
M  V30 5179 H 465.736 -4.82198 0.511173 0
M  V30 5180 N 467.08 -0.0183926 -1.57589 0
M  V30 5181 C 468.326 0.663543 -1.91638 0
M  V30 5182 C 468.659 1.72392 -0.894134 0
M  V30 5183 O 467.934 1.94316 0.0846449 0
M  V30 5184 C 468.217 1.28984 -3.36207 0
M  V30 5185 C 468.07 0.239761 -4.49161 0
M  V30 5186 C 469.389 2.2109 -3.80536 0
M  V30 5187 H 466.508 0.239746 -0.696915 0
M  V30 5188 H 469.15 -0.073456 -1.89858 0
M  V30 5189 H 467.3 1.91799 -3.37854 0
M  V30 5190 H 468.972 -0.390119 -4.59647 0
M  V30 5191 H 467.215 -0.435972 -4.31604 0
M  V30 5192 H 467.886 0.717383 -5.47319 0
M  V30 5193 H 470.362 1.68273 -3.80557 0
M  V30 5194 H 469.238 2.61869 -4.82406 0
M  V30 5195 H 469.499 3.09764 -3.15434 0
M  V30 5196 N 468.558 1.5553 0.254621 0
M  V30 5197 C 469.488 1.9268 1.31897 0
M  V30 5198 C 470.469 0.790797 1.506 0
M  V30 5199 O 471.654 1.05045 1.63337 0
M  V30 5200 C 468.784 2.21477 2.67517 0
M  V30 5201 C 467.738 3.37256 2.63519 0
M  V30 5202 C 467.064 3.51576 4.02862 0
M  V30 5203 C 468.364 4.73157 2.21179 0
M  V30 5204 H 470.058 2.81832 1.01051 0
M  V30 5205 H 467.604 1.35599 0.484662 0
M  V30 5206 H 469.557 2.46055 3.42104 0
M  V30 5207 H 468.281 1.29144 2.99982 0
M  V30 5208 H 466.94 3.12675 1.9139 0
M  V30 5209 H 466.588 2.56676 4.32581 0
M  V30 5210 H 466.288 4.2943 4.01078 0
M  V30 5211 H 467.812 3.78467 4.79161 0
M  V30 5212 H 469.226 4.97158 2.85494 0
M  V30 5213 H 467.623 5.54058 2.30521 0
M  V30 5214 H 468.693 4.70739 1.16332 0
M  V30 5215 N 470.036 -0.519951 1.48776 0
M  V30 5216 C 471.264 -1.29971 1.60982 0
M  V30 5217 C 471.679 -1.86803 0.273885 0
M  V30 5218 O 471.036 -1.66904 -0.738193 0
M  V30 5219 C 471.087 -2.44346 2.66415 0
M  V30 5220 O 470.808 -1.89855 3.94825 0
M  V30 5221 C 472.309 -3.36014 2.89153 0
M  V30 5222 H 469.529 -0.394891 0.542496 0
M  V30 5223 H 472.073 -0.626214 1.94676 0
M  V30 5224 H 470.228 -3.07562 2.35552 0
M  V30 5225 H 470.642 -2.64798 4.5275 0
M  V30 5226 H 472.116 -4.12593 3.66703 0
M  V30 5227 H 472.593 -3.91859 1.98351 0
M  V30 5228 H 473.199 -2.78582 3.21359 0
M  V30 5229 N 471.514 -1.37532 -0.769588 0
M  V30 5230 C 472.444 -1.36172 -1.89682 0
M  V30 5231 C 473.425 -0.23001 -1.68538 0
M  V30 5232 O 474.61 -0.43069 -1.89364 0
M  V30 5233 C 471.74 -1.1701 -3.26995 0
M  V30 5234 C 470.694 -2.27216 -3.62708 0
M  V30 5235 C 470.02 -1.93174 -4.98586 0
M  V30 5236 C 471.32 -3.6941 -3.69234 0
M  V30 5237 H 473.014 -2.30499 -1.91078 0
M  V30 5238 H 470.56 -1.10953 -0.917902 0
M  V30 5239 H 472.513 -1.14688 -4.05493 0
M  V30 5240 H 471.237 -0.191395 -3.26039 0
M  V30 5241 H 469.896 -2.28697 -2.86519 0
M  V30 5242 H 469.544 -0.938281 -4.94171 0
M  V30 5243 H 469.244 -2.66973 -5.23449 0
M  V30 5244 H 470.768 -1.92443 -5.79481 0
M  V30 5245 H 472.182 -3.70047 -4.37879 0
M  V30 5246 H 470.579 -4.4228 -4.05597 0
M  V30 5247 H 471.649 -4.0288 -2.69844 0
M  V30 5248 N 472.992 0.995999 -1.22138 0
M  V30 5249 C 474.22 1.77066 -1.07029 0
M  V30 5250 C 474.635 1.8495 0.379357 0
M  V30 5251 O 473.992 1.3174 1.26297 0
M  V30 5252 C 474.043 3.20533 -1.67155 0
M  V30 5253 O 473.764 3.13082 -3.06449 0
M  V30 5254 C 475.265 4.14461 -1.5728 0
M  V30 5255 H 472.485 0.556179 -0.375374 0
M  V30 5256 H 475.029 1.25238 -1.61666 0
M  V30 5257 H 473.184 3.6944 -1.16589 0
M  V30 5258 H 473.598 4.03283 -3.35355 0
M  V30 5259 H 475.072 5.1289 -2.04078 0
M  V30 5260 H 475.549 4.36005 -0.528795 0
M  V30 5261 H 476.155 3.71449 -2.07136 0
M  V30 5262 N 474.47 1.03057 1.19235 0
M  V30 5263 C 475.417 0.612832 2.22515 0
M  V30 5264 C 476.387 -0.374224 1.61829 0
M  V30 5265 O 477.572 -0.270501 1.88873 0
M  V30 5266 C 474.712 -0.028475 3.45088 0
M  V30 5267 C 473.825 1.00483 4.20151 0
M  V30 5268 C 472.96 0.333102 5.30155 0
M  V30 5269 C 471.999 1.3522 5.96977 0
M  V30 5270 N 471.136 0.70616 6.9854 0
M  V30 5271 H 475.976 1.49812 2.57605 0
M  V30 5272 H 473.513 0.749658 1.26564 0
M  V30 5273 H 475.471 -0.417548 4.15105 0
M  V30 5274 H 474.101 -0.877334 3.10649 0
M  V30 5275 H 473.153 1.51194 3.49062 0
M  V30 5276 H 474.465 1.77929 4.65986 0
M  V30 5277 H 473.619 -0.110725 6.06599 0
M  V30 5278 H 472.358 -0.473547 4.85396 0
M  V30 5279 H 471.363 1.80627 5.19282 0
M  V30 5280 H 472.588 2.16037 6.4382 0
M  V30 5281 H 470.534 -0.0803667 6.55951 0
M  V30 5282 H 470.451 1.41848 7.42573 0
M  V30 5283 H 471.719 0.286391 7.78974 0
M  V30 5284 N 475.948 -1.35272 0.808662 0
M  V30 5285 C 476.896 -2.31663 0.208606 0
M  V30 5286 C 477.89 -1.56731 -0.642778 0
M  V30 5287 O 479.096 -1.71843 -0.53571 0
M  V30 5288 H 475.471 -0.750421 0.0486993 0
M  V30 5289 H 477.442 -2.79814 1.03666 0
M  V30 5290 C 476.191 -3.42008 -0.626573 0
M  V30 5291 H 475.514 -3.99795 0.0192103 0
M  V30 5292 H 476.954 -4.11727 -1.01278 0
M  V30 5293 C 475.413 -2.85226 -1.79298 0
M  V30 5294 O 475.943 -2.78945 -2.89055 0
M  V30 5295 N 474.149 -2.42245 -1.60516 0
M  V30 5296 H 473.696 -2.47554 -0.712375 0
M  V30 5297 H 473.654 -2.04603 -2.38715 0
M  V30 5298 N 477.426 -0.562348 -1.47226 0
M  V30 5299 C 478.703 0.0256985 -1.95583 0
M  V30 5300 C 479.083 1.48032 -1.50498 0
M  V30 5301 O 478.431 2.15973 -0.746181 0
M  V30 5302 C 478.641 -0.125129 -3.48776 0
M  V30 5303 C 479.989 0.0175728 -4.24596 0
M  V30 5304 O 481.013 -0.0529341 -3.56161 0
M  V30 5305 O 479.872 0.170145 -5.46235 0
M  V30 5306 H 476.966 0.0612565 -0.824728 0
M  V30 5307 H 479.512 -0.629233 -1.57603 0
M  V30 5308 H 478.284 -1.13715 -3.74412 0
M  V30 5309 H 477.907 0.567178 -3.93534 0
M  V30 5310 N 478.904 1.54736 -0.299062 0
M  V30 5311 C 479.834 2.26409 0.571085 0
M  V30 5312 C 480.815 1.2629 1.13951 0
M  V30 5313 O 482 1.55059 1.16921 0
M  V30 5314 C 479.13 3.00338 1.74396 0
M  V30 5315 C 478.084 4.07588 1.30599 0
M  V30 5316 C 477.41 4.69222 2.56387 0
M  V30 5317 C 478.71 5.20455 0.438645 0
M  V30 5318 H 480.404 2.99388 -0.0266991 0
M  V30 5319 H 477.95 1.43993 -0.0142812 0
M  V30 5320 H 479.903 3.49198 2.35878 0
M  V30 5321 H 478.627 2.24934 2.36796 0
M  V30 5322 H 477.286 3.59575 0.71424 0
M  V30 5323 H 476.934 3.9046 3.17097 0
M  V30 5324 H 476.634 5.41653 2.27784 0
M  V30 5325 H 478.158 5.20844 3.18675 0
M  V30 5326 H 479.572 5.65221 0.959085 0
M  V30 5327 H 477.969 5.99594 0.246466 0
M  V30 5328 H 479.039 4.8192 -0.536738 0
M  V30 5329 N 480.382 0.0267497 1.57577 0
M  V30 5330 C 481.659 -0.690926 1.82991 0
M  V30 5331 C 482.039 -1.90471 0.910164 0
M  V30 5332 O 481.387 -2.28474 -0.0347985 0
M  V30 5333 C 481.597 -1.07139 3.32148 0
M  V30 5334 C 482.945 -1.46402 3.98562 0
M  V30 5335 O 483.969 -1.16443 3.36629 0
M  V30 5336 O 482.828 -2.02214 5.07712 0
M  V30 5337 H 479.922 -0.338747 0.75444 0
M  V30 5338 H 482.468 0.0542506 1.69613 0
M  V30 5339 H 481.24 -0.207394 3.9075 0
M  V30 5340 H 480.863 -1.87481 3.50623 0
M  V30 5341 N 481.861 -1.55662 -0.24637 0
M  V30 5342 C 482.808 -1.90361 -1.30504 0
M  V30 5343 C 483.778 -0.757905 -1.47801 0
M  V30 5344 O 484.963 -1.01161 -1.61775 0
M  V30 5345 C 482.103 -2.2042 -2.65535 0
M  V30 5346 C 481.216 -3.47799 -2.56242 0
M  V30 5347 C 480.351 -3.67426 -3.8363 0
M  V30 5348 C 479.39 -4.88403 -3.68956 0
M  V30 5349 N 478.527 -5.04548 -4.88237 0
M  V30 5350 H 483.367 -2.80645 -1.00213 0
M  V30 5351 H 480.904 -1.38924 -0.483577 0
M  V30 5352 H 482.862 -2.35853 -3.44135 0
M  V30 5353 H 481.492 -1.3334 -2.93973 0
M  V30 5354 H 480.544 -3.40694 -1.69208 0
M  V30 5355 H 481.856 -4.36544 -2.4131 0
M  V30 5356 H 481.01 -3.82821 -4.70673 0
M  V30 5357 H 479.749 -2.76914 -4.01459 0
M  V30 5358 H 478.754 -4.72984 -2.80296 0
M  V30 5359 H 479.979 -5.80375 -3.52621 0
M  V30 5360 H 477.925 -4.16974 -5.06427 0
M  V30 5361 H 477.842 -5.87384 -4.75937 0
M  V30 5362 H 479.11 -5.24355 -5.76777 0
M  V30 5363 N 483.339 0.512053 -1.4905 0
M  V30 5364 C 484.302 1.59704 -1.64399 0
M  V30 5365 C 485.302 1.52285 -0.516317 0
M  V30 5366 O 486.492 1.55635 -0.782527 0
M  V30 5367 C 483.624 2.9935 -1.63102 0
M  V30 5368 H 484.817 1.47428 -2.61161 0
M  V30 5369 H 482.37 0.735469 -1.37915 0
M  V30 5370 H 483.105 3.17116 -0.678836 0
M  V30 5371 H 482.89 3.06144 -2.44986 0
M  V30 5372 H 484.38 3.782 -1.77072 0
M  V30 5373 N 484.817 1.37938 0.762283 0
M  V30 5374 C 485.765 1.34569 1.89721 0
M  V30 5375 C 486.759 0.232929 1.67791 0
M  V30 5376 O 487.965 0.401485 1.75465 0
M  V30 5377 H 484.34 0.419594 0.624055 0
M  V30 5378 H 486.311 2.30357 1.8968 0
M  V30 5379 C 485.06 1.17898 3.27101 0
M  V30 5380 H 484.383 2.02781 3.44558 0
M  V30 5381 H 485.823 1.19593 4.06784 0
M  V30 5382 C 484.282 -0.114728 3.36705 0
M  V30 5383 O 484.812 -1.0949 3.8649 0
M  V30 5384 N 483.018 -0.16863 2.9011 0
M  V30 5385 H 482.565 0.62967 2.49786 0
M  V30 5386 H 482.523 -1.03383 2.96916 0
M  V30 5387 N 486.295 -0.989507 1.22664 0
M  V30 5388 C 487.242 -2.08024 0.999733 0
M  V30 5389 C 488.212 -1.65909 -0.0797047 0
M  V30 5390 O 489.397 -1.90669 0.0705715 0
M  V30 5391 C 486.537 -3.40067 0.587234 0
M  V30 5392 C 485.65 -3.95505 1.73781 0
M  V30 5393 C 484.785 -5.15722 1.27297 0
M  V30 5394 C 483.824 -5.63305 2.39488 0
M  V30 5395 N 482.961 -6.74758 1.94026 0
M  V30 5396 H 487.801 -2.26768 1.9334 0
M  V30 5397 H 485.338 -1.11171 0.963297 0
M  V30 5398 H 487.296 -4.15899 0.329227 0
M  V30 5399 H 485.926 -3.21314 -0.309426 0
M  V30 5400 H 484.978 -3.16513 2.11006 0
M  V30 5401 H 486.29 -4.26797 2.58158 0
M  V30 5402 H 485.444 -5.98854 0.972546 0
M  V30 5403 H 484.183 -4.86061 0.399445 0
M  V30 5404 H 483.188 -4.78759 2.70315 0
M  V30 5405 H 484.413 -5.94988 3.27362 0
M  V30 5406 H 482.359 -6.46874 1.09041 0
M  V30 5407 H 482.276 -7.05386 2.71968 0
M  V30 5408 H 483.544 -7.61387 1.67062 0
M  V30 5409 N 487.773 -1.03688 -1.18687 0
M  V30 5410 C 489.05 -0.652397 -1.84399 0
M  V30 5411 C 489.43 0.868386 -1.92412 0
M  V30 5412 O 488.778 1.76832 -1.44716 0
M  V30 5413 C 488.988 -1.3238 -3.22919 0
M  V30 5414 C 490.336 -1.45216 -3.98996 0
M  V30 5415 O 491.36 -1.2816 -3.32345 0
M  V30 5416 O 490.219 -1.72975 -5.18403 0
M  V30 5417 H 487.313 -0.227793 -0.795009 0
M  V30 5418 H 489.859 -1.13553 -1.2611 0
M  V30 5419 H 488.631 -2.36202 -3.11968 0
M  V30 5420 H 488.254 -0.829039 -3.88861 0
M  V30 5421 N 489.251 1.34841 -0.815825 0
M  V30 5422 C 490.198 2.29644 -0.230664 0
M  V30 5423 C 491.168 1.53253 0.640533 0
M  V30 5424 O 492.353 1.81653 0.583672 0
M  V30 5425 C 489.493 3.39715 0.607275 0
M  V30 5426 C 488.606 4.31056 -0.28538 0
M  V30 5427 C 487.741 5.28225 0.561446 0
M  V30 5428 C 486.78 6.11204 -0.331035 0
M  V30 5429 N 485.917 7.00483 0.476302 0
M  V30 5430 H 490.757 2.79095 -1.0445 0
M  V30 5431 H 488.294 1.37351 -0.526595 0
M  V30 5432 H 490.252 4.02208 1.10835 0
M  V30 5433 H 488.882 2.91517 1.38629 0
M  V30 5434 H 487.934 3.69487 -0.904621 0
M  V30 5435 H 489.246 4.89239 -0.97193 0
M  V30 5436 H 488.4 5.96135 1.12728 0
M  V30 5437 H 487.139 4.70562 1.28153 0
M  V30 5438 H 486.144 5.42232 -0.909069 0
M  V30 5439 H 487.369 6.70947 -1.04912 0
M  V30 5440 H 485.315 6.45296 1.18019 0
M  V30 5441 H 485.232 7.55847 -0.152008 0
M  V30 5442 H 486.5 7.7273 1.02512 0
M  V30 5443 N 490.729 0.570148 1.46925 0
M  V30 5444 C 491.692 -0.159933 2.28641 0
M  V30 5445 C 492.692 -0.830638 1.37685 0
M  V30 5446 O 493.882 -0.684516 1.60187 0
M  V30 5447 C 491.014 -1.2354 3.17727 0
M  V30 5448 H 492.207 0.558035 2.94662 0
M  V30 5449 H 489.76 0.327603 1.52828 0
M  V30 5450 H 490.495 -1.98535 2.56426 0
M  V30 5451 H 490.28 -0.759125 3.84681 0
M  V30 5452 H 491.77 -1.74782 3.79264 0
M  V30 5453 N 492.207 -1.54576 0.307264 0
M  V30 5454 C 493.155 -2.25208 -0.581723 0
M  V30 5455 C 494.149 -1.26031 -1.13192 0
M  V30 5456 O 495.355 -1.43862 -1.08184 0
M  V30 5457 H 491.73 -0.723173 -0.206214 0
M  V30 5458 H 493.701 -2.98378 0.0364663 0
M  V30 5459 C 492.45 -3.01086 -1.73904 0
M  V30 5460 H 491.773 -3.77208 -1.32491 0
M  V30 5461 H 493.213 -3.5378 -2.33701 0
M  V30 5462 C 491.672 -2.08422 -2.64692 0
M  V30 5463 O 492.202 -1.65636 -3.65961 0
M  V30 5464 N 490.408 -1.74247 -2.32564 0
M  V30 5465 H 489.955 -2.09238 -1.50257 0
M  V30 5466 H 489.913 -1.12524 -2.93574 0
M  V30 5467 N 493.685 -0.035106 -1.57561 0
M  V30 5468 C 495.101 0.321334 -1.56332 0
M  V30 5469 C 495.301 1.72509 -1.04129 0
M  V30 5470 O 494.357 2.4287 -0.690694 0
M  V30 5471 C 495.67 0.164469 -3.0025 0
M  V30 5472 C 497.218 0.236786 -3.12103 0
M  V30 5473 C 497.693 0.10864 -4.57871 0
M  V30 5474 N 499.184 0.165433 -4.62904 0
M  V30 5475 C 499.919 0.0901506 -5.73329 0
M  V30 5476 N 499.415 -0.0365606 -6.9279 0
M  V30 5477 N 501.208 0.144572 -5.61914 0
M  V30 5478 H 493.359 -0.952976 -1.89821 0
M  V30 5479 H 495.622 -0.368537 -0.873432 0
M  V30 5480 H 495.328 -0.802746 -3.42416 0
M  V30 5481 H 495.202 0.932194 -3.655 0
M  V30 5482 H 497.589 1.19446 -2.69845 0
M  V30 5483 H 497.67 -0.561419 -2.49563 0
M  V30 5484 H 497.314 -0.845644 -5.00811 0
M  V30 5485 H 497.244 0.925786 -5.18398 0
M  V30 5486 H 499.735 0.263269 -3.76982 0
M  V30 5487 H 500.048 -0.0871487 -7.72751 0
M  V30 5488 H 498.393 -0.0714256 -6.94963 0
M  V30 5489 H 501.584 0.242006 -4.67474 0
M  V30 5490 H 501.757 0.0824413 -6.47948 0
M  V30 5491 N 495.163 1.55791 0.238111 0
M  V30 5492 C 496.393 1.81834 0.980809 0
M  V30 5493 C 496.801 0.609741 1.79106 0
M  V30 5494 O 496.144 -0.431073 1.78571 0
M  V30 5495 C 496.206 3.01363 1.96011 0
M  V30 5496 C 495.87 4.37037 1.33597 0
M  V30 5497 C 496.867 5.14692 0.734063 0
M  V30 5498 C 494.552 4.83743 1.3527 0
M  V30 5499 C 496.546 6.37206 0.157208 0
M  V30 5500 C 494.233 6.06204 0.77199 0
M  V30 5501 C 495.231 6.82775 0.175282 0
M  V30 5502 O 494.919 8.02922 -0.396432 0
M  V30 5503 H 494.651 0.6088 0.293834 0
M  V30 5504 H 497.205 2.03702 0.263552 0
M  V30 5505 H 495.435 2.75273 2.71591 0
M  V30 5506 H 497.124 3.14422 2.56697 0
M  V30 5507 H 497.89 4.79722 0.713582 0
M  V30 5508 H 493.769 4.24129 1.80653 0
M  V30 5509 H 497.313 6.96915 -0.30917 0
M  V30 5510 H 493.21 6.4065 0.789828 0
M  V30 5511 H 493.978 8.17989 -0.289145 0
M  V30 5512 N 496.642 -0.504142 1.49319 0
M  V30 5513 C 497.889 -1.25846 1.58647 0
M  V30 5514 C 498.217 -1.92592 0.27177 0
M  V30 5515 O 497.472 -1.81167 -0.74007 0
M  V30 5516 C 497.771 -2.35021 2.69258 0
M  V30 5517 C 497.437 -1.85755 4.1086 0
M  V30 5518 C 496.099 -1.72038 4.49395 0
M  V30 5519 C 498.451 -1.48844 4.99495 0
M  V30 5520 C 495.779 -1.19783 5.74342 0
M  V30 5521 C 498.131 -0.980422 6.24956 0
M  V30 5522 C 496.795 -0.829622 6.62324 0
M  V30 5523 H 496.065 -0.460505 0.580531 0
M  V30 5524 H 498.712 -0.559716 1.83138 0
M  V30 5525 H 497.017 -3.10672 2.38726 0
M  V30 5526 H 498.714 -2.93083 2.73685 0
M  V30 5527 H 495.304 -1.9739 3.80441 0
M  V30 5528 H 499.488 -1.5829 4.70381 0
M  V30 5529 H 494.744 -1.06817 6.01997 0
M  V30 5530 H 498.918 -0.685608 6.93017 0
M  V30 5531 H 496.545 -0.42253 7.59025 0
M  V30 5532 N 498.12 -1.38341 -0.754957 0
M  V30 5533 C 499.345 -1.37882 -1.5493 0
M  V30 5534 C 499.77 0.0296385 -1.88077 0
M  V30 5535 O 499.128 1.01133 -1.50472 0
M  V30 5536 C 499.176 -2.23996 -2.82592 0
M  V30 5537 O 498.28 -1.65612 -3.77686 0
M  V30 5538 H 497.621 -0.470384 -0.468652 0
M  V30 5539 H 500.151 -1.82084 -0.933082 0
M  V30 5540 H 500.161 -2.37806 -3.3153 0
M  V30 5541 H 498.836 -3.26365 -2.57796 0
M  V30 5542 H 497.413 -1.60936 -3.36384 0
M  V30 5543 N 499.598 0.982988 -1.23187 0
M  V30 5544 C 501.009 1.53847 -1.05773 0
M  V30 5545 C 501.36 1.92568 0.375744 0
M  V30 5546 O 500.485 1.75783 1.26211 0
M  V30 5547 C 501.08 2.79567 -1.91384 0
M  V30 5548 C 499.639 3.31524 -1.78238 0
M  V30 5549 C 498.786 2.04534 -1.87246 0
M  V30 5550 H 501.737 0.802962 -1.36888 0
M  V30 5551 H 501.758 3.52317 -1.43711 0
M  V30 5552 H 501.27 2.51353 -2.95708 0
M  V30 5553 H 499.371 3.64623 -0.766875 0
M  V30 5554 H 499.484 4.01457 -2.61475 0
M  V30 5555 H 497.848 2.1855 -1.30797 0
M  V30 5556 H 498.631 1.78706 -2.9312 0
M  V30 5557 N 501.076 1.04316 1.18135 0
M  V30 5558 C 502.024 0.630175 2.23901 0
M  V30 5559 C 503.018 -0.344254 1.65865 0
M  V30 5560 O 504.224 -0.211273 1.78756 0
M  V30 5561 H 500.599 0.185578 0.728742 0
M  V30 5562 H 502.57 1.53253 2.56039 0
M  V30 5563 C 501.319 0.011666 3.47698 0
M  V30 5564 H 500.642 0.752526 3.92654 0
M  V30 5565 H 502.082 -0.240046 4.2332 0
M  V30 5566 C 500.541 -1.23913 3.13285 0
M  V30 5567 O 501.071 -2.32959 3.27251 0
M  V30 5568 N 499.277 -1.13338 2.67587 0
M  V30 5569 H 498.824 -0.246006 2.56423 0
M  V30 5570 H 498.782 -1.97116 2.44934 0
M  V30 5571 N 502.554 -1.34406 0.822964 0
M  V30 5572 C 503.801 -1.98284 0.411057 0
M  V30 5573 C 504.129 -1.65245 -1.02588 0
M  V30 5574 O 503.384 -0.91619 -1.72929 0
M  V30 5575 C 503.683 -3.52981 0.560268 0
M  V30 5576 C 503.349 -4.05931 1.96293 0
M  V30 5577 C 502.011 -4.20103 2.34664 0
M  V30 5578 C 504.363 -4.34412 2.87985 0
M  V30 5579 C 501.691 -4.60082 3.64062 0
M  V30 5580 C 504.043 -4.75838 4.16847 0
M  V30 5581 C 502.707 -4.88215 4.55195 0
M  V30 5582 H 501.977 -0.725573 0.150416 0
M  V30 5583 H 504.624 -1.60349 1.04692 0
M  V30 5584 H 502.929 -3.91477 -0.158982 0
M  V30 5585 H 504.626 -4.00385 0.222087 0
M  V30 5586 H 501.216 -3.95363 1.65487 0
M  V30 5587 H 505.4 -4.23001 2.59584 0
M  V30 5588 H 500.656 -4.67856 3.93599 0
M  V30 5589 H 504.83 -4.96834 4.87984 0
M  V30 5590 H 502.457 -5.18952 5.55512 0
M  V30 5591 N 504.032 -0.577932 -1.46621 0
M  V30 5592 C 504.979 0.158048 -2.30258 0
M  V30 5593 C 505.949 0.888669 -1.40328 0
M  V30 5594 O 507.134 0.880283 -1.6928 0
M  V30 5595 C 504.274 1.16884 -3.24703 0
M  V30 5596 C 503.387 0.442163 -4.29731 0
M  V30 5597 C 502.522 1.44007 -5.11308 0
M  V30 5598 C 501.561 0.69952 -6.0809 0
M  V30 5599 N 500.698 1.64525 -6.82551 0
M  V30 5600 H 505.538 -0.561242 -2.92667 0
M  V30 5601 H 503.075 -0.288591 -1.44241 0
M  V30 5602 H 505.033 1.7677 -3.779 0
M  V30 5603 H 503.663 1.85591 -2.64113 0
M  V30 5604 H 502.715 -0.271632 -3.79429 0
M  V30 5605 H 504.027 -0.136992 -4.98612 0
M  V30 5606 H 503.181 2.11186 -5.68758 0
M  V30 5607 H 501.92 2.05315 -4.42377 0
M  V30 5608 H 500.925 0.0139217 -5.49798 0
M  V30 5609 H 502.15 0.091894 -6.79038 0
M  V30 5610 H 500.096 2.24653 -6.16334 0
M  V30 5611 H 500.013 1.11878 -7.47676 0
M  V30 5612 H 501.281 2.30754 -7.44562 0
M  V30 5613 N 505.51 1.54411 -0.315457 0
M  V30 5614 C 506.756 2.00716 0.289972 0
M  V30 5615 C 507.089 1.2034 1.5242 0
M  V30 5616 O 506.364 0.283579 1.92422 0
M  V30 5617 C 506.647 3.54507 0.632196 0
M  V30 5618 C 506.5 4.45615 -0.61218 0
M  V30 5619 C 507.819 4.15421 1.45305 0
M  V30 5620 H 504.938 0.729637 0.10392 0
M  V30 5621 H 507.58 1.8506 -0.430427 0
M  V30 5622 H 505.73 3.67979 1.24595 0
M  V30 5623 H 507.402 4.44026 -1.25053 0
M  V30 5624 H 505.645 4.15621 -1.24264 0
M  V30 5625 H 506.316 5.51022 -0.328379 0
M  V30 5626 H 508.792 4.05474 0.934331 0
M  V30 5627 H 507.668 5.23157 1.66127 0
M  V30 5628 H 507.929 3.68223 2.44671 0
M  V30 5629 N 506.988 0.0434614 1.5754 0
M  V30 5630 C 507.935 -0.93356 2.11077 0
M  V30 5631 C 508.905 -1.31383 1.01626 0
M  V30 5632 O 510.09 -1.40465 1.29129 0
M  V30 5633 C 507.23 -2.20578 2.65404 0
M  V30 5634 C 506.343 -1.88068 3.88914 0
M  V30 5635 C 505.478 -3.09691 4.31584 0
M  V30 5636 C 504.517 -2.73067 5.47815 0
M  V30 5637 N 503.654 -3.87359 5.85574 0
M  V30 5638 H 508.494 -0.470118 2.94268 0
M  V30 5639 H 506.031 -0.220434 1.45439 0
M  V30 5640 H 507.989 -2.95011 2.94999 0
M  V30 5641 H 506.619 -2.64513 1.85021 0
M  V30 5642 H 505.671 -1.03816 3.6596 0
M  V30 5643 H 506.983 -1.57104 4.73413 0
M  V30 5644 H 506.137 -3.92431 4.62691 0
M  V30 5645 H 504.876 -3.43827 3.45882 0
M  V30 5646 H 503.881 -1.88742 5.16388 0
M  V30 5647 H 505.106 -2.40131 6.35227 0
M  V30 5648 H 503.052 -4.21311 5.02825 0
M  V30 5649 H 502.969 -3.60068 6.64746 0
M  V30 5650 H 504.237 -4.70761 6.21292 0
M  V30 5651 N 508.466 -1.55915 -0.229846 0
M  V30 5652 C 509.396 -1.94754 -1.28815 0
M  V30 5653 C 510.377 -0.814657 -1.49323 0
M  V30 5654 O 511.562 -1.07631 -1.61645 0
M  V30 5655 C 508.692 -2.25705 -2.63959 0
M  V30 5656 C 507.646 -3.41406 -2.5812 0
M  V30 5657 C 506.972 -3.57941 -3.97218 0
M  V30 5658 C 508.272 -4.76616 -2.13623 0
M  V30 5659 H 509.966 -2.83404 -0.965547 0
M  V30 5660 H 507.512 -1.36353 -0.463028 0
M  V30 5661 H 509.465 -2.51467 -3.38146 0
M  V30 5662 H 508.189 -1.339 -2.9789 0
M  V30 5663 H 506.848 -3.1568 -1.86391 0
M  V30 5664 H 506.496 -2.63526 -4.28443 0
M  V30 5665 H 506.196 -4.35757 -3.94195 0
M  V30 5666 H 507.72 -3.86042 -4.73079 0
M  V30 5667 H 509.134 -5.01637 -2.77549 0
M  V30 5668 H 507.531 -5.57655 -2.21677 0
M  V30 5669 H 508.601 -4.7253 -1.08829 0
M  V30 5670 N 509.944 0.496216 -1.49584 0
M  V30 5671 C 511.174 1.27209 -1.62793 0
M  V30 5672 C 511.582 1.86799 -0.300476 0
M  V30 5673 O 510.925 1.68802 0.724674 0
M  V30 5674 C 510.987 2.43812 -2.64189 0
M  V30 5675 C 510.651 2.05055 -4.08414 0
M  V30 5676 C 511.648 1.58752 -4.9507 0
M  V30 5677 C 509.333 2.14543 -4.54177 0
M  V30 5678 C 511.327 1.22448 -6.25528 0
M  V30 5679 C 509.014 1.77851 -5.84647 0
M  V30 5680 C 510.012 1.31878 -6.70147 0
M  V30 5681 O 509.7 0.956834 -7.98185 0
M  V30 5682 H 509.432 0.391848 -0.550846 0
M  V30 5683 H 511.986 0.601712 -1.96389 0
M  V30 5684 H 510.216 3.13941 -2.25783 0
M  V30 5685 H 511.905 3.05829 -2.66877 0
M  V30 5686 H 512.671 1.50863 -4.60939 0
M  V30 5687 H 508.55 2.49277 -3.87791 0
M  V30 5688 H 512.094 0.864933 -6.92217 0
M  V30 5689 H 507.991 1.8539 -6.18305 0
M  V30 5690 H 508.759 1.08789 -8.11238 0
M  V30 5691 N 511.423 1.38739 0.74761 0
M  V30 5692 C 512.67 1.35274 1.50689 0
M  V30 5693 C 512.998 -0.0553359 1.94421 0
M  V30 5694 O 512.253 -1.03365 1.66175 0
M  V30 5695 C 512.552 2.25992 2.7688 0
M  V30 5696 C 512.218 3.73854 2.5208 0
M  V30 5697 C 510.88 4.14145 2.45025 0
M  V30 5698 C 513.232 4.67427 2.30568 0
M  V30 5699 C 510.56 5.4609 2.14483 0
M  V30 5700 C 512.912 5.99635 2.01545 0
M  V30 5701 C 511.576 6.39004 1.92951 0
M  V30 5702 H 510.846 0.495003 0.55141 0
M  V30 5703 H 513.493 1.71145 0.859158 0
M  V30 5704 H 511.798 1.83196 3.46333 0
M  V30 5705 H 513.495 2.20611 3.34861 0
M  V30 5706 H 510.085 3.41913 2.58444 0
M  V30 5707 H 514.269 4.3714 2.34994 0
M  V30 5708 H 509.525 5.75528 2.06342 0
M  V30 5709 H 513.699 6.71678 1.83906 0
M  V30 5710 H 511.326 7.41165 1.6905 0
M  V30 5711 N 512.901 -0.976442 1.23707 0
M  V30 5712 C 514.129 -1.75341 1.09833 0
M  V30 5713 C 514.544 -1.8553 -0.349885 0
M  V30 5714 O 513.901 -1.33732 -1.24185 0
M  V30 5715 C 513.952 -3.17833 1.72233 0
M  V30 5716 O 513.673 -3.08167 3.11391 0
M  V30 5717 C 515.174 -4.11906 1.63853 0
M  V30 5718 H 512.394 -0.550137 0.384175 0
M  V30 5719 H 514.938 -1.2265 1.63638 0
M  V30 5720 H 513.093 -3.67538 1.22452 0
M  V30 5721 H 513.507 -3.97897 3.41729 0
M  V30 5722 H 514.981 -5.09579 2.12211 0
M  V30 5723 H 515.458 -4.35109 0.598092 0
M  V30 5724 H 516.064 -3.68107 2.13019 0
M  V30 5725 N 514.379 -1.04941 -1.1758 0
M  V30 5726 C 515.326 -0.648155 -2.21512 0
M  V30 5727 C 516.296 0.348431 -1.62404 0
M  V30 5728 O 517.481 0.240419 -1.89279 0
M  V30 5729 C 514.621 -0.0264291 -3.4509 0
M  V30 5730 C 513.734 -1.07154 -4.185 0
M  V30 5731 C 512.869 -0.417403 -5.29558 0
M  V30 5732 C 511.908 -1.447 -5.94751 0
M  V30 5733 N 511.045 -0.817203 -6.97328 0
M  V30 5734 H 515.885 -1.53891 -2.55189 0
M  V30 5735 H 513.422 -0.769699 -1.25356 0
M  V30 5736 H 515.38 0.351456 -4.15717 0
M  V30 5737 H 514.01 0.827802 -3.12005 0
M  V30 5738 H 513.062 -1.56728 -3.46613 0
M  V30 5739 H 514.374 -1.8532 -4.63096 0
M  V30 5740 H 513.528 0.0142061 -6.06698 0
M  V30 5741 H 512.267 0.396265 -4.86087 0
M  V30 5742 H 511.272 -1.88865 -5.16343 0
M  V30 5743 H 512.497 -2.26252 -6.40302 0
M  V30 5744 H 510.443 -0.0239995 -6.55996 0
M  V30 5745 H 510.36 -1.53644 -7.40223 0
M  V30 5746 H 511.628 -0.410283 -7.7842 0
M  V30 5747 N 515.857 1.33968 -0.830081 0
M  V30 5748 C 517.085 2.0228 -0.434773 0
M  V30 5749 C 517.5 1.62487 0.961419 0
M  V30 5750 O 516.857 0.833849 1.62337 0
M  V30 5751 C 516.908 3.5751 -0.535625 0
M  V30 5752 O 516.629 3.95864 -1.87679 0
M  V30 5753 C 518.13 4.43091 -0.136137 0
M  V30 5754 H 515.35 0.648151 -0.173613 0
M  V30 5755 H 517.894 1.71089 -1.12022 0
M  V30 5756 H 516.049 3.87266 0.101817 0
M  V30 5757 H 516.463 4.9056 -1.85609 0
M  V30 5758 H 517.937 5.51398 -0.257772 0
M  V30 5759 H 518.414 4.29433 0.921076 0
M  V30 5760 H 519.02 4.18677 -0.747662 0
M  V30 5761 N 517.335 0.585699 1.46312 0
M  V30 5762 C 518.581 0.0725284 2.0267 0
M  V30 5763 C 518.914 -1.28523 1.45586 0
M  V30 5764 O 518.189 -1.84283 0.622101 0
M  V30 5765 C 518.472 0.0099788 3.60099 0
M  V30 5766 C 518.325 1.39685 4.27561 0
M  V30 5767 C 519.644 -0.689117 4.34671 0
M  V30 5768 H 516.763 0.0278307 0.736474 0
M  V30 5769 H 519.405 0.753472 1.74421 0
M  V30 5770 H 517.555 -0.56992 3.84297 0
M  V30 5771 H 519.227 2.02215 4.14617 0
M  V30 5772 H 517.47 1.96374 3.86807 0
M  V30 5773 H 518.141 1.30553 5.36339 0
M  V30 5774 H 520.617 -0.196446 4.15636 0
M  V30 5775 H 519.493 -0.701921 5.44393 0
M  V30 5776 H 519.754 -1.75101 4.05946 0
M  V30 5777 N 518.813 -1.54241 0.323641 0
M  V30 5778 C 519.723 -2.28033 -0.551205 0
M  V30 5779 C 520.739 -1.32388 -1.12913 0
M  V30 5780 O 521.915 -1.65403 -1.14908 0
M  V30 5781 C 518.98 -3.02382 -1.69606 0
M  V30 5782 C 518.041 -4.13612 -1.14993 0
M  V30 5783 C 517.274 -4.84407 -2.24022 0
M  V30 5784 O 517.497 -4.54716 -3.44368 0
M  V30 5785 O 516.431 -5.71312 -1.89436 0
M  V30 5786 H 520.257 -3.03662 0.048066 0
M  V30 5787 H 517.842 -1.49133 0.0893289 0
M  V30 5788 H 519.724 -3.48941 -2.36259 0
M  V30 5789 H 518.399 -2.29628 -2.28151 0
M  V30 5790 H 517.306 -3.71402 -0.448484 0
M  V30 5791 H 518.639 -4.8841 -0.609608 0
M  V30 5792 N 520.291 -0.0518155 -1.57515 0
M  V30 5793 C 521.201 0.937539 -2.15052 0
M  V30 5794 C 522.217 1.34121 -1.10849 0
M  V30 5795 O 523.393 1.418 -1.4302 0
M  V30 5796 C 520.458 2.19379 -2.68466 0
M  V30 5797 C 519.519 1.84841 -3.87469 0
M  V30 5798 C 518.752 3.04477 -4.38326 0
M  V30 5799 O 518.975 4.17868 -3.88256 0
M  V30 5800 O 517.909 2.85453 -5.29906 0
M  V30 5801 H 521.735 0.478201 -2.99912 0
M  V30 5802 H 519.32 0.17012 -1.48428 0
M  V30 5803 H 521.202 2.93084 -3.02787 0
M  V30 5804 H 519.877 2.64449 -1.86677 0
M  V30 5805 H 518.784 1.08449 -3.58036 0
M  V30 5806 H 520.117 1.44569 -4.7049 0
M  V30 5807 N 521.769 1.56035 0.221574 0
M  V30 5808 C 523.18 1.69229 0.788567 0
M  V30 5809 C 523.531 0.653814 1.84986 0
M  V30 5810 O 522.656 -0.195065 2.15519 0
M  V30 5811 C 523.251 3.06809 1.43713 0
M  V30 5812 C 521.81 3.21858 1.95152 0
M  V30 5813 C 520.957 2.65155 0.811685 0
M  V30 5814 H 523.908 1.587 -0.00307894 0
M  V30 5815 H 523.929 3.02666 2.30594 0
M  V30 5816 H 523.441 3.82369 0.664475 0
M  V30 5817 H 521.542 2.51167 2.7522 0
M  V30 5818 H 521.655 4.29073 2.1315 0
M  V30 5819 H 520.019 2.23635 1.21899 0
M  V30 5820 H 520.802 3.43261 0.0516987 0
M  V30 5821 N 523.247 -0.488276 1.49845 0
M  V30 5822 C 524.472 -1.26997 1.63971 0
M  V30 5823 C 524.897 -1.85427 0.315994 0
M  V30 5824 O 524.255 -1.66475 -0.718032 0
M  V30 5825 C 524.303 -2.36689 2.72049 0
M  V30 5826 O 523.407 -3.40882 2.32107 0
M  V30 5827 H 522.748 -0.374376 0.548396 0
M  V30 5828 H 525.278 -0.583104 1.96115 0
M  V30 5829 H 525.288 -2.82262 2.94605 0
M  V30 5830 H 523.963 -1.93529 3.68129 0
M  V30 5831 H 522.54 -3.01139 2.19931 0
M  V30 5832 N 524.725 -1.39134 -0.740242 0
M  V30 5833 C 525.673 -1.3757 -1.87556 0
M  V30 5834 C 526.667 -0.259593 -1.67399 0
M  V30 5835 O 527.873 -0.429349 -1.74804 0
M  V30 5836 H 524.248 -0.42947 -0.6173 0
M  V30 5837 H 526.219 -2.33345 -1.85991 0
M  V30 5838 C 524.968 -1.23087 -3.25184 0
M  V30 5839 H 524.291 -2.08237 -3.41288 0
M  V30 5840 H 525.731 -1.26049 -4.0483 0
M  V30 5841 C 524.19 0.0611471 -3.36845 0
M  V30 5842 O 524.72 1.03328 -3.88183 0
M  V30 5843 N 522.926 0.122454 -2.90342 0
M  V30 5844 H 522.473 -0.669329 -2.48752 0
M  V30 5845 H 522.431 0.986463 -2.98523 0
M  V30 5846 N 526.204 0.969867 -1.24223 0
M  V30 5847 C 527.615 1.52717 -1.07399 0
M  V30 5848 C 527.966 1.92956 0.355298 0
M  V30 5849 O 527.091 1.77112 1.2434 0
M  V30 5850 C 527.686 2.77521 -1.94339 0
M  V30 5851 C 526.245 3.29615 -1.81744 0
M  V30 5852 C 525.392 2.02537 -1.89405 0
M  V30 5853 H 528.343 0.788399 -1.37732 0
M  V30 5854 H 528.364 3.50773 -1.47439 0
M  V30 5855 H 527.876 2.48203 -2.98357 0
M  V30 5856 H 525.977 3.63789 -0.805505 0
M  V30 5857 H 526.09 3.98661 -2.65718 0
M  V30 5858 H 524.454 2.17151 -1.33108 0
M  V30 5859 H 525.237 1.75587 -2.94999 0
M  V30 5860 N 527.682 1.05563 1.17022 0
M  V30 5861 C 528.592 0.670758 2.24807 0
M  V30 5862 C 529.608 -0.309865 1.71219 0
M  V30 5863 O 530.784 -0.161025 2.00755 0
M  V30 5864 C 527.849 0.055337 3.46656 0
M  V30 5865 C 526.91 1.08688 4.15314 0
M  V30 5866 C 526.143 0.500736 5.31346 0
M  V30 5867 O 526.366 -0.688718 5.66227 0
M  V30 5868 O 525.3 1.23683 5.89055 0
M  V30 5869 H 529.126 1.56914 2.60023 0
M  V30 5870 H 526.711 0.827428 1.24395 0
M  V30 5871 H 528.593 -0.286492 4.20425 0
M  V30 5872 H 527.268 -0.816638 3.13229 0
M  V30 5873 H 526.175 1.48077 3.43546 0
M  V30 5874 H 527.508 1.93014 4.52777 0
M  V30 5875 N 529.16 -1.33526 0.837174 0
M  V30 5876 C 530.123 -2.27551 0.274421 0
M  V30 5877 C 531.123 -1.50886 -0.555881 0
M  V30 5878 O 532.313 -1.70227 -0.369918 0
M  V30 5879 C 529.445 -3.35332 -0.613605 0
M  V30 5880 H 530.638 -2.78837 1.10408 0
M  V30 5881 H 528.191 -1.439 0.610126 0
M  V30 5882 H 528.926 -2.89285 -1.46577 0
M  V30 5883 H 528.711 -3.92095 -0.0195341 0
M  V30 5884 H 530.201 -4.05433 -1.00068 0
M  V30 5885 N 530.638 -0.59345 -1.46 0
M  V30 5886 C 531.863 -0.0872365 -2.07216 0
M  V30 5887 C 532.288 1.2131 -1.43755 0
M  V30 5888 O 531.646 1.73528 -0.525152 0
M  V30 5889 C 531.694 0.0538197 -3.6056 0
M  V30 5890 O 530.798 1.10765 -3.97247 0
M  V30 5891 H 530.139 -0.0676598 -0.660544 0
M  V30 5892 H 532.669 -0.819445 -1.87473 0
M  V30 5893 H 532.679 0.256567 -4.07193 0
M  V30 5894 H 531.354 -0.895739 -4.0614 0
M  V30 5895 H 529.931 0.882501 -3.62307 0
M  V30 5896 N 532.116 1.54067 -0.331816 0
M  V30 5897 C 533.341 2.05599 0.272705 0
M  V30 5898 C 533.766 1.2059 1.44359 0
M  V30 5899 O 533.124 0.216907 1.79998 0
M  V30 5900 C 533.172 3.54188 0.677021 0
M  V30 5901 O 532.276 3.72082 1.77844 0
M  V30 5902 H 531.617 0.662286 0.0476801 0
M  V30 5903 H 534.147 1.98826 -0.482624 0
M  V30 5904 H 534.157 3.96608 0.957415 0
M  V30 5905 H 532.832 4.15513 -0.179325 0
M  V30 5906 H 531.409 3.41566 1.49622 0
M  V30 5907 N 533.594 0.0601682 1.57485 0
M  V30 5908 C 534.819 -0.624416 1.97777 0
M  V30 5909 C 535.244 -1.63051 0.937867 0
M  V30 5910 O 534.602 -1.81036 -0.0978845 0
M  V30 5911 C 534.65 -1.27979 3.37126 0
M  V30 5912 O 533.754 -2.39556 3.35688 0
M  V30 5913 H 533.095 -0.161581 0.64404 0
M  V30 5914 H 535.625 0.131237 2.04179 0
M  V30 5915 H 535.635 -1.62937 3.74053 0
M  V30 5916 H 534.31 -0.542501 4.12347 0
M  V30 5917 H 532.887 -2.06478 3.10517 0
M  V30 5918 N 535.072 -1.5615 -0.213296 0
M  V30 5919 C 536.3 -1.83638 -0.953139 0
M  V30 5920 C 536.715 -0.640362 -1.77609 0
M  V30 5921 O 536.072 0.391071 -1.78261 0
M  V30 5922 C 536.123 -3.09735 -1.86405 0
M  V30 5923 O 535.844 -4.24723 -1.07435 0
M  V30 5924 C 537.345 -3.5027 -2.71709 0
M  V30 5925 H 534.565 -0.610263 -0.278962 0
M  V30 5926 H 537.109 -2.03247 -0.226035 0
M  V30 5927 H 535.264 -2.92077 -2.545 0
M  V30 5928 H 535.678 -4.9641 -1.69343 0
M  V30 5929 H 537.152 -4.41515 -3.31313 0
M  V30 5930 H 537.629 -2.72406 -3.44516 0
M  V30 5931 H 538.235 -3.70396 -2.09015 0
M  V30 5932 N 536.55 0.480323 -1.50102 0
M  V30 5933 C 537.775 1.26126 -1.64642 0
M  V30 5934 C 538.2 1.85257 -0.325823 0
M  V30 5935 O 537.558 1.66854 0.709194 0
M  V30 5936 C 537.606 2.35243 -2.73301 0
M  V30 5937 O 536.71 3.39646 -2.33911 0
M  V30 5938 H 536.051 0.371463 -0.550374 0
M  V30 5939 H 538.581 0.572696 -1.96421 0
M  V30 5940 H 538.591 2.80695 -2.96098 0
M  V30 5941 H 537.266 1.91574 -3.6915 0
M  V30 5942 H 535.843 2.99969 -2.21525 0
M  V30 5943 N 538.028 1.39524 0.732853 0
M  V30 5944 C 539.274 1.37068 1.49467 0
M  V30 5945 C 539.607 -0.0327166 1.94172 0
M  V30 5946 O 538.882 -0.998071 1.66939 0
M  V30 5947 C 539.165 2.34494 2.73285 0
M  V30 5948 C 539.018 3.83784 2.34585 0
M  V30 5949 C 540.337 2.29717 3.75391 0
M  V30 5950 H 537.456 0.499206 0.542183 0
M  V30 5951 H 540.098 1.70532 0.837783 0
M  V30 5952 H 538.248 2.06087 3.29333 0
M  V30 5953 H 539.92 4.22949 1.84151 0
M  V30 5954 H 538.163 4.00455 1.66787 0
M  V30 5955 H 538.834 4.47444 3.23262 0
M  V30 5956 H 541.31 2.54839 3.28932 0
M  V30 5957 H 540.186 2.99962 4.59689 0
M  V30 5958 H 540.447 1.30291 4.22465 0
M  V30 5959 N 539.506 -0.963266 1.24736 0
M  V30 5960 C 540.734 -1.74166 1.11686 0
M  V30 5961 C 541.149 -1.8589 -0.330187 0
M  V30 5962 O 540.506 -1.35042 -1.2276 0
M  V30 5963 C 540.557 -3.15989 1.75595 0
M  V30 5964 O 540.278 -3.04847 3.14642 0
M  V30 5965 C 541.779 -4.10145 1.68213 0
M  V30 5966 H 538.999 -0.546031 0.389989 0
M  V30 5967 H 541.543 -1.20907 1.64929 0
M  V30 5968 H 539.698 -3.66219 1.26343 0
M  V30 5969 H 540.112 -3.9425 3.4593 0
M  V30 5970 H 541.586 -5.07299 2.17604 0
M  V30 5971 H 542.063 -4.3445 0.644208 0
M  V30 5972 H 542.669 -3.65827 2.16912 0
M  V30 5973 N 540.985 -1.06182 -1.16461 0
M  V30 5974 C 542.396 -0.802426 -1.68576 0
M  V30 5975 C 542.747 0.67412 -1.84255 0
M  V30 5976 O 541.872 1.52303 -1.5373 0
M  V30 5977 C 542.467 -1.45002 -3.06202 0
M  V30 5978 C 541.026 -1.23843 -3.55443 0
M  V30 5979 C 540.173 -1.52724 -2.31454 0
M  V30 5980 H 543.124 -1.22545 -1.00839 0
M  V30 5981 H 543.145 -0.864731 -3.70544 0
M  V30 5982 H 542.657 -2.52466 -2.94759 0
M  V30 5983 H 540.758 -0.183487 -3.72148 0
M  V30 5984 H 540.871 -1.95036 -4.37604 0
M  V30 5985 H 539.235 -0.947726 -2.36411 0
M  V30 5986 H 540.018 -2.61343 -2.22609 0
M  V30 5987 N 542.463 1.3308 -0.844243 0
M  V30 5988 C 543.74 1.92178 -0.364261 0
M  V30 5989 C 544.12 1.76961 1.15101 0
M  V30 5990 O 543.468 1.16128 1.9679 0
M  V30 5991 C 543.678 3.393 -0.817106 0
M  V30 5992 C 545.026 4.16444 -0.828236 0
M  V30 5993 O 546.05 3.47975 -0.761062 0
M  V30 5994 O 544.909 5.38685 -0.920926 0
M  V30 5995 H 542.003 0.820411 -0.10419 0
M  V30 5996 H 544.549 1.41918 -0.930453 0
M  V30 5997 H 543.321 3.44272 -1.85991 0
M  V30 5998 H 542.944 3.96947 -0.227785 0
M  V30 5999 N 543.941 0.601185 1.45683 0
M  V30 6000 C 545.187 0.0940202 2.02582 0
M  V30 6001 C 545.52 -1.26972 1.46941 0
M  V30 6002 O 544.795 -1.83613 0.641612 0
M  V30 6003 C 545.078 0.0481715 3.60068 0
M  V30 6004 C 544.931 1.44212 4.26055 0
M  V30 6005 C 546.25 -0.642975 4.35378 0
M  V30 6006 H 543.369 0.0356404 0.736138 0
M  V30 6007 H 546.011 0.771929 1.73612 0
M  V30 6008 H 544.161 -0.529128 3.8488 0
M  V30 6009 H 545.833 2.06601 4.12449 0
M  V30 6010 H 544.076 2.00465 3.84703 0
M  V30 6011 H 544.747 1.36234 5.34925 0
M  V30 6012 H 547.223 -0.152351 4.15821 0
M  V30 6013 H 546.099 -0.644141 5.45107 0
M  V30 6014 H 546.36 -1.70785 4.0778 0
M  V30 6015 N 545.419 -1.53889 0.339982 0
M  V30 6016 C 546.644 -2.05741 -0.261798 0
M  V30 6017 C 547.069 -1.21354 -1.43718 0
M  V30 6018 O 546.427 -0.22645 -1.7988 0
M  V30 6019 C 546.475 -3.54542 -0.658228 0
M  V30 6020 O 545.579 -3.7302 -1.75869 0
M  V30 6021 H 544.92 -0.662529 -0.0441672 0
M  V30 6022 H 547.45 -1.98568 0.493161 0
M  V30 6023 H 547.46 -3.9711 -0.936368 0
M  V30 6024 H 546.135 -4.15412 0.201358 0
M  V30 6025 H 544.712 -3.42355 -1.47809 0
M  V30 6026 N 546.897 -0.0685191 -1.57451 0
M  V30 6027 C 548.174 0.642167 -1.84758 0
M  V30 6028 C 548.554 1.87991 -0.960344 0
M  V30 6029 O 547.902 2.28485 -0.0257894 0
M  V30 6030 C 548.112 0.982946 -3.34872 0
M  V30 6031 C 549.46 1.35784 -4.02303 0
M  V30 6032 O 550.484 1.07477 -3.39598 0
M  V30 6033 O 549.343 1.88681 -5.12895 0
M  V30 6034 H 546.437 0.318625 -0.763156 0
M  V30 6035 H 548.983 -0.0992015 -1.6941 0
M  V30 6036 H 547.755 0.10372 -3.91163 0
M  V30 6037 H 547.378 1.78119 -3.55471 0
M  V30 6038 N 548.375 1.56261 0.205012 0
M  V30 6039 C 549.323 1.94631 1.27364 0
M  V30 6040 C 550.317 0.830434 1.47649 0
M  V30 6041 O 551.523 1.01538 1.48627 0
M  V30 6042 H 547.898 0.618755 0.427371 0
M  V30 6043 H 549.869 2.83768 0.922941 0
M  V30 6044 C 548.618 2.29358 2.61324 0
M  V30 6045 H 547.941 3.14744 2.46528 0
M  V30 6046 H 549.381 2.60076 3.34868 0
M  V30 6047 C 547.84 1.12461 3.17575 0
M  V30 6048 O 548.37 0.394407 3.99759 0
M  V30 6049 N 546.576 0.904036 2.7618 0
M  V30 6050 H 546.123 1.49956 2.09454 0
M  V30 6051 H 546.081 0.123662 3.14157 0
M  V30 6052 N 549.853 -0.472356 1.50355 0
M  V30 6053 C 550.763 -1.59637 1.7191 0
M  V30 6054 C 551.779 -1.63247 0.602195 0
M  V30 6055 O 552.955 -1.81139 0.880369 0
M  V30 6056 C 550.02 -2.9586 1.80742 0
M  V30 6057 C 549.081 -3.02649 3.04471 0
M  V30 6058 C 548.314 -4.32374 3.12872 0
M  V30 6059 O 548.537 -5.22807 2.28099 0
M  V30 6060 O 547.471 -4.44728 4.05587 0
M  V30 6061 H 551.297 -1.44373 2.67189 0
M  V30 6062 H 548.882 -0.651717 1.34436 0
M  V30 6063 H 550.764 -3.7677 1.88739 0
M  V30 6064 H 549.439 -3.11325 0.88647 0
M  V30 6065 H 548.346 -2.20821 3.01975 0
M  V30 6066 H 549.679 -2.92119 3.9614 0
M  V30 6067 N 551.331 -1.39911 -0.725443 0
M  V30 6068 C 552.742 -1.33599 -1.30415 0
M  V30 6069 C 553.093 -0.00481792 -1.96199 0
M  V30 6070 O 552.218 0.897275 -1.96921 0
M  V30 6071 C 552.813 -2.41965 -2.37146 0
M  V30 6072 C 551.372 -2.39144 -2.90667 0
M  V30 6073 C 550.519 -2.23355 -1.64341 0
M  V30 6074 H 553.47 -1.4986 -0.522267 0
M  V30 6075 H 553.491 -2.09304 -3.17761 0
M  V30 6076 H 553.003 -3.38837 -1.89238 0
M  V30 6077 H 551.104 -1.4594 -3.4283 0
M  V30 6078 H 551.217 -3.34362 -3.43131 0
M  V30 6079 H 549.581 -1.70696 -1.89037 0
M  V30 6080 H 550.364 -3.2221 -1.18471 0
M  V30 6081 N 552.809 0.956637 -1.25245 0
M  V30 6082 C 554.086 1.67716 -1.00651 0
M  V30 6083 C 554.466 2.0585 0.467866 0
M  V30 6084 O 553.814 1.77029 1.44475 0
M  V30 6085 C 554.024 2.90093 -1.94028 0
M  V30 6086 C 555.372 3.6209 -2.21756 0
M  V30 6087 O 556.396 3.00171 -1.9177 0
M  V30 6088 O 555.255 4.7358 -2.72735 0
M  V30 6089 H 552.349 0.733731 -0.381533 0
M  V30 6090 H 554.895 1.00974 -1.3639 0
M  V30 6091 H 553.667 2.58689 -2.93591 0
M  V30 6092 H 553.29 3.64566 -1.58674 0
M  V30 6093 N 554.287 1.06798 1.15896 0
M  V30 6094 C 555.237 0.653213 2.18443 0
M  V30 6095 C 556.221 -0.318763 1.57711 0
M  V30 6096 O 557.413 -0.133388 1.76497 0
M  V30 6097 C 554.542 0.0465785 3.43268 0
M  V30 6098 C 553.628 1.04336 4.11066 0
M  V30 6099 N 554.019 2.22084 4.54436 0
M  V30 6100 C 552.317 0.875433 4.37324 0
M  V30 6101 C 553.018 2.85276 5.06944 0
M  V30 6102 N 551.994 2.12973 5.00143 0
M  V30 6103 H 555.796 1.55011 2.49698 0
M  V30 6104 H 553.31 0.940384 1.32403 0
M  V30 6105 H 555.307 -0.26843 4.16035 0
M  V30 6106 H 553.967 -0.845504 3.13499 0
M  V30 6107 H 554.978 2.59833 4.48004 0
M  V30 6108 H 551.655 0.0357721 4.17485 0
M  V30 6109 H 553.045 3.85223 5.50503 0
M  V30 6110 N 555.766 -1.3263 0.851289 0
M  V30 6111 C 556.996 -2.01271 0.466222 0
M  V30 6112 C 557.404 -1.64156 -0.940714 0
M  V30 6113 O 556.747 -0.857109 -1.62479 0
M  V30 6114 C 556.809 -3.55695 0.521672 0
M  V30 6115 C 556.473 -4.16227 1.88691 0
M  V30 6116 C 557.47 -4.34699 2.85189 0
M  V30 6117 C 555.155 -4.52377 2.18313 0
M  V30 6118 C 557.149 -4.88484 4.09465 0
M  V30 6119 C 554.836 -5.05868 3.42843 0
M  V30 6120 C 555.834 -5.23869 4.38235 0
M  V30 6121 O 555.522 -5.76218 5.6056 0
M  V30 6122 H 555.254 -0.651034 0.18202 0
M  V30 6123 H 557.808 -1.7026 1.14894 0
M  V30 6124 H 556.038 -3.86086 -0.217888 0
M  V30 6125 H 557.727 -4.05613 0.152682 0
M  V30 6126 H 558.493 -4.07107 2.63607 0
M  V30 6127 H 554.372 -4.37652 1.44851 0
M  V30 6128 H 557.916 -5.02451 4.83931 0
M  V30 6129 H 553.813 -5.32891 3.64277 0
M  V30 6130 H 554.581 -5.94616 5.62471 0
M  V30 6131 N 557.244 -0.608902 -1.45362 0
M  V30 6132 C 558.66 -0.272659 -1.57254 0
M  V30 6133 C 558.86 1.22477 -1.60005 0
M  V30 6134 O 557.916 2.00785 -1.53106 0
M  V30 6135 C 559.229 -0.944991 -2.85465 0
M  V30 6136 C 560.777 -0.921033 -2.99142 0
M  V30 6137 C 561.252 -1.5734 -4.30126 0
M  V30 6138 N 562.743 -1.53895 -4.36887 0
M  V30 6139 C 563.478 -2.01286 -5.36909 0
M  V30 6140 N 562.974 -2.56768 -6.43461 0
M  V30 6141 N 564.767 -1.92046 -5.28275 0
M  V30 6142 H 556.918 -1.58117 -1.4182 0
M  V30 6143 H 559.181 -0.662437 -0.678146 0
M  V30 6144 H 558.887 -1.99941 -2.89338 0
M  V30 6145 H 558.761 -0.469079 -3.74272 0
M  V30 6146 H 561.148 0.124846 -2.94836 0
M  V30 6147 H 561.229 -1.43522 -2.11743 0
M  V30 6148 H 560.873 -2.61862 -4.35191 0
M  V30 6149 H 560.803 -1.03422 -5.16344 0
M  V30 6150 H 563.294 -1.13366 -3.60495 0
M  V30 6151 H 563.607 -2.9072 -7.16032 0
M  V30 6152 H 561.952 -2.60808 -6.44208 0
M  V30 6153 H 565.143 -1.48439 -4.43941 0
M  V30 6154 H 565.316 -2.29293 -6.06077 0
M  V30 6155 N 558.722 1.53707 -0.348139 0
M  V30 6156 C 559.952 2.05108 0.247864 0
M  V30 6157 C 560.36 1.22252 1.44399 0
M  V30 6158 O 559.703 0.251853 1.81965 0
M  V30 6159 C 559.765 3.52171 0.722187 0
M  V30 6160 C 559.429 4.5562 -0.354902 0
M  V30 6161 C 560.426 5.05883 -1.19911 0
M  V30 6162 C 558.111 4.99703 -0.510145 0
M  V30 6163 C 560.105 5.98814 -2.18406 0
M  V30 6164 C 557.792 5.92443 -1.49848 0
M  V30 6165 C 558.79 6.41887 -2.33389 0
M  V30 6166 O 558.478 7.32802 -3.3054 0
M  V30 6167 H 558.21 0.674086 0.0508296 0
M  V30 6168 H 560.764 1.99229 -0.49968 0
M  V30 6169 H 558.994 3.55529 1.52105 0
M  V30 6170 H 560.683 3.8652 1.23925 0
M  V30 6171 H 561.449 4.72586 -1.09028 0
M  V30 6172 H 557.328 4.60816 0.130274 0
M  V30 6173 H 560.872 6.3733 -2.83649 0
M  V30 6174 H 556.769 6.25155 -1.60786 0
M  V30 6175 H 557.537 7.50749 -3.26064 0
M  V30 6176 N 560.2 0.0768682 1.57412 0
M  V30 6177 C 561.425 -0.603404 1.98428 0
M  V30 6178 C 561.85 -1.62047 0.955108 0
M  V30 6179 O 561.208 -1.81129 -0.0786778 0
M  V30 6180 C 561.256 -1.24396 3.38464 0
M  V30 6181 O 560.36 -2.35982 3.3821 0
M  V30 6182 H 559.701 -0.154741 0.645718 0
M  V30 6183 H 562.231 0.152885 2.04028 0
M  V30 6184 H 562.241 -1.5896 3.7576 0
M  V30 6185 H 560.916 -0.498735 4.12899 0
M  V30 6186 H 559.493 -2.03173 3.1269 0
M  V30 6187 N 561.678 -1.56367 -0.196722 0
M  V30 6188 C 562.955 -1.71359 -0.943159 0
M  V30 6189 C 563.335 -0.631192 -2.01443 0
M  V30 6190 O 562.683 0.358071 -2.25677 0
M  V30 6191 C 562.893 -3.13623 -1.53106 0
M  V30 6192 C 564.241 -3.73806 -2.01381 0
M  V30 6193 O 565.265 -3.16742 -1.62951 0
M  V30 6194 O 564.124 -4.73951 -2.7209 0
M  V30 6195 H 561.218 -0.698851 -0.442195 0
M  V30 6196 H 563.764 -1.68672 -0.186547 0
M  V30 6197 H 562.536 -3.83873 -0.758785 0
M  V30 6198 H 562.159 -3.20532 -2.35255 0
M  V30 6199 N 563.156 0.464375 -1.50603 0
M  V30 6200 C 564.384 1.23907 -1.65695 0
M  V30 6201 C 564.799 1.85658 -0.343027 0
M  V30 6202 O 564.156 1.69529 0.675739 0
M  V30 6203 C 564.207 2.3429 -2.75301 0
M  V30 6204 O 563.928 1.7507 -4.01599 0
M  V30 6205 C 565.429 3.25051 -3.01424 0
M  V30 6206 H 562.649 0.374485 -0.556778 0
M  V30 6207 H 565.193 0.55353 -1.96866 0
M  V30 6208 H 563.348 2.98607 -2.46804 0
M  V30 6209 H 563.762 2.47812 -4.62266 0
M  V30 6210 H 565.236 3.98699 -3.81763 0
M  V30 6211 H 565.713 3.84227 -2.12758 0
M  V30 6212 H 566.319 2.66463 -3.31477 0
M  V30 6213 N 564.634 1.40294 0.718013 0
M  V30 6214 C 565.862 1.4175 1.50714 0
M  V30 6215 C 566.277 0.0165366 1.88793 0
M  V30 6216 O 565.634 -0.958942 1.55276 0
M  V30 6217 C 565.685 2.30598 2.784 0
M  V30 6218 O 565.406 3.6524 2.41932 0
M  V30 6219 C 566.907 2.4062 3.72313 0
M  V30 6220 H 564.127 0.483565 0.465194 0
M  V30 6221 H 566.671 1.84316 0.885889 0
M  V30 6222 H 564.826 1.91401 3.36815 0
M  V30 6223 H 565.24 4.12402 3.24076 0
M  V30 6224 H 566.714 3.07001 4.58753 0
M  V30 6225 H 567.191 1.4305 4.15251 0
M  V30 6226 H 567.797 2.80359 3.19811 0
M  V30 6227 N 566.112 -0.949982 1.2575 0
M  V30 6228 C 567.389 -1.6718 1.01539 0
M  V30 6229 C 567.769 -2.06095 -0.456942 0
M  V30 6230 O 567.117 -1.77792 -1.43534 0
M  V30 6231 C 567.327 -2.8906 1.95564 0
M  V30 6232 C 568.675 -3.60909 2.23673 0
M  V30 6233 O 569.699 -2.9915 1.9336 0
M  V30 6234 O 568.558 -4.72127 2.75243 0
M  V30 6235 H 565.652 -0.731697 0.385419 0
M  V30 6236 H 568.198 -1.00249 1.36924 0
M  V30 6237 H 566.97 -2.57128 2.94959 0
M  V30 6238 H 566.593 -3.63719 1.60605 0
M  V30 6239 N 567.59 -1.07411 -1.15328 0
M  V30 6240 C 568.815 -0.818856 -1.90551 0
M  V30 6241 C 569.24 0.622194 -1.77512 0
M  V30 6242 O 568.598 1.43484 -1.10824 0
M  V30 6243 C 568.646 -1.23267 -3.38877 0
M  V30 6244 O 567.75 -0.378345 -4.10661 0
M  V30 6245 H 567.091 -0.29827 -0.593238 0
M  V30 6246 H 569.621 -1.43289 -1.46046 0
M  V30 6247 H 569.631 -1.20912 -3.89672 0
M  V30 6248 H 568.306 -2.28226 -3.47686 0
M  V30 6249 H 566.883 -0.464437 -3.69996 0
M  V30 6250 N 569.068 1.32177 -0.85831 0
M  V30 6251 C 570.345 1.91781 -0.384624 0
M  V30 6252 C 570.725 1.78171 1.13217 0
M  V30 6253 O 570.073 1.18209 1.95548 0
M  V30 6254 C 570.283 3.38414 -0.853047 0
M  V30 6255 C 571.631 4.15542 -0.872359 0
M  V30 6256 O 572.655 3.47148 -0.797926 0
M  V30 6257 O 571.514 5.37678 -0.978009 0
M  V30 6258 H 568.608 0.819259 -0.112886 0
M  V30 6259 H 571.154 1.40923 -0.945453 0
M  V30 6260 H 569.926 3.4228 -1.89632 0
M  V30 6261 H 569.549 3.96683 -0.269874 0
M  V30 6262 N 570.547 0.616602 1.45037 0
M  V30 6263 C 571.958 0.199359 1.85633 0
M  V30 6264 C 572.309 -1.24588 1.51566 0
M  V30 6265 O 571.434 -1.94594 0.94668 0
M  V30 6266 C 572.029 0.355033 3.36935 0
M  V30 6267 C 570.588 -0.00758748 3.76399 0
M  V30 6268 C 569.735 0.675256 2.68953 0
M  V30 6269 H 572.686 0.822708 1.3571 0
M  V30 6270 H 572.707 -0.410201 3.78282 0
M  V30 6271 H 572.219 1.40699 3.61698 0
M  V30 6272 H 570.32 -1.05837 3.57252 0
M  V30 6273 H 570.433 0.392346 4.77491 0
M  V30 6274 H 568.797 0.111992 2.54454 0
M  V30 6275 H 569.58 1.72952 2.96551 0
M  V30 6276 N 572.025 -1.5352 0.356285 0
M  V30 6277 C 572.935 -2.29151 -0.502712 0
M  V30 6278 C 573.951 -1.34753 -1.1008 0
M  V30 6279 O 575.127 -1.67803 -1.11374 0
M  V30 6280 C 572.192 -3.05911 -1.63154 0
M  V30 6281 C 571.253 -4.15958 -1.06194 0
M  V30 6282 C 570.486 -4.8905 -2.13696 0
M  V30 6283 O 570.709 -4.61919 -3.34645 0
M  V30 6284 O 569.643 -5.75202 -1.77275 0
M  V30 6285 H 573.469 -3.03492 0.112466 0
M  V30 6286 H 571.054 -1.4891 0.120942 0
M  V30 6287 H 572.936 -3.53874 -2.28804 0
M  V30 6288 H 571.611 -2.34415 -2.23229 0
M  V30 6289 H 570.518 -3.7227 -0.369603 0
M  V30 6290 H 571.851 -4.89593 -0.505872 0
M  V30 6291 N 573.503 -0.0852151 -1.57369 0
M  V30 6292 C 574.451 0.894856 -2.14698 0
M  V30 6293 C 575.445 1.29903 -1.08727 0
M  V30 6294 O 576.651 1.27471 -1.27088 0
M  V30 6295 H 573.026 0.306569 -0.686673 0
M  V30 6296 H 574.997 0.386542 -2.95886 0
M  V30 6297 C 573.746 2.14798 -2.73417 0
M  V30 6298 H 573.069 1.84585 -3.54638 0
M  V30 6299 H 574.509 2.81456 -3.1711 0
M  V30 6300 C 572.968 2.91546 -1.68828 0
M  V30 6301 O 573.498 3.85733 -1.12129 0
M  V30 6302 N 571.704 2.54901 -1.39549 0
M  V30 6303 H 571.251 1.7838 -1.85845 0
M  V30 6304 H 571.209 3.06553 -0.698054 0
M  V30 6305 N 574.981 1.5647 0.188427 0
M  V30 6306 C 575.891 1.98285 1.2538 0
M  V30 6307 C 576.907 0.891535 1.49424 0
M  V30 6308 O 578.083 1.19782 1.61908 0
M  V30 6309 C 575.148 2.31965 2.57669 0
M  V30 6310 C 574.209 3.54838 2.41638 0
M  V30 6311 C 573.442 3.86901 3.67618 0
M  V30 6312 O 573.665 3.20163 4.72072 0
M  V30 6313 O 572.599 4.80309 3.62749 0
M  V30 6314 H 576.425 2.89145 0.928912 0
M  V30 6315 H 574.01 1.44112 0.393955 0
M  V30 6316 H 575.892 2.54673 3.35737 0
M  V30 6317 H 574.567 1.44271 2.89771 0
M  V30 6318 H 573.474 3.37369 1.61658 0
M  V30 6319 H 574.807 4.43019 2.14465 0
M  V30 6320 N 576.459 -0.456382 1.50847 0
M  V30 6321 C 577.87 -1.03685 1.55262 0
M  V30 6322 C 578.221 -1.92779 0.364771 0
M  V30 6323 O 577.346 -2.10043 -0.52068 0
M  V30 6324 C 577.941 -1.88718 2.81374 0
M  V30 6325 C 576.5 -2.41847 2.88422 0
M  V30 6326 C 575.647 -1.20564 2.49719 0
M  V30 6327 H 578.598 -0.238399 1.56899 0
M  V30 6328 H 578.619 -2.73957 2.6406 0
M  V30 6329 H 578.131 -1.23847 3.67809 0
M  V30 6330 H 576.232 -3.10228 2.06372 0
M  V30 6331 H 576.345 -2.75947 3.9165 0
M  V30 6332 H 574.709 -1.54504 2.02486 0
M  V30 6333 H 575.492 -0.573326 3.38479 0
M  V30 6334 N 577.937 -1.40673 -0.710563 0
M  V30 6335 C 579.184 -1.39222 -1.47049 0
M  V30 6336 C 579.512 0.0037691 -1.945 0
M  V30 6337 O 578.767 0.989224 -1.68857 0
M  V30 6338 C 579.066 -2.33253 -2.70791 0
M  V30 6339 C 578.732 -3.80406 -2.42079 0
M  V30 6340 C 577.394 -4.20496 -2.33959 0
M  V30 6341 C 579.746 -4.73375 -2.18094 0
M  V30 6342 C 577.074 -5.51584 -1.99929 0
M  V30 6343 C 579.426 -6.04768 -1.85576 0
M  V30 6344 C 578.09 -6.43895 -1.75941 0
M  V30 6345 H 577.36 -0.509449 -0.538092 0
M  V30 6346 H 580.007 -1.73363 -0.81348 0
M  V30 6347 H 578.312 -1.92314 -3.41354 0
M  V30 6348 H 580.009 -2.29412 -3.28894 0
M  V30 6349 H 576.599 -3.48645 -2.49288 0
M  V30 6350 H 580.783 -4.43217 -2.23321 0
M  V30 6351 H 576.039 -5.80797 -1.91011 0
M  V30 6352 H 580.213 -6.76318 -1.66033 0
M  V30 6353 H 577.84 -7.45387 -1.4934 0
M  V30 6354 N 579.415 0.9433 -1.26252 0
M  V30 6355 C 580.692 1.66639 -1.02424 0
M  V30 6356 C 581.072 2.06335 0.446006 0
M  V30 6357 O 580.42 1.78551 1.42589 0
M  V30 6358 C 580.63 2.88019 -1.97094 0
M  V30 6359 C 581.978 3.59718 -2.25584 0
M  V30 6360 O 583.002 2.9812 -1.94943 0
M  V30 6361 O 581.861 4.7066 -2.77743 0
M  V30 6362 H 578.955 0.729643 -0.389294 0
M  V30 6363 H 581.501 0.995218 -1.37454 0
M  V30 6364 H 580.273 2.5556 -2.96319 0
M  V30 6365 H 579.896 3.62863 -1.62532 0
M  V30 6366 N 580.893 1.08022 1.14757 0
M  V30 6367 C 581.803 0.718292 2.23333 0
M  V30 6368 C 582.819 -0.273477 1.71837 0
M  V30 6369 O 583.995 -0.118406 2.01052 0
M  V30 6370 C 581.06 0.128855 3.4646 0
M  V30 6371 C 580.121 1.17473 4.12915 0
M  V30 6372 C 579.354 0.61333 5.30164 0
M  V30 6373 O 579.577 -0.568458 5.6756 0
M  V30 6374 O 578.511 1.3615 5.86299 0
M  V30 6375 H 582.337 1.62394 2.56636 0
M  V30 6376 H 579.922 0.853628 1.22611 0
M  V30 6377 H 581.804 -0.197249 4.20938 0
M  V30 6378 H 580.479 -0.750014 3.14891 0
M  V30 6379 H 579.386 1.5533 3.40328 0
M  V30 6380 H 580.719 2.02574 4.48581 0
M  V30 6381 N 582.371 -1.3172 0.865308 0
M  V30 6382 C 583.648 -1.91574 0.394789 0
M  V30 6383 C 584.028 -1.78769 -1.12271 0
M  V30 6384 O 583.376 -1.19245 -1.94918 0
M  V30 6385 C 583.586 -3.37957 0.870982 0
M  V30 6386 C 584.934 -4.15073 0.894384 0
M  V30 6387 O 585.958 -3.4672 0.816325 0
M  V30 6388 O 584.817 -5.37151 1.00651 0
M  V30 6389 H 581.911 -0.818649 0.117229 0
M  V30 6390 H 584.457 -1.4042 0.952913 0
M  V30 6391 H 583.229 -3.41269 1.91444 0
M  V30 6392 H 582.852 -3.96534 0.290907 0
M  V30 6393 N 583.85 -0.624285 -1.44708 0
M  V30 6394 C 584.782 0.12305 -2.28869 0
M  V30 6395 C 585.795 0.81557 -1.40898 0
M  V30 6396 O 586.984 0.678162 -1.65116 0
M  V30 6397 C 584.084 1.19612 -3.1709 0
M  V30 6398 C 583.257 0.587452 -4.33437 0
M  V30 6399 C 582.316 1.55358 -5.02743 0
M  V30 6400 O 581.341 1.07338 -5.58988 0
M  V30 6401 N 582.543 2.88798 -5.03563 0
M  V30 6402 H 585.308 -0.599193 -2.93649 0
M  V30 6403 H 582.87 -0.464954 -1.5508 0
M  V30 6404 H 584.861 1.84261 -3.60319 0
M  V30 6405 H 583.432 1.82067 -2.54107 0
M  V30 6406 H 582.652 -0.237509 -3.93484 0
M  V30 6407 H 583.94 0.161326 -5.08544 0
M  V30 6408 H 583.338 3.30399 -4.59188 0
M  V30 6409 H 581.894 3.48826 -5.50603 0
M  V30 6410 N 585.328 1.53329 -0.364422 0
M  V30 6411 C 586.278 2.22472 0.499024 0
M  V30 6412 C 587.262 1.21952 1.0496 0
M  V30 6413 O 588.454 1.47405 0.979836 0
M  V30 6414 C 585.583 3.01659 1.6388 0
M  V30 6415 C 584.669 4.09555 1.10116 0
M  V30 6416 N 585.06 5.04988 0.286414 0
M  V30 6417 C 583.358 4.2424 1.37608 0
M  V30 6418 C 584.059 5.81699 -0.00781682 0
M  V30 6419 N 583.035 5.40394 0.589494 0
M  V30 6420 H 586.837 2.93611 -0.130284 0
M  V30 6421 H 584.351 1.61483 -0.172377 0
M  V30 6422 H 586.348 3.4971 2.26954 0
M  V30 6423 H 585.008 2.32051 2.27118 0
M  V30 6424 H 586.019 5.17847 -0.0742839 0
M  V30 6425 H 582.696 3.65858 2.01133 0
M  V30 6426 H 584.086 6.68587 -0.666394 0
M  V30 6427 N 586.806 0.0935595 1.57322 0
M  V30 6428 C 588.034 -0.578934 1.98635 0
M  V30 6429 C 588.449 -1.61819 0.972626 0
M  V30 6430 O 587.806 -1.82461 -0.0379638 0
M  V30 6431 C 587.857 -1.22802 3.40003 0
M  V30 6432 O 587.578 -0.230334 4.37494 0
M  V30 6433 C 589.079 -1.98627 3.96311 0
M  V30 6434 H 586.299 -0.155324 0.652775 0
M  V30 6435 H 588.843 0.172393 2.03772 0
M  V30 6436 H 586.998 -1.93029 3.35885 0
M  V30 6437 H 587.412 -0.698649 5.19826 0
M  V30 6438 H 588.886 -2.39405 4.97382 0
M  V30 6439 H 589.363 -2.85151 3.34044 0
M  V30 6440 H 589.969 -1.3322 4.03897 0
M  V30 6441 N 588.284 -1.56567 -0.180126 0
M  V30 6442 C 589.216 -1.92275 -1.24751 0
M  V30 6443 C 590.229 -0.814922 -1.40936 0
M  V30 6444 O 591.418 -1.09336 -1.41095 0
M  V30 6445 C 588.518 -2.15265 -2.61752 0
M  V30 6446 C 587.691 -3.46467 -2.66981 0
M  V30 6447 C 586.75 -3.58391 -3.85283 0
M  V30 6448 O 585.776 -4.31086 -3.7169 0
M  V30 6449 N 586.978 -2.92587 -5.01371 0
M  V30 6450 H 589.743 -2.84435 -0.944302 0
M  V30 6451 H 587.304 -1.57617 -0.369952 0
M  V30 6452 H 589.296 -2.20515 -3.39345 0
M  V30 6453 H 587.866 -1.29533 -2.845 0
M  V30 6454 H 587.086 -3.52953 -1.75549 0
M  V30 6455 H 588.374 -4.32819 -2.67479 0
M  V30 6456 H 587.772 -2.3338 -5.15316 0
M  V30 6457 H 586.329 -3.03444 -5.76858 0
M  V30 6458 N 589.762 0.448376 -1.51087 0
M  V30 6459 C 591.011 1.19561 -1.62444 0
M  V30 6460 C 591.324 1.92602 -0.341151 0
M  V30 6461 O 592.53 2.69439 -0.333936 0
M  V30 6462 C 590.986 2.17373 -2.8684 0
M  V30 6463 C 590.594 1.5003 -4.22131 0
M  V30 6464 C 592.338 2.92597 -3.0755 0
M  V30 6465 C 590.245 2.46262 -5.37689 0
M  V30 6466 H 589.175 0.449975 -0.605011 0
M  V30 6467 H 591.826 0.463735 -1.77544 0
M  V30 6468 H 590.208 2.93948 -2.65349 0
M  V30 6469 H 591.382 0.790886 -4.53962 0
M  V30 6470 H 589.697 0.870011 -4.0721 0
M  V30 6471 H 592.294 3.64663 -3.91056 0
M  V30 6472 H 592.637 3.53306 -2.20183 0
M  V30 6473 H 593.17 2.23131 -3.29329 0
M  V30 6474 H 589.909 1.90258 -6.27281 0
M  V30 6475 H 589.429 3.15289 -5.10248 0
M  V30 6476 H 591.108 3.07623 -5.6919 0
M  V30 6477 N 591.24 1.41047 0.703093 0
M  V30 6478 C 592.468 1.4334 1.49202 0
M  V30 6479 C 592.883 0.0365596 1.88765 0
M  V30 6480 O 592.24 -0.942419 1.56284 0
M  V30 6481 C 592.291 2.33538 2.75939 0
M  V30 6482 O 592.012 3.67786 2.38045 0
M  V30 6483 C 593.513 2.44555 3.6974 0
M  V30 6484 H 590.733 0.488472 0.460039 0
M  V30 6485 H 593.277 1.85245 0.86629 0
M  V30 6486 H 591.432 1.94962 3.34766 0
M  V30 6487 H 591.846 4.15816 3.19683 0
M  V30 6488 H 593.32 3.11849 4.55471 0
M  V30 6489 H 593.797 1.47447 4.1371 0
M  V30 6490 H 594.403 2.83735 3.16819 0
M  V30 6491 N 592.718 -0.936591 1.26751 0
M  V30 6492 C 593.665 -2.03597 1.08706 0
M  V30 6493 C 594.635 -1.66097 -0.00926542 0
M  V30 6494 O 595.82 -1.90199 0.151377 0
M  V30 6495 C 592.96 -3.3727 0.73094 0
M  V30 6496 C 592.073 -3.87778 1.90399 0
M  V30 6497 C 591.208 -5.09859 1.49056 0
M  V30 6498 C 590.247 -5.5264 2.63164 0
M  V30 6499 N 589.384 -6.65921 2.22471 0
M  V30 6500 H 594.224 -2.18364 2.02784 0
M  V30 6501 H 591.761 -1.06985 1.00958 0
M  V30 6502 H 593.719 -4.14128 0.505328 0
M  V30 6503 H 592.349 -3.22337 -0.172868 0
M  V30 6504 H 591.401 -3.07279 2.2424 0
M  V30 6505 H 592.713 -4.15464 2.76028 0
M  V30 6506 H 591.867 -5.9419 1.22567 0
M  V30 6507 H 590.606 -4.8393 0.60524 0
M  V30 6508 H 589.611 -4.66863 2.90377 0
M  V30 6509 H 590.836 -5.80568 3.52303 0
M  V30 6510 H 588.782 -6.41667 1.36379 0
M  V30 6511 H 588.699 -6.93216 3.01641 0
M  V30 6512 H 589.967 -7.53616 1.99205 0
M  V30 6513 N 594.196 -1.08629 -1.14182 0
M  V30 6514 C 595.442 -0.818556 -1.85546 0
M  V30 6515 C 595.775 0.654076 -1.82854 0
M  V30 6516 O 595.05 1.48099 -1.26083 0
M  V30 6517 C 595.333 -1.34397 -3.3408 0
M  V30 6518 C 595.186 -2.8821 -3.45333 0
M  V30 6519 C 596.505 -0.971069 -4.29253 0
M  V30 6520 H 593.624 -0.298821 -0.673702 0
M  V30 6521 H 596.266 -1.34629 -1.34071 0
M  V30 6522 H 594.416 -0.895064 -3.78049 0
M  V30 6523 H 596.088 -3.41488 -3.10134 0
M  V30 6524 H 594.331 -3.25756 -2.86471 0
M  V30 6525 H 595.002 -3.20047 -4.49749 0
M  V30 6526 H 597.478 -1.35809 -3.93313 0
M  V30 6527 H 596.354 -1.36586 -5.31635 0
M  V30 6528 H 596.615 0.121659 -4.41933 0
M  V30 6529 O 595.713 1.26359 -1.00577 0
M  V30 6530 H 596.404 1.82071 -0.661052 0
M  V30 END ATOM
M  V30 BEGIN BOND
M  V30 END BOND
M  V30 END CTAB
M  END
$$$$
