drugbank_target|P60472 Ditrans,polycis-undecaprenyl-diphosphate synthase ((2E,6E)-farnesyl-diphosphate specific) (DB04695; DB04714; DB07404; DB07409; DB07410; DB07426; DB07780)
 OpenBabel12092120303D

  0  0  0     0  0            999 V3000
M  V30 BEGIN CTAB
M  V30 COUNTS 3967 4008 0 0 0
M  V30 BEGIN ATOM
M  V30 1 H -0.908 1.98254 -0.117106 0
M  V30 2 N 0 1.576 0 0
M  V30 3 C 0.933 2.03868 1.02534 0
M  V30 4 C 1.911 0.928543 1.3348 0
M  V30 5 O 3.095 1.19667 1.45644 0
M  V30 6 C 0.222 2.43627 2.35294 0
M  V30 7 C -0.732 3.65373 2.2001 0
M  V30 8 S 0.101 5.13292 1.52614 0
M  V30 9 C 1.257 5.56322 2.86805 0
M  V30 10 H 1.49 2.90518 0.631377 0
M  V30 11 H -0.977 1.52953 0.210867 0
M  V30 12 H 0.981 2.67203 3.11629 0
M  V30 13 H -0.358 1.57376 2.7183 0
M  V30 14 H -1.165 3.90944 3.18086 0
M  V30 15 H -1.563 3.418 1.51819 0
M  V30 16 H 0.729 5.58782 3.83104 0
M  V30 17 H 1.672 6.56266 2.65933 0
M  V30 18 H 2.08 4.83886 2.90714 0
M  V30 19 N 1.4781 -0.272755 1.55222 0
M  V30 20 C 2.4111 -1.3627 1.83046 0
M  V30 21 C 3.3891 -1.47536 0.683521 0
M  V30 22 O 4.5731 -1.64157 0.926545 0
M  V30 23 C 1.7001 -2.73908 1.99229 0
M  V30 24 C 0.7461 -2.79925 3.21783 0
M  V30 25 S 1.5791 -2.39146 4.79134 0
M  V30 26 C 2.7351 -3.78758 4.9829 0
M  V30 27 H 2.9681 -1.12464 2.75207 0
M  V30 28 H 0.5011 -0.472398 1.46996 0
M  V30 29 H 2.4591 -3.53171 2.09238 0
M  V30 30 H 1.1201 -2.94965 1.07956 0
M  V30 31 H 0.3131 -3.80946 3.29994 0
M  V30 32 H -0.0849 -2.08683 3.10367 0
M  V30 33 H 2.2071 -4.7403 4.84047 0
M  V30 34 H 3.1501 -3.75499 6.00338 0
M  V30 35 H 3.5581 -3.70072 4.26271 0
M  V30 36 N 2.9562 -1.48159 -0.537278 0
M  V30 37 C 3.8862 -1.65029 -1.6519 0
M  V30 38 C 4.8672 -0.499281 -1.62607 0
M  V30 39 O 6.0522 -0.730972 -1.79918 0
M  V30 40 C 3.1822 -1.68303 -3.03795 0
M  V30 41 C 2.1362 -2.8283 -3.21234 0
M  V30 42 C 1.4622 -2.71189 -4.60826 0
M  V30 43 C 2.7622 -4.24211 -3.04701 0
M  V30 44 H 4.4562 -2.58341 -1.51328 0
M  V30 45 H 2.0022 -1.24325 -0.726585 0
M  V30 46 H 3.9552 -1.78693 -3.81637 0
M  V30 47 H 2.6792 -0.715635 -3.18663 0
M  V30 48 H 1.3382 -2.71983 -2.45807 0
M  V30 49 H 0.9862 -1.72435 -4.7252 0
M  V30 50 H 0.6862 -3.48035 -4.7344 0
M  V30 51 H 2.2102 -2.83537 -5.40777 0
M  V30 52 H 3.6242 -4.3593 -3.72341 0
M  V30 53 H 2.0212 -5.01998 -3.28813 0
M  V30 54 H 3.0912 -4.41184 -2.01209 0
M  V30 55 N 4.4343 0.785586 -1.36625 0
M  V30 56 C 5.6593 1.57963 -1.34397 0
M  V30 57 C 6.0843 1.87964 0.071526 0
M  V30 58 O 5.4423 1.48182 1.0446 0
M  V30 59 C 5.4903 2.87511 -2.17646 0
M  V30 60 O 4.5943 3.81281 -1.57158 0
M  V30 61 H 3.9353 0.479014 -0.459828 0
M  V30 62 H 6.4653 0.973411 -1.79961 0
M  V30 63 H 6.4753 3.36745 -2.30362 0
M  V30 64 H 5.1503 2.65002 -3.20541 0
M  V30 65 H 3.7273 3.39885 -1.53403 0
M  V30 66 N 5.9124 1.20967 1.01018 0
M  V30 67 C 6.8754 0.965918 2.07853 0
M  V30 68 C 7.8754 -0.0610545 1.60684 0
M  V30 69 O 9.0654 0.175681 1.73312 0
M  V30 70 C 6.1974 0.455513 3.37843 0
M  V30 71 H 7.3904 1.91365 2.3091 0
M  V30 72 H 4.9434 1.02594 1.17916 0
M  V30 73 H 5.6784 -0.497381 3.20463 0
M  V30 74 H 5.4634 1.19622 3.73407 0
M  V30 75 H 6.9534 0.304667 4.16487 0
M  V30 76 N 7.3905 -1.2043 1.01659 0
M  V30 77 C 8.6185 -1.93777 0.725132 0
M  V30 78 C 9.0335 -1.74772 -0.714166 0
M  V30 79 O 8.3905 -1.06169 -1.4844 0
M  V30 80 C 8.4415 -3.45876 1.05129 0
M  V30 81 O 8.1625 -3.6426 2.43406 0
M  V30 82 C 9.6635 -4.36368 0.780891 0
M  V30 83 H 6.8835 -0.615901 0.266284 0
M  V30 84 H 9.4275 -1.52922 1.35776 0
M  V30 85 H 7.5825 -3.8461 0.464065 0
M  V30 86 H 7.9965 -4.58246 2.55169 0
M  V30 87 H 9.4705 -5.41743 1.05918 0
M  V30 88 H 9.9475 -4.38275 -0.284937 0
M  V30 89 H 10.5535 -4.03296 1.35027 0
M  V30 90 N 8.8686 -0.792821 -1.36206 0
M  V30 91 C 9.8006 -0.151469 -2.28699 0
M  V30 92 C 10.8136 0.641262 -1.49638 0
M  V30 93 O 12.0026 0.475885 -1.72039 0
M  V30 94 C 9.1026 0.808424 -3.29117 0
M  V30 95 C 8.2756 0.0650202 -4.37352 0
M  V30 96 C 7.3346 0.941358 -5.17711 0
M  V30 97 O 6.3606 0.397352 -5.67811 0
M  V30 98 N 7.5626 2.2652 -5.3448 0
M  V30 99 H 10.3276 -0.945982 -2.84379 0
M  V30 100 H 7.8886 -0.647032 -1.48409 0
M  V30 101 H 9.8806 1.3986 -3.79765 0
M  V30 102 H 8.4506 1.5038 -2.74052 0
M  V30 103 H 7.6706 -0.706255 -3.87822 0
M  V30 104 H 8.9586 -0.447847 -5.06825 0
M  V30 105 H 8.3566 2.73128 -4.95396 0
M  V30 106 H 6.9136 2.80493 -5.88359 0
M  V30 107 N 10.3467 1.47872 -0.545128 0
M  V30 108 C 11.7577 1.86384 -0.108581 0
M  V30 109 C 12.1087 1.45309 1.31832 0
M  V30 110 O 11.2337 0.850641 1.9898 0
M  V30 111 C 11.8287 3.38265 -0.190274 0
M  V30 112 C 10.3877 3.75914 0.191164 0
M  V30 113 C 9.5347 2.71926 -0.543273 0
M  V30 114 H 12.4857 1.39561 -0.755537 0
M  V30 115 H 12.5067 3.75831 0.594217 0
M  V30 116 H 12.0187 3.6813 -1.2289 0
M  V30 117 H 10.1197 3.51665 1.23136 0
M  V30 118 H 10.2327 4.78836 -0.158987 0
M  V30 119 H 8.5967 2.54697 0.0122495 0
M  V30 120 H 9.3797 3.04634 -1.58282 0
M  V30 121 N 11.8248 0.280983 1.55075 0
M  V30 122 C 12.7548 -0.597469 2.25727 0
M  V30 123 C 13.7358 -1.15417 1.24952 0
M  V30 124 O 14.9208 -1.18722 1.53684 0
M  V30 125 C 12.0508 -1.7789 2.98283 0
M  V30 126 C 11.0048 -1.35347 4.06036 0
M  V30 127 C 10.3308 -2.61846 4.66198 0
M  V30 128 C 11.6308 -0.499354 5.19907 0
M  V30 129 H 13.3248 -0.00824265 2.99399 0
M  V30 130 H 10.8708 -0.0025244 1.44 0
M  V30 131 H 12.8238 -2.39937 3.46422 0
M  V30 132 H 11.5478 -2.39405 2.22155 0
M  V30 133 H 10.2068 -0.756156 3.58717 0
M  V30 134 H 9.8548 -3.21632 3.86732 0
M  V30 135 H 9.5548 -2.3409 5.38958 0
M  V30 136 H 11.0788 -3.24732 5.1709 0
M  V30 137 H 12.4928 -1.02498 5.64063 0
M  V30 138 H 10.8898 -0.316424 5.99265 0
M  V30 139 H 11.9598 0.480459 4.82514 0
M  V30 140 N 13.3029 -1.57598 0.00835791 0
M  V30 141 C 14.5279 -1.95617 -0.689103 0
M  V30 142 C 14.9529 -0.883753 -1.66046 0
M  V30 143 O 14.3109 0.157352 -1.80616 0
M  V30 144 C 14.3589 -3.32736 -1.38994 0
M  V30 145 O 13.4629 -3.27631 -2.50463 0
M  V30 146 H 12.8039 -0.638379 -0.182668 0
M  V30 147 H 15.3339 -2.045 0.064036 0
M  V30 148 H 15.3439 -3.68494 -1.75147 0
M  V30 149 H 14.0189 -4.1034 -0.677778 0
M  V30 150 H 12.5959 -3.03561 -2.16576 0
M  V30 151 N 14.781 0.264519 -1.55364 0
M  V30 152 C 15.691 1.34902 -1.91934 0
M  V30 153 C 16.707 1.53595 -0.817593 0
M  V30 154 O 17.883 1.67558 -1.11742 0
M  V30 155 C 14.948 2.68676 -2.19121 0
M  V30 156 C 14.009 2.58657 -3.4263 0
M  V30 157 C 13.242 3.86051 -3.68511 0
M  V30 158 O 13.465 4.87126 -2.96757 0
M  V30 159 O 12.399 3.85744 -4.62045 0
M  V30 160 H 16.225 1.06883 -2.8427 0
M  V30 161 H 13.81 0.463775 -1.42019 0
M  V30 162 H 15.692 3.47759 -2.37995 0
M  V30 163 H 14.367 2.96463 -1.29966 0
M  V30 164 H 13.274 1.7792 -3.29082 0
M  V30 165 H 14.607 2.35818 -4.32031 0
M  V30 166 N 16.2591 1.48442 0.529413 0
M  V30 167 C 17.2061 1.63007 1.63394 0
M  V30 168 C 18.1761 0.47212 1.59249 0
M  V30 169 O 19.3611 0.695673 1.77666 0
M  V30 170 C 16.5011 1.6763 3.01653 0
M  V30 171 C 15.6141 2.94535 3.16027 0
M  V30 172 C 14.7491 2.90316 4.44849 0
M  V30 173 C 13.7881 4.11923 4.52754 0
M  V30 174 N 12.9251 4.05777 5.72965 0
M  V30 175 H 17.7651 2.5733 1.50285 0
M  V30 176 H 15.3021 1.27613 0.731656 0
M  V30 177 H 17.2601 1.68292 3.81751 0
M  V30 178 H 15.8901 0.76797 3.13532 0
M  V30 179 H 14.9421 3.03615 2.29177 0
M  V30 180 H 16.2541 3.84512 3.17729 0
M  V30 181 H 15.4081 2.89382 5.33238 0
M  V30 182 H 14.1471 1.98068 4.45668 0
M  V30 183 H 13.1521 4.13131 3.62771 0
M  V30 184 H 14.3771 5.0533 4.53672 0
M  V30 185 H 12.3231 3.16351 5.74681 0
M  V30 186 H 12.2401 4.8946 5.76164 0
M  V30 187 H 13.5081 4.08904 6.6364 0
M  V30 188 N 17.7372 -0.778329 1.37039 0
M  V30 189 C 18.6672 -1.90546 1.34962 0
M  V30 190 C 19.6482 -1.68681 0.219274 0
M  V30 191 O 20.8332 -1.89634 0.418624 0
M  V30 192 C 17.9632 -3.27734 1.14925 0
M  V30 193 C 16.9172 -3.64147 2.24902 0
M  V30 194 C 16.2432 -4.99806 1.89996 0
M  V30 195 C 17.5432 -3.71579 3.67051 0
M  V30 196 H 19.2372 -1.92541 2.29277 0
M  V30 197 H 16.7832 -0.924948 1.10366 0
M  V30 198 H 18.7362 -4.06215 1.12104 0
M  V30 199 H 17.4602 -3.26154 0.170631 0
M  V30 200 H 16.1192 -2.8797 2.26868 0
M  V30 201 H 15.7672 -4.94759 0.906796 0
M  V30 202 H 15.4672 -5.25139 2.63634 0
M  V30 203 H 16.9912 -5.80694 1.88749 0
M  V30 204 H 18.4052 -4.40227 3.67251 0
M  V30 205 H 16.8022 -4.08405 4.39688 0
M  V30 206 H 17.8722 -2.72404 4.01154 0
M  V30 207 N 19.2153 -1.21501 -1.00376 0
M  V30 208 C 20.6263 -1.03146 -1.55621 0
M  V30 209 C 20.9773 0.408375 -1.91903 0
M  V30 210 O 20.1023 1.29177 -1.73616 0
M  V30 211 C 20.6973 -1.86612 -2.82775 0
M  V30 212 C 19.2563 -1.72586 -3.34501 0
M  V30 213 C 18.4033 -1.83747 -2.07683 0
M  V30 214 H 21.3543 -1.35505 -0.826081 0
M  V30 215 H 21.3753 -1.3771 -3.54706 0
M  V30 216 H 20.8873 -2.91399 -2.56336 0
M  V30 217 H 18.9883 -0.704877 -3.65872 0
M  V30 218 H 19.1013 -2.54623 -4.05837 0
M  V30 219 H 17.4653 -1.27069 -2.20739 0
M  V30 220 H 18.2483 -2.90044 -1.83655 0
M  V30 221 N 20.6934 1.19889 -1.02296 0
M  V30 222 C 21.6564 2.21116 -0.603351 0
M  V30 223 C 22.6564 1.5738 0.329884 0
M  V30 224 O 23.8464 1.73802 0.117702 0
M  V30 225 C 20.9784 3.40696 0.117992 0
M  V30 226 H 22.1714 2.59754 -1.49893 0
M  V30 227 H 19.7244 1.33463 -0.813468 0
M  V30 228 H 20.4594 3.07569 1.0282 0
M  V30 229 H 20.2444 3.88188 -0.552511 0
M  V30 230 H 21.7344 4.15692 0.398696 0
M  V30 231 N 22.1715 0.800033 1.35784 0
M  V30 232 C 23.1215 0.178654 2.27299 0
M  V30 233 C 24.1055 -0.643667 1.47464 0
M  V30 234 O 25.2975 -0.502 1.69732 0
M  V30 235 C 22.4265 -0.677194 3.36555 0
M  V30 236 C 21.5125 0.154497 4.23818 0
M  V30 237 N 21.9035 1.21427 4.91008 0
M  V30 238 C 20.2015 -0.0649462 4.45953 0
M  V30 239 C 20.9025 1.72147 5.55644 0
M  V30 240 N 19.8785 1.02897 5.33773 0
M  V30 241 H 23.6805 0.989637 2.76737 0
M  V30 242 H 21.1945 0.64054 1.49234 0
M  V30 243 H 23.1915 -1.13835 4.01058 0
M  V30 244 H 21.8515 -1.4866 2.8867 0
M  V30 245 H 22.8625 1.59684 4.92668 0
M  V30 246 H 19.5395 -0.844016 4.0888 0
M  V30 247 H 20.9295 2.60683 6.19269 0
M  V30 248 N 23.6496 -1.47581 0.552962 0
M  V30 249 C 24.8976 -2.02082 0.0272703 0
M  V30 250 C 25.2186 -1.4301 -1.32563 0
M  V30 251 O 24.4886 -0.603745 -1.86365 0
M  V30 252 H 23.0686 -0.746966 0.00709182 0
M  V30 253 H 25.7306 -1.81033 0.722008 0
M  V30 254 H 24.8266 -3.12034 -0.0639951 0
M  V30 255 N 25.1277 -0.289203 -1.54924 0
M  V30 256 C 26.3677 0.324536 -2.01807 0
M  V30 257 C 26.7317 1.5199 -1.17316 0
M  V30 258 O 27.9327 2.20422 -1.53843 0
M  V30 259 C 26.2037 0.683578 -3.50802 0
M  V30 260 S 27.7627 1.28185 -4.19659 0
M  V30 261 H 24.5807 0.100236 -0.703899 0
M  V30 262 H 27.1827 -0.414325 -1.91059 0
M  V30 263 H 25.8867 -0.195073 -4.09936 0
M  V30 264 H 25.4177 1.45354 -3.65562 0
M  V30 265 H 27.4327 2.57006 -4.24456 0
M  V30 266 N 26.6058 1.57591 -0.0167156 0
M  V30 267 C 28.0218 1.55946 0.339557 0
M  V30 268 C 28.2218 1.02109 1.73713 0
M  V30 269 O 27.2778 0.662303 2.43659 0
M  V30 270 C 28.5908 3.00037 0.199499 0
M  V30 271 C 30.1388 3.11805 0.273193 0
M  V30 272 C 30.6138 4.57713 0.162068 0
M  V30 273 N 32.1048 4.6268 0.219444 0
M  V30 274 C 32.8398 5.73185 0.157054 0
M  V30 275 N 32.3358 6.92786 0.0442936 0
M  V30 276 N 34.1288 5.61707 0.21014 0
M  V30 277 H 26.2798 1.90921 -0.930758 0
M  V30 278 H 28.5428 0.877674 -0.358319 0
M  V30 279 H 28.2488 3.4333 -0.76273 0
M  V30 280 H 28.1228 3.64387 0.974786 0
M  V30 281 H 30.5098 2.68433 1.22587 0
M  V30 282 H 30.5908 2.50201 -0.532256 0
M  V30 283 H 30.2348 5.01763 -0.78714 0
M  V30 284 H 30.1648 5.17283 0.986222 0
M  V30 285 H 32.6558 3.76649 0.307246 0
M  V30 286 H 32.9688 7.728 0.00304069 0
M  V30 287 H 31.3138 6.94999 0.00968457 0
M  V30 288 H 34.5048 4.6716 0.296546 0
M  V30 289 H 34.6778 6.47807 0.158054 0
M  V30 290 N 28.0839 -0.256276 1.55502 0
M  V30 291 C 29.0339 -1.31981 1.85916 0
M  V30 292 C 30.0179 -1.43927 0.719296 0
M  V30 293 O 31.2099 -1.47326 0.981019 0
M  V30 294 C 28.3389 -2.67703 2.14918 0
M  V30 295 C 27.4249 -2.59801 3.35208 0
M  V30 296 N 27.8159 -2.21524 4.54709 0
M  V30 297 C 26.1139 -2.90832 3.38131 0
M  V30 298 C 26.8149 -2.24024 5.36832 0
M  V30 299 N 25.7909 -2.63158 4.75656 0
M  V30 300 H 29.5929 -1.01423 2.75845 0
M  V30 301 H 27.1069 -0.464911 1.55603 0
M  V30 302 H 29.1039 -3.44445 2.34869 0
M  V30 303 H 27.7639 -2.99137 1.26282 0
M  V30 304 H 28.7749 -1.93223 4.80505 0
M  V30 305 H 25.4519 -3.26867 2.59739 0
M  V30 306 H 26.8419 -1.9685 6.42417 0
M  V30 307 N 29.562 -1.4872 -0.521534 0
M  V30 308 C 30.808 -1.574 -1.27879 0
M  V30 309 C 31.141 -0.250817 -1.92573 0
M  V30 310 O 30.416 0.743934 -1.79711 0
M  V30 311 C 30.699 -2.71843 -2.36164 0
M  V30 312 C 30.552 -4.13893 -1.76105 0
M  V30 313 C 31.871 -2.82008 -3.37875 0
M  V30 314 H 28.99 -0.572941 -0.463581 0
M  V30 315 H 31.632 -1.80927 -0.580119 0
M  V30 316 H 29.782 -2.51914 -2.95756 0
M  V30 317 H 31.454 -4.45284 -1.20499 0
M  V30 318 H 29.697 -4.20498 -1.06601 0
M  V30 319 H 30.368 -4.89804 -2.5455 0
M  V30 320 H 32.844 -3.00086 -2.88249 0
M  V30 321 H 31.72 -3.63796 -4.11028 0
M  V30 322 H 31.981 -1.90511 -3.98946 0
M  V30 323 N 31.0401 0.771051 -1.3745 0
M  V30 324 C 32.0031 1.86598 -1.33093 0
M  V30 325 C 33.0031 1.59076 -0.234845 0
M  V30 326 O 34.1931 1.67145 -0.490732 0
M  V30 327 C 31.3251 3.23747 -1.06773 0
M  V30 328 H 32.5181 1.91873 -2.30488 0
M  V30 329 H 30.0711 0.970876 -1.2249 0
M  V30 330 H 30.8061 3.24148 -0.099129 0
M  V30 331 H 30.5911 3.45115 -1.86112 0
M  V30 332 H 32.0811 4.03824 -1.06377 0
M  V30 333 N 32.5182 1.22032 0.997298 0
M  V30 334 C 33.7672 1.03637 1.73038 0
M  V30 335 C 34.0802 -0.429475 1.90827 0
M  V30 336 O 35.2862 -0.732995 2.61418 0
M  V30 337 C 33.7422 1.80582 3.11317 0
M  V30 338 C 33.3502 3.31387 3.01474 0
M  V30 339 C 35.0942 1.70621 3.88701 0
M  V30 340 C 33.0012 4.00791 4.3488 0
M  V30 341 H 31.9312 0.384179 0.648785 0
M  V30 342 H 34.5822 1.4584 1.11368 0
M  V30 343 H 32.9642 1.31175 3.73643 0
M  V30 344 H 34.1382 3.88155 2.4834 0
M  V30 345 H 32.4532 3.41976 2.37575 0
M  V30 346 H 35.0502 2.19799 4.87434 0
M  V30 347 H 35.3932 0.665823 4.10941 0
M  V30 348 H 35.9262 2.17547 3.33044 0
M  V30 349 H 32.6652 5.05064 4.1784 0
M  V30 350 H 32.1852 3.48811 4.87945 0
M  V30 351 H 33.8642 4.06139 5.03647 0
M  V30 352 N 33.9963 -1.19345 1.0293 0
M  V30 353 C 35.2453 -1.88363 0.721256 0
M  V30 354 C 35.5583 -1.80514 -0.753254 0
M  V30 355 O 36.7643 -2.44788 -1.17436 0
M  V30 356 C 35.2203 -3.37872 1.23978 0
M  V30 357 C 34.8283 -3.54278 2.74211 0
M  V30 358 C 36.5723 -4.12365 1.00775 0
M  V30 359 C 34.4793 -4.97682 3.19479 0
M  V30 360 H 33.4093 -0.705484 0.266098 0
M  V30 361 H 36.0603 -1.34928 1.24365 0
M  V30 362 H 34.4423 -3.90707 0.6453 0
M  V30 363 H 35.6163 -3.11769 3.39318 0
M  V30 364 H 33.9313 -2.93174 2.95699 0
M  V30 365 H 36.5283 -5.18119 1.32123 0
M  V30 366 H 36.8713 -4.16263 -0.0554308 0
M  V30 367 H 37.4043 -3.65668 1.56625 0
M  V30 368 H 34.1433 -4.98945 4.25128 0
M  V30 369 H 33.6633 -5.4095 2.591 0
M  V30 370 H 35.3423 -5.66337 3.12845 0
M  V30 371 N 35.4744 -0.807222 -1.35358 0
M  V30 372 C 36.4074 -0.163572 -2.27613 0
M  V30 373 C 37.3854 0.670817 -1.48118 0
M  V30 374 O 38.5694 0.63796 -1.77376 0
M  V30 375 C 35.6964 0.773015 -3.29761 0
M  V30 376 C 34.7424 0.0181653 -4.26496 0
M  V30 377 S 35.5754 -1.31831 -5.19019 0
M  V30 378 C 36.7314 -0.38619 -6.24707 0
M  V30 379 H 36.9644 -0.945757 -2.81856 0
M  V30 380 H 34.4974 -0.602315 -1.42167 0
M  V30 381 H 36.4554 1.30788 -3.89108 0
M  V30 382 H 35.1164 1.52859 -2.74396 0
M  V30 383 H 34.3094 0.729534 -4.98692 0
M  V30 384 H 33.9114 -0.446761 -3.71322 0
M  V30 385 H 36.2034 0.428295 -6.76145 0
M  V30 386 H 37.1464 -1.07736 -6.99856 0
M  V30 387 H 37.5544 0.018398 -5.64497 0
M  V30 388 N 36.9525 1.47285 -0.560781 0
M  V30 389 C 38.2295 1.9558 0.0277798 0
M  V30 390 C 38.6095 1.5034 1.48192 0
M  V30 391 O 37.9575 0.743882 2.16052 0
M  V30 392 C 38.1675 3.48789 -0.121418 0
M  V30 393 C 39.5155 4.24594 0.0220912 0
M  V30 394 O 40.5395 3.56166 -0.0491439 0
M  V30 395 O 39.3985 5.46217 0.175958 0
M  V30 396 H 36.4925 0.824663 0.0621342 0
M  V30 397 H 39.0385 1.5767 -0.627556 0
M  V30 398 H 37.8105 3.74533 -1.13316 0
M  V30 399 H 37.4335 3.93473 0.571366 0
M  V30 400 N 38.4306 0.297415 1.54768 0
M  V30 401 C 39.6786 -0.312295 1.99673 0
M  V30 402 C 39.9996 -1.54686 1.18732 0
M  V30 403 O 39.2696 -1.93854 0.282382 0
M  V30 404 H 37.8496 -0.118381 0.73756 0
M  V30 405 H 40.5116 0.407915 1.90583 0
M  V30 406 H 39.6076 -0.586813 3.06534 0
M  V30 407 N 39.9087 -1.5758 0.0250728 0
M  V30 408 C 40.8567 -2.11125 -0.97617 0
M  V30 409 C 41.8507 -1.03689 -1.33959 0
M  V30 410 O 43.0567 -1.22128 -1.3223 0
M  V30 411 H 39.4317 -0.674468 -0.332561 0
M  V30 412 H 41.4027 -2.94194 -0.499223 0
M  V30 413 C 40.1517 -2.65017 -2.2508 0
M  V30 414 H 39.4747 -3.47333 -1.9799 0
M  V30 415 H 40.9147 -3.06133 -2.93357 0
M  V30 416 C 39.3737 -1.57574 -2.97779 0
M  V30 417 O 39.9037 -0.973203 -3.89733 0
M  V30 418 N 38.1097 -1.29716 -2.60043 0
M  V30 419 H 37.6567 -1.789 -1.85345 0
M  V30 420 H 37.6147 -0.58051 -3.08994 0
M  V30 421 N 41.3868 0.248026 -1.55636 0
M  V30 422 C 42.6348 0.974295 -1.77065 0
M  V30 423 C 42.9558 1.85897 -0.588849 0
M  V30 424 O 42.2258 1.91868 0.395407 0
M  V30 425 H 40.8058 0.362733 -0.653019 0
M  V30 426 H 43.4678 0.266244 -1.93073 0
M  V30 427 H 42.5638 1.59667 -2.68166 0
M  V30 428 N 42.8649 1.48995 0.513639 0
M  V30 429 C 44.2809 1.35478 0.843682 0
M  V30 430 C 44.4809 0.378213 1.97919 0
M  V30 431 O 43.5369 -0.194689 2.51748 0
M  V30 432 C 44.8499 2.75901 1.1958 0
M  V30 433 C 46.3979 2.84509 1.30474 0
M  V30 434 C 46.8729 4.25671 1.69021 0
M  V30 435 N 48.3639 4.28422 1.76094 0
M  V30 436 C 49.0989 5.34601 2.07338 0
M  V30 437 N 48.5949 6.5104 2.36894 0
M  V30 438 N 50.3879 5.22007 2.08483 0
M  V30 439 H 42.5389 2.11092 -0.235328 0
M  V30 440 H 44.8019 0.947039 -0.0426669 0
M  V30 441 H 44.5079 3.49001 0.434913 0
M  V30 442 H 44.3819 3.10467 2.1422 0
M  V30 443 H 46.7689 2.11655 2.05637 0
M  V30 444 H 46.8499 2.53542 0.339155 0
M  V30 445 H 46.4939 4.99048 0.944135 0
M  V30 446 H 46.4239 4.54094 2.66658 0
M  V30 447 H 48.9149 3.44441 1.55464 0
M  V30 448 H 49.2279 7.2779 2.59887 0
M  V30 449 H 47.5729 6.54287 2.34378 0
M  V30 450 H 50.7639 4.30051 1.84861 0
M  V30 451 H 50.9369 6.04854 2.325 0
M  V30 452 N 44.343 -0.763751 1.37857 0
M  V30 453 C 45.589 -1.52396 1.3471 0
M  V30 454 C 45.944 -1.92288 -0.0656435 0
M  V30 455 O 45.237 -1.6181 -1.02606 0
M  V30 456 C 45.431 -2.79499 2.22745 0
M  V30 457 C 45.26 -2.52031 3.72438 0
M  V30 458 C 44.03 -2.45759 4.4151 0
M  V30 459 C 46.228 -2.19489 4.65112 0
M  V30 460 N 44.21 -2.1046 5.76697 0
M  V30 461 C 45.581 -1.94396 5.88736 0
M  V30 462 C 47.636 -2.05712 4.53417 0
M  V30 463 C 46.339 -1.56917 7.01975 0
M  V30 464 C 48.365 -1.69634 5.66549 0
M  V30 465 C 47.727 -1.45407 6.89229 0
M  V30 466 H 43.826 -0.55765 0.548225 0
M  V30 467 H 46.41 -0.890302 1.73152 0
M  V30 468 H 44.581 -3.4069 1.86507 0
M  V30 469 H 46.313 -3.45465 2.10798 0
M  V30 470 H 43.068 -2.61885 3.94605 0
M  V30 471 H 43.492 -1.95484 6.48163 0
M  V30 472 H 48.134 -2.23123 3.59133 0
M  V30 473 H 45.852 -1.38246 7.96187 0
M  V30 474 H 49.438 -1.59621 5.59475 0
M  V30 475 H 48.318 -1.17904 7.75286 0
M  V30 476 N 45.8211 -1.22559 -0.990812 0
M  V30 477 C 46.7841 -0.998863 -2.0629 0
M  V30 478 C 47.7841 0.0354834 -1.60761 0
M  V30 479 O 48.9741 -0.203231 -1.7301 0
M  V30 480 C 46.1061 -0.509203 -3.37076 0
M  V30 481 H 47.2991 -1.95014 -2.27837 0
M  V30 482 H 44.8521 -1.04456 -1.16269 0
M  V30 483 H 45.5871 0.446335 -3.21214 0
M  V30 484 H 45.3721 -1.25547 -3.71457 0
M  V30 485 H 46.8621 -0.370888 -4.1595 0
M  V30 486 N 47.2992 1.18797 -1.03562 0
M  V30 487 C 48.2462 2.22253 -0.622259 0
M  V30 488 C 49.2162 1.61987 0.36736 0
M  V30 489 O 50.4012 1.88986 0.262492 0
M  V30 490 C 47.5412 3.45097 0.0138462 0
M  V30 491 C 46.6542 4.19722 -1.02263 0
M  V30 492 C 45.7892 5.30009 -0.355573 0
M  V30 493 C 44.8282 5.96399 -1.37749 0
M  V30 494 N 43.9652 6.98234 -0.735766 0
M  V30 495 H 48.8052 2.56968 -1.50903 0
M  V30 496 H 46.3422 1.26245 -0.755017 0
M  V30 497 H 48.3002 4.15279 0.399948 0
M  V30 498 H 46.9302 3.11018 0.864158 0
M  V30 499 H 45.9822 3.48418 -1.52673 0
M  V30 500 H 47.2942 4.65227 -1.79903 0
M  V30 501 H 46.4482 6.0664 0.0850095 0
M  V30 502 H 45.1872 4.85592 0.452967 0
M  V30 503 H 44.1922 5.18512 -1.82826 0
M  V30 504 H 45.4172 6.42899 -2.18764 0
M  V30 505 H 43.3632 6.55979 0.0525597 0
M  V30 506 H 43.2802 7.41965 -1.44995 0
M  V30 507 H 44.5482 7.78845 -0.31941 0
M  V30 508 N 48.7773 0.814389 1.34928 0
M  V30 509 C 49.7243 0.22822 2.29669 0
M  V30 510 C 50.6943 -0.642164 1.53184 0
M  V30 511 O 51.8793 -0.585605 1.81591 0
M  V30 512 C 49.0193 -0.61089 3.3965 0
M  V30 513 C 48.1323 0.280792 4.31086 0
M  V30 514 C 47.2673 -0.567067 5.28165 0
M  V30 515 C 46.3063 0.324531 6.11239 0
M  V30 516 N 45.4433 -0.483756 7.00431 0
M  V30 517 H 50.2833 1.04153 2.79206 0
M  V30 518 H 47.8203 0.525133 1.37407 0
M  V30 519 H 49.7783 -1.11263 4.0209 0
M  V30 520 H 48.4083 -1.38939 2.91369 0
M  V30 521 H 47.4603 0.900688 3.69583 0
M  V30 522 H 48.7723 0.966723 4.89342 0
M  V30 523 H 47.9263 -1.13363 5.96015 0
M  V30 524 H 46.6653 -1.28654 4.70425 0
M  V30 525 H 45.6703 0.903298 5.42329 0
M  V30 526 H 46.8953 1.04198 6.71059 0
M  V30 527 H 44.8413 -1.18706 6.45171 0
M  V30 528 H 44.7583 0.143965 7.55863 0
M  V30 529 H 46.0263 -1.03334 7.7262 0
M  V30 530 N 50.2554 -1.46986 0.568584 0
M  V30 531 C 51.1874 -2.28233 -0.210337 0
M  V30 532 C 52.2004 -1.37682 -0.868767 0
M  V30 533 O 53.3894 -1.62406 -0.740705 0
M  V30 534 C 50.4894 -3.12293 -1.3163 0
M  V30 535 C 49.6624 -4.30878 -0.7525 0
M  V30 536 C 48.7214 -4.96445 -1.74439 0
M  V30 537 O 47.7474 -5.54482 -1.286 0
M  V30 538 N 48.9494 -4.92171 -3.07812 0
M  V30 539 H 51.7144 -2.95723 0.486648 0
M  V30 540 H 49.2754 -1.56742 0.405409 0
M  V30 541 H 51.2674 -3.53022 -1.97883 0
M  V30 542 H 49.8374 -2.46971 -1.91636 0
M  V30 543 H 49.0574 -3.94104 0.0871128 0
M  V30 544 H 50.3454 -5.07558 -0.35536 0
M  V30 545 H 49.7434 -4.46239 -3.47688 0
M  V30 546 H 48.3004 -5.36884 -3.69592 0
M  V30 547 N 51.7335 -0.305618 -1.54608 0
M  V30 548 C 52.9815 0.301701 -1.99835 0
M  V30 549 C 53.3025 1.54054 -1.19551 0
M  V30 550 O 52.5725 1.93702 -0.292658 0
M  V30 551 H 51.1525 0.114468 -0.738178 0
M  V30 552 H 53.8145 -0.418016 -1.90364 0
M  V30 553 H 52.9105 0.570548 -3.06841 0
M  V30 554 N 53.2116 1.57565 -0.0334293 0
M  V30 555 C 54.1586 2.10478 0.946981 0
M  V30 556 C 55.1286 1.00787 1.32027 0
M  V30 557 O 56.3136 1.28232 1.41284 0
M  V30 558 C 53.4536 2.63994 2.22263 0
M  V30 559 C 52.5666 3.87709 1.90541 0
M  V30 560 C 51.7016 4.29604 3.12433 0
M  V30 561 C 50.7406 5.46065 2.76549 0
M  V30 562 N 49.8776 5.83096 3.9108 0
M  V30 563 H 54.7176 2.93963 0.488846 0
M  V30 564 H 52.2546 1.45296 0.22969 0
M  V30 565 H 54.2126 2.93114 2.96884 0
M  V30 566 H 52.8426 1.83333 2.65685 0
M  V30 567 H 51.8946 3.65291 1.06144 0
M  V30 568 H 53.2066 4.72403 1.60116 0
M  V30 569 H 52.3606 4.60182 3.9537 0
M  V30 570 H 51.0996 3.43685 3.46023 0
M  V30 571 H 50.1046 5.15176 1.92026 0
M  V30 572 H 51.3296 6.33685 2.44171 0
M  V30 573 H 49.2756 5.00132 4.24504 0
M  V30 574 H 49.1926 6.6244 3.64293 0
M  V30 575 H 50.4606 6.18282 4.74708 0
M  V30 576 N 54.6897 -0.239769 1.55765 0
M  V30 577 C 55.9387 -0.964754 1.77131 0
M  V30 578 C 56.2517 -1.86213 0.59868 0
M  V30 579 O 57.4577 -2.6244 0.695522 0
M  V30 580 C 55.9137 -1.76552 3.1362 0
M  V30 581 C 55.5217 -0.915185 4.38553 0
M  V30 582 C 57.2657 -2.48281 3.44321 0
M  V30 583 C 55.1727 -1.71225 5.66071 0
M  V30 584 H 54.1027 -0.363953 0.660344 0
M  V30 585 H 56.7537 -0.219181 1.82186 0
M  V30 586 H 55.1357 -2.55331 3.02691 0
M  V30 587 H 56.3097 -0.169217 4.60489 0
M  V30 588 H 54.6247 -0.310889 4.15238 0
M  V30 589 H 57.2217 -3.08382 4.36812 0
M  V30 590 H 57.5647 -3.20256 2.65973 0
M  V30 591 H 58.0977 -1.76507 3.56497 0
M  V30 592 H 54.8367 -1.03612 6.4726 0
M  V30 593 H 54.3567 -2.43331 5.48224 0
M  V30 594 H 56.0357 -2.27758 6.05587 0
M  V30 595 N 56.1678 -1.49265 -0.50573 0
M  V30 596 C 57.5838 -1.35923 -0.836486 0
M  V30 597 C 57.7838 -0.388704 -1.97715 0
M  V30 598 O 56.8398 0.181336 -2.51848 0
M  V30 599 C 58.1528 -2.76531 -1.18115 0
M  V30 600 C 59.7008 -2.85197 -1.28964 0
M  V30 601 C 60.1758 -4.26561 -1.66761 0
M  V30 602 N 61.6668 -4.2935 -1.73819 0
M  V30 603 C 62.4018 -5.35693 -2.045 0
M  V30 604 N 61.8978 -6.52287 -2.33438 0
M  V30 605 N 63.6908 -5.23105 -2.05711 0
M  V30 606 H 55.8418 -2.10965 0.246519 0
M  V30 607 H 58.1048 -0.9468 0.0476887 0
M  V30 608 H 57.8108 -3.49226 -0.416398 0
M  V30 609 H 57.6848 -3.11599 -2.1257 0
M  V30 610 H 60.0718 -2.12742 -2.04511 0
M  V30 611 H 60.1528 -2.53718 -0.325704 0
M  V30 612 H 59.7968 -4.99541 -0.917656 0
M  V30 613 H 59.7268 -4.55502 -2.64246 0
M  V30 614 H 62.2178 -3.4526 -1.53635 0
M  V30 615 H 62.5308 -7.29158 -2.56024 0
M  V30 616 H 60.8758 -6.55521 -2.30905 0
M  V30 617 H 64.0668 -4.31026 -1.82577 0
M  V30 618 H 64.2398 -6.06078 -2.29289 0
M  V30 619 N 57.6459 0.756429 -1.3826 0
M  V30 620 C 58.6089 1.85176 -1.35065 0
M  V30 621 C 59.6089 1.58818 -0.251703 0
M  V30 622 O 60.7989 1.66615 -0.508433 0
M  V30 623 C 57.9309 3.22596 -1.10201 0
M  V30 624 H 59.1239 1.89417 -2.3251 0
M  V30 625 H 56.6769 0.95783 -1.23512 0
M  V30 626 H 57.4119 3.24025 -0.133504 0
M  V30 627 H 57.1969 3.43122 -1.89762 0
M  V30 628 H 58.6869 4.02673 -1.10654 0
M  V30 629 N 59.124 1.23083 0.984299 0
M  V30 630 C 60.371 1.06057 1.72505 0
M  V30 631 C 60.699 -0.403105 1.90277 0
M  V30 632 O 59.954 -1.3149 1.44944 0
M  V30 633 C 60.253 1.72673 3.1292 0
M  V30 634 C 59.919 3.22586 3.15038 0
M  V30 635 C 58.581 3.63489 3.15324 0
M  V30 636 C 60.933 4.185 3.10657 0
M  V30 637 C 58.261 4.98772 3.08939 0
M  V30 638 C 60.613 5.53769 3.05814 0
M  V30 639 C 59.277 5.94041 3.04419 0
M  V30 640 H 58.547 0.388091 0.631242 0
M  V30 641 H 61.194 1.52963 1.15215 0
M  V30 642 H 59.499 1.18116 3.73572 0
M  V30 643 H 61.196 1.56982 3.68996 0
M  V30 644 H 57.786 2.90022 3.15571 0
M  V30 645 H 61.97 3.87911 3.09579 0
M  V30 646 H 57.226 5.29193 3.0621 0
M  V30 647 H 61.4 6.27808 3.0138 0
M  V30 648 H 59.027 6.98833 2.99227 0
M  V30 649 N 60.6021 -1.18246 1.0419 0
M  V30 650 C 61.8501 -1.87886 0.744543 0
M  V30 651 C 62.1711 -1.8082 -0.730006 0
M  V30 652 O 61.4411 -1.22736 -1.52685 0
M  V30 653 H 60.0211 -0.695556 0.272417 0
M  V30 654 H 62.6831 -1.43494 1.31892 0
M  V30 655 H 61.7791 -2.9389 1.05049 0
M  V30 656 N 62.0802 -0.821533 -1.34494 0
M  V30 657 C 63.0302 -0.214793 -2.26986 0
M  V30 658 C 64.0142 0.620125 -1.4847 0
M  V30 659 O 65.2062 0.474933 -1.70509 0
M  V30 660 C 62.3352 0.623566 -3.37589 0
M  V30 661 C 61.4212 -0.221904 -4.23519 0
M  V30 662 N 61.8122 -1.29223 -4.89014 0
M  V30 663 C 60.1102 -0.00600922 -4.46 0
M  V30 664 C 60.8112 -1.80965 -5.52835 0
M  V30 665 N 59.7872 -1.11376 -5.32068 0
M  V30 666 H 63.5892 -1.03354 -2.75128 0
M  V30 667 H 61.1032 -0.6642 -1.48196 0
M  V30 668 H 63.1002 1.0744 -4.02818 0
M  V30 669 H 61.7602 1.44049 -2.90998 0
M  V30 670 H 62.7712 -1.67502 -4.90065 0
M  V30 671 H 59.4482 0.77886 -4.10171 0
M  V30 672 H 60.8382 -2.70502 -6.15043 0
M  V30 673 N 63.5583 1.46682 -0.576371 0
M  V30 674 C 64.5053 2.30241 0.160499 0
M  V30 675 C 65.4753 1.40233 0.890162 0
M  V30 676 O 66.6603 1.69186 0.882084 0
M  V30 677 C 63.8003 3.24578 1.1723 0
M  V30 678 C 62.9133 4.29684 0.446736 0
M  V30 679 C 62.0483 5.11154 1.44551 0
M  V30 680 C 61.0873 6.08015 0.70599 0
M  V30 681 N 60.2243 6.82376 1.65251 0
M  V30 682 H 65.0643 2.92727 -0.558127 0
M  V30 683 H 62.6013 1.44272 -0.287056 0
M  V30 684 H 64.5593 3.77711 1.77172 0
M  V30 685 H 63.1893 2.63916 1.85872 0
M  V30 686 H 62.2413 3.79458 -0.267594 0
M  V30 687 H 63.5533 4.98626 -0.131686 0
M  V30 688 H 62.7073 5.68533 2.11791 0
M  V30 689 H 61.4463 4.42158 2.05786 0
M  V30 690 H 60.4513 5.49796 0.0197725 0
M  V30 691 H 61.6763 6.79028 0.09912 0
M  V30 692 H 59.6223 6.16094 2.25308 0
M  V30 693 H 59.5393 7.47556 1.12673 0
M  V30 694 H 60.8073 7.44316 2.31546 0
M  V30 695 N 65.0364 0.313813 1.54444 0
M  V30 696 C 65.9994 -0.54379 2.22656 0
M  V30 697 C 66.9994 -1.05124 1.21678 0
M  V30 698 O 68.1894 -0.945225 1.46325 0
M  V30 699 C 65.3214 -1.75427 2.92298 0
M  V30 700 H 66.5144 0.0523599 2.99854 0
M  V30 701 H 64.0674 0.0647834 1.56166 0
M  V30 702 H 64.8024 -2.38991 2.19211 0
M  V30 703 H 64.5874 -1.39791 3.66334 0
M  V30 704 H 66.0774 -2.36325 3.44297 0
M  V30 705 N 66.5145 -1.57545 0.0417849 0
M  V30 706 C 67.7625 -1.91937 -0.632829 0
M  V30 707 C 68.0835 -0.919978 -1.71934 0
M  V30 708 O 67.3535 0.0366064 -1.95866 0
M  V30 709 H 65.9335 -0.708493 -0.236742 0
M  V30 710 H 68.5955 -1.9468 0.0925745 0
M  V30 711 H 67.6915 -2.92912 -1.07746 0
M  V30 712 N 67.9926 0.231505 -1.5589 0
M  V30 713 C 68.9556 1.27028 -1.90779 0
M  V30 714 C 69.9556 1.40308 -0.785507 0
M  V30 715 O 71.1456 1.38744 -1.05336 0
M  V30 716 C 68.2776 2.64566 -2.14983 0
M  V30 717 H 69.4706 0.973017 -2.83677 0
M  V30 718 H 67.0236 0.471486 -1.49019 0
M  V30 719 H 67.7586 2.99406 -1.24604 0
M  V30 720 H 67.5436 2.56305 -2.96732 0
M  V30 721 H 69.0336 3.39543 -2.43105 0
M  V30 722 N 69.4707 1.49531 0.497807 0
M  V30 723 C 70.4177 1.66436 1.59899 0
M  V30 724 C 71.3877 0.505793 1.58212 0
M  V30 725 O 72.5727 0.733202 1.7615 0
M  V30 726 C 69.7127 1.7399 2.98029 0
M  V30 727 C 68.8257 3.01172 3.09708 0
M  V30 728 C 67.9607 2.99686 4.38591 0
M  V30 729 C 66.9997 4.21434 4.43914 0
M  V30 730 N 66.1367 4.1784 5.64229 0
M  V30 731 H 70.9767 2.60459 1.44793 0
M  V30 732 H 68.5137 1.29137 0.704423 0
M  V30 733 H 70.4717 1.76352 3.78095 0
M  V30 734 H 69.1017 0.834301 3.11832 0
M  V30 735 H 68.1537 3.08408 2.22685 0
M  V30 736 H 69.4657 3.91165 3.09502 0
M  V30 737 H 68.6197 3.00628 5.2698 0
M  V30 738 H 67.3587 2.07477 4.41367 0
M  V30 739 H 66.3637 4.20733 3.53926 0
M  V30 740 H 67.5887 5.14839 4.42851 0
M  V30 741 H 65.5347 3.28469 5.67841 0
M  V30 742 H 65.4517 5.01571 5.65652 0
M  V30 743 H 66.7197 4.22889 6.54817 0
M  V30 744 N 70.9488 -0.749086 1.3866 0
M  V30 745 C 72.1738 -1.54344 1.38538 0
M  V30 746 C 72.5988 -1.88088 -0.0216655 0
M  V30 747 O 71.9568 -1.50899 -1.00494 0
M  V30 748 C 72.0048 -2.8164 2.25192 0
M  V30 749 O 71.1088 -3.7698 1.67212 0
M  V30 750 H 70.4498 -0.466654 0.472367 0
M  V30 751 H 72.9798 -0.925355 1.82478 0
M  V30 752 H 72.9898 -3.30519 2.3921 0
M  V30 753 H 71.6648 -2.56411 3.27454 0
M  V30 754 H 70.2418 -3.35699 1.6236 0
M  V30 755 N 72.4269 -1.23603 -0.977757 0
M  V30 756 C 73.6729 -1.07129 -1.72195 0
M  V30 757 C 74.0059 0.390501 -1.90233 0
M  V30 758 O 73.2809 1.28902 -1.45653 0
M  V30 759 C 73.5639 -1.80031 -3.11867 0
M  V30 760 C 73.4169 -3.33899 -3.01383 0
M  V30 761 C 74.7359 -1.56492 -4.11337 0
M  V30 762 H 71.8549 -0.390571 -0.624999 0
M  V30 763 H 74.4969 -1.52142 -1.13811 0
M  V30 764 H 72.6469 -1.41768 -3.6171 0
M  V30 765 H 74.3189 -3.81699 -2.59043 0
M  V30 766 H 72.5619 -3.62796 -2.37827 0
M  V30 767 H 73.2329 -3.801 -4.00285 0
M  V30 768 H 75.7089 -1.89757 -3.70313 0
M  V30 769 H 74.5849 -2.09973 -5.07151 0
M  V30 770 H 74.8459 -0.500874 -4.39254 0
M  V30 771 N 73.905 1.17692 -1.04816 0
M  V30 772 C 75.321 1.39863 -0.768794 0
M  V30 773 C 75.521 1.91118 0.638451 0
M  V30 774 O 74.577 2.10036 1.40146 0
M  V30 775 C 75.89 2.39274 -1.82122 0
M  V30 776 C 77.438 2.52987 -1.843 0
M  V30 777 C 77.913 3.55669 -2.88555 0
M  V30 778 N 79.404 3.63183 -2.87493 0
M  V30 779 C 80.139 4.42381 -3.64811 0
M  V30 780 N 79.635 5.25125 -4.51903 0
M  V30 781 N 81.428 4.37217 -3.53267 0
M  V30 782 H 73.579 0.82752 -1.95617 0
M  V30 783 H 75.842 0.426123 -0.846831 0
M  V30 784 H 75.548 2.08678 -2.83102 0
M  V30 785 H 75.422 3.38725 -1.65967 0
M  V30 786 H 77.809 2.82896 -0.839869 0
M  V30 787 H 77.89 1.53623 -2.04532 0
M  V30 788 H 77.534 3.26499 -3.89051 0
M  V30 789 H 77.464 4.54728 -2.65575 0
M  V30 790 H 79.955 3.04103 -2.24343 0
M  V30 791 H 80.268 5.82728 -5.07591 0
M  V30 792 H 78.613 5.24519 -4.55966 0
M  V30 793 H 81.804 3.71626 -2.84625 0
M  V30 794 H 81.977 4.98696 -4.13771 0
M  V30 795 N 75.3831 0.828654 1.34056 0
M  V30 796 C 76.7991 0.515135 1.51058 0
M  V30 797 C 76.9991 -0.959581 1.77184 0
M  V30 798 O 76.0551 -1.74382 1.82612 0
M  V30 799 C 77.3681 1.37963 2.67183 0
M  V30 800 C 78.9161 1.37735 2.81066 0
M  V30 801 C 79.3911 2.22645 4.00241 0
M  V30 802 N 80.8821 2.203 4.07458 0
M  V30 803 C 81.6171 2.82744 4.98842 0
M  V30 804 N 81.1131 3.54201 5.9541 0
M  V30 805 N 82.9061 2.72268 4.91759 0
M  V30 806 H 75.0571 1.78343 1.15358 0
M  V30 807 H 77.3201 0.760304 0.566252 0
M  V30 808 H 77.0261 2.42714 2.54525 0
M  V30 809 H 76.9001 1.0484 3.62338 0
M  V30 810 H 79.2871 0.337593 2.93163 0
M  V30 811 H 79.3681 1.74859 1.86703 0
M  V30 812 H 79.0121 3.26674 3.88905 0
M  V30 813 H 78.9421 1.82869 4.93829 0
M  V30 814 H 81.4331 1.68327 3.38341 0
M  V30 815 H 81.7461 3.9908 6.61782 0
M  V30 816 H 80.0911 3.58308 5.95517 0
M  V30 817 H 83.2821 2.16014 4.15278 0
M  V30 818 H 83.4551 3.21219 5.62781 0
M  V30 819 N 76.8612 -1.46375 0.584142 0
M  V30 820 C 77.8242 -2.28784 -0.138108 0
M  V30 821 C 78.8242 -1.38471 -0.817462 0
M  V30 822 O 80.0142 -1.60833 -0.669199 0
M  V30 823 C 77.1462 -3.18892 -1.20503 0
M  V30 824 H 78.3392 -2.94117 0.586127 0
M  V30 825 H 75.8922 -1.52509 0.342171 0
M  V30 826 H 76.6272 -2.58309 -1.96079 0
M  V30 827 H 76.4122 -3.85388 -0.722384 0
M  V30 828 H 77.9022 -3.80914 -1.71155 0
M  V30 829 N 78.3393 -0.321999 -1.54275 0
M  V30 830 C 79.5853 0.281461 -2.00837 0
M  V30 831 C 79.9183 1.51909 -1.20985 0
M  V30 832 O 79.1933 1.923 -0.291733 0
M  V30 833 C 79.4763 0.617162 -3.54772 0
M  V30 834 C 79.3293 -0.631064 -4.45351 0
M  V30 835 C 80.6483 1.43542 -4.16033 0
M  V30 836 H 77.7673 0.100826 -0.730071 0
M  V30 837 H 80.4093 -0.438268 -1.84876 0
M  V30 838 H 78.5593 1.23034 -3.68504 0
M  V30 839 H 80.2313 -1.26934 -4.43492 0
M  V30 840 H 78.4743 -1.26025 -4.15091 0
M  V30 841 H 79.1453 -0.351735 -5.50878 0
M  V30 842 H 81.6213 0.917134 -4.05867 0
M  V30 843 H 80.4973 1.63907 -5.23856 0
M  V30 844 H 80.7583 2.43108 -3.69257 0
M  V30 845 N 79.8174 1.5752 -0.0501392 0
M  V30 846 C 81.0424 1.97376 0.636997 0
M  V30 847 C 81.4674 0.927466 1.63645 0
M  V30 848 O 80.8254 -0.10941 1.8097 0
M  V30 849 C 80.8734 3.36304 1.30123 0
M  V30 850 O 79.9774 3.34156 2.41689 0
M  V30 851 H 79.3184 0.642998 0.165679 0
M  V30 852 H 81.8484 2.04258 -0.118233 0
M  V30 853 H 81.8584 3.73008 1.65315 0
M  V30 854 H 80.5334 4.11993 0.568746 0
M  V30 855 H 79.1104 3.09196 2.08451 0
M  V30 856 N 81.2955 -0.223234 1.56011 0
M  V30 857 C 82.5425 -0.947875 1.78946 0
M  V30 858 C 82.8705 -1.844 0.618608 0
M  V30 859 O 82.1255 -1.91629 -0.397093 0
M  V30 860 C 82.4245 -1.81948 3.0762 0
M  V30 861 C 82.0905 -1.07672 4.37856 0
M  V30 862 C 80.7525 -0.871544 4.73242 0
M  V30 863 C 83.1045 -0.552081 5.18268 0
M  V30 864 C 80.4325 -0.129791 5.86556 0
M  V30 865 C 82.7845 0.17632 6.32354 0
M  V30 866 C 81.4485 0.39277 6.66343 0
M  V30 867 H 80.7185 -0.346852 0.654809 0
M  V30 868 H 83.3655 -0.216171 1.90276 0
M  V30 869 H 81.6705 -2.61899 2.91404 0
M  V30 870 H 83.3675 -2.38227 3.22566 0
M  V30 871 H 79.9575 -1.24662 4.1007 0
M  V30 872 H 84.1415 -0.698076 4.91366 0
M  V30 873 H 79.3975 0.048153 6.11381 0
M  V30 874 H 83.5715 0.590367 6.93893 0
M  V30 875 H 81.1985 0.969466 7.53993 0
M  V30 876 N 82.7736 -1.49793 -0.48987 0
M  V30 877 C 83.7366 -1.66752 -1.57246 0
M  V30 878 C 84.7366 -0.538867 -1.51502 0
M  V30 879 O 85.9266 -0.805545 -1.54456 0
M  V30 880 C 83.0586 -1.67528 -2.96896 0
M  V30 881 H 84.2516 -2.63321 -1.43534 0
M  V30 882 H 81.8046 -1.38992 -0.714914 0
M  V30 883 H 82.5396 -0.725837 -3.16073 0
M  V30 884 H 82.3246 -2.49504 -3.02473 0
M  V30 885 H 83.8146 -1.82667 -3.7553 0
M  V30 886 N 84.2517 0.741722 -1.39055 0
M  V30 887 C 85.2147 1.83733 -1.37021 0
M  V30 888 C 86.2147 1.58542 -0.268534 0
M  V30 889 O 87.4047 1.66067 -0.526076 0
M  V30 890 C 84.5367 3.2141 -1.13617 0
M  V30 891 H 85.7297 1.86941 -2.34506 0
M  V30 892 H 83.2827 0.944676 -1.24521 0
M  V30 893 H 84.0177 3.23865 -0.167863 0
M  V30 894 H 83.8027 3.4109 -1.93391 0
M  V30 895 H 85.2927 4.01477 -1.14918 0
M  V30 896 N 85.7298 1.2412 0.971189 0
M  V30 897 C 86.6778 1.02812 2.08644 0
M  V30 898 C 87.6718 -0.0358403 1.69362 0
M  V30 899 O 88.8778 0.118429 1.7961 0
M  V30 900 H 85.2528 0.315428 0.682649 0
M  V30 901 H 87.2238 1.97397 2.23779 0
M  V30 902 C 85.9728 0.645874 3.41649 0
M  V30 903 H 85.2958 1.45632 3.72332 0
M  V30 904 H 86.7358 0.536366 4.20594 0
M  V30 905 C 85.1948 -0.646713 3.30635 0
M  V30 906 O 85.7248 -1.69338 3.64263 0
M  V30 907 N 83.9308 -0.626115 2.83775 0
M  V30 908 H 83.4778 0.225988 2.56607 0
M  V30 909 H 83.4358 -1.49117 2.76788 0
M  V30 910 N 87.2079 -1.17134 1.05439 0
M  V30 911 C 88.1559 -2.23289 0.651511 0
M  V30 912 C 89.1499 -1.66186 -0.328411 0
M  V30 913 O 90.3559 -1.78949 -0.194206 0
M  V30 914 H 86.7309 -0.726938 0.192523 0
M  V30 915 H 88.7019 -2.54565 1.55689 0
M  V30 916 C 87.4509 -3.47671 0.0448436 0
M  V30 917 H 86.7739 -3.91918 0.78996 0
M  V30 918 H 88.2139 -4.2353 -0.19964 0
M  V30 919 C 86.6729 -3.14453 -1.20918 0
M  V30 920 O 87.2029 -3.29459 -2.29825 0
M  V30 921 N 85.4089 -2.68657 -1.10779 0
M  V30 922 H 84.9559 -2.56646 -0.221526 0
M  V30 923 H 84.9139 -2.46804 -1.9477 0
M  V30 924 N 88.686 -0.835752 -1.33615 0
M  V30 925 C 89.934 -0.429109 -1.97492 0
M  V30 926 C 90.255 1.01433 -1.66543 0
M  V30 927 O 89.525 1.70611 -0.962744 0
M  V30 928 H 88.105 -0.155686 -0.730596 0
M  V30 929 H 90.767 -1.06802 -1.63031 0
M  V30 930 H 89.863 -0.55861 -3.0706 0
M  V30 931 N 90.1641 1.46063 -0.591896 0
M  V30 932 C 91.4131 2.01547 -0.0786637 0
M  V30 933 C 91.7261 1.46796 1.29268 0
M  V30 934 O 92.9321 1.94157 1.89777 0
M  V30 935 C 91.3881 3.59787 -0.0900024 0
M  V30 936 C 90.9961 4.23534 -1.46023 0
M  V30 937 C 92.7401 4.22895 0.368806 0
M  V30 938 C 90.6471 5.73881 -1.4288 0
M  V30 939 H 89.5771 0.753564 -0.0256388 0
M  V30 940 H 92.2281 1.677 -0.744905 0
M  V30 941 H 90.6101 3.90752 0.642586 0
M  V30 942 H 91.7841 4.04167 -2.21328 0
M  V30 943 H 90.0991 3.72558 -1.85982 0
M  V30 944 H 92.6961 5.33116 0.411258 0
M  V30 945 H 93.0391 3.9247 1.38827 0
M  V30 946 H 93.5721 3.9659 -0.31001 0
M  V30 947 H 90.3111 6.0898 -2.42536 0
M  V30 948 H 89.8311 5.95486 -0.718095 0
M  V30 949 H 91.5101 6.36776 -1.14565 0
M  V30 950 N 91.6422 0.330177 1.54103 0
M  V30 951 C 92.5522 -0.541534 2.28264 0
M  V30 952 C 93.5682 -1.12351 1.32866 0
M  V30 953 O 94.7442 -1.14206 1.65888 0
M  V30 954 C 91.8092 -1.68322 3.03098 0
M  V30 955 C 90.8702 -1.13238 4.14096 0
M  V30 956 C 90.1032 -2.21966 4.85352 0
M  V30 957 O 90.3262 -3.42437 4.56172 0
M  V30 958 O 89.2602 -1.87013 5.7211 0
M  V30 959 H 93.0862 0.060938 3.03639 0
M  V30 960 H 90.6712 0.09565 1.49093 0
M  V30 961 H 92.5532 -2.34777 3.49939 0
M  V30 962 H 91.2282 -2.27176 2.30593 0
M  V30 963 H 90.1352 -0.432736 3.71589 0
M  V30 964 H 91.4682 -0.588898 4.88664 0
M  V30 965 N 93.1203 -1.57491 0.0584922 0
M  V30 966 C 94.0833 -2.1085 -0.898617 0
M  V30 967 C 95.0833 -1.02964 -1.23511 0
M  V30 968 O 96.2733 -1.29007 -1.17059 0
M  V30 969 C 93.4053 -2.59881 -2.20623 0
M  V30 970 H 94.5983 -2.96715 -0.435936 0
M  V30 971 H 92.1513 -1.55141 -0.190023 0
M  V30 972 H 92.8863 -1.77431 -2.71457 0
M  V30 973 H 92.6713 -3.38727 -1.97501 0
M  V30 974 H 94.1613 -3.01285 -2.89166 0
M  V30 975 N 94.5984 0.214957 -1.56127 0
M  V30 976 C 95.5284 1.2695 -1.95974 0
M  V30 977 C 96.5094 1.48539 -0.828868 0
M  V30 978 O 97.6944 1.60611 -1.09168 0
M  V30 979 C 94.8244 2.61794 -2.28214 0
M  V30 980 C 93.7784 2.54851 -3.43853 0
M  V30 981 C 93.1044 3.93785 -3.61715 0
M  V30 982 C 94.4044 2.09065 -4.78632 0
M  V30 983 H 96.0984 0.93846 -2.84312 0
M  V30 984 H 93.6444 0.449996 -1.36788 0
M  V30 985 H 95.5974 3.35731 -2.54682 0
M  V30 986 H 94.3214 2.96599 -1.36736 0
M  V30 987 H 92.9804 1.8337 -3.17444 0
M  V30 988 H 92.6284 4.25908 -2.67602 0
M  V30 989 H 92.3284 3.90019 -4.39498 0
M  V30 990 H 93.8524 4.69374 -3.90539 0
M  V30 991 H 95.2664 2.7275 -5.04262 0
M  V30 992 H 93.6634 2.16346 -5.59745 0
M  V30 993 H 94.7334 1.04315 -4.73547 0
M  V30 994 N 96.0765 1.50051 0.48192 0
M  V30 995 C 97.3045 1.64237 1.25832 0
M  V30 996 C 97.7195 0.321336 1.86045 0
M  V30 997 O 97.0765 -0.695478 1.68729 0
M  V30 998 C 97.1275 2.72548 2.37487 0
M  V30 999 O 96.8485 3.99529 1.79745 0
M  V30 1000 C 98.3495 2.9761 3.28547 0
M  V30 1001 H 95.5695 0.55237 0.380957 0
M  V30 1002 H 98.1135 1.96207 0.576467 0
M  V30 1003 H 96.2685 2.43303 3.01467 0
M  V30 1004 H 96.6825 4.59342 2.5319 0
M  V30 1005 H 98.1565 3.77084 4.03127 0
M  V30 1006 H 98.6335 2.0826 3.86684 0
M  V30 1007 H 99.2395 3.28345 2.70314 0
M  V30 1008 N 97.5546 -0.734337 1.39446 0
M  V30 1009 C 98.4846 -1.86155 1.40955 0
M  V30 1010 C 99.4656 -1.67898 0.272827 0
M  V30 1011 O 100.651 -1.88207 0.478743 0
M  V30 1012 C 97.7806 -3.23912 1.25294 0
M  V30 1013 C 96.7346 -3.56808 2.36373 0
M  V30 1014 C 96.0606 -4.93508 2.058 0
M  V30 1015 C 97.3606 -3.59713 3.78687 0
M  V30 1016 H 99.0546 -1.8515 2.35287 0
M  V30 1017 H 96.6006 -0.889367 1.13253 0
M  V30 1018 H 98.5536 -4.02443 1.2497 0
M  V30 1019 H 97.2776 -3.25446 0.274308 0
M  V30 1020 H 95.9366 -2.80606 2.35914 0
M  V30 1021 H 95.5846 -4.91623 1.06374 0
M  V30 1022 H 95.2846 -5.16486 2.80208 0
M  V30 1023 H 96.8086 -5.74396 2.07128 0
M  V30 1024 H 98.2226 -4.2832 3.81071 0
M  V30 1025 H 96.6196 -3.94209 4.52459 0
M  V30 1026 H 97.6896 -2.59504 4.09617 0
M  V30 1027 N 99.0327 -1.24633 -0.964593 0
M  V30 1028 C 100.263 -1.11339 -1.74032 0
M  V30 1029 C 100.671 0.336593 -1.86182 0
M  V30 1030 O 100.014 1.24389 -1.35178 0
M  V30 1031 C 100.076 -1.68284 -3.1768 0
M  V30 1032 C 99.7397 -3.17196 -3.28992 0
M  V30 1033 C 100.737 -4.14308 -3.14078 0
M  V30 1034 C 98.4217 -3.57215 -3.53133 0
M  V30 1035 C 100.416 -5.4942 -3.23135 0
M  V30 1036 C 98.1027 -4.92468 -3.61827 0
M  V30 1037 C 99.1007 -5.8838 -3.46841 0
M  V30 1038 O 98.7887 -7.21173 -3.55197 0
M  V30 1039 H 98.5207 -0.389551 -0.552472 0
M  V30 1040 H 101.075 -1.65282 -1.21946 0
M  V30 1041 H 99.3047 -1.08777 -3.71085 0
M  V30 1042 H 100.994 -1.50234 -3.77074 0
M  V30 1043 H 101.76 -3.84731 -2.95308 0
M  V30 1044 H 97.6387 -2.83063 -3.63863 0
M  V30 1045 H 101.183 -6.24263 -3.11355 0
M  V30 1046 H 97.0797 -5.21714 -3.80111 0
M  V30 1047 H 97.8477 -7.29135 -3.71892 0
M  V30 1048 N 100.511 1.16574 -1.06058 0
M  V30 1049 C 101.474 2.19085 -0.673392 0
M  V30 1050 C 102.474 1.5835 0.279648 0
M  V30 1051 O 103.664 1.74088 0.0623488 0
M  V30 1052 C 100.796 3.40899 0.00954234 0
M  V30 1053 H 101.989 2.54853 -1.58081 0
M  V30 1054 H 99.5418 1.30808 -0.855516 0
M  V30 1055 H 100.277 3.10684 0.929826 0
M  V30 1056 H 100.062 3.86233 -0.67573 0
M  V30 1057 H 101.552 4.1675 0.266245 0
M  V30 1058 N 101.989 0.842826 1.3317 0
M  V30 1059 C 103.236 0.440447 1.97652 0
M  V30 1060 C 103.564 -1.00123 1.6675 0
M  V30 1061 O 102.819 -1.7155 0.941761 0
M  V30 1062 C 103.118 0.612607 3.52111 0
M  V30 1063 C 102.784 2.02297 4.02972 0
M  V30 1064 C 101.446 2.40874 4.16573 0
M  V30 1065 C 103.798 2.94402 4.30089 0
M  V30 1066 C 101.126 3.70852 4.54627 0
M  V30 1067 C 103.478 4.23865 4.69597 0
M  V30 1068 C 102.142 4.62392 4.81404 0
M  V30 1069 H 101.412 0.161171 0.72326 0
M  V30 1070 H 104.059 1.07061 1.58777 0
M  V30 1071 H 102.364 -0.100849 3.9167 0
M  V30 1072 H 104.061 0.2815 4.00011 0
M  V30 1073 H 100.651 1.71338 3.92863 0
M  V30 1074 H 104.835 2.65835 4.19101 0
M  V30 1075 H 100.091 4.00501 4.61962 0
M  V30 1076 H 104.265 4.95306 4.89536 0
M  V30 1077 H 101.892 5.63154 5.10648 0
M  V30 1078 N 103.467 -1.45747 0.599634 0
M  V30 1079 C 104.692 -2.07178 0.0960198 0
M  V30 1080 C 105.117 -1.44268 -1.207 0
M  V30 1081 O 104.475 -0.532503 -1.73303 0
M  V30 1082 C 104.523 -3.60579 -0.0385348 0
M  V30 1083 O 103.627 -3.97713 -1.0908 0
M  V30 1084 H 102.968 -0.660251 0.0704593 0
M  V30 1085 H 105.498 -1.87124 0.827385 0
M  V30 1086 H 105.508 -4.07298 -0.239304 0
M  V30 1087 H 104.183 -4.05756 0.912947 0
M  V30 1088 H 102.76 -3.62678 -0.867135 0
M  V30 1089 N 104.945 -0.338344 -1.53925 0
M  V30 1090 C 106.17 0.263987 -2.05713 0
M  V30 1091 C 106.595 1.43847 -1.21201 0
M  V30 1092 O 105.953 1.79904 -0.224535 0
M  V30 1093 C 106.001 0.662 -3.54471 0
M  V30 1094 O 105.105 1.76265 -3.72833 0
M  V30 1095 H 104.446 0.0448722 -0.662482 0
M  V30 1096 H 106.976 -0.491048 -1.9862 0
M  V30 1097 H 106.986 0.940594 -3.9701 0
M  V30 1098 H 105.661 -0.196937 -4.15433 0
M  V30 1099 H 104.238 1.48173 -3.42198 0
M  V30 1100 N 106.423 1.57458 -0.0668435 0
M  V30 1101 C 107.333 2.15937 0.916975 0
M  V30 1102 C 108.349 1.12123 1.33058 0
M  V30 1103 O 109.525 1.44366 1.40429 0
M  V30 1104 C 106.59 2.70547 2.16807 0
M  V30 1105 C 105.651 3.89215 1.81135 0
M  V30 1106 C 104.884 4.41211 3.0028 0
M  V30 1107 O 105.107 3.92225 4.14144 0
M  V30 1108 O 104.041 5.32605 2.80384 0
M  V30 1109 H 107.867 3.00354 0.449561 0
M  V30 1110 H 105.452 1.48584 0.155949 0
M  V30 1111 H 107.334 3.0557 2.90181 0
M  V30 1112 H 106.009 1.89192 2.62656 0
M  V30 1113 H 104.916 3.59054 1.05028 0
M  V30 1114 H 106.249 4.71848 1.40073 0
M  V30 1115 N 107.901 -0.206675 1.56239 0
M  V30 1116 C 108.849 -1.27571 1.94495 0
M  V30 1117 C 109.843 -1.47737 0.828862 0
M  V30 1118 O 111.049 -1.48735 1.0138 0
M  V30 1119 H 107.424 -0.428029 0.6183 0
M  V30 1120 H 109.395 -0.925961 2.8367 0
M  V30 1121 C 108.144 -2.61568 2.29079 0
M  V30 1122 H 107.467 -2.46863 3.14482 0
M  V30 1123 H 108.907 -3.35144 2.5972 0
M  V30 1124 C 107.366 -3.17695 1.12123 0
M  V30 1125 O 107.896 -3.99801 0.390153 0
M  V30 1126 N 106.102 -2.76276 0.901097 0
M  V30 1127 H 105.649 -2.09613 1.49733 0
M  V30 1128 H 105.607 -3.1417 0.120319 0
M  V30 1129 N 109.379 -1.50304 -0.473955 0
M  V30 1130 C 110.625 -1.62358 -1.22521 0
M  V30 1131 C 110.98 -0.318555 -1.89745 0
M  V30 1132 O 110.273 0.683315 -1.79001 0
M  V30 1133 C 110.467 -2.73938 -2.29549 0
M  V30 1134 C 110.296 -4.15165 -1.72825 0
M  V30 1135 C 109.066 -4.81604 -1.52924 0
M  V30 1136 C 111.264 -4.99503 -1.22481 0
M  V30 1137 N 109.246 -6.07056 -0.91413 0
M  V30 1138 C 110.617 -6.15655 -0.732743 0
M  V30 1139 C 112.672 -4.85299 -1.11308 0
M  V30 1140 C 111.375 -7.19164 -0.139976 0
M  V30 1141 C 113.401 -5.88982 -0.534258 0
M  V30 1142 C 112.763 -7.0438 -0.0525562 0
M  V30 1143 H 108.862 -0.648286 -0.437321 0
M  V30 1144 H 111.446 -1.87413 -0.527692 0
M  V30 1145 H 109.617 -2.50611 -2.9673 0
M  V30 1146 H 111.349 -2.75366 -2.96573 0
M  V30 1147 H 108.104 -4.3885 -1.78067 0
M  V30 1148 H 108.528 -6.74108 -0.625071 0
M  V30 1149 H 113.17 -3.96369 -1.47144 0
M  V30 1150 H 110.888 -8.07771 0.230591 0
M  V30 1151 H 114.474 -5.80055 -0.450219 0
M  V30 1152 H 113.354 -7.83238 0.388324 0
M  V30 1153 N 110.857 0.726932 -1.39834 0
M  V30 1154 C 111.805 1.86235 -1.39353 0
M  V30 1155 C 112.799 1.67144 -0.275555 0
M  V30 1156 O 114.005 1.74387 -0.44601 0
M  V30 1157 H 110.38 0.613174 -0.43534 0
M  V30 1158 H 112.351 1.83756 -2.35109 0
M  V30 1159 C 111.1 3.23995 -1.26185 0
M  V30 1160 H 110.423 3.39285 -2.11484 0
M  V30 1161 H 111.863 4.03609 -1.29907 0
M  V30 1162 C 110.322 3.36888 0.0290018 0
M  V30 1163 O 110.852 3.89152 0.99619 0
M  V30 1164 N 109.058 2.90446 0.0947437 0
M  V30 1165 H 108.605 2.48102 -0.693035 0
M  V30 1166 H 108.563 2.99451 0.957932 0
M  V30 1167 N 112.336 1.25143 0.95797 0
M  V30 1168 C 113.752 1.01892 1.22842 0
M  V30 1169 C 113.952 -0.266311 1.99732 0
M  V30 1170 O 113.008 -0.979913 2.3271 0
M  V30 1171 C 114.321 2.24004 2.00606 0
M  V30 1172 C 115.869 2.28731 2.13662 0
M  V30 1173 C 116.344 3.5049 2.94823 0
M  V30 1174 N 117.835 3.50866 3.02403 0
M  V30 1175 C 118.57 4.4174 3.65586 0
M  V30 1176 N 118.066 5.42882 4.30408 0
M  V30 1177 N 119.859 4.29429 3.62694 0
M  V30 1178 H 112.01 2.07718 0.443493 0
M  V30 1179 H 114.273 0.912031 0.258657 0
M  V30 1180 H 113.979 3.17395 1.51503 0
M  V30 1181 H 113.853 2.26907 3.01319 0
M  V30 1182 H 116.24 1.35865 2.61963 0
M  V30 1183 H 116.321 2.29848 1.12265 0
M  V30 1184 H 115.965 4.43676 2.47213 0
M  V30 1185 H 115.895 3.46617 3.96439 0
M  V30 1186 H 118.386 2.777 2.56302 0
M  V30 1187 H 118.699 6.0844 4.76467 0
M  V30 1188 H 117.044 5.46758 4.29047 0
M  V30 1189 H 120.235 3.49643 3.11236 0
M  V30 1190 H 120.408 5.00448 4.1165 0
M  V30 1191 N 113.814 -1.1601 1.06675 0
M  V30 1192 C 115.225 -1.68235 0.809565 0
M  V30 1193 C 115.576 -1.8454 -0.666303 0
M  V30 1194 O 114.701 -1.54374 -1.5165 0
M  V30 1195 C 115.296 -3.05585 1.46299 0
M  V30 1196 C 113.855 -3.54915 1.25349 0
M  V30 1197 C 113.002 -2.30804 1.53703 0
M  V30 1198 H 115.953 -1.00318 1.22971 0
M  V30 1199 H 115.974 -3.70174 0.880431 0
M  V30 1200 H 115.486 -2.93686 2.53713 0
M  V30 1201 H 113.587 -3.72067 0.199261 0
M  V30 1202 H 113.7 -4.36774 1.9689 0
M  V30 1203 H 112.064 -2.36007 0.957739 0
M  V30 1204 H 112.847 -2.21499 2.62284 0
M  V30 1205 N 115.292 -0.849877 -1.32721 0
M  V30 1206 C 116.255 -0.296122 -2.27279 0
M  V30 1207 C 117.255 0.541458 -1.5141 0
M  V30 1208 O 118.445 0.353658 -1.70572 0
M  V30 1209 C 115.577 0.581579 -3.35902 0
M  V30 1210 H 116.77 -1.13064 -2.77771 0
M  V30 1211 H 114.323 -0.62383 -1.43311 0
M  V30 1212 H 115.058 1.43809 -2.9067 0
M  V30 1213 H 114.843 -0.0178814 -3.92096 0
M  V30 1214 H 116.333 0.961951 -4.0637 0
M  V30 1215 N 116.77 1.45427 -0.607355 0
M  V30 1216 C 117.702 2.2871 0.149752 0
M  V30 1217 C 118.715 1.39937 0.831958 0
M  V30 1218 O 119.904 1.64313 0.697385 0
M  V30 1219 C 117.004 3.15673 1.23304 0
M  V30 1220 C 116.177 4.32722 0.637996 0
M  V30 1221 C 115.236 5.00895 1.61215 0
M  V30 1222 O 114.262 5.57697 1.13854 0
M  V30 1223 N 115.464 5.00159 2.94655 0
M  V30 1224 H 118.229 2.94328 -0.564882 0
M  V30 1225 H 115.79 1.55612 -0.446823 0
M  V30 1226 H 117.782 3.58144 1.88454 0
M  V30 1227 H 116.352 2.51965 1.8502 0
M  V30 1228 H 115.572 3.93734 -0.191572 0
M  V30 1229 H 116.86 5.08321 0.220665 0
M  V30 1230 H 116.258 4.553 3.35735 0
M  V30 1231 H 114.815 5.46495 3.55228 0
M  V30 1232 N 118.248 0.346503 1.53744 0
M  V30 1233 C 119.158 -0.517293 2.28826 0
M  V30 1234 C 120.174 -1.10935 1.3405 0
M  V30 1235 O 121.35 -1.1244 1.6709 0
M  V30 1236 C 118.415 -1.65098 3.04866 0
M  V30 1237 C 117.476 -1.0884 4.15274 0
M  V30 1238 C 116.709 -2.16806 4.87679 0
M  V30 1239 O 116.932 -3.3758 4.59778 0
M  V30 1240 O 115.866 -1.80934 5.74061 0
M  V30 1241 H 119.692 0.0931396 3.03557 0
M  V30 1242 H 117.277 0.111458 1.48984 0
M  V30 1243 H 119.159 -2.31053 3.5241 0
M  V30 1244 H 117.834 -2.24717 2.32989 0
M  V30 1245 H 116.741 -0.3933 3.72027 0
M  V30 1246 H 118.074 -0.537036 4.89261 0
M  V30 1247 N 119.726 -1.57421 0.075193 0
M  V30 1248 C 120.972 -1.93905 -0.594025 0
M  V30 1249 C 121.305 -0.955701 -1.69056 0
M  V30 1250 O 120.58 0.0145373 -1.94495 0
M  V30 1251 C 120.863 -3.40638 -1.1678 0
M  V30 1252 C 120.716 -4.49733 -0.0776792 0
M  V30 1253 C 122.035 -3.88259 -2.07228 0
M  V30 1254 H 119.154 -0.705105 -0.214466 0
M  V30 1255 H 121.796 -1.8947 0.141854 0
M  V30 1256 H 119.946 -3.44549 -1.79494 0
M  V30 1257 H 121.618 -4.57942 0.555573 0
M  V30 1258 H 119.861 -4.29751 0.591286 0
M  V30 1259 H 120.532 -5.49549 -0.519603 0
M  V30 1260 H 123.008 -3.86376 -1.54445 0
M  V30 1261 H 121.884 -4.91533 -2.44308 0
M  V30 1262 H 122.145 -3.26396 -2.98191 0
M  V30 1263 N 121.204 0.198386 -1.56346 0
M  V30 1264 C 122.429 0.939682 -1.84891 0
M  V30 1265 C 122.854 1.76202 -0.658369 0
M  V30 1266 O 122.212 1.76993 0.392851 0
M  V30 1267 C 122.26 1.81428 -3.11635 0
M  V30 1268 O 121.364 2.91265 -2.91956 0
M  V30 1269 H 120.705 0.264807 -0.608912 0
M  V30 1270 H 123.235 0.204695 -2.03573 0
M  V30 1271 H 123.245 2.21958 -3.42343 0
M  V30 1272 H 121.92 1.21004 -3.97908 0
M  V30 1273 H 120.497 2.54514 -2.72538 0
M  V30 1274 N 122.682 1.50554 0.465978 0
M  V30 1275 C 123.645 1.69233 1.54574 0
M  V30 1276 C 124.645 0.562901 1.50626 0
M  V30 1277 O 125.835 0.830016 1.53155 0
M  V30 1278 C 122.967 1.7223 2.94193 0
M  V30 1279 H 124.16 2.65571 1.39327 0
M  V30 1280 H 121.713 1.40111 0.692711 0
M  V30 1281 H 122.448 0.77603 3.14878 0
M  V30 1282 H 122.233 2.54285 2.98466 0
M  V30 1283 H 123.723 1.88618 3.72576 0
M  V30 1284 N 124.16 -0.719506 1.40217 0
M  V30 1285 C 125.09 -1.8465 1.42922 0
M  V30 1286 C 126.071 -1.67599 0.29062 0
M  V30 1287 O 127.256 -1.87688 0.498677 0
M  V30 1288 C 124.386 -3.22565 1.28722 0
M  V30 1289 C 123.34 -3.54281 2.40144 0
M  V30 1290 C 122.666 -4.91298 2.11023 0
M  V30 1291 C 123.966 -3.55676 3.82481 0
M  V30 1292 H 125.66 -1.82644 2.37237 0
M  V30 1293 H 123.206 -0.877305 1.1419 0
M  V30 1294 H 125.159 -4.01095 1.29232 0
M  V30 1295 H 123.883 -3.25137 0.308811 0
M  V30 1296 H 122.542 -2.78088 2.38877 0
M  V30 1297 H 122.19 -4.90468 1.11582 0
M  V30 1298 H 121.89 -5.13485 2.8567 0
M  V30 1299 H 123.414 -5.72166 2.13209 0
M  V30 1300 H 124.828 -4.24254 3.85592 0
M  V30 1301 H 123.225 -3.89388 4.56614 0
M  V30 1302 H 124.295 -2.55144 4.12346 0
M  V30 1303 N 125.638 -1.25649 -0.95132 0
M  V30 1304 C 126.571 -1.00644 -2.04807 0
M  V30 1305 C 127.549 0.0654271 -1.62468 0
M  V30 1306 O 128.733 -0.074911 -1.88351 0
M  V30 1307 C 125.86 -0.522052 -3.34653 0
M  V30 1308 C 124.906 -1.58495 -3.95957 0
M  V30 1309 S 125.739 -3.17108 -4.31512 0
M  V30 1310 C 126.895 -2.70412 -5.64471 0
M  V30 1311 H 127.128 -1.93508 -2.25703 0
M  V30 1312 H 124.661 -1.09216 -1.09139 0
M  V30 1313 H 126.619 -0.24923 -4.09743 0
M  V30 1314 H 125.28 0.386146 -3.11717 0
M  V30 1315 H 124.473 -1.1968 -4.89584 0
M  V30 1316 H 124.075 -1.80862 -3.2736 0
M  V30 1317 H 126.367 -2.14245 -6.42733 0
M  V30 1318 H 127.31 -3.62693 -6.08161 0
M  V30 1319 H 127.718 -2.10302 -5.23864 0
M  V30 1320 N 127.117 1.15442 -1.07289 0
M  V30 1321 C 128.027 2.23786 -0.704057 0
M  V30 1322 C 129.043 1.7166 0.284413 0
M  V30 1323 O 130.219 2.00972 0.131205 0
M  V30 1324 C 127.284 3.46535 -0.106792 0
M  V30 1325 C 126.345 4.13654 -1.14842 0
M  V30 1326 C 125.578 5.30544 -0.57956 0
M  V30 1327 O 125.801 5.67187 0.604585 0
M  V30 1328 O 124.735 5.87154 -1.32414 0
M  V30 1329 H 128.561 2.57664 -1.60757 0
M  V30 1330 H 126.146 1.23152 -0.845803 0
M  V30 1331 H 128.028 4.20804 0.224048 0
M  V30 1332 H 126.703 3.14407 0.770049 0
M  V30 1333 H 125.61 3.4131 -1.5316 0
M  V30 1334 H 126.943 4.49861 -1.99714 0
M  V30 1335 N 128.595 0.856903 1.32268 0
M  V30 1336 C 129.525 0.31858 2.31316 0
M  V30 1337 C 130.506 -0.583487 1.59779 0
M  V30 1338 O 131.691 -0.503259 1.87566 0
M  V30 1339 C 128.821 -0.491979 3.43798 0
M  V30 1340 C 127.775 0.315849 4.26833 0
M  V30 1341 C 127.101 -0.619586 5.31098 0
M  V30 1342 C 128.401 1.54282 4.98993 0
M  V30 1343 H 130.095 1.14621 2.76591 0
M  V30 1344 H 127.641 0.552613 1.32974 0
M  V30 1345 H 129.594 -0.879012 4.1213 0
M  V30 1346 H 128.318 -1.35299 2.97257 0
M  V30 1347 H 126.977 0.684664 3.6015 0
M  V30 1348 H 126.625 -1.47751 4.8081 0
M  V30 1349 H 126.325 -0.0830621 5.87541 0
M  V30 1350 H 127.849 -1.00375 6.02293 0
M  V30 1351 H 129.263 1.22796 5.59995 0
M  V30 1352 H 127.66 2.01745 5.65172 0
M  V30 1353 H 128.73 2.30285 4.26728 0
M  V30 1354 N 130.073 -1.45103 0.615059 0
M  V30 1355 C 131.32 -2.02183 0.113179 0
M  V30 1356 C 131.648 -1.48249 -1.25906 0
M  V30 1357 O 130.903 -0.650265 -1.84581 0
M  V30 1358 C 131.202 -3.57386 0.0318797 0
M  V30 1359 C 130.868 -4.30505 1.34077 0
M  V30 1360 C 129.53 -4.50197 1.69929 0
M  V30 1361 C 131.882 -4.72238 2.20546 0
M  V30 1362 C 129.21 -5.08881 2.91988 0
M  V30 1363 C 131.562 -5.32272 3.41861 0
M  V30 1364 C 130.226 -5.50187 3.77956 0
M  V30 1365 H 129.496 -0.739842 0.0414151 0
M  V30 1366 H 132.143 -1.74073 0.798168 0
M  V30 1367 H 130.448 -3.84817 -0.736409 0
M  V30 1368 H 132.145 -3.99264 -0.372712 0
M  V30 1369 H 128.735 -4.15496 1.05173 0
M  V30 1370 H 132.919 -4.56751 1.94146 0
M  V30 1371 H 128.175 -5.20939 3.2005 0
M  V30 1372 H 132.349 -5.63563 4.09109 0
M  V30 1373 H 129.976 -5.95427 4.72622 0
M  V30 1374 N 131.551 -0.354651 -1.53558 0
M  V30 1375 C 132.797 0.238797 -2.01389 0
M  V30 1376 C 133.13 1.49309 -1.2418 0
M  V30 1377 O 132.405 1.91638 -0.332457 0
M  V30 1378 C 132.688 0.541771 -3.56001 0
M  V30 1379 C 132.541 -0.725388 -4.43912 0
M  V30 1380 C 133.86 1.34685 -4.18984 0
M  V30 1381 H 130.979 0.0853177 -0.732045 0
M  V30 1382 H 133.621 -0.477384 -1.83905 0
M  V30 1383 H 131.771 1.15189 -3.71031 0
M  V30 1384 H 133.443 -1.36313 -4.407 0
M  V30 1385 H 131.686 -1.34801 -4.12324 0
M  V30 1386 H 132.357 -0.468505 -5.50008 0
M  V30 1387 H 134.833 0.830837 -4.07721 0
M  V30 1388 H 133.709 1.52759 -5.27215 0
M  V30 1389 H 133.97 2.35221 -3.74331 0
M  V30 1390 N 133.029 1.57378 -0.0835403 0
M  V30 1391 C 134.275 1.95025 0.577664 0
M  V30 1392 C 134.63 0.964049 1.66505 0
M  V30 1393 O 133.923 -0.0118235 1.91596 0
M  V30 1394 C 134.117 3.37063 1.1884 0
M  V30 1395 C 133.946 4.49409 0.16171 0
M  V30 1396 C 132.716 5.04642 -0.257756 0
M  V30 1397 C 134.914 5.10722 -0.605634 0
M  V30 1398 N 132.896 6.00537 -1.27393 0
M  V30 1399 C 134.267 6.02225 -1.47395 0
M  V30 1400 C 136.322 4.93501 -0.660418 0
M  V30 1401 C 135.025 6.78355 -2.39221 0
M  V30 1402 C 137.051 5.70283 -1.56623 0
M  V30 1403 C 136.413 6.61444 -2.4222 0
M  V30 1404 H 132.512 0.760512 0.182058 0
M  V30 1405 H 135.096 1.94013 -0.163419 0
M  V30 1406 H 133.267 3.3879 1.89936 0
M  V30 1407 H 134.999 3.61917 1.81103 0
M  V30 1408 H 131.754 4.73428 0.127702 0
M  V30 1409 H 132.178 6.53184 -1.77987 0
M  V30 1410 H 136.82 4.22798 -0.0128221 0
M  V30 1411 H 134.538 7.48327 -3.05011 0
M  V30 1412 H 138.124 5.58976 -1.61361 0
M  V30 1413 H 137.004 7.1982 -3.11174 0
M  V30 1414 N 134.507 -0.190092 1.56449 0
M  V30 1415 C 135.47 -1.21925 1.9408 0
M  V30 1416 C 136.47 -1.38176 0.822431 0
M  V30 1417 O 137.66 -1.35903 1.08977 0
M  V30 1418 C 134.792 -2.58773 2.21922 0
M  V30 1419 H 135.985 -0.897464 2.86157 0
M  V30 1420 H 133.538 -0.43181 1.50217 0
M  V30 1421 H 134.273 -2.95998 1.32499 0
M  V30 1422 H 134.058 -2.48348 3.03424 0
M  V30 1423 H 135.548 -3.32978 2.52022 0
M  V30 1424 N 135.985 -1.50799 -0.457987 0
M  V30 1425 C 136.915 -1.73553 -1.5621 0
M  V30 1426 C 137.896 -0.584774 -1.59732 0
M  V30 1427 O 139.081 -0.825314 -1.7579 0
M  V30 1428 C 136.211 -1.84169 -2.94447 0
M  V30 1429 C 135.165 -2.99461 -3.0579 0
M  V30 1430 C 134.491 -2.95235 -4.45803 0
M  V30 1431 C 135.791 -4.39766 -2.81786 0
M  V30 1432 H 137.485 -2.66 -1.37421 0
M  V30 1433 H 135.031 -1.28002 -0.659662 0
M  V30 1434 H 136.984 -1.98672 -3.71628 0
M  V30 1435 H 135.708 -0.883545 -3.14422 0
M  V30 1436 H 134.367 -2.8463 -2.31044 0
M  V30 1437 H 134.015 -1.97239 -4.62715 0
M  V30 1438 H 133.715 -3.72642 -4.54326 0
M  V30 1439 H 135.239 -3.11803 -5.24987 0
M  V30 1440 H 136.653 -4.55054 -3.4871 0
M  V30 1441 H 135.05 -5.18722 -3.0174 0
M  V30 1442 H 136.12 -4.51229 -1.7754 0
M  V30 1443 N 137.463 0.71206 -1.40597 0
M  V30 1444 C 138.74 1.46536 -1.29563 0
M  V30 1445 C 139.12 2.10931 0.0844217 0
M  V30 1446 O 138.468 2.00418 1.0975 0
M  V30 1447 C 138.678 2.49821 -2.43701 0
M  V30 1448 C 140.026 3.15551 -2.841 0
M  V30 1449 O 141.05 2.60142 -2.4332 0
M  V30 1450 O 139.909 4.15867 -3.54566 0
M  V30 1451 H 137.003 0.651801 -0.509004 0
M  V30 1452 H 139.549 0.743935 -1.52524 0
M  V30 1453 H 138.321 2.00778 -3.35863 0
M  V30 1454 H 137.944 3.29495 -2.22528 0
M  V30 1455 N 138.941 1.26152 0.944643 0
M  V30 1456 C 140.166 1.14363 1.7302 0
M  V30 1457 C 140.591 -0.29772 1.85729 0
M  V30 1458 O 139.949 -1.2157 1.34501 0
M  V30 1459 C 139.997 1.81378 3.11664 0
M  V30 1460 O 139.101 1.10022 3.97453 0
M  V30 1461 H 138.442 0.398694 0.53098 0
M  V30 1462 H 140.972 1.66906 1.18337 0
M  V30 1463 H 140.982 1.88064 3.62072 0
M  V30 1464 H 139.657 2.86237 3.0173 0
M  V30 1465 H 138.234 1.11287 3.55907 0
M  V30 1466 N 140.419 -1.14872 1.07899 0
M  V30 1467 C 141.329 -2.2341 0.715915 0
M  V30 1468 C 142.345 -1.71808 -0.275306 0
M  V30 1469 O 143.521 -2.01039 -0.120545 0
M  V30 1470 C 140.586 -3.46474 0.125168 0
M  V30 1471 C 139.647 -4.13039 1.17034 0
M  V30 1472 C 138.88 -5.30229 0.607688 0
M  V30 1473 O 139.103 -5.675 -0.574497 0
M  V30 1474 O 138.037 -5.86444 1.35526 0
M  V30 1475 H 141.863 -2.56808 1.62121 0
M  V30 1476 H 139.448 -1.22702 0.852322 0
M  V30 1477 H 141.33 -4.20917 -0.201729 0
M  V30 1478 H 140.005 -3.14811 -0.753364 0
M  V30 1479 H 138.912 -3.40493 1.54968 0
M  V30 1480 H 140.245 -4.48796 2.02097 0
M  V30 1481 N 141.898 -0.863906 -1.31812 0
M  V30 1482 C 143.144 -0.472535 -1.97218 0
M  V30 1483 C 143.477 0.971394 -1.68159 0
M  V30 1484 O 142.752 1.68309 -0.974798 0
M  V30 1485 C 143.035 -0.723054 -3.52766 0
M  V30 1486 C 142.888 -2.21608 -3.91421 0
M  V30 1487 C 144.207 -0.185522 -4.39709 0
M  V30 1488 H 141.326 -0.173158 -0.71637 0
M  V30 1489 H 143.968 -1.08403 -1.56041 0
M  V30 1490 H 142.118 -0.202577 -3.87971 0
M  V30 1491 H 143.79 -2.80334 -3.66347 0
M  V30 1492 H 142.033 -2.691 -3.40246 0
M  V30 1493 H 142.704 -2.34203 -4.99853 0
M  V30 1494 H 145.18 -0.630726 -4.11292 0
M  V30 1495 H 144.056 -0.390306 -5.47511 0
M  V30 1496 H 144.317 0.912229 -4.32586 0
M  V30 1497 N 143.376 1.44774 -0.622745 0
M  V30 1498 C 144.323 2.30635 0.0871679 0
M  V30 1499 C 145.293 1.42994 0.845097 0
M  V30 1500 O 146.478 1.71907 0.827812 0
M  V30 1501 C 143.618 3.28144 1.06844 0
M  V30 1502 C 142.731 4.30888 0.309809 0
M  V30 1503 C 141.866 5.15494 1.28215 0
M  V30 1504 C 140.905 6.09953 0.512198 0
M  V30 1505 N 140.042 6.87287 1.43458 0
M  V30 1506 H 144.882 2.90803 -0.650974 0
M  V30 1507 H 142.419 1.43286 -0.33281 0
M  V30 1508 H 144.377 3.83157 1.65066 0
M  V30 1509 H 143.007 2.69695 1.77382 0
M  V30 1510 H 142.059 3.78414 -0.388181 0
M  V30 1511 H 143.371 4.97955 -0.290254 0
M  V30 1512 H 142.525 5.74983 1.93596 0
M  V30 1513 H 141.264 4.48481 1.91614 0
M  V30 1514 H 140.269 5.49581 -0.155151 0
M  V30 1515 H 141.494 6.78999 -0.116958 0
M  V30 1516 H 139.44 6.2295 2.05594 0
M  V30 1517 H 139.357 7.50763 0.888335 0
M  V30 1518 H 140.625 7.51306 2.07749 0
M  V30 1519 N 144.854 0.36279 1.53368 0
M  V30 1520 C 146.079 -0.231226 2.06107 0
M  V30 1521 C 146.504 -1.419 1.23474 0
M  V30 1522 O 145.862 -1.79524 0.253128 0
M  V30 1523 C 145.91 -0.605523 3.5548 0
M  V30 1524 O 145.014 -1.70312 3.7559 0
M  V30 1525 H 144.355 -0.034327 0.663112 0
M  V30 1526 H 146.885 0.522584 1.97814 0
M  V30 1527 H 146.895 -0.877314 3.98456 0
M  V30 1528 H 145.57 0.263004 4.15068 0
M  V30 1529 H 144.147 -1.4271 3.44512 0
M  V30 1530 N 146.332 -1.57332 0.0918853 0
M  V30 1531 C 147.262 -2.16872 -0.865371 0
M  V30 1532 C 148.243 -1.10118 -1.29646 0
M  V30 1533 O 149.428 -1.38242 -1.36392 0
M  V30 1534 C 146.558 -2.74649 -2.12569 0
M  V30 1535 C 145.512 -3.86747 -1.83333 0
M  V30 1536 C 144.838 -4.31212 -3.16166 0
M  V30 1537 C 146.138 -5.10089 -1.1228 0
M  V30 1538 H 147.832 -2.97114 -0.369307 0
M  V30 1539 H 145.378 -1.42918 -0.176194 0
M  V30 1540 H 147.331 -3.14952 -2.7997 0
M  V30 1541 H 146.055 -1.91657 -2.64452 0
M  V30 1542 H 144.714 -3.46978 -1.18331 0
M  V30 1543 H 144.362 -3.45115 -3.6593 0
M  V30 1544 H 144.062 -5.06788 -2.97388 0
M  V30 1545 H 145.586 -4.74146 -3.84731 0
M  V30 1546 H 147 -5.47582 -1.69785 0
M  V30 1547 H 145.397 -5.91073 -1.03693 0
M  V30 1548 H 146.467 -4.84786 -0.105041 0
M  V30 1549 N 147.81 0.181792 -1.56548 0
M  V30 1550 C 148.76 1.22961 -1.92002 0
M  V30 1551 C 149.744 1.40331 -0.787146 0
M  V30 1552 O 150.936 1.42478 -1.05019 0
M  V30 1553 C 148.065 2.57144 -2.27446 0
M  V30 1554 C 147.151 2.43512 -3.47222 0
M  V30 1555 N 147.542 1.99577 -4.64761 0
M  V30 1556 C 145.84 2.74368 -3.51622 0
M  V30 1557 C 146.541 1.98156 -5.46909 0
M  V30 1558 N 145.517 2.40164 -4.8767 0
M  V30 1559 H 149.319 0.881462 -2.8037 0
M  V30 1560 H 146.833 0.390141 -1.57644 0
M  V30 1561 H 148.83 3.32847 -2.51035 0
M  V30 1562 H 147.49 2.92771 -1.40411 0
M  V30 1563 H 148.501 1.70078 -4.89177 0
M  V30 1564 H 145.178 3.14102 -2.75038 0
M  V30 1565 H 146.568 1.65975 -6.51077 0
M  V30 1566 N 149.288 1.51039 0.449983 0
M  V30 1567 C 150.704 1.38934 0.785462 0
M  V30 1568 C 150.904 0.461817 1.96136 0
M  V30 1569 O 149.96 -0.0877389 2.52348 0
M  V30 1570 C 151.273 2.80724 1.0777 0
M  V30 1571 C 152.821 2.89787 1.1829 0
M  V30 1572 C 153.296 4.32457 1.50815 0
M  V30 1573 N 154.787 4.35505 1.57764 0
M  V30 1574 C 155.522 5.42914 1.84477 0
M  V30 1575 N 155.018 6.60502 2.09068 0
M  V30 1576 N 156.811 5.3038 1.86155 0
M  V30 1577 H 148.962 2.09904 -0.324647 0
M  V30 1578 H 151.225 0.944378 -0.0827957 0
M  V30 1579 H 150.931 3.50531 0.286498 0
M  V30 1580 H 150.805 3.19273 2.00859 0
M  V30 1581 H 153.192 2.20186 1.96474 0
M  V30 1582 H 153.273 2.54752 0.231314 0
M  V30 1583 H 152.917 5.02603 0.731622 0
M  V30 1584 H 152.847 4.64995 2.47158 0
M  V30 1585 H 155.338 3.50724 1.40715 0
M  V30 1586 H 155.651 7.38158 2.28785 0
M  V30 1587 H 153.996 6.63639 2.06416 0
M  V30 1588 H 157.187 4.37505 1.66454 0
M  V30 1589 H 157.36 6.1417 2.06637 0
M  V30 1590 N 150.766 -0.704594 1.40972 0
M  V30 1591 C 151.716 -1.81051 1.38581 0
M  V30 1592 C 152.7 -1.58759 0.261585 0
M  V30 1593 O 153.892 -1.69745 0.501556 0
M  V30 1594 C 151.021 -3.19279 1.26157 0
M  V30 1595 C 150.107 -3.47296 2.43405 0
M  V30 1596 N 150.498 -3.46064 3.68881 0
M  V30 1597 C 148.796 -3.77804 2.37023 0
M  V30 1598 C 149.497 -3.72733 4.46592 0
M  V30 1599 N 148.473 -3.9203 3.76581 0
M  V30 1600 H 152.275 -1.78448 2.33525 0
M  V30 1601 H 149.789 -0.904198 1.349 0
M  V30 1602 H 151.786 -3.98488 1.22526 0
M  V30 1603 H 150.446 -3.231 0.321902 0
M  V30 1604 H 151.457 -3.26656 4.01891 0
M  V30 1605 H 148.134 -3.8905 1.51481 0
M  V30 1606 H 149.524 -3.77993 5.55492 0
M  V30 1607 N 152.244 -1.26651 -0.937939 0
M  V30 1608 C 153.192 -1.08308 -2.05845 0
M  V30 1609 C 154.186 -0.0090757 -1.69398 0
M  V30 1610 O 155.392 -0.166007 -1.79233 0
M  V30 1611 H 151.767 -0.333416 -0.674046 0
M  V30 1612 H 153.738 -2.03261 -2.18467 0
M  V30 1613 C 152.487 -0.736229 -3.39816 0
M  V30 1614 H 151.81 -1.55453 -3.6834 0
M  V30 1615 H 153.25 -0.64769 -4.19024 0
M  V30 1616 C 151.709 0.558824 -3.32233 0
M  V30 1617 O 152.239 1.59621 -3.68624 0
M  V30 1618 N 150.445 0.550657 -2.85335 0
M  V30 1619 H 149.992 -0.293943 -2.55917 0
M  V30 1620 H 149.95 1.41726 -2.80644 0
M  V30 1621 N 153.722 1.14298 -1.08507 0
M  V30 1622 C 154.968 1.85633 -0.816581 0
M  V30 1623 C 155.301 1.82784 0.656021 0
M  V30 1624 O 154.576 1.25926 1.48233 0
M  V30 1625 C 154.859 3.34223 -1.34041 0
M  V30 1626 C 154.712 3.45639 -2.87843 0
M  V30 1627 C 156.031 4.29356 -0.9665 0
M  V30 1628 H 153.15 0.67402 -0.298104 0
M  V30 1629 H 155.792 1.34214 -1.34487 0
M  V30 1630 H 153.942 3.78144 -0.89104 0
M  V30 1631 H 155.614 3.10498 -3.41158 0
M  V30 1632 H 153.857 2.86817 -3.25451 0
M  V30 1633 H 154.528 4.50089 -3.19569 0
M  V30 1634 H 157.004 3.93457 -1.35391 0
M  V30 1635 H 155.88 5.3178 -1.3602 0
M  V30 1636 H 156.141 4.41919 0.126362 0
M  V30 1637 N 155.201 0.870884 1.31352 0
M  V30 1638 C 156.617 0.562932 1.49343 0
M  V30 1639 C 156.817 -0.902725 1.80148 0
M  V30 1640 O 155.873 -1.68484 1.88067 0
M  V30 1641 C 157.186 1.46393 2.62659 0
M  V30 1642 C 158.734 1.46607 2.76542 0
M  V30 1643 C 159.209 2.35266 3.92955 0
M  V30 1644 N 160.7 2.33151 4.00243 0
M  V30 1645 C 161.435 2.98471 4.89594 0
M  V30 1646 N 160.931 3.72964 5.8384 0
M  V30 1647 N 162.724 2.87775 4.82848 0
M  V30 1648 H 154.875 1.81923 1.09626 0
M  V30 1649 H 157.138 0.777934 0.541777 0
M  V30 1650 H 156.844 2.50689 2.46674 0
M  V30 1651 H 156.718 1.16314 3.58819 0
M  V30 1652 H 159.105 0.43069 2.9194 0
M  V30 1653 H 159.186 1.8071 1.81046 0
M  V30 1654 H 158.83 3.38881 3.78315 0
M  V30 1655 H 158.76 1.98487 4.87761 0
M  V30 1656 H 161.251 1.79006 3.32814 0
M  V30 1657 H 161.564 4.19932 6.4875 0
M  V30 1658 H 159.909 3.77073 5.83816 0
M  V30 1659 H 163.1 2.29116 4.08195 0
M  V30 1660 H 163.273 3.38961 5.52277 0
M  V30 1661 N 156.679 -1.44442 0.630414 0
M  V30 1662 C 157.609 -2.33418 -0.0618083 0
M  V30 1663 C 158.59 -1.48165 -0.835541 0
M  V30 1664 O 159.775 -1.76886 -0.801564 0
M  V30 1665 C 156.905 -3.31222 -1.04449 0
M  V30 1666 C 155.859 -4.26288 -0.382436 0
M  V30 1667 C 155.185 -5.13954 -1.47497 0
M  V30 1668 C 156.485 -5.1744 0.710865 0
M  V30 1669 H 158.179 -2.91548 0.681184 0
M  V30 1670 H 155.725 -1.40191 0.329026 0
M  V30 1671 H 157.678 -3.92351 -1.53748 0
M  V30 1672 H 156.402 -2.71299 -1.81836 0
M  V30 1673 H 155.061 -3.6649 0.0899054 0
M  V30 1674 H 154.709 -4.50385 -2.2397 0
M  V30 1675 H 154.409 -5.7837 -1.03737 0
M  V30 1676 H 155.933 -5.77955 -1.96979 0
M  V30 1677 H 157.347 -5.72509 0.300996 0
M  V30 1678 H 155.744 -5.90455 1.07156 0
M  V30 1679 H 156.814 -4.58496 1.57829 0
M  V30 1680 N 158.157 -0.370918 -1.53173 0
M  V30 1681 C 159.573 -0.0200818 -1.59587 0
M  V30 1682 C 159.773 1.46279 -1.38581 0
M  V30 1683 O 158.829 2.22506 -1.19363 0
M  V30 1684 C 160.142 -0.4808 -2.96831 0
M  V30 1685 C 161.69 -0.435477 -3.09956 0
M  V30 1686 C 162.165 -0.872092 -4.4962 0
M  V30 1687 N 163.656 -0.827364 -4.55751 0
M  V30 1688 C 164.391 -1.13683 -5.62018 0
M  V30 1689 N 163.887 -1.51584 -6.76014 0
M  V30 1690 N 165.68 -1.05927 -5.52029 0
M  V30 1691 H 157.831 -1.33652 -1.65079 0
M  V30 1692 H 160.094 -0.546634 -0.774529 0
M  V30 1693 H 159.8 -1.51577 -3.1736 0
M  V30 1694 H 159.674 0.129796 -3.76977 0
M  V30 1695 H 162.061 0.590371 -2.89134 0
M  V30 1696 H 162.142 -1.08164 -2.31806 0
M  V30 1697 H 161.786 -1.89608 -4.71181 0
M  V30 1698 H 161.716 -0.203127 -5.26208 0
M  V30 1699 H 164.207 -0.548216 -3.73902 0
M  V30 1700 H 164.52 -1.73609 -7.53047 0
M  V30 1701 H 162.865 -1.55454 -6.77391 0
M  V30 1702 H 166.056 -0.762321 -4.61851 0
M  V30 1703 H 166.229 -1.30378 -6.34749 0
M  V30 1704 N 159.635 1.57281 -0.100228 0
M  V30 1705 C 160.884 1.93713 0.561984 0
M  V30 1706 C 161.197 0.984492 1.69018 0
M  V30 1707 O 162.403 1.24273 2.41389 0
M  V30 1708 C 160.859 3.4421 1.05106 0
M  V30 1709 C 160.467 4.47975 -0.0476628 0
M  V30 1710 C 162.211 3.89595 1.68571 0
M  V30 1711 C 160.118 5.89631 0.457055 0
M  V30 1712 H 159.048 0.723082 0.2137 0
M  V30 1713 H 161.699 1.82644 -0.177057 0
M  V30 1714 H 160.081 3.50449 1.84395 0
M  V30 1715 H 161.255 4.53385 -0.823333 0
M  V30 1716 H 159.57 4.1223 -0.587816 0
M  V30 1717 H 162.167 4.92832 2.07414 0
M  V30 1718 H 162.51 3.28526 2.55688 0
M  V30 1719 H 163.043 3.86078 0.958562 0
M  V30 1720 H 159.782 6.54411 -0.377616 0
M  V30 1721 H 159.302 5.87681 1.19962 0
M  V30 1722 H 160.981 6.40363 0.92437 0
M  V30 1723 N 161.113 -0.173488 1.56642 0
M  V30 1724 C 162.362 -0.888758 1.81063 0
M  V30 1725 C 162.675 -1.83506 0.67712 0
M  V30 1726 O 163.881 -2.59254 0.806206 0
M  V30 1727 C 162.337 -1.63091 3.20826 0
M  V30 1728 C 161.945 -0.728357 4.4204 0
M  V30 1729 C 163.689 -2.33454 3.54541 0
M  V30 1730 C 161.596 -1.47062 5.72823 0
M  V30 1731 H 160.526 -0.335618 0.675186 0
M  V30 1732 H 163.177 -0.141712 1.82952 0
M  V30 1733 H 161.559 -2.42263 3.13248 0
M  V30 1734 H 162.733 0.0262449 4.60793 0
M  V30 1735 H 161.048 -0.134492 4.16183 0
M  V30 1736 H 163.645 -2.89578 4.49498 0
M  V30 1737 H 163.988 -3.08687 2.79317 0
M  V30 1738 H 164.521 -1.61227 3.63663 0
M  V30 1739 H 161.26 -0.760658 6.51072 0
M  V30 1740 H 160.78 -2.1986 5.58052 0
M  V30 1741 H 162.459 -2.01868 6.14702 0
M  V30 1742 N 162.591 -1.51276 -0.441967 0
M  V30 1743 C 163.839 -1.63392 -1.18943 0
M  V30 1744 C 164.16 -0.350159 -1.9183 0
M  V30 1745 O 163.43 0.633784 -1.85364 0
M  V30 1746 H 162.01 -0.602164 -0.442049 0
M  V30 1747 H 164.672 -1.88186 -0.507165 0
M  V30 1748 H 163.768 -2.45934 -1.92154 0
M  V30 1749 N 164.069 0.697108 -1.41344 0
M  V30 1750 C 165.346 1.45154 -1.31109 0
M  V30 1751 C 165.726 2.11009 0.0620449 0
M  V30 1752 O 165.074 2.01571 1.07618 0
M  V30 1753 C 165.284 2.47223 -2.46337 0
M  V30 1754 C 166.632 3.1252 -2.87431 0
M  V30 1755 O 167.656 2.57547 -2.46065 0
M  V30 1756 O 166.515 4.12083 -3.58957 0
M  V30 1757 H 163.609 0.646365 -0.515889 0
M  V30 1758 H 166.155 0.727716 -1.53305 0
M  V30 1759 H 164.927 1.97204 -3.37974 0
M  V30 1760 H 164.55 3.27116 -2.2601 0
M  V30 1761 N 165.547 1.27147 0.931209 0
M  V30 1762 C 166.775 1.16082 1.71267 0
M  V30 1763 C 167.19 -0.282772 1.8667 0
M  V30 1764 O 166.547 -1.19283 1.38122 0
M  V30 1765 C 166.598 1.8358 3.11417 0
M  V30 1766 O 166.319 3.22299 2.96741 0
M  V30 1767 C 167.82 1.78597 4.05732 0
M  V30 1768 H 165.04 0.403758 0.535929 0
M  V30 1769 H 167.584 1.67953 1.16671 0
M  V30 1770 H 165.739 1.35623 3.62885 0
M  V30 1771 H 166.153 3.55851 3.85319 0
M  V30 1772 H 167.627 2.30444 5.01597 0
M  V30 1773 H 168.104 0.754564 4.3267 0
M  V30 1774 H 168.71 2.26152 3.60188 0
M  V30 1775 N 167.025 -1.13721 1.09112 0
M  V30 1776 C 168.25 -1.89314 0.847053 0
M  V30 1777 C 168.675 -1.78416 -0.595774 0
M  V30 1778 O 168.033 -1.12942 -1.41823 0
M  V30 1779 C 168.081 -3.3701 1.28284 0
M  V30 1780 O 167.185 -4.10054 0.439267 0
M  V30 1781 H 166.526 -0.588745 0.307044 0
M  V30 1782 H 169.056 -1.43902 1.45442 0
M  V30 1783 H 169.066 -3.87834 1.26683 0
M  V30 1784 H 167.741 -3.4426 2.33363 0
M  V30 1785 H 166.318 -3.69266 0.519312 0
M  V30 1786 N 168.503 -0.877838 -1.30888 0
M  V30 1787 C 169.919 -0.570844 -1.49042 0
M  V30 1788 C 170.119 0.893159 -1.80624 0
M  V30 1789 O 169.175 1.67485 -1.88958 0
M  V30 1790 C 170.488 -1.47784 -2.61878 0
M  V30 1791 C 172.036 -1.48071 -2.75761 0
M  V30 1792 C 172.511 -2.37347 -3.91702 0
M  V30 1793 N 174.002 -2.35271 -3.99001 0
M  V30 1794 C 174.737 -3.01063 -4.88004 0
M  V30 1795 N 174.233 -3.76055 -5.81854 0
M  V30 1796 N 176.026 -2.90332 -4.81315 0
M  V30 1797 H 168.177 -1.82502 -1.0866 0
M  V30 1798 H 170.44 -0.780797 -0.537644 0
M  V30 1799 H 170.146 -2.51993 -2.45341 0
M  V30 1800 H 170.02 -1.18215 -3.58197 0
M  V30 1801 H 172.407 -0.446166 -2.91708 0
M  V30 1802 H 172.488 -1.81668 -1.80085 0
M  V30 1803 H 172.132 -3.40883 -3.76512 0
M  V30 1804 H 172.062 -2.01071 -4.86701 0
M  V30 1805 H 174.553 -1.80768 -3.3186 0
M  V30 1806 H 174.866 -4.23366 -6.46514 0
M  V30 1807 H 173.211 -3.80163 -5.81808 0
M  V30 1808 H 176.402 -2.31278 -4.06974 0
M  V30 1809 H 176.575 -3.41885 -5.50471 0
M  V30 1810 N 169.982 1.44106 -0.638065 0
M  V30 1811 C 171.229 2.01978 -0.14533 0
M  V30 1812 C 171.557 1.50234 1.23532 0
M  V30 1813 O 170.812 0.679548 1.83523 0
M  V30 1814 C 171.111 3.5729 -0.0887327 0
M  V30 1815 C 170.777 4.28317 -1.40909 0
M  V30 1816 C 169.439 4.47437 -1.77069 0
M  V30 1817 C 171.791 4.6867 -2.28031 0
M  V30 1818 C 169.119 5.04171 -3.00047 0
M  V30 1819 C 171.471 5.26766 -3.50286 0
M  V30 1820 C 170.135 5.44104 -3.86661 0
M  V30 1821 H 169.405 0.739089 -0.0531801 0
M  V30 1822 H 172.052 1.72781 -0.825761 0
M  V30 1823 H 170.357 3.8594 0.675095 0
M  V30 1824 H 172.054 3.99807 0.309145 0
M  V30 1825 H 168.644 4.1377 -1.1177 0
M  V30 1826 H 172.828 4.53604 -2.01388 0
M  V30 1827 H 168.084 5.15782 -3.28298 0
M  V30 1828 H 172.258 5.56983 -4.18023 0
M  V30 1829 H 169.885 5.87832 -4.82034 0
M  V30 1830 N 171.46 0.379036 1.52974 0
M  V30 1831 C 172.408 -0.476033 2.27677 0
M  V30 1832 C 173.402 -1.0719 1.31174 0
M  V30 1833 O 174.608 -1.01355 1.48752 0
M  V30 1834 H 170.983 -0.172255 0.732006 0
M  V30 1835 H 172.954 0.175615 2.97883 0
M  V30 1836 C 171.703 -1.5967 3.0887 0
M  V30 1837 H 171.026 -1.1475 3.82978 0
M  V30 1838 H 172.466 -2.16943 3.64296 0
M  V30 1839 C 170.925 -2.54682 2.20542 0
M  V30 1840 O 171.455 -3.57836 1.82527 0
M  V30 1841 N 169.661 -2.24183 1.84907 0
M  V30 1842 H 169.208 -1.40333 2.1602 0
M  V30 1843 H 169.166 -2.88006 1.26096 0
M  V30 1844 N 172.938 -1.57226 0.108567 0
M  V30 1845 C 174.163 -1.99604 -0.563303 0
M  V30 1846 C 174.588 -0.987563 -1.6009 0
M  V30 1847 O 173.946 0.0421687 -1.81251 0
M  V30 1848 C 173.994 -3.40902 -1.17552 0
M  V30 1849 O 173.098 -3.42896 -2.2912 0
M  V30 1850 H 172.439 -0.648704 -0.1417 0
M  V30 1851 H 174.969 -2.03679 0.193961 0
M  V30 1852 H 174.979 -3.78886 -1.51357 0
M  V30 1853 H 173.654 -4.1382 -0.415445 0
M  V30 1854 H 172.231 -3.1672 -1.96832 0
M  V30 1855 N 174.416 0.165178 -1.56732 0
M  V30 1856 C 175.832 0.517174 -1.50988 0
M  V30 1857 C 176.032 1.84331 -0.813894 0
M  V30 1858 O 175.088 2.49672 -0.37682 0
M  V30 1859 C 176.401 0.544261 -2.95733 0
M  V30 1860 C 177.949 0.631039 -3.06573 0
M  V30 1861 C 178.424 0.68896 -4.52788 0
M  V30 1862 N 179.915 0.751683 -4.5706 0
M  V30 1863 C 180.65 0.817177 -5.67547 0
M  V30 1864 N 180.146 0.843129 -6.8765 0
M  V30 1865 N 181.939 0.856668 -5.55534 0
M  V30 1866 H 174.09 -0.704318 -2.00382 0
M  V30 1867 H 176.353 -0.254687 -0.913148 0
M  V30 1868 H 176.059 -0.361607 -3.49836 0
M  V30 1869 H 175.933 1.3886 -3.5071 0
M  V30 1870 H 178.32 1.52733 -2.52501 0
M  V30 1871 H 178.401 -0.240095 -2.54671 0
M  V30 1872 H 178.045 -0.2031 -5.07494 0
M  V30 1873 H 177.975 1.57633 -5.02454 0
M  V30 1874 H 180.466 0.739661 -3.70591 0
M  V30 1875 H 180.779 0.894448 -7.67606 0
M  V30 1876 H 179.124 0.811304 -6.90248 0
M  V30 1877 H 182.315 0.833437 -4.60621 0
M  V30 1878 H 182.488 0.904247 -6.4166 0
M  V30 1879 N 175.894 1.51508 0.433938 0
M  V30 1880 C 176.824 1.76016 1.53429 0
M  V30 1881 C 177.805 0.610112 1.58782 0
M  V30 1882 O 178.99 0.853177 1.74455 0
M  V30 1883 C 176.12 1.88831 2.9148 0
M  V30 1884 C 175.074 3.04288 3.00987 0
M  V30 1885 C 174.4 3.0229 4.4105 0
M  V30 1886 C 175.7 4.44193 2.74754 0
M  V30 1887 H 177.394 2.68152 1.33171 0
M  V30 1888 H 174.94 1.29035 0.639214 0
M  V30 1889 H 176.893 2.04559 3.6842 0
M  V30 1890 H 175.617 0.933455 3.12976 0
M  V30 1891 H 174.276 2.8827 2.26486 0
M  V30 1892 H 173.924 2.04576 4.59519 0
M  V30 1893 H 173.624 3.79822 4.4834 0
M  V30 1894 H 175.148 3.20116 5.1996 0
M  V30 1895 H 176.562 4.60544 3.41426 0
M  V30 1896 H 174.959 5.23457 2.9345 0
M  V30 1897 H 176.029 4.53996 1.70339 0
M  V30 1898 N 177.372 -0.689602 1.41712 0
M  V30 1899 C 178.304 -1.815 1.39966 0
M  V30 1900 C 179.317 -1.59995 0.300917 0
M  V30 1901 O 180.506 -1.69387 0.563039 0
M  V30 1902 C 177.606 -3.18364 1.16179 0
M  V30 1903 C 176.779 -3.66847 2.38206 0
M  V30 1904 C 175.838 -4.82398 2.10186 0
M  V30 1905 O 174.864 -4.93706 2.83272 0
M  V30 1906 N 176.066 -5.70064 1.0958 0
M  V30 1907 H 178.831 -1.83488 2.36965 0
M  V30 1908 H 176.392 -0.872149 1.36401 0
M  V30 1909 H 178.384 -3.93301 0.953756 0
M  V30 1910 H 176.954 -3.11365 0.27756 0
M  V30 1911 H 176.174 -2.82751 2.74673 0
M  V30 1912 H 177.462 -3.95978 3.19498 0
M  V30 1913 H 176.86 -5.63565 0.491019 0
M  V30 1914 H 175.417 -6.44874 0.947656 0
M  V30 1915 N 178.85 -1.27639 -0.924453 0
M  V30 1916 C 179.76 -1.12466 -2.05885 0
M  V30 1917 C 180.776 -0.053869 -1.73917 0
M  V30 1918 O 181.952 -0.261012 -1.99702 0
M  V30 1919 C 179.017 -0.776768 -3.37886 0
M  V30 1920 C 178.078 -1.92878 -3.83532 0
M  V30 1921 C 177.311 -1.59739 -5.09234 0
M  V30 1922 O 177.534 -0.506782 -5.68144 0
M  V30 1923 O 176.468 -2.43761 -5.50331 0
M  V30 1924 H 180.294 -2.07671 -2.21599 0
M  V30 1925 H 177.879 -1.06857 -1.04413 0
M  V30 1926 H 179.761 -0.596229 -4.17161 0
M  V30 1927 H 178.436 0.145732 -3.23372 0
M  V30 1928 H 177.343 -2.1644 -3.0513 0
M  V30 1929 H 178.676 -2.8316 -4.02593 0
M  V30 1930 N 180.328 1.1314 -1.09713 0
M  V30 1931 C 181.744 1.36477 -0.827423 0
M  V30 1932 C 181.944 1.93654 0.556817 0
M  V30 1933 O 181 2.15791 1.31112 0
M  V30 1934 C 182.313 2.31334 -1.92106 0
M  V30 1935 C 183.861 2.44943 -1.94864 0
M  V30 1936 C 184.336 3.4311 -3.0338 0
M  V30 1937 N 185.827 3.50662 -3.02639 0
M  V30 1938 C 186.562 4.2651 -3.83246 0
M  V30 1939 N 186.058 5.05485 -4.73768 0
M  V30 1940 N 187.851 4.2184 -3.71493 0
M  V30 1941 H 180.002 0.743807 -1.9895 0
M  V30 1942 H 182.265 0.389823 -0.864143 0
M  V30 1943 H 181.971 1.96483 -2.91698 0
M  V30 1944 H 181.845 3.31381 -1.80184 0
M  V30 1945 H 184.232 2.79079 -0.959099 0
M  V30 1946 H 184.313 1.4481 -2.10864 0
M  V30 1947 H 183.957 3.09704 -4.02549 0
M  V30 1948 H 183.887 4.43055 -2.84622 0
M  V30 1949 H 186.378 2.94315 -2.37039 0
M  V30 1950 H 186.691 5.60675 -5.3185 0
M  V30 1951 H 185.036 5.04708 -4.77802 0
M  V30 1952 H 188.227 3.5922 -3.00131 0
M  V30 1953 H 188.4 4.80697 -4.3455 0
M  V30 1954 N 181.806 0.884767 1.30421 0
M  V30 1955 C 183.055 0.499164 1.95426 0
M  V30 1956 C 183.368 -0.95645 1.70621 0
M  V30 1957 O 184.574 -1.44889 2.29607 0
M  V30 1958 C 183.03 0.84177 3.49917 0
M  V30 1959 C 182.638 2.31514 3.83543 0
M  V30 1960 C 184.382 0.525355 4.21237 0
M  V30 1961 C 182.289 2.59939 5.31212 0
M  V30 1962 H 181.219 0.182944 0.73147 0
M  V30 1963 H 183.87 1.07971 1.48373 0
M  V30 1964 H 182.252 0.190311 3.95542 0
M  V30 1965 H 183.426 3.0109 3.48829 0
M  V30 1966 H 181.741 2.59907 3.25326 0
M  V30 1967 H 184.338 0.714762 5.29901 0
M  V30 1968 H 184.681 -0.535222 4.12845 0
M  V30 1969 H 185.214 1.134 3.81294 0
M  V30 1970 H 181.953 3.64736 5.44654 0
M  V30 1971 H 181.473 1.94972 5.67227 0
M  V30 1972 H 183.152 2.45429 5.98643 0
M  V30 1973 N 183.284 -1.43765 0.645699 0
M  V30 1974 C 184.7 -1.56509 0.312591 0
M  V30 1975 C 184.9 -1.6307 -1.18365 0
M  V30 1976 O 183.956 -1.58167 -1.96824 0
M  V30 1977 C 185.269 -2.82968 1.01733 0
M  V30 1978 C 186.817 -2.96701 0.996865 0
M  V30 1979 C 187.292 -4.25982 1.68236 0
M  V30 1980 N 188.783 -4.32829 1.64964 0
M  V30 1981 C 189.518 -5.31613 2.14885 0
M  V30 1982 N 189.014 -6.36718 2.73061 0
M  V30 1983 N 190.807 -5.23217 2.05428 0
M  V30 1984 H 182.958 -1.3775 1.61675 0
M  V30 1985 H 185.221 -0.661067 0.679481 0
M  V30 1986 H 184.927 -2.84156 2.0724 0
M  V30 1987 H 184.801 -3.72957 0.564177 0
M  V30 1988 H 187.188 -2.95058 -0.0497719 0
M  V30 1989 H 187.269 -2.08022 1.48865 0
M  V30 1990 H 186.913 -4.28386 2.72852 0
M  V30 1991 H 186.843 -5.13545 1.16529 0
M  V30 1992 H 189.334 -3.57493 1.22503 0
M  V30 1993 H 189.647 -7.08401 3.08848 0
M  V30 1994 H 187.992 -6.37362 2.77118 0
M  V30 1995 H 191.183 -4.40019 1.59689 0
M  V30 1996 H 191.356 -6.00045 2.44643 0
M  V30 1997 N 184.763 -0.387143 -1.52771 0
M  V30 1998 C 185.71 0.449048 -2.26389 0
M  V30 1999 C 186.68 1.05961 -1.27912 0
M  V30 2000 O 187.865 1.08804 -1.56737 0
M  V30 2001 C 185.005 1.57155 -3.0724 0
M  V30 2002 C 184.118 0.984066 -4.20643 0
M  V30 2003 C 183.253 2.07745 -4.88892 0
M  V30 2004 C 182.292 1.46574 -5.94292 0
M  V30 2005 N 181.429 2.49834 -6.56146 0
M  V30 2006 H 186.269 -0.185205 -2.97424 0
M  V30 2007 H 183.806 -0.103164 -1.46738 0
M  V30 2008 H 185.764 2.23309 -3.52405 0
M  V30 2009 H 184.394 2.17615 -2.38419 0
M  V30 2010 H 183.446 0.212193 -3.79808 0
M  V30 2011 H 184.758 0.497029 -4.96318 0
M  V30 2012 H 183.912 2.81673 -5.3735 0
M  V30 2013 H 182.651 2.59807 -4.12737 0
M  V30 2014 H 181.656 0.711696 -5.45174 0
M  V30 2015 H 182.881 0.953088 -6.72379 0
M  V30 2016 H 180.827 3.0107 -5.82832 0
M  V30 2017 H 180.744 2.05879 -7.27427 0
M  V30 2018 H 182.012 3.23399 -7.09249 0
M  V30 2019 N 186.241 1.57166 -0.116904 0
M  V30 2020 C 187.466 1.999 0.55271 0
M  V30 2021 C 187.891 0.996039 1.59564 0
M  V30 2022 O 187.249 -0.032556 1.81271 0
M  V30 2023 C 187.297 3.4152 1.15742 0
M  V30 2024 O 186.401 3.44106 2.27299 0
M  V30 2025 H 185.742 0.649447 0.138258 0
M  V30 2026 H 188.272 2.03573 -0.204759 0
M  V30 2027 H 188.282 3.79684 1.49346 0
M  V30 2028 H 186.957 4.14034 0.393493 0
M  V30 2029 H 185.534 3.17759 1.9515 0
M  V30 2030 N 187.719 -0.156864 1.56817 0
M  V30 2031 C 188.629 -1.2136 2.00771 0
M  V30 2032 C 189.645 -1.47598 0.921459 0
M  V30 2033 O 190.821 -1.59462 1.2302 0
M  V30 2034 C 187.886 -2.52943 2.37109 0
M  V30 2035 C 186.947 -2.34439 3.59634 0
M  V30 2036 C 186.18 -3.59748 3.94229 0
M  V30 2037 O 186.403 -4.65526 3.29609 0
M  V30 2038 O 185.337 -3.52998 4.8752 0
M  V30 2039 H 189.163 -0.870468 2.90958 0
M  V30 2040 H 186.748 -0.36484 1.44877 0
M  V30 2041 H 188.63 -3.30538 2.61386 0
M  V30 2042 H 187.305 -2.86806 1.5008 0
M  V30 2043 H 186.212 -1.54828 3.40557 0
M  V30 2044 H 187.545 -2.05496 4.4725 0
M  V30 2045 N 189.197 -1.51736 -0.425897 0
M  V30 2046 C 190.16 -1.73271 -1.50032 0
M  V30 2047 C 191.16 -0.602639 -1.4908 0
M  V30 2048 O 192.35 -0.87033 -1.509 0
M  V30 2049 C 189.482 -1.79969 -2.89523 0
M  V30 2050 H 190.675 -2.69172 -1.32237 0
M  V30 2051 H 188.228 -1.41899 -0.65532 0
M  V30 2052 H 188.963 -0.859241 -3.1271 0
M  V30 2053 H 188.748 -2.62109 -2.91619 0
M  V30 2054 H 190.238 -1.9843 -3.67444 0
M  V30 2055 N 190.675 0.682077 -1.42076 0
M  V30 2056 C 191.605 1.80796 -1.47767 0
M  V30 2057 C 192.586 1.6677 -0.334954 0
M  V30 2058 O 193.771 1.863 -0.548264 0
M  V30 2059 C 190.901 3.19038 -1.37229 0
M  V30 2060 C 189.855 3.47789 -2.49453 0
M  V30 2061 C 189.181 4.8553 -2.23975 0
M  V30 2062 C 190.481 3.45411 -3.91776 0
M  V30 2063 H 192.175 1.7629 -2.41997 0
M  V30 2064 H 189.721 0.846721 -1.16476 0
M  V30 2065 H 191.674 3.97528 -1.39821 0
M  V30 2066 H 190.398 3.24204 -0.394907 0
M  V30 2067 H 189.057 2.71657 -2.46166 0
M  V30 2068 H 188.705 4.87337 -1.24547 0
M  V30 2069 H 188.405 5.0573 -2.99184 0
M  V30 2070 H 189.929 5.66312 -2.28304 0
M  V30 2071 H 191.343 4.13882 -3.96705 0
M  V30 2072 H 189.74 3.77145 -4.66778 0
M  V30 2073 H 190.81 2.44122 -4.18966 0
M  V30 2074 N 192.153 1.28127 0.917671 0
M  V30 2075 C 193.381 1.17892 1.70026 0
M  V30 2076 C 193.796 -0.262958 1.8696 0
M  V30 2077 O 193.153 -1.17811 1.3938 0
M  V30 2078 C 193.204 1.86872 3.09453 0
M  V30 2079 O 192.925 3.25428 2.93306 0
M  V30 2080 C 194.426 1.8289 4.03815 0
M  V30 2081 H 191.646 0.40942 0.531617 0
M  V30 2082 H 194.19 1.69181 1.14883 0
M  V30 2083 H 192.345 1.39464 3.61426 0
M  V30 2084 H 192.759 3.59918 3.81523 0
M  V30 2085 H 194.233 2.35751 4.99125 0
M  V30 2086 H 194.71 0.800412 4.31845 0
M  V30 2087 H 195.316 2.29959 3.57769 0
M  V30 2088 N 193.631 -1.12557 1.10312 0
M  V30 2089 C 194.594 -2.16434 0.75424 0
M  V30 2090 C 195.594 -1.59278 -0.220685 0
M  V30 2091 O 196.784 -1.742 0.00230591 0
M  V30 2092 C 193.916 -3.40699 0.116987 0
M  V30 2093 H 195.109 -2.48811 1.67431 0
M  V30 2094 H 192.662 -1.27542 0.903475 0
M  V30 2095 H 193.397 -3.13921 -0.813877 0
M  V30 2096 H 193.182 -3.83459 0.818613 0
M  V30 2097 H 194.672 -4.17451 -0.111387 0
M  V30 2098 N 195.109 -0.891671 -1.2995 0
M  V30 2099 C 196.357 -0.512486 -1.95494 0
M  V30 2100 C 196.678 0.942776 -1.70695 0
M  V30 2101 O 195.948 1.66374 -1.03424 0
M  V30 2102 H 194.528 -0.186533 -0.723336 0
M  V30 2103 H 197.19 -1.13621 -1.58355 0
M  V30 2104 H 196.286 -0.688342 -3.04415 0
M  V30 2105 N 196.587 1.43421 -0.653314 0
M  V30 2106 C 197.535 2.32546 0.0501531 0
M  V30 2107 C 198.529 1.48617 0.812985 0
M  V30 2108 O 199.735 1.64825 0.723375 0
M  V30 2109 H 196.11 0.751185 0.0350032 0
M  V30 2110 H 198.081 2.89602 -0.719261 0
M  V30 2111 C 196.83 3.32925 1.00279 0
M  V30 2112 H 196.153 3.97532 0.425236 0
M  V30 2113 H 197.593 3.9792 1.46409 0
M  V30 2114 C 196.052 2.63532 2.09886 0
M  V30 2115 O 196.582 2.45092 3.18265 0
M  V30 2116 N 194.788 2.22905 1.86445 0
M  V30 2117 H 194.335 2.38103 0.98309 0
M  V30 2118 H 194.293 1.76805 2.59976 0
M  V30 2119 N 198.065 0.39524 1.52563 0
M  V30 2120 C 199.293 -0.184943 2.06072 0
M  V30 2121 C 199.708 -1.40021 1.26647 0
M  V30 2122 O 199.065 -1.79767 0.314672 0
M  V30 2123 C 199.116 -0.549179 3.57304 0
M  V30 2124 O 198.837 0.617813 4.33722 0
M  V30 2125 C 200.338 -1.18459 4.2718 0
M  V30 2126 H 197.558 -0.0265025 0.670476 0
M  V30 2127 H 200.102 0.562184 1.96621 0
M  V30 2128 H 198.257 -1.2462 3.66809 0
M  V30 2129 H 198.671 0.317091 5.23541 0
M  V30 2130 H 200.145 -1.38976 5.34219 0
M  V30 2131 H 200.622 -2.15368 3.82771 0
M  V30 2132 H 201.228 -0.528163 4.22008 0
M  V30 2133 N 199.544 -1.57102 0.125237 0
M  V30 2134 C 200.792 -1.95021 -0.530198 0
M  V30 2135 C 201.113 -1.00982 -1.66816 0
M  V30 2136 O 200.383 -0.0672693 -1.95784 0
M  V30 2137 H 198.963 -0.720046 -0.198853 0
M  V30 2138 H 201.625 -1.93916 0.19564 0
M  V30 2139 H 200.721 -2.98211 -0.920681 0
M  V30 2140 N 201.022 0.148545 -1.56898 0
M  V30 2141 C 201.952 1.18524 -2.01182 0
M  V30 2142 C 202.933 1.4489 -0.891123 0
M  V30 2143 O 204.118 1.55836 -1.15882 0
M  V30 2144 C 201.248 2.51879 -2.39112 0
M  V30 2145 C 200.202 2.40038 -3.54353 0
M  V30 2146 C 199.528 3.78089 -3.78091 0
M  V30 2147 C 200.828 1.88577 -4.87069 0
M  V30 2148 H 202.522 0.817029 -2.88036 0
M  V30 2149 H 200.068 0.391575 -1.38574 0
M  V30 2150 H 202.021 3.24627 -2.68692 0
M  V30 2151 H 200.745 2.90532 -1.49193 0
M  V30 2152 H 199.404 1.69742 -3.24936 0
M  V30 2153 H 199.052 4.14175 -2.85426 0
M  V30 2154 H 198.752 3.71028 -4.55645 0
M  V30 2155 H 200.276 4.52387 -4.10095 0
M  V30 2156 H 201.69 2.51117 -5.15377 0
M  V30 2157 H 200.087 1.9241 -5.68417 0
M  V30 2158 H 201.157 0.84136 -4.77545 0
M  V30 2159 N 202.5 1.5196 0.417844 0
M  V30 2160 C 203.728 1.69426 1.18753 0
M  V30 2161 C 204.143 0.399955 1.84515 0
M  V30 2162 O 203.5 -0.623288 1.71527 0
M  V30 2163 C 203.551 2.82375 2.25714 0
M  V30 2164 O 203.272 4.06793 1.62638 0
M  V30 2165 C 204.773 3.11277 3.15628 0
M  V30 2166 H 201.993 0.568031 0.357186 0
M  V30 2167 H 204.537 1.98475 0.49273 0
M  V30 2168 H 202.692 2.5587 2.90877 0
M  V30 2169 H 203.106 4.69667 2.3348 0
M  V30 2170 H 204.58 3.93843 3.86771 0
M  V30 2171 H 205.057 2.24473 3.77503 0
M  V30 2172 H 205.663 3.39515 2.56144 0
M  V30 2173 N 203.978 -0.674533 1.42435 0
M  V30 2174 C 204.908 -1.80009 1.48724 0
M  V30 2175 C 205.889 -1.6659 0.343793 0
M  V30 2176 O 207.074 -1.86007 0.558137 0
M  V30 2177 C 204.204 -3.18306 1.38919 0
M  V30 2178 C 203.158 -3.46461 2.51294 0
M  V30 2179 C 202.484 -4.84335 2.26547 0
M  V30 2180 C 203.784 -3.43328 3.93603 0
M  V30 2181 H 205.478 -1.75004 2.42928 0
M  V30 2182 H 203.024 -0.840533 1.16923 0
M  V30 2183 H 204.977 -3.9678 1.41927 0
M  V30 2184 H 203.701 -3.2399 0.412094 0
M  V30 2185 H 202.36 -2.70348 2.47604 0
M  V30 2186 H 202.008 -4.86669 1.2713 0
M  V30 2187 H 201.708 -5.04136 3.01861 0
M  V30 2188 H 203.232 -5.65094 2.31304 0
M  V30 2189 H 204.646 -4.11772 3.98894 0
M  V30 2190 H 203.043 -3.74664 4.68771 0
M  V30 2191 H 204.113 -2.41897 4.20255 0
M  V30 2192 N 205.456 -1.28612 -0.910864 0
M  V30 2193 C 206.404 -1.1265 -2.03501 0
M  V30 2194 C 207.398 -0.0450054 -1.6934 0
M  V30 2195 O 208.604 -0.203988 -1.7884 0
M  V30 2196 H 204.979 -0.347639 -0.666822 0
M  V30 2197 H 206.95 -2.07849 -2.14106 0
M  V30 2198 C 205.699 -0.808143 -3.38178 0
M  V30 2199 H 205.022 -1.63231 -3.6496 0
M  V30 2200 H 206.462 -0.736426 -4.17556 0
M  V30 2201 C 204.921 0.488226 -3.33344 0
M  V30 2202 O 205.451 1.51766 -3.71927 0
M  V30 2203 N 203.657 0.490009 -2.86439 0
M  V30 2204 H 203.204 -0.348161 -2.55236 0
M  V30 2205 H 203.162 1.35741 -2.83587 0
M  V30 2206 N 206.934 1.1197 -1.10907 0
M  V30 2207 C 208.183 1.82947 -0.849302 0
M  V30 2208 C 208.496 1.85275 0.627112 0
M  V30 2209 O 209.702 2.52296 1.00295 0
M  V30 2210 C 208.158 3.28529 -1.46959 0
M  V30 2211 C 207.766 3.34546 -2.97965 0
M  V30 2212 C 209.51 4.04443 -1.28942 0
M  V30 2213 C 207.417 4.74491 -3.53004 0
M  V30 2214 H 206.347 0.685477 -0.314065 0
M  V30 2215 H 208.998 1.2604 -1.33365 0
M  V30 2216 H 207.38 3.85333 -0.912917 0
M  V30 2217 H 208.554 2.87654 -3.59989 0
M  V30 2218 H 206.869 2.72108 -3.15192 0
M  V30 2219 H 209.466 5.07787 -1.67502 0
M  V30 2220 H 209.809 4.15656 -0.231456 0
M  V30 2221 H 210.342 3.5401 -1.81443 0
M  V30 2222 H 207.081 4.68474 -4.58489 0
M  V30 2223 H 206.601 5.21816 -2.9575 0
M  V30 2224 H 208.28 5.4344 -3.51115 0
M  V30 2225 N 208.412 0.89855 1.29475 0
M  V30 2226 C 209.375 0.380272 2.26023 0
M  V30 2227 C 210.375 -0.484891 1.53315 0
M  V30 2228 O 211.565 -0.290108 1.71767 0
M  V30 2229 C 208.697 -0.45651 3.3783 0
M  V30 2230 H 209.89 1.23295 2.73383 0
M  V30 2231 H 207.443 0.676589 1.40897 0
M  V30 2232 H 208.178 -1.32922 2.95808 0
M  V30 2233 H 207.963 0.163393 3.91759 0
M  V30 2234 H 209.453 -0.810466 4.0966 0
M  V30 2235 N 209.89 -1.43072 0.660911 0
M  V30 2236 C 210.853 -2.29194 -0.0166406 0
M  V30 2237 C 211.853 -1.42609 -0.742912 0
M  V30 2238 O 213.043 -1.64155 -0.583004 0
M  V30 2239 C 210.175 -3.24831 -1.0343 0
M  V30 2240 H 211.368 -2.90596 0.741208 0
M  V30 2241 H 208.921 -1.5048 0.422532 0
M  V30 2242 H 209.656 -2.68339 -1.82111 0
M  V30 2243 H 209.441 -3.88676 -0.517082 0
M  V30 2244 H 210.931 -3.89451 -1.50723 0
M  V30 2245 N 211.368 -0.403325 -1.52352 0
M  V30 2246 C 212.316 0.439752 -2.28405 0
M  V30 2247 C 213.31 1.05089 -1.32863 0
M  V30 2248 O 214.516 0.989759 -1.50345 0
M  V30 2249 H 210.891 0.160587 -0.734653 0
M  V30 2250 H 212.862 -0.222983 -2.97566 0
M  V30 2251 C 211.611 1.54736 -3.11371 0
M  V30 2252 H 210.934 1.08643 -3.84755 0
M  V30 2253 H 212.374 2.1112 -3.67701 0
M  V30 2254 C 210.833 2.51141 -2.24566 0
M  V30 2255 O 211.363 3.54887 -1.88196 0
M  V30 2256 N 209.569 2.21213 -1.8845 0
M  V30 2257 H 209.116 1.36878 -2.18225 0
M  V30 2258 H 209.074 2.85963 -1.30662 0
M  V30 2259 N 212.846 1.57033 -0.133567 0
M  V30 2260 C 214.076 1.99754 0.527429 0
M  V30 2261 C 214.484 1.01245 1.59832 0
M  V30 2262 O 213.827 -0.000645496 1.837 0
M  V30 2263 C 213.889 3.38903 1.19939 0
M  V30 2264 C 213.553 4.56174 0.274709 0
M  V30 2265 C 214.55 5.17563 -0.492398 0
M  V30 2266 C 212.235 5.01972 0.18153 0
M  V30 2267 C 214.229 6.2315 -1.34027 0
M  V30 2268 C 211.916 6.07416 -0.669958 0
M  V30 2269 C 212.914 6.67874 -1.42947 0
M  V30 2270 O 212.602 7.71279 -2.2668 0
M  V30 2271 H 212.334 0.660702 0.142999 0
M  V30 2272 H 214.888 2.04207 -0.221099 0
M  V30 2273 H 213.118 3.31248 1.99528 0
M  V30 2274 H 214.807 3.65818 1.75875 0
M  V30 2275 H 215.573 4.83087 -0.430367 0
M  V30 2276 H 211.452 4.54652 0.762422 0
M  V30 2277 H 214.996 6.70268 -1.93357 0
M  V30 2278 H 210.893 6.41321 -0.73333 0
M  V30 2279 H 211.661 7.88441 -2.1978 0
M  V30 2280 N 214.325 -0.140222 1.56975 0
M  V30 2281 C 215.573 -0.850005 1.83356 0
M  V30 2282 C 215.894 -1.81399 0.71551 0
M  V30 2283 O 215.164 -1.94136 -0.262294 0
M  V30 2284 H 213.744 -0.316886 0.676456 0
M  V30 2285 H 216.406 -0.132608 1.94448 0
M  V30 2286 H 215.502 -1.40814 2.78528 0
M  V30 2287 N 215.803 -1.52179 -0.40978 0
M  V30 2288 C 217.051 -1.65878 -1.15451 0
M  V30 2289 C 217.372 -0.390771 -1.91044 0
M  V30 2290 O 216.642 0.594323 -1.86667 0
M  V30 2291 H 215.222 -0.611405 -0.429177 0
M  V30 2292 H 217.884 -1.89219 -0.467134 0
M  V30 2293 H 216.98 -2.49954 -1.86894 0
M  V30 2294 N 217.281 0.66697 -1.42791 0
M  V30 2295 C 218.697 0.981027 -1.25889 0
M  V30 2296 C 218.897 2.00793 -0.168695 0
M  V30 2297 O 217.953 2.48321 0.45747 0
M  V30 2298 C 219.266 1.47838 -2.61848 0
M  V30 2299 C 220.814 1.59575 -2.69267 0
M  V30 2300 C 221.289 2.12704 -4.05612 0
M  V30 2301 N 222.78 2.20026 -4.07606 0
M  V30 2302 C 223.515 2.62227 -5.09926 0
M  V30 2303 N 223.011 3.03824 -6.22626 0
M  V30 2304 N 224.804 2.62045 -4.97281 0
M  V30 2305 H 216.955 -0.0127891 -2.12396 0
M  V30 2306 H 219.218 0.0568258 -0.946295 0
M  V30 2307 H 218.924 0.798299 -3.4252 0
M  V30 2308 H 218.798 2.45579 -2.86305 0
M  V30 2309 H 221.185 2.26687 -1.88936 0
M  V30 2310 H 221.266 0.60302 -2.48591 0
M  V30 2311 H 220.91 1.46198 -4.86404 0
M  V30 2312 H 220.84 3.12782 -4.23645 0
M  V30 2313 H 223.331 1.90708 -3.2625 0
M  V30 2314 H 223.644 3.34734 -6.96544 0
M  V30 2315 H 221.989 3.01662 -6.26119 0
M  V30 2316 H 225.18 2.28916 -4.08308 0
M  V30 2317 H 225.353 2.94613 -5.77154 0
M  V30 2318 N 218.759 1.29093 0.90403 0
M  V30 2319 C 220.005 1.17996 1.65676 0
M  V30 2320 C 220.36 -0.266816 1.90541 0
M  V30 2321 O 219.653 -1.19 1.50165 0
M  V30 2322 C 219.847 1.92224 3.01305 0
M  V30 2323 C 219.676 3.43972 2.89678 0
M  V30 2324 C 218.446 4.1332 2.90679 0
M  V30 2325 C 220.644 4.39546 2.67028 0
M  V30 2326 N 218.626 5.51463 2.69743 0
M  V30 2327 C 219.997 5.65119 2.5503 0
M  V30 2328 C 222.052 4.29359 2.52101 0
M  V30 2329 C 220.755 6.81663 2.29626 0
M  V30 2330 C 222.781 5.4565 2.28079 0
M  V30 2331 C 222.143 6.70193 2.16843 0
M  V30 2332 H 218.242 0.486759 0.612037 0
M  V30 2333 H 220.826 1.62868 1.06688 0
M  V30 2334 H 218.997 1.49773 3.58361 0
M  V30 2335 H 220.729 1.73429 3.65656 0
M  V30 2336 H 217.484 3.64984 3.01801 0
M  V30 2337 H 217.908 6.24105 2.6234 0
M  V30 2338 H 222.55 3.33769 2.59534 0
M  V30 2339 H 220.268 7.77313 2.20932 0
M  V30 2340 H 223.854 5.39664 2.1738 0
M  V30 2341 H 222.734 7.58659 1.98511 0
M  V30 2342 N 220.237 -1.11381 1.11499 0
M  V30 2343 C 221.514 -1.7955 0.775965 0
M  V30 2344 C 221.894 -1.97859 -0.73588 0
M  V30 2345 O 221.242 -1.56376 -1.66609 0
M  V30 2346 C 221.452 -3.13196 1.53977 0
M  V30 2347 C 222.8 -3.88227 1.71944 0
M  V30 2348 O 223.824 -3.22887 1.50407 0
M  V30 2349 O 222.683 -5.05477 2.07738 0
M  V30 2350 H 219.777 -0.777728 0.28119 0
M  V30 2351 H 222.323 -1.18118 1.21845 0
M  V30 2352 H 221.095 -2.95229 2.56818 0
M  V30 2353 H 220.718 -3.82342 1.09088 0
M  V30 2354 N 221.715 -0.905404 -1.28997 0
M  V30 2355 C 222.964 -0.530191 -1.94607 0
M  V30 2356 C 223.277 0.929185 -1.72121 0
M  V30 2357 O 224.483 1.41218 -2.31883 0
M  V30 2358 C 222.939 -0.897333 -3.48534 0
M  V30 2359 C 222.547 -2.37587 -3.79811 0
M  V30 2360 C 224.291 -0.592304 -4.20347 0
M  V30 2361 C 222.198 -2.68357 -5.27009 0
M  V30 2362 H 221.128 -0.194558 -0.728466 0
M  V30 2363 H 223.779 -1.10318 -1.46636 0
M  V30 2364 H 222.161 -0.253214 -3.9519 0
M  V30 2365 H 223.335 -3.06602 -3.43994 0
M  V30 2366 H 221.65 -2.6505 -3.2115 0
M  V30 2367 H 224.247 -0.798975 -5.28697 0
M  V30 2368 H 224.59 0.469474 -4.13644 0
M  V30 2369 H 225.123 -1.19452 -3.79442 0
M  V30 2370 H 221.862 -3.73355 -5.38782 0
M  V30 2371 H 221.382 -2.03971 -5.64053 0
M  V30 2372 H 223.061 -2.54922 -5.94663 0
M  V30 2373 N 223.193 1.4272 -0.668489 0
M  V30 2374 C 224.439 2.01923 -0.188419 0
M  V30 2375 C 224.772 1.52704 1.19979 0
M  V30 2376 O 224.047 0.726566 1.8042 0
M  V30 2377 C 224.33 3.59451 -0.216085 0
M  V30 2378 C 224.183 4.18864 -1.6393 0
M  V30 2379 C 225.502 4.37903 0.439179 0
M  V30 2380 H 222.621 0.733674 -0.0699412 0
M  V30 2381 H 225.263 1.69822 -0.852076 0
M  V30 2382 H 223.413 3.86929 0.349012 0
M  V30 2383 H 225.085 4.02362 -2.25616 0
M  V30 2384 H 223.328 3.74933 -2.18193 0
M  V30 2385 H 223.999 5.27987 -1.61039 0
M  V30 2386 H 226.475 4.16079 -0.0417878 0
M  V30 2387 H 225.351 5.47519 0.389157 0
M  V30 2388 H 225.612 4.15303 1.51577 0
M  V30 2389 N 224.671 0.411399 1.52136 0
M  V30 2390 C 225.603 -0.448386 2.24771 0
M  V30 2391 C 226.616 -1.00828 1.27818 0
M  V30 2392 O 227.805 -0.906841 1.53749 0
M  V30 2393 C 224.905 -1.63636 2.96777 0
M  V30 2394 C 224.078 -1.19995 4.20618 0
M  V30 2395 C 223.137 -2.25509 4.75428 0
M  V30 2396 O 222.163 -1.86007 5.3795 0
M  V30 2397 N 223.365 -3.577 4.57199 0
M  V30 2398 H 226.13 0.174025 2.99194 0
M  V30 2399 H 223.691 0.238897 1.60128 0
M  V30 2400 H 225.683 -2.33793 3.30338 0
M  V30 2401 H 224.253 -2.16465 2.25526 0
M  V30 2402 H 223.473 -0.326421 3.92846 0
M  V30 2403 H 224.761 -0.885365 5.01038 0
M  V30 2404 H 224.159 -3.92543 4.07341 0
M  V30 2405 H 222.716 -4.23827 4.95191 0
M  V30 2406 N 226.149 -1.5696 0.141893 0
M  V30 2407 C 227.397 -1.95573 -0.509484 0
M  V30 2408 C 227.718 -1.02746 -1.65736 0
M  V30 2409 O 226.988 -0.0880311 -1.95702 0
M  V30 2410 H 225.568 -0.722115 -0.191205 0
M  V30 2411 H 228.23 -1.93697 0.216196 0
M  V30 2412 H 227.326 -2.99171 -0.889 0
M  V30 2413 N 227.627 0.131896 -1.57047 0
M  V30 2414 C 228.873 0.843179 -1.84441 0
M  V30 2415 C 229.206 1.80129 -0.725749 0
M  V30 2416 O 228.481 1.92624 0.269469 0
M  V30 2417 C 228.764 1.60442 -3.22382 0
M  V30 2418 C 228.617 0.666782 -4.4483 0
M  V30 2419 C 229.936 2.56354 -3.5773 0
M  V30 2420 H 227.055 0.305081 -0.670891 0
M  V30 2421 H 229.697 0.107839 -1.89694 0
M  V30 2422 H 227.847 2.23128 -3.18035 0
M  V30 2423 H 229.519 0.0497646 -4.61273 0
M  V30 2424 H 227.762 -0.022609 -4.33794 0
M  V30 2425 H 228.433 1.23579 -5.37989 0
M  V30 2426 H 230.909 2.0378 -3.62785 0
M  V30 2427 H 229.785 3.06657 -4.5525 0
M  V30 2428 H 230.046 3.38419 -2.84473 0
M  V30 2429 N 229.106 1.52395 0.401703 0
M  V30 2430 C 230.522 1.41363 0.740864 0
M  V30 2431 C 230.722 0.523982 1.94568 0
M  V30 2432 O 229.778 -0.00741204 2.52499 0
M  V30 2433 C 231.091 2.84011 0.987847 0
M  V30 2434 C 232.639 2.93404 1.09011 0
M  V30 2435 C 233.114 4.37036 1.3698 0
M  V30 2436 N 234.605 4.40304 1.43829 0
M  V30 2437 C 235.34 5.48508 1.67112 0
M  V30 2438 N 234.836 6.66819 1.87949 0
M  V30 2439 N 236.629 5.36034 1.69187 0
M  V30 2440 H 228.78 2.08765 -0.391262 0
M  V30 2441 H 231.043 0.941265 -0.112798 0
M  V30 2442 H 230.749 3.51265 0.174835 0
M  V30 2443 H 230.623 3.25502 1.906 0
M  V30 2444 H 233.01 2.26325 1.8937 0
M  V30 2445 H 233.091 2.55359 0.15015 0
M  V30 2446 H 232.735 5.04676 0.571353 0
M  V30 2447 H 232.665 4.72623 2.3224 0
M  V30 2448 H 235.156 3.55024 1.29486 0
M  V30 2449 H 235.469 7.45063 2.05185 0
M  V30 2450 H 233.814 6.6987 1.85199 0
M  V30 2451 H 237.005 4.42579 1.52451 0
M  V30 2452 H 237.178 6.20434 1.86993 0
M  V30 2453 N 230.584 -0.659388 1.43143 0
M  V30 2454 C 231.516 -1.7849 1.43784 0
M  V30 2455 C 232.529 -1.5932 0.334787 0
M  V30 2456 O 233.718 -1.68155 0.598842 0
M  V30 2457 C 230.818 -3.15828 1.22906 0
M  V30 2458 C 229.991 -3.61711 2.45934 0
M  V30 2459 C 229.05 -4.77831 2.20371 0
M  V30 2460 O 228.076 -4.87586 2.93681 0
M  V30 2461 N 229.278 -5.67611 1.21647 0
M  V30 2462 H 232.043 -1.7842 2.40803 0
M  V30 2463 H 229.604 -0.84302 1.3822 0
M  V30 2464 H 231.596 -3.91189 1.03697 0
M  V30 2465 H 230.166 -3.10707 0.343542 0
M  V30 2466 H 229.386 -2.76861 2.80609 0
M  V30 2467 H 230.674 -3.89112 3.27825 0
M  V30 2468 H 230.072 -5.62397 0.610449 0
M  V30 2469 H 228.629 -6.42719 1.08423 0
M  V30 2470 N 232.062 -1.29571 -0.897171 0
M  V30 2471 C 232.992 -1.17473 -2.01798 0
M  V30 2472 C 233.973 -0.068323 -1.69963 0
M  V30 2473 O 235.158 -0.248239 -1.92607 0
M  V30 2474 C 232.288 -0.853099 -3.36659 0
M  V30 2475 C 231.242 -1.9161 -3.82713 0
M  V30 2476 C 230.568 -1.44773 -5.14728 0
M  V30 2477 C 231.868 -3.32535 -4.02763 0
M  V30 2478 H 233.562 -2.11237 -2.12177 0
M  V30 2479 H 231.108 -1.01699 -1.01948 0
M  V30 2480 H 233.061 -0.755165 -4.14578 0
M  V30 2481 H 231.785 0.120236 -3.26379 0
M  V30 2482 H 230.444 -2.00346 -3.07013 0
M  V30 2483 H 230.092 -0.462995 -5.00865 0
M  V30 2484 H 229.792 -2.15865 -5.46513 0
M  V30 2485 H 231.316 -1.36334 -5.95185 0
M  V30 2486 H 232.73 -3.26626 -4.71156 0
M  V30 2487 H 231.127 -4.01607 -4.45905 0
M  V30 2488 H 232.197 -3.75326 -3.07016 0
M  V30 2489 N 233.54 1.10788 -1.12088 0
M  V30 2490 C 234.503 2.15207 -0.788577 0
M  V30 2491 C 235.503 1.59609 0.195317 0
M  V30 2492 O 236.693 1.74174 -0.0300193 0
M  V30 2493 C 233.825 3.4047 -0.171174 0
M  V30 2494 H 235.018 2.46116 -1.71368 0
M  V30 2495 H 232.571 1.26089 -0.923652 0
M  V30 2496 H 233.306 3.15176 0.763832 0
M  V30 2497 H 233.091 3.82109 -0.879514 0
M  V30 2498 H 234.581 4.17576 0.04496 0
M  V30 2499 N 235.018 0.912232 1.28515 0
M  V30 2500 C 235.928 0.404506 2.31086 0
M  V30 2501 C 236.944 -0.50707 1.66448 0
M  V30 2502 O 238.12 -0.393624 1.97516 0
M  V30 2503 C 235.185 -0.348572 3.44943 0
M  V30 2504 C 234.246 0.59604 4.25142 0
M  V30 2505 C 233.479 -0.121194 5.33562 0
M  V30 2506 O 233.702 -1.34317 5.5436 0
M  V30 2507 O 232.636 0.542716 5.99448 0
M  V30 2508 H 236.462 1.25579 2.76521 0
M  V30 2509 H 234.047 0.676998 1.33181 0
M  V30 2510 H 235.929 -0.77395 4.14232 0
M  V30 2511 H 234.604 -1.17571 3.01594 0
M  V30 2512 H 233.511 1.07079 3.58448 0
M  V30 2513 H 234.844 1.38995 4.72167 0
M  V30 2514 N 236.496 -1.42363 0.676048 0
M  V30 2515 C 237.443 -2.308 -0.00150904 0
M  V30 2516 C 238.413 -1.46032 -0.791444 0
M  V30 2517 O 239.598 -1.74861 -0.76344 0
M  V30 2518 C 236.738 -3.31883 -0.945919 0
M  V30 2519 C 235.851 -4.31741 -0.149675 0
M  V30 2520 C 234.986 -5.19898 -1.08995 0
M  V30 2521 C 234.025 -6.11434 -0.285465 0
M  V30 2522 N 233.162 -6.92138 -1.17851 0
M  V30 2523 H 238.002 -2.88187 0.758455 0
M  V30 2524 H 235.539 -1.41952 0.38576 0
M  V30 2525 H 237.497 -3.89019 -1.50731 0
M  V30 2526 H 236.127 -2.76093 -1.6725 0
M  V30 2527 H 235.179 -3.76713 0.528359 0
M  V30 2528 H 236.491 -4.96534 0.474866 0
M  V30 2529 H 235.645 -5.81772 -1.72123 0
M  V30 2530 H 234.384 -4.55284 -1.74837 0
M  V30 2531 H 233.389 -5.48627 0.359018 0
M  V30 2532 H 234.614 -6.78097 0.368883 0
M  V30 2533 H 232.56 -6.30152 -1.82332 0
M  V30 2534 H 232.477 -7.53542 -0.609082 0
M  V30 2535 H 233.745 -7.58499 -1.79722 0
M  V30 2536 N 237.974 -0.419461 -1.51915 0
M  V30 2537 C 239.22 0.153166 -2.02221 0
M  V30 2538 C 239.553 1.43907 -1.30401 0
M  V30 2539 O 238.828 1.90055 -0.413438 0
M  V30 2540 C 239.111 0.390291 -3.57979 0
M  V30 2541 C 238.964 -0.913014 -4.40436 0
M  V30 2542 C 240.283 1.16794 -4.2432 0
M  V30 2543 H 237.402 0.0541924 -0.735005 0
M  V30 2544 H 240.044 -0.554955 -1.81715 0
M  V30 2545 H 238.194 0.993491 -3.75582 0
M  V30 2546 H 239.866 -1.54882 -4.34522 0
M  V30 2547 H 238.109 -1.52168 -4.06236 0
M  V30 2548 H 238.78 -0.701361 -5.47526 0
M  V30 2549 H 241.256 0.657161 -4.10878 0
M  V30 2550 H 240.132 1.3026 -5.3322 0
M  V30 2551 H 240.393 2.19132 -3.83971 0
M  V30 2552 N 239.452 1.56882 -0.150215 0
M  V30 2553 C 240.384 2.14057 0.819286 0
M  V30 2554 C 241.397 1.09082 1.20851 0
M  V30 2555 O 242.586 1.36347 1.15203 0
M  V30 2556 C 239.686 2.65102 2.11127 0
M  V30 2557 C 238.859 3.94511 1.88891 0
M  V30 2558 C 237.918 4.30834 3.02107 0
M  V30 2559 O 236.944 4.99099 2.73659 0
M  V30 2560 N 238.146 3.90676 4.29363 0
M  V30 2561 H 240.911 2.97871 0.330618 0
M  V30 2562 H 238.472 1.61866 0.0332538 0
M  V30 2563 H 240.464 2.86411 2.85921 0
M  V30 2564 H 239.034 1.85994 2.51247 0
M  V30 2565 H 238.254 3.81795 0.981152 0
M  V30 2566 H 239.542 4.7907 1.71376 0
M  V30 2567 H 238.94 3.35677 4.55343 0
M  V30 2568 H 237.497 4.1703 5.00928 0
M  V30 2569 N 240.93 -0.123565 1.57115 0
M  V30 2570 C 241.862 -1.17739 1.96648 0
M  V30 2571 C 242.875 -1.37906 0.865201 0
M  V30 2572 O 244.064 -1.37062 1.14351 0
M  V30 2573 C 241.164 -2.53821 2.24562 0
M  V30 2574 C 240.337 -2.54317 3.55867 0
M  V30 2575 C 239.396 -3.72112 3.72047 0
M  V30 2576 O 238.422 -3.55907 4.44206 0
M  V30 2577 N 239.624 -4.90498 3.10471 0
M  V30 2578 H 242.389 -0.841147 2.87654 0
M  V30 2579 H 239.95 -0.31289 1.58848 0
M  V30 2580 H 241.942 -3.31175 2.32606 0
M  V30 2581 H 240.512 -2.79645 1.39705 0
M  V30 2582 H 239.732 -1.62711 3.59053 0
M  V30 2583 H 241.02 -2.51701 4.42181 0
M  V30 2584 H 240.418 -5.06567 2.51806 0
M  V30 2585 H 238.975 -5.65544 3.24043 0
M  V30 2586 N 242.408 -1.52605 -0.393616 0
M  V30 2587 C 243.656 -1.67093 -1.13685 0
M  V30 2588 C 243.977 -0.411011 -1.90619 0
M  V30 2589 O 243.247 0.574491 -1.87287 0
M  V30 2590 H 241.827 -0.615923 -0.422668 0
M  V30 2591 H 244.489 -1.89704 -0.447039 0
M  V30 2592 H 243.585 -2.51922 -1.84232 0
M  V30 2593 N 243.887 0.651787 -1.4349 0
M  V30 2594 C 244.835 1.78586 -1.49029 0
M  V30 2595 C 245.829 1.65448 -0.363767 0
M  V30 2596 O 247.035 1.71777 -0.537821 0
M  V30 2597 H 243.41 0.589236 -0.467231 0
M  V30 2598 H 245.381 1.71035 -2.44519 0
M  V30 2599 C 244.13 3.16851 -1.43181 0
M  V30 2600 H 243.453 3.27598 -2.29171 0
M  V30 2601 H 244.893 3.96156 -1.51118 0
M  V30 2602 C 243.352 3.36568 -0.149616 0
M  V30 2603 O 243.882 3.93885 0.788509 0
M  V30 2604 N 242.088 2.90539 -0.0593484 0
M  V30 2605 H 241.635 2.4408 -0.823575 0
M  V30 2606 H 241.593 3.04108 0.797853 0
M  V30 2607 N 245.365 1.30045 0.890287 0
M  V30 2608 C 246.295 1.18541 2.01172 0
M  V30 2609 C 247.276 0.0773356 1.69924 0
M  V30 2610 O 248.461 0.25845 1.92473 0
M  V30 2611 C 245.591 0.870941 3.36202 0
M  V30 2612 C 244.545 1.93637 3.81692 0
M  V30 2613 C 243.871 1.475 5.13953 0
M  V30 2614 C 245.171 3.34666 4.00994 0
M  V30 2615 H 246.865 2.12359 2.11054 0
M  V30 2616 H 244.411 1.02238 1.01407 0
M  V30 2617 H 246.364 0.777141 4.14172 0
M  V30 2618 H 245.088 -0.102926 3.26438 0
M  V30 2619 H 243.747 2.01972 3.05946 0
M  V30 2620 H 243.395 0.489551 5.00612 0
M  V30 2621 H 243.095 2.1876 5.4536 0
M  V30 2622 H 244.619 1.39489 5.94454 0
M  V30 2623 H 246.033 3.2912 4.69417 0
M  V30 2624 H 244.43 4.03966 4.43769 0
M  V30 2625 H 245.5 3.76949 3.05021 0
M  V30 2626 N 246.843 -1.10192 1.12674 0
M  V30 2627 C 247.775 -2.16418 0.754701 0
M  V30 2628 C 248.788 -1.61309 -0.21986 0
M  V30 2629 O 249.977 -1.785 -0.000826841 0
M  V30 2630 C 247.077 -3.38762 0.096698 0
M  V30 2631 C 246.25 -4.23307 1.10136 0
M  V30 2632 C 245.309 -5.24092 0.470513 0
M  V30 2633 O 244.335 -5.57906 1.12824 0
M  V30 2634 N 245.537 -5.75491 -0.760948 0
M  V30 2635 H 248.302 -2.48943 1.66875 0
M  V30 2636 H 245.863 -1.25834 1.01869 0
M  V30 2637 H 247.855 -4.03291 -0.337384 0
M  V30 2638 H 246.425 -3.04192 -0.720153 0
M  V30 2639 H 245.645 -3.55036 1.71299 0
M  V30 2640 H 246.933 -4.76624 1.78064 0
M  V30 2641 H 246.331 -5.50222 -1.31424 0
M  V30 2642 H 244.888 -6.41792 -1.13781 0
M  V30 2643 N 248.321 -0.919034 -1.28029 0
M  V30 2644 C 249.732 -0.600735 -1.76771 0
M  V30 2645 C 250.083 0.884024 -1.75156 0
M  V30 2646 O 249.208 1.69163 -1.34956 0
M  V30 2647 C 249.803 -1.08372 -3.21 0
M  V30 2648 C 248.362 -0.816248 -3.67443 0
M  V30 2649 C 247.509 -1.24742 -2.47658 0
M  V30 2650 H 250.46 -1.09974 -1.14418 0
M  V30 2651 H 250.481 -0.427512 -3.78091 0
M  V30 2652 H 249.993 -2.16437 -3.22144 0
M  V30 2653 H 248.094 0.250968 -3.71754 0
M  V30 2654 H 248.207 -1.4277 -4.57333 0
M  V30 2655 H 246.571 -0.666083 -2.45836 0
M  V30 2656 H 247.354 -2.33653 -2.51518 0
M  V30 2657 N 249.799 1.42003 -0.683588 0
M  V30 2658 C 251.076 1.95112 -0.138075 0
M  V30 2659 C 251.456 1.62359 1.34918 0
M  V30 2660 O 250.804 0.924311 2.08971 0
M  V30 2661 C 251.014 3.46505 -0.416581 0
M  V30 2662 C 252.362 4.23254 -0.337834 0
M  V30 2663 O 253.386 3.54468 -0.35082 0
M  V30 2664 O 252.245 5.45743 -0.287596 0
M  V30 2665 H 249.339 0.826961 -0.00797996 0
M  V30 2666 H 251.885 1.51784 -0.758924 0
M  V30 2667 H 250.657 3.63582 -1.4465 0
M  V30 2668 H 250.28 3.969 0.235839 0
M  V30 2669 N 251.277 0.427512 1.51691 0
M  V30 2670 C 252.209 -0.424521 2.25234 0
M  V30 2671 C 253.222 -0.994671 1.2888 0
M  V30 2672 O 254.411 -0.890483 1.54702 0
M  V30 2673 C 251.511 -1.60479 2.98496 0
M  V30 2674 C 250.684 -1.15527 4.21868 0
M  V30 2675 C 249.743 -2.20454 4.77793 0
M  V30 2676 O 248.769 -1.8029 5.39893 0
M  V30 2677 N 249.971 -3.52831 4.60967 0
M  V30 2678 H 252.736 0.205749 2.98993 0
M  V30 2679 H 250.297 0.255867 1.59865 0
M  V30 2680 H 252.289 -2.30276 3.32799 0
M  V30 2681 H 250.859 -2.14061 2.27809 0
M  V30 2682 H 250.079 -0.284736 3.9317 0
M  V30 2683 H 251.367 -0.832173 5.01949 0
M  V30 2684 H 250.765 -3.88201 4.11481 0
M  V30 2685 H 249.322 -4.18551 4.99658 0
M  V30 2686 N 252.755 -1.56801 0.158532 0
M  V30 2687 C 254.004 -1.95665 -0.489702 0
M  V30 2688 C 254.317 -1.04654 -1.65248 0
M  V30 2689 O 255.523 -1.33146 -2.3661 0
M  V30 2690 C 253.979 -3.47874 -0.922582 0
M  V30 2691 C 253.587 -4.47489 0.213893 0
M  V30 2692 C 255.331 -3.95583 -1.53996 0
M  V30 2693 C 253.238 -5.90921 -0.237903 0
M  V30 2694 H 252.168 -0.730516 -0.186716 0
M  V30 2695 H 254.819 -1.81861 0.244722 0
M  V30 2696 H 253.201 -3.57051 -1.71261 0
M  V30 2697 H 254.375 -4.50017 0.991036 0
M  V30 2698 H 252.69 -4.09764 0.740407 0
M  V30 2699 H 255.287 -5.0019 -1.8898 0
M  V30 2700 H 255.63 -3.37789 -2.43319 0
M  V30 2701 H 256.163 -3.8937 -0.814611 0
M  V30 2702 H 252.902 -6.52559 0.620236 0
M  V30 2703 H 252.422 -5.91729 -0.980676 0
M  V30 2704 H 254.101 -6.43352 -0.686067 0
M  V30 2705 N 254.233 0.115231 -1.57178 0
M  V30 2706 C 255.51 0.852873 -1.76027 0
M  V30 2707 C 255.89 1.97892 -0.73498 0
M  V30 2708 O 255.238 2.27232 0.24036 0
M  V30 2709 C 255.448 1.36608 -3.21153 0
M  V30 2710 C 256.796 1.81692 -3.83762 0
M  V30 2711 O 257.82 1.46278 -3.24779 0
M  V30 2712 O 256.679 2.47104 -4.87444 0
M  V30 2713 H 253.773 0.405296 -0.720877 0
M  V30 2714 H 256.319 0.0986785 -1.69413 0
M  V30 2715 H 255.091 0.558357 -3.87296 0
M  V30 2716 H 254.714 2.18287 -3.3232 0
M  V30 2717 N 255.711 1.52812 0.385517 0
M  V30 2718 C 256.621 1.80766 1.49535 0
M  V30 2719 C 257.637 0.694651 1.59532 0
M  V30 2720 O 258.813 0.982611 1.75803 0
M  V30 2721 C 255.878 1.97381 2.85029 0
M  V30 2722 C 254.939 3.21295 2.84724 0
M  V30 2723 C 254.172 3.37108 4.13756 0
M  V30 2724 O 254.395 2.5765 5.08893 0
M  V30 2725 O 253.329 4.30378 4.20783 0
M  V30 2726 H 257.155 2.75015 1.28842 0
M  V30 2727 H 254.74 1.37946 0.573697 0
M  V30 2728 H 256.622 2.09996 3.65349 0
M  V30 2729 H 255.297 1.06322 3.05741 0
M  V30 2730 H 254.204 3.1412 2.03174 0
M  V30 2731 H 255.537 4.12212 2.68965 0
M  V30 2732 N 257.189 -0.644168 1.43834 0
M  V30 2733 C 258.099 -1.78563 1.52159 0
M  V30 2734 C 259.115 -1.69147 0.408069 0
M  V30 2735 O 260.291 -1.90156 0.663524 0
M  V30 2736 C 257.356 -3.14888 1.45073 0
M  V30 2737 C 256.417 -3.36034 2.6717 0
M  V30 2738 C 255.65 -4.65855 2.60413 0
M  V30 2739 O 255.873 -5.45805 1.65689 0
M  V30 2740 O 254.807 -4.88918 3.5106 0
M  V30 2741 H 258.633 -1.74494 2.48567 0
M  V30 2742 H 256.218 -0.80378 1.25935 0
M  V30 2743 H 258.1 -3.96179 1.43597 0
M  V30 2744 H 256.775 -3.19528 0.518037 0
M  V30 2745 H 255.682 -2.54472 2.74217 0
M  V30 2746 H 257.015 -3.36247 3.59442 0
M  V30 2747 N 258.668 -1.30515 -0.883378 0
M  V30 2748 C 259.601 -1.11359 -1.99184 0
M  V30 2749 C 260.579 -0.0207858 -1.62587 0
M  V30 2750 O 261.763 -0.174646 -1.87689 0
M  V30 2751 C 258.89 -0.69871 -3.31415 0
M  V30 2752 C 257.936 -1.79261 -3.86998 0
M  V30 2753 S 258.769 -3.39536 -4.14096 0
M  V30 2754 C 259.925 -2.99954 -5.49344 0
M  V30 2755 H 260.158 -2.052 -2.15128 0
M  V30 2756 H 257.691 -1.14847 -1.03196 0
M  V30 2757 H 259.649 -0.466075 -4.07846 0
M  V30 2758 H 258.31 0.220368 -3.13326 0
M  V30 2759 H 257.503 -1.45464 -4.82552 0
M  V30 2760 H 257.105 -1.97961 -3.17313 0
M  V30 2761 H 259.397 -2.48013 -6.30473 0
M  V30 2762 H 260.34 -3.9442 -5.8808 0
M  V30 2763 H 260.748 -2.37775 -5.1198 0
M  V30 2764 N 260.146 1.09593 -1.13257 0
M  V30 2765 C 261.076 2.18214 -0.830946 0
M  V30 2766 C 262.057 1.68812 0.208966 0
M  V30 2767 O 263.242 1.9408 0.0682666 0
M  V30 2768 C 260.372 3.46051 -0.294296 0
M  V30 2769 C 259.326 4.08778 -1.26826 0
M  V30 2770 C 258.652 5.31419 -0.591449 0
M  V30 2771 C 259.952 4.51476 -2.62615 0
M  V30 2772 H 261.646 2.43703 -1.73923 0
M  V30 2773 H 259.192 1.17128 -0.837675 0
M  V30 2774 H 261.145 4.2134 -0.0709606 0
M  V30 2775 H 259.869 3.20079 0.649366 0
M  V30 2776 H 258.528 3.35505 -1.47756 0
M  V30 2777 H 258.176 5.01727 0.357633 0
M  V30 2778 H 257.876 5.74341 -1.24123 0
M  V30 2779 H 259.4 6.09433 -0.377355 0
M  V30 2780 H 260.814 5.17999 -2.45663 0
M  V30 2781 H 259.211 5.05277 -3.23752 0
M  V30 2782 H 260.281 3.63962 -3.20406 0
M  V30 2783 N 261.624 0.925811 1.2754 0
M  V30 2784 C 262.572 0.413897 2.28888 0
M  V30 2785 C 263.566 -0.500779 1.61829 0
M  V30 2786 O 264.772 -0.38069 1.75928 0
M  V30 2787 H 261.147 0.115274 0.743112 0
M  V30 2788 H 263.118 1.28151 2.69481 0
M  V30 2789 C 261.867 -0.319792 3.46226 0
M  V30 2790 H 261.19 0.374846 3.98039 0
M  V30 2791 H 262.63 -0.642435 4.19105 0
M  V30 2792 C 261.089 -1.53209 3.00048 0
M  V30 2793 O 261.619 -2.6309 3.03557 0
M  V30 2794 N 259.825 -1.38326 2.55566 0
M  V30 2795 H 259.372 -0.489292 2.5291 0
M  V30 2796 H 259.33 -2.19564 2.25031 0
M  V30 2797 N 263.102 -1.41638 0.69111 0
M  V30 2798 C 264.034 -2.29194 -0.0161523 0
M  V30 2799 C 265.047 -1.44549 -0.748955 0
M  V30 2800 O 266.236 -1.681 -0.6004 0
M  V30 2801 C 263.336 -3.22325 -1.0469 0
M  V30 2802 C 262.509 -4.35706 -0.384621 0
M  V30 2803 C 261.568 -5.09443 -1.31737 0
M  V30 2804 O 260.594 -5.63386 -0.811451 0
M  V30 2805 N 261.796 -5.16487 -2.64993 0
M  V30 2806 H 264.561 -2.90534 0.735523 0
M  V30 2807 H 262.122 -1.52742 0.53679 0
M  V30 2808 H 264.114 -3.68522 -1.67252 0
M  V30 2809 H 262.684 -2.62323 -1.70015 0
M  V30 2810 H 261.904 -3.91948 0.420804 0
M  V30 2811 H 263.192 -5.08743 0.0760765 0
M  V30 2812 H 262.59 -4.741 -3.08619 0
M  V30 2813 H 261.147 -5.66276 -3.22761 0
M  V30 2814 N 264.58 -0.43555 -1.51462 0
M  V30 2815 C 265.53 0.394701 -2.24558 0
M  V30 2816 C 266.514 0.99157 -1.26715 0
M  V30 2817 O 267.706 0.910007 -1.51815 0
M  V30 2818 C 264.835 1.4963 -3.08975 0
M  V30 2819 C 263.921 0.908912 -4.14246 0
M  V30 2820 N 264.312 0.0505335 -5.05775 0
M  V30 2821 C 262.61 1.17668 -4.30198 0
M  V30 2822 C 263.311 -0.279161 -5.8103 0
M  V30 2823 N 262.287 0.336767 -5.42556 0
M  V30 2824 H 266.089 -0.267106 -2.92684 0
M  V30 2825 H 263.603 -0.247518 -1.60503 0
M  V30 2826 H 265.6 2.10394 -3.59917 0
M  V30 2827 H 264.26 2.16046 -2.42393 0
M  V30 2828 H 265.271 -0.31577 -5.16936 0
M  V30 2829 H 261.948 1.83847 -3.74842 0
M  V30 2830 H 263.338 -0.977553 -6.64751 0
M  V30 2831 N 266.058 1.56714 -0.166846 0
M  V30 2832 C 267.304 1.97039 0.479962 0
M  V30 2833 C 267.637 1.05264 1.63197 0
M  V30 2834 O 266.912 0.0988833 1.94248 0
M  V30 2835 C 267.195 3.46867 0.967212 0
M  V30 2836 C 267.048 4.49421 -0.18466 0
M  V30 2837 C 268.367 3.9968 1.84238 0
M  V30 2838 H 265.486 0.71641 0.172992 0
M  V30 2839 H 268.128 1.8832 -0.252079 0
M  V30 2840 H 266.278 3.54428 1.59101 0
M  V30 2841 H 267.95 4.53924 -0.821621 0
M  V30 2842 H 266.193 4.25573 -0.840837 0
M  V30 2843 H 266.864 5.51644 0.198317 0
M  V30 2844 H 269.34 3.94723 1.31655 0
M  V30 2845 H 268.216 5.04941 2.15234 0
M  V30 2846 H 268.477 3.43226 2.78654 0
M  V30 2847 N 267.536 -0.106894 1.57237 0
M  V30 2848 C 268.776 -0.818277 1.87306 0
M  V30 2849 C 269.14 -1.76474 0.756371 0
M  V30 2850 O 270.341 -2.5186 0.939155 0
M  V30 2851 C 268.612 -1.53806 3.22612 0
M  V30 2852 S 270.171 -2.28935 3.74345 0
M  V30 2853 H 266.989 -0.272862 0.656557 0
M  V30 2854 H 269.591 -0.075988 1.95352 0
M  V30 2855 H 268.295 -0.834951 4.01817 0
M  V30 2856 H 267.826 -2.32049 3.17674 0
M  V30 2857 H 269.841 -3.54871 3.46815 0
M  V30 2858 N 269.014 -1.53014 -0.377408 0
M  V30 2859 C 269.947 -1.73382 -1.48371 0
M  V30 2860 C 270.925 -0.581879 -1.51832 0
M  V30 2861 O 272.109 -0.81307 -1.70063 0
M  V30 2862 C 269.236 -1.80192 -2.8679 0
M  V30 2863 C 268.282 -3.02056 -3.01105 0
M  V30 2864 S 269.115 -4.61811 -2.71093 0
M  V30 2865 C 270.271 -4.71453 -4.11683 0
M  V30 2866 H 270.504 -2.66946 -1.30872 0
M  V30 2867 H 268.037 -1.43453 -0.571012 0
M  V30 2868 H 269.995 -1.84802 -3.6655 0
M  V30 2869 H 268.656 -0.877008 -3.01608 0
M  V30 2870 H 267.849 -3.03396 -4.02451 0
M  V30 2871 H 267.451 -2.95498 -2.29253 0
M  V30 2872 H 269.743 -4.50781 -5.0577 0
M  V30 2873 H 270.686 -5.73487 -4.15353 0
M  V30 2874 H 271.094 -4.00189 -3.98132 0
M  V30 2875 N 270.492 0.636531 -1.44174 0
M  V30 2876 C 271.442 1.74233 -1.47061 0
M  V30 2877 C 272.426 1.57331 -0.337034 0
M  V30 2878 O 273.618 1.67159 -0.581973 0
M  V30 2879 C 270.747 3.12897 -1.41246 0
M  V30 2880 C 269.833 3.35288 -2.59698 0
M  V30 2881 N 270.224 3.2807 -3.84972 0
M  V30 2882 C 268.522 3.66065 -2.54778 0
M  V30 2883 C 269.223 3.51001 -4.63867 0
M  V30 2884 N 268.199 3.73616 -3.94857 0
M  V30 2885 H 272.001 1.67103 -2.41773 0
M  V30 2886 H 269.515 0.838806 -1.3906 0
M  V30 2887 H 271.512 3.92189 -1.41398 0
M  V30 2888 H 270.172 3.21197 -0.47569 0
M  V30 2889 H 271.183 3.07109 -4.17019 0
M  V30 2890 H 267.86 3.81379 -1.6987 0
M  V30 2891 H 269.25 3.51059 -5.72894 0
M  V30 2892 N 271.97 1.30982 0.876444 0
M  V30 2893 C 272.88 1.2003 2.01569 0
M  V30 2894 C 273.896 0.11838 1.73597 0
M  V30 2895 O 275.072 0.33495 1.98595 0
M  V30 2896 C 272.137 0.901637 3.34771 0
M  V30 2897 C 271.198 2.06979 3.76109 0
M  V30 2898 C 270.431 1.78529 5.02954 0
M  V30 2899 O 270.654 0.717296 5.65872 0
M  V30 2900 O 269.588 2.64019 5.40905 0
M  V30 2901 H 273.414 2.15753 2.13739 0
M  V30 2902 H 270.999 1.10658 1.00375 0
M  V30 2903 H 272.881 0.750645 4.1466 0
M  V30 2904 H 271.556 -0.0256141 3.2369 0
M  V30 2905 H 270.463 2.27616 2.96887 0
M  V30 2906 H 271.796 2.97907 3.91807 0
M  V30 2907 N 273.449 -1.08991 1.13837 0
M  V30 2908 C 274.379 -2.17771 0.842507 0
M  V30 2909 C 275.36 -1.6892 -0.20001 0
M  V30 2910 O 276.545 -1.94113 -0.0579731 0
M  V30 2911 C 273.675 -3.4589 0.312644 0
M  V30 2912 C 272.629 -4.08099 1.28992 0
M  V30 2913 C 271.955 -5.31098 0.619623 0
M  V30 2914 C 273.255 -4.50077 2.65005 0
M  V30 2915 H 274.949 -2.42777 1.75213 0
M  V30 2916 H 272.495 -1.16682 0.843875 0
M  V30 2917 H 274.448 -4.21297 0.0933043 0
M  V30 2918 H 273.172 -3.20419 -0.632382 0
M  V30 2919 H 271.831 -3.34717 1.49533 0
M  V30 2920 H 271.479 -5.0191 -0.33102 0
M  V30 2921 H 271.179 -5.73674 1.27167 0
M  V30 2922 H 272.703 -6.09224 0.409669 0
M  V30 2923 H 274.117 -5.16688 2.48407 0
M  V30 2924 H 272.514 -5.03553 3.26427 0
M  V30 2925 H 273.584 -3.62257 3.22332 0
M  V30 2926 N 274.927 -0.932562 -1.27047 0
M  V30 2927 C 275.89 -0.440064 -2.24936 0
M  V30 2928 C 276.89 0.444071 -1.54547 0
M  V30 2929 O 278.08 0.244465 -1.72476 0
M  V30 2930 C 275.212 0.36678 -3.38921 0
M  V30 2931 H 276.405 -1.305 -2.70018 0
M  V30 2932 H 273.958 -0.713707 -1.39054 0
M  V30 2933 H 274.693 1.25033 -2.99228 0
M  V30 2934 H 274.478 -0.267204 -3.91188 0
M  V30 2935 H 275.968 0.701567 -4.11665 0
M  V30 2936 N 276.405 1.4127 -0.698611 0
M  V30 2937 C 277.816 1.84187 -0.305289 0
M  V30 2938 C 278.167 1.58449 1.15708 0
M  V30 2939 O 277.292 1.05651 1.88856 0
M  V30 2940 C 277.887 3.3435 -0.547314 0
M  V30 2941 C 276.446 3.75826 -0.207878 0
M  V30 2942 C 275.593 2.64647 -0.828099 0
M  V30 2943 H 278.544 1.30778 -0.89904 0
M  V30 2944 H 278.565 3.8001 0.192998 0
M  V30 2945 H 278.077 3.53051 -1.61172 0
M  V30 2946 H 276.178 3.62725 0.852143 0
M  V30 2947 H 276.291 4.74462 -0.665021 0
M  V30 2948 H 274.655 2.53395 -0.257458 0
M  V30 2949 H 275.438 2.86165 -1.89643 0
M  V30 2950 N 277.883 0.443576 1.51229 0
M  V30 2951 C 279.129 -0.120975 2.02439 0
M  V30 2952 C 279.462 -1.41815 1.32674 0
M  V30 2953 O 278.737 -1.89373 0.443622 0
M  V30 2954 C 279.02 -0.333291 3.58554 0
M  V30 2955 C 278.873 0.982968 4.38928 0
M  V30 2956 C 280.192 -1.10028 4.26124 0
M  V30 2957 H 277.311 -0.0424923 0.735774 0
M  V30 2958 H 279.953 0.583794 1.80809 0
M  V30 2959 H 278.103 -0.933614 3.77115 0
M  V30 2960 H 279.775 1.61775 4.32003 0
M  V30 2961 H 278.018 1.58611 4.03763 0
M  V30 2962 H 278.689 0.788379 5.46341 0
M  V30 2963 H 281.165 -0.591711 4.11871 0
M  V30 2964 H 280.041 -1.21761 5.35225 0
M  V30 2965 H 280.302 -2.12996 3.87408 0
M  V30 2966 N 279.361 -1.56624 0.175154 0
M  V30 2967 C 280.638 -1.88688 -0.515373 0
M  V30 2968 C 281.018 -1.08564 -1.81044 0
M  V30 2969 O 280.366 -0.180703 -2.27784 0
M  V30 2970 C 280.576 -3.40768 -0.753552 0
M  V30 2971 C 281.924 -4.10587 -1.08184 0
M  V30 2972 O 282.948 -3.46106 -0.841961 0
M  V30 2973 O 281.807 -5.24512 -1.53459 0
M  V30 2974 H 278.901 -0.78301 -0.26613 0
M  V30 2975 H 281.447 -1.68347 0.213877 0
M  V30 2976 H 280.219 -3.90965 0.161829 0
M  V30 2977 H 279.842 -3.66733 -1.53598 0
M  V30 2978 N 280.839 0.0985539 -1.57292 0
M  V30 2979 C 281.769 1.12064 -2.04851 0
M  V30 2980 C 282.75 1.41981 -0.936767 0
M  V30 2981 O 283.935 1.52071 -1.20781 0
M  V30 2982 C 281.065 2.44144 -2.47004 0
M  V30 2983 C 280.019 2.28643 -3.6181 0
M  V30 2984 C 279.345 3.65869 -3.89929 0
M  V30 2985 C 280.645 1.72986 -4.92822 0
M  V30 2986 H 282.339 0.724979 -2.9049 0
M  V30 2987 H 279.885 0.34729 -1.39749 0
M  V30 2988 H 281.838 3.15914 -2.78884 0
M  V30 2989 H 280.562 2.85639 -1.5836 0
M  V30 2990 H 279.221 1.59318 -3.30172 0
M  V30 2991 H 278.869 4.04885 -2.98458 0
M  V30 2992 H 278.569 3.56344 -4.67218 0
M  V30 2993 H 280.093 4.39112 -4.2428 0
M  V30 2994 H 281.507 2.34593 -5.23105 0
M  V30 2995 H 279.904 1.74229 -5.74251 0
M  V30 2996 H 280.974 0.689007 -4.7998 0
M  V30 2997 N 282.317 1.53212 0.369288 0
M  V30 2998 C 283.563 1.69466 1.11397 0
M  V30 2999 C 283.896 0.443257 1.89074 0
M  V30 3000 O 283.171 -0.559386 1.86282 0
M  V30 3001 C 283.454 2.9422 2.07621 0
M  V30 3002 C 283.307 4.29508 1.33577 0
M  V30 3003 C 284.626 3.14565 3.07794 0
M  V30 3004 H 281.745 0.616667 0.403597 0
M  V30 3005 H 284.387 1.85845 0.395179 0
M  V30 3006 H 282.537 2.80387 2.68916 0
M  V30 3007 H 284.209 4.55147 0.750955 0
M  V30 3008 H 282.452 4.29088 0.637618 0
M  V30 3009 H 283.123 5.12926 2.03989 0
M  V30 3010 H 285.599 3.2756 2.56601 0
M  V30 3011 H 284.475 4.03297 3.72348 0
M  V30 3012 H 284.736 2.29675 3.77759 0
M  V30 3013 N 283.795 -0.628877 1.44509 0
M  V30 3014 C 285.044 -1.38437 1.4669 0
M  V30 3015 C 285.357 -1.95322 0.104272 0
M  V30 3016 O 286.563 -2.715 0.00362163 0
M  V30 3017 C 285.019 -2.50659 2.5826 0
M  V30 3018 C 284.627 -2.00277 4.0074 0
M  V30 3019 C 286.371 -3.27844 2.69664 0
M  V30 3020 C 284.278 -3.09854 5.0373 0
M  V30 3021 H 283.208 -0.520245 0.545766 0
M  V30 3022 H 285.859 -0.676313 1.70582 0
M  V30 3023 H 284.241 -3.2405 2.27612 0
M  V30 3024 H 285.415 -1.33736 4.40966 0
M  V30 3025 H 283.73 -1.35901 3.93599 0
M  V30 3026 H 286.327 -4.09534 3.43781 0
M  V30 3027 H 286.67 -3.77471 1.75559 0
M  V30 3028 H 287.203 -2.61543 2.99733 0
M  V30 3029 H 283.942 -2.65168 5.99472 0
M  V30 3030 H 283.462 -3.7503 4.68095 0
M  V30 3031 H 285.141 -3.74592 5.27532 0
M  V30 3032 N 285.273 -1.31445 -0.869486 0
M  V30 3033 C 286.689 -1.10113 -1.15531 0
M  V30 3034 C 286.889 0.128087 -2.01092 0
M  V30 3035 O 285.945 0.817276 -2.38908 0
M  V30 3036 C 287.258 -2.37291 -1.84698 0
M  V30 3037 C 288.806 -2.42906 -1.97397 0
M  V30 3038 C 289.281 -3.69967 -2.69979 0
M  V30 3039 N 290.772 -3.70864 -2.77514 0
M  V30 3040 C 291.507 -4.65875 -3.34287 0
M  V30 3041 N 291.003 -5.71242 -3.91988 0
M  V30 3042 N 292.796 -4.53394 -3.3225 0
M  V30 3043 H 284.947 -2.1028 -0.299347 0
M  V30 3044 H 287.21 -0.927683 -0.195214 0
M  V30 3045 H 286.916 -3.27078 -1.29278 0
M  V30 3046 H 286.79 -2.47125 -2.84972 0
M  V30 3047 H 289.177 -1.53588 -2.51982 0
M  V30 3048 H 289.258 -2.37036 -0.961643 0
M  V30 3049 H 288.902 -4.59652 -2.16062 0
M  V30 3050 H 288.832 -3.73103 -3.7162 0
M  V30 3051 H 291.323 -2.94697 -2.36563 0
M  V30 3052 H 291.636 -6.39817 -4.33421 0
M  V30 3053 H 289.981 -5.75015 -3.90362 0
M  V30 3054 H 293.172 -3.70252 -2.8641 0
M  V30 3055 H 293.345 -5.27617 -3.76197 0
M  V30 3056 N 286.751 1.08385 -1.14413 0
M  V30 3057 C 287.979 1.84517 -0.936001 0
M  V30 3058 C 288.394 1.81626 0.515503 0
M  V30 3059 O 287.751 1.22008 1.35721 0
M  V30 3060 C 287.802 3.32049 -1.42918 0
M  V30 3061 O 287.523 3.34951 -2.82381 0
M  V30 3062 C 289.024 4.24986 -1.26103 0
M  V30 3063 H 286.244 0.582491 -0.333084 0
M  V30 3064 H 288.788 1.36885 -1.5193 0
M  V30 3065 H 286.943 3.7707 -0.888641 0
M  V30 3066 H 287.357 4.27048 -3.04517 0
M  V30 3067 H 288.831 5.26615 -1.6547 0
M  V30 3068 H 289.308 4.38726 -0.20392 0
M  V30 3069 H 289.914 3.85791 -1.79012 0
M  V30 3070 N 288.23 0.939286 1.26551 0
M  V30 3071 C 289.478 0.58469 1.93457 0
M  V30 3072 C 289.799 -0.878774 1.74076 0
M  V30 3073 O 289.069 -1.62421 1.09528 0
M  V30 3074 H 287.649 0.21325 0.715914 0
M  V30 3075 H 290.311 1.1942 1.54029 0
M  V30 3076 H 289.407 0.800849 3.0165 0
M  V30 3077 N 289.708 -1.40897 0.706093 0
M  V30 3078 C 290.956 -2.00657 0.241054 0
M  V30 3079 C 291.277 -1.56241 -1.16678 0
M  V30 3080 O 290.547 -0.79765 -1.78926 0
M  V30 3081 H 289.127 -0.742018 0.0861308 0
M  V30 3082 H 291.789 -1.72372 0.909604 0
M  V30 3083 H 290.885 -3.10958 0.266705 0
M  V30 3084 N 291.186 -0.45159 -1.50991 0
M  V30 3085 C 292.096 0.358431 -2.31846 0
M  V30 3086 C 293.112 1.01438 -1.41373 0
M  V30 3087 O 294.288 1.00663 -1.74439 0
M  V30 3088 C 291.353 1.43704 -3.15515 0
M  V30 3089 C 290.414 0.799742 -4.21785 0
M  V30 3090 C 289.647 1.82696 -5.01456 0
M  V30 3091 O 289.87 3.05105 -4.81941 0
M  V30 3092 O 288.804 1.40958 -5.85162 0
M  V30 3093 H 292.63 -0.302032 -3.02194 0
M  V30 3094 H 290.215 -0.213825 -1.47862 0
M  V30 3095 H 292.097 2.06227 -3.67489 0
M  V30 3096 H 290.772 2.08133 -2.47916 0
M  V30 3097 H 289.679 0.136084 -3.73852 0
M  V30 3098 H 291.012 0.198718 -4.91799 0
M  V30 3099 N 292.664 1.56529 -0.183458 0
M  V30 3100 C 293.614 2.1515 0.754605 0
M  V30 3101 C 294.598 1.08904 1.18443 0
M  V30 3102 O 295.79 1.34997 1.14476 0
M  V30 3103 C 292.919 2.80531 1.97881 0
M  V30 3104 C 292.005 3.93952 1.57043 0
M  V30 3105 N 292.396 4.98221 0.87231 0
M  V30 3106 C 290.694 4.05338 1.86057 0
M  V30 3107 C 291.395 5.77836 0.669377 0
M  V30 3108 N 290.371 5.29858 1.21454 0
M  V30 3109 H 294.173 2.93132 0.212387 0
M  V30 3110 H 291.687 1.62391 0.0167725 0
M  V30 3111 H 293.684 3.20914 2.6612 0
M  V30 3112 H 292.344 2.04035 2.52586 0
M  V30 3113 H 293.355 5.15191 0.529033 0
M  V30 3114 H 290.032 3.39957 2.42354 0
M  V30 3115 H 291.422 6.71799 0.116422 0
M  V30 3116 N 294.142 -0.090211 1.57342 0
M  V30 3117 C 295.558 -0.444547 1.53284 0
M  V30 3118 C 295.758 -1.80238 0.900914 0
M  V30 3119 O 294.814 -2.4759 0.495513 0
M  V30 3120 C 296.127 -0.402543 2.97993 0
M  V30 3121 C 297.675 -0.48405 3.09234 0
M  V30 3122 C 298.15 -0.472144 4.5556 0
M  V30 3123 N 299.641 -0.532757 4.60126 0
M  V30 3124 C 300.376 -0.545462 5.708 0
M  V30 3125 N 299.872 -0.514082 6.9089 0
M  V30 3126 N 301.665 -0.59064 5.58988 0
M  V30 3127 H 293.816 0.799121 1.96794 0
M  V30 3128 H 296.079 0.297965 0.899956 0
M  V30 3129 H 295.785 0.528106 3.47712 0
M  V30 3130 H 295.659 -1.21969 3.56936 0
M  V30 3131 H 298.046 -1.40512 2.595 0
M  V30 3132 H 298.127 0.361328 2.53235 0
M  V30 3133 H 297.771 0.445 5.05947 0
M  V30 3134 H 297.701 -1.3348 5.09402 0
M  V30 3135 H 300.192 -0.562006 3.73698 0
M  V30 3136 H 300.505 -0.527195 7.71 0
M  V30 3137 H 298.85 -0.481054 6.93333 0
M  V30 3138 H 302.041 -0.61272 4.64073 0
M  V30 3139 H 302.214 -0.597073 6.45243 0
M  V30 3140 N 295.62 -1.53406 -0.361157 0
M  V30 3141 C 296.869 -1.69022 -1.10066 0
M  V30 3142 C 297.182 -0.450838 -1.90333 0
M  V30 3143 O 298.388 -0.487617 -2.67085 0
M  V30 3144 C 296.844 -2.98812 -2.00598 0
M  V30 3145 C 296.452 -4.30027 -1.25621 0
M  V30 3146 C 298.196 -3.23795 -2.74513 0
M  V30 3147 C 296.103 -5.50903 -2.1508 0
M  V30 3148 H 295.033 -0.629776 -0.414606 0
M  V30 3149 H 297.684 -1.79907 -0.361348 0
M  V30 3150 H 296.066 -2.8174 -2.78278 0
M  V30 3151 H 297.24 -4.57745 -0.529739 0
M  V30 3152 H 295.555 -4.11522 -0.635496 0
M  V30 3153 H 298.152 -4.11289 -3.41681 0
M  V30 3154 H 298.495 -2.40045 -3.40123 0
M  V30 3155 H 299.028 -3.41561 -2.03914 0
M  V30 3156 H 295.767 -6.37143 -1.54041 0
M  V30 3157 H 295.287 -5.27459 -2.85565 0
M  V30 3158 H 296.966 -5.85865 -2.74538 0
M  V30 3159 N 297.098 0.621204 -1.44841 0
M  V30 3160 C 298.323 1.41244 -1.51871 0
M  V30 3161 C 298.748 1.87519 -0.147764 0
M  V30 3162 O 298.106 1.59334 0.865 0
M  V30 3163 C 298.154 2.60221 -2.49634 0
M  V30 3164 O 297.258 3.60395 -2.00473 0
M  V30 3165 H 296.599 0.42223 -0.512463 0
M  V30 3166 H 299.129 0.757305 -1.90069 0
M  V30 3167 H 299.139 3.0764 -2.67996 0
M  V30 3168 H 297.814 2.25887 -3.4921 0
M  V30 3169 H 296.391 3.19717 -1.91925 0
M  V30 3170 N 298.576 1.31904 0.862503 0
M  V30 3171 C 299.524 1.20125 1.9918 0
M  V30 3172 C 300.518 0.107824 1.69056 0
M  V30 3173 O 301.724 0.270223 1.7796 0
M  V30 3174 H 298.099 0.372148 0.65346 0
M  V30 3175 H 300.07 2.15652 2.06244 0
M  V30 3176 C 298.819 0.933099 3.34946 0
M  V30 3177 H 298.142 1.76664 3.5865 0
M  V30 3178 H 299.582 0.890892 4.14535 0
M  V30 3179 C 298.041 -0.364172 3.34926 0
M  V30 3180 O 298.571 -1.37858 3.77304 0
M  V30 3181 N 296.777 -0.383362 2.8806 0
M  V30 3182 H 296.324 0.442651 2.53768 0
M  V30 3183 H 296.282 -1.25123 2.8843 0
M  V30 3184 N 300.054 -1.07777 1.14986 0
M  V30 3185 C 301.301 -1.8029 0.922056 0
M  V30 3186 C 301.629 -1.86531 -0.55105 0
M  V30 3187 O 300.884 -1.34189 -1.42449 0
M  V30 3188 C 301.183 -3.25495 1.47608 0
M  V30 3189 C 300.849 -3.39361 2.96893 0
M  V30 3190 C 299.511 -3.42852 3.37647 0
M  V30 3191 C 301.863 -3.42512 3.92854 0
M  V30 3192 C 299.191 -3.47094 4.73015 0
M  V30 3193 C 301.543 -3.4829 5.28088 0
M  V30 3194 C 300.207 -3.50058 5.68345 0
M  V30 3195 H 299.477 -0.659727 0.337404 0
M  V30 3196 H 302.124 -1.26854 1.43459 0
M  V30 3197 H 300.429 -3.81683 0.88463 0
M  V30 3198 H 302.126 -3.80168 1.27568 0
M  V30 3199 H 298.716 -3.37339 2.64387 0
M  V30 3200 H 302.9 -3.3904 3.62444 0
M  V30 3201 H 298.156 -3.46758 5.03556 0
M  V30 3202 H 302.33 -3.49675 6.02246 0
M  V30 3203 H 299.957 -3.53097 6.73221 0
M  V30 3204 N 301.532 -0.945985 -1.26051 0
M  V30 3205 C 302.462 -0.477172 -2.28572 0
M  V30 3206 C 303.443 0.472032 -1.63419 0
M  V30 3207 O 304.628 0.372853 -1.90587 0
M  V30 3208 C 301.758 0.253975 -3.4637 0
M  V30 3209 C 300.712 -0.609135 -4.23643 0
M  V30 3210 C 300.038 0.252252 -5.34105 0
M  V30 3211 C 301.338 -1.8829 -4.8718 0
M  V30 3212 H 303.032 -1.33402 -2.68038 0
M  V30 3213 H 300.578 -0.642904 -1.28852 0
M  V30 3214 H 302.531 0.593016 -4.17207 0
M  V30 3215 H 301.255 1.145 -3.05871 0
M  V30 3216 H 299.914 -0.931138 -3.54578 0
M  V30 3217 H 299.562 1.14278 -4.89846 0
M  V30 3218 H 299.262 -0.32188 -5.86718 0
M  V30 3219 H 300.786 0.586454 -6.07777 0
M  V30 3220 H 302.2 -1.61081 -5.50205 0
M  V30 3221 H 300.597 -2.40199 -5.49931 0
M  V30 3222 H 301.667 -2.59134 -4.09851 0
M  V30 3223 N 303.011 1.40521 -0.713556 0
M  V30 3224 C 303.941 2.33381 -0.0743864 0
M  V30 3225 C 304.922 1.52784 0.747735 0
M  V30 3226 O 306.107 1.81258 0.697071 0
M  V30 3227 C 303.237 3.36748 0.849598 0
M  V30 3228 C 302.191 4.27793 0.133247 0
M  V30 3229 C 301.517 5.21679 1.17281 0
M  V30 3230 C 302.817 5.12415 -1.01134 0
M  V30 3231 H 304.511 2.87081 -0.850007 0
M  V30 3232 H 302.057 1.38034 -0.410201 0
M  V30 3233 H 304.01 4.00648 1.30612 0
M  V30 3234 H 302.734 2.81439 1.65709 0
M  V30 3235 H 301.393 3.65342 -0.303426 0
M  V30 3236 H 301.041 4.62677 1.9733 0
M  V30 3237 H 300.741 5.83435 0.698397 0
M  V30 3238 H 302.265 5.88456 1.62947 0
M  V30 3239 H 303.679 5.69781 -0.634274 0
M  V30 3240 H 302.076 5.83203 -1.41399 0
M  V30 3241 H 303.146 4.48514 -1.84292 0
M  V30 3242 N 304.489 0.459591 1.5075 0
M  V30 3243 C 305.735 -0.091664 2.03193 0
M  V30 3244 C 306.09 -1.38432 1.3362 0
M  V30 3245 O 305.383 -1.86257 0.449322 0
M  V30 3246 C 305.577 -0.342866 3.55752 0
M  V30 3247 C 305.406 0.923888 4.40107 0
M  V30 3248 C 304.176 1.46388 4.83631 0
M  V30 3249 C 306.374 1.81617 4.81165 0
M  V30 3250 N 304.356 2.68086 5.52271 0
M  V30 3251 C 305.727 2.87907 5.49099 0
M  V30 3252 C 307.782 1.82793 4.63132 0
M  V30 3253 C 306.485 3.95347 6.0091 0
M  V30 3254 C 308.511 2.89182 5.15876 0
M  V30 3255 C 307.873 3.94191 5.83774 0
M  V30 3256 H 303.972 0.00619247 0.781975 0
M  V30 3257 H 306.556 0.625233 1.84388 0
M  V30 3258 H 304.727 -1.0288 3.74527 0
M  V30 3259 H 306.459 -0.887445 3.9485 0
M  V30 3260 H 303.214 1.01466 4.62603 0
M  V30 3261 H 303.638 3.29857 5.91205 0
M  V30 3262 H 308.28 1.0293 4.1008 0
M  V30 3263 H 305.998 4.76035 6.53006 0
M  V30 3264 H 309.584 2.91061 5.0376 0
M  V30 3265 H 308.464 4.75161 6.23853 0
M  V30 3266 N 305.967 -1.56429 0.191757 0
M  V30 3267 C 306.899 -2.16154 -0.762245 0
M  V30 3268 C 307.912 -1.12247 -1.17917 0
M  V30 3269 O 309.101 -1.39353 -1.11548 0
M  V30 3270 C 306.201 -2.70606 -2.04024 0
M  V30 3271 C 305.374 -3.99381 -1.78364 0
M  V30 3272 C 304.433 -4.38692 -2.90578 0
M  V30 3273 O 303.459 -5.06179 -2.6033 0
M  V30 3274 N 304.661 -4.01922 -4.18854 0
M  V30 3275 H 307.426 -2.98643 -0.251526 0
M  V30 3276 H 304.987 -1.61897 0.00967373 0
M  V30 3277 H 306.979 -2.93891 -2.78227 0
M  V30 3278 H 305.549 -1.9259 -2.46227 0
M  V30 3279 H 304.769 -3.84262 -0.879581 0
M  V30 3280 H 306.057 -4.83445 -1.58614 0
M  V30 3281 H 305.455 -3.47631 -4.46283 0
M  V30 3282 H 304.012 -4.30165 -4.89695 0
M  V30 3283 N 307.445 0.0818655 -1.57387 0
M  V30 3284 C 308.694 0.781681 -1.85937 0
M  V30 3285 C 309.007 1.79246 -0.782957 0
M  V30 3286 O 310.213 2.54112 -0.955987 0
M  V30 3287 C 308.669 1.44109 -3.29789 0
M  V30 3288 C 308.277 0.469396 -4.45534 0
M  V30 3289 C 310.021 2.12386 -3.67549 0
M  V30 3290 C 307.928 1.13415 -5.80423 0
M  V30 3291 H 306.858 0.295682 -0.693605 0
M  V30 3292 H 309.509 0.0348051 -1.83467 0
M  V30 3293 H 307.891 2.23588 -3.2684 0
M  V30 3294 H 309.065 -0.294856 -4.59856 0
M  V30 3295 H 307.38 -0.108383 -4.16259 0
M  V30 3296 H 309.977 2.62878 -4.65617 0
M  V30 3297 H 310.32 2.91877 -2.96839 0
M  V30 3298 H 310.853 1.39751 -3.72444 0
M  V30 3299 H 307.592 0.379771 -6.54399 0
M  V30 3300 H 307.112 1.8695 -5.69921 0
M  V30 3301 H 308.791 1.65686 -6.25426 0
M  V30 3302 N 308.923 1.53595 0.353017 0
M  V30 3303 C 309.886 1.80232 1.41594 0
M  V30 3304 C 310.886 0.673081 1.46035 0
M  V30 3305 O 312.076 0.941335 1.46576 0
M  V30 3306 C 309.208 1.93578 2.80607 0
M  V30 3307 H 310.401 2.75174 1.19244 0
M  V30 3308 H 307.954 1.44864 0.586872 0
M  V30 3309 H 308.689 1.00746 3.08254 0
M  V30 3310 H 308.474 2.75724 2.78781 0
M  V30 3311 H 309.964 2.15735 3.57558 0
M  V30 3312 N 310.401 -0.613514 1.45168 0
M  V30 3313 C 311.631 -1.39743 1.52169 0
M  V30 3314 C 312.039 -1.88596 0.151086 0
M  V30 3315 O 311.382 -1.6251 -0.856521 0
M  V30 3316 C 311.444 -2.64035 2.43979 0
M  V30 3317 C 311.108 -2.36861 3.90827 0
M  V30 3318 C 312.105 -1.97591 4.80889 0
M  V30 3319 C 309.79 -2.49956 4.35692 0
M  V30 3320 C 311.784 -1.71768 6.1382 0
M  V30 3321 C 309.471 -2.23747 5.68665 0
M  V30 3322 C 310.469 -1.84714 6.57548 0
M  V30 3323 O 310.157 -1.58809 7.88058 0
M  V30 3324 H 309.889 -0.434382 0.517966 0
M  V30 3325 H 312.443 -0.75587 1.90986 0
M  V30 3326 H 310.673 -3.3089 2.00122 0
M  V30 3327 H 312.362 -3.26069 2.41731 0
M  V30 3328 H 313.128 -1.87015 4.47493 0
M  V30 3329 H 309.007 -2.79305 3.66756 0
M  V30 3330 H 312.551 -1.41227 6.83155 0
M  V30 3331 H 308.448 -2.33938 6.01617 0
M  V30 3332 H 309.216 -1.7291 8.00028 0
M  V30 3333 N 311.879 -1.3236 -0.855495 0
M  V30 3334 C 312.842 -1.21164 -1.94556 0
M  V30 3335 C 313.842 -0.134908 -1.60233 0
M  V30 3336 O 315.032 -0.385249 -1.69887 0
M  V30 3337 C 312.164 -0.863192 -3.29791 0
M  V30 3338 H 313.357 -2.18038 -2.05911 0
M  V30 3339 H 310.91 -1.16179 -1.04557 0
M  V30 3340 H 311.645 0.103769 -3.24134 0
M  V30 3341 H 311.43 -1.64166 -3.56078 0
M  V30 3342 H 312.92 -0.809156 -4.09686 0
M  V30 3343 N 313.357 1.07166 -1.15556 0
M  V30 3344 C 314.267 2.17947 -0.868116 0
M  V30 3345 C 315.283 1.73297 0.156297 0
M  V30 3346 O 316.459 2.01392 -0.0182327 0
M  V30 3347 C 313.524 3.44789 -0.36355 0
M  V30 3348 C 312.585 4.03996 -1.45209 0
M  V30 3349 C 311.818 5.24783 -0.971508 0
M  V30 3350 O 312.041 5.70109 0.182194 0
M  V30 3351 O 310.975 5.75715 -1.75603 0
M  V30 3352 H 314.801 2.4503 -1.79427 0
M  V30 3353 H 312.386 1.16539 -0.934824 0
M  V30 3354 H 314.268 4.21307 -0.0887113 0
M  V30 3355 H 312.943 3.19253 0.534708 0
M  V30 3356 H 311.85 3.29009 -1.78056 0
M  V30 3357 H 313.183 4.33808 -2.32533 0
M  V30 3358 N 314.835 0.952656 1.25548 0
M  V30 3359 C 315.765 0.489287 2.28316 0
M  V30 3360 C 316.746 -0.463359 1.63667 0
M  V30 3361 O 317.931 -0.36274 1.90782 0
M  V30 3362 C 315.061 -0.235603 3.465 0
M  V30 3363 C 314.015 0.631593 4.23314 0
M  V30 3364 C 313.341 -0.223923 5.34231 0
M  V30 3365 C 314.641 1.90871 4.86174 0
M  V30 3366 H 316.335 1.34822 2.67326 0
M  V30 3367 H 313.881 0.649728 1.28509 0
M  V30 3368 H 315.834 -0.570882 4.17515 0
M  V30 3369 H 314.558 -1.12877 3.06474 0
M  V30 3370 H 313.217 0.949929 3.54079 0
M  V30 3371 H 312.865 -1.11678 4.90446 0
M  V30 3372 H 312.565 0.35299 5.86539 0
M  V30 3373 H 314.089 -0.554214 6.0808 0
M  V30 3374 H 315.503 1.63997 5.49343 0
M  V30 3375 H 313.9 2.43112 5.4865 0
M  V30 3376 H 314.97 2.61304 4.08471 0
M  V30 3377 N 316.313 -1.40141 0.720998 0
M  V30 3378 C 317.543 -2.04798 0.27226 0
M  V30 3379 C 317.951 -1.54442 -1.09289 0
M  V30 3380 O 317.294 -0.698342 -1.69908 0
M  V30 3381 C 317.356 -3.59048 0.18027 0
M  V30 3382 C 317.02 -4.32317 1.48159 0
M  V30 3383 C 318.017 -4.59902 2.42458 0
M  V30 3384 C 315.702 -4.71125 1.74202 0
M  V30 3385 C 317.696 -5.25288 3.61042 0
M  V30 3386 C 315.383 -5.36242 2.93066 0
M  V30 3387 C 316.381 -5.63254 3.86308 0
M  V30 3388 O 316.069 -6.27024 5.03086 0
M  V30 3389 H 315.801 -0.665419 0.119139 0
M  V30 3390 H 318.355 -1.80436 0.981432 0
M  V30 3391 H 316.585 -3.82251 -0.58489 0
M  V30 3392 H 318.274 -4.05221 -0.234618 0
M  V30 3393 H 319.04 -4.30379 2.23604 0
M  V30 3394 H 314.919 -4.49466 1.02477 0
M  V30 3395 H 318.463 -5.46289 4.33837 0
M  V30 3396 H 314.36 -5.65185 3.11826 0
M  V30 3397 H 315.128 -6.4552 5.03235 0
M  V30 3398 N 317.792 -0.46758 -1.50504 0
M  V30 3399 C 319.039 0.0886219 -2.02306 0
M  V30 3400 C 319.367 1.40037 -1.34981 0
M  V30 3401 O 318.622 1.90136 -0.463318 0
M  V30 3402 C 318.921 0.323995 -3.55928 0
M  V30 3403 C 318.587 -0.905618 -4.41712 0
M  V30 3404 C 317.249 -1.24275 -4.64875 0
M  V30 3405 C 319.601 -1.72448 -4.91845 0
M  V30 3406 C 316.929 -2.39888 -5.35417 0
M  V30 3407 C 319.281 -2.87185 -5.63656 0
M  V30 3408 C 317.945 -3.21317 -5.85074 0
M  V30 3409 H 317.215 0.0324291 -0.74029 0
M  V30 3410 H 319.862 -0.620945 -1.81153 0
M  V30 3411 H 318.167 1.11577 -3.75577 0
M  V30 3412 H 319.864 0.76826 -3.93572 0
M  V30 3413 H 316.454 -0.632956 -4.239 0
M  V30 3414 H 320.638 -1.4772 -4.73806 0
M  V30 3415 H 315.894 -2.66611 -5.50208 0
M  V30 3416 H 320.068 -3.50985 -6.01484 0
M  V30 3417 H 317.695 -4.1101 -6.39511 0
M  V30 3418 N 319.27 1.56325 -0.20005 0
M  V30 3419 C 320.498 2.02105 0.442874 0
M  V30 3420 C 320.913 1.08014 1.5485 0
M  V30 3421 O 320.27 0.0858797 1.82298 0
M  V30 3422 C 320.321 3.47549 0.994583 0
M  V30 3423 O 320.042 4.38049 -0.0669322 0
M  V30 3424 C 321.543 4.0887 1.7129 0
M  V30 3425 H 318.763 0.661807 0.110691 0
M  V30 3426 H 321.307 2.02134 -0.310207 0
M  V30 3427 H 319.462 3.48204 1.69803 0
M  V30 3428 H 319.876 5.23368 0.344462 0
M  V30 3429 H 321.35 5.12475 2.05118 0
M  V30 3430 H 321.827 3.52615 2.61838 0
M  V30 3431 H 322.433 4.12002 1.05518 0
M  V30 3432 N 320.748 -0.0735177 1.57428 0
M  V30 3433 C 322.025 -0.805903 1.78226 0
M  V30 3434 C 322.405 -1.95874 0.787189 0
M  V30 3435 O 321.753 -2.2779 -0.180029 0
M  V30 3436 C 321.963 -1.28045 3.24662 0
M  V30 3437 C 323.311 -1.71453 3.88444 0
M  V30 3438 O 324.335 -1.37616 3.28543 0
M  V30 3439 O 323.194 -2.34093 4.93825 0
M  V30 3440 H 320.288 -0.386041 0.73137 0
M  V30 3441 H 322.834 -0.0537269 1.69615 0
M  V30 3442 H 321.606 -0.455476 3.8864 0
M  V30 3443 H 321.229 -2.094 3.37991 0
M  V30 3444 N 322.226 -1.5378 -0.344866 0
M  V30 3445 C 323.472 -1.71216 -1.08687 0
M  V30 3446 C 323.805 -0.473281 -1.88345 0
M  V30 3447 O 323.08 0.52968 -1.87149 0
M  V30 3448 C 323.363 -2.97486 -2.02914 0
M  V30 3449 C 323.216 -4.31579 -1.26727 0
M  V30 3450 C 324.535 -3.19422 -3.0275 0
M  V30 3451 H 321.654 -0.62301 -0.393735 0
M  V30 3452 H 324.296 -1.8645 -0.365563 0
M  V30 3453 H 322.446 -2.84629 -2.64421 0
M  V30 3454 H 324.118 -4.56284 -0.67845 0
M  V30 3455 H 322.361 -4.30049 -0.569273 0
M  V30 3456 H 323.032 -5.16106 -1.95803 0
M  V30 3457 H 325.508 -3.316 -2.51357 0
M  V30 3458 H 324.384 -4.09169 -3.65885 0
M  V30 3459 H 324.645 -2.35656 -3.74057 0
M  V30 3460 N 323.704 0.605807 -1.45491 0
M  V30 3461 C 324.634 1.72709 -1.57143 0
M  V30 3462 C 325.615 1.6476 -0.422884 0
M  V30 3463 O 326.8 1.83132 -0.646247 0
M  V30 3464 C 323.93 3.11316 -1.53948 0
M  V30 3465 C 322.884 3.34077 -2.67537 0
M  V30 3466 C 322.21 4.72975 -2.49397 0
M  V30 3467 C 323.51 3.24158 -4.09535 0
M  V30 3468 H 325.204 1.63214 -2.51001 0
M  V30 3469 H 322.75 0.78379 -1.208 0
M  V30 3470 H 324.703 3.89557 -1.60696 0
M  V30 3471 H 323.427 3.21655 -0.566205 0
M  V30 3472 H 322.086 2.58227 -2.6022 0
M  V30 3473 H 321.734 4.8005 -1.50205 0
M  V30 3474 H 321.434 4.8916 -3.25571 0
M  V30 3475 H 322.958 5.53414 -2.58002 0
M  V30 3476 H 324.372 3.92271 -4.18086 0
M  V30 3477 H 322.769 3.51872 -4.86113 0
M  V30 3478 H 323.839 2.2157 -4.31317 0
M  V30 3479 N 325.182 1.32811 0.848464 0
M  V30 3480 C 326.428 1.24917 1.60522 0
M  V30 3481 C 326.783 -0.185761 1.91501 0
M  V30 3482 O 326.076 -1.12524 1.55077 0
M  V30 3483 C 326.27 2.04831 2.92881 0
M  V30 3484 C 326.099 3.55949 2.74828 0
M  V30 3485 C 324.869 4.25277 2.72887 0
M  V30 3486 C 327.067 4.50476 2.48145 0
M  V30 3487 N 325.049 5.62408 2.46111 0
M  V30 3488 C 326.42 5.75427 2.30832 0
M  V30 3489 C 328.475 4.39665 2.33664 0
M  V30 3490 C 327.178 6.90789 2.00508 0
M  V30 3491 C 329.204 5.54833 2.04731 0
M  V30 3492 C 328.566 6.78787 1.88223 0
M  V30 3493 H 324.665 0.512279 0.590842 0
M  V30 3494 H 327.249 1.67246 0.996839 0
M  V30 3495 H 325.42 1.64837 3.51686 0
M  V30 3496 H 327.152 1.88782 3.57971 0
M  V30 3497 H 323.907 3.77456 2.86049 0
M  V30 3498 H 324.331 6.3467 2.35634 0
M  V30 3499 H 328.973 3.44477 2.45144 0
M  V30 3500 H 326.691 7.85984 1.87765 0
M  V30 3501 H 330.277 5.48398 1.94295 0
M  V30 3502 H 329.157 7.66396 1.66155 0
M  V30 3503 N 326.66 -1.06551 1.16123 0
M  V30 3504 C 328.071 -1.60768 0.949232 0
M  V30 3505 C 328.422 -1.89523 -0.507508 0
M  V30 3506 O 327.547 -1.66671 -1.38021 0
M  V30 3507 C 328.142 -2.92086 1.71671 0
M  V30 3508 C 326.701 -3.43015 1.54977 0
M  V30 3509 C 325.848 -2.16947 1.72711 0
M  V30 3510 H 328.799 -0.895354 1.31031 0
M  V30 3511 H 328.82 -3.6138 1.19099 0
M  V30 3512 H 328.332 -2.71127 2.7769 0
M  V30 3513 H 326.433 -3.69039 0.513873 0
M  V30 3514 H 326.546 -4.18516 2.33198 0
M  V30 3515 H 324.91 -2.27041 1.15431 0
M  V30 3516 H 325.693 -1.98473 2.80113 0
M  V30 3517 N 328.138 -0.959301 -1.25041 0
M  V30 3518 C 329.415 -0.533805 -1.88175 0
M  V30 3519 C 329.795 0.988994 -1.865 0
M  V30 3520 O 329.143 1.85677 -1.33177 0
M  V30 3521 C 329.353 -1.11575 -3.30684 0
M  V30 3522 C 330.701 -1.19548 -4.07423 0
M  V30 3523 O 331.725 -1.06765 -3.39823 0
M  V30 3524 O 330.584 -1.39656 -5.28354 0
M  V30 3525 H 327.678 -0.176772 -0.807887 0
M  V30 3526 H 330.224 -1.05303 -1.33076 0
M  V30 3527 H 328.996 -2.15884 -3.26358 0
M  V30 3528 H 328.619 -0.580059 -3.93346 0
M  V30 3529 N 329.616 1.39756 -0.72842 0
M  V30 3530 C 330.863 2.00645 -0.273487 0
M  V30 3531 C 331.191 1.57786 1.13727 0
M  V30 3532 O 330.446 0.794886 1.7883 0
M  V30 3533 C 330.745 3.56002 -0.315776 0
M  V30 3534 C 330.411 4.18489 -1.67863 0
M  V30 3535 C 329.073 4.3527 -2.05166 0
M  V30 3536 C 331.425 4.53219 -2.57375 0
M  V30 3537 C 328.753 4.84069 -3.31503 0
M  V30 3538 C 331.105 5.03423 -3.83077 0
M  V30 3539 C 329.769 5.18413 -4.20481 0
M  V30 3540 H 329.039 0.734211 -0.100076 0
M  V30 3541 H 331.686 1.6718 -0.933972 0
M  V30 3542 H 329.991 3.89452 0.428285 0
M  V30 3543 H 331.688 4.00963 0.0542575 0
M  V30 3544 H 328.278 4.05824 -1.37858 0
M  V30 3545 H 332.462 4.39878 -2.29827 0
M  V30 3546 H 327.718 4.93859 -3.60435 0
M  V30 3547 H 331.892 5.2927 -4.52599 0
M  V30 3548 H 329.519 5.55987 -5.18443 0
M  V30 3549 N 331.094 0.475555 1.50254 0
M  V30 3550 C 332.371 -0.139685 1.95101 0
M  V30 3551 C 332.751 -1.56555 1.41611 0
M  V30 3552 O 332.099 -2.19956 0.618993 0
M  V30 3553 C 332.309 -0.0784298 3.48912 0
M  V30 3554 C 333.657 -0.265095 4.23772 0
M  V30 3555 O 334.681 -0.154808 3.55863 0
M  V30 3556 O 333.54 -0.488327 5.44314 0
M  V30 3557 H 330.634 -0.109236 0.819754 0
M  V30 3558 H 333.18 0.536276 1.61004 0
M  V30 3559 H 331.952 0.916918 3.80405 0
M  V30 3560 H 331.575 -0.795655 3.89558 0
M  V30 3561 N 332.573 -1.56217 0.208337 0
M  V30 3562 C 333.483 -2.23316 -0.718836 0
M  V30 3563 C 334.499 -1.23648 -1.22422 0
M  V30 3564 O 335.675 -1.56423 -1.26861 0
M  V30 3565 C 332.74 -2.88968 -1.91568 0
M  V30 3566 C 331.801 -4.03943 -1.45357 0
M  V30 3567 C 331.034 -4.66455 -2.59337 0
M  V30 3568 O 331.257 -4.27919 -3.77149 0
M  V30 3569 O 330.191 -5.55686 -2.31293 0
M  V30 3570 H 334.017 -3.03182 -0.177315 0
M  V30 3571 H 331.602 -1.49384 -0.0215402 0
M  V30 3572 H 333.484 -3.30455 -2.61491 0
M  V30 3573 H 332.159 -2.12071 -2.44556 0
M  V30 3574 H 331.066 -3.67052 -0.722746 0
M  V30 3575 H 332.399 -4.82543 -0.970219 0
M  V30 3576 N 334.051 0.0651679 -1.57465 0
M  V30 3577 C 334.983 1.10359 -2.00882 0
M  V30 3578 C 335.996 1.346 -0.915788 0
M  V30 3579 O 337.185 1.32723 -1.1936 0
M  V30 3580 C 334.285 2.45312 -2.33828 0
M  V30 3581 C 333.458 2.40934 -3.65061 0
M  V30 3582 C 332.517 3.58047 -3.85602 0
M  V30 3583 O 331.543 3.39175 -4.57109 0
M  V30 3584 N 332.745 4.78637 -3.28462 0
M  V30 3585 H 335.51 0.733807 -2.90578 0
M  V30 3586 H 333.071 0.253719 -1.599 0
M  V30 3587 H 335.063 3.22314 -2.44737 0
M  V30 3588 H 333.633 2.74267 -1.49988 0
M  V30 3589 H 332.853 1.49273 -3.64844 0
M  V30 3590 H 334.141 2.35117 -4.51218 0
M  V30 3591 H 333.539 4.96872 -2.70433 0
M  V30 3592 H 332.096 5.53127 -3.44809 0
M  V30 3593 N 335.529 1.53961 0.336706 0
M  V30 3594 C 336.806 1.62171 1.09361 0
M  V30 3595 C 337.186 0.447263 2.06307 0
M  V30 3596 O 336.534 -0.559802 2.21537 0
M  V30 3597 C 336.744 2.98565 1.80721 0
M  V30 3598 C 338.092 3.54157 2.34218 0
M  V30 3599 O 339.116 3.00784 1.90807 0
M  V30 3600 O 337.975 4.47528 3.13657 0
M  V30 3601 H 335.069 0.6562 0.503319 0
M  V30 3602 H 337.615 1.66307 0.33765 0
M  V30 3603 H 336.387 3.75482 1.10132 0
M  V30 3604 H 336.01 2.9805 2.63158 0
M  V30 3605 N 337.007 -0.598083 1.45811 0
M  V30 3606 C 338.254 -1.35681 1.50323 0
M  V30 3607 C 338.582 -1.9393 0.148739 0
M  V30 3608 O 337.837 -1.76094 -0.853787 0
M  V30 3609 C 338.136 -2.51669 2.53766 0
M  V30 3610 C 337.802 -2.11508 3.98215 0
M  V30 3611 C 336.464 -2.0027 4.37545 0
M  V30 3612 C 338.816 -1.80308 4.89018 0
M  V30 3613 C 336.144 -1.56067 5.65562 0
M  V30 3614 C 338.496 -1.37589 6.17456 0
M  V30 3615 C 337.16 -1.24916 6.55708 0
M  V30 3616 H 336.43 -0.496492 0.550069 0
M  V30 3617 H 339.077 -0.675052 1.79207 0
M  V30 3618 H 337.382 -3.25225 2.18486 0
M  V30 3619 H 339.079 -3.09895 2.54492 0
M  V30 3620 H 335.669 -2.21185 3.67117 0
M  V30 3621 H 339.853 -1.87884 4.59362 0
M  V30 3622 H 335.109 -1.44886 5.93985 0
M  V30 3623 H 339.283 -1.12495 6.87254 0
M  V30 3624 H 336.91 -0.904386 7.54801 0
M  V30 3625 N 338.485 -1.33259 -0.841409 0
M  V30 3626 C 339.395 -1.25332 -1.98316 0
M  V30 3627 C 340.411 -0.164364 -1.73222 0
M  V30 3628 O 341.587 -0.387486 -1.97637 0
M  V30 3629 C 338.652 -0.990078 -3.32262 0
M  V30 3630 C 337.713 -2.16879 -3.70489 0
M  V30 3631 C 336.946 -1.91801 -4.98044 0
M  V30 3632 O 337.169 -0.867075 -5.63771 0
M  V30 3633 O 336.103 -2.78267 -5.33714 0
M  V30 3634 H 339.929 -2.21344 -2.07944 0
M  V30 3635 H 337.514 -1.1328 -0.974058 0
M  V30 3636 H 339.396 -0.860321 -4.12524 0
M  V30 3637 H 338.071 -0.0602155 -3.23644 0
M  V30 3638 H 336.978 -2.35407 -2.90748 0
M  V30 3639 H 338.311 -3.0819 -3.8377 0
M  V30 3640 N 339.963 1.05934 -1.16686 0
M  V30 3641 C 341.211 1.78447 -0.948744 0
M  V30 3642 C 341.532 1.87813 0.524523 0
M  V30 3643 O 340.802 1.38945 1.38098 0
M  V30 3644 H 339.382 0.660971 -0.348033 0
M  V30 3645 H 342.044 1.27947 -1.47022 0
M  V30 3646 H 341.14 2.80394 -1.37061 0
M  V30 3647 N 341.441 0.965919 1.2453 0
M  V30 3648 C 342.404 0.499547 2.2369 0
M  V30 3649 C 343.404 -0.40294 1.5567 0
M  V30 3650 O 344.594 -0.19865 1.73064 0
M  V30 3651 C 341.726 -0.276792 3.39774 0
M  V30 3652 H 342.919 1.37613 2.66463 0
M  V30 3653 H 340.472 0.750324 1.37112 0
M  V30 3654 H 341.207 -1.17055 3.02438 0
M  V30 3655 H 340.992 0.370826 3.90343 0
M  V30 3656 H 342.482 -0.592175 4.1338 0
M  V30 3657 N 342.919 -1.39368 0.735821 0
M  V30 3658 C 343.849 -2.33234 0.111506 0
M  V30 3659 C 344.83 -1.53954 -0.723334 0
M  V30 3660 O 346.015 -1.82344 -0.668147 0
M  V30 3661 C 343.145 -3.38057 -0.795917 0
M  V30 3662 C 342.099 -4.2795 -0.065172 0
M  V30 3663 C 341.425 -5.23479 -1.08967 0
M  V30 3664 C 342.725 -5.10741 1.09273 0
M  V30 3665 H 344.419 -2.85692 0.895571 0
M  V30 3666 H 341.965 -1.37364 0.432109 0
M  V30 3667 H 343.918 -4.02675 -1.24221 0
M  V30 3668 H 342.642 -2.8404 -1.61211 0
M  V30 3669 H 341.301 -3.64813 0.361511 0
M  V30 3670 H 340.949 -4.65758 -1.89944 0
M  V30 3671 H 340.649 -5.84472 -0.605489 0
M  V30 3672 H 342.173 -5.90974 -1.53565 0
M  V30 3673 H 343.587 -5.68699 0.724841 0
M  V30 3674 H 341.984 -5.8088 1.50659 0
M  V30 3675 H 343.054 -4.45525 1.91404 0
M  V30 3676 N 344.397 -0.483516 -1.5 0
M  V30 3677 C 345.345 0.318061 -2.30415 0
M  V30 3678 C 346.339 0.978988 -1.38247 0
M  V30 3679 O 347.545 0.908673 -1.55381 0
M  V30 3680 H 343.92 0.121419 -0.742133 0
M  V30 3681 H 345.891 -0.380403 -2.95965 0
M  V30 3682 C 344.64 1.38013 -3.19136 0
M  V30 3683 H 343.963 0.880952 -3.89973 0
M  V30 3684 H 345.403 1.91332 -3.78375 0
M  V30 3685 C 343.862 2.38884 -2.37563 0
M  V30 3686 O 344.392 3.44412 -2.06744 0
M  V30 3687 N 342.598 2.10912 -1.99911 0
M  V30 3688 H 342.145 1.25118 -2.25174 0
M  V30 3689 H 342.103 2.78635 -1.45636 0
M  V30 3690 N 345.875 1.56104 -0.216619 0
M  V30 3691 C 346.838 2.18819 0.681962 0
M  V30 3692 C 347.838 1.14866 1.12528 0
M  V30 3693 O 349.028 1.40128 1.03488 0
M  V30 3694 C 346.16 2.80756 1.93362 0
M  V30 3695 H 347.353 2.99595 0.135254 0
M  V30 3696 H 344.906 1.56265 0.0330003 0
M  V30 3697 H 345.641 2.03837 2.52232 0
M  V30 3698 H 345.426 3.56876 1.62426 0
M  V30 3699 H 346.916 3.28844 2.57393 0
M  V30 3700 N 347.353 -0.0568162 1.57498 0
M  V30 3701 C 348.6 -0.753104 1.87975 0
M  V30 3702 C 348.928 -1.76815 0.81035 0
M  V30 3703 O 348.183 -1.94756 -0.19199 0
M  V30 3704 C 348.482 -1.48359 3.25153 0
M  V30 3705 C 348.148 -0.60713 4.46794 0
M  V30 3706 C 346.81 -0.365642 4.79809 0
M  V30 3707 C 349.162 -0.000305978 5.212 0
M  V30 3708 C 346.49 0.491905 5.84634 0
M  V30 3709 C 348.842 0.844781 6.26934 0
M  V30 3710 C 347.506 1.096 6.58441 0
M  V30 3711 H 346.776 -0.27558 0.687849 0
M  V30 3712 H 349.423 -0.0135173 1.91495 0
M  V30 3713 H 347.728 -2.29577 3.17492 0
M  V30 3714 H 349.425 -2.02739 3.45974 0
M  V30 3715 H 346.015 -0.805487 4.20963 0
M  V30 3716 H 350.199 -0.173961 4.95995 0
M  V30 3717 H 345.455 0.695131 6.07436 0
M  V30 3718 H 349.629 1.32165 6.83744 0
M  V30 3719 H 347.256 1.76224 7.39492 0
M  V30 3720 N 348.832 -1.54138 -0.328536 0
M  V30 3721 C 349.795 -1.82462 -1.38709 0
M  V30 3722 C 350.795 -0.696229 -1.44946 0
M  V30 3723 O 351.985 -0.964535 -1.4506 0
M  V30 3724 C 349.117 -1.98018 -2.77492 0
M  V30 3725 H 350.31 -2.77037 -1.14851 0
M  V30 3726 H 347.863 -1.45779 -0.563751 0
M  V30 3727 H 348.598 -1.05637 -3.06613 0
M  V30 3728 H 348.383 -2.80124 -2.74359 0
M  V30 3729 H 349.873 -2.21396 -3.54081 0
M  V30 3730 N 350.31 0.590341 -1.46126 0
M  V30 3731 C 351.258 1.72105 -1.5647 0
M  V30 3732 C 352.252 1.63756 -0.433612 0
M  V30 3733 O 353.458 1.69342 -0.610194 0
M  V30 3734 H 349.833 0.568889 -0.491802 0
M  V30 3735 H 351.804 1.6051 -2.51553 0
M  V30 3736 C 350.553 3.10493 -1.56491 0
M  V30 3737 H 349.876 3.17583 -2.4286 0
M  V30 3738 H 351.316 3.8939 -1.67785 0
M  V30 3739 C 349.775 3.3563 -0.292231 0
M  V30 3740 O 350.305 3.96875 0.620739 0
M  V30 3741 N 348.511 2.90026 -0.182523 0
M  V30 3742 H 348.058 2.40367 -0.926356 0
M  V30 3743 H 348.016 3.07218 0.668152 0
M  V30 3744 N 351.788 1.33704 0.83433 0
M  V30 3745 C 353.204 1.13137 1.12571 0
M  V30 3746 C 353.404 -0.0747261 2.01361 0
M  V30 3747 O 352.46 -0.753647 2.4099 0
M  V30 3748 C 353.773 2.42105 1.78342 0
M  V30 3749 C 355.321 2.48054 1.90888 0
M  V30 3750 C 355.796 3.76995 2.60075 0
M  V30 3751 N 357.287 3.78092 2.67584 0
M  V30 3752 C 358.022 4.74574 3.21818 0
M  V30 3753 N 357.518 5.81434 3.76705 0
M  V30 3754 N 359.311 4.62044 3.20112 0
M  V30 3755 H 351.462 2.11 0.243489 0
M  V30 3756 H 353.725 0.932532 0.17055 0
M  V30 3757 H 353.431 3.30391 1.20561 0
M  V30 3758 H 353.305 2.54594 2.7832 0
M  V30 3759 H 355.692 1.60215 2.47821 0
M  V30 3760 H 355.773 2.39502 0.898459 0
M  V30 3761 H 355.417 4.65219 2.03799 0
M  V30 3762 H 355.347 3.82825 3.61597 0
M  V30 3763 H 357.838 3.00865 2.28667 0
M  V30 3764 H 358.151 6.51084 4.16305 0
M  V30 3765 H 356.496 5.85163 3.7498 0
M  V30 3766 H 359.687 3.77716 2.76493 0
M  V30 3767 H 359.86 5.37406 3.62076 0
M  V30 3768 N 353.266 -1.05314 1.17247 0
M  V30 3769 C 354.176 -2.16538 0.90268 0
M  V30 3770 C 355.192 -1.73523 -0.128707 0
M  V30 3771 O 356.368 -2.01337 0.0502701 0
M  V30 3772 C 353.433 -3.44167 0.418356 0
M  V30 3773 C 352.494 -4.01635 1.51618 0
M  V30 3774 C 351.727 -5.23171 1.05487 0
M  V30 3775 O 351.95 -5.70327 -0.0914715 0
M  V30 3776 O 350.884 -5.72848 1.8474 0
M  V30 3777 H 354.71 -2.42145 1.83302 0
M  V30 3778 H 352.295 -1.15037 0.953246 0
M  V30 3779 H 354.177 -4.21112 0.155726 0
M  V30 3780 H 352.852 -3.20063 -0.48385 0
M  V30 3781 H 351.759 -3.26135 1.83268 0
M  V30 3782 H 353.092 -4.30053 2.39405 0
M  V30 3783 N 354.744 -0.972509 -1.24016 0
M  V30 3784 C 356.16 -0.679827 -1.44397 0
M  V30 3785 C 356.36 0.756716 -1.86751 0
M  V30 3786 O 355.416 1.53007 -2.00861 0
M  V30 3787 C 356.729 -1.66803 -2.50195 0
M  V30 3788 C 358.277 -1.68119 -2.64017 0
M  V30 3789 C 358.752 -2.65748 -3.73017 0
M  V30 3790 N 360.243 -2.64219 -3.8045 0
M  V30 3791 C 360.978 -3.36433 -4.64328 0
M  V30 3792 N 360.474 -4.1818 -5.52356 0
M  V30 3793 N 362.267 -3.25235 -4.58453 0
M  V30 3794 H 354.418 -1.90059 -0.948228 0
M  V30 3795 H 356.681 -0.818527 -0.478245 0
M  V30 3796 H 356.387 -2.69498 -2.25973 0
M  V30 3797 H 356.261 -1.4446 -3.48441 0
M  V30 3798 H 358.648 -0.661319 -2.87594 0
M  V30 3799 H 358.729 -1.94525 -1.66113 0
M  V30 3800 H 358.373 -3.67872 -3.50189 0
M  V30 3801 H 358.303 -2.36619 -4.70446 0
M  V30 3802 H 360.794 -2.04887 -3.17537 0
M  V30 3803 H 361.107 -4.70157 -6.13329 0
M  V30 3804 H 359.452 -4.22273 -5.52006 0
M  V30 3805 H 362.643 -2.60829 -3.88698 0
M  V30 3806 H 362.816 -3.81776 -5.23594 0
M  V30 3807 N 356.222 1.38976 -0.743202 0
M  V30 3808 C 357.638 1.53984 -0.419664 0
M  V30 3809 C 357.838 1.70837 1.0685 0
M  V30 3810 O 356.894 1.7135 1.8546 0
M  V30 3811 C 358.207 2.75287 -1.20985 0
M  V30 3812 C 359.755 2.89129 -1.19889 0
M  V30 3813 C 360.23 4.13381 -1.97181 0
M  V30 3814 N 361.721 4.20437 -1.94389 0
M  V30 3815 C 362.456 5.15547 -2.50996 0
M  V30 3816 N 361.952 6.16395 -3.16274 0
M  V30 3817 N 363.745 5.07822 -2.40984 0
M  V30 3818 H 355.896 1.26285 -1.7078 0
M  V30 3819 H 358.159 0.612689 -0.723406 0
M  V30 3820 H 357.865 2.69204 -2.26323 0
M  V30 3821 H 357.739 3.68184 -0.819759 0
M  V30 3822 H 360.126 2.947 -0.153606 0
M  V30 3823 H 360.207 1.97272 -1.62841 0
M  V30 3824 H 359.851 4.08572 -3.01714 0
M  V30 3825 H 359.781 5.04298 -1.51629 0
M  V30 3826 H 362.272 3.48205 -1.46839 0
M  V30 3827 H 362.585 6.85443 -3.56915 0
M  V30 3828 H 360.93 6.16758 -3.20367 0
M  V30 3829 H 364.121 4.27973 -1.89622 0
M  V30 3830 H 364.294 5.81767 -2.85397 0
M  V30 3831 N 357.7 0.491464 1.49741 0
M  V30 3832 C 358.947 -0.0564256 2.02421 0
M  V30 3833 C 359.275 -1.37872 1.37192 0
M  V30 3834 O 358.53 -1.89375 0.493508 0
M  V30 3835 C 358.829 -0.267329 3.56399 0
M  V30 3836 C 358.495 0.975775 4.40215 0
M  V30 3837 C 357.157 1.31655 4.62839 0
M  V30 3838 C 359.509 1.80251 4.89039 0
M  V30 3839 C 356.837 2.48375 5.31532 0
M  V30 3840 C 359.189 2.96116 5.59015 0
M  V30 3841 C 357.853 3.30585 5.79888 0
M  V30 3842 H 357.123 -0.0206476 0.740712 0
M  V30 3843 H 359.77 0.649686 1.80143 0
M  V30 3844 H 358.075 -1.05588 3.77304 0
M  V30 3845 H 359.772 -0.705549 3.94744 0
M  V30 3846 H 356.362 0.700315 4.2284 0
M  V30 3847 H 360.546 1.55239 4.71396 0
M  V30 3848 H 355.802 2.7533 5.45897 0
M  V30 3849 H 359.976 3.60509 5.95824 0
M  V30 3850 H 357.603 4.21132 6.32892 0
M  V30 3851 N 359.178 -1.55987 0.224894 0
M  V30 3852 C 360.426 -1.97998 -0.405099 0
M  V30 3853 C 360.747 -1.11387 -1.60056 0
M  V30 3854 O 360.017 -0.191645 -1.9496 0
M  V30 3855 H 358.597 -0.731235 -0.152658 0
M  V30 3856 H 361.259 -1.92279 0.318567 0
M  V30 3857 H 360.355 -3.03463 -0.729167 0
M  V30 3858 N 360.656 0.0484629 -1.57525 0
M  V30 3859 C 361.904 0.741657 -1.88 0
M  V30 3860 C 362.225 1.76918 -0.820054 0
M  V30 3861 O 361.495 1.95335 0.148661 0
M  V30 3862 H 360.075 0.276908 -0.69378 0
M  V30 3863 H 362.737 0.019013 -1.94891 0
M  V30 3864 H 361.833 1.24336 -2.86264 0
M  V30 3865 N 362.134 1.5431 0.320358 0
M  V30 3866 C 363.362 1.76636 1.07738 0
M  V30 3867 C 363.777 0.51649 1.81598 0
M  V30 3868 O 363.134 -0.512942 1.75143 0
M  V30 3869 C 363.185 2.96158 2.07299 0
M  V30 3870 O 362.906 4.16313 1.36438 0
M  V30 3871 C 364.407 3.3072 2.95193 0
M  V30 3872 H 361.627 0.589597 0.320339 0
M  V30 3873 H 364.171 2.01207 0.36551 0
M  V30 3874 H 362.326 2.73851 2.74016 0
M  V30 3875 H 362.74 4.83565 2.03138 0
M  V30 3876 H 364.214 4.17643 3.60941 0
M  V30 3877 H 364.691 2.48026 3.62463 0
M  V30 3878 H 365.297 3.55117 2.34034 0
M  V30 3879 N 363.613 -0.582584 1.46437 0
M  V30 3880 C 364.523 -1.71949 1.59595 0
M  V30 3881 C 365.539 -1.67264 0.479443 0
M  V30 3882 O 366.715 -1.87171 0.743579 0
M  V30 3883 C 363.78 -3.08452 1.58298 0
M  V30 3884 C 362.841 -3.244 2.81182 0
M  V30 3885 C 362.074 -4.54391 2.79937 0
M  V30 3886 O 362.297 -5.38287 1.8869 0
M  V30 3887 O 361.231 -4.73588 3.71481 0
M  V30 3888 H 365.057 -1.63795 2.55744 0
M  V30 3889 H 362.642 -0.749643 1.29231 0
M  V30 3890 H 364.524 -3.89732 1.60271 0
M  V30 3891 H 363.199 -3.17043 0.653094 0
M  V30 3892 H 362.106 -2.42613 2.84763 0
M  V30 3893 H 363.439 -3.20699 3.7338 0
M  V30 3894 N 365.091 -1.34144 -0.827227 0
M  V30 3895 C 366.502 -1.23557 -1.39966 0
M  V30 3896 C 366.853 0.140731 -1.95695 0
M  V30 3897 O 365.978 1.04087 -1.89723 0
M  V30 3898 C 366.573 -2.23708 -2.54441 0
M  V30 3899 C 365.132 -2.16924 -3.07605 0
M  V30 3900 C 364.279 -2.10549 -1.80456 0
M  V30 3901 H 367.23 -1.45573 -0.631991 0
M  V30 3902 H 367.251 -1.85157 -3.32411 0
M  V30 3903 H 366.763 -3.23866 -2.13851 0
M  V30 3904 H 364.864 -1.20107 -3.52711 0
M  V30 3905 H 364.977 -3.07988 -3.66988 0
M  V30 3906 H 363.341 -1.56203 -2.01178 0
M  V30 3907 H 364.124 -3.12535 -1.42046 0
M  V30 3908 N 366.569 1.04691 -1.17803 0
M  V30 3909 C 367.817 1.7743 -0.967617 0
M  V30 3910 C 368.138 1.88359 0.504574 0
M  V30 3911 O 367.408 1.40402 1.36617 0
M  V30 3912 H 365.988 0.657242 -0.355024 0
M  V30 3913 H 368.65 1.2638 -1.48371 0
M  V30 3914 H 367.746 2.78924 -1.40027 0
M  V30 3915 N 368.047 0.979072 1.23499 0
M  V30 3916 C 369.324 0.563674 1.87302 0
M  V30 3917 C 369.704 -0.959199 1.88049 0
M  V30 3918 O 369.052 -1.83535 1.36114 0
M  V30 3919 C 369.262 1.16822 3.28867 0
M  V30 3920 C 370.61 1.26014 4.0547 0
M  V30 3921 O 371.634 1.12158 3.38082 0
M  V30 3922 O 370.493 1.48044 5.26066 0
M  V30 3923 H 367.587 0.189602 0.804972 0
M  V30 3924 H 370.133 1.07407 1.31384 0
M  V30 3925 H 368.905 2.21049 3.22883 0
M  V30 3926 H 368.528 0.642564 3.92373 0
M  V30 3927 N 369.525 -1.3858 0.750561 0
M  V30 3928 C 370.435 -2.34278 0.122825 0
M  V30 3929 C 371.451 -1.59116 -0.704131 0
M  V30 3930 O 372.627 -1.91326 -0.628987 0
M  V30 3931 C 369.692 -3.38221 -0.762086 0
M  V30 3932 C 368.753 -4.29227 0.078896 0
M  V30 3933 C 367.986 -5.28205 -0.763874 0
M  V30 3934 O 368.209 -5.34112 -2.00201 0
M  V30 3935 O 367.143 -6.01618 -0.18428 0
M  V30 3936 H 370.969 -2.89649 0.913088 0
M  V30 3937 H 368.554 -1.40374 0.511417 0
M  V30 3938 H 370.436 -4.01872 -1.26793 0
M  V30 3939 H 369.111 -2.85211 -1.5309 0
M  V30 3940 H 368.018 -3.68747 0.630621 0
M  V30 3941 H 369.351 -4.85484 0.810289 0
M  V30 3942 N 371.003 -0.499398 -1.49478 0
M  V30 3943 C 372.231 0.0425456 -2.06856 0
M  V30 3944 C 372.646 1.30964 -1.35992 0
M  V30 3945 O 372.003 1.77172 -0.437762 0
M  V30 3946 C 372.054 0.301735 -3.60239 0
M  V30 3947 O 371.775 -0.915127 -4.28436 0
M  V30 3948 C 373.276 0.887499 -4.34325 0
M  V30 3949 H 370.496 -0.0197482 -0.670709 0
M  V30 3950 H 373.04 -0.696297 -1.92281 0
M  V30 3951 H 371.195 0.990556 -3.74522 0
M  V30 3952 H 371.609 -0.676993 -5.20113 0
M  V30 3953 H 373.083 1.01845 -5.42523 0
M  V30 3954 H 373.56 1.88488 -3.96698 0
M  V30 3955 H 374.166 0.236196 -4.24644 0
M  V30 3956 N 372.481 1.55866 -0.233164 0
M  V30 3957 C 373.444 2.1953 0.658715 0
M  V30 3958 C 374.444 1.16053 1.11303 0
M  V30 3959 O 375.634 1.41218 1.01996 0
M  V30 3960 C 372.766 2.82791 1.90373 0
M  V30 3961 H 373.959 2.99721 0.10347 0
M  V30 3962 H 371.512 1.56291 0.0164245 0
M  V30 3963 H 372.247 2.06501 2.50056 0
M  V30 3964 H 372.032 3.58578 1.58632 0
M  V30 3965 H 373.522 3.31556 2.53891 0
M  V30 3966 O 373.998 0.0973059 1.61207 0
M  V30 3967 H 374.689 -0.50491 1.87004 0
M  V30 END ATOM
M  V30 BEGIN BOND
M  V30 END BOND
M  V30 END CTAB
M  END
$$$$
