drugbank_target|P60757 ATP phosphoribosyltransferase (DB01661)
 OpenBabel12092119503D

  0  0  0     0  0            999 V3000
M  V30 BEGIN CTAB
M  V30 COUNTS 4732 4760 0 0 0
M  V30 BEGIN ATOM
M  V30 1 H -0.908 1.98254 -0.117106 0
M  V30 2 N 0 1.576 0 0
M  V30 3 C 0.933 2.03868 1.02534 0
M  V30 4 C 1.911 0.928543 1.3348 0
M  V30 5 O 3.095 1.19667 1.45644 0
M  V30 6 C 0.222 2.43627 2.35294 0
M  V30 7 C -0.732 3.65373 2.2001 0
M  V30 8 S 0.101 5.13292 1.52614 0
M  V30 9 C 1.257 5.56322 2.86805 0
M  V30 10 H 1.49 2.90518 0.631377 0
M  V30 11 H -0.977 1.52953 0.210867 0
M  V30 12 H 0.981 2.67203 3.11629 0
M  V30 13 H -0.358 1.57376 2.7183 0
M  V30 14 H -1.165 3.90944 3.18086 0
M  V30 15 H -1.563 3.418 1.51819 0
M  V30 16 H 0.729 5.58782 3.83104 0
M  V30 17 H 1.672 6.56266 2.65933 0
M  V30 18 H 2.08 4.83886 2.90714 0
M  V30 19 N 1.4781 -0.272755 1.55222 0
M  V30 20 C 2.7061 -1.02255 1.79865 0
M  V30 21 C 3.1211 -1.79924 0.572088 0
M  V30 22 O 2.4781 -1.76638 -0.458842 0
M  V30 23 C 2.5291 -1.98094 3.02392 0
M  V30 24 O 2.2501 -1.23572 4.20311 0
M  V30 25 C 3.7511 -2.84884 3.39641 0
M  V30 26 H 0.9711 -0.302057 0.599168 0
M  V30 27 H 3.5151 -0.303465 2.02236 0
M  V30 28 H 1.6701 -2.65465 2.82147 0
M  V30 29 H 2.0841 -1.88172 4.89583 0
M  V30 30 H 3.5581 -3.47927 4.28545 0
M  V30 31 H 4.0351 -3.54665 2.59055 0
M  V30 32 H 4.6411 -2.23003 3.62146 0
M  V30 33 N 2.9562 -1.48159 -0.537278 0
M  V30 34 C 4.2332 -1.46291 -1.29839 0
M  V30 35 C 4.6132 -0.170613 -2.10409 0
M  V30 36 O 3.9612 0.847746 -2.12192 0
M  V30 37 C 4.1712 -2.72055 -2.18603 0
M  V30 38 C 5.5192 -3.20087 -2.7898 0
M  V30 39 O 6.5432 -2.72921 -2.28894 0
M  V30 40 O 5.4022 -4.02138 -3.70064 0
M  V30 41 H 2.4962 -0.583906 -0.585647 0
M  V30 42 H 5.0422 -1.60384 -0.554534 0
M  V30 43 H 3.8142 -3.57628 -1.58801 0
M  V30 44 H 3.4372 -2.60646 -3.00249 0
M  V30 45 N 4.4343 0.785586 -1.36625 0
M  V30 46 C 5.3823 1.91978 -1.31329 0
M  V30 47 C 6.3763 1.68162 -0.204416 0
M  V30 48 O 7.5823 1.76122 -0.371645 0
M  V30 49 H 3.9573 0.631087 -0.408942 0
M  V30 50 H 5.9283 1.93562 -2.27104 0
M  V30 51 C 4.6773 3.29055 -1.12329 0
M  V30 52 H 4.0003 3.4795 -1.96903 0
M  V30 53 H 5.4403 4.08756 -1.12671 0
M  V30 54 C 3.8993 3.36461 0.171861 0
M  V30 55 O 4.4293 3.84576 1.16035 0
M  V30 56 N 2.6353 2.89782 0.217846 0
M  V30 57 H 2.1823 2.50819 -0.587183 0
M  V30 58 H 2.1403 2.95119 1.08408 0
M  V30 59 N 5.9124 1.20967 1.01018 0
M  V30 60 C 7.1404 1.04956 1.78303 0
M  V30 61 C 7.5554 -0.400915 1.84494 0
M  V30 62 O 6.9124 -1.27826 1.30257 0
M  V30 63 C 6.9634 1.63403 3.22462 0
M  V30 64 O 6.6844 3.02775 3.16637 0
M  V30 65 C 8.1854 1.52432 4.16268 0
M  V30 66 H 5.4054 0.368858 0.560522 0
M  V30 67 H 7.9494 1.60193 1.27116 0
M  V30 68 H 6.1044 1.1227 3.70775 0
M  V30 69 H 6.5184 3.30626 4.07169 0
M  V30 70 H 7.9924 1.98078 5.15237 0
M  V30 71 H 8.4694 0.477875 4.36592 0
M  V30 72 H 9.0754 2.02787 3.73841 0
M  V30 73 N 7.3905 -1.2043 1.01659 0
M  V30 74 C 8.8065 -1.41852 0.731442 0
M  V30 75 C 9.0065 -1.89358 -0.688898 0
M  V30 76 O 8.0625 -2.06247 -1.45666 0
M  V30 77 C 9.3755 -2.44019 1.75714 0
M  V30 78 C 10.9235 -2.57785 1.77527 0
M  V30 79 C 11.3985 -3.63194 2.79023 0
M  V30 80 N 12.8895 -3.70678 2.77763 0
M  V30 81 C 13.6245 -4.51897 3.52954 0
M  V30 82 N 13.1205 -5.36921 4.37821 0
M  V30 83 N 14.9135 -4.4643 3.41551 0
M  V30 84 H 7.0645 -0.879093 1.93354 0
M  V30 85 H 9.3275 -0.448425 0.835236 0
M  V30 86 H 9.0335 -2.1611 2.77469 0
M  V30 87 H 8.9075 -3.43007 1.56927 0
M  V30 88 H 11.2945 -2.85023 0.764569 0
M  V30 89 H 11.3755 -1.58992 2.00387 0
M  V30 90 H 11.0195 -3.36699 3.80258 0
M  V30 91 H 10.9495 -4.61609 2.53425 0
M  V30 92 H 13.4405 -3.09944 2.16201 0
M  V30 93 H 13.7535 -5.95981 4.91962 0
M  V30 94 H 12.0985 -5.36424 4.41899 0
M  V30 95 H 15.2895 -3.79042 2.74672 0
M  V30 96 H 15.4625 -5.09491 4.00404 0
M  V30 97 N 8.8686 -0.792821 -1.36206 0
M  V30 98 C 9.7986 -0.207853 -2.32573 0
M  V30 99 C 10.7796 0.659055 -1.56813 0
M  V30 100 O 11.9646 0.592176 -1.84951 0
M  V30 101 C 9.0946 0.655449 -3.41059 0
M  V30 102 C 8.0486 -0.111842 -4.27854 0
M  V30 103 C 7.3746 0.872274 -5.27537 0
M  V30 104 C 8.6746 -1.30299 -5.05786 0
M  V30 105 H 10.3686 -1.01294 -2.81744 0
M  V30 106 H 7.9146 -0.48854 -1.3546 0
M  V30 107 H 9.8676 1.07464 -4.07467 0
M  V30 108 H 8.5916 1.49328 -2.90463 0
M  V30 109 H 7.2506 -0.512053 -3.63006 0
M  V30 110 H 6.8986 1.70523 -4.73214 0
M  V30 111 H 6.5986 0.363291 -5.86476 0
M  V30 112 H 8.1226 1.28996 -5.96818 0
M  V30 113 H 9.5366 -0.959379 -5.65216 0
M  V30 114 H 7.9336 -1.7455 -5.74154 0
M  V30 115 H 9.0036 -2.09663 -4.37229 0
M  V30 116 N 10.3467 1.47872 -0.545128 0
M  V30 117 C 11.7627 1.5829 -0.204032 0
M  V30 118 C 11.9627 1.54529 1.29317 0
M  V30 119 O 11.0187 1.44232 2.07252 0
M  V30 120 C 12.3317 2.89304 -0.819987 0
M  V30 121 C 13.8797 3.02864 -0.790105 0
M  V30 122 C 14.3547 4.3656 -1.38491 0
M  V30 123 N 15.8457 4.43165 -1.34755 0
M  V30 124 C 16.5807 5.45153 -1.77753 0
M  V30 125 N 16.0767 6.54016 -2.2855 0
M  V30 126 N 17.8697 5.36125 -1.68897 0
M  V30 127 H 10.0207 1.4856 -1.51802 0
M  V30 128 H 12.2837 0.706305 -0.632327 0
M  V30 129 H 11.9897 2.97757 -1.87173 0
M  V30 130 H 11.8637 3.75957 -0.305915 0
M  V30 131 H 14.2507 2.94014 0.252913 0
M  V30 132 H 14.3317 2.17782 -1.34181 0
M  V30 133 H 13.9757 4.46164 -2.42693 0
M  V30 134 H 13.9057 5.20353 -0.808754 0
M  V30 135 H 16.3967 3.65083 -0.975855 0
M  V30 136 H 16.7097 7.27994 -2.59314 0
M  V30 137 H 15.0547 6.54938 -2.32553 0
M  V30 138 H 18.2457 4.49975 -1.28998 0
M  V30 139 H 18.4187 6.15472 -2.02726 0
M  V30 140 N 11.8248 0.280983 1.55075 0
M  V30 141 C 13.0738 -0.334784 1.98902 0
M  V30 142 C 13.3868 -1.56534 1.17288 0
M  V30 143 O 14.5928 -2.25443 1.51287 0
M  V30 144 C 13.0488 -0.646994 3.54037 0
M  V30 145 C 12.6568 0.564085 4.44435 0
M  V30 146 C 14.4008 -1.22506 4.06439 0
M  V30 147 C 12.3078 0.226137 5.90967 0
M  V30 148 H 11.2378 -0.128866 0.742906 0
M  V30 149 H 13.8888 0.386556 1.79382 0
M  V30 150 H 12.2708 -1.42739 3.6938 0
M  V30 151 H 13.4448 1.34082 4.40861 0
M  V30 152 H 11.7598 1.0594 4.02698 0
M  V30 153 H 14.3568 -1.49182 5.13468 0
M  V30 154 H 14.6998 -2.16085 3.55827 0
M  V30 155 H 15.2328 -0.50682 3.94558 0
M  V30 156 H 11.9718 1.12996 6.45687 0
M  V30 157 H 11.4918 -0.513717 5.97596 0
M  V30 158 H 13.1708 -0.179539 6.46751 0
M  V30 159 N 13.3029 -1.57598 0.00835791 0
M  V30 160 C 14.2659 -2.07884 -0.965242 0
M  V30 161 C 15.2659 -0.989825 -1.26725 0
M  V30 162 O 16.4559 -1.25218 -1.21104 0
M  V30 163 C 13.5879 -2.52731 -2.28779 0
M  V30 164 H 14.7809 -2.95178 -0.530112 0
M  V30 165 H 12.3339 -1.54458 -0.239283 0
M  V30 166 H 13.0689 -1.68705 -2.76964 0
M  V30 167 H 12.8539 -3.32272 -2.08177 0
M  V30 168 H 14.3439 -2.91933 -2.98605 0
M  V30 169 N 14.781 0.264519 -1.55364 0
M  V30 170 C 15.714 1.35297 -1.83766 0
M  V30 171 C 16.692 1.47171 -0.691336 0
M  V30 172 O 17.876 1.63663 -0.935238 0
M  V30 173 C 15.003 2.72847 -2.00679 0
M  V30 174 C 14.049 2.78214 -3.23263 0
M  V30 175 S 14.882 2.36601 -4.80396 0
M  V30 176 C 16.038 3.7611 -5.00292 0
M  V30 177 H 16.271 1.11003 -2.758 0
M  V30 178 H 13.804 0.464596 -1.47244 0
M  V30 179 H 15.762 3.52057 -2.11108 0
M  V30 180 H 14.423 2.94388 -1.09518 0
M  V30 181 H 13.616 3.7919 -3.3201 0
M  V30 182 H 13.218 2.07034 -3.11469 0
M  V30 183 H 15.51 4.71457 -4.86554 0
M  V30 184 H 16.453 3.7231 -6.02321 0
M  V30 185 H 16.861 3.67806 -4.28228 0
M  V30 186 N 16.2591 1.48442 0.529413 0
M  V30 187 C 17.1911 1.59095 1.64989 0
M  V30 188 C 18.2041 0.475212 1.5571 0
M  V30 189 O 19.3931 0.746081 1.6216 0
M  V30 190 C 16.4931 1.50518 3.0364 0
M  V30 191 C 15.6661 2.77142 3.38395 0
M  V30 192 C 14.7251 2.62012 4.56329 0
M  V30 193 O 13.7511 3.35898 4.59522 0
M  V30 194 N 14.9531 1.71667 5.54536 0
M  V30 195 H 17.7181 2.55723 1.56287 0
M  V30 196 H 15.2791 1.45173 0.716697 0
M  V30 197 H 17.2711 1.38091 3.80412 0
M  V30 198 H 15.8411 0.618627 3.06418 0
M  V30 199 H 15.0611 3.0413 2.50796 0
M  V30 200 H 16.3491 3.61146 3.58401 0
M  V30 201 H 15.7471 1.10841 5.54735 0
M  V30 202 H 14.3041 1.65178 6.30523 0
M  V30 203 N 17.7372 -0.778329 1.37039 0
M  V30 204 C 18.6842 -1.89139 1.32269 0
M  V30 205 C 19.6542 -1.65017 0.189387 0
M  V30 206 O 20.8392 -1.87024 0.377693 0
M  V30 207 C 17.9792 -3.26112 1.12894 0
M  V30 208 C 17.0922 -3.62233 2.35396 0
M  V30 209 C 16.2272 -4.8838 2.08946 0
M  V30 210 C 15.2662 -5.17212 3.2735 0
M  V30 211 N 14.4032 -6.34546 3.00492 0
M  V30 212 H 19.2432 -1.92552 2.27437 0
M  V30 213 H 16.7802 -0.941473 1.13025 0
M  V30 214 H 18.7382 -4.05116 0.996835 0
M  V30 215 H 17.3682 -3.22091 0.213758 0
M  V30 216 H 16.4202 -2.78265 2.5937 0
M  V30 217 H 17.7322 -3.79481 3.23721 0
M  V30 218 H 16.8862 -5.75274 1.92729 0
M  V30 219 H 15.6252 -4.73222 1.17949 0
M  V30 220 H 14.6302 -4.28796 3.44113 0
M  V30 221 H 15.8552 -5.34283 4.19188 0
M  V30 222 H 13.8012 -6.20759 2.12118 0
M  V30 223 H 13.7182 -6.52179 3.82358 0
M  V30 224 H 14.9862 -7.24394 2.87879 0
M  V30 225 N 19.2153 -1.21501 -1.00376 0
M  V30 226 C 20.4403 -1.05977 -1.78279 0
M  V30 227 C 20.8653 0.385994 -1.84097 0
M  V30 228 O 20.2233 1.27849 -1.28547 0
M  V30 229 C 20.2713 -1.66302 -3.19963 0
M  V30 230 O 19.3753 -0.909333 -4.0225 0
M  V30 231 H 18.7163 -0.372906 -0.549397 0
M  V30 232 H 21.2463 -1.6107 -1.26165 0
M  V30 233 H 21.2563 -1.70574 -3.70632 0
M  V30 234 H 19.9313 -2.71515 -3.15043 0
M  V30 235 H 18.5083 -0.941795 -3.60811 0
M  V30 236 N 20.6934 1.19889 -1.02296 0
M  V30 237 C 21.9414 1.89046 -0.714558 0
M  V30 238 C 22.2624 1.79636 0.758681 0
M  V30 239 O 21.5324 1.20292 1.54618 0
M  V30 240 H 20.1124 0.699802 -0.261317 0
M  V30 241 H 22.7744 1.45574 -1.29592 0
M  V30 242 H 21.8704 2.95524 -1.0036 0
M  V30 243 N 22.1715 0.800033 1.35784 0
M  V30 244 C 23.5875 0.482977 1.52117 0
M  V30 245 C 23.7875 -0.996948 1.75109 0
M  V30 246 O 22.8435 -1.78216 1.78872 0
M  V30 247 C 24.1565 1.32264 2.70049 0
M  V30 248 C 25.7045 1.31742 2.83924 0
M  V30 249 C 26.1795 2.14106 4.04874 0
M  V30 250 N 27.6705 2.11607 4.12039 0
M  V30 251 C 28.4055 2.72099 5.04727 0
M  V30 252 N 27.9015 3.41492 6.02789 0
M  V30 253 N 29.6945 2.61776 4.97423 0
M  V30 254 H 21.8455 1.75856 1.19115 0
M  V30 255 H 24.1085 0.748122 0.582252 0
M  V30 256 H 23.8145 2.37261 2.59616 0
M  V30 257 H 23.6885 0.971303 3.6448 0
M  V30 258 H 26.0755 0.275333 2.93813 0
M  V30 259 H 26.1565 1.70859 1.9037 0
M  V30 260 H 25.8005 3.18351 3.95746 0
M  V30 261 H 25.7305 1.72353 4.97596 0
M  V30 262 H 28.2215 1.61112 3.41835 0
M  V30 263 H 28.5345 3.84953 6.70098 0
M  V30 264 H 26.8795 3.45596 6.02983 0
M  V30 265 H 30.0705 2.07157 4.19766 0
M  V30 266 H 30.2435 3.0921 5.69468 0
M  V30 267 N 23.6496 -1.47581 0.552962 0
M  V30 268 C 24.5796 -2.32762 -0.185451 0
M  V30 269 C 25.5606 -1.43527 -0.912905 0
M  V30 270 O 26.7456 -1.72388 -0.894201 0
M  V30 271 C 23.8756 -3.25219 -1.21859 0
M  V30 272 C 22.8296 -4.23661 -0.607864 0
M  V30 273 C 22.1556 -5.05413 -1.74533 0
M  V30 274 C 23.4556 -5.20481 0.435582 0
M  V30 275 H 25.1496 -2.94749 0.525684 0
M  V30 276 H 22.6956 -1.41738 0.254251 0
M  V30 277 H 24.6486 -3.8365 -1.7433 0
M  V30 278 H 23.3726 -2.61279 -1.95961 0
M  V30 279 H 22.0316 -3.66451 -0.104489 0
M  V30 280 H 21.6796 -4.3788 -2.47529 0
M  V30 281 H 21.3796 -5.72059 -1.34249 0
M  V30 282 H 22.9036 -5.66701 -2.27338 0
M  V30 283 H 24.3176 -5.733 -0.00290157 0
M  V30 284 H 22.7146 -5.95305 0.757067 0
M  V30 285 H 23.7846 -4.66217 1.33303 0
M  V30 286 N 25.1277 -0.289203 -1.54924 0
M  V30 287 C 26.3527 0.329299 -2.04769 0
M  V30 288 C 26.7777 1.4763 -1.16564 0
M  V30 289 O 26.1357 1.80527 -0.167186 0
M  V30 290 C 26.1837 0.774438 -3.52186 0
M  V30 291 O 25.2877 1.88038 -3.67036 0
M  V30 292 H 24.6287 0.0659259 -0.660719 0
M  V30 293 H 27.1587 -0.42761 -2.00082 0
M  V30 294 H 27.1687 1.06642 -3.93816 0
M  V30 295 H 25.8437 -0.0646707 -4.1585 0
M  V30 296 H 24.4207 1.58985 -3.3731 0
M  V30 297 N 26.6058 1.57591 -0.0167156 0
M  V30 298 C 27.8828 1.82547 0.702564 0
M  V30 299 C 28.2628 0.898018 1.91047 0
M  V30 300 O 27.6108 -0.0493456 2.28447 0
M  V30 301 C 27.8208 3.31459 1.09251 0
M  V30 302 C 29.1688 3.97622 1.48937 0
M  V30 303 O 30.1928 3.35881 1.18584 0
M  V30 304 O 29.0518 5.06415 2.05442 0
M  V30 305 H 26.1458 0.752268 0.343544 0
M  V30 306 H 28.6918 1.69644 -0.0434495 0
M  V30 307 H 27.4638 3.9061 0.23227 0
M  V30 308 H 27.0868 3.49422 1.89709 0
M  V30 309 N 28.0839 -0.256276 1.55502 0
M  V30 310 C 29.3609 -1.00789 1.67633 0
M  V30 311 C 29.7409 -2.03706 0.553826 0
M  V30 312 O 29.0889 -2.24145 -0.443969 0
M  V30 313 C 29.2989 -1.64968 3.07549 0
M  V30 314 C 30.6469 -2.15505 3.65845 0
M  V30 315 O 31.6709 -1.74925 3.1029 0
M  V30 316 O 30.5299 -2.89986 4.63217 0
M  V30 317 H 27.6239 -0.468553 0.681459 0
M  V30 318 H 30.1699 -0.250806 1.67836 0
M  V30 319 H 28.9419 -0.904785 3.80696 0
M  V30 320 H 28.5649 -2.47321 3.11317 0
M  V30 321 N 29.562 -1.4872 -0.521534 0
M  V30 322 C 30.787 -1.61101 -1.30618 0
M  V30 323 C 31.212 -0.274611 -1.86085 0
M  V30 324 O 30.57 0.754937 -1.64834 0
M  V30 325 C 30.618 -2.66709 -2.4269 0
M  V30 326 O 29.722 -2.24456 -3.45967 0
M  V30 327 H 29.063 -0.539921 -0.386499 0
M  V30 328 H 31.593 -1.94767 -0.626645 0
M  V30 329 H 31.603 -2.88245 -2.88754 0
M  V30 330 H 30.278 -3.63727 -2.01682 0
M  V30 331 H 28.855 -2.13168 -3.05964 0
M  V30 332 N 31.0401 0.771051 -1.3745 0
M  V30 333 C 32.4561 1.07171 -1.18265 0
M  V30 334 C 32.6561 2.01491 -0.019287 0
M  V30 335 O 31.7121 2.44244 0.640408 0
M  V30 336 C 33.0251 1.66854 -2.50161 0
M  V30 337 C 34.5731 1.79109 -2.56689 0
M  V30 338 C 35.0481 2.42205 -3.88717 0
M  V30 339 N 36.5391 2.49655 -3.90162 0
M  V30 340 C 37.2741 2.9933 -4.8907 0
M  V30 341 N 36.7701 3.49172 -5.98374 0
M  V30 342 N 38.5631 2.9821 -4.76474 0
M  V30 343 H 30.7141 0.144796 -2.11906 0
M  V30 344 H 32.9771 0.126863 -0.939473 0
M  V30 345 H 32.6831 1.05017 -3.35655 0
M  V30 346 H 32.5571 2.6614 -2.673 0
M  V30 347 H 34.9441 2.40077 -1.71601 0
M  V30 348 H 35.0251 0.785757 -2.43433 0
M  V30 349 H 34.6691 1.81875 -4.74219 0
M  V30 350 H 34.5991 3.43345 -3.99276 0
M  V30 351 H 37.0901 2.14383 -3.11205 0
M  V30 352 H 37.4031 3.8548 -6.69795 0
M  V30 353 H 35.7481 3.47275 -6.02018 0
M  V30 354 H 38.9391 2.58572 -3.90203 0
M  V30 355 H 39.1121 3.36613 -5.53711 0
M  V30 356 N 32.5182 1.22032 0.997298 0
M  V30 357 C 33.4282 1.00271 2.12092 0
M  V30 358 C 34.4442 -0.047621 1.73935 0
M  V30 359 O 35.6202 0.144136 2.00884 0
M  V30 360 C 32.6852 0.578449 3.4184 0
M  V30 361 C 31.7462 1.70189 3.94125 0
M  V30 362 C 30.9792 1.29778 5.17681 0
M  V30 363 O 31.2022 0.174676 5.70132 0
M  V30 364 O 30.1362 2.11261 5.63607 0
M  V30 365 H 33.9622 1.94398 2.3333 0
M  V30 366 H 31.5472 1.00587 1.10465 0
M  V30 367 H 33.4292 0.351998 4.19927 0
M  V30 368 H 32.1042 -0.334019 3.21972 0
M  V30 369 H 31.0112 1.98282 3.1723 0
M  V30 370 H 32.3442 2.59206 4.18417 0
M  V30 371 N 33.9963 -1.19345 1.0293 0
M  V30 372 C 34.9263 -2.2481 0.631105 0
M  V30 373 C 35.9073 -1.66245 -0.360104 0
M  V30 374 O 37.0923 -1.92677 -0.242726 0
M  V30 375 C 34.2223 -3.47295 -0.0184607 0
M  V30 376 C 33.1763 -4.18536 0.895073 0
M  V30 377 C 32.5023 -5.34586 0.110592 0
M  V30 378 C 33.8023 -4.73287 2.209 0
M  V30 379 H 35.4963 -2.58372 1.51275 0
M  V30 380 H 33.0423 -1.24194 0.728818 0
M  V30 381 H 34.9953 -4.20268 -0.308675 0
M  V30 382 H 33.7193 -3.12933 -0.934907 0
M  V30 383 H 32.3783 -3.47446 1.16949 0
M  V30 384 H 32.0263 -4.96469 -0.807902 0
M  V30 385 H 31.7263 -5.83183 0.719087 0
M  V30 386 H 33.2503 -6.10355 -0.172871 0
M  V30 387 H 34.6643 -5.38013 1.98028 0
M  V30 388 H 33.0613 -5.32373 2.76946 0
M  V30 389 H 34.1313 -3.91331 2.86336 0
M  V30 390 N 35.4744 -0.807222 -1.35358 0
M  V30 391 C 36.4044 -0.232509 -2.3234 0
M  V30 392 C 37.3854 0.642386 -1.57504 0
M  V30 393 O 38.5704 0.572526 -1.85569 0
M  V30 394 C 35.7004 0.619238 -3.41735 0
M  V30 395 C 34.6544 -0.157215 -4.27711 0
M  V30 396 C 33.9804 0.816273 -5.28433 0
M  V30 397 C 35.2804 -1.35656 -5.04376 0
M  V30 398 H 36.9744 -1.04276 -2.80654 0
M  V30 399 H 34.5204 -0.50288 -1.34934 0
M  V30 400 H 36.4734 1.03137 -4.08584 0
M  V30 401 H 35.1974 1.46239 -2.92031 0
M  V30 402 H 33.8564 -0.550525 -3.62443 0
M  V30 403 H 33.5044 1.65494 -4.74996 0
M  V30 404 H 33.2044 0.301067 -5.86828 0
M  V30 405 H 34.7284 1.22659 -5.98153 0
M  V30 406 H 36.1424 -1.01927 -5.64166 0
M  V30 407 H 34.5394 -1.8063 -5.7227 0
M  V30 408 H 35.6094 -2.14288 -4.34981 0
M  V30 409 N 36.9525 1.47285 -0.560781 0
M  V30 410 C 37.9155 2.28535 0.174488 0
M  V30 411 C 38.9155 1.37153 0.839388 0
M  V30 412 O 40.1055 1.59748 0.694702 0
M  V30 413 C 37.2375 3.16934 1.25561 0
M  V30 414 H 38.4305 2.95012 -0.539262 0
M  V30 415 H 35.9835 1.53034 -0.317865 0
M  V30 416 H 36.7185 2.55157 2.00164 0
M  V30 417 H 36.5035 3.8419 0.783604 0
M  V30 418 H 37.9935 3.78143 1.77193 0
M  V30 419 N 38.4306 0.297415 1.54768 0
M  V30 420 C 39.8466 -0.0560823 1.59501 0
M  V30 421 C 40.0466 -1.52725 1.31444 0
M  V30 422 O 39.1026 -2.27947 1.08611 0
M  V30 423 C 40.4156 0.338631 2.98787 0
M  V30 424 C 41.9636 0.287097 3.11681 0
M  V30 425 C 42.4386 0.656579 4.53269 0
M  V30 426 N 43.9296 0.608977 4.59179 0
M  V30 427 C 44.6646 0.867385 5.66802 0
M  V30 428 N 44.1606 1.19157 6.82476 0
M  V30 429 N 45.9536 0.794687 5.56454 0
M  V30 430 H 38.1046 1.25624 1.71267 0
M  V30 431 H 40.3676 0.509057 0.799728 0
M  V30 432 H 40.0736 1.36263 3.2423 0
M  V30 433 H 39.9476 -0.309508 3.75928 0
M  V30 434 H 42.3346 -0.727649 2.85988 0
M  V30 435 H 42.4156 0.969809 2.36703 0
M  V30 436 H 42.0596 1.66912 4.7969 0
M  V30 437 H 41.9896 -0.0481649 5.26578 0
M  V30 438 H 44.4806 0.369198 3.76092 0
M  V30 439 H 44.7936 1.37482 7.60473 0
M  V30 440 H 43.1386 1.22958 6.84037 0
M  V30 441 H 46.3296 0.541098 4.64962 0
M  V30 442 H 46.5026 0.999445 6.40246 0
M  V30 443 N 39.9087 -1.5758 0.0250728 0
M  V30 444 C 41.1487 -1.93497 -0.65865 0
M  V30 445 C 41.5127 -0.901409 -1.69525 0
M  V30 446 O 42.7137 -1.14664 -2.43116 0
M  V30 447 C 40.9847 -3.34352 -1.26267 0
M  V30 448 S 42.5437 -3.92191 -1.96803 0
M  V30 449 H 39.3617 -0.67709 -0.216958 0
M  V30 450 H 41.9637 -1.95303 0.0877692 0
M  V30 451 H 40.6677 -4.07395 -0.495741 0
M  V30 452 H 40.1987 -3.3598 -2.04648 0
M  V30 453 H 42.2137 -3.75298 -3.24601 0
M  V30 454 N 41.3868 0.248026 -1.55636 0
M  V30 455 C 42.6348 0.974295 -1.77065 0
M  V30 456 C 42.9558 1.85897 -0.588849 0
M  V30 457 O 42.2258 1.91868 0.395407 0
M  V30 458 H 40.8058 0.362733 -0.653019 0
M  V30 459 H 43.4678 0.266244 -1.93073 0
M  V30 460 H 42.5638 1.59667 -2.68166 0
M  V30 461 N 42.8649 1.48995 0.513639 0
M  V30 462 C 44.1139 1.57093 1.2651 0
M  V30 463 C 44.4269 0.257091 1.93903 0
M  V30 464 O 45.6329 0.216478 2.70636 0
M  V30 465 C 44.0889 2.77118 2.29638 0
M  V30 466 C 43.6969 4.15209 1.68241 0
M  V30 467 C 45.4409 2.94538 3.05692 0
M  V30 468 C 43.3479 5.26474 2.69406 0
M  V30 469 H 42.2779 0.584876 0.475854 0
M  V30 470 H 44.9289 1.7536 0.540487 0
M  V30 471 H 43.3109 2.52319 3.05207 0
M  V30 472 H 44.4849 4.50094 0.987505 0
M  V30 473 H 42.7999 4.03042 1.04623 0
M  V30 474 H 45.3969 3.74832 3.8132 0
M  V30 475 H 45.7399 2.04614 3.62545 0
M  V30 476 H 46.2729 3.19316 2.37238 0
M  V30 477 H 43.0119 6.18417 2.17351 0
M  V30 478 H 42.5319 4.96058 3.37175 0
M  V30 479 H 44.2109 5.55277 3.32078 0
M  V30 480 N 44.343 -0.763751 1.37857 0
M  V30 481 C 45.29 -1.87726 1.34267 0
M  V30 482 C 46.26 -1.64807 0.206879 0
M  V30 483 O 47.445 -1.86613 0.397508 0
M  V30 484 C 44.585 -3.24896 1.16346 0
M  V30 485 C 43.698 -3.59716 2.39225 0
M  V30 486 C 42.833 -4.86137 2.14114 0
M  V30 487 C 41.872 -5.13711 3.32817 0
M  V30 488 N 41.009 -6.31323 3.07206 0
M  V30 489 H 45.849 -1.90129 2.29466 0
M  V30 490 H 43.386 -0.929433 1.14017 0
M  V30 491 H 45.344 -4.04036 1.03975 0
M  V30 492 H 43.974 -3.21847 0.247909 0
M  V30 493 H 43.026 -2.75498 2.62307 0
M  V30 494 H 44.338 -3.76027 3.27728 0
M  V30 495 H 43.492 -5.73198 1.9882 0
M  V30 496 H 42.231 -4.71945 1.22961 0
M  V30 497 H 41.236 -4.25123 3.48641 0
M  V30 498 H 42.461 -5.29807 4.24832 0
M  V30 499 H 40.407 -6.18474 2.1869 0
M  V30 500 H 40.324 -6.48087 3.89254 0
M  V30 501 H 41.592 -7.213 2.95546 0
M  V30 502 N 45.8211 -1.22559 -0.990812 0
M  V30 503 C 47.0701 -1.04553 -1.72486 0
M  V30 504 C 47.3831 0.419349 -1.91052 0
M  V30 505 O 48.5891 0.719121 -2.61803 0
M  V30 506 C 47.0451 -1.82231 -3.10355 0
M  V30 507 C 46.6531 -3.32981 -2.99713 0
M  V30 508 C 48.3971 -1.7268 -3.87791 0
M  V30 509 C 46.3041 -4.03091 -4.32748 0
M  V30 510 H 45.2341 -0.387614 -0.646739 0
M  V30 511 H 47.8851 -1.46429 -1.10593 0
M  V30 512 H 46.2671 -1.33155 -3.72942 0
M  V30 513 H 47.4411 -3.89466 -2.46278 0
M  V30 514 H 45.7561 -3.43231 -2.35758 0
M  V30 515 H 48.3531 -2.22381 -4.86262 0
M  V30 516 H 48.6961 -0.687607 -4.10582 0
M  V30 517 H 49.2291 -2.1931 -3.31885 0
M  V30 518 H 45.9681 -5.07273 -4.15156 0
M  V30 519 H 45.4881 -3.51394 -4.86089 0
M  V30 520 H 47.1671 -4.08804 -5.01486 0
M  V30 521 N 47.2992 1.18797 -1.03562 0
M  V30 522 C 48.2472 2.24297 -0.615905 0
M  V30 523 C 49.2412 1.65643 0.354808 0
M  V30 524 O 50.4472 1.78618 0.22265 0
M  V30 525 H 46.8222 0.729909 -0.180934 0
M  V30 526 H 48.7932 2.5701 -1.5162 0
M  V30 527 C 47.5422 3.47698 0.0104735 0
M  V30 528 H 46.8652 3.93125 -0.727509 0
M  V30 529 H 48.3052 4.23159 0.266995 0
M  V30 530 C 46.7642 3.12489 1.25905 0
M  V30 531 O 47.2942 3.25761 2.35038 0
M  V30 532 N 45.5002 2.6686 1.15039 0
M  V30 533 H 45.0472 2.56261 0.262328 0
M  V30 534 H 45.0052 2.43674 1.98672 0
M  V30 535 N 48.7773 0.814389 1.34928 0
M  V30 536 C 49.7073 0.244827 2.32213 0
M  V30 537 C 50.6883 -0.634024 1.57842 0
M  V30 538 O 51.8733 -0.562676 1.8587 0
M  V30 539 C 49.0033 -0.601106 3.42058 0
M  V30 540 C 47.9573 0.179896 4.27622 0
M  V30 541 C 47.2833 -0.788237 5.28858 0
M  V30 542 C 48.5833 1.38329 5.03649 0
M  V30 543 H 50.2773 1.05763 2.80097 0
M  V30 544 H 47.8233 0.510029 1.34665 0
M  V30 545 H 49.7763 -1.00968 4.09125 0
M  V30 546 H 48.5003 -1.44688 2.92802 0
M  V30 547 H 47.1593 0.569739 3.62146 0
M  V30 548 H 46.8073 -1.62973 4.75866 0
M  V30 549 H 46.5073 -0.269942 5.8698 0
M  V30 550 H 48.0313 -1.19485 5.98795 0
M  V30 551 H 49.4453 1.04918 5.63618 0
M  V30 552 H 47.8423 1.83662 5.71304 0
M  V30 553 H 48.9123 2.16592 4.33839 0
M  V30 554 N 50.2554 -1.46986 0.568584 0
M  V30 555 C 51.2054 -2.27179 -0.193339 0
M  V30 556 C 52.1894 -1.35035 -0.874895 0
M  V30 557 O 53.3814 -1.5931 -0.771322 0
M  V30 558 C 50.5104 -3.21063 -1.21546 0
M  V30 559 C 49.5964 -4.2069 -0.536738 0
M  V30 560 N 49.9874 -5.04218 0.399673 0
M  V30 561 C 48.2854 -4.38961 -0.789254 0
M  V30 562 C 48.9864 -5.76242 0.795017 0
M  V30 563 N 47.9624 -5.434 0.1473 0
M  V30 564 H 51.7644 -2.89146 0.526458 0
M  V30 565 H 49.2784 -1.57664 0.389342 0
M  V30 566 H 51.2754 -3.77209 -1.77536 0
M  V30 567 H 49.9354 -2.60654 -1.93623 0
M  V30 568 H 50.9464 -5.12077 0.774454 0
M  V30 569 H 47.6234 -3.89713 -1.49767 0
M  V30 570 H 49.0134 -6.53417 1.56513 0
M  V30 571 N 51.7335 -0.305618 -1.54608 0
M  V30 572 C 52.9615 0.304775 -2.04643 0
M  V30 573 C 53.3765 1.47167 -1.18268 0
M  V30 574 O 52.7335 1.81296 -0.209328 0
M  V30 575 C 52.7845 0.756564 -3.53495 0
M  V30 576 O 52.5055 -0.36389 -4.36586 0
M  V30 577 C 54.0065 1.43163 -4.19546 0
M  V30 578 H 51.2265 0.0655481 -0.667791 0
M  V30 579 H 53.7705 -0.446592 -1.99564 0
M  V30 580 H 51.9255 1.45794 -3.58919 0
M  V30 581 H 52.3395 -0.0113121 -5.24499 0
M  V30 582 H 53.8135 1.69886 -5.25207 0
M  V30 583 H 54.2905 2.37318 -3.69563 0
M  V30 584 H 54.8965 0.773307 -4.18211 0
M  V30 585 N 53.2116 1.57565 -0.0334293 0
M  V30 586 C 54.1436 2.0739 0.975811 0
M  V30 587 C 55.1566 0.998166 1.2861 0
M  V30 588 O 56.3456 1.27426 1.25 0
M  V30 589 C 53.4456 2.4871 2.30209 0
M  V30 590 C 52.6186 3.79413 2.17634 0
M  V30 591 C 51.6776 4.07237 3.33233 0
M  V30 592 O 50.7036 4.77425 3.09927 0
M  V30 593 N 51.9056 3.5775 4.5716 0
M  V30 594 H 54.6706 2.94598 0.55066 0
M  V30 595 H 52.2316 1.61173 0.15323 0
M  V30 596 H 54.2236 2.64413 3.06378 0
M  V30 597 H 52.7936 1.66845 2.64351 0
M  V30 598 H 52.0136 3.73465 1.26165 0
M  V30 599 H 53.3016 4.65038 2.0644 0
M  V30 600 H 52.6996 3.00976 4.78989 0
M  V30 601 H 51.2566 3.78724 5.30482 0
M  V30 602 N 54.6897 -0.239769 1.55765 0
M  V30 603 C 56.1057 -0.588624 1.48349 0
M  V30 604 C 56.3057 -1.88005 0.72502 0
M  V30 605 O 55.3617 -2.51186 0.257269 0
M  V30 606 C 56.6747 -0.68474 2.928 0
M  V30 607 C 58.2227 -0.77659 3.03213 0
M  V30 608 C 58.6977 -0.904207 4.48986 0
M  V30 609 N 60.1887 -0.968896 4.52953 0
M  V30 610 C 60.9237 -1.08703 5.63002 0
M  V30 611 N 60.4197 -1.17026 6.82845 0
M  V30 612 N 62.2127 -1.12074 5.50814 0
M  V30 613 H 54.3637 0.607911 2.03515 0
M  V30 614 H 56.6267 0.21083 0.924259 0
M  V30 615 H 56.3327 0.194284 3.51163 0
M  V30 616 H 56.2067 -1.55435 3.43686 0
M  V30 617 H 58.5937 -1.64606 2.44926 0
M  V30 618 H 58.6747 0.118315 2.55526 0
M  V30 619 H 58.3187 -0.0392633 5.07885 0
M  V30 620 H 58.2487 -1.81426 4.9436 0
M  V30 621 H 60.7397 -0.915633 3.6664 0
M  V30 622 H 61.0527 -1.25966 7.62465 0
M  V30 623 H 59.3977 -1.13971 6.85591 0
M  V30 624 H 62.5887 -1.05226 4.5612 0
M  V30 625 H 62.7617 -1.20936 6.36615 0
M  V30 626 N 56.1678 -1.49265 -0.50573 0
M  V30 627 C 57.0978 -1.68495 -1.61653 0
M  V30 628 C 58.0788 -0.53366 -1.61512 0
M  V30 629 O 59.2638 -0.76897 -1.78327 0
M  V30 630 C 56.3938 -1.74709 -3.00157 0
M  V30 631 C 55.3478 -2.89581 -3.15162 0
M  V30 632 C 54.6738 -2.80903 -4.5497 0
M  V30 633 C 55.9738 -4.30578 -2.95634 0
M  V30 634 H 57.6678 -2.61493 -1.45814 0
M  V30 635 H 55.2138 -1.25838 -0.70005 0
M  V30 636 H 57.1668 -1.86748 -3.77761 0
M  V30 637 H 55.8908 -0.783067 -3.17074 0
M  V30 638 H 54.5498 -2.77136 -2.39982 0
M  V30 639 H 54.1978 -1.82419 -4.68756 0
M  V30 640 H 53.8978 -3.57999 -4.65951 0
M  V30 641 H 55.4218 -2.94944 -5.34641 0
M  V30 642 H 56.8358 -4.4373 -3.63011 0
M  V30 643 H 55.2328 -5.0886 -3.18091 0
M  V30 644 H 56.3028 -4.45352 -1.91806 0
M  V30 645 N 57.6459 0.756429 -1.3826 0
M  V30 646 C 58.8949 1.51082 -1.3363 0
M  V30 647 C 59.2079 1.95467 0.0720068 0
M  V30 648 O 60.4139 2.7043 0.240834 0
M  V30 649 C 58.8699 2.72893 -2.34644 0
M  V30 650 C 58.4779 2.35544 -3.81081 0
M  V30 651 C 60.2219 3.50791 -2.39052 0
M  V30 652 C 58.1289 3.53948 -4.73787 0
M  V30 653 H 57.0589 0.56727 -0.49671 0
M  V30 654 H 59.7099 0.827147 -1.638 0
M  V30 655 H 58.0919 3.43227 -1.97513 0
M  V30 656 H 59.2659 1.72894 -4.27135 0
M  V30 657 H 57.5809 1.70786 -3.79764 0
M  V30 658 H 60.1779 4.38823 -3.05513 0
M  V30 659 H 60.5209 3.91745 -1.40861 0
M  V30 660 H 61.0539 2.87467 -2.74968 0
M  V30 661 H 57.7929 3.18064 -5.73163 0
M  V30 662 H 57.3129 4.15651 -4.32428 0
M  V30 663 H 58.9919 4.20566 -4.91663 0
M  V30 664 N 59.124 1.23083 0.984299 0
M  V30 665 C 60.087 1.00979 2.05757 0
M  V30 666 C 61.087 -0.0269573 1.60777 0
M  V30 667 O 62.277 0.212403 1.729 0
M  V30 668 C 59.409 0.527072 3.36801 0
M  V30 669 H 60.602 1.9622 2.26799 0
M  V30 670 H 58.155 1.05072 1.15714 0
M  V30 671 H 58.89 -0.429294 3.21446 0
M  V30 672 H 58.675 1.27515 3.70786 0
M  V30 673 H 60.165 0.392942 4.15747 0
M  V30 674 N 60.6021 -1.18246 1.0419 0
M  V30 675 C 61.5351 -2.20746 0.578474 0
M  V30 676 C 62.5131 -1.57912 -0.387624 0
M  V30 677 O 63.6971 -1.86071 -0.301634 0
M  V30 678 C 60.8241 -3.38346 -0.154762 0
M  V30 679 C 59.8701 -4.19587 0.764782 0
M  V30 680 S 60.7031 -4.86014 2.24835 0
M  V30 681 C 61.8591 -6.07012 1.526 0
M  V30 682 H 62.0921 -2.59715 1.44691 0
M  V30 683 H 59.6251 -1.287 0.85297 0
M  V30 684 H 61.5831 -4.065 -0.571641 0
M  V30 685 H 60.2441 -2.97786 -0.999105 0
M  V30 686 H 59.4371 -5.03611 0.197976 0
M  V30 687 H 59.0391 -3.56818 1.12057 0
M  V30 688 H 61.3311 -6.72523 0.819733 0
M  V30 689 H 62.2741 -6.68202 2.34333 0
M  V30 690 H 62.6821 -5.55249 1.01779 0
M  V30 691 N 62.0802 -0.821533 -1.34494 0
M  V30 692 C 63.0432 -0.247847 -2.27856 0
M  V30 693 C 64.0432 0.573453 -1.50227 0
M  V30 694 O 65.2332 0.389759 -1.69784 0
M  V30 695 C 62.3652 0.652698 -3.34593 0
M  V30 696 H 63.5582 -1.07146 -2.80107 0
M  V30 697 H 61.1112 -0.593291 -1.44602 0
M  V30 698 H 61.8462 1.49943 -2.87555 0
M  V30 699 H 61.6312 0.065292 -3.92046 0
M  V30 700 H 63.1212 1.04793 -4.04238 0
M  V30 701 N 63.5583 1.46682 -0.576371 0
M  V30 702 C 64.4683 2.34032 0.163141 0
M  V30 703 C 65.4843 1.49367 0.892501 0
M  V30 704 O 66.6603 1.82252 0.857106 0
M  V30 705 C 63.7253 3.26435 1.16795 0
M  V30 706 C 62.7863 4.26998 0.443944 0
M  V30 707 C 62.0193 5.14986 1.40088 0
M  V30 708 O 62.2423 5.05785 2.637 0
M  V30 709 O 61.1763 5.94906 0.914917 0
M  V30 710 H 65.0023 2.98607 -0.55388 0
M  V30 711 H 62.5873 1.45554 -0.336821 0
M  V30 712 H 64.4693 3.83459 1.74748 0
M  V30 713 H 63.1443 2.64465 1.86655 0
M  V30 714 H 62.0513 3.7368 -0.177271 0
M  V30 715 H 63.3843 4.91736 -0.213566 0
M  V30 716 N 65.0364 0.313813 1.54444 0
M  V30 717 C 65.9844 -0.572171 2.25453 0
M  V30 718 C 66.9784 -1.12657 1.2651 0
M  V30 719 O 68.1844 -1.07573 1.44319 0
M  V30 720 H 64.5594 -0.203146 0.724041 0
M  V30 721 H 66.5304 0.0491145 2.9836 0
M  V30 722 C 65.2794 -1.72626 3.0182 0
M  V30 723 H 64.6024 -1.30891 3.77767 0
M  V30 724 H 66.0424 -2.32199 3.54767 0
M  V30 725 C 64.5014 -2.63806 2.09542 0
M  V30 726 O 65.0314 -3.65256 1.67185 0
M  V30 727 N 63.2374 -2.31824 1.75232 0
M  V30 728 H 62.7844 -1.49368 2.09873 0
M  V30 729 H 62.7424 -2.93095 1.13767 0
M  V30 730 N 66.5145 -1.57545 0.0417849 0
M  V30 731 C 67.4475 -2.06514 -0.970928 0
M  V30 732 C 68.4255 -0.963607 -1.30971 0
M  V30 733 O 69.6095 -1.23486 -1.4242 0
M  V30 734 C 66.7365 -2.4978 -2.28752 0
M  V30 735 C 65.7825 -3.71078 -2.10246 0
M  V30 736 S 66.6155 -5.17158 -1.38952 0
M  V30 737 C 67.7715 -5.6373 -2.71954 0
M  V30 738 H 68.0045 -2.9209 -0.554129 0
M  V30 739 H 65.5375 -1.53459 -0.17024 0
M  V30 740 H 67.4955 -2.75371 -3.04435 0
M  V30 741 H 66.1565 -1.64527 -2.67562 0
M  V30 742 H 65.3495 -3.9924 -3.07609 0
M  V30 743 H 64.9515 -3.45705 -1.42704 0
M  V30 744 H 67.2435 -5.68743 -3.68154 0
M  V30 745 H 68.1865 -6.63086 -2.4844 0
M  V30 746 H 68.5945 -4.91424 -2.77782 0
M  V30 747 N 67.9926 0.231505 -1.5589 0
M  V30 748 C 69.4036 0.799327 -1.68724 0
M  V30 749 C 69.7546 1.85398 -0.642022 0
M  V30 750 O 68.8796 2.1539 0.208784 0
M  V30 751 C 69.4746 1.45664 -3.05888 0
M  V30 752 C 68.0336 1.97197 -3.20609 0
M  V30 753 C 67.1806 0.828552 -2.64632 0
M  V30 754 H 70.1316 0.00702616 -1.58698 0
M  V30 755 H 70.1526 2.32517 -3.01191 0
M  V30 756 H 69.6646 0.688808 -3.81939 0
M  V30 757 H 67.7656 2.76813 -2.4941 0
M  V30 758 H 67.8786 2.15878 -4.27707 0
M  V30 759 H 66.2426 1.23321 -2.22854 0
M  V30 760 H 67.0256 0.0735544 -3.43221 0
M  V30 761 N 69.4707 1.49531 0.497807 0
M  V30 762 C 70.7197 1.58426 1.24837 0
M  V30 763 C 71.0327 0.277643 1.93619 0
M  V30 764 O 72.2387 0.24517 2.70391 0
M  V30 765 C 70.6947 2.79538 2.26686 0
M  V30 766 C 70.3027 4.16971 1.63828 0
M  V30 767 C 72.0467 2.97764 3.0255 0
M  V30 768 C 69.9537 5.29301 2.63807 0
M  V30 769 H 68.8837 0.58989 0.469623 0
M  V30 770 H 71.5347 1.75923 0.521857 0
M  V30 771 H 69.9167 2.55542 3.02514 0
M  V30 772 H 71.0907 4.51116 0.939711 0
M  V30 773 H 69.4057 4.04129 1.00342 0
M  V30 774 H 72.0027 3.78856 3.77323 0
M  V30 775 H 72.3457 2.08448 3.60354 0
M  V30 776 H 72.8787 3.21815 2.33838 0
M  V30 777 H 69.6177 6.20687 2.10779 0
M  V30 778 H 69.1377 4.99606 3.31894 0
M  V30 779 H 70.8167 5.58768 3.2617 0
M  V30 780 N 70.9488 -0.749086 1.3866 0
M  V30 781 C 72.2258 -1.4992 1.25632 0
M  V30 782 C 72.6058 -2.10633 -0.140317 0
M  V30 783 O 71.9538 -1.97437 -1.15025 0
M  V30 784 C 72.1638 -2.56195 2.36992 0
M  V30 785 C 73.5118 -3.22972 2.75634 0
M  V30 786 O 74.5358 -2.66502 2.36337 0
M  V30 787 O 73.3948 -4.25122 3.43415 0
M  V30 788 H 70.4888 -0.665067 0.491544 0
M  V30 789 H 73.0348 -0.784113 1.50498 0
M  V30 790 H 71.8068 -2.09612 3.30422 0
M  V30 791 H 71.4298 -3.35279 2.13714 0
M  V30 792 N 72.4269 -1.23603 -0.977757 0
M  V30 793 C 73.6759 -1.06377 -1.71368 0
M  V30 794 C 73.9889 0.399062 -1.91486 0
M  V30 795 O 75.1949 0.691312 -2.62551 0
M  V30 796 C 73.6509 -1.85512 -3.08404 0
M  V30 797 C 73.2589 -3.36141 -2.96164 0
M  V30 798 C 75.0029 -1.76783 -3.85938 0
M  V30 799 C 72.9099 -4.07659 -4.28449 0
M  V30 800 H 71.8399 -0.394452 -0.642591 0
M  V30 801 H 74.4909 -1.47594 -1.09034 0
M  V30 802 H 72.8729 -1.37103 -3.71509 0
M  V30 803 H 74.0469 -3.92056 -2.42133 0
M  V30 804 H 72.3619 -3.45712 -2.32104 0
M  V30 805 H 74.9589 -2.27526 -4.83876 0
M  V30 806 H 75.3019 -0.731116 -4.0983 0
M  V30 807 H 75.8349 -2.22818 -3.2954 0
M  V30 808 H 72.5739 -5.11648 -4.09752 0
M  V30 809 H 72.0939 -3.5653 -4.82334 0
M  V30 810 H 73.7729 -4.141 -4.97122 0
M  V30 811 N 73.905 1.17692 -1.04816 0
M  V30 812 C 74.835 2.23777 -0.666791 0
M  V30 813 C 75.816 1.66796 0.33361 0
M  V30 814 O 77.001 1.93039 0.212042 0
M  V30 815 C 74.131 3.47281 -0.0367933 0
M  V30 816 C 73.085 4.17059 -0.961546 0
M  V30 817 C 72.411 5.34342 -0.195626 0
M  V30 818 C 73.711 4.69713 -2.28402 0
M  V30 819 H 75.405 2.55933 -1.55367 0
M  V30 820 H 72.951 1.23019 -0.748484 0
M  V30 821 H 74.904 4.20706 0.241775 0
M  V30 822 H 73.628 3.14381 0.885004 0
M  V30 823 H 72.287 3.45541 -1.22462 0
M  V30 824 H 71.935 4.97692 0.728816 0
M  V30 825 H 71.635 5.81966 -0.811775 0
M  V30 826 H 73.159 6.10553 0.0757473 0
M  V30 827 H 74.573 5.34794 -2.06563 0
M  V30 828 H 72.97 5.279 -2.8538 0
M  V30 829 H 74.04 3.86726 -2.92525 0
M  V30 830 N 75.3831 0.828654 1.34056 0
M  V30 831 C 76.7991 0.515135 1.51058 0
M  V30 832 C 76.9991 -0.959581 1.77184 0
M  V30 833 O 76.0551 -1.74382 1.82612 0
M  V30 834 C 77.3681 1.37963 2.67183 0
M  V30 835 C 78.9161 1.37735 2.81066 0
M  V30 836 C 79.3911 2.22645 4.00241 0
M  V30 837 N 80.8821 2.203 4.07458 0
M  V30 838 C 81.6171 2.82744 4.98842 0
M  V30 839 N 81.1131 3.54201 5.9541 0
M  V30 840 N 82.9061 2.72268 4.91759 0
M  V30 841 H 75.0571 1.78343 1.15358 0
M  V30 842 H 77.3201 0.760304 0.566252 0
M  V30 843 H 77.0261 2.42714 2.54525 0
M  V30 844 H 76.9001 1.0484 3.62338 0
M  V30 845 H 79.2871 0.337593 2.93163 0
M  V30 846 H 79.3681 1.74859 1.86703 0
M  V30 847 H 79.0121 3.26674 3.88905 0
M  V30 848 H 78.9421 1.82869 4.93829 0
M  V30 849 H 81.4331 1.68327 3.38341 0
M  V30 850 H 81.7461 3.9908 6.61782 0
M  V30 851 H 80.0911 3.58308 5.95517 0
M  V30 852 H 83.2821 2.16014 4.15278 0
M  V30 853 H 83.4551 3.21219 5.62781 0
M  V30 854 N 76.8612 -1.46375 0.584142 0
M  V30 855 C 78.1072 -2.02678 0.0703716 0
M  V30 856 C 78.4402 -1.4545 -1.28678 0
M  V30 857 O 77.7152 -0.62014 -1.84349 0
M  V30 858 C 77.9982 -3.60099 0.00614674 0
M  V30 859 C 77.8512 -4.27709 1.3923 0
M  V30 860 C 79.1702 -4.34598 -0.693742 0
M  V30 861 H 76.2892 -0.736504 0.027047 0
M  V30 862 H 78.9312 -1.74501 0.751615 0
M  V30 863 H 77.0812 -3.84236 -0.574009 0
M  V30 864 H 78.7532 -4.14832 2.01773 0
M  V30 865 H 76.9962 -3.87016 1.95962 0
M  V30 866 H 77.6672 -5.36478 1.29982 0
M  V30 867 H 80.1432 -4.15615 -0.200869 0
M  V30 868 H 79.0192 -5.44318 -0.707714 0
M  V30 869 H 79.2802 -4.05759 -1.75533 0
M  V30 870 N 78.3393 -0.321999 -1.54275 0
M  V30 871 C 79.7553 0.0306999 -1.5957 0
M  V30 872 C 79.9553 1.50614 -1.33857 0
M  V30 873 O 79.0113 2.2619 -1.12223 0
M  V30 874 C 80.3243 -0.386122 -2.98211 0
M  V30 875 C 81.8723 -0.336647 -3.11184 0
M  V30 876 C 82.3473 -0.728607 -4.52167 0
M  V30 877 N 83.8383 -0.681952 -4.58152 0
M  V30 878 C 84.5733 -0.957449 -5.6535 0
M  V30 879 N 84.0693 -1.3 -6.80494 0
M  V30 880 N 85.8623 -0.883113 -5.55119 0
M  V30 881 H 78.0133 -1.28332 -1.69247 0
M  V30 882 H 80.2763 -0.521716 -0.791528 0
M  V30 883 H 79.9823 -1.41404 -3.22022 0
M  V30 884 H 79.8563 0.249662 -3.76373 0
M  V30 885 H 82.2433 0.682058 -2.8711 0
M  V30 886 H 82.3243 -1.00734 -2.3513 0
M  V30 887 H 81.9683 -1.74522 -4.76974 0
M  V30 888 H 81.8983 -0.0356152 -5.26588 0
M  V30 889 H 84.3893 -0.428985 -3.75457 0
M  V30 890 H 84.7023 -1.49563 -7.58189 0
M  V30 891 H 83.0473 -1.33824 -6.81994 0
M  V30 892 H 86.2383 -0.615001 -4.64042 0
M  V30 893 H 86.4113 -1.10118 -6.38575 0
M  V30 894 N 79.8174 1.5752 -0.0501392 0
M  V30 895 C 81.0944 1.83996 0.663685 0
M  V30 896 C 81.4744 0.938339 1.89099 0
M  V30 897 O 80.8224 -0.00087759 2.285 0
M  V30 898 C 81.0324 3.33702 1.02196 0
M  V30 899 C 82.3804 4.00691 1.40469 0
M  V30 900 O 83.4044 3.38321 1.11433 0
M  V30 901 O 82.2634 5.10658 1.94654 0
M  V30 902 H 79.3574 0.759385 0.32751 0
M  V30 903 H 81.9034 1.69514 -0.0794238 0
M  V30 904 H 80.6754 3.91015 0.149364 0
M  V30 905 H 80.2984 3.53368 1.82255 0
M  V30 906 N 81.2955 -0.223234 1.56011 0
M  V30 907 C 82.5725 -0.972108 1.69733 0
M  V30 908 C 82.9525 -2.02485 0.59691 0
M  V30 909 O 82.3005 -2.25037 -0.396324 0
M  V30 910 C 82.5105 -1.58407 3.10979 0
M  V30 911 C 83.8585 -2.07696 3.70334 0
M  V30 912 O 84.8825 -1.68304 3.1393 0
M  V30 913 O 83.7415 -2.80096 4.69264 0
M  V30 914 H 80.8355 -0.453993 0.691245 0
M  V30 915 H 83.3815 -0.215149 1.68331 0
M  V30 916 H 82.1535 -0.823831 3.82529 0
M  V30 917 H 81.7765 -2.40661 3.16493 0
M  V30 918 N 82.7736 -1.49793 -0.48987 0
M  V30 919 C 84.0506 -1.50348 -1.25119 0
M  V30 920 C 84.4306 -0.237466 -2.0976 0
M  V30 921 O 83.7786 0.77981 -2.14782 0
M  V30 922 C 83.9886 -2.78872 -2.09837 0
M  V30 923 C 85.3366 -3.288 -2.68655 0
M  V30 924 O 86.3606 -2.80065 -2.20096 0
M  V30 925 O 85.2196 -4.13707 -3.57083 0
M  V30 926 H 82.3136 -0.602242 -0.566775 0
M  V30 927 H 84.8596 -1.62067 -0.503229 0
M  V30 928 H 83.6316 -3.62499 -1.47343 0
M  V30 929 H 83.2546 -2.70066 -2.91805 0
M  V30 930 N 84.2517 0.741722 -1.39055 0
M  V30 931 C 85.5007 1.49656 -1.35225 0
M  V30 932 C 85.8137 1.95533 0.0512708 0
M  V30 933 O 87.0197 2.7067 0.212138 0
M  V30 934 C 85.4757 2.70389 -2.37525 0
M  V30 935 C 85.0837 2.31489 -3.83558 0
M  V30 936 C 86.8277 3.48236 -2.42759 0
M  V30 937 C 84.7347 3.48903 -4.77515 0
M  V30 938 H 83.6647 0.56197 -0.502699 0
M  V30 939 H 86.3157 0.809727 -1.64668 0
M  V30 940 H 84.6977 3.41113 -2.01142 0
M  V30 941 H 85.8717 1.68354 -4.28945 0
M  V30 942 H 84.1867 1.66749 -3.81554 0
M  V30 943 H 86.7837 4.35558 -3.1015 0
M  V30 944 H 87.1267 3.90229 -1.45008 0
M  V30 945 H 87.6597 2.84535 -2.78002 0
M  V30 946 H 84.3987 3.11966 -5.76504 0
M  V30 947 H 83.9187 4.11041 -4.36813 0
M  V30 948 H 85.5977 4.15328 -4.96096 0
M  V30 949 N 85.7298 1.2412 0.971189 0
M  V30 950 C 87.1408 1.07236 1.52831 0
M  V30 951 C 87.4918 -0.357352 1.92918 0
M  V30 952 O 86.6168 -1.24528 1.76979 0
M  V30 953 C 87.2118 1.94043 2.77728 0
M  V30 954 C 85.7708 1.81394 3.29808 0
M  V30 955 C 84.9178 1.89189 2.02738 0
M  V30 956 H 87.8688 1.37648 0.789864 0
M  V30 957 H 87.8898 1.47066 3.5093 0
M  V30 958 H 87.4018 2.98093 2.4852 0
M  V30 959 H 85.5028 0.801634 3.63874 0
M  V30 960 H 85.6158 2.65294 3.98944 0
M  V30 961 H 83.9798 1.32877 2.17292 0
M  V30 962 H 84.7628 2.94812 1.759 0
M  V30 963 N 87.2079 -1.17134 1.05439 0
M  V30 964 C 88.4559 -1.87085 0.764429 0
M  V30 965 C 88.7769 -1.81584 -0.710787 0
M  V30 966 O 88.0469 -1.24349 -1.51374 0
M  V30 967 H 86.6269 -0.692627 0.279779 0
M  V30 968 H 89.2889 -1.42087 1.33406 0
M  V30 969 H 88.3849 -2.92759 1.0816 0
M  V30 970 N 88.686 -0.835752 -1.33615 0
M  V30 971 C 89.616 -0.281739 -2.31794 0
M  V30 972 C 90.597 0.608833 -1.58831 0
M  V30 973 O 91.782 0.533035 -1.86741 0
M  V30 974 C 88.912 0.546612 -3.42971 0
M  V30 975 C 87.866 -0.247904 -4.27281 0
M  V30 976 C 87.192 0.704001 -5.30045 0
M  V30 977 C 88.492 -1.46324 -5.01385 0
M  V30 978 H 90.186 -1.10206 -2.78379 0
M  V30 979 H 87.732 -0.531388 -1.33837 0
M  V30 980 H 89.685 0.944467 -4.1068 0
M  V30 981 H 88.409 1.40011 -2.95067 0
M  V30 982 H 87.068 -0.627281 -3.61194 0
M  V30 983 H 86.716 1.55381 -4.78399 0
M  V30 984 H 86.416 0.176524 -5.87335 0
M  V30 985 H 87.94 1.09944 -6.0062 0
M  V30 986 H 89.354 -1.13871 -5.61877 0
M  V30 987 H 87.751 -1.92728 -5.6831 0
M  V30 988 H 88.821 -2.23467 -4.30338 0
M  V30 989 N 90.1641 1.46063 -0.591896 0
M  V30 990 C 91.4101 2.02638 -0.0811191 0
M  V30 991 C 91.7431 1.4613 1.27905 0
M  V30 992 O 91.0181 0.629908 1.84017 0
M  V30 993 C 91.3011 3.60091 -0.0252436 0
M  V30 994 C 91.1541 4.26965 -1.41496 0
M  V30 995 C 92.4731 4.3496 0.670685 0
M  V30 996 H 89.5921 0.73635 -0.0309524 0
M  V30 997 H 92.2341 1.741 -0.760859 0
M  V30 998 H 90.3841 3.84535 0.553624 0
M  V30 999 H 92.0561 4.13756 -2.0397 0
M  V30 1000 H 90.2991 3.85971 -1.98011 0
M  V30 1001 H 90.9701 5.35781 -1.32825 0
M  V30 1002 H 93.4461 4.15716 0.178825 0
M  V30 1003 H 92.3221 5.44686 0.678837 0
M  V30 1004 H 92.5831 4.06685 1.73379 0
M  V30 1005 N 91.6422 0.330177 1.54103 0
M  V30 1006 C 92.5752 -0.575477 2.20825 0
M  V30 1007 C 93.5532 -1.11064 1.18758 0
M  V30 1008 O 94.7372 -1.17341 1.47524 0
M  V30 1009 C 91.8642 -1.79032 2.87516 0
M  V30 1010 C 90.9102 -1.38581 4.03358 0
M  V30 1011 S 91.7432 -0.416911 5.33875 0
M  V30 1012 C 92.8992 -1.63889 6.04062 0
M  V30 1013 H 93.1322 -0.00872114 2.97299 0
M  V30 1014 H 90.6652 0.114254 1.53977 0
M  V30 1015 H 92.6232 -2.48734 3.2656 0
M  V30 1016 H 91.2842 -2.32827 2.10832 0
M  V30 1017 H 90.4772 -2.29123 4.48908 0
M  V30 1018 H 90.0792 -0.768419 3.66021 0
M  V30 1019 H 92.3712 -2.57536 6.26643 0
M  V30 1020 H 93.3142 -1.22542 6.97416 0
M  V30 1021 H 93.7222 -1.82887 5.34053 0
M  V30 1022 N 93.1203 -1.57491 0.0584922 0
M  V30 1023 C 94.3973 -1.84346 -0.653918 0
M  V30 1024 C 94.7773 -0.948355 -1.88599 0
M  V30 1025 O 94.1253 -0.0112403 -2.28497 0
M  V30 1026 C 94.3353 -3.34239 -1.00425 0
M  V30 1027 C 95.6833 -4.01431 -1.38342 0
M  V30 1028 O 96.7073 -3.38907 -1.09637 0
M  V30 1029 O 95.5663 -5.11683 -1.91943 0
M  V30 1030 H 92.6603 -0.761112 -0.323478 0
M  V30 1031 H 95.2063 -1.6947 0.0884125 0
M  V30 1032 H 93.9783 -3.91089 -0.128625 0
M  V30 1033 H 93.6013 -3.54329 -1.80378 0
M  V30 1034 N 94.5984 0.214957 -1.56127 0
M  V30 1035 C 95.8464 0.936518 -1.79091 0
M  V30 1036 C 96.1674 1.84606 -0.628148 0
M  V30 1037 O 95.4374 1.92664 0.35462 0
M  V30 1038 H 94.0174 0.3488 -0.660566 0
M  V30 1039 H 96.6794 0.22523 -1.93594 0
M  V30 1040 H 95.7754 1.53943 -2.71492 0
M  V30 1041 N 96.0765 1.50051 0.48192 0
M  V30 1042 C 97.3225 1.60736 1.2366 0
M  V30 1043 C 97.6555 0.301786 1.91841 0
M  V30 1044 O 96.9305 -0.696025 1.8162 0
M  V30 1045 C 97.2135 2.78009 2.28874 0
M  V30 1046 C 97.0665 4.18416 1.65069 0
M  V30 1047 C 98.3855 2.90867 3.30279 0
M  V30 1048 H 95.5045 0.585031 0.448228 0
M  V30 1049 H 98.1465 1.82402 0.531946 0
M  V30 1050 H 96.2965 2.59667 2.88973 0
M  V30 1051 H 97.9685 4.48322 1.0865 0
M  V30 1052 H 96.2115 4.23177 0.954148 0
M  V30 1053 H 96.8825 4.96381 2.41474 0
M  V30 1054 H 99.3585 3.07623 2.80191 0
M  V30 1055 H 98.2345 3.74566 4.01238 0
M  V30 1056 H 98.4955 2.01021 3.93755 0
M  V30 1057 N 97.5546 -0.734337 1.39446 0
M  V30 1058 C 98.8006 -1.49613 1.36908 0
M  V30 1059 C 99.1336 -1.94169 -0.0347829 0
M  V30 1060 O 98.4086 -1.66833 -0.999847 0
M  V30 1061 C 98.6916 -2.73534 2.34203 0
M  V30 1062 C 98.5446 -2.34993 3.83534 0
M  V30 1063 C 99.8636 -3.75635 2.29317 0
M  V30 1064 H 96.9826 -0.542714 0.498629 0
M  V30 1065 H 99.6246 -0.839597 1.70443 0
M  V30 1066 H 97.7746 -3.29553 2.05736 0
M  V30 1067 H 99.4466 -1.84601 4.22753 0
M  V30 1068 H 97.6896 -1.67213 4.00278 0
M  V30 1069 H 98.3606 -3.23738 4.47099 0
M  V30 1070 H 100.837 -3.29203 2.54489 0
M  V30 1071 H 99.7126 -4.60008 2.99472 0
M  V30 1072 H 99.9736 -4.22603 1.29842 0
M  V30 1073 N 99.0327 -1.24633 -0.964593 0
M  V30 1074 C 100.31 -0.995809 -1.68354 0
M  V30 1075 C 100.69 0.480964 -2.05548 0
M  V30 1076 O 100.038 1.45599 -1.76105 0
M  V30 1077 C 100.248 -1.92177 -2.91323 0
M  V30 1078 C 101.596 -2.19446 -3.63495 0
M  V30 1079 O 102.62 -1.89855 -3.01386 0
M  V30 1080 O 101.479 -2.69714 -4.75307 0
M  V30 1081 H 98.5727 -0.376854 -0.736146 0
M  V30 1082 H 101.119 -1.35745 -1.0184 0
M  V30 1083 H 99.8907 -2.91938 -2.60553 0
M  V30 1084 H 99.5137 -1.56349 -3.65569 0
M  V30 1085 N 100.511 1.16574 -1.06058 0
M  V30 1086 C 101.441 2.23057 -0.690488 0
M  V30 1087 C 102.422 1.67141 0.315901 0
M  V30 1088 O 103.607 1.93253 0.191556 0
M  V30 1089 C 100.737 3.47222 -0.073625 0
M  V30 1090 C 99.6908 4.16016 -1.00573 0
M  V30 1091 C 99.0168 5.34104 -0.252289 0
M  V30 1092 C 100.317 4.67264 -2.33371 0
M  V30 1093 H 102.011 2.54271 -1.58072 0
M  V30 1094 H 99.5568 1.22218 -0.76149 0
M  V30 1095 H 101.51 4.20939 0.19714 0
M  V30 1096 H 100.234 3.15302 0.85161 0
M  V30 1097 H 98.8928 3.44223 -1.2612 0
M  V30 1098 H 98.5408 4.98437 0.675988 0
M  V30 1099 H 98.2408 5.81072 -0.873455 0
M  V30 1100 H 99.7648 6.10599 0.0109857 0
M  V30 1101 H 101.179 5.32573 -2.12223 0
M  V30 1102 H 99.5758 5.24843 -2.90963 0
M  V30 1103 H 100.646 3.83602 -2.96611 0
M  V30 1104 N 101.989 0.842826 1.3317 0
M  V30 1105 C 103.237 0.439577 1.97262 0
M  V30 1106 C 103.558 -1.00548 1.67078 0
M  V30 1107 O 102.828 -1.70098 0.971779 0
M  V30 1108 H 101.408 0.159558 0.72976 0
M  V30 1109 H 104.07 1.07665 1.62463 0
M  V30 1110 H 103.166 0.574886 3.0676 0
M  V30 1111 N 103.467 -1.45747 0.599634 0
M  V30 1112 C 104.716 -2.01502 0.0893511 0
M  V30 1113 C 105.029 -1.4748 -1.28488 0
M  V30 1114 O 106.235 -1.95161 -1.88745 0
M  V30 1115 C 104.691 -3.59735 0.109082 0
M  V30 1116 C 104.299 -4.22754 1.48267 0
M  V30 1117 C 106.043 -4.23085 -0.346374 0
M  V30 1118 C 103.95 -5.73115 1.45921 0
M  V30 1119 H 102.88 -0.753417 0.0296347 0
M  V30 1120 H 105.531 -1.67303 0.753788 0
M  V30 1121 H 103.913 -3.91087 -0.621854 0
M  V30 1122 H 105.087 -4.02987 2.23468 0
M  V30 1123 H 103.402 -3.71567 1.87955 0
M  V30 1124 H 105.999 -5.33327 -0.38298 0
M  V30 1125 H 106.342 -3.93201 -1.36743 0
M  V30 1126 H 106.875 -3.9642 0.331038 0
M  V30 1127 H 103.614 -6.07685 2.45762 0
M  V30 1128 H 103.134 -5.95097 0.749665 0
M  V30 1129 H 104.813 -6.3616 1.17941 0
M  V30 1130 N 104.945 -0.338344 -1.53925 0
M  V30 1131 C 106.194 0.260732 -2.00008 0
M  V30 1132 C 106.507 1.52073 -1.23017 0
M  V30 1133 O 107.713 2.19672 -1.5955 0
M  V30 1134 C 106.169 0.51515 -3.56194 0
M  V30 1135 C 105.777 -0.728645 -4.42035 0
M  V30 1136 C 107.521 1.07337 -4.10706 0
M  V30 1137 C 105.428 -0.445315 -5.89721 0
M  V30 1138 H 104.358 0.101205 -0.747177 0
M  V30 1139 H 107.009 -0.452866 -1.77824 0
M  V30 1140 H 105.391 1.28932 -3.74423 0
M  V30 1141 H 106.565 -1.50352 -4.35581 0
M  V30 1142 H 104.88 -1.20813 -3.98489 0
M  V30 1143 H 107.477 1.30022 -5.18651 0
M  V30 1144 H 107.82 2.0273 -3.63602 0
M  V30 1145 H 108.353 0.360034 -3.96167 0
M  V30 1146 H 105.092 -1.36883 -6.41049 0
M  V30 1147 H 104.612 0.291569 -5.99091 0
M  V30 1148 H 106.291 -0.0606218 -6.46972 0
M  V30 1149 N 106.423 1.57458 -0.0668435 0
M  V30 1150 C 107.671 1.92919 0.602214 0
M  V30 1151 C 107.992 0.947215 1.70449 0
M  V30 1152 O 107.262 -0.00544117 1.95899 0
M  V30 1153 H 105.842 0.71217 0.22544 0
M  V30 1154 H 108.504 1.94508 -0.123535 0
M  V30 1155 H 107.6 2.94589 1.03073 0
M  V30 1156 N 107.901 -0.206675 1.56239 0
M  V30 1157 C 108.811 -1.27686 1.96808 0
M  V30 1158 C 109.827 -1.50455 0.874035 0
M  V30 1159 O 111.003 -1.63295 1.17884 0
M  V30 1160 C 108.068 -2.60358 2.28942 0
M  V30 1161 C 107.129 -2.45762 3.51994 0
M  V30 1162 C 106.362 -3.72108 3.82585 0
M  V30 1163 O 106.585 -4.75776 3.14631 0
M  V30 1164 O 105.519 -3.6833 4.76043 0
M  V30 1165 H 109.345 -0.962593 2.88041 0
M  V30 1166 H 106.93 -0.410746 1.43643 0
M  V30 1167 H 108.812 -3.38687 2.50737 0
M  V30 1168 H 107.487 -2.91435 1.4088 0
M  V30 1169 H 106.394 -1.65584 3.35459 0
M  V30 1170 H 107.727 -2.19621 4.40486 0
M  V30 1171 N 109.379 -1.50304 -0.473955 0
M  V30 1172 C 110.327 -1.69482 -1.59307 0
M  V30 1173 C 111.321 -0.560669 -1.59853 0
M  V30 1174 O 112.527 -0.741087 -1.64036 0
M  V30 1175 H 108.902 -0.534892 -0.528578 0
M  V30 1176 H 110.873 -2.63364 -1.40293 0
M  V30 1177 C 109.622 -1.80354 -2.97267 0
M  V30 1178 H 108.945 -2.67012 -2.97564 0
M  V30 1179 H 110.385 -1.97798 -3.75036 0
M  V30 1180 C 108.844 -0.55448 -3.32306 0
M  V30 1181 O 109.374 0.307661 -4.0052 0
M  V30 1182 N 107.58 -0.409354 -2.87702 0
M  V30 1183 H 107.127 -1.11196 -2.32364 0
M  V30 1184 H 107.085 0.425223 -3.11511 0
M  V30 1185 N 110.857 0.726932 -1.39834 0
M  V30 1186 C 112.103 1.48884 -1.377 0
M  V30 1187 C 112.436 1.94185 0.0244852 0
M  V30 1188 O 111.711 1.67361 0.990986 0
M  V30 1189 C 111.994 2.72288 -2.3565 0
M  V30 1190 C 111.847 2.32956 -3.84775 0
M  V30 1191 C 113.166 3.74414 -2.31306 0
M  V30 1192 H 110.285 0.540062 -0.5015 0
M  V30 1193 H 112.927 0.830547 -1.70886 0
M  V30 1194 H 111.077 3.28457 -2.07481 0
M  V30 1195 H 112.749 1.82356 -4.23726 0
M  V30 1196 H 110.992 1.65088 -4.01159 0
M  V30 1197 H 111.663 3.21362 -4.4881 0
M  V30 1198 H 114.139 3.27849 -2.56231 0
M  V30 1199 H 113.015 4.58414 -3.01907 0
M  V30 1200 H 113.276 4.21909 -1.32081 0
M  V30 1201 N 112.336 1.25143 0.95797 0
M  V30 1202 C 113.266 1.07711 2.07173 0
M  V30 1203 C 114.247 -0.0128462 1.70095 0
M  V30 1204 O 115.432 0.156061 1.93572 0
M  V30 1205 C 112.562 0.691503 3.40346 0
M  V30 1206 C 111.516 1.73132 3.9142 0
M  V30 1207 C 110.842 1.20049 5.21049 0
M  V30 1208 C 112.142 3.1294 4.1817 0
M  V30 1209 H 113.836 2.00873 2.22014 0
M  V30 1210 H 111.382 0.967191 1.06684 0
M  V30 1211 H 113.335 0.556505 4.17709 0
M  V30 1212 H 112.059 -0.275819 3.25433 0
M  V30 1213 H 110.718 1.8547 3.16222 0
M  V30 1214 H 110.366 0.223499 5.02503 0
M  V30 1215 H 110.066 1.89545 5.56189 0
M  V30 1216 H 111.59 1.07782 6.01012 0
M  V30 1217 H 113.004 3.03775 4.86203 0
M  V30 1218 H 111.401 3.79875 4.64559 0
M  V30 1219 H 112.471 3.6025 3.24573 0
M  V30 1220 N 113.814 -1.1601 1.06675 0
M  V30 1221 C 114.724 -2.24156 0.692179 0
M  V30 1222 C 115.74 -1.71507 -0.293513 0
M  V30 1223 O 116.916 -2.009 -0.141861 0
M  V30 1224 C 113.981 -3.46587 0.0884131 0
M  V30 1225 C 113.042 -4.14257 1.12646 0
M  V30 1226 C 112.275 -5.30844 0.551416 0
M  V30 1227 O 112.498 -5.66858 -0.634656 0
M  V30 1228 O 111.432 -5.87848 1.29298 0
M  V30 1229 H 115.258 -2.58513 1.59388 0
M  V30 1230 H 112.843 -1.23599 0.83926 0
M  V30 1231 H 114.725 -4.20679 -0.246361 0
M  V30 1232 H 113.4 -3.13994 -0.786712 0
M  V30 1233 H 112.307 -3.42118 1.51348 0
M  V30 1234 H 113.64 -4.50914 1.97325 0
M  V30 1235 N 115.292 -0.849877 -1.32721 0
M  V30 1236 C 116.202 -0.293791 -2.32753 0
M  V30 1237 C 117.218 0.585906 -1.63839 0
M  V30 1238 O 118.394 0.487413 -1.95413 0
M  V30 1239 C 115.459 0.512752 -3.42887 0
M  V30 1240 C 114.52 -0.39252 -4.27502 0
M  V30 1241 C 113.753 0.375625 -5.32377 0
M  V30 1242 O 113.976 1.60613 -5.4732 0
M  V30 1243 O 112.91 -0.256094 -6.01355 0
M  V30 1244 H 116.736 -1.12242 -2.82197 0
M  V30 1245 H 114.321 -0.612685 -1.36259 0
M  V30 1246 H 116.203 0.970704 -4.10067 0
M  V30 1247 H 114.878 1.31826 -2.95641 0
M  V30 1248 H 113.785 -0.898547 -3.63149 0
M  V30 1249 H 115.118 -1.16309 -4.7826 0
M  V30 1250 N 116.77 1.45427 -0.607355 0
M  V30 1251 C 117.68 2.34325 0.113463 0
M  V30 1252 C 118.696 1.51226 0.860617 0
M  V30 1253 O 119.872 1.84029 0.818255 0
M  V30 1254 C 116.937 3.28839 1.09844 0
M  V30 1255 C 115.998 4.27844 0.353271 0
M  V30 1256 C 115.231 5.17842 1.29133 0
M  V30 1257 O 115.454 5.11264 2.52913 0
M  V30 1258 O 114.388 5.96713 0.788523 0
M  V30 1259 H 118.214 2.97364 -0.617094 0
M  V30 1260 H 115.799 1.44807 -0.367619 0
M  V30 1261 H 117.681 3.8708 1.66575 0
M  V30 1262 H 116.356 2.68365 1.81003 0
M  V30 1263 H 115.263 3.7322 -0.256494 0
M  V30 1264 H 116.596 4.91173 -0.317822 0
M  V30 1265 N 118.248 0.346503 1.53744 0
M  V30 1266 C 119.178 -0.501193 2.28058 0
M  V30 1267 C 120.159 -1.10014 1.29734 0
M  V30 1268 O 121.344 -1.12097 1.58581 0
M  V30 1269 C 118.474 -1.65078 3.05559 0
M  V30 1270 C 117.428 -1.18003 4.11411 0
M  V30 1271 C 116.754 -2.41837 4.76884 0
M  V30 1272 C 118.054 -0.278394 5.21558 0
M  V30 1273 H 119.748 0.11875 2.99164 0
M  V30 1274 H 117.294 0.0585531 1.43881 0
M  V30 1275 H 119.247 -2.25028 3.56287 0
M  V30 1276 H 117.971 -2.29767 2.32109 0
M  V30 1277 H 116.63 -0.603331 3.61601 0
M  V30 1278 H 116.278 -3.0494 4.00026 0
M  V30 1279 H 115.978 -2.1102 5.48402 0
M  V30 1280 H 117.502 -3.02508 5.30397 0
M  V30 1281 H 118.916 -0.784823 5.67903 0
M  V30 1282 H 117.313 -0.0619707 6.00068 0
M  V30 1283 H 118.383 0.684677 4.80042 0
M  V30 1284 N 119.726 -1.57421 0.075193 0
M  V30 1285 C 120.656 -2.15942 -0.888324 0
M  V30 1286 C 121.637 -1.08737 -1.30806 0
M  V30 1287 O 122.822 -1.36787 -1.37851 0
M  V30 1288 C 119.952 -2.72379 -2.1547 0
M  V30 1289 C 118.906 -3.8478 -1.87425 0
M  V30 1290 C 118.232 -4.27834 -3.20721 0
M  V30 1291 C 119.532 -5.08869 -1.17684 0
M  V30 1292 H 121.226 -2.96705 -0.400799 0
M  V30 1293 H 118.772 -1.42723 -0.191342 0
M  V30 1294 H 120.725 -3.11965 -2.83295 0
M  V30 1295 H 119.449 -1.88841 -2.6647 0
M  V30 1296 H 118.108 -3.45703 -1.22004 0
M  V30 1297 H 117.756 -3.41214 -3.6957 0
M  V30 1298 H 117.456 -5.03605 -3.02746 0
M  V30 1299 H 118.98 -4.70039 -3.89738 0
M  V30 1300 H 120.394 -5.4575 -1.75584 0
M  V30 1301 H 118.791 -5.8994 -1.09956 0
M  V30 1302 H 119.861 -4.84648 -0.156453 0
M  V30 1303 N 121.204 0.198386 -1.56346 0
M  V30 1304 C 122.152 1.26538 -1.95169 0
M  V30 1305 C 123.146 1.47295 -0.836685 0
M  V30 1306 O 124.352 1.48195 -1.02167 0
M  V30 1307 H 120.727 0.424744 -0.620561 0
M  V30 1308 H 122.698 0.910904 -2.84157 0
M  V30 1309 C 121.447 2.6035 -2.30463 0
M  V30 1310 H 120.77 2.45192 -3.15786 0
M  V30 1311 H 122.21 3.33762 -2.61494 0
M  V30 1312 C 120.669 3.17096 -1.13806 0
M  V30 1313 O 121.199 3.99588 -0.41135 0
M  V30 1314 N 119.405 2.75795 -0.915736 0
M  V30 1315 H 118.952 2.08816 -1.50843 0
M  V30 1316 H 118.91 3.14101 -0.136979 0
M  V30 1317 N 122.682 1.50554 0.465978 0
M  V30 1318 C 124.098 1.38093 0.800154 0
M  V30 1319 C 124.298 0.440988 1.96615 0
M  V30 1320 O 123.354 -0.114499 2.5224 0
M  V30 1321 C 124.667 2.79565 1.10742 0
M  V30 1322 C 126.215 2.88516 1.21357 0
M  V30 1323 C 126.69 4.30833 1.55393 0
M  V30 1324 N 128.181 4.33807 1.62375 0
M  V30 1325 C 128.916 5.40927 1.90225 0
M  V30 1326 N 128.412 6.58247 2.16062 0
M  V30 1327 N 130.205 5.28376 1.9177 0
M  V30 1328 H 122.356 2.10237 -0.302366 0
M  V30 1329 H 124.619 0.945203 -0.0727746 0
M  V30 1330 H 124.325 3.50208 0.323661 0
M  V30 1331 H 124.199 3.17125 2.04234 0
M  V30 1332 H 126.586 2.1809 1.98799 0
M  V30 1333 H 126.667 2.54492 0.258321 0
M  V30 1334 H 126.311 5.01799 0.784889 0
M  V30 1335 H 126.241 4.62347 2.52076 0
M  V30 1336 H 128.732 3.49212 1.44427 0
M  V30 1337 H 129.045 7.3569 2.36601 0
M  V30 1338 H 127.39 6.61413 2.13444 0
M  V30 1339 H 130.581 4.35715 1.71085 0
M  V30 1340 H 130.754 6.11944 2.13139 0
M  V30 1341 N 124.16 -0.719506 1.40217 0
M  V30 1342 C 125.576 -1.02707 1.22161 0
M  V30 1343 C 125.776 -2.0128 0.0940557 0
M  V30 1344 O 124.832 -2.46452 -0.549318 0
M  V30 1345 C 126.145 -1.57454 2.56181 0
M  V30 1346 C 127.693 -1.69458 2.63159 0
M  V30 1347 C 128.168 -2.27611 3.97438 0
M  V30 1348 N 129.659 -2.35002 3.99159 0
M  V30 1349 C 130.394 -2.80972 4.99842 0
M  V30 1350 N 129.89 -3.26723 6.10921 0
M  V30 1351 N 131.683 -2.80321 4.87213 0
M  V30 1352 H 123.834 -0.0660492 2.12297 0
M  V30 1353 H 126.097 -0.0919077 0.943534 0
M  V30 1354 H 125.803 -0.924873 3.39321 0
M  V30 1355 H 125.677 -2.56036 2.76993 0
M  V30 1356 H 128.064 -2.33543 1.80393 0
M  V30 1357 H 128.145 -0.694867 2.46181 0
M  V30 1358 H 127.789 -1.6415 4.80643 0
M  V30 1359 H 127.719 -3.2829 4.11744 0
M  V30 1360 H 130.21 -2.02685 3.18947 0
M  V30 1361 H 130.523 -3.60355 6.8364 0
M  V30 1362 H 128.868 -3.24692 6.14492 0
M  V30 1363 H 132.059 -2.43912 3.9953 0
M  V30 1364 H 132.232 -3.15831 5.65822 0
M  V30 1365 N 125.638 -1.25649 -0.95132 0
M  V30 1366 C 126.601 -1.06399 -2.03007 0
M  V30 1367 C 127.601 -0.0156794 -1.60792 0
M  V30 1368 O 128.791 -0.25817 -1.72276 0
M  V30 1369 C 125.923 -0.616184 -3.35285 0
M  V30 1370 H 127.116 -2.02164 -2.21517 0
M  V30 1371 H 124.669 -1.08103 -1.12887 0
M  V30 1372 H 125.404 0.343917 -3.22471 0
M  V30 1373 H 125.189 -1.37301 -3.67275 0
M  V30 1374 H 126.679 -0.503032 -4.14559 0
M  V30 1375 N 127.117 1.15442 -1.07289 0
M  V30 1376 C 128.049 2.19773 -0.650585 0
M  V30 1377 C 129.062 1.60076 0.296572 0
M  V30 1378 O 130.251 1.78293 0.0859905 0
M  V30 1379 C 127.351 3.38838 0.0650398 0
M  V30 1380 C 126.524 4.2808 -0.898141 0
M  V30 1381 C 125.583 5.2574 -0.219926 0
M  V30 1382 O 124.609 5.62654 -0.860773 0
M  V30 1383 N 125.811 5.71205 1.03466 0
M  V30 1384 H 128.576 2.56622 -1.54808 0
M  V30 1385 H 126.137 1.30551 -0.957494 0
M  V30 1386 H 128.129 4.01222 0.529415 0
M  V30 1387 H 126.699 3.00409 0.864466 0
M  V30 1388 H 125.919 3.62804 -1.54165 0
M  V30 1389 H 127.207 4.84577 -1.5512 0
M  V30 1390 H 126.605 5.43325 1.57526 0
M  V30 1391 H 125.162 6.35633 1.44272 0
M  V30 1392 N 128.595 0.856903 1.32268 0
M  V30 1393 C 129.843 0.460474 1.96784 0
M  V30 1394 C 130.164 -0.987701 1.68135 0
M  V30 1395 O 129.434 -1.69058 0.989765 0
M  V30 1396 H 128.014 0.167289 0.728027 0
M  V30 1397 H 130.676 1.09383 1.61312 0
M  V30 1398 H 129.772 0.60739 3.06133 0
M  V30 1399 N 130.073 -1.45103 0.615059 0
M  V30 1400 C 130.983 -2.34382 -0.101034 0
M  V30 1401 C 131.999 -1.51681 -0.852585 0
M  V30 1402 O 133.175 -1.8446 -0.808484 0
M  V30 1403 C 130.24 -3.29417 -1.08099 0
M  V30 1404 C 129.301 -4.28025 -0.330577 0
M  V30 1405 C 128.534 -5.1852 -1.26385 0
M  V30 1406 O 128.757 -5.12598 -2.50198 0
M  V30 1407 O 127.691 -5.97122 -0.756866 0
M  V30 1408 H 131.517 -2.97033 0.632855 0
M  V30 1409 H 129.102 -1.4461 0.375293 0
M  V30 1410 H 130.984 -3.87958 -1.6452 0
M  V30 1411 H 129.659 -2.69321 -1.79577 0
M  V30 1412 H 128.566 -3.73078 0.276283 0
M  V30 1413 H 129.899 -4.90997 0.343866 0
M  V30 1414 N 131.551 -0.354651 -1.53558 0
M  V30 1415 C 132.828 0.294281 -1.93374 0
M  V30 1416 C 133.208 1.67313 -1.28723 0
M  V30 1417 O 132.556 2.24179 -0.442247 0
M  V30 1418 C 132.766 0.355445 -3.47185 0
M  V30 1419 C 134.114 0.601007 -4.20325 0
M  V30 1420 O 135.138 0.437106 -3.53508 0
M  V30 1421 O 133.997 0.919322 -5.38712 0
M  V30 1422 H 131.091 0.174033 -0.808481 0
M  V30 1423 H 133.637 -0.406638 -1.64756 0
M  V30 1424 H 132.409 -0.611729 -3.86489 0
M  V30 1425 H 132.032 1.1027 -3.82003 0
M  V30 1426 N 133.029 1.57378 -0.0835403 0
M  V30 1427 C 134.44 1.81261 0.447358 0
M  V30 1428 C 134.791 0.998331 1.68902 0
M  V30 1429 O 133.916 0.224282 2.15235 0
M  V30 1430 C 134.511 3.28767 0.818386 0
M  V30 1431 C 133.07 3.53455 1.29409 0
M  V30 1432 C 132.217 2.75831 0.285024 0
M  V30 1433 H 135.168 1.5566 -0.309115 0
M  V30 1434 H 135.189 3.41459 1.67887 0
M  V30 1435 H 134.701 3.88006 -0.0855019 0
M  V30 1436 H 132.802 2.99534 2.21608 0
M  V30 1437 H 132.915 4.62128 1.2639 0
M  V30 1438 H 131.279 2.42947 0.764767 0
M  V30 1439 H 132.062 3.37813 -0.611341 0
M  V30 1440 N 134.507 -0.190092 1.56449 0
M  V30 1441 C 135.923 -0.54113 1.50146 0
M  V30 1442 C 136.123 -1.85603 0.784465 0
M  V30 1443 O 135.179 -2.5024 0.337051 0
M  V30 1444 C 136.492 -0.591241 2.9483 0
M  V30 1445 C 138.04 -0.679732 3.0553 0
M  V30 1446 C 138.515 -0.760908 4.51635 0
M  V30 1447 N 140.006 -0.824302 4.55806 0
M  V30 1448 C 140.741 -0.907365 5.66175 0
M  V30 1449 N 140.237 -0.952422 6.86222 0
M  V30 1450 N 142.03 -0.94494 5.541 0
M  V30 1451 H 134.181 0.67235 2.01478 0
M  V30 1452 H 136.444 0.240127 0.917084 0
M  V30 1453 H 136.15 0.305905 3.50367 0
M  V30 1454 H 136.024 -1.44422 3.48457 0
M  V30 1455 H 138.411 -1.56731 2.50039 0
M  V30 1456 H 138.492 0.199549 2.5502 0
M  V30 1457 H 138.136 0.122336 5.07753 0
M  V30 1458 H 138.066 -1.65606 4.99882 0
M  V30 1459 H 140.557 -0.798526 3.69367 0
M  V30 1460 H 140.87 -1.01645 7.66086 0
M  V30 1461 H 139.215 -0.921014 6.8887 0
M  V30 1462 H 142.406 -0.906612 4.59236 0
M  V30 1463 H 142.579 -1.00622 6.4014 0
M  V30 1464 N 135.985 -1.50799 -0.457987 0
M  V30 1465 C 137.215 -1.65977 -1.23025 0
M  V30 1466 C 137.623 -0.347918 -1.85974 0
M  V30 1467 O 136.966 0.68148 -1.70592 0
M  V30 1468 C 137.028 -2.70309 -2.3701 0
M  V30 1469 C 136.692 -4.135 -1.94594 0
M  V30 1470 C 137.689 -4.98949 -1.46101 0
M  V30 1471 C 135.374 -4.5949 -2.02915 0
M  V30 1472 C 137.368 -6.28442 -1.06489 0
M  V30 1473 C 135.055 -5.88984 -1.62914 0
M  V30 1474 C 136.053 -6.73286 -1.1478 0
M  V30 1475 O 135.741 -8.00362 -0.75339 0
M  V30 1476 H 135.473 -0.56064 -0.377702 0
M  V30 1477 H 138.027 -1.97857 -0.551537 0
M  V30 1478 H 136.257 -2.337 -3.08093 0
M  V30 1479 H 137.946 -2.74574 -2.98938 0
M  V30 1480 H 138.712 -4.6463 -1.39084 0
M  V30 1481 H 134.591 -3.94009 -2.39328 0
M  V30 1482 H 138.135 -6.94194 -0.688488 0
M  V30 1483 H 134.032 -6.22822 -1.69595 0
M  V30 1484 H 134.8 -8.13744 -0.88108 0
M  V30 1485 N 137.463 0.71206 -1.40597 0
M  V30 1486 C 138.71 1.47197 -1.39065 0
M  V30 1487 C 139.038 1.94499 0.00583891 0
M  V30 1488 O 138.293 1.68752 0.99102 0
M  V30 1489 C 138.592 2.71039 -2.32965 0
M  V30 1490 C 138.258 2.42484 -3.80148 0
M  V30 1491 C 136.92 2.34406 -4.20247 0
M  V30 1492 C 139.272 2.18598 -4.73143 0
M  V30 1493 C 136.6 2.00516 -5.51371 0
M  V30 1494 C 138.952 1.8622 -6.0457 0
M  V30 1495 C 137.616 1.76626 -6.43708 0
M  V30 1496 H 136.886 0.538634 -0.508876 0
M  V30 1497 H 139.533 0.815325 -1.73276 0
M  V30 1498 H 137.838 3.41558 -1.91951 0
M  V30 1499 H 139.535 3.29138 -2.29061 0
M  V30 1500 H 136.125 2.49659 -3.4838 0
M  V30 1501 H 140.309 2.23793 -4.42979 0
M  V30 1502 H 135.565 1.91628 -5.80593 0
M  V30 1503 H 139.739 1.66752 -6.76141 0
M  V30 1504 H 137.366 1.50133 -7.45228 0
M  V30 1505 N 138.941 1.26152 0.944643 0
M  V30 1506 C 140.169 1.14259 1.72489 0
M  V30 1507 C 140.584 -0.302555 1.8636 0
M  V30 1508 O 139.941 -1.20741 1.36849 0
M  V30 1509 C 139.992 1.80266 3.13347 0
M  V30 1510 O 139.713 3.19133 3.00143 0
M  V30 1511 C 141.214 1.74283 4.07603 0
M  V30 1512 H 138.434 0.398051 0.540181 0
M  V30 1513 H 140.978 1.66706 1.18446 0
M  V30 1514 H 139.133 1.31766 3.64303 0
M  V30 1515 H 139.547 3.51744 3.89071 0
M  V30 1516 H 141.021 2.25111 5.04013 0
M  V30 1517 H 141.498 0.708631 4.33446 0
M  V30 1518 H 142.104 2.22319 3.62567 0
M  V30 1519 N 140.419 -1.14872 1.07899 0
M  V30 1520 C 141.349 -2.2193 0.725887 0
M  V30 1521 C 142.33 -1.67622 -0.28927 0
M  V30 1522 O 143.515 -1.93533 -0.160787 0
M  V30 1523 C 140.645 -3.47061 0.128856 0
M  V30 1524 C 139.599 -4.14363 1.07178 0
M  V30 1525 C 138.925 -5.33636 0.337229 0
M  V30 1526 C 140.225 -4.63492 2.40775 0
M  V30 1527 H 141.919 -2.51724 1.62097 0
M  V30 1528 H 139.465 -1.20991 0.780838 0
M  V30 1529 H 141.418 -4.21199 -0.130147 0
M  V30 1530 H 140.142 -3.16617 -0.80134 0
M  V30 1531 H 138.801 -3.42173 1.3158 0
M  V30 1532 H 138.449 -4.99449 -0.596606 0
M  V30 1533 H 138.149 -5.79609 0.965788 0
M  V30 1534 H 139.673 -6.10539 0.0861567 0
M  V30 1535 H 141.087 -5.2913 2.20669 0
M  V30 1536 H 139.484 -5.20148 2.99276 0
M  V30 1537 H 140.554 -3.78834 3.02676 0
M  V30 1538 N 141.898 -0.863906 -1.31812 0
M  V30 1539 C 143.314 -0.555004 -1.49639 0
M  V30 1540 C 143.514 0.912266 -1.79666 0
M  V30 1541 O 142.57 1.69479 -1.87171 0
M  V30 1542 C 143.883 -1.44998 -2.63431 0
M  V30 1543 C 145.431 -1.45138 -2.77316 0
M  V30 1544 C 145.906 -2.33179 -3.94197 0
M  V30 1545 N 147.397 -2.31025 -4.01474 0
M  V30 1546 C 148.132 -2.95871 -4.9117 0
M  V30 1547 N 147.628 -3.69863 -5.8581 0
M  V30 1548 N 149.421 -2.85211 -4.84367 0
M  V30 1549 H 141.572 -1.81339 -1.10589 0
M  V30 1550 H 143.835 -0.77505 -0.545895 0
M  V30 1551 H 143.541 -2.49377 -2.48 0
M  V30 1552 H 143.415 -1.14409 -3.59431 0
M  V30 1553 H 145.802 -0.415201 -2.92164 0
M  V30 1554 H 145.883 -1.79747 -1.82001 0
M  V30 1555 H 145.527 -3.3687 -3.80107 0
M  V30 1556 H 145.457 -1.95897 -4.88807 0
M  V30 1557 H 147.948 -1.77238 -3.33759 0
M  V30 1558 H 148.261 -4.16486 -6.50968 0
M  V30 1559 H 146.606 -3.73971 -5.85808 0
M  V30 1560 H 149.797 -2.26948 -4.09405 0
M  V30 1561 H 149.97 -3.36027 -5.54066 0
M  V30 1562 N 143.376 1.44774 -0.622745 0
M  V30 1563 C 144.792 1.56986 -0.287652 0
M  V30 1564 C 144.992 1.61167 1.20944 0
M  V30 1565 O 144.048 1.55015 1.99315 0
M  V30 1566 C 145.361 2.84551 -0.972188 0
M  V30 1567 C 146.909 2.9825 -0.949536 0
M  V30 1568 C 147.384 4.28605 -1.61437 0
M  V30 1569 N 148.875 4.35399 -1.58057 0
M  V30 1570 C 149.61 5.34964 -2.064 0
M  V30 1571 N 149.106 6.40981 -2.62897 0
M  V30 1572 N 150.899 5.26419 -1.97078 0
M  V30 1573 H 143.05 1.40304 -1.59463 0
M  V30 1574 H 145.313 0.671794 -0.668878 0
M  V30 1575 H 145.019 2.87417 -2.02693 0
M  V30 1576 H 144.893 3.73807 -0.504771 0
M  V30 1577 H 147.28 2.94941 0.0967067 0
M  V30 1578 H 147.361 2.10364 -1.45536 0
M  V30 1579 H 147.005 4.32672 -2.66002 0
M  V30 1580 H 146.935 5.15334 -1.08344 0
M  V30 1581 H 149.426 3.59397 -1.16801 0
M  V30 1582 H 149.739 7.13225 -2.97539 0
M  V30 1583 H 148.084 6.4169 -2.66943 0
M  V30 1584 H 151.275 4.42504 -1.52669 0
M  V30 1585 H 151.448 6.03861 -2.35066 0
M  V30 1586 N 144.854 0.36279 1.53368 0
M  V30 1587 C 145.784 -0.476976 2.28576 0
M  V30 1588 C 146.765 -1.08631 1.30894 0
M  V30 1589 O 147.95 -1.10409 1.59761 0
M  V30 1590 C 145.08 -1.61828 3.07293 0
M  V30 1591 C 144.034 -1.13633 4.1264 0
M  V30 1592 C 143.36 -2.36766 4.79423 0
M  V30 1593 C 144.66 -0.223061 5.21823 0
M  V30 1594 H 146.354 0.150474 2.99022 0
M  V30 1595 H 143.9 0.0738103 1.43811 0
M  V30 1596 H 145.853 -2.21237 3.58653 0
M  V30 1597 H 144.577 -2.27292 2.34533 0
M  V30 1598 H 143.236 -0.564945 3.62221 0
M  V30 1599 H 142.884 -3.0068 4.03238 0
M  V30 1600 H 142.584 -2.05192 5.50609 0
M  V30 1601 H 144.108 -2.96865 5.33576 0
M  V30 1602 H 145.522 -0.724545 5.68703 0
M  V30 1603 H 143.919 0.001678 6.001 0
M  V30 1604 H 144.989 0.735553 4.79289 0
M  V30 1605 N 146.332 -1.57332 0.0918853 0
M  V30 1606 C 147.609 -1.85691 -0.614668 0
M  V30 1607 C 147.989 -0.988146 -1.86545 0
M  V30 1608 O 147.337 -0.0597055 -2.28422 0
M  V30 1609 C 147.547 -3.36294 -0.933126 0
M  V30 1610 C 148.895 -4.04275 -1.29796 0
M  V30 1611 O 149.919 -3.41157 -1.02424 0
M  V30 1612 O 148.778 -5.1564 -1.81047 0
M  V30 1613 H 145.872 -0.767802 -0.307261 0
M  V30 1614 H 148.418 -1.69244 0.12434 0
M  V30 1615 H 147.19 -3.91273 -0.0456404 0
M  V30 1616 H 146.813 -3.58076 -1.72822 0
M  V30 1617 N 147.81 0.181792 -1.56548 0
M  V30 1618 C 149.057 0.900097 -1.81396 0
M  V30 1619 C 149.385 1.82695 -0.667281 0
M  V30 1620 O 148.64 1.92614 0.346146 0
M  V30 1621 C 148.939 1.73728 -3.12335 0
M  V30 1622 C 148.605 0.960255 -4.40556 0
M  V30 1623 C 147.267 0.745766 -4.75386 0
M  V30 1624 C 149.619 0.414477 -5.19549 0
M  V30 1625 C 146.947 -0.0257694 -5.86694 0
M  V30 1626 C 149.299 -0.343916 -6.31664 0
M  V30 1627 C 147.963 -0.569301 -6.65068 0
M  V30 1628 H 147.233 0.329369 -0.663775 0
M  V30 1629 H 149.88 0.165647 -1.90782 0
M  V30 1630 H 148.185 2.54081 -2.98245 0
M  V30 1631 H 149.882 2.29591 -3.28769 0
M  V30 1632 H 146.472 1.13746 -4.13231 0
M  V30 1633 H 150.656 0.567554 -4.93044 0
M  V30 1634 H 145.912 -0.210233 -6.11038 0
M  V30 1635 H 150.086 -0.774133 -6.92084 0
M  V30 1636 H 147.713 -1.16903 -7.51158 0
M  V30 1637 N 149.288 1.51039 0.449983 0
M  V30 1638 C 150.536 1.62759 1.19808 0
M  V30 1639 C 150.857 0.339981 1.92013 0
M  V30 1640 O 150.127 -0.643606 1.85026 0
M  V30 1641 H 148.707 0.599811 0.445237 0
M  V30 1642 H 151.369 1.87914 0.517138 0
M  V30 1643 H 150.465 2.44911 1.93455 0
M  V30 1644 N 150.766 -0.704594 1.40972 0
M  V30 1645 C 152.014 -1.46169 1.39568 0
M  V30 1646 C 152.335 -1.95 0.00253745 0
M  V30 1647 O 151.605 -1.71095 -0.954114 0
M  V30 1648 H 150.185 -0.542326 0.513704 0
M  V30 1649 H 152.847 -0.834553 1.76128 0
M  V30 1650 H 151.943 -2.32922 2.07735 0
M  V30 1651 N 152.244 -1.26651 -0.937939 0
M  V30 1652 C 153.484 -1.13611 -1.69917 0
M  V30 1653 C 153.848 0.314687 -1.89404 0
M  V30 1654 O 155.049 0.567285 -2.62746 0
M  V30 1655 C 153.32 -1.88742 -3.03498 0
M  V30 1656 S 154.879 -1.91794 -3.94665 0
M  V30 1657 H 151.697 -0.405767 -0.583844 0
M  V30 1658 H 154.299 -1.60416 -1.11745 0
M  V30 1659 H 153.003 -2.9336 -2.86999 0
M  V30 1660 H 152.534 -1.42391 -3.66727 0
M  V30 1661 H 154.549 -1.00698 -4.85875 0
M  V30 1662 N 153.722 1.14298 -1.08507 0
M  V30 1663 C 155.138 1.37347 -0.812901 0
M  V30 1664 C 155.338 1.93052 0.577325 0
M  V30 1665 O 154.394 2.14389 1.33393 0
M  V30 1666 C 155.707 2.33359 -1.89642 0
M  V30 1667 C 157.255 2.46996 -1.92255 0
M  V30 1668 C 157.73 3.46309 -2.99724 0
M  V30 1669 N 159.221 3.53853 -2.98902 0
M  V30 1670 C 159.956 4.3055 -3.787 0
M  V30 1671 N 159.452 5.10482 -4.6838 0
M  V30 1672 N 161.245 4.25757 -3.66998 0
M  V30 1673 H 153.396 0.764867 -1.9815 0
M  V30 1674 H 155.659 0.398966 -0.859959 0
M  V30 1675 H 155.365 1.99565 -2.89597 0
M  V30 1676 H 155.239 3.33274 -1.76659 0
M  V30 1677 H 157.626 2.80081 -0.929445 0
M  V30 1678 H 157.707 1.47039 -2.09316 0
M  V30 1679 H 157.351 3.13957 -3.99241 0
M  V30 1680 H 157.281 4.46049 -2.79907 0
M  V30 1681 H 159.772 2.96812 -2.33904 0
M  V30 1682 H 160.085 5.66284 -5.25873 0
M  V30 1683 H 158.43 5.09747 -4.72422 0
M  V30 1684 H 161.621 3.62383 -2.96304 0
M  V30 1685 H 161.794 4.85279 -4.29427 0
M  V30 1686 N 155.201 0.870884 1.31352 0
M  V30 1687 C 156.131 0.343096 2.30966 0
M  V30 1688 C 157.112 -0.566507 1.60389 0
M  V30 1689 O 158.297 -0.483336 1.88089 0
M  V30 1690 C 155.427 -0.455487 3.443 0
M  V30 1691 C 154.381 0.361103 4.26474 0
M  V30 1692 C 153.707 -0.563221 5.31725 0
M  V30 1693 C 155.007 1.59566 4.97329 0
M  V30 1694 H 156.701 1.17548 2.75359 0
M  V30 1695 H 154.247 0.566686 1.32381 0
M  V30 1696 H 156.2 -0.83525 4.13039 0
M  V30 1697 H 154.924 -1.32139 2.98675 0
M  V30 1698 H 153.583 0.722825 3.59403 0
M  V30 1699 H 153.231 -1.42643 4.82351 0
M  V30 1700 H 152.931 -0.0207409 5.87596 0
M  V30 1701 H 154.455 -0.939808 6.03324 0
M  V30 1702 H 155.869 1.28728 5.58661 0
M  V30 1703 H 154.266 2.07728 5.63 0
M  V30 1704 H 155.336 2.34798 4.24262 0
M  V30 1705 N 156.679 -1.44442 0.630414 0
M  V30 1706 C 157.904 -2.06927 0.139944 0
M  V30 1707 C 158.329 -1.46795 -1.17613 0
M  V30 1708 O 157.687 -0.569144 -1.72135 0
M  V30 1709 C 157.735 -3.6058 0.0379581 0
M  V30 1710 O 156.839 -3.99937 -1.0062 0
M  V30 1711 H 156.18 -0.658608 0.0844483 0
M  V30 1712 H 158.71 -1.85327 0.866891 0
M  V30 1713 H 158.72 -4.07714 -0.152856 0
M  V30 1714 H 157.395 -4.03728 0.998809 0
M  V30 1715 H 155.972 -3.64436 -0.79001 0
M  V30 1716 N 158.157 -0.370918 -1.53173 0
M  V30 1717 C 159.087 0.464847 -2.28826 0
M  V30 1718 C 160.068 1.07936 -1.31468 0
M  V30 1719 O 161.253 1.0956 -1.60344 0
M  V30 1720 C 158.383 1.60196 -3.08147 0
M  V30 1721 C 157.337 1.11443 -4.13237 0
M  V30 1722 C 156.663 2.3422 -4.80672 0
M  V30 1723 C 157.963 0.195384 -5.21934 0
M  V30 1724 H 159.657 -0.166329 -2.98938 0
M  V30 1725 H 157.203 -0.0814359 -1.4377 0
M  V30 1726 H 159.156 2.19332 -3.59822 0
M  V30 1727 H 157.88 2.26045 -2.35735 0
M  V30 1728 H 156.539 0.545727 -3.62515 0
M  V30 1729 H 156.187 2.98537 -4.04827 0
M  V30 1730 H 155.887 2.02269 -5.51689 0
M  V30 1731 H 157.411 2.94032 -5.35143 0
M  V30 1732 H 158.825 0.694375 -5.69079 0
M  V30 1733 H 157.222 -0.0335027 -6.00091 0
M  V30 1734 H 158.292 -0.760961 -4.78892 0
M  V30 1735 N 159.635 1.57281 -0.100228 0
M  V30 1736 C 160.598 2.13158 0.842398 0
M  V30 1737 C 161.598 1.06202 1.20738 0
M  V30 1738 O 162.788 1.32066 1.13597 0
M  V30 1739 C 159.92 2.65639 2.13655 0
M  V30 1740 H 161.113 2.97766 0.357114 0
M  V30 1741 H 158.666 1.5559 0.148823 0
M  V30 1742 H 159.401 1.84566 2.66657 0
M  V30 1743 H 159.186 3.43844 1.88451 0
M  V30 1744 H 160.676 3.08846 2.81077 0
M  V30 1745 N 161.113 -0.173488 1.56642 0
M  V30 1746 C 162.341 -0.906095 1.86004 0
M  V30 1747 C 162.756 -1.75921 0.685355 0
M  V30 1748 O 162.113 -1.79198 -0.345578 0
M  V30 1749 C 162.164 -1.78462 3.14378 0
M  V30 1750 O 161.885 -0.965914 4.27319 0
M  V30 1751 C 163.386 -2.62707 3.57071 0
M  V30 1752 H 160.606 -0.263341 0.617165 0
M  V30 1753 H 163.15 -0.174236 2.03756 0
M  V30 1754 H 161.305 -2.46984 2.98459 0
M  V30 1755 H 161.719 -1.56655 5.00559 0
M  V30 1756 H 163.193 -3.19969 4.49804 0
M  V30 1757 H 163.67 -3.37472 2.81086 0
M  V30 1758 H 164.276 -1.99521 3.75595 0
M  V30 1759 N 162.591 -1.51276 -0.441967 0
M  V30 1760 C 164.002 -1.56244 -1.02199 0
M  V30 1761 C 164.353 -0.383149 -1.92422 0
M  V30 1762 O 163.478 0.500613 -2.1053 0
M  V30 1763 C 164.073 -2.83162 -1.86024 0
M  V30 1764 C 162.632 -2.90716 -2.39084 0
M  V30 1765 C 161.779 -2.50858 -1.18175 0
M  V30 1766 H 164.73 -1.5712 -0.223416 0
M  V30 1767 H 164.751 -2.66663 -2.71425 0
M  V30 1768 H 164.263 -3.68974 -1.20331 0
M  V30 1769 H 162.364 -2.09323 -3.08244 0
M  V30 1770 H 162.477 -3.94266 -2.72198 0
M  V30 1771 H 160.841 -2.03951 -1.52565 0
M  V30 1772 H 161.624 -3.3901 -0.541001 0
M  V30 1773 N 164.069 0.697108 -1.41344 0
M  V30 1774 C 165.315 1.4593 -1.40827 0
M  V30 1775 C 165.648 1.94193 -0.0167098 0
M  V30 1776 O 164.923 1.69425 0.955263 0
M  V30 1777 C 165.206 2.67229 -2.41373 0
M  V30 1778 C 165.059 2.24741 -3.8963 0
M  V30 1779 C 166.378 3.69423 -2.39196 0
M  V30 1780 H 163.497 0.529303 -0.512842 0
M  V30 1781 H 166.139 0.794112 -1.72609 0
M  V30 1782 H 164.289 3.23982 -2.14401 0
M  V30 1783 H 165.961 1.73327 -4.27499 0
M  V30 1784 H 164.204 1.56542 -4.0457 0
M  V30 1785 H 164.875 3.1177 -4.55525 0
M  V30 1786 H 167.351 3.2234 -2.63128 0
M  V30 1787 H 166.227 4.51907 -3.11563 0
M  V30 1788 H 166.488 4.19012 -1.41001 0
M  V30 1789 N 165.547 1.27147 0.931209 0
M  V30 1790 C 166.824 1.0401 1.65654 0
M  V30 1791 C 167.204 -0.426297 2.06751 0
M  V30 1792 O 166.552 -1.40879 1.79904 0
M  V30 1793 C 166.762 1.99834 2.86125 0
M  V30 1794 C 168.11 2.29007 3.57549 0
M  V30 1795 O 169.134 1.97779 2.96246 0
M  V30 1796 O 167.993 2.82222 4.67989 0
M  V30 1797 H 165.087 0.396239 0.725895 0
M  V30 1798 H 167.633 1.38397 0.982056 0
M  V30 1799 H 166.405 2.98744 2.52721 0
M  V30 1800 H 166.028 1.65987 3.61295 0
M  V30 1801 N 167.025 -1.13721 1.09112 0
M  V30 1802 C 167.935 -2.22638 0.73957 0
M  V30 1803 C 168.951 -1.72091 -0.257068 0
M  V30 1804 O 170.127 -2.01155 -0.0992154 0
M  V30 1805 C 167.192 -3.46322 0.16191 0
M  V30 1806 C 166.253 -4.11775 1.21408 0
M  V30 1807 C 165.486 -5.29555 0.663891 0
M  V30 1808 O 165.709 -5.68077 -0.514274 0
M  V30 1809 O 164.643 -5.84973 1.41738 0
M  V30 1810 H 168.469 -2.55074 1.64836 0
M  V30 1811 H 166.054 -1.21791 0.865289 0
M  V30 1812 H 167.936 -4.21107 -0.157073 0
M  V30 1813 H 166.611 -3.15593 -0.719932 0
M  V30 1814 H 165.518 -3.3883 1.58571 0
M  V30 1815 H 166.851 -4.46627 2.06845 0
M  V30 1816 N 168.503 -0.877838 -1.30888 0
M  V30 1817 C 169.466 -0.344265 -2.266 0
M  V30 1818 C 170.466 0.50922 -1.52524 0
M  V30 1819 O 171.656 0.317398 -1.71284 0
M  V30 1820 C 168.788 0.510198 -3.37061 0
M  V30 1821 H 169.981 -1.1893 -2.7531 0
M  V30 1822 H 167.534 -0.654088 -1.41956 0
M  V30 1823 H 168.269 1.37612 -2.93655 0
M  V30 1824 H 168.054 -0.101047 -3.9197 0
M  V30 1825 H 169.544 0.875537 -4.08319 0
M  V30 1826 N 169.982 1.44106 -0.638065 0
M  V30 1827 C 171.228 2.02815 -0.15409 0
M  V30 1828 C 171.583 1.49342 1.21304 0
M  V30 1829 O 170.876 0.670699 1.79478 0
M  V30 1830 C 171.07 3.5729 -0.0887327 0
M  V30 1831 C 170.899 4.2575 -1.44799 0
M  V30 1832 C 169.669 4.62443 -2.03653 0
M  V30 1833 C 171.867 4.55746 -2.38327 0
M  V30 1834 N 169.849 5.15903 -3.32741 0
M  V30 1835 C 171.22 5.10364 -3.52036 0
M  V30 1836 C 173.275 4.37703 -2.3732 0
M  V30 1837 C 171.978 5.48837 -4.64941 0
M  V30 1838 C 174.004 4.77229 -3.49294 0
M  V30 1839 C 173.366 5.31966 -4.61726 0
M  V30 1840 H 169.465 0.775519 -0.100466 0
M  V30 1841 H 172.049 1.755 -0.843071 0
M  V30 1842 H 170.22 3.84201 0.569548 0
M  V30 1843 H 171.952 4.02671 0.404711 0
M  V30 1844 H 168.707 4.46987 -1.56523 0
M  V30 1845 H 169.131 5.47102 -3.98758 0
M  V30 1846 H 173.773 3.94671 -1.51641 0
M  V30 1847 H 171.491 5.9082 -5.51323 0
M  V30 1848 H 175.077 4.64976 -3.49698 0
M  V30 1849 H 173.957 5.61986 -5.46939 0
M  V30 1850 N 171.46 0.379036 1.52974 0
M  V30 1851 C 172.737 -0.263479 1.93817 0
M  V30 1852 C 173.117 -1.65244 1.31368 0
M  V30 1853 O 172.465 -2.23448 0.477856 0
M  V30 1854 C 172.675 -0.300166 3.47707 0
M  V30 1855 C 174.023 -0.534061 4.21228 0
M  V30 1856 O 175.047 -0.38081 3.54159 0
M  V30 1857 O 173.906 -0.833501 5.40106 0
M  V30 1858 H 171 -0.161149 0.811147 0
M  V30 1859 H 173.546 0.432798 1.64088 0
M  V30 1860 H 172.318 0.673138 3.85467 0
M  V30 1861 H 171.941 -1.04179 3.83709 0
M  V30 1862 N 172.938 -1.57226 0.108567 0
M  V30 1863 C 174.186 -1.94448 -0.550853 0
M  V30 1864 C 174.507 -0.992074 -1.67878 0
M  V30 1865 O 173.777 -0.0465 -1.95845 0
M  V30 1866 H 172.357 -0.717897 -0.206479 0
M  V30 1867 H 175.019 -1.94112 0.175062 0
M  V30 1868 H 174.115 -2.97218 -0.952259 0
M  V30 1869 N 174.416 0.165178 -1.56732 0
M  V30 1870 C 175.827 0.727046 -1.71962 0
M  V30 1871 C 176.178 1.82508 -0.720078 0
M  V30 1872 O 175.303 2.16082 0.117242 0
M  V30 1873 C 175.898 1.32559 -3.11791 0
M  V30 1874 C 174.457 1.83422 -3.28684 0
M  V30 1875 C 173.604 0.715567 -2.67908 0
M  V30 1876 H 176.555 -0.0602896 -1.58585 0
M  V30 1877 H 176.576 2.19533 -3.10782 0
M  V30 1878 H 176.088 0.526195 -3.84516 0
M  V30 1879 H 174.189 2.65986 -2.60926 0
M  V30 1880 H 174.302 1.97543 -4.36478 0
M  V30 1881 H 172.666 1.13758 -2.27884 0
M  V30 1882 H 173.449 -0.0720836 -3.43224 0
M  V30 1883 N 175.894 1.51508 0.433938 0
M  V30 1884 C 176.824 1.76016 1.53429 0
M  V30 1885 C 177.805 0.610112 1.58782 0
M  V30 1886 O 178.99 0.853177 1.74455 0
M  V30 1887 C 176.12 1.88831 2.9148 0
M  V30 1888 C 175.074 3.04288 3.00987 0
M  V30 1889 C 174.4 3.0229 4.4105 0
M  V30 1890 C 175.7 4.44193 2.74754 0
M  V30 1891 H 177.394 2.68152 1.33171 0
M  V30 1892 H 174.94 1.29035 0.639214 0
M  V30 1893 H 176.893 2.04559 3.6842 0
M  V30 1894 H 175.617 0.933455 3.12976 0
M  V30 1895 H 174.276 2.8827 2.26486 0
M  V30 1896 H 173.924 2.04576 4.59519 0
M  V30 1897 H 173.624 3.79822 4.4834 0
M  V30 1898 H 175.148 3.20116 5.1996 0
M  V30 1899 H 176.562 4.60544 3.41426 0
M  V30 1900 H 174.959 5.23457 2.9345 0
M  V30 1901 H 176.029 4.53996 1.70339 0
M  V30 1902 N 177.372 -0.689602 1.41712 0
M  V30 1903 C 178.597 -1.48329 1.44959 0
M  V30 1904 C 179.022 -1.8801 0.0581283 0
M  V30 1905 O 178.38 -1.55026 -0.940035 0
M  V30 1906 C 178.428 -2.71835 2.36935 0
M  V30 1907 O 177.532 -3.69549 1.8305 0
M  V30 1908 H 176.873 -0.446199 0.491734 0
M  V30 1909 H 179.403 -0.847127 1.86239 0
M  V30 1910 H 179.413 -3.20076 2.53013 0
M  V30 1911 H 178.088 -2.42291 3.38035 0
M  V30 1912 H 176.665 -3.2851 1.76452 0
M  V30 1913 N 178.85 -1.27639 -0.924453 0
M  V30 1914 C 179.78 -1.13166 -2.04244 0
M  V30 1915 C 180.761 -0.032256 -1.70069 0
M  V30 1916 O 181.946 -0.207328 -1.9309 0
M  V30 1917 C 179.076 -0.781496 -3.38393 0
M  V30 1918 C 178.03 -1.83449 -3.86692 0
M  V30 1919 C 177.356 -1.33822 -5.17683 0
M  V30 1920 C 178.656 -3.23917 -4.09726 0
M  V30 1921 H 180.35 -2.06689 -2.1661 0
M  V30 1922 H 177.896 -0.995136 -1.04082 0
M  V30 1923 H 179.849 -0.667057 -4.16087 0
M  V30 1924 H 178.573 0.189439 -3.2605 0
M  V30 1925 H 177.232 -1.93789 -3.11193 0
M  V30 1926 H 176.88 -0.35665 -5.01734 0
M  V30 1927 H 176.58 -2.04224 -5.50968 0
M  V30 1928 H 178.104 -1.23679 -5.97943 0
M  V30 1929 H 179.518 -3.16559 -4.77978 0
M  V30 1930 H 177.915 -3.92059 -4.54324 0
M  V30 1931 H 178.985 -3.68729 -3.14908 0
M  V30 1932 N 180.328 1.1314 -1.09713 0
M  V30 1933 C 181.276 2.20717 -0.733934 0
M  V30 1934 C 182.27 1.6729 0.266506 0
M  V30 1935 O 183.476 1.79547 0.127656 0
M  V30 1936 H 179.851 0.719292 -0.21937 0
M  V30 1937 H 181.822 2.48611 -1.6503 0
M  V30 1938 C 180.571 3.47265 -0.173849 0
M  V30 1939 H 179.894 3.88716 -0.934873 0
M  V30 1940 H 181.334 4.23979 0.0423126 0
M  V30 1941 C 179.793 3.18724 1.09164 0
M  V30 1942 O 180.323 3.37762 2.17439 0
M  V30 1943 N 178.529 2.72583 1.00732 0
M  V30 1944 H 178.076 2.57291 0.126121 0
M  V30 1945 H 178.034 2.53862 1.85476 0
M  V30 1946 N 181.806 0.884767 1.30421 0
M  V30 1947 C 183.054 0.502112 1.95763 0
M  V30 1948 C 183.375 -0.951815 1.70192 0
M  V30 1949 O 182.645 -1.6692 1.0254 0
M  V30 1950 H 181.225 0.182694 0.724315 0
M  V30 1951 H 183.887 1.1278 1.58955 0
M  V30 1952 H 182.983 0.672188 3.04775 0
M  V30 1953 N 183.284 -1.43765 0.645699 0
M  V30 1954 C 184.231 -2.30745 -0.0504648 0
M  V30 1955 C 185.201 -1.4432 -0.822241 0
M  V30 1956 O 186.386 -1.73202 -0.800358 0
M  V30 1957 C 183.526 -3.29802 -1.0161 0
M  V30 1958 C 182.639 -4.31326 -0.241219 0
M  V30 1959 C 181.774 -5.17469 -1.19998 0
M  V30 1960 C 180.813 -6.10691 -0.415094 0
M  V30 1961 N 179.95 -6.89483 -1.32506 0
M  V30 1962 H 184.79 -2.8973 0.697155 0
M  V30 1963 H 182.327 -1.42738 0.355563 0
M  V30 1964 H 184.285 -3.85734 -1.58949 0
M  V30 1965 H 182.915 -2.72483 -1.73069 0
M  V30 1966 H 181.967 -3.77749 0.448334 0
M  V30 1967 H 183.279 -4.9743 0.369437 0
M  V30 1968 H 182.433 -5.7799 -1.84424 0
M  V30 1969 H 181.172 -4.51473 -1.84455 0
M  V30 1970 H 180.177 -5.49265 0.242565 0
M  V30 1971 H 181.402 -6.78727 0.224966 0
M  V30 1972 H 179.348 -6.26142 -1.95657 0
M  V30 1973 H 179.265 -7.52081 -0.768783 0
M  V30 1974 H 180.533 -7.54516 -1.9577 0
M  V30 1975 N 184.763 -0.387143 -1.52771 0
M  V30 1976 C 186.179 -0.037007 -1.59557 0
M  V30 1977 C 186.379 1.44801 -1.40124 0
M  V30 1978 O 185.435 2.21227 -1.21716 0
M  V30 1979 C 186.748 -0.512256 -2.96305 0
M  V30 1980 C 188.296 -0.468328 -3.09476 0
M  V30 1981 C 188.771 -0.919731 -4.4867 0
M  V30 1982 N 190.262 -0.875656 -4.54848 0
M  V30 1983 C 190.997 -1.19637 -5.6078 0
M  V30 1984 N 190.493 -1.58745 -6.74368 0
M  V30 1985 N 192.286 -1.11776 -5.50874 0
M  V30 1986 H 184.437 -1.35395 -1.63652 0
M  V30 1987 H 186.7 -0.554818 -0.768688 0
M  V30 1988 H 186.406 -1.54935 -3.15734 0
M  V30 1989 H 186.28 0.089805 -3.77093 0
M  V30 1990 H 188.667 0.559671 -2.89744 0
M  V30 1991 H 188.748 -1.10616 -2.30646 0
M  V30 1992 H 188.392 -1.94595 -4.69143 0
M  V30 1993 H 188.322 -0.258927 -5.25963 0
M  V30 1994 H 190.813 -0.587843 -3.733 0
M  V30 1995 H 191.126 -1.81586 -7.51163 0
M  V30 1996 H 189.471 -1.6263 -6.75705 0
M  V30 1997 H 192.662 -0.811264 -4.61016 0
M  V30 1998 H 192.835 -1.37103 -6.3333 0
M  V30 1999 N 186.241 1.57166 -0.116904 0
M  V30 2000 C 187.49 1.94298 0.541407 0
M  V30 2001 C 187.803 1.00236 1.67964 0
M  V30 2002 O 189.009 1.26826 2.40057 0
M  V30 2003 C 187.465 3.45306 1.01449 0
M  V30 2004 C 187.073 4.47899 -0.0951738 0
M  V30 2005 C 188.817 3.91361 1.6443 0
M  V30 2006 C 186.724 5.90083 0.394491 0
M  V30 2007 H 185.654 0.725308 0.206019 0
M  V30 2008 H 188.305 1.82446 -0.196419 0
M  V30 2009 H 186.687 3.52385 1.80667 0
M  V30 2010 H 187.861 4.52486 -0.871374 0
M  V30 2011 H 186.176 4.11583 -0.631505 0
M  V30 2012 H 188.773 4.95004 2.02176 0
M  V30 2013 H 189.116 3.3122 2.52189 0
M  V30 2014 H 189.649 3.87073 0.917559 0
M  V30 2015 H 186.388 6.53974 -0.447004 0
M  V30 2016 H 185.908 5.88921 1.13722 0
M  V30 2017 H 187.587 6.41307 0.856399 0
M  V30 2018 N 187.719 -0.156864 1.56817 0
M  V30 2019 C 188.682 -1.17781 1.96622 0
M  V30 2020 C 189.682 -1.36401 0.851555 0
M  V30 2021 O 190.872 -1.33561 1.11836 0
M  V30 2022 C 188.004 -2.54008 2.27361 0
M  V30 2023 H 189.197 -0.836564 2.87996 0
M  V30 2024 H 186.75 -0.39985 1.51099 0
M  V30 2025 H 187.485 -2.9312 1.38748 0
M  V30 2026 H 187.27 -2.41856 3.08623 0
M  V30 2027 H 188.76 -3.27558 2.59029 0
M  V30 2028 N 189.197 -1.51736 -0.425897 0
M  V30 2029 C 190.425 -1.68794 -1.1965 0
M  V30 2030 C 190.84 -0.390164 -1.84725 0
M  V30 2031 O 190.197 0.632376 -1.71194 0
M  V30 2032 C 190.248 -2.81174 -2.27208 0
M  V30 2033 O 189.969 -4.05925 -1.64793 0
M  V30 2034 C 191.47 -3.09599 -3.17275 0
M  V30 2035 H 188.69 -0.566128 -0.360194 0
M  V30 2036 H 191.234 -1.98211 -0.503249 0
M  V30 2037 H 189.389 -2.54324 -2.9223 0
M  V30 2038 H 189.803 -4.68423 -2.35967 0
M  V30 2039 H 191.277 -3.91786 -3.88854 0
M  V30 2040 H 191.754 -2.22468 -3.78688 0
M  V30 2041 H 192.36 -3.38151 -2.57941 0
M  V30 2042 N 190.675 0.682077 -1.42076 0
M  V30 2043 C 191.9 1.47558 -1.45744 0
M  V30 2044 C 192.325 1.87977 -0.0680981 0
M  V30 2045 O 191.683 1.55522 0.9318 0
M  V30 2046 C 191.731 2.70575 -2.38373 0
M  V30 2047 O 190.835 3.68573 -1.85007 0
M  V30 2048 H 190.176 0.443585 -0.494093 0
M  V30 2049 H 192.706 0.837238 -1.86686 0
M  V30 2050 H 192.716 3.18729 -2.54707 0
M  V30 2051 H 191.391 2.40495 -3.39315 0
M  V30 2052 H 189.968 3.2757 -1.78192 0
M  V30 2053 N 192.153 1.28127 0.917671 0
M  V30 2054 C 193.383 1.17722 1.6978 0
M  V30 2055 C 193.791 -0.267261 1.87303 0
M  V30 2056 O 193.134 -1.19286 1.39702 0
M  V30 2057 C 193.196 1.79958 3.11216 0
M  V30 2058 C 192.86 3.29187 3.16993 0
M  V30 2059 C 193.857 4.25679 2.98485 0
M  V30 2060 C 191.542 3.70075 3.39632 0
M  V30 2061 C 193.536 5.61035 3.02521 0
M  V30 2062 C 191.223 5.05557 3.433 0
M  V30 2063 C 192.221 6.00847 3.24764 0
M  V30 2064 O 191.909 7.33859 3.28187 0
M  V30 2065 H 191.641 0.409788 0.537634 0
M  V30 2066 H 194.195 1.69694 1.15728 0
M  V30 2067 H 192.425 1.22475 3.66793 0
M  V30 2068 H 194.114 1.64125 3.71238 0
M  V30 2069 H 194.88 3.95426 2.80826 0
M  V30 2070 H 190.759 2.96373 3.53106 0
M  V30 2071 H 194.303 6.35388 2.87971 0
M  V30 2072 H 190.2 5.35462 3.60486 0
M  V30 2073 H 190.968 7.42436 3.44575 0
M  V30 2074 N 193.631 -1.12557 1.10312 0
M  V30 2075 C 195.042 -1.65574 0.862678 0
M  V30 2076 C 195.393 -1.86566 -0.607256 0
M  V30 2077 O 194.518 -1.59121 -1.46662 0
M  V30 2078 C 195.113 -3.00776 1.55947 0
M  V30 2079 C 193.672 -3.50748 1.36576 0
M  V30 2080 C 192.819 -2.25797 1.60968 0
M  V30 2081 H 195.77 -0.963552 1.26101 0
M  V30 2082 H 195.791 -3.67185 0.997753 0
M  V30 2083 H 195.303 -2.85465 2.62928 0
M  V30 2084 H 193.404 -3.71245 0.317531 0
M  V30 2085 H 193.517 -4.30289 2.10686 0
M  V30 2086 H 191.881 -2.32841 1.03234 0
M  V30 2087 H 192.664 -2.13043 2.69198 0
M  V30 2088 N 195.109 -0.891671 -1.2995 0
M  V30 2089 C 196.059 -0.334811 -2.25528 0
M  V30 2090 C 197.043 0.540553 -1.51548 0
M  V30 2091 O 198.235 0.383882 -1.72787 0
M  V30 2092 C 195.364 0.44374 -3.4042 0
M  V30 2093 C 194.45 -0.44609 -4.21747 0
M  V30 2094 N 194.841 -1.54963 -4.81477 0
M  V30 2095 C 193.139 -0.242415 -4.45341 0
M  V30 2096 C 193.84 -2.10015 -5.42465 0
M  V30 2097 N 192.816 -1.39423 -5.25416 0
M  V30 2098 H 196.618 -1.17792 -2.69262 0
M  V30 2099 H 194.132 -0.741822 -1.44467 0
M  V30 2100 H 196.129 0.859362 -4.07947 0
M  V30 2101 H 194.789 1.28421 -2.98225 0
M  V30 2102 H 195.8 -1.93244 -4.80497 0
M  V30 2103 H 192.477 0.560342 -4.13723 0
M  V30 2104 H 193.867 -3.02724 -5.9984 0
M  V30 2105 N 196.587 1.43421 -0.653314 0
M  V30 2106 C 197.517 2.33487 0.0246656 0
M  V30 2107 C 198.498 1.49475 0.811863 0
M  V30 2108 O 199.683 1.78139 0.773322 0
M  V30 2109 C 196.813 3.32841 0.99166 0
M  V30 2110 C 195.767 4.26842 0.314568 0
M  V30 2111 C 195.093 5.16236 1.39302 0
M  V30 2112 C 196.393 5.16243 -0.793095 0
M  V30 2113 H 198.087 2.90427 -0.727481 0
M  V30 2114 H 195.633 1.39649 -0.351287 0
M  V30 2115 H 197.586 3.94747 1.47487 0
M  V30 2116 H 196.31 2.74158 1.77497 0
M  V30 2117 H 194.969 3.663 -0.148199 0
M  V30 2118 H 194.617 4.53891 2.16776 0
M  V30 2119 H 194.317 5.79948 0.945223 0
M  V30 2120 H 195.841 5.81015 1.87759 0
M  V30 2121 H 197.255 5.71958 -0.392039 0
M  V30 2122 H 195.652 5.88676 -1.16536 0
M  V30 2123 H 196.722 4.55927 -1.65103 0
M  V30 2124 N 198.065 0.39524 1.52563 0
M  V30 2125 C 198.995 -0.428384 2.29537 0
M  V30 2126 C 199.976 -1.05831 1.33169 0
M  V30 2127 O 201.161 -1.06995 1.62067 0
M  V30 2128 C 198.291 -1.55274 3.10656 0
M  V30 2129 C 197.245 -1.04855 4.14957 0
M  V30 2130 C 196.571 -2.26543 4.84337 0
M  V30 2131 C 197.871 -0.112324 5.22179 0
M  V30 2132 H 199.565 0.213867 2.98635 0
M  V30 2133 H 197.111 0.104298 1.43622 0
M  V30 2134 H 199.064 -2.1358 3.63265 0
M  V30 2135 H 197.788 -2.22266 2.39302 0
M  V30 2136 H 196.447 -0.487985 3.63338 0
M  V30 2137 H 196.095 -2.92059 4.09525 0
M  V30 2138 H 195.795 -1.93466 5.54837 0
M  V30 2139 H 197.319 -2.85481 5.39753 0
M  V30 2140 H 198.733 -0.603752 5.70112 0
M  V30 2141 H 197.13 0.128968 5.99961 0
M  V30 2142 H 198.2 0.837052 4.77621 0
M  V30 2143 N 199.544 -1.57102 0.125237 0
M  V30 2144 C 200.491 -2.15641 -0.822655 0
M  V30 2145 C 201.461 -1.08313 -1.25927 0
M  V30 2146 O 202.646 -1.36251 -1.33567 0
M  V30 2147 C 199.786 -2.76504 -2.06494 0
M  V30 2148 C 198.899 -3.98158 -1.67612 0
M  V30 2149 C 198.034 -4.47088 -2.86854 0
M  V30 2150 C 197.073 -5.6126 -2.44242 0
M  V30 2151 N 196.21 -6.04905 -3.56419 0
M  V30 2152 H 201.05 -2.96313 -0.316625 0
M  V30 2153 H 198.587 -1.46388 -0.144588 0
M  V30 2154 H 200.545 -3.09925 -2.79289 0
M  V30 2155 H 199.175 -1.98512 -2.54545 0
M  V30 2156 H 198.227 -3.70858 -0.846661 0
M  V30 2157 H 199.539 -4.80934 -1.32301 0
M  V30 2158 H 198.693 -4.82451 -3.67867 0
M  V30 2159 H 197.432 -3.63275 -3.25396 0
M  V30 2160 H 196.437 -5.25495 -1.61663 0
M  V30 2161 H 197.662 -6.46843 -2.0681 0
M  V30 2162 H 195.608 -5.24032 -3.94623 0
M  V30 2163 H 195.525 -6.82552 -3.25051 0
M  V30 2164 H 196.793 -6.44907 -4.37853 0
M  V30 2165 N 201.022 0.148545 -1.56898 0
M  V30 2166 C 202.438 0.501131 -1.51528 0
M  V30 2167 C 202.638 1.83458 -0.833399 0
M  V30 2168 O 201.694 2.49259 -0.40328 0
M  V30 2169 C 203.007 0.512864 -2.96294 0
M  V30 2170 C 204.555 0.598487 -3.07225 0
M  V30 2171 C 205.03 0.640897 -4.53494 0
M  V30 2172 N 206.521 0.703163 -4.57832 0
M  V30 2173 C 207.256 0.756935 -5.68382 0
M  V30 2174 N 206.752 0.770147 -6.88506 0
M  V30 2175 N 208.545 0.797698 -5.56411 0
M  V30 2176 H 200.696 -0.725532 -1.99624 0
M  V30 2177 H 202.959 -0.264358 -0.910395 0
M  V30 2178 H 202.665 -0.398691 -3.49433 0
M  V30 2179 H 202.539 1.35133 -3.52163 0
M  V30 2180 H 204.926 1.50046 -2.54106 0
M  V30 2181 H 205.007 -0.267093 -2.54402 0
M  V30 2182 H 204.651 -0.256915 -5.0725 0
M  V30 2183 H 204.581 1.52295 -5.04097 0
M  V30 2184 H 207.072 0.700314 -3.71354 0
M  V30 2185 H 207.385 0.812983 -7.68512 0
M  V30 2186 H 205.73 0.738049 -6.9107 0
M  V30 2187 H 208.921 0.784535 -4.61479 0
M  V30 2188 H 209.094 0.83614 -6.42583 0
M  V30 2189 N 202.5 1.5196 0.417844 0
M  V30 2190 C 203.73 1.69181 1.18581 0
M  V30 2191 C 204.138 0.397104 1.84986 0
M  V30 2192 O 203.481 -0.636011 1.72339 0
M  V30 2193 C 203.543 2.76497 2.29759 0
M  V30 2194 C 203.207 4.18514 1.83563 0
M  V30 2195 C 204.204 5.02648 1.32821 0
M  V30 2196 C 201.889 4.64708 1.90661 0
M  V30 2197 C 203.883 6.31044 0.897894 0
M  V30 2198 C 201.57 5.93096 1.47241 0
M  V30 2199 C 202.568 6.76093 0.968891 0
M  V30 2200 O 202.256 8.02078 0.540924 0
M  V30 2201 H 201.988 0.570457 0.362705 0
M  V30 2202 H 204.542 1.99249 0.498885 0
M  V30 2203 H 202.772 2.41786 3.01789 0
M  V30 2204 H 204.461 2.82403 2.91553 0
M  V30 2205 H 205.227 4.68154 1.26716 0
M  V30 2206 H 201.106 4.00216 2.28797 0
M  V30 2207 H 204.65 6.95776 0.504192 0
M  V30 2208 H 200.547 6.271 1.53022 0
M  V30 2209 H 201.315 8.15794 0.66502 0
M  V30 2210 N 203.978 -0.674533 1.42435 0
M  V30 2211 C 204.908 -1.80009 1.48724 0
M  V30 2212 C 205.889 -1.6659 0.343793 0
M  V30 2213 O 207.074 -1.86007 0.558137 0
M  V30 2214 C 204.204 -3.18306 1.38919 0
M  V30 2215 C 203.158 -3.46461 2.51294 0
M  V30 2216 C 202.484 -4.84335 2.26547 0
M  V30 2217 C 203.784 -3.43328 3.93603 0
M  V30 2218 H 205.478 -1.75004 2.42928 0
M  V30 2219 H 203.024 -0.840533 1.16923 0
M  V30 2220 H 204.977 -3.9678 1.41927 0
M  V30 2221 H 203.701 -3.2399 0.412094 0
M  V30 2222 H 202.36 -2.70348 2.47604 0
M  V30 2223 H 202.008 -4.86669 1.2713 0
M  V30 2224 H 201.708 -5.04136 3.01861 0
M  V30 2225 H 203.232 -5.65094 2.31304 0
M  V30 2226 H 204.646 -4.11772 3.98894 0
M  V30 2227 H 203.043 -3.74664 4.68771 0
M  V30 2228 H 204.113 -2.41897 4.20255 0
M  V30 2229 N 205.456 -1.28612 -0.910864 0
M  V30 2230 C 206.733 -1.06632 -1.63979 0
M  V30 2231 C 207.113 0.393351 -2.07403 0
M  V30 2232 O 206.461 1.37999 -1.82122 0
M  V30 2233 C 206.671 -2.0436 -2.8291 0
M  V30 2234 C 208.019 -2.34666 -3.5386 0
M  V30 2235 O 209.043 -2.02467 -2.93062 0
M  V30 2236 O 207.902 -2.89631 -4.63439 0
M  V30 2237 H 204.996 -0.407737 -0.7195 0
M  V30 2238 H 207.542 -1.39942 -0.959914 0
M  V30 2239 H 206.314 -3.02727 -2.47936 0
M  V30 2240 H 205.937 -1.71714 -3.58609 0
M  V30 2241 N 206.934 1.1197 -1.10907 0
M  V30 2242 C 207.866 2.17592 -0.720175 0
M  V30 2243 C 208.879 1.60938 0.245495 0
M  V30 2244 O 210.068 1.78476 0.0292245 0
M  V30 2245 C 207.168 3.38873 -0.0427917 0
M  V30 2246 C 206.341 4.25006 -1.03388 0
M  V30 2247 C 205.4 5.24774 -0.387075 0
M  V30 2248 O 204.426 5.59631 -1.03934 0
M  V30 2249 N 205.628 5.74208 0.852407 0
M  V30 2250 H 208.393 2.51567 -1.62893 0
M  V30 2251 H 205.954 1.27439 -0.998543 0
M  V30 2252 H 207.946 4.02703 0.401501 0
M  V30 2253 H 206.516 3.03007 0.768456 0
M  V30 2254 H 205.736 3.57716 -1.65629 0
M  V30 2255 H 207.024 4.79397 -1.70458 0
M  V30 2256 H 206.422 5.48062 1.40161 0
M  V30 2257 H 204.979 6.39901 1.23977 0
M  V30 2258 N 208.412 0.89855 1.29475 0
M  V30 2259 C 209.359 0.373819 2.27753 0
M  V30 2260 C 210.329 -0.543444 1.56958 0
M  V30 2261 O 211.514 -0.468934 1.84948 0
M  V30 2262 C 208.654 -0.393648 3.42848 0
M  V30 2263 C 207.767 0.554379 4.28428 0
M  V30 2264 C 206.902 -0.230026 5.30702 0
M  V30 2265 C 205.941 0.712599 6.07938 0
M  V30 2266 N 205.078 -0.0373283 7.0209 0
M  V30 2267 H 209.918 1.21699 2.72017 0
M  V30 2268 H 207.455 0.611456 1.33789 0
M  V30 2269 H 209.413 -0.85466 4.08352 0
M  V30 2270 H 208.043 -1.20128 2.99615 0
M  V30 2271 H 207.095 1.13391 3.63107 0
M  V30 2272 H 208.407 1.27597 4.82204 0
M  V30 2273 H 207.561 -0.752288 6.02018 0
M  V30 2274 H 206.3 -0.984758 4.77654 0
M  V30 2275 H 205.305 1.24637 5.35486 0
M  V30 2276 H 206.53 1.46664 6.63074 0
M  V30 2277 H 204.476 -0.774348 6.51414 0
M  V30 2278 H 204.393 0.624374 7.53417 0
M  V30 2279 H 205.661 -0.539891 7.77628 0
M  V30 2280 N 209.89 -1.43072 0.660911 0
M  V30 2281 C 211.138 -2.01323 0.177094 0
M  V30 2282 C 211.459 -1.5245 -1.2159 0
M  V30 2283 O 210.729 -0.740322 -1.81373 0
M  V30 2284 H 209.309 -0.744382 0.0624804 0
M  V30 2285 H 211.971 -1.75179 0.854305 0
M  V30 2286 H 211.067 -3.11649 0.167641 0
M  V30 2287 N 211.368 -0.403325 -1.52352 0
M  V30 2288 C 212.617 0.175668 -2.00934 0
M  V30 2289 C 212.93 1.46718 -1.29356 0
M  V30 2290 O 214.136 2.12708 -1.68724 0
M  V30 2291 C 212.592 0.363612 -3.58058 0
M  V30 2292 C 212.2 -0.915472 -4.38547 0
M  V30 2293 C 213.944 0.89821 -4.14888 0
M  V30 2294 C 211.851 -0.695035 -5.87302 0
M  V30 2295 H 210.781 0.0694234 -0.750797 0
M  V30 2296 H 213.432 -0.527879 -1.75743 0
M  V30 2297 H 211.814 1.12935 -3.79555 0
M  V30 2298 H 212.988 -1.68691 -4.28812 0
M  V30 2299 H 211.303 -1.37606 -3.93006 0
M  V30 2300 H 213.9 1.07907 -5.23699 0
M  V30 2301 H 214.243 1.87126 -3.71873 0
M  V30 2302 H 214.776 0.191681 -3.97338 0
M  V30 2303 H 211.515 -1.63948 -6.34666 0
M  V30 2304 H 211.035 0.0372116 -5.99788 0
M  V30 2305 H 212.714 -0.33497 -6.46132 0
M  V30 2306 N 212.846 1.57033 -0.133567 0
M  V30 2307 C 214.071 2.00475 0.531477 0
M  V30 2308 C 214.496 1.01291 1.58499 0
M  V30 2309 O 213.854 -0.0133279 1.81295 0
M  V30 2310 C 213.902 3.42729 1.12113 0
M  V30 2311 O 213.006 3.46498 2.23636 0
M  V30 2312 H 212.347 0.650876 0.131362 0
M  V30 2313 H 214.877 2.03344 -0.22634 0
M  V30 2314 H 214.887 3.81246 1.4531 0
M  V30 2315 H 213.562 4.14428 0.349557 0
M  V30 2316 H 212.139 3.19811 1.91769 0
M  V30 2317 N 214.325 -0.140222 1.56975 0
M  V30 2318 C 215.572 -0.851687 1.83719 0
M  V30 2319 C 215.9 -1.80862 0.715485 0
M  V30 2320 O 215.155 -1.93464 -0.294956 0
M  V30 2321 C 215.454 -1.65386 3.16832 0
M  V30 2322 C 215.12 -0.843112 4.42947 0
M  V30 2323 C 213.782 -0.619464 4.77196 0
M  V30 2324 C 216.134 -0.276582 5.20466 0
M  V30 2325 C 213.462 0.181312 5.8642 0
M  V30 2326 C 215.814 0.51127 6.30531 0
M  V30 2327 C 214.478 0.745432 6.63325 0
M  V30 2328 H 213.748 -0.311654 0.672274 0
M  V30 2329 H 216.395 -0.115006 1.91154 0
M  V30 2330 H 214.7 -2.46084 3.04877 0
M  V30 2331 H 216.397 -2.20793 3.34741 0
M  V30 2332 H 212.987 -1.0275 4.16101 0
M  V30 2333 H 217.171 -0.436632 4.94376 0
M  V30 2334 H 212.427 0.372165 6.10266 0
M  V30 2335 H 216.601 0.957354 6.89788 0
M  V30 2336 H 214.228 1.36778 7.47794 0
M  V30 2337 N 215.803 -1.52179 -0.40978 0
M  V30 2338 C 216.75 -1.75475 -1.49924 0
M  V30 2339 C 217.72 -0.597175 -1.54994 0
M  V30 2340 O 218.905 -0.834655 -1.71575 0
M  V30 2341 C 216.045 -1.9107 -2.87378 0
M  V30 2342 C 215.158 -3.18717 -2.91622 0
M  V30 2343 C 214.293 -3.24747 -4.20372 0
M  V30 2344 C 213.332 -4.46598 -4.18588 0
M  V30 2345 N 212.469 -4.50025 -5.38908 0
M  V30 2346 H 217.309 -2.68458 -1.29361 0
M  V30 2347 H 214.846 -1.33024 -0.627934 0
M  V30 2348 H 216.804 -1.98096 -3.6717 0
M  V30 2349 H 215.434 -1.01469 -3.06437 0
M  V30 2350 H 214.486 -3.20866 -2.04326 0
M  V30 2351 H 215.798 -4.08544 -2.86169 0
M  V30 2352 H 214.952 -3.30841 -5.08556 0
M  V30 2353 H 213.691 -2.32857 -4.28519 0
M  V30 2354 H 212.696 -4.40652 -3.28794 0
M  V30 2355 H 213.921 -5.39783 -4.12081 0
M  V30 2356 H 211.867 -3.61017 -5.47725 0
M  V30 2357 H 211.784 -5.33697 -5.35447 0
M  V30 2358 H 213.052 -4.60347 -6.29048 0
M  V30 2359 N 217.281 0.66697 -1.42791 0
M  V30 2360 C 218.506 1.46004 -1.47301 0
M  V30 2361 C 218.931 1.87894 -0.0880317 0
M  V30 2362 O 218.289 1.56502 0.915253 0
M  V30 2363 C 218.337 2.68031 -2.41229 0
M  V30 2364 O 217.441 3.6659 -1.88906 0
M  V30 2365 H 216.782 0.43832 -0.49877 0
M  V30 2366 H 219.312 0.817391 -1.87563 0
M  V30 2367 H 219.322 3.1601 -2.58073 0
M  V30 2368 H 217.997 2.36883 -3.41847 0
M  V30 2369 H 216.574 3.25661 -1.81656 0
M  V30 2370 N 218.759 1.29093 0.90403 0
M  V30 2371 C 219.999 1.18076 1.66845 0
M  V30 2372 C 220.363 -0.26436 1.90171 0
M  V30 2373 O 221.564 -0.497423 2.64157 0
M  V30 2374 C 219.835 1.96722 2.98388 0
M  V30 2375 S 221.394 2.0219 3.89441 0
M  V30 2376 H 218.212 0.421104 0.572881 0
M  V30 2377 H 220.814 1.63322 1.07453 0
M  V30 2378 H 219.518 3.00866 2.7912 0
M  V30 2379 H 219.049 1.52064 3.62823 0
M  V30 2380 H 221.064 1.13545 4.83034 0
M  V30 2381 N 220.237 -1.11381 1.11499 0
M  V30 2382 C 221.167 -2.19509 0.796125 0
M  V30 2383 C 222.148 -1.68458 -0.235796 0
M  V30 2384 O 223.333 -1.93947 -0.0991344 0
M  V30 2385 C 220.463 -3.46475 0.239205 0
M  V30 2386 C 219.417 -4.10744 1.20307 0
M  V30 2387 C 218.743 -5.32293 0.50683 0
M  V30 2388 C 220.043 -4.55597 2.55399 0
M  V30 2389 H 221.737 -2.46439 1.70024 0
M  V30 2390 H 219.283 -1.18446 0.818935 0
M  V30 2391 H 221.236 -4.214 0.00392006 0
M  V30 2392 H 219.96 -3.19006 -0.700206 0
M  V30 2393 H 218.619 -3.37813 1.42399 0
M  V30 2394 H 218.267 -5.01095 -0.437408 0
M  V30 2395 H 217.967 -5.76243 1.1497 0
M  V30 2396 H 219.491 -6.09956 0.280351 0
M  V30 2397 H 220.905 -5.21841 2.37391 0
M  V30 2398 H 219.302 -5.10363 3.15673 0
M  V30 2399 H 220.372 -3.69013 3.14575 0
M  V30 2400 N 221.715 -0.905404 -1.28997 0
M  V30 2401 C 222.645 -0.404212 -2.29975 0
M  V30 2402 C 223.626 0.523784 -1.61835 0
M  V30 2403 O 224.811 0.433298 -1.89304 0
M  V30 2404 C 221.941 0.364042 -3.45387 0
M  V30 2405 C 220.895 -0.474048 -4.25367 0
M  V30 2406 C 220.221 0.422045 -5.33032 0
M  V30 2407 C 221.521 -1.72696 -4.92923 0
M  V30 2408 H 223.215 -1.24807 -2.72146 0
M  V30 2409 H 220.761 -0.601585 -1.30832 0
M  V30 2410 H 222.714 0.725447 -4.15109 0
M  V30 2411 H 221.438 1.24174 -3.02074 0
M  V30 2412 H 220.097 -0.81786 -3.57361 0
M  V30 2413 H 219.745 1.29804 -4.85963 0
M  V30 2414 H 219.445 -0.135057 -5.87445 0
M  V30 2415 H 220.969 0.779517 -6.05604 0
M  V30 2416 H 222.383 -1.43495 -5.55051 0
M  V30 2417 H 220.78 -2.22582 -5.57295 0
M  V30 2418 H 221.85 -2.45964 -4.17887 0
M  V30 2419 N 223.193 1.4272 -0.668489 0
M  V30 2420 C 224.141 2.32586 0.0254857 0
M  V30 2421 C 225.135 1.49471 0.797176 0
M  V30 2422 O 226.341 1.65583 0.705853 0
M  V30 2423 H 222.716 0.751514 0.0270339 0
M  V30 2424 H 224.687 2.88823 -0.749936 0
M  V30 2425 C 223.436 3.3397 0.967427 0
M  V30 2426 H 222.759 3.97961 0.383048 0
M  V30 2427 H 224.199 3.9945 1.42181 0
M  V30 2428 C 222.658 2.65744 2.0708 0
M  V30 2429 O 223.188 2.48454 3.15648 0
M  V30 2430 N 221.394 2.2487 1.8407 0
M  V30 2431 H 220.941 2.39132 0.95778 0
M  V30 2432 H 220.899 1.79552 2.58086 0
M  V30 2433 N 224.671 0.411399 1.52136 0
M  V30 2434 C 225.919 -0.163322 2.01439 0
M  V30 2435 C 226.24 -1.45453 1.29879 0
M  V30 2436 O 225.51 -1.91225 0.4254 0
M  V30 2437 H 224.09 -0.0633447 0.744309 0
M  V30 2438 H 226.752 0.548161 1.87033 0
M  V30 2439 H 225.848 -0.357817 3.10042 0
M  V30 2440 N 226.149 -1.5696 0.141893 0
M  V30 2441 C 227.374 -2.00754 -0.520838 0
M  V30 2442 C 227.799 -1.0213 -1.57959 0
M  V30 2443 O 227.157 0.00371324 -1.813 0
M  V30 2444 C 227.205 -3.43318 -1.10294 0
M  V30 2445 O 226.309 -3.47679 -2.21795 0
M  V30 2446 H 225.65 -0.651564 -0.127908 0
M  V30 2447 H 228.18 -2.03221 0.23712 0
M  V30 2448 H 228.19 -3.82012 -1.43287 0
M  V30 2449 H 226.865 -4.14608 -0.327574 0
M  V30 2450 H 225.442 -3.20824 -1.9007 0
M  V30 2451 N 227.627 0.131896 -1.57047 0
M  V30 2452 C 228.873 0.843179 -1.84441 0
M  V30 2453 C 229.206 1.80129 -0.725749 0
M  V30 2454 O 228.481 1.92624 0.269469 0
M  V30 2455 C 228.764 1.60442 -3.22382 0
M  V30 2456 C 228.617 0.666782 -4.4483 0
M  V30 2457 C 229.936 2.56354 -3.5773 0
M  V30 2458 H 227.055 0.305081 -0.670891 0
M  V30 2459 H 229.697 0.107839 -1.89694 0
M  V30 2460 H 227.847 2.23128 -3.18035 0
M  V30 2461 H 229.519 0.0497646 -4.61273 0
M  V30 2462 H 227.762 -0.022609 -4.33794 0
M  V30 2463 H 228.433 1.23579 -5.37989 0
M  V30 2464 H 230.909 2.0378 -3.62785 0
M  V30 2465 H 229.785 3.06657 -4.5525 0
M  V30 2466 H 230.046 3.38419 -2.84473 0
M  V30 2467 N 229.106 1.52395 0.401703 0
M  V30 2468 C 230.016 1.7917 1.51444 0
M  V30 2469 C 231.032 0.677691 1.6026 0
M  V30 2470 O 232.208 0.963909 1.76835 0
M  V30 2471 C 229.273 1.94347 2.87107 0
M  V30 2472 C 228.334 3.18257 2.88116 0
M  V30 2473 C 227.567 3.32701 4.17308 0
M  V30 2474 O 227.79 2.52238 5.11598 0
M  V30 2475 O 226.724 4.25891 4.25324 0
M  V30 2476 H 230.55 2.73633 1.31752 0
M  V30 2477 H 228.135 1.3733 0.588296 0
M  V30 2478 H 230.017 2.06109 3.67555 0
M  V30 2479 H 228.692 1.03073 3.06851 0
M  V30 2480 H 227.599 3.11947 2.06494 0
M  V30 2481 H 228.932 4.09336 2.73322 0
M  V30 2482 N 230.584 -0.659388 1.43143 0
M  V30 2483 C 231.83 -1.42145 1.44647 0
M  V30 2484 C 232.163 -1.9408 0.0681907 0
M  V30 2485 O 231.438 -1.71899 -0.910007 0
M  V30 2486 C 231.721 -2.60735 2.48373 0
M  V30 2487 C 231.574 -2.14332 3.95451 0
M  V30 2488 C 232.893 -3.62951 2.48906 0
M  V30 2489 H 230.012 -0.51552 0.526696 0
M  V30 2490 H 232.654 -0.748069 1.74654 0
M  V30 2491 H 230.804 -3.18184 2.22916 0
M  V30 2492 H 232.476 -1.61932 4.31944 0
M  V30 2493 H 230.719 -1.4576 4.08578 0
M  V30 2494 H 231.39 -2.99583 4.63631 0
M  V30 2495 H 233.866 -3.1525 2.71582 0
M  V30 2496 H 232.742 -4.43487 3.23435 0
M  V30 2497 H 233.003 -4.15126 1.52061 0
M  V30 2498 N 232.062 -1.29571 -0.897171 0
M  V30 2499 C 233.025 -1.14913 -1.98312 0
M  V30 2500 C 234.025 -0.0838629 -1.60581 0
M  V30 2501 O 235.215 -0.331006 -1.71026 0
M  V30 2502 C 232.347 -0.757835 -3.3237 0
M  V30 2503 H 233.54 -2.11377 -2.12743 0
M  V30 2504 H 231.093 -1.12793 -1.08201 0
M  V30 2505 H 231.828 0.206837 -3.2364 0
M  V30 2506 H 231.613 -1.52755 -3.61121 0
M  V30 2507 H 233.103 -0.678408 -4.12053 0
M  V30 2508 N 233.54 1.10788 -1.12088 0
M  V30 2509 C 234.951 1.64181 -0.88891 0
M  V30 2510 C 235.302 1.87508 0.577498 0
M  V30 2511 O 234.427 1.61434 1.44112 0
M  V30 2512 C 235.022 2.98257 -1.60712 0
M  V30 2513 C 233.581 3.4853 -1.42139 0
M  V30 2514 C 232.728 2.23208 -1.6454 0
M  V30 2515 H 235.679 0.943368 -1.27618 0
M  V30 2516 H 235.7 3.65552 -1.05604 0
M  V30 2517 H 235.212 2.81246 -2.67436 0
M  V30 2518 H 233.313 3.70692 -0.376552 0
M  V30 2519 H 233.426 4.26882 -2.17505 0
M  V30 2520 H 231.79 2.31169 -1.06925 0
M  V30 2521 H 232.573 2.08733 -2.72554 0
M  V30 2522 N 235.018 0.912232 1.28515 0
M  V30 2523 C 236.434 0.610159 1.47476 0
M  V30 2524 C 236.634 -0.844955 1.82928 0
M  V30 2525 O 235.69 -1.62416 1.93332 0
M  V30 2526 C 237.003 1.54675 2.57868 0
M  V30 2527 C 238.551 1.55331 2.71738 0
M  V30 2528 C 239.026 2.47649 3.85272 0
M  V30 2529 N 240.517 2.45767 3.92623 0
M  V30 2530 C 241.252 3.13896 4.79851 0
M  V30 2531 N 240.748 3.9135 5.71679 0
M  V30 2532 N 242.541 3.02991 4.73448 0
M  V30 2533 H 234.692 1.85318 1.03783 0
M  V30 2534 H 236.955 0.794777 0.516753 0
M  V30 2535 H 236.661 2.5841 2.38574 0
M  V30 2536 H 236.535 1.27671 3.54937 0
M  V30 2537 H 238.922 0.52335 2.90422 0
M  V30 2538 H 239.003 1.86378 1.75205 0
M  V30 2539 H 238.647 3.50745 3.67342 0
M  V30 2540 H 238.577 2.13904 4.81199 0
M  V30 2541 H 241.068 1.89503 3.26951 0
M  V30 2542 H 241.381 4.40359 6.35062 0
M  V30 2543 H 239.726 3.95455 5.71524 0
M  V30 2544 H 242.917 2.41987 4.007 0
M  V30 2545 H 243.09 3.5636 5.41213 0
M  V30 2546 N 236.496 -1.42363 0.676048 0
M  V30 2547 C 237.459 -2.29199 0.00766941 0
M  V30 2548 C 238.459 -1.43389 -0.727745 0
M  V30 2549 O 239.649 -1.64764 -0.56556 0
M  V30 2550 C 236.781 -3.2591 -0.999785 0
M  V30 2551 H 237.974 -2.89794 0.771988 0
M  V30 2552 H 235.527 -1.50024 0.438468 0
M  V30 2553 H 236.262 -2.70256 -1.79255 0
M  V30 2554 H 236.047 -3.89202 -0.475829 0
M  V30 2555 H 237.537 -3.91028 -1.46583 0
M  V30 2556 N 237.974 -0.419461 -1.51915 0
M  V30 2557 C 239.222 0.152637 -2.01523 0
M  V30 2558 C 239.543 1.44762 -1.30649 0
M  V30 2559 O 238.813 1.90997 -0.435535 0
M  V30 2560 H 237.393 0.0593966 -0.744635 0
M  V30 2561 H 240.055 -0.558073 -1.86739 0
M  V30 2562 H 239.151 0.341369 -3.10227 0
M  V30 2563 N 239.452 1.56882 -0.150215 0
M  V30 2564 C 240.382 2.19935 0.784284 0
M  V30 2565 C 241.363 1.14854 1.25469 0
M  V30 2566 O 242.548 1.43209 1.31168 0
M  V30 2567 C 239.678 2.82349 2.02229 0
M  V30 2568 C 238.632 3.93285 1.68853 0
M  V30 2569 C 237.958 4.42649 2.99944 0
M  V30 2570 C 239.258 5.13904 0.932714 0
M  V30 2571 H 240.952 2.9828 0.258781 0
M  V30 2572 H 238.498 1.43473 0.123029 0
M  V30 2573 H 240.451 3.25126 2.68088 0
M  V30 2574 H 239.175 2.0134 2.57157 0
M  V30 2575 H 237.834 3.5113 1.05371 0
M  V30 2576 H 237.482 3.58458 3.52869 0
M  V30 2577 H 237.182 5.17476 2.78374 0
M  V30 2578 H 238.706 4.88099 3.66868 0
M  V30 2579 H 240.12 5.53506 1.49345 0
M  V30 2580 H 238.517 5.94515 0.81684 0
M  V30 2581 H 239.587 4.84842 -0.0749568 0
M  V30 2582 N 240.93 -0.123565 1.57115 0
M  V30 2583 C 241.893 -1.13583 1.99076 0
M  V30 2584 C 242.893 -1.34564 0.880296 0
M  V30 2585 O 244.083 -1.31158 1.14644 0
M  V30 2586 C 241.215 -2.49128 2.32698 0
M  V30 2587 H 242.408 -0.775287 2.89706 0
M  V30 2588 H 239.961 -0.36771 1.51913 0
M  V30 2589 H 240.696 -2.90111 1.44934 0
M  V30 2590 H 240.481 -2.35255 3.13684 0
M  V30 2591 H 241.971 -3.2199 2.65918 0
M  V30 2592 N 242.408 -1.52605 -0.393616 0
M  V30 2593 C 243.685 -1.58001 -1.15304 0
M  V30 2594 C 244.065 -0.370385 -2.07825 0
M  V30 2595 O 243.413 0.641638 -2.19306 0
M  V30 2596 C 243.623 -2.91652 -1.91677 0
M  V30 2597 C 244.971 -3.4522 -2.47201 0
M  V30 2598 O 245.995 -2.93495 -2.01839 0
M  V30 2599 O 244.854 -4.35579 -3.3005 0
M  V30 2600 H 241.948 -0.637068 -0.527327 0
M  V30 2601 H 244.494 -1.64939 -0.399141 0
M  V30 2602 H 243.266 -3.71136 -1.23992 0
M  V30 2603 H 242.889 -2.88077 -2.74039 0
M  V30 2604 N 243.887 0.651787 -1.4349 0
M  V30 2605 C 244.85 1.74647 -1.48429 0
M  V30 2606 C 245.85 1.56513 -0.368817 0
M  V30 2607 O 247.04 1.62385 -0.630623 0
M  V30 2608 C 244.172 3.13533 -1.33827 0
M  V30 2609 H 245.365 1.71649 -2.4592 0
M  V30 2610 H 242.918 0.863573 -1.30277 0
M  V30 2611 H 243.653 3.22142 -0.37349 0
M  V30 2612 H 243.438 3.28101 -2.14691 0
M  V30 2613 H 244.928 3.93356 -1.40218 0
M  V30 2614 N 245.365 1.30045 0.890287 0
M  V30 2615 C 246.614 1.17929 1.63633 0
M  V30 2616 C 246.927 -0.266204 1.9378 0
M  V30 2617 O 248.133 -0.508804 2.6669 0
M  V30 2618 C 246.589 2.06317 2.94892 0
M  V30 2619 C 246.197 3.55745 2.72305 0
M  V30 2620 C 247.941 2.0295 3.72843 0
M  V30 2621 C 245.848 4.36205 3.99348 0
M  V30 2622 H 244.778 0.437782 0.613892 0
M  V30 2623 H 247.429 1.54754 0.986075 0
M  V30 2624 H 245.811 1.6237 3.61182 0
M  V30 2625 H 246.985 4.07805 2.1455 0
M  V30 2626 H 245.3 3.6088 2.07737 0
M  V30 2627 H 247.897 2.60319 4.67053 0
M  V30 2628 H 248.24 1.0117 4.0382 0
M  V30 2629 H 248.773 2.4499 3.13408 0
M  V30 2630 H 245.512 5.38659 3.73533 0
M  V30 2631 H 245.032 3.8891 4.56628 0
M  V30 2632 H 246.711 4.47362 4.67415 0
M  V30 2633 N 246.843 -1.10192 1.12674 0
M  V30 2634 C 248.083 -1.83825 0.893736 0
M  V30 2635 C 248.447 -1.83341 -0.570082 0
M  V30 2636 O 249.648 -2.52553 -0.920354 0
M  V30 2637 C 247.919 -3.26405 1.45582 0
M  V30 2638 S 249.478 -4.17136 1.36171 0
M  V30 2639 H 246.296 -0.633732 0.322342 0
M  V30 2640 H 248.898 -1.32581 1.43675 0
M  V30 2641 H 247.602 -3.24329 2.51473 0
M  V30 2642 H 247.133 -3.82721 0.910405 0
M  V30 2643 H 249.148 -4.95069 0.334863 0
M  V30 2644 N 248.321 -0.919034 -1.28029 0
M  V30 2645 C 249.598 -0.473668 -1.89778 0
M  V30 2646 C 249.978 1.04783 -1.83259 0
M  V30 2647 O 249.326 1.8982 -1.27202 0
M  V30 2648 C 249.536 -1.00998 -3.34066 0
M  V30 2649 C 250.884 -1.06525 -4.1102 0
M  V30 2650 O 251.908 -0.958996 -3.43048 0
M  V30 2651 O 250.767 -1.22776 -5.3253 0
M  V30 2652 H 247.861 -0.15098 -0.813101 0
M  V30 2653 H 250.407 -1.01016 -1.36359 0
M  V30 2654 H 249.179 -2.05392 -3.33061 0
M  V30 2655 H 248.802 -0.454626 -3.94992 0
M  V30 2656 N 249.799 1.42003 -0.683588 0
M  V30 2657 C 250.729 2.33487 -0.024866 0
M  V30 2658 C 251.71 1.51163 0.779975 0
M  V30 2659 O 252.895 1.79739 0.735362 0
M  V30 2660 C 250.025 3.3487 0.920836 0
M  V30 2661 C 248.979 4.27414 0.223958 0
M  V30 2662 C 248.305 5.19074 1.2832 0
M  V30 2663 C 249.605 5.14445 -0.90242 0
M  V30 2664 H 251.299 2.88819 -0.788921 0
M  V30 2665 H 248.845 1.38873 -0.38083 0
M  V30 2666 H 250.798 3.97787 1.39081 0
M  V30 2667 H 249.522 2.77861 1.71642 0
M  V30 2668 H 248.181 3.65904 -0.225864 0
M  V30 2669 H 247.829 4.58387 2.071 0
M  V30 2670 H 247.529 5.81822 0.821995 0
M  V30 2671 H 249.053 5.84867 1.75392 0
M  V30 2672 H 250.467 5.70998 -0.513272 0
M  V30 2673 H 248.864 5.86072 -1.28997 0
M  V30 2674 H 249.934 4.52322 -1.74737 0
M  V30 2675 N 251.277 0.427512 1.51691 0
M  V30 2676 C 252.523 -0.142439 2.02299 0
M  V30 2677 C 252.856 -1.43214 1.31162 0
M  V30 2678 O 252.131 -1.89833 0.423511 0
M  V30 2679 C 252.414 -0.371301 3.58181 0
M  V30 2680 C 252.267 0.936358 4.39946 0
M  V30 2681 C 253.586 -1.14542 4.24933 0
M  V30 2682 H 250.705 -0.0502937 0.735282 0
M  V30 2683 H 253.347 0.564584 1.81418 0
M  V30 2684 H 251.497 -0.973559 3.76104 0
M  V30 2685 H 253.169 1.57184 4.33694 0
M  V30 2686 H 251.412 1.5432 4.05423 0
M  V30 2687 H 252.083 0.730388 5.47147 0
M  V30 2688 H 254.559 -0.635362 4.11221 0
M  V30 2689 H 253.435 -1.27431 5.33903 0
M  V30 2690 H 253.696 -2.17093 3.85127 0
M  V30 2691 N 252.755 -1.56801 0.158532 0
M  V30 2692 C 253.98 -2.01295 -0.499516 0
M  V30 2693 C 254.405 -1.03799 -1.56867 0
M  V30 2694 O 253.763 -0.0155162 -1.81293 0
M  V30 2695 C 253.811 -3.44469 -1.06647 0
M  V30 2696 O 252.915 -3.50012 -2.18095 0
M  V30 2697 H 252.256 -0.652884 -0.12099 0
M  V30 2698 H 254.786 -2.02958 0.258661 0
M  V30 2699 H 254.796 -3.8351 -1.39227 0
M  V30 2700 H 253.471 -4.14932 -0.283581 0
M  V30 2701 H 252.048 -3.22822 -1.86656 0
M  V30 2702 N 254.233 0.115231 -1.57178 0
M  V30 2703 C 255.461 0.836437 -1.89239 0
M  V30 2704 C 255.876 1.73256 -0.750175 0
M  V30 2705 O 255.233 1.80357 0.278832 0
M  V30 2706 C 255.284 1.66671 -3.20785 0
M  V30 2707 O 255.005 0.806652 -4.3061 0
M  V30 2708 C 256.506 2.49274 -3.66575 0
M  V30 2709 H 253.726 0.240253 -0.626514 0
M  V30 2710 H 256.27 0.0984932 -2.04263 0
M  V30 2711 H 254.425 2.35737 -3.0742 0
M  V30 2712 H 254.839 1.37969 -5.06028 0
M  V30 2713 H 256.313 3.03055 -4.6137 0
M  V30 2714 H 256.79 3.26807 -2.93417 0
M  V30 2715 H 257.396 1.85443 -3.82741 0
M  V30 2716 N 255.711 1.52812 0.385517 0
M  V30 2717 C 256.959 1.67694 1.12797 0
M  V30 2718 C 257.28 0.421115 1.90399 0
M  V30 2719 O 256.55 -0.564551 1.87589 0
M  V30 2720 H 255.13 0.618155 0.419396 0
M  V30 2721 H 257.792 1.89938 0.436972 0
M  V30 2722 H 256.888 2.52896 1.82894 0
M  V30 2723 N 257.189 -0.644168 1.43834 0
M  V30 2724 C 258.152 -1.73857 1.49353 0
M  V30 2725 C 259.152 -1.56315 0.377112 0
M  V30 2726 O 260.342 -1.62048 0.639226 0
M  V30 2727 C 257.474 -3.12819 1.35488 0
M  V30 2728 H 258.667 -1.70342 2.46827 0
M  V30 2729 H 256.22 -0.856652 1.30733 0
M  V30 2730 H 256.955 -3.2194 0.390569 0
M  V30 2731 H 256.74 -3.26958 2.16428 0
M  V30 2732 H 258.23 -3.92606 1.42302 0
M  V30 2733 N 258.668 -1.30515 -0.883378 0
M  V30 2734 C 259.896 -1.22359 -1.66841 0
M  V30 2735 C 260.311 0.213296 -1.87591 0
M  V30 2736 O 259.668 1.14075 -1.42454 0
M  V30 2737 C 259.719 -1.95011 -3.04389 0
M  V30 2738 O 259.44 -3.3309 -2.84575 0
M  V30 2739 C 260.941 -1.93532 -3.98824 0
M  V30 2740 H 258.161 -0.423371 -0.520575 0
M  V30 2741 H 260.705 -1.72167 -1.10357 0
M  V30 2742 H 258.86 -1.48997 -3.57601 0
M  V30 2743 H 259.274 -3.69907 -3.71846 0
M  V30 2744 H 260.748 -2.48902 -4.92699 0
M  V30 2745 H 261.225 -0.914627 -4.29571 0
M  V30 2746 H 261.831 -2.39364 -3.51547 0
M  V30 2747 N 260.146 1.09593 -1.13257 0
M  V30 2748 C 261.076 2.18214 -0.830946 0
M  V30 2749 C 262.057 1.68812 0.208966 0
M  V30 2750 O 263.242 1.9408 0.0682666 0
M  V30 2751 C 260.372 3.46051 -0.294296 0
M  V30 2752 C 259.326 4.08778 -1.26826 0
M  V30 2753 C 258.652 5.31419 -0.591449 0
M  V30 2754 C 259.952 4.51476 -2.62615 0
M  V30 2755 H 261.646 2.43703 -1.73923 0
M  V30 2756 H 259.192 1.17128 -0.837675 0
M  V30 2757 H 261.145 4.2134 -0.0709606 0
M  V30 2758 H 259.869 3.20079 0.649366 0
M  V30 2759 H 258.528 3.35505 -1.47756 0
M  V30 2760 H 258.176 5.01727 0.357633 0
M  V30 2761 H 257.876 5.74341 -1.24123 0
M  V30 2762 H 259.4 6.09433 -0.377355 0
M  V30 2763 H 260.814 5.17999 -2.45663 0
M  V30 2764 H 259.211 5.05277 -3.23752 0
M  V30 2765 H 260.281 3.63962 -3.20406 0
M  V30 2766 N 261.624 0.925811 1.2754 0
M  V30 2767 C 262.534 0.428993 2.30644 0
M  V30 2768 C 263.55 -0.489387 1.66976 0
M  V30 2769 O 264.726 -0.372653 1.97922 0
M  V30 2770 C 261.791 -0.311967 3.45294 0
M  V30 2771 C 260.852 0.641098 4.24486 0
M  V30 2772 C 260.085 -0.0645955 5.33661 0
M  V30 2773 O 260.308 -1.28429 5.55754 0
M  V30 2774 O 259.242 0.606265 5.98839 0
M  V30 2775 H 263.068 1.28504 2.75173 0
M  V30 2776 H 260.653 0.691086 1.32455 0
M  V30 2777 H 262.535 -0.729972 4.15029 0
M  V30 2778 H 261.21 -1.14365 3.02824 0
M  V30 2779 H 260.117 1.10874 3.57292 0
M  V30 2780 H 261.45 1.43995 4.70666 0
M  V30 2781 N 263.102 -1.41638 0.69111 0
M  V30 2782 C 264.065 -2.29178 0.0319786 0
M  V30 2783 C 265.065 -1.44153 -0.712496 0
M  V30 2784 O 266.255 -1.65354 -0.548053 0
M  V30 2785 C 263.387 -3.26952 -0.965161 0
M  V30 2786 H 264.58 -2.88959 0.802681 0
M  V30 2787 H 262.133 -1.4955 0.454356 0
M  V30 2788 H 262.868 -2.72142 -1.76378 0
M  V30 2789 H 262.653 -3.89685 -0.434522 0
M  V30 2790 H 264.143 -3.92561 -1.42428 0
M  V30 2791 N 264.58 -0.43555 -1.51462 0
M  V30 2792 C 265.528 0.391205 -2.29287 0
M  V30 2793 C 266.522 1.02247 -1.35062 0
M  V30 2794 O 267.728 0.957646 -1.52411 0
M  V30 2795 H 264.103 0.144968 -0.737895 0
M  V30 2796 H 266.074 -0.286051 -2.97026 0
M  V30 2797 C 264.823 1.48096 -3.14583 0
M  V30 2798 H 264.146 1.00457 -3.86973 0
M  V30 2799 H 265.586 2.03273 -3.72097 0
M  V30 2800 C 264.045 2.46321 -2.29843 0
M  V30 2801 O 264.575 3.50815 -1.95682 0
M  V30 2802 N 262.781 2.17166 -1.931 0
M  V30 2803 H 262.328 1.32218 -2.21079 0
M  V30 2804 H 262.286 2.83127 -1.36698 0
M  V30 2805 N 266.058 1.56714 -0.166846 0
M  V30 2806 C 267.306 1.96358 0.478305 0
M  V30 2807 C 267.627 1.0537 1.6408 0
M  V30 2808 O 266.897 0.119154 1.95537 0
M  V30 2809 H 265.477 0.725065 0.179692 0
M  V30 2810 H 268.139 1.93329 -0.246985 0
M  V30 2811 H 267.235 3.00547 0.841292 0
M  V30 2812 N 267.536 -0.106894 1.57237 0
M  V30 2813 C 268.466 -1.13148 2.04254 0
M  V30 2814 C 269.447 -1.42476 0.929224 0
M  V30 2815 O 270.632 -1.52709 1.19973 0
M  V30 2816 C 267.762 -2.4545 2.45706 0
M  V30 2817 C 266.716 -2.30558 3.60592 0
M  V30 2818 C 266.042 -3.67931 3.87983 0
M  V30 2819 C 267.342 -1.75597 4.91897 0
M  V30 2820 H 269.036 -0.740374 2.90101 0
M  V30 2821 H 266.582 -0.354696 1.39563 0
M  V30 2822 H 268.535 -3.17389 2.77205 0
M  V30 2823 H 267.259 -2.86475 1.56843 0
M  V30 2824 H 265.918 -1.61067 3.29322 0
M  V30 2825 H 265.566 -4.06462 2.96306 0
M  V30 2826 H 265.266 -3.58817 4.65322 0
M  V30 2827 H 266.79 -4.41356 4.21945 0
M  V30 2828 H 268.204 -2.37364 5.21854 0
M  V30 2829 H 266.601 -1.77272 5.73319 0
M  V30 2830 H 267.671 -0.714451 4.79608 0
M  V30 2831 N 269.014 -1.53014 -0.377408 0
M  V30 2832 C 270.43 -1.42523 -0.718281 0
M  V30 2833 C 270.63 -0.55487 -1.9371 0
M  V30 2834 O 269.686 -0.0327593 -2.52479 0
M  V30 2835 C 270.999 -2.85546 -0.942539 0
M  V30 2836 C 272.547 -2.95101 -1.04329 0
M  V30 2837 C 273.022 -4.3916 -1.3001 0
M  V30 2838 N 274.513 -4.42536 -1.36806 0
M  V30 2839 C 275.248 -5.51097 -1.58364 0
M  V30 2840 N 274.744 -6.69724 -1.77317 0
M  V30 2841 N 276.537 -5.38657 -1.60638 0
M  V30 2842 H 268.688 -2.08116 0.424426 0
M  V30 2843 H 270.951 -0.939352 0.127759 0
M  V30 2844 H 270.657 -3.51499 -0.118929 0
M  V30 2845 H 270.531 -3.28493 -1.85397 0
M  V30 2846 H 272.918 -2.29309 -1.85745 0
M  V30 2847 H 272.999 -2.55566 -0.109505 0
M  V30 2848 H 272.643 -5.05521 -0.490991 0
M  V30 2849 H 272.573 -4.76258 -2.24691 0
M  V30 2850 H 275.064 -3.57039 -1.23821 0
M  V30 2851 H 275.377 -7.48233 -1.93306 0
M  V30 2852 H 273.722 -6.72732 -1.74518 0
M  V30 2853 H 276.913 -4.44948 -1.45391 0
M  V30 2854 H 277.086 -6.2333 -1.77098 0
M  V30 2855 N 270.492 0.636531 -1.44174 0
M  V30 2856 C 271.402 1.77754 -1.53103 0
M  V30 2857 C 272.418 1.68928 -0.417034 0
M  V30 2858 O 273.594 1.89801 -0.6736 0
M  V30 2859 C 270.659 3.14115 -1.46741 0
M  V30 2860 C 269.72 3.34612 -2.68948 0
M  V30 2861 C 268.953 4.64467 -2.6288 0
M  V30 2862 O 269.176 5.44919 -1.68581 0
M  V30 2863 O 268.11 4.87049 -3.53648 0
M  V30 2864 H 271.936 1.73174 -2.49489 0
M  V30 2865 H 269.521 0.79709 -1.2636 0
M  V30 2866 H 271.403 3.95412 -1.45696 0
M  V30 2867 H 270.078 3.19249 -0.534975 0
M  V30 2868 H 268.985 2.53014 -2.75562 0
M  V30 2869 H 270.318 3.34336 -3.61221 0
M  V30 2870 N 271.97 1.30982 0.876444 0
M  V30 2871 C 273.216 1.20474 1.63138 0
M  V30 2872 C 273.549 -0.238096 1.92735 0
M  V30 2873 O 272.824 -1.1692 1.55435 0
M  V30 2874 C 273.107 2.04244 2.96574 0
M  V30 2875 C 272.96 3.56793 2.73896 0
M  V30 2876 C 274.279 1.88684 3.97601 0
M  V30 2877 H 271.398 0.439001 0.591985 0
M  V30 2878 H 274.04 1.60704 1.01361 0
M  V30 2879 H 272.19 1.70063 3.493 0
M  V30 2880 H 273.862 4.01077 2.27892 0
M  V30 2881 H 272.105 3.80548 2.08245 0
M  V30 2882 H 272.776 4.10706 3.68815 0
M  V30 2883 H 275.252 2.18584 3.54062 0
M  V30 2884 H 274.128 2.4961 4.88862 0
M  V30 2885 H 274.389 0.848343 4.33884 0
M  V30 2886 N 273.449 -1.08991 1.13837 0
M  V30 2887 C 274.359 -2.19301 0.833333 0
M  V30 2888 C 275.375 -1.73026 -0.183847 0
M  V30 2889 O 276.551 -2.01395 -0.0138092 0
M  V30 2890 C 273.616 -3.45323 0.308651 0
M  V30 2891 C 272.677 -4.06255 1.38764 0
M  V30 2892 C 271.91 -5.26262 0.887896 0
M  V30 2893 O 272.133 -5.69747 -0.27287 0
M  V30 2894 O 271.067 -5.78435 1.66421 0
M  V30 2895 H 274.893 -2.47854 1.75506 0
M  V30 2896 H 272.478 -1.18012 0.916166 0
M  V30 2897 H 274.36 -4.21394 0.0216739 0
M  V30 2898 H 273.035 -3.18362 -0.585431 0
M  V30 2899 H 271.942 -3.318 1.72799 0
M  V30 2900 H 273.275 -4.37452 2.25602 0
M  V30 2901 N 274.927 -0.932562 -1.27047 0
M  V30 2902 C 276.173 -0.576412 -1.94436 0
M  V30 2903 C 276.506 0.880891 -1.73072 0
M  V30 2904 O 275.781 1.62905 -1.06264 0
M  V30 2905 C 276.064 -0.909031 -3.48437 0
M  V30 2906 C 275.917 -2.42044 -3.79123 0
M  V30 2907 C 277.236 -0.418341 -4.38107 0
M  V30 2908 H 274.355 -0.210888 -0.706184 0
M  V30 2909 H 276.997 -1.16522 -1.50075 0
M  V30 2910 H 275.147 -0.407947 -3.86352 0
M  V30 2911 H 276.819 -2.99359 -3.50973 0
M  V30 2912 H 275.062 -2.86758 -3.25503 0
M  V30 2913 H 275.733 -2.6037 -4.86736 0
M  V30 2914 H 278.209 -0.847856 -4.0737 0
M  V30 2915 H 277.085 -0.679981 -5.44672 0
M  V30 2916 H 277.346 0.681642 -4.36814 0
M  V30 2917 N 276.405 1.4127 -0.698611 0
M  V30 2918 C 277.654 2.00408 -0.227949 0
M  V30 2919 C 277.967 1.55981 1.18023 0
M  V30 2920 O 279.173 2.07699 1.74852 0
M  V30 2921 C 277.629 3.58129 -0.356636 0
M  V30 2922 C 277.237 4.11536 -1.77037 0
M  V30 2923 C 278.981 4.24466 0.0540969 0
M  V30 2924 C 276.888 5.61701 -1.85055 0
M  V30 2925 H 275.818 0.749586 -0.0814657 0
M  V30 2926 H 278.469 1.61713 -0.867249 0
M  V30 2927 H 276.851 3.94442 0.350965 0
M  V30 2928 H 278.025 3.86636 -2.50698 0
M  V30 2929 H 276.34 3.57736 -2.13105 0
M  V30 2930 H 278.937 5.34698 0.0146723 0
M  V30 2931 H 279.28 4.01687 1.09332 0
M  V30 2932 H 279.813 3.93198 -0.603337 0
M  V30 2933 H 276.552 5.89312 -2.8704 0
M  V30 2934 H 276.072 5.88519 -1.15783 0
M  V30 2935 H 277.751 6.26524 -1.61484 0
M  V30 2936 N 277.883 0.443576 1.51229 0
M  V30 2937 C 279.113 -0.119117 2.06256 0
M  V30 2938 C 279.521 -1.36471 1.31043 0
M  V30 2939 O 278.864 -1.80034 0.365151 0
M  V30 2940 C 278.926 -0.500546 3.55998 0
M  V30 2941 C 278.59 0.639125 4.52509 0
M  V30 2942 C 279.587 1.51311 4.97394 0
M  V30 2943 C 277.272 0.821632 4.95535 0
M  V30 2944 C 279.266 2.55425 5.83984 0
M  V30 2945 C 276.953 1.86603 5.81913 0
M  V30 2946 C 277.951 2.73072 6.26036 0
M  V30 2947 O 277.639 3.75718 7.10698 0
M  V30 2948 H 277.371 -0.00857665 0.675946 0
M  V30 2949 H 279.925 0.623288 1.95715 0
M  V30 2950 H 278.155 -1.29575 3.64345 0
M  V30 2951 H 279.844 -0.995116 3.93513 0
M  V30 2952 H 280.61 1.38367 4.64844 0
M  V30 2953 H 276.489 0.158149 4.60729 0
M  V30 2954 H 280.033 3.22949 6.18344 0
M  V30 2955 H 275.93 1.99564 6.13876 0
M  V30 2956 H 276.698 3.72374 7.2889 0
M  V30 2957 N 279.361 -1.56624 0.175154 0
M  V30 2958 C 280.777 -1.58571 -0.180966 0
M  V30 2959 C 280.977 -1.19065 -1.6256 0
M  V30 2960 O 280.033 -0.904044 -2.35761 0
M  V30 2961 C 281.346 -3.00522 0.103326 0
M  V30 2962 C 282.894 -3.12972 0.0418426 0
M  V30 2963 C 283.369 -4.57022 0.299175 0
M  V30 2964 N 284.86 -4.62541 0.247086 0
M  V30 2965 C 285.595 -5.71857 0.420318 0
M  V30 2966 N 285.091 -6.89717 0.652816 0
M  V30 2967 N 286.884 -5.60972 0.355957 0
M  V30 2968 H 279.035 -1.80589 1.11809 0
M  V30 2969 H 281.298 -0.837178 0.444788 0
M  V30 2970 H 281.004 -3.33916 1.10422 0
M  V30 2971 H 280.878 -3.72344 -0.603299 0
M  V30 2972 H 283.265 -2.79403 -0.949636 0
M  V30 2973 H 283.346 -2.43578 0.781238 0
M  V30 2974 H 282.99 -4.913 1.28788 0
M  V30 2975 H 282.92 -5.24579 -0.460876 0
M  V30 2976 H 285.411 -3.77829 0.0731895 0
M  V30 2977 H 285.724 -7.68911 0.774347 0
M  V30 2978 H 284.069 -6.91572 0.689476 0
M  V30 2979 H 287.26 -4.67773 0.174882 0
M  V30 2980 H 287.433 -6.46111 0.494388 0
M  V30 2981 N 280.839 0.0985539 -1.57292 0
M  V30 2982 C 282.064 0.820196 -1.90493 0
M  V30 2983 C 282.489 1.71658 -0.769094 0
M  V30 2984 O 281.847 1.79133 0.279495 0
M  V30 2985 C 281.895 1.61242 -3.22542 0
M  V30 2986 O 280.999 2.72108 -3.09888 0
M  V30 2987 H 280.34 0.225547 -0.62452 0
M  V30 2988 H 282.87 0.0748159 -2.04463 0
M  V30 2989 H 282.88 1.99737 -3.55766 0
M  V30 2990 H 281.555 0.954535 -4.04798 0
M  V30 2991 H 280.132 2.36667 -2.88172 0
M  V30 2992 N 282.317 1.53212 0.369288 0
M  V30 2993 C 283.264 1.79388 1.45219 0
M  V30 2994 C 284.234 0.638059 1.53356 0
M  V30 2995 O 285.419 0.879852 1.69302 0
M  V30 2996 C 282.559 1.98623 2.82211 0
M  V30 2997 C 281.672 3.26337 2.8307 0
M  V30 2998 C 280.807 3.35779 4.11614 0
M  V30 2999 C 279.846 4.5754 4.06601 0
M  V30 3000 N 278.983 4.64155 5.26787 0
M  V30 3001 H 283.823 2.71794 1.22198 0
M  V30 3002 H 281.36 1.34642 0.592444 0
M  V30 3003 H 283.318 2.07761 3.61789 0
M  V30 3004 H 281.948 1.09558 3.03639 0
M  V30 3005 H 281 3.26171 1.95747 0
M  V30 3006 H 282.312 4.15988 2.75237 0
M  V30 3007 H 281.466 3.44208 4.99606 0
M  V30 3008 H 280.205 2.44137 4.22195 0
M  V30 3009 H 279.21 4.49215 3.16996 0
M  V30 3010 H 280.435 5.50519 3.97625 0
M  V30 3011 H 278.381 3.75413 5.3796 0
M  V30 3012 H 278.298 5.47706 5.21109 0
M  V30 3013 H 279.566 4.76863 6.16621 0
M  V30 3014 N 283.795 -0.628877 1.44509 0
M  V30 3015 C 284.758 -1.72263 1.51188 0
M  V30 3016 C 285.758 -1.55907 0.39367 0
M  V30 3017 O 286.948 -1.61361 0.656377 0
M  V30 3018 C 284.08 -3.11365 1.38798 0
M  V30 3019 H 285.273 -1.67714 2.4862 0
M  V30 3020 H 282.826 -0.842737 1.31634 0
M  V30 3021 H 283.561 -3.21507 0.424693 0
M  V30 3022 H 283.346 -3.24644 2.19884 0
M  V30 3023 H 284.836 -3.91075 1.46458 0
M  V30 3024 N 285.273 -1.31445 -0.869486 0
M  V30 3025 C 286.513 -1.22458 -1.63656 0
M  V30 3026 C 286.877 0.213846 -1.90805 0
M  V30 3027 O 288.078 0.427212 -2.65383 0
M  V30 3028 C 286.349 -2.04564 -2.93067 0
M  V30 3029 S 287.908 -2.12445 -3.83944 0
M  V30 3030 H 284.726 -0.436145 -0.561514 0
M  V30 3031 H 287.328 -1.66114 -1.03085 0
M  V30 3032 H 286.032 -3.0816 -2.71045 0
M  V30 3033 H 285.563 -1.6163 -3.58663 0
M  V30 3034 H 287.578 -1.26312 -4.79854 0
M  V30 3035 N 286.751 1.08385 -1.14413 0
M  V30 3036 C 287.681 2.17321 -0.854044 0
M  V30 3037 C 288.662 1.69024 0.191049 0
M  V30 3038 O 289.847 1.94141 0.0476779 0
M  V30 3039 C 286.977 3.45719 -0.330983 0
M  V30 3040 C 285.931 4.07409 -1.31155 0
M  V30 3041 C 285.257 5.30762 -0.64778 0
M  V30 3042 C 286.557 4.48665 -2.67388 0
M  V30 3043 H 288.251 2.41845 -1.76498 0
M  V30 3044 H 285.797 1.16233 -0.850051 0
M  V30 3045 H 287.75 4.21241 -0.115645 0
M  V30 3046 H 286.474 3.2075 0.615381 0
M  V30 3047 H 285.133 3.33919 -1.51306 0
M  V30 3048 H 284.781 5.02078 0.304398 0
M  V30 3049 H 284.481 5.72992 -1.30207 0
M  V30 3050 H 286.005 6.08998 -0.441972 0
M  V30 3051 H 287.419 5.15364 -2.51143 0
M  V30 3052 H 285.816 5.01814 -3.29093 0
M  V30 3053 H 286.886 3.60543 -3.24248 0
M  V30 3054 N 288.23 0.939286 1.26551 0
M  V30 3055 C 289.479 0.581601 1.93133 0
M  V30 3056 C 289.792 -0.883224 1.74524 0
M  V30 3057 O 290.998 -1.3502 2.35546 0
M  V30 3058 C 289.454 0.989425 3.46032 0
M  V30 3059 C 289.062 2.47573 3.73379 0
M  V30 3060 C 290.806 0.703544 4.18629 0
M  V30 3061 C 288.713 2.82235 5.19709 0
M  V30 3062 H 287.643 0.213803 0.723052 0
M  V30 3063 H 290.294 1.14167 1.4366 0
M  V30 3064 H 288.676 0.357902 3.94379 0
M  V30 3065 H 289.85 3.15614 3.35744 0
M  V30 3066 H 288.165 2.73471 3.1401 0
M  V30 3067 H 290.762 0.938869 5.26393 0
M  V30 3068 H 291.105 -0.359639 4.14744 0
M  V30 3069 H 291.638 1.2947 3.76141 0
M  V30 3070 H 288.377 3.87509 5.28694 0
M  V30 3071 H 287.897 2.18854 5.58447 0
M  V30 3072 H 289.576 2.70599 5.87695 0
M  V30 3073 N 289.708 -1.40897 0.706093 0
M  V30 3074 C 290.64 -2.29199 0.00815776 0
M  V30 3075 C 291.653 -1.45336 -0.733582 0
M  V30 3076 O 292.842 -1.68727 -0.582537 0
M  V30 3077 C 289.942 -3.23417 -1.01265 0
M  V30 3078 C 289.115 -4.36089 -0.338387 0
M  V30 3079 C 288.174 -5.10811 -1.26326 0
M  V30 3080 O 287.2 -5.64215 -0.751651 0
M  V30 3081 N 288.402 -5.19269 -2.595 0
M  V30 3082 H 291.167 -2.89738 0.766297 0
M  V30 3083 H 288.728 -1.52164 0.55296 0
M  V30 3084 H 290.72 -3.70276 -1.63334 0
M  V30 3085 H 289.29 -2.64112 -1.67223 0
M  V30 3086 H 288.51 -3.91479 0.462352 0
M  V30 3087 H 289.798 -5.08634 0.130031 0
M  V30 3088 H 289.196 -4.77347 -3.03573 0
M  V30 3089 H 287.753 -5.69667 -3.16737 0
M  V30 3090 N 291.186 -0.45159 -1.50991 0
M  V30 3091 C 292.602 -0.104647 -1.59257 0
M  V30 3092 C 292.802 1.38728 -1.4614 0
M  V30 3093 O 291.858 2.15866 -1.30989 0
M  V30 3094 C 293.171 -0.637468 -2.93865 0
M  V30 3095 C 294.719 -0.599166 -3.07212 0
M  V30 3096 C 295.194 -1.1092 -4.44366 0
M  V30 3097 N 296.685 -1.06778 -4.50725 0
M  V30 3098 C 297.42 -1.43314 -5.55201 0
M  V30 3099 N 296.916 -1.87204 -6.67028 0
M  V30 3100 N 298.709 -1.3504 -5.45638 0
M  V30 3101 H 290.86 -1.42214 -1.57762 0
M  V30 3102 H 293.123 -0.586921 -0.744465 0
M  V30 3103 H 292.829 -1.68187 -3.08879 0
M  V30 3104 H 292.703 -0.0702139 -3.77135 0
M  V30 3105 H 295.09 0.436277 -2.91857 0
M  V30 3106 H 295.171 -1.20299 -2.25747 0
M  V30 3107 H 294.815 -2.14318 -4.60467 0
M  V30 3108 H 294.745 -0.481773 -5.24392 0
M  V30 3109 H 297.236 -0.745643 -3.70471 0
M  V30 3110 H 297.549 -2.13282 -7.42786 0
M  V30 3111 H 295.894 -1.91142 -6.68199 0
M  V30 3112 H 299.085 -1.00607 -4.57161 0
M  V30 3113 H 299.258 -1.63841 -6.26945 0
M  V30 3114 N 292.664 1.56529 -0.183458 0
M  V30 3115 C 293.941 1.88959 0.50536 0
M  V30 3116 C 294.321 1.09523 1.80466 0
M  V30 3117 O 293.669 0.19278 2.27685 0
M  V30 3118 C 293.879 3.41162 0.73547 0
M  V30 3119 C 295.227 4.11155 1.06005 0
M  V30 3120 O 296.251 3.46548 0.823594 0
M  V30 3121 O 295.11 5.25318 1.50675 0
M  V30 3122 H 292.204 0.78441 0.261973 0
M  V30 3123 H 294.75 1.68231 -0.222802 0
M  V30 3124 H 293.522 3.90874 -0.182561 0
M  V30 3125 H 293.145 3.67543 1.51651 0
M  V30 3126 N 294.142 -0.090211 1.57342 0
M  V30 3127 C 295.39 -0.791241 1.85967 0
M  V30 3128 C 295.711 -1.7903 0.772859 0
M  V30 3129 O 294.981 -1.94872 -0.200398 0
M  V30 3130 H 293.561 -0.295205 0.686195 0
M  V30 3131 H 296.223 -0.0706782 1.94772 0
M  V30 3132 H 295.319 -1.31882 2.82867 0
M  V30 3133 N 295.62 -1.53406 -0.361157 0
M  V30 3134 C 296.53 -1.83122 -1.4664 0
M  V30 3135 C 297.546 -0.719943 -1.58407 0
M  V30 3136 O 298.722 -1.01046 -1.74218 0
M  V30 3137 C 295.787 -2.01891 -2.81853 0
M  V30 3138 C 294.848 -3.25784 -2.79577 0
M  V30 3139 C 294.081 -3.43648 -4.0834 0
M  V30 3140 O 294.304 -2.65714 -5.0473 0
M  V30 3141 O 293.238 -4.37018 -4.13883 0
M  V30 3142 H 297.064 -2.7703 -1.24451 0
M  V30 3143 H 294.649 -1.38841 -0.551678 0
M  V30 3144 H 296.531 -2.15782 -3.61962 0
M  V30 3145 H 295.206 -1.11173 -3.0401 0
M  V30 3146 H 294.113 -3.17312 -1.98151 0
M  V30 3147 H 295.446 -4.16439 -2.62373 0
M  V30 3148 N 297.098 0.621204 -1.44841 0
M  V30 3149 C 298.031 1.7459 -1.46947 0
M  V30 3150 C 299.009 1.59273 -0.327238 0
M  V30 3151 O 300.193 1.81021 -0.525706 0
M  V30 3152 C 297.32 3.12274 -1.31159 0
M  V30 3153 C 296.366 3.46216 -2.49072 0
M  V30 3154 S 297.199 3.4258 -4.11581 0
M  V30 3155 C 298.355 4.82867 -3.98233 0
M  V30 3156 H 298.588 1.72538 -2.42111 0
M  V30 3157 H 296.121 0.796683 -1.32259 0
M  V30 3158 H 298.079 3.91722 -1.22737 0
M  V30 3159 H 296.74 3.11855 -0.374885 0
M  V30 3160 H 295.933 4.4643 -2.33915 0
M  V30 3161 H 295.535 2.74253 -2.54286 0
M  V30 3162 H 297.827 5.7234 -3.62537 0
M  V30 3163 H 298.77 5.0308 -4.98313 0
M  V30 3164 H 299.178 4.57908 -3.30121 0
M  V30 3165 N 298.576 1.31904 0.862503 0
M  V30 3166 C 299.486 1.22161 2.00285 0
M  V30 3167 C 300.502 0.136785 1.73462 0
M  V30 3168 O 301.678 0.355994 1.98229 0
M  V30 3169 C 298.743 0.937093 3.33796 0
M  V30 3170 C 297.804 2.10957 3.73893 0
M  V30 3171 C 297.037 1.83853 5.01033 0
M  V30 3172 O 297.26 0.777274 5.65079 0
M  V30 3173 O 296.194 2.69741 5.38074 0
M  V30 3174 H 300.02 2.18008 2.11439 0
M  V30 3175 H 297.605 1.11716 0.991957 0
M  V30 3176 H 299.487 0.794583 4.13841 0
M  V30 3177 H 298.162 0.00871894 3.23699 0
M  V30 3178 H 297.069 2.30752 2.94456 0
M  V30 3179 H 298.402 3.02046 3.88625 0
M  V30 3180 N 300.054 -1.07777 1.14986 0
M  V30 3181 C 300.964 -2.18404 0.856546 0
M  V30 3182 C 301.98 -1.73211 -0.165485 0
M  V30 3183 O 303.156 -2.01399 0.00755219 0
M  V30 3184 C 300.221 -3.44977 0.34526 0
M  V30 3185 C 299.282 -4.0476 1.43065 0
M  V30 3186 C 298.515 -5.25291 0.943663 0
M  V30 3187 O 298.738 -5.70004 -0.212426 0
M  V30 3188 O 297.672 -5.76638 1.72547 0
M  V30 3189 H 301.498 -2.45978 1.78125 0
M  V30 3190 H 299.083 -1.17033 0.928631 0
M  V30 3191 H 300.965 -4.21348 0.0663671 0
M  V30 3192 H 299.64 -3.18965 -0.551631 0
M  V30 3193 H 298.547 -3.29949 1.76309 0
M  V30 3194 H 299.88 -4.35035 2.30229 0
M  V30 3195 N 301.532 -0.945985 -1.26051 0
M  V30 3196 C 302.757 -0.612525 -1.98149 0
M  V30 3197 C 303.182 0.806623 -1.69927 0
M  V30 3198 O 302.54 1.54411 -0.950108 0
M  V30 3199 C 302.588 -0.866981 -3.50023 0
M  V30 3200 O 301.692 0.0585333 -4.12358 0
M  V30 3201 H 301.033 -0.23379 -0.621481 0
M  V30 3202 H 303.563 -1.27023 -1.60395 0
M  V30 3203 H 303.573 -0.789792 -4.00283 0
M  V30 3204 H 302.248 -1.90135 -3.69894 0
M  V30 3205 H 300.825 -0.0701241 -3.72834 0
M  V30 3206 N 303.011 1.40521 -0.713556 0
M  V30 3207 C 303.958 2.30723 -0.059684 0
M  V30 3208 C 304.928 1.48079 0.752448 0
M  V30 3209 O 306.113 1.76823 0.71681 0
M  V30 3210 C 303.253 3.34274 0.857594 0
M  V30 3211 C 302.366 4.31986 0.0351536 0
M  V30 3212 C 301.501 5.22605 0.951724 0
M  V30 3213 C 300.54 6.11976 0.123253 0
M  V30 3214 N 299.677 6.9502 0.99459 0
M  V30 3215 H 304.517 2.86074 -0.834596 0
M  V30 3216 H 302.054 1.40879 -0.42326 0
M  V30 3217 H 304.012 3.92879 1.40364 0
M  V30 3218 H 302.642 2.8043 1.59871 0
M  V30 3219 H 301.694 3.7518 -0.628052 0
M  V30 3220 H 303.006 4.95101 -0.606347 0
M  V30 3221 H 302.16 5.86131 1.56638 0
M  V30 3222 H 300.899 4.59759 1.62705 0
M  V30 3223 H 299.904 5.47482 -0.50435 0
M  V30 3224 H 301.129 6.76881 -0.548539 0
M  V30 3225 H 299.075 6.34764 1.6556 0
M  V30 3226 H 298.992 7.54892 0.40908 0
M  V30 3227 H 300.26 7.62997 1.59549 0
M  V30 3228 N 304.489 0.459591 1.5075 0
M  V30 3229 C 305.421 -0.37665 2.26084 0
M  V30 3230 C 306.434 -0.967109 1.30961 0
M  V30 3231 O 307.623 -0.857468 1.56556 0
M  V30 3232 C 304.723 -1.54112 3.01832 0
M  V30 3233 C 303.896 -1.06553 4.24223 0
M  V30 3234 C 302.955 -2.1027 4.82362 0
M  V30 3235 O 301.981 -1.68798 5.43595 0
M  V30 3236 N 303.183 -3.42974 4.68347 0
M  V30 3237 H 305.948 0.269124 2.98489 0
M  V30 3238 H 303.509 0.28972 1.59287 0
M  V30 3239 H 305.501 -2.23165 3.37608 0
M  V30 3240 H 304.071 -2.0918 2.32298 0
M  V30 3241 H 303.291 -0.201274 3.93686 0
M  V30 3242 H 304.579 -0.725516 5.03601 0
M  V30 3243 H 303.977 -3.79385 4.19623 0
M  V30 3244 H 302.534 -4.07858 5.08424 0
M  V30 3245 N 305.967 -1.56429 0.191757 0
M  V30 3246 C 306.899 -2.16154 -0.762245 0
M  V30 3247 C 307.912 -1.12247 -1.17917 0
M  V30 3248 O 309.101 -1.39353 -1.11548 0
M  V30 3249 C 306.201 -2.70606 -2.04024 0
M  V30 3250 C 305.374 -3.99381 -1.78364 0
M  V30 3251 C 304.433 -4.38692 -2.90578 0
M  V30 3252 O 303.459 -5.06179 -2.6033 0
M  V30 3253 N 304.661 -4.01922 -4.18854 0
M  V30 3254 H 307.426 -2.98643 -0.251526 0
M  V30 3255 H 304.987 -1.61897 0.00967373 0
M  V30 3256 H 306.979 -2.93891 -2.78227 0
M  V30 3257 H 305.549 -1.9259 -2.46227 0
M  V30 3258 H 304.769 -3.84262 -0.879581 0
M  V30 3259 H 306.057 -4.83445 -1.58614 0
M  V30 3260 H 305.455 -3.47631 -4.46283 0
M  V30 3261 H 304.012 -4.30165 -4.89695 0
M  V30 3262 N 307.445 0.0818655 -1.57387 0
M  V30 3263 C 308.375 1.09885 -2.06028 0
M  V30 3264 C 309.356 1.4098 -0.951774 0
M  V30 3265 O 310.541 1.50781 -1.22387 0
M  V30 3266 C 307.671 2.4151 -2.4958 0
M  V30 3267 C 306.625 2.24792 -3.64215 0
M  V30 3268 C 305.951 3.61712 -3.93787 0
M  V30 3269 C 307.251 1.67749 -4.94629 0
M  V30 3270 H 308.945 0.694128 -2.91243 0
M  V30 3271 H 306.491 0.332448 -1.4011 0
M  V30 3272 H 308.444 3.12939 -2.82219 0
M  V30 3273 H 307.168 2.83943 -1.61381 0
M  V30 3274 H 305.827 1.55807 -3.31843 0
M  V30 3275 H 305.475 4.01697 -3.02735 0
M  V30 3276 H 305.175 3.51368 -4.70971 0
M  V30 3277 H 306.699 4.34587 -4.28913 0
M  V30 3278 H 308.113 2.29032 -5.25564 0
M  V30 3279 H 306.51 1.68128 -5.76067 0
M  V30 3280 H 307.58 0.638059 -4.80684 0
M  V30 3281 N 308.923 1.53595 0.353017 0
M  V30 3282 C 310.172 1.69603 1.09168 0
M  V30 3283 C 310.485 0.460925 1.90092 0
M  V30 3284 O 311.691 0.501774 2.66823 0
M  V30 3285 C 310.147 2.99872 1.9901 0
M  V30 3286 C 309.755 4.30687 1.23339 0
M  V30 3287 C 311.499 3.25246 2.72792 0
M  V30 3288 C 309.406 5.52036 2.12156 0
M  V30 3289 H 308.336 0.631966 0.411261 0
M  V30 3290 H 310.987 1.80096 0.351802 0
M  V30 3291 H 309.369 2.83212 2.7678 0
M  V30 3292 H 310.543 4.58019 0.505456 0
M  V30 3293 H 308.858 4.11853 0.613663 0
M  V30 3294 H 311.455 4.13095 3.39495 0
M  V30 3295 H 311.798 2.41846 3.38846 0
M  V30 3296 H 312.331 3.42638 2.021 0
M  V30 3297 H 309.07 6.37951 1.50659 0
M  V30 3298 H 308.59 5.28966 2.82764 0
M  V30 3299 H 310.269 5.87313 2.71427 0
M  V30 3300 N 310.401 -0.613514 1.45168 0
M  V30 3301 C 311.678 -1.37263 1.39349 0
M  V30 3302 C 312.058 -2.11012 0.0610848 0
M  V30 3303 O 311.406 -2.07502 -0.956825 0
M  V30 3304 C 311.616 -2.3244 2.60332 0
M  V30 3305 C 312.964 -2.9523 3.05163 0
M  V30 3306 O 313.988 -2.42762 2.60663 0
M  V30 3307 O 312.847 -3.90454 3.82372 0
M  V30 3308 H 309.941 -0.615188 0.552696 0
M  V30 3309 H 312.487 -0.637097 1.57287 0
M  V30 3310 H 311.259 -1.77164 3.48896 0
M  V30 3311 H 310.882 -3.13383 2.44698 0
M  V30 3312 N 311.879 -1.3236 -0.855495 0
M  V30 3313 C 312.826 -1.21225 -1.964 0
M  V30 3314 C 313.796 -0.0946204 -1.6583 0
M  V30 3315 O 314.981 -0.27002 -1.8888 0
M  V30 3316 C 312.121 -0.940419 -3.32039 0
M  V30 3317 C 311.234 -2.14276 -3.75113 0
M  V30 3318 C 310.369 -1.80648 -4.9954 0
M  V30 3319 C 309.408 -2.97208 -5.35102 0
M  V30 3320 N 308.545 -2.63678 -6.50706 0
M  V30 3321 H 313.385 -2.16042 -2.05255 0
M  V30 3322 H 310.922 -1.07451 -1.00463 0
M  V30 3323 H 312.88 -0.763311 -4.10158 0
M  V30 3324 H 311.51 -0.0290413 -3.22787 0
M  V30 3325 H 310.562 -2.43017 -2.92655 0
M  V30 3326 H 311.874 -3.01468 -3.97389 0
M  V30 3327 H 311.028 -1.59484 -5.85363 0
M  V30 3328 H 309.767 -0.906678 -4.79198 0
M  V30 3329 H 308.772 -3.19004 -4.47791 0
M  V30 3330 H 309.997 -3.87918 -5.57401 0
M  V30 3331 H 307.943 -1.76238 -6.31883 0
M  V30 3332 H 307.86 -3.444 -6.72997 0
M  V30 3333 H 309.128 -2.45942 -7.39684 0
M  V30 3334 N 313.357 1.07166 -1.15556 0
M  V30 3335 C 314.287 2.16403 -0.877046 0
M  V30 3336 C 315.268 1.69217 0.173111 0
M  V30 3337 O 316.453 1.94181 0.027084 0
M  V30 3338 C 313.583 3.45349 -0.367632 0
M  V30 3339 C 312.537 4.05995 -1.35468 0
M  V30 3340 C 311.863 5.30045 -0.704038 0
M  V30 3341 C 313.163 4.45804 -2.72132 0
M  V30 3342 H 314.857 2.39959 -1.79053 0
M  V30 3343 H 312.403 1.15325 -0.862331 0
M  V30 3344 H 314.356 4.21095 -0.160317 0
M  V30 3345 H 313.08 3.21385 0.581326 0
M  V30 3346 H 311.739 3.32296 -1.54839 0
M  V30 3347 H 311.387 5.02373 0.251128 0
M  V30 3348 H 311.087 5.71579 -1.36277 0
M  V30 3349 H 312.611 6.08495 -0.50654 0
M  V30 3350 H 314.025 5.12671 -2.56595 0
M  V30 3351 H 312.422 4.98296 -3.34397 0
M  V30 3352 H 313.492 3.57083 -3.28054 0
M  V30 3353 N 314.835 0.952656 1.25548 0
M  V30 3354 C 315.765 0.489287 2.28316 0
M  V30 3355 C 316.746 -0.463359 1.63667 0
M  V30 3356 O 317.931 -0.36274 1.90782 0
M  V30 3357 C 315.061 -0.235603 3.465 0
M  V30 3358 C 314.015 0.631593 4.23314 0
M  V30 3359 C 313.341 -0.223923 5.34231 0
M  V30 3360 C 314.641 1.90871 4.86174 0
M  V30 3361 H 316.335 1.34822 2.67326 0
M  V30 3362 H 313.881 0.649728 1.28509 0
M  V30 3363 H 315.834 -0.570882 4.17515 0
M  V30 3364 H 314.558 -1.12877 3.06474 0
M  V30 3365 H 313.217 0.949929 3.54079 0
M  V30 3366 H 312.865 -1.11678 4.90446 0
M  V30 3367 H 312.565 0.35299 5.86539 0
M  V30 3368 H 314.089 -0.554214 6.0808 0
M  V30 3369 H 315.503 1.63997 5.49343 0
M  V30 3370 H 313.9 2.43112 5.4865 0
M  V30 3371 H 314.97 2.61304 4.08471 0
M  V30 3372 N 316.313 -1.40141 0.720998 0
M  V30 3373 C 317.541 -2.05096 0.272656 0
M  V30 3374 C 317.956 -1.54334 -1.0875 0
M  V30 3375 O 317.313 -0.702211 -1.6845 0
M  V30 3376 C 317.364 -3.60636 0.249835 0
M  V30 3377 O 317.085 -4.09526 1.55629 0
M  V30 3378 C 318.586 -4.42772 -0.216396 0
M  V30 3379 H 315.806 -0.659897 0.121558 0
M  V30 3380 H 318.35 -1.79449 0.980723 0
M  V30 3381 H 316.505 -3.85232 -0.409237 0
M  V30 3382 H 316.919 -5.03758 1.4604 0
M  V30 3383 H 318.393 -5.51702 -0.181212 0
M  V30 3384 H 318.87 -4.20756 -1.25941 0
M  V30 3385 H 319.476 -4.23294 0.412596 0
M  V30 3386 N 317.792 -0.46758 -1.50504 0
M  V30 3387 C 319.208 -0.121533 -1.59137 0
M  V30 3388 C 319.408 1.3717 -1.47603 0
M  V30 3389 O 318.464 2.14464 -1.33272 0
M  V30 3390 C 319.777 -0.6686 -2.93173 0
M  V30 3391 C 321.325 -0.631716 -3.06559 0
M  V30 3392 C 321.8 -1.15627 -4.43164 0
M  V30 3393 N 323.291 -1.11553 -4.49567 0
M  V30 3394 C 324.026 -1.49195 -5.5365 0
M  V30 3395 N 323.522 -1.94269 -6.65005 0
M  V30 3396 N 325.315 -1.4082 -5.44175 0
M  V30 3397 H 317.466 -1.4388 -1.56245 0
M  V30 3398 H 319.729 -0.594784 -0.738198 0
M  V30 3399 H 319.435 -1.71453 -3.07078 0
M  V30 3400 H 319.309 -0.11021 -3.77039 0
M  V30 3401 H 321.696 0.405297 -2.92304 0
M  V30 3402 H 321.777 -1.22687 -2.24458 0
M  V30 3403 H 321.421 -2.1919 -4.58168 0
M  V30 3404 H 321.351 -0.537365 -5.23851 0
M  V30 3405 H 323.842 -0.784895 -3.69659 0
M  V30 3406 H 324.155 -2.21148 -7.40482 0
M  V30 3407 H 322.5 -1.98219 -6.66134 0
M  V30 3408 H 325.691 -1.0545 -4.56068 0
M  V30 3409 H 325.864 -1.70481 -6.25172 0
M  V30 3410 N 319.27 1.56325 -0.20005 0
M  V30 3411 C 320.519 1.96895 0.437652 0
M  V30 3412 C 320.832 1.08999 1.62415 0
M  V30 3413 O 322.038 1.39372 2.32997 0
M  V30 3414 C 320.494 3.50198 0.830025 0
M  V30 3415 C 320.102 4.46765 -0.332461 0
M  V30 3416 C 321.846 3.99526 1.43453 0
M  V30 3417 C 319.753 5.91344 0.0811468 0
M  V30 3418 H 318.683 0.735209 0.167282 0
M  V30 3419 H 321.334 1.81148 -0.292853 0
M  V30 3420 H 319.716 3.61467 1.61734 0
M  V30 3421 H 320.89 4.47231 -1.11 0
M  V30 3422 H 319.205 4.07657 -0.848789 0
M  V30 3423 H 321.802 5.05025 1.75652 0
M  V30 3424 H 322.145 3.44122 2.34277 0
M  V30 3425 H 322.678 3.91393 0.71109 0
M  V30 3426 H 319.417 6.50685 -0.793033 0
M  V30 3427 H 318.937 5.94121 0.823445 0
M  V30 3428 H 320.616 6.44945 0.515252 0
M  V30 3429 N 320.748 -0.0735177 1.57428 0
M  V30 3430 C 321.68 -1.11423 2.00294 0
M  V30 3431 C 322.693 -1.35084 0.908637 0
M  V30 3432 O 323.882 -1.33355 1.18654 0
M  V30 3433 C 320.982 -2.46548 2.32523 0
M  V30 3434 C 320.155 -2.42867 3.63778 0
M  V30 3435 C 319.214 -3.60087 3.83697 0
M  V30 3436 O 318.24 -3.41595 4.55304 0
M  V30 3437 N 319.442 -4.80372 3.25919 0
M  V30 3438 H 322.207 -0.749206 2.90184 0
M  V30 3439 H 319.768 -0.262195 1.59763 0
M  V30 3440 H 321.76 -3.23607 2.43024 0
M  V30 3441 H 320.33 -2.75059 1.48531 0
M  V30 3442 H 319.55 -1.51206 3.64047 0
M  V30 3443 H 320.838 -2.37506 4.49965 0
M  V30 3444 H 320.236 -4.983 2.67795 0
M  V30 3445 H 318.793 -5.54948 3.41871 0
M  V30 3446 N 322.226 -1.5378 -0.344866 0
M  V30 3447 C 323.474 -1.70625 -1.08311 0
M  V30 3448 C 323.795 -0.471447 -1.89215 0
M  V30 3449 O 323.065 0.514616 -1.8902 0
M  V30 3450 H 321.645 -0.629058 -0.402859 0
M  V30 3451 H 324.307 -1.9103 -0.386459 0
M  V30 3452 H 323.403 -2.57656 -1.76124 0
M  V30 3453 N 323.704 0.605807 -1.45491 0
M  V30 3454 C 324.95 1.36679 -1.49823 0
M  V30 3455 C 325.283 1.93693 -0.140175 0
M  V30 3456 O 324.558 1.75158 0.845581 0
M  V30 3457 C 324.841 2.51337 -2.57879 0
M  V30 3458 C 324.694 1.99508 -4.03134 0
M  V30 3459 C 326.013 3.53463 -2.62205 0
M  V30 3460 H 323.132 0.495617 -0.545466 0
M  V30 3461 H 325.774 0.682732 -1.7731 0
M  V30 3462 H 323.924 3.09691 -2.34571 0
M  V30 3463 H 325.596 1.45789 -4.37656 0
M  V30 3464 H 323.839 1.30496 -4.13707 0
M  V30 3465 H 324.51 2.82169 -4.74431 0
M  V30 3466 H 326.986 3.04953 -2.83095 0
M  V30 3467 H 325.862 4.31178 -3.39672 0
M  V30 3468 H 326.123 4.09197 -1.67363 0
M  V30 3469 N 325.182 1.32811 0.848464 0
M  V30 3470 C 326.431 1.23075 1.59798 0
M  V30 3471 C 326.744 -0.204419 1.94529 0
M  V30 3472 O 327.95 -0.423701 2.68173 0
M  V30 3473 C 326.406 2.15594 2.88179 0
M  V30 3474 C 326.014 3.64228 2.60849 0
M  V30 3475 C 327.758 2.14709 3.66197 0
M  V30 3476 C 325.665 4.48689 3.85269 0
M  V30 3477 H 324.595 0.457091 0.599653 0
M  V30 3478 H 327.246 1.57813 0.936342 0
M  V30 3479 H 325.628 1.73778 3.55833 0
M  V30 3480 H 326.802 4.14424 2.01467 0
M  V30 3481 H 325.117 3.67306 1.96151 0
M  V30 3482 H 327.714 2.75046 4.58534 0
M  V30 3483 H 328.057 1.13966 4.00397 0
M  V30 3484 H 328.59 2.54837 3.05455 0
M  V30 3485 H 325.329 5.5027 3.56207 0
M  V30 3486 H 324.849 4.03241 4.44024 0
M  V30 3487 H 326.528 4.62006 4.52946 0
M  V30 3488 N 326.66 -1.06551 1.16123 0
M  V30 3489 C 327.592 -2.13908 0.823171 0
M  V30 3490 C 328.605 -1.61926 -0.16843 0
M  V30 3491 O 329.794 -1.78412 0.055962 0
M  V30 3492 C 326.894 -3.38283 0.204424 0
M  V30 3493 C 326.067 -4.19589 1.23548 0
M  V30 3494 C 325.126 -5.2233 0.637011 0
M  V30 3495 O 324.152 -5.54034 1.30516 0
M  V30 3496 N 325.354 -5.77621 -0.577474 0
M  V30 3497 H 328.119 -2.43508 1.74711 0
M  V30 3498 H 325.68 -1.2253 1.05821 0
M  V30 3499 H 327.672 -4.0416 -0.208909 0
M  V30 3500 H 326.242 -3.06329 -0.623012 0
M  V30 3501 H 325.462 -3.49406 1.82507 0
M  V30 3502 H 326.75 -4.70718 1.93137 0
M  V30 3503 H 326.148 -5.54125 -1.13853 0
M  V30 3504 H 324.705 -6.45087 -0.933053 0
M  V30 3505 N 328.138 -0.959301 -1.25041 0
M  V30 3506 C 329.101 -0.487677 -2.23952 0
M  V30 3507 C 330.101 0.41119 -1.55454 0
M  V30 3508 O 331.291 0.207825 -1.72956 0
M  V30 3509 C 328.423 0.294807 -3.39623 0
M  V30 3510 H 329.616 -1.36198 -2.67189 0
M  V30 3511 H 327.169 -0.743042 -1.37508 0
M  V30 3512 H 327.904 1.18658 -3.01813 0
M  V30 3513 H 327.689 -0.35012 -3.90534 0
M  V30 3514 H 329.179 0.614089 -4.1306 0
M  V30 3515 N 329.616 1.39756 -0.72842 0
M  V30 3516 C 331.032 1.5442 -0.403308 0
M  V30 3517 C 331.232 1.69694 1.08656 0
M  V30 3518 O 330.288 1.69373 1.87267 0
M  V30 3519 C 331.601 2.76555 -1.18058 0
M  V30 3520 C 333.149 2.90384 -1.16815 0
M  V30 3521 C 333.624 4.15449 -1.92785 0
M  V30 3522 N 335.115 4.22475 -1.89918 0
M  V30 3523 C 335.85 5.1818 -2.45514 0
M  V30 3524 N 335.346 6.19714 -3.09719 0
M  V30 3525 N 337.139 5.1035 -2.35584 0
M  V30 3526 H 329.29 1.28089 -1.69431 0
M  V30 3527 H 331.553 0.620327 -0.716867 0
M  V30 3528 H 331.259 2.7159 -2.23455 0
M  V30 3529 H 331.133 3.69033 -0.780662 0
M  V30 3530 H 333.52 2.94846 -0.12234 0
M  V30 3531 H 333.601 1.98988 -1.6074 0
M  V30 3532 H 333.245 4.11749 -2.97364 0
M  V30 3533 H 333.175 5.05877 -1.46272 0
M  V30 3534 H 335.666 3.49743 -1.43138 0
M  V30 3535 H 335.979 6.8919 -3.49625 0
M  V30 3536 H 334.324 6.20121 -3.13807 0
M  V30 3537 H 337.515 4.2996 -1.85072 0
M  V30 3538 H 337.688 5.84761 -2.79211 0
M  V30 3539 N 331.094 0.475555 1.50254 0
M  V30 3540 C 332.004 -0.321501 2.32387 0
M  V30 3541 C 333.02 -0.991755 1.42969 0
M  V30 3542 O 334.196 -0.978747 1.76018 0
M  V30 3543 C 331.261 -1.38667 3.17762 0
M  V30 3544 C 330.322 -0.732538 4.23004 0
M  V30 3545 C 329.555 -1.74695 5.04299 0
M  V30 3546 O 329.778 -2.97399 4.86734 0
M  V30 3547 O 328.712 -1.31631 5.8733 0
M  V30 3548 H 332.538 0.350071 3.01676 0
M  V30 3549 H 330.123 0.237321 1.47503 0
M  V30 3550 H 332.005 -2.00354 3.70724 0
M  V30 3551 H 330.68 -2.04163 2.51196 0
M  V30 3552 H 329.587 -0.0765902 3.74022 0
M  V30 3553 H 330.92 -0.120452 4.92053 0
M  V30 3554 N 332.573 -1.56217 0.208337 0
M  V30 3555 C 333.798 -2.02782 -0.435222 0
M  V30 3556 C 334.223 -1.08738 -1.53485 0
M  V30 3557 O 333.581 -0.0731855 -1.81152 0
M  V30 3558 C 333.629 -3.47687 -0.956335 0
M  V30 3559 O 332.733 -3.56773 -2.06849 0
M  V30 3560 H 332.074 -0.656403 -0.100158 0
M  V30 3561 H 334.604 -2.02033 0.3231 0
M  V30 3562 H 334.614 -3.87745 -1.26955 0
M  V30 3563 H 333.289 -4.15624 -0.15143 0
M  V30 3564 H 331.866 -3.28597 -1.76292 0
M  V30 3565 N 334.051 0.0651679 -1.57465 0
M  V30 3566 C 334.998 1.07675 -2.04144 0
M  V30 3567 C 335.968 1.38071 -0.923335 0
M  V30 3568 O 337.153 1.49026 -1.19146 0
M  V30 3569 C 334.293 2.38337 -2.49579 0
M  V30 3570 C 333.406 2.14413 -3.75035 0
M  V30 3571 C 332.541 3.38686 -4.09225 0
M  V30 3572 C 331.58 3.10156 -5.27702 0
M  V30 3573 N 330.717 4.26778 -5.57499 0
M  V30 3574 H 335.557 0.671716 -2.90331 0
M  V30 3575 H 333.094 0.3201 -1.43575 0
M  V30 3576 H 335.052 3.14632 -2.73975 0
M  V30 3577 H 333.682 2.7663 -1.6636 0
M  V30 3578 H 332.734 1.2878 -3.57939 0
M  V30 3579 H 334.046 1.89344 -4.61466 0
M  V30 3580 H 333.2 4.23373 -4.34558 0
M  V30 3581 H 331.939 3.66837 -3.21374 0
M  V30 3582 H 330.944 2.23866 -5.02159 0
M  V30 3583 H 332.169 2.8332 -6.17176 0
M  V30 3584 H 330.115 4.54948 -4.72608 0
M  V30 3585 H 330.032 4.05005 -6.38362 0
M  V30 3586 H 331.3 5.12443 -5.87386 0
M  V30 3587 N 335.529 1.53961 0.336706 0
M  V30 3588 C 336.759 1.75229 1.09446 0
M  V30 3589 C 337.167 0.494602 1.82621 0
M  V30 3590 O 336.51 -0.543764 1.75468 0
M  V30 3591 C 336.572 2.88288 2.1478 0
M  V30 3592 C 336.236 4.27656 1.6112 0
M  V30 3593 C 337.233 5.08981 1.0599 0
M  V30 3594 C 334.918 4.74161 1.6576 0
M  V30 3595 C 336.912 6.34916 0.562129 0
M  V30 3596 C 334.599 6.00067 1.15595 0
M  V30 3597 C 335.597 6.80278 0.609147 0
M  V30 3598 O 335.285 8.03818 0.114999 0
M  V30 3599 H 335.017 0.588881 0.331956 0
M  V30 3600 H 337.571 2.01614 0.392566 0
M  V30 3601 H 335.801 2.57443 2.88548 0
M  V30 3602 H 337.49 2.97461 2.76174 0
M  V30 3603 H 338.256 4.74213 1.01722 0
M  V30 3604 H 334.135 4.11781 2.07261 0
M  V30 3605 H 337.679 6.9747 0.134668 0
M  V30 3606 H 333.576 6.3433 1.19566 0
M  V30 3607 H 334.344 8.18172 0.231651 0
M  V30 3608 N 337.007 -0.598083 1.45811 0
M  V30 3609 C 338.256 -1.35295 1.49594 0
M  V30 3610 C 338.569 -1.95057 0.145679 0
M  V30 3611 O 339.775 -2.71431 0.0612099 0
M  V30 3612 C 338.231 -2.45124 2.63519 0
M  V30 3613 C 337.839 -1.91732 4.04899 0
M  V30 3614 C 339.583 -3.2205 2.76558 0
M  V30 3615 C 337.49 -2.991 5.1019 0
M  V30 3616 H 336.42 -0.508552 0.556679 0
M  V30 3617 H 339.071 -0.639977 1.71978 0
M  V30 3618 H 337.453 -3.19149 2.34435 0
M  V30 3619 H 338.627 -1.24352 4.43704 0
M  V30 3620 H 336.942 -1.27522 3.96393 0
M  V30 3621 H 339.539 -4.0215 3.52391 0
M  V30 3622 H 339.882 -3.73663 1.83526 0
M  V30 3623 H 340.415 -2.55127 3.05213 0
M  V30 3624 H 337.154 -2.52393 6.04961 0
M  V30 3625 H 336.674 -3.65017 4.75944 0
M  V30 3626 H 338.353 -3.63318 5.35359 0
M  V30 3627 N 338.485 -1.33259 -0.841409 0
M  V30 3628 C 339.418 -1.1764 -1.95541 0
M  V30 3629 C 340.396 -0.072501 -1.62438 0
M  V30 3630 O 341.58 -0.23427 -1.87039 0
M  V30 3631 C 338.707 -0.803794 -3.29024 0
M  V30 3632 C 337.753 -1.91482 -3.81099 0
M  V30 3633 S 338.586 -3.52538 -4.03085 0
M  V30 3634 C 339.742 -3.17279 -5.39523 0
M  V30 3635 H 339.975 -2.11941 -2.08491 0
M  V30 3636 H 337.508 -1.18072 -0.9949 0
M  V30 3637 H 339.466 -0.595592 -4.06156 0
M  V30 3638 H 338.127 0.120574 -3.13868 0
M  V30 3639 H 337.32 -1.60742 -4.7768 0
M  V30 3640 H 336.922 -2.07956 -3.10854 0
M  V30 3641 H 339.214 -2.67946 -6.22263 0
M  V30 3642 H 340.157 -4.1293 -5.75234 0
M  V30 3643 H 340.565 -2.53943 -5.04156 0
M  V30 3644 N 339.963 1.05934 -1.16686 0
M  V30 3645 C 340.896 2.1295 -0.820225 0
M  V30 3646 C 341.874 1.61242 0.209722 0
M  V30 3647 O 343.058 1.88271 0.0929688 0
M  V30 3648 C 340.185 3.3797 -0.22223 0
M  V30 3649 C 339.231 4.08488 -1.22637 0
M  V30 3650 S 340.064 4.58015 -2.77457 0
M  V30 3651 C 341.22 5.86292 -2.19117 0
M  V30 3652 H 341.453 2.42025 -1.72659 0
M  V30 3653 H 338.986 1.18423 -0.990722 0
M  V30 3654 H 340.944 4.10335 0.116322 0
M  V30 3655 H 339.605 3.07045 0.66196 0
M  V30 3656 H 338.798 4.98291 -0.756455 0
M  V30 3657 H 338.4 3.42154 -1.51019 0
M  V30 3658 H 340.692 6.59246 -1.56209 0
M  V30 3659 H 341.635 6.38019 -3.07144 0
M  V30 3660 H 342.043 5.40497 -1.62858 0
M  V30 3661 N 341.441 0.965919 1.2453 0
M  V30 3662 C 342.391 0.465731 2.23193 0
M  V30 3663 C 343.375 -0.451277 1.54442 0
M  V30 3664 O 344.567 -0.282489 1.74731 0
M  V30 3665 C 341.696 -0.244511 3.42428 0
M  V30 3666 C 340.782 0.691222 4.18429 0
M  V30 3667 N 341.173 1.82771 4.71623 0
M  V30 3668 C 339.471 0.501649 4.4317 0
M  V30 3669 C 340.172 2.41285 5.29298 0
M  V30 3670 N 339.148 1.69819 5.16394 0
M  V30 3671 H 342.95 1.33291 2.61937 0
M  V30 3672 H 340.464 0.824789 1.39896 0
M  V30 3673 H 342.461 -0.620056 4.12263 0
M  V30 3674 H 341.121 -1.10815 3.05205 0
M  V30 3675 H 342.132 2.20929 4.68413 0
M  V30 3676 H 338.809 -0.318177 4.16286 0
M  V30 3677 H 340.199 3.37181 5.8117 0
M  V30 3678 N 342.919 -1.39368 0.735821 0
M  V30 3679 C 343.882 -2.2896 0.104874 0
M  V30 3680 C 344.882 -1.46347 -0.666274 0
M  V30 3681 O 346.072 -1.67014 -0.49517 0
M  V30 3682 C 343.204 -3.29857 -0.860656 0
M  V30 3683 H 344.397 -2.86259 0.894205 0
M  V30 3684 H 341.95 -1.48029 0.501704 0
M  V30 3685 H 342.685 -2.77615 -1.67631 0
M  V30 3686 H 342.47 -3.9087 -0.310327 0
M  V30 3687 H 343.96 -3.96893 -1.29867 0
M  V30 3688 N 344.397 -0.483516 -1.5 0
M  V30 3689 C 345.808 -0.0314176 -1.86674 0
M  V30 3690 C 346.159 1.37728 -1.39733 0
M  V30 3691 O 345.284 2.02327 -0.767635 0
M  V30 3692 C 345.879 -0.0502376 -3.38763 0
M  V30 3693 C 344.438 0.346442 -3.74802 0
M  V30 3694 C 343.585 -0.430366 -2.7394 0
M  V30 3695 H 346.536 -0.697182 -1.42566 0
M  V30 3696 H 346.557 0.749116 -3.73053 0
M  V30 3697 H 346.069 -1.07563 -3.72897 0
M  V30 3698 H 344.17 1.37572 -3.46273 0
M  V30 3699 H 344.283 0.0391486 -4.79084 0
M  V30 3700 H 342.647 0.117557 -2.54429 0
M  V30 3701 H 343.43 -1.4555 -3.10918 0
M  V30 3702 N 345.875 1.56104 -0.216619 0
M  V30 3703 C 347.103 2.02563 0.421413 0
M  V30 3704 C 347.518 1.0965 1.53695 0
M  V30 3705 O 346.875 0.10521 1.82196 0
M  V30 3706 C 346.926 3.48584 0.957665 0
M  V30 3707 O 346.647 4.37953 -0.113389 0
M  V30 3708 C 348.148 4.10664 1.66943 0
M  V30 3709 H 345.368 0.662944 0.103665 0
M  V30 3710 H 347.912 2.01793 -0.331629 0
M  V30 3711 H 346.067 3.49985 1.661 0
M  V30 3712 H 346.481 5.23704 0.288932 0
M  V30 3713 H 347.955 5.14622 1.99671 0
M  V30 3714 H 348.432 3.55373 2.58083 0
M  V30 3715 H 349.038 4.13098 1.01142 0
M  V30 3716 N 347.353 -0.0568162 1.57498 0
M  V30 3717 C 348.263 -1.08346 2.08083 0
M  V30 3718 C 349.279 -1.41439 1.01346 0
M  V30 3719 O 350.455 -1.51316 1.32912 0
M  V30 3720 C 347.52 -2.37352 2.52715 0
M  V30 3721 C 346.581 -2.11093 3.73816 0
M  V30 3722 C 345.814 -3.33949 4.1631 0
M  V30 3723 O 346.037 -4.43622 3.58547 0
M  V30 3724 O 344.971 -3.21279 5.08983 0
M  V30 3725 H 348.797 -0.683667 2.95905 0
M  V30 3726 H 346.382 -0.271965 1.46904 0
M  V30 3727 H 348.264 -3.13246 2.81877 0
M  V30 3728 H 346.939 -2.76681 1.68016 0
M  V30 3729 H 345.846 -1.32856 3.49714 0
M  V30 3730 H 347.179 -1.76637 4.59413 0
M  V30 3731 N 348.832 -1.54138 -0.328536 0
M  V30 3732 C 350.248 -1.44736 -0.672574 0
M  V30 3733 C 350.448 -0.616217 -1.91846 0
M  V30 3734 O 349.504 -0.113067 -2.52247 0
M  V30 3735 C 350.817 -2.884 -0.851217 0
M  V30 3736 C 352.365 -2.98271 -0.948877 0
M  V30 3737 C 352.84 -4.43074 -1.15973 0
M  V30 3738 N 354.331 -4.46665 -1.22658 0
M  V30 3739 C 355.066 -5.55857 -1.40751 0
M  V30 3740 N 354.562 -6.75026 -1.5592 0
M  V30 3741 N 356.355 -5.43495 -1.4342 0
M  V30 3742 H 348.506 -2.06661 0.490421 0
M  V30 3743 H 350.769 -0.934812 0.157579 0
M  V30 3744 H 350.475 -3.51699 -0.00704236 0
M  V30 3745 H 350.349 -3.34225 -1.74853 0
M  V30 3746 H 352.736 -2.35102 -1.78356 0
M  V30 3747 H 352.817 -2.55785 -0.0281435 0
M  V30 3748 H 352.461 -5.06827 -0.329915 0
M  V30 3749 H 352.391 -4.83165 -2.09426 0
M  V30 3750 H 354.882 -3.60797 -1.124 0
M  V30 3751 H 355.195 -7.54004 -1.69404 0
M  V30 3752 H 353.54 -6.77944 -1.53027 0
M  V30 3753 H 356.731 -4.49349 -1.31162 0
M  V30 3754 H 356.904 -6.28649 -1.57178 0
M  V30 3755 N 350.31 0.590341 -1.46126 0
M  V30 3756 C 351.24 1.71032 -1.58966 0
M  V30 3757 C 352.221 1.64302 -0.440335 0
M  V30 3758 O 353.406 1.82436 -0.665634 0
M  V30 3759 C 350.536 3.09665 -1.57241 0
M  V30 3760 C 349.49 3.31221 -2.71066 0
M  V30 3761 C 348.816 4.70303 -2.54399 0
M  V30 3762 C 350.116 3.19796 -4.1295 0
M  V30 3763 H 351.81 1.60543 -2.52718 0
M  V30 3764 H 349.356 0.770933 -1.21625 0
M  V30 3765 H 351.309 3.87831 -1.64819 0
M  V30 3766 H 350.033 3.21036 -0.600289 0
M  V30 3767 H 348.692 2.55452 -2.62944 0
M  V30 3768 H 348.34 4.78429 -1.55288 0
M  V30 3769 H 348.04 4.85679 -3.30741 0
M  V30 3770 H 349.564 5.50647 -2.63857 0
M  V30 3771 H 350.978 3.87815 -4.22223 0
M  V30 3772 H 349.375 3.46696 -4.89818 0
M  V30 3773 H 350.445 2.16983 -4.33643 0
M  V30 3774 N 351.788 1.33704 0.83433 0
M  V30 3775 C 353.065 1.16011 1.57483 0
M  V30 3776 C 353.445 -0.27176 2.09343 0
M  V30 3777 O 352.793 -1.27146 1.89858 0
M  V30 3778 C 353.003 2.20507 2.70514 0
M  V30 3779 C 354.351 2.54898 3.39577 0
M  V30 3780 O 355.375 2.19209 2.80759 0
M  V30 3781 O 354.234 3.16158 4.45765 0
M  V30 3782 H 351.328 0.448992 0.694503 0
M  V30 3783 H 353.874 1.453 0.876691 0
M  V30 3784 H 352.646 3.16667 2.29865 0
M  V30 3785 H 352.269 1.92329 3.47987 0
M  V30 3786 N 353.266 -1.05314 1.17247 0
M  V30 3787 C 354.176 -2.16538 0.90268 0
M  V30 3788 C 355.192 -1.73523 -0.128707 0
M  V30 3789 O 356.368 -2.01337 0.0502701 0
M  V30 3790 C 353.433 -3.44167 0.418356 0
M  V30 3791 C 352.494 -4.01635 1.51618 0
M  V30 3792 C 351.727 -5.23171 1.05487 0
M  V30 3793 O 351.95 -5.70327 -0.0914715 0
M  V30 3794 O 350.884 -5.72848 1.8474 0
M  V30 3795 H 354.71 -2.42145 1.83302 0
M  V30 3796 H 352.295 -1.15037 0.953246 0
M  V30 3797 H 354.177 -4.21112 0.155726 0
M  V30 3798 H 352.852 -3.20063 -0.48385 0
M  V30 3799 H 351.759 -3.26135 1.83268 0
M  V30 3800 H 353.092 -4.30053 2.39405 0
M  V30 3801 N 354.744 -0.972509 -1.24016 0
M  V30 3802 C 355.99 -0.637978 -1.92504 0
M  V30 3803 C 356.323 0.825383 -1.75787 0
M  V30 3804 O 355.598 1.59442 -1.11393 0
M  V30 3805 C 355.881 -1.01942 -3.45369 0
M  V30 3806 C 355.734 -2.53983 -3.71231 0
M  V30 3807 C 357.053 -0.55751 -4.36555 0
M  V30 3808 H 354.172 -0.233248 -0.699117 0
M  V30 3809 H 356.814 -1.21238 -1.46292 0
M  V30 3810 H 354.964 -0.530656 -3.84859 0
M  V30 3811 H 356.636 -3.10374 -3.41271 0
M  V30 3812 H 354.879 -2.96968 -3.16216 0
M  V30 3813 H 355.55 -2.75723 -4.78206 0
M  V30 3814 H 358.026 -0.977029 -4.04467 0
M  V30 3815 H 356.902 -0.85292 -5.42233 0
M  V30 3816 H 357.163 0.542328 -4.38761 0
M  V30 3817 N 356.222 1.38976 -0.743202 0
M  V30 3818 C 357.471 1.99581 -0.291592 0
M  V30 3819 C 357.784 1.59656 1.13001 0
M  V30 3820 O 358.99 2.13157 1.68156 0
M  V30 3821 C 357.446 3.56813 -0.470391 0
M  V30 3822 C 357.054 4.05695 -1.90041 0
M  V30 3823 C 358.798 4.24423 -0.0809709 0
M  V30 3824 C 356.705 5.5553 -2.02832 0
M  V30 3825 H 355.635 0.746615 -0.105272 0
M  V30 3826 H 358.286 1.58872 -0.918258 0
M  V30 3827 H 356.668 3.95359 0.225299 0
M  V30 3828 H 357.842 3.78464 -2.62872 0
M  V30 3829 H 356.157 3.50775 -2.24379 0
M  V30 3830 H 358.754 5.34474 -0.155445 0
M  V30 3831 H 359.097 4.04962 0.96497 0
M  V30 3832 H 359.63 3.9108 -0.728124 0
M  V30 3833 H 356.369 5.79881 -3.05643 0
M  V30 3834 H 355.889 5.84537 -1.34448 0
M  V30 3835 H 357.568 6.21069 -1.81335 0
M  V30 3836 N 357.7 0.491464 1.49741 0
M  V30 3837 C 358.663 -0.280906 2.27472 0
M  V30 3838 C 359.663 -0.902454 1.33088 0
M  V30 3839 O 360.853 -0.768465 1.56334 0
M  V30 3840 C 357.985 -1.40209 3.10732 0
M  V30 3841 H 359.178 0.401056 2.97206 0
M  V30 3842 H 356.731 0.246131 1.5435 0
M  V30 3843 H 357.466 -2.11849 2.45541 0
M  V30 3844 H 357.251 -0.961969 3.80117 0
M  V30 3845 H 358.741 -1.9464 3.69466 0
M  V30 3846 N 359.178 -1.55987 0.224894 0
M  V30 3847 C 360.108 -2.23426 -0.678457 0
M  V30 3848 C 361.089 -1.20709 -1.19847 0
M  V30 3849 O 362.274 -1.49304 -1.24186 0
M  V30 3850 C 359.404 -2.91676 -1.88527 0
M  V30 3851 C 358.358 -4.00893 -1.49896 0
M  V30 3852 C 357.684 -4.56455 -2.78483 0
M  V30 3853 C 358.984 -5.17769 -0.686461 0
M  V30 3854 H 360.678 -2.99175 -0.116173 0
M  V30 3855 H 358.224 -1.43897 -0.054436 0
M  V30 3856 H 360.177 -3.37547 -2.5227 0
M  V30 3857 H 358.901 -2.1338 -2.47258 0
M  V30 3858 H 357.56 -3.55758 -0.884985 0
M  V30 3859 H 357.208 -3.74886 -3.35365 0
M  V30 3860 H 356.908 -5.30169 -2.53368 0
M  V30 3861 H 358.432 -5.05047 -3.43162 0
M  V30 3862 H 359.846 -5.60001 -1.22767 0
M  V30 3863 H 358.243 -5.97735 -0.532259 0
M  V30 3864 H 359.313 -4.83932 0.306196 0
M  V30 3865 N 360.656 0.0484629 -1.57525 0
M  V30 3866 C 361.586 1.0549 -2.08313 0
M  V30 3867 C 362.567 1.38929 -0.981463 0
M  V30 3868 O 363.752 1.48151 -1.25558 0
M  V30 3869 C 360.882 2.36162 -2.54646 0
M  V30 3870 C 359.836 2.17016 -3.68901 0
M  V30 3871 C 359.162 3.53278 -4.01371 0
M  V30 3872 C 360.462 1.57219 -4.98076 0
M  V30 3873 H 362.156 0.632195 -2.92649 0
M  V30 3874 H 359.702 0.302654 -1.40784 0
M  V30 3875 H 361.655 3.06882 -2.88793 0
M  V30 3876 H 360.379 2.80456 -1.67368 0
M  V30 3877 H 359.038 1.48733 -3.35073 0
M  V30 3878 H 358.686 3.95185 -3.11188 0
M  V30 3879 H 358.386 3.41299 -4.78318 0
M  V30 3880 H 359.91 4.25391 -4.38035 0
M  V30 3881 H 361.324 2.17832 -5.30304 0
M  V30 3882 H 359.721 1.55871 -5.79503 0
M  V30 3883 H 360.791 0.535956 -4.81929 0
M  V30 3884 N 362.134 1.5431 0.320358 0
M  V30 3885 C 363.545 1.63872 0.894594 0
M  V30 3886 C 363.896 0.534847 1.88769 0
M  V30 3887 O 363.021 -0.331732 2.13842 0
M  V30 3888 C 363.616 2.97049 1.62934 0
M  V30 3889 C 362.175 3.08796 2.15226 0
M  V30 3890 C 361.322 2.59456 0.978671 0
M  V30 3891 H 364.273 1.58398 0.0978544 0
M  V30 3892 H 364.294 2.87388 2.49376 0
M  V30 3893 H 363.806 3.7737 0.906302 0
M  V30 3894 H 361.907 2.33156 2.90636 0
M  V30 3895 H 362.02 4.14649 2.40006 0
M  V30 3896 H 360.384 2.1543 1.35875 0
M  V30 3897 H 361.167 3.42237 0.269895 0
M  V30 3898 N 363.613 -0.582584 1.46437 0
M  V30 3899 C 364.861 -1.33814 1.51453 0
M  V30 3900 C 365.182 -1.94277 0.167792 0
M  V30 3901 O 364.452 -1.78566 -0.805677 0
M  V30 3902 H 363.032 -0.496838 0.557818 0
M  V30 3903 H 365.694 -0.682281 1.82568 0
M  V30 3904 H 364.79 -2.14479 2.26728 0
M  V30 3905 N 365.091 -1.34144 -0.827227 0
M  V30 3906 C 366.054 -1.25264 -1.91942 0
M  V30 3907 C 367.054 -0.168866 -1.59911 0
M  V30 3908 O 368.244 -0.421198 -1.69031 0
M  V30 3909 C 365.376 -0.932952 -3.27885 0
M  V30 3910 H 366.569 -2.22357 -2.0124 0
M  V30 3911 H 364.122 -1.1837 -1.0207 0
M  V30 3912 H 364.857 0.0349917 -3.24281 0
M  V30 3913 H 364.642 -1.71682 -3.52516 0
M  V30 3914 H 366.132 -0.895874 -4.07877 0
M  V30 3915 N 366.569 1.04691 -1.17803 0
M  V30 3916 C 367.479 2.16057 -0.914151 0
M  V30 3917 C 368.495 1.73589 0.119503 0
M  V30 3918 O 369.671 2.01308 -0.0609468 0
M  V30 3919 C 366.736 3.4394 -0.436603 0
M  V30 3920 C 365.797 4.00825 -1.53746 0
M  V30 3921 C 365.03 5.22604 -1.0826 0
M  V30 3922 O 365.253 5.70367 0.0612244 0
M  V30 3923 O 364.187 5.7186 -1.87775 0
M  V30 3924 H 368.013 2.41169 -1.84584 0
M  V30 3925 H 365.598 1.1453 -0.959334 0
M  V30 3926 H 367.48 4.21024 -0.178057 0
M  V30 3927 H 366.155 3.20316 0.466869 0
M  V30 3928 H 365.062 3.25158 -1.84995 0
M  V30 3929 H 366.395 4.28778 -2.41683 0
M  V30 3930 N 368.047 0.979072 1.23499 0
M  V30 3931 C 369.463 0.687475 1.44034 0
M  V30 3932 C 369.663 -0.746801 1.8715 0
M  V30 3933 O 368.719 -1.51939 2.0167 0
M  V30 3934 C 370.032 1.68127 2.49307 0
M  V30 3935 C 371.58 1.69516 2.63122 0
M  V30 3936 C 372.055 2.67723 3.71603 0
M  V30 3937 N 373.546 2.66233 3.79044 0
M  V30 3938 C 374.281 3.38891 4.62537 0
M  V30 3939 N 373.777 4.21103 5.50131 0
M  V30 3940 N 375.57 3.27661 4.56721 0
M  V30 3941 H 367.721 1.90559 0.938135 0
M  V30 3942 H 369.984 0.821051 0.473897 0
M  V30 3943 H 369.69 2.70693 2.2454 0
M  V30 3944 H 369.564 1.46306 3.4767 0
M  V30 3945 H 371.951 0.676561 2.8724 0
M  V30 3946 H 372.032 1.95404 1.65079 0
M  V30 3947 H 371.676 3.69724 3.48233 0
M  V30 3948 H 371.606 2.39111 4.69184 0
M  V30 3949 H 374.097 2.06568 3.16446 0
M  V30 3950 H 374.41 4.73403 6.10827 0
M  V30 3951 H 372.755 4.25195 5.49759 0
M  V30 3952 H 375.946 2.62887 3.87309 0
M  V30 3953 H 376.119 3.84547 5.21562 0
M  V30 3954 N 369.525 -1.3858 0.750561 0
M  V30 3955 C 370.936 -1.82927 0.373438 0
M  V30 3956 C 371.287 -1.62634 -1.09748 0
M  V30 3957 O 370.412 -1.12588 -1.84805 0
M  V30 3958 C 371.007 -3.32088 0.671029 0
M  V30 3959 C 369.566 -3.74795 0.34722 0
M  V30 3960 C 368.713 -2.61391 0.92575 0
M  V30 3961 H 371.664 -1.27351 0.946958 0
M  V30 3962 H 371.685 -3.80465 -0.0518269 0
M  V30 3963 H 371.197 -3.46826 1.74164 0
M  V30 3964 H 369.298 -3.65638 -0.716933 0
M  V30 3965 H 369.411 -4.71667 0.840656 0
M  V30 3966 H 367.775 -2.52265 0.351327 0
M  V30 3967 H 368.558 -2.78929 2.00133 0
M  V30 3968 N 371.003 -0.499398 -1.49478 0
M  V30 3969 C 372.231 0.0425456 -2.06856 0
M  V30 3970 C 372.646 1.30964 -1.35992 0
M  V30 3971 O 372.003 1.77172 -0.437762 0
M  V30 3972 C 372.054 0.301735 -3.60239 0
M  V30 3973 O 371.775 -0.915127 -4.28436 0
M  V30 3974 C 373.276 0.887499 -4.34325 0
M  V30 3975 H 370.496 -0.0197482 -0.670709 0
M  V30 3976 H 373.04 -0.696297 -1.92281 0
M  V30 3977 H 371.195 0.990556 -3.74522 0
M  V30 3978 H 371.609 -0.676993 -5.20113 0
M  V30 3979 H 373.083 1.01845 -5.42523 0
M  V30 3980 H 373.56 1.88488 -3.96698 0
M  V30 3981 H 374.166 0.236196 -4.24644 0
M  V30 3982 N 372.481 1.55866 -0.233164 0
M  V30 3983 C 373.73 1.97779 0.39579 0
M  V30 3984 C 374.043 1.12419 1.60066 0
M  V30 3985 O 375.249 1.44283 2.29988 0
M  V30 3986 C 373.705 3.5188 0.755556 0
M  V30 3987 C 373.313 4.45959 -0.427152 0
M  V30 3988 C 375.057 4.02479 1.34946 0
M  V30 3989 C 372.964 5.91383 -0.0443043 0
M  V30 3990 H 371.894 0.738592 0.15165 0
M  V30 3991 H 374.545 1.80486 -0.331212 0
M  V30 3992 H 372.927 3.64816 1.5403 0
M  V30 3993 H 374.101 4.44776 -1.20462 0
M  V30 3994 H 372.416 4.05765 -0.935068 0
M  V30 3995 H 375.013 5.08637 1.649 0
M  V30 3996 H 375.356 3.49014 2.26925 0
M  V30 3997 H 375.889 3.92813 0.62791 0
M  V30 3998 H 372.628 6.48857 -0.930874 0
M  V30 3999 H 372.148 5.95734 0.697238 0
M  V30 4000 H 373.827 6.45893 0.378334 0
M  V30 4001 N 373.959 -0.0401083 1.57549 0
M  V30 4002 C 374.889 -1.04384 2.08869 0
M  V30 4003 C 375.87 -1.38407 0.988817 0
M  V30 4004 O 377.055 -1.47483 1.26342 0
M  V30 4005 C 374.185 -2.34808 2.55895 0
M  V30 4006 C 373.139 -2.15057 3.70047 0
M  V30 4007 C 372.465 -3.51145 4.03239 0
M  V30 4008 C 373.765 -1.54576 4.98902 0
M  V30 4009 H 375.459 -0.616666 2.92981 0
M  V30 4010 H 373.005 -0.295184 1.40942 0
M  V30 4011 H 374.958 -3.05346 2.90417 0
M  V30 4012 H 373.682 -2.79565 1.68853 0
M  V30 4013 H 372.341 -1.46954 3.35857 0
M  V30 4014 H 371.989 -3.93529 3.13279 0
M  V30 4015 H 371.689 -3.38758 4.80122 0
M  V30 4016 H 373.213 -4.23062 4.40285 0
M  V30 4017 H 374.627 -2.15017 5.31451 0
M  V30 4018 H 373.024 -1.52796 5.80322 0
M  V30 4019 H 374.094 -0.51039 4.82206 0
M  V30 4020 N 375.437 -1.54477 -0.31217 0
M  V30 4021 C 376.848 -1.64344 -0.885891 0
M  V30 4022 C 377.199 -0.54485 -1.88483 0
M  V30 4023 O 376.324 0.320387 -2.14015 0
M  V30 4024 C 376.919 -2.97908 -1.61357 0
M  V30 4025 C 375.478 -3.09933 -2.13585 0
M  V30 4026 C 374.625 -2.59971 -0.964897 0
M  V30 4027 H 377.576 -1.58448 -0.0894528 0
M  V30 4028 H 377.597 -2.88706 -2.47848 0
M  V30 4029 H 377.109 -3.77845 -0.886277 0
M  V30 4030 H 375.21 -2.34694 -2.89395 0
M  V30 4031 H 375.323 -4.15916 -2.37804 0
M  V30 4032 H 373.687 -2.16147 -1.34731 0
M  V30 4033 H 374.47 -3.42376 -0.251742 0
M  V30 4034 N 376.915 0.57481 -1.46744 0
M  V30 4035 C 377.845 1.69337 -1.60771 0
M  V30 4036 C 378.826 1.63825 -0.457736 0
M  V30 4037 O 380.011 1.8172 -0.684947 0
M  V30 4038 C 377.141 3.0798 -1.60517 0
M  V30 4039 C 376.095 3.28327 -2.74564 0
M  V30 4040 C 375.421 4.67578 -2.59373 0
M  V30 4041 C 376.721 3.15398 -4.16319 0
M  V30 4042 H 378.415 1.57853 -2.54407 0
M  V30 4043 H 375.961 0.75799 -1.22436 0
M  V30 4044 H 377.914 3.86061 -1.68923 0
M  V30 4045 H 376.638 3.20381 -0.634305 0
M  V30 4046 H 375.297 2.52649 -2.65639 0
M  V30 4047 H 374.945 4.76755 -1.60353 0
M  V30 4048 H 374.645 4.82144 -3.35873 0
M  V30 4049 H 376.169 5.47817 -2.69682 0
M  V30 4050 H 377.583 3.83315 -4.26313 0
M  V30 4051 H 375.98 3.41482 -4.93468 0
M  V30 4052 H 377.05 2.12372 -4.3592 0
M  V30 4053 N 378.394 1.34581 0.820102 0
M  V30 4054 C 379.357 1.2628 1.91275 0
M  V30 4055 C 380.357 0.177344 1.59819 0
M  V30 4056 O 381.547 0.430156 1.68806 0
M  V30 4057 C 378.679 0.950327 3.27386 0
M  V30 4058 H 379.872 2.23421 2.00057 0
M  V30 4059 H 377.425 1.1891 1.0144 0
M  V30 4060 H 378.16 -0.0177938 3.24295 0
M  V30 4061 H 377.945 1.73549 3.51601 0
M  V30 4062 H 379.435 0.917492 4.07396 0
M  V30 4063 N 379.872 -1.04064 1.18357 0
M  V30 4064 C 381.12 -1.76915 0.977013 0
M  V30 4065 C 381.441 -1.88624 -0.494577 0
M  V30 4066 O 380.711 -1.41125 -1.3587 0
M  V30 4067 H 379.291 -0.65535 0.358504 0
M  V30 4068 H 381.953 -1.25592 1.49039 0
M  V30 4069 H 381.049 -2.78178 1.41504 0
M  V30 4070 N 381.35 -0.985608 -1.22978 0
M  V30 4071 C 382.627 -0.573599 -1.87001 0
M  V30 4072 C 383.007 0.949213 -1.88555 0
M  V30 4073 O 382.355 1.82811 -1.37086 0
M  V30 4074 C 382.565 -1.18564 -3.28243 0
M  V30 4075 C 383.913 -1.28163 -4.04796 0
M  V30 4076 O 384.937 -1.13949 -3.37482 0
M  V30 4077 O 383.796 -1.50832 -5.25273 0
M  V30 4078 H 380.89 -0.193868 -0.803955 0
M  V30 4079 H 383.436 -1.08102 -1.30813 0
M  V30 4080 H 382.208 -2.22758 -3.21706 0
M  V30 4081 H 381.831 -0.663363 -3.92027 0
M  V30 4082 N 382.828 1.3818 -0.7579 0
M  V30 4083 C 383.76 2.2901 -0.0932177 0
M  V30 4084 C 384.773 1.47958 0.679136 0
M  V30 4085 O 385.962 1.70773 0.519514 0
M  V30 4086 C 383.062 3.26953 0.89192 0
M  V30 4087 C 382.235 4.37045 0.176303 0
M  V30 4088 C 381.294 5.15148 1.07281 0
M  V30 4089 O 380.32 5.66616 0.541728 0
M  V30 4090 N 381.522 5.28542 2.40049 0
M  V30 4091 H 384.287 2.86694 -0.873303 0
M  V30 4092 H 381.848 1.50007 -0.609054 0
M  V30 4093 H 383.84 3.76083 1.49479 0
M  V30 4094 H 382.41 2.70136 1.57306 0
M  V30 4095 H 381.63 3.89493 -0.607328 0
M  V30 4096 H 382.918 5.07801 -0.318718 0
M  V30 4097 H 382.316 4.88285 2.85647 0
M  V30 4098 H 380.873 5.8103 2.95376 0
M  V30 4099 N 384.306 0.507319 1.49211 0
M  V30 4100 C 385.238 -0.304532 2.27168 0
M  V30 4101 C 386.251 -0.924956 1.33972 0
M  V30 4102 O 387.44 -0.807227 1.59205 0
M  V30 4103 C 384.54 -1.44431 3.06583 0
M  V30 4104 C 383.713 -0.930026 4.27398 0
M  V30 4105 C 382.772 -1.94817 4.88807 0
M  V30 4106 O 381.798 -1.51418 5.4869 0
M  V30 4107 N 383 -3.279 4.79022 0
M  V30 4108 H 385.765 0.36395 2.97482 0
M  V30 4109 H 383.326 0.340249 1.58284 0
M  V30 4110 H 385.318 -2.12311 3.44537 0
M  V30 4111 H 383.888 -2.01684 2.38835 0
M  V30 4112 H 383.108 -0.0759244 3.94127 0
M  V30 4113 H 384.396 -0.564932 5.05654 0
M  V30 4114 H 383.794 -3.65843 4.3148 0
M  V30 4115 H 382.351 -3.91476 5.21142 0
M  V30 4116 N 385.784 -1.5574 0.241426 0
M  V30 4117 C 387.2 -1.59196 -0.113548 0
M  V30 4118 C 387.4 -1.25852 -1.57364 0
M  V30 4119 O 386.456 -1.00322 -2.31715 0
M  V30 4120 C 387.769 -2.99814 0.230695 0
M  V30 4121 C 389.317 -3.12513 0.174547 0
M  V30 4122 C 389.792 -4.55342 0.492744 0
M  V30 4123 N 391.283 -4.61076 0.443043 0
M  V30 4124 C 392.018 -5.6956 0.662484 0
M  V30 4125 N 391.514 -6.86328 0.944761 0
M  V30 4126 N 393.307 -5.58957 0.593564 0
M  V30 4127 H 385.458 -1.75685 1.19368 0
M  V30 4128 H 387.721 -0.81756 0.479896 0
M  V30 4129 H 387.427 -3.28932 1.24485 0
M  V30 4130 H 387.301 -3.74568 -0.444833 0
M  V30 4131 H 389.688 -2.83179 -0.830277 0
M  V30 4132 H 389.769 -2.40045 0.883845 0
M  V30 4133 H 389.413 -4.85396 1.4951 0
M  V30 4134 H 389.343 -5.26062 -0.23797 0
M  V30 4135 H 391.834 -3.77179 0.233374 0
M  V30 4136 H 392.147 -7.64935 1.09977 0
M  V30 4137 H 390.492 -6.88025 0.982175 0
M  V30 4138 H 393.683 -4.66611 0.373123 0
M  V30 4139 H 393.856 -6.43433 0.767981 0
M  V30 4140 N 387.262 0.0317525 -1.57568 0
M  V30 4141 C 388.508 0.724175 -1.8943 0
M  V30 4142 C 388.841 1.75149 -0.838836 0
M  V30 4143 O 388.116 1.93948 0.146422 0
M  V30 4144 C 388.399 1.39615 -3.31933 0
M  V30 4145 C 388.252 0.382537 -4.4817 0
M  V30 4146 C 389.571 2.33084 -3.73309 0
M  V30 4147 H 386.69 0.261797 -0.688935 0
M  V30 4148 H 389.332 -0.013017 -1.89996 0
M  V30 4149 H 387.482 2.02451 -3.31581 0
M  V30 4150 H 389.154 -0.243689 -4.60656 0
M  V30 4151 H 387.397 -0.29844 -4.32772 0
M  V30 4152 H 388.068 0.891145 -5.44759 0
M  V30 4153 H 390.544 1.80295 -3.7501 0
M  V30 4154 H 389.42 2.77084 -4.73831 0
M  V30 4155 H 389.681 3.19643 -3.05419 0
M  V30 4156 N 388.74 1.54641 0.303973 0
M  V30 4157 C 389.703 1.84646 1.35789 0
M  V30 4158 C 390.703 0.7192 1.4382 0
M  V30 4159 O 391.893 0.987491 1.43507 0
M  V30 4160 C 389.025 2.02407 2.74307 0
M  V30 4161 H 390.218 2.78829 1.10429 0
M  V30 4162 H 387.771 1.46658 0.540487 0
M  V30 4163 H 388.506 1.10502 3.04893 0
M  V30 4164 H 388.291 2.84453 2.69868 0
M  V30 4165 H 389.781 2.27002 3.50514 0
M  V30 4166 N 390.218 -0.567019 1.47046 0
M  V30 4167 C 391.151 -1.69016 1.53326 0
M  V30 4168 C 392.129 -1.57949 0.386126 0
M  V30 4169 O 393.313 -1.78945 0.592529 0
M  V30 4170 C 390.44 -3.07191 1.42658 0
M  V30 4171 C 389.486 -3.36733 2.6175 0
M  V30 4172 S 390.319 -3.27069 4.24012 0
M  V30 4173 C 391.475 -4.67755 4.1588 0
M  V30 4174 H 391.708 -1.63434 2.48348 0
M  V30 4175 H 389.241 -0.747048 1.35124 0
M  V30 4176 H 391.199 -3.86897 1.37191 0
M  V30 4177 H 389.86 -3.10249 0.490369 0
M  V30 4178 H 389.053 -4.37441 2.50323 0
M  V30 4179 H 388.655 -2.64627 2.64289 0
M  V30 4180 H 390.947 -5.58491 3.83529 0
M  V30 4181 H 391.89 -4.84239 5.16641 0
M  V30 4182 H 392.298 -4.45341 3.46889 0
M  V30 4183 N 391.696 -1.35014 -0.812953 0
M  V30 4184 C 392.646 -1.23959 -1.91359 0
M  V30 4185 C 393.63 -0.136306 -1.60322 0
M  V30 4186 O 394.822 -0.366925 -1.73155 0
M  V30 4187 C 391.951 -1.00736 -3.28188 0
M  V30 4188 C 391.037 -2.15426 -3.65311 0
M  V30 4189 N 391.428 -3.40612 -3.73921 0
M  V30 4190 C 389.726 -2.06672 -3.95225 0
M  V30 4191 C 390.427 -4.15994 -4.06601 0
M  V30 4192 N 389.403 -3.44685 -4.20349 0
M  V30 4193 H 393.205 -2.18815 -1.96208 0
M  V30 4194 H 390.719 -1.27395 -1.00718 0
M  V30 4195 H 392.716 -0.909052 -4.06868 0
M  V30 4196 H 391.376 -0.067586 -3.2463 0
M  V30 4197 H 392.387 -3.75043 -3.5716 0
M  V30 4198 H 389.064 -1.20511 -3.99729 0
M  V30 4199 H 390.454 -5.24145 -4.20382 0
M  V30 4200 N 393.175 1.03435 -1.18907 0
M  V30 4201 C 394.108 2.11162 -0.86521 0
M  V30 4202 C 395.086 1.6165 0.175473 0
M  V30 4203 O 396.27 1.88425 0.0530129 0
M  V30 4204 C 393.397 3.37423 -0.293868 0
M  V30 4205 C 392.443 4.05795 -1.31274 0
M  V30 4206 S 393.276 4.52027 -2.8711 0
M  V30 4207 C 394.432 5.81513 -2.31504 0
M  V30 4208 H 394.665 2.38308 -1.77754 0
M  V30 4209 H 392.198 1.16295 -1.01562 0
M  V30 4210 H 394.156 4.1049 0.0292572 0
M  V30 4211 H 392.817 3.0838 0.596682 0
M  V30 4212 H 392.01 4.96574 -0.86198 0
M  V30 4213 H 391.612 3.38874 -1.58242 0
M  V30 4214 H 393.904 6.55784 -1.70157 0
M  V30 4215 H 394.847 6.3136 -3.20608 0
M  V30 4216 H 395.255 5.36921 -1.74286 0
M  V30 4217 N 394.653 0.992116 1.22453 0
M  V30 4218 C 395.899 0.668523 1.91464 0
M  V30 4219 C 396.232 -0.797313 1.77078 0
M  V30 4220 O 395.507 -1.5765 1.13916 0
M  V30 4221 C 395.79 1.07424 3.43703 0
M  V30 4222 C 395.643 2.59857 3.67143 0
M  V30 4223 C 396.962 0.626891 4.35612 0
M  V30 4224 H 394.081 0.244341 0.695318 0
M  V30 4225 H 396.723 1.2355 1.44345 0
M  V30 4226 H 394.873 0.591816 3.83966 0
M  V30 4227 H 396.545 3.15764 3.3629 0
M  V30 4228 H 394.788 3.01961 3.11451 0
M  V30 4229 H 395.459 2.83296 4.73759 0
M  V30 4230 H 397.935 1.04125 4.02861 0
M  V30 4231 H 396.811 0.939076 5.40807 0
M  V30 4232 H 397.072 -0.472457 4.39568 0
M  V30 4233 N 396.131 -1.37776 0.765217 0
M  V30 4234 C 397.356 -2.04651 0.336537 0
M  V30 4235 C 397.781 -1.57337 -1.03086 0
M  V30 4236 O 397.139 -0.730621 -1.65927 0
M  V30 4237 C 397.187 -3.58577 0.381468 0
M  V30 4238 O 396.291 -4.07706 -0.62042 0
M  V30 4239 H 395.632 -0.64756 0.146838 0
M  V30 4240 H 398.162 -1.76221 1.03959 0
M  V30 4241 H 398.172 -4.07314 0.236448 0
M  V30 4242 H 396.847 -3.9237 1.37907 0
M  V30 4243 H 395.424 -3.70306 -0.439056 0
M  V30 4244 N 397.609 -0.515225 -1.4894 0
M  V30 4245 C 398.834 0.022727 -2.07388 0
M  V30 4246 C 399.259 1.2876 -1.37122 0
M  V30 4247 O 398.617 1.76067 -0.432431 0
M  V30 4248 C 398.665 0.244869 -3.59768 0
M  V30 4249 O 397.769 1.31667 -3.90817 0
M  V30 4250 H 397.11 -0.0325506 -0.663202 0
M  V30 4251 H 399.64 -0.718918 -1.91553 0
M  V30 4252 H 399.65 0.47205 -4.0526 0
M  V30 4253 H 398.325 -0.679194 -4.10317 0
M  V30 4254 H 396.902 1.07331 -3.5712 0
M  V30 4255 N 399.087 1.5561 -0.249682 0
M  V30 4256 C 399.997 2.25143 0.659375 0
M  V30 4257 C 401.013 1.2685 1.19101 0
M  V30 4258 O 402.189 1.59732 1.22669 0
M  V30 4259 C 399.254 2.93945 1.8384 0
M  V30 4260 C 398.315 4.07655 1.34596 0
M  V30 4261 C 397.548 4.73167 2.46878 0
M  V30 4262 O 397.771 4.37768 3.65671 0
M  V30 4263 O 396.705 5.61623 2.16478 0
M  V30 4264 H 400.531 3.03545 0.0968698 0
M  V30 4265 H 398.116 1.49389 -0.018074 0
M  V30 4266 H 399.998 3.37271 2.52638 0
M  V30 4267 H 398.673 2.18481 2.38847 0
M  V30 4268 H 397.58 3.68839 0.625174 0
M  V30 4269 H 398.913 4.84946 0.841941 0
M  V30 4270 N 400.565 -0.0233959 1.57583 0
M  V30 4271 C 401.793 -0.724682 1.93794 0
M  V30 4272 C 402.208 -1.68588 0.849912 0
M  V30 4273 O 401.565 -1.81676 -0.173204 0
M  V30 4274 C 401.616 -1.47684 3.29957 0
M  V30 4275 O 401.337 -0.554222 4.3458 0
M  V30 4276 C 402.838 -2.27477 3.80485 0
M  V30 4277 H 400.058 -0.203317 0.639455 0
M  V30 4278 H 402.602 0.0207653 2.04489 0
M  V30 4279 H 400.757 -2.17412 3.20641 0
M  V30 4280 H 401.171 -1.08232 5.13212 0
M  V30 4281 H 402.645 -2.7564 4.78254 0
M  V30 4282 H 403.122 -3.09144 3.11972 0
M  V30 4283 H 403.728 -1.62813 3.92902 0
M  V30 4284 N 402.043 -1.548 -0.295768 0
M  V30 4285 C 402.973 -1.89115 -1.36959 0
M  V30 4286 C 403.954 -0.75059 -1.52644 0
M  V30 4287 O 405.139 -1.00678 -1.66065 0
M  V30 4288 C 402.269 -2.14307 -2.73295 0
M  V30 4289 C 401.223 -3.30151 -2.72368 0
M  V30 4290 C 400.549 -3.40772 -4.12042 0
M  V30 4291 C 401.849 -4.67126 -2.33646 0
M  V30 4292 H 403.543 -2.79053 -1.08488 0
M  V30 4293 H 401.089 -1.34266 -0.520443 0
M  V30 4294 H 403.042 -2.36898 -3.48507 0
M  V30 4295 H 401.766 -1.21145 -3.03301 0
M  V30 4296 H 400.425 -3.0749 -1.99613 0
M  V30 4297 H 400.073 -2.45117 -4.39234 0
M  V30 4298 H 399.773 -4.18645 -4.12322 0
M  V30 4299 H 401.297 -3.6563 -4.89027 0
M  V30 4300 H 402.711 -4.89414 -2.98575 0
M  V30 4301 H 401.108 -5.47751 -2.45129 0
M  V30 4302 H 402.178 -4.67489 -1.28772 0
M  V30 4303 N 403.521 0.559213 -1.47345 0
M  V30 4304 C 404.768 1.31648 -1.53867 0
M  V30 4305 C 405.096 1.93468 -0.200104 0
M  V30 4306 O 404.351 1.78295 0.806799 0
M  V30 4307 C 404.65 2.44853 -2.6035 0
M  V30 4308 C 404.316 2.00876 -4.03683 0
M  V30 4309 C 402.978 1.88599 -4.42701 0
M  V30 4310 C 405.33 1.67279 -4.93626 0
M  V30 4311 C 402.658 1.41017 -5.69501 0
M  V30 4312 C 405.01 1.21169 -6.20887 0
M  V30 4313 C 403.674 1.07487 -6.58789 0
M  V30 4314 H 402.944 0.481734 -0.56304 0
M  V30 4315 H 405.591 0.627301 -1.80934 0
M  V30 4316 H 403.896 3.19318 -2.27032 0
M  V30 4317 H 405.593 3.03039 -2.62619 0
M  V30 4318 H 402.183 2.11374 -3.72853 0
M  V30 4319 H 406.367 1.75638 -4.64182 0
M  V30 4320 H 401.623 1.29086 -5.97618 0
M  V30 4321 H 405.797 0.942345 -6.89995 0
M  V30 4322 H 403.424 0.703946 -7.56934 0
M  V30 4323 N 404.999 1.35443 0.805782 0
M  V30 4324 C 406.245 1.2996 1.56467 0
M  V30 4325 C 406.6 -0.124742 1.91995 0
M  V30 4326 O 405.893 -1.07533 1.58579 0
M  V30 4327 C 406.087 2.14045 2.86216 0
M  V30 4328 C 405.916 3.64512 2.63365 0
M  V30 4329 C 404.686 4.33744 2.59219 0
M  V30 4330 C 406.884 4.58142 2.33688 0
M  V30 4331 N 404.866 5.69953 2.28094 0
M  V30 4332 C 406.237 5.8248 2.12408 0
M  V30 4333 C 408.292 4.46877 2.19558 0
M  V30 4334 C 406.995 6.96818 1.78429 0
M  V30 4335 C 409.021 5.61065 1.86976 0
M  V30 4336 C 408.383 6.84431 1.66532 0
M  V30 4337 H 404.482 0.530817 0.574245 0
M  V30 4338 H 407.066 1.70333 0.943126 0
M  V30 4339 H 405.237 1.75942 3.46264 0
M  V30 4340 H 406.969 2.00075 3.51784 0
M  V30 4341 H 403.724 3.86365 2.73896 0
M  V30 4342 H 404.148 6.41845 2.15323 0
M  V30 4343 H 408.79 3.52102 2.34061 0
M  V30 4344 H 406.508 7.91559 1.62664 0
M  V30 4345 H 410.094 5.54302 1.7675 0
M  V30 4346 H 408.974 7.71294 1.41688 0
M  V30 4347 N 406.477 -1.02803 1.19454 0
M  V30 4348 C 407.387 -2.14575 0.948408 0
M  V30 4349 C 408.403 -1.73757 -0.091871 0
M  V30 4350 O 409.579 -2.01185 0.0929654 0
M  V30 4351 C 406.644 -3.43202 0.491265 0
M  V30 4352 C 405.705 -3.98328 1.60103 0
M  V30 4353 C 404.938 -5.20816 1.16561 0
M  V30 4354 O 405.161 -5.70392 0.0295238 0
M  V30 4355 O 404.095 -5.68801 1.96849 0
M  V30 4356 H 407.921 -2.38202 1.88397 0
M  V30 4357 H 405.506 -1.12989 0.977433 0
M  V30 4358 H 407.388 -4.20687 0.245015 0
M  V30 4359 H 406.063 -3.21018 -0.415851 0
M  V30 4360 H 404.97 -3.22174 1.90144 0
M  V30 4361 H 406.303 -4.24879 2.48473 0
M  V30 4362 N 407.956 -0.998596 -1.21925 0
M  V30 4363 C 409.184 -0.696286 -1.94832 0
M  V30 4364 C 409.599 0.740032 -1.73692 0
M  V30 4365 O 408.956 1.5 -1.03953 0
M  V30 4366 C 409.007 -0.999833 -3.47398 0
M  V30 4367 O 408.728 -2.37972 -3.67833 0
M  V30 4368 C 410.229 -0.716025 -4.37479 0
M  V30 4369 H 407.449 -0.257111 -0.619786 0
M  V30 4370 H 409.993 -1.33491 -1.54921 0
M  V30 4371 H 408.148 -0.406918 -3.85257 0
M  V30 4372 H 408.562 -2.48338 -4.61983 0
M  V30 4373 H 410.036 -0.978642 -5.43256 0
M  V30 4374 H 410.513 0.349968 -4.37803 0
M  V30 4375 H 411.119 -1.29025 -4.05256 0
M  V30 4376 N 409.434 1.37368 -0.772513 0
M  V30 4377 C 410.367 2.27956 -0.105593 0
M  V30 4378 C 411.345 1.46362 0.708295 0
M  V30 4379 O 412.529 1.75695 0.682895 0
M  V30 4380 C 409.656 3.27687 0.856686 0
M  V30 4381 C 408.702 4.26312 0.1267 0
M  V30 4382 S 409.535 5.22206 -1.1858 0
M  V30 4383 C 410.691 6.25488 -0.227081 0
M  V30 4384 H 410.924 2.84171 -0.87372 0
M  V30 4385 H 408.457 1.43654 -0.565939 0
M  V30 4386 H 410.415 3.85653 1.40648 0
M  V30 4387 H 409.076 2.70417 1.59793 0
M  V30 4388 H 408.269 4.96674 0.856212 0
M  V30 4389 H 407.871 3.72339 -0.352117 0
M  V30 4390 H 410.163 6.74836 0.600231 0
M  V30 4391 H 411.106 7.02371 -0.898899 0
M  V30 4392 H 411.514 5.64267 0.162053 0
M  V30 4393 N 410.912 0.523116 1.48665 0
M  V30 4394 C 411.822 -0.247406 2.33292 0
M  V30 4395 C 412.838 -0.945769 1.46052 0
M  V30 4396 O 414.014 -0.922253 1.79043 0
M  V30 4397 C 411.079 -1.28487 3.22012 0
M  V30 4398 C 410.14 -0.597592 4.2512 0
M  V30 4399 C 409.373 -1.58563 5.09601 0
M  V30 4400 O 409.596 -2.81763 4.95949 0
M  V30 4401 O 408.53 -1.12879 5.91221 0
M  V30 4402 H 412.356 0.445869 3.00409 0
M  V30 4403 H 409.941 0.284128 1.46673 0
M  V30 4404 H 411.823 -1.88459 3.7691 0
M  V30 4405 H 410.498 -1.96068 2.57564 0
M  V30 4406 H 409.405 0.0424407 3.74076 0
M  V30 4407 H 410.738 0.0361517 4.92187 0
M  V30 4408 N 412.39 -1.55475 0.257931 0
M  V30 4409 C 413.337 -2.21837 -0.636939 0
M  V30 4410 C 414.307 -1.18596 -1.16294 0
M  V30 4411 O 415.492 -1.47081 -1.21539 0
M  V30 4412 C 412.632 -2.9301 -1.82317 0
M  V30 4413 C 411.745 -4.10931 -1.33265 0
M  V30 4414 C 410.88 -4.69791 -2.47931 0
M  V30 4415 C 409.919 -5.7994 -1.95796 0
M  V30 4416 N 409.056 -6.32935 -3.0387 0
M  V30 4417 H 413.896 -2.9793 -0.0643591 0
M  V30 4418 H 411.433 -1.47086 -0.0200031 0
M  V30 4419 H 413.391 -3.3248 -2.52018 0
M  V30 4420 H 412.021 -2.1937 -2.36805 0
M  V30 4421 H 411.073 -3.76699 -0.52931 0
M  V30 4422 H 412.385 -4.90417 -0.910654 0
M  V30 4423 H 411.539 -5.11892 -3.25656 0
M  V30 4424 H 410.278 -3.89545 -2.93438 0
M  V30 4425 H 409.283 -5.37305 -1.16546 0
M  V30 4426 H 410.508 -6.62043 -1.51246 0
M  V30 4427 H 408.454 -5.55591 -3.48791 0
M  V30 4428 H 408.371 -7.07645 -2.66035 0
M  V30 4429 H 409.639 -6.79695 -3.81621 0
M  V30 4430 N 413.868 0.0150385 -1.57593 0
M  V30 4431 C 414.798 1.01047 -2.10503 0
M  V30 4432 C 415.779 1.36816 -1.01071 0
M  V30 4433 O 416.964 1.45455 -1.28672 0
M  V30 4434 C 414.094 2.30708 -2.59598 0
M  V30 4435 C 413.048 2.09142 -3.73421 0
M  V30 4436 C 412.374 3.44685 -4.08774 0
M  V30 4437 C 413.674 1.46619 -5.01298 0
M  V30 4438 H 415.368 0.569978 -2.93925 0
M  V30 4439 H 412.914 0.272724 -1.41394 0
M  V30 4440 H 414.867 3.00687 -2.95238 0
M  V30 4441 H 413.591 2.76843 -1.73279 0
M  V30 4442 H 412.25 1.41592 -3.38153 0
M  V30 4443 H 411.898 3.88495 -3.195 0
M  V30 4444 H 411.598 3.31077 -4.8545 0
M  V30 4445 H 413.122 4.16004 -4.4696 0
M  V30 4446 H 414.536 2.06535 -5.34805 0
M  V30 4447 H 412.933 1.43544 -5.82679 0
M  V30 4448 H 414.003 0.433611 -4.82957 0
M  V30 4449 N 415.346 1.54954 0.287554 0
M  V30 4450 C 416.293 1.86834 1.35505 0
M  V30 4451 C 417.263 0.718452 1.49758 0
M  V30 4452 O 418.448 0.968358 1.644 0
M  V30 4453 C 415.588 2.13303 2.71286 0
M  V30 4454 C 414.701 3.40883 2.65373 0
M  V30 4455 C 413.836 3.57125 3.93236 0
M  V30 4456 C 412.875 4.78449 3.81776 0
M  V30 4457 N 412.012 4.91426 5.01443 0
M  V30 4458 H 416.852 2.77889 1.07619 0
M  V30 4459 H 414.389 1.37593 0.520241 0
M  V30 4460 H 416.347 2.26646 3.50267 0
M  V30 4461 H 414.977 1.25499 2.97405 0
M  V30 4462 H 414.029 3.36088 1.78182 0
M  V30 4463 H 415.341 4.29993 2.52799 0
M  V30 4464 H 414.495 3.70207 4.80658 0
M  V30 4465 H 413.234 2.66173 4.0866 0
M  V30 4466 H 412.239 4.65386 2.92738 0
M  V30 4467 H 413.464 5.70822 3.67884 0
M  V30 4468 H 411.41 4.03401 5.17304 0
M  V30 4469 H 411.327 5.74559 4.91343 0
M  V30 4470 H 412.595 5.08879 5.90477 0
M  V30 4471 N 416.824 -0.551391 1.4764 0
M  V30 4472 C 417.787 -1.64007 1.60107 0
M  V30 4473 C 418.787 -1.53601 0.47576 0
M  V30 4474 O 419.977 -1.57655 0.740988 0
M  V30 4475 C 417.109 -3.03569 1.55108 0
M  V30 4476 H 418.302 -1.543 2.57161 0
M  V30 4477 H 415.855 -0.771776 1.35917 0
M  V30 4478 H 416.59 -3.18804 0.594519 0
M  V30 4479 H 416.375 -3.12532 2.36783 0
M  V30 4480 H 417.865 -3.82762 1.66982 0
M  V30 4481 N 418.302 -1.35869 -0.798587 0
M  V30 4482 C 419.232 -1.32118 -1.92528 0
M  V30 4483 C 420.213 -0.194209 -1.68988 0
M  V30 4484 O 421.398 -0.390426 -1.90235 0
M  V30 4485 C 418.528 -1.10047 -3.29404 0
M  V30 4486 C 417.482 -2.19471 -3.67446 0
M  V30 4487 C 416.808 -1.82555 -5.02571 0
M  V30 4488 C 418.108 -3.61495 -3.76987 0
M  V30 4489 H 419.802 -2.26394 -1.95924 0
M  V30 4490 H 417.348 -1.08981 -0.94123 0
M  V30 4491 H 419.301 -1.06061 -4.07835 0
M  V30 4492 H 418.025 -0.122195 -3.26371 0
M  V30 4493 H 416.684 -2.22568 -2.91306 0
M  V30 4494 H 416.332 -0.833249 -4.9605 0
M  V30 4495 H 416.032 -2.5581 -5.28995 0
M  V30 4496 H 417.556 -1.80108 -5.83432 0
M  V30 4497 H 418.97 -3.60676 -4.4563 0
M  V30 4498 H 417.367 -4.33577 -4.14887 0
M  V30 4499 H 418.437 -3.97065 -2.78329 0
M  V30 4500 N 419.78 1.02168 -1.19998 0
M  V30 4501 C 421.028 1.75338 -1.00504 0
M  V30 4502 C 421.349 1.89387 0.464506 0
M  V30 4503 O 420.619 1.43268 1.33608 0
M  V30 4504 H 419.199 0.649564 -0.368885 0
M  V30 4505 H 421.861 1.23205 -1.51018 0
M  V30 4506 H 420.957 2.75892 -1.45912 0
M  V30 4507 N 421.258 1.00505 1.21394 0
M  V30 4508 C 422.221 0.570459 2.21987 0
M  V30 4509 C 423.221 -0.353211 1.56873 0
M  V30 4510 O 424.411 -0.14349 1.73608 0
M  V30 4511 C 421.543 -0.168555 3.40483 0
M  V30 4512 H 422.736 1.46021 2.6195 0
M  V30 4513 H 420.289 0.793565 1.34656 0
M  V30 4514 H 421.024 -1.07374 3.06009 0
M  V30 4515 H 420.809 0.494823 3.88965 0
M  V30 4516 H 422.299 -0.460362 4.15055 0
M  V30 4517 N 422.737 -1.36956 0.779787 0
M  V30 4518 C 423.962 -2.04283 0.358224 0
M  V30 4519 C 424.387 -1.58422 -1.01411 0
M  V30 4520 O 423.745 -0.748179 -1.65142 0
M  V30 4521 C 423.793 -3.58152 0.419479 0
M  V30 4522 O 422.897 -4.08342 -0.577142 0
M  V30 4523 H 422.238 -0.645967 0.153698 0
M  V30 4524 H 424.768 -1.75108 1.05822 0
M  V30 4525 H 424.778 -4.07041 0.279636 0
M  V30 4526 H 423.453 -3.90886 1.42061 0
M  V30 4527 H 422.03 -3.70751 -0.399755 0
M  V30 4528 N 424.215 -0.530993 -1.48385 0
M  V30 4529 C 425.44 0.000729535 -2.074 0
M  V30 4530 C 425.865 1.27298 -1.3848 0
M  V30 4531 O 425.223 1.75599 -0.451081 0
M  V30 4532 C 425.271 0.206697 -3.60007 0
M  V30 4533 O 424.375 1.27514 -3.92191 0
M  V30 4534 H 423.716 -0.039583 -0.662819 0
M  V30 4535 H 426.246 -0.739194 -1.9078 0
M  V30 4536 H 426.256 0.42904 -4.05738 0
M  V30 4537 H 424.931 -0.722675 -4.09573 0
M  V30 4538 H 423.508 1.03537 -3.58238 0
M  V30 4539 N 425.693 1.55336 -0.266172 0
M  V30 4540 C 426.942 1.98574 0.353749 0
M  V30 4541 C 427.255 1.15789 1.57646 0
M  V30 4542 O 428.461 1.49129 2.26876 0
M  V30 4543 C 426.917 3.53403 0.680747 0
M  V30 4544 C 426.525 4.44953 -0.52165 0
M  V30 4545 C 428.269 4.05251 1.26379 0
M  V30 4546 C 426.176 5.91156 -0.169736 0
M  V30 4547 H 425.106 0.741643 0.135949 0
M  V30 4548 H 427.757 1.79743 -0.369421 0
M  V30 4549 H 426.139 3.68001 1.46257 0
M  V30 4550 H 427.313 4.42121 -1.29869 0
M  V30 4551 H 425.628 4.03691 -1.02093 0
M  V30 4552 H 428.225 5.12021 1.54074 0
M  V30 4553 H 428.568 3.53749 2.19471 0
M  V30 4554 H 429.101 3.94057 0.544447 0
M  V30 4555 H 425.84 6.46736 -1.0683 0
M  V30 4556 H 425.36 5.97079 0.570717 0
M  V30 4557 H 427.039 6.4655 0.241245 0
M  V30 4558 N 427.171 -0.0066808 1.57599 0
M  V30 4559 C 428.101 -0.999296 2.11036 0
M  V30 4560 C 429.082 -1.36278 1.01795 0
M  V30 4561 O 430.267 -1.4477 1.29442 0
M  V30 4562 C 427.397 -2.29328 2.60818 0
M  V30 4563 C 426.351 -2.07159 3.74525 0
M  V30 4564 C 425.677 -3.42512 4.10596 0
M  V30 4565 C 426.977 -1.43959 5.02069 0
M  V30 4566 H 428.671 -0.554382 2.94223 0
M  V30 4567 H 426.217 -0.265221 1.41536 0
M  V30 4568 H 428.17 -2.99117 2.96828 0
M  V30 4569 H 426.894 -2.7592 1.74745 0
M  V30 4570 H 425.553 -1.39797 3.38899 0
M  V30 4571 H 425.201 -3.86795 3.21556 0
M  V30 4572 H 424.901 -3.28498 4.87199 0
M  V30 4573 H 426.425 -4.13628 4.4916 0
M  V30 4574 H 427.839 -2.03696 5.35893 0
M  V30 4575 H 426.236 -1.40452 5.83432 0
M  V30 4576 H 427.306 -0.407992 4.83181 0
M  V30 4577 N 428.649 -1.55105 -0.279332 0
M  V30 4578 C 429.895 -1.75672 -1.01327 0
M  V30 4579 C 430.228 -0.552739 -1.86168 0
M  V30 4580 O 429.503 0.449827 -1.89227 0
M  V30 4581 C 429.786 -3.05825 -1.90114 0
M  V30 4582 C 429.639 -4.36565 -1.08309 0
M  V30 4583 C 430.958 -3.31975 -2.8893 0
M  V30 4584 H 428.077 -0.639149 -0.366957 0
M  V30 4585 H 430.719 -1.87833 -0.286154 0
M  V30 4586 H 428.869 -2.95588 -2.52111 0
M  V30 4587 H 430.541 -4.58751 -0.484314 0
M  V30 4588 H 428.784 -4.32076 -0.386362 0
M  V30 4589 H 429.455 -5.23946 -1.73737 0
M  V30 4590 H 431.931 -3.41963 -2.37067 0
M  V30 4591 H 430.807 -4.2432 -3.48201 0
M  V30 4592 H 431.068 -2.51309 -3.63725 0
M  V30 4593 N 430.127 0.543554 -1.4793 0
M  V30 4594 C 431.057 1.65888 -1.64327 0
M  V30 4595 C 432.038 1.62818 -0.492383 0
M  V30 4596 O 433.223 1.80226 -0.723338 0
M  V30 4597 C 430.353 3.04506 -1.67013 0
M  V30 4598 C 429.307 3.2243 -2.81466 0
M  V30 4599 C 428.633 4.61972 -2.69233 0
M  V30 4600 C 429.933 3.06496 -4.22915 0
M  V30 4601 H 431.627 1.52421 -2.57698 0
M  V30 4602 H 429.173 0.731849 -1.24016 0
M  V30 4603 H 431.126 3.82391 -1.77074 0
M  V30 4604 H 429.85 3.18964 -0.70212 0
M  V30 4605 H 428.509 2.46957 -2.70938 0
M  V30 4606 H 428.157 4.73247 -1.7043 0
M  V30 4607 H 427.857 4.74911 -3.46025 0
M  V30 4608 H 429.381 5.41974 -2.81242 0
M  V30 4609 H 430.795 3.74186 -4.34348 0
M  V30 4610 H 429.192 3.30938 -5.006 0
M  V30 4611 H 430.262 2.03077 -4.40327 0
M  V30 4612 N 431.605 1.3629 0.791371 0
M  V30 4613 C 433.016 1.27225 1.36641 0
M  V30 4614 C 433.367 -0.0887968 1.95999 0
M  V30 4615 O 432.492 -0.990207 1.92416 0
M  V30 4616 C 433.087 2.30375 2.48421 0
M  V30 4617 C 431.646 2.25004 3.01746 0
M  V30 4618 C 430.793 2.15259 1.7481 0
M  V30 4619 H 433.744 1.47198 0.593173 0
M  V30 4620 H 433.765 1.93905 3.27385 0
M  V30 4621 H 433.277 3.29422 2.05189 0
M  V30 4622 H 431.378 1.29417 3.49403 0
M  V30 4623 H 431.491 3.1761 3.58693 0
M  V30 4624 H 429.855 1.61482 1.96966 0
M  V30 4625 H 430.638 3.16191 1.33709 0
M  V30 4626 N 433.083 -1.0153 1.20538 0
M  V30 4627 C 434.332 -1.74558 1.01057 0
M  V30 4628 C 434.645 -1.90168 -0.457756 0
M  V30 4629 O 435.851 -2.60301 -0.771722 0
M  V30 4630 C 434.307 -3.13963 1.75941 0
M  V30 4631 C 433.915 -3.06361 3.26875 0
M  V30 4632 C 435.659 -3.91191 1.64832 0
M  V30 4633 C 433.566 -4.40782 3.94291 0
M  V30 4634 H 432.496 -0.654417 0.374505 0
M  V30 4635 H 435.147 -1.13521 1.44171 0
M  V30 4636 H 433.529 -3.75549 1.25614 0
M  V30 4637 H 434.703 -2.54074 3.84425 0
M  V30 4638 H 433.018 -2.42625 3.38411 0
M  V30 4639 H 435.615 -4.90644 2.12539 0
M  V30 4640 H 435.958 -4.11884 0.604745 0
M  V30 4641 H 436.491 -3.36236 2.12579 0
M  V30 4642 H 433.23 -4.25292 4.98805 0
M  V30 4643 H 432.75 -4.9307 3.41529 0
M  V30 4644 H 434.429 -5.09621 3.98617 0
M  V30 4645 N 434.561 -1.01147 -1.20859 0
M  V30 4646 C 435.471 -0.58686 -2.27141 0
M  V30 4647 C 436.487 0.373198 -1.69951 0
M  V30 4648 O 437.663 0.235423 -2.00019 0
M  V30 4649 C 434.728 0.0733602 -3.46622 0
M  V30 4650 C 433.789 -0.931995 -4.19061 0
M  V30 4651 C 433.022 -0.303186 -5.32838 0
M  V30 4652 O 433.245 0.898395 -5.63281 0
M  V30 4653 O 432.179 -1.01735 -5.9324 0
M  V30 4654 H 436.005 -1.47155 -2.65667 0
M  V30 4655 H 433.59 -0.780689 -1.2738 0
M  V30 4656 H 435.472 0.442333 -4.19072 0
M  V30 4657 H 434.147 0.932329 -3.09983 0
M  V30 4658 H 433.054 -1.35224 -3.48805 0
M  V30 4659 H 434.387 -1.76076 -4.59628 0
M  V30 4660 N 436.039 1.36541 -0.78704 0
M  V30 4661 C 436.986 2.30082 -0.181901 0
M  V30 4662 C 437.956 1.5186 0.672896 0
M  V30 4663 O 439.141 1.80374 0.622072 0
M  V30 4664 C 436.281 3.3835 0.679197 0
M  V30 4665 C 435.394 4.31565 -0.193882 0
M  V30 4666 C 434.529 5.26915 0.673364 0
M  V30 4667 C 433.568 6.11769 -0.201315 0
M  V30 4668 N 432.705 6.99315 0.624777 0
M  V30 4669 H 437.545 2.81248 -0.985064 0
M  V30 4670 H 435.082 1.38437 -0.497342 0
M  V30 4671 H 437.04 3.99767 1.19341 0
M  V30 4672 H 435.67 2.8851 1.44781 0
M  V30 4673 H 434.722 3.71323 -0.826044 0
M  V30 4674 H 436.034 4.91191 -0.867937 0
M  V30 4675 H 435.188 5.9361 1.25348 0
M  V30 4676 H 433.927 4.67737 1.38105 0
M  V30 4677 H 432.932 5.44039 -0.793849 0
M  V30 4678 H 434.157 6.73022 -0.906568 0
M  V30 4679 H 432.103 6.42648 1.3168 0
M  V30 4680 H 432.02 7.56 0.00835237 0
M  V30 4681 H 433.288 7.70382 1.18879 0
M  V30 4682 N 437.518 0.538854 1.48102 0
M  V30 4683 C 438.451 -0.266495 2.26639 0
M  V30 4684 C 439.429 -0.93687 1.32897 0
M  V30 4685 O 440.613 -0.959507 1.62252 0
M  V30 4686 C 437.74 -1.37814 3.09394 0
M  V30 4687 C 436.786 -0.818247 4.18577 0
M  V30 4688 S 437.619 0.320848 5.34538 0
M  V30 4689 C 438.775 -0.793059 6.20855 0
M  V30 4690 H 439.008 0.399994 2.94597 0
M  V30 4691 H 436.541 0.324808 1.50945 0
M  V30 4692 H 438.499 -2.01488 3.57649 0
M  V30 4693 H 437.16 -2.01639 2.40833 0
M  V30 4694 H 436.353 -1.65247 4.7614 0
M  V30 4695 H 435.955 -0.258036 3.73109 0
M  V30 4696 H 438.247 -1.68961 6.56093 0
M  V30 4697 H 439.19 -0.255204 7.0764 0
M  V30 4698 H 439.598 -1.07746 5.54122 0
M  V30 4699 N 438.996 -1.55193 0.274407 0
M  V30 4700 C 439.929 -2.18606 -0.654712 0
M  V30 4701 C 440.907 -1.14677 -1.15273 0
M  V30 4702 O 442.091 -1.43198 -1.22583 0
M  V30 4703 C 439.218 -2.80875 -1.89281 0
M  V30 4704 C 438.264 -3.981 -1.53032 0
M  V30 4705 S 439.097 -5.32025 -0.609107 0
M  V30 4706 C 440.253 -5.97761 -1.85559 0
M  V30 4707 H 440.486 -2.97074 -0.115894 0
M  V30 4708 H 438.019 -1.54288 0.05867 0
M  V30 4709 H 439.977 -3.17381 -2.60345 0
M  V30 4710 H 438.638 -2.02302 -2.40277 0
M  V30 4711 H 437.831 -4.40356 -2.45158 0
M  V30 4712 H 437.433 -3.63013 -0.899874 0
M  V30 4713 H 439.725 -6.16951 -2.7996 0
M  V30 4714 H 440.668 -6.92545 -1.47605 0
M  V30 4715 H 441.076 -5.27113 -2.02021 0
M  V30 4716 N 440.474 -0.00167713 -1.576 0
M  V30 4717 C 441.384 1.00548 -2.1196 0
M  V30 4718 C 442.4 1.3758 -1.06526 0
M  V30 4719 O 443.576 1.46278 -1.38436 0
M  V30 4720 C 440.641 2.27809 -2.6135 0
M  V30 4721 C 439.702 1.97074 -3.81393 0
M  V30 4722 C 438.935 3.18267 -4.28417 0
M  V30 4723 O 439.158 4.30009 -3.74765 0
M  V30 4724 O 438.092 3.02167 -5.20556 0
M  V30 4725 H 441.918 0.573373 -2.98238 0
M  V30 4726 H 439.503 0.217255 -1.47812 0
M  V30 4727 H 441.385 3.02568 -2.93309 0
M  V30 4728 H 440.06 2.70254 -1.78169 0
M  V30 4729 H 438.967 1.19785 -3.54404 0
M  V30 4730 H 440.3 1.59464 -4.65652 0
M  V30 4731 O 441.991 1.60887 0.140552 0
M  V30 4732 H 442.682 1.77558 0.77413 0
M  V30 END ATOM
M  V30 BEGIN BOND
M  V30 END BOND
M  V30 END CTAB
M  END
$$$$
