drugbank_target|P60723 50S ribosomal protein L4 (DB13179)
 OpenBabel12092120363D

  0  0  0     0  0            999 V3000
M  V30 BEGIN CTAB
M  V30 COUNTS 3171 3190 0 0 0
M  V30 BEGIN ATOM
M  V30 1 H -0.908 1.98254 -0.117106 0
M  V30 2 N 0 1.576 0 0
M  V30 3 C 0.933 2.03868 1.02534 0
M  V30 4 C 1.911 0.928543 1.3348 0
M  V30 5 O 3.095 1.19667 1.45644 0
M  V30 6 C 0.222 2.43627 2.35294 0
M  V30 7 C -0.732 3.65373 2.2001 0
M  V30 8 S 0.101 5.13292 1.52614 0
M  V30 9 C 1.257 5.56322 2.86805 0
M  V30 10 H 1.49 2.90518 0.631377 0
M  V30 11 H -0.977 1.52953 0.210867 0
M  V30 12 H 0.981 2.67203 3.11629 0
M  V30 13 H -0.358 1.57376 2.7183 0
M  V30 14 H -1.165 3.90944 3.18086 0
M  V30 15 H -1.563 3.418 1.51819 0
M  V30 16 H 0.729 5.58782 3.83104 0
M  V30 17 H 1.672 6.56266 2.65933 0
M  V30 18 H 2.08 4.83886 2.90714 0
M  V30 19 N 1.4781 -0.272755 1.55222 0
M  V30 20 C 2.3881 -1.35918 1.91216 0
M  V30 21 C 3.4041 -1.54026 0.809436 0
M  V30 22 O 4.5801 -1.68148 1.10852 0
M  V30 23 C 1.6451 -2.69834 2.17693 0
M  V30 24 C 0.7061 -2.6047 3.41253 0
M  V30 25 C -0.0609 -3.88 3.66458 0
M  V30 26 O 0.1621 -4.88693 2.94169 0
M  V30 27 O -0.9039 -3.88189 4.59992 0
M  V30 28 H 2.9221 -1.0839 2.83699 0
M  V30 29 H 0.5071 -0.471301 1.41771 0
M  V30 30 H 2.3891 -3.49017 2.36147 0
M  V30 31 H 1.0641 -2.97148 1.28392 0
M  V30 32 H -0.0289 -1.79663 3.28134 0
M  V30 33 H 1.3041 -2.38106 4.30774 0
M  V30 34 N 2.9562 -1.48159 -0.537278 0
M  V30 35 C 3.8862 -1.65029 -1.6519 0
M  V30 36 C 4.8672 -0.499281 -1.62607 0
M  V30 37 O 6.0522 -0.730972 -1.79918 0
M  V30 38 C 3.1822 -1.68303 -3.03795 0
M  V30 39 C 2.1362 -2.8283 -3.21234 0
M  V30 40 C 1.4622 -2.71189 -4.60826 0
M  V30 41 C 2.7622 -4.24211 -3.04701 0
M  V30 42 H 4.4562 -2.58341 -1.51328 0
M  V30 43 H 2.0022 -1.24325 -0.726585 0
M  V30 44 H 3.9552 -1.78693 -3.81637 0
M  V30 45 H 2.6792 -0.715635 -3.18663 0
M  V30 46 H 1.3382 -2.71983 -2.45807 0
M  V30 47 H 0.9862 -1.72435 -4.7252 0
M  V30 48 H 0.6862 -3.48035 -4.7344 0
M  V30 49 H 2.2102 -2.83537 -5.40777 0
M  V30 50 H 3.6242 -4.3593 -3.72341 0
M  V30 51 H 2.0212 -5.01998 -3.28813 0
M  V30 52 H 3.0912 -4.41184 -2.01209 0
M  V30 53 N 4.4343 0.785586 -1.36625 0
M  V30 54 C 5.6803 1.54591 -1.31261 0
M  V30 55 C 6.0133 1.93906 0.106823 0
M  V30 56 O 5.2883 1.63007 1.06108 0
M  V30 57 C 5.5713 2.82038 -2.23889 0
M  V30 58 C 5.4243 2.49066 -3.74548 0
M  V30 59 C 6.7433 3.83887 -2.15217 0
M  V30 60 H 3.8623 0.560846 -0.478143 0
M  V30 61 H 6.5043 0.902278 -1.67209 0
M  V30 62 H 4.6543 3.36961 -1.93363 0
M  V30 63 H 6.3263 2.00164 -4.15611 0
M  V30 64 H 4.5693 1.81954 -3.93796 0
M  V30 65 H 5.2403 3.40109 -4.34776 0
M  V30 66 H 7.7163 3.38421 -2.42096 0
M  V30 67 H 6.5923 4.70806 -2.82193 0
M  V30 68 H 6.8533 4.27131 -1.14068 0
M  V30 69 N 5.9124 1.20967 1.01018 0
M  V30 70 C 6.8424 0.988272 2.11555 0
M  V30 71 C 7.8234 -0.0849778 1.69888 0
M  V30 72 O 9.0084 0.0738202 1.9406 0
M  V30 73 C 6.1384 0.546528 3.42973 0
M  V30 74 C 5.0924 1.56375 3.9841 0
M  V30 75 C 4.4184 0.97842 5.25672 0
M  V30 76 C 5.7184 2.94922 4.31066 0
M  V30 77 H 7.4124 1.91276 2.30334 0
M  V30 78 H 4.9584 0.921073 1.1069 0
M  V30 79 H 6.9114 0.378839 4.19694 0
M  V30 80 H 5.6354 -0.413598 3.23971 0
M  V30 81 H 4.2944 1.71891 3.23804 0
M  V30 82 H 3.9424 0.0101688 5.02999 0
M  V30 83 H 3.6424 1.65784 5.63728 0
M  V30 84 H 5.1664 0.821939 6.05043 0
M  V30 85 H 6.5804 2.8288 4.9865 0
M  V30 86 H 4.9774 3.5983 4.80253 0
M  V30 87 H 6.0474 3.4616 3.39561 0
M  V30 88 N 7.3905 -1.2043 1.01659 0
M  V30 89 C 8.3375 -2.23215 0.586822 0
M  V30 90 C 9.3075 -1.61382 -0.393085 0
M  V30 91 O 10.4925 -1.88544 -0.292525 0
M  V30 92 C 7.6325 -3.45032 -0.0687464 0
M  V30 93 C 6.7455 -4.21296 0.955724 0
M  V30 94 C 5.8805 -5.30507 0.271208 0
M  V30 95 C 4.9195 -5.98515 1.28244 0
M  V30 96 N 4.0565 -6.99316 0.62459 0
M  V30 97 H 8.8965 -2.59336 1.46796 0
M  V30 98 H 6.4335 -1.27431 0.734836 0
M  V30 99 H 8.3915 -4.1459 -0.465965 0
M  V30 100 H 7.0215 -3.09604 -0.913529 0
M  V30 101 H 6.0735 -3.50803 1.4711 0
M  V30 102 H 7.3855 -4.6803 1.72479 0
M  V30 103 H 6.5395 -6.06428 -0.18151 0
M  V30 104 H 5.2785 -4.8481 -0.530163 0
M  V30 105 H 4.2835 -5.21355 1.74554 0
M  V30 106 H 5.5085 -6.46298 2.08509 0
M  V30 107 H 3.4545 -6.55812 -0.156914 0
M  V30 108 H 3.3715 -7.44178 1.33172 0
M  V30 109 H 4.6395 -7.79255 0.195462 0
M  V30 110 N 8.8686 -0.792821 -1.36206 0
M  V30 111 C 10.1456 -0.290627 -1.93429 0
M  V30 112 C 10.5256 1.21773 -1.72437 0
M  V30 113 O 9.8736 2.0108 -1.08531 0
M  V30 114 C 10.0836 -0.686973 -3.42172 0
M  V30 115 C 11.4316 -0.668643 -4.19302 0
M  V30 116 O 12.4556 -0.627658 -3.50626 0
M  V30 117 O 11.3146 -0.714597 -5.41808 0
M  V30 118 H 8.4086 -0.0727927 -0.82379 0
M  V30 119 H 10.9546 -0.875593 -1.45367 0
M  V30 120 H 9.7266 -1.72711 -3.51122 0
M  V30 121 H 9.3496 -0.0760733 -3.97527 0
M  V30 122 N 10.3467 1.47872 -0.545128 0
M  V30 123 C 11.3097 2.28337 0.198717 0
M  V30 124 C 12.3097 1.36255 0.853888 0
M  V30 125 O 13.4997 1.59003 0.711606 0
M  V30 126 C 10.6317 3.15585 1.28915 0
M  V30 127 H 11.8247 2.95567 -0.507941 0
M  V30 128 H 9.3777 1.53362 -0.301616 0
M  V30 129 H 10.1127 2.53019 2.02859 0
M  V30 130 H 9.8977 3.83337 0.824309 0
M  V30 131 H 11.3877 3.76243 1.81194 0
M  V30 132 N 11.8248 0.280983 1.55075 0
M  V30 133 C 12.7568 -0.637268 2.20163 0
M  V30 134 C 13.7698 -1.11298 1.18813 0
M  V30 135 O 14.9588 -1.03388 1.4551 0
M  V30 136 C 12.0588 -1.88199 2.81841 0
M  V30 137 C 11.2318 -1.55211 4.08936 0
M  V30 138 C 10.2908 -2.64991 4.54606 0
M  V30 139 O 9.3168 -2.30929 5.2025 0
M  V30 140 N 10.5188 -3.95161 4.25238 0
M  V30 141 H 13.2838 -0.0801694 2.99593 0
M  V30 142 H 10.8448 0.102329 1.61576 0
M  V30 143 H 12.8368 -2.60948 3.09335 0
M  V30 144 H 11.4068 -2.34799 2.06369 0
M  V30 145 H 10.6268 -0.658185 3.88666 0
M  V30 146 H 11.9148 -1.30681 4.91732 0
M  V30 147 H 11.3128 -4.25653 3.72607 0
M  V30 148 H 9.8698 -4.6427 4.5749 0
M  V30 149 N 13.3029 -1.57598 0.00835791 0
M  V30 150 C 14.5279 -1.95617 -0.689103 0
M  V30 151 C 14.9529 -0.883753 -1.66046 0
M  V30 152 O 14.3109 0.157352 -1.80616 0
M  V30 153 C 14.3589 -3.32736 -1.38994 0
M  V30 154 O 13.4629 -3.27631 -2.50463 0
M  V30 155 H 12.8039 -0.638379 -0.182668 0
M  V30 156 H 15.3339 -2.045 0.064036 0
M  V30 157 H 15.3439 -3.68494 -1.75147 0
M  V30 158 H 14.0189 -4.1034 -0.677778 0
M  V30 159 H 12.5959 -3.03561 -2.16576 0
M  V30 160 N 14.781 0.264519 -1.55364 0
M  V30 161 C 15.744 1.31046 -1.88042 0
M  V30 162 C 16.744 1.41943 -0.755569 0
M  V30 163 O 17.934 1.40947 -1.02369 0
M  V30 164 C 15.066 2.69067 -2.09323 0
M  V30 165 H 16.259 1.03297 -2.81549 0
M  V30 166 H 13.812 0.502989 -1.47986 0
M  V30 167 H 14.547 3.01982 -1.18226 0
M  V30 168 H 14.332 2.62542 -2.91229 0
M  V30 169 H 15.822 3.44623 -2.35848 0
M  V30 170 N 16.2591 1.48442 0.529413 0
M  V30 171 C 17.1891 1.65902 1.64313 0
M  V30 172 C 18.1701 0.507897 1.6234 0
M  V30 173 O 19.3551 0.740503 1.79528 0
M  V30 174 C 16.4851 1.69911 3.02898 0
M  V30 175 C 15.4391 2.8453 3.19729 0
M  V30 176 C 14.7651 2.73629 4.59381 0
M  V30 177 C 16.0651 4.25821 3.02447 0
M  V30 178 H 17.7591 2.5914 1.49955 0
M  V30 179 H 15.3051 1.24709 0.719982 0
M  V30 180 H 17.2581 1.80715 3.80684 0
M  V30 181 H 15.9821 0.732524 3.18279 0
M  V30 182 H 14.6411 2.73283 2.44361 0
M  V30 183 H 14.2891 1.74938 4.71599 0
M  V30 184 H 13.9891 3.50541 4.71588 0
M  V30 185 H 15.5131 2.86401 5.39265 0
M  V30 186 H 16.9271 4.37898 3.70024 0
M  V30 187 H 15.3241 5.03735 3.26146 0
M  V30 188 H 16.3941 4.42244 1.98867 0
M  V30 189 N 17.7372 -0.778329 1.37039 0
M  V30 190 C 18.9652 -1.56734 1.35063 0
M  V30 191 C 19.3802 -1.88686 -0.0655597 0
M  V30 192 O 18.7372 -1.5096 -1.02554 0
M  V30 193 C 18.7882 -2.88163 2.18276 0
M  V30 194 O 18.5092 -2.57583 3.54376 0
M  V30 195 C 20.0102 -3.82422 2.24206 0
M  V30 196 H 17.2302 -0.485778 0.462883 0
M  V30 197 H 19.7742 -0.965185 1.8029 0
M  V30 198 H 17.9292 -3.44818 1.76576 0
M  V30 199 H 18.3432 -3.41699 3.97922 0
M  V30 200 H 19.8172 -4.71667 2.86765 0
M  V30 201 H 20.2942 -4.21078 1.24861 0
M  V30 202 H 20.9002 -3.31697 2.6619 0
M  V30 203 N 19.2153 -1.21501 -1.00376 0
M  V30 204 C 20.4613 -1.03452 -1.74429 0
M  V30 205 C 20.7943 0.430764 -1.89362 0
M  V30 206 O 20.0693 1.31962 -1.42886 0
M  V30 207 C 20.3523 -1.73375 -3.15615 0
M  V30 208 C 20.2053 -3.27431 -3.08397 0
M  V30 209 C 21.5243 -1.47732 -4.14564 0
M  V30 210 H 18.6433 -0.377226 -0.633143 0
M  V30 211 H 21.2853 -1.49693 -1.17013 0
M  V30 212 H 19.4353 -1.34064 -3.64636 0
M  V30 213 H 21.1073 -3.76119 -2.67081 0
M  V30 214 H 19.3503 -3.5767 -2.45468 0
M  V30 215 H 20.0213 -3.71524 -4.08258 0
M  V30 216 H 22.4973 -1.8186 -3.74254 0
M  V30 217 H 21.3733 -1.99169 -5.11491 0
M  V30 218 H 21.6343 -0.407589 -4.40217 0
M  V30 219 N 20.6934 1.19889 -1.02296 0
M  V30 220 C 21.9184 1.9393 -0.735237 0
M  V30 221 C 22.3434 1.74639 0.698782 0
M  V30 222 O 21.7014 1.04481 1.48167 0
M  V30 223 C 21.7494 3.43916 -1.08417 0
M  V30 224 O 20.8534 4.11917 -0.199446 0
M  V30 225 H 20.1944 0.605645 -0.272196 0
M  V30 226 H 22.7244 1.52137 -1.36804 0
M  V30 227 H 22.7344 3.9456 -1.03856 0
M  V30 228 H 21.4094 3.5728 -2.12894 0
M  V30 229 H 19.9864 3.71666 -0.303136 0
M  V30 230 N 22.1715 0.800033 1.35784 0
M  V30 231 C 23.0815 0.207204 2.33683 0
M  V30 232 C 24.0975 -0.64631 1.61551 0
M  V30 233 O 25.2735 -0.559604 1.93469 0
M  V30 234 C 22.3385 -0.639659 3.40748 0
M  V30 235 C 21.3995 0.233585 4.28664 0
M  V30 236 C 20.6325 -0.572954 5.30616 0
M  V30 237 O 20.8555 -1.80816 5.40982 0
M  V30 238 O 19.7895 0.0327285 6.01891 0
M  V30 239 H 23.6155 1.01692 2.86169 0
M  V30 240 H 21.2005 0.561691 1.38439 0
M  V30 241 H 23.0825 -1.12223 4.06182 0
M  V30 242 H 21.7575 -1.42708 2.90544 0
M  V30 243 H 20.6645 0.763147 3.66233 0
M  V30 244 H 21.9975 0.984784 4.82248 0
M  V30 245 N 23.6496 -1.47581 0.552962 0
M  V30 246 C 24.8776 -2.06875 0.0320556 0
M  V30 247 C 25.2926 -1.40625 -1.25976 0
M  V30 248 O 24.6496 -0.501349 -1.75479 0
M  V30 249 C 24.7006 -3.61092 -0.17167 0
M  V30 250 O 24.4216 -4.24858 1.06899 0
M  V30 251 C 25.9226 -4.37242 -0.730344 0
M  V30 252 H 23.1426 -0.669561 0.043915 0
M  V30 253 H 25.6866 -1.89646 0.765163 0
M  V30 254 H 23.8416 -3.7785 -0.854894 0
M  V30 255 H 24.2556 -5.17334 0.864059 0
M  V30 256 H 25.7296 -5.45842 -0.822203 0
M  V30 257 H 26.2066 -4.03235 -1.74064 0
M  V30 258 H 26.8126 -4.25219 -0.0829543 0
M  V30 259 N 25.1277 -0.289203 -1.54924 0
M  V30 260 C 26.3557 0.326463 -2.04308 0
M  V30 261 C 26.7707 1.48413 -1.16701 0
M  V30 262 O 26.1277 1.81507 -0.190087 0
M  V30 263 C 26.1787 0.794014 -3.52672 0
M  V30 264 O 25.8997 -0.317564 -4.36948 0
M  V30 265 C 27.4007 1.47605 -4.18004 0
M  V30 266 H 24.6207 0.0726272 -0.667058 0
M  V30 267 H 27.1647 -0.425401 -2.00026 0
M  V30 268 H 25.3197 1.49593 -3.57352 0
M  V30 269 H 25.7337 0.0443186 -5.24481 0
M  V30 270 H 27.2077 1.75447 -5.23376 0
M  V30 271 H 27.6847 2.41224 -3.67025 0
M  V30 272 H 28.2907 0.81762 -4.17367 0
M  V30 273 N 26.6058 1.57591 -0.0167156 0
M  V30 274 C 27.8528 1.91283 0.664597 0
M  V30 275 C 28.1808 0.891949 1.72842 0
M  V30 276 O 27.4358 -0.100931 1.9544 0
M  V30 277 C 27.7348 3.3172 1.33029 0
M  V30 278 C 27.4008 4.4914 0.398047 0
M  V30 279 C 26.0628 4.80992 0.141421 0
M  V30 280 C 28.4148 5.20634 -0.242825 0
M  V30 281 C 25.7428 5.81703 -0.764092 0
M  V30 282 C 28.0948 6.22311 -1.13632 0
M  V30 283 C 26.7588 6.52611 -1.40196 0
M  V30 284 H 26.0288 0.699956 0.243193 0
M  V30 285 H 28.6758 1.9135 -0.0758267 0
M  V30 286 H 26.9808 3.27856 2.14517 0
M  V30 287 H 28.6778 3.55055 1.86379 0
M  V30 288 H 25.2678 4.24262 0.608238 0
M  V30 289 H 29.4518 4.96267 -0.0576019 0
M  V30 290 H 24.7078 6.03532 -0.977732 0
M  V30 291 H 28.8818 6.76834 -1.63917 0
M  V30 292 H 26.5088 7.30467 -2.10529 0
M  V30 293 N 28.0839 -0.256276 1.55502 0
M  V30 294 C 29.3319 -0.983672 1.76545 0
M  V30 295 C 29.6529 -1.86206 0.578982 0
M  V30 296 O 28.9229 -1.91656 -0.405577 0
M  V30 297 H 27.5029 -0.366191 0.651086 0
M  V30 298 H 30.1649 -0.276479 1.92929 0
M  V30 299 H 29.2609 -1.61087 2.67315 0
M  V30 300 N 29.562 -1.4872 -0.521534 0
M  V30 301 C 30.978 -1.35028 -0.850855 0
M  V30 302 C 31.178 -0.367712 -1.98116 0
M  V30 303 O 30.234 0.208037 -2.51642 0
M  V30 304 C 31.547 -2.75263 -1.21041 0
M  V30 305 C 33.095 -2.83813 -1.31981 0
M  V30 306 C 33.57 -4.24769 -1.71276 0
M  V30 307 N 35.061 -4.27482 -1.78363 0
M  V30 308 C 35.796 -5.33494 -2.1017 0
M  V30 309 N 35.292 -6.49775 -2.40343 0
M  V30 310 N 37.085 -5.20894 -2.11248 0
M  V30 311 H 29.236 -2.11214 0.22413 0
M  V30 312 H 31.499 -0.947252 0.0376439 0
M  V30 313 H 31.205 -3.48765 -0.453415 0
M  V30 314 H 31.079 -3.09327 -2.15863 0
M  V30 315 H 33.466 -2.10561 -2.06756 0
M  V30 316 H 33.547 -2.53358 -0.352596 0
M  V30 317 H 33.191 -4.9854 -0.970588 0
M  V30 318 H 33.121 -4.52673 -2.69062 0
M  V30 319 H 35.612 -3.43611 -1.57288 0
M  V30 320 H 35.925 -7.26402 -2.63743 0
M  V30 321 H 34.27 -6.53035 -2.37844 0
M  V30 322 H 37.461 -4.29065 -1.87139 0
M  V30 323 H 37.634 -6.03612 -2.35704 0
M  V30 324 N 31.0401 0.771051 -1.3745 0
M  V30 325 C 32.3171 1.519 -1.23231 0
M  V30 326 C 32.6971 2.10383 0.173809 0
M  V30 327 O 32.0451 1.95583 1.18151 0
M  V30 328 C 32.2551 2.59933 -2.32886 0
M  V30 329 C 33.6031 3.27316 -2.70461 0
M  V30 330 O 34.6271 2.70228 -2.32068 0
M  V30 331 O 33.4861 4.30531 -3.36608 0
M  V30 332 H 30.5801 0.672803 -0.480901 0
M  V30 333 H 33.1261 0.807957 -1.49232 0
M  V30 334 H 31.8981 2.14842 -3.27045 0
M  V30 335 H 31.5211 3.38637 -2.08353 0
M  V30 336 N 32.5182 1.22032 0.997298 0
M  V30 337 C 33.7652 1.04222 1.73621 0
M  V30 338 C 34.0932 -0.423264 1.89839 0
M  V30 339 O 33.3482 -1.3302 1.43542 0
M  V30 340 C 33.6472 1.69345 3.14733 0
M  V30 341 C 33.3132 3.19226 3.18442 0
M  V30 342 C 31.9752 3.60124 3.19161 0
M  V30 343 C 34.3272 4.15181 3.15078 0
M  V30 344 C 31.6552 4.95467 3.14212 0
M  V30 345 C 34.0072 5.50495 3.1167 0
M  V30 346 C 32.6712 5.90779 3.10703 0
M  V30 347 H 31.9412 0.381374 0.635323 0
M  V30 348 H 34.5882 1.51732 1.16831 0
M  V30 349 H 32.8932 1.14147 3.74803 0
M  V30 350 H 34.5902 1.53059 3.7064 0
M  V30 351 H 31.1802 2.86659 3.18629 0
M  V30 352 H 35.3642 3.84605 3.13676 0
M  V30 353 H 30.6202 5.25916 3.11805 0
M  V30 354 H 34.7942 6.24576 3.08022 0
M  V30 355 H 32.4212 6.9562 3.06622 0
M  V30 356 N 33.9963 -1.19345 1.0293 0
M  V30 357 C 34.9443 -2.24621 0.604001 0
M  V30 358 C 35.9383 -1.65452 -0.363587 0
M  V30 359 O 37.1443 -1.78497 -0.23212 0
M  V30 360 H 33.5193 -0.730858 0.177061 0
M  V30 361 H 35.4903 -2.5781 1.50255 0
M  V30 362 C 34.2393 -3.47688 -0.0289127 0
M  V30 363 H 33.5623 -3.93505 0.706651 0
M  V30 364 H 35.0023 -4.23011 -0.289432 0
M  V30 365 C 33.4613 -3.11817 -1.2756 0
M  V30 366 O 33.9913 -3.2451 -2.36762 0
M  V30 367 N 32.1973 -2.66246 -1.16453 0
M  V30 368 H 31.7443 -2.56118 -0.275914 0
M  V30 369 H 31.7023 -2.42617 -1.99961 0
M  V30 370 N 35.4744 -0.807222 -1.35358 0
M  V30 371 C 36.3844 -0.219594 -2.3357 0
M  V30 372 C 37.4004 0.637734 -1.61892 0
M  V30 373 O 38.5764 0.549336 -1.93763 0
M  V30 374 C 35.6414 0.62158 -3.41083 0
M  V30 375 C 34.7024 -0.256315 -4.28534 0
M  V30 376 C 33.9354 0.544807 -5.30912 0
M  V30 377 O 34.1584 1.77944 -5.41934 0
M  V30 378 O 33.0924 -0.0646478 -6.01865 0
M  V30 379 H 36.9184 -1.03208 -2.85625 0
M  V30 380 H 34.5034 -0.569025 -1.38139 0
M  V30 381 H 36.3854 1.10067 -4.06772 0
M  V30 382 H 35.0604 1.41165 -2.91297 0
M  V30 383 H 33.9674 -0.782559 -3.65823 0
M  V30 384 H 35.3004 -1.01034 -4.81719 0
M  V30 385 N 36.9525 1.47285 -0.560781 0
M  V30 386 C 37.9155 2.28535 0.174488 0
M  V30 387 C 38.9155 1.37153 0.839388 0
M  V30 388 O 40.1055 1.59748 0.694702 0
M  V30 389 C 37.2375 3.16934 1.25561 0
M  V30 390 H 38.4305 2.95012 -0.539262 0
M  V30 391 H 35.9835 1.53034 -0.317865 0
M  V30 392 H 36.7185 2.55157 2.00164 0
M  V30 393 H 36.5035 3.8419 0.783604 0
M  V30 394 H 37.9935 3.78143 1.77193 0
M  V30 395 N 38.4306 0.297415 1.54768 0
M  V30 396 C 39.3606 -0.573494 2.26348 0
M  V30 397 C 40.3416 -1.14085 1.26169 0
M  V30 398 O 41.5266 -1.17086 1.54934 0
M  V30 399 C 38.6566 -1.74716 3.00153 0
M  V30 400 C 37.6106 -1.31032 4.07449 0
M  V30 401 C 36.9366 -2.56887 4.68949 0
M  V30 402 C 38.2366 -0.444183 5.20408 0
M  V30 403 H 39.9306 0.0235131 2.99391 0
M  V30 404 H 37.4766 0.0127488 1.43994 0
M  V30 405 H 39.4296 -2.3625 3.48947 0
M  V30 406 H 38.1536 -2.37035 2.24682 0
M  V30 407 H 36.8126 -0.718066 3.59499 0
M  V30 408 H 36.4606 -3.17512 3.90122 0
M  V30 409 H 36.1606 -2.2836 5.41411 0
M  V30 410 H 37.6846 -3.19229 5.20505 0
M  V30 411 H 39.0986 -0.9651 5.65118 0
M  V30 412 H 37.4956 -0.252846 5.99567 0
M  V30 413 H 38.5656 0.531609 4.81977 0
M  V30 414 N 39.9087 -1.5758 0.0250728 0
M  V30 415 C 41.1547 -1.91917 -0.655413 0
M  V30 416 C 41.4877 -0.901433 -1.72011 0
M  V30 417 O 40.7627 0.0764069 -1.9435 0
M  V30 418 C 41.0457 -3.36751 -1.27558 0
M  V30 419 C 40.8987 -4.49258 -0.220719 0
M  V30 420 C 42.2177 -3.81469 -2.19475 0
M  V30 421 H 39.3367 -0.697925 -0.23679 0
M  V30 422 H 41.9787 -1.89825 0.0815036 0
M  V30 423 H 40.1287 -3.38664 -1.90365 0
M  V30 424 H 41.8007 -4.59478 0.409601 0
M  V30 425 H 40.0437 -4.31415 0.454264 0
M  V30 426 H 40.7147 -5.47618 -0.694175 0
M  V30 427 H 43.1907 -3.81266 -1.66659 0
M  V30 428 H 42.0667 -4.83512 -2.59822 0
M  V30 429 H 42.3277 -3.16744 -3.08424 0
M  V30 430 N 41.3868 0.248026 -1.55636 0
M  V30 431 C 42.3368 1.30994 -1.86614 0
M  V30 432 C 43.3208 1.43543 -0.726918 0
M  V30 433 O 44.5128 1.46804 -0.988818 0
M  V30 434 C 41.6418 2.6656 -2.16335 0
M  V30 435 C 40.7278 2.58019 -3.36581 0
M  V30 436 N 41.1188 2.1911 -4.55878 0
M  V30 437 C 39.4168 2.89035 -3.39669 0
M  V30 438 C 40.1178 2.21174 -5.38012 0
M  V30 439 N 39.0938 2.60632 -4.77045 0
M  V30 440 H 42.8958 0.999583 -2.76379 0
M  V30 441 H 40.4098 0.456652 -1.55848 0
M  V30 442 H 42.4068 3.43194 -2.36692 0
M  V30 443 H 41.0668 2.98463 -1.27867 0
M  V30 444 H 42.0778 1.90672 -4.81523 0
M  V30 445 H 38.7548 3.25485 -2.61469 0
M  V30 446 H 40.1448 1.9344 -6.43452 0
M  V30 447 N 42.8649 1.48995 0.513639 0
M  V30 448 C 43.7969 1.60836 1.63293 0
M  V30 449 C 44.8099 0.491701 1.55197 0
M  V30 450 O 45.9989 0.763238 1.6136 0
M  V30 451 C 43.0989 1.53731 3.02027 0
M  V30 452 C 42.2719 2.80715 3.35437 0
M  V30 453 C 41.3309 2.66837 4.53525 0
M  V30 454 O 40.3569 3.40753 4.55934 0
M  V30 455 N 41.5589 1.77539 5.52684 0
M  V30 456 H 44.3239 2.57366 1.53566 0
M  V30 457 H 41.8849 1.45925 0.701259 0
M  V30 458 H 43.8769 1.42118 3.78926 0
M  V30 459 H 42.4469 0.651092 3.05744 0
M  V30 460 H 41.6669 3.06772 2.47557 0
M  V30 461 H 42.9549 3.64927 3.54551 0
M  V30 462 H 42.3529 1.16719 5.53528 0
M  V30 463 H 40.9099 1.71856 6.28736 0
M  V30 464 N 44.343 -0.763751 1.37857 0
M  V30 465 C 45.589 -1.52483 1.33704 0
M  V30 466 C 45.922 -1.94051 -0.0759612 0
M  V30 467 O 45.197 -1.64675 -1.03501 0
M  V30 468 C 45.48 -2.78441 2.28348 0
M  V30 469 C 45.333 -2.43075 3.78463 0
M  V30 470 C 46.652 -3.80415 2.21298 0
M  V30 471 H 43.771 -0.553169 0.487005 0
M  V30 472 H 46.413 -0.875562 1.68624 0
M  V30 473 H 44.563 -3.33842 1.987 0
M  V30 474 H 46.235 -1.93527 4.18742 0
M  V30 475 H 44.478 -1.75666 3.96641 0
M  V30 476 H 45.149 -3.33149 4.40132 0
M  V30 477 H 47.625 -3.34527 2.47449 0
M  V30 478 H 46.501 -4.66257 2.89647 0
M  V30 479 H 46.762 -4.25262 1.20849 0
M  V30 480 N 45.8211 -1.22559 -0.990812 0
M  V30 481 C 47.0671 -1.05297 -1.73322 0
M  V30 482 C 47.4001 0.410655 -1.89808 0
M  V30 483 O 46.6751 1.30439 -1.44277 0
M  V30 484 C 46.9581 -1.76713 -3.13759 0
M  V30 485 C 46.8111 -3.30684 -3.04907 0
M  V30 486 C 48.1301 -1.52121 -4.12974 0
M  V30 487 H 45.2491 -0.38392 -0.629106 0
M  V30 488 H 47.8911 -1.50926 -1.15418 0
M  V30 489 H 46.0411 -1.37924 -3.63193 0
M  V30 490 H 47.7131 -3.7893 -2.63077 0
M  V30 491 H 45.9561 -3.60253 -2.41661 0
M  V30 492 H 46.6271 -3.75833 -4.04294 0
M  V30 493 H 49.1031 -1.85819 -3.72304 0
M  V30 494 H 47.9791 -2.04582 -5.0935 0
M  V30 495 H 48.2401 -0.454257 -4.3976 0
M  V30 496 N 47.2992 1.18797 -1.03562 0
M  V30 497 C 48.5452 1.8893 -0.737113 0
M  V30 498 C 48.8782 1.79837 0.732956 0
M  V30 499 O 48.1532 1.19525 1.5344 0
M  V30 500 C 48.4362 3.39607 -1.19745 0
M  V30 501 C 48.2892 3.57537 -2.72924 0
M  V30 502 C 49.6082 4.33069 -0.783526 0
M  V30 503 H 46.7272 0.686057 -0.269249 0
M  V30 504 H 49.3692 1.39797 -1.28673 0
M  V30 505 H 47.5192 3.81583 -0.729855 0
M  V30 506 H 49.1912 3.24688 -3.27682 0
M  V30 507 H 47.4342 3.00363 -3.12993 0
M  V30 508 H 48.1052 4.63238 -3.00191 0
M  V30 509 H 50.5812 3.98846 -1.18581 0
M  V30 510 H 49.4572 5.3707 -1.13343 0
M  V30 511 H 49.7182 4.40986 0.313681 0
M  V30 512 N 48.7773 0.814389 1.34928 0
M  V30 513 C 49.7403 0.235759 2.27984 0
M  V30 514 C 50.7403 -0.581412 1.49921 0
M  V30 515 O 51.9303 -0.398758 1.69575 0
M  V30 516 C 49.0623 -0.670433 3.34242 0
M  V30 517 H 50.2553 1.05659 2.80671 0
M  V30 518 H 47.8083 0.585614 1.44915 0
M  V30 519 H 48.5433 -1.51466 2.86755 0
M  V30 520 H 48.3283 -0.0860822 3.92005 0
M  V30 521 H 49.8183 -1.06935 4.03676 0
M  V30 522 N 50.2554 -1.46986 0.568584 0
M  V30 523 C 51.4854 -2.0653 0.0539173 0
M  V30 524 C 51.8934 -1.42004 -1.25026 0
M  V30 525 O 51.2364 -0.514541 -1.76347 0
M  V30 526 C 51.2984 -3.58938 -0.200854 0
M  V30 527 C 50.9624 -4.45572 1.01559 0
M  V30 528 C 51.9594 -4.82986 1.92407 0
M  V30 529 C 49.6444 -4.8692 1.23346 0
M  V30 530 C 51.6384 -5.60559 3.03402 0
M  V30 531 C 49.3254 -5.64255 2.34649 0
M  V30 532 C 50.3234 -6.00986 3.24507 0
M  V30 533 O 50.0114 -6.76761 4.33878 0
M  V30 534 H 49.7434 -0.674292 0.0480234 0
M  V30 535 H 52.2974 -1.89812 0.784896 0
M  V30 536 H 50.5274 -3.73911 -0.986279 0
M  V30 537 H 52.2164 -4.0046 -0.662294 0
M  V30 538 H 52.9824 -4.51633 1.76785 0
M  V30 539 H 48.8614 -4.57789 0.543178 0
M  V30 540 H 52.4054 -5.89147 3.73565 0
M  V30 541 H 48.3024 -5.95021 2.5024 0
M  V30 542 H 49.0704 -6.95168 4.32068 0
M  V30 543 N 51.7335 -0.305618 -1.54608 0
M  V30 544 C 52.6965 0.555591 -2.22364 0
M  V30 545 C 53.6965 1.05768 -1.21119 0
M  V30 546 O 54.8865 0.952972 -1.45822 0
M  V30 547 C 52.0185 1.76974 -2.91364 0
M  V30 548 H 53.2115 -0.0364572 -2.99878 0
M  V30 549 H 50.7645 -0.0565007 -1.56198 0
M  V30 550 H 51.4995 2.40151 -2.17941 0
M  V30 551 H 51.2845 1.41732 -3.65588 0
M  V30 552 H 52.7745 2.38148 -3.43038 0
M  V30 553 N 53.2116 1.57565 -0.0334293 0
M  V30 554 C 54.1746 2.09393 0.932048 0
M  V30 555 C 55.1746 1.00986 1.25134 0
M  V30 556 O 56.3646 1.27129 1.19096 0
M  V30 557 C 53.4966 2.56338 2.2473 0
M  V30 558 H 54.6896 2.95984 0.483085 0
M  V30 559 H 52.2426 1.54819 0.21468 0
M  V30 560 H 52.9776 1.7309 2.74245 0
M  V30 561 H 52.7626 3.35542 2.02865 0
M  V30 562 H 54.2526 2.96646 2.93923 0
M  V30 563 N 54.6897 -0.239769 1.55765 0
M  V30 564 C 55.9377 -0.964892 1.77579 0
M  V30 565 C 56.2587 -1.85582 0.598699 0
M  V30 566 O 55.5287 -1.92075 -0.385226 0
M  V30 567 H 54.1087 -0.359265 0.654933 0
M  V30 568 H 56.7707 -0.256001 1.93211 0
M  V30 569 H 55.8667 -1.58243 2.69009 0
M  V30 570 N 56.1678 -1.49265 -0.50573 0
M  V30 571 C 57.1308 -1.65075 -1.59006 0
M  V30 572 C 58.1308 -0.522768 -1.52065 0
M  V30 573 O 59.3208 -0.789117 -1.55302 0
M  V30 574 C 56.4528 -1.64369 -2.98656 0
M  V30 575 H 57.6458 -2.61784 -1.46319 0
M  V30 576 H 55.1988 -1.38226 -0.729616 0
M  V30 577 H 55.9338 -0.692272 -3.16825 0
M  V30 578 H 55.7188 -2.46282 -3.05103 0
M  V30 579 H 57.2088 -1.78674 -3.77446 0
M  V30 580 N 57.6459 0.756429 -1.3826 0
M  V30 581 C 59.0619 1.0591 -1.19395 0
M  V30 582 C 59.2619 2.01459 -0.0406567 0
M  V30 583 O 58.3179 2.44909 0.614467 0
M  V30 584 C 59.6309 1.64191 -2.51916 0
M  V30 585 C 61.1789 1.76376 -2.58574 0
M  V30 586 C 61.6539 2.38069 -3.91264 0
M  V30 587 N 63.1449 2.45503 -3.92788 0
M  V30 588 C 63.8799 2.94126 -4.92217 0
M  V30 589 N 63.3759 3.42805 -6.02043 0
M  V30 590 N 65.1689 2.9314 -4.7961 0
M  V30 591 H 57.3199 0.122313 -2.12048 0
M  V30 592 H 59.5829 0.116892 -0.940766 0
M  V30 593 H 59.2889 1.01451 -3.3675 0
M  V30 594 H 59.1629 2.6329 -2.70108 0
M  V30 595 H 61.5499 2.38244 -1.74137 0
M  V30 596 H 61.6309 0.759894 -2.44252 0
M  V30 597 H 61.2749 1.76835 -4.76121 0
M  V30 598 H 61.2049 3.39091 -4.02895 0
M  V30 599 H 63.6959 2.1107 -3.13461 0
M  V30 600 H 64.0089 3.78354 -6.73846 0
M  V30 601 H 62.3539 3.4087 -6.05667 0
M  V30 602 H 65.5449 2.54419 -3.92923 0
M  V30 603 H 65.7179 3.30721 -5.5725 0
M  V30 604 N 59.124 1.23083 0.984299 0
M  V30 605 C 60.056 0.96636 2.07832 0
M  V30 606 C 61.069 -0.0582135 1.62696 0
M  V30 607 O 62.258 0.176843 1.77622 0
M  V30 608 C 59.358 0.433397 3.36117 0
M  V30 609 C 58.531 1.51722 4.10243 0
M  V30 610 C 57.59 0.989821 5.16807 0
M  V30 611 O 56.616 1.67794 5.43906 0
M  V30 612 N 57.818 -0.184367 5.80207 0
M  V30 613 H 60.583 1.90824 2.31098 0
M  V30 614 H 58.144 1.13888 1.1507 0
M  V30 615 H 60.136 0.065699 4.04647 0
M  V30 616 H 58.706 -0.413806 3.09849 0
M  V30 617 H 57.926 2.05786 3.36223 0
M  V30 618 H 59.214 2.24619 4.56534 0
M  V30 619 H 58.612 -0.760062 5.60571 0
M  V30 620 H 57.169 -0.493366 6.4993 0
M  V30 621 N 60.6021 -1.18246 1.0419 0
M  V30 622 C 61.8501 -1.87886 0.744543 0
M  V30 623 C 62.1711 -1.8082 -0.730006 0
M  V30 624 O 61.4411 -1.22736 -1.52685 0
M  V30 625 H 60.0211 -0.695556 0.272417 0
M  V30 626 H 62.6831 -1.43494 1.31892 0
M  V30 627 H 61.7791 -2.9389 1.05049 0
M  V30 628 N 62.0802 -0.821533 -1.34494 0
M  V30 629 C 63.3082 -0.421884 -2.02553 0
M  V30 630 C 63.7232 0.971745 -1.61872 0
M  V30 631 O 63.0802 1.62864 -0.823496 0
M  V30 632 C 63.1312 -0.51285 -3.57844 0
M  V30 633 O 62.8522 -1.85155 -3.97051 0
M  V30 634 C 64.3532 -0.107921 -4.43169 0
M  V30 635 H 61.5732 -0.169482 -0.649243 0
M  V30 636 H 64.1172 -1.1093 -1.71798 0
M  V30 637 H 62.2722 0.126474 -3.87193 0
M  V30 638 H 62.6862 -1.82482 -4.91732 0
M  V30 639 H 64.1602 -0.222657 -5.51551 0
M  V30 640 H 64.6372 0.948401 -4.28838 0
M  V30 641 H 65.2432 -0.720989 -4.19144 0
M  V30 642 N 63.5583 1.46682 -0.576371 0
M  V30 643 C 64.9743 1.57822 -0.237562 0
M  V30 644 C 65.1743 1.57237 1.26011 0
M  V30 645 O 64.2303 1.48596 2.04146 0
M  V30 646 C 65.5433 2.87499 -0.881168 0
M  V30 647 C 67.0913 3.01119 -0.85417 0
M  V30 648 C 67.5663 4.33524 -1.4772 0
M  V30 649 N 69.0573 4.40207 -1.44125 0
M  V30 650 C 69.7923 5.4126 -1.89276 0
M  V30 651 N 69.2883 6.49021 -2.42371 0
M  V30 652 N 71.0813 5.32422 -1.80231 0
M  V30 653 H 63.2323 1.45306 -1.54919 0
M  V30 654 H 65.4953 0.692733 -0.647167 0
M  V30 655 H 65.2013 2.9372 -1.93447 0
M  V30 656 H 65.0753 3.75224 -0.385592 0
M  V30 657 H 67.4623 2.94485 0.190491 0
M  V30 658 H 67.5433 2.14887 -1.3877 0
M  V30 659 H 67.1873 4.40916 -2.52103 0
M  V30 660 H 67.1173 5.1852 -0.918947 0
M  V30 661 H 69.6083 3.62931 -1.05307 0
M  V30 662 H 69.9213 7.2233 -2.74698 0
M  V30 663 H 68.2663 6.49858 -2.46393 0
M  V30 664 H 71.4573 4.47137 -1.38514 0
M  V30 665 H 71.6303 6.11034 -2.15735 0
M  V30 666 N 65.0364 0.313813 1.54444 0
M  V30 667 C 65.9994 -0.54379 2.22656 0
M  V30 668 C 66.9994 -1.05124 1.21678 0
M  V30 669 O 68.1894 -0.945225 1.46325 0
M  V30 670 C 65.3214 -1.75427 2.92298 0
M  V30 671 H 66.5144 0.0523599 2.99854 0
M  V30 672 H 64.0674 0.0647834 1.56166 0
M  V30 673 H 64.8024 -2.38991 2.19211 0
M  V30 674 H 64.5874 -1.39791 3.66334 0
M  V30 675 H 66.0774 -2.36325 3.44297 0
M  V30 676 N 66.5145 -1.57545 0.0417849 0
M  V30 677 C 67.4465 -2.07904 -0.964799 0
M  V30 678 C 68.4595 -1.00497 -1.28079 0
M  V30 679 O 69.6485 -1.28087 -1.24322 0
M  V30 680 C 66.7485 -2.49928 -2.28887 0
M  V30 681 C 65.9215 -3.80562 -2.15619 0
M  V30 682 C 64.9805 -4.08999 -3.31069 0
M  V30 683 O 64.0065 -4.79061 -3.0739 0
M  V30 684 N 65.2085 -3.6017 -4.55256 0
M  V30 685 H 67.9735 -2.94886 -0.535029 0
M  V30 686 H 65.5345 -1.61252 -0.144681 0
M  V30 687 H 67.5265 -2.66034 -3.04972 0
M  V30 688 H 66.0965 -1.68245 -2.63463 0
M  V30 689 H 65.3165 -3.74129 -1.24183 0
M  V30 690 H 66.6045 -4.66126 -2.03971 0
M  V30 691 H 66.0025 -3.03512 -4.77386 0
M  V30 692 H 64.5595 -3.81532 -5.28466 0
M  V30 693 N 67.9926 0.231505 -1.5589 0
M  V30 694 C 68.9396 1.28682 -1.91598 0
M  V30 695 C 69.9096 1.47071 -0.771974 0
M  V30 696 O 71.0946 1.60802 -1.027 0
M  V30 697 C 68.2346 2.6342 -2.22944 0
M  V30 698 C 67.3476 2.52912 -3.50228 0
M  V30 699 C 66.4826 3.80106 -3.7107 0
M  V30 700 C 65.5216 3.64279 -4.91902 0
M  V30 701 N 64.6586 4.834 -5.09184 0
M  V30 702 H 69.4986 0.975305 -2.81588 0
M  V30 703 H 67.0356 0.470299 -1.39379 0
M  V30 704 H 68.9936 3.41869 -2.39126 0
M  V30 705 H 67.6236 2.92687 -1.36139 0
M  V30 706 H 66.6756 1.6595 -3.42294 0
M  V30 707 H 67.9876 2.37133 -4.38827 0
M  V30 708 H 67.1416 4.66999 -3.87295 0
M  V30 709 H 65.8806 3.98799 -2.80733 0
M  V30 710 H 64.8856 2.7577 -4.75637 0
M  V30 711 H 66.1106 3.47067 -5.83714 0
M  V30 712 H 64.0566 5.02425 -4.21788 0
M  V30 713 H 63.9736 4.70311 -5.91898 0
M  V30 714 H 65.2416 5.71747 -5.29835 0
M  V30 715 N 69.4707 1.49531 0.497807 0
M  V30 716 C 70.6987 1.62893 1.27567 0
M  V30 717 C 71.1137 0.301585 1.86376 0
M  V30 718 O 70.4707 -0.713335 1.67982 0
M  V30 719 C 70.5217 2.70013 2.40364 0
M  V30 720 O 70.2427 3.976 1.83972 0
M  V30 721 C 71.7437 2.94109 3.31685 0
M  V30 722 H 68.9637 0.548298 0.386794 0
M  V30 723 H 71.5077 1.95584 0.597245 0
M  V30 724 H 69.6627 2.40092 3.04031 0
M  V30 725 H 70.0767 4.56631 2.58047 0
M  V30 726 H 71.5507 3.72788 4.07104 0
M  V30 727 H 72.0277 2.04147 3.88871 0
M  V30 728 H 72.6337 3.2546 2.73781 0
M  V30 729 N 70.9488 -0.749086 1.3866 0
M  V30 730 C 72.3648 -1.05276 1.19955 0
M  V30 731 C 72.5648 -2.01435 0.05134 0
M  V30 732 O 71.6208 -2.45232 -0.60147 0
M  V30 733 C 72.9338 -1.62853 2.52783 0
M  V30 734 C 74.4818 -1.75002 2.59506 0
M  V30 735 C 74.9568 -2.35991 3.92521 0
M  V30 736 N 76.4478 -2.43416 3.94085 0
M  V30 737 C 77.1828 -2.91511 4.9377 0
M  V30 738 N 76.6788 -3.39608 6.03853 0
M  V30 739 N 78.4718 -2.90592 4.81157 0
M  V30 740 H 70.6228 -0.111066 2.12109 0
M  V30 741 H 72.8858 -0.111901 0.941373 0
M  V30 742 H 72.5918 -0.99664 3.37283 0
M  V30 743 H 72.4658 -2.61854 2.715 0
M  V30 744 H 74.8528 -2.37317 1.75398 0
M  V30 745 H 74.9338 -0.74693 2.44652 0
M  V30 746 H 74.5778 -1.74308 4.77053 0
M  V30 747 H 74.5078 -3.3695 4.04688 0
M  V30 748 H 76.9988 -2.09405 3.14576 0
M  V30 749 H 77.3118 -3.74775 6.75843 0
M  V30 750 H 75.6568 -3.37653 6.07466 0
M  V30 751 H 78.8478 -2.52332 3.94267 0
M  V30 752 H 79.0208 -3.27762 5.58996 0
M  V30 753 N 72.4269 -1.23603 -0.977757 0
M  V30 754 C 73.3899 -1.02069 -2.05218 0
M  V30 755 C 74.3899 0.0184305 -1.60789 0
M  V30 756 O 75.5799 -0.221569 -1.72785 0
M  V30 757 C 72.7119 -0.544926 -3.36517 0
M  V30 758 H 73.9049 -1.9742 -2.25755 0
M  V30 759 H 71.4579 -1.05684 -1.15155 0
M  V30 760 H 72.1929 0.412241 -3.21669 0
M  V30 761 H 71.9779 -1.2948 -3.70105 0
M  V30 762 H 73.4679 -0.414985 -4.15533 0
M  V30 763 N 73.905 1.17692 -1.04816 0
M  V30 764 C 74.815 2.25229 -0.65643 0
M  V30 765 C 75.831 1.71018 0.320761 0
M  V30 766 O 77.007 2.00649 0.173805 0
M  V30 767 C 74.072 3.46684 -0.0332629 0
M  V30 768 C 73.133 4.15997 -1.06042 0
M  V30 769 C 72.366 5.31654 -0.466893 0
M  V30 770 O 72.589 5.65777 0.724758 0
M  V30 771 O 71.523 5.89831 -1.1993 0
M  V30 772 H 75.349 2.61016 -1.55255 0
M  V30 773 H 72.934 1.24919 -0.81949 0
M  V30 774 H 74.816 4.20234 0.313256 0
M  V30 775 H 73.491 3.12703 0.836566 0
M  V30 776 H 72.398 3.44482 -1.45886 0
M  V30 777 H 73.731 4.53996 -1.90127 0
M  V30 778 N 75.3831 0.828654 1.34056 0
M  V30 779 C 76.6291 0.42008 1.98402 0
M  V30 780 C 76.9621 -1.01564 1.65525 0
M  V30 781 O 76.2371 -1.70834 0.929831 0
M  V30 782 C 76.5201 0.62927 3.54559 0
M  V30 783 C 76.3731 2.11152 3.97159 0
M  V30 784 C 77.6921 0.0688756 4.40046 0
M  V30 785 H 74.8111 0.154104 0.720709 0
M  V30 786 H 77.4531 1.04228 1.5886 0
M  V30 787 H 75.6031 0.0996418 3.88372 0
M  V30 788 H 77.2751 2.70522 3.73651 0
M  V30 789 H 75.5181 2.59985 3.47261 0
M  V30 790 H 76.1891 2.20868 5.05887 0
M  V30 791 H 78.6651 0.521458 4.1282 0
M  V30 792 H 77.5411 0.245006 5.48353 0
M  V30 793 H 77.8021 -1.0266 4.30015 0
M  V30 794 N 76.8612 -1.46375 0.584142 0
M  V30 795 C 78.0892 -2.06761 0.0759296 0
M  V30 796 C 78.5042 -1.43266 -1.22965 0
M  V30 797 O 77.8612 -0.538458 -1.74376 0
M  V30 798 C 77.9122 -3.61375 -0.0950384 0
M  V30 799 O 77.6332 -4.22495 1.15887 0
M  V30 800 C 79.1342 -4.38693 -0.637434 0
M  V30 801 H 76.3542 -0.668479 0.0581075 0
M  V30 802 H 78.8982 -1.8798 0.805218 0
M  V30 803 H 77.0532 -3.79578 -0.774554 0
M  V30 804 H 77.4672 -5.15385 0.973598 0
M  V30 805 H 78.9412 -5.47464 -0.706237 0
M  V30 806 H 79.4182 -4.06836 -1.65472 0
M  V30 807 H 80.0242 -4.25299 0.00725967 0
M  V30 808 N 78.3393 -0.321999 -1.54275 0
M  V30 809 C 79.5873 0.280489 -2.00144 0
M  V30 810 C 79.9083 1.52777 -1.21178 0
M  V30 811 O 79.1783 1.9338 -0.313187 0
M  V30 812 H 77.7583 0.106632 -0.73935 0
M  V30 813 H 80.4203 -0.438184 -1.8991 0
M  V30 814 H 79.5163 0.537972 -3.07428 0
M  V30 815 N 79.8174 1.5752 -0.0501392 0
M  V30 816 C 81.0424 1.97376 0.636997 0
M  V30 817 C 81.4674 0.927466 1.63645 0
M  V30 818 O 80.8254 -0.10941 1.8097 0
M  V30 819 C 80.8734 3.36304 1.30123 0
M  V30 820 O 79.9774 3.34156 2.41689 0
M  V30 821 H 79.3184 0.642998 0.165679 0
M  V30 822 H 81.8484 2.04258 -0.118233 0
M  V30 823 H 81.8584 3.73008 1.65315 0
M  V30 824 H 80.5334 4.11993 0.568746 0
M  V30 825 H 79.1104 3.09196 2.08451 0
M  V30 826 N 81.2955 -0.223234 1.56011 0
M  V30 827 C 82.5435 -0.946003 1.78592 0
M  V30 828 C 82.8645 -1.84936 0.618349 0
M  V30 829 O 82.1345 -1.92473 -0.364833 0
M  V30 830 H 80.7145 -0.352298 0.658707 0
M  V30 831 H 83.3765 -0.235494 1.93472 0
M  V30 832 H 82.4725 -1.55381 2.70672 0
M  V30 833 N 82.7736 -1.49793 -0.48987 0
M  V30 834 C 83.7206 -1.67281 -1.59014 0
M  V30 835 C 84.6906 -0.514177 -1.57941 0
M  V30 836 O 85.8756 -0.742533 -1.75759 0
M  V30 837 C 83.0156 -1.75569 -2.97102 0
M  V30 838 C 82.1286 -3.0281 -3.08107 0
M  V30 839 C 81.2636 -3.02008 -4.36995 0
M  V30 840 C 80.3026 -4.23782 -4.41673 0
M  V30 841 N 79.4396 -4.20826 -5.62005 0
M  V30 842 H 84.2796 -2.61224 -1.43409 0
M  V30 843 H 81.8166 -1.29508 -0.697565 0
M  V30 844 H 83.7746 -1.78354 -3.77155 0
M  V30 845 H 82.4046 -0.850827 -3.11385 0
M  V30 846 H 81.4566 -3.09584 -2.21047 0
M  V30 847 H 82.7686 -3.92801 -3.07423 0
M  V30 848 H 81.9226 -3.03418 -5.25378 0
M  V30 849 H 80.6616 -2.09815 -4.4026 0
M  V30 850 H 79.6666 -4.22604 -3.5169 0
M  V30 851 H 80.8916 -5.17181 -4.40115 0
M  V30 852 H 78.8376 -3.31476 -5.66091 0
M  V30 853 H 78.7546 -5.04564 -5.62984 0
M  V30 854 H 80.0226 -4.26355 -6.52565 0
M  V30 855 N 84.2517 0.741722 -1.39055 0
M  V30 856 C 85.1987 1.85566 -1.37237 0
M  V30 857 C 86.1687 1.64457 -0.233072 0
M  V30 858 O 87.3537 1.85957 -0.427147 0
M  V30 859 C 84.4937 3.23004 -1.215 0
M  V30 860 C 83.6067 3.55864 -2.44918 0
M  V30 861 C 82.7417 4.82669 -2.21821 0
M  V30 862 C 81.7807 5.08351 -3.40948 0
M  V30 863 N 80.9177 6.26356 -3.17211 0
M  V30 864 H 85.7577 1.86455 -2.32462 0
M  V30 865 H 83.2947 0.911176 -1.15482 0
M  V30 866 H 85.2527 4.02331 -1.10389 0
M  V30 867 H 83.8827 3.21411 -0.29908 0
M  V30 868 H 82.9347 2.7129 -2.66657 0
M  V30 869 H 84.2467 3.70765 -3.33668 0
M  V30 870 H 83.4007 5.69962 -2.07914 0
M  V30 871 H 82.1397 4.69929 -1.30454 0
M  V30 872 H 81.1447 4.19522 -3.55361 0
M  V30 873 H 82.3697 5.22981 -4.33207 0
M  V30 874 H 80.3157 6.14917 -2.28502 0
M  V30 875 H 80.2327 6.41813 -3.99515 0
M  V30 876 H 81.5007 7.16506 -3.06984 0
M  V30 877 N 85.7298 1.2412 0.971189 0
M  V30 878 C 87.1408 1.07236 1.52831 0
M  V30 879 C 87.4918 -0.357352 1.92918 0
M  V30 880 O 86.6168 -1.24528 1.76979 0
M  V30 881 C 87.2118 1.94043 2.77728 0
M  V30 882 C 85.7708 1.81394 3.29808 0
M  V30 883 C 84.9178 1.89189 2.02738 0
M  V30 884 H 87.8688 1.37648 0.789864 0
M  V30 885 H 87.8898 1.47066 3.5093 0
M  V30 886 H 87.4018 2.98093 2.4852 0
M  V30 887 H 85.5028 0.801634 3.63874 0
M  V30 888 H 85.6158 2.65294 3.98944 0
M  V30 889 H 83.9798 1.32877 2.17292 0
M  V30 890 H 84.7628 2.94812 1.759 0
M  V30 891 N 87.2079 -1.17134 1.05439 0
M  V30 892 C 88.4539 -1.87979 0.776872 0
M  V30 893 C 88.8089 -1.7965 -0.688751 0
M  V30 894 O 88.1019 -1.19535 -1.4974 0
M  V30 895 C 88.2959 -3.36833 1.19491 0
M  V30 896 C 88.1249 -3.59653 2.69963 0
M  V30 897 C 86.8949 -3.76234 3.37307 0
M  V30 898 C 89.0929 -3.59091 3.68182 0
M  V30 899 N 87.0749 -3.86922 4.76618 0
M  V30 900 C 88.4459 -3.75659 4.93235 0
M  V30 901 C 90.5009 -3.42255 3.61616 0
M  V30 902 C 89.2039 -3.77133 6.12506 0
M  V30 903 C 91.2299 -3.45018 4.8033 0
M  V30 904 C 90.5919 -3.62096 6.04207 0
M  V30 905 H 86.6909 -0.705876 0.336546 0
M  V30 906 H 89.2749 -1.40602 1.34682 0
M  V30 907 H 87.4459 -3.82873 0.652884 0
M  V30 908 H 89.1779 -3.95305 0.866966 0
M  V30 909 H 85.9329 -3.76193 2.87708 0
M  V30 910 H 86.3569 -3.96055 5.49062 0
M  V30 911 H 90.9989 -3.27986 2.66805 0
M  V30 912 H 88.7169 -3.90186 7.07659 0
M  V30 913 H 92.3029 -3.33246 4.76905 0
M  V30 914 H 91.1829 -3.64142 6.94529 0
M  V30 915 N 88.686 -0.835752 -1.33615 0
M  V30 916 C 90.102 -0.523139 -1.50783 0
M  V30 917 C 90.302 0.950171 -1.77691 0
M  V30 918 O 89.358 1.73411 -1.83534 0
M  V30 919 C 90.671 -1.39378 -2.66448 0
M  V30 920 C 92.219 -1.39223 -2.80332 0
M  V30 921 C 92.694 -2.24765 -3.99055 0
M  V30 922 N 94.185 -2.22458 -4.06284 0
M  V30 923 C 94.92 -2.85386 -4.97336 0
M  V30 924 N 94.416 -3.57354 -5.93523 0
M  V30 925 N 96.209 -2.74872 -4.90308 0
M  V30 926 H 88.36 -1.78952 -1.14411 0
M  V30 927 H 90.623 -0.763297 -0.562212 0
M  V30 928 H 90.329 -2.44061 -2.53234 0
M  V30 929 H 90.203 -1.0676 -3.61776 0
M  V30 930 H 92.59 -0.353136 -2.92979 0
M  V30 931 H 92.671 -1.75846 -1.85773 0
M  V30 932 H 92.315 -3.28732 -3.87167 0
M  V30 933 H 92.245 -1.85485 -4.92852 0
M  V30 934 H 94.736 -1.70119 -3.37443 0
M  V30 935 H 95.049 -4.02584 -6.59656 0
M  V30 936 H 93.394 -3.61461 -5.93608 0
M  V30 937 H 96.585 -2.18213 -4.14126 0
M  V30 938 H 96.758 -3.24199 -5.61069 0
M  V30 939 N 90.1641 1.46063 -0.591896 0
M  V30 940 C 91.0961 2.28539 0.174001 0
M  V30 941 C 92.1091 1.39047 0.846753 0
M  V30 942 O 93.2981 1.63564 0.714774 0
M  V30 943 C 90.3981 3.14347 1.26645 0
M  V30 944 C 89.5711 4.32021 0.683856 0
M  V30 945 C 88.6301 4.99157 1.66518 0
M  V30 946 O 87.6561 5.56458 1.19763 0
M  V30 947 N 88.8581 4.97005 2.99943 0
M  V30 948 H 91.6231 2.94911 -0.533633 0
M  V30 949 H 89.1841 1.56077 -0.430294 0
M  V30 950 H 91.1761 3.56125 1.92242 0
M  V30 951 H 89.7461 2.49988 1.87682 0
M  V30 952 H 88.9661 3.93915 -0.1498 0
M  V30 953 H 90.2541 5.08059 0.274567 0
M  V30 954 H 89.6521 4.51714 3.40545 0
M  V30 955 H 88.2091 5.42696 3.61004 0
M  V30 956 N 91.6422 0.330177 1.54103 0
M  V30 957 C 92.5892 -0.532762 2.24567 0
M  V30 958 C 93.5592 -1.10635 1.23892 0
M  V30 959 O 94.7442 -1.14546 1.5259 0
M  V30 960 C 91.8842 -1.6845 3.01195 0
M  V30 961 C 90.9972 -1.13951 4.167 0
M  V30 962 C 90.1322 -2.25746 4.80845 0
M  V30 963 C 89.1712 -1.6853 5.88442 0
M  V30 964 N 88.3082 -2.74014 6.46421 0
M  V30 965 H 93.1482 0.0746905 2.97906 0
M  V30 966 H 90.6852 0.048632 1.4702 0
M  V30 967 H 92.6432 -2.36234 3.43874 0
M  V30 968 H 91.2732 -2.26314 2.30178 0
M  V30 969 H 90.3252 -0.35301 3.78758 0
M  V30 970 H 91.6372 -0.680892 4.94131 0
M  V30 971 H 90.7912 -3.01422 5.26526 0
M  V30 972 H 89.5302 -2.74947 4.0281 0
M  V30 973 H 88.5352 -0.913543 5.42157 0
M  V30 974 H 89.7602 -1.20198 6.68378 0
M  V30 975 H 87.7062 -3.22494 5.71256 0
M  V30 976 H 87.6232 -2.32735 7.19285 0
M  V30 977 H 88.8912 -3.49499 6.96757 0
M  V30 978 N 93.1203 -1.57491 0.0584922 0
M  V30 979 C 94.3683 -1.92597 -0.612436 0
M  V30 980 C 94.6893 -0.938162 -1.70949 0
M  V30 981 O 93.9593 0.0158301 -1.95894 0
M  V30 982 H 92.5393 -0.710964 -0.229214 0
M  V30 983 H 95.2013 -1.94571 0.113218 0
M  V30 984 H 94.2973 -2.94038 -1.04633 0
M  V30 985 N 94.5984 0.214957 -1.56127 0
M  V30 986 C 95.8264 0.955092 -1.83536 0
M  V30 987 C 96.2414 1.77677 -0.638472 0
M  V30 988 O 95.5984 1.78219 0.392968 0
M  V30 989 C 95.6494 1.86734 -3.09536 0
M  V30 990 O 95.3704 1.07887 -4.24608 0
M  V30 991 C 96.8714 2.72082 -3.4998 0
M  V30 992 H 94.0914 0.279611 -0.609966 0
M  V30 993 H 96.6354 0.228197 -2.03223 0
M  V30 994 H 94.7904 2.5481 -2.91806 0
M  V30 995 H 95.2044 1.69872 -4.9623 0
M  V30 996 H 96.6784 3.31782 -4.41163 0
M  V30 997 H 97.1554 3.44806 -2.7204 0
M  V30 998 H 97.7614 2.09409 -3.70173 0
M  V30 999 N 96.0765 1.50051 0.48192 0
M  V30 1000 C 97.3245 1.60181 1.23234 0
M  V30 1001 C 97.6455 0.299176 1.92691 0
M  V30 1002 O 96.9155 -0.682708 1.83619 0
M  V30 1003 H 95.4955 0.590232 0.457859 0
M  V30 1004 H 98.1575 1.86775 0.556881 0
M  V30 1005 H 97.2535 2.40753 1.98607 0
M  V30 1006 N 97.5546 -0.734337 1.39446 0
M  V30 1007 C 98.9706 -1.03997 1.21065 0
M  V30 1008 C 99.1706 -2.01369 0.0727019 0
M  V30 1009 O 98.2266 -2.45856 -0.575426 0
M  V30 1010 C 99.5396 -1.60163 2.54496 0
M  V30 1011 C 101.088 -1.7224 2.61347 0
M  V30 1012 C 101.563 -2.31814 3.95002 0
M  V30 1013 N 103.054 -2.39223 3.96644 0
M  V30 1014 C 103.789 -2.86258 4.96834 0
M  V30 1015 N 103.285 -3.33184 6.07421 0
M  V30 1016 N 105.078 -2.85473 4.84213 0
M  V30 1017 H 97.2286 -0.0885624 2.12215 0
M  V30 1018 H 99.4916 -0.10191 0.942506 0
M  V30 1019 H 99.1976 -0.960811 3.38321 0
M  V30 1020 H 99.0716 -2.5896 2.74262 0
M  V30 1021 H 101.459 -2.35443 1.77906 0
M  V30 1022 H 101.54 -0.720939 2.4543 0
M  V30 1023 H 101.184 -1.69238 4.78875 0
M  V30 1024 H 101.114 -3.32638 4.08239 0
M  V30 1025 H 103.605 -2.06057 3.16779 0
M  V30 1026 H 103.918 -3.67586 6.7978 0
M  V30 1027 H 102.263 -3.31191 6.11013 0
M  V30 1028 H 105.454 -2.48136 3.96921 0
M  V30 1029 H 105.627 -3.21814 5.62441 0
M  V30 1030 N 99.0327 -1.24633 -0.964593 0
M  V30 1031 C 99.9957 -1.0424 -2.04124 0
M  V30 1032 C 100.996 0.00137563 -1.608 0
M  V30 1033 O 102.186 -0.239883 -1.7254 0
M  V30 1034 C 99.3177 -0.580588 -3.3592 0
M  V30 1035 H 100.511 -1.99803 -2.23649 0
M  V30 1036 H 98.0637 -1.06899 -1.14027 0
M  V30 1037 H 98.7987 0.3781 -3.22088 0
M  V30 1038 H 98.5837 -1.33398 -3.6871 0
M  V30 1039 H 100.074 -0.459034 -4.15069 0
M  V30 1040 N 100.511 1.16574 -1.06058 0
M  V30 1041 C 101.927 1.3904 -0.783585 0
M  V30 1042 C 102.127 1.91784 0.618145 0
M  V30 1043 O 101.183 2.11511 1.37911 0
M  V30 1044 C 102.496 2.37329 -1.84649 0
M  V30 1045 C 104.044 2.51018 -1.86973 0
M  V30 1046 C 104.519 3.52588 -2.92311 0
M  V30 1047 N 106.01 3.60113 -2.91329 0
M  V30 1048 C 106.745 4.38486 -3.69482 0
M  V30 1049 N 106.241 5.20302 -4.57447 0
M  V30 1050 N 108.034 4.33446 -3.57885 0
M  V30 1051 H 100.185 0.806725 -1.96483 0
M  V30 1052 H 102.448 0.417117 -0.851303 0
M  V30 1053 H 102.154 2.05663 -2.85299 0
M  V30 1054 H 102.028 3.36946 -1.6955 0
M  V30 1055 H 104.415 2.81989 -0.869827 0
M  V30 1056 H 104.496 1.51445 -2.0615 0
M  V30 1057 H 104.14 3.22354 -3.92492 0
M  V30 1058 H 104.07 4.51886 -2.70383 0
M  V30 1059 H 106.561 3.01707 -2.27555 0
M  V30 1060 H 106.874 5.77311 -5.13743 0
M  V30 1061 H 105.219 5.19653 -4.61503 0
M  V30 1062 H 108.41 3.68586 -2.88551 0
M  V30 1063 H 108.583 4.94279 -4.19037 0
M  V30 1064 N 101.989 0.842826 1.3317 0
M  V30 1065 C 103.214 0.453129 2.02389 0
M  V30 1066 C 103.639 -0.939105 1.6298 0
M  V30 1067 O 102.997 -1.61472 0.8244 0
M  V30 1068 C 103.045 0.586094 3.55805 0
M  V30 1069 O 102.149 -0.386029 4.10589 0
M  V30 1070 H 101.49 0.183664 0.638094 0
M  V30 1071 H 104.02 1.13875 1.69981 0
M  V30 1072 H 104.03 0.469209 4.05293 0
M  V30 1073 H 102.705 1.6014 3.83833 0
M  V30 1074 H 101.282 -0.226371 3.72212 0
M  V30 1075 N 103.467 -1.45747 0.599634 0
M  V30 1076 C 104.715 -2.01893 0.0915472 0
M  V30 1077 C 105.036 -1.47155 -1.27946 0
M  V30 1078 O 104.306 -0.66273 -1.84349 0
M  V30 1079 H 102.886 -0.746363 0.0308524 0
M  V30 1080 H 105.548 -1.78645 0.779237 0
M  V30 1081 H 104.644 -3.1208 0.0353086 0
M  V30 1082 N 104.945 -0.338344 -1.53925 0
M  V30 1083 C 106.17 0.263987 -2.05713 0
M  V30 1084 C 106.595 1.43847 -1.21201 0
M  V30 1085 O 105.953 1.79904 -0.224535 0
M  V30 1086 C 106.001 0.662 -3.54471 0
M  V30 1087 O 105.105 1.76265 -3.72833 0
M  V30 1088 H 104.446 0.0448722 -0.662482 0
M  V30 1089 H 106.976 -0.491048 -1.9862 0
M  V30 1090 H 106.986 0.940594 -3.9701 0
M  V30 1091 H 105.661 -0.196937 -4.15433 0
M  V30 1092 H 104.238 1.48173 -3.42198 0
M  V30 1093 N 106.423 1.57458 -0.0668435 0
M  V30 1094 C 107.672 1.92477 0.602947 0
M  V30 1095 C 107.985 0.948419 1.71068 0
M  V30 1096 O 109.191 1.19124 2.43971 0
M  V30 1097 C 107.647 3.41903 1.12383 0
M  V30 1098 C 107.255 4.47975 0.04737 0
M  V30 1099 C 108.999 3.85931 1.76797 0
M  V30 1100 C 106.906 5.88529 0.582022 0
M  V30 1101 H 105.836 0.718387 0.22899 0
M  V30 1102 H 108.487 1.82978 -0.138276 0
M  V30 1103 H 106.869 3.46459 1.91787 0
M  V30 1104 H 108.043 4.55029 -0.726978 0
M  V30 1105 H 106.358 4.13384 -0.500243 0
M  V30 1106 H 108.955 4.88322 2.17821 0
M  V30 1107 H 109.298 3.23029 2.62599 0
M  V30 1108 H 109.831 3.83958 1.04024 0
M  V30 1109 H 106.57 6.55065 -0.238721 0
M  V30 1110 H 106.09 5.85004 1.324 0
M  V30 1111 H 107.769 6.38258 1.05999 0
M  V30 1112 N 107.901 -0.206675 1.56239 0
M  V30 1113 C 108.848 -1.25617 1.93621 0
M  V30 1114 C 109.818 -1.45824 0.795274 0
M  V30 1115 O 111.003 -1.59148 1.05245 0
M  V30 1116 C 108.143 -2.59839 2.27107 0
M  V30 1117 C 107.256 -2.47308 3.54207 0
M  V30 1118 C 106.391 -3.74155 3.7707 0
M  V30 1119 C 105.43 -3.56407 4.97635 0
M  V30 1120 N 104.567 -4.75238 5.1681 0
M  V30 1121 H 109.407 -0.930383 2.83104 0
M  V30 1122 H 106.944 -0.448065 1.4011 0
M  V30 1123 H 108.902 -3.38021 2.44535 0
M  V30 1124 H 107.532 -2.90485 1.40778 0
M  V30 1125 H 106.584 -1.60483 3.4489 0
M  V30 1126 H 107.896 -2.30122 4.42544 0
M  V30 1127 H 107.05 -4.60778 3.94675 0
M  V30 1128 H 105.789 -3.94282 2.87042 0
M  V30 1129 H 104.794 -2.68168 4.79964 0
M  V30 1130 H 106.019 -3.37736 5.89161 0
M  V30 1131 H 103.965 -4.95651 4.29728 0
M  V30 1132 H 103.882 -4.60835 5.99306 0
M  V30 1133 H 105.15 -5.63246 5.38864 0
M  V30 1134 N 109.379 -1.50304 -0.473955 0
M  V30 1135 C 110.604 -1.65175 -1.25427 0
M  V30 1136 C 111.029 -0.333673 -1.85117 0
M  V30 1137 O 110.387 0.702114 -1.67153 0
M  V30 1138 C 110.435 -2.74295 -2.34082 0
M  V30 1139 O 109.539 -2.35349 -3.38651 0
M  V30 1140 H 108.88 -0.551944 -0.369126 0
M  V30 1141 H 111.41 -1.96662 -0.564364 0
M  V30 1142 H 111.42 -2.97285 -2.79438 0
M  V30 1143 H 110.095 -3.69959 -1.90008 0
M  V30 1144 H 108.672 -2.22794 -2.99027 0
M  V30 1145 N 110.857 0.726932 -1.39834 0
M  V30 1146 C 112.268 1.30558 -1.3346 0
M  V30 1147 C 112.619 1.962 -0.00273003 0
M  V30 1148 O 111.744 1.96826 0.899371 0
M  V30 1149 C 112.339 2.37404 -2.41713 0
M  V30 1150 C 110.898 2.90921 -2.38835 0
M  V30 1151 C 110.045 1.64578 -2.2318 0
M  V30 1152 H 112.996 0.523862 -1.49804 0
M  V30 1153 H 113.017 3.17984 -2.08966 0
M  V30 1154 H 112.529 1.89599 -3.38635 0
M  V30 1155 H 110.63 3.42985 -1.45575 0
M  V30 1156 H 110.743 3.43487 -3.33997 0
M  V30 1157 H 109.107 1.89219 -1.70494 0
M  V30 1158 H 109.89 1.18814 -3.22084 0
M  V30 1159 N 112.336 1.25143 0.95797 0
M  V30 1160 C 113.585 1.0909 1.69654 0
M  V30 1161 C 113.898 -0.368548 1.92097 0
M  V30 1162 O 115.104 -0.649455 2.63618 0
M  V30 1163 C 113.56 1.90395 3.05414 0
M  V30 1164 C 113.168 3.4081 2.90779 0
M  V30 1165 C 114.912 1.82901 3.83076 0
M  V30 1166 C 112.819 4.14423 4.21909 0
M  V30 1167 H 111.749 0.404625 0.636235 0
M  V30 1168 H 114.4 1.4931 1.06672 0
M  V30 1169 H 112.782 1.42996 3.69281 0
M  V30 1170 H 113.956 3.95859 2.35865 0
M  V30 1171 H 112.271 3.49361 2.26575 0
M  V30 1172 H 114.868 2.35196 4.80195 0
M  V30 1173 H 115.211 0.796224 4.08615 0
M  V30 1174 H 115.744 2.28033 3.25954 0
M  V30 1175 H 112.483 5.18102 4.01561 0
M  V30 1176 H 112.003 3.64159 4.76601 0
M  V30 1177 H 113.682 4.21956 4.90471 0
M  V30 1178 N 113.814 -1.1601 1.06675 0
M  V30 1179 C 115.06 -1.87145 0.796766 0
M  V30 1180 C 115.415 -1.8037 -0.669658 0
M  V30 1181 O 114.708 -1.21116 -1.48463 0
M  V30 1182 C 114.902 -3.35547 1.23057 0
M  V30 1183 C 114.731 -3.56769 2.73762 0
M  V30 1184 C 113.501 -3.72635 3.41279 0
M  V30 1185 C 115.699 -3.55166 3.7197 0
M  V30 1186 N 113.681 -3.81845 4.80695 0
M  V30 1187 C 115.052 -3.70406 4.97191 0
M  V30 1188 C 117.107 -3.384 3.65226 0
M  V30 1189 C 115.81 -3.70615 6.16471 0
M  V30 1190 C 117.836 -3.39904 4.83962 0
M  V30 1191 C 117.198 -3.55667 6.08013 0
M  V30 1192 H 113.297 -0.702267 0.344014 0
M  V30 1193 H 115.881 -1.39165 1.36166 0
M  V30 1194 H 114.052 -3.82159 0.693456 0
M  V30 1195 H 115.784 -3.94363 0.908844 0
M  V30 1196 H 112.539 -3.73121 2.91681 0
M  V30 1197 H 112.963 -3.90209 5.53232 0
M  V30 1198 H 117.605 -3.25138 2.70269 0
M  V30 1199 H 115.323 -3.82658 7.11757 0
M  V30 1200 H 118.909 -3.28169 4.80413 0
M  V30 1201 H 117.789 -3.56755 6.98352 0
M  V30 1202 N 115.292 -0.849877 -1.32721 0
M  V30 1203 C 116.708 -0.539102 -1.50219 0
M  V30 1204 C 116.908 0.931271 -1.78689 0
M  V30 1205 O 115.964 1.71455 -1.85363 0
M  V30 1206 C 117.277 -1.42196 -2.64954 0
M  V30 1207 C 118.825 -1.42189 -2.78839 0
M  V30 1208 C 119.3 -2.28985 -3.96648 0
M  V30 1209 N 120.791 -2.26754 -4.03902 0
M  V30 1210 C 121.526 -2.90644 -4.94281 0
M  V30 1211 N 121.022 -3.63629 -5.897 0
M  V30 1212 N 122.815 -2.80057 -4.87365 0
M  V30 1213 H 114.966 -1.80156 -1.12506 0
M  V30 1214 H 117.229 -0.769217 -0.554085 0
M  V30 1215 H 116.935 -2.46733 -2.50631 0
M  V30 1216 H 116.809 -1.10591 -3.60624 0
M  V30 1217 H 119.196 -0.38419 -2.92588 0
M  V30 1218 H 119.277 -1.77807 -1.83898 0
M  V30 1219 H 118.921 -3.32819 -3.83658 0
M  V30 1220 H 118.851 -1.90702 -4.90857 0
M  V30 1221 H 121.342 -1.73688 -3.3562 0
M  V30 1222 H 121.655 -4.09558 -6.55349 0
M  V30 1223 H 120 -3.67737 -5.89741 0
M  V30 1224 H 123.191 -2.22593 -4.11789 0
M  V30 1225 H 123.364 -3.30132 -5.57599 0
M  V30 1226 N 116.77 1.45427 -0.607355 0
M  V30 1227 C 117.995 2.07124 -0.107006 0
M  V30 1228 C 118.42 1.44906 1.19933 0
M  V30 1229 O 117.778 0.541687 1.73019 0
M  V30 1230 C 117.826 3.60595 0.0194119 0
M  V30 1231 O 116.93 3.98285 1.0697 0
M  V30 1232 H 116.271 0.659868 -0.0739597 0
M  V30 1233 H 118.801 1.86683 -0.837297 0
M  V30 1234 H 118.811 4.07419 0.2177 0
M  V30 1235 H 117.486 4.05266 -0.934453 0
M  V30 1236 H 116.063 3.63133 0.847889 0
M  V30 1237 N 118.248 0.346503 1.53744 0
M  V30 1238 C 119.496 -0.248612 2.00565 0
M  V30 1239 C 119.817 -1.5083 1.23593 0
M  V30 1240 O 119.087 -1.92858 0.343912 0
M  V30 1241 H 117.667 -0.0948564 0.740953 0
M  V30 1242 H 120.329 0.468341 1.89189 0
M  V30 1243 H 119.425 -0.488994 3.08245 0
M  V30 1244 N 119.726 -1.57421 0.075193 0
M  V30 1245 C 120.974 -1.93236 -0.591974 0
M  V30 1246 C 121.295 -0.956241 -1.69944 0
M  V30 1247 O 120.565 -0.00494792 -1.95899 0
M  V30 1248 H 119.145 -0.713355 -0.22166 0
M  V30 1249 H 121.807 -1.9444 0.133848 0
M  V30 1250 H 120.903 -2.95131 -1.01509 0
M  V30 1251 N 121.204 0.198386 -1.56346 0
M  V30 1252 C 122.45 0.920648 -1.80698 0
M  V30 1253 C 122.783 1.83045 -0.648697 0
M  V30 1254 O 122.058 1.91308 0.350925 0
M  V30 1255 C 122.341 1.73971 -3.15287 0
M  V30 1256 C 122.194 0.85485 -4.41602 0
M  V30 1257 C 123.513 2.71296 -3.46535 0
M  V30 1258 H 120.632 0.333261 -0.657348 0
M  V30 1259 H 123.274 0.188198 -1.89066 0
M  V30 1260 H 121.424 2.36416 -3.08285 0
M  V30 1261 H 123.096 0.245362 -4.60647 0
M  V30 1262 H 121.339 0.161398 -4.335 0
M  V30 1263 H 122.01 1.46286 -5.32264 0
M  V30 1264 H 124.486 2.18983 -3.53816 0
M  V30 1265 H 123.362 3.2569 -4.41834 0
M  V30 1266 H 123.623 3.5018 -2.69864 0
M  V30 1267 N 122.682 1.50554 0.465978 0
M  V30 1268 C 123.91 1.65563 1.24083 0
M  V30 1269 C 124.325 0.341051 1.85694 0
M  V30 1270 O 123.682 -0.677543 1.69457 0
M  V30 1271 C 123.733 2.75051 2.34583 0
M  V30 1272 O 123.454 4.01413 1.75497 0
M  V30 1273 C 124.955 3.01078 3.25372 0
M  V30 1274 H 122.175 0.55638 0.375077 0
M  V30 1275 H 124.719 1.96807 0.555624 0
M  V30 1276 H 122.874 2.46486 2.9887 0
M  V30 1277 H 123.288 4.62002 2.48303 0
M  V30 1278 H 124.762 3.81339 3.99105 0
M  V30 1279 H 125.239 2.12349 3.84453 0
M  V30 1280 H 125.845 3.31194 2.66816 0
M  V30 1281 N 124.16 -0.719506 1.40217 0
M  V30 1282 C 125.407 -1.47933 1.38283 0
M  V30 1283 C 125.735 -1.94493 -0.0161536 0
M  V30 1284 O 124.99 -1.68224 -0.999956 0
M  V30 1285 C 125.289 -2.72271 2.31524 0
M  V30 1286 C 124.955 -2.44496 3.78857 0
M  V30 1287 C 123.617 -2.36631 4.18998 0
M  V30 1288 C 125.969 -2.21104 4.71977 0
M  V30 1289 C 123.297 -2.03437 5.503 0
M  V30 1290 C 125.649 -1.89423 6.03574 0
M  V30 1291 C 124.313 -1.80038 6.42762 0
M  V30 1292 H 123.583 -0.541325 0.506012 0
M  V30 1293 H 126.23 -0.824502 1.72842 0
M  V30 1294 H 124.535 -3.42572 1.90137 0
M  V30 1295 H 126.232 -3.30348 2.27313 0
M  V30 1296 H 122.822 -2.51503 3.47051 0
M  V30 1297 H 127.006 -2.26139 4.41786 0
M  V30 1298 H 122.262 -1.94705 5.79569 0
M  V30 1299 H 126.436 -1.70336 6.75247 0
M  V30 1300 H 124.063 -1.54083 7.44421 0
M  V30 1301 N 125.638 -1.25649 -0.95132 0
M  V30 1302 C 126.601 -1.06399 -2.03007 0
M  V30 1303 C 127.601 -0.0156794 -1.60792 0
M  V30 1304 O 128.791 -0.25817 -1.72276 0
M  V30 1305 C 125.923 -0.616184 -3.35285 0
M  V30 1306 H 127.116 -2.02164 -2.21517 0
M  V30 1307 H 124.669 -1.08103 -1.12887 0
M  V30 1308 H 125.404 0.343917 -3.22471 0
M  V30 1309 H 125.189 -1.37301 -3.67275 0
M  V30 1310 H 126.679 -0.503032 -4.14559 0
M  V30 1311 N 127.117 1.15442 -1.07289 0
M  V30 1312 C 128.08 2.18358 -0.696591 0
M  V30 1313 C 129.08 1.58637 0.262837 0
M  V30 1314 O 130.27 1.74145 0.0438809 0
M  V30 1315 C 127.402 3.4089 -0.0266151 0
M  V30 1316 H 128.595 2.53162 -1.60776 0
M  V30 1317 H 126.148 1.29893 -0.869342 0
M  V30 1318 H 126.883 3.11653 0.896822 0
M  V30 1319 H 126.668 3.85495 -0.716657 0
M  V30 1320 H 128.158 4.17009 0.222028 0
M  V30 1321 N 128.595 0.856903 1.32268 0
M  V30 1322 C 130.011 0.547061 1.49931 0
M  V30 1323 C 130.211 -0.921781 1.7918 0
M  V30 1324 O 129.267 -1.70469 1.8627 0
M  V30 1325 C 130.58 1.43599 2.64196 0
M  V30 1326 C 132.128 1.43665 2.78081 0
M  V30 1327 C 132.603 2.31085 3.95428 0
M  V30 1328 N 134.094 2.28893 4.02694 0
M  V30 1329 C 134.829 2.93262 4.92732 0
M  V30 1330 N 134.325 3.66751 5.87763 0
M  V30 1331 N 136.118 2.82638 4.85873 0
M  V30 1332 H 128.269 1.8075 1.11549 0
M  V30 1333 H 130.532 0.772144 0.549997 0
M  V30 1334 H 130.238 2.48058 2.49319 0
M  V30 1335 H 130.112 1.12502 3.60032 0
M  V30 1336 H 132.499 0.399701 2.92381 0
M  V30 1337 H 132.58 1.7878 1.82952 0
M  V30 1338 H 132.224 3.34849 3.81888 0
M  V30 1339 H 132.154 1.93302 4.89839 0
M  V30 1340 H 134.645 1.75466 3.34694 0
M  V30 1341 H 134.958 4.13027 6.53168 0
M  V30 1342 H 133.303 3.70859 5.87783 0
M  V30 1343 H 136.494 2.24774 4.10602 0
M  V30 1344 H 136.667 3.33084 5.55841 0
M  V30 1345 N 130.073 -1.45103 0.615059 0
M  V30 1346 C 131.484 -1.85654 0.197383 0
M  V30 1347 C 131.835 -1.51433 -1.24749 0
M  V30 1348 O 130.96 -0.944608 -1.94695 0
M  V30 1349 C 131.555 -3.36972 0.351448 0
M  V30 1350 C 130.114 -3.76398 -0.011593 0
M  V30 1351 C 129.261 -2.69024 0.672394 0
M  V30 1352 H 132.212 -1.35797 0.821263 0
M  V30 1353 H 132.233 -3.78239 -0.414227 0
M  V30 1354 H 131.745 -3.61847 1.40314 0
M  V30 1355 H 129.846 -3.5714 -1.06217 0
M  V30 1356 H 129.959 -4.77532 0.387265 0
M  V30 1357 H 128.323 -2.54465 0.109284 0
M  V30 1358 H 129.106 -2.96735 1.72636 0
M  V30 1359 N 131.551 -0.354651 -1.53558 0
M  V30 1360 C 132.483 0.5315 -2.22952 0
M  V30 1361 C 133.496 1.05503 -1.23988 0
M  V30 1362 O 134.685 0.963279 -1.50277 0
M  V30 1363 C 131.785 1.74538 -2.90499 0
M  V30 1364 C 130.958 1.35524 -4.15875 0
M  V30 1365 C 130.017 2.42999 -4.66731 0
M  V30 1366 O 129.043 2.05844 -5.30676 0
M  V30 1367 N 130.245 3.74423 -4.43608 0
M  V30 1368 H 133.01 -0.0628615 -2.99634 0
M  V30 1369 H 130.571 -0.179302 -1.60904 0
M  V30 1370 H 132.563 2.45892 -3.21433 0
M  V30 1371 H 131.133 2.24686 -2.17336 0
M  V30 1372 H 130.353 0.471998 -3.91364 0
M  V30 1373 H 131.641 1.07071 -4.97406 0
M  V30 1374 H 131.039 4.07391 -3.92491 0
M  V30 1375 H 129.596 4.41913 -4.7912 0
M  V30 1376 N 133.029 1.57378 -0.0835403 0
M  V30 1377 C 134.306 1.85363 0.624507 0
M  V30 1378 C 134.686 0.978239 1.87066 0
M  V30 1379 O 134.034 0.0475908 2.2845 0
M  V30 1380 C 134.244 3.35795 0.950947 0
M  V30 1381 C 135.592 4.03581 1.31939 0
M  V30 1382 O 136.616 3.40609 1.04232 0
M  V30 1383 O 135.475 5.14672 1.83779 0
M  V30 1384 H 132.569 0.766162 0.311329 0
M  V30 1385 H 135.115 1.69307 -0.115362 0
M  V30 1386 H 133.887 3.91244 0.0663899 0
M  V30 1387 H 133.51 3.57154 1.74719 0
M  V30 1388 N 134.507 -0.190092 1.56449 0
M  V30 1389 C 135.457 -1.23977 1.91347 0
M  V30 1390 C 136.441 -1.40747 0.779693 0
M  V30 1391 O 137.633 -1.43033 1.04262 0
M  V30 1392 C 134.762 -2.58347 2.26079 0
M  V30 1393 C 133.848 -2.4535 3.45925 0
M  V30 1394 N 134.239 -2.02039 4.63696 0
M  V30 1395 C 132.537 -2.76229 3.50162 0
M  V30 1396 C 133.238 -2.01053 5.4585 0
M  V30 1397 N 132.214 -2.42747 4.8639 0
M  V30 1398 H 136.016 -0.896318 2.79899 0
M  V30 1399 H 133.53 -0.398496 1.57435 0
M  V30 1400 H 135.527 -3.34173 2.49267 0
M  V30 1401 H 134.187 -2.93512 1.38856 0
M  V30 1402 H 135.198 -1.7267 4.88268 0
M  V30 1403 H 131.875 -3.15556 2.73369 0
M  V30 1404 H 133.265 -1.69426 6.50188 0
M  V30 1405 N 135.985 -1.50799 -0.457987 0
M  V30 1406 C 137.21 -1.66496 -1.23668 0
M  V30 1407 C 137.635 -0.353288 -1.84752 0
M  V30 1408 O 136.993 0.684346 -1.67888 0
M  V30 1409 C 137.041 -2.76763 -2.3116 0
M  V30 1410 O 136.145 -2.38928 -3.36136 0
M  V30 1411 H 135.486 -0.555828 -0.363252 0
M  V30 1412 H 138.016 -1.9725 -0.543474 0
M  V30 1413 H 138.026 -3.00232 -2.76269 0
M  V30 1414 H 136.701 -3.71954 -1.86073 0
M  V30 1415 H 135.278 -2.25953 -2.96647 0
M  V30 1416 N 137.463 0.71206 -1.40597 0
M  V30 1417 C 138.395 1.83704 -1.37061 0
M  V30 1418 C 139.408 1.60453 -0.275426 0
M  V30 1419 O 140.597 1.70262 -0.53602 0
M  V30 1420 C 137.697 3.20172 -1.11099 0
M  V30 1421 C 136.87 3.7059 -2.3234 0
M  V30 1422 C 135.929 4.85681 -2.02485 0
M  V30 1423 O 134.955 4.9815 -2.75382 0
M  V30 1424 N 136.157 5.71735 -1.00497 0
M  V30 1425 H 138.922 1.87235 -2.34016 0
M  V30 1426 H 136.483 0.893739 -1.34996 0
M  V30 1427 H 138.475 3.94768 -0.891064 0
M  V30 1428 H 137.045 3.11767 -0.227989 0
M  V30 1429 H 136.265 2.87085 -2.7014 0
M  V30 1430 H 137.553 4.01011 -3.13157 0
M  V30 1431 H 136.951 5.64275 -0.401298 0
M  V30 1432 H 135.508 6.463 -0.844942 0
M  V30 1433 N 138.941 1.26152 0.944643 0
M  V30 1434 C 139.888 1.07408 2.04285 0
M  V30 1435 C 140.858 -0.0198413 1.66088 0
M  V30 1436 O 142.043 0.139264 1.90291 0
M  V30 1437 C 139.183 0.70945 3.37729 0
M  V30 1438 C 138.296 1.87926 3.88983 0
M  V30 1439 C 137.431 1.45807 5.10797 0
M  V30 1440 C 136.47 2.5964 5.54305 0
M  V30 1441 N 135.607 2.18226 6.67324 0
M  V30 1442 H 140.447 2.01389 2.1965 0
M  V30 1443 H 137.984 1.00275 1.07626 0
M  V30 1444 H 139.942 0.478948 4.14442 0
M  V30 1445 H 138.572 -0.193389 3.2222 0
M  V30 1446 H 137.624 2.22279 3.08701 0
M  V30 1447 H 138.936 2.73377 4.17213 0
M  V30 1448 H 138.09 1.18781 5.94959 0
M  V30 1449 H 136.829 0.574414 4.84305 0
M  V30 1450 H 135.834 2.87399 4.68702 0
M  V30 1451 H 137.059 3.48599 5.828 0
M  V30 1452 H 135.005 1.3229 6.42523 0
M  V30 1453 H 134.922 2.97221 6.95123 0
M  V30 1454 H 136.19 1.94403 7.54869 0
M  V30 1455 N 140.419 -1.14872 1.07899 0
M  V30 1456 C 141.665 -1.86064 0.806725 0
M  V30 1457 C 141.998 -1.82434 -0.665706 0
M  V30 1458 O 141.273 -1.25138 -1.48899 0
M  V30 1459 C 141.556 -3.34929 1.32267 0
M  V30 1460 C 141.409 -3.47161 2.86006 0
M  V30 1461 C 142.728 -4.29863 0.943717 0
M  V30 1462 H 139.847 -0.675591 0.294526 0
M  V30 1463 H 142.489 -1.34925 1.33773 0
M  V30 1464 H 140.639 -3.78611 0.870974 0
M  V30 1465 H 142.311 -3.12302 3.39507 0
M  V30 1466 H 140.554 -2.88539 3.23925 0
M  V30 1467 H 141.225 -4.51777 3.17177 0
M  V30 1468 H 143.701 -3.9417 1.33302 0
M  V30 1469 H 142.577 -5.32494 1.33198 0
M  V30 1470 H 142.838 -4.41846 -0.149796 0
M  V30 1471 N 141.898 -0.863906 -1.31812 0
M  V30 1472 C 142.846 -0.30422 -2.30602 0
M  V30 1473 C 143.84 0.577419 -1.59255 0
M  V30 1474 O 145.046 0.464194 -1.73912 0
M  V30 1475 H 141.421 -0.0796877 -0.747766 0
M  V30 1476 H 143.392 -1.15148 -2.75288 0
M  V30 1477 C 142.141 0.484617 -3.44306 0
M  V30 1478 H 141.464 -0.18451 -3.99374 0
M  V30 1479 H 142.904 0.841664 -4.15562 0
M  V30 1480 C 141.363 1.6735 -2.92396 0
M  V30 1481 O 141.893 2.77273 -2.90659 0
M  V30 1482 N 140.099 1.50362 -2.48676 0
M  V30 1483 H 139.646 0.609402 -2.50288 0
M  V30 1484 H 139.604 2.30051 -2.14299 0
M  V30 1485 N 143.376 1.44774 -0.622745 0
M  V30 1486 C 144.323 2.30635 0.0871679 0
M  V30 1487 C 145.293 1.42994 0.845097 0
M  V30 1488 O 146.478 1.71907 0.827812 0
M  V30 1489 C 143.618 3.28144 1.06844 0
M  V30 1490 C 142.731 4.30888 0.309809 0
M  V30 1491 C 141.866 5.15494 1.28215 0
M  V30 1492 C 140.905 6.09953 0.512198 0
M  V30 1493 N 140.042 6.87287 1.43458 0
M  V30 1494 H 144.882 2.90803 -0.650974 0
M  V30 1495 H 142.419 1.43286 -0.33281 0
M  V30 1496 H 144.377 3.83157 1.65066 0
M  V30 1497 H 143.007 2.69695 1.77382 0
M  V30 1498 H 142.059 3.78414 -0.388181 0
M  V30 1499 H 143.371 4.97955 -0.290254 0
M  V30 1500 H 142.525 5.74983 1.93596 0
M  V30 1501 H 141.264 4.48481 1.91614 0
M  V30 1502 H 140.269 5.49581 -0.155151 0
M  V30 1503 H 141.494 6.78999 -0.116958 0
M  V30 1504 H 139.44 6.2295 2.05594 0
M  V30 1505 H 139.357 7.50763 0.888335 0
M  V30 1506 H 140.625 7.51306 2.07749 0
M  V30 1507 N 144.854 0.36279 1.53368 0
M  V30 1508 C 145.801 -0.485008 2.25646 0
M  V30 1509 C 146.771 -1.07982 1.2621 0
M  V30 1510 O 147.956 -1.11284 1.54986 0
M  V30 1511 C 145.096 -1.62023 3.04701 0
M  V30 1512 C 144.209 -1.05086 4.19024 0
M  V30 1513 C 143.344 -2.15496 4.85525 0
M  V30 1514 C 142.383 -1.5601 5.91884 0
M  V30 1515 N 141.52 -2.60241 6.52088 0
M  V30 1516 H 146.36 0.137864 2.97681 0
M  V30 1517 H 143.897 0.0798061 1.46883 0
M  V30 1518 H 145.855 -2.28887 3.48807 0
M  V30 1519 H 144.485 -2.2138 2.34927 0
M  V30 1520 H 143.537 -0.27259 3.79422 0
M  V30 1521 H 144.849 -0.575926 4.95464 0
M  V30 1522 H 144.003 -2.90186 5.32801 0
M  V30 1523 H 142.742 -2.66341 4.08551 0
M  V30 1524 H 141.747 -0.798338 5.43973 0
M  V30 1525 H 142.972 -1.05994 6.70777 0
M  V30 1526 H 140.918 -3.10304 5.77968 0
M  V30 1527 H 140.835 -2.17426 7.24059 0
M  V30 1528 H 142.103 -3.34641 7.04014 0
M  V30 1529 N 146.332 -1.57332 0.0918853 0
M  V30 1530 C 147.265 -2.09499 -0.904735 0
M  V30 1531 C 148.243 -1.00479 -1.27839 0
M  V30 1532 O 149.427 -1.27954 -1.38419 0
M  V30 1533 C 146.554 -2.56931 -2.2069 0
M  V30 1534 C 145.6 -3.77579 -1.98334 0
M  V30 1535 S 146.433 -5.21317 -1.22428 0
M  V30 1536 C 147.589 -5.72097 -2.53882 0
M  V30 1537 H 147.822 -2.93705 -0.460922 0
M  V30 1538 H 145.355 -1.53923 -0.121332 0
M  V30 1539 H 147.313 -2.84917 -2.95521 0
M  V30 1540 H 145.974 -1.72956 -2.62192 0
M  V30 1541 H 145.167 -4.08824 -2.94752 0
M  V30 1542 H 144.769 -3.5007 -1.31633 0
M  V30 1543 H 147.061 -5.80168 -3.49874 0
M  V30 1544 H 148.004 -6.70654 -2.27219 0
M  V30 1545 H 148.412 -5.00012 -2.62007 0
M  V30 1546 N 147.81 0.181792 -1.56548 0
M  V30 1547 C 149.04 0.914618 -1.85252 0
M  V30 1548 C 149.448 1.76791 -0.673914 0
M  V30 1549 O 148.791 1.80009 0.366416 0
M  V30 1550 C 148.853 1.85019 -3.08234 0
M  V30 1551 C 148.517 1.17754 -4.41569 0
M  V30 1552 C 149.514 0.548035 -5.17003 0
M  V30 1553 C 147.199 1.17742 -4.88305 0
M  V30 1554 C 149.193 -0.0726128 -6.37359 0
M  V30 1555 C 146.88 0.552946 -6.08593 0
M  V30 1556 C 147.878 -0.070978 -6.82963 0
M  V30 1557 O 147.566 -0.685635 -8.00971 0
M  V30 1558 H 147.298 0.271695 -0.618998 0
M  V30 1559 H 149.852 0.189944 -2.0452 0
M  V30 1560 H 148.082 2.61491 -2.84885 0
M  V30 1561 H 149.771 2.45195 -3.23472 0
M  V30 1562 H 150.537 0.540174 -4.81982 0
M  V30 1563 H 146.416 1.65246 -4.30366 0
M  V30 1564 H 149.96 -0.560213 -6.95347 0
M  V30 1565 H 145.857 0.558354 -6.43081 0
M  V30 1566 H 146.625 -0.58385 -8.16415 0
M  V30 1567 N 149.288 1.51039 0.449983 0
M  V30 1568 C 150.704 1.38934 0.785462 0
M  V30 1569 C 150.904 0.461817 1.96136 0
M  V30 1570 O 149.96 -0.0877389 2.52348 0
M  V30 1571 C 151.273 2.80724 1.0777 0
M  V30 1572 C 152.821 2.89787 1.1829 0
M  V30 1573 C 153.296 4.32457 1.50815 0
M  V30 1574 N 154.787 4.35505 1.57764 0
M  V30 1575 C 155.522 5.42914 1.84477 0
M  V30 1576 N 155.018 6.60502 2.09068 0
M  V30 1577 N 156.811 5.3038 1.86155 0
M  V30 1578 H 148.962 2.09904 -0.324647 0
M  V30 1579 H 151.225 0.944378 -0.0827957 0
M  V30 1580 H 150.931 3.50531 0.286498 0
M  V30 1581 H 150.805 3.19273 2.00859 0
M  V30 1582 H 153.192 2.20186 1.96474 0
M  V30 1583 H 153.273 2.54752 0.231314 0
M  V30 1584 H 152.917 5.02603 0.731622 0
M  V30 1585 H 152.847 4.64995 2.47158 0
M  V30 1586 H 155.338 3.50724 1.40715 0
M  V30 1587 H 155.651 7.38158 2.28785 0
M  V30 1588 H 153.996 6.63639 2.06416 0
M  V30 1589 H 157.187 4.37505 1.66454 0
M  V30 1590 H 157.36 6.1417 2.06637 0
M  V30 1591 N 150.766 -0.704594 1.40972 0
M  V30 1592 C 152.014 -1.46169 1.39568 0
M  V30 1593 C 152.335 -1.95 0.00253745 0
M  V30 1594 O 151.605 -1.71095 -0.954114 0
M  V30 1595 H 150.185 -0.542326 0.513704 0
M  V30 1596 H 152.847 -0.834553 1.76128 0
M  V30 1597 H 151.943 -2.32922 2.07735 0
M  V30 1598 N 152.244 -1.26651 -0.937939 0
M  V30 1599 C 153.207 -1.08546 -2.01867 0
M  V30 1600 C 154.207 -0.0327327 -1.60767 0
M  V30 1601 O 155.397 -0.276427 -1.71993 0
M  V30 1602 C 152.529 -0.651711 -3.34613 0
M  V30 1603 H 153.722 -2.04502 -2.1936 0
M  V30 1604 H 151.275 -1.09294 -1.11734 0
M  V30 1605 H 152.01 0.309696 -3.22818 0
M  V30 1606 H 151.795 -1.41189 -3.65798 0
M  V30 1607 H 153.285 -0.546973 -4.14002 0
M  V30 1608 N 153.722 1.14298 -1.08507 0
M  V30 1609 C 154.652 2.21542 -0.737646 0
M  V30 1610 C 155.633 1.67773 0.280377 0
M  V30 1611 O 156.818 1.93616 0.150521 0
M  V30 1612 C 153.948 3.46988 -0.147259 0
M  V30 1613 C 152.902 4.13789 -1.09374 0
M  V30 1614 C 152.228 5.33449 -0.365524 0
M  V30 1615 C 153.528 4.62208 -2.4323 0
M  V30 1616 H 155.222 2.5086 -1.6343 0
M  V30 1617 H 152.768 1.20576 -0.787243 0
M  V30 1618 H 154.721 4.21262 0.107808 0
M  V30 1619 H 153.445 3.17037 0.784538 0
M  V30 1620 H 152.104 3.4147 -1.33393 0
M  V30 1621 H 151.752 4.99759 0.57011 0
M  V30 1622 H 151.452 5.79088 -0.996512 0
M  V30 1623 H 152.976 6.10485 -0.118534 0
M  V30 1624 H 154.39 5.27952 -2.23472 0
M  V30 1625 H 152.787 5.18553 -3.02031 0
M  V30 1626 H 153.857 3.77224 -3.04681 0
M  V30 1627 N 155.201 0.870884 1.31352 0
M  V30 1628 C 156.148 0.325425 2.28494 0
M  V30 1629 C 157.118 -0.576615 1.5577 0
M  V30 1630 O 158.303 -0.508059 1.83911 0
M  V30 1631 C 155.443 -0.466283 3.41935 0
M  V30 1632 C 154.556 0.463378 4.29508 0
M  V30 1633 C 153.691 -0.342544 5.30094 0
M  V30 1634 C 152.73 0.583486 6.09313 0
M  V30 1635 N 151.867 -0.186244 7.01853 0
M  V30 1636 H 156.707 1.15901 2.74538 0
M  V30 1637 H 154.244 0.58294 1.35056 0
M  V30 1638 H 156.202 -0.941085 4.06447 0
M  V30 1639 H 154.832 -1.26456 2.97 0
M  V30 1640 H 153.884 1.05663 3.65431 0
M  V30 1641 H 155.196 1.1734 4.84802 0
M  V30 1642 H 154.35 -0.879816 6.00287 0
M  V30 1643 H 153.089 -1.08585 4.75458 0
M  V30 1644 H 152.094 1.13251 5.3801 0
M  V30 1645 H 153.319 1.32566 6.66035 0
M  V30 1646 H 151.265 -0.912348 6.49625 0
M  V30 1647 H 151.182 0.464422 7.54572 0
M  V30 1648 H 152.45 -0.704716 7.76308 0
M  V30 1649 N 156.679 -1.44442 0.630414 0
M  V30 1650 C 157.904 -2.06927 0.139944 0
M  V30 1651 C 158.329 -1.46795 -1.17613 0
M  V30 1652 O 157.687 -0.569144 -1.72135 0
M  V30 1653 C 157.735 -3.6058 0.0379581 0
M  V30 1654 O 156.839 -3.99937 -1.0062 0
M  V30 1655 H 156.18 -0.658608 0.0844483 0
M  V30 1656 H 158.71 -1.85327 0.866891 0
M  V30 1657 H 158.72 -4.07714 -0.152856 0
M  V30 1658 H 157.395 -4.03728 0.998809 0
M  V30 1659 H 155.972 -3.64436 -0.79001 0
M  V30 1660 N 158.157 -0.370918 -1.53173 0
M  V30 1661 C 159.406 0.218249 -2.00516 0
M  V30 1662 C 159.719 1.49429 -1.26215 0
M  V30 1663 O 160.925 2.16239 -1.64174 0
M  V30 1664 C 159.381 0.43948 -3.57207 0
M  V30 1665 C 158.989 -0.822244 -4.4039 0
M  V30 1666 C 160.733 0.986012 -4.1289 0
M  V30 1667 C 158.64 -0.570304 -5.88644 0
M  V30 1668 H 157.57 0.0853333 -0.749156 0
M  V30 1669 H 160.221 -0.490483 -1.76823 0
M  V30 1670 H 158.603 1.20961 -3.77074 0
M  V30 1671 H 159.777 -1.59557 -4.32294 0
M  V30 1672 H 158.092 -1.29238 -3.95836 0
M  V30 1673 H 160.689 1.18991 -5.21292 0
M  V30 1674 H 161.032 1.94972 -3.6782 0
M  V30 1675 H 161.565 0.27592 -3.96842 0
M  V30 1676 H 158.304 -1.50449 -6.38001 0
M  V30 1677 H 157.824 0.164427 -5.99575 0
M  V30 1678 H 159.503 -0.19784 -6.46697 0
M  V30 1679 N 159.635 1.57281 -0.100228 0
M  V30 1680 C 160.565 2.17328 0.853857 0
M  V30 1681 C 161.546 1.10804 1.2906 0
M  V30 1682 O 162.731 1.38963 1.35657 0
M  V30 1683 C 159.861 2.75772 2.11109 0
M  V30 1684 C 158.815 3.87713 1.81279 0
M  V30 1685 C 158.141 4.32882 3.13874 0
M  V30 1686 C 159.441 5.10677 1.09574 0
M  V30 1687 H 161.135 2.97305 0.353545 0
M  V30 1688 H 158.681 1.43009 0.168612 0
M  V30 1689 H 160.634 3.16433 2.78296 0
M  V30 1690 H 159.358 1.93057 2.63432 0
M  V30 1691 H 158.017 3.476 1.16489 0
M  V30 1692 H 157.665 3.47051 3.64095 0
M  V30 1693 H 157.365 5.08358 2.94696 0
M  V30 1694 H 158.889 4.7618 3.82211 0
M  V30 1695 H 160.303 5.48474 1.66879 0
M  V30 1696 H 158.7 5.91615 1.00557 0
M  V30 1697 H 159.77 4.84835 0.0793299 0
M  V30 1698 N 161.113 -0.173488 1.56642 0
M  V30 1699 C 162.338 -0.910149 1.86363 0
M  V30 1700 C 162.763 -1.75132 0.686318 0
M  V30 1701 O 162.121 -1.77595 -0.364643 0
M  V30 1702 C 162.169 -1.76447 3.14482 0
M  V30 1703 O 161.273 -2.86584 2.96553 0
M  V30 1704 H 160.614 -0.255086 0.613047 0
M  V30 1705 H 163.144 -0.172283 2.03873 0
M  V30 1706 H 163.154 -2.16483 3.45831 0
M  V30 1707 H 161.829 -1.14658 3.99783 0
M  V30 1708 H 160.406 -2.50146 2.76553 0
M  V30 1709 N 162.591 -1.51276 -0.441967 0
M  V30 1710 C 163.501 -1.75092 -1.56141 0
M  V30 1711 C 164.517 -0.634963 -1.62001 0
M  V30 1712 O 165.693 -0.916686 -1.79329 0
M  V30 1713 C 162.758 -1.86666 -2.92158 0
M  V30 1714 C 161.819 -3.10506 -2.96453 0
M  V30 1715 C 161.052 -3.21519 -4.25982 0
M  V30 1716 O 161.275 -2.38586 -5.18105 0
M  V30 1717 O 160.209 -4.14465 -4.36466 0
M  V30 1718 H 164.035 -2.70044 -1.38961 0
M  V30 1719 H 161.62 -1.35722 -0.624499 0
M  V30 1720 H 163.502 -1.96292 -3.72891 0
M  V30 1721 H 162.177 -0.949014 -3.09476 0
M  V30 1722 H 161.084 -3.06363 -2.14692 0
M  V30 1723 H 162.417 -4.01945 -2.84079 0
M  V30 1724 N 164.069 0.697108 -1.41344 0
M  V30 1725 C 164.999 1.82353 -1.45841 0
M  V30 1726 C 165.98 1.67115 -0.317247 0
M  V30 1727 O 167.165 1.86871 -0.528474 0
M  V30 1728 C 164.295 3.20476 -1.33838 0
M  V30 1729 C 163.249 3.50415 -2.4575 0
M  V30 1730 C 162.575 4.87878 -2.18813 0
M  V30 1731 C 163.875 3.49546 -3.88091 0
M  V30 1732 H 165.569 1.78846 -2.40113 0
M  V30 1733 H 163.115 0.859028 -1.15571 0
M  V30 1734 H 165.068 3.98988 -1.35596 0
M  V30 1735 H 163.792 3.24604 -0.360498 0
M  V30 1736 H 162.451 2.74253 -2.43271 0
M  V30 1737 H 162.099 4.8863 -1.19371 0
M  V30 1738 H 161.799 5.08875 -2.93803 0
M  V30 1739 H 163.323 5.68702 -2.22284 0
M  V30 1740 H 164.737 4.18066 -3.92293 0
M  V30 1741 H 163.134 3.82075 -4.62751 0
M  V30 1742 H 164.204 2.48552 -4.16353 0
M  V30 1743 N 165.547 1.27147 0.931209 0
M  V30 1744 C 166.793 1.13446 1.68101 0
M  V30 1745 C 167.126 -0.319628 1.91552 0
M  V30 1746 O 166.401 -1.23407 1.50336 0
M  V30 1747 C 166.684 1.91482 3.0497 0
M  V30 1748 C 166.537 3.44855 2.88782 0
M  V30 1749 C 167.856 1.71651 4.05246 0
M  V30 1750 H 164.975 0.413498 0.610072 0
M  V30 1751 H 167.617 1.56261 1.08086 0
M  V30 1752 H 165.767 1.55095 3.56199 0
M  V30 1753 H 167.439 3.9105 2.44698 0
M  V30 1754 H 165.682 3.71373 2.24198 0
M  V30 1755 H 166.353 3.94694 3.85902 0
M  V30 1756 H 168.829 2.0337 3.63015 0
M  V30 1757 H 167.705 2.28651 4.99009 0
M  V30 1758 H 167.966 0.663555 4.37092 0
M  V30 1759 N 167.025 -1.13721 1.09112 0
M  V30 1760 C 168.441 -1.36914 0.820174 0
M  V30 1761 C 168.641 -1.93356 -0.567079 0
M  V30 1762 O 167.697 -2.15093 -1.32255 0
M  V30 1763 C 169.01 -2.3235 1.90877 0
M  V30 1764 C 170.558 -2.45973 1.93562 0
M  V30 1765 C 171.033 -3.44714 3.01556 0
M  V30 1766 N 172.524 -3.52263 3.00775 0
M  V30 1767 C 173.259 -4.28536 3.80978 0
M  V30 1768 N 172.755 -5.07991 4.71081 0
M  V30 1769 N 174.548 -4.23804 3.69251 0
M  V30 1770 H 166.699 -0.754348 1.98553 0
M  V30 1771 H 168.962 -0.3944 0.862063 0
M  V30 1772 H 168.668 -1.98027 2.90651 0
M  V30 1773 H 168.542 -3.32332 1.78424 0
M  V30 1774 H 170.929 -2.79584 0.944286 0
M  V30 1775 H 171.01 -1.45926 2.10093 0
M  V30 1776 H 170.654 -3.11835 4.00901 0
M  V30 1777 H 170.584 -4.44558 2.82269 0
M  V30 1778 H 173.075 -2.95567 2.35475 0
M  V30 1779 H 173.388 -5.63487 5.28869 0
M  V30 1780 H 171.733 -5.07235 4.75119 0
M  V30 1781 H 174.924 -3.60806 2.98222 0
M  V30 1782 H 175.097 -4.82995 4.31995 0
M  V30 1783 N 168.503 -0.877838 -1.30888 0
M  V30 1784 C 169.435 -0.296607 -2.27273 0
M  V30 1785 C 170.448 0.544799 -1.53414 0
M  V30 1786 O 171.637 0.365511 -1.74718 0
M  V30 1787 C 168.737 0.597481 -3.33592 0
M  V30 1788 C 167.91 -0.213251 -4.3688 0
M  V30 1789 C 166.969 0.610208 -5.2265 0
M  V30 1790 O 165.995 0.035441 -5.69189 0
M  V30 1791 N 167.197 1.92071 -5.47804 0
M  V30 1792 H 169.962 -1.12492 -2.77787 0
M  V30 1793 H 167.523 -0.740105 -1.43993 0
M  V30 1794 H 169.515 1.15425 -3.87891 0
M  V30 1795 H 168.085 1.32647 -2.83061 0
M  V30 1796 H 167.305 -0.951466 -3.82545 0
M  V30 1797 H 168.593 -0.769262 -5.02951 0
M  V30 1798 H 167.991 2.4107 -5.11763 0
M  V30 1799 H 166.548 2.42508 -6.05007 0
M  V30 1800 N 169.982 1.44106 -0.638065 0
M  V30 1801 C 171.259 1.95453 -0.0759321 0
M  V30 1802 C 171.639 1.57984 1.40015 0
M  V30 1803 O 170.987 0.857361 2.11806 0
M  V30 1804 C 171.197 3.47655 -0.306132 0
M  V30 1805 C 172.545 4.24114 -0.203008 0
M  V30 1806 O 173.569 3.55405 -0.237871 0
M  V30 1807 O 172.428 5.46381 -0.113827 0
M  V30 1808 H 169.522 0.826797 0.0183332 0
M  V30 1809 H 172.068 1.54122 -0.710251 0
M  V30 1810 H 170.84 3.68 -1.3301 0
M  V30 1811 H 170.463 3.95949 0.361991 0
M  V30 1812 N 171.46 0.379036 1.52974 0
M  V30 1813 C 172.876 0.0285448 1.59574 0
M  V30 1814 C 173.076 -1.45542 1.39355 0
M  V30 1815 O 172.132 -2.2187 1.20541 0
M  V30 1816 C 173.445 0.496535 2.96572 0
M  V30 1817 C 174.993 0.451909 3.0972 0
M  V30 1818 C 175.468 0.895924 4.49152 0
M  V30 1819 N 176.959 0.851522 4.55306 0
M  V30 1820 C 177.694 1.16661 5.61407 0
M  V30 1821 N 177.19 1.55166 6.752 0
M  V30 1822 N 178.983 1.08853 5.51459 0
M  V30 1823 H 171.134 1.34525 1.64367 0
M  V30 1824 H 173.397 0.550733 0.771619 0
M  V30 1825 H 173.103 1.53258 3.16552 0
M  V30 1826 H 172.977 -0.109802 3.7704 0
M  V30 1827 H 175.364 -0.575029 2.89443 0
M  V30 1828 H 175.445 1.09392 2.3123 0
M  V30 1829 H 175.089 1.92104 4.70168 0
M  V30 1830 H 175.019 0.23103 5.26093 0
M  V30 1831 H 177.51 0.568038 3.73606 0
M  V30 1832 H 177.823 1.776 7.52116 0
M  V30 1833 H 176.168 1.59044 6.76557 0
M  V30 1834 H 179.359 0.786803 4.6144 0
M  V30 1835 H 179.532 1.33742 6.34048 0
M  V30 1836 N 172.938 -1.57226 0.108567 0
M  V30 1837 C 173.868 -2.17778 -0.84232 0
M  V30 1838 C 174.849 -1.11487 -1.2847 0
M  V30 1839 O 176.034 -1.39681 -1.34918 0
M  V30 1840 C 173.164 -2.76888 -2.09644 0
M  V30 1841 C 172.118 -3.88669 -1.79221 0
M  V30 1842 C 171.444 -4.34541 -3.11574 0
M  V30 1843 C 172.744 -5.11251 -1.06864 0
M  V30 1844 H 174.438 -2.97489 -0.337774 0
M  V30 1845 H 171.984 -1.43097 -0.161025 0
M  V30 1846 H 173.937 -3.17904 -2.76614 0
M  V30 1847 H 172.661 -1.94451 -2.62405 0
M  V30 1848 H 171.32 -3.48213 -1.14644 0
M  V30 1849 H 170.968 -3.48977 -3.62249 0
M  V30 1850 H 170.668 -5.09914 -2.91996 0
M  V30 1851 H 172.192 -4.782 -3.7968 0
M  V30 1852 H 173.606 -5.49352 -1.63968 0
M  V30 1853 H 172.003 -5.9214 -0.974178 0
M  V30 1854 H 173.073 -4.8487 -0.0536168 0
M  V30 1855 N 174.416 0.165178 -1.56732 0
M  V30 1856 C 175.665 0.879143 -1.81532 0
M  V30 1857 C 175.978 1.83144 -0.686842 0
M  V30 1858 O 177.184 2.58823 -0.819944 0
M  V30 1859 C 175.64 1.61388 -3.21686 0
M  V30 1860 C 175.248 0.704904 -4.4242 0
M  V30 1861 C 176.992 2.3157 -3.55774 0
M  V30 1862 C 174.899 1.44022 -5.73595 0
M  V30 1863 H 173.829 0.332033 -0.676957 0
M  V30 1864 H 176.48 0.132008 -1.83025 0
M  V30 1865 H 174.862 2.40599 -3.14529 0
M  V30 1866 H 176.036 -0.0506815 -4.60772 0
M  V30 1867 H 174.351 0.112419 -4.16248 0
M  V30 1868 H 176.948 2.8719 -4.51028 0
M  V30 1869 H 177.291 3.07201 -2.8095 0
M  V30 1870 H 177.824 1.59297 -3.64513 0
M  V30 1871 H 174.563 0.72612 -6.51466 0
M  V30 1872 H 174.083 2.16898 -5.5921 0
M  V30 1873 H 175.762 1.98606 -6.15764 0
M  V30 1874 N 175.894 1.51508 0.433938 0
M  V30 1875 C 177.14 1.64588 1.18484 0
M  V30 1876 C 177.473 0.362666 1.90784 0
M  V30 1877 O 176.748 -0.637892 1.83742 0
M  V30 1878 C 177.031 2.85149 2.19913 0
M  V30 1879 C 176.884 4.23456 1.51674 0
M  V30 1880 C 178.203 3.01227 3.20858 0
M  V30 1881 H 175.322 0.598994 0.429389 0
M  V30 1882 H 177.964 1.84002 0.473647 0
M  V30 1883 H 176.114 2.68729 2.80566 0
M  V30 1884 H 177.786 4.51552 0.943322 0
M  V30 1885 H 176.029 4.25998 0.819035 0
M  V30 1886 H 176.7 5.03812 2.2556 0
M  V30 1887 H 179.176 3.16382 2.70263 0
M  V30 1888 H 178.052 3.87141 3.89118 0
M  V30 1889 H 178.313 2.13447 3.8716 0
M  V30 1890 N 177.372 -0.689602 1.41712 0
M  V30 1891 C 178.618 -1.45181 1.41599 0
M  V30 1892 C 178.951 -1.94181 0.0270081 0
M  V30 1893 O 178.226 -1.6993 -0.946265 0
M  V30 1894 C 178.509 -2.65945 2.42787 0
M  V30 1895 C 178.362 -2.22672 3.90816 0
M  V30 1896 C 179.681 -3.68149 2.41151 0
M  V30 1897 H 176.8 -0.526576 0.515642 0
M  V30 1898 H 179.442 -0.784947 1.73028 0
M  V30 1899 H 177.592 -3.2284 2.16116 0
M  V30 1900 H 179.264 -1.71058 4.28412 0
M  V30 1901 H 177.507 -1.54394 4.05395 0
M  V30 1902 H 178.178 -3.0935 4.57172 0
M  V30 1903 H 180.654 -3.2094 2.64834 0
M  V30 1904 H 179.53 -4.50248 3.13955 0
M  V30 1905 H 179.791 -4.18259 1.43221 0
M  V30 1906 N 178.85 -1.27639 -0.924453 0
M  V30 1907 C 179.76 -1.12466 -2.05885 0
M  V30 1908 C 180.776 -0.053869 -1.73917 0
M  V30 1909 O 181.952 -0.261012 -1.99702 0
M  V30 1910 C 179.017 -0.776768 -3.37886 0
M  V30 1911 C 178.078 -1.92878 -3.83532 0
M  V30 1912 C 177.311 -1.59739 -5.09234 0
M  V30 1913 O 177.534 -0.506782 -5.68144 0
M  V30 1914 O 176.468 -2.43761 -5.50331 0
M  V30 1915 H 180.294 -2.07671 -2.21599 0
M  V30 1916 H 177.879 -1.06857 -1.04413 0
M  V30 1917 H 179.761 -0.596229 -4.17161 0
M  V30 1918 H 178.436 0.145732 -3.23372 0
M  V30 1919 H 177.343 -2.1644 -3.0513 0
M  V30 1920 H 178.676 -2.8316 -4.02593 0
M  V30 1921 N 180.328 1.1314 -1.09713 0
M  V30 1922 C 181.275 2.18642 -0.739196 0
M  V30 1923 C 182.245 1.63706 0.280978 0
M  V30 1924 O 183.43 1.90111 0.161946 0
M  V30 1925 C 180.57 3.44685 -0.169102 0
M  V30 1926 C 179.683 4.13711 -1.24367 0
M  V30 1927 C 178.818 5.27379 -0.636019 0
M  V30 1928 C 177.857 5.88259 -1.69169 0
M  V30 1929 N 176.994 6.93352 -1.10485 0
M  V30 1930 H 181.834 2.48607 -1.64312 0
M  V30 1931 H 179.371 1.22066 -0.820875 0
M  V30 1932 H 181.329 4.16815 0.179256 0
M  V30 1933 H 179.959 3.15161 0.698079 0
M  V30 1934 H 179.011 3.39835 -1.70927 0
M  V30 1935 H 180.323 4.55037 -2.04311 0
M  V30 1936 H 179.477 6.06238 -0.236677 0
M  V30 1937 H 178.216 4.8731 0.194928 0
M  V30 1938 H 177.221 5.08092 -2.10055 0
M  V30 1939 H 178.446 6.30399 -2.52536 0
M  V30 1940 H 176.392 6.55335 -0.295234 0
M  V30 1941 H 176.309 7.33236 -1.84121 0
M  V30 1942 H 177.577 7.76057 -0.73181 0
M  V30 1943 N 181.806 0.884767 1.30421 0
M  V30 1944 C 183.053 0.503105 1.96151 0
M  V30 1945 C 183.381 -0.947676 1.69851 0
M  V30 1946 O 182.636 -1.68467 0.995861 0
M  V30 1947 C 182.935 0.724318 3.49983 0
M  V30 1948 C 182.601 2.15015 3.96332 0
M  V30 1949 C 181.263 2.54005 4.08699 0
M  V30 1950 C 183.615 3.07936 4.20505 0
M  V30 1951 C 180.943 3.85128 4.42599 0
M  V30 1952 C 183.295 4.3859 4.55874 0
M  V30 1953 C 181.959 4.77474 4.66449 0
M  V30 1954 H 181.229 0.184099 0.717766 0
M  V30 1955 H 183.876 1.12058 1.55291 0
M  V30 1956 H 182.181 0.0238086 3.91793 0
M  V30 1957 H 183.878 0.408617 3.98913 0
M  V30 1958 H 180.468 1.8375 3.87213 0
M  V30 1959 H 184.652 2.79033 4.10431 0
M  V30 1960 H 179.908 4.14996 4.48986 0
M  V30 1961 H 184.082 5.10629 4.7353 0
M  V30 1962 H 181.709 5.79115 4.92473 0
M  V30 1963 N 183.284 -1.43765 0.645699 0
M  V30 1964 C 184.509 -2.06767 0.161883 0
M  V30 1965 C 184.934 -1.48034 -1.16049 0
M  V30 1966 O 184.292 -0.587369 -1.71522 0
M  V30 1967 C 184.34 -3.60519 0.0762003 0
M  V30 1968 O 183.444 -4.00982 -0.963721 0
M  V30 1969 H 182.785 -0.657675 0.091429 0
M  V30 1970 H 185.315 -1.84397 0.886499 0
M  V30 1971 H 185.325 -4.07853 -0.109604 0
M  V30 1972 H 184 -4.02646 1.04157 0
M  V30 1973 H 182.577 -3.65253 -0.751312 0
M  V30 1974 N 184.763 -0.387143 -1.52771 0
M  V30 1975 C 186.009 0.196025 -2.0185 0
M  V30 1976 C 186.342 1.46641 -1.27319 0
M  V30 1977 O 185.617 1.90889 -0.373032 0
M  V30 1978 C 185.9 0.466136 -3.5707 0
M  V30 1979 C 185.753 -0.819385 -4.42274 0
M  V30 1980 C 187.072 1.25768 -4.21747 0
M  V30 1981 H 184.191 0.0697708 -0.73369 0
M  V30 1982 H 186.833 -0.516286 -1.82851 0
M  V30 1983 H 184.983 1.07293 -3.7339 0
M  V30 1984 H 186.655 -1.4563 -4.37709 0
M  V30 1985 H 184.898 -1.43517 -4.09372 0
M  V30 1986 H 185.569 -0.585065 -5.48891 0
M  V30 1987 H 188.045 0.744167 -4.09391 0
M  V30 1988 H 186.921 1.41541 -5.30337 0
M  V30 1989 H 187.182 2.27228 -3.79236 0
M  V30 1990 N 186.241 1.57166 -0.116904 0
M  V30 1991 C 187.151 2.18745 0.847812 0
M  V30 1992 C 188.167 1.163 1.29423 0
M  V30 1993 O 189.343 1.48761 1.35765 0
M  V30 1994 C 186.408 2.77307 2.0809 0
M  V30 1995 C 185.469 3.94781 1.68661 0
M  V30 1996 C 184.702 4.50541 2.86091 0
M  V30 1997 O 184.925 4.05202 4.01456 0
M  V30 1998 O 183.859 5.41256 2.63298 0
M  V30 1999 H 187.685 3.01632 0.353778 0
M  V30 2000 H 185.27 1.49005 0.108599 0
M  V30 2001 H 187.152 3.14647 2.80313 0
M  V30 2002 H 185.827 1.97452 2.56504 0
M  V30 2003 H 184.734 3.62214 0.935518 0
M  V30 2004 H 186.067 4.76065 1.24991 0
M  V30 2005 N 187.719 -0.156864 1.56817 0
M  V30 2006 C 188.682 -1.17781 1.96622 0
M  V30 2007 C 189.682 -1.36401 0.851555 0
M  V30 2008 O 190.872 -1.33561 1.11836 0
M  V30 2009 C 188.004 -2.54008 2.27361 0
M  V30 2010 H 189.197 -0.836564 2.87996 0
M  V30 2011 H 186.75 -0.39985 1.51099 0
M  V30 2012 H 187.485 -2.9312 1.38748 0
M  V30 2013 H 187.27 -2.41856 3.08623 0
M  V30 2014 H 188.76 -3.27558 2.59029 0
M  V30 2015 N 189.197 -1.51736 -0.425897 0
M  V30 2016 C 190.608 -1.5732 -1.00536 0
M  V30 2017 C 190.959 -0.403537 -1.92005 0
M  V30 2018 O 190.084 0.478256 -2.11049 0
M  V30 2019 C 190.679 -2.85119 -1.8301 0
M  V30 2020 C 189.238 -2.93236 -2.35987 0
M  V30 2021 C 188.385 -2.52098 -1.15508 0
M  V30 2022 H 191.336 -1.57348 -0.206739 0
M  V30 2023 H 191.357 -2.69526 -2.68581 0
M  V30 2024 H 190.869 -3.7023 -1.16411 0
M  V30 2025 H 188.97 -2.12581 -3.06007 0
M  V30 2026 H 189.083 -3.9713 -2.68001 0
M  V30 2027 H 187.447 -2.05558 -1.50393 0
M  V30 2028 H 188.23 -3.39565 -0.505014 0
M  V30 2029 N 190.675 0.682077 -1.42076 0
M  V30 2030 C 191.622 1.79578 -1.44984 0
M  V30 2031 C 192.592 1.6332 -0.302614 0
M  V30 2032 O 193.777 1.83978 -0.505633 0
M  V30 2033 C 190.917 3.1756 -1.35091 0
M  V30 2034 C 190.03 3.45156 -2.59791 0
M  V30 2035 C 189.165 4.72826 -2.42093 0
M  V30 2036 C 188.204 4.93433 -3.62202 0
M  V30 2037 N 187.341 6.12338 -3.43491 0
M  V30 2038 H 192.181 1.76427 -2.40161 0
M  V30 2039 H 189.718 0.861376 -1.19242 0
M  V30 2040 H 191.676 3.97287 -1.27354 0
M  V30 2041 H 190.306 3.19854 -0.435133 0
M  V30 2042 H 189.358 2.59736 -2.77923 0
M  V30 2043 H 190.67 3.5628 -3.49094 0
M  V30 2044 H 189.824 5.60631 -2.319 0
M  V30 2045 H 188.563 4.63973 -1.50268 0
M  V30 2046 H 187.568 4.04073 -3.72834 0
M  V30 2047 H 188.793 5.04136 -4.54998 0
M  V30 2048 H 186.739 6.04672 -2.54377 0
M  V30 2049 H 186.656 6.2429 -4.26377 0
M  V30 2050 H 187.924 7.02841 -3.37097 0
M  V30 2051 N 192.153 1.28127 0.917671 0
M  V30 2052 C 193.381 1.17892 1.70026 0
M  V30 2053 C 193.796 -0.262958 1.8696 0
M  V30 2054 O 193.153 -1.17811 1.3938 0
M  V30 2055 C 193.204 1.86872 3.09453 0
M  V30 2056 O 192.925 3.25428 2.93306 0
M  V30 2057 C 194.426 1.8289 4.03815 0
M  V30 2058 H 191.646 0.40942 0.531617 0
M  V30 2059 H 194.19 1.69181 1.14883 0
M  V30 2060 H 192.345 1.39464 3.61426 0
M  V30 2061 H 192.759 3.59918 3.81523 0
M  V30 2062 H 194.233 2.35751 4.99125 0
M  V30 2063 H 194.71 0.800412 4.31845 0
M  V30 2064 H 195.316 2.29959 3.57769 0
M  V30 2065 N 193.631 -1.12557 1.10312 0
M  V30 2066 C 194.578 -2.18247 0.750781 0
M  V30 2067 C 195.548 -1.63853 -0.272293 0
M  V30 2068 O 196.733 -1.90195 -0.151862 0
M  V30 2069 C 193.873 -3.44591 0.187379 0
M  V30 2070 C 192.986 -4.13046 1.2656 0
M  V30 2071 C 192.121 -5.27034 0.663978 0
M  V30 2072 C 191.16 -5.87353 1.72287 0
M  V30 2073 N 190.297 -6.92757 1.1416 0
M  V30 2074 H 195.137 -2.47732 1.65628 0
M  V30 2075 H 192.674 -1.21629 0.827337 0
M  V30 2076 H 194.632 -4.16904 -0.157148 0
M  V30 2077 H 193.262 -3.15527 -0.681355 0
M  V30 2078 H 192.314 -3.38924 1.72727 0
M  V30 2079 H 193.626 -4.53947 2.06721 0
M  V30 2080 H 192.78 -6.06104 0.268824 0
M  V30 2081 H 191.519 -4.87407 -0.169082 0
M  V30 2082 H 190.524 -5.06971 2.12746 0
M  V30 2083 H 191.749 -6.29051 2.55875 0
M  V30 2084 H 189.695 -6.5517 0.329984 0
M  V30 2085 H 189.612 -7.3225 1.88007 0
M  V30 2086 H 190.88 -7.75658 0.772956 0
M  V30 2087 N 195.109 -0.891671 -1.2995 0
M  V30 2088 C 196.039 -0.379797 -2.30391 0
M  V30 2089 C 197.02 0.540919 -1.6127 0
M  V30 2090 O 198.205 0.453352 -1.88834 0
M  V30 2091 C 195.335 0.400654 -3.44981 0
M  V30 2092 C 194.289 -0.428905 -4.25846 0
M  V30 2093 C 193.615 0.478557 -5.32554 0
M  V30 2094 C 194.915 -1.67458 -4.94727 0
M  V30 2095 H 196.609 -1.21914 -2.73454 0
M  V30 2096 H 194.155 -0.587675 -1.31462 0
M  V30 2097 H 196.108 0.769434 -4.14316 0
M  V30 2098 H 194.832 1.27371 -3.0074 0
M  V30 2099 H 193.491 -0.779911 -3.58208 0
M  V30 2100 H 193.139 1.34951 -4.84559 0
M  V30 2101 H 192.839 -0.0727433 -5.87555 0
M  V30 2102 H 194.363 0.843705 -6.04743 0
M  V30 2103 H 195.777 -1.376 -5.56542 0
M  V30 2104 H 194.174 -2.16659 -5.59624 0
M  V30 2105 H 195.244 -2.41518 -4.20473 0
M  V30 2106 N 196.587 1.43421 -0.653314 0
M  V30 2107 C 197.517 2.33487 0.0246656 0
M  V30 2108 C 198.498 1.49475 0.811863 0
M  V30 2109 O 199.683 1.78139 0.773322 0
M  V30 2110 C 196.813 3.32841 0.99166 0
M  V30 2111 C 195.767 4.26842 0.314568 0
M  V30 2112 C 195.093 5.16236 1.39302 0
M  V30 2113 C 196.393 5.16243 -0.793095 0
M  V30 2114 H 198.087 2.90427 -0.727481 0
M  V30 2115 H 195.633 1.39649 -0.351287 0
M  V30 2116 H 197.586 3.94747 1.47487 0
M  V30 2117 H 196.31 2.74158 1.77497 0
M  V30 2118 H 194.969 3.663 -0.148199 0
M  V30 2119 H 194.617 4.53891 2.16776 0
M  V30 2120 H 194.317 5.79948 0.945223 0
M  V30 2121 H 195.841 5.81015 1.87759 0
M  V30 2122 H 197.255 5.71958 -0.392039 0
M  V30 2123 H 195.652 5.88676 -1.16536 0
M  V30 2124 H 196.722 4.55927 -1.65103 0
M  V30 2125 N 198.065 0.39524 1.52563 0
M  V30 2126 C 199.028 -0.425001 2.25225 0
M  V30 2127 C 200.028 -0.985266 1.27079 0
M  V30 2128 O 201.218 -0.866332 1.5113 0
M  V30 2129 C 198.35 -1.59686 3.01186 0
M  V30 2130 H 199.543 0.211233 2.99155 0
M  V30 2131 H 197.096 0.147472 1.55603 0
M  V30 2132 H 197.831 -2.27035 2.31572 0
M  V30 2133 H 197.616 -1.20176 3.73229 0
M  V30 2134 H 199.106 -2.17743 3.5634 0
M  V30 2135 N 199.544 -1.57102 0.125237 0
M  V30 2136 C 200.476 -2.12726 -0.853237 0
M  V30 2137 C 201.489 -1.07145 -1.22571 0
M  V30 2138 O 202.678 -1.34497 -1.17358 0
M  V30 2139 C 199.778 -2.61709 -2.15317 0
M  V30 2140 C 198.951 -3.91456 -1.95143 0
M  V30 2141 C 198.01 -4.25973 -3.08923 0
M  V30 2142 O 197.036 -4.94682 -2.81564 0
M  V30 2143 N 198.238 -3.83795 -4.35524 0
M  V30 2144 H 201.003 -2.97307 -0.377964 0
M  V30 2145 H 198.564 -1.61792 -0.0590011 0
M  V30 2146 H 200.556 -2.81826 -2.90441 0
M  V30 2147 H 199.126 -1.81974 -2.54174 0
M  V30 2148 H 198.346 -3.80185 -1.04177 0
M  V30 2149 H 199.634 -4.76283 -1.78976 0
M  V30 2150 H 199.032 -3.2839 -4.60626 0
M  V30 2151 H 197.589 -4.09008 -5.07499 0
M  V30 2152 N 201.022 0.148545 -1.56898 0
M  V30 2153 C 201.969 1.18345 -1.98149 0
M  V30 2154 C 202.939 1.42772 -0.848848 0
M  V30 2155 O 204.124 1.55132 -1.11079 0
M  V30 2156 C 201.264 2.51231 -2.36594 0
M  V30 2157 C 200.377 2.33991 -3.63142 0
M  V30 2158 C 199.512 3.59902 -3.90697 0
M  V30 2159 C 198.551 3.37692 -5.1052 0
M  V30 2160 N 197.688 4.5573 -5.34092 0
M  V30 2161 H 202.528 0.82467 -2.86362 0
M  V30 2162 H 200.065 0.395756 -1.41676 0
M  V30 2163 H 202.023 3.28713 -2.56912 0
M  V30 2164 H 200.653 2.85059 -1.51463 0
M  V30 2165 H 199.705 1.47572 -3.50609 0
M  V30 2166 H 201.017 2.13539 -4.5078 0
M  V30 2167 H 200.171 4.45813 -4.11505 0
M  V30 2168 H 198.91 3.83357 -3.01477 0
M  V30 2169 H 197.915 2.5017 -4.89587 0
M  V30 2170 H 199.14 3.15637 -6.0129 0
M  V30 2171 H 197.086 4.79361 -4.47827 0
M  V30 2172 H 197.003 4.38274 -6.15996 0
M  V30 2173 H 198.271 5.42858 -5.59397 0
M  V30 2174 N 202.5 1.5196 0.417844 0
M  V30 2175 C 203.43 1.77634 1.51554 0
M  V30 2176 C 204.411 0.626918 1.58126 0
M  V30 2177 O 205.596 0.871632 1.7354 0
M  V30 2178 C 202.726 1.91911 2.8946 0
M  V30 2179 C 201.68 3.07463 2.97743 0
M  V30 2180 C 201.006 3.06951 4.37819 0
M  V30 2181 C 202.306 4.47082 2.70027 0
M  V30 2182 H 204 2.6955 1.3032 0
M  V30 2183 H 201.546 1.29706 0.625492 0
M  V30 2184 H 203.499 2.08455 3.6623 0
M  V30 2185 H 202.223 0.966598 3.11969 0
M  V30 2186 H 200.882 2.90656 2.23416 0
M  V30 2187 H 200.53 2.09438 4.57323 0
M  V30 2188 H 200.23 3.84556 4.44286 0
M  V30 2189 H 201.754 3.25613 5.16535 0
M  V30 2190 H 203.168 4.6414 3.36522 0
M  V30 2191 H 201.565 5.2654 2.87881 0
M  V30 2192 H 202.635 4.55777 1.65514 0
M  V30 2193 N 203.978 -0.674533 1.42435 0
M  V30 2194 C 204.925 -1.78807 1.45934 0
M  V30 2195 C 205.895 -1.63157 0.311271 0
M  V30 2196 O 207.08 -1.83707 0.515383 0
M  V30 2197 C 204.22 -3.16839 1.36773 0
M  V30 2198 C 203.333 -3.43774 2.61617 0
M  V30 2199 C 202.468 -4.71536 2.44597 0
M  V30 2200 C 201.507 -4.91505 3.64814 0
M  V30 2201 N 200.644 -6.10508 3.46734 0
M  V30 2202 H 205.484 -1.75151 2.41093 0
M  V30 2203 H 203.021 -0.85504 1.19697 0
M  V30 2204 H 204.979 -3.96606 1.29459 0
M  V30 2205 H 203.609 -3.19619 0.452089 0
M  V30 2206 H 202.661 -2.58259 2.79297 0
M  V30 2207 H 203.973 -3.54423 3.50978 0
M  V30 2208 H 203.127 -5.59393 2.3487 0
M  V30 2209 H 201.866 -4.6317 1.52726 0
M  V30 2210 H 200.871 -4.0209 3.74972 0
M  V30 2211 H 202.096 -5.01716 4.57665 0
M  V30 2212 H 200.042 -6.03315 2.5758 0
M  V30 2213 H 199.959 -6.2202 4.29682 0
M  V30 2214 H 201.227 -7.01044 3.40819 0
M  V30 2215 N 205.456 -1.28612 -0.910864 0
M  V30 2216 C 206.733 -1.06632 -1.63979 0
M  V30 2217 C 207.113 0.393351 -2.07403 0
M  V30 2218 O 206.461 1.37999 -1.82122 0
M  V30 2219 C 206.671 -2.0436 -2.8291 0
M  V30 2220 C 208.019 -2.34666 -3.5386 0
M  V30 2221 O 209.043 -2.02467 -2.93062 0
M  V30 2222 O 207.902 -2.89631 -4.63439 0
M  V30 2223 H 204.996 -0.407737 -0.7195 0
M  V30 2224 H 207.542 -1.39942 -0.959914 0
M  V30 2225 H 206.314 -3.02727 -2.47936 0
M  V30 2226 H 205.937 -1.71714 -3.58609 0
M  V30 2227 N 206.934 1.1197 -1.10907 0
M  V30 2228 C 207.867 2.16998 -0.706192 0
M  V30 2229 C 208.845 1.59903 0.294897 0
M  V30 2230 O 210.029 1.87513 0.192636 0
M  V30 2231 C 207.156 3.38673 -0.0427664 0
M  V30 2232 C 206.202 4.14414 -1.00811 0
M  V30 2233 S 207.035 4.72079 -2.52789 0
M  V30 2234 C 208.191 5.97083 -1.87731 0
M  V30 2235 H 208.424 2.50837 -1.59587 0
M  V30 2236 H 205.957 1.23508 -0.926555 0
M  V30 2237 H 207.915 4.09142 0.333668 0
M  V30 2238 H 206.576 3.03105 0.823788 0
M  V30 2239 H 205.769 5.016 -0.491259 0
M  V30 2240 H 205.371 3.49678 -1.3267 0
M  V30 2241 H 207.663 6.66599 -1.21044 0
M  V30 2242 H 208.606 6.53403 -2.72892 0
M  V30 2243 H 209.014 5.4837 -1.33979 0
M  V30 2244 N 208.412 0.89855 1.29475 0
M  V30 2245 C 209.375 0.380272 2.26023 0
M  V30 2246 C 210.375 -0.484891 1.53315 0
M  V30 2247 O 211.565 -0.290108 1.71767 0
M  V30 2248 C 208.697 -0.45651 3.3783 0
M  V30 2249 H 209.89 1.23295 2.73383 0
M  V30 2250 H 207.443 0.676589 1.40897 0
M  V30 2251 H 208.178 -1.32922 2.95808 0
M  V30 2252 H 207.963 0.163393 3.91759 0
M  V30 2253 H 209.453 -0.810466 4.0966 0
M  V30 2254 N 209.89 -1.43072 0.660911 0
M  V30 2255 C 210.82 -2.33497 -0.0122829 0
M  V30 2256 C 211.801 -1.49903 -0.803925 0
M  V30 2257 O 212.986 -1.78546 -0.763864 0
M  V30 2258 C 210.116 -3.33363 -0.973994 0
M  V30 2259 C 209.07 -4.27003 -0.291928 0
M  V30 2260 C 208.396 -5.16967 -1.36562 0
M  V30 2261 C 209.696 -5.15816 0.820462 0
M  V30 2262 H 211.39 -2.90038 0.742873 0
M  V30 2263 H 208.936 -1.39461 0.358688 0
M  V30 2264 H 210.889 -3.95524 -1.45392 0
M  V30 2265 H 209.613 -2.75095 -1.7604 0
M  V30 2266 H 208.272 -3.66217 0.167623 0
M  V30 2267 H 207.92 -4.55034 -2.14366 0
M  V30 2268 H 207.62 -5.80441 -0.914454 0
M  V30 2269 H 209.144 -5.82003 -1.84675 0
M  V30 2270 H 210.558 -5.71742 0.422366 0
M  V30 2271 H 208.955 -5.8805 1.19656 0
M  V30 2272 H 210.025 -4.55045 1.67518 0
M  V30 2273 N 211.368 -0.403325 -1.52352 0
M  V30 2274 C 212.278 0.432009 -2.30588 0
M  V30 2275 C 213.294 1.05884 -1.38075 0
M  V30 2276 O 214.47 1.06161 -1.71148 0
M  V30 2277 C 211.535 1.53669 -3.10784 0
M  V30 2278 C 210.596 0.933525 -4.19027 0
M  V30 2279 C 209.829 1.98557 -4.9539 0
M  V30 2280 O 210.052 3.20283 -4.71991 0
M  V30 2281 O 208.986 1.59504 -5.80381 0
M  V30 2282 H 212.812 -0.205739 -3.03002 0
M  V30 2283 H 210.397 -0.166675 -1.48467 0
M  V30 2284 H 212.279 2.17814 -3.60742 0
M  V30 2285 H 210.954 2.15915 -2.41169 0
M  V30 2286 H 209.861 0.254954 -3.7323 0
M  V30 2287 H 211.194 0.35508 -4.90918 0
M  V30 2288 N 212.846 1.57033 -0.133567 0
M  V30 2289 C 214.123 1.87256 0.56522 0
M  V30 2290 C 214.503 1.03726 1.83859 0
M  V30 2291 O 213.851 0.120247 2.28183 0
M  V30 2292 C 214.061 3.3865 0.843636 0
M  V30 2293 C 215.409 4.07574 1.19032 0
M  V30 2294 O 216.433 3.43752 0.933429 0
M  V30 2295 O 215.292 5.20259 1.67312 0
M  V30 2296 H 212.386 0.775678 0.286796 0
M  V30 2297 H 214.932 1.68855 -0.169168 0
M  V30 2298 H 213.704 3.91257 -0.0581149 0
M  V30 2299 H 213.327 3.62532 1.63268 0
M  V30 2300 N 214.325 -0.140222 1.56975 0
M  V30 2301 C 215.571 -0.852949 1.83991 0
M  V30 2302 C 215.904 -1.80512 0.716187 0
M  V30 2303 O 215.179 -1.92479 -0.279681 0
M  V30 2304 C 215.462 -1.6215 3.21527 0
M  V30 2305 C 215.315 -0.690363 4.4447 0
M  V30 2306 C 216.634 -2.58247 3.56366 0
M  V30 2307 H 213.753 -0.308634 0.669264 0
M  V30 2308 H 216.395 -0.117898 1.89634 0
M  V30 2309 H 214.545 -2.24812 3.16847 0
M  V30 2310 H 216.217 -0.0742264 4.6124 0
M  V30 2311 H 214.46 -0.000396433 4.338 0
M  V30 2312 H 215.131 -1.2643 5.37326 0
M  V30 2313 H 217.607 -2.05701 3.61699 0
M  V30 2314 H 216.483 -3.09067 4.53617 0
M  V30 2315 H 216.744 -3.39923 2.82674 0
M  V30 2316 N 215.803 -1.52179 -0.40978 0
M  V30 2317 C 216.733 -1.78435 -1.5061 0
M  V30 2318 C 217.714 -0.635295 -1.57791 0
M  V30 2319 O 218.899 -0.880823 -1.73076 0
M  V30 2320 C 216.029 -1.93444 -2.88439 0
M  V30 2321 C 214.983 -3.09038 -2.96108 0
M  V30 2322 C 214.309 -3.09268 -4.36185 0
M  V30 2323 C 215.609 -4.48508 -2.67652 0
M  V30 2324 H 217.303 -2.70237 -1.28889 0
M  V30 2325 H 214.849 -1.30036 -0.618605 0
M  V30 2326 H 216.802 -2.10394 -3.65119 0
M  V30 2327 H 215.526 -0.983129 -3.11452 0
M  V30 2328 H 214.185 -2.91837 -2.21872 0
M  V30 2329 H 213.833 -2.11861 -4.56206 0
M  V30 2330 H 213.533 -3.86907 -4.42241 0
M  V30 2331 H 215.057 -3.28348 -5.14801 0
M  V30 2332 H 216.471 -4.65918 -3.34056 0
M  V30 2333 H 214.868 -5.28059 -2.85085 0
M  V30 2334 H 215.938 -4.56649 -1.63095 0
M  V30 2335 N 217.281 0.66697 -1.42791 0
M  V30 2336 C 218.53 1.42278 -1.42968 0
M  V30 2337 C 218.843 1.9553 -0.0524489 0
M  V30 2338 O 220.049 2.71414 0.068363 0
M  V30 2339 C 218.505 2.57418 -2.51524 0
M  V30 2340 C 218.113 2.10832 -3.9529 0
M  V30 2341 C 219.857 3.34878 -2.60877 0
M  V30 2342 C 217.764 3.23101 -4.95338 0
M  V30 2343 H 216.694 0.534533 -0.531781 0
M  V30 2344 H 219.345 0.721302 -1.68729 0
M  V30 2345 H 217.727 3.29971 -2.18941 0
M  V30 2346 H 218.901 1.4538 -4.37266 0
M  V30 2347 H 217.216 1.46289 -3.89857 0
M  V30 2348 H 219.813 4.18505 -3.32802 0
M  V30 2349 H 220.156 3.81993 -1.6549 0
M  V30 2350 H 220.689 2.69398 -2.92693 0
M  V30 2351 H 217.428 2.80969 -5.9223 0
M  V30 2352 H 216.948 3.87309 -4.57987 0
M  V30 2353 H 218.627 3.88447 -5.17415 0
M  V30 2354 N 218.759 1.29093 0.90403 0
M  V30 2355 C 220.008 1.16187 1.64874 0
M  V30 2356 C 220.321 -0.286742 1.93487 0
M  V30 2357 O 221.527 -0.537062 2.66135 0
M  V30 2358 C 219.983 2.03177 2.97064 0
M  V30 2359 C 219.591 3.52836 2.76062 0
M  V30 2360 C 221.335 1.98984 3.74974 0
M  V30 2361 C 219.242 4.31945 4.03952 0
M  V30 2362 H 218.172 0.431246 0.618501 0
M  V30 2363 H 220.823 1.53699 1.00243 0
M  V30 2364 H 219.205 1.5853 3.62883 0
M  V30 2365 H 220.379 4.05507 2.18863 0
M  V30 2366 H 218.694 3.58656 2.11553 0
M  V30 2367 H 221.291 2.55351 4.69787 0
M  V30 2368 H 221.634 0.968815 4.0487 0
M  V30 2369 H 222.167 2.41652 3.15989 0
M  V30 2370 H 218.906 5.34667 3.79225 0
M  V30 2371 H 218.426 3.84045 4.60727 0
M  V30 2372 H 220.105 4.42379 4.72133 0
M  V30 2373 N 220.237 -1.11381 1.11499 0
M  V30 2374 C 221.465 -1.86934 0.88675 0
M  V30 2375 C 221.88 -1.80195 -0.563476 0
M  V30 2376 O 221.237 -1.18367 -1.38908 0
M  V30 2377 C 221.288 -3.35722 1.34064 0
M  V30 2378 O 221.009 -3.4232 2.73401 0
M  V30 2379 C 222.51 -4.2818 1.14791 0
M  V30 2380 H 219.73 -0.591117 0.317523 0
M  V30 2381 H 222.274 -1.40865 1.48248 0
M  V30 2382 H 220.429 -3.79294 0.788355 0
M  V30 2383 H 220.843 -4.34971 2.93087 0
M  V30 2384 H 222.317 -5.30817 1.5145 0
M  V30 2385 H 222.794 -4.39113 0.0875279 0
M  V30 2386 H 223.4 -3.90402 1.68721 0
M  V30 2387 N 221.715 -0.905404 -1.28997 0
M  V30 2388 C 222.963 -0.533192 -1.9494 0
M  V30 2389 C 223.284 0.924618 -1.71685 0
M  V30 2390 O 222.554 1.65268 -1.05183 0
M  V30 2391 H 221.134 -0.194194 -0.721317 0
M  V30 2392 H 223.796 -1.15294 -1.57141 0
M  V30 2393 H 222.892 -0.72059 -3.03667 0
M  V30 2394 N 223.193 1.4272 -0.668489 0
M  V30 2395 C 224.103 2.34596 0.0139753 0
M  V30 2396 C 225.119 1.5474 0.795703 0
M  V30 2397 O 226.295 1.87334 0.739466 0
M  V30 2398 C 223.36 3.33202 0.957982 0
M  V30 2399 C 222.421 4.28957 0.17149 0
M  V30 2400 C 221.654 5.22853 1.07053 0
M  V30 2401 O 221.877 5.21531 2.31001 0
M  V30 2402 O 220.811 5.9952 0.534727 0
M  V30 2403 H 224.637 2.9448 -0.742661 0
M  V30 2404 H 222.222 1.43117 -0.428705 0
M  V30 2405 H 224.104 3.93796 1.50008 0
M  V30 2406 H 222.779 2.758 1.69458 0
M  V30 2407 H 221.686 3.71796 -0.414558 0
M  V30 2408 H 223.019 4.89383 -0.52586 0
M  V30 2409 N 224.671 0.411399 1.52136 0
M  V30 2410 C 225.601 -0.404015 2.29978 0
M  V30 2411 C 226.582 -1.04412 1.34284 0
M  V30 2412 O 227.767 -1.0527 1.63192 0
M  V30 2413 C 224.897 -1.5197 3.12286 0
M  V30 2414 C 223.851 -1.00448 4.16046 0
M  V30 2415 C 223.177 -2.21393 4.86712 0
M  V30 2416 C 224.477 -0.0569336 5.22269 0
M  V30 2417 H 226.171 0.245529 2.98392 0
M  V30 2418 H 223.717 0.119525 1.43503 0
M  V30 2419 H 225.67 -2.09715 3.6551 0
M  V30 2420 H 224.394 -2.19716 2.41646 0
M  V30 2421 H 223.053 -0.449421 3.63835 0
M  V30 2422 H 222.701 -2.87699 4.12599 0
M  V30 2423 H 222.401 -1.87571 5.56858 0
M  V30 2424 H 223.925 -2.7974 5.4275 0
M  V30 2425 H 225.339 -0.54325 5.7072 0
M  V30 2426 H 223.736 0.192594 5.99791 0
M  V30 2427 H 224.806 0.887663 4.76706 0
M  V30 2428 N 226.149 -1.5696 0.141893 0
M  V30 2429 C 227.426 -1.87553 -0.555281 0
M  V30 2430 C 227.806 -1.04699 -1.83306 0
M  V30 2431 O 227.154 -0.132346 -2.28116 0
M  V30 2432 C 227.364 -3.39093 -0.825664 0
M  V30 2433 C 228.712 -4.08199 -1.16869 0
M  V30 2434 O 229.736 -3.44242 -0.915185 0
M  V30 2435 O 228.595 -5.21139 -1.6455 0
M  V30 2436 H 225.689 -0.777188 -0.282679 0
M  V30 2437 H 228.235 -1.68763 0.17812 0
M  V30 2438 H 227.007 -3.91221 0.0788633 0
M  V30 2439 H 226.63 -3.63393 -1.61343 0
M  V30 2440 N 227.627 0.131896 -1.57047 0
M  V30 2441 C 228.537 1.1815 -2.02676 0
M  V30 2442 C 229.553 1.46113 -0.944824 0
M  V30 2443 O 230.729 1.57485 -1.25541 0
M  V30 2444 C 227.794 2.49139 -2.41103 0
M  V30 2445 C 226.855 2.28688 -3.63318 0
M  V30 2446 C 226.088 3.53431 -3.99903 0
M  V30 2447 O 226.311 4.60223 -3.36973 0
M  V30 2448 O 225.245 3.45198 -4.93074 0
M  V30 2449 H 229.071 0.824069 -2.92306 0
M  V30 2450 H 226.656 0.341745 -1.45439 0
M  V30 2451 H 228.538 3.26338 -2.66611 0
M  V30 2452 H 227.213 2.84382 -1.54624 0
M  V30 2453 H 226.12 1.4939 -3.42977 0
M  V30 2454 H 227.453 1.98355 -4.50462 0
M  V30 2455 N 229.106 1.52395 0.401703 0
M  V30 2456 C 230.054 1.7689 1.51039 0
M  V30 2457 C 231.048 0.636298 1.56996 0
M  V30 2458 O 232.254 0.818507 1.60314 0
M  V30 2459 H 228.629 0.559502 0.502456 0
M  V30 2460 H 230.6 2.69757 1.27568 0
M  V30 2461 C 229.349 1.94331 2.88324 0
M  V30 2462 H 228.672 2.80905 2.84486 0
M  V30 2463 H 230.112 2.15466 3.65172 0
M  V30 2464 C 228.571 0.712396 3.29282 0
M  V30 2465 O 229.101 -0.116218 4.01532 0
M  V30 2466 N 227.307 0.546154 2.85422 0
M  V30 2467 H 226.854 1.22156 2.26794 0
M  V30 2468 H 226.812 -0.276113 3.13185 0
M  V30 2469 N 230.584 -0.659388 1.43143 0
M  V30 2470 C 231.514 -1.78422 1.50625 0
M  V30 2471 C 232.495 -1.66216 0.361443 0
M  V30 2472 O 233.68 -1.85404 0.577834 0
M  V30 2473 C 230.81 -3.16815 1.42287 0
M  V30 2474 C 229.764 -3.43777 2.54954 0
M  V30 2475 C 229.09 -4.81905 2.31671 0
M  V30 2476 C 230.39 -3.39134 3.97222 0
M  V30 2477 H 232.084 -1.72417 2.44771 0
M  V30 2478 H 229.63 -0.828084 1.17808 0
M  V30 2479 H 231.583 -3.95253 1.46127 0
M  V30 2480 H 230.307 -3.23534 0.446435 0
M  V30 2481 H 228.966 -2.67707 2.50457 0
M  V30 2482 H 228.614 -4.85294 1.32284 0
M  V30 2483 H 228.314 -5.00906 3.07192 0
M  V30 2484 H 229.838 -5.62609 2.37284 0
M  V30 2485 H 231.252 -4.07518 4.03239 0
M  V30 2486 H 229.649 -3.69671 4.72719 0
M  V30 2487 H 230.719 -2.37426 4.22797 0
M  V30 2488 N 232.062 -1.29571 -0.897171 0
M  V30 2489 C 233.309 -1.17689 -1.6479 0
M  V30 2490 C 233.637 0.27107 -1.92602 0
M  V30 2491 O 232.892 1.21193 -1.53658 0
M  V30 2492 C 233.191 -1.9382 -3.00281 0
M  V30 2493 C 232.857 -3.43522 -2.92068 0
M  V30 2494 C 231.519 -3.84348 -2.89535 0
M  V30 2495 C 233.871 -4.38906 -2.81089 0
M  V30 2496 C 231.199 -5.18869 -2.73846 0
M  V30 2497 C 233.551 -5.73521 -2.66939 0
M  V30 2498 C 232.215 -6.13601 -2.62774 0
M  V30 2499 H 231.485 -0.430654 -0.603008 0
M  V30 2500 H 234.132 -1.60536 -1.04404 0
M  V30 2501 H 232.437 -1.4357 -3.64547 0
M  V30 2502 H 234.134 -1.82028 -3.57305 0
M  V30 2503 H 230.724 -3.11072 -2.94842 0
M  V30 2504 H 234.908 -4.08315 -2.82121 0
M  V30 2505 H 230.164 -5.4903 -2.69027 0
M  V30 2506 H 234.338 -6.47078 -2.57416 0
M  V30 2507 H 231.965 -7.17786 -2.50375 0
M  V30 2508 N 233.54 1.10788 -1.12088 0
M  V30 2509 C 234.47 2.19083 -0.807755 0
M  V30 2510 C 235.451 1.6858 0.226859 0
M  V30 2511 O 236.636 1.93997 0.0888475 0
M  V30 2512 C 233.766 3.46344 -0.257576 0
M  V30 2513 C 232.72 4.101 -1.22483 0
M  V30 2514 C 232.046 5.32016 -0.535052 0
M  V30 2515 C 233.346 4.54236 -2.57811 0
M  V30 2516 H 235.04 2.45534 -1.71328 0
M  V30 2517 H 232.586 1.1801 -0.825205 0
M  V30 2518 H 234.539 4.21392 -0.0262679 0
M  V30 2519 H 233.263 3.19373 0.683278 0
M  V30 2520 H 231.922 3.37054 -1.44189 0
M  V30 2521 H 231.57 5.01319 0.410827 0
M  V30 2522 H 231.27 5.75625 -1.18024 0
M  V30 2523 H 232.794 6.09799 -0.312695 0
M  V30 2524 H 234.208 5.20575 -2.40155 0
M  V30 2525 H 232.605 5.08682 -3.18375 0
M  V30 2526 H 233.675 3.6734 -3.16528 0
M  V30 2527 N 235.018 0.912232 1.28515 0
M  V30 2528 C 235.981 0.404223 2.25607 0
M  V30 2529 C 236.981 -0.468602 1.53821 0
M  V30 2530 O 238.171 -0.271873 1.72065 0
M  V30 2531 C 235.303 -0.420653 3.38295 0
M  V30 2532 H 236.496 1.26188 2.7206 0
M  V30 2533 H 234.049 0.691495 1.40171 0
M  V30 2534 H 234.784 -1.29777 2.97201 0
M  V30 2535 H 234.569 0.204935 3.91564 0
M  V30 2536 H 236.059 -0.766971 4.10496 0
M  V30 2537 N 236.496 -1.42363 0.676048 0
M  V30 2538 C 237.459 -2.29199 0.00766941 0
M  V30 2539 C 238.459 -1.43389 -0.727745 0
M  V30 2540 O 239.649 -1.64764 -0.56556 0
M  V30 2541 C 236.781 -3.2591 -0.999785 0
M  V30 2542 H 237.974 -2.89794 0.771988 0
M  V30 2543 H 235.527 -1.50024 0.438468 0
M  V30 2544 H 236.262 -2.70256 -1.79255 0
M  V30 2545 H 236.047 -3.89202 -0.475829 0
M  V30 2546 H 237.537 -3.91028 -1.46583 0
M  V30 2547 N 237.974 -0.419461 -1.51915 0
M  V30 2548 C 239.39 -0.0708431 -1.59443 0
M  V30 2549 C 239.59 1.41796 -1.43164 0
M  V30 2550 O 238.646 2.18596 -1.26381 0
M  V30 2551 C 239.959 -0.574991 -2.95151 0
M  V30 2552 C 241.507 -0.533867 -3.08413 0
M  V30 2553 C 241.982 -1.01469 -4.46618 0
M  V30 2554 N 243.473 -0.971939 -4.52888 0
M  V30 2555 C 244.208 -1.31505 -5.58116 0
M  V30 2556 N 243.704 -1.73014 -6.70849 0
M  V30 2557 N 245.497 -1.23436 -5.48379 0
M  V30 2558 H 237.648 -1.38836 -1.60743 0
M  V30 2559 H 239.911 -0.570998 -0.756747 0
M  V30 2560 H 239.617 -1.61597 -3.12377 0
M  V30 2561 H 239.491 0.00979777 -3.77199 0
M  V30 2562 H 241.878 0.498086 -2.90866 0
M  V30 2563 H 241.959 -1.15484 -2.28248 0
M  V30 2564 H 241.603 -2.04502 -4.6491 0
M  V30 2565 H 241.533 -0.370433 -5.25295 0
M  V30 2566 H 244.024 -0.666893 -3.71969 0
M  V30 2567 H 244.337 -1.97479 -7.47143 0
M  V30 2568 H 242.682 -1.76926 -6.72103 0
M  V30 2569 H 245.873 -0.908869 -4.59192 0
M  V30 2570 H 246.046 -1.50506 -6.30279 0
M  V30 2571 N 239.452 1.56882 -0.150215 0
M  V30 2572 C 240.4 2.18214 0.805313 0
M  V30 2573 C 241.394 1.14006 1.25296 0
M  V30 2574 O 242.6 1.3225 1.22107 0
M  V30 2575 H 238.975 0.698762 0.277913 0
M  V30 2576 H 240.946 2.97231 0.263862 0
M  V30 2577 C 239.695 2.82065 2.03309 0
M  V30 2578 H 239.018 3.61968 1.69763 0
M  V30 2579 H 240.458 3.28477 2.68103 0
M  V30 2580 C 238.917 1.80739 2.84315 0
M  V30 2581 O 239.447 1.27983 3.80767 0
M  V30 2582 N 237.653 1.4997 2.48913 0
M  V30 2583 H 237.2 1.93062 1.70542 0
M  V30 2584 H 237.158 0.824217 3.03404 0
M  V30 2585 N 240.93 -0.123565 1.57115 0
M  V30 2586 C 241.86 -1.15309 2.03042 0
M  V30 2587 C 242.841 -1.43454 0.914061 0
M  V30 2588 O 244.026 -1.53973 1.18347 0
M  V30 2589 C 241.156 -2.48043 2.43089 0
M  V30 2590 C 240.11 -2.3437 3.58127 0
M  V30 2591 C 239.436 -3.72026 3.84059 0
M  V30 2592 C 240.736 -1.80804 4.90007 0
M  V30 2593 H 242.43 -0.771102 2.893 0
M  V30 2594 H 239.976 -0.369479 1.39179 0
M  V30 2595 H 241.929 -3.20311 2.73823 0
M  V30 2596 H 240.653 -2.88122 1.53796 0
M  V30 2597 H 239.312 -1.64551 3.27595 0
M  V30 2598 H 238.96 -4.09582 2.91979 0
M  V30 2599 H 238.66 -3.63732 4.6149 0
M  V30 2600 H 240.184 -4.45806 4.1724 0
M  V30 2601 H 241.598 -2.42886 5.19307 0
M  V30 2602 H 239.995 -1.83343 5.71407 0
M  V30 2603 H 241.065 -0.76528 4.78823 0
M  V30 2604 N 242.408 -1.52605 -0.393616 0
M  V30 2605 C 243.358 -1.73436 -1.48 0
M  V30 2606 C 244.342 -0.588386 -1.49756 0
M  V30 2607 O 245.534 -0.846047 -1.5547 0
M  V30 2608 C 242.663 -1.90247 -2.85764 0
M  V30 2609 C 241.749 -3.10763 -2.88595 0
M  V30 2610 N 242.14 -4.33196 -2.61103 0
M  V30 2611 C 240.438 -3.10914 -3.19763 0
M  V30 2612 C 241.139 -5.1477 -2.70899 0
M  V30 2613 N 240.115 -4.50356 -3.04435 0
M  V30 2614 H 243.917 -2.65727 -1.25563 0
M  V30 2615 H 241.431 -1.5085 -0.601513 0
M  V30 2616 H 243.428 -2.03291 -3.63976 0
M  V30 2617 H 242.088 -0.991663 -3.09186 0
M  V30 2618 H 243.099 -4.61408 -2.35209 0
M  V30 2619 H 239.776 -2.29626 -3.4868 0
M  V30 2620 H 241.166 -6.22355 -2.53227 0
M  V30 2621 N 243.887 0.651787 -1.4349 0
M  V30 2622 C 244.834 1.76462 -1.4876 0
M  V30 2623 C 245.804 1.62641 -0.337189 0
M  V30 2624 O 246.989 1.82864 -0.544544 0
M  V30 2625 C 244.129 3.14623 -1.41796 0
M  V30 2626 C 243.242 3.39568 -2.67053 0
M  V30 2627 C 242.377 4.67585 -2.52068 0
M  V30 2628 C 241.416 4.85639 -3.72587 0
M  V30 2629 N 240.553 6.04915 -3.56402 0
M  V30 2630 H 245.393 1.71293 -2.43849 0
M  V30 2631 H 242.93 0.835889 -1.21043 0
M  V30 2632 H 244.888 3.94496 -1.35753 0
M  V30 2633 H 243.518 3.18859 -0.50288 0
M  V30 2634 H 242.57 2.53783 -2.8337 0
M  V30 2635 H 243.882 3.48795 -3.56572 0
M  V30 2636 H 243.036 5.55586 -2.4374 0
M  V30 2637 H 241.775 4.60681 -1.60075 0
M  V30 2638 H 240.78 3.96073 -3.81321 0
M  V30 2639 H 242.005 4.94372 -4.65589 0
M  V30 2640 H 239.951 5.9914 -2.67146 0
M  V30 2641 H 239.868 6.15106 -4.39524 0
M  V30 2642 H 241.136 6.95533 -3.51929 0
M  V30 2643 N 245.365 1.30045 0.890287 0
M  V30 2644 C 246.611 1.18737 1.64406 0
M  V30 2645 C 246.944 -0.258525 1.92472 0
M  V30 2646 O 246.219 -1.18562 1.54186 0
M  V30 2647 C 246.502 2.01087 2.98724 0
M  V30 2648 C 246.355 3.53867 2.77665 0
M  V30 2649 C 247.674 1.84457 3.9958 0
M  V30 2650 H 244.793 0.432698 0.596608 0
M  V30 2651 H 247.435 1.5962 1.0306 0
M  V30 2652 H 245.585 1.66349 3.51084 0
M  V30 2653 H 247.257 3.98637 2.32133 0
M  V30 2654 H 245.5 3.78318 2.12269 0
M  V30 2655 H 246.171 4.06772 3.7315 0
M  V30 2656 H 248.647 2.14817 3.56361 0
M  V30 2657 H 247.523 2.44411 4.91482 0
M  V30 2658 H 247.784 0.802276 4.3476 0
M  V30 2659 N 246.843 -1.10192 1.12674 0
M  V30 2660 C 248.12 -1.78717 0.794965 0
M  V30 2661 C 248.5 -1.98628 -0.714853 0
M  V30 2662 O 247.848 -1.58135 -1.64941 0
M  V30 2663 C 248.058 -3.11546 1.5729 0
M  V30 2664 C 249.406 -3.86382 1.76052 0
M  V30 2665 O 250.43 -3.21274 1.53823 0
M  V30 2666 O 249.289 -5.03246 2.13087 0
M  V30 2667 H 246.383 -0.774702 0.289423 0
M  V30 2668 H 248.929 -1.16819 1.23091 0
M  V30 2669 H 247.701 -2.92489 2.59935 0
M  V30 2670 H 247.324 -3.81164 1.13137 0
M  V30 2671 N 248.321 -0.919034 -1.28029 0
M  V30 2672 C 249.567 -0.555757 -1.95036 0
M  V30 2673 C 249.9 0.899198 -1.72128 0
M  V30 2674 O 249.175 1.64023 -1.04531 0
M  V30 2675 C 249.458 -0.872024 -3.49382 0
M  V30 2676 C 249.311 -2.3801 -3.81669 0
M  V30 2677 C 250.63 -0.37185 -4.38526 0
M  V30 2678 H 247.749 -0.203386 -0.708381 0
M  V30 2679 H 250.391 -1.14924 -1.51303 0
M  V30 2680 H 248.541 -0.366946 -3.86763 0
M  V30 2681 H 250.213 -2.9562 -3.54128 0
M  V30 2682 H 248.456 -2.83289 -3.28526 0
M  V30 2683 H 249.127 -2.55192 -4.8947 0
M  V30 2684 H 251.603 -0.804602 -4.08247 0
M  V30 2685 H 250.479 -0.622173 -5.45362 0
M  V30 2686 H 250.74 0.727934 -4.36066 0
M  V30 2687 N 249.799 1.42003 -0.683588 0
M  V30 2688 C 251.215 1.55625 -0.353976 0
M  V30 2689 C 251.415 1.66151 1.14 0
M  V30 2690 O 250.471 1.63329 1.92561 0
M  V30 2691 C 251.784 2.80171 -1.092 0
M  V30 2692 C 253.332 2.93954 -1.07518 0
M  V30 2693 C 253.807 4.21372 -1.79471 0
M  V30 2694 N 255.298 4.28303 -1.76381 0
M  V30 2695 C 256.033 5.25729 -2.28904 0
M  V30 2696 N 255.529 6.29254 -2.89846 0
M  V30 2697 N 257.322 5.17586 -2.19228 0
M  V30 2698 H 249.473 1.33415 -1.6527 0
M  V30 2699 H 251.736 0.64282 -0.696769 0
M  V30 2700 H 251.442 2.78561 -2.14701 0
M  V30 2701 H 251.316 3.7133 -0.662862 0
M  V30 2702 H 253.703 2.95086 -0.028475 0
M  V30 2703 H 253.784 2.04002 -1.54328 0
M  V30 2704 H 253.428 4.21001 -2.84114 0
M  V30 2705 H 253.358 5.10275 -1.30104 0
M  V30 2706 H 255.849 3.54119 -1.31939 0
M  V30 2707 H 256.162 6.99964 -3.27522 0
M  V30 2708 H 254.507 6.29791 -2.93919 0
M  V30 2709 H 257.698 4.35631 -1.71299 0
M  V30 2710 H 257.871 5.93348 -2.60466 0
M  V30 2711 N 251.277 0.427512 1.51691 0
M  V30 2712 C 252.554 -0.201684 1.94557 0
M  V30 2713 C 252.934 -1.60981 1.36559 0
M  V30 2714 O 252.282 -2.21814 0.548702 0
M  V30 2715 C 252.492 -0.189394 3.48486 0
M  V30 2716 C 253.84 -0.39978 4.22714 0
M  V30 2717 O 254.864 -0.267945 3.55191 0
M  V30 2718 O 253.723 -0.661249 5.42485 0
M  V30 2719 H 250.817 -0.135261 0.815864 0
M  V30 2720 H 253.363 0.484782 1.62628 0
M  V30 2721 H 252.135 0.795431 3.8313 0
M  V30 2722 H 251.758 -0.919187 3.86829 0
M  V30 2723 N 252.755 -1.56801 0.158532 0
M  V30 2724 C 253.718 -2.16138 -0.762705 0
M  V30 2725 C 254.718 -1.1061 -1.16713 0
M  V30 2726 O 255.908 -1.36191 -1.08617 0
M  V30 2727 C 253.04 -2.73386 -2.03649 0
M  V30 2728 H 254.233 -2.98886 -0.246354 0
M  V30 2729 H 251.786 -1.56035 -0.0909744 0
M  V30 2730 H 252.521 -1.94335 -2.59623 0
M  V30 2731 H 252.306 -3.50601 -1.75559 0
M  V30 2732 H 253.796 -3.19065 -2.6942 0
M  V30 2733 N 254.233 0.115231 -1.57178 0
M  V30 2734 C 255.461 0.836437 -1.89239 0
M  V30 2735 C 255.876 1.73256 -0.750175 0
M  V30 2736 O 255.233 1.80357 0.278832 0
M  V30 2737 C 255.284 1.66671 -3.20785 0
M  V30 2738 O 255.005 0.806652 -4.3061 0
M  V30 2739 C 256.506 2.49274 -3.66575 0
M  V30 2740 H 253.726 0.240253 -0.626514 0
M  V30 2741 H 256.27 0.0984932 -2.04263 0
M  V30 2742 H 254.425 2.35737 -3.0742 0
M  V30 2743 H 254.839 1.37969 -5.06028 0
M  V30 2744 H 256.313 3.03055 -4.6137 0
M  V30 2745 H 256.79 3.26807 -2.93417 0
M  V30 2746 H 257.396 1.85443 -3.82741 0
M  V30 2747 N 255.711 1.52812 0.385517 0
M  V30 2748 C 256.959 1.67694 1.12797 0
M  V30 2749 C 257.28 0.421115 1.90399 0
M  V30 2750 O 256.55 -0.564551 1.87589 0
M  V30 2751 H 255.13 0.618155 0.419396 0
M  V30 2752 H 257.792 1.89938 0.436972 0
M  V30 2753 H 256.888 2.52896 1.82894 0
M  V30 2754 N 257.189 -0.644168 1.43834 0
M  V30 2755 C 258.438 -1.39985 1.45214 0
M  V30 2756 C 258.751 -1.95421 0.0835494 0
M  V30 2757 O 259.957 -2.71488 -0.0251748 0
M  V30 2758 C 258.413 -2.53384 2.55587 0
M  V30 2759 C 258.021 -2.04517 3.98594 0
M  V30 2760 C 259.765 -3.30685 2.66172 0
M  V30 2761 C 257.672 -3.1518 5.00416 0
M  V30 2762 H 256.602 -0.526005 0.540218 0
M  V30 2763 H 259.253 -0.694367 1.69855 0
M  V30 2764 H 257.635 -3.26446 2.24163 0
M  V30 2765 H 258.809 -1.38405 4.39523 0
M  V30 2766 H 257.124 -1.40068 3.92135 0
M  V30 2767 H 259.721 -4.13158 3.39418 0
M  V30 2768 H 260.064 -3.79312 1.71546 0
M  V30 2769 H 260.597 -2.64708 2.96942 0
M  V30 2770 H 257.336 -2.71511 5.96625 0
M  V30 2771 H 256.856 -3.79974 4.64091 0
M  V30 2772 H 258.535 -3.80166 5.23529 0
M  V30 2773 N 258.668 -1.30515 -0.883378 0
M  V30 2774 C 259.945 -1.10086 -1.6168 0
M  V30 2775 C 260.325 0.349269 -2.08191 0
M  V30 2776 O 259.673 1.34105 -1.85008 0
M  V30 2777 C 259.883 -2.10315 -2.78511 0
M  V30 2778 C 261.231 -2.42119 -3.48803 0
M  V30 2779 O 262.255 -2.08638 -2.88702 0
M  V30 2780 O 261.114 -2.99396 -4.57192 0
M  V30 2781 H 258.208 -0.422907 -0.710689 0
M  V30 2782 H 260.754 -1.41947 -0.930015 0
M  V30 2783 H 259.526 -3.07917 -2.41459 0
M  V30 2784 H 259.149 -1.79282 -3.54886 0
M  V30 2785 N 260.146 1.09593 -1.13257 0
M  V30 2786 C 261.557 1.63229 -0.906274 0
M  V30 2787 C 261.908 1.8811 0.557578 0
M  V30 2788 O 261.033 1.62953 1.42391 0
M  V30 2789 C 261.628 2.96535 -1.63867 0
M  V30 2790 C 260.187 3.47003 -1.45828 0
M  V30 2791 C 259.334 2.2145 -1.66898 0
M  V30 2792 H 262.285 0.92978 -1.28611 0
M  V30 2793 H 262.306 3.64411 -1.09476 0
M  V30 2794 H 261.818 2.78394 -2.70404 0
M  V30 2795 H 259.919 3.70272 -0.415848 0
M  V30 2796 H 260.032 4.24551 -2.2202 0
M  V30 2797 H 258.396 2.30022 -1.09371 0
M  V30 2798 H 259.179 2.0583 -2.74752 0
M  V30 2799 N 261.624 0.925811 1.2754 0
M  V30 2800 C 262.87 0.566092 1.94739 0
M  V30 2801 C 263.203 -0.890057 1.72603 0
M  V30 2802 O 262.478 -1.63467 1.05399 0
M  V30 2803 C 262.761 0.89054 3.48915 0
M  V30 2804 C 262.614 2.4003 3.80402 0
M  V30 2805 C 263.933 0.395101 4.38323 0
M  V30 2806 H 261.052 0.20714 0.707292 0
M  V30 2807 H 263.694 1.15725 1.50691 0
M  V30 2808 H 261.844 0.387452 3.86563 0
M  V30 2809 H 263.516 2.97494 3.52555 0
M  V30 2810 H 261.759 2.85028 3.2702 0
M  V30 2811 H 262.43 2.57785 4.8811 0
M  V30 2812 H 264.906 0.826241 4.07814 0
M  V30 2813 H 263.782 0.651086 5.45025 0
M  V30 2814 H 264.043 -0.704798 4.36446 0
M  V30 2815 N 263.102 -1.41638 0.69111 0
M  V30 2816 C 264.327 -2.06148 0.227583 0
M  V30 2817 C 264.752 -1.51652 -1.11281 0
M  V30 2818 O 264.11 -0.64164 -1.69566 0
M  V30 2819 C 264.158 -3.60095 0.190858 0
M  V30 2820 O 263.262 -4.03845 -0.835664 0
M  V30 2821 H 262.603 -0.654434 0.112306 0
M  V30 2822 H 265.133 -1.81484 0.944714 0
M  V30 2823 H 265.143 -4.07995 0.020207 0
M  V30 2824 H 263.818 -3.99129 1.16915 0
M  V30 2825 H 262.395 -3.67458 -0.63473 0
M  V30 2826 N 264.58 -0.43555 -1.51462 0
M  V30 2827 C 265.51 0.367376 -2.30592 0
M  V30 2828 C 266.491 1.02263 -1.35928 0
M  V30 2829 O 267.676 1.02661 -1.64847 0
M  V30 2830 C 264.806 1.46983 -3.14664 0
M  V30 2831 C 263.76 0.938161 -4.17591 0
M  V30 2832 C 263.086 2.13622 -4.90173 0
M  V30 2833 C 264.386 -0.0261621 -5.22293 0
M  V30 2834 H 266.08 -0.292969 -2.97963 0
M  V30 2835 H 263.626 -0.14234 -1.43295 0
M  V30 2836 H 265.579 2.03873 -3.688 0
M  V30 2837 H 264.303 2.15843 -2.4511 0
M  V30 2838 H 262.962 0.391481 -3.64504 0
M  V30 2839 H 262.61 2.81098 -4.17124 0
M  V30 2840 H 262.31 1.78688 -5.59772 0
M  V30 2841 H 263.834 2.7107 -5.47132 0
M  V30 2842 H 265.248 0.452384 -5.71512 0
M  V30 2843 H 263.645 -0.287992 -5.99409 0
M  V30 2844 H 264.715 -0.963391 -4.75233 0
M  V30 2845 N 266.058 1.56714 -0.166846 0
M  V30 2846 C 267.307 1.95922 0.479318 0
M  V30 2847 C 267.62 1.05529 1.6469 0
M  V30 2848 O 268.826 1.34399 2.35901 0
M  V30 2849 C 267.282 3.48359 0.90412 0
M  V30 2850 C 266.89 4.47369 -0.237621 0
M  V30 2851 C 268.634 3.96394 1.51896 0
M  V30 2852 C 266.541 5.91039 0.206561 0
M  V30 2853 H 265.471 0.731495 0.18284 0
M  V30 2854 H 268.122 1.81728 -0.254363 0
M  V30 2855 H 266.504 3.57955 1.69365 0
M  V30 2856 H 267.678 4.49485 -1.01489 0
M  V30 2857 H 265.993 4.09366 -0.762128 0
M  V30 2858 H 268.59 5.01186 1.86325 0
M  V30 2859 H 268.933 3.39075 2.41524 0
M  V30 2860 H 269.466 3.89796 0.79395 0
M  V30 2861 H 266.205 6.52221 -0.654834 0
M  V30 2862 H 265.725 5.9224 0.949282 0
M  V30 2863 H 267.404 6.43707 0.651939 0
M  V30 2864 N 267.536 -0.106894 1.57237 0
M  V30 2865 C 268.499 -1.11466 2.0027 0
M  V30 2866 C 269.499 -1.33623 0.894519 0
M  V30 2867 O 270.689 -1.29935 1.16028 0
M  V30 2868 C 267.821 -2.46646 2.35327 0
M  V30 2869 H 269.014 -0.744516 2.90512 0
M  V30 2870 H 266.567 -0.351576 1.52295 0
M  V30 2871 H 267.302 -2.88558 1.48003 0
M  V30 2872 H 267.087 -2.31915 3.16161 0
M  V30 2873 H 268.577 -3.19151 2.69318 0
M  V30 2874 N 269.014 -1.53014 -0.377408 0
M  V30 2875 C 270.261 -1.68623 -1.12128 0
M  V30 2876 C 270.589 -0.431997 -1.89642 0
M  V30 2877 O 269.844 0.585855 -1.86725 0
M  V30 2878 C 270.143 -2.87982 -2.11663 0
M  V30 2879 C 269.809 -4.24964 -1.50719 0
M  V30 2880 C 268.471 -4.62217 -1.33825 0
M  V30 2881 C 270.823 -5.10199 -1.06519 0
M  V30 2882 C 268.151 -5.82352 -0.712963 0
M  V30 2883 C 270.503 -6.30969 -0.453955 0
M  V30 2884 C 269.167 -6.66944 -0.272411 0
M  V30 2885 H 268.437 -0.617034 -0.410305 0
M  V30 2886 H 271.084 -1.8718 -0.404484 0
M  V30 2887 H 269.389 -2.63889 -2.89603 0
M  V30 2888 H 271.086 -2.97253 -2.6915 0
M  V30 2889 H 267.676 -3.95626 -1.64858 0
M  V30 2890 H 271.86 -4.81978 -1.18368 0
M  V30 2891 H 267.116 -6.08824 -0.560611 0
M  V30 2892 H 271.29 -6.96324 -0.103217 0
M  V30 2893 H 268.917 -7.59898 0.214181 0
M  V30 2894 N 270.492 0.636531 -1.44174 0
M  V30 2895 C 271.769 1.39463 -1.37148 0
M  V30 2896 C 272.149 2.11082 -0.027507 0
M  V30 2897 O 271.497 2.05954 0.989716 0
M  V30 2898 C 271.707 2.36552 -2.56601 0
M  V30 2899 C 273.055 3.00048 -3.00427 0
M  V30 2900 O 274.079 2.46878 -2.56767 0
M  V30 2901 O 272.938 3.96488 -3.76111 0
M  V30 2902 H 270.032 0.623903 -0.542839 0
M  V30 2903 H 272.578 0.662039 -1.56253 0
M  V30 2904 H 271.35 1.82692 -3.46034 0
M  V30 2905 H 270.973 3.17236 -2.39681 0
M  V30 2906 N 271.97 1.30982 0.876444 0
M  V30 2907 C 272.917 1.18085 1.98304 0
M  V30 2908 C 273.887 0.0682263 1.6596 0
M  V30 2909 O 275.072 0.239937 1.89285 0
M  V30 2910 C 272.212 0.887475 3.33493 0
M  V30 2911 C 271.325 2.08281 3.78475 0
M  V30 2912 C 270.46 1.72678 5.0235 0
M  V30 2913 C 269.499 2.88657 5.39762 0
M  V30 2914 N 268.636 2.53292 6.54819 0
M  V30 2915 H 273.476 2.1275 2.08666 0
M  V30 2916 H 271.013 1.05839 1.02159 0
M  V30 2917 H 272.971 0.697961 4.1132 0
M  V30 2918 H 271.601 -0.022315 3.22792 0
M  V30 2919 H 270.653 2.3833 2.96484 0
M  V30 2920 H 271.965 2.95108 4.02135 0
M  V30 2921 H 271.119 1.50151 5.87826 0
M  V30 2922 H 269.858 0.830327 4.8058 0
M  V30 2923 H 268.863 3.1184 4.52809 0
M  V30 2924 H 270.088 3.79002 5.63502 0
M  V30 2925 H 268.034 1.66163 6.34607 0
M  V30 2926 H 267.951 3.3365 6.7839 0
M  V30 2927 H 269.219 2.34143 7.43503 0
M  V30 2928 N 273.449 -1.08991 1.13837 0
M  V30 2929 C 274.695 -1.81526 0.90422 0
M  V30 2930 C 275.028 -1.85706 -0.568066 0
M  V30 2931 O 274.303 -1.32855 -1.42056 0
M  V30 2932 C 274.586 -3.27447 1.49835 0
M  V30 2933 C 274.439 -3.31512 3.04006 0
M  V30 2934 C 275.758 -4.24256 1.17025 0
M  V30 2935 H 272.877 -0.659029 0.329923 0
M  V30 2936 H 275.519 -1.27644 1.40737 0
M  V30 2937 H 273.669 -3.73462 1.07044 0
M  V30 2938 H 275.341 -2.93867 3.55584 0
M  V30 2939 H 273.584 -2.70963 3.38765 0
M  V30 2940 H 274.255 -4.34329 3.40679 0
M  V30 2941 H 276.731 -3.86549 1.54009 0
M  V30 2942 H 275.607 -5.24684 1.61237 0
M  V30 2943 H 275.868 -4.42019 0.0846274 0
M  V30 2944 N 274.927 -0.932562 -1.27047 0
M  V30 2945 C 276.173 -0.576412 -1.94436 0
M  V30 2946 C 276.506 0.880891 -1.73072 0
M  V30 2947 O 275.781 1.62905 -1.06264 0
M  V30 2948 C 276.064 -0.909031 -3.48437 0
M  V30 2949 C 275.917 -2.42044 -3.79123 0
M  V30 2950 C 277.236 -0.418341 -4.38107 0
M  V30 2951 H 274.355 -0.210888 -0.706184 0
M  V30 2952 H 276.997 -1.16522 -1.50075 0
M  V30 2953 H 275.147 -0.407947 -3.86352 0
M  V30 2954 H 276.819 -2.99359 -3.50973 0
M  V30 2955 H 275.062 -2.86758 -3.25503 0
M  V30 2956 H 275.733 -2.6037 -4.86736 0
M  V30 2957 H 278.209 -0.847856 -4.0737 0
M  V30 2958 H 277.085 -0.679981 -5.44672 0
M  V30 2959 H 277.346 0.681642 -4.36814 0
M  V30 2960 N 276.405 1.4127 -0.698611 0
M  V30 2961 C 277.338 2.28195 0.0153898 0
M  V30 2962 C 278.316 1.42402 0.784883 0
M  V30 2963 O 279.5 1.71828 0.775067 0
M  V30 2964 C 276.627 3.22685 1.02918 0
M  V30 2965 C 275.673 4.25041 0.352501 0
M  V30 2966 S 276.506 5.27757 -0.907322 0
M  V30 2967 C 277.662 6.25812 0.104796 0
M  V30 2968 H 277.895 2.88403 -0.721858 0
M  V30 2969 H 275.428 1.46452 -0.488996 0
M  V30 2970 H 277.386 3.77655 1.60893 0
M  V30 2971 H 276.047 2.61566 1.73902 0
M  V30 2972 H 275.24 4.91437 1.11828 0
M  V30 2973 H 274.842 3.73682 -0.154254 0
M  V30 2974 H 277.134 6.70705 0.957103 0
M  V30 2975 H 278.077 7.06149 -0.525323 0
M  V30 2976 H 278.485 5.62615 0.460931 0
M  V30 2977 N 277.883 0.443576 1.51229 0
M  V30 2978 C 279.111 -0.11929 2.06556 0
M  V30 2979 C 279.526 -1.35921 1.31038 0
M  V30 2980 O 278.883 -1.78675 0.371704 0
M  V30 2981 C 278.934 -0.435228 3.5887 0
M  V30 2982 O 278.655 0.755486 4.31537 0
M  V30 2983 C 280.156 -1.04808 4.30732 0
M  V30 2984 H 277.376 -0.0051584 0.67098 0
M  V30 2985 H 279.92 0.624453 1.94733 0
M  V30 2986 H 278.075 -1.12887 3.70588 0
M  V30 2987 H 278.489 0.483491 5.22267 0
M  V30 2988 H 279.963 -1.2191 5.3837 0
M  V30 2989 H 280.44 -2.03081 3.89429 0
M  V30 2990 H 281.046 -0.393637 4.23474 0
M  V30 2991 N 279.361 -1.56624 0.175154 0
M  V30 2992 C 280.324 -2.16934 -0.739738 0
M  V30 2993 C 281.324 -1.11842 -1.15533 0
M  V30 2994 O 282.514 -1.37335 -1.07167 0
M  V30 2995 C 279.646 -2.75531 -2.00738 0
M  V30 2996 H 280.839 -2.99131 -0.214639 0
M  V30 2997 H 278.392 -1.56123 -0.0744197 0
M  V30 2998 H 279.127 -1.97078 -2.57548 0
M  V30 2999 H 278.912 -3.52444 -1.71831 0
M  V30 3000 H 280.402 -3.21904 -2.66021 0
M  V30 3001 N 280.839 0.0985539 -1.57292 0
M  V30 3002 C 282.116 0.834155 -1.76921 0
M  V30 3003 C 282.496 1.97101 -0.755928 0
M  V30 3004 O 281.844 2.27474 0.216245 0
M  V30 3005 C 282.054 1.33194 -3.22584 0
M  V30 3006 C 283.402 1.77611 -3.85668 0
M  V30 3007 O 284.426 1.42825 -3.26312 0
M  V30 3008 O 283.285 2.4192 -4.90038 0
M  V30 3009 H 280.379 0.397628 -0.725135 0
M  V30 3010 H 282.925 0.0807044 -1.69508 0
M  V30 3011 H 281.697 0.517248 -3.87866 0
M  V30 3012 H 281.32 2.1475 -3.34616 0
M  V30 3013 N 282.317 1.53212 0.369288 0
M  V30 3014 C 283.28 1.7872 1.43498 0
M  V30 3015 C 284.28 0.657554 1.46741 0
M  V30 3016 O 285.47 0.925736 1.47566 0
M  V30 3017 C 282.602 1.90591 2.82645 0
M  V30 3018 H 283.795 2.73894 1.22156 0
M  V30 3019 H 281.348 1.44233 0.602203 0
M  V30 3020 H 282.083 0.974709 3.09306 0
M  V30 3021 H 281.868 2.72751 2.8169 0
M  V30 3022 H 283.358 2.11931 3.59826 0
M  V30 3023 N 283.795 -0.628877 1.44509 0
M  V30 3024 C 285.041 -1.39045 1.47629 0
M  V30 3025 C 285.374 -1.93892 0.109343 0
M  V30 3026 O 284.649 -1.7379 -0.87334 0
M  V30 3027 C 284.932 -2.55408 2.53848 0
M  V30 3028 C 284.785 -2.05896 3.99909 0
M  V30 3029 C 286.104 -3.5759 2.56549 0
M  V30 3030 H 283.223 -0.504232 0.537512 0
M  V30 3031 H 285.865 -0.710854 1.76201 0
M  V30 3032 H 284.015 -3.13384 2.29615 0
M  V30 3033 H 285.687 -1.52734 4.35282 0
M  V30 3034 H 283.93 -1.37061 4.11578 0
M  V30 3035 H 284.601 -2.89681 4.69882 0
M  V30 3036 H 287.077 -3.09419 2.78207 0
M  V30 3037 H 285.953 -4.36527 3.32769 0
M  V30 3038 H 286.214 -4.11808 1.60832 0
M  V30 3039 N 285.273 -1.31445 -0.869486 0
M  V30 3040 C 286.22 -1.19135 -1.97675 0
M  V30 3041 C 287.19 -0.0770266 -1.65921 0
M  V30 3042 O 288.375 -0.249972 -1.89155 0
M  V30 3043 C 285.515 -0.905149 -3.33018 0
M  V30 3044 C 284.628 -2.10285 -3.77365 0
M  V30 3045 C 283.763 -1.75339 -5.01427 0
M  V30 3046 C 282.802 -2.91515 -5.38224 0
M  V30 3047 N 281.939 -2.56762 -6.53466 0
M  V30 3048 H 286.779 -2.13853 -2.07535 0
M  V30 3049 H 284.316 -1.06379 -1.01597 0
M  V30 3050 H 286.274 -0.719765 -4.10944 0
M  V30 3051 H 284.904 0.00519624 -3.228 0
M  V30 3052 H 283.956 -2.39899 -2.95216 0
M  V30 3053 H 285.268 -2.97237 -4.00564 0
M  V30 3054 H 284.422 -1.53266 -5.87022 0
M  V30 3055 H 283.161 -0.855801 -4.80133 0
M  V30 3056 H 282.166 -3.14237 -4.51149 0
M  V30 3057 H 283.391 -3.81985 -5.61484 0
M  V30 3058 H 281.337 -1.69526 -6.33717 0
M  V30 3059 H 281.254 -3.37243 -6.76612 0
M  V30 3060 H 282.522 -2.38083 -7.42251 0
M  V30 3061 N 286.751 1.08385 -1.14413 0
M  V30 3062 C 287.683 2.1519 -0.789036 0
M  V30 3063 C 288.696 1.61638 0.19417 0
M  V30 3064 O 289.885 1.78479 -0.0275711 0
M  V30 3065 C 286.985 3.38565 -0.15058 0
M  V30 3066 C 286.158 4.21501 -1.16857 0
M  V30 3067 C 285.217 5.23277 -0.553832 0
M  V30 3068 O 284.243 5.56041 -1.21686 0
M  V30 3069 N 285.445 5.76629 0.669296 0
M  V30 3070 H 288.21 2.46257 -1.70814 0
M  V30 3071 H 285.771 1.24198 -1.03858 0
M  V30 3072 H 287.763 4.03777 0.273181 0
M  V30 3073 H 286.333 3.05299 0.671667 0
M  V30 3074 H 285.553 3.52265 -1.76926 0
M  V30 3075 H 286.841 4.73731 -1.85624 0
M  V30 3076 H 286.239 5.52243 1.22654 0
M  V30 3077 H 284.796 6.43521 1.03556 0
M  V30 3078 N 288.23 0.939286 1.26551 0
M  V30 3079 C 289.476 0.586715 1.94128 0
M  V30 3080 C 289.809 -0.8717 1.73537 0
M  V30 3081 O 289.084 -1.62339 1.07127 0
M  V30 3082 C 289.367 0.927497 3.4795 0
M  V30 3083 C 289.22 2.44052 3.77834 0
M  V30 3084 C 290.539 0.441569 4.37879 0
M  V30 3085 H 287.658 0.21463 0.705055 0
M  V30 3086 H 290.3 1.17316 1.49455 0
M  V30 3087 H 288.45 0.428431 3.8613 0
M  V30 3088 H 290.122 3.01216 3.4938 0
M  V30 3089 H 288.365 2.8848 3.23978 0
M  V30 3090 H 289.036 2.62947 4.85348 0
M  V30 3091 H 291.512 0.869448 4.06915 0
M  V30 3092 H 290.388 0.708856 5.44304 0
M  V30 3093 H 290.649 -0.658467 4.37169 0
M  V30 3094 N 289.708 -1.40897 0.706093 0
M  V30 3095 C 290.618 -2.3455 0.0482286 0
M  V30 3096 C 291.634 -1.56796 -0.754396 0
M  V30 3097 O 292.81 -1.89228 -0.689538 0
M  V30 3098 C 289.875 -3.35625 -0.869303 0
M  V30 3099 C 288.936 -4.29261 -0.0576994 0
M  V30 3100 C 288.169 -5.25508 -0.931531 0
M  V30 3101 O 288.392 -5.27472 -2.17092 0
M  V30 3102 O 287.326 -6.00727 -0.375587 0
M  V30 3103 H 291.152 -2.92407 0.820476 0
M  V30 3104 H 288.737 -1.4193 0.4665 0
M  V30 3105 H 290.619 -3.97635 -1.39514 0
M  V30 3106 H 289.294 -2.80196 -1.62086 0
M  V30 3107 H 288.201 -3.70566 0.512988 0
M  V30 3108 H 289.534 -4.87817 0.655426 0
M  V30 3109 N 291.186 -0.45159 -1.50991 0
M  V30 3110 C 292.096 0.358431 -2.31846 0
M  V30 3111 C 293.112 1.01438 -1.41373 0
M  V30 3112 O 294.288 1.00663 -1.74439 0
M  V30 3113 C 291.353 1.43704 -3.15515 0
M  V30 3114 C 290.414 0.799742 -4.21785 0
M  V30 3115 C 289.647 1.82696 -5.01456 0
M  V30 3116 O 289.87 3.05105 -4.81941 0
M  V30 3117 O 288.804 1.40958 -5.85162 0
M  V30 3118 H 292.63 -0.302032 -3.02194 0
M  V30 3119 H 290.215 -0.213825 -1.47862 0
M  V30 3120 H 292.097 2.06227 -3.67489 0
M  V30 3121 H 290.772 2.08133 -2.47916 0
M  V30 3122 H 289.679 0.136084 -3.73852 0
M  V30 3123 H 291.012 0.198718 -4.91799 0
M  V30 3124 N 292.664 1.56529 -0.183458 0
M  V30 3125 C 293.597 2.14417 0.781052 0
M  V30 3126 C 294.575 1.07761 1.21763 0
M  V30 3127 O 295.759 1.35807 1.30724 0
M  V30 3128 C 292.886 2.69361 2.05335 0
M  V30 3129 C 291.932 3.885 1.75982 0
M  V30 3130 S 292.765 5.27568 0.918256 0
M  V30 3131 C 293.921 5.85926 2.20095 0
M  V30 3132 H 294.154 2.95893 0.2889 0
M  V30 3133 H 291.687 1.54368 0.0313844 0
M  V30 3134 H 293.645 3.01662 2.78406 0
M  V30 3135 H 292.306 1.87949 2.51663 0
M  V30 3136 H 291.499 4.25314 2.70415 0
M  V30 3137 H 291.101 3.57149 1.10999 0
M  V30 3138 H 293.393 5.99579 3.15453 0
M  V30 3139 H 294.336 6.82761 1.87731 0
M  V30 3140 H 294.744 5.14438 2.32409 0
M  V30 3141 N 294.142 -0.090211 1.57342 0
M  V30 3142 C 295.072 -1.10976 2.05443 0
M  V30 3143 C 296.053 -1.41482 0.944284 0
M  V30 3144 O 297.238 -1.51428 1.21586 0
M  V30 3145 C 294.368 -2.42831 2.48295 0
M  V30 3146 C 293.322 -2.26721 3.63018 0
M  V30 3147 C 292.648 -3.63796 3.91863 0
M  V30 3148 C 293.948 -1.7037 4.93732 0
M  V30 3149 H 295.642 -0.709564 2.9087 0
M  V30 3150 H 293.188 -0.339874 1.39932 0
M  V30 3151 H 295.141 -3.14431 2.80555 0
M  V30 3152 H 293.865 -2.84795 1.59873 0
M  V30 3153 H 292.524 -1.57565 3.31012 0
M  V30 3154 H 292.172 -4.03297 3.00601 0
M  V30 3155 H 291.872 -3.53861 4.69101 0
M  V30 3156 H 293.396 -4.36855 4.26603 0
M  V30 3157 H 294.81 -2.31816 5.24342 0
M  V30 3158 H 293.207 -1.71181 5.75167 0
M  V30 3159 H 294.277 -0.663542 4.80339 0
M  V30 3160 N 295.62 -1.53406 -0.361157 0
M  V30 3161 C 296.583 -1.79479 -1.42548 0
M  V30 3162 C 297.583 -0.665327 -1.4639 0
M  V30 3163 O 298.773 -0.933549 -1.47073 0
M  V30 3164 C 295.905 -1.92087 -2.8163 0
M  V30 3165 H 297.098 -2.74538 -1.20701 0
M  V30 3166 H 294.651 -1.4455 -0.594546 0
M  V30 3167 H 295.386 -0.991099 -3.08784 0
M  V30 3168 H 295.171 -2.74241 -2.80239 0
M  V30 3169 H 296.661 -2.13836 -3.58697 0
M  V30 3170 O 297.137 0.507134 -1.53331 0
M  V30 3171 H 297.828 1.16207 -1.5497 0
M  V30 END ATOM
M  V30 BEGIN BOND
M  V30 END BOND
M  V30 END CTAB
M  END
$$$$
