drugbank_target|P60842 Eukaryotic initiation factor 4A-I (DB09130)
 OpenBabel12092121053D

  0  0  0     0  0            999 V3000
M  V30 BEGIN CTAB
M  V30 COUNTS 6492 6540 0 0 0
M  V30 BEGIN ATOM
M  V30 1 H -0.908 1.98254 -0.117106 0
M  V30 2 N 0 1.576 0 0
M  V30 3 C 0.933 2.03868 1.02534 0
M  V30 4 C 1.911 0.928543 1.3348 0
M  V30 5 O 3.095 1.19667 1.45644 0
M  V30 6 C 0.222 2.43627 2.35294 0
M  V30 7 C -0.732 3.65373 2.2001 0
M  V30 8 S 0.101 5.13292 1.52614 0
M  V30 9 C 1.257 5.56322 2.86805 0
M  V30 10 H 1.49 2.90518 0.631377 0
M  V30 11 H -0.977 1.52953 0.210867 0
M  V30 12 H 0.981 2.67203 3.11629 0
M  V30 13 H -0.358 1.57376 2.7183 0
M  V30 14 H -1.165 3.90944 3.18086 0
M  V30 15 H -1.563 3.418 1.51819 0
M  V30 16 H 0.729 5.58782 3.83104 0
M  V30 17 H 1.672 6.56266 2.65933 0
M  V30 18 H 2.08 4.83886 2.90714 0
M  V30 19 N 1.4781 -0.272755 1.55222 0
M  V30 20 C 2.7031 -1.02683 1.80197 0
M  V30 21 C 3.1281 -1.79142 0.573551 0
M  V30 22 O 2.4861 -1.74917 -0.476849 0
M  V30 23 C 2.5341 -1.9609 3.02624 0
M  V30 24 O 1.6381 -3.04863 2.77727 0
M  V30 25 H 0.9791 -0.293557 0.595584 0
M  V30 26 H 3.5091 -0.30159 2.02365 0
M  V30 27 H 3.5191 -2.38039 3.31363 0
M  V30 28 H 2.1941 -1.39851 3.91682 0
M  V30 29 H 0.7711 -2.67228 2.60084 0
M  V30 30 N 2.9562 -1.48159 -0.537278 0
M  V30 31 C 3.9192 -1.61665 -1.62472 0
M  V30 32 C 4.9192 -0.490395 -1.5314 0
M  V30 33 O 6.1092 -0.755998 -1.5694 0
M  V30 34 C 3.2412 -1.57997 -3.02076 0
M  V30 35 H 4.4342 -2.58621 -1.51839 0
M  V30 36 H 1.9872 -1.36647 -0.758771 0
M  V30 37 H 2.7222 -0.624913 -3.18222 0
M  V30 38 H 2.5072 -2.39755 -3.10258 0
M  V30 39 H 3.9972 -1.70627 -3.81151 0
M  V30 40 N 4.4343 0.785586 -1.36625 0
M  V30 41 C 5.6593 1.57963 -1.34397 0
M  V30 42 C 6.0843 1.87964 0.071526 0
M  V30 43 O 5.4423 1.48182 1.0446 0
M  V30 44 C 5.4903 2.87511 -2.17646 0
M  V30 45 O 4.5943 3.81281 -1.57158 0
M  V30 46 H 3.9353 0.479014 -0.459828 0
M  V30 47 H 6.4653 0.973411 -1.79961 0
M  V30 48 H 6.4753 3.36745 -2.30362 0
M  V30 49 H 5.1503 2.65002 -3.20541 0
M  V30 50 H 3.7273 3.39885 -1.53403 0
M  V30 51 N 5.9124 1.20967 1.01018 0
M  V30 52 C 6.8444 0.922059 2.09835 0
M  V30 53 C 7.8574 -0.0927106 1.62536 0
M  V30 54 O 9.0464 0.139127 1.77957 0
M  V30 55 C 6.1464 0.362004 3.36961 0
M  V30 56 C 5.3194 1.42986 4.13369 0
M  V30 57 C 4.3784 0.879976 5.1879 0
M  V30 58 O 3.4044 1.56219 5.47343 0
M  V30 59 N 4.6064 -0.307396 5.79686 0
M  V30 60 H 7.3714 1.8588 2.35093 0
M  V30 61 H 4.9324 1.11422 1.1746 0
M  V30 62 H 6.9244 -0.0201474 4.04695 0
M  V30 63 H 5.4944 -0.479437 3.08902 0
M  V30 64 H 4.7144 1.98608 3.40512 0
M  V30 65 H 6.0024 2.14885 4.61196 0
M  V30 66 H 5.4004 -0.878796 5.58832 0
M  V30 67 H 3.9574 -0.631115 6.48737 0
M  V30 68 N 7.3905 -1.2043 1.01659 0
M  V30 69 C 8.6675 -1.8548 0.621004 0
M  V30 70 C 9.0475 -1.9091 -0.900919 0
M  V30 71 O 8.3955 -1.41694 -1.79263 0
M  V30 72 C 8.6055 -3.25119 1.2688 0
M  V30 73 C 9.9535 -4.01403 1.38423 0
M  V30 74 O 10.9775 -3.34473 1.22501 0
M  V30 75 O 9.8365 -5.21265 1.64151 0
M  V30 76 H 6.9305 -0.798761 0.214266 0
M  V30 77 H 9.4765 -1.28019 1.11396 0
M  V30 78 H 8.2485 -3.15932 2.30873 0
M  V30 79 H 7.8715 -3.90212 0.762917 0
M  V30 80 N 8.8686 -0.792821 -1.36206 0
M  V30 81 C 10.0936 -0.377701 -2.03932 0
M  V30 82 C 10.5186 0.998947 -1.59382 0
M  V30 83 O 9.8766 1.64421 -0.763903 0
M  V30 84 C 9.9246 -0.453635 -3.57735 0
M  V30 85 O 9.0286 0.538151 -4.08874 0
M  V30 86 H 8.3696 -0.159855 -0.644471 0
M  V30 87 H 10.8996 -1.07488 -1.7409 0
M  V30 88 H 10.9096 -0.318464 -4.06755 0
M  V30 89 H 9.5846 -1.45784 -3.89512 0
M  V30 90 H 8.1616 0.364359 -3.71116 0
M  V30 91 N 10.3467 1.47872 -0.545128 0
M  V30 92 C 11.7627 1.5829 -0.204032 0
M  V30 93 C 11.9627 1.54529 1.29317 0
M  V30 94 O 11.0187 1.44232 2.07252 0
M  V30 95 C 12.3317 2.89304 -0.819987 0
M  V30 96 C 13.8797 3.02864 -0.790105 0
M  V30 97 C 14.3547 4.3656 -1.38491 0
M  V30 98 N 15.8457 4.43165 -1.34755 0
M  V30 99 C 16.5807 5.45153 -1.77753 0
M  V30 100 N 16.0767 6.54016 -2.2855 0
M  V30 101 N 17.8697 5.36125 -1.68897 0
M  V30 102 H 10.0207 1.4856 -1.51802 0
M  V30 103 H 12.2837 0.706305 -0.632327 0
M  V30 104 H 11.9897 2.97757 -1.87173 0
M  V30 105 H 11.8637 3.75957 -0.305915 0
M  V30 106 H 14.2507 2.94014 0.252913 0
M  V30 107 H 14.3317 2.17782 -1.34181 0
M  V30 108 H 13.9757 4.46164 -2.42693 0
M  V30 109 H 13.9057 5.20353 -0.808754 0
M  V30 110 H 16.3967 3.65083 -0.975855 0
M  V30 111 H 16.7097 7.27994 -2.59314 0
M  V30 112 H 15.0547 6.54938 -2.32553 0
M  V30 113 H 18.2457 4.49975 -1.28998 0
M  V30 114 H 18.4187 6.15472 -2.02726 0
M  V30 115 N 11.8248 0.280983 1.55075 0
M  V30 116 C 13.0498 -0.340154 2.04592 0
M  V30 117 C 13.4748 -1.48246 1.15779 0
M  V30 118 O 12.8328 -1.80614 0.15761 0
M  V30 119 C 12.8808 -0.793104 3.5177 0
M  V30 120 O 11.9848 -1.89981 3.66034 0
M  V30 121 H 11.3258 -0.0694289 0.66036 0
M  V30 122 H 13.8558 0.416993 2.00306 0
M  V30 123 H 13.8658 -1.08729 3.93245 0
M  V30 124 H 12.5408 0.0426163 4.15878 0
M  V30 125 H 11.1178 -1.60771 3.36463 0
M  V30 126 N 13.3029 -1.57598 0.00835791 0
M  V30 127 C 14.7189 -1.55764 -0.347822 0
M  V30 128 C 14.9189 -1.01186 -1.74252 0
M  V30 129 O 13.9749 -0.649371 -2.44007 0
M  V30 130 C 15.2879 -2.99927 -0.215407 0
M  V30 131 C 16.8359 -3.11656 -0.289725 0
M  V30 132 C 17.3109 -4.57621 -0.18634 0
M  V30 133 N 18.8019 -4.62557 -0.243978 0
M  V30 134 C 19.5369 -5.73094 -0.18745 0
M  V30 135 N 19.0329 -6.92753 -0.0810331 0
M  V30 136 N 20.8259 -5.61588 -0.239925 0
M  V30 137 H 12.9769 -1.91411 0.92062 0
M  V30 138 H 15.2399 -0.879562 0.353659 0
M  V30 139 H 14.9459 -3.43729 0.744512 0
M  V30 140 H 14.8199 -3.63865 -0.994097 0
M  V30 141 H 17.2069 -2.67779 -1.24009 0
M  V30 142 H 17.2879 -2.5048 0.51898 0
M  V30 143 H 16.9319 -5.02174 0.760519 0
M  V30 144 H 16.8619 -5.16752 -1.01364 0
M  V30 145 H 19.3529 -3.76481 -0.327217 0
M  V30 146 H 19.6659 -7.72787 -0.0440241 0
M  V30 147 H 18.0109 -6.94984 -0.0465419 0
M  V30 148 H 21.2019 -4.66996 -0.321317 0
M  V30 149 H 21.3749 -6.47714 -0.192407 0
M  V30 150 N 14.781 0.264519 -1.55364 0
M  V30 151 C 16.058 1.01677 -1.67096 0
M  V30 152 C 16.438 2.03996 -0.543015 0
M  V30 153 O 15.786 2.23907 0.45585 0
M  V30 154 C 15.996 1.66596 -3.0667 0
M  V30 155 C 17.344 2.17442 -3.64697 0
M  V30 156 O 18.368 1.76568 -3.09358 0
M  V30 157 O 17.227 2.92439 -4.61673 0
M  V30 158 H 14.321 0.472161 -0.678965 0
M  V30 159 H 16.867 0.259703 -1.67701 0
M  V30 160 H 15.639 0.924962 -3.80211 0
M  V30 161 H 15.262 2.48968 -3.10001 0
M  V30 162 N 16.2591 1.48442 0.529413 0
M  V30 163 C 17.2071 1.63452 1.65487 0
M  V30 164 C 18.2011 0.500955 1.61823 0
M  V30 165 O 19.4071 0.679695 1.66674 0
M  V30 166 H 15.7821 0.514905 0.548066 0
M  V30 167 H 17.7531 2.57975 1.49971 0
M  V30 168 C 16.5021 1.69196 3.03756 0
M  V30 169 H 15.8251 2.55784 3.07269 0
M  V30 170 H 17.2651 1.83743 3.82119 0
M  V30 171 C 15.7241 0.430765 3.34135 0
M  V30 172 O 16.2541 -0.4561 3.99102 0
M  V30 173 N 14.4601 0.302293 2.89023 0
M  V30 174 H 14.0071 1.02496 2.36331 0
M  V30 175 H 13.9651 -0.540546 3.09718 0
M  V30 176 N 17.7372 -0.778329 1.37039 0
M  V30 177 C 18.9852 -1.53361 1.31623 0
M  V30 178 C 19.3062 -1.94739 -0.100831 0
M  V30 179 O 18.5762 -1.65797 -1.04347 0
M  V30 180 H 17.1562 -0.568794 0.484234 0
M  V30 181 H 19.8182 -0.926742 1.71457 0
M  V30 182 H 18.9142 -2.43606 1.95096 0
M  V30 183 N 19.2153 -1.21501 -1.00376 0
M  V30 184 C 20.6263 -1.03146 -1.55621 0
M  V30 185 C 20.9773 0.408375 -1.91903 0
M  V30 186 O 20.1023 1.29177 -1.73616 0
M  V30 187 C 20.6973 -1.86612 -2.82775 0
M  V30 188 C 19.2563 -1.72586 -3.34501 0
M  V30 189 C 18.4033 -1.83747 -2.07683 0
M  V30 190 H 21.3543 -1.35505 -0.826081 0
M  V30 191 H 21.3753 -1.3771 -3.54706 0
M  V30 192 H 20.8873 -2.91399 -2.56336 0
M  V30 193 H 18.9883 -0.704877 -3.65872 0
M  V30 194 H 19.1013 -2.54623 -4.05837 0
M  V30 195 H 17.4653 -1.27069 -2.20739 0
M  V30 196 H 18.2483 -2.90044 -1.83655 0
M  V30 197 N 20.6934 1.19889 -1.02296 0
M  V30 198 C 21.9704 1.85148 -0.630832 0
M  V30 199 C 22.3504 1.91385 0.890782 0
M  V30 200 O 21.6984 1.42642 1.78509 0
M  V30 201 C 21.9084 3.24442 -1.28602 0
M  V30 202 C 23.2564 4.00663 -1.4055 0
M  V30 203 O 24.2804 3.33818 -1.24273 0
M  V30 204 O 23.1394 5.20387 -1.66913 0
M  V30 205 H 20.2334 0.797613 -0.218499 0
M  V30 206 H 22.7794 1.27427 -1.12074 0
M  V30 207 H 21.5514 3.14704 -2.32545 0
M  V30 208 H 21.1744 3.89802 -0.7836 0
M  V30 209 N 22.1715 0.800033 1.35784 0
M  V30 210 C 23.4195 0.376597 1.9856 0
M  V30 211 C 23.7405 -1.05812 1.63795 0
M  V30 212 O 23.0105 -1.73103 0.917171 0
M  V30 213 H 21.5905 0.136261 0.734467 0
M  V30 214 H 24.2525 1.02442 1.65806 0
M  V30 215 H 23.3485 0.477002 3.08433 0
M  V30 216 N 23.6496 -1.47581 0.552962 0
M  V30 217 C 24.5826 -2.26883 -0.244857 0
M  V30 218 C 25.5606 -1.33784 -0.924147 0
M  V30 219 O 26.7446 -1.6316 -0.943981 0
M  V30 220 C 23.8716 -3.10695 -1.34856 0
M  V30 221 C 22.9176 -4.19339 -0.778268 0
M  V30 222 S 23.7506 -5.34207 0.37184 0
M  V30 223 C 24.9066 -6.21584 -0.733779 0
M  V30 224 H 25.1396 -2.94202 0.428087 0
M  V30 225 H 22.6726 -1.50628 0.339197 0
M  V30 226 H 24.6306 -3.59555 -1.98066 0
M  V30 227 H 23.2916 -2.42746 -1.99332 0
M  V30 228 H 22.4846 -4.77695 -1.60696 0
M  V30 229 H 22.0866 -3.73338 -0.222422 0
M  V30 230 H 24.3786 -6.57676 -1.62692 0
M  V30 231 H 25.3216 -7.07851 -0.187668 0
M  V30 232 H 25.7296 -5.55125 -1.02454 0
M  V30 233 N 25.1277 -0.289203 -1.54924 0
M  V30 234 C 26.0377 0.601863 -2.26748 0
M  V30 235 C 27.0537 1.15834 -1.2984 0
M  V30 236 O 28.2297 1.18564 -1.62802 0
M  V30 237 C 25.2947 1.76299 -2.98529 0
M  V30 238 C 24.3557 1.24178 -4.10948 0
M  V30 239 C 23.5887 2.34757 -4.79296 0
M  V30 240 O 23.8117 3.54411 -4.46933 0
M  V30 241 O 22.7457 2.02115 -5.66951 0
M  V30 242 H 26.5717 0.0195879 -3.03694 0
M  V30 243 H 24.1567 -0.0560868 -1.49295 0
M  V30 244 H 26.0387 2.43973 -3.43592 0
M  V30 245 H 24.7137 2.33209 -2.24488 0
M  V30 246 H 23.6207 0.531104 -3.70311 0
M  V30 247 H 24.9537 0.718252 -4.86931 0
M  V30 248 N 26.6058 1.57591 -0.0167156 0
M  V30 249 C 28.0168 1.79201 0.523834 0
M  V30 250 C 28.3678 0.925796 1.72984 0
M  V30 251 O 27.4928 0.132792 2.15992 0
M  V30 252 C 28.0878 3.25 0.957091 0
M  V30 253 C 26.6468 3.47648 1.44283 0
M  V30 254 C 25.7938 2.74374 0.401757 0
M  V30 255 H 28.7448 1.56831 -0.242816 0
M  V30 256 H 28.7658 3.34031 1.82219 0
M  V30 257 H 28.2778 3.88019 0.0791415 0
M  V30 258 H 26.3788 2.89866 2.34113 0
M  V30 259 H 26.4918 4.56352 1.45877 0
M  V30 260 H 24.8558 2.39485 0.867121 0
M  V30 261 H 25.6388 3.40102 -0.467513 0
M  V30 262 N 28.0839 -0.256276 1.55502 0
M  V30 263 C 28.9939 -1.33882 1.92647 0
M  V30 264 C 30.0099 -1.53159 0.825727 0
M  V30 265 O 31.1859 -1.66963 1.12629 0
M  V30 266 C 28.2509 -2.6751 2.20543 0
M  V30 267 C 27.3119 -2.56836 3.43997 0
M  V30 268 C 26.5449 -3.84092 3.70553 0
M  V30 269 O 26.7679 -4.85545 2.99336 0
M  V30 270 O 25.7019 -3.83288 4.64084 0
M  V30 271 H 29.5279 -1.05374 2.84833 0
M  V30 272 H 27.1129 -0.456237 1.42263 0
M  V30 273 H 28.9949 -3.46492 2.39835 0
M  V30 274 H 27.6699 -2.9577 1.31536 0
M  V30 275 H 26.5769 -1.76172 3.30021 0
M  V30 276 H 27.9099 -2.33523 4.33275 0
M  V30 277 N 29.562 -1.4872 -0.521534 0
M  V30 278 C 30.81 -1.56857 -1.27437 0
M  V30 279 C 31.131 -0.247982 -1.93417 0
M  V30 280 O 30.401 0.731151 -1.81744 0
M  V30 281 H 28.981 -0.577885 -0.473347 0
M  V30 282 H 31.643 -1.85233 -0.606205 0
M  V30 283 H 30.739 -2.35402 -2.0492 0
M  V30 284 N 31.0401 0.771051 -1.3745 0
M  V30 285 C 32.2861 1.5319 -1.32894 0
M  V30 286 C 32.6191 1.94008 0.0862511 0
M  V30 287 O 31.8941 1.64124 1.04373 0
M  V30 288 C 32.1771 2.79648 -2.26868 0
M  V30 289 C 32.0301 2.45079 -3.77169 0
M  V30 290 C 33.3491 3.81583 -2.19277 0
M  V30 291 H 30.4681 0.555744 -0.484064 0
M  V30 292 H 33.1101 0.884492 -1.68157 0
M  V30 293 H 31.2601 3.34891 -1.96926 0
M  V30 294 H 32.9321 1.95745 -4.1771 0
M  V30 295 H 31.1751 1.77767 -3.95704 0
M  V30 296 H 31.8461 3.35478 -4.38359 0
M  V30 297 H 34.3221 3.35835 -2.45671 0
M  V30 298 H 33.1981 4.67787 -2.87171 0
M  V30 299 H 33.4591 4.25897 -1.18592 0
M  V30 300 N 32.5182 1.22032 0.997298 0
M  V30 301 C 33.7672 1.03637 1.73038 0
M  V30 302 C 34.0802 -0.429475 1.90827 0
M  V30 303 O 35.2862 -0.732995 2.61418 0
M  V30 304 C 33.7422 1.80582 3.11317 0
M  V30 305 C 33.3502 3.31387 3.01474 0
M  V30 306 C 35.0942 1.70621 3.88701 0
M  V30 307 C 33.0012 4.00791 4.3488 0
M  V30 308 H 31.9312 0.384179 0.648785 0
M  V30 309 H 34.5822 1.4584 1.11368 0
M  V30 310 H 32.9642 1.31175 3.73643 0
M  V30 311 H 34.1382 3.88155 2.4834 0
M  V30 312 H 32.4532 3.41976 2.37575 0
M  V30 313 H 35.0502 2.19799 4.87434 0
M  V30 314 H 35.3932 0.665823 4.10941 0
M  V30 315 H 35.9262 2.17547 3.33044 0
M  V30 316 H 32.6652 5.05064 4.1784 0
M  V30 317 H 32.1852 3.48811 4.87945 0
M  V30 318 H 33.8642 4.06139 5.03647 0
M  V30 319 N 33.9963 -1.19345 1.0293 0
M  V30 320 C 34.9063 -2.26245 0.620515 0
M  V30 321 C 35.9223 -1.70486 -0.347928 0
M  V30 322 O 37.0983 -2.00347 -0.205704 0
M  V30 323 C 34.1633 -3.46693 -0.0218957 0
M  V30 324 C 33.2243 -4.17632 0.994102 0
M  V30 325 C 32.4573 -5.32329 0.382253 0
M  V30 326 O 32.6803 -5.64552 -0.814676 0
M  V30 327 O 31.6143 -5.91664 1.10531 0
M  V30 328 H 35.4403 -2.63453 1.51083 0
M  V30 329 H 33.0253 -1.26207 0.799513 0
M  V30 330 H 34.9073 -4.19683 -0.380072 0
M  V30 331 H 33.5823 -3.11333 -0.886209 0
M  V30 332 H 32.4893 -3.4676 1.40387 0
M  V30 333 H 33.8223 -4.56964 1.8288 0
M  V30 334 N 35.4744 -0.807222 -1.35358 0
M  V30 335 C 36.6994 -0.399309 -2.0352 0
M  V30 336 C 37.1244 0.981986 -1.60433 0
M  V30 337 O 36.4824 1.63601 -0.781299 0
M  V30 338 C 36.5304 -0.491552 -3.57234 0
M  V30 339 O 35.6344 0.494754 -4.09421 0
M  V30 340 H 34.9754 -0.166682 -0.642739 0
M  V30 341 H 37.5054 -1.09328 -1.72941 0
M  V30 342 H 37.5154 -0.361588 -4.06395 0
M  V30 343 H 36.1904 -1.49907 -3.87944 0
M  V30 344 H 34.7674 0.324977 -3.71481 0
M  V30 345 N 36.9525 1.47285 -0.560781 0
M  V30 346 C 37.9005 2.31756 0.197942 0
M  V30 347 C 38.8945 1.43146 0.905854 0
M  V30 348 O 40.1005 1.59891 0.826733 0
M  V30 349 H 36.4755 0.747438 0.0827049 0
M  V30 350 H 38.4465 2.9359 -0.533629 0
M  V30 351 C 37.1955 3.25874 1.21249 0
M  V30 352 H 36.5185 3.94023 0.67719 0
M  V30 353 H 37.9585 3.87803 1.71419 0
M  V30 354 C 36.4175 2.49651 2.26221 0
M  V30 355 O 36.9475 2.24355 3.33208 0
M  V30 356 N 35.1535 2.10597 2.00243 0
M  V30 357 H 34.7005 2.31369 1.13252 0
M  V30 358 H 34.6585 1.59913 2.70694 0
M  V30 359 N 38.4306 0.297415 1.54768 0
M  V30 360 C 39.6766 -0.306263 2.01081 0
M  V30 361 C 40.0316 -1.518 1.18214 0
M  V30 362 O 39.3246 -1.89967 0.249613 0
M  V30 363 C 39.5186 -0.717561 3.50123 0
M  V30 364 C 39.3476 0.45277 4.47415 0
M  V30 365 C 38.1176 0.943651 4.9641 0
M  V30 366 C 40.3156 1.29657 4.97688 0
M  V30 367 N 38.2976 2.08112 5.77549 0
M  V30 368 C 39.6686 2.28158 5.76493 0
M  V30 369 C 41.7236 1.32735 4.79881 0
M  V30 370 C 40.4266 3.29509 6.39387 0
M  V30 371 C 42.4526 2.32943 5.43591 0
M  V30 372 C 41.8146 3.30174 6.22225 0
M  V30 373 H 37.9136 -0.0766274 0.778237 0
M  V30 374 H 40.4976 0.426515 1.89971 0
M  V30 375 H 38.6686 -1.41952 3.6153 0
M  V30 376 H 40.4006 -1.30047 3.83236 0
M  V30 377 H 37.1556 0.51922 4.70745 0
M  V30 378 H 37.5796 2.65414 6.22803 0
M  V30 379 H 42.2216 0.589375 4.18672 0
M  V30 380 H 39.9396 4.04228 6.99732 0
M  V30 381 H 43.5256 2.36094 5.31743 0
M  V30 382 H 42.4056 4.06445 6.7065 0
M  V30 383 N 39.9087 -1.5758 0.0250728 0
M  V30 384 C 40.8567 -2.11125 -0.97617 0
M  V30 385 C 41.8507 -1.03689 -1.33959 0
M  V30 386 O 43.0567 -1.22128 -1.3223 0
M  V30 387 H 39.4317 -0.674468 -0.332561 0
M  V30 388 H 41.4027 -2.94194 -0.499223 0
M  V30 389 C 40.1517 -2.65017 -2.2508 0
M  V30 390 H 39.4747 -3.47333 -1.9799 0
M  V30 391 H 40.9147 -3.06133 -2.93357 0
M  V30 392 C 39.3737 -1.57574 -2.97779 0
M  V30 393 O 39.9037 -0.973203 -3.89733 0
M  V30 394 N 38.1097 -1.29716 -2.60043 0
M  V30 395 H 37.6567 -1.789 -1.85345 0
M  V30 396 H 37.6147 -0.58051 -3.08994 0
M  V30 397 N 41.3868 0.248026 -1.55636 0
M  V30 398 C 42.2968 1.32859 -1.93354 0
M  V30 399 C 43.3128 1.52719 -0.833838 0
M  V30 400 O 44.4888 1.66363 -1.13513 0
M  V30 401 C 41.5538 2.66337 -2.21958 0
M  V30 402 C 40.6148 2.55008 -3.45354 0
M  V30 403 C 39.8478 3.82121 -3.72584 0
M  V30 404 O 40.0708 4.83951 -3.01907 0
M  V30 405 O 39.0048 3.80822 -4.6611 0
M  V30 406 H 42.8308 1.03862 -2.85388 0
M  V30 407 H 40.4158 0.448686 -1.42503 0
M  V30 408 H 42.2978 3.45216 -2.4167 0
M  V30 409 H 40.9728 2.95068 -1.33103 0
M  V30 410 H 39.8798 1.7442 -3.30951 0
M  V30 411 H 41.2128 2.31222 -4.34508 0
M  V30 412 N 42.8649 1.48995 0.513639 0
M  V30 413 C 44.1139 1.57093 1.2651 0
M  V30 414 C 44.4269 0.257091 1.93903 0
M  V30 415 O 45.6329 0.216478 2.70636 0
M  V30 416 C 44.0889 2.77118 2.29638 0
M  V30 417 C 43.6969 4.15209 1.68241 0
M  V30 418 C 45.4409 2.94538 3.05692 0
M  V30 419 C 43.3479 5.26474 2.69406 0
M  V30 420 H 42.2779 0.584876 0.475854 0
M  V30 421 H 44.9289 1.7536 0.540487 0
M  V30 422 H 43.3109 2.52319 3.05207 0
M  V30 423 H 44.4849 4.50094 0.987505 0
M  V30 424 H 42.7999 4.03042 1.04623 0
M  V30 425 H 45.3969 3.74832 3.8132 0
M  V30 426 H 45.7399 2.04614 3.62545 0
M  V30 427 H 46.2729 3.19316 2.37238 0
M  V30 428 H 43.0119 6.18417 2.17351 0
M  V30 429 H 42.5319 4.96058 3.37175 0
M  V30 430 H 44.2109 5.55277 3.32078 0
M  V30 431 N 44.343 -0.763751 1.37857 0
M  V30 432 C 45.589 -1.52483 1.33704 0
M  V30 433 C 45.922 -1.94051 -0.0759612 0
M  V30 434 O 45.197 -1.64675 -1.03501 0
M  V30 435 C 45.48 -2.78441 2.28348 0
M  V30 436 C 45.333 -2.43075 3.78463 0
M  V30 437 C 46.652 -3.80415 2.21298 0
M  V30 438 H 43.771 -0.553169 0.487005 0
M  V30 439 H 46.413 -0.875562 1.68624 0
M  V30 440 H 44.563 -3.33842 1.987 0
M  V30 441 H 46.235 -1.93527 4.18742 0
M  V30 442 H 44.478 -1.75666 3.96641 0
M  V30 443 H 45.149 -3.33149 4.40132 0
M  V30 444 H 47.625 -3.34527 2.47449 0
M  V30 445 H 46.501 -4.66257 2.89647 0
M  V30 446 H 46.762 -4.25262 1.20849 0
M  V30 447 N 45.8211 -1.22559 -0.990812 0
M  V30 448 C 47.0981 -0.959875 -1.70428 0
M  V30 449 C 47.4781 0.524455 -2.04481 0
M  V30 450 O 46.8261 1.49302 -1.72977 0
M  V30 451 C 47.0361 -1.85955 -2.95333 0
M  V30 452 C 48.3841 -2.11687 -3.68068 0
M  V30 453 O 49.4081 -1.8342 -3.05345 0
M  V30 454 O 48.2671 -2.59572 -4.80921 0
M  V30 455 H 45.3611 -0.361154 -0.743974 0
M  V30 456 H 47.9071 -1.33554 -1.04697 0
M  V30 457 H 46.6791 -2.86346 -2.66687 0
M  V30 458 H 46.3021 -1.4856 -3.68803 0
M  V30 459 N 47.2992 1.18797 -1.03562 0
M  V30 460 C 48.5242 1.9314 -0.755764 0
M  V30 461 C 48.9492 1.7537 0.68022 0
M  V30 462 O 48.3072 1.06046 1.47051 0
M  V30 463 C 48.3552 3.42747 -1.12058 0
M  V30 464 O 47.4592 4.11683 -0.243124 0
M  V30 465 H 46.8002 0.602724 -0.278604 0
M  V30 466 H 49.3302 1.50678 -1.3841 0
M  V30 467 H 49.3402 3.93437 -1.08035 0
M  V30 468 H 48.0152 3.55002 -2.16672 0
M  V30 469 H 46.5922 3.71323 -0.342539 0
M  V30 470 N 48.7773 0.814389 1.34928 0
M  V30 471 C 50.0243 0.398423 1.98542 0
M  V30 472 C 50.3523 -1.03638 1.64589 0
M  V30 473 O 49.6073 -1.73509 0.90516 0
M  V30 474 C 49.9063 0.537781 3.53331 0
M  V30 475 C 49.5723 1.93704 4.07172 0
M  V30 476 C 48.2343 2.31984 4.21589 0
M  V30 477 C 50.5863 2.85213 4.36237 0
M  V30 478 C 47.9143 3.61125 4.62391 0
M  V30 479 C 50.2663 4.13809 4.78482 0
M  V30 480 C 48.9303 4.52077 4.91104 0
M  V30 481 H 48.2003 0.145793 0.726516 0
M  V30 482 H 50.8473 1.03669 1.61012 0
M  V30 483 H 49.1523 -0.183906 3.91368 0
M  V30 484 H 50.8493 0.196588 4.00518 0
M  V30 485 H 47.4393 1.62966 3.96409 0
M  V30 486 H 51.6233 2.56885 4.24645 0
M  V30 487 H 46.8793 3.90612 4.70353 0
M  V30 488 H 51.0533 4.84811 4.99932 0
M  V30 489 H 48.6803 5.52196 5.22478 0
M  V30 490 N 50.2554 -1.46986 0.568584 0
M  V30 491 C 51.5324 -1.95592 -0.0174074 0
M  V30 492 C 51.9124 -1.51124 -1.47393 0
M  V30 493 O 51.2604 -0.755329 -2.15655 0
M  V30 494 C 51.4704 -3.48719 0.139913 0
M  V30 495 C 52.8184 -4.246 0.000426376 0
M  V30 496 O 53.8424 -3.56135 0.0680316 0
M  V30 497 O 52.7014 -5.46302 -0.146988 0
M  V30 498 H 49.7954 -0.82498 -0.0577599 0
M  V30 499 H 52.3414 -1.57335 0.635909 0
M  V30 500 H 51.1134 -3.73927 1.15301 0
M  V30 501 H 50.7364 -3.93771 -0.550491 0
M  V30 502 N 51.7335 -0.305618 -1.54608 0
M  V30 503 C 53.0105 0.355652 -1.92339 0
M  V30 504 C 53.3905 1.71324 -1.23335 0
M  V30 505 O 52.7385 2.25473 -0.370702 0
M  V30 506 C 52.9485 0.46572 -3.45879 0
M  V30 507 C 54.2965 0.734426 -4.182 0
M  V30 508 O 55.3205 0.54935 -3.51938 0
M  V30 509 O 54.1795 1.09024 -5.35515 0
M  V30 510 H 51.2735 0.199666 -0.802535 0
M  V30 511 H 53.8195 -0.354017 -1.65966 0
M  V30 512 H 52.5915 -0.488461 -3.88239 0
M  V30 513 H 52.2145 1.22367 -3.78301 0
M  V30 514 N 53.2116 1.57565 -0.0334293 0
M  V30 515 C 54.1446 2.05997 0.981866 0
M  V30 516 C 55.1226 0.956647 1.3148 0
M  V30 517 O 56.3066 1.22729 1.43073 0
M  V30 518 C 53.4336 2.48564 2.30074 0
M  V30 519 C 52.4796 3.69958 2.12211 0
M  V30 520 S 53.3126 5.16414 1.41692 0
M  V30 521 C 54.4686 5.6228 2.7494 0
M  V30 522 H 54.7016 2.91792 0.569612 0
M  V30 523 H 52.2346 1.53366 0.178376 0
M  V30 524 H 54.1926 2.73753 3.05892 0
M  V30 525 H 52.8536 1.63106 2.68431 0
M  V30 526 H 52.0466 3.97603 3.09722 0
M  V30 527 H 51.6486 3.44943 1.44535 0
M  V30 528 H 53.9406 5.66783 3.71165 0
M  V30 529 H 54.8836 6.61759 2.51953 0
M  V30 530 H 55.2916 4.89944 2.80384 0
M  V30 531 N 54.6897 -0.239769 1.55765 0
M  V30 532 C 55.6377 -1.31668 1.91745 0
M  V30 533 C 56.6317 -1.49462 0.797338 0
M  V30 534 O 57.8377 -1.50852 0.982021 0
M  V30 535 H 54.2127 -0.441048 0.609082 0
M  V30 536 H 56.1837 -0.985923 2.81642 0
M  V30 537 C 54.9327 -2.66368 2.2348 0
M  V30 538 H 54.2557 -2.53478 3.09175 0
M  V30 539 H 55.6957 -3.40578 2.52553 0
M  V30 540 C 54.1547 -3.20002 1.05359 0
M  V30 541 O 54.6847 -4.00538 0.305261 0
M  V30 542 N 52.8907 -2.78126 0.842292 0
M  V30 543 H 52.4377 -2.12742 1.45253 0
M  V30 544 H 52.3957 -3.14354 0.053652 0
M  V30 545 N 56.1678 -1.49265 -0.50573 0
M  V30 546 C 57.0978 -1.68495 -1.61653 0
M  V30 547 C 58.0788 -0.53366 -1.61512 0
M  V30 548 O 59.2638 -0.76897 -1.78327 0
M  V30 549 C 56.3938 -1.74709 -3.00157 0
M  V30 550 C 55.3478 -2.89581 -3.15162 0
M  V30 551 C 54.6738 -2.80903 -4.5497 0
M  V30 552 C 55.9738 -4.30578 -2.95634 0
M  V30 553 H 57.6678 -2.61493 -1.45814 0
M  V30 554 H 55.2138 -1.25838 -0.70005 0
M  V30 555 H 57.1668 -1.86748 -3.77761 0
M  V30 556 H 55.8908 -0.783067 -3.17074 0
M  V30 557 H 54.5498 -2.77136 -2.39982 0
M  V30 558 H 54.1978 -1.82419 -4.68756 0
M  V30 559 H 53.8978 -3.57999 -4.65951 0
M  V30 560 H 55.4218 -2.94944 -5.34641 0
M  V30 561 H 56.8358 -4.4373 -3.63011 0
M  V30 562 H 55.2328 -5.0886 -3.18091 0
M  V30 563 H 56.3028 -4.45352 -1.91806 0
M  V30 564 N 57.6459 0.756429 -1.3826 0
M  V30 565 C 58.8709 1.55077 -1.37717 0
M  V30 566 C 59.2959 1.88073 0.03164 0
M  V30 567 O 58.6539 1.50364 1.01293 0
M  V30 568 C 58.7019 2.8283 -2.23695 0
M  V30 569 O 57.8059 3.77862 -1.6521 0
M  V30 570 H 57.1469 0.469152 -0.469885 0
M  V30 571 H 59.6769 0.935019 -1.81985 0
M  V30 572 H 59.6869 3.31783 -2.37453 0
M  V30 573 H 58.3619 2.58144 -3.2609 0
M  V30 574 H 56.9389 3.36555 -1.60578 0
M  V30 575 N 59.124 1.23083 0.984299 0
M  V30 576 C 60.034 1.02515 2.11016 0
M  V30 577 C 61.05 -0.0291702 1.73976 0
M  V30 578 O 62.226 0.165434 2.00719 0
M  V30 579 C 59.291 0.614673 3.41208 0
M  V30 580 C 58.352 1.74359 3.92297 0
M  V30 581 C 57.585 1.35261 5.16275 0
M  V30 582 O 57.808 0.235136 5.69915 0
M  V30 583 O 56.742 2.17227 5.61334 0
M  V30 584 H 60.568 1.96862 2.31255 0
M  V30 585 H 58.153 1.01753 1.09392 0
M  V30 586 H 60.035 0.396518 4.1953 0
M  V30 587 H 58.71 -0.299851 3.22308 0
M  V30 588 H 57.617 2.01635 3.1511 0
M  V30 589 H 58.95 2.63629 4.15645 0
M  V30 590 N 60.6021 -1.18246 1.0419 0
M  V30 591 C 61.8271 -1.92736 0.765996 0
M  V30 592 C 62.2521 -1.75728 -0.67091 0
M  V30 593 O 61.6101 -1.06825 -1.46486 0
M  V30 594 C 61.6581 -3.42148 1.13875 0
M  V30 595 O 60.7621 -4.11548 0.264954 0
M  V30 596 H 60.1031 -0.601238 0.281797 0
M  V30 597 H 62.6331 -1.49942 1.39207 0
M  V30 598 H 62.6431 -3.92858 1.1012 0
M  V30 599 H 61.3181 -3.53848 2.18551 0
M  V30 600 H 59.8951 -3.71137 0.362226 0
M  V30 601 N 62.0802 -0.821533 -1.34494 0
M  V30 602 C 63.0102 -0.257138 -2.3208 0
M  V30 603 C 63.9912 0.625645 -1.58176 0
M  V30 604 O 65.1762 0.552811 -1.86166 0
M  V30 605 C 62.3062 0.582958 -3.42372 0
M  V30 606 C 61.2602 -0.202571 -4.2752 0
M  V30 607 C 60.5862 0.760179 -5.29269 0
M  V30 608 C 61.8862 -1.40998 -5.02908 0
M  V30 609 H 63.5802 -1.07247 -2.79532 0
M  V30 610 H 61.1262 -0.517163 -1.34393 0
M  V30 611 H 63.0792 0.987972 -4.09655 0
M  V30 612 H 61.8032 1.43133 -2.93565 0
M  V30 613 H 60.4622 -0.588936 -3.61838 0
M  V30 614 H 60.1102 1.60447 -4.76724 0
M  V30 615 H 59.8102 0.238809 -5.87115 0
M  V30 616 H 61.3342 1.16308 -5.9942 0
M  V30 617 H 62.7482 -1.07905 -5.63054 0
M  V30 618 H 61.1452 -1.86689 -5.70322 0
M  V30 619 H 62.2152 -2.1889 -4.32684 0
M  V30 620 N 63.5583 1.46682 -0.576371 0
M  V30 621 C 64.4883 2.33028 0.148397 0
M  V30 622 C 65.4693 1.44961 0.889956 0
M  V30 623 O 66.6543 1.73789 0.866662 0
M  V30 624 C 63.7843 3.27117 1.1667 0
M  V30 625 C 62.7383 4.24575 0.540386 0
M  V30 626 C 62.0643 5.08126 1.6647 0
M  V30 627 C 63.3643 5.19722 -0.518331 0
M  V30 628 H 65.0583 2.93875 -0.572509 0
M  V30 629 H 62.6043 1.41315 -0.276768 0
M  V30 630 H 64.5573 3.86374 1.68204 0
M  V30 631 H 63.2813 2.64364 1.9178 0
M  V30 632 H 61.9403 3.66571 0.0461769 0
M  V30 633 H 61.5883 4.41762 2.40531 0
M  V30 634 H 61.2883 5.74122 1.25131 0
M  V30 635 H 62.8123 5.70246 2.18293 0
M  V30 636 H 64.2263 5.73232 -0.0883058 0
M  V30 637 H 62.6233 5.94026 -0.851679 0
M  V30 638 H 63.6933 4.64037 -1.40703 0
M  V30 639 N 65.0364 0.313813 1.54444 0
M  V30 640 C 66.4524 -0.0391619 1.59552 0
M  V30 641 C 66.6524 -1.51322 1.33056 0
M  V30 642 O 65.7084 -2.26782 1.11022 0
M  V30 643 C 67.0214 0.370302 2.98411 0
M  V30 644 C 68.5694 0.320139 3.11358 0
M  V30 645 C 69.0444 0.704617 4.52547 0
M  V30 646 N 70.5354 0.657645 4.58508 0
M  V30 647 C 71.2704 0.927453 5.6585 0
M  V30 648 N 70.7664 1.26389 6.81174 0
M  V30 649 N 72.5594 0.853662 5.5558 0
M  V30 650 H 64.7104 1.27433 1.69925 0
M  V30 651 H 66.9734 0.517511 0.794284 0
M  V30 652 H 66.6794 1.39694 3.22767 0
M  V30 653 H 66.5534 -0.269619 3.76235 0
M  V30 654 H 68.9404 -0.697275 2.86744 0
M  V30 655 H 69.0214 0.99486 2.35661 0
M  V30 656 H 68.6654 1.7199 4.77893 0
M  V30 657 H 68.5954 0.00768843 5.26599 0
M  V30 658 H 71.0864 0.409067 3.75679 0
M  V30 659 H 71.3994 1.4554 7.58972 0
M  V30 660 H 69.7444 1.30206 6.82694 0
M  V30 661 H 72.9354 0.590383 4.64362 0
M  V30 662 H 73.1084 1.0673 6.3915 0
M  V30 663 N 66.5145 -1.57545 0.0417849 0
M  V30 664 C 67.7625 -1.91937 -0.632829 0
M  V30 665 C 68.0835 -0.919978 -1.71934 0
M  V30 666 O 67.3535 0.0366064 -1.95866 0
M  V30 667 H 65.9335 -0.708493 -0.236742 0
M  V30 668 H 68.5955 -1.9468 0.0925745 0
M  V30 669 H 67.6915 -2.92912 -1.07746 0
M  V30 670 N 67.9926 0.231505 -1.5589 0
M  V30 671 C 69.2416 0.955346 -1.7764 0
M  V30 672 C 69.5546 1.85893 -0.608546 0
M  V30 673 O 70.7606 2.62067 -0.70943 0
M  V30 674 C 69.2166 1.74886 -3.14552 0
M  V30 675 C 68.8246 0.891915 -4.39032 0
M  V30 676 C 70.5686 2.46452 -3.45633 0
M  V30 677 C 68.4756 1.68221 -5.66971 0
M  V30 678 H 67.4056 0.360446 -0.662265 0
M  V30 679 H 70.0566 0.209516 -1.823 0
M  V30 680 H 68.4386 2.53723 -3.04041 0
M  V30 681 H 69.6126 0.144793 -4.60572 0
M  V30 682 H 67.9276 0.288863 -4.15397 0
M  V30 683 H 70.5246 3.06061 -4.38441 0
M  V30 684 H 70.8676 3.18841 -2.67668 0
M  V30 685 H 71.4006 1.74613 -3.57428 0
M  V30 686 H 68.1396 1.00178 -6.478 0
M  V30 687 H 67.6596 2.4042 -5.49507 0
M  V30 688 H 69.3386 2.24544 -6.06786 0
M  V30 689 N 69.4707 1.49531 0.497807 0
M  V30 690 C 70.7007 1.62657 1.27382 0
M  V30 691 C 71.1087 0.298488 1.86831 0
M  V30 692 O 70.4517 -0.72647 1.68725 0
M  V30 693 C 70.5137 2.6393 2.44093 0
M  V30 694 C 70.1777 4.08195 2.05489 0
M  V30 695 C 71.1747 4.949 1.59279 0
M  V30 696 C 68.8597 4.53948 2.15026 0
M  V30 697 C 70.8537 6.25397 1.23113 0
M  V30 698 C 68.5407 5.84458 1.78473 0
M  V30 699 C 69.5387 6.70006 1.32591 0
M  V30 700 O 69.2267 7.98083 0.965327 0
M  V30 701 H 68.9587 0.550429 0.392434 0
M  V30 702 H 71.5127 1.96325 0.603801 0
M  V30 703 H 69.7427 2.25449 3.14181 0
M  V30 704 H 71.4317 2.66552 3.06113 0
M  V30 705 H 72.1977 4.60779 1.51354 0
M  V30 706 H 68.0767 3.87525 2.4969 0
M  V30 707 H 71.6207 6.92125 0.872299 0
M  V30 708 H 67.5177 6.18107 1.86048 0
M  V30 709 H 68.2857 8.11122 1.09652 0
M  V30 710 N 70.9488 -0.749086 1.3866 0
M  V30 711 C 71.9118 -1.84457 1.36045 0
M  V30 712 C 72.9118 -1.58682 0.260122 0
M  V30 713 O 74.1018 -1.66343 0.517261 0
M  V30 714 C 71.2338 -3.22008 1.11911 0
M  V30 715 H 72.4268 -1.88182 2.33512 0
M  V30 716 H 69.9798 -0.951266 1.24019 0
M  V30 717 H 70.7148 -3.2395 0.150686 0
M  V30 718 H 70.4998 -3.42111 1.91579 0
M  V30 719 H 71.9898 -4.0208 1.12788 0
M  V30 720 N 72.4269 -1.23603 -0.977757 0
M  V30 721 C 73.6569 -1.09487 -1.75203 0
M  V30 722 C 74.0649 0.356321 -1.85814 0
M  V30 723 O 73.4079 1.25816 -1.33851 0
M  V30 724 C 73.4699 -1.64905 -3.19447 0
M  V30 725 C 73.1339 -3.13688 -3.32338 0
M  V30 726 C 74.1309 -4.10953 -3.18455 0
M  V30 727 C 71.8159 -3.53449 -3.56902 0
M  V30 728 C 73.8099 -5.45962 -3.28944 0
M  V30 729 C 71.4969 -4.88602 -3.6703 0
M  V30 730 C 72.4949 -5.84668 -3.53062 0
M  V30 731 O 72.1829 -7.17365 -3.62826 0
M  V30 732 H 71.9149 -0.38367 -0.556573 0
M  V30 733 H 74.4689 -1.6398 -1.23693 0
M  V30 734 H 72.6989 -1.04835 -3.72218 0
M  V30 735 H 74.3879 -1.46226 -3.78646 0
M  V30 736 H 75.1539 -3.81577 -2.99372 0
M  V30 737 H 71.0329 -2.79188 -3.66844 0
M  V30 738 H 74.5769 -6.20925 -3.17958 0
M  V30 739 H 70.4739 -5.17653 -3.85623 0
M  V30 740 H 71.2419 -7.2515 -3.79605 0
M  V30 741 N 73.905 1.17692 -1.04816 0
M  V30 742 C 75.153 1.87488 -0.754497 0
M  V30 743 C 75.474 1.81205 0.720407 0
M  V30 744 O 74.744 1.23544 1.52032 0
M  V30 745 H 73.324 0.694101 -0.276102 0
M  V30 746 H 75.986 1.42793 -1.32651 0
M  V30 747 H 75.082 2.93328 -1.06606 0
M  V30 748 N 75.3831 0.828654 1.34056 0
M  V30 749 C 76.6301 0.419458 1.98108 0
M  V30 750 C 76.9581 -1.01886 1.65679 0
M  V30 751 O 76.2131 -1.72539 0.923512 0
M  V30 752 C 76.5121 0.575226 3.52741 0
M  V30 753 C 76.1781 1.98012 4.05095 0
M  V30 754 C 74.8401 2.36442 4.19104 0
M  V30 755 C 77.1921 2.89824 4.33188 0
M  V30 756 C 74.5201 3.66009 4.58535 0
M  V30 757 C 76.8721 4.1886 4.74066 0
M  V30 758 C 75.5361 4.5726 4.86281 0
M  V30 759 H 74.8061 0.153491 0.724929 0
M  V30 760 H 77.4531 1.05371 1.59904 0
M  V30 761 H 75.7581 -0.142385 3.91541 0
M  V30 762 H 77.4551 0.239057 4.00287 0
M  V30 763 H 74.0451 1.67162 3.94658 0
M  V30 764 H 78.2291 2.61375 4.21897 0
M  V30 765 H 73.4851 3.95579 4.66184 0
M  V30 766 H 77.6591 4.90086 4.94761 0
M  V30 767 H 75.2861 5.57707 5.16592 0
M  V30 768 N 76.8612 -1.46375 0.584142 0
M  V30 769 C 77.7712 -2.34115 -0.150728 0
M  V30 770 C 78.7872 -1.49838 -0.884567 0
M  V30 771 O 79.9632 -1.82704 -0.847429 0
M  V30 772 C 77.0282 -3.2705 -1.15062 0
M  V30 773 C 76.0892 -4.27228 -0.421293 0
M  V30 774 C 75.3222 -5.15722 -1.37355 0
M  V30 775 O 75.5452 -5.07176 -2.61014 0
M  V30 776 O 74.4792 -5.95383 -0.883355 0
M  V30 777 H 78.3052 -2.98309 0.569708 0
M  V30 778 H 75.8902 -1.45373 0.344535 0
M  V30 779 H 77.7722 -3.84381 -1.72712 0
M  V30 780 H 76.4472 -2.65451 -1.8525 0
M  V30 781 H 75.3542 -3.7358 0.197085 0
M  V30 782 H 76.6872 -4.91616 0.239641 0
M  V30 783 N 78.3393 -0.321999 -1.54275 0
M  V30 784 C 79.2863 0.544664 -2.24281 0
M  V30 785 C 80.2563 1.1129 -1.23303 0
M  V30 786 O 81.4413 1.15354 -1.51981 0
M  V30 787 C 78.5813 1.70045 -3.00298 0
M  V30 788 C 77.6943 1.16159 -4.1609 0
M  V30 789 C 76.8293 2.28293 -4.79641 0
M  V30 790 C 75.8683 1.71648 -5.8754 0
M  V30 791 N 75.0053 2.77438 -6.44959 0
M  V30 792 H 79.8453 -0.0588907 -2.97942 0
M  V30 793 H 77.3823 -0.0408345 -1.47043 0
M  V30 794 H 79.3403 2.38054 -3.42616 0
M  V30 795 H 77.9703 2.27531 -2.28975 0
M  V30 796 H 77.0223 0.373092 -3.78566 0
M  V30 797 H 78.3343 0.707087 -4.93763 0
M  V30 798 H 77.4883 3.0421 -5.2492 0
M  V30 799 H 76.2273 2.77079 -4.01346 0
M  V30 800 H 75.2323 0.942282 -5.41665 0
M  V30 801 H 76.4573 1.23741 -6.67731 0
M  V30 802 H 74.4033 3.25519 -5.69538 0
M  V30 803 H 74.3203 2.36547 -7.1804 0
M  V30 804 H 75.5883 3.53189 -6.94894 0
M  V30 805 N 79.8174 1.5752 -0.0501392 0
M  V30 806 C 81.2284 1.80271 0.485705 0
M  V30 807 C 81.5794 0.96228 1.70981 0
M  V30 808 O 80.7044 0.178578 2.15662 0
M  V30 809 C 81.2994 3.26957 0.887938 0
M  V30 810 C 79.8584 3.5063 1.36877 0
M  V30 811 C 79.0054 2.75165 0.343468 0
M  V30 812 H 81.9564 1.56281 -0.276028 0
M  V30 813 H 81.9774 3.37821 1.75093 0
M  V30 814 H 81.4894 3.881 -0.0031809 0
M  V30 815 H 79.5904 2.94766 2.27911 0
M  V30 816 H 79.7034 4.59343 1.36164 0
M  V30 817 H 78.0674 2.4127 0.816128 0
M  V30 818 H 78.8504 3.39034 -0.539548 0
M  V30 819 N 81.2955 -0.223234 1.56011 0
M  V30 820 C 82.5205 -0.968978 1.83373 0
M  V30 821 C 82.9455 -1.77227 0.630254 0
M  V30 822 O 82.3035 -1.76345 -0.420959 0
M  V30 823 C 82.3515 -1.86363 3.08709 0
M  V30 824 O 81.4555 -2.95873 2.87285 0
M  V30 825 H 80.7965 -0.274461 0.604622 0
M  V30 826 H 83.3265 -0.237056 2.03222 0
M  V30 827 H 83.3365 -2.27376 3.38768 0
M  V30 828 H 82.0115 -1.27319 3.95933 0
M  V30 829 H 80.5885 -2.58818 2.68454 0
M  V30 830 N 82.7736 -1.49793 -0.48987 0
M  V30 831 C 83.7366 -1.66752 -1.57246 0
M  V30 832 C 84.7366 -0.538867 -1.51502 0
M  V30 833 O 85.9266 -0.805545 -1.54456 0
M  V30 834 C 83.0586 -1.67528 -2.96896 0
M  V30 835 H 84.2516 -2.63321 -1.43534 0
M  V30 836 H 81.8046 -1.38992 -0.714914 0
M  V30 837 H 82.5396 -0.725837 -3.16073 0
M  V30 838 H 82.3246 -2.49504 -3.02473 0
M  V30 839 H 83.8146 -1.82667 -3.7553 0
M  V30 840 N 84.2517 0.741722 -1.39055 0
M  V30 841 C 85.5007 1.49656 -1.35225 0
M  V30 842 C 85.8137 1.95533 0.0512708 0
M  V30 843 O 87.0197 2.7067 0.212138 0
M  V30 844 C 85.4757 2.70389 -2.37525 0
M  V30 845 C 85.0837 2.31489 -3.83558 0
M  V30 846 C 86.8277 3.48236 -2.42759 0
M  V30 847 C 84.7347 3.48903 -4.77515 0
M  V30 848 H 83.6647 0.56197 -0.502699 0
M  V30 849 H 86.3157 0.809727 -1.64668 0
M  V30 850 H 84.6977 3.41113 -2.01142 0
M  V30 851 H 85.8717 1.68354 -4.28945 0
M  V30 852 H 84.1867 1.66749 -3.81554 0
M  V30 853 H 86.7837 4.35558 -3.1015 0
M  V30 854 H 87.1267 3.90229 -1.45008 0
M  V30 855 H 87.6597 2.84535 -2.78002 0
M  V30 856 H 84.3987 3.11966 -5.76504 0
M  V30 857 H 83.9187 4.11041 -4.36813 0
M  V30 858 H 85.5977 4.15328 -4.96096 0
M  V30 859 N 85.7298 1.2412 0.971189 0
M  V30 860 C 86.6618 0.988349 2.06795 0
M  V30 861 C 87.6748 -0.0409541 1.62748 0
M  V30 862 O 88.8638 0.195673 1.77424 0
M  V30 863 C 85.9638 0.469023 3.35639 0
M  V30 864 C 85.1368 1.56065 4.08611 0
M  V30 865 C 84.1958 1.04458 5.15728 0
M  V30 866 O 83.2218 1.73553 5.42096 0
M  V30 867 N 84.4238 -0.122817 5.8037 0
M  V30 868 H 87.1888 1.93265 2.29061 0
M  V30 869 H 84.7498 1.15102 1.13856 0
M  V30 870 H 86.7418 0.108613 4.04554 0
M  V30 871 H 85.3118 -0.380919 3.1027 0
M  V30 872 H 84.5318 2.09341 3.34021 0
M  V30 873 H 85.8198 2.29449 4.54126 0
M  V30 874 H 85.2178 -0.700563 5.61345 0
M  V30 875 H 83.7748 -0.424404 6.50417 0
M  V30 876 N 87.2079 -1.17134 1.05439 0
M  V30 877 C 88.1399 -2.2078 0.615539 0
M  V30 878 C 89.1529 -1.59584 -0.322001 0
M  V30 879 O 90.3419 -1.78133 -0.114344 0
M  V30 880 C 87.4419 -3.38691 -0.118938 0
M  V30 881 C 86.6149 -4.29454 0.829924 0
M  V30 882 C 85.6739 -5.26024 0.136258 0
M  V30 883 O 84.6999 -5.63952 0.77115 0
M  V30 884 N 85.9019 -5.69487 -1.1254 0
M  V30 885 H 88.6669 -2.59052 1.50705 0
M  V30 886 H 86.2279 -1.32058 0.936603 0
M  V30 887 H 88.2199 -4.00329 -0.593179 0
M  V30 888 H 86.7899 -2.98996 -0.91215 0
M  V30 889 H 86.0099 -3.65211 1.48373 0
M  V30 890 H 87.2979 -4.86984 1.47392 0
M  V30 891 H 86.6959 -5.4075 -1.6615 0
M  V30 892 H 85.2529 -6.33257 -1.54366 0
M  V30 893 N 88.686 -0.835752 -1.33615 0
M  V30 894 C 90.102 -0.523139 -1.50783 0
M  V30 895 C 90.302 0.950171 -1.77691 0
M  V30 896 O 89.358 1.73411 -1.83534 0
M  V30 897 C 90.671 -1.39378 -2.66448 0
M  V30 898 C 92.219 -1.39223 -2.80332 0
M  V30 899 C 92.694 -2.24765 -3.99055 0
M  V30 900 N 94.185 -2.22458 -4.06284 0
M  V30 901 C 94.92 -2.85386 -4.97336 0
M  V30 902 N 94.416 -3.57354 -5.93523 0
M  V30 903 N 96.209 -2.74872 -4.90308 0
M  V30 904 H 88.36 -1.78952 -1.14411 0
M  V30 905 H 90.623 -0.763297 -0.562212 0
M  V30 906 H 90.329 -2.44061 -2.53234 0
M  V30 907 H 90.203 -1.0676 -3.61776 0
M  V30 908 H 92.59 -0.353136 -2.92979 0
M  V30 909 H 92.671 -1.75846 -1.85773 0
M  V30 910 H 92.315 -3.28732 -3.87167 0
M  V30 911 H 92.245 -1.85485 -4.92852 0
M  V30 912 H 94.736 -1.70119 -3.37443 0
M  V30 913 H 95.049 -4.02584 -6.59656 0
M  V30 914 H 93.394 -3.61461 -5.93608 0
M  V30 915 H 96.585 -2.18213 -4.14126 0
M  V30 916 H 96.758 -3.24199 -5.61069 0
M  V30 917 N 90.1641 1.46063 -0.591896 0
M  V30 918 C 91.1271 2.28854 0.125973 0
M  V30 919 C 92.1271 1.38903 0.810107 0
M  V30 920 O 93.3171 1.61186 0.66066 0
M  V30 921 C 90.4491 3.19526 1.1881 0
M  V30 922 H 91.6421 2.93802 -0.601717 0
M  V30 923 H 89.1951 1.52325 -0.350254 0
M  V30 924 H 89.9301 2.59345 1.94707 0
M  V30 925 H 89.7151 3.85766 0.701936 0
M  V30 926 H 91.2051 3.81817 1.69132 0
M  V30 927 N 91.6422 0.330177 1.54103 0
M  V30 928 C 92.8912 -0.271336 1.99867 0
M  V30 929 C 93.2042 -1.52723 1.22209 0
M  V30 930 O 94.4102 -2.20515 1.58383 0
M  V30 931 C 92.8662 -0.534032 3.55916 0
M  V30 932 C 92.4742 0.705193 4.42415 0
M  V30 933 C 94.2182 -1.09514 4.1013 0
M  V30 934 C 92.1252 0.414035 5.89949 0
M  V30 935 H 91.0552 -0.105166 0.74663 0
M  V30 936 H 93.7062 0.443429 1.78062 0
M  V30 937 H 92.0882 -1.30915 3.73734 0
M  V30 938 H 93.2622 1.4804 4.36372 0
M  V30 939 H 91.5772 1.18698 3.99124 0
M  V30 940 H 94.1742 -1.3277 5.17954 0
M  V30 941 H 94.5172 -2.04656 3.62521 0
M  V30 942 H 95.0502 -0.381038 3.95971 0
M  V30 943 H 91.7892 1.33481 6.41766 0
M  V30 944 H 91.3092 -0.323336 5.98928 0
M  V30 945 H 92.9882 0.0263105 6.46995 0
M  V30 946 N 93.1203 -1.57491 0.0584922 0
M  V30 947 C 94.0503 -2.14988 -0.911178 0
M  V30 948 C 95.0313 -1.07343 -1.31952 0
M  V30 949 O 96.2163 -1.35318 -1.39294 0
M  V30 950 C 93.3463 -2.70078 -2.18347 0
M  V30 951 C 92.3003 -3.82771 -1.91495 0
M  V30 952 C 91.6263 -4.24408 -3.25241 0
M  V30 953 C 92.9263 -5.07592 -1.23075 0
M  V30 954 H 94.6203 -2.96263 -0.432246 0
M  V30 955 H 92.1663 -1.42512 -0.206469 0
M  V30 956 H 94.1193 -3.08943 -2.86587 0
M  V30 957 H 92.8433 -1.86005 -2.68458 0
M  V30 958 H 91.5023 -3.44389 -1.25664 0
M  V30 959 H 91.1503 -3.37275 -3.73168 0
M  V30 960 H 90.8503 -5.00366 -3.08071 0
M  V30 961 H 92.3743 -4.65879 -3.94701 0
M  V30 962 H 93.7883 -5.43857 -1.81362 0
M  V30 963 H 92.1853 -5.88741 -1.16207 0
M  V30 964 H 93.2553 -4.84454 -0.207847 0
M  V30 965 N 94.5984 0.214957 -1.56127 0
M  V30 966 C 96.0094 0.781386 -1.69562 0
M  V30 967 C 96.3604 1.84707 -0.66165 0
M  V30 968 O 95.4854 2.156 0.185927 0
M  V30 969 C 96.0804 1.42411 -3.07416 0
M  V30 970 C 94.6394 1.93786 -3.22683 0
M  V30 971 C 93.7864 0.800438 -2.65496 0
M  V30 972 H 96.7374 -0.00980633 -1.58697 0
M  V30 973 H 96.7584 2.29309 -3.0364 0
M  V30 974 H 96.2704 0.64826 -3.82648 0
M  V30 975 H 94.3714 2.74152 -2.52332 0
M  V30 976 H 94.4844 2.1133 -4.29973 0
M  V30 977 H 92.8484 1.2095 -2.2415 0
M  V30 978 H 93.6314 0.0371471 -3.4328 0
M  V30 979 N 96.0765 1.50051 0.48192 0
M  V30 980 C 97.3165 1.62128 1.24474 0
M  V30 981 C 97.6805 0.309742 1.89485 0
M  V30 982 O 98.8815 0.305854 2.67054 0
M  V30 983 C 97.1525 2.76151 2.26882 0
M  V30 984 S 98.7115 3.08297 3.12247 0
M  V30 985 H 95.5295 0.571661 0.422759 0
M  V30 986 H 98.1315 1.87791 0.54359 0
M  V30 987 H 96.8355 3.69942 1.77683 0
M  V30 988 H 96.3665 2.52541 3.0164 0
M  V30 989 H 98.3815 2.51287 4.27866 0
M  V30 990 N 97.5546 -0.734337 1.39446 0
M  V30 991 C 98.8036 -1.48937 1.36017 0
M  V30 992 C 99.1166 -1.95557 -0.0409005 0
M  V30 993 O 100.323 -2.70779 -0.19778 0
M  V30 994 C 98.7786 -2.69125 2.38955 0
M  V30 995 C 98.3866 -2.29452 3.8478 0
M  V30 996 C 100.131 -3.46944 2.44603 0
M  V30 997 C 98.0376 -3.46366 4.79358 0
M  V30 998 H 96.9676 -0.559296 0.505672 0
M  V30 999 H 99.6186 -0.800983 1.65095 0
M  V30 1000 H 98.0006 -3.40041 2.02948 0
M  V30 1001 H 99.1746 -1.66077 4.29831 0
M  V30 1002 H 97.4896 -1.64723 3.82433 0
M  V30 1003 H 100.087 -4.33907 3.12456 0
M  V30 1004 H 100.43 -3.89454 1.47076 0
M  V30 1005 H 100.963 -2.83056 2.79507 0
M  V30 1006 H 97.7016 -3.08905 5.78151 0
M  V30 1007 H 97.2216 -4.08719 4.38986 0
M  V30 1008 H 98.9006 -4.12691 4.98292 0
M  V30 1009 N 99.0327 -1.24633 -0.964593 0
M  V30 1010 C 99.9797 -1.04144 -2.05968 0
M  V30 1011 C 100.95 0.046262 -1.66036 0
M  V30 1012 O 102.135 -0.108972 -1.90489 0
M  V30 1013 C 99.2747 -0.65563 -3.38815 0
M  V30 1014 C 98.3877 -1.81714 -3.91923 0
M  V30 1015 C 97.5227 -1.37662 -5.13052 0
M  V30 1016 C 96.5617 -2.50788 -5.58365 0
M  V30 1017 N 95.6987 -2.07582 -6.70712 0
M  V30 1018 H 100.539 -1.9787 -2.22827 0
M  V30 1019 H 98.0757 -0.9855 -1.09208 0
M  V30 1020 H 100.034 -0.412954 -4.15151 0
M  V30 1021 H 98.6637 0.244627 -3.21872 0
M  V30 1022 H 97.7157 -2.1734 -3.12198 0
M  V30 1023 H 99.0277 -2.66705 -4.21509 0
M  V30 1024 H 98.1817 -1.093 -5.96773 0
M  V30 1025 H 96.9207 -0.497293 -4.85158 0
M  V30 1026 H 95.9257 -2.79906 -4.73215 0
M  V30 1027 H 97.1507 -3.39283 -5.88272 0
M  V30 1028 H 95.0967 -1.22051 -6.44546 0
M  V30 1029 H 95.0137 -2.86125 -6.99763 0
M  V30 1030 H 96.2817 -1.82369 -7.57867 0
M  V30 1031 N 100.511 1.16574 -1.06058 0
M  V30 1032 C 101.759 1.86677 -0.77434 0
M  V30 1033 C 102.08 1.81959 0.701147 0
M  V30 1034 O 101.35 1.2515 1.50713 0
M  V30 1035 H 99.9298 0.691134 -0.283449 0
M  V30 1036 H 102.592 1.41378 -1.34158 0
M  V30 1037 H 101.688 2.92181 -1.09711 0
M  V30 1038 N 101.989 0.842826 1.3317 0
M  V30 1039 C 103.219 0.453397 2.01564 0
M  V30 1040 C 103.627 -0.951147 1.63554 0
M  V30 1041 O 102.97 -1.63021 0.846746 0
M  V30 1042 C 103.032 0.499013 3.5602 0
M  V30 1043 C 102.696 1.86037 4.1742 0
M  V30 1044 C 103.693 2.82416 4.36506 0
M  V30 1045 C 101.378 2.15428 4.53757 0
M  V30 1046 C 103.372 4.06346 4.91082 0
M  V30 1047 C 101.059 3.39615 5.0804 0
M  V30 1048 C 102.057 4.3489 5.26649 0
M  V30 1049 O 101.745 5.5688 5.79776 0
M  V30 1050 H 101.477 0.177871 0.652179 0
M  V30 1051 H 104.031 1.13808 1.70988 0
M  V30 1052 H 102.261 -0.242467 3.85939 0
M  V30 1053 H 103.95 0.126852 4.05702 0
M  V30 1054 H 104.716 2.6101 4.08777 0
M  V30 1055 H 100.595 1.42061 4.38565 0
M  V30 1056 H 104.139 4.80722 5.05522 0
M  V30 1057 H 100.036 3.60876 5.352 0
M  V30 1058 H 100.804 5.58674 5.98185 0
M  V30 1059 N 103.467 -1.45747 0.599634 0
M  V30 1060 C 104.744 -1.95585 0.0240846 0
M  V30 1061 C 105.124 -1.54217 -1.44154 0
M  V30 1062 O 104.472 -0.800903 -2.14004 0
M  V30 1063 C 104.682 -3.48344 0.21385 0
M  V30 1064 C 106.03 -4.24504 0.0904902 0
M  V30 1065 O 107.054 -3.55911 0.143558 0
M  V30 1066 O 105.913 -5.46491 -0.0310766 0
M  V30 1067 H 103.007 -0.82602 -0.0402478 0
M  V30 1068 H 105.553 -1.55951 0.669139 0
M  V30 1069 H 104.325 -3.71397 1.23206 0
M  V30 1070 H 103.948 -3.9485 -0.466842 0
M  V30 1071 N 104.945 -0.338344 -1.53925 0
M  V30 1072 C 106.191 0.260143 -2.01125 0
M  V30 1073 C 106.524 1.50617 -1.22589 0
M  V30 1074 O 105.799 1.91979 -0.312113 0
M  V30 1075 C 106.082 0.579499 -3.55407 0
M  V30 1076 C 105.935 -0.678264 -4.44657 0
M  V30 1077 C 107.254 1.39122 -4.17532 0
M  V30 1078 H 104.373 0.0930772 -0.731099 0
M  V30 1079 H 107.015 -0.457852 -1.84401 0
M  V30 1080 H 105.165 1.19118 -3.69788 0
M  V30 1081 H 106.837 -1.31631 -4.42121 0
M  V30 1082 H 105.08 -1.3042 -4.13731 0
M  V30 1083 H 105.751 -0.410143 -5.50474 0
M  V30 1084 H 108.227 0.874035 -4.06817 0
M  V30 1085 H 107.103 1.58342 -5.25565 0
M  V30 1086 H 107.364 2.39178 -3.71815 0
M  V30 1087 N 106.423 1.57458 -0.0668435 0
M  V30 1088 C 107.672 1.92477 0.602947 0
M  V30 1089 C 107.985 0.948419 1.71068 0
M  V30 1090 O 109.191 1.19124 2.43971 0
M  V30 1091 C 107.647 3.41903 1.12383 0
M  V30 1092 C 107.255 4.47975 0.04737 0
M  V30 1093 C 108.999 3.85931 1.76797 0
M  V30 1094 C 106.906 5.88529 0.582022 0
M  V30 1095 H 105.836 0.718387 0.22899 0
M  V30 1096 H 108.487 1.82978 -0.138276 0
M  V30 1097 H 106.869 3.46459 1.91787 0
M  V30 1098 H 108.043 4.55029 -0.726978 0
M  V30 1099 H 106.358 4.13384 -0.500243 0
M  V30 1100 H 108.955 4.88322 2.17821 0
M  V30 1101 H 109.298 3.23029 2.62599 0
M  V30 1102 H 109.831 3.83958 1.04024 0
M  V30 1103 H 106.57 6.55065 -0.238721 0
M  V30 1104 H 106.09 5.85004 1.324 0
M  V30 1105 H 107.769 6.38258 1.05999 0
M  V30 1106 N 107.901 -0.206675 1.56239 0
M  V30 1107 C 108.864 -1.23976 1.92776 0
M  V30 1108 C 109.864 -1.39041 0.807729 0
M  V30 1109 O 111.054 -1.37051 1.0753 0
M  V30 1110 C 108.186 -2.61112 2.19165 0
M  V30 1111 H 109.379 -0.927764 2.85189 0
M  V30 1112 H 106.932 -0.447718 1.4975 0
M  V30 1113 H 107.667 -2.97386 1.29352 0
M  V30 1114 H 107.452 -2.51552 3.00772 0
M  V30 1115 H 108.942 -3.35633 2.48476 0
M  V30 1116 N 109.379 -1.50304 -0.473955 0
M  V30 1117 C 110.311 -1.65109 -1.58971 0
M  V30 1118 C 111.324 -0.532676 -1.53839 0
M  V30 1119 O 112.513 -0.805751 -1.59279 0
M  V30 1120 C 109.613 -1.61684 -2.97845 0
M  V30 1121 C 108.786 -2.8951 -3.27876 0
M  V30 1122 C 107.845 -2.78768 -4.4629 0
M  V30 1123 O 106.871 -3.52722 -4.46739 0
M  V30 1124 N 108.073 -1.9213 -5.47783 0
M  V30 1125 H 110.838 -2.61347 -1.46689 0
M  V30 1126 H 108.399 -1.47732 -0.662324 0
M  V30 1127 H 110.391 -1.52114 -3.75024 0
M  V30 1128 H 108.961 -0.731925 -3.03911 0
M  V30 1129 H 108.181 -3.13228 -2.39336 0
M  V30 1130 H 109.469 -3.74199 -3.4475 0
M  V30 1131 H 108.867 -1.31353 -5.50239 0
M  V30 1132 H 107.424 -1.88466 -6.23958 0
M  V30 1133 N 110.857 0.726932 -1.39834 0
M  V30 1134 C 111.82 1.82269 -1.38962 0
M  V30 1135 C 112.82 1.58248 -0.285334 0
M  V30 1136 O 114.01 1.65499 -0.54366 0
M  V30 1137 C 111.142 3.20186 -1.17019 0
M  V30 1138 H 112.335 1.84443 -2.36476 0
M  V30 1139 H 109.888 0.931416 -1.25516 0
M  V30 1140 H 110.623 3.23669 -0.202204 0
M  V30 1141 H 110.408 3.3902 -1.96998 0
M  V30 1142 H 111.898 4.00235 -1.1917 0
M  V30 1143 N 112.336 1.25143 0.95797 0
M  V30 1144 C 113.268 1.01023 2.05735 0
M  V30 1145 C 114.281 -0.0236902 1.62783 0
M  V30 1146 O 115.47 0.21448 1.77207 0
M  V30 1147 C 112.57 0.504595 3.35122 0
M  V30 1148 C 111.743 1.6039 4.06932 0
M  V30 1149 C 110.802 1.09922 5.14591 0
M  V30 1150 O 109.828 1.79293 5.40225 0
M  V30 1151 N 111.03 -0.0612545 5.80468 0
M  V30 1152 H 113.795 1.95683 2.26998 0
M  V30 1153 H 111.356 1.16303 1.12629 0
M  V30 1154 H 113.348 0.151516 4.04416 0
M  V30 1155 H 111.918 -0.347989 3.10657 0
M  V30 1156 H 111.138 2.12872 3.31782 0
M  V30 1157 H 112.426 2.34252 4.51667 0
M  V30 1158 H 111.824 -0.640985 5.62057 0
M  V30 1159 H 110.381 -0.355395 6.5083 0
M  V30 1160 N 113.814 -1.1601 1.06675 0
M  V30 1161 C 115.039 -1.91068 0.806706 0
M  V30 1162 C 115.464 -1.77112 -0.633485 0
M  V30 1163 O 114.822 -1.09908 -1.44187 0
M  V30 1164 C 114.87 -3.39655 1.21106 0
M  V30 1165 O 113.974 -4.10893 0.352189 0
M  V30 1166 H 113.315 -0.595125 0.294486 0
M  V30 1167 H 115.845 -1.46955 1.42356 0
M  V30 1168 H 115.855 -3.90434 1.18428 0
M  V30 1169 H 114.53 -3.49132 2.26008 0
M  V30 1170 H 113.107 -3.70285 0.440868 0
M  V30 1171 N 115.292 -0.849877 -1.32721 0
M  V30 1172 C 116.54 -0.450032 -1.97026 0
M  V30 1173 C 116.861 0.996604 -1.67609 0
M  V30 1174 O 116.131 1.6958 -0.980786 0
M  V30 1175 H 114.711 -0.163426 -0.728904 0
M  V30 1176 H 117.373 -1.08526 -1.6189 0
M  V30 1177 H 116.469 -0.591146 -3.0645 0
M  V30 1178 N 116.77 1.45427 -0.607355 0
M  V30 1179 C 117.998 2.06614 -0.108814 0
M  V30 1180 C 118.413 1.45204 1.2067 0
M  V30 1181 O 117.77 0.566132 1.73497 0
M  V30 1182 C 117.821 3.61481 0.0375347 0
M  V30 1183 O 117.542 4.20598 -1.22593 0
M  V30 1184 C 119.043 4.39652 0.567561 0
M  V30 1185 H 116.263 0.66747 -0.0687351 0
M  V30 1186 H 118.807 1.86675 -0.835022 0
M  V30 1187 H 116.962 3.80762 0.714068 0
M  V30 1188 H 117.376 5.1377 -1.05547 0
M  V30 1189 H 118.85 5.48518 0.61905 0
M  V30 1190 H 119.327 4.09417 1.58978 0
M  V30 1191 H 119.933 4.25234 -0.0749202 0
M  V30 1192 N 118.248 0.346503 1.53744 0
M  V30 1193 C 119.496 -0.248612 2.00565 0
M  V30 1194 C 119.817 -1.5083 1.23593 0
M  V30 1195 O 119.087 -1.92858 0.343912 0
M  V30 1196 H 117.667 -0.0948564 0.740953 0
M  V30 1197 H 120.329 0.468341 1.89189 0
M  V30 1198 H 119.425 -0.488994 3.08245 0
M  V30 1199 N 119.726 -1.57421 0.075193 0
M  V30 1200 C 120.673 -2.12915 -0.890843 0
M  V30 1201 C 121.643 -1.04252 -1.29309 0
M  V30 1202 O 122.828 -1.31933 -1.37834 0
M  V30 1203 C 119.968 -2.69795 -2.15186 0
M  V30 1204 C 119.081 -3.92624 -1.80194 0
M  V30 1205 C 118.216 -4.37736 -3.00933 0
M  V30 1206 C 117.255 -5.53205 -2.61974 0
M  V30 1207 N 116.392 -5.9326 -3.75483 0
M  V30 1208 H 121.232 -2.95156 -0.410735 0
M  V30 1209 H 118.769 -1.45854 -0.191086 0
M  V30 1210 H 120.727 -3.00883 -2.89008 0
M  V30 1211 H 119.357 -1.90313 -2.60731 0
M  V30 1212 H 118.409 -3.67977 -0.964218 0
M  V30 1213 H 119.721 -4.76482 -1.47534 0
M  V30 1214 H 118.875 -4.70503 -3.8303 0
M  V30 1215 H 117.614 -3.52739 -3.36789 0
M  V30 1216 H 116.619 -5.20086 -1.783 0
M  V30 1217 H 117.844 -6.39936 -2.27284 0
M  V30 1218 H 115.79 -5.11212 -4.11094 0
M  V30 1219 H 115.707 -6.71865 -3.46602 0
M  V30 1220 H 116.975 -6.30651 -4.58148 0
M  V30 1221 N 121.204 0.198386 -1.56346 0
M  V30 1222 C 122.432 0.935572 -1.84539 0
M  V30 1223 C 122.847 1.76989 -0.657281 0
M  V30 1224 O 122.204 1.78626 0.374043 0
M  V30 1225 C 122.255 1.8344 -3.11499 0
M  V30 1226 O 121.976 1.03377 -4.25728 0
M  V30 1227 C 123.477 2.68355 -3.52846 0
M  V30 1228 H 120.697 0.273126 -0.612897 0
M  V30 1229 H 123.241 0.20663 -2.03453 0
M  V30 1230 H 121.396 2.51701 -2.94492 0
M  V30 1231 H 121.81 1.64599 -4.98003 0
M  V30 1232 H 123.284 3.27085 -4.44657 0
M  V30 1233 H 123.761 3.41901 -2.75681 0
M  V30 1234 H 124.367 2.05471 -3.72373 0
M  V30 1235 N 122.682 1.50554 0.465978 0
M  V30 1236 C 123.645 1.69233 1.54574 0
M  V30 1237 C 124.645 0.562901 1.50626 0
M  V30 1238 O 125.835 0.830016 1.53155 0
M  V30 1239 C 122.967 1.7223 2.94193 0
M  V30 1240 H 124.16 2.65571 1.39327 0
M  V30 1241 H 121.713 1.40111 0.692711 0
M  V30 1242 H 122.448 0.77603 3.14878 0
M  V30 1243 H 122.233 2.54285 2.98466 0
M  V30 1244 H 123.723 1.88618 3.72576 0
M  V30 1245 N 124.16 -0.719506 1.40217 0
M  V30 1246 C 125.388 -1.50864 1.41589 0
M  V30 1247 C 125.803 -1.88794 0.0145275 0
M  V30 1248 O 125.16 -1.55174 -0.960594 0
M  V30 1249 C 125.211 -2.78646 2.30302 0
M  V30 1250 O 124.932 -2.42321 3.64983 0
M  V30 1251 C 126.433 -3.72569 2.40224 0
M  V30 1252 H 123.653 -0.465709 0.48307 0
M  V30 1253 H 126.197 -0.88785 1.84221 0
M  V30 1254 H 124.352 -3.37019 1.91042 0
M  V30 1255 H 124.766 -3.24514 4.12057 0
M  V30 1256 H 126.24 -4.5908 3.06512 0
M  V30 1257 H 126.717 -4.15403 1.42608 0
M  V30 1258 H 127.323 -3.20109 2.80019 0
M  V30 1259 N 125.638 -1.25649 -0.95132 0
M  V30 1260 C 126.885 -1.10594 -1.69633 0
M  V30 1261 C 127.213 0.352515 -1.91279 0
M  V30 1262 O 126.468 1.27601 -1.4838 0
M  V30 1263 C 126.767 -1.80909 -3.08231 0
M  V30 1264 C 126.433 -3.30825 -3.06375 0
M  V30 1265 C 125.095 -3.71722 -3.05576 0
M  V30 1266 C 127.447 -4.26589 -2.99452 0
M  V30 1267 C 124.775 -5.06788 -2.95606 0
M  V30 1268 C 127.127 -5.61683 -2.91024 0
M  V30 1269 C 125.791 -6.01904 -2.88562 0
M  V30 1270 H 125.061 -0.404691 -0.620731 0
M  V30 1271 H 127.708 -1.55964 -1.11119 0
M  V30 1272 H 126.013 -1.27979 -3.70309 0
M  V30 1273 H 127.71 -1.6671 -3.64704 0
M  V30 1274 H 124.3 -2.98287 -3.07771 0
M  V30 1275 H 128.484 -3.95982 -2.99185 0
M  V30 1276 H 123.74 -5.37126 -2.92071 0
M  V30 1277 H 127.914 -6.35578 -2.84629 0
M  V30 1278 H 125.541 -7.06521 -2.80593 0
M  V30 1279 N 127.117 1.15442 -1.07289 0
M  V30 1280 C 128.08 2.18358 -0.696591 0
M  V30 1281 C 129.08 1.58637 0.262837 0
M  V30 1282 O 130.27 1.74145 0.0438809 0
M  V30 1283 C 127.402 3.4089 -0.0266151 0
M  V30 1284 H 128.595 2.53162 -1.60776 0
M  V30 1285 H 126.148 1.29893 -0.869342 0
M  V30 1286 H 126.883 3.11653 0.896822 0
M  V30 1287 H 126.668 3.85495 -0.716657 0
M  V30 1288 H 128.158 4.17009 0.222028 0
M  V30 1289 N 128.595 0.856903 1.32268 0
M  V30 1290 C 129.844 0.457599 1.96441 0
M  V30 1291 C 130.157 -0.992426 1.68553 0
M  V30 1292 O 131.363 -1.49727 2.26482 0
M  V30 1293 C 129.819 0.767358 3.51624 0
M  V30 1294 C 129.427 2.23326 3.88367 0
M  V30 1295 C 131.171 0.435887 4.22256 0
M  V30 1296 C 129.078 2.48613 5.36606 0
M  V30 1297 H 128.008 0.167387 0.735185 0
M  V30 1298 H 130.659 1.048 1.5063 0
M  V30 1299 H 129.041 0.106367 3.95857 0
M  V30 1300 H 130.215 2.93623 3.55137 0
M  V30 1301 H 128.53 2.52948 3.30766 0
M  V30 1302 H 131.127 0.602202 5.31298 0
M  V30 1303 H 131.47 -0.622672 4.11617 0
M  V30 1304 H 132.003 1.05286 3.83614 0
M  V30 1305 H 128.742 3.53101 5.52268 0
M  V30 1306 H 128.262 1.82896 5.71235 0
M  V30 1307 H 129.941 2.32676 6.03714 0
M  V30 1308 N 130.073 -1.45103 0.615059 0
M  V30 1309 C 131.298 -2.07064 0.117988 0
M  V30 1310 C 131.723 -1.4554 -1.19163 0
M  V30 1311 O 131.081 -0.550855 -1.72729 0
M  V30 1312 C 131.129 -3.606 -0.000288387 0
M  V30 1313 O 130.233 -3.98847 -1.04856 0
M  V30 1314 H 129.574 -0.659467 0.0774581 0
M  V30 1315 H 132.104 -1.86236 0.847186 0
M  V30 1316 H 132.114 -4.07529 -0.196091 0
M  V30 1317 H 130.789 -4.04765 0.955932 0
M  V30 1318 H 129.366 -3.63577 -0.828619 0
M  V30 1319 N 131.551 -0.354651 -1.53558 0
M  V30 1320 C 132.8 0.239504 -2.00273 0
M  V30 1321 C 133.113 1.50759 -1.24623 0
M  V30 1322 O 134.319 2.17968 -1.61871 0
M  V30 1323 C 132.775 0.477341 -3.5672 0
M  V30 1324 C 132.383 -0.775488 -4.41237 0
M  V30 1325 C 134.127 1.02975 -4.11821 0
M  V30 1326 C 132.034 -0.507838 -5.89216 0
M  V30 1327 H 130.964 0.0932743 -0.748208 0
M  V30 1328 H 133.615 -0.471701 -1.77334 0
M  V30 1329 H 131.997 1.24953 -3.7577 0
M  V30 1330 H 133.171 -1.54963 -4.33962 0
M  V30 1331 H 131.486 -1.25033 -3.97185 0
M  V30 1332 H 134.083 1.24513 -5.2 0
M  V30 1333 H 134.426 1.98862 -3.65731 0
M  V30 1334 H 134.959 0.317994 -3.96527 0
M  V30 1335 H 131.698 -1.43674 -6.39561 0
M  V30 1336 H 131.218 0.228011 -5.99366 0
M  V30 1337 H 132.897 -0.129238 -6.46871 0
M  V30 1338 N 133.029 1.57378 -0.0835403 0
M  V30 1339 C 133.959 2.1641 0.87686 0
M  V30 1340 C 134.94 1.09429 1.30228 0
M  V30 1341 O 136.125 1.37516 1.37124 0
M  V30 1342 C 133.255 2.73517 2.14022 0
M  V30 1343 C 132.209 3.85769 1.85381 0
M  V30 1344 C 131.535 4.29529 3.18448 0
M  V30 1345 C 132.835 5.09486 1.14984 0
M  V30 1346 H 134.529 2.96914 0.385059 0
M  V30 1347 H 132.075 1.42823 0.18377 0
M  V30 1348 H 134.028 3.13463 2.81636 0
M  V30 1349 H 132.752 1.90252 2.65465 0
M  V30 1350 H 131.411 3.46345 1.20169 0
M  V30 1351 H 131.059 3.43169 3.67755 0
M  V30 1352 H 130.759 5.05204 3.00071 0
M  V30 1353 H 132.283 4.72099 3.8724 0
M  V30 1354 H 133.697 5.46674 1.72687 0
M  V30 1355 H 132.094 5.90515 1.06826 0
M  V30 1356 H 133.164 4.84724 0.130749 0
M  V30 1357 N 134.507 -0.190092 1.56449 0
M  V30 1358 C 135.439 -1.25973 1.91477 0
M  V30 1359 C 136.452 -1.41452 0.805931 0
M  V30 1360 O 137.641 -1.41789 1.08435 0
M  V30 1361 C 134.741 -2.63117 2.13594 0
M  V30 1362 C 133.914 -2.69182 3.4476 0
M  V30 1363 C 132.973 -3.87557 3.5593 0
M  V30 1364 O 131.999 -3.74427 4.28711 0
M  V30 1365 N 133.201 -5.03224 2.89388 0
M  V30 1366 H 135.966 -0.962394 2.83828 0
M  V30 1367 H 133.527 -0.379981 1.57378 0
M  V30 1368 H 135.519 -3.40742 2.1835 0
M  V30 1369 H 134.089 -2.85319 1.27719 0
M  V30 1370 H 133.309 -1.77793 3.51828 0
M  V30 1371 H 134.597 -2.70229 4.31107 0
M  V30 1372 H 133.995 -5.16791 2.30094 0
M  V30 1373 H 132.552 -5.78778 2.99764 0
M  V30 1374 N 135.985 -1.50799 -0.457987 0
M  V30 1375 C 136.917 -1.66786 -1.57211 0
M  V30 1376 C 137.93 -0.548962 -1.53265 0
M  V30 1377 O 139.119 -0.8226 -1.58416 0
M  V30 1378 C 136.219 -1.64834 -2.96113 0
M  V30 1379 C 135.392 -2.92971 -3.24787 0
M  V30 1380 C 134.451 -2.83485 -4.43309 0
M  V30 1381 O 133.477 -3.5744 -4.42973 0
M  V30 1382 N 134.679 -1.97929 -5.45714 0
M  V30 1383 H 137.444 -2.62889 -1.43909 0
M  V30 1384 H 135.005 -1.48427 -0.646617 0
M  V30 1385 H 136.997 -1.56084 -3.7339 0
M  V30 1386 H 135.567 -0.764118 -3.03117 0
M  V30 1387 H 134.787 -3.15749 -2.36 0
M  V30 1388 H 136.075 -3.77834 -3.40762 0
M  V30 1389 H 135.473 -1.37182 -5.48815 0
M  V30 1390 H 134.03 -1.95073 -6.21924 0
M  V30 1391 N 137.463 0.71206 -1.40597 0
M  V30 1392 C 138.712 1.46754 -1.38369 0
M  V30 1393 C 139.025 1.95598 0.0097839 0
M  V30 1394 O 140.231 2.71059 0.154677 0
M  V30 1395 C 138.687 2.65289 -2.43207 0
M  V30 1396 C 138.295 2.23301 -3.88382 0
M  V30 1397 C 140.039 3.43008 -2.50091 0
M  V30 1398 C 137.946 3.38696 -4.84808 0
M  V30 1399 H 136.876 0.55118 -0.514506 0
M  V30 1400 H 139.527 0.774616 -1.66349 0
M  V30 1401 H 137.909 3.36769 -2.08332 0
M  V30 1402 H 139.083 1.59218 -4.32419 0
M  V30 1403 H 137.398 1.58618 -3.85006 0
M  V30 1404 H 139.995 4.28881 -3.1932 0
M  V30 1405 H 140.338 3.87065 -1.53253 0
M  V30 1406 H 140.871 2.78574 -2.83974 0
M  V30 1407 H 137.61 2.99668 -5.82992 0
M  V30 1408 H 137.13 4.01683 -4.45433 0
M  V30 1409 H 138.809 4.04712 -5.04794 0
M  V30 1410 N 138.941 1.26152 0.944643 0
M  V30 1411 C 139.851 1.09176 2.07648 0
M  V30 1412 C 140.867 0.0261935 1.7398 0
M  V30 1413 O 142.043 0.229208 2.00091 0
M  V30 1414 C 139.108 0.722915 3.39079 0
M  V30 1415 C 138.169 1.86752 3.86552 0
M  V30 1416 C 137.402 1.51617 5.11711 0
M  V30 1417 O 137.625 0.416331 5.68879 0
M  V30 1418 O 136.559 2.34975 5.54139 0
M  V30 1419 H 140.385 2.0412 2.24875 0
M  V30 1420 H 137.97 1.05182 1.061 0
M  V30 1421 H 139.852 0.529787 4.18056 0
M  V30 1422 H 138.527 -0.197159 3.23099 0
M  V30 1423 H 137.434 2.11558 3.08535 0
M  V30 1424 H 138.767 2.76719 4.07047 0
M  V30 1425 N 140.419 -1.14872 1.07899 0
M  V30 1426 C 141.349 -2.2193 0.725887 0
M  V30 1427 C 142.33 -1.67622 -0.28927 0
M  V30 1428 O 143.515 -1.93533 -0.160787 0
M  V30 1429 C 140.645 -3.47061 0.128856 0
M  V30 1430 C 139.599 -4.14363 1.07178 0
M  V30 1431 C 138.925 -5.33636 0.337229 0
M  V30 1432 C 140.225 -4.63492 2.40775 0
M  V30 1433 H 141.919 -2.51724 1.62097 0
M  V30 1434 H 139.465 -1.20991 0.780838 0
M  V30 1435 H 141.418 -4.21199 -0.130147 0
M  V30 1436 H 140.142 -3.16617 -0.80134 0
M  V30 1437 H 138.801 -3.42173 1.3158 0
M  V30 1438 H 138.449 -4.99449 -0.596606 0
M  V30 1439 H 138.149 -5.79609 0.965788 0
M  V30 1440 H 139.673 -6.10539 0.0861567 0
M  V30 1441 H 141.087 -5.2913 2.20669 0
M  V30 1442 H 139.484 -5.20148 2.99276 0
M  V30 1443 H 140.554 -3.78834 3.02676 0
M  V30 1444 N 141.898 -0.863906 -1.31812 0
M  V30 1445 C 143.175 -0.39275 -1.91616 0
M  V30 1446 C 143.555 1.12461 -1.7865 0
M  V30 1447 O 142.903 1.95045 -1.19037 0
M  V30 1448 C 143.113 -0.867385 -3.38049 0
M  V30 1449 C 144.461 -0.889966 -4.15168 0
M  V30 1450 O 145.485 -0.812635 -3.46806 0
M  V30 1451 O 144.344 -1.00079 -5.37258 0
M  V30 1452 H 141.438 -0.116358 -0.818773 0
M  V30 1453 H 143.984 -0.951418 -1.40521 0
M  V30 1454 H 142.756 -1.91081 -3.41473 0
M  V30 1455 H 142.379 -0.286687 -3.96565 0
M  V30 1456 N 143.376 1.44774 -0.622745 0
M  V30 1457 C 144.306 2.33382 0.0741861 0
M  V30 1458 C 145.287 1.47719 0.843387 0
M  V30 1459 O 146.472 1.76458 0.810934 0
M  V30 1460 C 143.602 3.30663 1.06204 0
M  V30 1461 C 142.556 4.26079 0.405037 0
M  V30 1462 C 141.882 5.13165 1.5022 0
M  V30 1463 C 143.182 5.1781 -0.683414 0
M  V30 1464 H 144.876 2.91905 -0.665713 0
M  V30 1465 H 142.422 1.40363 -0.321587 0
M  V30 1466 H 144.375 3.9153 1.55827 0
M  V30 1467 H 143.099 2.70331 1.83272 0
M  V30 1468 H 141.758 3.66532 -0.0704683 0
M  V30 1469 H 141.406 4.49191 2.26355 0
M  V30 1470 H 141.106 5.77812 1.06803 0
M  V30 1471 H 142.63 5.76902 2.00041 0
M  V30 1472 H 144.044 5.72661 -0.270631 0
M  V30 1473 H 142.441 5.91015 -1.04023 0
M  V30 1474 H 143.511 4.59326 -1.55395 0
M  V30 1475 N 144.854 0.36279 1.53368 0
M  V30 1476 C 145.801 -0.485008 2.25646 0
M  V30 1477 C 146.771 -1.07982 1.2621 0
M  V30 1478 O 147.956 -1.11284 1.54986 0
M  V30 1479 C 145.096 -1.62023 3.04701 0
M  V30 1480 C 144.209 -1.05086 4.19024 0
M  V30 1481 C 143.344 -2.15496 4.85525 0
M  V30 1482 C 142.383 -1.5601 5.91884 0
M  V30 1483 N 141.52 -2.60241 6.52088 0
M  V30 1484 H 146.36 0.137864 2.97681 0
M  V30 1485 H 143.897 0.0798061 1.46883 0
M  V30 1486 H 145.855 -2.28887 3.48807 0
M  V30 1487 H 144.485 -2.2138 2.34927 0
M  V30 1488 H 143.537 -0.27259 3.79422 0
M  V30 1489 H 144.849 -0.575926 4.95464 0
M  V30 1490 H 144.003 -2.90186 5.32801 0
M  V30 1491 H 142.742 -2.66341 4.08551 0
M  V30 1492 H 141.747 -0.798338 5.43973 0
M  V30 1493 H 142.972 -1.05994 6.70777 0
M  V30 1494 H 140.918 -3.10304 5.77968 0
M  V30 1495 H 140.835 -2.17426 7.24059 0
M  V30 1496 H 142.103 -3.34641 7.04014 0
M  V30 1497 N 146.332 -1.57332 0.0918853 0
M  V30 1498 C 147.295 -2.12708 -0.85369 0
M  V30 1499 C 148.295 -1.05561 -1.213 0
M  V30 1500 O 149.485 -1.31461 -1.14296 0
M  V30 1501 C 146.617 -2.64503 -2.15061 0
M  V30 1502 H 147.81 -2.97573 -0.3729 0
M  V30 1503 H 145.363 -1.55509 -0.157072 0
M  V30 1504 H 146.098 -1.83149 -2.67632 0
M  V30 1505 H 145.883 -3.4284 -1.90272 0
M  V30 1506 H 147.373 -3.07351 -2.82711 0
M  V30 1507 N 147.81 0.181792 -1.56548 0
M  V30 1508 C 149.038 0.915947 -1.85521 0
M  V30 1509 C 149.453 1.76282 -0.676016 0
M  V30 1510 O 148.81 1.79012 0.355077 0
M  V30 1511 C 148.861 1.80126 -3.13427 0
M  V30 1512 O 148.582 0.988562 -4.26801 0
M  V30 1513 C 150.083 2.64597 -3.55673 0
M  V30 1514 H 147.303 0.26661 -0.61576 0
M  V30 1515 H 149.847 0.185039 -2.03661 0
M  V30 1516 H 148.002 2.48563 -2.97145 0
M  V30 1517 H 148.416 1.59308 -4.99721 0
M  V30 1518 H 149.89 3.2235 -4.48101 0
M  V30 1519 H 150.367 3.38958 -2.79292 0
M  V30 1520 H 150.973 2.0151 -3.74532 0
M  V30 1521 N 149.288 1.51039 0.449983 0
M  V30 1522 C 150.22 1.67617 1.56324 0
M  V30 1523 C 151.233 0.557083 1.52972 0
M  V30 1524 O 152.422 0.830989 1.57977 0
M  V30 1525 C 149.522 1.66402 2.95235 0
M  V30 1526 C 148.695 2.9469 3.23229 0
M  V30 1527 C 147.754 2.85832 4.41799 0
M  V30 1528 O 146.78 3.59785 4.41071 0
M  V30 1529 N 147.982 2.00821 5.44657 0
M  V30 1530 H 150.747 2.63648 1.42512 0
M  V30 1531 H 148.308 1.48767 0.638737 0
M  V30 1532 H 150.3 1.58062 3.72557 0
M  V30 1533 H 148.87 0.780182 3.02708 0
M  V30 1534 H 148.09 3.16996 2.34323 0
M  V30 1535 H 149.378 3.79636 3.38754 0
M  V30 1536 H 148.776 1.40091 5.48079 0
M  V30 1537 H 147.333 1.98368 6.20881 0
M  V30 1538 N 150.766 -0.704594 1.40972 0
M  V30 1539 C 151.729 -1.80035 1.41845 0
M  V30 1540 C 152.729 -1.57774 0.310474 0
M  V30 1541 O 153.919 -1.64613 0.56992 0
M  V30 1542 C 151.051 -3.18284 1.22098 0
M  V30 1543 H 152.244 -1.80658 2.3938 0
M  V30 1544 H 149.797 -0.911329 1.26982 0
M  V30 1545 H 150.532 -3.23306 0.253672 0
M  V30 1546 H 150.317 -3.35843 2.02366 0
M  V30 1547 H 151.807 -3.98289 1.25522 0
M  V30 1548 N 152.244 -1.26651 -0.937939 0
M  V30 1549 C 153.174 -1.10993 -2.05433 0
M  V30 1550 C 154.155 -0.0142161 -1.70094 0
M  V30 1551 O 155.34 -0.186837 -1.93299 0
M  V30 1552 C 152.47 -0.745561 -3.39203 0
M  V30 1553 C 151.424 -1.79337 -3.88616 0
M  V30 1554 C 150.75 -1.28324 -5.19073 0
M  V30 1555 C 152.05 -3.19553 -4.13138 0
M  V30 1556 H 153.744 -2.0438 -2.1879 0
M  V30 1557 H 151.29 -0.984041 -1.05131 0
M  V30 1558 H 153.243 -0.622888 -4.16771 0
M  V30 1559 H 151.967 0.22401 -3.25831 0
M  V30 1560 H 150.626 -1.90477 -3.13231 0
M  V30 1561 H 150.274 -0.303414 -5.02084 0
M  V30 1562 H 149.974 -1.98369 -5.53103 0
M  V30 1563 H 151.498 -1.1733 -5.99221 0
M  V30 1564 H 152.912 -3.11471 -4.81309 0
M  V30 1565 H 151.309 -3.87218 -4.58457 0
M  V30 1566 H 152.379 -3.65368 -3.18801 0
M  V30 1567 N 153.722 1.14298 -1.08507 0
M  V30 1568 C 154.968 1.85633 -0.816581 0
M  V30 1569 C 155.301 1.82784 0.656021 0
M  V30 1570 O 154.576 1.25926 1.48233 0
M  V30 1571 C 154.859 3.34223 -1.34041 0
M  V30 1572 C 154.712 3.45639 -2.87843 0
M  V30 1573 C 156.031 4.29356 -0.9665 0
M  V30 1574 H 153.15 0.67402 -0.298104 0
M  V30 1575 H 155.792 1.34214 -1.34487 0
M  V30 1576 H 153.942 3.78144 -0.89104 0
M  V30 1577 H 155.614 3.10498 -3.41158 0
M  V30 1578 H 153.857 2.86817 -3.25451 0
M  V30 1579 H 154.528 4.50089 -3.19569 0
M  V30 1580 H 157.004 3.93457 -1.35391 0
M  V30 1581 H 155.88 5.3178 -1.3602 0
M  V30 1582 H 156.141 4.41919 0.126362 0
M  V30 1583 N 155.201 0.870884 1.31352 0
M  V30 1584 C 156.131 0.343096 2.30966 0
M  V30 1585 C 157.112 -0.566507 1.60389 0
M  V30 1586 O 158.297 -0.483336 1.88089 0
M  V30 1587 C 155.427 -0.455487 3.443 0
M  V30 1588 C 154.381 0.361103 4.26474 0
M  V30 1589 C 153.707 -0.563221 5.31725 0
M  V30 1590 C 155.007 1.59566 4.97329 0
M  V30 1591 H 156.701 1.17548 2.75359 0
M  V30 1592 H 154.247 0.566686 1.32381 0
M  V30 1593 H 156.2 -0.83525 4.13039 0
M  V30 1594 H 154.924 -1.32139 2.98675 0
M  V30 1595 H 153.583 0.722825 3.59403 0
M  V30 1596 H 153.231 -1.42643 4.82351 0
M  V30 1597 H 152.931 -0.0207409 5.87596 0
M  V30 1598 H 154.455 -0.939808 6.03324 0
M  V30 1599 H 155.869 1.28728 5.58661 0
M  V30 1600 H 154.266 2.07728 5.63 0
M  V30 1601 H 155.336 2.34798 4.24262 0
M  V30 1602 N 156.679 -1.44442 0.630414 0
M  V30 1603 C 157.642 -2.29107 -0.0652523 0
M  V30 1604 C 158.642 -1.41002 -0.772995 0
M  V30 1605 O 159.832 -1.62881 -0.617692 0
M  V30 1606 C 156.964 -3.22564 -1.10296 0
M  V30 1607 H 158.157 -2.92103 0.679401 0
M  V30 1608 H 155.71 -1.51343 0.390517 0
M  V30 1609 H 156.445 -2.64416 -1.87762 0
M  V30 1610 H 156.23 -3.87491 -0.59941 0
M  V30 1611 H 157.72 -3.86167 -1.5895 0
M  V30 1612 N 158.157 -0.370918 -1.53173 0
M  V30 1613 C 159.568 0.107139 -1.86392 0
M  V30 1614 C 159.919 1.47714 -1.29132 0
M  V30 1615 O 159.044 2.07464 -0.615439 0
M  V30 1616 C 159.639 0.201187 -3.38202 0
M  V30 1617 C 158.198 0.623507 -3.712 0
M  V30 1618 C 157.345 -0.225978 -2.76378 0
M  V30 1619 H 160.296 -0.58951 -1.47345 0
M  V30 1620 H 160.317 1.02377 -3.66468 0
M  V30 1621 H 159.829 -0.796058 -3.79848 0
M  V30 1622 H 157.93 1.62879 -3.35114 0
M  V30 1623 H 158.043 0.394414 -4.77474 0
M  V30 1624 H 156.407 0.305962 -2.52856 0
M  V30 1625 H 157.19 -1.22086 -3.20858 0
M  V30 1626 N 159.635 1.57281 -0.100228 0
M  V30 1627 C 160.863 1.98879 0.570509 0
M  V30 1628 C 161.278 0.979476 1.61405 0
M  V30 1629 O 160.635 -0.0302288 1.82475 0
M  V30 1630 C 160.686 3.4052 1.2136 0
M  V30 1631 O 160.407 4.37588 0.211786 0
M  V30 1632 C 161.908 3.97149 1.96945 0
M  V30 1633 H 159.128 0.653428 0.152555 0
M  V30 1634 H 161.672 2.03697 -0.18103 0
M  V30 1635 H 159.827 3.367 1.91603 0
M  V30 1636 H 160.241 5.20118 0.676607 0
M  V30 1637 H 161.715 4.98393 2.37294 0
M  V30 1638 H 162.192 3.3525 2.83733 0
M  V30 1639 H 162.798 4.04458 1.31506 0
M  V30 1640 N 161.113 -0.173488 1.56642 0
M  V30 1641 C 162.529 -0.525174 1.50712 0
M  V30 1642 C 162.729 -1.8476 0.804107 0
M  V30 1643 O 161.785 -2.49869 0.363574 0
M  V30 1644 C 163.098 -0.559937 2.95441 0
M  V30 1645 C 164.646 -0.647288 3.06234 0
M  V30 1646 C 165.121 -0.712963 4.52417 0
M  V30 1647 N 166.612 -0.775911 4.56655 0
M  V30 1648 C 167.347 -0.847264 5.67106 0
M  V30 1649 N 166.843 -0.879585 6.87194 0
M  V30 1650 N 168.636 -0.886117 5.55071 0
M  V30 1651 H 160.787 0.693681 2.00753 0
M  V30 1652 H 163.05 0.249841 0.914485 0
M  V30 1653 H 162.756 0.343049 3.50023 0
M  V30 1654 H 162.63 -1.40718 3.49969 0
M  V30 1655 H 165.017 -1.5407 2.51687 0
M  V30 1656 H 165.098 0.226586 2.54794 0
M  V30 1657 H 164.742 0.176183 5.07594 0
M  V30 1658 H 164.672 -1.60295 5.0161 0
M  V30 1659 H 167.163 -0.759304 3.70193 0
M  V30 1660 H 167.476 -0.935144 7.67121 0
M  V30 1661 H 165.821 -0.847898 6.89808 0
M  V30 1662 H 169.012 -0.857853 4.60172 0
M  V30 1663 H 169.185 -0.938263 6.41171 0
M  V30 1664 N 162.591 -1.51276 -0.441967 0
M  V30 1665 C 163.501 -1.75092 -1.56141 0
M  V30 1666 C 164.517 -0.634963 -1.62001 0
M  V30 1667 O 165.693 -0.916686 -1.79329 0
M  V30 1668 C 162.758 -1.86666 -2.92158 0
M  V30 1669 C 161.819 -3.10506 -2.96453 0
M  V30 1670 C 161.052 -3.21519 -4.25982 0
M  V30 1671 O 161.275 -2.38586 -5.18105 0
M  V30 1672 O 160.209 -4.14465 -4.36466 0
M  V30 1673 H 164.035 -2.70044 -1.38961 0
M  V30 1674 H 161.62 -1.35722 -0.624499 0
M  V30 1675 H 163.502 -1.96292 -3.72891 0
M  V30 1676 H 162.177 -0.949014 -3.09476 0
M  V30 1677 H 161.084 -3.06363 -2.14692 0
M  V30 1678 H 162.417 -4.01945 -2.84079 0
M  V30 1679 N 164.069 0.697108 -1.41344 0
M  V30 1680 C 164.999 1.82353 -1.45841 0
M  V30 1681 C 165.98 1.67115 -0.317247 0
M  V30 1682 O 167.165 1.86871 -0.528474 0
M  V30 1683 C 164.295 3.20476 -1.33838 0
M  V30 1684 C 163.249 3.50415 -2.4575 0
M  V30 1685 C 162.575 4.87878 -2.18813 0
M  V30 1686 C 163.875 3.49546 -3.88091 0
M  V30 1687 H 165.569 1.78846 -2.40113 0
M  V30 1688 H 163.115 0.859028 -1.15571 0
M  V30 1689 H 165.068 3.98988 -1.35596 0
M  V30 1690 H 163.792 3.24604 -0.360498 0
M  V30 1691 H 162.451 2.74253 -2.43271 0
M  V30 1692 H 162.099 4.8863 -1.19371 0
M  V30 1693 H 161.799 5.08875 -2.93803 0
M  V30 1694 H 163.323 5.68702 -2.22284 0
M  V30 1695 H 164.737 4.18066 -3.92293 0
M  V30 1696 H 163.134 3.82075 -4.62751 0
M  V30 1697 H 164.204 2.48552 -4.16353 0
M  V30 1698 N 165.547 1.27147 0.931209 0
M  V30 1699 C 166.51 1.09615 2.01289 0
M  V30 1700 C 167.51 0.0412581 1.60747 0
M  V30 1701 O 168.7 0.285545 1.71844 0
M  V30 1702 C 165.832 0.669447 3.34262 0
M  V30 1703 H 167.025 2.05662 2.18273 0
M  V30 1704 H 164.578 1.09885 1.11153 0
M  V30 1705 H 165.313 -0.292572 3.22978 0
M  V30 1706 H 165.098 1.43127 3.65044 0
M  V30 1707 H 166.588 0.568921 4.13706 0
M  V30 1708 N 167.025 -1.13721 1.09112 0
M  V30 1709 C 167.957 -2.1871 0.685467 0
M  V30 1710 C 168.97 -1.60527 -0.271068 0
M  V30 1711 O 170.159 -1.78407 -0.0576148 0
M  V30 1712 C 167.259 -3.38898 -0.0111255 0
M  V30 1713 C 166.432 -4.26597 0.966131 0
M  V30 1714 C 165.491 -5.25324 0.303539 0
M  V30 1715 O 164.517 -5.61213 0.950177 0
M  V30 1716 N 165.719 -5.72779 -0.943651 0
M  V30 1717 H 168.484 -2.54126 1.58871 0
M  V30 1718 H 166.045 -1.29012 0.978143 0
M  V30 1719 H 168.037 -4.02014 -0.465517 0
M  V30 1720 H 166.607 -3.01747 -0.816565 0
M  V30 1721 H 165.827 -3.60306 1.59917 0
M  V30 1722 H 167.115 -4.82048 1.6281 0
M  V30 1723 H 166.513 -5.45762 -1.48862 0
M  V30 1724 H 165.07 -6.37847 -1.34142 0
M  V30 1725 N 168.503 -0.877838 -1.30888 0
M  V30 1726 C 169.435 -0.296607 -2.27273 0
M  V30 1727 C 170.448 0.544799 -1.53414 0
M  V30 1728 O 171.637 0.365511 -1.74718 0
M  V30 1729 C 168.737 0.597481 -3.33592 0
M  V30 1730 C 167.91 -0.213251 -4.3688 0
M  V30 1731 C 166.969 0.610208 -5.2265 0
M  V30 1732 O 165.995 0.035441 -5.69189 0
M  V30 1733 N 167.197 1.92071 -5.47804 0
M  V30 1734 H 169.962 -1.12492 -2.77787 0
M  V30 1735 H 167.523 -0.740105 -1.43993 0
M  V30 1736 H 169.515 1.15425 -3.87891 0
M  V30 1737 H 168.085 1.32647 -2.83061 0
M  V30 1738 H 167.305 -0.951466 -3.82545 0
M  V30 1739 H 168.593 -0.769262 -5.02951 0
M  V30 1740 H 167.991 2.4107 -5.11763 0
M  V30 1741 H 166.548 2.42508 -6.05007 0
M  V30 1742 N 169.982 1.44106 -0.638065 0
M  V30 1743 C 171.231 2.01194 -0.142744 0
M  V30 1744 C 171.544 1.50835 1.24532 0
M  V30 1745 O 172.75 2.00096 1.83504 0
M  V30 1746 C 171.206 3.59319 -0.20442 0
M  V30 1747 C 170.814 4.18674 -1.59423 0
M  V30 1748 C 172.558 4.23854 0.234079 0
M  V30 1749 C 170.465 5.69045 -1.61065 0
M  V30 1750 H 169.395 0.752367 -0.0495998 0
M  V30 1751 H 172.046 1.65246 -0.797881 0
M  V30 1752 H 170.428 3.92598 0.517946 0
M  V30 1753 H 171.602 3.96921 -2.34074 0
M  V30 1754 H 169.917 3.66453 -1.97741 0
M  V30 1755 H 172.514 5.34155 0.241443 0
M  V30 1756 H 172.857 3.96688 1.2627 0
M  V30 1757 H 173.39 3.95403 -0.436025 0
M  V30 1758 H 170.129 6.00956 -2.61787 0
M  V30 1759 H 169.649 5.929 -0.90718 0
M  V30 1760 H 171.328 6.32809 -1.34766 0
M  V30 1761 N 171.46 0.379036 1.52974 0
M  V30 1762 C 172.392 -0.495963 2.2377 0
M  V30 1763 C 173.405 -1.03517 1.25651 0
M  V30 1764 O 174.594 -0.939249 1.51791 0
M  V30 1765 C 171.694 -1.69894 2.93239 0
M  V30 1766 C 170.867 -1.2889 4.17979 0
M  V30 1767 C 169.926 -2.35543 4.70538 0
M  V30 1768 O 168.952 -1.97375 5.33883 0
M  V30 1769 N 170.154 -3.67318 4.49508 0
M  V30 1770 H 172.919 0.110523 2.99496 0
M  V30 1771 H 170.48 0.204878 1.60598 0
M  V30 1772 H 172.472 -2.40747 3.25304 0
M  V30 1773 H 171.042 -2.212 2.20883 0
M  V30 1774 H 170.262 -0.409676 3.92065 0
M  V30 1775 H 171.55 -0.991443 4.99047 0
M  V30 1776 H 170.948 -4.01095 3.98923 0
M  V30 1777 H 169.505 -4.34235 4.8609 0
M  V30 1778 N 172.938 -1.57226 0.108567 0
M  V30 1779 C 173.885 -2.14756 -0.845481 0
M  V30 1780 C 174.855 -1.06971 -1.27068 0
M  V30 1781 O 176.04 -1.34827 -1.35005 0
M  V30 1782 C 173.18 -2.74298 -2.09415 0
M  V30 1783 C 172.293 -3.96358 -1.71826 0
M  V30 1784 C 171.428 -4.44021 -2.9158 0
M  V30 1785 C 170.467 -5.58637 -2.50181 0
M  V30 1786 N 169.604 -6.01091 -3.62814 0
M  V30 1787 H 174.444 -2.95961 -0.348035 0
M  V30 1788 H 171.981 -1.46226 -0.160106 0
M  V30 1789 H 173.939 -3.06945 -2.82561 0
M  V30 1790 H 172.569 -1.95801 -2.56636 0
M  V30 1791 H 171.621 -3.69939 -0.885947 0
M  V30 1792 H 172.933 -4.79504 -1.37394 0
M  V30 1793 H 172.087 -4.78522 -3.72963 0
M  V30 1794 H 170.826 -3.59803 -3.29231 0
M  V30 1795 H 169.831 -5.23751 -1.67228 0
M  V30 1796 H 171.056 -6.44613 -2.13659 0
M  V30 1797 H 169.002 -5.19817 -4.00158 0
M  V30 1798 H 168.919 -6.79066 -3.32273 0
M  V30 1799 H 170.187 -6.40227 -4.44668 0
M  V30 1800 N 174.416 0.165178 -1.56732 0
M  V30 1801 C 175.662 0.882112 -1.82611 0
M  V30 1802 C 175.995 1.81628 -0.687378 0
M  V30 1803 O 175.27 1.92009 0.310267 0
M  V30 1804 C 175.553 1.67245 -3.18906 0
M  V30 1805 C 175.406 0.760987 -4.43316 0
M  V30 1806 C 176.725 2.63884 -3.52212 0
M  V30 1807 H 173.844 0.319242 -0.664269 0
M  V30 1808 H 176.486 0.148052 -1.89422 0
M  V30 1809 H 174.636 2.29824 -3.1323 0
M  V30 1810 H 176.308 0.147596 -4.61064 0
M  V30 1811 H 174.551 0.0694102 -4.33744 0
M  V30 1812 H 175.222 1.34962 -5.35247 0
M  V30 1813 H 177.698 2.11429 -3.58381 0
M  V30 1814 H 176.574 3.16245 -4.48643 0
M  V30 1815 H 176.835 3.44377 -2.77231 0
M  V30 1816 N 175.894 1.51508 0.433938 0
M  V30 1817 C 177.14 1.64588 1.18484 0
M  V30 1818 C 177.473 0.362666 1.90784 0
M  V30 1819 O 176.748 -0.637892 1.83742 0
M  V30 1820 C 177.031 2.85149 2.19913 0
M  V30 1821 C 176.884 4.23456 1.51674 0
M  V30 1822 C 178.203 3.01227 3.20858 0
M  V30 1823 H 175.322 0.598994 0.429389 0
M  V30 1824 H 177.964 1.84002 0.473647 0
M  V30 1825 H 176.114 2.68729 2.80566 0
M  V30 1826 H 177.786 4.51552 0.943322 0
M  V30 1827 H 176.029 4.25998 0.819035 0
M  V30 1828 H 176.7 5.03812 2.2556 0
M  V30 1829 H 179.176 3.16382 2.70263 0
M  V30 1830 H 178.052 3.87141 3.89118 0
M  V30 1831 H 178.313 2.13447 3.8716 0
M  V30 1832 N 177.372 -0.689602 1.41712 0
M  V30 1833 C 178.305 -1.81403 1.3845 0
M  V30 1834 C 179.283 -1.60653 0.250874 0
M  V30 1835 O 180.467 -1.83323 0.43874 0
M  V30 1836 C 177.594 -3.18176 1.1611 0
M  V30 1837 C 176.64 -3.57705 2.3227 0
M  V30 1838 S 177.473 -3.61827 3.94767 0
M  V30 1839 C 178.629 -5.01318 3.74742 0
M  V30 1840 H 178.862 -1.83893 2.33603 0
M  V30 1841 H 176.395 -0.858878 1.28307 0
M  V30 1842 H 178.353 -3.97132 1.03907 0
M  V30 1843 H 177.014 -3.13288 0.225668 0
M  V30 1844 H 176.207 -4.57082 2.12349 0
M  V30 1845 H 175.809 -2.86073 2.40911 0
M  V30 1846 H 178.101 -5.88986 3.34817 0
M  V30 1847 H 179.044 -5.26283 4.73743 0
M  V30 1848 H 179.452 -4.73138 3.07898 0
M  V30 1849 N 178.85 -1.27639 -0.924453 0
M  V30 1850 C 179.813 -1.10681 -2.00705 0
M  V30 1851 C 180.813 -0.0497823 -1.60723 0
M  V30 1852 O 182.003 -0.294654 -1.7169 0
M  V30 1853 C 179.135 -0.687164 -3.33902 0
M  V30 1854 H 180.328 -2.06817 -2.17179 0
M  V30 1855 H 177.881 -1.10473 -1.10569 0
M  V30 1856 H 178.616 0.275439 -3.23128 0
M  V30 1857 H 178.401 -1.45061 -3.6428 0
M  V30 1858 H 179.891 -0.590853 -4.13399 0
M  V30 1859 N 180.328 1.1314 -1.09713 0
M  V30 1860 C 181.258 2.20748 -0.761102 0
M  V30 1861 C 182.239 1.68061 0.262566 0
M  V30 1862 O 183.424 1.93765 0.129977 0
M  V30 1863 C 180.554 3.46812 -0.184054 0
M  V30 1864 C 179.508 4.12606 -1.13757 0
M  V30 1865 C 178.834 5.33031 -0.422083 0
M  V30 1866 C 180.134 4.59603 -2.48118 0
M  V30 1867 H 181.828 2.49113 -1.66082 0
M  V30 1868 H 179.374 1.19734 -0.799987 0
M  V30 1869 H 181.327 4.21353 0.0631215 0
M  V30 1870 H 180.051 3.17851 0.750868 0
M  V30 1871 H 178.71 3.40036 -1.37007 0
M  V30 1872 H 178.358 5.00335 0.517072 0
M  V30 1873 H 178.058 5.77999 -1.05788 0
M  V30 1874 H 179.582 6.10325 -0.183277 0
M  V30 1875 H 180.996 5.25552 -2.29059 0
M  V30 1876 H 179.393 5.15321 -3.07514 0
M  V30 1877 H 180.463 3.73971 -3.08665 0
M  V30 1878 N 181.806 0.884767 1.30421 0
M  V30 1879 C 183.054 0.502112 1.95763 0
M  V30 1880 C 183.375 -0.951815 1.70192 0
M  V30 1881 O 182.645 -1.6692 1.0254 0
M  V30 1882 H 181.225 0.182694 0.724315 0
M  V30 1883 H 183.887 1.1278 1.58955 0
M  V30 1884 H 182.983 0.672188 3.04775 0
M  V30 1885 N 183.284 -1.43765 0.645699 0
M  V30 1886 C 184.561 -1.9541 0.0862963 0
M  V30 1887 C 184.941 -1.58725 -1.39175 0
M  V30 1888 O 184.289 -0.868581 -2.11348 0
M  V30 1889 C 184.499 -3.47488 0.324565 0
M  V30 1890 C 185.847 -4.24001 0.225497 0
M  V30 1891 O 186.871 -3.55274 0.256715 0
M  V30 1892 O 185.73 -5.46313 0.142801 0
M  V30 1893 H 182.824 -0.826882 -0.0139483 0
M  V30 1894 H 185.37 -1.53743 0.718415 0
M  V30 1895 H 184.142 -3.67289 1.3496 0
M  V30 1896 H 183.765 -3.96135 -0.340987 0
M  V30 1897 N 184.763 -0.387143 -1.52771 0
M  V30 1898 C 185.993 0.195585 -2.05672 0
M  V30 1899 C 186.401 1.41241 -1.25887 0
M  V30 1900 O 185.744 1.81265 -0.298081 0
M  V30 1901 C 185.806 0.632327 -3.53895 0
M  V30 1902 C 185.47 -0.470739 -4.54569 0
M  V30 1903 C 186.467 -1.32746 -5.02667 0
M  V30 1904 C 184.152 -0.637151 -4.98243 0
M  V30 1905 C 186.146 -2.33574 -5.93061 0
M  V30 1906 C 183.833 -1.64877 -5.88438 0
M  V30 1907 C 184.831 -2.49649 -6.35739 0
M  V30 1908 O 184.519 -3.49082 -7.24153 0
M  V30 1909 H 184.251 0.033658 -0.675162 0
M  V30 1910 H 186.805 -0.550221 -1.97893 0
M  V30 1911 H 185.035 1.43008 -3.59285 0
M  V30 1912 H 186.724 1.14048 -3.89548 0
M  V30 1913 H 187.49 -1.21019 -4.69659 0
M  V30 1914 H 183.369 0.0129567 -4.60998 0
M  V30 1915 H 186.913 -2.99777 -6.29904 0
M  V30 1916 H 182.81 -1.76643 -6.2086 0
M  V30 1917 H 183.578 -3.45065 -7.42208 0
M  V30 1918 N 186.241 1.57166 -0.116904 0
M  V30 1919 C 187.174 2.10912 0.871291 0
M  V30 1920 C 188.152 1.025 1.26224 0
M  V30 1921 O 189.336 1.3014 1.36366 0
M  V30 1922 C 186.463 2.6041 2.16574 0
M  V30 1923 C 185.509 3.80687 1.92302 0
M  V30 1924 S 186.342 5.23199 1.14119 0
M  V30 1925 C 187.498 5.76064 2.44748 0
M  V30 1926 H 187.731 2.94401 0.414138 0
M  V30 1927 H 185.264 1.54096 0.096829 0
M  V30 1928 H 187.222 2.89583 2.9095 0
M  V30 1929 H 185.883 1.77106 2.59408 0
M  V30 1930 H 185.076 4.13462 2.8821 0
M  V30 1931 H 184.678 3.5212 1.26047 0
M  V30 1932 H 186.97 5.8566 3.406 0
M  V30 1933 H 187.913 6.74184 2.16521 0
M  V30 1934 H 188.321 5.04117 2.54019 0
M  V30 1935 N 187.719 -0.156864 1.56817 0
M  V30 1936 C 188.967 -0.869404 1.82444 0
M  V30 1937 C 189.288 -1.82147 0.69623 0
M  V30 1938 O 188.558 -1.93847 -0.28287 0
M  V30 1939 H 187.138 -0.324043 0.673056 0
M  V30 1940 H 189.8 -0.153224 1.94297 0
M  V30 1941 H 188.896 -1.43761 2.77019 0
M  V30 1942 N 189.197 -1.51736 -0.425897 0
M  V30 1943 C 190.16 -1.73271 -1.50032 0
M  V30 1944 C 191.16 -0.602639 -1.4908 0
M  V30 1945 O 192.35 -0.87033 -1.509 0
M  V30 1946 C 189.482 -1.79969 -2.89523 0
M  V30 1947 H 190.675 -2.69172 -1.32237 0
M  V30 1948 H 188.228 -1.41899 -0.65532 0
M  V30 1949 H 188.963 -0.859241 -3.1271 0
M  V30 1950 H 188.748 -2.62109 -2.91619 0
M  V30 1951 H 190.238 -1.9843 -3.67444 0
M  V30 1952 N 190.675 0.682077 -1.42076 0
M  V30 1953 C 191.9 1.47558 -1.45744 0
M  V30 1954 C 192.325 1.87977 -0.0680981 0
M  V30 1955 O 191.683 1.55522 0.9318 0
M  V30 1956 C 191.731 2.70575 -2.38373 0
M  V30 1957 O 190.835 3.68573 -1.85007 0
M  V30 1958 H 190.176 0.443585 -0.494093 0
M  V30 1959 H 192.706 0.837238 -1.86686 0
M  V30 1960 H 192.716 3.18729 -2.54707 0
M  V30 1961 H 191.391 2.40495 -3.39315 0
M  V30 1962 H 189.968 3.2757 -1.78192 0
M  V30 1963 N 192.153 1.28127 0.917671 0
M  V30 1964 C 193.393 1.163 1.68088 0
M  V30 1965 C 193.757 -0.284515 1.8988 0
M  V30 1966 O 194.958 -0.525413 2.63615 0
M  V30 1967 C 193.229 1.93546 3.00457 0
M  V30 1968 S 194.788 1.98048 3.91564 0
M  V30 1969 H 191.606 0.415005 0.577315 0
M  V30 1970 H 194.208 1.62173 1.09179 0
M  V30 1971 H 192.912 2.97888 2.82295 0
M  V30 1972 H 192.443 1.48207 3.64415 0
M  V30 1973 H 194.458 1.08415 4.84211 0
M  V30 1974 N 193.631 -1.12557 1.10312 0
M  V30 1975 C 194.581 -2.16331 0.720076 0
M  V30 1976 C 195.565 -1.58616 -0.270115 0
M  V30 1977 O 196.757 -1.76823 -0.0790507 0
M  V30 1978 C 193.886 -3.42963 0.152113 0
M  V30 1979 C 192.972 -4.07663 1.16927 0
M  V30 1980 N 193.363 -4.47392 2.35953 0
M  V30 1981 C 191.661 -4.34425 1.0095 0
M  V30 1982 C 192.362 -4.97932 3.0073 0
M  V30 1983 N 191.338 -4.93358 2.28252 0
M  V30 1984 H 195.14 -2.44813 1.62616 0
M  V30 1985 H 192.654 -1.29449 0.980654 0
M  V30 1986 H 194.651 -4.16664 -0.14037 0
M  V30 1987 H 193.311 -3.1595 -0.748701 0
M  V30 1988 H 194.322 -4.39802 2.73486 0
M  V30 1989 H 190.999 -4.17177 0.164134 0
M  V30 1990 H 192.389 -5.38397 4.01969 0
M  V30 1991 N 195.109 -0.891671 -1.2995 0
M  V30 1992 C 196.072 -0.36828 -2.26222 0
M  V30 1993 C 197.072 0.493014 -1.53056 0
M  V30 1994 O 198.262 0.299213 -1.71611 0
M  V30 1995 C 195.394 0.47442 -3.37583 0
M  V30 1996 H 196.587 -1.21844 -2.74033 0
M  V30 1997 H 194.14 -0.669107 -1.41254 0
M  V30 1998 H 194.875 1.34489 -2.95099 0
M  V30 1999 H 194.66 -0.142615 -3.91841 0
M  V30 2000 H 196.15 0.83218 -4.09224 0
M  V30 2001 N 196.587 1.43421 -0.653314 0
M  V30 2002 C 197.827 2.03689 -0.170346 0
M  V30 2003 C 198.191 1.50427 1.19314 0
M  V30 2004 O 199.392 2.0234 1.76952 0
M  V30 2005 C 197.663 3.56946 -0.180183 0
M  V30 2006 S 199.222 4.38171 0.234925 0
M  V30 2007 H 196.04 0.707345 -0.0719976 0
M  V30 2008 H 198.642 1.75486 -0.86167 0
M  V30 2009 H 197.346 3.93212 -1.17526 0
M  V30 2010 H 196.877 3.89791 0.531675 0
M  V30 2011 H 198.892 4.73808 1.47378 0
M  V30 2012 N 198.065 0.39524 1.52563 0
M  V30 2013 C 199.314 -0.186321 2.00838 0
M  V30 2014 C 199.627 -1.47402 1.28577 0
M  V30 2015 O 200.833 -2.13599 1.67593 0
M  V30 2016 C 199.289 -0.382595 3.57861 0
M  V30 2017 C 198.897 0.892202 4.39026 0
M  V30 2018 C 200.641 -0.9202 4.14406 0
M  V30 2019 C 198.548 0.66388 5.87662 0
M  V30 2020 H 197.478 -0.0734041 0.750418 0
M  V30 2021 H 200.129 0.518552 1.76021 0
M  V30 2022 H 198.511 -1.14946 3.7895 0
M  V30 2023 H 199.685 1.66414 4.29701 0
M  V30 2024 H 198 1.35519 3.9373 0
M  V30 2025 H 200.597 -1.10683 5.23119 0
M  V30 2026 H 200.94 -1.89096 3.70875 0
M  V30 2027 H 201.473 -0.212751 3.97231 0
M  V30 2028 H 198.212 1.6058 6.35527 0
M  V30 2029 H 197.732 -0.0690193 5.9976 0
M  V30 2030 H 199.411 0.300699 6.46301 0
M  V30 2031 N 199.544 -1.57102 0.125237 0
M  V30 2032 C 200.792 -1.95021 -0.530198 0
M  V30 2033 C 201.113 -1.00982 -1.66816 0
M  V30 2034 O 200.383 -0.0672693 -1.95784 0
M  V30 2035 H 198.963 -0.720046 -0.198853 0
M  V30 2036 H 201.625 -1.93916 0.19564 0
M  V30 2037 H 200.721 -2.98211 -0.920681 0
M  V30 2038 N 201.022 0.148545 -1.56898 0
M  V30 2039 C 202.27 0.859717 -1.82902 0
M  V30 2040 C 202.591 1.81775 -0.70588 0
M  V30 2041 O 201.861 1.93994 0.272586 0
M  V30 2042 H 200.441 0.320469 -0.674766 0
M  V30 2043 H 203.103 0.142918 -1.94375 0
M  V30 2044 H 202.199 1.4229 -2.77777 0
M  V30 2045 N 202.5 1.5196 0.417844 0
M  V30 2046 C 203.728 1.69426 1.18753 0
M  V30 2047 C 204.143 0.399955 1.84515 0
M  V30 2048 O 203.5 -0.623288 1.71527 0
M  V30 2049 C 203.551 2.82375 2.25714 0
M  V30 2050 O 203.272 4.06793 1.62638 0
M  V30 2051 C 204.773 3.11277 3.15628 0
M  V30 2052 H 201.993 0.568031 0.357186 0
M  V30 2053 H 204.537 1.98475 0.49273 0
M  V30 2054 H 202.692 2.5587 2.90877 0
M  V30 2055 H 203.106 4.69667 2.3348 0
M  V30 2056 H 204.58 3.93843 3.86771 0
M  V30 2057 H 205.057 2.24473 3.77503 0
M  V30 2058 H 205.663 3.39515 2.56144 0
M  V30 2059 N 203.978 -0.674533 1.42435 0
M  V30 2060 C 204.926 -1.80934 1.46169 0
M  V30 2061 C 205.92 -1.66006 0.3374 0
M  V30 2062 O 207.126 -1.72611 0.510425 0
M  V30 2063 H 203.501 -0.596594 0.457798 0
M  V30 2064 H 205.472 -1.74903 2.41767 0
M  V30 2065 C 204.221 -3.19088 1.38123 0
M  V30 2066 H 203.544 -3.31203 2.23931 0
M  V30 2067 H 204.984 -3.9851 1.44797 0
M  V30 2068 C 203.443 -3.36763 0.0960517 0
M  V30 2069 O 203.973 -3.92581 -0.851073 0
M  V30 2070 N 202.179 -2.90597 0.0131186 0
M  V30 2071 H 201.726 -2.45359 0.784639 0
M  V30 2072 H 201.684 -3.028 -0.846133 0
M  V30 2073 N 205.456 -1.28612 -0.910864 0
M  V30 2074 C 206.702 -1.16106 -1.66274 0
M  V30 2075 C 207.035 0.289113 -1.92036 0
M  V30 2076 O 206.31 1.21 -1.52281 0
M  V30 2077 C 206.593 -1.96309 -3.01885 0
M  V30 2078 C 206.446 -3.49405 -2.8326 0
M  V30 2079 C 207.765 -1.78076 -4.02463 0
M  V30 2080 H 204.884 -0.423152 -0.603417 0
M  V30 2081 H 207.526 -1.57961 -1.05586 0
M  V30 2082 H 205.676 -1.60742 -3.53687 0
M  V30 2083 H 207.348 -3.94894 -2.38446 0
M  V30 2084 H 205.591 -3.74893 -2.18261 0
M  V30 2085 H 206.262 -4.00784 -3.79574 0
M  V30 2086 H 208.738 -2.0912 -3.59733 0
M  V30 2087 H 207.614 -2.36561 -4.95308 0
M  V30 2088 H 207.875 -0.733008 -4.35981 0
M  V30 2089 N 206.934 1.1197 -1.10907 0
M  V30 2090 C 208.35 1.35591 -0.841852 0
M  V30 2091 C 208.55 1.94233 0.536246 0
M  V30 2092 O 207.606 2.1717 1.28816 0
M  V30 2093 C 208.919 2.29284 -1.94549 0
M  V30 2094 C 210.467 2.42862 -1.97451 0
M  V30 2095 C 210.942 3.39873 -3.07002 0
M  V30 2096 N 212.433 3.47433 -3.06341 0
M  V30 2097 C 213.168 4.22421 -3.87748 0
M  V30 2098 N 212.664 5.00432 -4.79103 0
M  V30 2099 N 214.457 4.17876 -3.75946 0
M  V30 2100 H 206.608 0.722664 -1.99728 0
M  V30 2101 H 208.871 0.380635 -0.868229 0
M  V30 2102 H 208.577 1.93378 -2.93765 0
M  V30 2103 H 208.451 3.29452 -1.83688 0
M  V30 2104 H 210.838 2.78046 -0.988645 0
M  V30 2105 H 210.919 1.42566 -2.12388 0
M  V30 2106 H 210.563 3.05417 -4.05811 0
M  V30 2107 H 210.493 4.40011 -2.89306 0
M  V30 2108 H 212.984 2.91784 -2.40147 0
M  V30 2109 H 213.297 5.55002 -5.37766 0
M  V30 2110 H 211.642 4.99612 -4.83128 0
M  V30 2111 H 214.833 3.56016 -3.03924 0
M  V30 2112 H 215.006 4.76061 -4.39624 0
M  V30 2113 N 208.412 0.89855 1.29475 0
M  V30 2114 C 209.375 0.380272 2.26023 0
M  V30 2115 C 210.375 -0.484891 1.53315 0
M  V30 2116 O 211.565 -0.290108 1.71767 0
M  V30 2117 C 208.697 -0.45651 3.3783 0
M  V30 2118 H 209.89 1.23295 2.73383 0
M  V30 2119 H 207.443 0.676589 1.40897 0
M  V30 2120 H 208.178 -1.32922 2.95808 0
M  V30 2121 H 207.963 0.163393 3.91759 0
M  V30 2122 H 209.453 -0.810466 4.0966 0
M  V30 2123 N 209.89 -1.43072 0.660911 0
M  V30 2124 C 210.8 -2.34585 -0.0264163 0
M  V30 2125 C 211.816 -1.54316 -0.803898 0
M  V30 2126 O 212.992 -1.86939 -0.749391 0
M  V30 2127 C 210.057 -3.32689 -0.975639 0
M  V30 2128 C 209.118 -4.2886 -0.194236 0
M  V30 2129 C 208.351 -5.22278 -1.09825 0
M  V30 2130 O 208.574 -5.20299 -2.33763 0
M  V30 2131 O 207.508 -5.99228 -0.566513 0
M  V30 2132 H 211.334 -2.94869 0.727034 0
M  V30 2133 H 208.919 -1.43342 0.42111 0
M  V30 2134 H 210.801 -3.92995 -1.52094 0
M  V30 2135 H 209.476 -2.74898 -1.70918 0
M  V30 2136 H 208.383 -3.72011 0.394835 0
M  V30 2137 H 209.716 -4.89655 0.499899 0
M  V30 2138 N 211.368 -0.403325 -1.52352 0
M  V30 2139 C 212.614 0.174605 -2.02047 0
M  V30 2140 C 212.947 1.45282 -1.28867 0
M  V30 2141 O 212.222 1.90483 -0.393257 0
M  V30 2142 C 212.505 0.428238 -3.57545 0
M  V30 2143 C 212.358 -0.866248 -4.4138 0
M  V30 2144 C 213.677 1.21287 -4.23057 0
M  V30 2145 H 210.796 0.0619851 -0.734389 0
M  V30 2146 H 213.438 -0.53565 -1.82293 0
M  V30 2147 H 211.588 1.03327 -3.74507 0
M  V30 2148 H 213.26 -1.50265 -4.3614 0
M  V30 2149 H 211.503 -1.47851 -4.07827 0
M  V30 2150 H 212.174 -0.643249 -5.48239 0
M  V30 2151 H 214.65 0.700703 -4.10158 0
M  V30 2152 H 213.526 1.35909 -5.31808 0
M  V30 2153 H 213.787 2.23193 -3.81625 0
M  V30 2154 N 212.846 1.57033 -0.133567 0
M  V30 2155 C 213.778 2.13176 0.841944 0
M  V30 2156 C 214.791 1.07794 1.22001 0
M  V30 2157 O 215.98 1.35117 1.16643 0
M  V30 2158 C 213.08 2.62847 2.13926 0
M  V30 2159 C 212.253 3.92486 1.93064 0
M  V30 2160 C 211.312 4.27605 3.0666 0
M  V30 2161 O 210.338 4.96168 2.78937 0
M  V30 2162 N 211.54 3.861 4.33483 0
M  V30 2163 H 214.305 2.97503 0.362192 0
M  V30 2164 H 211.866 1.61821 0.05042 0
M  V30 2165 H 213.858 2.83363 2.88942 0
M  V30 2166 H 212.428 1.83319 2.53205 0
M  V30 2167 H 211.648 3.80732 1.02159 0
M  V30 2168 H 212.936 4.77225 1.76447 0
M  V30 2169 H 212.334 3.30828 4.58878 0
M  V30 2170 H 210.891 4.11694 5.05323 0
M  V30 2171 N 214.325 -0.140222 1.56975 0
M  V30 2172 C 215.272 -1.17292 1.98774 0
M  V30 2173 C 216.242 -1.4232 0.856408 0
M  V30 2174 O 217.427 -1.54541 1.119 0
M  V30 2175 C 214.567 -2.49973 2.37923 0
M  V30 2176 C 213.68 -2.32062 3.64378 0
M  V30 2177 C 212.815 -3.57825 3.926 0
M  V30 2178 C 211.854 -3.3498 5.12303 0
M  V30 2179 N 210.991 -4.52891 5.36502 0
M  V30 2180 H 215.831 -0.809472 2.86795 0
M  V30 2181 H 213.368 -0.388237 1.41884 0
M  V30 2182 H 215.326 -3.27346 2.58652 0
M  V30 2183 H 213.956 -2.84252 1.52972 0
M  V30 2184 H 213.008 -1.45711 3.51387 0
M  V30 2185 H 214.32 -2.11145 4.51906 0
M  V30 2186 H 213.474 -4.43624 4.13863 0
M  V30 2187 H 212.213 -3.81753 3.03506 0
M  V30 2188 H 211.218 -2.4757 4.90906 0
M  V30 2189 H 212.443 -3.12444 6.02956 0
M  V30 2190 H 210.389 -4.76979 4.50363 0
M  V30 2191 H 210.306 -4.35001 6.18312 0
M  V30 2192 H 211.574 -5.39884 5.62268 0
M  V30 2193 N 215.803 -1.52179 -0.40978 0
M  V30 2194 C 216.733 -1.78435 -1.5061 0
M  V30 2195 C 217.714 -0.635295 -1.57791 0
M  V30 2196 O 218.899 -0.880823 -1.73076 0
M  V30 2197 C 216.029 -1.93444 -2.88439 0
M  V30 2198 C 214.983 -3.09038 -2.96108 0
M  V30 2199 C 214.309 -3.09268 -4.36185 0
M  V30 2200 C 215.609 -4.48508 -2.67652 0
M  V30 2201 H 217.303 -2.70237 -1.28889 0
M  V30 2202 H 214.849 -1.30036 -0.618605 0
M  V30 2203 H 216.802 -2.10394 -3.65119 0
M  V30 2204 H 215.526 -0.983129 -3.11452 0
M  V30 2205 H 214.185 -2.91837 -2.21872 0
M  V30 2206 H 213.833 -2.11861 -4.56206 0
M  V30 2207 H 213.533 -3.86907 -4.42241 0
M  V30 2208 H 215.057 -3.28348 -5.14801 0
M  V30 2209 H 216.471 -4.65918 -3.34056 0
M  V30 2210 H 214.868 -5.28059 -2.85085 0
M  V30 2211 H 215.938 -4.56649 -1.63095 0
M  V30 2212 N 217.281 0.66697 -1.42791 0
M  V30 2213 C 218.213 1.7925 -1.42836 0
M  V30 2214 C 219.226 1.59496 -0.326333 0
M  V30 2215 O 220.415 1.6847 -0.589916 0
M  V30 2216 C 217.515 3.16476 -1.21229 0
M  V30 2217 C 216.688 3.63011 -2.44013 0
M  V30 2218 C 215.747 4.78993 -2.17834 0
M  V30 2219 O 214.773 4.89137 -2.91091 0
M  V30 2220 N 215.975 5.68248 -1.18635 0
M  V30 2221 H 218.74 1.79695 -2.39854 0
M  V30 2222 H 216.301 0.850338 -1.37771 0
M  V30 2223 H 218.293 3.91734 -1.01621 0
M  V30 2224 H 216.863 3.10884 -0.32706 0
M  V30 2225 H 216.083 2.78346 -2.79137 0
M  V30 2226 H 217.371 3.90845 -3.25757 0
M  V30 2227 H 216.769 5.62712 -0.580615 0
M  V30 2228 H 215.326 6.43285 -1.05013 0
M  V30 2229 N 218.759 1.29093 0.90403 0
M  V30 2230 C 219.692 1.08176 2.00931 0
M  V30 2231 C 220.67 -0.005083 1.62599 0
M  V30 2232 O 221.854 0.144765 1.87943 0
M  V30 2233 C 218.981 0.645897 3.32484 0
M  V30 2234 C 218.027 1.73081 3.89801 0
M  V30 2235 S 218.86 3.32905 4.19446 0
M  V30 2236 C 220.016 2.91176 5.54046 0
M  V30 2237 H 220.249 2.01752 2.18365 0
M  V30 2238 H 217.782 1.13191 1.0501 0
M  V30 2239 H 219.74 0.401131 4.08535 0
M  V30 2240 H 218.401 -0.270188 3.12936 0
M  V30 2241 H 217.594 1.37768 4.84805 0
M  V30 2242 H 217.196 1.92888 3.20422 0
M  V30 2243 H 219.488 2.37952 6.34338 0
M  V30 2244 H 220.431 3.85014 5.94281 0
M  V30 2245 H 220.839 2.296 5.15698 0
M  V30 2246 N 220.237 -1.11381 1.11499 0
M  V30 2247 C 221.147 -2.21019 0.786628 0
M  V30 2248 C 222.163 -1.72597 -0.220507 0
M  V30 2249 O 223.339 -2.01321 -0.0565251 0
M  V30 2250 C 220.404 -3.459 0.235333 0
M  V30 2251 C 219.465 -4.09107 1.30115 0
M  V30 2252 C 218.698 -5.28027 0.776068 0
M  V30 2253 O 218.921 -5.6904 -0.393661 0
M  V30 2254 O 217.855 -5.81835 1.54114 0
M  V30 2255 H 221.681 -2.51521 1.70209 0
M  V30 2256 H 219.266 -1.19928 0.890928 0
M  V30 2257 H 221.148 -4.21346 -0.067715 0
M  V30 2258 H 219.823 -3.17049 -0.652828 0
M  V30 2259 H 218.73 -3.35391 1.65722 0
M  V30 2260 H 220.063 -4.42139 2.16273 0
M  V30 2261 N 221.715 -0.905404 -1.28997 0
M  V30 2262 C 222.678 -0.392253 -2.25819 0
M  V30 2263 C 223.678 0.476753 -1.5357 0
M  V30 2264 O 224.868 0.280994 -1.71919 0
M  V30 2265 C 222 0.438588 -3.38067 0
M  V30 2266 H 223.193 -1.24743 -2.72725 0
M  V30 2267 H 220.746 -0.684051 -1.40536 0
M  V30 2268 H 221.481 1.31352 -2.96508 0
M  V30 2269 H 221.266 -0.184167 -3.91667 0
M  V30 2270 H 222.756 0.78873 -4.10084 0
M  V30 2271 N 223.193 1.4272 -0.668489 0
M  V30 2272 C 224.604 1.84793 -0.266151 0
M  V30 2273 C 224.955 1.55959 1.19043 0
M  V30 2274 O 224.08 1.01622 1.91055 0
M  V30 2275 C 224.675 3.35436 -0.476271 0
M  V30 2276 C 223.234 3.76182 -0.128113 0
M  V30 2277 C 222.381 2.66344 -0.771777 0
M  V30 2278 H 225.332 1.32656 -0.871098 0
M  V30 2279 H 225.353 3.79515 0.273561 0
M  V30 2280 H 224.865 3.5639 -1.53647 0
M  V30 2281 H 222.966 3.60836 0.928891 0
M  V30 2282 H 223.079 4.75766 -0.564231 0
M  V30 2283 H 221.443 2.53885 -0.203652 0
M  V30 2284 H 222.226 2.90123 -1.83531 0
M  V30 2285 N 224.671 0.411399 1.52136 0
M  V30 2286 C 225.621 -0.430376 2.23901 0
M  V30 2287 C 226.605 -1.0116 1.25121 0
M  V30 2288 O 227.797 -0.934044 1.50348 0
M  V30 2289 C 224.926 -1.54527 3.06556 0
M  V30 2290 C 224.012 -0.9747 4.12747 0
M  V30 2291 N 224.403 -0.130991 5.0563 0
M  V30 2292 C 222.701 -1.24497 4.28271 0
M  V30 2293 C 223.402 0.186689 5.814 0
M  V30 2294 N 222.378 -0.42304 5.41951 0
M  V30 2295 H 226.18 0.220509 2.93072 0
M  V30 2296 H 223.694 0.221952 1.60876 0
M  V30 2297 H 225.691 -2.16093 3.56524 0
M  V30 2298 H 224.351 -2.19875 2.38925 0
M  V30 2299 H 225.362 0.23349 5.17373 0
M  V30 2300 H 222.039 -1.89787 3.7187 0
M  V30 2301 H 223.429 0.871673 6.66222 0
M  V30 2302 N 226.149 -1.5696 0.141893 0
M  V30 2303 C 227.398 -1.95135 -0.510427 0
M  V30 2304 C 227.711 -1.02896 -1.66348 0
M  V30 2305 O 228.917 -1.30629 -2.38009 0
M  V30 2306 C 227.373 -3.46876 -0.959427 0
M  V30 2307 C 226.981 -4.47691 0.166419 0
M  V30 2308 C 228.725 -3.93927 -1.58183 0
M  V30 2309 C 226.632 -5.90636 -0.300565 0
M  V30 2310 H 225.562 -0.728494 -0.194454 0
M  V30 2311 H 228.213 -1.8211 0.22542 0
M  V30 2312 H 226.595 -3.55215 -1.75038 0
M  V30 2313 H 227.769 -4.51043 0.94325 0
M  V30 2314 H 226.084 -4.10527 0.696905 0
M  V30 2315 H 228.681 -4.98158 -1.94275 0
M  V30 2316 H 229.024 -3.3519 -2.46888 0
M  V30 2317 H 229.557 -3.88484 -0.855863 0
M  V30 2318 H 226.296 -6.5318 0.550989 0
M  V30 2319 H 225.816 -5.90655 -1.04338 0
M  V30 2320 H 227.495 -6.42588 -0.754265 0
M  V30 2321 N 227.627 0.131896 -1.57047 0
M  V30 2322 C 228.876 0.84044 -1.83356 0
M  V30 2323 C 229.189 1.81646 -0.725535 0
M  V30 2324 O 230.395 2.57025 -0.874659 0
M  V30 2325 C 228.851 1.54528 -3.25037 0
M  V30 2326 C 228.459 0.610902 -4.43815 0
M  V30 2327 C 230.203 2.23972 -3.60606 0
M  V30 2328 C 228.11 1.31823 -5.76521 0
M  V30 2329 H 227.04 0.317599 -0.683847 0
M  V30 2330 H 229.691 0.0931561 -1.83263 0
M  V30 2331 H 228.073 2.33873 -3.19561 0
M  V30 2332 H 229.247 -0.148407 -4.60561 0
M  V30 2333 H 227.562 0.0241016 -4.16393 0
M  V30 2334 H 230.159 2.77558 -4.57018 0
M  V30 2335 H 230.502 3.01173 -2.87403 0
M  V30 2336 H 231.035 1.51529 -3.6781 0
M  V30 2337 H 227.774 0.587771 -6.52859 0
M  V30 2338 H 227.294 2.04987 -5.63685 0
M  V30 2339 H 228.973 1.855 -6.19838 0
M  V30 2340 N 229.106 1.52395 0.401703 0
M  V30 2341 C 230.352 1.67065 1.14966 0
M  V30 2342 C 230.685 0.403052 1.89971 0
M  V30 2343 O 229.96 -0.598774 1.85054 0
M  V30 2344 C 230.243 2.8975 2.13815 0
M  V30 2345 C 230.096 4.26578 1.42658 0
M  V30 2346 C 231.415 3.07965 3.14397 0
M  V30 2347 H 228.534 0.607968 0.416587 0
M  V30 2348 H 231.176 1.84965 0.434511 0
M  V30 2349 H 229.326 2.74619 2.74803 0
M  V30 2350 H 230.998 4.53451 0.847329 0
M  V30 2351 H 229.241 4.27639 0.72849 0
M  V30 2352 H 229.912 5.08483 2.14823 0
M  V30 2353 H 232.388 3.22043 2.63491 0
M  V30 2354 H 231.264 3.95308 3.80819 0
M  V30 2355 H 231.525 2.21611 3.82545 0
M  V30 2356 N 230.584 -0.659388 1.43143 0
M  V30 2357 C 231.832 -1.41654 1.44147 0
M  V30 2358 C 232.153 -1.94893 0.0645739 0
M  V30 2359 O 231.423 -1.74044 -0.899198 0
M  V30 2360 H 230.003 -0.525708 0.530697 0
M  V30 2361 H 232.665 -0.778097 1.78694 0
M  V30 2362 H 231.761 -2.26195 2.1504 0
M  V30 2363 N 232.062 -1.29571 -0.897171 0
M  V30 2364 C 233.29 -1.20583 -1.68129 0
M  V30 2365 C 233.705 0.233181 -1.87354 0
M  V30 2366 O 233.062 1.15579 -1.41236 0
M  V30 2367 C 233.113 -1.91772 -3.06441 0
M  V30 2368 O 232.834 -3.30053 -2.88091 0
M  V30 2369 C 234.335 -1.89291 -4.00854 0
M  V30 2370 H 231.555 -0.417826 -0.525036 0
M  V30 2371 H 234.099 -1.70987 -1.12177 0
M  V30 2372 H 232.254 -1.45196 -3.59161 0
M  V30 2373 H 232.668 -3.65942 -3.75748 0
M  V30 2374 H 234.142 -2.43662 -4.95311 0
M  V30 2375 H 234.619 -0.869014 -4.30517 0
M  V30 2376 H 235.225 -2.35622 -3.54066 0
M  V30 2377 N 233.54 1.10788 -1.12088 0
M  V30 2378 C 234.951 1.64181 -0.88891 0
M  V30 2379 C 235.302 1.87508 0.577498 0
M  V30 2380 O 234.427 1.61434 1.44112 0
M  V30 2381 C 235.022 2.98257 -1.60712 0
M  V30 2382 C 233.581 3.4853 -1.42139 0
M  V30 2383 C 232.728 2.23208 -1.6454 0
M  V30 2384 H 235.679 0.943368 -1.27618 0
M  V30 2385 H 235.7 3.65552 -1.05604 0
M  V30 2386 H 235.212 2.81246 -2.67436 0
M  V30 2387 H 233.313 3.70692 -0.376552 0
M  V30 2388 H 233.426 4.26882 -2.17505 0
M  V30 2389 H 231.79 2.31169 -1.06925 0
M  V30 2390 H 232.573 2.08733 -2.72554 0
M  V30 2391 N 235.018 0.912232 1.28515 0
M  V30 2392 C 236.266 0.543523 1.94654 0
M  V30 2393 C 236.587 -0.9155 1.72173 0
M  V30 2394 O 235.857 -1.64708 1.06058 0
M  V30 2395 H 234.437 0.198017 0.720277 0
M  V30 2396 H 237.099 1.16126 1.56527 0
M  V30 2397 H 236.195 0.736684 3.03281 0
M  V30 2398 N 236.496 -1.42363 0.676048 0
M  V30 2399 C 237.912 -1.55811 0.345718 0
M  V30 2400 C 238.112 -1.65544 -1.14879 0
M  V30 2401 O 237.168 -1.62306 -1.93424 0
M  V30 2402 C 238.481 -2.80746 1.07713 0
M  V30 2403 C 240.029 -2.9452 1.05958 0
M  V30 2404 C 240.504 -4.22318 1.77233 0
M  V30 2405 N 241.995 -4.29233 1.74108 0
M  V30 2406 C 242.73 -5.26935 2.26113 0
M  V30 2407 N 242.226 -6.30783 2.86505 0
M  V30 2408 N 244.019 -5.18741 2.1648 0
M  V30 2409 H 236.17 -1.34289 1.6456 0
M  V30 2410 H 238.433 -0.646506 0.69335 0
M  V30 2411 H 238.139 -2.79696 2.13221 0
M  V30 2412 H 238.013 -3.71676 0.64316 0
M  V30 2413 H 240.4 -2.95097 0.0128255 0
M  V30 2414 H 240.481 -2.04817 1.53244 0
M  V30 2415 H 240.125 -4.22502 2.81877 0
M  V30 2416 H 240.055 -5.10958 1.27396 0
M  V30 2417 H 242.546 -3.54814 1.30059 0
M  V30 2418 H 242.859 -7.01691 3.23805 0
M  V30 2419 H 241.204 -6.31341 2.90575 0
M  V30 2420 H 244.395 -4.36533 1.68987 0
M  V30 2421 H 244.568 -5.94721 2.57316 0
M  V30 2422 N 237.974 -0.419461 -1.51915 0
M  V30 2423 C 239.22 0.153166 -2.02221 0
M  V30 2424 C 239.553 1.43907 -1.30401 0
M  V30 2425 O 238.828 1.90055 -0.413438 0
M  V30 2426 C 239.111 0.390291 -3.57979 0
M  V30 2427 C 238.964 -0.913014 -4.40436 0
M  V30 2428 C 240.283 1.16794 -4.2432 0
M  V30 2429 H 237.402 0.0541924 -0.735005 0
M  V30 2430 H 240.044 -0.554955 -1.81715 0
M  V30 2431 H 238.194 0.993491 -3.75582 0
M  V30 2432 H 239.866 -1.54882 -4.34522 0
M  V30 2433 H 238.109 -1.52168 -4.06236 0
M  V30 2434 H 238.78 -0.701361 -5.47526 0
M  V30 2435 H 241.256 0.657161 -4.10878 0
M  V30 2436 H 240.132 1.3026 -5.3322 0
M  V30 2437 H 240.393 2.19132 -3.83971 0
M  V30 2438 N 239.452 1.56882 -0.150215 0
M  V30 2439 C 240.699 1.96228 0.500093 0
M  V30 2440 C 241.027 1.03522 1.64661 0
M  V30 2441 O 240.282 0.0650683 1.95592 0
M  V30 2442 C 240.581 3.41801 1.04437 0
M  V30 2443 C 240.247 4.50897 0.0159671 0
M  V30 2444 C 238.909 4.8046 -0.266731 0
M  V30 2445 C 241.261 5.16703 -0.683192 0
M  V30 2446 C 238.589 5.73135 -1.25434 0
M  V30 2447 C 240.941 6.10441 -1.65964 0
M  V30 2448 C 239.605 6.38382 -1.95 0
M  V30 2449 H 238.875 0.718048 0.182997 0
M  V30 2450 H 241.522 1.90019 -0.237724 0
M  V30 2451 H 239.827 3.44857 1.85959 0
M  V30 2452 H 241.524 3.69573 1.55618 0
M  V30 2453 H 238.114 4.27891 0.246485 0
M  V30 2454 H 242.298 4.93993 -0.477983 0
M  V30 2455 H 237.554 5.93074 -1.48571 0
M  V30 2456 H 241.728 6.60507 -2.20689 0
M  V30 2457 H 239.355 7.09996 -2.71679 0
M  V30 2458 N 240.93 -0.123565 1.57115 0
M  V30 2459 C 242.207 -0.862196 1.75572 0
M  V30 2460 C 242.587 -1.98279 0.724475 0
M  V30 2461 O 241.935 -2.27102 -0.252407 0
M  V30 2462 C 242.145 -1.38309 3.20424 0
M  V30 2463 C 243.493 -1.83724 3.82793 0
M  V30 2464 O 244.517 -1.47999 3.23998 0
M  V30 2465 O 243.376 -2.49685 4.86127 0
M  V30 2466 H 240.47 -0.409113 0.718718 0
M  V30 2467 H 243.016 -0.107661 1.69358 0
M  V30 2468 H 241.788 -0.578889 3.86994 0
M  V30 2469 H 241.411 -2.20046 3.31158 0
M  V30 2470 N 242.408 -1.52605 -0.393616 0
M  V30 2471 C 243.341 -1.71798 -1.50202 0
M  V30 2472 C 244.319 -0.565743 -1.52441 0
M  V30 2473 O 245.503 -0.794987 -1.70916 0
M  V30 2474 C 242.63 -1.7714 -2.88685 0
M  V30 2475 C 241.676 -2.98845 -3.04292 0
M  V30 2476 S 242.509 -4.58909 -2.75976 0
M  V30 2477 C 243.665 -4.6706 -4.1666 0
M  V30 2478 H 243.898 -2.65542 -1.33696 0
M  V30 2479 H 241.431 -1.42839 -0.586195 0
M  V30 2480 H 243.389 -1.80903 -3.68489 0
M  V30 2481 H 242.05 -0.844969 -3.02521 0
M  V30 2482 H 241.243 -2.99111 -4.05646 0
M  V30 2483 H 240.845 -2.9305 -2.32374 0
M  V30 2484 H 243.137 -4.45391 -5.10523 0
M  V30 2485 H 244.08 -5.6905 -4.21412 0
M  V30 2486 H 244.488 -3.95944 -4.02354 0
M  V30 2487 N 243.887 0.651787 -1.4349 0
M  V30 2488 C 244.817 1.77621 -1.51569 0
M  V30 2489 C 245.798 1.66022 -0.370253 0
M  V30 2490 O 246.983 1.85095 -0.587658 0
M  V30 2491 C 244.113 3.16056 -1.43966 0
M  V30 2492 C 243.067 3.4242 -2.56774 0
M  V30 2493 C 242.393 4.8067 -2.34223 0
M  V30 2494 C 243.693 3.37023 -3.99015 0
M  V30 2495 H 245.387 1.71117 -2.45681 0
M  V30 2496 H 242.933 0.821825 -1.18246 0
M  V30 2497 H 244.886 3.94472 -1.48221 0
M  V30 2498 H 243.61 3.23293 -0.463586 0
M  V30 2499 H 242.269 2.66375 -2.51873 0
M  V30 2500 H 241.917 4.84585 -1.34856 0
M  V30 2501 H 241.617 4.9927 -3.09844 0
M  V30 2502 H 243.141 5.61342 -2.40265 0
M  V30 2503 H 244.555 4.05374 -4.05395 0
M  V30 2504 H 242.952 3.67159 -4.74673 0
M  V30 2505 H 244.022 2.3518 -4.2405 0
M  V30 2506 N 245.365 1.30045 0.890287 0
M  V30 2507 C 246.313 1.15873 2.01683 0
M  V30 2508 C 247.307 0.0719403 1.69247 0
M  V30 2509 O 248.513 0.232414 1.78493 0
M  V30 2510 H 244.888 0.358203 0.661207 0
M  V30 2511 H 246.859 2.11229 2.10772 0
M  V30 2512 C 245.608 0.861842 3.36849 0
M  V30 2513 H 244.931 1.69016 3.62317 0
M  V30 2514 H 246.371 0.802762 4.16331 0
M  V30 2515 C 244.83 -0.435132 3.34078 0
M  V30 2516 O 245.36 -1.4583 3.74295 0
M  V30 2517 N 243.566 -0.444377 2.87182 0
M  V30 2518 H 243.113 0.388723 2.5465 0
M  V30 2519 H 243.071 -1.31213 2.85711 0
M  V30 2520 N 246.843 -1.10192 1.12674 0
M  V30 2521 C 248.259 -1.34235 0.863317 0
M  V30 2522 C 248.459 -1.95062 -0.505277 0
M  V30 2523 O 247.515 -2.19192 -1.25345 0
M  V30 2524 C 248.828 -2.2616 1.98172 0
M  V30 2525 C 250.376 -2.3969 2.0129 0
M  V30 2526 C 250.851 -3.34946 3.1237 0
M  V30 2527 N 252.342 -3.42515 3.11829 0
M  V30 2528 C 253.077 -4.16199 3.94419 0
M  V30 2529 N 252.573 -4.92747 4.87004 0
M  V30 2530 N 254.366 -4.11843 3.82547 0
M  V30 2531 H 246.517 -0.690798 2.00853 0
M  V30 2532 H 248.78 -0.366774 0.874174 0
M  V30 2533 H 248.486 -1.8868 2.96804 0
M  V30 2534 H 248.36 -3.26488 1.88906 0
M  V30 2535 H 250.747 -2.76438 1.03276 0
M  V30 2536 H 250.828 -1.39169 2.14629 0
M  V30 2537 H 250.472 -2.98923 4.10619 0
M  V30 2538 H 250.402 -4.35353 2.96269 0
M  V30 2539 H 252.893 -2.87926 2.44759 0
M  V30 2540 H 253.206 -5.46376 5.46528 0
M  V30 2541 H 251.551 -4.91862 4.91016 0
M  V30 2542 H 254.742 -3.51136 3.0955 0
M  V30 2543 H 254.915 -4.69007 4.47142 0
M  V30 2544 N 248.321 -0.919034 -1.28029 0
M  V30 2545 C 249.737 -0.617972 -1.4715 0
M  V30 2546 C 249.937 0.835242 -1.83374 0
M  V30 2547 O 248.993 1.61388 -1.94191 0
M  V30 2548 C 250.306 -1.56041 -2.57044 0
M  V30 2549 C 251.854 -1.56769 -2.7091 0
M  V30 2550 C 252.329 -2.49688 -3.83953 0
M  V30 2551 N 253.82 -2.47845 -3.91314 0
M  V30 2552 C 254.555 -3.16437 -4.78179 0
M  V30 2553 N 254.051 -3.94376 -5.69596 0
M  V30 2554 N 255.844 -3.05498 -4.71834 0
M  V30 2555 H 247.995 -1.85866 -1.02798 0
M  V30 2556 H 250.258 -0.797506 -0.512531 0
M  V30 2557 H 249.964 -2.59671 -2.372 0
M  V30 2558 H 249.838 -1.29551 -3.54255 0
M  V30 2559 H 252.225 -0.538745 -2.90141 0
M  V30 2560 H 252.306 -1.87305 -1.74214 0
M  V30 2561 H 251.95 -3.52688 -3.65477 0
M  V30 2562 H 251.88 -2.16453 -4.80058 0
M  V30 2563 H 254.371 -1.91234 -3.25941 0
M  V30 2564 H 254.684 -4.43721 -6.32718 0
M  V30 2565 H 253.029 -3.98481 -5.69419 0
M  V30 2566 H 256.22 -2.44108 -3.99411 0
M  V30 2567 H 256.393 -3.59225 -5.39316 0
M  V30 2568 N 249.799 1.42003 -0.683588 0
M  V30 2569 C 251.029 2.05448 -0.217866 0
M  V30 2570 C 251.437 1.51491 1.13346 0
M  V30 2571 O 250.78 0.653048 1.717 0
M  V30 2572 C 250.842 3.59399 -0.0850118 0
M  V30 2573 C 250.506 4.36093 -1.36645 0
M  V30 2574 C 251.503 4.66169 -2.30179 0
M  V30 2575 C 249.188 4.75578 -1.61649 0
M  V30 2576 C 251.182 5.34676 -3.46988 0
M  V30 2577 C 248.869 5.43824 -2.78745 0
M  V30 2578 C 249.867 5.73299 -3.71238 0
M  V30 2579 O 249.555 6.40142 -4.86285 0
M  V30 2580 H 249.287 0.668344 -0.101454 0
M  V30 2581 H 251.841 1.82974 -0.933248 0
M  V30 2582 H 250.071 3.80566 0.686031 0
M  V30 2583 H 251.76 4.04457 0.341973 0
M  V30 2584 H 252.526 4.36156 -2.12115 0
M  V30 2585 H 248.405 4.52025 -0.905243 0
M  V30 2586 H 251.949 5.57599 -4.19201 0
M  V30 2587 H 247.846 5.73254 -2.96732 0
M  V30 2588 H 248.614 6.58636 -4.85944 0
M  V30 2589 N 251.277 0.427512 1.51691 0
M  V30 2590 C 252.207 -0.3796 2.30394 0
M  V30 2591 C 253.188 -1.02982 1.35384 0
M  V30 2592 O 254.373 -1.03534 1.643 0
M  V30 2593 C 251.503 -1.48649 3.1388 0
M  V30 2594 C 250.457 -0.960294 4.17088 0
M  V30 2595 C 249.783 -2.16219 4.89033 0
M  V30 2596 C 251.083 -0.00153679 5.223 0
M  V30 2597 H 252.777 0.277164 2.98114 0
M  V30 2598 H 250.323 0.134739 1.43368 0
M  V30 2599 H 252.276 -2.05826 3.67714 0
M  V30 2600 H 251 -2.1714 2.43962 0
M  V30 2601 H 249.659 -0.410806 3.64291 0
M  V30 2602 H 249.307 -2.83307 4.15628 0
M  V30 2603 H 249.007 -1.81654 5.58816 0
M  V30 2604 H 250.531 -2.73968 5.45687 0
M  V30 2605 H 251.945 -0.482687 5.71264 0
M  V30 2606 H 250.342 0.256199 5.99553 0
M  V30 2607 H 251.412 0.938174 4.75738 0
M  V30 2608 N 252.755 -1.56801 0.158532 0
M  V30 2609 C 253.98 -2.01295 -0.499516 0
M  V30 2610 C 254.405 -1.03799 -1.56867 0
M  V30 2611 O 253.763 -0.0155162 -1.81293 0
M  V30 2612 C 253.811 -3.44469 -1.06647 0
M  V30 2613 O 252.915 -3.50012 -2.18095 0
M  V30 2614 H 252.256 -0.652884 -0.12099 0
M  V30 2615 H 254.786 -2.02958 0.258661 0
M  V30 2616 H 254.796 -3.8351 -1.39227 0
M  V30 2617 H 253.471 -4.14932 -0.283581 0
M  V30 2618 H 252.048 -3.22822 -1.86656 0
M  V30 2619 N 254.233 0.115231 -1.57178 0
M  V30 2620 C 255.644 0.67197 -1.74188 0
M  V30 2621 C 255.995 1.80125 -0.777777 0
M  V30 2622 O 255.12 2.16346 0.0484376 0
M  V30 2623 C 255.715 1.22573 -3.1585 0
M  V30 2624 C 254.274 1.72872 -3.34353 0
M  V30 2625 C 253.421 0.629972 -2.70049 0
M  V30 2626 H 256.372 -0.110712 -1.58313 0
M  V30 2627 H 256.393 2.09535 -3.17609 0
M  V30 2628 H 255.905 0.403598 -3.85996 0
M  V30 2629 H 254.006 2.5755 -2.69256 0
M  V30 2630 H 254.119 1.83557 -4.42542 0
M  V30 2631 H 252.483 1.0645 -2.31388 0
M  V30 2632 H 253.266 -0.181241 -3.42821 0
M  V30 2633 N 255.711 1.52812 0.385517 0
M  V30 2634 C 256.658 1.77838 1.47113 0
M  V30 2635 C 257.628 0.621757 1.54024 0
M  V30 2636 O 258.813 0.861846 1.70226 0
M  V30 2637 C 255.953 1.95618 2.84302 0
M  V30 2638 C 255.066 3.23316 2.86515 0
M  V30 2639 C 254.201 3.31394 4.15152 0
M  V30 2640 C 253.24 4.53201 4.1143 0
M  V30 2641 N 252.377 4.58542 5.3168 0
M  V30 2642 H 257.217 2.70482 1.25073 0
M  V30 2643 H 254.754 1.34006 0.606692 0
M  V30 2644 H 256.712 2.03912 3.63972 0
M  V30 2645 H 255.342 1.06331 3.04784 0
M  V30 2646 H 254.394 3.24076 1.99195 0
M  V30 2647 H 255.706 4.13045 2.79634 0
M  V30 2648 H 254.86 3.3889 5.03228 0
M  V30 2649 H 253.599 2.39645 4.24761 0
M  V30 2650 H 252.604 4.45827 3.21742 0
M  V30 2651 H 253.829 5.46271 4.03442 0
M  V30 2652 H 251.775 3.69686 5.41912 0
M  V30 2653 H 251.692 5.42148 5.26889 0
M  V30 2654 H 252.96 4.70296 6.21644 0
M  V30 2655 N 257.189 -0.644168 1.43834 0
M  V30 2656 C 258.419 -1.42939 1.49171 0
M  V30 2657 C 258.827 -1.88874 0.111048 0
M  V30 2658 O 258.17 -1.60656 -0.8908 0
M  V30 2659 C 258.232 -2.69151 2.38324 0
M  V30 2660 C 257.896 -2.45097 3.85715 0
M  V30 2661 C 258.893 -2.07747 4.76589 0
M  V30 2662 C 256.578 -2.59141 4.30292 0
M  V30 2663 C 258.572 -1.8475 6.10038 0
M  V30 2664 C 256.259 -2.35759 5.63792 0
M  V30 2665 C 257.257 -1.9862 6.53482 0
M  V30 2666 O 256.945 -1.75489 7.84512 0
M  V30 2667 H 256.677 -0.445271 0.508635 0
M  V30 2668 H 259.231 -0.79621 1.8934 0
M  V30 2669 H 257.461 -3.3506 1.93058 0
M  V30 2670 H 259.15 -3.31123 2.3476 0
M  V30 2671 H 259.916 -1.96465 4.43426 0
M  V30 2672 H 255.795 -2.87022 3.60749 0
M  V30 2673 H 259.339 -1.55686 6.80006 0
M  V30 2674 H 255.236 -2.46646 5.9652 0
M  V30 2675 H 256.004 -1.89841 7.9618 0
M  V30 2676 N 258.668 -1.30515 -0.883378 0
M  V30 2677 C 259.917 -1.18795 -1.63005 0
M  V30 2678 C 260.23 0.255923 -1.93919 0
M  V30 2679 O 261.436 0.494654 -2.66956 0
M  V30 2680 C 259.892 -2.07878 -2.93794 0
M  V30 2681 C 259.5 -3.57184 -2.70414 0
M  V30 2682 C 261.244 -2.04924 -3.71761 0
M  V30 2683 C 259.151 -4.38317 -3.97029 0
M  V30 2684 H 258.081 -0.441031 -0.611562 0
M  V30 2685 H 260.732 -1.55275 -0.977854 0
M  V30 2686 H 259.114 -1.64283 -3.60315 0
M  V30 2687 H 260.288 -4.08937 -2.12384 0
M  V30 2688 H 258.603 -3.61976 -2.0582 0
M  V30 2689 H 261.2 -2.62792 -4.65665 0
M  V30 2690 H 261.543 -1.0331 -4.03277 0
M  V30 2691 H 262.076 -2.46649 -3.12104 0
M  V30 2692 H 258.815 -5.40632 -3.70671 0
M  V30 2693 H 258.335 -3.91326 -4.54559 0
M  V30 2694 H 260.014 -4.49834 -4.65036 0
M  V30 2695 N 260.146 1.09593 -1.13257 0
M  V30 2696 C 261.093 2.1618 -0.808381 0
M  V30 2697 C 262.063 1.64517 0.228754 0
M  V30 2698 O 263.248 1.9053 0.101381 0
M  V30 2699 C 260.388 3.43973 -0.278675 0
M  V30 2700 C 259.501 4.09545 -1.37466 0
M  V30 2701 C 258.636 5.25088 -0.803479 0
M  V30 2702 C 257.675 5.82579 -1.87799 0
M  V30 2703 N 256.812 6.89486 -1.32488 0
M  V30 2704 H 261.652 2.43254 -1.72138 0
M  V30 2705 H 259.189 1.19392 -0.859294 0
M  V30 2706 H 261.147 4.17174 0.0465583 0
M  V30 2707 H 259.777 3.17223 0.597459 0
M  V30 2708 H 258.829 3.34226 -1.81652 0
M  V30 2709 H 260.141 4.48307 -2.18684 0
M  V30 2710 H 259.295 6.05178 -0.429427 0
M  V30 2711 H 258.034 4.87684 0.0397956 0
M  V30 2712 H 257.039 5.01152 -2.26113 0
M  V30 2713 H 258.264 6.22045 -2.72463 0
M  V30 2714 H 256.21 6.54064 -0.503575 0
M  V30 2715 H 256.127 7.27007 -2.07355 0
M  V30 2716 H 257.395 7.73336 -0.978336 0
M  V30 2717 N 261.624 0.925811 1.2754 0
M  V30 2718 C 262.557 0.367836 2.25216 0
M  V30 2719 C 263.535 -0.534738 1.53556 0
M  V30 2720 O 264.719 -0.475672 1.824 0
M  V30 2721 C 261.846 -0.47298 3.35381 0
M  V30 2722 C 260.892 0.365898 4.24928 0
M  V30 2723 S 261.725 1.78025 5.05042 0
M  V30 2724 C 262.881 0.947068 6.18693 0
M  V30 2725 H 263.114 1.19568 2.72196 0
M  V30 2726 H 260.647 0.727867 1.36167 0
M  V30 2727 H 262.605 -0.952242 3.99303 0
M  V30 2728 H 261.266 -1.27533 2.87044 0
M  V30 2729 H 260.459 -0.277582 5.03235 0
M  V30 2730 H 260.061 0.779261 3.65792 0
M  V30 2731 H 262.353 0.182201 6.77255 0
M  V30 2732 H 263.296 1.70309 6.87314 0
M  V30 2733 H 263.704 0.489913 5.6237 0
M  V30 2734 N 263.102 -1.41638 0.69111 0
M  V30 2735 C 264.349 -2.01299 0.220193 0
M  V30 2736 C 264.677 -1.54715 -1.17871 0
M  V30 2737 O 263.932 -0.747193 -1.80874 0
M  V30 2738 C 264.231 -3.56714 0.221277 0
M  V30 2739 C 263.897 -4.22792 1.56709 0
M  V30 2740 C 262.559 -4.40557 1.93554 0
M  V30 2741 C 264.911 -4.59883 2.45268 0
M  V30 2742 C 262.239 -4.92688 3.18552 0
M  V30 2743 C 264.591 -5.13403 3.69595 0
M  V30 2744 C 263.255 -5.29379 4.06589 0
M  V30 2745 H 262.525 -0.736606 0.0805743 0
M  V30 2746 H 265.172 -1.69598 0.889319 0
M  V30 2747 H 263.477 -3.8818 -0.531391 0
M  V30 2748 H 265.174 -4.00678 -0.160547 0
M  V30 2749 H 261.764 -4.09336 1.2705 0
M  V30 2750 H 265.948 -4.45817 2.18084 0
M  V30 2751 H 261.204 -5.03242 3.47214 0
M  V30 2752 H 265.378 -5.41084 4.38407 0
M  V30 2753 H 263.005 -5.69537 5.03519 0
M  V30 2754 N 264.58 -0.43555 -1.51462 0
M  V30 2755 C 265.826 0.131709 -2.02372 0
M  V30 2756 C 266.159 1.42516 -1.3192 0
M  V30 2757 O 265.434 1.89606 -0.433573 0
M  V30 2758 C 265.717 0.352301 -3.58373 0
M  V30 2759 C 265.57 -0.959676 -4.39443 0
M  V30 2760 C 266.889 1.12286 -4.25535 0
M  V30 2761 H 264.008 0.0463936 -0.735538 0
M  V30 2762 H 266.65 -0.574197 -1.81116 0
M  V30 2763 H 264.8 0.9536 -3.76615 0
M  V30 2764 H 266.472 -1.59482 -4.32855 0
M  V30 2765 H 264.715 -1.56468 -4.04599 0
M  V30 2766 H 265.386 -0.759394 -5.46752 0
M  V30 2767 H 267.862 0.613545 -4.11552 0
M  V30 2768 H 266.738 1.24598 -5.34571 0
M  V30 2769 H 266.999 2.15048 -3.86273 0
M  V30 2770 N 266.058 1.56714 -0.166846 0
M  V30 2771 C 266.988 2.20754 0.760913 0
M  V30 2772 C 267.969 1.16178 1.24244 0
M  V30 2773 O 269.154 1.44592 1.29641 0
M  V30 2774 C 266.284 2.84478 1.99223 0
M  V30 2775 C 265.238 3.95053 1.64672 0
M  V30 2776 C 264.564 4.45805 2.95232 0
M  V30 2777 C 265.864 5.14865 0.878155 0
M  V30 2778 H 267.558 2.98537 0.22713 0
M  V30 2779 H 265.104 1.43596 0.107805 0
M  V30 2780 H 267.057 3.27951 2.64624 0
M  V30 2781 H 265.781 2.04056 2.55007 0
M  V30 2782 H 264.44 3.52228 1.01641 0
M  V30 2783 H 264.088 3.62181 3.49047 0
M  V30 2784 H 263.788 5.204 2.7287 0
M  V30 2785 H 265.312 4.91962 3.6167 0
M  V30 2786 H 266.726 5.55059 1.43466 0
M  V30 2787 H 265.123 5.95348 0.753738 0
M  V30 2788 H 266.193 4.84735 -0.126377 0
M  V30 2789 N 267.536 -0.106894 1.57237 0
M  V30 2790 C 268.813 -0.843526 1.76477 0
M  V30 2791 C 269.193 -1.97499 0.745464 0
M  V30 2792 O 268.541 -2.27357 -0.228306 0
M  V30 2793 C 268.751 -1.34903 3.21873 0
M  V30 2794 C 270.099 -1.79654 3.8472 0
M  V30 2795 O 271.123 -1.44554 3.2555 0
M  V30 2796 O 269.982 -2.44515 4.88748 0
M  V30 2797 H 267.076 -0.401468 0.723016 0
M  V30 2798 H 269.622 -0.0896927 1.69463 0
M  V30 2799 H 268.394 -0.53781 3.87586 0
M  V30 2800 H 268.017 -2.16522 3.33473 0
M  V30 2801 N 269.014 -1.53014 -0.377408 0
M  V30 2802 C 269.924 -1.81557 -1.48574 0
M  V30 2803 C 270.94 -0.703102 -1.59162 0
M  V30 2804 O 272.116 -0.99192 -1.75279 0
M  V30 2805 C 269.181 -1.9889 -2.83978 0
M  V30 2806 C 268.242 -3.22801 -2.83016 0
M  V30 2807 C 267.475 -3.39298 -4.11962 0
M  V30 2808 O 267.698 -2.60345 -5.0752 0
M  V30 2809 O 266.632 -4.32604 -4.18494 0
M  V30 2810 H 270.458 -2.75695 -1.27382 0
M  V30 2811 H 268.043 -1.38248 -0.566373 0
M  V30 2812 H 269.925 -2.11931 -3.6423 0
M  V30 2813 H 268.6 -1.07942 -3.05172 0
M  V30 2814 H 267.507 -3.15193 -2.01505 0
M  V30 2815 H 268.84 -4.13632 -2.66775 0
M  V30 2816 N 270.492 0.636531 -1.44174 0
M  V30 2817 C 271.455 1.73063 -1.50273 0
M  V30 2818 C 272.455 1.56113 -0.385397 0
M  V30 2819 O 273.645 1.61707 -0.64781 0
M  V30 2820 C 270.777 3.12096 -1.37145 0
M  V30 2821 H 271.97 1.69031 -2.47727 0
M  V30 2822 H 269.523 0.849706 -1.31186 0
M  V30 2823 H 270.258 3.21728 -0.407636 0
M  V30 2824 H 270.043 3.25805 -2.18159 0
M  V30 2825 H 271.533 3.91846 -1.44382 0
M  V30 2826 N 271.97 1.30982 0.876444 0
M  V30 2827 C 273.247 1.10942 1.61094 0
M  V30 2828 C 273.627 -0.338223 2.08373 0
M  V30 2829 O 272.975 -1.33122 1.85717 0
M  V30 2830 C 273.185 2.11789 2.77392 0
M  V30 2831 C 274.533 2.43965 3.47514 0
M  V30 2832 O 275.557 2.10166 2.87591 0
M  V30 2833 O 274.416 3.01817 4.55597 0
M  V30 2834 H 271.51 0.42667 0.708436 0
M  V30 2835 H 274.056 1.42438 0.922474 0
M  V30 2836 H 272.828 3.09194 2.39823 0
M  V30 2837 H 272.451 1.81161 3.5393 0
M  V30 2838 N 273.449 -1.08991 1.13837 0
M  V30 2839 C 274.359 -2.19301 0.833333 0
M  V30 2840 C 275.375 -1.73026 -0.183847 0
M  V30 2841 O 276.551 -2.01395 -0.0138092 0
M  V30 2842 C 273.616 -3.45323 0.308651 0
M  V30 2843 C 272.677 -4.06255 1.38764 0
M  V30 2844 C 271.91 -5.26262 0.887896 0
M  V30 2845 O 272.133 -5.69747 -0.27287 0
M  V30 2846 O 271.067 -5.78435 1.66421 0
M  V30 2847 H 274.893 -2.47854 1.75506 0
M  V30 2848 H 272.478 -1.18012 0.916166 0
M  V30 2849 H 274.36 -4.21394 0.0216739 0
M  V30 2850 H 273.035 -3.18362 -0.585431 0
M  V30 2851 H 271.942 -3.318 1.72799 0
M  V30 2852 H 273.275 -4.37452 2.25602 0
M  V30 2853 N 274.927 -0.932562 -1.27047 0
M  V30 2854 C 275.86 -0.379774 -2.25018 0
M  V30 2855 C 276.838 0.526587 -1.53837 0
M  V30 2856 O 278.022 0.465992 -1.82649 0
M  V30 2857 C 275.149 0.455187 -3.35627 0
M  V30 2858 C 274.195 -0.388428 -4.24728 0
M  V30 2859 S 275.028 -1.80701 -5.04091 0
M  V30 2860 C 276.184 -0.979865 -6.18182 0
M  V30 2861 H 276.417 -1.2101 -2.71558 0
M  V30 2862 H 273.95 -0.735078 -1.35779 0
M  V30 2863 H 275.908 0.931052 -3.99802 0
M  V30 2864 H 274.569 1.26009 -2.87716 0
M  V30 2865 H 273.762 0.25089 -5.03375 0
M  V30 2866 H 273.364 -0.798649 -3.65373 0
M  V30 2867 H 275.656 -0.218115 -6.77149 0
M  V30 2868 H 276.599 -1.73951 -6.86401 0
M  V30 2869 H 277.007 -0.51973 -5.62102 0
M  V30 2870 N 276.405 1.4127 -0.698611 0
M  V30 2871 C 277.335 2.33447 -0.049629 0
M  V30 2872 C 278.316 1.51982 0.763898 0
M  V30 2873 O 279.501 1.80509 0.716257 0
M  V30 2874 C 276.631 3.35828 0.885267 0
M  V30 2875 C 275.585 4.27627 0.178613 0
M  V30 2876 C 274.911 5.20406 1.22807 0
M  V30 2877 C 276.211 5.13459 -0.956933 0
M  V30 2878 H 277.905 2.87966 -0.81951 0
M  V30 2879 H 275.451 1.38461 -0.395538 0
M  V30 2880 H 277.404 3.9924 1.34854 0
M  V30 2881 H 276.128 2.79666 1.68685 0
M  V30 2882 H 274.787 3.65643 -0.26466 0
M  V30 2883 H 274.435 4.60558 2.02226 0
M  V30 2884 H 274.135 5.82661 0.760239 0
M  V30 2885 H 275.659 5.86695 1.69179 0
M  V30 2886 H 277.073 5.70421 -0.573805 0
M  V30 2887 H 275.47 5.8467 -1.35205 0
M  V30 2888 H 276.54 4.50443 -1.79524 0
M  V30 2889 N 277.883 0.443576 1.51229 0
M  V30 2890 C 279.108 -0.121648 2.07043 0
M  V30 2891 C 279.533 -1.35156 1.30823 0
M  V30 2892 O 278.891 -1.7793 0.347934 0
M  V30 2893 C 278.939 -0.41624 3.5819 0
M  V30 2894 O 278.043 -1.50163 3.8409 0
M  V30 2895 H 277.384 0.000871367 0.663999 0
M  V30 2896 H 279.914 0.626706 1.94765 0
M  V30 2897 H 279.924 -0.664867 4.02546 0
M  V30 2898 H 278.599 0.482653 4.1309 0
M  V30 2899 H 277.176 -1.24248 3.51592 0
M  V30 2900 N 279.361 -1.56624 0.175154 0
M  V30 2901 C 280.777 -1.58571 -0.180966 0
M  V30 2902 C 280.977 -1.19065 -1.6256 0
M  V30 2903 O 280.033 -0.904044 -2.35761 0
M  V30 2904 C 281.346 -3.00522 0.103326 0
M  V30 2905 C 282.894 -3.12972 0.0418426 0
M  V30 2906 C 283.369 -4.57022 0.299175 0
M  V30 2907 N 284.86 -4.62541 0.247086 0
M  V30 2908 C 285.595 -5.71857 0.420318 0
M  V30 2909 N 285.091 -6.89717 0.652816 0
M  V30 2910 N 286.884 -5.60972 0.355957 0
M  V30 2911 H 279.035 -1.80589 1.11809 0
M  V30 2912 H 281.298 -0.837178 0.444788 0
M  V30 2913 H 281.004 -3.33916 1.10422 0
M  V30 2914 H 280.878 -3.72344 -0.603299 0
M  V30 2915 H 283.265 -2.79403 -0.949636 0
M  V30 2916 H 283.346 -2.43578 0.781238 0
M  V30 2917 H 282.99 -4.913 1.28788 0
M  V30 2918 H 282.92 -5.24579 -0.460876 0
M  V30 2919 H 285.411 -3.77829 0.0731895 0
M  V30 2920 H 285.724 -7.68911 0.774347 0
M  V30 2921 H 284.069 -6.91572 0.689476 0
M  V30 2922 H 287.26 -4.67773 0.174882 0
M  V30 2923 H 287.433 -6.46111 0.494388 0
M  V30 2924 N 280.839 0.0985539 -1.57292 0
M  V30 2925 C 282.087 0.801092 -1.85545 0
M  V30 2926 C 282.408 1.79438 -0.763353 0
M  V30 2927 O 281.678 1.94763 0.21073 0
M  V30 2928 H 280.258 0.29884 -0.684619 0
M  V30 2929 H 282.92 0.0810064 -1.94732 0
M  V30 2930 H 282.016 1.3338 -2.82163 0
M  V30 2931 N 282.317 1.53212 0.369288 0
M  V30 2932 C 283.564 1.69215 1.11232 0
M  V30 2933 C 283.892 0.442048 1.8941 0
M  V30 2934 O 283.147 -0.575944 1.87033 0
M  V30 2935 C 283.446 2.89101 2.10132 0
M  V30 2936 C 283.112 4.25758 1.48463 0
M  V30 2937 C 281.774 4.6292 1.31372 0
M  V30 2938 C 284.126 5.10757 1.03811 0
M  V30 2939 C 281.454 5.82722 0.68207 0
M  V30 2940 C 283.806 6.31201 0.420487 0
M  V30 2941 C 282.47 6.67079 0.237038 0
M  V30 2942 H 281.74 0.619201 0.407027 0
M  V30 2943 H 284.387 1.87391 0.394552 0
M  V30 2944 H 282.692 2.65421 2.88199 0
M  V30 2945 H 284.389 2.98676 2.6757 0
M  V30 2946 H 280.979 3.96494 1.62758 0
M  V30 2947 H 285.163 4.82599 1.1581 0
M  V30 2948 H 280.419 6.09113 0.528316 0
M  V30 2949 H 284.593 6.96368 0.0662874 0
M  V30 2950 H 282.22 7.59774 -0.254477 0
M  V30 2951 N 283.795 -0.628877 1.44509 0
M  V30 2952 C 284.742 -1.74074 1.51549 0
M  V30 2953 C 285.712 -1.62084 0.363021 0
M  V30 2954 O 286.897 -1.81975 0.573567 0
M  V30 2955 C 284.037 -3.12328 1.46784 0
M  V30 2956 C 283.15 -3.35277 2.72422 0
M  V30 2957 C 282.285 -4.63515 2.59475 0
M  V30 2958 C 281.324 -4.7965 3.80266 0
M  V30 2959 N 280.461 -5.99168 3.65981 0
M  V30 2960 H 285.301 -1.67392 2.46544 0
M  V30 2961 H 282.838 -0.816527 1.22357 0
M  V30 2962 H 284.796 -3.92286 1.42012 0
M  V30 2963 H 283.426 -3.18018 0.553544 0
M  V30 2964 H 282.478 -2.49242 2.87372 0
M  V30 2965 H 283.79 -3.43078 3.62076 0
M  V30 2966 H 282.944 -5.51638 2.52548 0
M  V30 2967 H 281.683 -4.58076 1.67384 0
M  V30 2968 H 280.688 -3.89957 3.87574 0
M  V30 2969 H 281.913 -4.86902 4.73395 0
M  V30 2970 H 279.859 -5.94814 2.76644 0
M  V30 2971 H 279.776 -6.08035 4.49254 0
M  V30 2972 H 281.044 -6.89846 3.6295 0
M  V30 2973 N 285.273 -1.31445 -0.869486 0
M  V30 2974 C 286.55 -1.11795 -1.60503 0
M  V30 2975 C 286.93 0.327168 -2.08549 0
M  V30 2976 O 286.278 1.32135 -1.8642 0
M  V30 2977 C 286.488 -2.13258 -2.76265 0
M  V30 2978 C 287.836 -2.45805 -3.46215 0
M  V30 2979 O 288.86 -2.11688 -2.86473 0
M  V30 2980 O 287.719 -3.04228 -4.5399 0
M  V30 2981 H 284.813 -0.430421 -0.706163 0
M  V30 2982 H 287.359 -1.42925 -0.914907 0
M  V30 2983 H 286.131 -3.10461 -2.3818 0
M  V30 2984 H 285.754 -1.83035 -3.52964 0
M  V30 2985 N 286.751 1.08385 -1.14413 0
M  V30 2986 C 287.683 2.1519 -0.789036 0
M  V30 2987 C 288.696 1.61638 0.19417 0
M  V30 2988 O 289.885 1.78479 -0.0275711 0
M  V30 2989 C 286.985 3.38565 -0.15058 0
M  V30 2990 C 286.158 4.21501 -1.16857 0
M  V30 2991 C 285.217 5.23277 -0.553832 0
M  V30 2992 O 284.243 5.56041 -1.21686 0
M  V30 2993 N 285.445 5.76629 0.669296 0
M  V30 2994 H 288.21 2.46257 -1.70814 0
M  V30 2995 H 285.771 1.24198 -1.03858 0
M  V30 2996 H 287.763 4.03777 0.273181 0
M  V30 2997 H 286.333 3.05299 0.671667 0
M  V30 2998 H 285.553 3.52265 -1.76926 0
M  V30 2999 H 286.841 4.73731 -1.85624 0
M  V30 3000 H 286.239 5.52243 1.22654 0
M  V30 3001 H 284.796 6.43521 1.03556 0
M  V30 3002 N 288.23 0.939286 1.26551 0
M  V30 3003 C 289.479 0.581601 1.93133 0
M  V30 3004 C 289.792 -0.883224 1.74524 0
M  V30 3005 O 290.998 -1.3502 2.35546 0
M  V30 3006 C 289.454 0.989425 3.46032 0
M  V30 3007 C 289.062 2.47573 3.73379 0
M  V30 3008 C 290.806 0.703544 4.18629 0
M  V30 3009 C 288.713 2.82235 5.19709 0
M  V30 3010 H 287.643 0.213803 0.723052 0
M  V30 3011 H 290.294 1.14167 1.4366 0
M  V30 3012 H 288.676 0.357902 3.94379 0
M  V30 3013 H 289.85 3.15614 3.35744 0
M  V30 3014 H 288.165 2.73471 3.1401 0
M  V30 3015 H 290.762 0.938869 5.26393 0
M  V30 3016 H 291.105 -0.359639 4.14744 0
M  V30 3017 H 291.638 1.2947 3.76141 0
M  V30 3018 H 288.377 3.87509 5.28694 0
M  V30 3019 H 287.897 2.18854 5.58447 0
M  V30 3020 H 289.576 2.70599 5.87695 0
M  V30 3021 N 289.708 -1.40897 0.706093 0
M  V30 3022 C 290.938 -2.05075 0.250523 0
M  V30 3023 C 291.346 -1.53275 -1.10921 0
M  V30 3024 O 290.689 -0.680281 -1.7064 0
M  V30 3025 C 290.751 -3.59219 0.142178 0
M  V30 3026 C 290.415 -4.33864 1.43566 0
M  V30 3027 C 291.412 -4.62448 2.37566 0
M  V30 3028 C 289.097 -4.72946 1.69195 0
M  V30 3029 C 291.091 -5.29088 3.5545 0
M  V30 3030 C 288.778 -5.3932 2.87362 0
M  V30 3031 C 289.776 -5.6732 3.80312 0
M  V30 3032 O 289.464 -6.32325 4.96408 0
M  V30 3033 H 289.196 -0.666645 0.112074 0
M  V30 3034 H 291.75 -1.81467 0.962239 0
M  V30 3035 H 289.98 -3.81609 -0.6254 0
M  V30 3036 H 291.669 -4.0495 -0.277584 0
M  V30 3037 H 292.435 -4.32727 2.19027 0
M  V30 3038 H 288.314 -4.50527 0.977042 0
M  V30 3039 H 291.858 -5.50859 4.28018 0
M  V30 3040 H 287.755 -5.68461 3.05814 0
M  V30 3041 H 288.523 -6.50821 4.9636 0
M  V30 3042 N 291.186 -0.45159 -1.50991 0
M  V30 3043 C 292.463 0.170707 -1.94854 0
M  V30 3044 C 292.843 1.58788 -1.39103 0
M  V30 3045 O 292.191 2.20913 -0.583921 0
M  V30 3046 C 292.401 0.133929 -3.48743 0
M  V30 3047 C 293.749 0.33248 -4.23296 0
M  V30 3048 O 294.773 0.211403 -3.55572 0
M  V30 3049 O 293.632 0.57486 -5.43468 0
M  V30 3050 H 290.726 0.122264 -0.817912 0
M  V30 3051 H 293.272 -0.510594 -1.61836 0
M  V30 3052 H 292.044 -0.856283 -3.81816 0
M  V30 3053 H 291.667 0.857529 -3.88242 0
M  V30 3054 N 292.664 1.56529 -0.183458 0
M  V30 3055 C 293.913 1.96419 0.458511 0
M  V30 3056 C 294.226 1.0727 1.63562 0
M  V30 3057 O 295.432 1.36893 2.34462 0
M  V30 3058 C 293.888 3.49298 0.867122 0
M  V30 3059 C 293.496 4.47092 -0.285057 0
M  V30 3060 C 295.24 3.97983 1.47683 0
M  V30 3061 C 293.147 5.91225 0.143862 0
M  V30 3062 H 292.077 0.733394 0.175071 0
M  V30 3063 H 294.728 1.81448 -0.273624 0
M  V30 3064 H 293.11 3.59731 1.65559 0
M  V30 3065 H 294.284 4.48383 -1.0625 0
M  V30 3066 H 292.599 4.08535 -0.805503 0
M  V30 3067 H 295.196 5.03134 1.80999 0
M  V30 3068 H 295.539 3.41618 2.37914 0
M  V30 3069 H 296.072 3.90617 0.752562 0
M  V30 3070 H 292.811 6.5149 -0.723974 0
M  V30 3071 H 292.331 5.93214 0.886413 0
M  V30 3072 H 294.01 6.44362 0.583628 0
M  V30 3073 N 294.142 -0.090211 1.57342 0
M  V30 3074 C 295.389 -0.792807 1.86335 0
M  V30 3075 C 295.717 -1.78494 0.772662 0
M  V30 3076 O 294.972 -1.94305 -0.233258 0
M  V30 3077 C 295.271 -1.55222 3.21933 0
M  V30 3078 C 294.937 -0.701765 4.45406 0
M  V30 3079 C 293.599 -0.467334 4.78925 0
M  V30 3080 C 295.951 -0.11086 5.21082 0
M  V30 3081 C 293.279 0.367785 5.85546 0
M  V30 3082 C 295.631 0.711609 6.28585 0
M  V30 3083 C 294.295 0.956086 6.60617 0
M  V30 3084 H 293.565 -0.290109 0.681849 0
M  V30 3085 H 296.212 -0.0541332 1.91423 0
M  V30 3086 H 294.517 -2.3626 3.12551 0
M  V30 3087 H 296.214 -2.10032 3.41595 0
M  V30 3088 H 292.804 -0.894598 4.1916 0
M  V30 3089 H 296.988 -0.279129 4.95514 0
M  V30 3090 H 292.244 0.566128 6.08773 0
M  V30 3091 H 296.418 1.17632 6.86393 0
M  V30 3092 H 294.045 1.60499 7.43064 0
M  V30 3093 N 295.62 -1.53406 -0.361157 0
M  V30 3094 C 296.552 -1.76446 -1.46286 0
M  V30 3095 C 297.565 -0.645322 -1.49464 0
M  V30 3096 O 298.754 -0.921681 -1.52864 0
M  V30 3097 C 295.854 -1.83332 -2.85031 0
M  V30 3098 C 295.027 -3.13033 -3.05498 0
M  V30 3099 C 294.086 -3.11104 -4.24383 0
M  V30 3100 O 293.112 -3.84888 -4.19344 0
M  V30 3101 N 294.314 -2.32234 -5.32022 0
M  V30 3102 H 297.079 -2.71508 -1.26899 0
M  V30 3103 H 294.64 -1.52238 -0.550915 0
M  V30 3104 H 296.632 -1.79514 -3.62708 0
M  V30 3105 H 295.202 -0.955342 -2.97644 0
M  V30 3106 H 294.422 -3.30119 -2.15442 0
M  V30 3107 H 295.71 -3.9874 -3.16044 0
M  V30 3108 H 295.108 -1.71807 -5.38979 0
M  V30 3109 H 293.665 -2.3423 -6.08259 0
M  V30 3110 N 297.098 0.621204 -1.44841 0
M  V30 3111 C 298.045 1.73267 -1.5247 0
M  V30 3112 C 299.015 1.6189 -0.371611 0
M  V30 3113 O 300.2 1.81668 -0.58321 0
M  V30 3114 C 297.34 3.11545 -1.48438 0
M  V30 3115 C 296.453 3.33827 -2.74196 0
M  V30 3116 C 295.588 4.62133 -2.61929 0
M  V30 3117 C 294.627 4.77627 -3.82804 0
M  V30 3118 N 293.764 5.97219 -3.69153 0
M  V30 3119 H 298.604 1.66082 -2.47428 0
M  V30 3120 H 296.141 0.810026 -1.22788 0
M  V30 3121 H 298.099 3.91528 -1.4409 0
M  V30 3122 H 296.729 3.1772 -0.570402 0
M  V30 3123 H 295.781 2.47715 -2.88689 0
M  V30 3124 H 297.093 3.41153 -3.6389 0
M  V30 3125 H 296.247 5.50291 -2.5547 0
M  V30 3126 H 294.986 4.57182 -1.69811 0
M  V30 3127 H 293.991 3.87896 -3.89637 0
M  V30 3128 H 295.216 4.84385 -4.75971 0
M  V30 3129 H 293.162 5.93339 -2.79794 0
M  V30 3130 H 293.079 6.05644 -4.52472 0
M  V30 3131 H 294.347 6.87912 -3.66603 0
M  V30 3132 N 298.576 1.31904 0.862503 0
M  V30 3133 C 299.506 1.22782 1.98612 0
M  V30 3134 C 300.487 0.113362 1.69722 0
M  V30 3135 O 301.672 0.299218 1.91881 0
M  V30 3136 C 298.802 0.942058 3.34279 0
M  V30 3137 C 297.756 2.0169 3.77499 0
M  V30 3138 C 297.082 1.58369 5.10709 0
M  V30 3139 C 298.382 3.43096 3.93805 0
M  V30 3140 H 300.076 2.16788 2.06502 0
M  V30 3141 H 297.622 1.04366 0.992154 0
M  V30 3142 H 299.575 0.864818 4.1243 0
M  V30 3143 H 298.299 -0.0336603 3.26583 0
M  V30 3144 H 296.958 2.08416 3.01593 0
M  V30 3145 H 296.606 0.595628 4.99461 0
M  V30 3146 H 296.306 2.30279 5.40597 0
M  V30 3147 H 297.83 1.52067 5.91361 0
M  V30 3148 H 299.244 3.39003 4.62331 0
M  V30 3149 H 297.641 4.13288 4.35101 0
M  V30 3150 H 298.711 3.83334 2.96957 0
M  V30 3151 N 300.054 -1.07777 1.14986 0
M  V30 3152 C 301.002 -2.16964 0.838406 0
M  V30 3153 C 301.996 -1.68372 -0.186386 0
M  V30 3154 O 303.202 -1.79951 -0.0418465 0
M  V30 3155 H 299.577 -0.708006 0.253439 0
M  V30 3156 H 301.548 -2.40454 1.76704 0
M  V30 3157 C 300.297 -3.4604 0.339335 0
M  V30 3158 H 299.62 -3.83813 1.11927 0
M  V30 3159 H 301.06 -4.23698 0.160021 0
M  V30 3160 C 299.519 -3.23569 -0.938325 0
M  V30 3161 O 300.049 -3.47752 -2.01077 0
M  V30 3162 N 298.255 -2.77079 -0.876117 0
M  V30 3163 H 297.802 -2.576 -0.00322037 0
M  V30 3164 H 297.76 -2.62422 -1.73153 0
M  V30 3165 N 301.532 -0.945985 -1.26051 0
M  V30 3166 C 302.757 -0.612525 -1.98149 0
M  V30 3167 C 303.182 0.806623 -1.69927 0
M  V30 3168 O 302.54 1.54411 -0.950108 0
M  V30 3169 C 302.588 -0.866981 -3.50023 0
M  V30 3170 O 301.692 0.0585333 -4.12358 0
M  V30 3171 H 301.033 -0.23379 -0.621481 0
M  V30 3172 H 303.563 -1.27023 -1.60395 0
M  V30 3173 H 303.573 -0.789792 -4.00283 0
M  V30 3174 H 302.248 -1.90135 -3.69894 0
M  V30 3175 H 300.825 -0.0701241 -3.72834 0
M  V30 3176 N 303.011 1.40521 -0.713556 0
M  V30 3177 C 303.959 2.32549 -0.0485227 0
M  V30 3178 C 304.953 1.51931 0.74922 0
M  V30 3179 O 306.159 1.67745 0.652816 0
M  V30 3180 H 302.534 0.751994 0.00311138 0
M  V30 3181 H 304.505 2.86291 -0.841443 0
M  V30 3182 C 303.254 3.36879 0.860687 0
M  V30 3183 H 302.577 3.98978 0.256246 0
M  V30 3184 H 304.017 4.03772 1.294 0
M  V30 3185 C 302.476 2.72197 1.9852 0
M  V30 3186 O 303.006 2.5837 3.07584 0
M  V30 3187 N 301.212 2.30612 1.76823 0
M  V30 3188 H 300.759 2.42059 0.881217 0
M  V30 3189 H 300.717 1.87672 2.52243 0
M  V30 3190 N 304.489 0.459591 1.5075 0
M  V30 3191 C 305.717 -0.0973749 2.06671 0
M  V30 3192 C 306.132 -1.34524 1.32472 0
M  V30 3193 O 305.489 -1.7827 0.390634 0
M  V30 3194 C 305.54 -0.39714 3.59312 0
M  V30 3195 O 305.261 0.801214 4.30711 0
M  V30 3196 C 306.762 -1.00234 4.31819 0
M  V30 3197 H 303.982 0.00195854 0.670997 0
M  V30 3198 H 306.526 0.645072 1.94059 0
M  V30 3199 H 304.681 -1.08951 3.71764 0
M  V30 3200 H 305.095 0.538857 5.21725 0
M  V30 3201 H 306.569 -1.16193 5.39632 0
M  V30 3202 H 307.046 -1.98939 3.91561 0
M  V30 3203 H 307.652 -0.348699 4.23868 0
M  V30 3204 N 305.967 -1.56429 0.191757 0
M  V30 3205 C 306.899 -2.16154 -0.762245 0
M  V30 3206 C 307.912 -1.12247 -1.17917 0
M  V30 3207 O 309.101 -1.39353 -1.11548 0
M  V30 3208 C 306.201 -2.70606 -2.04024 0
M  V30 3209 C 305.374 -3.99381 -1.78364 0
M  V30 3210 C 304.433 -4.38692 -2.90578 0
M  V30 3211 O 303.459 -5.06179 -2.6033 0
M  V30 3212 N 304.661 -4.01922 -4.18854 0
M  V30 3213 H 307.426 -2.98643 -0.251526 0
M  V30 3214 H 304.987 -1.61897 0.00967373 0
M  V30 3215 H 306.979 -2.93891 -2.78227 0
M  V30 3216 H 305.549 -1.9259 -2.46227 0
M  V30 3217 H 304.769 -3.84262 -0.879581 0
M  V30 3218 H 306.057 -4.83445 -1.58614 0
M  V30 3219 H 305.455 -3.47631 -4.46283 0
M  V30 3220 H 304.012 -4.30165 -4.89695 0
M  V30 3221 N 307.445 0.0818655 -1.57387 0
M  V30 3222 C 308.691 0.784074 -1.8703 0
M  V30 3223 C 309.024 1.77729 -0.782689 0
M  V30 3224 O 308.299 1.93384 0.208051 0
M  V30 3225 C 308.582 1.50105 -3.27323 0
M  V30 3226 C 308.435 0.524925 -4.46727 0
M  V30 3227 C 309.754 2.44843 -3.65705 0
M  V30 3228 H 306.873 0.283582 -0.680257 0
M  V30 3229 H 309.515 0.0474352 -1.89941 0
M  V30 3230 H 307.665 2.12897 -3.24972 0
M  V30 3231 H 309.337 -0.0970111 -4.61198 0
M  V30 3232 H 307.58 -0.160606 -4.33503 0
M  V30 3233 H 308.251 1.064 -5.41648 0
M  V30 3234 H 310.727 1.92135 -3.69085 0
M  V30 3235 H 309.603 2.92018 -4.64776 0
M  V30 3236 H 309.864 3.29197 -2.95096 0
M  V30 3237 N 308.923 1.53595 0.353017 0
M  V30 3238 C 310.169 1.70638 1.09593 0
M  V30 3239 C 310.502 0.463286 1.88593 0
M  V30 3240 O 309.777 -0.539597 1.86865 0
M  V30 3241 C 310.06 2.96406 2.04489 0
M  V30 3242 C 309.913 4.30901 1.29014 0
M  V30 3243 C 311.232 3.17812 3.0444 0
M  V30 3244 H 308.351 0.620913 0.397034 0
M  V30 3245 H 310.993 1.86254 0.375446 0
M  V30 3246 H 309.143 2.83223 2.65927 0
M  V30 3247 H 310.815 4.55917 0.702638 0
M  V30 3248 H 309.058 4.29741 0.592071 0
M  V30 3249 H 309.729 5.1506 1.98537 0
M  V30 3250 H 312.205 3.30263 2.53112 0
M  V30 3251 H 311.081 4.07223 3.6805 0
M  V30 3252 H 311.342 2.33669 3.75301 0
M  V30 3253 N 310.401 -0.613514 1.45168 0
M  V30 3254 C 311.331 -1.7354 1.56225 0
M  V30 3255 C 312.312 -1.64981 0.41414 0
M  V30 3256 O 313.497 -1.83472 0.636526 0
M  V30 3257 C 310.627 -3.12128 1.52295 0
M  V30 3258 C 309.581 -3.35491 2.65762 0
M  V30 3259 C 308.907 -4.74291 2.46885 0
M  V30 3260 C 310.207 -3.26325 4.0781 0
M  V30 3261 H 311.901 -1.64543 2.50132 0
M  V30 3262 H 309.447 -0.790185 1.20383 0
M  V30 3263 H 311.4 -3.90404 1.58628 0
M  V30 3264 H 310.124 -3.2195 0.549139 0
M  V30 3265 H 308.783 -2.59603 2.58847 0
M  V30 3266 H 308.431 -4.80839 1.47657 0
M  V30 3267 H 308.131 -4.9088 3.22972 0
M  V30 3268 H 309.655 -5.54775 2.55063 0
M  V30 3269 H 311.069 -3.94483 4.16 0
M  V30 3270 H 309.466 -3.54445 4.8424 0
M  V30 3271 H 310.536 -2.23855 4.30136 0
M  V30 3272 N 311.879 -1.3236 -0.855495 0
M  V30 3273 C 312.809 -1.23833 -1.97958 0
M  V30 3274 C 313.79 -0.122361 -1.69659 0
M  V30 3275 O 314.975 -0.30939 -1.9172 0
M  V30 3276 C 312.105 -0.959772 -3.33775 0
M  V30 3277 C 311.059 -2.03689 -3.76424 0
M  V30 3278 C 310.385 -1.61075 -5.09862 0
M  V30 3279 C 311.685 -3.4518 -3.9198 0
M  V30 3280 H 313.379 -2.1788 -2.0535 0
M  V30 3281 H 310.925 -1.04891 -0.986605 0
M  V30 3282 H 312.878 -0.886678 -4.11966 0
M  V30 3283 H 311.602 0.0163404 -3.26596 0
M  V30 3284 H 310.261 -2.10012 -3.00484 0
M  V30 3285 H 309.909 -0.622107 -4.99138 0
M  V30 3286 H 309.609 -2.33143 -5.39368 0
M  V30 3287 H 311.133 -1.55201 -5.90546 0
M  V30 3288 H 312.547 -3.4145 -4.60526 0
M  V30 3289 H 310.944 -4.1559 -4.32903 0
M  V30 3290 H 312.014 -3.84903 -2.94919 0
M  V30 3291 N 313.357 1.07166 -1.15556 0
M  V30 3292 C 314.582 1.84053 -0.955988 0
M  V30 3293 C 315.007 1.81586 0.490739 0
M  V30 3294 O 314.365 1.21018 1.34997 0
M  V30 3295 C 314.413 3.28957 -1.47714 0
M  V30 3296 O 313.517 4.06795 -0.677593 0
M  V30 3297 H 312.858 0.569842 -0.340847 0
M  V30 3298 H 315.388 1.35178 -1.53584 0
M  V30 3299 H 315.398 3.79788 -1.4908 0
M  V30 3300 H 314.073 3.30068 -2.53037 0
M  V30 3301 H 312.65 3.6561 -0.733721 0
M  V30 3302 N 314.835 0.952656 1.25548 0
M  V30 3303 C 315.798 0.475794 2.24207 0
M  V30 3304 C 316.798 -0.419428 1.55234 0
M  V30 3305 O 317.988 -0.216994 1.72843 0
M  V30 3306 C 315.12 -0.312814 3.39462 0
M  V30 3307 H 316.313 1.34779 2.67908 0
M  V30 3308 H 313.866 0.735739 1.37901 0
M  V30 3309 H 314.601 -1.20257 3.01179 0
M  V30 3310 H 314.386 0.329404 3.90714 0
M  V30 3311 H 315.876 -0.635986 4.12729 0
M  V30 3312 N 316.313 -1.40141 0.720998 0
M  V30 3313 C 317.541 -2.05096 0.272656 0
M  V30 3314 C 317.956 -1.54334 -1.0875 0
M  V30 3315 O 317.313 -0.702211 -1.6845 0
M  V30 3316 C 317.364 -3.60636 0.249835 0
M  V30 3317 O 317.085 -4.09526 1.55629 0
M  V30 3318 C 318.586 -4.42772 -0.216396 0
M  V30 3319 H 315.806 -0.659897 0.121558 0
M  V30 3320 H 318.35 -1.79449 0.980723 0
M  V30 3321 H 316.505 -3.85232 -0.409237 0
M  V30 3322 H 316.919 -5.03758 1.4604 0
M  V30 3323 H 318.393 -5.51702 -0.181212 0
M  V30 3324 H 318.87 -4.20756 -1.25941 0
M  V30 3325 H 319.476 -4.23294 0.412596 0
M  V30 3326 N 317.792 -0.46758 -1.50504 0
M  V30 3327 C 318.725 0.374324 -2.25109 0
M  V30 3328 C 319.703 0.99921 -1.28275 0
M  V30 3329 O 320.887 1.03583 -1.57489 0
M  V30 3330 C 318.014 1.52419 -3.02467 0
M  V30 3331 C 317.06 1.01702 -4.14197 0
M  V30 3332 S 317.893 -0.0654477 -5.3546 0
M  V30 3333 C 319.049 1.08837 -6.16365 0
M  V30 3334 H 319.282 -0.258983 -2.9617 0
M  V30 3335 H 316.815 -0.252421 -1.52323 0
M  V30 3336 H 318.773 2.18322 -3.47628 0
M  V30 3337 H 317.434 2.129 -2.30938 0
M  V30 3338 H 316.627 1.87776 -4.67714 0
M  V30 3339 H 316.229 0.435757 -3.71453 0
M  V30 3340 H 318.521 2.00071 -6.47285 0
M  V30 3341 H 319.464 0.592538 -7.05616 0
M  V30 3342 H 319.872 1.34061 -5.4835 0
M  V30 3343 N 319.27 1.56325 -0.20005 0
M  V30 3344 C 320.681 1.8408 0.31167 0
M  V30 3345 C 321.032 1.12087 1.61031 0
M  V30 3346 O 320.157 0.38332 2.12978 0
M  V30 3347 C 320.752 3.33932 0.57226 0
M  V30 3348 C 319.311 3.6208 1.02834 0
M  V30 3349 C 318.458 2.77186 0.079634 0
M  V30 3350 H 321.409 1.52939 -0.423729 0
M  V30 3351 H 321.43 3.52971 1.42096 0
M  V30 3352 H 320.942 3.86303 -0.37308 0
M  V30 3353 H 319.043 3.15147 1.98778 0
M  V30 3354 H 319.156 4.7023 0.917624 0
M  V30 3355 H 317.52 2.47951 0.582448 0
M  V30 3356 H 318.303 3.32347 -0.860238 0
M  V30 3357 N 320.748 -0.0735177 1.57428 0
M  V30 3358 C 321.973 -0.789787 1.91774 0
M  V30 3359 C 322.398 -1.70413 0.796306 0
M  V30 3360 O 321.756 -1.79555 -0.250961 0
M  V30 3361 C 321.804 -1.5609 3.25067 0
M  V30 3362 O 320.908 -2.67144 3.14178 0
M  V30 3363 H 320.249 -0.215582 0.628029 0
M  V30 3364 H 322.779 -0.0422781 2.04556 0
M  V30 3365 H 322.789 -1.94052 3.58898 0
M  V30 3366 H 321.464 -0.890015 4.06265 0
M  V30 3367 H 320.041 -2.32052 2.91901 0
M  V30 3368 N 322.226 -1.5378 -0.344866 0
M  V30 3369 C 323.503 -1.61589 -1.10219 0
M  V30 3370 C 323.883 -0.436316 -2.06542 0
M  V30 3371 O 323.231 0.571543 -2.21237 0
M  V30 3372 C 323.441 -2.97602 -1.82301 0
M  V30 3373 C 324.789 -3.5291 -2.36093 0
M  V30 3374 O 325.813 -2.99768 -1.924 0
M  V30 3375 O 324.672 -4.45859 -3.16026 0
M  V30 3376 H 321.766 -0.653522 -0.506792 0
M  V30 3377 H 324.312 -1.66126 -0.346465 0
M  V30 3378 H 323.084 -3.74893 -1.12121 0
M  V30 3379 H 322.707 -2.9665 -2.64735 0
M  V30 3380 N 323.704 0.605807 -1.45491 0
M  V30 3381 C 324.95 1.36679 -1.49823 0
M  V30 3382 C 325.283 1.93693 -0.140175 0
M  V30 3383 O 324.558 1.75158 0.845581 0
M  V30 3384 C 324.841 2.51337 -2.57879 0
M  V30 3385 C 324.694 1.99508 -4.03134 0
M  V30 3386 C 326.013 3.53463 -2.62205 0
M  V30 3387 H 323.132 0.495617 -0.545466 0
M  V30 3388 H 325.774 0.682732 -1.7731 0
M  V30 3389 H 323.924 3.09691 -2.34571 0
M  V30 3390 H 325.596 1.45789 -4.37656 0
M  V30 3391 H 323.839 1.30496 -4.13707 0
M  V30 3392 H 324.51 2.82169 -4.74431 0
M  V30 3393 H 326.986 3.04953 -2.83095 0
M  V30 3394 H 325.862 4.31178 -3.39672 0
M  V30 3395 H 326.123 4.09197 -1.67363 0
M  V30 3396 N 325.182 1.32811 0.848464 0
M  V30 3397 C 326.112 1.24882 1.97299 0
M  V30 3398 C 327.093 0.131357 1.69592 0
M  V30 3399 O 328.278 0.319553 1.91553 0
M  V30 3400 C 325.408 0.97746 3.33261 0
M  V30 3401 C 324.362 2.05682 3.75338 0
M  V30 3402 C 323.688 1.63777 5.09 0
M  V30 3403 C 324.988 3.47254 3.90144 0
M  V30 3404 H 326.682 2.18966 2.04191 0
M  V30 3405 H 324.228 1.05413 0.981029 0
M  V30 3406 H 326.181 0.908513 4.1149 0
M  V30 3407 H 324.905 0.000980011 3.266 0
M  V30 3408 H 323.564 2.11603 2.99366 0
M  V30 3409 H 323.212 0.648569 4.98801 0
M  V30 3410 H 322.912 2.36 5.38124 0
M  V30 3411 H 324.436 1.5833 5.89715 0
M  V30 3412 H 325.85 3.43888 4.58709 0
M  V30 3413 H 324.247 4.1788 4.30693 0
M  V30 3414 H 325.317 3.86462 2.92874 0
M  V30 3415 N 326.66 -1.06551 1.16123 0
M  V30 3416 C 327.57 -2.17484 0.879662 0
M  V30 3417 C 328.586 -1.73377 -0.147104 0
M  V30 3418 O 329.762 -2.01379 0.0289128 0
M  V30 3419 C 326.827 -3.44591 0.381829 0
M  V30 3420 C 325.888 -4.0322 1.4735 0
M  V30 3421 C 325.121 -5.24261 0.999324 0
M  V30 3422 O 325.344 -5.70198 -0.151957 0
M  V30 3423 O 324.278 -5.74775 1.78653 0
M  V30 3424 H 328.104 -2.44075 1.80724 0
M  V30 3425 H 325.689 -1.16042 0.940992 0
M  V30 3426 H 327.571 -4.21254 0.111053 0
M  V30 3427 H 326.246 -3.19532 -0.51777 0
M  V30 3428 H 325.153 -3.2806 1.79798 0
M  V30 3429 H 326.486 -4.32568 2.34831 0
M  V30 3430 N 328.138 -0.959301 -1.25041 0
M  V30 3431 C 329.384 -0.617525 -1.9317 0
M  V30 3432 C 329.717 0.843981 -1.74902 0
M  V30 3433 O 328.992 1.60615 -1.09696 0
M  V30 3434 C 329.275 -0.982736 -3.46431 0
M  V30 3435 C 329.128 -2.50032 -3.73904 0
M  V30 3436 C 330.447 -0.511176 -4.37121 0
M  V30 3437 H 327.566 -0.22582 -0.701552 0
M  V30 3438 H 330.208 -1.19679 -1.4757 0
M  V30 3439 H 328.358 -0.489806 -3.854 0
M  V30 3440 H 330.03 -3.06737 -3.44544 0
M  V30 3441 H 328.273 -2.93598 -3.19348 0
M  V30 3442 H 328.944 -2.70635 -4.81103 0
M  V30 3443 H 331.42 -0.934075 -4.0548 0
M  V30 3444 H 330.296 -0.795361 -5.43107 0
M  V30 3445 H 330.557 0.588834 -4.38161 0
M  V30 3446 N 329.616 1.39756 -0.72842 0
M  V30 3447 C 330.844 2.04948 -0.283528 0
M  V30 3448 C 331.259 1.54908 1.0793 0
M  V30 3449 O 330.616 0.711135 1.68075 0
M  V30 3450 C 330.667 3.60498 -0.268957 0
M  V30 3451 O 330.388 4.08695 -1.57798 0
M  V30 3452 C 331.889 4.4288 0.192912 0
M  V30 3453 H 329.109 0.659243 -0.125056 0
M  V30 3454 H 331.653 1.78927 -0.990226 0
M  V30 3455 H 329.808 3.85444 0.388801 0
M  V30 3456 H 330.222 5.02977 -1.48709 0
M  V30 3457 H 331.696 5.51791 0.151952 0
M  V30 3458 H 332.173 4.21418 1.23708 0
M  V30 3459 H 332.779 4.23069 -0.435039 0
M  V30 3460 N 331.094 0.475555 1.50254 0
M  V30 3461 C 332.041 -0.316293 2.28622 0
M  V30 3462 C 333.011 -0.983227 1.33873 0
M  V30 3463 O 334.196 -0.994805 1.62814 0
M  V30 3464 C 331.336 -1.38975 3.1588 0
M  V30 3465 C 330.449 -0.737146 4.25664 0
M  V30 3466 C 329.584 -1.78887 5.00173 0
M  V30 3467 C 328.623 -1.11676 6.01826 0
M  V30 3468 N 327.76 -2.11154 6.69596 0
M  V30 3469 H 332.6 0.358297 2.95838 0
M  V30 3470 H 330.137 0.188541 1.45887 0
M  V30 3471 H 332.095 -2.02383 3.64825 0
M  V30 3472 H 330.725 -2.03344 2.50701 0
M  V30 3473 H 329.777 0.0096065 3.80399 0
M  V30 3474 H 331.089 -0.206816 4.98371 0
M  V30 3475 H 330.243 -2.49865 5.52859 0
M  V30 3476 H 328.982 -2.35302 4.27182 0
M  V30 3477 H 327.987 -0.392633 5.48396 0
M  V30 3478 H 329.212 -0.55945 6.76792 0
M  V30 3479 H 327.158 -2.66577 5.99394 0
M  V30 3480 H 327.075 -1.63118 7.38193 0
M  V30 3481 H 328.343 -2.81497 7.26897 0
M  V30 3482 N 332.573 -1.56217 0.208337 0
M  V30 3483 C 333.52 -2.19699 -0.707192 0
M  V30 3484 C 334.49 -1.14836 -1.20008 0
M  V30 3485 O 335.675 -1.4314 -1.26157 0
M  V30 3486 C 332.815 -2.87061 -1.91546 0
M  V30 3487 C 331.928 -4.06483 -1.46271 0
M  V30 3488 C 331.063 -4.61665 -2.62752 0
M  V30 3489 C 330.102 -5.73417 -2.14147 0
M  V30 3490 N 329.239 -6.22948 -3.23853 0
M  V30 3491 H 334.079 -2.97575 -0.159111 0
M  V30 3492 H 331.616 -1.46948 -0.0667874 0
M  V30 3493 H 333.574 -3.24294 -2.62468 0
M  V30 3494 H 332.204 -2.11725 -2.43664 0
M  V30 3495 H 331.256 -3.74825 -0.648886 0
M  V30 3496 H 332.568 -4.87271 -1.06622 0
M  V30 3497 H 331.722 -5.01272 -3.41776 0
M  V30 3498 H 330.461 -3.80013 -3.05682 0
M  V30 3499 H 329.466 -5.33326 -1.33581 0
M  V30 3500 H 330.691 -6.56897 -1.72232 0
M  V30 3501 H 328.637 -5.44213 -3.6629 0
M  V30 3502 H 328.554 -6.98823 -2.88414 0
M  V30 3503 H 329.822 -6.6721 -4.03052 0
M  V30 3504 N 334.051 0.0651679 -1.57465 0
M  V30 3505 C 335.298 0.763063 -1.87573 0
M  V30 3506 C 335.626 1.77242 -0.800961 0
M  V30 3507 O 334.881 1.94651 0.202316 0
M  V30 3508 C 335.18 1.50081 -3.24362 0
M  V30 3509 C 334.846 0.630816 -4.46466 0
M  V30 3510 C 333.508 0.391082 -4.79608 0
M  V30 3511 C 335.86 0.0279465 -5.21193 0
M  V30 3512 C 333.188 -0.460894 -5.84887 0
M  V30 3513 C 335.54 -0.811522 -6.27373 0
M  V30 3514 C 334.204 -1.06106 -6.59013 0
M  V30 3515 H 333.474 0.279224 -0.686378 0
M  V30 3516 H 336.121 0.0236726 -1.91485 0
M  V30 3517 H 334.426 2.31258 -3.16271 0
M  V30 3518 H 336.123 2.04571 -3.44894 0
M  V30 3519 H 332.713 0.8278 -4.2053 0
M  V30 3520 H 336.897 0.200262 -4.95896 0
M  V30 3521 H 332.153 -0.662907 -6.07796 0
M  V30 3522 H 336.327 -1.28537 -6.84435 0
M  V30 3523 H 333.954 -1.723 -7.40417 0
M  V30 3524 N 335.529 1.53961 0.336706 0
M  V30 3525 C 336.462 1.77255 1.43722 0
M  V30 3526 C 337.44 0.62193 1.50236 0
M  V30 3527 O 338.624 0.857874 1.67847 0
M  V30 3528 C 335.751 1.87733 2.81912 0
M  V30 3529 C 334.797 3.09933 2.92991 0
M  V30 3530 S 335.63 4.68836 2.58753 0
M  V30 3531 C 336.786 4.82202 3.99039 0
M  V30 3532 H 337.019 2.70322 1.23748 0
M  V30 3533 H 334.552 1.44917 0.532777 0
M  V30 3534 H 336.51 1.94455 3.61521 0
M  V30 3535 H 335.171 0.956666 2.99177 0
M  V30 3536 H 334.364 3.1396 3.94265 0
M  V30 3537 H 333.966 3.01472 2.21338 0
M  V30 3538 H 336.258 4.64032 4.9364 0
M  V30 3539 H 337.201 5.84298 4.00002 0
M  V30 3540 H 337.609 4.10604 3.87382 0
M  V30 3541 N 337.007 -0.598083 1.45811 0
M  V30 3542 C 338.423 -0.919847 1.30426 0
M  V30 3543 C 338.623 -1.99759 0.264303 0
M  V30 3544 O 337.679 -2.50221 -0.338472 0
M  V30 3545 C 338.992 -1.35176 2.68603 0
M  V30 3546 C 340.54 -1.46546 2.76574 0
M  V30 3547 C 341.015 -1.9311 4.15298 0
M  V30 3548 N 342.506 -2.00328 4.1764 0
M  V30 3549 C 343.241 -2.37599 5.21856 0
M  V30 3550 N 342.737 -2.73771 6.36413 0
M  V30 3551 N 344.53 -2.38021 5.09218 0
M  V30 3552 H 336.681 0.114111 2.12093 0
M  V30 3553 H 338.944 -0.0116121 0.947929 0
M  V30 3554 H 338.65 -0.633969 3.45939 0
M  V30 3555 H 338.524 -2.3164 2.97696 0
M  V30 3556 H 340.911 -2.17415 1.99537 0
M  V30 3557 H 340.992 -0.483727 2.51185 0
M  V30 3558 H 340.636 -1.22824 4.92825 0
M  V30 3559 H 340.566 -2.92213 4.38086 0
M  V30 3560 H 343.057 -1.74925 3.34977 0
M  V30 3561 H 343.37 -3.0112 7.11721 0
M  V30 3562 H 341.715 -2.71445 6.39799 0
M  V30 3563 H 344.906 -2.09174 4.18765 0
M  V30 3564 H 345.079 -2.66741 5.90554 0
M  V30 3565 N 338.485 -1.33259 -0.841409 0
M  V30 3566 C 339.762 -1.15174 -1.58096 0
M  V30 3567 C 340.142 0.282858 -2.09196 0
M  V30 3568 O 339.49 1.28151 -1.89181 0
M  V30 3569 C 339.7 -2.1907 -2.71679 0
M  V30 3570 C 341.048 -2.53093 -3.40924 0
M  V30 3571 O 342.072 -2.17717 -2.81918 0
M  V30 3572 O 340.931 -3.1379 -4.47435 0
M  V30 3573 H 338.025 -0.445303 -0.696875 0
M  V30 3574 H 340.571 -1.44833 -0.884385 0
M  V30 3575 H 339.343 -3.15443 -2.31541 0
M  V30 3576 H 338.966 -1.90481 -3.49002 0
M  V30 3577 N 339.963 1.05934 -1.16686 0
M  V30 3578 C 341.374 1.60263 -0.957745 0
M  V30 3579 C 341.725 1.89789 0.49745 0
M  V30 3580 O 340.85 1.67401 1.37135 0
M  V30 3581 C 341.445 2.91172 -1.73218 0
M  V30 3582 C 340.004 3.42188 -1.56794 0
M  V30 3583 C 339.151 2.16028 -1.73859 0
M  V30 3584 H 342.102 0.888392 -1.31504 0
M  V30 3585 H 342.123 3.60744 -1.21014 0
M  V30 3586 H 341.635 2.6965 -2.79124 0
M  V30 3587 H 339.736 3.68762 -0.533437 0
M  V30 3588 H 339.849 4.17273 -2.35414 0
M  V30 3589 H 338.213 2.26426 -1.16633 0
M  V30 3590 H 338.996 1.96985 -2.81161 0
M  V30 3591 N 341.441 0.965919 1.2453 0
M  V30 3592 C 342.69 0.622437 1.91856 0
M  V30 3593 C 343.003 -0.846006 1.76358 0
M  V30 3594 O 344.209 -1.29993 2.38357 0
M  V30 3595 C 342.665 1.0626 3.43856 0
M  V30 3596 C 342.273 2.55437 3.68043 0
M  V30 3597 C 344.017 0.792183 4.17043 0
M  V30 3598 C 341.924 2.93196 5.13605 0
M  V30 3599 H 340.854 0.229092 0.718354 0
M  V30 3600 H 343.505 1.17189 1.41206 0
M  V30 3601 H 341.887 0.441476 3.93531 0
M  V30 3602 H 343.061 3.22665 3.28974 0
M  V30 3603 H 341.376 2.8007 3.08139 0
M  V30 3604 H 343.973 1.05031 5.24283 0
M  V30 3605 H 344.316 -0.271584 4.15413 0
M  V30 3606 H 344.849 1.37419 3.73311 0
M  V30 3607 H 341.588 3.98636 5.20355 0
M  V30 3608 H 341.108 2.30651 5.53679 0
M  V30 3609 H 342.787 2.83004 5.81823 0
M  V30 3610 N 342.919 -1.39368 0.735821 0
M  V30 3611 C 344.335 -1.54204 0.411492 0
M  V30 3612 C 344.535 -1.70268 -1.07755 0
M  V30 3613 O 343.591 -1.70364 -1.86366 0
M  V30 3614 C 344.904 -2.75925 1.19523 0
M  V30 3615 C 346.452 -2.89761 1.18354 0
M  V30 3616 C 346.927 -4.14421 1.94986 0
M  V30 3617 N 348.418 -4.21462 1.92156 0
M  V30 3618 C 349.153 -5.16871 2.48258 0
M  V30 3619 N 348.649 -6.18063 3.13001 0
M  V30 3620 N 350.442 -5.09093 2.38287 0
M  V30 3621 H 342.593 -1.27189 1.70108 0
M  V30 3622 H 344.856 -0.616517 0.720147 0
M  V30 3623 H 344.562 -2.70401 2.24892 0
M  V30 3624 H 344.436 -3.68614 0.800222 0
M  V30 3625 H 346.823 -2.94777 0.137975 0
M  V30 3626 H 346.904 -1.98133 1.61793 0
M  V30 3627 H 346.548 -4.10166 2.99543 0
M  V30 3628 H 346.478 -5.05095 1.48953 0
M  V30 3629 H 348.969 -3.48979 1.44991 0
M  V30 3630 H 349.282 -6.87326 3.53275 0
M  V30 3631 H 347.627 -6.18448 3.17091 0
M  V30 3632 H 350.818 -4.28973 1.8735 0
M  V30 3633 H 350.991 -5.83272 2.82308 0
M  V30 3634 N 344.397 -0.483516 -1.5 0
M  V30 3635 C 345.646 0.0689102 -2.01582 0
M  V30 3636 C 345.959 1.39655 -1.36952 0
M  V30 3637 O 347.165 2.03465 -1.79762 0
M  V30 3638 C 345.621 0.173302 -3.59483 0
M  V30 3639 C 345.229 -1.14665 -4.33077 0
M  V30 3640 C 346.973 0.677024 -4.19066 0
M  V30 3641 C 344.88 -1.00537 -5.82792 0
M  V30 3642 H 343.81 0.0295277 -0.753422 0
M  V30 3643 H 346.461 -0.620295 -1.72698 0
M  V30 3644 H 344.843 0.926569 -3.85007 0
M  V30 3645 H 346.017 -1.91184 -4.19268 0
M  V30 3646 H 344.332 -1.58244 -3.85159 0
M  V30 3647 H 346.929 0.799952 -5.28682 0
M  V30 3648 H 347.272 1.67151 -3.81269 0
M  V30 3649 H 347.805 -0.0192083 -3.97795 0
M  V30 3650 H 344.544 -1.9736 -6.25083 0
M  V30 3651 H 344.064 -0.280776 -5.99142 0
M  V30 3652 H 345.743 -0.677 -6.43448 0
M  V30 3653 N 345.875 1.56104 -0.216619 0
M  V30 3654 C 346.805 2.23063 0.690296 0
M  V30 3655 C 347.786 1.20072 1.20485 0
M  V30 3656 O 348.971 1.48643 1.24976 0
M  V30 3657 C 346.101 2.90672 1.90072 0
M  V30 3658 C 345.055 4.00092 1.5202 0
M  V30 3659 C 344.381 4.54972 2.80899 0
M  V30 3660 C 345.681 5.17398 0.71391 0
M  V30 3661 H 347.375 2.99109 0.132038 0
M  V30 3662 H 344.921 1.43866 0.0620664 0
M  V30 3663 H 346.874 3.36204 2.54057 0
M  V30 3664 H 345.598 2.12066 2.48386 0
M  V30 3665 H 344.257 3.55283 0.903839 0
M  V30 3666 H 343.905 3.73102 3.37348 0
M  V30 3667 H 343.605 5.28817 2.56176 0
M  V30 3668 H 345.129 5.0322 3.45836 0
M  V30 3669 H 346.543 5.59342 1.25735 0
M  V30 3670 H 344.94 5.97444 0.563951 0
M  V30 3671 H 346.01 4.84088 -0.280527 0
M  V30 3672 N 347.353 -0.0568162 1.57498 0
M  V30 3673 C 348.599 -0.75422 1.88253 0
M  V30 3674 C 348.932 -1.76461 0.810865 0
M  V30 3675 O 348.207 -1.93691 -0.177259 0
M  V30 3676 C 348.49 -1.44878 3.2967 0
M  V30 3677 C 348.343 -0.453789 4.47505 0
M  V30 3678 C 349.662 -2.38994 3.69554 0
M  V30 3679 H 346.781 -0.272724 0.684683 0
M  V30 3680 H 349.423 -0.0172113 1.89992 0
M  V30 3681 H 347.573 -2.077 3.28318 0
M  V30 3682 H 349.245 0.170371 4.60985 0
M  V30 3683 H 347.488 0.229552 4.33192 0
M  V30 3684 H 348.159 -0.977699 5.43273 0
M  V30 3685 H 350.635 -1.86239 3.72095 0
M  V30 3686 H 349.511 -2.84587 4.69363 0
M  V30 3687 H 349.772 -3.24461 3.00296 0
M  V30 3688 N 348.832 -1.54138 -0.328536 0
M  V30 3689 C 349.779 -1.83176 -1.40411 0
M  V30 3690 C 350.749 -0.678494 -1.5161 0
M  V30 3691 O 351.934 -0.92443 -1.6691 0
M  V30 3692 C 349.074 -2.06035 -2.76846 0
M  V30 3693 C 348.187 -3.33727 -2.74318 0
M  V30 3694 C 347.322 -3.46574 -4.02567 0
M  V30 3695 C 346.361 -4.68159 -3.94327 0
M  V30 3696 N 345.498 -4.77959 -5.14296 0
M  V30 3697 H 350.338 -2.74938 -1.14948 0
M  V30 3698 H 347.875 -1.36166 -0.556538 0
M  V30 3699 H 349.833 -2.1728 -3.56153 0
M  V30 3700 H 348.463 -1.1757 -3.00628 0
M  V30 3701 H 347.515 -3.31246 -1.8703 0
M  V30 3702 H 348.827 -4.23139 -2.64111 0
M  V30 3703 H 347.981 -3.57333 -4.90304 0
M  V30 3704 H 346.72 -2.55245 -4.15574 0
M  V30 3705 H 345.725 -4.57461 -3.04974 0
M  V30 3706 H 346.95 -5.60868 -3.82889 0
M  V30 3707 H 344.896 -3.89544 -5.27818 0
M  V30 3708 H 344.813 -5.6133 -5.06404 0
M  V30 3709 H 346.081 -4.93044 -6.03761 0
M  V30 3710 N 350.31 0.590341 -1.46126 0
M  V30 3711 C 351.257 1.69994 -1.56111 0
M  V30 3712 C 352.227 1.61065 -0.405867 0
M  V30 3713 O 353.412 1.8039 -0.621613 0
M  V30 3714 C 350.552 3.08326 -1.55013 0
M  V30 3715 C 349.665 3.27936 -2.81215 0
M  V30 3716 C 348.8 4.56473 -2.71673 0
M  V30 3717 C 347.839 4.694 -3.92849 0
M  V30 3718 N 346.976 5.89254 -3.81738 0
M  V30 3719 H 351.816 1.60797 -2.50895 0
M  V30 3720 H 349.353 0.783799 -1.24479 0
M  V30 3721 H 351.311 3.88383 -1.52362 0
M  V30 3722 H 349.941 3.16439 -0.637667 0
M  V30 3723 H 348.993 2.41536 -2.93879 0
M  V30 3724 H 350.305 3.33357 -3.71045 0
M  V30 3725 H 349.459 5.44748 -2.67085 0
M  V30 3726 H 348.198 4.53477 -1.7947 0
M  V30 3727 H 347.203 3.79544 -3.97777 0
M  V30 3728 H 348.428 4.7418 -4.86138 0
M  V30 3729 H 346.374 5.87271 -2.92317 0
M  V30 3730 H 346.291 5.95911 -4.65217 0
M  V30 3731 H 347.559 6.79981 -3.81112 0
M  V30 3732 N 351.788 1.33704 0.83433 0
M  V30 3733 C 352.698 1.26382 1.97648 0
M  V30 3734 C 353.714 0.173548 1.73132 0
M  V30 3735 O 354.89 0.397962 1.97429 0
M  V30 3736 C 351.955 1.00769 3.31733 0
M  V30 3737 C 351.016 2.1884 3.69334 0
M  V30 3738 C 350.249 1.9444 4.9702 0
M  V30 3739 O 350.472 0.896961 5.63303 0
M  V30 3740 O 349.406 2.81093 5.32231 0
M  V30 3741 H 353.232 2.22444 2.06767 0
M  V30 3742 H 350.817 1.13795 0.968037 0
M  V30 3743 H 352.699 0.882186 4.12062 0
M  V30 3744 H 351.374 0.0773783 3.23608 0
M  V30 3745 H 350.281 2.36946 2.89495 0
M  V30 3746 H 351.614 3.10221 3.82131 0
M  V30 3747 N 353.266 -1.05314 1.17247 0
M  V30 3748 C 354.176 -2.16538 0.90268 0
M  V30 3749 C 355.192 -1.73523 -0.128707 0
M  V30 3750 O 356.368 -2.01337 0.0502701 0
M  V30 3751 C 353.433 -3.44167 0.418356 0
M  V30 3752 C 352.494 -4.01635 1.51618 0
M  V30 3753 C 351.727 -5.23171 1.05487 0
M  V30 3754 O 351.95 -5.70327 -0.0914715 0
M  V30 3755 O 350.884 -5.72848 1.8474 0
M  V30 3756 H 354.71 -2.42145 1.83302 0
M  V30 3757 H 352.295 -1.15037 0.953246 0
M  V30 3758 H 354.177 -4.21112 0.155726 0
M  V30 3759 H 352.852 -3.20063 -0.48385 0
M  V30 3760 H 351.759 -3.26135 1.83268 0
M  V30 3761 H 353.092 -4.30053 2.39405 0
M  V30 3762 N 354.744 -0.972509 -1.24016 0
M  V30 3763 C 355.674 -0.525548 -2.27509 0
M  V30 3764 C 356.655 0.437262 -1.64384 0
M  V30 3765 O 357.84 0.332343 -1.91335 0
M  V30 3766 C 354.97 0.180448 -3.46831 0
M  V30 3767 C 353.924 -0.698859 -4.22256 0
M  V30 3768 C 353.25 0.138903 -5.3452 0
M  V30 3769 C 354.55 -1.98582 -4.83076 0
M  V30 3770 H 356.244 -1.39058 -2.65148 0
M  V30 3771 H 353.79 -0.67009 -1.27459 0
M  V30 3772 H 355.743 0.504387 -4.18371 0
M  V30 3773 H 354.467 1.07987 -3.08231 0
M  V30 3774 H 353.126 -1.00614 -3.52523 0
M  V30 3775 H 352.774 1.03862 -4.9216 0
M  V30 3776 H 352.474 -0.446259 -5.85903 0
M  V30 3777 H 353.998 0.457404 -6.08884 0
M  V30 3778 H 355.412 -1.72715 -5.46665 0
M  V30 3779 H 353.809 -2.5181 -5.44713 0
M  V30 3780 H 354.879 -2.67769 -4.04262 0
M  V30 3781 N 356.222 1.38976 -0.743202 0
M  V30 3782 C 357.45 2.04636 -0.30525 0
M  V30 3783 C 357.865 1.56044 1.06281 0
M  V30 3784 O 357.222 0.728921 1.67311 0
M  V30 3785 C 357.273 3.60193 -0.307177 0
M  V30 3786 O 356.994 4.06998 -1.62124 0
M  V30 3787 C 358.495 4.4306 0.145928 0
M  V30 3788 H 355.715 0.65788 -0.132041 0
M  V30 3789 H 358.259 1.77866 -1.00915 0
M  V30 3790 H 356.414 3.85835 0.347898 0
M  V30 3791 H 356.828 5.01371 -1.54036 0
M  V30 3792 H 358.302 5.51921 0.0934183 0
M  V30 3793 H 358.779 4.22706 1.19231 0
M  V30 3794 H 359.385 4.22584 -0.479886 0
M  V30 3795 N 357.7 0.491464 1.49741 0
M  V30 3796 C 358.63 -0.28154 2.31796 0
M  V30 3797 C 359.611 -0.971473 1.3963 0
M  V30 3798 O 360.796 -0.964719 1.68543 0
M  V30 3799 C 357.926 -1.35203 3.19902 0
M  V30 3800 C 356.88 -0.782529 4.20786 0
M  V30 3801 C 356.206 -1.95283 4.97764 0
M  V30 3802 C 357.506 0.21999 5.21837 0
M  V30 3803 H 359.2 0.403355 2.96671 0
M  V30 3804 H 356.746 0.195425 1.42668 0
M  V30 3805 H 358.699 -1.90045 3.76113 0
M  V30 3806 H 357.423 -2.06598 2.52953 0
M  V30 3807 H 356.082 -0.255928 3.65706 0
M  V30 3808 H 355.73 -2.65423 4.2727 0
M  V30 3809 H 355.43 -1.57789 5.66018 0
M  V30 3810 H 356.954 -2.50577 5.56816 0
M  V30 3811 H 358.368 -0.23996 5.72798 0
M  V30 3812 H 356.765 0.51026 5.97927 0
M  V30 3813 H 357.835 1.13911 4.7133 0
M  V30 3814 N 359.178 -1.55987 0.224894 0
M  V30 3815 C 360.088 -2.24066 -0.69511 0
M  V30 3816 C 361.104 -1.24939 -1.21104 0
M  V30 3817 O 362.28 -1.5776 -1.25195 0
M  V30 3818 C 359.345 -2.90983 -1.88493 0
M  V30 3819 C 358.406 -4.05462 -1.41064 0
M  V30 3820 C 357.639 -4.69179 -2.54375 0
M  V30 3821 O 357.862 -4.31895 -3.72589 0
M  V30 3822 O 356.796 -5.58108 -2.25386 0
M  V30 3823 H 360.622 -3.03353 -0.145149 0
M  V30 3824 H 358.207 -1.49399 -0.00569476 0
M  V30 3825 H 360.089 -3.33209 -2.57972 0
M  V30 3826 H 358.764 -2.14653 -2.42293 0
M  V30 3827 H 357.671 -3.67798 -0.683774 0
M  V30 3828 H 359.004 -4.83545 -0.918985 0
M  V30 3829 N 360.656 0.0484629 -1.57525 0
M  V30 3830 C 361.904 0.741657 -1.88 0
M  V30 3831 C 362.225 1.76918 -0.820054 0
M  V30 3832 O 361.495 1.95335 0.148661 0
M  V30 3833 H 360.075 0.276908 -0.69378 0
M  V30 3834 H 362.737 0.019013 -1.94891 0
M  V30 3835 H 361.833 1.24336 -2.86264 0
M  V30 3836 N 362.134 1.5431 0.320358 0
M  V30 3837 C 363.383 1.7188 1.05546 0
M  V30 3838 C 363.696 0.501143 1.89071 0
M  V30 3839 O 364.902 0.558258 2.65699 0
M  V30 3840 C 363.358 3.04025 1.92605 0
M  V30 3841 C 362.966 4.33207 1.14176 0
M  V30 3842 C 364.71 3.30959 2.65832 0
M  V30 3843 C 362.617 5.56412 2.00399 0
M  V30 3844 H 361.547 0.640547 0.397763 0
M  V30 3845 H 364.198 1.80802 0.313522 0
M  V30 3846 H 362.58 2.89019 2.7071 0
M  V30 3847 H 363.754 4.58989 0.40819 0
M  V30 3848 H 362.069 4.13062 0.526165 0
M  V30 3849 H 364.666 4.20203 3.30656 0
M  V30 3850 H 365.009 2.48979 3.33639 0
M  V30 3851 H 365.542 3.46847 1.94787 0
M  V30 3852 H 362.281 6.41004 1.37094 0
M  V30 3853 H 361.801 5.34844 2.7148 0
M  V30 3854 H 363.48 5.92938 2.58908 0
M  V30 3855 N 363.613 -0.582584 1.46437 0
M  V30 3856 C 365.029 -0.905962 1.31394 0
M  V30 3857 C 365.229 -1.99468 0.285476 0
M  V30 3858 O 364.285 -2.50566 -0.311914 0
M  V30 3859 C 365.598 -1.3232 2.70022 0
M  V30 3860 C 367.146 -1.43604 2.78113 0
M  V30 3861 C 367.621 -1.88694 4.17323 0
M  V30 3862 N 369.112 -1.95887 4.19741 0
M  V30 3863 C 369.847 -2.32051 5.24347 0
M  V30 3864 N 369.343 -2.67006 6.39281 0
M  V30 3865 N 371.136 -2.32606 5.11713 0
M  V30 3866 H 363.287 0.1366 2.1196 0
M  V30 3867 H 365.55 -0.00155736 0.947999 0
M  V30 3868 H 365.256 -0.597242 3.46592 0
M  V30 3869 H 365.13 -2.28469 3.00136 0
M  V30 3870 H 367.517 -2.15286 2.01832 0
M  V30 3871 H 367.598 -0.457059 2.51684 0
M  V30 3872 H 367.242 -1.1759 4.941 0
M  V30 3873 H 367.172 -2.8755 4.4116 0
M  V30 3874 H 369.663 -1.71362 3.36814 0
M  V30 3875 H 369.976 -2.93554 7.14875 0
M  V30 3876 H 368.321 -2.64644 6.42642 0
M  V30 3877 H 371.512 -2.04721 4.2096 0
M  V30 3878 H 371.685 -2.60462 5.93349 0
M  V30 3879 N 365.091 -1.34144 -0.827227 0
M  V30 3880 C 366.023 -1.21206 -1.9453 0
M  V30 3881 C 367.036 -0.140176 -1.62195 0
M  V30 3882 O 368.225 -0.391647 -1.7415 0
M  V30 3883 C 365.325 -0.839141 -3.28347 0
M  V30 3884 C 364.498 -2.0051 -3.88734 0
M  V30 3885 C 363.557 -1.61128 -5.00923 0
M  V30 3886 O 362.583 -2.32726 -5.19449 0
M  V30 3887 N 363.785 -0.522958 -5.7814 0
M  V30 3888 H 366.55 -2.17525 -2.06162 0
M  V30 3889 H 364.111 -1.27043 -1.00358 0
M  V30 3890 H 366.103 -0.557556 -4.00841 0
M  V30 3891 H 364.673 0.0337293 -3.12582 0
M  V30 3892 H 363.893 -2.45166 -3.08686 0
M  V30 3893 H 365.181 -2.78498 -4.25812 0
M  V30 3894 H 364.579 0.0723518 -5.65654 0
M  V30 3895 H 363.136 -0.301089 -6.51104 0
M  V30 3896 N 366.569 1.04691 -1.17803 0
M  V30 3897 C 367.816 1.77782 -0.969532 0
M  V30 3898 C 368.144 1.87926 0.501401 0
M  V30 3899 O 367.399 1.37918 1.38842 0
M  V30 3900 C 367.698 3.21467 -1.56186 0
M  V30 3901 C 367.364 3.3137 -3.05786 0
M  V30 3902 C 366.026 3.3378 -3.46619 0
M  V30 3903 C 368.378 3.31976 -4.01797 0
M  V30 3904 C 365.706 3.34431 -4.82051 0
M  V30 3905 C 368.058 3.34167 -5.37136 0
M  V30 3906 C 366.722 3.34866 -5.77426 0
M  V30 3907 H 365.992 0.650549 -0.354777 0
M  V30 3908 H 368.639 1.23006 -1.46772 0
M  V30 3909 H 366.944 3.79203 -0.985515 0
M  V30 3910 H 368.641 3.76652 -1.37602 0
M  V30 3911 H 365.231 3.3021 -2.73238 0
M  V30 3912 H 369.415 3.29311 -3.71306 0
M  V30 3913 H 364.671 3.33285 -5.12573 0
M  V30 3914 H 368.845 3.33585 -6.11305 0
M  V30 3915 H 366.472 3.35124 -6.82346 0
M  V30 3916 N 368.047 0.979072 1.23499 0
M  V30 3917 C 369.277 0.664237 1.95631 0
M  V30 3918 C 369.685 -0.772653 1.72704 0
M  V30 3919 O 369.028 -1.53141 1.01457 0
M  V30 3920 C 369.09 0.873115 3.48736 0
M  V30 3921 C 368.754 2.29182 3.95379 0
M  V30 3922 C 369.751 3.2704 4.04155 0
M  V30 3923 C 367.436 2.62256 4.28401 0
M  V30 3924 C 369.43 4.56052 4.45304 0
M  V30 3925 C 367.117 3.91491 4.69231 0
M  V30 3926 C 368.115 4.88201 4.77649 0
M  V30 3927 O 367.803 6.15129 5.17563 0
M  V30 3928 H 367.535 0.245915 0.629684 0
M  V30 3929 H 370.089 1.3127 1.57979 0
M  V30 3930 H 368.319 0.167476 3.86337 0
M  V30 3931 H 370.008 0.555642 4.02079 0
M  V30 3932 H 370.774 3.02819 3.78848 0
M  V30 3933 H 366.653 1.87692 4.21061 0
M  V30 3934 H 370.197 5.31538 4.51789 0
M  V30 3935 H 366.094 4.15508 4.93987 0
M  V30 3936 H 366.862 6.18862 5.35679 0
M  V30 3937 N 369.525 -1.3858 0.750561 0
M  V30 3938 C 370.774 -1.99424 0.302172 0
M  V30 3939 C 371.087 -1.60254 -1.12152 0
M  V30 3940 O 372.293 -2.14046 -1.67023 0
M  V30 3941 C 370.749 -3.56558 0.489307 0
M  V30 3942 C 370.357 -4.04682 1.92189 0
M  V30 3943 C 372.101 -4.24374 0.103478 0
M  V30 3944 C 370.008 -5.54446 2.05775 0
M  V30 3945 H 368.938 -0.746046 0.10923 0
M  V30 3946 H 371.589 -1.58383 0.92667 0
M  V30 3947 H 369.971 -3.95472 -0.204329 0
M  V30 3948 H 371.145 -3.77065 2.64875 0
M  V30 3949 H 369.46 -3.4958 2.26236 0
M  V30 3950 H 372.057 -5.34384 0.183787 0
M  V30 3951 H 372.4 -4.05468 -0.943481 0
M  V30 3952 H 372.933 -3.90688 0.748854 0
M  V30 3953 H 369.672 -5.78252 3.08714 0
M  V30 3954 H 369.192 -5.83816 1.37546 0
M  V30 3955 H 370.871 -6.20099 1.84626 0
M  V30 3956 N 371.003 -0.499398 -1.49478 0
M  V30 3957 C 371.951 0.293604 -2.3074 0
M  V30 3958 C 372.945 0.96427 -1.39277 0
M  V30 3959 O 374.151 0.892141 -1.56336 0
M  V30 3960 H 370.526 0.113541 -0.743379 0
M  V30 3961 H 372.497 -0.411772 -2.95545 0
M  V30 3962 C 371.246 1.3462 -3.20582 0
M  V30 3963 H 370.569 0.83954 -3.90886 0
M  V30 3964 H 372.009 1.87308 -3.80384 0
M  V30 3965 C 370.468 2.36351 -2.40083 0
M  V30 3966 O 370.998 3.422 -2.10385 0
M  V30 3967 N 369.204 2.0878 -2.02137 0
M  V30 3968 H 368.751 1.22723 -2.26488 0
M  V30 3969 H 368.709 2.77075 -1.48583 0
M  V30 3970 N 372.481 1.55866 -0.233164 0
M  V30 3971 C 373.727 1.98897 0.395959 0
M  V30 3972 C 374.06 1.12091 1.58585 0
M  V30 3973 O 373.335 0.181182 1.93654 0
M  V30 3974 C 373.618 3.50658 0.819224 0
M  V30 3975 C 373.471 4.48233 -0.375109 0
M  V30 3976 C 374.79 4.07135 1.67121 0
M  V30 3977 H 371.909 0.723102 0.142451 0
M  V30 3978 H 374.551 1.87082 -0.331725 0
M  V30 3979 H 372.701 3.60857 1.43925 0
M  V30 3980 H 374.373 4.50031 -1.01341 0
M  V30 3981 H 372.616 4.21624 -1.02058 0
M  V30 3982 H 373.287 5.51988 -0.0358328 0
M  V30 3983 H 375.763 3.99952 1.14795 0
M  V30 3984 H 374.639 5.13615 1.93625 0
M  V30 3985 H 374.9 3.54736 2.63846 0
M  V30 3986 N 373.959 -0.0401083 1.57549 0
M  V30 3987 C 374.869 -1.06133 2.0922 0
M  V30 3988 C 375.885 -1.40356 1.0284 0
M  V30 3989 O 377.061 -1.49897 1.34509 0
M  V30 3990 C 374.126 -2.34658 2.55218 0
M  V30 3991 C 373.187 -2.07117 3.76033 0
M  V30 3992 C 372.42 -3.29514 4.19829 0
M  V30 3993 O 372.643 -4.39794 3.63232 0
M  V30 3994 O 371.577 -3.15863 5.12362 0
M  V30 3995 H 375.403 -0.652244 2.96613 0
M  V30 3996 H 372.988 -0.256368 1.47184 0
M  V30 3997 H 374.87 -3.10239 2.85184 0
M  V30 3998 H 373.545 -2.74883 1.70941 0
M  V30 3999 H 372.452 -1.29139 3.51104 0
M  V30 4000 H 373.785 -1.71754 4.61261 0
M  V30 4001 N 375.437 -1.54477 -0.31217 0
M  V30 4002 C 376.853 -1.45442 -0.657185 0
M  V30 4003 C 377.053 -0.63653 -1.91182 0
M  V30 4004 O 376.109 -0.139815 -2.52113 0
M  V30 4005 C 377.422 -2.89287 -0.82058 0
M  V30 4006 C 378.97 -2.9926 -0.917188 0
M  V30 4007 C 379.445 -4.44279 -1.11267 0
M  V30 4008 N 380.936 -4.4794 -1.17914 0
M  V30 4009 C 381.671 -5.57318 -1.34848 0
M  V30 4010 N 381.167 -6.76642 -1.48752 0
M  V30 4011 N 382.96 -5.44986 -1.37647 0
M  V30 4012 H 375.111 -2.06129 0.512313 0
M  V30 4013 H 377.374 -0.933088 0.167485 0
M  V30 4014 H 377.08 -3.51687 0.0302604 0
M  V30 4015 H 376.954 -3.36061 -1.71298 0
M  V30 4016 H 379.341 -2.36981 -1.75852 0
M  V30 4017 H 379.422 -2.558 -0.00101257 0
M  V30 4018 H 379.066 -5.07149 -0.27614 0
M  V30 4019 H 378.996 -4.85359 -2.04289 0
M  V30 4020 H 381.487 -3.61969 -1.08567 0
M  V30 4021 H 381.8 -7.55758 -1.61397 0
M  V30 4022 H 380.145 -6.79529 -1.45828 0
M  V30 4023 H 383.336 -4.50715 -1.26388 0
M  V30 4024 H 383.509 -6.3028 -1.50501 0
M  V30 4025 N 376.915 0.57481 -1.46744 0
M  V30 4026 C 377.825 1.711 -1.60505 0
M  V30 4027 C 378.841 1.67008 -0.488307 0
M  V30 4028 O 380.017 1.86774 -0.753495 0
M  V30 4029 C 377.082 3.07608 -1.59932 0
M  V30 4030 C 376.143 3.22904 -2.82898 0
M  V30 4031 C 375.376 4.529 -2.82343 0
M  V30 4032 O 375.599 5.37278 -1.91542 0
M  V30 4033 O 374.533 4.71611 -3.73987 0
M  V30 4034 H 378.359 1.62436 -2.56609 0
M  V30 4035 H 375.944 0.742779 -1.29627 0
M  V30 4036 H 377.826 3.88877 -1.62336 0
M  V30 4037 H 376.501 3.16692 -0.669898 0
M  V30 4038 H 375.408 2.41099 -2.86046 0
M  V30 4039 H 376.741 3.18715 -3.75076 0
M  V30 4040 N 378.394 1.34581 0.820102 0
M  V30 4041 C 379.304 1.28471 1.96297 0
M  V30 4042 C 380.32 0.191902 1.72939 0
M  V30 4043 O 381.496 0.418879 1.96996 0
M  V30 4044 C 378.561 1.04281 3.30645 0
M  V30 4045 C 377.622 2.22745 3.66992 0
M  V30 4046 C 376.855 1.997 4.9493 0
M  V30 4047 O 377.078 0.956656 5.6232 0
M  V30 4048 O 376.012 2.86723 5.2922 0
M  V30 4049 H 379.838 2.24624 2.04396 0
M  V30 4050 H 377.423 1.14816 0.955913 0
M  V30 4051 H 379.305 0.925841 4.11104 0
M  V30 4052 H 377.98 0.111697 3.23507 0
M  V30 4053 H 376.887 2.40003 2.86966 0
M  V30 4054 H 378.22 3.14257 3.78819 0
M  V30 4055 N 379.872 -1.04064 1.18357 0
M  V30 4056 C 381.118 -1.77658 0.990412 0
M  V30 4057 C 381.473 -1.86446 -0.474944 0
M  V30 4058 O 380.766 -1.36153 -1.34807 0
M  V30 4059 C 380.96 -3.20634 1.57888 0
M  V30 4060 C 380.789 -3.25782 3.09994 0
M  V30 4061 C 379.559 -3.34411 3.7881 0
M  V30 4062 C 381.757 -3.13791 4.0748 0
M  V30 4063 N 379.739 -3.28809 5.18418 0
M  V30 4064 C 381.11 -3.15689 5.33611 0
M  V30 4065 C 383.165 -2.97833 3.98998 0
M  V30 4066 C 381.868 -3.03268 6.52243 0
M  V30 4067 C 383.894 -2.86759 5.17227 0
M  V30 4068 C 383.256 -2.893 6.4225 0
M  V30 4069 H 379.355 -0.661901 0.416427 0
M  V30 4070 H 381.939 -1.23968 1.50133 0
M  V30 4071 H 380.11 -3.7267 1.09414 0
M  V30 4072 H 381.842 -3.82525 1.32124 0
M  V30 4073 H 378.597 -3.40144 3.29543 0
M  V30 4074 H 379.021 -3.29448 5.91433 0
M  V30 4075 H 383.663 -2.94698 3.03171 0
M  V30 4076 H 381.381 -3.05156 7.48268 0
M  V30 4077 H 384.967 -2.75465 5.12455 0
M  V30 4078 H 383.847 -2.80818 7.32196 0
M  V30 4079 N 381.35 -0.985608 -1.22978 0
M  V30 4080 C 382.297 -0.529825 -2.24636 0
M  V30 4081 C 383.267 0.434028 -1.60329 0
M  V30 4082 O 384.452 0.340414 -1.87739 0
M  V30 4083 C 381.592 0.156533 -3.44745 0
M  V30 4084 C 380.705 -0.848197 -4.23591 0
M  V30 4085 C 379.84 -0.136109 -5.31026 0
M  V30 4086 C 378.879 -1.1297 -6.01585 0
M  V30 4087 N 378.016 -0.446415 -7.00679 0
M  V30 4088 H 382.856 -1.40148 -2.62988 0
M  V30 4089 H 380.393 -0.702168 -1.29259 0
M  V30 4090 H 382.351 0.571324 -4.1327 0
M  V30 4091 H 380.981 0.992025 -3.07179 0
M  V30 4092 H 380.033 -1.38135 -3.54433 0
M  V30 4093 H 381.345 -1.60512 -4.72268 0
M  V30 4094 H 380.499 0.335784 -6.0577 0
M  V30 4095 H 379.238 0.653373 -4.83304 0
M  V30 4096 H 378.243 -1.6123 -5.25628 0
M  V30 4097 H 379.468 -1.91993 -6.51395 0
M  V30 4098 H 377.414 0.323763 -6.55201 0
M  V30 4099 H 377.331 -1.1419 -7.47326 0
M  V30 4100 H 378.599 0.00291697 -7.795 0
M  V30 4101 N 382.828 1.3818 -0.7579 0
M  V30 4102 C 383.758 2.33027 -0.148597 0
M  V30 4103 C 384.739 1.55085 0.69875 0
M  V30 4104 O 385.924 1.83384 0.639053 0
M  V30 4105 C 383.054 3.3928 0.742034 0
M  V30 4106 C 382.008 4.28 -0.00291946 0
M  V30 4107 C 381.334 5.25146 1.00625 0
M  V30 4108 C 382.634 5.08938 -1.17385 0
M  V30 4109 H 384.328 2.84231 -0.940909 0
M  V30 4110 H 381.874 1.36659 -0.453908 0
M  V30 4111 H 383.827 4.046 1.17799 0
M  V30 4112 H 382.551 2.86569 1.56671 0
M  V30 4113 H 381.21 3.64192 -0.419504 0
M  V30 4114 H 380.858 4.68721 1.8251 0
M  V30 4115 H 380.558 5.85361 0.512428 0
M  V30 4116 H 382.082 5.93342 1.44143 0
M  V30 4117 H 383.496 5.67474 -0.815224 0
M  V30 4118 H 381.893 5.7841 -1.59882 0
M  V30 4119 H 382.963 4.42424 -1.98468 0
M  V30 4120 N 384.306 0.507319 1.49211 0
M  V30 4121 C 385.583 -0.0982702 1.95353 0
M  V30 4122 C 385.963 -1.53516 1.449 0
M  V30 4123 O 385.311 -2.18594 0.66551 0
M  V30 4124 C 385.521 -0.00440283 3.49 0
M  V30 4125 C 386.869 -0.175147 4.24239 0
M  V30 4126 O 387.893 -0.0792891 3.56112 0
M  V30 4127 O 386.752 -0.37276 5.45227 0
M  V30 4128 H 383.846 -0.0918236 0.821887 0
M  V30 4129 H 386.392 0.570307 1.5983 0
M  V30 4130 H 385.164 0.997402 3.78375 0
M  V30 4131 H 384.787 -0.712845 3.91158 0
M  V30 4132 N 385.784 -1.5574 0.241426 0
M  V30 4133 C 387.012 -2.03208 -0.389134 0
M  V30 4134 C 387.427 -1.12082 -1.51931 0
M  V30 4135 O 386.784 -0.134183 -1.82006 0
M  V30 4136 C 386.835 -3.50064 -0.902087 0
M  V30 4137 O 386.556 -4.37717 0.18305 0
M  V30 4138 C 388.057 -4.13268 -1.60389 0
M  V30 4139 H 385.277 -0.664509 -0.0931053 0
M  V30 4140 H 387.821 -2.0124 0.36369 0
M  V30 4141 H 385.976 -3.52583 -1.60511 0
M  V30 4142 H 386.39 -5.24097 -0.205579 0
M  V30 4143 H 387.864 -5.17733 -1.91458 0
M  V30 4144 H 388.341 -3.59434 -2.52397 0
M  V30 4145 H 388.947 -4.14655 -0.945576 0
M  V30 4146 N 387.262 0.0317525 -1.57568 0
M  V30 4147 C 388.192 1.03274 -2.0942 0
M  V30 4148 C 389.173 1.3788 -0.996143 0
M  V30 4149 O 390.358 1.46811 -1.27122 0
M  V30 4150 C 387.488 2.33448 -2.57137 0
M  V30 4151 C 386.442 2.13091 -3.71182 0
M  V30 4152 C 385.768 3.49001 -4.05095 0
M  V30 4153 C 387.068 1.51928 -4.99715 0
M  V30 4154 H 388.762 0.60112 -2.93303 0
M  V30 4155 H 386.308 0.287705 -1.41097 0
M  V30 4156 H 388.261 3.03802 -2.92032 0
M  V30 4157 H 386.985 2.78665 -1.70333 0
M  V30 4158 H 385.644 1.45171 -3.36632 0
M  V30 4159 H 385.292 3.91862 -3.15362 0
M  V30 4160 H 384.992 3.36207 -4.81911 0
M  V30 4161 H 386.516 4.20721 -4.42522 0
M  V30 4162 H 387.93 2.12196 -5.32584 0
M  V30 4163 H 386.327 1.49716 -5.81124 0
M  V30 4164 H 387.397 0.484811 -4.8247 0
M  V30 4165 N 388.74 1.54641 0.303973 0
M  V30 4166 C 389.98 1.75516 1.04755 0
M  V30 4167 C 390.344 0.528211 1.84591 0
M  V30 4168 O 391.545 0.614645 2.61678 0
M  V30 4169 C 389.816 3.00685 1.93193 0
M  V30 4170 S 391.375 3.42549 2.74237 0
M  V30 4171 H 388.193 0.616987 0.353339 0
M  V30 4172 H 390.795 1.92842 0.321292 0
M  V30 4173 H 389.499 3.8811 1.33411 0
M  V30 4174 H 389.03 2.85937 2.70191 0
M  V30 4175 H 391.045 2.99386 3.95705 0
M  V30 4176 N 390.218 -0.567019 1.47046 0
M  V30 4177 C 391.495 -1.3276 1.43646 0
M  V30 4178 C 391.875 -2.1071 0.128186 0
M  V30 4179 O 391.223 -2.10441 -0.890326 0
M  V30 4180 C 391.433 -2.2404 2.67595 0
M  V30 4181 C 392.781 -2.85372 3.14401 0
M  V30 4182 O 393.805 -2.34346 2.68254 0
M  V30 4183 O 392.664 -3.78091 3.946 0
M  V30 4184 H 389.758 -0.597293 0.571988 0
M  V30 4185 H 392.304 -0.586735 1.59234 0
M  V30 4186 H 391.076 -1.65975 3.54356 0
M  V30 4187 H 390.699 -3.05439 2.54544 0
M  V30 4188 N 391.696 -1.35014 -0.812953 0
M  V30 4189 C 392.626 -1.30069 -1.93919 0
M  V30 4190 C 393.607 -0.176275 -1.69184 0
M  V30 4191 O 394.792 -0.370227 -1.90638 0
M  V30 4192 C 391.922 -1.06547 -3.30552 0
M  V30 4193 C 390.876 -2.15561 -3.69753 0
M  V30 4194 C 390.202 -1.77214 -5.04479 0
M  V30 4195 C 391.502 -3.57476 -3.808 0
M  V30 4196 H 393.196 -2.24303 -1.98314 0
M  V30 4197 H 390.742 -1.07977 -0.952736 0
M  V30 4198 H 392.695 -1.01729 -4.08937 0
M  V30 4199 H 391.419 -0.0875719 -3.26483 0
M  V30 4200 H 390.078 -2.19466 -2.9365 0
M  V30 4201 H 389.726 -0.780589 -4.96906 0
M  V30 4202 H 389.426 -2.50184 -5.31678 0
M  V30 4203 H 390.95 -1.7391 -5.8531 0
M  V30 4204 H 392.364 -3.55929 -4.4943 0
M  V30 4205 H 390.761 -4.29152 -4.19462 0
M  V30 4206 H 391.831 -3.94091 -2.82525 0
M  V30 4207 N 393.175 1.03435 -1.18907 0
M  V30 4208 C 394.405 1.8012 -1.01195 0
M  V30 4209 C 394.813 1.8395 0.442613 0
M  V30 4210 O 394.156 1.27836 1.31923 0
M  V30 4211 C 394.218 3.26792 -1.49823 0
M  V30 4212 C 393.882 3.46609 -2.97844 0
M  V30 4213 C 394.879 3.37278 -3.95651 0
M  V30 4214 C 392.564 3.73001 -3.36416 0
M  V30 4215 C 394.558 3.54054 -5.30023 0
M  V30 4216 C 392.245 3.89423 -4.70949 0
M  V30 4217 C 393.243 3.79951 -5.67562 0
M  V30 4218 O 392.931 3.95895 -6.99659 0
M  V30 4219 H 392.663 0.573865 -0.357289 0
M  V30 4220 H 395.217 1.31207 -1.58031 0
M  V30 4221 H 393.447 3.76703 -0.873578 0
M  V30 4222 H 395.136 3.85055 -1.28404 0
M  V30 4223 H 395.902 3.16846 -3.67197 0
M  V30 4224 H 391.781 3.79469 -2.61772 0
M  V30 4225 H 395.325 3.46577 -6.05417 0
M  V30 4226 H 391.222 4.09351 -4.99101 0
M  V30 4227 H 391.99 4.13019 -7.06653 0
M  V30 4228 N 394.653 0.992116 1.22453 0
M  V30 4229 C 395.563 0.55065 2.28046 0
M  V30 4230 C 396.579 -0.400189 1.69335 0
M  V30 4231 O 397.755 -0.267215 1.99619 0
M  V30 4232 C 394.82 -0.128496 3.46462 0
M  V30 4233 C 393.881 0.865208 4.20491 0
M  V30 4234 C 393.114 0.218377 5.33253 0
M  V30 4235 O 393.337 -0.987894 5.6178 0
M  V30 4236 O 392.271 0.922845 5.94783 0
M  V30 4237 H 396.097 1.4291 2.67975 0
M  V30 4238 H 393.682 0.760326 1.28606 0
M  V30 4239 H 395.564 -0.508947 4.18315 0
M  V30 4240 H 394.239 -0.981526 3.0846 0
M  V30 4241 H 393.146 1.29658 3.50913 0
M  V30 4242 H 394.479 1.68741 4.62371 0
M  V30 4243 N 396.131 -1.37776 0.765217 0
M  V30 4244 C 397.359 -2.04124 0.337767 0
M  V30 4245 C 397.774 -1.57715 -1.03785 0
M  V30 4246 O 397.131 -0.755447 -1.6613 0
M  V30 4247 C 397.182 -3.59658 0.364442 0
M  V30 4248 O 396.903 -4.04367 1.68579 0
M  V30 4249 C 398.404 -4.43236 -0.0754221 0
M  V30 4250 H 395.624 -0.655696 0.142491 0
M  V30 4251 H 398.168 -1.76238 1.03732 0
M  V30 4252 H 396.323 -3.86339 -0.286471 0
M  V30 4253 H 396.737 -4.98857 1.61993 0
M  V30 4254 H 398.211 -5.52 -0.00560067 0
M  V30 4255 H 398.688 -4.2455 -1.12491 0
M  V30 4256 H 399.294 -4.21767 0.547055 0
M  V30 4257 N 397.609 -0.515225 -1.4894 0
M  V30 4258 C 398.539 0.244628 -2.32215 0
M  V30 4259 C 399.52 0.949136 -1.41157 0
M  V30 4260 O 400.705 0.937783 -1.70057 0
M  V30 4261 C 397.835 1.30096 -3.22013 0
M  V30 4262 C 396.789 0.715486 -4.21977 0
M  V30 4263 C 396.115 1.87339 -5.00808 0
M  V30 4264 C 397.415 -0.302982 -5.2142 0
M  V30 4265 H 399.109 -0.450501 -2.95991 0
M  V30 4266 H 396.655 -0.218098 -1.42339 0
M  V30 4267 H 398.608 1.84037 -3.79089 0
M  V30 4268 H 397.332 2.02547 -2.56207 0
M  V30 4269 H 395.991 0.197715 -3.66066 0
M  V30 4270 H 395.639 2.58592 -4.31438 0
M  V30 4271 H 395.339 1.48764 -5.68457 0
M  V30 4272 H 396.863 2.41686 -5.60732 0
M  V30 4273 H 398.277 0.148802 -5.73107 0
M  V30 4274 H 396.674 -0.60532 -5.97039 0
M  V30 4275 H 397.744 -1.21395 -4.69459 0
M  V30 4276 N 399.087 1.5561 -0.249682 0
M  V30 4277 C 400.315 2.03411 0.378352 0
M  V30 4278 C 400.73 1.12886 1.51335 0
M  V30 4279 O 400.087 0.143833 1.81932 0
M  V30 4280 C 400.138 3.50537 0.88351 0
M  V30 4281 O 399.859 4.37614 -0.20626 0
M  V30 4282 C 401.36 4.14113 1.58195 0
M  V30 4283 H 398.58 0.664994 0.08958 0
M  V30 4284 H 401.124 2.01044 -0.374357 0
M  V30 4285 H 399.279 3.5343 1.58639 0
M  V30 4286 H 399.693 5.24199 0.177782 0
M  V30 4287 H 401.167 5.18741 1.8871 0
M  V30 4288 H 401.644 3.60767 2.50487 0
M  V30 4289 H 402.25 4.15151 0.923573 0
M  V30 4290 N 400.565 -0.0233959 1.57583 0
M  V30 4291 C 401.814 -0.712133 1.8871 0
M  V30 4292 C 402.127 -1.76217 0.848944 0
M  V30 4293 O 403.333 -2.50389 1.04964 0
M  V30 4294 C 401.789 -1.3177 3.3491 0
M  V30 4295 C 401.397 -0.303715 4.46969 0
M  V30 4296 C 403.141 -1.98598 3.75179 0
M  V30 4297 C 401.048 -0.917945 5.84233 0
M  V30 4298 H 399.978 -0.269735 0.704101 0
M  V30 4299 H 402.629 0.0333114 1.8347 0
M  V30 4300 H 401.011 -2.11304 3.34913 0
M  V30 4301 H 402.185 0.465325 4.58445 0
M  V30 4302 H 400.5 0.2628 4.1557 0
M  V30 4303 H 403.097 -2.45416 4.75053 0
M  V30 4304 H 403.44 -2.80659 3.07468 0
M  V30 4305 H 403.973 -1.25831 3.77374 0
M  V30 4306 H 400.712 -0.136633 6.55358 0
M  V30 4307 H 400.232 -1.65669 5.76467 0
M  V30 4308 H 401.911 -1.4236 6.31144 0
M  V30 4309 N 402.043 -1.548 -0.295768 0
M  V30 4310 C 403.271 -1.78327 -1.04914 0
M  V30 4311 C 403.686 -0.545316 -1.80753 0
M  V30 4312 O 403.043 0.485013 -1.75937 0
M  V30 4313 C 403.094 -2.99418 -2.02561 0
M  V30 4314 O 402.815 -4.18431 -1.29798 0
M  V30 4315 C 404.316 -3.35375 -2.89895 0
M  V30 4316 H 401.536 -0.594618 -0.310918 0
M  V30 4317 H 404.08 -2.01763 -0.333454 0
M  V30 4318 H 402.235 -2.78175 -2.69624 0
M  V30 4319 H 402.649 -4.86736 -1.95419 0
M  V30 4320 H 404.123 -4.23332 -3.54251 0
M  V30 4321 H 404.6 -2.53761 -3.58472 0
M  V30 4322 H 405.206 -3.58796 -2.28355 0
M  V30 4323 N 403.521 0.559213 -1.47345 0
M  V30 4324 C 404.453 1.68161 -1.55738 0
M  V30 4325 C 405.466 1.56636 -0.443744 0
M  V30 4326 O 406.655 1.6363 -0.713258 0
M  V30 4327 C 403.755 3.06611 -1.4437 0
M  V30 4328 C 402.928 3.4391 -2.70268 0
M  V30 4329 C 401.987 4.61515 -2.52765 0
M  V30 4330 O 401.013 4.66197 -3.26572 0
M  V30 4331 N 402.215 5.57883 -1.6046 0
M  V30 4332 H 404.98 1.61408 -2.52522 0
M  V30 4333 H 402.541 0.7458 -1.43699 0
M  V30 4334 H 404.533 3.83117 -1.30398 0
M  V30 4335 H 403.103 3.07602 -0.556766 0
M  V30 4336 H 402.323 2.56873 -2.99015 0
M  V30 4337 H 403.611 3.65605 -3.53851 0
M  V30 4338 H 403.009 5.56855 -0.996422 0
M  V30 4339 H 401.566 6.33723 -1.52441 0
M  V30 4340 N 404.999 1.35443 0.805782 0
M  V30 4341 C 405.962 1.28301 1.89925 0
M  V30 4342 C 406.962 0.194285 1.59622 0
M  V30 4343 O 408.152 0.448036 1.6834 0
M  V30 4344 C 405.284 0.984997 3.2636 0
M  V30 4345 H 406.477 2.2553 1.97677 0
M  V30 4346 H 404.03 1.19979 1.00173 0
M  V30 4347 H 404.765 0.016603 3.24296 0
M  V30 4348 H 404.55 1.77269 3.4974 0
M  V30 4349 H 406.04 0.960651 4.064 0
M  V30 4350 N 406.477 -1.02803 1.19454 0
M  V30 4351 C 407.723 -1.76478 0.999171 0
M  V30 4352 C 408.056 -1.88456 -0.468828 0
M  V30 4353 O 407.331 -1.40198 -1.34814 0
M  V30 4354 C 407.614 -3.19044 1.66981 0
M  V30 4355 C 407.467 -3.14932 3.21151 0
M  V30 4356 C 408.786 -4.17456 1.39349 0
M  V30 4357 H 405.905 -0.640614 0.364393 0
M  V30 4358 H 408.547 -1.20005 1.47305 0
M  V30 4359 H 406.697 -3.67263 1.2669 0
M  V30 4360 H 408.369 -2.74605 3.70661 0
M  V30 4361 H 406.612 -2.52625 3.52652 0
M  V30 4362 H 407.283 -4.1566 3.63223 0
M  V30 4363 H 409.759 -3.77842 1.74283 0
M  V30 4364 H 408.635 -5.154 1.88823 0
M  V30 4365 H 408.896 -4.40949 0.318813 0
M  V30 4366 N 407.956 -0.998596 -1.21925 0
M  V30 4367 C 409.205 -0.673085 -1.90138 0
M  V30 4368 C 409.518 0.79895 -1.78539 0
M  V30 4369 O 410.724 1.23628 -2.4172 0
M  V30 4370 C 409.18 -1.15339 -3.40918 0
M  V30 4371 C 408.788 -2.65106 -3.61141 0
M  V30 4372 C 410.532 -0.902476 -4.14796 0
M  V30 4373 C 408.439 -3.0671 -5.05651 0
M  V30 4374 H 407.369 -0.248057 -0.712028 0
M  V30 4375 H 410.02 -1.20891 -1.38049 0
M  V30 4376 H 408.402 -0.545658 -3.92223 0
M  V30 4377 H 409.576 -3.31274 -3.20304 0
M  V30 4378 H 407.891 -2.88142 -3.00605 0
M  V30 4379 H 410.488 -1.18895 -5.21314 0
M  V30 4380 H 410.831 0.161349 -4.15987 0
M  V30 4381 H 411.364 -1.47269 -3.69536 0
M  V30 4382 H 408.103 -4.12292 -5.09603 0
M  V30 4383 H 407.623 -2.45249 -5.47369 0
M  V30 4384 H 409.302 -2.9833 -5.74115 0
M  V30 4385 N 409.434 1.37368 -0.772513 0
M  V30 4386 C 410.681 1.99673 -0.337182 0
M  V30 4387 C 411.009 1.61324 1.0865 0
M  V30 4388 O 410.264 0.851377 1.7621 0
M  V30 4389 C 410.563 3.54817 -0.428876 0
M  V30 4390 C 410.229 4.12936 -1.81092 0
M  V30 4391 C 408.891 4.28523 -2.1891 0
M  V30 4392 C 411.243 4.44801 -2.71664 0
M  V30 4393 C 408.571 4.73277 -3.46735 0
M  V30 4394 C 410.923 4.90981 -3.98899 0
M  V30 4395 C 409.587 5.04773 -4.36761 0
M  V30 4396 H 408.857 0.730656 -0.123384 0
M  V30 4397 H 411.504 1.64124 -0.986686 0
M  V30 4398 H 409.809 3.90618 0.304167 0
M  V30 4399 H 411.506 4.00933 -0.0733334 0
M  V30 4400 H 408.096 4.01233 -1.50699 0
M  V30 4401 H 412.28 4.32344 -2.43706 0
M  V30 4402 H 407.536 4.82142 -3.75964 0
M  V30 4403 H 411.71 5.14603 -4.69208 0
M  V30 4404 H 409.337 5.39211 -5.35868 0
M  V30 4405 N 410.912 0.523116 1.48665 0
M  V30 4406 C 412.161 -0.01544 2.01694 0
M  V30 4407 C 412.474 -1.35975 1.40606 0
M  V30 4408 O 413.68 -1.98627 1.85093 0
M  V30 4409 C 412.136 -0.0779303 3.59816 0
M  V30 4410 C 411.744 1.26107 4.29885 0
M  V30 4411 C 413.488 -0.565678 4.20714 0
M  V30 4412 C 411.395 1.15954 5.79921 0
M  V30 4413 H 410.325 -0.00954163 0.75394 0
M  V30 4414 H 412.976 0.665865 1.70993 0
M  V30 4415 H 411.358 -0.824165 3.87329 0
M  V30 4416 H 412.532 2.02233 4.14051 0
M  V30 4417 H 410.847 1.68401 3.80828 0
M  V30 4418 H 413.444 -0.6595 5.30617 0
M  V30 4419 H 413.787 -1.56984 3.85567 0
M  V30 4420 H 414.32 0.12467 3.97605 0
M  V30 4421 H 411.059 2.13864 6.19631 0
M  V30 4422 H 410.579 0.439529 5.98187 0
M  V30 4423 H 412.258 0.847361 6.41427 0
M  V30 4424 N 412.39 -1.55475 0.257931 0
M  V30 4425 C 413.338 -2.23244 -0.653076 0
M  V30 4426 C 414.332 -1.22366 -1.17144 0
M  V30 4427 O 415.538 -1.40347 -1.12706 0
M  V30 4428 H 411.913 -0.716247 -0.229117 0
M  V30 4429 H 413.884 -2.98343 -0.0584788 0
M  V30 4430 C 412.633 -2.95401 -1.83395 0
M  V30 4431 H 411.956 -3.72802 -1.44424 0
M  V30 4432 H 413.396 -3.46165 -2.44838 0
M  V30 4433 C 411.855 -1.99895 -2.71189 0
M  V30 4434 O 412.385 -1.53909 -3.71046 0
M  V30 4435 N 410.591 -1.6676 -2.3799 0
M  V30 4436 H 410.138 -2.04352 -1.56837 0
M  V30 4437 H 410.096 -1.03127 -2.97005 0
M  V30 4438 N 413.868 0.0150385 -1.57593 0
M  V30 4439 C 415.096 0.714395 -1.94175 0
M  V30 4440 C 415.511 1.68135 -0.858841 0
M  V30 4441 O 414.868 1.81766 0.163567 0
M  V30 4442 C 414.919 1.45933 -3.30735 0
M  V30 4443 O 414.64 0.531167 -4.34868 0
M  V30 4444 C 416.141 2.25456 -3.81686 0
M  V30 4445 H 413.361 0.199923 -0.640525 0
M  V30 4446 H 415.905 -0.0316096 -2.04476 0
M  V30 4447 H 414.06 2.15709 -3.21789 0
M  V30 4448 H 414.474 1.05509 -5.13778 0
M  V30 4449 H 415.948 2.731 -4.79709 0
M  V30 4450 H 416.425 3.07485 -3.13607 0
M  V30 4451 H 417.031 1.60727 -3.9376 0
M  V30 4452 N 415.346 1.54954 0.287554 0
M  V30 4453 C 416.762 1.46469 0.633964 0
M  V30 4454 C 416.962 0.666865 1.90145 0
M  V30 4455 O 416.018 0.179906 2.51858 0
M  V30 4456 C 417.331 2.90556 0.774454 0
M  V30 4457 C 418.879 3.00681 0.869462 0
M  V30 4458 C 419.354 4.45993 1.04184 0
M  V30 4459 N 420.845 4.4976 1.10772 0
M  V30 4460 C 421.58 5.59393 1.25964 0
M  V30 4461 N 421.076 6.78923 1.37968 0
M  V30 4462 N 422.869 5.47107 1.28959 0
M  V30 4463 H 415.02 2.05288 -0.545041 0
M  V30 4464 H 417.283 0.930305 -0.182308 0
M  V30 4465 H 416.989 3.51594 -0.086207 0
M  V30 4466 H 416.863 3.38743 1.6593 0
M  V30 4467 H 419.25 2.39749 1.7206 0
M  V30 4468 H 419.331 2.55769 -0.0396831 0
M  V30 4469 H 418.975 5.07524 0.195422 0
M  V30 4470 H 418.905 4.88548 1.96542 0
M  V30 4471 H 421.396 3.63651 1.02794 0
M  V30 4472 H 421.709 7.58231 1.49353 0
M  V30 4473 H 420.054 6.81763 1.34999 0
M  V30 4474 H 423.245 4.52668 1.19202 0
M  V30 4475 H 423.418 6.32595 1.40455 0
M  V30 4476 N 416.824 -0.551391 1.4764 0
M  V30 4477 C 418.24 -0.877887 1.33287 0
M  V30 4478 C 418.44 -1.98817 0.327721 0
M  V30 4479 O 417.496 -2.51171 -0.258695 0
M  V30 4480 C 418.809 -1.26563 2.72768 0
M  V30 4481 C 420.357 -1.37673 2.81097 0
M  V30 4482 C 420.832 -1.79799 4.21232 0
M  V30 4483 N 422.323 -1.8694 4.23802 0
M  V30 4484 C 423.058 -2.20876 5.29151 0
M  V30 4485 N 422.554 -2.53386 6.448 0
M  V30 4486 N 424.347 -2.217 5.16532 0
M  V30 4487 H 416.498 0.18153 2.11623 0
M  V30 4488 H 418.761 0.0185514 0.947818 0
M  V30 4489 H 418.467 -0.523591 3.47781 0
M  V30 4490 H 418.341 -2.22052 3.04915 0
M  V30 4491 H 420.728 -2.10956 2.06353 0
M  V30 4492 H 420.809 -0.40357 2.52596 0
M  V30 4493 H 420.453 -1.07083 4.96483 0
M  V30 4494 H 420.383 -2.78128 4.4716 0
M  V30 4495 H 422.874 -1.64179 3.40373 0
M  V30 4496 H 423.187 -2.78325 7.20941 0
M  V30 4497 H 421.532 -2.50953 6.48111 0
M  V30 4498 H 424.723 -1.95745 4.25207 0
M  V30 4499 H 424.896 -2.47818 5.98741 0
M  V30 4500 N 418.302 -1.35869 -0.798587 0
M  V30 4501 C 419.249 -1.29446 -1.91082 0
M  V30 4502 C 420.219 -0.16487 -1.6528 0
M  V30 4503 O 421.404 -0.349888 -1.87564 0
M  V30 4504 C 418.544 -1.0804 -3.27752 0
M  V30 4505 C 417.657 -2.29993 -3.65687 0
M  V30 4506 C 416.792 -2.01673 -4.91428 0
M  V30 4507 C 415.831 -3.19636 -5.22015 0
M  V30 4508 N 414.968 -2.91039 -6.38937 0
M  V30 4509 H 419.808 -2.24553 -1.95907 0
M  V30 4510 H 417.345 -1.11615 -0.958148 0
M  V30 4511 H 419.303 -0.936586 -4.06551 0
M  V30 4512 H 417.933 -0.16592 -3.22373 0
M  V30 4513 H 416.985 -2.55211 -2.82085 0
M  V30 4514 H 418.297 -3.18052 -3.84245 0
M  V30 4515 H 417.451 -1.84168 -5.78072 0
M  V30 4516 H 416.19 -1.10911 -4.74921 0
M  V30 4517 H 415.195 -3.37709 -4.33858 0
M  V30 4518 H 416.42 -4.11211 -5.40447 0
M  V30 4519 H 414.366 -2.0288 -6.2384 0
M  V30 4520 H 414.283 -3.72635 -6.57784 0
M  V30 4521 H 415.551 -2.77093 -7.28587 0
M  V30 4522 N 419.78 1.02168 -1.19998 0
M  V30 4523 C 421.026 1.75945 -1.00852 0
M  V30 4524 C 421.359 1.88702 0.458828 0
M  V30 4525 O 420.634 1.40911 1.34069 0
M  V30 4526 C 420.917 3.18154 -1.68671 0
M  V30 4527 C 420.77 3.13224 -3.22817 0
M  V30 4528 C 422.089 4.16711 -1.41561 0
M  V30 4529 H 419.208 0.638673 -0.367785 0
M  V30 4530 H 421.85 1.19222 -1.4794 0
M  V30 4531 H 420 3.66586 -1.28636 0
M  V30 4532 H 421.672 2.72635 -3.72112 0
M  V30 4533 H 419.915 2.50751 -3.53986 0
M  V30 4534 H 420.586 4.13728 -3.65422 0
M  V30 4535 H 423.062 3.76913 -1.76284 0
M  V30 4536 H 421.938 5.14391 -1.91553 0
M  V30 4537 H 422.199 4.40774 -0.342193 0
M  V30 4538 N 421.258 1.00505 1.21394 0
M  V30 4539 C 422.535 0.603277 1.86064 0
M  V30 4540 C 422.915 -0.919095 1.90042 0
M  V30 4541 O 422.263 -1.80607 1.39977 0
M  V30 4542 C 422.473 1.23772 3.26315 0
M  V30 4543 C 423.821 1.34586 4.02705 0
M  V30 4544 O 424.845 1.19304 3.35626 0
M  V30 4545 O 423.704 1.59169 5.22807 0
M  V30 4546 H 420.798 0.206634 0.800769 0
M  V30 4547 H 423.344 1.1017 1.29076 0
M  V30 4548 H 422.116 2.27848 3.18121 0
M  V30 4549 H 421.739 0.725648 3.90922 0
M  V30 4550 N 422.737 -1.36956 0.779787 0
M  V30 4551 C 423.983 -2.00237 0.357324 0
M  V30 4552 C 424.338 -1.60787 -1.05666 0
M  V30 4553 O 423.631 -0.847836 -1.71821 0
M  V30 4554 C 423.825 -3.54585 0.447686 0
M  V30 4555 C 423.654 -4.09025 1.86891 0
M  V30 4556 C 422.424 -4.39612 2.49138 0
M  V30 4557 C 424.622 -4.29461 2.82963 0
M  V30 4558 N 422.604 -4.79816 3.82949 0
M  V30 4559 C 423.975 -4.72363 4.01588 0
M  V30 4560 C 426.03 -4.1161 2.80145 0
M  V30 4561 C 424.733 -4.99284 5.17791 0
M  V30 4562 C 426.759 -4.39672 3.95528 0
M  V30 4563 C 426.121 -4.82822 5.12896 0
M  V30 4564 H 422.22 -0.76148 0.177968 0
M  V30 4565 H 424.804 -1.6613 1.01533 0
M  V30 4566 H 422.975 -3.87982 -0.180184 0
M  V30 4567 H 424.707 -4.047 0.0023955 0
M  V30 4568 H 421.462 -4.28975 2.00693 0
M  V30 4569 H 421.886 -5.04216 4.51769 0
M  V30 4570 H 426.528 -3.77415 1.90572 0
M  V30 4571 H 424.246 -5.32365 6.07958 0
M  V30 4572 H 427.832 -4.27441 3.94697 0
M  V30 4573 H 426.712 -5.04118 6.00695 0
M  V30 4574 N 424.215 -0.530993 -1.48385 0
M  V30 4575 C 425.145 0.219985 -2.32461 0
M  V30 4576 C 426.126 0.934111 -1.42156 0
M  V30 4577 O 427.311 0.919694 -1.71042 0
M  V30 4578 C 424.441 1.26674 -3.23375 0
M  V30 4579 C 423.395 0.67069 -4.22712 0
M  V30 4580 C 422.721 1.82017 -5.02766 0
M  V30 4581 C 424.021 -0.358268 -5.2107 0
M  V30 4582 H 425.715 -0.48187 -2.95497 0
M  V30 4583 H 423.261 -0.233182 -1.42099 0
M  V30 4584 H 425.214 1.80006 -3.81019 0
M  V30 4585 H 423.938 1.99818 -2.58341 0
M  V30 4586 H 422.597 0.158878 -3.66256 0
M  V30 4587 H 422.245 2.54002 -4.34157 0
M  V30 4588 H 421.945 1.42727 -5.70003 0
M  V30 4589 H 423.469 2.35725 -5.63264 0
M  V30 4590 H 424.883 0.0880081 -5.73232 0
M  V30 4591 H 423.28 -0.66861 -5.96364 0
M  V30 4592 H 424.35 -1.26367 -4.68145 0
M  V30 4593 N 425.693 1.55336 -0.266172 0
M  V30 4594 C 426.921 2.03801 0.356756 0
M  V30 4595 C 427.336 1.14485 1.50129 0
M  V30 4596 O 426.693 0.163121 1.8177 0
M  V30 4597 C 426.744 3.51455 0.846281 0
M  V30 4598 O 426.465 4.37371 -0.252663 0
M  V30 4599 C 427.966 4.15767 1.53794 0
M  V30 4600 H 425.186 0.665906 0.0825218 0
M  V30 4601 H 427.73 2.00636 -0.39566 0
M  V30 4602 H 425.885 3.55092 1.54881 0
M  V30 4603 H 426.299 5.24358 0.122173 0
M  V30 4604 H 427.773 5.20714 1.83198 0
M  V30 4605 H 428.25 3.63404 2.46646 0
M  V30 4606 H 428.856 4.16107 0.879488 0
M  V30 4607 N 427.171 -0.0066808 1.57599 0
M  V30 4608 C 428.081 -1.01671 2.11424 0
M  V30 4609 C 429.097 -1.38143 1.05795 0
M  V30 4610 O 430.273 -1.47011 1.37658 0
M  V30 4611 C 427.338 -2.29192 2.60139 0
M  V30 4612 C 426.399 -1.99094 3.80342 0
M  V30 4613 C 425.632 -3.20535 4.26724 0
M  V30 4614 O 425.855 -4.3199 3.72479 0
M  V30 4615 O 424.789 -3.04924 5.18946 0
M  V30 4616 H 428.615 -0.589181 2.9793 0
M  V30 4617 H 426.2 -0.225091 1.47695 0
M  V30 4618 H 428.082 -3.0412 2.917 0
M  V30 4619 H 426.757 -2.71195 1.76733 0
M  V30 4620 H 425.664 -1.21663 3.53764 0
M  V30 4621 H 426.997 -1.61931 4.648 0
M  V30 4622 N 428.649 -1.55105 -0.279332 0
M  V30 4623 C 429.596 -1.8755 -1.34513 0
M  V30 4624 C 430.566 -0.726384 -1.49375 0
M  V30 4625 O 431.751 -0.977063 -1.63884 0
M  V30 4626 C 428.891 -2.14738 -2.70151 0
M  V30 4627 C 428.004 -3.42285 -2.63562 0
M  V30 4628 C 427.139 -3.59206 -3.91337 0
M  V30 4629 C 426.178 -4.80467 -3.79233 0
M  V30 4630 N 425.315 -4.94079 -4.98829 0
M  V30 4631 H 430.155 -2.78456 -1.06143 0
M  V30 4632 H 427.692 -1.37867 -0.512936 0
M  V30 4633 H 429.65 -2.28501 -3.49061 0
M  V30 4634 H 428.28 -1.27075 -2.96735 0
M  V30 4635 H 427.332 -3.37029 -1.76397 0
M  V30 4636 H 428.644 -4.31328 -2.50515 0
M  V30 4637 H 427.798 -3.72751 -4.78687 0
M  V30 4638 H 426.537 -2.68337 -4.07243 0
M  V30 4639 H 425.542 -4.66932 -2.90266 0
M  V30 4640 H 426.767 -5.72765 -3.64852 0
M  V30 4641 H 424.713 -4.06139 -5.15158 0
M  V30 4642 H 424.63 -5.77156 -4.8829 0
M  V30 4643 H 425.898 -5.12003 -5.8777 0
M  V30 4644 N 430.127 0.543554 -1.4793 0
M  V30 4645 C 431.06 1.66556 -1.55995 0
M  V30 4646 C 432.038 1.57315 -0.411205 0
M  V30 4647 O 433.222 1.7798 -0.620922 0
M  V30 4648 C 430.349 3.04883 -1.47527 0
M  V30 4649 C 429.395 3.32526 -2.67074 0
M  V30 4650 S 430.228 3.20282 -4.29162 0
M  V30 4651 C 431.384 4.61079 -4.23269 0
M  V30 4652 H 431.617 1.59462 -2.50917 0
M  V30 4653 H 429.15 0.725456 -1.36296 0
M  V30 4654 H 431.108 3.84665 -1.43328 0
M  V30 4655 H 429.769 3.09429 -0.539665 0
M  V30 4656 H 428.962 4.33403 -2.5725 0
M  V30 4657 H 428.564 2.60389 -2.68466 0
M  V30 4658 H 430.856 5.52318 -3.92365 0
M  V30 4659 H 431.799 4.75959 -5.24279 0
M  V30 4660 H 432.207 4.39766 -3.5393 0
M  V30 4661 N 431.605 1.3629 0.791371 0
M  V30 4662 C 432.555 1.26988 1.89362 0
M  V30 4663 C 433.539 0.161795 1.60084 0
M  V30 4664 O 434.731 0.394426 1.72549 0
M  V30 4665 C 431.86 1.05944 3.26544 0
M  V30 4666 C 430.946 2.21211 3.61838 0
M  V30 4667 N 431.337 3.46518 3.68455 0
M  V30 4668 C 429.635 2.12933 3.91887 0
M  V30 4669 C 430.336 4.2241 3.99931 0
M  V30 4670 N 429.312 3.51329 4.14812 0
M  V30 4671 H 433.114 2.21908 1.92702 0
M  V30 4672 H 430.628 1.28982 0.986787 0
M  V30 4673 H 432.625 0.973666 4.05371 0
M  V30 4674 H 431.285 0.119223 3.24481 0
M  V30 4675 H 432.296 3.80677 3.51148 0
M  V30 4676 H 428.973 1.26855 3.97761 0
M  V30 4677 H 430.363 5.30767 4.1199 0
M  V30 4678 N 433.083 -1.0153 1.20538 0
M  V30 4679 C 434.046 -2.0826 0.957098 0
M  V30 4680 C 435.046 -1.60657 -0.0678655 0
M  V30 4681 O 436.236 -1.73385 0.168332 0
M  V30 4682 C 433.368 -3.38033 0.441188 0
M  V30 4683 H 434.561 -2.31719 1.90384 0
M  V30 4684 H 432.114 -1.1835 1.02093 0
M  V30 4685 H 432.849 -3.20249 -0.510961 0
M  V30 4686 H 432.634 -3.73911 1.18038 0
M  V30 4687 H 434.124 -4.16613 0.287009 0
M  V30 4688 N 434.561 -1.01147 -1.20859 0
M  V30 4689 C 435.977 -0.725422 -1.42161 0
M  V30 4690 C 436.177 0.696919 -1.89064 0
M  V30 4691 O 435.233 1.46539 -2.05627 0
M  V30 4692 C 436.546 -1.74678 -2.44761 0
M  V30 4693 C 438.094 -1.76433 -2.58535 0
M  V30 4694 C 438.569 -2.77481 -3.64374 0
M  V30 4695 N 440.06 -2.76189 -3.71852 0
M  V30 4696 C 440.795 -3.51035 -4.53389 0
M  V30 4697 N 440.291 -4.35541 -5.38773 0
M  V30 4698 N 442.084 -3.39655 -4.47873 0
M  V30 4699 H 434.235 -1.92979 -0.887282 0
M  V30 4700 H 436.498 -0.833327 -0.451962 0
M  V30 4701 H 436.204 -2.76551 -2.17285 0
M  V30 4702 H 436.078 -1.55472 -3.43669 0
M  V30 4703 H 438.465 -0.75248 -2.85345 0
M  V30 4704 H 438.546 -1.99712 -1.5984 0
M  V30 4705 H 438.19 -3.78827 -3.38308 0
M  V30 4706 H 438.12 -2.51466 -4.6268 0
M  V30 4707 H 440.611 -2.14885 -3.10858 0
M  V30 4708 H 440.924 -4.89432 -5.98061 0
M  V30 4709 H 439.269 -4.39621 -5.38292 0
M  V30 4710 H 442.46 -2.73063 -3.80203 0
M  V30 4711 H 442.633 -3.9824 -5.11184 0
M  V30 4712 N 436.039 1.36541 -0.78704 0
M  V30 4713 C 437.316 1.9355 -0.282424 0
M  V30 4714 C 437.696 1.71919 1.22503 0
M  V30 4715 O 437.044 1.07677 2.01539 0
M  V30 4716 C 437.254 3.4246 -0.672462 0
M  V30 4717 C 438.602 4.19582 -0.650863 0
M  V30 4718 O 439.626 3.50889 -0.612789 0
M  V30 4719 O 438.485 5.42106 -0.691623 0
M  V30 4720 H 435.579 0.824091 -0.0693 0
M  V30 4721 H 438.125 1.45736 -0.869423 0
M  V30 4722 H 436.897 3.51851 -1.71221 0
M  V30 4723 H 436.52 3.97556 -0.0592211 0
M  V30 4724 N 437.518 0.538854 1.48102 0
M  V30 4725 C 438.765 0.0080018 2.02498 0
M  V30 4726 C 439.093 -1.33437 1.41509 0
M  V30 4727 O 438.348 -1.87709 0.553507 0
M  V30 4728 C 438.647 -0.153808 3.57069 0
M  V30 4729 C 438.313 1.11533 4.36888 0
M  V30 4730 C 436.975 1.46314 4.58417 0
M  V30 4731 C 439.327 1.95718 4.83057 0
M  V30 4732 C 436.655 2.6516 5.23361 0
M  V30 4733 C 439.007 3.13751 5.49312 0
M  V30 4734 C 437.671 3.48866 5.69077 0
M  V30 4735 H 436.941 0.00292807 0.740994 0
M  V30 4736 H 439.588 0.706668 1.77984 0
M  V30 4737 H 437.893 -0.935309 3.80472 0
M  V30 4738 H 439.59 -0.579607 3.96789 0
M  V30 4739 H 436.18 0.834484 4.20398 0
M  V30 4740 H 440.364 1.70158 4.66219 0
M  V30 4741 H 435.62 2.92558 5.36861 0
M  V30 4742 H 439.794 3.79282 5.84053 0
M  V30 4743 H 437.421 4.41054 6.19173 0
M  V30 4744 N 438.996 -1.55193 0.274407 0
M  V30 4745 C 440.224 -2.03987 -0.345943 0
M  V30 4746 C 440.639 -1.15279 -1.4952 0
M  V30 4747 O 439.996 -0.172759 -1.8168 0
M  V30 4748 C 440.047 -3.51898 -0.827631 0
M  V30 4749 O 439.768 -4.37231 0.275855 0
M  V30 4750 C 441.269 -4.16577 -1.51587 0
M  V30 4751 H 438.489 -0.666335 -0.0789892 0
M  V30 4752 H 441.033 -2.00423 0.406294 0
M  V30 4753 H 439.188 -3.55909 -1.52996 0
M  V30 4754 H 439.602 -5.24415 -0.0943638 0
M  V30 4755 H 441.076 -5.21678 -1.80433 0
M  V30 4756 H 441.553 -3.64707 -2.44716 0
M  V30 4757 H 442.159 -4.16568 -0.857409 0
M  V30 4758 N 440.474 -0.00167713 -1.576 0
M  V30 4759 C 441.72 0.683832 -1.90923 0
M  V30 4760 C 442.053 1.7333 -0.875799 0
M  V30 4761 O 441.328 1.94215 0.10525 0
M  V30 4762 C 441.611 1.32543 -3.3482 0
M  V30 4763 C 441.464 0.287387 -4.48881 0
M  V30 4764 C 442.783 2.25114 -3.78169 0
M  V30 4765 H 439.902 0.247125 -0.694333 0
M  V30 4766 H 442.544 -0.0533149 -1.89925 0
M  V30 4767 H 440.694 1.95372 -3.35801 0
M  V30 4768 H 442.366 -0.341346 -4.60035 0
M  V30 4769 H 440.609 -0.39017 -4.32042 0
M  V30 4770 H 441.28 0.775393 -5.46527 0
M  V30 4771 H 443.756 1.723 -3.7875 0
M  V30 4772 H 442.632 2.66971 -4.79602 0
M  V30 4773 H 442.893 3.13092 -3.12131 0
M  V30 4774 N 441.952 1.55251 0.271103 0
M  V30 4775 C 443.177 1.80306 1.02491 0
M  V30 4776 C 443.602 0.575457 1.79081 0
M  V30 4777 O 442.96 -0.474987 1.74967 0
M  V30 4778 C 443.008 3.02832 1.95768 0
M  V30 4779 O 442.112 2.78051 3.04568 0
M  V30 4780 H 441.453 0.595896 0.292923 0
M  V30 4781 H 443.983 2.02397 0.299436 0
M  V30 4782 H 443.993 3.31616 2.37686 0
M  V30 4783 H 442.668 3.9183 1.39434 0
M  V30 4784 H 441.245 2.60369 2.66951 0
M  V30 4785 N 443.43 -0.535701 1.48216 0
M  V30 4786 C 444.393 -1.623 1.61838 0
M  V30 4787 C 445.393 -1.53087 0.492024 0
M  V30 4788 O 446.583 -1.5686 0.757668 0
M  V30 4789 C 443.715 -3.01907 1.58319 0
M  V30 4790 H 444.908 -1.51564 2.58783 0
M  V30 4791 H 442.461 -0.757317 1.36727 0
M  V30 4792 H 443.196 -3.18155 0.628299 0
M  V30 4793 H 442.981 -3.10003 2.40085 0
M  V30 4794 H 444.471 -3.80969 1.71033 0
M  V30 4795 N 444.908 -1.36708 -0.784132 0
M  V30 4796 C 445.841 -1.25827 -1.90375 0
M  V30 4797 C 446.819 -0.141331 -1.61985 0
M  V30 4798 O 448.003 -0.313389 -1.85877 0
M  V30 4799 C 445.13 -0.942621 -3.25319 0
M  V30 4800 C 444.176 -2.07474 -3.72635 0
M  V30 4801 S 445.009 -3.69317 -3.8777 0
M  V30 4802 C 446.165 -3.39876 -5.25581 0
M  V30 4803 H 446.398 -2.20593 -1.99314 0
M  V30 4804 H 443.931 -1.22186 -0.943926 0
M  V30 4805 H 445.889 -0.767321 -4.03265 0
M  V30 4806 H 444.55 -0.0126566 -3.14097 0
M  V30 4807 H 443.743 -1.80858 -4.70432 0
M  V30 4808 H 443.345 -2.20953 -3.01754 0
M  V30 4809 H 445.637 -2.94097 -6.10339 0
M  V30 4810 H 446.58 -4.36956 -5.57203 0
M  V30 4811 H 446.988 -2.75098 -4.92931 0
M  V30 4812 N 446.386 1.0089 -1.21074 0
M  V30 4813 C 447.336 2.0799 -0.934034 0
M  V30 4814 C 448.32 1.60529 0.10919 0
M  V30 4815 O 449.512 1.76722 -0.0992198 0
M  V30 4816 C 446.641 3.39693 -0.496334 0
M  V30 4817 C 445.727 3.93833 -1.57341 0
M  V30 4818 N 446.118 4.21388 -2.7976 0
M  V30 4819 C 444.416 4.22067 -1.44137 0
M  V30 4820 C 445.117 4.65156 -3.49292 0
M  V30 4821 N 444.093 4.67895 -2.76722 0
M  V30 4822 H 447.895 2.27213 -1.86417 0
M  V30 4823 H 445.409 1.18927 -1.10589 0
M  V30 4824 H 447.406 4.15962 -0.279471 0
M  V30 4825 H 446.066 3.21879 0.427084 0
M  V30 4826 H 447.077 4.10061 -3.1634 0
M  V30 4827 H 443.754 4.1341 -0.582947 0
M  V30 4828 H 445.144 4.95231 -4.54088 0
M  V30 4829 N 447.864 1.01787 1.20321 0
M  V30 4830 C 449.112 0.706538 1.89347 0
M  V30 4831 C 449.433 -0.766289 1.79313 0
M  V30 4832 O 448.703 -1.55126 1.19635 0
M  V30 4833 H 447.283 0.258348 0.700903 0
M  V30 4834 H 449.945 1.28974 1.46122 0
M  V30 4835 H 449.041 0.991066 2.95946 0
M  V30 4836 N 449.342 -1.36122 0.79427 0
M  V30 4837 C 450.619 -1.93398 0.292685 0
M  V30 4838 C 450.999 -1.72567 -1.21589 0
M  V30 4839 O 450.347 -1.08745 -2.00965 0
M  V30 4840 C 450.557 -3.42099 0.690614 0
M  V30 4841 C 451.905 -4.19231 0.673105 0
M  V30 4842 O 452.929 -3.50559 0.631389 0
M  V30 4843 O 451.788 -5.41732 0.720362 0
M  V30 4844 H 448.882 -0.823712 0.0736693 0
M  V30 4845 H 451.428 -1.45273 0.87714 0
M  V30 4846 H 450.2 -3.50938 1.73085 0
M  V30 4847 H 449.823 -3.97519 0.0803036 0
M  V30 4848 N 450.82 -0.546701 -1.47814 0
M  V30 4849 C 451.753 0.254472 -2.26777 0
M  V30 4850 C 452.731 0.929809 -1.33392 0
M  V30 4851 O 453.915 0.950889 -1.62759 0
M  V30 4852 C 451.042 1.36171 -3.10121 0
M  V30 4853 C 450.088 0.796038 -4.19005 0
M  V30 4854 S 450.921 -0.349191 -5.3436 0
M  V30 4855 C 452.077 0.760122 -6.21267 0
M  V30 4856 H 452.31 -0.415612 -2.94381 0
M  V30 4857 H 449.843 -0.332809 -1.5077 0
M  V30 4858 H 451.801 1.99588 -3.58713 0
M  V30 4859 H 450.462 2.00359 -2.41899 0
M  V30 4860 H 449.655 1.62719 -4.7701 0
M  V30 4861 H 449.257 0.238246 -3.7324 0
M  V30 4862 H 451.549 1.65479 -6.5698 0
M  V30 4863 H 452.492 0.217673 -7.07765 0
M  V30 4864 H 452.9 1.04806 -5.54685 0
M  V30 4865 N 452.299 1.55045 -0.282633 0
M  V30 4866 C 453.576 1.9179 0.384166 0
M  V30 4867 C 453.956 1.20778 1.73136 0
M  V30 4868 O 453.304 0.33719 2.25998 0
M  V30 4869 C 453.514 3.45149 0.517014 0
M  V30 4870 C 454.862 4.17064 0.796427 0
M  V30 4871 O 455.886 3.51084 0.601535 0
M  V30 4872 O 454.745 5.33837 1.16962 0
M  V30 4873 H 451.839 0.799483 0.211558 0
M  V30 4874 H 454.385 1.66474 -0.32934 0
M  V30 4875 H 453.157 3.88922 -0.430772 0
M  V30 4876 H 452.78 3.76443 1.2797 0
M  V30 4877 N 453.777 0.010035 1.57597 0
M  V30 4878 C 454.709 -1.00649 2.05918 0
M  V30 4879 C 455.722 -1.30077 0.978964 0
M  V30 4880 O 456.911 -1.26878 1.25556 0
M  V30 4881 C 454.011 -2.33876 2.45265 0
M  V30 4882 C 453.184 -2.23242 3.7614 0
M  V30 4883 C 452.243 -3.39242 4.02245 0
M  V30 4884 O 451.269 -3.1698 4.72771 0
M  V30 4885 N 452.471 -4.6242 3.50924 0
M  V30 4886 H 455.236 -0.594333 2.93748 0
M  V30 4887 H 452.797 -0.17714 1.60928 0
M  V30 4888 H 454.789 -3.1027 2.59836 0
M  V30 4889 H 453.359 -2.66799 1.62902 0
M  V30 4890 H 452.579 -1.31696 3.71551 0
M  V30 4891 H 453.867 -2.13321 4.61922 0
M  V30 4892 H 453.265 -4.83404 2.93832 0
M  V30 4893 H 451.822 -5.36046 3.70807 0
M  V30 4894 N 455.255 -1.55392 -0.262866 0
M  V30 4895 C 456.202 -1.88966 -1.32516 0
M  V30 4896 C 457.172 -0.742187 -1.48596 0
M  V30 4897 O 458.357 -0.99439 -1.62839 0
M  V30 4898 C 455.497 -2.17592 -2.67858 0
M  V30 4899 C 454.61 -3.45061 -2.59917 0
M  V30 4900 C 453.745 -3.63336 -3.87505 0
M  V30 4901 C 452.784 -4.84462 -3.74116 0
M  V30 4902 N 451.921 -4.99342 -4.93561 0
M  V30 4903 H 456.761 -2.79566 -1.03184 0
M  V30 4904 H 454.298 -1.38404 -0.498285 0
M  V30 4905 H 456.256 -2.3219 -3.46617 0
M  V30 4906 H 454.886 -1.30215 -2.95371 0
M  V30 4907 H 453.938 -3.38881 -1.72812 0
M  V30 4908 H 455.25 -4.3396 -2.45926 0
M  V30 4909 H 454.404 -3.77807 -4.74707 0
M  V30 4910 H 453.143 -2.72641 -4.04374 0
M  V30 4911 H 452.148 -4.69985 -2.85297 0
M  V30 4912 H 453.373 -5.76603 -3.58757 0
M  V30 4913 H 451.319 -4.1158 -5.10821 0
M  V30 4914 H 451.236 -5.82303 -4.82141 0
M  V30 4915 H 452.504 -5.18208 -5.82306 0
M  V30 4916 N 456.733 0.527833 -1.48498 0
M  V30 4917 C 457.643 1.65907 -1.65867 0
M  V30 4918 C 458.659 1.6537 -0.541192 0
M  V30 4919 O 459.835 1.84282 -0.812534 0
M  V30 4920 C 456.9 3.02364 -1.69637 0
M  V30 4921 C 455.961 3.1374 -2.93028 0
M  V30 4922 C 455.194 4.43688 -2.96609 0
M  V30 4923 O 455.417 5.30913 -2.08538 0
M  V30 4924 O 454.351 4.59475 -3.88802 0
M  V30 4925 H 458.177 1.5419 -2.61647 0
M  V30 4926 H 455.762 0.701163 -1.31924 0
M  V30 4927 H 457.644 3.83515 -1.74625 0
M  V30 4928 H 456.319 3.14401 -0.770312 0
M  V30 4929 H 455.226 2.31877 -2.93571 0
M  V30 4930 H 456.559 3.06621 -3.85026 0
M  V30 4931 N 458.211 1.37122 0.776871 0
M  V30 4932 C 459.627 1.1781 1.07671 0
M  V30 4933 C 459.827 0.0107454 2.01497 0
M  V30 4934 O 458.883 -0.650756 2.4397 0
M  V30 4935 C 460.196 2.49451 1.67913 0
M  V30 4936 C 461.744 2.55927 1.80195 0
M  V30 4937 C 462.219 3.87686 2.43851 0
M  V30 4938 N 463.71 3.891 2.51307 0
M  V30 4939 C 464.445 4.87797 3.014 0
M  V30 4940 N 463.941 5.96888 3.51705 0
M  V30 4941 N 465.734 4.75205 3.00227 0
M  V30 4942 H 457.885 2.11843 0.153778 0
M  V30 4943 H 460.148 0.938927 0.130844 0
M  V30 4944 H 459.854 3.35207 1.06439 0
M  V30 4945 H 459.728 2.66169 2.67271 0
M  V30 4946 H 462.115 1.70582 2.40803 0
M  V30 4947 H 462.196 2.43097 0.796069 0
M  V30 4948 H 461.84 4.73444 1.83884 0
M  V30 4949 H 461.77 3.97817 3.45035 0
M  V30 4950 H 464.261 3.10293 2.157 0
M  V30 4951 H 464.574 6.68155 3.88316 0
M  V30 4952 H 462.919 6.0054 3.49824 0
M  V30 4953 H 466.11 3.89103 2.60224 0
M  V30 4954 H 466.283 5.52279 3.38957 0
M  V30 4955 N 459.689 -1.00246 1.21608 0
M  V30 4956 C 460.966 -1.71336 0.943568 0
M  V30 4957 C 461.346 -2.03972 -0.543943 0
M  V30 4958 O 460.694 -1.71545 -1.50946 0
M  V30 4959 C 460.904 -2.97094 1.83128 0
M  V30 4960 C 462.252 -3.70071 2.08165 0
M  V30 4961 O 463.276 -3.07081 1.80498 0
M  V30 4962 O 462.135 -4.83376 2.54971 0
M  V30 4963 H 459.229 -0.747386 0.354039 0
M  V30 4964 H 461.775 -1.05967 1.32549 0
M  V30 4965 H 460.547 -2.69407 2.83788 0
M  V30 4966 H 460.17 -3.70204 1.45034 0
M  V30 4967 N 461.167 -1.02423 -1.1978 0
M  V30 4968 C 462.413 -0.719051 -1.89625 0
M  V30 4969 C 462.746 0.750083 -1.7913 0
M  V30 4970 O 462.021 1.54574 -1.18056 0
M  V30 4971 C 462.304 -1.16499 -3.40735 0
M  V30 4972 C 462.157 -2.695 -3.60125 0
M  V30 4973 C 463.476 -0.742166 -4.33797 0
M  V30 4974 H 460.595 -0.26269 -0.688595 0
M  V30 4975 H 463.237 -1.27333 -1.41018 0
M  V30 4976 H 461.387 -0.69341 -3.82262 0
M  V30 4977 H 463.059 -3.24569 -3.278 0
M  V30 4978 H 461.302 -3.10113 -3.03336 0
M  V30 4979 H 461.973 -2.95757 -4.66081 0
M  V30 4980 H 464.449 -1.1477 -3.99959 0
M  V30 4981 H 463.325 -1.08213 -5.38127 0
M  V30 4982 H 463.586 0.355747 -4.40666 0
M  V30 4983 N 462.645 1.35699 -0.801477 0
M  V30 4984 C 463.894 1.98165 -0.375979 0
M  V30 4985 C 464.207 1.64306 1.06127 0
M  V30 4986 O 465.413 2.20097 1.58964 0
M  V30 4987 C 463.869 3.54497 -0.621305 0
M  V30 4988 C 463.477 3.9727 -2.07076 0
M  V30 4989 C 465.221 4.23697 -0.26091 0
M  V30 4990 C 463.128 5.46427 -2.26211 0
M  V30 4991 H 462.058 0.741478 -0.136844 0
M  V30 4992 H 464.709 1.54834 -0.984814 0
M  V30 4993 H 463.091 3.95958 0.0574112 0
M  V30 4994 H 464.265 3.66974 -2.78687 0
M  V30 4995 H 462.58 3.40943 -2.39054 0
M  V30 4996 H 465.177 5.33334 -0.381994 0
M  V30 4997 H 465.52 4.0869 0.792344 0
M  V30 4998 H 466.053 3.87639 -0.893339 0
M  V30 4999 H 462.792 5.66396 -3.29963 0
M  V30 5000 H 462.312 5.78309 -1.59119 0
M  V30 5001 H 463.991 6.12819 -2.07513 0
M  V30 5002 N 464.123 0.554532 1.47522 0
M  V30 5003 C 465.056 -0.242442 2.26908 0
M  V30 5004 C 466.034 -0.922722 1.33883 0
M  V30 5005 O 467.218 -0.942244 1.63261 0
M  V30 5006 C 464.345 -1.34525 3.10839 0
M  V30 5007 C 463.391 -0.773805 4.19422 0
M  V30 5008 S 464.224 0.377525 5.34168 0
M  V30 5009 C 465.38 -0.727164 6.21662 0
M  V30 5010 H 465.613 0.431218 2.94156 0
M  V30 5011 H 463.146 0.3408 1.50592 0
M  V30 5012 H 465.104 -1.97683 3.59766 0
M  V30 5013 H 463.765 -1.99073 2.42958 0
M  V30 5014 H 462.958 -1.60187 4.77866 0
M  V30 5015 H 462.56 -0.218448 3.73361 0
M  V30 5016 H 464.852 -1.61992 6.57849 0
M  V30 5017 H 465.795 -0.180135 7.07871 0
M  V30 5018 H 466.203 -1.01863 5.55233 0
M  V30 5019 N 465.601 -1.54893 0.290851 0
M  V30 5020 C 467.017 -1.59476 -0.0628432 0
M  V30 5021 C 467.217 -1.30795 -1.5328 0
M  V30 5022 O 466.273 -1.07644 -2.28406 0
M  V30 5023 C 467.586 -2.98928 0.325962 0
M  V30 5024 C 469.134 -3.11799 0.273882 0
M  V30 5025 C 469.609 -4.53544 0.637359 0
M  V30 5026 N 471.1 -4.59433 0.589507 0
M  V30 5027 C 471.835 -5.67164 0.84335 0
M  V30 5028 N 471.331 -6.82975 1.16263 0
M  V30 5029 N 473.124 -5.56786 0.771091 0
M  V30 5030 H 465.275 -1.71798 1.24896 0
M  V30 5031 H 467.538 -0.801879 0.505663 0
M  V30 5032 H 467.244 -3.24805 1.34887 0
M  V30 5033 H 467.118 -3.75793 -0.325441 0
M  V30 5034 H 469.505 -2.85677 -0.739765 0
M  V30 5035 H 469.586 -2.37112 0.959766 0
M  V30 5036 H 469.23 -4.80394 1.64877 0
M  V30 5037 H 469.16 -5.26553 -0.0704866 0
M  V30 5038 H 471.651 -3.76245 0.353252 0
M  V30 5039 H 471.964 -7.61048 1.34257 0
M  V30 5040 H 470.309 -6.84552 1.20057 0
M  V30 5041 H 473.5 -4.65187 0.521383 0
M  V30 5042 H 473.673 -6.40664 0.972295 0
M  V30 5043 N 467.08 -0.0183926 -1.57589 0
M  V30 5044 C 467.99 0.982943 -2.13015 0
M  V30 5045 C 469.006 1.36443 -1.07979 0
M  V30 5046 O 470.182 1.44802 -1.3998 0
M  V30 5047 C 467.247 2.25024 -2.63752 0
M  V30 5048 C 466.308 1.93018 -3.83461 0
M  V30 5049 C 465.541 3.13706 -4.31769 0
M  V30 5050 O 465.764 4.2601 -3.79305 0
M  V30 5051 O 464.698 2.96629 -5.23732 0
M  V30 5052 H 468.524 0.541709 -2.9883 0
M  V30 5053 H 466.109 0.201565 -1.48034 0
M  V30 5054 H 467.991 2.99441 -2.96502 0
M  V30 5055 H 466.666 2.68349 -1.81026 0
M  V30 5056 H 465.573 1.16019 -3.55655 0
M  V30 5057 H 466.906 1.54516 -4.67317 0
M  V30 5058 N 468.558 1.5553 0.254621 0
M  V30 5059 C 469.805 1.77 0.983736 0
M  V30 5060 C 470.133 0.58133 1.85609 0
M  V30 5061 O 469.388 -0.435621 1.9079 0
M  V30 5062 C 469.687 3.03891 1.88109 0
M  V30 5063 C 469.353 4.35597 1.16472 0
M  V30 5064 C 468.015 4.7139 0.966714 0
M  V30 5065 C 470.367 5.1705 0.656387 0
M  V30 5066 C 467.695 5.86176 0.247942 0
M  V30 5067 C 470.047 6.32581 -0.0488807 0
M  V30 5068 C 468.711 6.67 -0.258438 0
M  V30 5069 H 467.981 0.647688 0.359974 0
M  V30 5070 H 470.628 1.89802 0.254463 0
M  V30 5071 H 468.933 2.86068 2.67717 0
M  V30 5072 H 470.63 3.17701 2.44677 0
M  V30 5073 H 467.22 4.07475 1.32899 0
M  V30 5074 H 471.404 4.8986 0.796933 0
M  V30 5075 H 466.66 6.11354 0.075035 0
M  V30 5076 H 470.834 6.94942 -0.450444 0
M  V30 5077 H 468.461 7.55793 -0.817358 0
M  V30 5078 N 470.036 -0.519951 1.48776 0
M  V30 5079 C 471.452 -0.849418 1.35119 0
M  V30 5080 C 471.652 -1.98077 0.36982 0
M  V30 5081 O 470.708 -2.51664 -0.205359 0
M  V30 5082 C 472.021 -1.20748 2.75391 0
M  V30 5083 C 473.569 -1.31679 2.83954 0
M  V30 5084 C 474.044 -1.70824 4.24951 0
M  V30 5085 N 475.535 -1.77908 4.27672 0
M  V30 5086 C 476.27 -2.09603 5.33717 0
M  V30 5087 N 475.766 -2.39652 6.5003 0
M  V30 5088 N 477.559 -2.10694 5.21119 0
M  V30 5089 H 469.71 0.226377 2.1119 0
M  V30 5090 H 471.973 0.0386519 0.947212 0
M  V30 5091 H 471.679 -0.449703 3.48813 0
M  V30 5092 H 471.553 -2.15534 3.09556 0
M  V30 5093 H 473.94 -2.06532 2.10781 0
M  V30 5094 H 474.021 -0.3499 2.53396 0
M  V30 5095 H 473.665 -0.965282 4.98643 0
M  V30 5096 H 473.595 -2.6858 4.52959 0
M  V30 5097 H 476.086 -1.56923 3.43779 0
M  V30 5098 H 476.399 -2.6297 7.26682 0
M  V30 5099 H 474.744 -2.37149 6.53288 0
M  V30 5100 H 477.935 -1.86682 4.29264 0
M  V30 5101 H 478.108 -2.35062 6.03863 0
M  V30 5102 N 471.514 -1.37532 -0.769588 0
M  V30 5103 C 472.739 -1.36231 -1.56384 0
M  V30 5104 C 473.164 0.0495849 -1.88035 0
M  V30 5105 O 472.522 1.02723 -1.49391 0
M  V30 5106 C 472.57 -2.20986 -2.84952 0
M  V30 5107 O 471.674 -1.61597 -3.79421 0
M  V30 5108 H 471.015 -0.465387 -0.473615 0
M  V30 5109 H 473.545 -1.81085 -0.952342 0
M  V30 5110 H 473.555 -2.34277 -3.34034 0
M  V30 5111 H 472.23 -3.23612 -2.61243 0
M  V30 5112 H 470.807 -1.57359 -3.38072 0
M  V30 5113 N 472.992 0.995999 -1.22138 0
M  V30 5114 C 474.24 1.73167 -1.042 0
M  V30 5115 C 474.561 1.90329 0.42423 0
M  V30 5116 O 473.831 1.4607 1.30539 0
M  V30 5117 H 472.411 0.641593 -0.38258 0
M  V30 5118 H 475.073 1.19974 -1.53598 0
M  V30 5119 H 474.169 2.72734 -1.51731 0
M  V30 5120 N 474.47 1.03057 1.19235 0
M  V30 5121 C 475.695 0.74757 1.93458 0
M  V30 5122 C 476.12 -0.687648 1.7508 0
M  V30 5123 O 475.478 -1.47499 1.05422 0
M  V30 5124 C 475.526 1.10604 3.43219 0
M  V30 5125 O 474.63 0.225671 4.11782 0
M  V30 5126 H 473.971 0.276047 0.603899 0
M  V30 5127 H 476.501 1.3777 1.51263 0
M  V30 5128 H 476.511 1.06366 3.93891 0
M  V30 5129 H 475.186 2.15165 3.55917 0
M  V30 5130 H 473.763 0.326795 3.71465 0
M  V30 5131 N 475.948 -1.35272 0.808662 0
M  V30 5132 C 477.173 -2.03477 0.401475 0
M  V30 5133 C 477.598 -1.60537 -0.980279 0
M  V30 5134 O 476.956 -0.78304 -1.63518 0
M  V30 5135 C 477.004 -3.57181 0.495354 0
M  V30 5136 O 476.108 -4.09474 -0.490397 0
M  V30 5137 H 475.449 -0.642561 0.167366 0
M  V30 5138 H 477.979 -1.72824 1.09512 0
M  V30 5139 H 477.989 -4.06356 0.365912 0
M  V30 5140 H 476.664 -3.87784 1.5032 0
M  V30 5141 H 475.241 -3.71516 -0.321023 0
M  V30 5142 N 477.426 -0.562348 -1.47226 0
M  V30 5143 C 478.842 -0.222492 -1.58042 0
M  V30 5144 C 479.042 1.27505 -1.56028 0
M  V30 5145 O 478.098 2.05555 -1.46641 0
M  V30 5146 C 479.411 -0.853694 -2.88327 0
M  V30 5147 C 480.959 -0.825397 -3.01921 0
M  V30 5148 C 481.434 -1.43576 -4.34914 0
M  V30 5149 N 482.925 -1.39918 -4.41562 0
M  V30 5150 C 483.66 -1.84103 -5.43041 0
M  V30 5151 N 483.156 -2.36167 -6.51304 0
M  V30 5152 N 484.949 -1.75142 -5.34118 0
M  V30 5153 H 477.1 -1.53525 -1.46778 0
M  V30 5154 H 479.363 -0.640527 -0.698877 0
M  V30 5155 H 479.069 -1.90635 -2.95552 0
M  V30 5156 H 478.943 -0.34977 -3.75575 0
M  V30 5157 H 481.33 0.218583 -2.94289 0
M  V30 5158 H 481.411 -1.36713 -2.16202 0
M  V30 5159 H 481.055 -2.47884 -4.43301 0
M  V30 5160 H 480.985 -0.869427 -5.19373 0
M  V30 5161 H 483.476 -1.0184 -3.63919 0
M  V30 5162 H 483.789 -2.67793 -7.24919 0
M  V30 5163 H 482.134 -2.40181 -6.52179 0
M  V30 5164 H 485.325 -1.34241 -4.48439 0
M  V30 5165 H 485.498 -2.09895 -6.13065 0
M  V30 5166 N 478.904 1.54736 -0.299062 0
M  V30 5167 C 480.15 2.00397 0.311244 0
M  V30 5168 C 480.483 1.18716 1.53688 0
M  V30 5169 O 479.758 0.263154 1.92712 0
M  V30 5170 C 480.041 3.53817 0.669761 0
M  V30 5171 C 479.894 4.46239 -0.564882 0
M  V30 5172 C 481.213 4.13856 1.49702 0
M  V30 5173 H 478.332 0.728493 0.111653 0
M  V30 5174 H 480.974 1.85506 -0.410774 0
M  V30 5175 H 479.124 3.66637 1.28491 0
M  V30 5176 H 480.796 4.45328 -1.20337 0
M  V30 5177 H 479.039 4.16916 -1.19849 0
M  V30 5178 H 479.71 5.5134 -0.269918 0
M  V30 5179 H 482.186 4.04461 0.977284 0
M  V30 5180 H 481.062 5.21365 1.71666 0
M  V30 5181 H 481.323 3.65608 2.48563 0
M  V30 5182 N 480.382 0.0267497 1.57577 0
M  V30 5183 C 481.312 -0.954308 2.13108 0
M  V30 5184 C 482.293 -1.34088 1.04663 0
M  V30 5185 O 483.478 -1.41992 1.32484 0
M  V30 5186 C 480.608 -2.23744 2.65624 0
M  V30 5187 C 479.562 -1.99168 3.78835 0
M  V30 5188 C 478.888 -3.33726 4.17769 0
M  V30 5189 C 480.188 -1.33277 5.0501 0
M  V30 5190 H 481.882 -0.491848 2.95332 0
M  V30 5191 H 479.428 -0.23514 1.42067 0
M  V30 5192 H 481.381 -2.92754 3.03106 0
M  V30 5193 H 480.105 -2.72151 1.80558 0
M  V30 5194 H 478.764 -1.32577 3.41788 0
M  V30 5195 H 478.412 -3.79888 3.29688 0
M  V30 5196 H 478.112 -3.18089 4.94058 0
M  V30 5197 H 479.636 -4.04008 4.57832 0
M  V30 5198 H 481.05 -1.92283 5.40093 0
M  V30 5199 H 479.447 -1.28045 5.8628 0
M  V30 5200 H 480.517 -0.305411 4.83937 0
M  V30 5201 N 481.861 -1.55662 -0.24637 0
M  V30 5202 C 483.11 -1.7672 -0.972254 0
M  V30 5203 C 483.423 -0.59078 -1.86465 0
M  V30 5204 O 484.629 -0.684391 -2.62732 0
M  V30 5205 C 483.085 -3.12869 -1.7788 0
M  V30 5206 C 482.693 -4.38161 -0.933768 0
M  V30 5207 C 484.437 -3.43265 -2.49738 0
M  V30 5208 C 482.344 -5.6534 -1.73623 0
M  V30 5209 H 481.274 -0.658795 -0.366749 0
M  V30 5210 H 483.925 -1.82092 -0.226902 0
M  V30 5211 H 482.307 -3.01606 -2.56612 0
M  V30 5212 H 483.481 -4.60413 -0.188736 0
M  V30 5213 H 481.796 -4.15102 -0.328488 0
M  V30 5214 H 484.393 -4.35501 -3.10231 0
M  V30 5215 H 484.736 -2.64614 -3.2138 0
M  V30 5216 H 485.269 -3.55746 -1.78016 0
M  V30 5217 H 482.008 -6.46814 -1.06354 0
M  V30 5218 H 481.528 -5.47188 -2.45653 0
M  V30 5219 H 483.207 -6.04616 -2.30323 0
M  V30 5220 N 483.339 0.512053 -1.4905 0
M  V30 5221 C 484.567 1.29116 -1.61669 0
M  V30 5222 C 484.982 1.86655 -0.283787 0
M  V30 5223 O 484.339 1.67293 0.729331 0
M  V30 5224 C 484.39 2.4293 -2.67707 0
M  V30 5225 O 484.111 1.87758 -3.95826 0
M  V30 5226 C 485.612 3.34476 -2.90931 0
M  V30 5227 H 482.832 0.392009 -0.544583 0
M  V30 5228 H 485.376 0.615881 -1.95006 0
M  V30 5229 H 483.531 3.06308 -2.37179 0
M  V30 5230 H 483.945 2.62393 -4.54148 0
M  V30 5231 H 485.419 4.10642 -3.68886 0
M  V30 5232 H 485.896 3.90801 -2.00427 0
M  V30 5233 H 486.502 2.76874 -3.22832 0
M  V30 5234 N 484.817 1.37938 0.762283 0
M  V30 5235 C 486.045 1.36883 1.55147 0
M  V30 5236 C 486.46 -0.0435348 1.8875 0
M  V30 5237 O 485.817 -1.00786 1.52146 0
M  V30 5238 C 485.868 2.21624 2.85596 0
M  V30 5239 O 485.589 3.57358 2.5343 0
M  V30 5240 C 487.09 2.28653 3.7978 0
M  V30 5241 H 484.31 0.468521 0.480343 0
M  V30 5242 H 486.854 1.81404 0.944079 0
M  V30 5243 H 485.009 1.80588 3.42734 0
M  V30 5244 H 485.423 4.01883 3.37032 0
M  V30 5245 H 486.897 2.9225 4.68288 0
M  V30 5246 H 487.374 1.29767 4.19592 0
M  V30 5247 H 487.98 2.70043 3.28568 0
M  V30 5248 N 486.295 -0.989507 1.22664 0
M  V30 5249 C 487.572 -1.70326 0.961688 0
M  V30 5250 C 487.952 -2.04537 -0.522279 0
M  V30 5251 O 487.3 -1.73136 -1.49118 0
M  V30 5252 C 487.51 -2.95135 1.86269 0
M  V30 5253 C 488.858 -3.67842 2.12078 0
M  V30 5254 O 489.882 -3.0515 1.83745 0
M  V30 5255 O 488.741 -4.80644 2.60083 0
M  V30 5256 H 485.835 -0.743589 0.361946 0
M  V30 5257 H 488.381 -1.04555 1.33665 0
M  V30 5258 H 487.153 -2.66382 2.8663 0
M  V30 5259 H 486.776 -3.68645 1.48952 0
M  V30 5260 N 487.773 -1.03688 -1.18687 0
M  V30 5261 C 488.703 -0.645407 -2.24403 0
M  V30 5262 C 489.684 0.349511 -1.66471 0
M  V30 5263 O 490.869 0.230453 -1.92828 0
M  V30 5264 C 487.999 -0.00365337 -3.473 0
M  V30 5265 C 486.953 -0.921705 -4.17958 0
M  V30 5266 C 486.279 -0.144629 -5.34504 0
M  V30 5267 C 487.579 -2.23909 -4.71871 0
M  V30 5268 H 489.273 -1.52917 -2.57404 0
M  V30 5269 H 486.819 -0.736711 -1.23728 0
M  V30 5270 H 488.772 0.281908 -4.20456 0
M  V30 5271 H 487.496 0.914963 -3.13522 0
M  V30 5272 H 486.155 -1.19159 -3.46694 0
M  V30 5273 H 485.803 0.776274 -4.96974 0
M  V30 5274 H 485.503 -0.756206 -5.82714 0
M  V30 5275 H 487.027 0.134004 -6.10453 0
M  V30 5276 H 488.441 -2.0145 -5.36741 0
M  V30 5277 H 486.838 -2.8033 -5.30599 0
M  V30 5278 H 487.908 -2.88822 -3.895 0
M  V30 5279 N 489.251 1.34841 -0.815825 0
M  V30 5280 C 490.181 2.32187 -0.247298 0
M  V30 5281 C 491.162 1.5791 0.632344 0
M  V30 5282 O 492.347 1.8593 0.560698 0
M  V30 5283 C 489.477 3.42122 0.597466 0
M  V30 5284 C 488.431 4.27602 -0.184446 0
M  V30 5285 C 487.757 5.28942 0.782609 0
M  V30 5286 C 489.057 5.03502 -1.38865 0
M  V30 5287 H 490.751 2.79985 -1.06061 0
M  V30 5288 H 488.297 1.34611 -0.511461 0
M  V30 5289 H 490.25 4.09232 1.00533 0
M  V30 5290 H 488.974 2.92956 1.44376 0
M  V30 5291 H 487.633 3.62085 -0.573592 0
M  V30 5292 H 487.281 4.7604 1.62466 0
M  V30 5293 H 486.981 5.87008 0.263695 0
M  V30 5294 H 488.505 5.98922 1.18848 0
M  V30 5295 H 489.919 5.63506 -1.05518 0
M  V30 5296 H 488.316 5.71108 -1.8427 0
M  V30 5297 H 489.386 4.33608 -2.17054 0
M  V30 5298 N 490.729 0.570148 1.46925 0
M  V30 5299 C 491.692 -0.159933 2.28641 0
M  V30 5300 C 492.692 -0.830638 1.37685 0
M  V30 5301 O 493.882 -0.684516 1.60187 0
M  V30 5302 C 491.014 -1.2354 3.17727 0
M  V30 5303 H 492.207 0.558035 2.94662 0
M  V30 5304 H 489.76 0.327603 1.52828 0
M  V30 5305 H 490.495 -1.98535 2.56426 0
M  V30 5306 H 490.28 -0.759125 3.84681 0
M  V30 5307 H 491.77 -1.74782 3.79264 0
M  V30 5308 N 492.207 -1.54576 0.307264 0
M  V30 5309 C 493.623 -1.59534 -0.0459251 0
M  V30 5310 C 493.823 -1.32414 -1.51884 0
M  V30 5311 O 492.879 -1.1006 -2.27251 0
M  V30 5312 C 494.192 -2.98566 0.357649 0
M  V30 5313 C 495.74 -3.11491 0.306937 0
M  V30 5314 C 496.215 -4.52842 0.685427 0
M  V30 5315 N 497.706 -4.58782 0.638203 0
M  V30 5316 C 498.441 -5.66238 0.903458 0
M  V30 5317 N 497.937 -6.81703 1.23501 0
M  V30 5318 N 499.73 -5.55937 0.830102 0
M  V30 5319 H 491.881 -1.70464 1.26712 0
M  V30 5320 H 494.144 -0.79647 0.514139 0
M  V30 5321 H 493.85 -3.23356 1.38325 0
M  V30 5322 H 493.724 -3.76117 -0.285565 0
M  V30 5323 H 496.111 -2.86446 -0.709424 0
M  V30 5324 H 496.192 -2.36081 0.984861 0
M  V30 5325 H 495.836 -4.78618 1.69963 0
M  V30 5326 H 495.766 -5.26598 -0.0146346 0
M  V30 5327 H 498.257 -3.75849 0.393138 0
M  V30 5328 H 498.57 -7.59582 1.42322 0
M  V30 5329 H 496.915 -6.8324 1.27311 0
M  V30 5330 H 500.106 -4.64608 0.570693 0
M  V30 5331 H 500.279 -6.39597 1.04019 0
M  V30 5332 N 493.685 -0.035106 -1.57561 0
M  V30 5333 C 494.933 0.64096 -1.91667 0
M  V30 5334 C 495.254 1.72323 -0.912681 0
M  V30 5335 O 494.524 1.95849 0.0449089 0
M  V30 5336 H 493.104 0.239743 -0.707483 0
M  V30 5337 H 495.766 -0.084321 -1.94718 0
M  V30 5338 H 494.862 1.08987 -2.92452 0
M  V30 5339 N 495.163 1.55791 0.238111 0
M  V30 5340 C 496.412 1.77234 0.962868 0
M  V30 5341 C 496.725 0.600661 1.86149 0
M  V30 5342 O 497.931 0.698315 2.62366 0
M  V30 5343 C 496.387 3.13808 1.76218 0
M  V30 5344 C 495.995 4.3865 0.910518 0
M  V30 5345 C 497.739 3.44585 2.47914 0
M  V30 5346 C 495.646 5.66252 1.70623 0
M  V30 5347 H 494.576 0.660731 0.36325 0
M  V30 5348 H 497.227 1.8221 0.217242 0
M  V30 5349 H 495.609 3.02963 2.55009 0
M  V30 5350 H 496.783 4.60507 0.164316 0
M  V30 5351 H 495.098 4.15271 0.30647 0
M  V30 5352 H 497.695 4.3714 3.07917 0
M  V30 5353 H 498.038 2.66314 3.19973 0
M  V30 5354 H 498.571 3.56685 1.76127 0
M  V30 5355 H 495.31 6.47369 1.02923 0
M  V30 5356 H 494.83 5.48483 2.42748 0
M  V30 5357 H 496.509 6.05829 2.27114 0
M  V30 5358 N 496.642 -0.504142 1.49319 0
M  V30 5359 C 497.919 -1.26548 1.49147 0
M  V30 5360 C 498.299 -2.09977 0.21744 0
M  V30 5361 O 497.647 -2.14028 -0.800269 0
M  V30 5362 C 497.857 -2.12489 2.76857 0
M  V30 5363 C 499.205 -2.7178 3.26222 0
M  V30 5364 O 500.229 -2.22758 2.77952 0
M  V30 5365 O 499.088 -3.61015 4.10281 0
M  V30 5366 H 496.182 -0.572495 0.596806 0
M  V30 5367 H 498.728 -0.51867 1.61579 0
M  V30 5368 H 497.5 -1.50796 3.61077 0
M  V30 5369 H 497.123 -2.94368 2.6727 0
M  V30 5370 N 498.12 -1.38341 -0.754957 0
M  V30 5371 C 499.366 -1.34672 -1.51628 0
M  V30 5372 C 499.699 0.0636036 -1.94096 0
M  V30 5373 O 498.974 1.0245 -1.6533 0
M  V30 5374 C 499.257 -2.30116 -2.76981 0
M  V30 5375 C 499.11 -3.80003 -2.4066 0
M  V30 5376 C 500.429 -2.23715 -3.78998 0
M  V30 5377 H 497.548 -0.490517 -0.550056 0
M  V30 5378 H 500.19 -1.69178 -0.864807 0
M  V30 5379 H 498.34 -2.00821 -3.3257 0
M  V30 5380 H 500.012 -4.19966 -1.90856 0
M  V30 5381 H 498.255 -3.97751 -1.73137 0
M  V30 5382 H 498.926 -4.42244 -3.30339 0
M  V30 5383 H 501.402 -2.49574 -3.32945 0
M  V30 5384 H 500.278 -2.9261 -4.64403 0
M  V30 5385 H 500.539 -1.23554 -4.24484 0
M  V30 5386 N 499.598 0.982988 -1.23187 0
M  V30 5387 C 500.53 2.07729 -0.968572 0
M  V30 5388 C 501.543 1.62702 0.0564821 0
M  V30 5389 O 502.732 1.77603 -0.178733 0
M  V30 5390 C 499.832 3.36071 -0.436974 0
M  V30 5391 C 499.005 4.10081 -1.52159 0
M  V30 5392 C 498.064 5.16701 -0.99532 0
M  V30 5393 O 497.09 5.43727 -1.68373 0
M  V30 5394 N 498.292 5.80226 0.178192 0
M  V30 5395 H 501.057 2.30894 -1.9107 0
M  V30 5396 H 498.618 1.14949 -1.1401 0
M  V30 5397 H 500.61 4.04639 -0.0700051 0
M  V30 5398 H 499.18 3.09893 0.410509 0
M  V30 5399 H 498.4 3.36004 -2.06144 0
M  V30 5400 H 499.688 4.56295 -2.25105 0
M  V30 5401 H 499.086 5.60651 0.754096 0
M  V30 5402 H 497.643 6.49982 0.486449 0
M  V30 5403 N 501.076 1.04316 1.18135 0
M  V30 5404 C 502.008 0.594444 2.21357 0
M  V30 5405 C 503.021 -0.337215 1.59269 0
M  V30 5406 O 504.21 -0.131337 1.78016 0
M  V30 5407 C 501.31 -0.151251 3.38562 0
M  V30 5408 C 500.483 0.788907 4.30227 0
M  V30 5409 C 499.542 0.0860572 5.2613 0
M  V30 5410 O 498.568 0.717302 5.64662 0
M  V30 5411 N 499.77 -1.17969 5.68387 0
M  V30 5412 H 502.535 1.48227 2.60478 0
M  V30 5413 H 500.096 0.92396 1.32946 0
M  V30 5414 H 502.088 -0.631352 3.99745 0
M  V30 5415 H 500.658 -0.940639 2.98112 0
M  V30 5416 H 499.878 1.44882 3.6661 0
M  V30 5417 H 501.166 1.42738 4.88368 0
M  V30 5418 H 500.564 -1.71302 5.3914 0
M  V30 5419 H 499.121 -1.60402 6.31755 0
M  V30 5420 N 502.554 -1.34406 0.822964 0
M  V30 5421 C 503.8 -1.98578 0.411666 0
M  V30 5422 C 504.133 -1.65093 -1.02264 0
M  V30 5423 O 503.408 -0.92258 -1.71227 0
M  V30 5424 C 503.691 -3.54823 0.614235 0
M  V30 5425 C 503.544 -3.9805 2.09466 0
M  V30 5426 C 504.863 -4.40071 0.050221 0
M  V30 5427 H 501.982 -0.721355 0.151047 0
M  V30 5428 H 504.624 -1.59301 1.03554 0
M  V30 5429 H 502.774 -3.88411 0.0831774 0
M  V30 5430 H 504.446 -3.74795 2.68936 0
M  V30 5431 H 502.689 -3.4836 2.5851 0
M  V30 5432 H 503.36 -5.06819 2.18721 0
M  V30 5433 H 505.836 -4.13037 0.503953 0
M  V30 5434 H 504.712 -5.48452 0.221759 0
M  V30 5435 H 504.973 -4.29576 -1.04482 0
M  V30 5436 N 504.032 -0.577932 -1.46621 0
M  V30 5437 C 505.257 -0.0652536 -2.07297 0
M  V30 5438 C 505.682 1.22828 -1.4246 0
M  V30 5439 O 505.04 1.74075 -0.506718 0
M  V30 5440 C 505.088 0.0920589 -3.60482 0
M  V30 5441 O 504.192 1.14972 -3.96049 0
M  V30 5442 H 503.533 -0.06065 -0.661224 0
M  V30 5443 H 506.063 -0.799515 -1.88332 0
M  V30 5444 H 506.073 0.299741 -4.06897 0
M  V30 5445 H 504.748 -0.852612 -4.07067 0
M  V30 5446 H 503.325 0.920879 -3.61351 0
M  V30 5447 N 505.51 1.54411 -0.315457 0
M  V30 5448 C 506.44 2.27002 0.547039 0
M  V30 5449 C 507.421 1.27492 1.12605 0
M  V30 5450 O 508.606 1.5629 1.15269 0
M  V30 5451 C 505.736 3.02171 1.71201 0
M  V30 5452 C 504.69 4.0895 1.26268 0
M  V30 5453 C 504.016 4.71915 2.51396 0
M  V30 5454 C 505.316 5.20891 0.383419 0
M  V30 5455 H 507.01 2.99343 -0.0584517 0
M  V30 5456 H 504.556 1.4397 -0.0295527 0
M  V30 5457 H 506.509 3.51681 2.32161 0
M  V30 5458 H 505.233 2.27433 2.34397 0
M  V30 5459 H 503.892 3.60312 0.676062 0
M  V30 5460 H 503.54 3.93801 3.12937 0
M  V30 5461 H 503.24 5.44039 2.22026 0
M  V30 5462 H 504.764 5.24195 3.13133 0
M  V30 5463 H 506.178 5.66206 0.899082 0
M  V30 5464 H 504.575 5.99821 0.182857 0
M  V30 5465 H 505.645 4.81324 -0.587821 0
M  V30 5466 N 506.988 0.0434614 1.5754 0
M  V30 5467 C 508.234 -0.632971 1.92669 0
M  V30 5468 C 508.567 -1.70947 0.921446 0
M  V30 5469 O 507.842 -1.94426 -0.0537202 0
M  V30 5470 C 508.125 -1.23619 3.38216 0
M  V30 5471 C 507.978 -0.168274 4.49485 0
M  V30 5472 C 509.297 -2.15008 3.84005 0
M  V30 5473 H 506.416 -0.228629 0.700641 0
M  V30 5474 H 509.058 0.103651 1.89717 0
M  V30 5475 H 507.208 -1.864 3.40863 0
M  V30 5476 H 508.88 0.463196 4.58969 0
M  V30 5477 H 507.123 0.504581 4.30855 0
M  V30 5478 H 507.794 -0.630218 5.48391 0
M  V30 5479 H 510.27 -1.62198 3.83185 0
M  V30 5480 H 509.146 -2.54161 4.86511 0
M  V30 5481 H 509.407 -3.04707 3.20322 0
M  V30 5482 N 508.466 -1.55915 -0.229846 0
M  V30 5483 C 509.715 -1.77742 -0.953455 0
M  V30 5484 C 510.028 -0.610524 -1.85828 0
M  V30 5485 O 511.234 -0.712219 -2.61992 0
M  V30 5486 C 509.69 -3.14738 -1.74551 0
M  V30 5487 C 509.298 -4.39126 -0.887242 0
M  V30 5488 C 511.042 -3.45895 -2.46084 0
M  V30 5489 C 508.949 -5.67149 -1.67617 0
M  V30 5490 H 507.879 -0.662648 -0.359741 0
M  V30 5491 H 510.53 -1.82322 -0.207576 0
M  V30 5492 H 508.912 -3.04311 -2.53399 0
M  V30 5493 H 510.086 -4.60588 -0.139892 0
M  V30 5494 H 508.401 -4.15427 -0.284443 0
M  V30 5495 H 510.998 -4.38767 -3.05594 0
M  V30 5496 H 511.341 -2.68007 -3.18556 0
M  V30 5497 H 511.874 -3.57614 -1.74233 0
M  V30 5498 H 508.613 -6.47906 -0.994881 0
M  V30 5499 H 508.133 -5.49763 -2.39836 0
M  V30 5500 H 509.812 -6.07025 -2.23898 0
M  V30 5501 N 509.944 0.496216 -1.49584 0
M  V30 5502 C 510.892 1.61805 -1.67098 0
M  V30 5503 C 511.886 1.60667 -0.536877 0
M  V30 5504 O 513.092 1.65118 -0.716654 0
M  V30 5505 H 509.467 0.53646 -0.526986 0
M  V30 5506 H 511.438 1.44187 -2.61252 0
M  V30 5507 C 510.187 2.99912 -1.75921 0
M  V30 5508 H 509.51 3.01496 -2.62565 0
M  V30 5509 H 510.95 3.77931 -1.92209 0
M  V30 5510 C 509.409 3.33092 -0.505088 0
M  V30 5511 O 509.939 4.00019 0.367085 0
M  V30 5512 N 508.145 2.88278 -0.366599 0
M  V30 5513 H 507.692 2.33989 -1.07735 0
M  V30 5514 H 507.65 3.10846 0.47142 0
M  V30 5515 N 511.423 1.38739 0.74761 0
M  V30 5516 C 512.653 1.3832 1.53464 0
M  V30 5517 C 513.061 -0.0273464 1.8918 0
M  V30 5518 O 512.404 -1.00588 1.53713 0
M  V30 5519 C 512.466 2.18007 2.85855 0
M  V30 5520 C 512.13 3.66762 2.72644 0
M  V30 5521 C 513.127 4.60124 2.42037 0
M  V30 5522 C 510.812 4.10193 2.89909 0
M  V30 5523 C 512.806 5.94897 2.28859 0
M  V30 5524 C 510.493 5.45045 2.7635 0
M  V30 5525 C 511.491 6.37211 2.45869 0
M  V30 5526 O 511.179 7.69581 2.3238 0
M  V30 5527 H 510.911 0.474718 0.481268 0
M  V30 5528 H 513.465 1.83012 0.932518 0
M  V30 5529 H 511.695 1.68043 3.48279 0
M  V30 5530 H 513.384 2.09921 3.47402 0
M  V30 5531 H 514.15 4.27874 2.28361 0
M  V30 5532 H 510.029 3.38797 3.1263 0
M  V30 5533 H 513.573 6.66802 2.04989 0
M  V30 5534 H 509.47 5.76889 2.89601 0
M  V30 5535 H 510.238 7.80169 2.47546 0
M  V30 5536 N 512.901 -0.976442 1.23707 0
M  V30 5537 C 514.178 -1.69296 0.979699 0
M  V30 5538 C 514.558 -2.0508 -0.500555 0
M  V30 5539 O 513.906 -1.74708 -1.47273 0
M  V30 5540 C 514.116 -2.93143 1.89389 0
M  V30 5541 C 515.464 -3.65572 2.15968 0
M  V30 5542 O 516.488 -3.03184 1.86971 0
M  V30 5543 O 515.347 -4.77859 2.65167 0
M  V30 5544 H 512.441 -0.739708 0.369812 0
M  V30 5545 H 514.987 -1.03131 1.34767 0
M  V30 5546 H 513.759 -2.63327 2.89439 0
M  V30 5547 H 513.382 -3.67044 1.52854 0
M  V30 5548 N 514.379 -1.04941 -1.1758 0
M  V30 5549 C 515.309 -0.669172 -2.23706 0
M  V30 5550 C 516.29 0.331835 -1.66832 0
M  V30 5551 O 517.475 0.209988 -1.93061 0
M  V30 5552 C 514.605 -0.0404889 -3.47276 0
M  V30 5553 C 513.559 -0.965983 -4.16957 0
M  V30 5554 C 512.885 -0.201312 -5.34321 0
M  V30 5555 C 514.185 -2.28902 -4.69469 0
M  V30 5556 H 515.879 -1.55639 -2.55767 0
M  V30 5557 H 513.425 -0.749793 -1.22939 0
M  V30 5558 H 515.378 0.237298 -4.20731 0
M  V30 5559 H 514.102 0.881658 -3.14475 0
M  V30 5560 H 512.761 -1.22829 -3.45411 0
M  V30 5561 H 512.409 0.723519 -4.97769 0
M  V30 5562 H 512.109 -0.817968 -5.81879 0
M  V30 5563 H 513.633 0.0692499 -6.10561 0
M  V30 5564 H 515.047 -2.07132 -5.34574 0
M  V30 5565 H 513.444 -2.85942 -5.27596 0
M  V30 5566 H 514.514 -2.92937 -3.86414 0
M  V30 5567 N 515.857 1.33968 -0.830081 0
M  V30 5568 C 517.268 1.80439 -0.479455 0
M  V30 5569 C 517.619 1.68756 1.00079 0
M  V30 5570 O 516.744 1.23171 1.77927 0
M  V30 5571 C 517.339 3.27611 -0.863505 0
M  V30 5572 C 515.898 3.72133 -0.565145 0
M  V30 5573 C 515.045 2.55549 -1.07657 0
M  V30 5574 H 517.996 1.21614 -1.0196 0
M  V30 5575 H 518.017 3.8012 -0.170083 0
M  V30 5576 H 517.529 3.36082 -1.94089 0
M  V30 5577 H 515.63 3.69196 0.502536 0
M  V30 5578 H 515.743 4.65963 -1.11422 0
M  V30 5579 H 514.107 2.49788 -0.497807 0
M  V30 5580 H 514.89 2.66786 -2.16055 0
M  V30 5581 N 517.335 0.585699 1.46312 0
M  V30 5582 C 518.563 0.0781299 2.06752 0
M  V30 5583 C 518.978 -1.22812 1.43396 0
M  V30 5584 O 518.335 -1.74318 0.540314 0
M  V30 5585 C 518.386 -0.0911927 3.61385 0
M  V30 5586 O 518.107 1.16336 4.22371 0
M  V30 5587 C 519.608 -0.632765 4.38761 0
M  V30 5588 H 516.828 0.0588188 0.668417 0
M  V30 5589 H 519.372 0.807218 1.87894 0
M  V30 5590 H 517.527 -0.770514 3.7966 0
M  V30 5591 H 517.941 0.979082 5.15281 0
M  V30 5592 H 519.415 -0.70041 5.47538 0
M  V30 5593 H 519.892 -1.65039 4.07012 0
M  V30 5594 H 520.498 0.0117856 4.25298 0
M  V30 5595 N 518.813 -1.54241 0.323641 0
M  V30 5596 C 519.761 -2.25813 -0.557804 0
M  V30 5597 C 520.755 -1.27225 -1.11849 0
M  V30 5598 O 521.961 -1.45001 -1.06652 0
M  V30 5599 H 518.336 -0.72532 -0.198532 0
M  V30 5600 H 520.307 -2.98322 0.0681112 0
M  V30 5601 C 519.056 -3.02913 -1.70701 0
M  V30 5602 H 518.379 -3.78593 -1.28482 0
M  V30 5603 H 519.819 -3.56238 -2.29935 0
M  V30 5604 C 518.278 -2.11217 -2.62467 0
M  V30 5605 O 518.808 -1.69508 -3.64184 0
M  V30 5606 N 517.014 -1.76704 -2.30703 0
M  V30 5607 H 516.561 -2.1082 -1.48029 0
M  V30 5608 H 516.519 -1.15631 -2.92364 0
M  V30 5609 N 520.291 -0.0518155 -1.57515 0
M  V30 5610 C 521.707 0.304735 -1.56664 0
M  V30 5611 C 521.907 1.71395 -1.05953 0
M  V30 5612 O 520.963 2.42123 -0.716414 0
M  V30 5613 C 522.276 0.132614 -3.00407 0
M  V30 5614 C 523.824 0.20367 -3.12337 0
M  V30 5615 C 524.299 0.0600706 -4.57961 0
M  V30 5616 N 525.79 0.116326 -4.63054 0
M  V30 5617 C 526.525 0.0293363 -5.73392 0
M  V30 5618 N 526.021 -0.110038 -6.92713 0
M  V30 5619 N 527.814 0.0849651 -5.62036 0
M  V30 5620 H 519.965 -0.973056 -1.888 0
M  V30 5621 H 522.228 -0.377781 -0.869474 0
M  V30 5622 H 521.934 -0.839019 -3.41546 0
M  V30 5623 H 521.808 0.893376 -3.66468 0
M  V30 5624 H 524.195 1.16578 -2.71097 0
M  V30 5625 H 524.276 -0.587857 -2.48954 0
M  V30 5626 H 523.92 -0.898715 -4.99886 0
M  V30 5627 H 523.85 0.87075 -5.19351 0
M  V30 5628 H 526.341 0.22327 -3.7724 0
M  V30 5629 H 526.654 -0.169104 -7.72615 0
M  V30 5630 H 524.999 -0.145132 -6.94848 0
M  V30 5631 H 528.19 0.192411 -4.67704 0
M  V30 5632 H 528.363 0.0137131 -6.47999 0
M  V30 5633 N 521.769 1.56035 0.221574 0
M  V30 5634 C 522.679 1.95581 1.29558 0
M  V30 5635 C 523.695 0.859639 1.51282 0
M  V30 5636 O 524.871 1.16321 1.64413 0
M  V30 5637 C 521.936 2.26447 2.62531 0
M  V30 5638 C 520.997 3.49632 2.4911 0
M  V30 5639 C 520.23 3.79017 3.75742 0
M  V30 5640 O 520.453 3.10077 4.78757 0
M  V30 5641 O 519.387 4.72507 3.72855 0
M  V30 5642 H 523.213 2.8711 0.990035 0
M  V30 5643 H 520.798 1.43244 0.424434 0
M  V30 5644 H 522.68 2.47494 3.41064 0
M  V30 5645 H 521.355 1.38092 2.92766 0
M  V30 5646 H 520.262 3.33864 1.68777 0
M  V30 5647 H 521.595 4.3837 2.23814 0
M  V30 5648 N 523.247 -0.488276 1.49845 0
M  V30 5649 C 524.195 -1.60917 1.67954 0
M  V30 5650 C 525.189 -1.6038 0.54539 0
M  V30 5651 O 526.395 -1.64736 0.7254 0
M  V30 5652 H 522.77 -0.533658 0.529824 0
M  V30 5653 H 524.741 -1.428 2.62013 0
M  V30 5654 C 523.49 -2.98975 1.77509 0
M  V30 5655 H 522.813 -3.00099 2.6416 0
M  V30 5656 H 524.253 -3.76906 1.9421 0
M  V30 5657 C 522.712 -3.3282 0.522745 0
M  V30 5658 O 523.242 -4.00208 -0.345866 0
M  V30 5659 N 521.448 -2.8808 0.381882 0
M  V30 5660 H 520.995 -2.33415 1.08974 0
M  V30 5661 H 520.953 -3.11091 -0.454929 0
M  V30 5662 N 524.725 -1.39134 -0.740242 0
M  V30 5663 C 525.955 -1.39132 -1.52728 0
M  V30 5664 C 526.363 0.0173133 -1.89192 0
M  V30 5665 O 525.706 0.997715 -1.54244 0
M  V30 5666 C 525.768 -2.1952 -2.84695 0
M  V30 5667 C 525.432 -3.68203 -2.70695 0
M  V30 5668 C 526.429 -4.61401 -2.39593 0
M  V30 5669 C 524.114 -4.11724 -2.8773 0
M  V30 5670 C 526.108 -5.96102 -2.25701 0
M  V30 5671 C 523.795 -5.46503 -2.73456 0
M  V30 5672 C 524.793 -6.38506 -2.42486 0
M  V30 5673 O 524.481 -7.70803 -2.28295 0
M  V30 5674 H 524.213 -0.477263 -0.478744 0
M  V30 5675 H 526.767 -1.83504 -0.922799 0
M  V30 5676 H 524.997 -1.69888 -3.47383 0
M  V30 5677 H 526.686 -2.1176 -3.46284 0
M  V30 5678 H 527.452 -4.29079 -2.26088 0
M  V30 5679 H 523.331 -3.4045 -3.10829 0
M  V30 5680 H 526.875 -6.6788 -2.0145 0
M  V30 5681 H 522.772 -5.78417 -2.86538 0
M  V30 5682 H 523.54 -7.8147 -2.43405 0
M  V30 5683 N 526.204 0.969867 -1.24223 0
M  V30 5684 C 527.453 1.70687 -1.07466 0
M  V30 5685 C 527.766 1.91736 0.386861 0
M  V30 5686 O 528.972 2.62986 0.674581 0
M  V30 5687 C 527.428 3.07217 -1.87472 0
M  V30 5688 C 527.036 2.94018 -3.3802 0
M  V30 5689 C 528.78 3.84804 -1.79237 0
M  V30 5690 C 526.687 4.25844 -4.10379 0
M  V30 5691 H 525.617 0.640067 -0.398536 0
M  V30 5692 H 528.268 1.08092 -1.48285 0
M  V30 5693 H 526.65 3.70628 -1.39466 0
M  V30 5694 H 527.824 2.39632 -3.9359 0
M  V30 5695 H 526.139 2.29898 -3.47183 0
M  V30 5696 H 528.736 4.82417 -2.30603 0
M  V30 5697 H 529.079 4.09356 -0.757197 0
M  V30 5698 H 529.612 3.28115 -2.24912 0
M  V30 5699 H 526.351 4.06486 -5.14246 0
M  V30 5700 H 525.871 4.80054 -3.59594 0
M  V30 5701 H 527.55 4.94475 -4.17257 0
M  V30 5702 N 527.682 1.05563 1.17022 0
M  V30 5703 C 528.632 0.630007 2.19123 0
M  V30 5704 C 529.616 -0.335472 1.57364 0
M  V30 5705 O 530.808 -0.1521 1.76345 0
M  V30 5706 C 527.937 0.0101676 3.43298 0
M  V30 5707 C 527.023 0.999698 4.12149 0
M  V30 5708 N 527.414 2.17251 4.56766 0
M  V30 5709 C 525.712 0.829 4.38228 0
M  V30 5710 C 526.413 2.79883 5.09942 0
M  V30 5711 N 525.389 2.07656 5.02374 0
M  V30 5712 H 529.191 1.52353 2.51328 0
M  V30 5713 H 526.705 0.926288 1.33393 0
M  V30 5714 H 528.702 -0.312541 4.15727 0
M  V30 5715 H 527.362 -0.878707 3.12584 0
M  V30 5716 H 528.373 2.55067 4.50734 0
M  V30 5717 H 525.05 -0.00850974 4.17499 0
M  V30 5718 H 526.44 3.79362 5.54558 0
M  V30 5719 N 529.16 -1.33526 0.837174 0
M  V30 5720 C 530.576 -1.50727 0.524743 0
M  V30 5721 C 530.776 -1.77792 -0.948279 0
M  V30 5722 O 529.832 -1.83719 -1.73216 0
M  V30 5723 C 531.145 -2.66299 1.39661 0
M  V30 5724 C 532.693 -2.80183 1.39521 0
M  V30 5725 C 533.168 -3.98815 2.25189 0
M  V30 5726 N 534.659 -4.06047 2.2289 0
M  V30 5727 C 535.394 -4.97032 2.85915 0
M  V30 5728 N 534.89 -5.93143 3.57985 0
M  V30 5729 N 536.683 -4.90015 2.75394 0
M  V30 5730 H 528.834 -1.1422 1.79074 0
M  V30 5731 H 531.097 -0.561399 0.763894 0
M  V30 5732 H 530.803 -2.52974 2.4433 0
M  V30 5733 H 530.677 -3.61663 1.07145 0
M  V30 5734 H 533.064 -2.92942 0.356253 0
M  V30 5735 H 533.145 -1.85586 1.76044 0
M  V30 5736 H 532.789 -3.86817 3.29143 0
M  V30 5737 H 532.719 -4.92654 1.86009 0
M  V30 5738 H 535.21 -3.37262 1.70478 0
M  V30 5739 H 535.523 -6.59227 4.03286 0
M  V30 5740 H 533.868 -5.93223 3.62093 0
M  V30 5741 H 537.059 -4.13894 2.18654 0
M  V30 5742 H 537.232 -5.60724 3.24796 0
M  V30 5743 N 530.638 -0.59345 -1.46 0
M  V30 5744 C 531.887 -0.0808084 -2.01538 0
M  V30 5745 C 532.2 1.29112 -1.46934 0
M  V30 5746 O 533.406 1.8957 -1.94359 0
M  V30 5747 C 531.862 -0.0938311 -3.59778 0
M  V30 5748 C 531.47 -1.46474 -4.23379 0
M  V30 5749 C 533.214 0.364306 -4.22934 0
M  V30 5750 C 531.121 -1.4349 -5.73729 0
M  V30 5751 H 530.051 -0.0264407 -0.753536 0
M  V30 5752 H 532.702 -0.746689 -1.67621 0
M  V30 5753 H 531.084 0.638427 -3.9082 0
M  V30 5754 H 532.258 -2.21758 -4.03931 0
M  V30 5755 H 530.573 -1.86379 -3.7236 0
M  V30 5756 H 533.17 0.405584 -5.3316 0
M  V30 5757 H 533.513 1.38409 -3.92618 0
M  V30 5758 H 534.046 -0.31423 -3.96557 0
M  V30 5759 H 530.785 -2.43184 -6.08722 0
M  V30 5760 H 530.305 -0.724431 -5.95409 0
M  V30 5761 H 531.984 -1.15243 -6.36654 0
M  V30 5762 N 532.116 1.54067 -0.331816 0
M  V30 5763 C 533.364 2.00319 0.267739 0
M  V30 5764 C 533.685 1.22148 1.52003 0
M  V30 5765 O 532.955 0.325494 1.93177 0
M  V30 5766 H 531.535 0.740014 0.101922 0
M  V30 5767 H 534.197 1.89628 -0.450267 0
M  V30 5768 H 533.293 3.07765 0.518385 0
M  V30 5769 N 533.594 0.0601682 1.57485 0
M  V30 5770 C 535.01 -0.296422 1.56823 0
M  V30 5771 C 535.21 -1.70831 1.0686 0
M  V30 5772 O 534.266 -2.4174 0.729245 0
M  V30 5773 C 535.579 -0.116681 3.00474 0
M  V30 5774 C 537.127 -0.187103 3.1244 0
M  V30 5775 C 537.602 -0.035783 4.57986 0
M  V30 5776 N 539.093 -0.0917676 4.63109 0
M  V30 5777 C 539.828 0.00107251 5.734 0
M  V30 5778 N 539.324 0.146773 6.92645 0
M  V30 5779 N 541.117 -0.0551577 5.62073 0
M  V30 5780 H 533.268 0.983055 1.88281 0
M  V30 5781 H 535.531 0.382386 0.867459 0
M  V30 5782 H 535.237 0.85712 3.41096 0
M  V30 5783 H 535.111 -0.873929 3.66936 0
M  V30 5784 H 537.498 -1.15138 2.71712 0
M  V30 5785 H 537.579 0.601052 2.48638 0
M  V30 5786 H 537.223 0.925212 4.99402 0
M  V30 5787 H 537.153 -0.843196 5.19806 0
M  V30 5788 H 539.644 -0.203261 3.77353 0
M  V30 5789 H 539.957 0.210076 7.72514 0
M  V30 5790 H 538.302 0.181979 6.94762 0
M  V30 5791 H 541.493 -0.167605 4.678 0
M  V30 5792 H 541.666 0.020652 6.47997 0
M  V30 5793 N 535.072 -1.5615 -0.213296 0
M  V30 5794 C 536.32 -1.79191 -0.934612 0
M  V30 5795 C 536.641 -0.630112 -1.84539 0
M  V30 5796 O 535.911 0.35257 -1.92701 0
M  V30 5797 H 534.491 -0.660937 -0.348097 0
M  V30 5798 H 537.153 -1.93618 -0.22317 0
M  V30 5799 H 536.249 -2.71656 -1.53654 0
M  V30 5800 N 536.55 0.480323 -1.50102 0
M  V30 5801 C 537.798 1.23063 -1.60312 0
M  V30 5802 C 538.119 1.92659 -0.301226 0
M  V30 5803 O 537.389 1.83691 0.680753 0
M  V30 5804 H 535.969 0.457231 -0.590719 0
M  V30 5805 H 538.631 0.554893 -1.86834 0
M  V30 5806 H 537.727 1.9835 -2.40964 0
M  V30 5807 N 538.028 1.39524 0.732853 0
M  V30 5808 C 539.444 1.21176 1.03868 0
M  V30 5809 C 539.644 0.0748448 2.01361 0
M  V30 5810 O 538.7 -0.57281 2.45917 0
M  V30 5811 C 540.013 2.54667 1.59892 0
M  V30 5812 C 541.561 2.6153 1.71962 0
M  V30 5813 C 542.036 3.95248 2.31394 0
M  V30 5814 N 543.527 3.96899 2.38801 0
M  V30 5815 C 544.262 4.97138 2.85729 0
M  V30 5816 N 543.758 6.07775 3.32537 0
M  V30 5817 N 545.551 4.84516 2.84957 0
M  V30 5818 H 537.702 2.12225 0.086304 0
M  V30 5819 H 539.965 0.942614 0.100907 0
M  V30 5820 H 539.671 3.38423 0.95721 0
M  V30 5821 H 539.545 2.74538 2.58668 0
M  V30 5822 H 541.932 1.78156 2.35254 0
M  V30 5823 H 542.013 2.45507 0.718327 0
M  V30 5824 H 541.657 4.79054 1.68729 0
M  V30 5825 H 541.587 4.08593 3.32204 0
M  V30 5826 H 544.078 3.16998 2.05719 0
M  V30 5827 H 544.391 6.8017 3.66862 0
M  V30 5828 H 542.736 6.11366 3.30541 0
M  V30 5829 H 545.927 3.97185 2.47713 0
M  V30 5830 H 546.1 5.62783 3.21215 0
M  V30 5831 N 539.506 -0.963266 1.24736 0
M  V30 5832 C 540.753 -1.7068 1.0897 0
M  V30 5833 C 541.081 -1.90934 -0.370751 0
M  V30 5834 O 540.336 -1.47155 -1.29011 0
M  V30 5835 C 540.635 -3.09944 1.7796 0
M  V30 5836 C 540.301 -3.09518 3.27887 0
M  V30 5837 C 538.963 -3.09109 3.68789 0
M  V30 5838 C 541.315 -3.03509 4.23712 0
M  V30 5839 C 538.643 -3.00429 5.03944 0
M  V30 5840 C 540.995 -2.96371 5.5888 0
M  V30 5841 C 539.659 -2.94293 5.99123 0
M  V30 5842 H 538.929 -0.624564 0.398749 0
M  V30 5843 H 541.576 -1.12603 1.54896 0
M  V30 5844 H 539.881 -3.71513 1.2444 0
M  V30 5845 H 541.578 -3.66278 1.63222 0
M  V30 5846 H 538.168 -3.10603 2.95337 0
M  V30 5847 H 542.352 -3.0295 3.93109 0
M  V30 5848 H 537.608 -2.97183 5.34314 0
M  V30 5849 H 541.782 -2.90681 6.32833 0
M  V30 5850 H 539.409 -2.87322 7.03811 0
M  V30 5851 N 540.985 -1.06182 -1.16461 0
M  V30 5852 C 542.233 -0.776326 -1.86595 0
M  V30 5853 C 542.554 0.69921 -1.82033 0
M  V30 5854 O 541.824 1.50579 -1.2531 0
M  V30 5855 H 540.404 -0.284184 -0.690832 0
M  V30 5856 H 543.066 -1.34308 -1.41235 0
M  V30 5857 H 542.162 -1.10022 -2.92064 0
M  V30 5858 N 542.463 1.3308 -0.844243 0
M  V30 5859 C 543.879 1.50447 -0.532729 0
M  V30 5860 C 544.079 1.78292 0.938837 0
M  V30 5861 O 543.135 1.84635 1.72239 0
M  V30 5862 C 544.448 2.65555 -1.41072 0
M  V30 5863 C 545.996 2.7944 -1.41005 0
M  V30 5864 C 546.471 3.97616 -2.27301 0
M  V30 5865 N 547.962 4.0486 -2.2504 0
M  V30 5866 C 548.697 4.95508 -2.88547 0
M  V30 5867 N 548.193 5.91236 -3.61126 0
M  V30 5868 N 549.986 4.88548 -2.77989 0
M  V30 5869 H 542.137 1.13269 -1.79677 0
M  V30 5870 H 544.4 0.55734 -0.766861 0
M  V30 5871 H 544.106 2.51675 -2.45668 0
M  V30 5872 H 543.98 3.61089 -1.09061 0
M  V30 5873 H 546.367 2.92749 -0.371784 0
M  V30 5874 H 546.448 1.8465 -1.77026 0
M  V30 5875 H 546.092 3.85066 -3.3119 0
M  V30 5876 H 546.022 4.91661 -1.88619 0
M  V30 5877 H 548.513 3.36353 -1.72264 0
M  V30 5878 H 548.826 6.57079 -4.06776 0
M  V30 5879 H 547.171 5.91295 -3.65234 0
M  V30 5880 H 550.362 4.12729 -2.20846 0
M  V30 5881 H 550.535 5.58994 -3.27765 0
M  V30 5882 N 543.941 0.601185 1.45683 0
M  V30 5883 C 544.888 -0.121396 2.30481 0
M  V30 5884 C 545.858 -0.866232 1.41724 0
M  V30 5885 O 547.043 -0.85324 1.70659 0
M  V30 5886 C 544.183 -1.11704 3.26521 0
M  V30 5887 C 543.296 -0.373741 4.3038 0
M  V30 5888 C 542.431 -1.35854 5.13534 0
M  V30 5889 C 541.47 -0.602689 6.09126 0
M  V30 5890 N 540.607 -1.53645 6.85082 0
M  V30 5891 H 545.447 0.607732 2.91737 0
M  V30 5892 H 542.984 0.311502 1.43764 0
M  V30 5893 H 544.942 -1.70735 3.80664 0
M  V30 5894 H 543.572 -1.81366 2.67032 0
M  V30 5895 H 542.624 0.331962 3.78949 0
M  V30 5896 H 543.936 0.2163 4.98331 0
M  V30 5897 H 543.09 -2.02111 5.72046 0
M  V30 5898 H 541.829 -1.98251 4.45587 0
M  V30 5899 H 540.834 0.0735482 5.49751 0
M  V30 5900 H 542.059 0.0161467 6.79098 0
M  V30 5901 H 540.005 -2.14819 6.1983 0
M  V30 5902 H 539.922 -0.999688 7.49361 0
M  V30 5903 H 541.19 -2.1888 7.48139 0
M  V30 5904 N 545.419 -1.53889 0.339982 0
M  V30 5905 C 546.667 -2.00458 -0.257112 0
M  V30 5906 C 546.988 -1.22953 -1.51353 0
M  V30 5907 O 546.258 -0.335734 -1.93002 0
M  V30 5908 H 544.838 -0.740544 -0.0979965 0
M  V30 5909 H 547.5 -1.89386 0.460317 0
M  V30 5910 H 546.596 -3.08035 -0.502057 0
M  V30 5911 N 546.897 -0.0685191 -1.57451 0
M  V30 5912 C 548.143 0.602239 -1.93652 0
M  V30 5913 C 548.476 1.6946 -0.948526 0
M  V30 5914 O 547.751 1.94487 0.022782 0
M  V30 5915 C 548.034 1.18223 -3.4014 0
M  V30 5916 C 547.887 0.0967431 -4.49696 0
M  V30 5917 C 549.206 2.08872 -3.87377 0
M  V30 5918 H 546.325 0.217453 -0.70419 0
M  V30 5919 H 548.967 -0.133821 -1.89528 0
M  V30 5920 H 547.117 1.80953 -3.43785 0
M  V30 5921 H 548.789 -0.536155 -4.58174 0
M  V30 5922 H 547.032 -0.573063 -4.29998 0
M  V30 5923 H 547.703 0.542894 -5.49324 0
M  V30 5924 H 550.179 1.56081 -3.85717 0
M  V30 5925 H 549.055 2.46389 -4.90493 0
M  V30 5926 H 549.316 2.99572 -3.25129 0
M  V30 5927 N 548.375 1.56261 0.205012 0
M  V30 5928 C 549.338 1.92908 1.23771 0
M  V30 5929 C 550.338 0.809208 1.38955 0
M  V30 5930 O 551.528 1.07676 1.36936 0
M  V30 5931 C 548.66 2.19442 2.60879 0
M  V30 5932 H 549.853 2.85287 0.924728 0
M  V30 5933 H 547.406 1.49798 0.446125 0
M  V30 5934 H 548.141 1.29668 2.97248 0
M  V30 5935 H 547.926 3.0104 2.51232 0
M  V30 5936 H 549.416 2.48833 3.35368 0
M  V30 5937 N 549.853 -0.472356 1.50355 0
M  V30 5938 C 551.102 -1.2213 1.60522 0
M  V30 5939 C 551.415 -1.9312 0.310466 0
M  V30 5940 O 552.621 -2.69936 0.291029 0
M  V30 5941 C 551.077 -2.21909 2.83345 0
M  V30 5942 C 550.685 -1.56727 4.19691 0
M  V30 5943 C 552.429 -2.97453 3.02856 0
M  V30 5944 C 550.336 -2.54785 5.33703 0
M  V30 5945 H 549.266 -0.459543 0.597776 0
M  V30 5946 H 551.917 -0.491922 1.76783 0
M  V30 5947 H 550.299 -2.98133 2.60639 0
M  V30 5948 H 551.473 -0.863007 4.52646 0
M  V30 5949 H 549.788 -0.934685 4.05774 0
M  V30 5950 H 552.385 -3.70838 3.85205 0
M  V30 5951 H 552.728 -3.56764 2.14534 0
M  V30 5952 H 553.261 -2.28342 3.25737 0
M  V30 5953 H 550 -2.00214 6.24175 0
M  V30 5954 H 549.52 -3.23367 5.05167 0
M  V30 5955 H 551.199 -3.16639 5.64224 0
M  V30 5956 N 551.331 -1.39911 -0.725443 0
M  V30 5957 C 552.279 -1.39552 -1.86086 0
M  V30 5958 C 553.273 -0.277334 -1.67114 0
M  V30 5959 O 554.479 -0.447865 -1.74339 0
M  V30 5960 H 550.854 -0.435993 -0.612711 0
M  V30 5961 H 552.825 -2.35305 -1.83505 0
M  V30 5962 C 551.574 -1.26529 -3.2386 0
M  V30 5963 H 550.897 -2.11845 -3.3906 0
M  V30 5964 H 552.337 -1.30336 -4.03471 0
M  V30 5965 C 550.796 0.0254168 -3.3689 0
M  V30 5966 O 551.326 0.992048 -3.89257 0
M  V30 5967 N 549.532 0.0916528 -2.90455 0
M  V30 5968 H 549.079 -0.695675 -2.48028 0
M  V30 5969 H 549.037 0.954745 -2.99553 0
M  V30 5970 N 552.809 0.956637 -1.25245 0
M  V30 5971 C 553.742 2.05232 -0.99775 0
M  V30 5972 C 554.72 1.62439 0.0723137 0
M  V30 5973 O 555.904 1.88381 -0.066926 0
M  V30 5974 C 553.031 3.34871 -0.507861 0
M  V30 5975 C 552.077 3.96625 -1.56815 0
M  V30 5976 S 552.91 4.32853 -3.15276 0
M  V30 5977 C 554.066 5.65613 -2.68017 0
M  V30 5978 H 554.299 2.26521 -1.9255 0
M  V30 5979 H 551.832 1.09601 -1.08752 0
M  V30 5980 H 553.79 4.09845 -0.231858 0
M  V30 5981 H 552.451 3.11551 0.399356 0
M  V30 5982 H 551.644 4.90087 -1.17604 0
M  V30 5983 H 551.246 3.28124 -1.79473 0
M  V30 5984 H 553.538 6.43635 -2.11518 0
M  V30 5985 H 554.481 6.09693 -3.60112 0
M  V30 5986 H 554.889 5.24751 -2.0808 0
M  V30 5987 N 554.287 1.06798 1.15896 0
M  V30 5988 C 555.533 0.788934 1.86825 0
M  V30 5989 C 555.866 -0.683084 1.8179 0
M  V30 5990 O 555.141 -1.50086 1.23711 0
M  V30 5991 C 555.424 1.29065 3.36176 0
M  V30 5992 C 555.277 2.8268 3.49874 0
M  V30 5993 C 556.596 0.902655 4.30744 0
M  V30 5994 H 553.715 0.288066 0.678371 0
M  V30 5995 H 556.357 1.32479 1.36195 0
M  V30 5996 H 554.507 0.834806 3.79425 0
M  V30 5997 H 556.179 3.36511 3.15528 0
M  V30 5998 H 554.422 3.21157 2.91617 0
M  V30 5999 H 555.093 3.12852 4.54783 0
M  V30 6000 H 557.569 1.29535 3.95424 0
M  V30 6001 H 556.445 1.28111 5.3374 0
M  V30 6002 H 556.706 -0.191951 4.41683 0
M  V30 6003 N 555.766 -1.3263 0.851289 0
M  V30 6004 C 556.994 -2.01563 0.466899 0
M  V30 6005 C 557.409 -1.63996 -0.935447 0
M  V30 6006 O 556.766 -0.85957 -1.6099 0
M  V30 6007 C 556.817 -3.56613 0.592433 0
M  V30 6008 O 556.538 -3.92828 1.93954 0
M  V30 6009 C 558.039 -4.42818 0.206612 0
M  V30 6010 H 555.259 -0.645307 0.183902 0
M  V30 6011 H 557.803 -1.69285 1.1473 0
M  V30 6012 H 555.958 -3.87379 -0.0401936 0
M  V30 6013 H 556.372 -4.87545 1.9339 0
M  V30 6014 H 557.846 -5.50918 0.345462 0
M  V30 6015 H 558.323 -4.30844 -0.85264 0
M  V30 6016 H 558.929 -4.17434 0.814176 0
M  V30 6017 N 557.244 -0.608902 -1.45362 0
M  V30 6018 C 558.154 0.110969 -2.34337 0
M  V30 6019 C 559.17 0.859007 -1.51318 0
M  V30 6020 O 560.346 0.816296 -1.84116 0
M  V30 6021 C 557.411 1.09494 -3.28956 0
M  V30 6022 C 556.472 0.348718 -4.27881 0
M  V30 6023 C 555.705 1.28582 -5.17979 0
M  V30 6024 O 555.928 2.52369 -5.11533 0
M  V30 6025 O 554.862 0.782172 -5.96796 0
M  V30 6026 H 558.688 -0.620258 -2.97299 0
M  V30 6027 H 556.273 -0.36916 -1.44767 0
M  V30 6028 H 558.155 1.66163 -3.87257 0
M  V30 6029 H 556.83 1.80717 -2.68557 0
M  V30 6030 H 555.737 -0.260465 -3.73192 0
M  V30 6031 H 557.07 -0.323049 -4.91139 0
M  V30 6032 N 558.722 1.53707 -0.348139 0
M  V30 6033 C 559.632 2.28881 0.514857 0
M  V30 6034 C 560.648 1.34168 1.10793 0
M  V30 6035 O 561.824 1.6721 1.12262 0
M  V30 6036 C 558.889 3.05042 1.64774 0
M  V30 6037 C 557.95 4.15389 1.08398 0
M  V30 6038 C 557.183 4.87909 2.16287 0
M  V30 6039 O 557.406 4.60137 3.3709 0
M  V30 6040 O 556.34 5.74254 1.80323 0
M  V30 6041 H 560.166 3.03547 -0.0963699 0
M  V30 6042 H 557.751 1.48972 -0.113043 0
M  V30 6043 H 559.633 3.52656 2.30677 0
M  V30 6044 H 558.308 2.33228 2.24469 0
M  V30 6045 H 557.215 3.72068 0.389341 0
M  V30 6046 H 558.548 4.89318 0.531829 0
M  V30 6047 N 560.2 0.0768682 1.57412 0
M  V30 6048 C 561.477 -0.632359 1.85096 0
M  V30 6049 C 561.857 -1.87479 0.9703 0
M  V30 6050 O 561.205 -2.28469 0.0379062 0
M  V30 6051 C 561.415 -0.965174 3.35388 0
M  V30 6052 C 562.763 -1.33648 4.03018 0
M  V30 6053 O 563.787 -1.05675 3.40164 0
M  V30 6054 O 562.646 -1.85959 5.13889 0
M  V30 6055 H 559.74 -0.314574 0.764835 0
M  V30 6056 H 562.286 0.108184 1.69355 0
M  V30 6057 H 561.058 -0.0829745 3.91212 0
M  V30 6058 H 560.681 -1.76231 3.5641 0
M  V30 6059 N 561.678 -1.56367 -0.196722 0
M  V30 6060 C 562.625 -1.94417 -1.24382 0
M  V30 6061 C 563.595 -0.804543 -1.45315 0
M  V30 6062 O 564.78 -1.06256 -1.58475 0
M  V30 6063 C 561.92 -2.28757 -2.58388 0
M  V30 6064 C 561.033 -3.55775 -2.45047 0
M  V30 6065 C 560.168 -3.79445 -3.71746 0
M  V30 6066 C 559.207 -4.99894 -3.53231 0
M  V30 6067 N 558.344 -5.19826 -4.71938 0
M  V30 6068 H 563.184 -2.83691 -0.912338 0
M  V30 6069 H 560.721 -1.40392 -0.439135 0
M  V30 6070 H 562.679 -2.46682 -3.36457 0
M  V30 6071 H 561.309 -1.42625 -2.89582 0
M  V30 6072 H 560.361 -3.45905 -1.58284 0
M  V30 6073 H 561.673 -4.44 -2.27299 0
M  V30 6074 H 560.827 -3.97601 -4.58256 0
M  V30 6075 H 559.566 -2.89546 -3.92446 0
M  V30 6076 H 558.571 -4.81662 -2.65107 0
M  V30 6077 H 559.796 -5.913 -3.33978 0
M  V30 6078 H 557.742 -4.32875 -4.92905 0
M  V30 6079 H 557.659 -6.02228 -4.57009 0
M  V30 6080 H 558.927 -5.42439 -5.59803 0
M  V30 6081 N 563.156 0.464375 -1.50603 0
M  V30 6082 C 564.572 0.798684 -1.38178 0
M  V30 6083 C 564.772 1.96568 -0.44308 0
M  V30 6084 O 563.828 2.52252 0.111814 0
M  V30 6085 C 565.141 1.10444 -2.79683 0
M  V30 6086 C 566.689 1.2105 -2.88645 0
M  V30 6087 C 567.164 1.54934 -4.30998 0
M  V30 6088 N 568.655 1.61913 -4.3398 0
M  V30 6089 C 569.39 1.8965 -5.41129 0
M  V30 6090 N 568.886 2.15361 -6.58477 0
M  V30 6091 N 570.679 1.91207 -5.28579 0
M  V30 6092 H 562.83 -0.304603 -2.10204 0
M  V30 6093 H 565.093 -0.0737804 -0.945125 0
M  V30 6094 H 564.799 0.319934 -3.50242 0
M  V30 6095 H 564.673 2.03896 -3.17342 0
M  V30 6096 H 567.06 1.98567 -2.18301 0
M  V30 6097 H 567.141 0.255613 -2.5452 0
M  V30 6098 H 566.785 0.779549 -5.01882 0
M  V30 6099 H 566.715 2.51584 -4.62615 0
M  V30 6100 H 569.206 1.44055 -3.49366 0
M  V30 6101 H 569.519 2.35818 -7.35941 0
M  V30 6102 H 567.864 2.1274 -6.6164 0
M  V30 6103 H 571.055 1.70622 -4.35897 0
M  V30 6104 H 571.228 2.12488 -6.12171 0
M  V30 6105 N 564.634 1.40294 0.718013 0
M  V30 6106 C 565.862 1.4175 1.50714 0
M  V30 6107 C 566.277 0.0165366 1.88793 0
M  V30 6108 O 565.634 -0.958942 1.55276 0
M  V30 6109 C 565.685 2.30598 2.784 0
M  V30 6110 O 565.406 3.6524 2.41932 0
M  V30 6111 C 566.907 2.4062 3.72313 0
M  V30 6112 H 564.127 0.483565 0.465194 0
M  V30 6113 H 566.671 1.84316 0.885889 0
M  V30 6114 H 564.826 1.91401 3.36815 0
M  V30 6115 H 565.24 4.12402 3.24076 0
M  V30 6116 H 566.714 3.07001 4.58753 0
M  V30 6117 H 567.191 1.4305 4.15251 0
M  V30 6118 H 567.797 2.80359 3.19811 0
M  V30 6119 N 566.112 -0.949982 1.2575 0
M  V30 6120 C 567.042 -2.06483 1.09028 0
M  V30 6121 C 568.023 -1.701 -0.00201532 0
M  V30 6122 O 569.208 -1.93469 0.168383 0
M  V30 6123 C 566.338 -3.39899 0.71316 0
M  V30 6124 C 565.292 -3.90309 1.75621 0
M  V30 6125 C 564.618 -5.20274 1.23365 0
M  V30 6126 C 565.918 -4.16169 3.15596 0
M  V30 6127 H 567.612 -2.20731 2.02283 0
M  V30 6128 H 565.158 -1.06066 0.973964 0
M  V30 6129 H 567.111 -4.17346 0.58309 0
M  V30 6130 H 565.835 -3.25602 -0.255091 0
M  V30 6131 H 564.494 -3.15035 1.8748 0
M  V30 6132 H 564.142 -5.02351 0.255491 0
M  V30 6133 H 563.842 -5.54971 1.93082 0
M  V30 6134 H 565.366 -6.00314 1.11607 0
M  V30 6135 H 566.78 -4.84259 3.06864 0
M  V30 6136 H 565.177 -4.62131 3.82825 0
M  V30 6137 H 566.247 -3.22273 3.6231 0
M  V30 6138 N 567.59 -1.07411 -1.15328 0
M  V30 6139 C 569.006 -0.799759 -1.38116 0
M  V30 6140 C 569.206 0.59572 -1.92493 0
M  V30 6141 O 568.262 1.35433 -2.13106 0
M  V30 6142 C 569.575 -1.87407 -2.35158 0
M  V30 6143 C 571.123 -1.89889 -2.48819 0
M  V30 6144 C 571.598 -2.96406 -3.49153 0
M  V30 6145 N 573.089 -2.95512 -3.56689 0
M  V30 6146 C 573.824 -3.74575 -4.34144 0
M  V30 6147 N 573.32 -4.63488 -5.14928 0
M  V30 6148 N 575.113 -3.62919 -4.29239 0
M  V30 6149 H 567.264 -1.97411 -0.78374 0
M  V30 6150 H 569.527 -0.856113 -0.407154 0
M  V30 6151 H 569.233 -2.8768 -2.0232 0
M  V30 6152 H 569.107 -1.73471 -3.34944 0
M  V30 6153 H 571.494 -0.902677 -2.80955 0
M  V30 6154 H 571.575 -2.07904 -1.49029 0
M  V30 6155 H 571.219 -3.96227 -3.17752 0
M  V30 6156 H 571.149 -2.75638 -4.48699 0
M  V30 6157 H 573.64 -2.31061 -2.99031 0
M  V30 6158 H 573.953 -5.20445 -5.71276 0
M  V30 6159 H 572.298 -4.67537 -5.14232 0
M  V30 6160 H 575.489 -2.92833 -3.65194 0
M  V30 6161 H 575.662 -4.24777 -4.89355 0
M  V30 6162 N 569.068 1.32177 -0.85831 0
M  V30 6163 C 570.345 1.91781 -0.384624 0
M  V30 6164 C 570.725 1.78171 1.13217 0
M  V30 6165 O 570.073 1.18209 1.95548 0
M  V30 6166 C 570.283 3.38414 -0.853047 0
M  V30 6167 C 571.631 4.15542 -0.872359 0
M  V30 6168 O 572.655 3.47148 -0.797926 0
M  V30 6169 O 571.514 5.37678 -0.978009 0
M  V30 6170 H 568.608 0.819259 -0.112886 0
M  V30 6171 H 571.154 1.40923 -0.945453 0
M  V30 6172 H 569.926 3.4228 -1.89632 0
M  V30 6173 H 569.549 3.96683 -0.269874 0
M  V30 6174 N 570.547 0.616602 1.45037 0
M  V30 6175 C 571.796 0.112861 2.01384 0
M  V30 6176 C 572.109 -1.26758 1.48969 0
M  V30 6177 O 573.315 -1.86454 1.9735 0
M  V30 6178 C 571.771 0.151057 3.59583 0
M  V30 6179 C 571.379 1.53191 4.20995 0
M  V30 6180 C 573.123 -0.296974 4.2346 0
M  V30 6181 C 571.03 1.526 5.71373 0
M  V30 6182 H 569.96 0.0384254 0.75302 0
M  V30 6183 H 572.611 0.773262 1.66412 0
M  V30 6184 H 570.993 -0.57617 3.91786 0
M  V30 6185 H 572.167 2.28156 4.00352 0
M  V30 6186 H 570.482 1.92279 3.69348 0
M  V30 6187 H 573.079 -0.320712 5.33737 0
M  V30 6188 H 573.422 -1.32145 3.9477 0
M  V30 6189 H 573.955 0.377279 3.96007 0
M  V30 6190 H 570.694 2.52837 6.04776 0
M  V30 6191 H 570.214 0.819064 5.94181 0
M  V30 6192 H 571.893 1.25357 6.3474 0
M  V30 6193 N 572.025 -1.5352 0.356285 0
M  V30 6194 C 572.935 -2.29151 -0.502712 0
M  V30 6195 C 573.951 -1.34753 -1.1008 0
M  V30 6196 O 575.127 -1.67803 -1.11374 0
M  V30 6197 C 572.192 -3.05911 -1.63154 0
M  V30 6198 C 571.253 -4.15958 -1.06194 0
M  V30 6199 C 570.486 -4.8905 -2.13696 0
M  V30 6200 O 570.709 -4.61919 -3.34645 0
M  V30 6201 O 569.643 -5.75202 -1.77275 0
M  V30 6202 H 573.469 -3.03492 0.112466 0
M  V30 6203 H 571.054 -1.4891 0.120942 0
M  V30 6204 H 572.936 -3.53874 -2.28804 0
M  V30 6205 H 571.611 -2.34415 -2.23229 0
M  V30 6206 H 570.518 -3.7227 -0.369603 0
M  V30 6207 H 571.851 -4.89593 -0.505872 0
M  V30 6208 N 573.503 -0.0852151 -1.57369 0
M  V30 6209 C 574.731 0.58946 -1.98325 0
M  V30 6210 C 575.146 1.62333 -0.96403 0
M  V30 6211 O 574.503 1.82438 0.0476395 0
M  V30 6212 C 574.554 1.24604 -3.39347 0
M  V30 6213 O 574.275 0.253532 -4.37366 0
M  V30 6214 C 575.776 2.00726 -3.95252 0
M  V30 6215 H 572.996 0.158783 -0.651942 0
M  V30 6216 H 575.54 -0.161584 -2.03861 0
M  V30 6217 H 573.695 1.94808 -3.34856 0
M  V30 6218 H 574.109 0.726207 -5.19448 0
M  V30 6219 H 575.583 2.42039 -4.96106 0
M  V30 6220 H 576.06 2.86919 -3.32527 0
M  V30 6221 H 576.666 1.3536 -4.03185 0
M  V30 6222 N 574.981 1.5647 0.188427 0
M  V30 6223 C 576.228 1.81013 0.907779 0
M  V30 6224 C 576.556 0.65953 1.82977 0
M  V30 6225 O 575.811 -0.354308 1.92466 0
M  V30 6226 C 576.11 3.11596 1.7505 0
M  V30 6227 C 575.776 4.40145 0.978922 0
M  V30 6228 C 574.438 4.75066 0.765912 0
M  V30 6229 C 576.79 5.19369 0.436498 0
M  V30 6230 C 574.118 5.867 -0.00089868 0
M  V30 6231 C 576.47 6.31805 -0.317136 0
M  V30 6232 C 575.134 6.65303 -0.541103 0
M  V30 6233 H 574.404 0.662373 0.33218 0
M  V30 6234 H 577.051 1.9071 0.173732 0
M  V30 6235 H 575.356 2.97165 2.55343 0
M  V30 6236 H 577.053 3.27793 2.30983 0
M  V30 6237 H 573.643 4.12745 1.15497 0
M  V30 6238 H 577.827 4.92799 0.588449 0
M  V30 6239 H 573.083 6.11122 -0.184329 0
M  V30 6240 H 577.257 6.92406 -0.744788 0
M  V30 6241 H 574.884 7.51646 -1.13718 0
M  V30 6242 N 576.459 -0.456382 1.50847 0
M  V30 6243 C 577.689 -1.22848 1.66108 0
M  V30 6244 C 578.097 -1.85936 0.349897 0
M  V30 6245 O 577.44 -1.70664 -0.679665 0
M  V30 6246 C 577.502 -2.36722 2.70561 0
M  V30 6247 C 577.166 -1.94154 4.13707 0
M  V30 6248 C 578.163 -1.4557 4.99105 0
M  V30 6249 C 575.848 -2.02426 4.59705 0
M  V30 6250 C 577.842 -1.0582 6.28555 0
M  V30 6251 C 575.529 -1.62287 5.89157 0
M  V30 6252 C 576.527 -1.14064 6.73408 0
M  V30 6253 O 576.215 -0.744873 8.00442 0
M  V30 6254 H 575.947 -0.377105 0.561042 0
M  V30 6255 H 578.501 -0.549431 1.97915 0
M  V30 6256 H 576.731 -3.07844 2.34027 0
M  V30 6257 H 578.42 -2.98646 2.74892 0
M  V30 6258 H 579.186 -1.38589 4.64777 0
M  V30 6259 H 575.065 -2.38908 3.94264 0
M  V30 6260 H 578.609 -0.6811 6.94267 0
M  V30 6261 H 574.506 -1.68932 6.23003 0
M  V30 6262 H 575.274 -0.87242 8.13837 0
M  V30 6263 N 577.937 -1.40673 -0.710563 0
M  V30 6264 C 578.885 -1.41517 -1.84596 0
M  V30 6265 C 579.879 -0.295043 -1.66811 0
M  V30 6266 O 581.085 -0.466331 -1.73854 0
M  V30 6267 H 577.46 -0.442467 -0.608052 0
M  V30 6268 H 579.431 -2.37238 -1.80999 0
M  V30 6269 C 578.18 -1.29957 -3.225 0
M  V30 6270 H 577.503 -2.15429 -3.36794 0
M  V30 6271 H 578.943 -1.34608 -4.02066 0
M  V30 6272 C 577.402 -0.0103164 -3.36898 0
M  V30 6273 O 577.932 0.950707 -3.90288 0
M  V30 6274 N 576.138 0.0608409 -2.90536 0
M  V30 6275 H 575.685 -0.721943 -2.47277 0
M  V30 6276 H 575.643 0.92292 -3.00549 0
M  V30 6277 N 579.415 0.9433 -1.26252 0
M  V30 6278 C 580.643 1.72367 -1.14443 0
M  V30 6279 C 581.058 1.86392 0.300572 0
M  V30 6280 O 580.415 1.36978 1.20596 0
M  V30 6281 C 580.466 3.13155 -1.806 0
M  V30 6282 O 580.187 2.99803 -3.19452 0
M  V30 6283 C 581.688 4.07417 -1.74717 0
M  V30 6284 H 578.908 0.539758 -0.398626 0
M  V30 6285 H 581.452 1.18268 -1.66832 0
M  V30 6286 H 579.607 3.64162 -1.32154 0
M  V30 6287 H 580.021 3.88697 -3.52158 0
M  V30 6288 H 581.495 5.03773 -2.25647 0
M  V30 6289 H 581.972 4.3337 -0.713244 0
M  V30 6290 H 582.578 3.6233 -2.22704 0
M  V30 6291 N 580.893 1.08022 1.14757 0
M  V30 6292 C 582.118 0.82895 1.90114 0
M  V30 6293 C 582.543 -0.612772 1.77839 0
M  V30 6294 O 581.901 -1.42895 1.11583 0
M  V30 6295 C 581.949 1.25062 3.38219 0
M  V30 6296 O 581.053 0.400119 4.10454 0
M  V30 6297 H 580.394 0.301412 0.591648 0
M  V30 6298 H 582.924 1.44062 1.45284 0
M  V30 6299 H 582.934 1.22977 3.89025 0
M  V30 6300 H 581.609 2.30067 3.46471 0
M  V30 6301 H 580.186 0.484052 3.69745 0
M  V30 6302 N 582.371 -1.3172 0.865308 0
M  V30 6303 C 583.62 -1.96145 0.470098 0
M  V30 6304 C 583.933 -1.69182 -0.981674 0
M  V30 6305 O 585.139 -2.27431 -1.48281 0
M  V30 6306 C 583.595 -3.51129 0.789732 0
M  V30 6307 C 583.203 -3.86938 2.25795 0
M  V30 6308 C 584.947 -4.2197 0.462765 0
M  V30 6309 C 582.854 -5.35012 2.52024 0
M  V30 6310 H 581.784 -0.734105 0.172065 0
M  V30 6311 H 584.435 -1.49959 1.05757 0
M  V30 6312 H 582.817 -3.95781 0.131571 0
M  V30 6313 H 583.991 -3.5326 2.95879 0
M  V30 6314 H 582.306 -3.29149 2.55049 0
M  V30 6315 H 584.903 -5.30904 0.636019 0
M  V30 6316 H 585.246 -4.12005 -0.59645 0
M  V30 6317 H 585.779 -3.82936 1.07727 0
M  V30 6318 H 582.518 -5.50008 3.56611 0
M  V30 6319 H 582.038 -5.70058 1.8653 0
M  V30 6320 H 583.717 -6.0222 2.36515 0
M  V30 6321 N 583.85 -0.624285 -1.44708 0
M  V30 6322 C 584.76 0.0861083 -2.34442 0
M  V30 6323 C 585.776 0.84291 -1.5222 0
M  V30 6324 O 586.952 0.796723 -1.84971 0
M  V30 6325 C 584.017 1.05999 -3.30099 0
M  V30 6326 C 583.077 0.303316 -4.28227 0
M  V30 6327 C 582.311 1.23081 -5.19314 0
M  V30 6328 O 582.534 2.46929 -5.14181 0
M  V30 6329 O 581.468 0.71883 -5.97592 0
M  V30 6330 H 585.293 -0.651756 -2.96624 0
M  V30 6331 H 582.879 -0.384493 -1.44368 0
M  V30 6332 H 584.76 1.62046 -3.88997 0
M  V30 6333 H 583.436 1.77859 -2.70459 0
M  V30 6334 H 582.343 -0.300033 -3.72895 0
M  V30 6335 H 583.676 -0.375123 -4.90768 0
M  V30 6336 N 585.328 1.53329 -0.364422 0
M  V30 6337 C 586.238 2.29414 0.490552 0
M  V30 6338 C 587.254 1.35335 1.09363 0
M  V30 6339 O 588.43 1.68391 1.10483 0
M  V30 6340 C 585.495 3.06772 1.61529 0
M  V30 6341 C 584.556 4.16516 1.03986 0
M  V30 6342 C 583.789 4.90176 2.111 0
M  V30 6343 O 584.012 4.63687 3.32191 0
M  V30 6344 O 582.946 5.76134 1.74222 0
M  V30 6345 H 586.772 3.03428 -0.12856 0
M  V30 6346 H 584.357 1.48843 -0.128837 0
M  V30 6347 H 586.239 3.55082 2.26924 0
M  V30 6348 H 584.914 2.35596 2.21983 0
M  V30 6349 H 583.821 3.7246 0.349856 0
M  V30 6350 H 585.154 4.89855 0.4799 0
M  V30 6351 N 586.806 0.0935595 1.57322 0
M  V30 6352 C 587.739 -0.902505 2.09595 0
M  V30 6353 C 588.717 -1.27732 1.00615 0
M  V30 6354 O 589.901 -1.38283 1.28102 0
M  V30 6355 C 587.028 -2.20416 2.57166 0
M  V30 6356 C 586.074 -1.97932 3.7779 0
M  V30 6357 S 586.907 -1.21873 5.21447 0
M  V30 6358 C 588.063 -2.53273 5.72367 0
M  V30 6359 H 588.296 -0.457797 2.93754 0
M  V30 6360 H 585.829 -0.119694 1.53935 0
M  V30 6361 H 587.787 -2.95217 2.85232 0
M  V30 6362 H 586.448 -2.62008 1.73235 0
M  V30 6363 H 585.641 -2.94316 4.09138 0
M  V30 6364 H 585.243 -1.3126 3.5021 0
M  V30 6365 H 587.535 -3.49256 5.8054 0
M  V30 6366 H 588.478 -2.26505 6.70896 0
M  V30 6367 H 588.886 -2.61475 5.00291 0
M  V30 6368 N 588.284 -1.56567 -0.180126 0
M  V30 6369 C 589.695 -1.7126 -0.743422 0
M  V30 6370 C 590.046 -0.70263 -1.83187 0
M  V30 6371 O 589.171 0.137856 -2.1596 0
M  V30 6372 C 589.766 -3.10512 -1.35528 0
M  V30 6373 C 588.325 -3.26919 -1.8655 0
M  V30 6374 C 587.472 -2.67213 -0.741099 0
M  V30 6375 H 590.423 -1.58636 0.0451543 0
M  V30 6376 H 590.444 -3.08673 -2.22489 0
M  V30 6377 H 589.956 -3.83997 -0.562862 0
M  V30 6378 H 588.057 -2.58376 -2.68464 0
M  V30 6379 H 588.17 -4.34574 -2.01699 0
M  V30 6380 H 586.534 -2.26788 -1.15927 0
M  V30 6381 H 587.317 -3.43277 0.0393291 0
M  V30 6382 N 589.762 0.448376 -1.51087 0
M  V30 6383 C 590.692 1.55102 -1.74544 0
M  V30 6384 C 591.673 1.59357 -0.594932 0
M  V30 6385 O 592.858 1.75261 -0.836491 0
M  V30 6386 C 589.988 2.93268 -1.86041 0
M  V30 6387 C 588.942 3.03877 -3.01402 0
M  V30 6388 C 588.268 4.43914 -2.98068 0
M  V30 6389 C 589.568 2.7898 -4.41551 0
M  V30 6390 H 591.262 1.35724 -2.66869 0
M  V30 6391 H 588.808 0.651498 -1.28419 0
M  V30 6392 H 590.761 3.70356 -2.01034 0
M  V30 6393 H 589.485 3.13853 -0.903548 0
M  V30 6394 H 588.144 2.29227 -2.86096 0
M  V30 6395 H 587.792 4.6145 -2.00182 0
M  V30 6396 H 587.492 4.51944 -3.75527 0
M  V30 6397 H 589.016 5.22991 -3.1514 0
M  V30 6398 H 590.43 3.45805 -4.57265 0
M  V30 6399 H 588.827 2.98431 -5.20633 0
M  V30 6400 H 589.897 1.74663 -4.5235 0
M  V30 6401 N 591.24 1.41047 0.703093 0
M  V30 6402 C 592.188 1.42494 1.83843 0
M  V30 6403 C 593.182 0.303885 1.66652 0
M  V30 6404 O 594.388 0.475544 1.73605 0
M  V30 6405 H 590.763 0.445685 0.605697 0
M  V30 6406 H 592.734 2.38194 1.79739 0
M  V30 6407 C 591.483 1.31666 3.21807 0
M  V30 6408 H 590.806 2.17212 3.35647 0
M  V30 6409 H 592.246 1.36738 4.01346 0
M  V30 6410 C 590.705 0.0281828 3.36888 0
M  V30 6411 O 591.235 -0.929995 3.90786 0
M  V30 6412 N 589.441 -0.0454322 2.90564 0
M  V30 6413 H 588.988 0.735046 2.4689 0
M  V30 6414 H 588.946 -0.906968 3.01034 0
M  V30 6415 N 592.718 -0.936591 1.26751 0
M  V30 6416 C 593.964 -1.6858 1.12733 0
M  V30 6417 C 594.297 -1.91414 -0.327745 0
M  V30 6418 O 593.572 -1.49812 -1.24043 0
M  V30 6419 C 593.855 -3.05779 1.90187 0
M  V30 6420 C 593.708 -2.90242 3.43627 0
M  V30 6421 C 595.027 -4.0597 1.69931 0
M  V30 6422 H 592.146 -0.61182 0.410908 0
M  V30 6423 H 594.788 -1.08747 1.55801 0
M  V30 6424 H 592.938 -3.56853 1.53584 0
M  V30 6425 H 594.61 -2.46354 3.9001 0
M  V30 6426 H 592.853 -2.2577 3.70419 0
M  V30 6427 H 593.524 -3.87572 3.93055 0
M  V30 6428 H 596 -3.63874 2.0183 0
M  V30 6429 H 594.876 -4.99974 2.26534 0
M  V30 6430 H 595.137 -4.37369 0.64502 0
M  V30 6431 N 594.196 -1.08629 -1.14182 0
M  V30 6432 C 595.159 -0.722027 -2.1753 0
M  V30 6433 C 596.159 0.244305 -1.58933 0
M  V30 6434 O 597.349 0.0235545 -1.74184 0
M  V30 6435 C 594.481 -0.0663966 -3.40835 0
M  V30 6436 H 595.674 -1.63719 -2.51269 0
M  V30 6437 H 593.227 -0.884442 -1.28869 0
M  V30 6438 H 593.962 0.860389 -3.12678 0
M  V30 6439 H 593.747 -0.761598 -3.84632 0
M  V30 6440 H 595.237 0.173346 -4.1724 0
M  V30 6441 N 595.674 1.31259 -0.872281 0
M  V30 6442 C 596.951 1.91362 -0.404943 0
M  V30 6443 C 597.331 1.79362 1.11321 0
M  V30 6444 O 596.679 1.20277 1.94283 0
M  V30 6445 C 596.889 3.3749 -0.888893 0
M  V30 6446 C 598.237 4.14593 -0.916384 0
M  V30 6447 O 599.261 3.46282 -0.834701 0
M  V30 6448 O 598.12 5.3661 -1.03498 0
M  V30 6449 H 595.214 0.818016 -0.121569 0
M  V30 6450 H 597.76 1.39912 -0.960346 0
M  V30 6451 H 596.532 3.40249 -1.93251 0
M  V30 6452 H 596.155 3.96375 -0.311932 0
M  V30 6453 N 597.152 0.631951 1.44375 0
M  V30 6454 C 598.082 -0.0593243 2.33425 0
M  V30 6455 C 599.063 -0.833964 1.48253 0
M  V30 6456 O 600.248 -0.799682 1.76971 0
M  V30 6457 C 597.378 -1.04096 3.31333 0
M  V30 6458 C 596.332 -0.377899 4.26328 0
M  V30 6459 C 595.658 -1.4695 5.14111 0
M  V30 6460 C 596.958 0.716371 5.17364 0
M  V30 6461 H 598.652 0.684287 2.91475 0
M  V30 6462 H 596.198 0.330518 1.40156 0
M  V30 6463 H 598.151 -1.53331 3.92514 0
M  V30 6464 H 596.875 -1.81547 2.71493 0
M  V30 6465 H 595.534 0.0938054 3.6648 0
M  V30 6466 H 595.182 -2.2349 4.50623 0
M  V30 6467 H 594.882 -1.03121 5.78481 0
M  V30 6468 H 596.406 -1.96363 5.78164 0
M  V30 6469 H 597.82 0.307089 5.72477 0
M  V30 6470 H 596.217 1.07784 5.90341 0
M  V30 6471 H 597.287 1.58316 4.58327 0
M  V30 6472 N 598.631 -1.53133 0.372548 0
M  V30 6473 C 599.88 -2.00539 -0.216115 0
M  V30 6474 C 600.193 -1.26374 -1.49295 0
M  V30 6475 O 601.399 -1.64404 -2.16064 0
M  V30 6476 C 599.855 -3.57253 -0.435678 0
M  V30 6477 C 599.463 -4.40302 0.82693 0
M  V30 6478 C 601.207 -4.12995 -0.981618 0
M  V30 6479 C 599.114 -5.88583 0.576567 0
M  V30 6480 H 598.044 -0.749246 -0.084536 0
M  V30 6481 H 600.695 -1.76771 0.492364 0
M  V30 6482 H 599.077 -3.77202 -1.20559 0
M  V30 6483 H 600.251 -4.32124 1.60017 0
M  V30 6484 H 598.566 -3.95699 1.29659 0
M  V30 6485 H 601.163 -5.21418 -1.18436 0
M  V30 6486 H 601.506 -3.68027 -1.94581 0
M  V30 6487 H 602.039 -3.96871 -0.271696 0
M  V30 6488 H 598.778 -6.37841 1.51128 0
M  V30 6489 H 598.298 -5.99592 -0.158047 0
M  V30 6490 H 599.977 -6.46676 0.204722 0
M  V30 6491 O 600.148 -0.242051 -1.59676 0
M  V30 6492 H 600.839 0.334494 -1.9079 0
M  V30 END ATOM
M  V30 BEGIN BOND
M  V30 END BOND
M  V30 END CTAB
M  END
$$$$
