drugbank_target|P60981 Destrin (DB04147)
 OpenBabel12092120483D

  0  0  0     0  0            999 V3000
M  V30 BEGIN CTAB
M  V30 COUNTS 2623 2646 0 0 0
M  V30 BEGIN ATOM
M  V30 1 H -0.908 1.98254 -0.117106 0
M  V30 2 N 0 1.576 0 0
M  V30 3 C 0.933 2.03868 1.02534 0
M  V30 4 C 1.911 0.928543 1.3348 0
M  V30 5 O 3.095 1.19667 1.45644 0
M  V30 6 C 0.222 2.43627 2.35294 0
M  V30 7 C -0.732 3.65373 2.2001 0
M  V30 8 S 0.101 5.13292 1.52614 0
M  V30 9 C 1.257 5.56322 2.86805 0
M  V30 10 H 1.49 2.90518 0.631377 0
M  V30 11 H -0.977 1.52953 0.210867 0
M  V30 12 H 0.981 2.67203 3.11629 0
M  V30 13 H -0.358 1.57376 2.7183 0
M  V30 14 H -1.165 3.90944 3.18086 0
M  V30 15 H -1.563 3.418 1.51819 0
M  V30 16 H 0.729 5.58782 3.83104 0
M  V30 17 H 1.672 6.56266 2.65933 0
M  V30 18 H 2.08 4.83886 2.90714 0
M  V30 19 N 1.4781 -0.272755 1.55222 0
M  V30 20 C 2.4411 -1.32041 1.87344 0
M  V30 21 C 3.4411 -1.42342 0.74803 0
M  V30 22 O 4.6311 -1.41488 1.0162 0
M  V30 23 C 1.7631 -2.70173 2.07893 0
M  V30 24 H 2.9561 -1.04789 2.80997 0
M  V30 25 H 0.5091 -0.51083 1.47717 0
M  V30 26 H 1.2441 -3.02605 1.16622 0
M  V30 27 H 1.0291 -2.64082 2.89833 0
M  V30 28 H 2.5191 -3.45869 2.34017 0
M  V30 29 N 2.9562 -1.48159 -0.537278 0
M  V30 30 C 4.1812 -1.59707 -1.32319 0
M  V30 31 C 4.6062 -0.254859 -1.86365 0
M  V30 32 O 3.9642 0.772378 -1.64024 0
M  V30 33 C 4.0122 -2.6412 -2.45505 0
M  V30 34 O 3.1162 -2.20774 -3.48328 0
M  V30 35 H 2.4572 -0.535791 -0.392204 0
M  V30 36 H 4.9872 -1.94092 -0.647268 0
M  V30 37 H 4.9972 -2.85166 -2.91795 0
M  V30 38 H 3.6722 -3.61567 -2.05528 0
M  V30 39 H 2.2492 -2.09911 -3.08207 0
M  V30 40 N 4.4343 0.785586 -1.36625 0
M  V30 41 C 5.6823 1.54057 -1.30808 0
M  V30 42 C 6.0033 1.94683 0.111157 0
M  V30 43 O 5.2733 1.65241 1.05224 0
M  V30 44 H 3.8533 0.571354 -0.481211 0
M  V30 45 H 6.5153 0.935821 -1.70963 0
M  V30 46 H 5.6113 2.44637 -1.93801 0
M  V30 47 N 5.9124 1.20967 1.01018 0
M  V30 48 C 7.1584 1.02526 1.74975 0
M  V30 49 C 7.4914 -0.4408 1.89131 0
M  V30 50 O 6.7664 -1.32718 1.42184 0
M  V30 51 C 7.0494 1.71699 3.1653 0
M  V30 52 C 6.9024 3.25791 3.10129 0
M  V30 53 C 8.2214 1.45531 4.15342 0
M  V30 54 H 5.3404 0.373863 0.635134 0
M  V30 55 H 7.9824 1.49071 1.17805 0
M  V30 56 H 6.1324 1.32128 3.65341 0
M  V30 57 H 7.8044 3.74697 2.69072 0
M  V30 58 H 6.0474 3.56363 2.47362 0
M  V30 59 H 6.7184 3.69353 4.10222 0
M  V30 60 H 9.1944 1.79872 3.75213 0
M  V30 61 H 8.0704 1.96453 5.1254 0
M  V30 62 H 8.3314 0.384237 4.40427 0
M  V30 63 N 7.3905 -1.2043 1.01659 0
M  V30 64 C 8.3225 -2.22626 0.544988 0
M  V30 65 C 9.3355 -1.58479 -0.372609 0
M  V30 66 O 10.5245 -1.77679 -0.170958 0
M  V30 67 C 7.6245 -3.38141 -0.22663 0
M  V30 68 C 6.7975 -4.31877 0.692876 0
M  V30 69 C 5.8565 -5.26191 -0.0311616 0
M  V30 70 O 4.8825 -5.6612 0.591343 0
M  V30 71 N 6.0845 -5.65618 -1.30601 0
M  V30 72 H 8.8495 -2.63716 1.42388 0
M  V30 73 H 6.4105 -1.34971 0.894116 0
M  V30 74 H 8.4025 -3.98239 -0.72024 0
M  V30 75 H 6.9725 -2.95943 -1.00681 0
M  V30 76 H 6.1925 -3.69746 1.36679 0
M  V30 77 H 7.4805 -4.91426 1.31824 0
M  V30 78 H 6.8785 -5.3519 -1.83269 0
M  V30 79 H 5.4355 -6.28025 -1.74435 0
M  V30 80 N 8.8686 -0.792821 -1.36206 0
M  V30 81 C 10.1146 -0.36733 -1.99446 0
M  V30 82 C 10.4476 1.05917 -1.62774 0
M  V30 83 O 9.7226 1.7324 -0.88421 0
M  V30 84 C 10.0056 -0.535044 -3.56103 0
M  V30 85 C 9.8586 -2.00548 -4.02617 0
M  V30 86 C 11.1776 0.0478191 -4.40074 0
M  V30 87 H 8.2966 -0.134941 -0.724541 0
M  V30 88 H 10.9386 -0.999794 -1.61568 0
M  V30 89 H 9.0886 0.00336329 -3.885 0
M  V30 90 H 10.7606 -2.60521 -3.80692 0
M  V30 91 H 9.0036 -2.50686 -3.54032 0
M  V30 92 H 9.6746 -2.07377 -5.11565 0
M  V30 93 H 12.1506 -0.411822 -4.14057 0
M  V30 94 H 11.0266 -0.0995336 -5.4881 0
M  V30 95 H 11.2876 1.14025 -4.27142 0
M  V30 96 N 10.3467 1.47872 -0.545128 0
M  V30 97 C 11.3097 2.28337 0.198717 0
M  V30 98 C 12.3097 1.36255 0.853888 0
M  V30 99 O 13.4997 1.59003 0.711606 0
M  V30 100 C 10.6317 3.15585 1.28915 0
M  V30 101 H 11.8247 2.95567 -0.507941 0
M  V30 102 H 9.3777 1.53362 -0.301616 0
M  V30 103 H 10.1127 2.53019 2.02859 0
M  V30 104 H 9.8977 3.83337 0.824309 0
M  V30 105 H 11.3877 3.76243 1.81194 0
M  V30 106 N 11.8248 0.280983 1.55075 0
M  V30 107 C 13.1018 -0.386207 1.91749 0
M  V30 108 C 13.4818 -1.73264 1.20594 0
M  V30 109 O 12.8298 -2.26034 0.334784 0
M  V30 110 C 13.0398 -0.520687 3.45094 0
M  V30 111 C 14.3878 -0.800865 4.16979 0
M  V30 112 O 15.4118 -0.605271 3.5102 0
M  V30 113 O 14.2708 -1.1753 5.33712 0
M  V30 114 H 11.3648 -0.212408 0.799257 0
M  V30 115 H 13.9108 0.327568 1.66509 0
M  V30 116 H 12.6828 0.426633 3.88967 0
M  V30 117 H 12.3058 -1.2837 3.76307 0
M  V30 118 N 13.3029 -1.57598 0.00835791 0
M  V30 119 C 14.2129 -2.12385 -0.996487 0
M  V30 120 C 15.2289 -1.07108 -1.37127 0
M  V30 121 O 16.4049 -1.39055 -1.4569 0
M  V30 122 C 13.4699 -2.62314 -2.26699 0
M  V30 123 C 12.5309 -3.82225 -1.95456 0
M  V30 124 C 11.7639 -4.29763 -3.16449 0
M  V30 125 O 11.9869 -3.76584 -4.28416 0
M  V30 126 O 10.9209 -5.21832 -2.99958 0
M  V30 127 H 14.7469 -2.98479 -0.560725 0
M  V30 128 H 12.3319 -1.47903 -0.210987 0
M  V30 129 H 14.2139 -2.94589 -3.01322 0
M  V30 130 H 12.8889 -1.79313 -2.69497 0
M  V30 131 H 11.7959 -3.54909 -1.18282 0
M  V30 132 H 13.1289 -4.66324 -1.57489 0
M  V30 133 N 14.781 0.264519 -1.55364 0
M  V30 134 C 16.027 0.99646 -1.76631 0
M  V30 135 C 16.36 1.85632 -0.570478 0
M  V30 136 O 15.635 1.89647 0.43175 0
M  V30 137 C 15.918 1.87187 -3.07625 0
M  V30 138 C 15.771 1.04138 -4.37579 0
M  V30 139 C 17.09 2.85749 -3.34717 0
M  V30 140 H 14.209 0.360841 -0.642622 0
M  V30 141 H 16.851 0.268218 -1.88097 0
M  V30 142 H 15.001 2.49279 -2.9798 0
M  V30 143 H 16.673 0.440517 -4.59192 0
M  V30 144 H 14.916 0.345115 -4.32425 0
M  V30 145 H 15.587 1.68729 -5.2558 0
M  V30 146 H 18.063 2.33793 -3.4421 0
M  V30 147 H 16.939 3.44136 -4.27623 0
M  V30 148 H 17.2 3.61311 -2.54768 0
M  V30 149 N 16.2591 1.48442 0.529413 0
M  V30 150 C 17.4991 1.58086 1.29569 0
M  V30 151 C 17.8631 0.249302 1.90375 0
M  V30 152 O 19.0641 0.220738 2.67892 0
M  V30 153 C 17.3351 2.68793 2.35552 0
M  V30 154 S 18.8941 2.98207 3.21898 0
M  V30 155 H 15.7121 0.557922 0.440732 0
M  V30 156 H 18.3141 1.85966 0.603059 0
M  V30 157 H 17.0181 3.64102 1.89363 0
M  V30 158 H 16.5491 2.42817 3.09522 0
M  V30 159 H 18.5641 2.37548 4.35644 0
M  V30 160 N 17.7372 -0.778329 1.37039 0
M  V30 161 C 19.1532 -1.07796 1.17695 0
M  V30 162 C 19.3532 -2.01498 0.00860115 0
M  V30 163 O 18.4092 -2.43901 -0.653352 0
M  V30 164 C 19.7222 -1.68178 2.49272 0
M  V30 165 C 21.2702 -1.80467 2.55735 0
M  V30 166 C 21.7452 -2.44263 3.87427 0
M  V30 167 N 23.2362 -2.51721 3.88833 0
M  V30 168 C 23.9712 -3.01919 4.87476 0
M  V30 169 N 23.4672 -3.5234 5.96513 0
M  V30 170 N 25.2602 -3.00733 4.74885 0
M  V30 171 H 17.4112 -0.156032 2.11826 0
M  V30 172 H 19.6742 -0.131844 0.938787 0
M  V30 173 H 19.3802 -1.06796 3.35093 0
M  V30 174 H 19.2542 -2.67554 2.65885 0
M  V30 175 H 21.6412 -2.40984 1.70325 0
M  V30 176 H 21.7222 -0.798656 2.43013 0
M  V30 177 H 21.3662 -1.84388 4.73248 0
M  V30 178 H 21.2962 -3.45458 3.9745 0
M  V30 179 H 23.7872 -2.1603 3.10063 0
M  V30 180 H 24.1002 -3.89027 6.67741 0
M  V30 181 H 22.4452 -3.50462 6.00168 0
M  V30 182 H 25.6362 -2.60638 3.88826 0
M  V30 183 H 25.8092 -3.39545 5.51918 0
M  V30 184 N 19.2153 -1.21501 -1.00376 0
M  V30 185 C 20.4643 -1.02718 -1.73586 0
M  V30 186 C 20.7773 0.439589 -1.90596 0
M  V30 187 O 21.9833 0.746848 -2.61026 0
M  V30 188 C 20.4393 -1.78929 -3.1227 0
M  V30 189 C 20.0473 -3.29783 -3.03228 0
M  V30 190 C 21.7913 -1.68557 -3.89601 0
M  V30 191 C 19.6983 -3.98479 -4.36999 0
M  V30 192 H 18.6283 -0.380733 -0.650814 0
M  V30 193 H 21.2793 -1.45248 -1.1214 0
M  V30 194 H 19.6613 -1.29192 -3.74333 0
M  V30 195 H 20.8353 -3.86832 -2.50395 0
M  V30 196 H 19.1503 -3.40711 -2.39385 0
M  V30 197 H 21.7473 -2.17211 -4.88593 0
M  V30 198 H 22.0903 -0.644021 -4.11288 0
M  V30 199 H 22.6233 -2.15778 -3.34193 0
M  V30 200 H 19.3623 -5.02841 -4.20513 0
M  V30 201 H 18.8823 -3.46219 -4.89788 0
M  V30 202 H 20.5613 -4.03462 -5.05794 0
M  V30 203 N 20.6934 1.19889 -1.02296 0
M  V30 204 C 21.9404 1.8942 -0.715972 0
M  V30 205 C 22.2684 1.79251 0.754944 0
M  V30 206 O 21.5234 1.17526 1.56481 0
M  V30 207 C 21.8224 3.39883 -1.10518 0
M  V30 208 C 21.4884 3.70254 -2.57337 0
M  V30 209 C 20.1504 3.78254 -2.97452 0
M  V30 210 C 22.5024 3.84052 -3.52354 0
M  V30 211 C 19.8304 3.97514 -4.31509 0
M  V30 212 C 22.1824 4.04824 -4.86108 0
M  V30 213 C 20.8464 4.11054 -5.25919 0
M  V30 214 H 20.1164 0.693138 -0.261993 0
M  V30 215 H 22.7634 1.42012 -1.28472 0
M  V30 216 H 21.0684 3.8915 -0.454953 0
M  V30 217 H 22.7654 3.9199 -0.845261 0
M  V30 218 H 19.3554 3.64632 -2.25258 0
M  V30 219 H 23.5394 3.77221 -3.22518 0
M  V30 220 H 18.7954 4.00574 -4.61898 0
M  V30 221 H 22.9694 4.14442 -5.59653 0
M  V30 222 H 20.5964 4.2573 -6.29808 0
M  V30 223 N 22.1715 0.800033 1.35784 0
M  V30 224 C 23.4015 0.389041 2.02904 0
M  V30 225 C 23.8095 -1.0027 1.60445 0
M  V30 226 O 23.1525 -1.65633 0.794453 0
M  V30 227 C 23.2145 0.385495 3.57427 0
M  V30 228 C 22.8785 1.72662 4.23127 0
M  V30 229 C 23.8755 2.68385 4.4527 0
M  V30 230 C 21.5605 2.00883 4.60381 0
M  V30 231 C 23.5545 3.90517 5.03761 0
M  V30 232 C 21.2415 3.2328 5.18588 0
M  V30 233 C 22.2395 4.17915 5.40218 0
M  V30 234 O 21.9275 5.38153 5.97199 0
M  V30 235 H 21.6595 0.157032 0.657508 0
M  V30 236 H 24.2135 1.08311 1.74522 0
M  V30 237 H 22.4435 -0.365128 3.84972 0
M  V30 238 H 24.1325 -0.00228296 4.059 0
M  V30 239 H 24.8985 2.47872 4.16874 0
M  V30 240 H 20.7775 1.28037 4.42863 0
M  V30 241 H 24.3215 4.64395 5.2056 0
M  V30 242 H 20.2185 3.43667 5.4641 0
M  V30 243 H 20.9865 5.3936 6.15656 0
M  V30 244 N 23.6496 -1.47581 0.552962 0
M  V30 245 C 24.9266 -1.95563 -0.0381515 0
M  V30 246 C 25.3066 -1.49552 -1.48988 0
M  V30 247 O 24.6546 -0.732414 -2.16444 0
M  V30 248 C 24.8646 -3.48848 0.102919 0
M  V30 249 C 26.2126 -4.24577 -0.0446082 0
M  V30 250 O 27.2366 -3.56187 0.0302548 0
M  V30 251 O 26.0956 -5.46116 -0.204923 0
M  V30 252 H 23.1896 -0.824321 -0.0665067 0
M  V30 253 H 25.7356 -1.58001 0.619186 0
M  V30 254 H 24.5076 -3.75129 1.11328 0
M  V30 255 H 24.1306 -3.93165 -0.592224 0
M  V30 256 N 25.1277 -0.289203 -1.54924 0
M  V30 257 C 26.0607 0.633823 -2.19221 0
M  V30 258 C 27.0387 1.14174 -1.15772 0
M  V30 259 O 28.2227 1.21211 -1.44361 0
M  V30 260 C 25.3497 1.86592 -2.82668 0
M  V30 261 C 24.3957 1.49227 -3.99542 0
M  V30 262 S 25.2287 0.558312 -5.32582 0
M  V30 263 C 26.3847 1.79847 -5.99505 0
M  V30 264 H 26.6177 0.0875416 -2.97171 0
M  V30 265 H 24.1507 -0.0733899 -1.54225 0
M  V30 266 H 26.1087 2.57305 -3.19851 0
M  V30 267 H 24.7697 2.38335 -2.04585 0
M  V30 268 H 23.9627 2.40945 -4.42676 0
M  V30 269 H 23.5647 0.865193 -3.63855 0
M  V30 270 H 25.8567 2.7406 -6.19595 0
M  V30 271 H 26.7997 1.4099 -6.93922 0
M  V30 272 H 27.2077 1.96982 -5.29016 0
M  V30 273 N 26.6058 1.57591 -0.0167156 0
M  V30 274 C 27.5528 2.09462 0.969251 0
M  V30 275 C 28.5228 0.99381 1.33089 0
M  V30 276 O 29.7078 1.26726 1.42636 0
M  V30 277 C 26.8478 2.61622 2.25051 0
M  V30 278 C 25.9608 3.85666 1.94642 0
M  V30 279 C 25.0958 4.26266 3.16972 0
M  V30 280 C 24.1348 5.43101 2.82326 0
M  V30 281 N 23.2718 5.78915 3.97243 0
M  V30 282 H 28.1118 2.93428 0.519997 0
M  V30 283 H 25.6488 1.45044 0.245087 0
M  V30 284 H 27.6068 2.89949 2.99976 0
M  V30 285 H 26.2368 1.80505 2.67615 0
M  V30 286 H 25.2888 3.64145 1.10013 0
M  V30 287 H 26.6008 4.70678 1.65117 0
M  V30 288 H 25.7548 4.55963 4.00228 0
M  V30 289 H 24.4938 3.39996 3.49648 0
M  V30 290 H 23.4988 5.1311 1.97479 0
M  V30 291 H 24.7238 6.3106 2.50879 0
M  V30 292 H 22.6698 4.95602 4.29785 0
M  V30 293 H 22.5868 6.58539 3.71299 0
M  V30 294 H 23.8548 6.13212 4.81239 0
M  V30 295 N 28.0839 -0.256276 1.55502 0
M  V30 296 C 29.3299 -0.987079 1.77157 0
M  V30 297 C 29.6629 -1.85327 0.580315 0
M  V30 298 O 28.9379 -1.89874 -0.421686 0
M  V30 299 C 29.2209 -1.85553 3.08613 0
M  V30 300 C 29.0739 -1.01816 4.38125 0
M  V30 301 C 30.3929 -2.8397 3.36228 0
M  V30 302 H 27.5119 -0.357428 0.644526 0
M  V30 303 H 30.1539 -0.258239 1.88237 0
M  V30 304 H 28.3039 -2.47695 2.99298 0
M  V30 305 H 29.9759 -0.416159 4.59419 0
M  V30 306 H 28.2189 -0.322178 4.32602 0
M  V30 307 H 28.8899 -1.65939 5.26468 0
M  V30 308 H 31.3659 -2.31964 3.45445 0
M  V30 309 H 30.2419 -3.41864 4.29442 0
M  V30 310 H 30.5029 -3.59955 2.56681 0
M  V30 311 N 29.562 -1.4872 -0.521534 0
M  V30 312 C 30.978 -1.35028 -0.850855 0
M  V30 313 C 31.178 -0.367712 -1.98116 0
M  V30 314 O 30.234 0.208037 -2.51642 0
M  V30 315 C 31.547 -2.75263 -1.21041 0
M  V30 316 C 33.095 -2.83813 -1.31981 0
M  V30 317 C 33.57 -4.24769 -1.71276 0
M  V30 318 N 35.061 -4.27482 -1.78363 0
M  V30 319 C 35.796 -5.33494 -2.1017 0
M  V30 320 N 35.292 -6.49775 -2.40343 0
M  V30 321 N 37.085 -5.20894 -2.11248 0
M  V30 322 H 29.236 -2.11214 0.22413 0
M  V30 323 H 31.499 -0.947252 0.0376439 0
M  V30 324 H 31.205 -3.48765 -0.453415 0
M  V30 325 H 31.079 -3.09327 -2.15863 0
M  V30 326 H 33.466 -2.10561 -2.06756 0
M  V30 327 H 33.547 -2.53358 -0.352596 0
M  V30 328 H 33.191 -4.9854 -0.970588 0
M  V30 329 H 33.121 -4.52673 -2.69062 0
M  V30 330 H 35.612 -3.43611 -1.57288 0
M  V30 331 H 35.925 -7.26402 -2.63743 0
M  V30 332 H 34.27 -6.53035 -2.37844 0
M  V30 333 H 37.461 -4.29065 -1.87139 0
M  V30 334 H 37.634 -6.03612 -2.35704 0
M  V30 335 N 31.0401 0.771051 -1.3745 0
M  V30 336 C 31.9871 1.88435 -1.3327 0
M  V30 337 C 32.9571 1.64914 -0.198136 0
M  V30 338 O 34.1421 1.86821 -0.387606 0
M  V30 339 C 31.2821 3.25509 -1.14622 0
M  V30 340 C 30.3951 3.60979 -2.37314 0
M  V30 341 C 29.5301 4.87265 -2.11533 0
M  V30 342 C 28.5691 5.15469 -3.30088 0
M  V30 343 N 27.7061 6.32944 -3.03853 0
M  V30 344 H 32.5461 1.91344 -2.28455 0
M  V30 345 H 30.0831 0.935466 -1.13523 0
M  V30 346 H 32.0411 4.04582 -1.01831 0
M  V30 347 H 30.6711 3.21974 -0.230837 0
M  V30 348 H 29.7231 2.76885 -2.60842 0
M  V30 349 H 31.0351 3.77759 -3.25729 0
M  V30 350 H 30.1891 5.74244 -1.95777 0
M  V30 351 H 28.9281 4.7259 -1.20457 0
M  V30 352 H 27.9331 4.26966 -3.46382 0
M  V30 353 H 29.1581 5.32052 -4.22016 0
M  V30 354 H 27.1041 6.19625 -2.15407 0
M  V30 355 H 27.0211 6.50143 -3.85812 0
M  V30 356 H 28.2891 7.22857 -2.91716 0
M  V30 357 N 32.5182 1.22032 0.997298 0
M  V30 358 C 33.7582 1.05375 1.75144 0
M  V30 359 C 34.1222 -0.404696 1.87686 0
M  V30 360 O 35.3232 -0.691998 2.5974 0
M  V30 361 C 33.5942 1.74046 3.12158 0
M  V30 362 S 35.1532 1.72745 4.03366 0
M  V30 363 H 31.9712 0.377449 0.602539 0
M  V30 364 H 34.5732 1.54902 1.19272 0
M  V30 365 H 33.2772 2.79332 3.00669 0
M  V30 366 H 32.8082 1.24731 3.73103 0
M  V30 367 H 34.8232 0.774015 4.90126 0
M  V30 368 N 33.9963 -1.19345 1.0293 0
M  V30 369 C 35.2213 -1.93538 0.745511 0
M  V30 370 C 35.6463 -1.75007 -0.689511 0
M  V30 371 O 35.0043 -1.05265 -1.47611 0
M  V30 372 C 35.0523 -3.43336 1.10239 0
M  V30 373 O 34.1563 -4.11806 0.221289 0
M  V30 374 H 33.4973 -0.604193 0.275404 0
M  V30 375 H 36.0273 -1.5141 1.37609 0
M  V30 376 H 36.0373 -3.94004 1.05947 0
M  V30 377 H 34.7123 -3.56146 2.14786 0
M  V30 378 H 33.2893 -3.715 0.322842 0
M  V30 379 N 35.4744 -0.807222 -1.35358 0
M  V30 380 C 36.7024 -0.400377 -2.02989 0
M  V30 381 C 37.1174 0.988859 -1.60832 0
M  V30 382 O 36.4744 1.63729 -0.806175 0
M  V30 383 C 36.5254 -0.474867 -3.58368 0
M  V30 384 O 36.2464 -1.80933 -3.98992 0
M  V30 385 C 37.7474 -0.0609112 -4.43258 0
M  V30 386 H 34.9674 -0.162587 -0.651004 0
M  V30 387 H 37.5114 -1.09102 -1.72965 0
M  V30 388 H 35.6664 0.167534 -3.87038 0
M  V30 389 H 36.0804 -1.77256 -4.9364 0
M  V30 390 H 37.5544 -0.164145 -5.51756 0
M  V30 391 H 38.0314 0.993831 -4.27808 0
M  V30 392 H 38.6374 -0.676492 -4.19885 0
M  V30 393 N 36.9525 1.47285 -0.560781 0
M  V30 394 C 38.3635 1.86258 -0.128343 0
M  V30 395 C 38.7145 1.46699 1.30284 0
M  V30 396 O 37.8395 0.871698 1.98067 0
M  V30 397 C 38.4345 3.38044 -0.22614 0
M  V30 398 C 36.9935 3.76096 0.151283 0
M  V30 399 C 36.1405 2.71335 -0.572084 0
M  V30 400 H 39.0915 1.38752 -0.770297 0
M  V30 401 H 39.1125 3.76441 0.554322 0
M  V30 402 H 38.6245 3.66806 -1.26788 0
M  V30 403 H 36.7255 3.52951 1.19399 0
M  V30 404 H 36.8385 4.78641 -0.209765 0
M  V30 405 H 35.2025 2.54696 -0.0147653 0
M  V30 406 H 35.9855 3.02938 -1.61504 0
M  V30 407 N 38.4306 0.297415 1.54768 0
M  V30 408 C 39.3406 -0.58983 2.27064 0
M  V30 409 C 40.3566 -1.15144 1.30453 0
M  V30 410 O 41.5326 -1.17699 1.63428 0
M  V30 411 C 38.5976 -1.74714 2.9946 0
M  V30 412 C 37.6586 -1.21997 4.11601 0
M  V30 413 C 36.8916 -2.32212 4.80535 0
M  V30 414 O 37.1146 -3.52036 4.48806 0
M  V30 415 O 36.0486 -1.99106 5.68014 0
M  V30 416 H 39.8746 -0.00348199 3.037 0
M  V30 417 H 37.4596 0.0640035 1.49263 0
M  V30 418 H 39.3416 -2.42147 3.44881 0
M  V30 419 H 38.0166 -2.32016 2.25722 0
M  V30 420 H 36.9236 -0.511458 3.70587 0
M  V30 421 H 38.2566 -0.692419 4.87305 0
M  V30 422 N 39.9087 -1.5758 0.0250728 0
M  V30 423 C 40.8187 -2.1343 -0.973905 0
M  V30 424 C 41.8347 -1.08556 -1.35984 0
M  V30 425 O 43.0107 -1.40592 -1.44207 0
M  V30 426 C 40.0757 -2.64703 -2.23904 0
M  V30 427 C 39.1367 -3.84276 -1.91391 0
M  V30 428 C 38.3697 -4.33095 -3.11873 0
M  V30 429 O 38.5927 -3.81107 -4.24398 0
M  V30 430 O 37.5267 -5.24984 -2.94406 0
M  V30 431 H 41.3527 -2.99057 -0.529036 0
M  V30 432 H 38.9377 -1.48118 -0.195288 0
M  V30 433 H 40.8197 -2.97769 -2.98181 0
M  V30 434 H 39.4947 -1.82161 -2.6758 0
M  V30 435 H 38.4017 -3.56143 -1.14511 0
M  V30 436 H 39.7347 -4.67968 -1.52534 0
M  V30 437 N 41.3868 0.248026 -1.55636 0
M  V30 438 C 42.6358 0.974134 -1.76617 0
M  V30 439 C 42.9488 1.86528 -0.588796 0
M  V30 440 O 44.1548 2.62805 -0.681594 0
M  V30 441 C 42.6108 1.78213 -3.12679 0
M  V30 442 C 42.2188 0.93843 -4.38061 0
M  V30 443 C 43.9628 2.50104 -3.42999 0
M  V30 444 C 41.8698 1.74225 -5.65155 0
M  V30 445 H 40.7998 0.36745 -0.658405 0
M  V30 446 H 43.4508 0.22884 -1.82067 0
M  V30 447 H 41.8328 2.56933 -3.01333 0
M  V30 448 H 43.0068 0.193635 -4.60393 0
M  V30 449 H 41.3218 0.332905 -4.15067 0
M  V30 450 H 43.9188 3.10694 -4.3517 0
M  V30 451 H 44.2618 3.21662 -2.64271 0
M  V30 452 H 44.7948 1.78395 -3.55556 0
M  V30 453 H 41.5338 1.07043 -6.46701 0
M  V30 454 H 41.0538 2.46235 -5.46926 0
M  V30 455 H 42.7328 2.30967 -6.0437 0
M  V30 456 N 42.8649 1.48995 0.513639 0
M  V30 457 C 43.8119 1.6473 1.61656 0
M  V30 458 C 44.7819 0.488984 1.58739 0
M  V30 459 O 45.9669 0.714478 1.76918 0
M  V30 460 C 43.1069 1.7082 2.99858 0
M  V30 461 C 42.2199 2.9787 3.12885 0
M  V30 462 C 41.3549 2.95017 4.41744 0
M  V30 463 C 40.3939 4.16702 4.48359 0
M  V30 464 N 39.5309 4.11832 5.68629 0
M  V30 465 H 44.3709 2.58909 1.47547 0
M  V30 466 H 41.9079 1.28382 0.71808 0
M  V30 467 H 43.8659 1.72331 3.79944 0
M  V30 468 H 42.4959 0.801181 3.12699 0
M  V30 469 H 41.5479 3.06029 2.25944 0
M  V30 470 H 42.8599 3.8786 3.13633 0
M  V30 471 H 42.0139 2.95021 5.30139 0
M  V30 472 H 40.7529 2.02784 4.43542 0
M  V30 473 H 39.7579 4.16955 3.58369 0
M  V30 474 H 40.9829 5.10113 4.48287 0
M  V30 475 H 38.9289 3.22428 5.71293 0
M  V30 476 H 38.8459 4.95543 5.7094 0
M  V30 477 H 40.1139 4.1592 6.59266 0
M  V30 478 N 44.343 -0.763751 1.37857 0
M  V30 479 C 45.29 -1.87726 1.34267 0
M  V30 480 C 46.26 -1.64807 0.206879 0
M  V30 481 O 47.445 -1.86613 0.397508 0
M  V30 482 C 44.585 -3.24896 1.16346 0
M  V30 483 C 43.698 -3.59716 2.39225 0
M  V30 484 C 42.833 -4.86137 2.14114 0
M  V30 485 C 41.872 -5.13711 3.32817 0
M  V30 486 N 41.009 -6.31323 3.07206 0
M  V30 487 H 45.849 -1.90129 2.29466 0
M  V30 488 H 43.386 -0.929433 1.14017 0
M  V30 489 H 45.344 -4.04036 1.03975 0
M  V30 490 H 43.974 -3.21847 0.247909 0
M  V30 491 H 43.026 -2.75498 2.62307 0
M  V30 492 H 44.338 -3.76027 3.27728 0
M  V30 493 H 43.492 -5.73198 1.9882 0
M  V30 494 H 42.231 -4.71945 1.22961 0
M  V30 495 H 41.236 -4.25123 3.48641 0
M  V30 496 H 42.461 -5.29807 4.24832 0
M  V30 497 H 40.407 -6.18474 2.1869 0
M  V30 498 H 40.324 -6.48087 3.89254 0
M  V30 499 H 41.592 -7.213 2.95546 0
M  V30 500 N 45.8211 -1.22559 -0.990812 0
M  V30 501 C 47.2371 -0.985996 -1.255 0
M  V30 502 C 47.4371 0.319173 -1.98956 0
M  V30 503 O 46.4931 1.04127 -2.3003 0
M  V30 504 C 47.8061 -2.18607 -2.06474 0
M  V30 505 C 49.3541 -2.22985 -2.19651 0
M  V30 506 C 49.8291 -3.4255 -3.04012 0
M  V30 507 N 51.3201 -3.42725 -3.11599 0
M  V30 508 C 52.0551 -4.31892 -3.7717 0
M  V30 509 N 51.5511 -5.31279 -4.44651 0
M  V30 510 N 53.3441 -4.19662 -3.73952 0
M  V30 511 H 45.4951 -2.06469 -0.49841 0
M  V30 512 H 47.7581 -0.904853 -0.282747 0
M  V30 513 H 47.4641 -3.13267 -1.59865 0
M  V30 514 H 47.3381 -2.18838 -3.07229 0
M  V30 515 H 49.7251 -1.28871 -2.65474 0
M  V30 516 H 49.8061 -2.26791 -1.18319 0
M  V30 517 H 49.4501 -4.36965 -2.58889 0
M  V30 518 H 49.3801 -3.35984 -4.0549 0
M  V30 519 H 51.8711 -2.70807 -2.63575 0
M  V30 520 H 52.1841 -5.95593 -4.92431 0
M  V30 521 H 50.5291 -5.3519 -4.43392 0
M  V30 522 H 53.7201 -3.41268 -3.20396 0
M  V30 523 H 53.8931 -4.89358 -4.24774 0
M  V30 524 N 47.2992 1.18797 -1.03562 0
M  V30 525 C 48.2462 2.22253 -0.622259 0
M  V30 526 C 49.2162 1.61987 0.36736 0
M  V30 527 O 50.4012 1.88986 0.262492 0
M  V30 528 C 47.5412 3.45097 0.0138462 0
M  V30 529 C 46.6542 4.19722 -1.02263 0
M  V30 530 C 45.7892 5.30009 -0.355573 0
M  V30 531 C 44.8282 5.96399 -1.37749 0
M  V30 532 N 43.9652 6.98234 -0.735766 0
M  V30 533 H 48.8052 2.56968 -1.50903 0
M  V30 534 H 46.3422 1.26245 -0.755017 0
M  V30 535 H 48.3002 4.15279 0.399948 0
M  V30 536 H 46.9302 3.11018 0.864158 0
M  V30 537 H 45.9822 3.48418 -1.52673 0
M  V30 538 H 47.2942 4.65227 -1.79903 0
M  V30 539 H 46.4482 6.0664 0.0850095 0
M  V30 540 H 45.1872 4.85592 0.452967 0
M  V30 541 H 44.1922 5.18512 -1.82826 0
M  V30 542 H 45.4172 6.42899 -2.18764 0
M  V30 543 H 43.3632 6.55979 0.0525597 0
M  V30 544 H 43.2802 7.41965 -1.44995 0
M  V30 545 H 44.5482 7.78845 -0.31941 0
M  V30 546 N 48.7773 0.814389 1.34928 0
M  V30 547 C 49.7243 0.22822 2.29669 0
M  V30 548 C 50.6943 -0.642164 1.53184 0
M  V30 549 O 51.8793 -0.585605 1.81591 0
M  V30 550 C 49.0193 -0.61089 3.3965 0
M  V30 551 C 48.1323 0.280792 4.31086 0
M  V30 552 C 47.2673 -0.567067 5.28165 0
M  V30 553 C 46.3063 0.324531 6.11239 0
M  V30 554 N 45.4433 -0.483756 7.00431 0
M  V30 555 H 50.2833 1.04153 2.79206 0
M  V30 556 H 47.8203 0.525133 1.37407 0
M  V30 557 H 49.7783 -1.11263 4.0209 0
M  V30 558 H 48.4083 -1.38939 2.91369 0
M  V30 559 H 47.4603 0.900688 3.69583 0
M  V30 560 H 48.7723 0.966723 4.89342 0
M  V30 561 H 47.9263 -1.13363 5.96015 0
M  V30 562 H 46.6653 -1.28654 4.70425 0
M  V30 563 H 45.6703 0.903298 5.42329 0
M  V30 564 H 46.8953 1.04198 6.71059 0
M  V30 565 H 44.8413 -1.18706 6.45171 0
M  V30 566 H 44.7583 0.143965 7.55863 0
M  V30 567 H 46.0263 -1.03334 7.7262 0
M  V30 568 N 50.2554 -1.46986 0.568584 0
M  V30 569 C 51.2184 -2.28624 -0.162366 0
M  V30 570 C 52.2184 -1.37596 -0.832103 0
M  V30 571 O 53.4084 -1.60115 -0.68622 0
M  V30 572 C 50.5404 -3.17596 -1.23878 0
M  V30 573 H 51.7334 -2.94722 0.554899 0
M  V30 574 H 49.2864 -1.52863 0.325976 0
M  V30 575 H 50.0214 -2.56214 -1.98808 0
M  V30 576 H 49.8064 -3.846 -0.763219 0
M  V30 577 H 51.2964 -3.79078 -1.75185 0
M  V30 578 N 51.7335 -0.305618 -1.54608 0
M  V30 579 C 52.9795 0.302746 -2.00528 0
M  V30 580 C 53.3125 1.53184 -1.19367 0
M  V30 581 O 52.5875 1.92598 -0.271321 0
M  V30 582 C 52.8705 0.654756 -3.54097 0
M  V30 583 C 52.7235 -0.583793 -4.45995 0
M  V30 584 C 54.0425 1.47947 -4.14487 0
M  V30 585 H 51.1615 0.108564 -0.72896 0
M  V30 586 H 53.8035 -0.418634 -1.85331 0
M  V30 587 H 51.9535 1.26935 -3.67178 0
M  V30 588 H 53.6255 -1.22224 -4.44814 0
M  V30 589 H 51.8685 -1.21615 -4.16404 0
M  V30 590 H 52.5395 -0.293287 -5.5122 0
M  V30 591 H 55.0155 0.96013 -4.04871 0
M  V30 592 H 53.8915 1.69454 -5.22088 0
M  V30 593 H 54.1525 2.47011 -3.66658 0
M  V30 594 N 53.2116 1.57565 -0.0334293 0
M  V30 595 C 54.4606 1.91155 0.643639 0
M  V30 596 C 54.7736 0.91192 1.73042 0
M  V30 597 O 55.9796 1.13923 2.46442 0
M  V30 598 C 54.4356 3.39443 1.1961 0
M  V30 599 C 54.0436 4.47774 0.142381 0
M  V30 600 C 55.7876 3.82094 1.84944 0
M  V30 601 C 53.6946 5.87162 0.706727 0
M  V30 602 H 52.6246 0.713368 0.244176 0
M  V30 603 H 55.2756 1.8323 -0.0994323 0
M  V30 604 H 53.6576 3.42313 1.99092 0
M  V30 605 H 54.8316 4.56469 -0.630296 0
M  V30 606 H 53.1466 4.14352 -0.412446 0
M  V30 607 H 55.7436 4.83591 2.2813 0
M  V30 608 H 56.0866 3.17386 2.69392 0
M  V30 609 H 56.6196 3.81665 1.12145 0
M  V30 610 H 53.3586 6.55424 -0.0997178 0
M  V30 611 H 52.8786 5.82064 1.44779 0
M  V30 612 H 54.5576 6.35866 1.19514 0
M  V30 613 N 54.6897 -0.239769 1.55765 0
M  V30 614 C 55.9367 -0.966801 1.7793 0
M  V30 615 C 56.2647 -1.85046 0.599015 0
M  V30 616 O 55.5197 -1.91197 -0.417395 0
M  V30 617 C 55.8187 -1.852 3.05672 0
M  V30 618 C 55.4847 -1.1231 4.36689 0
M  V30 619 C 54.1467 -0.921689 4.72291 0
M  V30 620 C 56.4987 -0.607019 5.17653 0
M  V30 621 C 53.8267 -0.191996 5.86386 0
M  V30 622 C 56.1787 0.109241 6.32506 0
M  V30 623 C 54.8427 0.322073 6.66723 0
M  V30 624 H 54.1127 -0.353778 0.651093 0
M  V30 625 H 56.7597 -0.23634 1.90036 0
M  V30 626 H 55.0647 -2.64975 2.8861 0
M  V30 627 H 56.7617 -2.41635 3.20021 0
M  V30 628 H 53.3517 -1.29004 4.08725 0
M  V30 629 H 57.5357 -0.750153 4.90598 0
M  V30 630 H 52.7917 -0.0166949 6.11398 0
M  V30 631 H 56.9657 0.516737 6.9448 0
M  V30 632 H 54.5927 0.88944 7.54979 0
M  V30 633 N 56.1678 -1.49265 -0.50573 0
M  V30 634 C 57.4078 -1.60128 -1.27038 0
M  V30 635 C 57.7718 -0.279557 -1.89954 0
M  V30 636 O 58.9728 -0.263329 -2.67507 0
M  V30 637 C 57.2438 -2.72507 -2.31246 0
M  V30 638 S 58.8028 -3.0329 -3.17113 0
M  V30 639 H 55.6208 -0.564863 -0.4318 0
M  V30 640 H 58.2228 -1.86902 -0.573397 0
M  V30 641 H 56.9268 -3.67068 -1.83546 0
M  V30 642 H 56.4578 -2.4771 -3.05619 0
M  V30 643 H 58.4728 -2.44448 -4.31809 0
M  V30 644 N 57.6459 0.756429 -1.3826 0
M  V30 645 C 58.5759 1.88374 -1.37976 0
M  V30 646 C 59.5569 1.68311 -0.246082 0
M  V30 647 O 60.7419 1.88944 -0.44874 0
M  V30 648 C 57.8719 3.25864 -1.20125 0
M  V30 649 C 56.8259 3.60523 -2.30666 0
M  V30 650 C 56.1519 4.9672 -1.97923 0
M  V30 651 C 57.4519 3.65692 -3.72916 0
M  V30 652 H 59.1459 1.88869 -2.32312 0
M  V30 653 H 56.6919 0.907272 -1.11824 0
M  V30 654 H 58.6449 4.0438 -1.18552 0
M  V30 655 H 57.3689 3.25841 -0.222498 0
M  V30 656 H 56.0279 2.84324 -2.3142 0
M  V30 657 H 55.6759 4.93253 -0.985393 0
M  V30 658 H 55.3759 5.20878 -2.71955 0
M  V30 659 H 56.8999 5.77618 -1.97964 0
M  V30 660 H 58.3139 4.34328 -3.74208 0
M  V30 661 H 56.7109 4.01358 -4.4613 0
M  V30 662 H 57.7809 2.65987 -4.05436 0
M  V30 663 N 59.124 1.23083 0.984299 0
M  V30 664 C 60.349 1.088 1.76571 0
M  V30 665 C 60.774 -0.356657 1.84688 0
M  V30 666 O 60.132 -1.25788 1.30565 0
M  V30 667 C 60.18 1.71371 3.17277 0
M  V30 668 O 59.284 0.973213 4.00752 0
M  V30 669 H 58.625 0.381599 0.543395 0
M  V30 670 H 61.155 1.63057 1.23587 0
M  V30 671 H 61.165 1.76449 3.67872 0
M  V30 672 H 59.84 2.76493 3.10684 0
M  V30 673 H 58.417 0.999078 3.59267 0
M  V30 674 N 60.6021 -1.18246 1.0419 0
M  V30 675 C 61.5651 -2.20128 0.638452 0
M  V30 676 C 62.5651 -1.57885 -0.304805 0
M  V30 677 O 63.7551 -1.73967 -0.0900369 0
M  V30 678 C 60.8871 -3.4084 -0.0637751 0
M  V30 679 H 62.0801 -2.57336 1.54007 0
M  V30 680 H 59.6331 -1.32152 0.834598 0
M  V30 681 H 60.3681 -3.09166 -0.979136 0
M  V30 682 H 60.1531 -3.8726 0.614198 0
M  V30 683 H 61.6431 -4.16274 -0.332512 0
M  V30 684 N 62.0802 -0.821533 -1.34494 0
M  V30 685 C 63.3572 -0.33159 -1.92769 0
M  V30 686 C 63.7372 1.18088 -1.74981 0
M  V30 687 O 63.0852 1.98733 -1.12772 0
M  V30 688 C 63.2952 -0.759398 -3.40638 0
M  V30 689 C 64.6432 -0.757433 -4.1779 0
M  V30 690 O 65.6672 -0.70189 -3.49216 0
M  V30 691 O 64.5262 -0.829361 -5.4017 0
M  V30 692 H 61.6202 -0.0902502 -0.822061 0
M  V30 693 H 64.1662 -0.906231 -1.43477 0
M  V30 694 H 62.9382 -1.8012 -3.47379 0
M  V30 695 H 62.5612 -0.160378 -3.97276 0
M  V30 696 N 63.5583 1.46682 -0.576371 0
M  V30 697 C 64.5053 2.30241 0.160499 0
M  V30 698 C 65.4753 1.40233 0.890162 0
M  V30 699 O 66.6603 1.69186 0.882084 0
M  V30 700 C 63.8003 3.24578 1.1723 0
M  V30 701 C 62.9133 4.29684 0.446736 0
M  V30 702 C 62.0483 5.11154 1.44551 0
M  V30 703 C 61.0873 6.08015 0.70599 0
M  V30 704 N 60.2243 6.82376 1.65251 0
M  V30 705 H 65.0643 2.92727 -0.558127 0
M  V30 706 H 62.6013 1.44272 -0.287056 0
M  V30 707 H 64.5593 3.77711 1.77172 0
M  V30 708 H 63.1893 2.63916 1.85872 0
M  V30 709 H 62.2413 3.79458 -0.267594 0
M  V30 710 H 63.5533 4.98626 -0.131686 0
M  V30 711 H 62.7073 5.68533 2.11791 0
M  V30 712 H 61.4463 4.42158 2.05786 0
M  V30 713 H 60.4513 5.49796 0.0197725 0
M  V30 714 H 61.6763 6.79028 0.09912 0
M  V30 715 H 59.6223 6.16094 2.25308 0
M  V30 716 H 59.5393 7.47556 1.12673 0
M  V30 717 H 60.8073 7.44316 2.31546 0
M  V30 718 N 65.0364 0.313813 1.54444 0
M  V30 719 C 65.9834 -0.55655 2.23989 0
M  V30 720 C 66.9534 -1.11943 1.22711 0
M  V30 721 O 68.1384 -1.16158 1.51367 0
M  V30 722 C 65.2784 -1.71635 2.99392 0
M  V30 723 C 64.3914 -1.18364 4.15468 0
M  V30 724 C 63.5264 -2.30834 4.78424 0
M  V30 725 C 62.5654 -1.74762 5.86622 0
M  V30 726 N 61.7024 -2.80855 6.43479 0
M  V30 727 H 66.5424 0.0430893 2.97969 0
M  V30 728 H 64.0794 0.0330359 1.47063 0
M  V30 729 H 66.0374 -2.39868 3.41349 0
M  V30 730 H 64.6674 -2.28742 2.27765 0
M  V30 731 H 63.7194 -0.393163 3.78363 0
M  V30 732 H 65.0314 -0.733262 4.93381 0
M  V30 733 H 64.1854 -3.0699 5.23299 0
M  V30 734 H 62.9244 -2.79204 3.99871 0
M  V30 735 H 61.9294 -0.970995 5.41158 0
M  V30 736 H 63.1544 -1.2728 6.67066 0
M  V30 737 H 61.1004 -3.28535 5.67804 0
M  V30 738 H 61.0174 -2.40351 7.16776 0
M  V30 739 H 62.2854 -3.5687 6.93011 0
M  V30 740 N 66.5145 -1.57545 0.0417849 0
M  V30 741 C 67.7545 -1.94185 -0.63809 0
M  V30 742 C 68.1185 -0.919339 -1.68559 0
M  V30 743 O 69.3195 -1.17236 -2.41886 0
M  V30 744 C 67.5905 -3.35672 -1.22714 0
M  V30 745 S 69.1495 -3.94256 -1.92633 0
M  V30 746 H 65.9675 -0.679353 -0.209764 0
M  V30 747 H 68.5695 -1.95199 0.108479 0
M  V30 748 H 67.2735 -4.07898 -0.452503 0
M  V30 749 H 66.8045 -3.38132 -2.01073 0
M  V30 750 H 68.8195 -3.7872 -3.20602 0
M  V30 751 N 67.9926 0.231505 -1.5589 0
M  V30 752 C 69.2416 0.955346 -1.7764 0
M  V30 753 C 69.5546 1.85893 -0.608546 0
M  V30 754 O 70.7606 2.62067 -0.70943 0
M  V30 755 C 69.2166 1.74886 -3.14552 0
M  V30 756 C 68.8246 0.891915 -4.39032 0
M  V30 757 C 70.5686 2.46452 -3.45633 0
M  V30 758 C 68.4756 1.68221 -5.66971 0
M  V30 759 H 67.4056 0.360446 -0.662265 0
M  V30 760 H 70.0566 0.209516 -1.823 0
M  V30 761 H 68.4386 2.53723 -3.04041 0
M  V30 762 H 69.6126 0.144793 -4.60572 0
M  V30 763 H 67.9276 0.288863 -4.15397 0
M  V30 764 H 70.5246 3.06061 -4.38441 0
M  V30 765 H 70.8676 3.18841 -2.67668 0
M  V30 766 H 71.4006 1.74613 -3.57428 0
M  V30 767 H 68.1396 1.00178 -6.478 0
M  V30 768 H 67.6596 2.4042 -5.49507 0
M  V30 769 H 69.3386 2.24544 -6.06786 0
M  V30 770 N 69.4707 1.49531 0.497807 0
M  V30 771 C 70.7197 1.58426 1.24837 0
M  V30 772 C 71.0327 0.277643 1.93619 0
M  V30 773 O 72.2387 0.24517 2.70391 0
M  V30 774 C 70.6947 2.79538 2.26686 0
M  V30 775 C 70.3027 4.16971 1.63828 0
M  V30 776 C 72.0467 2.97764 3.0255 0
M  V30 777 C 69.9537 5.29301 2.63807 0
M  V30 778 H 68.8837 0.58989 0.469623 0
M  V30 779 H 71.5347 1.75923 0.521857 0
M  V30 780 H 69.9167 2.55542 3.02514 0
M  V30 781 H 71.0907 4.51116 0.939711 0
M  V30 782 H 69.4057 4.04129 1.00342 0
M  V30 783 H 72.0027 3.78856 3.77323 0
M  V30 784 H 72.3457 2.08448 3.60354 0
M  V30 785 H 72.8787 3.21815 2.33838 0
M  V30 786 H 69.6177 6.20687 2.10779 0
M  V30 787 H 69.1377 4.99606 3.31894 0
M  V30 788 H 70.8167 5.58768 3.2617 0
M  V30 789 N 70.9488 -0.749086 1.3866 0
M  V30 790 C 72.1948 -1.51056 1.35314 0
M  V30 791 C 72.5278 -1.94121 -0.0553751 0
M  V30 792 O 71.8028 -1.65763 -1.01749 0
M  V30 793 C 72.0858 -2.76003 2.31288 0
M  V30 794 C 71.9388 -2.39047 3.8102 0
M  V30 795 C 73.2578 -3.78046 2.2532 0
M  V30 796 H 70.3768 -0.547972 0.492844 0
M  V30 797 H 73.0188 -0.857628 1.69543 0
M  V30 798 H 71.1688 -3.31716 2.02229 0
M  V30 799 H 72.8408 -1.89074 4.20771 0
M  V30 800 H 71.0838 -1.71449 3.98482 0
M  V30 801 H 71.7548 -3.28462 4.4364 0
M  V30 802 H 74.2308 -3.31884 2.50983 0
M  V30 803 H 73.1068 -4.63159 2.94576 0
M  V30 804 H 73.3678 -4.23957 1.25352 0
M  V30 805 N 72.4269 -1.23603 -0.977757 0
M  V30 806 C 73.3369 -1.03632 -2.1047 0
M  V30 807 C 74.3529 0.0199435 -1.73989 0
M  V30 808 O 75.5289 -0.176076 -2.00629 0
M  V30 809 C 72.5939 -0.63276 -3.40877 0
M  V30 810 C 71.6549 -1.76437 -3.91367 0
M  V30 811 C 70.8879 -1.37997 -5.15551 0
M  V30 812 O 71.1109 -0.265357 -5.69782 0
M  V30 813 O 70.0449 -2.20201 -5.60174 0
M  V30 814 H 73.8709 -1.98086 -2.30208 0
M  V30 815 H 71.4559 -1.02332 -1.08851 0
M  V30 816 H 73.3379 -0.418761 -4.19314 0
M  V30 817 H 72.0129 0.282754 -3.22463 0
M  V30 818 H 70.9199 -2.03304 -3.14036 0
M  V30 819 H 72.2529 -2.6583 -4.14241 0
M  V30 820 N 73.905 1.17692 -1.04816 0
M  V30 821 C 74.815 2.25229 -0.65643 0
M  V30 822 C 75.831 1.71018 0.320761 0
M  V30 823 O 77.007 2.00649 0.173805 0
M  V30 824 C 74.072 3.46684 -0.0332629 0
M  V30 825 C 73.133 4.15997 -1.06042 0
M  V30 826 C 72.366 5.31654 -0.466893 0
M  V30 827 O 72.589 5.65777 0.724758 0
M  V30 828 O 71.523 5.89831 -1.1993 0
M  V30 829 H 75.349 2.61016 -1.55255 0
M  V30 830 H 72.934 1.24919 -0.81949 0
M  V30 831 H 74.816 4.20234 0.313256 0
M  V30 832 H 73.491 3.12703 0.836566 0
M  V30 833 H 72.398 3.44482 -1.45886 0
M  V30 834 H 73.731 4.53996 -1.90127 0
M  V30 835 N 75.3831 0.828654 1.34056 0
M  V30 836 C 76.6311 0.41863 1.97717 0
M  V30 837 C 76.9521 -1.02314 1.66002 0
M  V30 838 O 76.2221 -1.71119 0.953683 0
M  V30 839 H 74.8021 0.151809 0.731412 0
M  V30 840 H 77.4641 1.05936 1.63596 0
M  V30 841 H 76.5601 0.542318 3.07352 0
M  V30 842 N 76.8612 -1.46375 0.584142 0
M  V30 843 C 77.8082 -2.30323 -0.148286 0
M  V30 844 C 78.7782 -1.40703 -0.882713 0
M  V30 845 O 79.9632 -1.69651 -0.873099 0
M  V30 846 C 77.1032 -3.25196 -1.15507 0
M  V30 847 C 76.2162 -4.29915 -0.423943 0
M  V30 848 C 75.3512 -5.11914 -1.41838 0
M  V30 849 C 74.3902 -6.08381 -0.673736 0
M  V30 850 N 73.5272 -6.83242 -1.6163 0
M  V30 851 H 78.3672 -2.92427 0.573644 0
M  V30 852 H 75.9042 -1.44118 0.294703 0
M  V30 853 H 77.8622 -3.78646 -1.75166 0
M  V30 854 H 76.4922 -2.64898 -1.8447 0
M  V30 855 H 75.5442 -3.7931 0.287714 0
M  V30 856 H 76.8562 -4.98549 0.158128 0
M  V30 857 H 76.0102 -5.69648 -2.08773 0
M  V30 858 H 74.7492 -4.43243 -2.03438 0
M  V30 859 H 73.7542 -5.49799 0.00938483 0
M  V30 860 H 74.9792 -6.79071 -0.0631082 0
M  V30 861 H 72.9252 -6.1728 -2.22038 0
M  V30 862 H 72.8422 -7.48144 -1.08707 0
M  V30 863 H 74.1102 -7.45534 -2.27596 0
M  V30 864 N 78.3393 -0.321999 -1.54275 0
M  V30 865 C 79.2493 0.553631 -2.27974 0
M  V30 866 C 80.2653 1.13054 -1.32268 0
M  V30 867 O 81.4413 1.15084 -1.6528 0
M  V30 868 C 78.5063 1.69927 -3.02201 0
M  V30 869 C 77.5673 1.15433 -4.1349 0
M  V30 870 C 76.8003 2.24537 -4.84168 0
M  V30 871 O 77.0233 3.44852 -4.5435 0
M  V30 872 O 75.9573 1.90044 -5.7111 0
M  V30 873 H 79.7833 -0.0448345 -3.03667 0
M  V30 874 H 77.3683 -0.0877418 -1.49142 0
M  V30 875 H 79.2503 2.3663 -3.48689 0
M  V30 876 H 77.9253 2.28395 -2.29385 0
M  V30 877 H 76.8323 0.452436 -3.71354 0
M  V30 878 H 78.1653 0.614805 -4.88345 0
M  V30 879 N 79.8174 1.5752 -0.0501392 0
M  V30 880 C 81.0664 1.91827 0.623328 0
M  V30 881 C 81.3794 0.930222 1.72065 0
M  V30 882 O 82.5854 1.1653 2.4522 0
M  V30 883 C 81.0414 3.40692 1.16003 0
M  V30 884 C 80.6494 4.479 0.0948811 0
M  V30 885 C 82.3934 3.84034 1.80881 0
M  V30 886 C 80.3004 5.87879 0.644411 0
M  V30 887 H 79.2304 0.715918 0.236596 0
M  V30 888 H 81.8814 1.83115 -0.118861 0
M  V30 889 H 80.2634 3.44405 1.9545 0
M  V30 890 H 81.4374 4.55775 -0.678675 0
M  V30 891 H 79.7524 4.13892 -0.45637 0
M  V30 892 H 82.3494 4.85984 2.22988 0
M  V30 893 H 82.6924 3.20225 2.6601 0
M  V30 894 H 83.2254 3.82833 1.0809 0
M  V30 895 H 79.9644 6.55282 -0.169229 0
M  V30 896 H 79.4844 5.83567 1.38598 0
M  V30 897 H 81.1634 6.37098 1.12763 0
M  V30 898 N 81.2955 -0.223234 1.56011 0
M  V30 899 C 82.2255 -1.27988 1.95298 0
M  V30 900 C 83.2065 -1.48976 0.820979 0
M  V30 901 O 84.3915 -1.61188 1.08315 0
M  V30 902 C 81.5215 -2.63 2.26822 0
M  V30 903 C 80.4755 -2.56671 3.42497 0
M  V30 904 C 79.8015 -3.95697 3.59622 0
M  V30 905 C 81.1015 -2.11601 4.77517 0
M  V30 906 H 82.7955 -0.953525 2.8381 0
M  V30 907 H 80.3415 -0.457244 1.36548 0
M  V30 908 H 82.2945 -3.37077 2.52898 0
M  V30 909 H 81.0185 -2.9732 1.35161 0
M  V30 910 H 79.6775 -1.85051 3.16467 0
M  V30 911 H 79.3255 -4.27322 2.6534 0
M  V30 912 H 79.0255 -3.92345 4.37424 0
M  V30 913 H 80.5495 -4.71438 3.88044 0
M  V30 914 H 81.9635 -2.7542 5.02809 0
M  V30 915 H 80.3605 -2.19311 5.5859 0
M  V30 916 H 81.4305 -1.06824 4.72987 0
M  V30 917 N 82.7736 -1.49793 -0.48987 0
M  V30 918 C 84.0196 -1.60078 -1.24511 0
M  V30 919 C 84.3526 -0.291608 -1.91998 0
M  V30 920 O 83.6276 0.705647 -1.81248 0
M  V30 921 C 83.9106 -2.76791 -2.30345 0
M  V30 922 C 83.7636 -4.17535 -1.67286 0
M  V30 923 C 85.0826 -2.89111 -3.31817 0
M  V30 924 H 82.2016 -0.582645 -0.451324 0
M  V30 925 H 84.8436 -1.82117 -0.541612 0
M  V30 926 H 82.9936 -2.5813 -2.90346 0
M  V30 927 H 84.6656 -4.4774 -1.11026 0
M  V30 928 H 82.9086 -4.22665 -0.976577 0
M  V30 929 H 83.5796 -4.95094 -2.44103 0
M  V30 930 H 86.0556 -3.06133 -2.81819 0
M  V30 931 H 84.9316 -3.72433 -4.03219 0
M  V30 932 H 85.1926 -1.9893 -3.94815 0
M  V30 933 N 84.2517 0.741722 -1.39055 0
M  V30 934 C 85.4997 1.49818 -1.35643 0
M  V30 935 C 85.8207 1.94938 0.0491642 0
M  V30 936 O 85.0907 1.68505 0.999141 0
M  V30 937 H 83.6707 0.555755 -0.499144 0
M  V30 938 H 86.3327 0.880957 -1.73854 0
M  V30 939 H 85.4287 2.38348 -2.01486 0
M  V30 940 N 85.7298 1.2412 0.971189 0
M  V30 941 C 87.0068 0.986867 1.6888 0
M  V30 942 C 87.3868 -0.491857 2.0529 0
M  V30 943 O 86.7348 -1.46531 1.75331 0
M  V30 944 C 86.9448 1.9063 2.92338 0
M  V30 945 C 88.2928 2.17515 3.64654 0
M  V30 946 O 89.3168 1.88254 3.02388 0
M  V30 947 O 88.1758 2.6719 4.7673 0
M  V30 948 H 85.2698 0.372944 0.738134 0
M  V30 949 H 87.8158 1.35203 1.02559 0
M  V30 950 H 86.5878 2.90552 2.62097 0
M  V30 951 H 86.2108 1.54408 3.66393 0
M  V30 952 N 87.2079 -1.17134 1.05439 0
M  V30 953 C 88.4539 -1.87733 0.767077 0
M  V30 954 C 88.7869 -1.8098 -0.704253 0
M  V30 955 O 88.0619 -1.21951 -1.5152 0
M  V30 956 C 88.3449 -3.37659 1.25133 0
M  V30 957 C 88.1979 -3.53149 2.78578 0
M  V30 958 C 89.5169 -4.31768 0.852324 0
M  V30 959 H 86.6359 -0.681687 0.280129 0
M  V30 960 H 89.2779 -1.37732 1.30881 0
M  V30 961 H 87.4279 -3.80373 0.790469 0
M  V30 962 H 89.0999 -3.19434 3.32806 0
M  V30 963 H 87.3429 -2.95345 3.17732 0
M  V30 964 H 88.0139 -4.58403 3.07523 0
M  V30 965 H 90.4899 -3.96909 1.24911 0
M  V30 966 H 89.3659 -5.35199 1.21873 0
M  V30 967 H 89.6269 -4.41429 -0.243485 0
M  V30 968 N 88.686 -0.835752 -1.33615 0
M  V30 969 C 89.934 -0.429109 -1.97492 0
M  V30 970 C 90.255 1.01433 -1.66543 0
M  V30 971 O 89.525 1.70611 -0.962744 0
M  V30 972 H 88.105 -0.155686 -0.730596 0
M  V30 973 H 90.767 -1.06802 -1.63031 0
M  V30 974 H 89.863 -0.55861 -3.0706 0
M  V30 975 N 90.1641 1.46063 -0.591896 0
M  V30 976 C 91.4101 2.02638 -0.0811191 0
M  V30 977 C 91.7431 1.4613 1.27905 0
M  V30 978 O 91.0181 0.629908 1.84017 0
M  V30 979 C 91.3011 3.60091 -0.0252436 0
M  V30 980 C 91.1541 4.26965 -1.41496 0
M  V30 981 C 92.4731 4.3496 0.670685 0
M  V30 982 H 89.5921 0.73635 -0.0309524 0
M  V30 983 H 92.2341 1.741 -0.760859 0
M  V30 984 H 90.3841 3.84535 0.553624 0
M  V30 985 H 92.0561 4.13756 -2.0397 0
M  V30 986 H 90.2991 3.85971 -1.98011 0
M  V30 987 H 90.9701 5.35781 -1.32825 0
M  V30 988 H 93.4461 4.15716 0.178825 0
M  V30 989 H 92.3221 5.44686 0.678837 0
M  V30 990 H 92.5831 4.06685 1.73379 0
M  V30 991 N 91.6422 0.330177 1.54103 0
M  V30 992 C 92.8702 -0.272179 2.05102 0
M  V30 993 C 93.2852 -1.45267 1.20595 0
M  V30 994 O 92.6422 -1.8094 0.238144 0
M  V30 995 C 92.6932 -0.70023 3.54653 0
M  V30 996 O 92.4142 0.433301 4.35952 0
M  V30 997 C 93.9152 -1.3647 4.21771 0
M  V30 998 H 91.1352 -0.0549159 0.668749 0
M  V30 999 H 93.6792 0.478285 1.98828 0
M  V30 1000 H 91.8342 -1.40066 3.61193 0
M  V30 1001 H 92.2482 0.0947539 5.24414 0
M  V30 1002 H 93.7222 -1.61509 5.27843 0
M  V30 1003 H 94.1992 -2.31409 3.73292 0
M  V30 1004 H 94.8052 -0.706675 4.19388 0
M  V30 1005 N 93.1203 -1.57491 0.0584922 0
M  V30 1006 C 94.3693 -1.92155 -0.613146 0
M  V30 1007 C 94.6823 -0.939334 -1.71569 0
M  V30 1008 O 95.8883 -1.17829 -2.44599 0
M  V30 1009 C 94.3443 -3.41303 -1.14195 0
M  V30 1010 C 93.9523 -4.47944 -0.0711265 0
M  V30 1011 C 95.6963 -3.84988 -1.78841 0
M  V30 1012 C 93.6033 -5.88212 -0.613225 0
M  V30 1013 H 92.5333 -0.717162 -0.232796 0
M  V30 1014 H 95.1843 -1.83049 0.12857 0
M  V30 1015 H 93.5663 -3.45437 -1.93621 0
M  V30 1016 H 94.7403 -4.55408 0.702836 0
M  V30 1017 H 93.0553 -4.13644 0.478313 0
M  V30 1018 H 95.6523 -4.87159 -2.20408 0
M  V30 1019 H 95.9953 -3.21632 -2.64308 0
M  V30 1020 H 96.5283 -3.83401 -1.06059 0
M  V30 1021 H 93.2673 -6.55183 0.203978 0
M  V30 1022 H 92.7873 -5.84294 -1.35501 0
M  V30 1023 H 94.4663 -6.37687 -1.09383 0
M  V30 1024 N 94.5984 0.214957 -1.56127 0
M  V30 1025 C 95.8264 0.955092 -1.83536 0
M  V30 1026 C 96.2414 1.77677 -0.638472 0
M  V30 1027 O 95.5984 1.78219 0.392968 0
M  V30 1028 C 95.6494 1.86734 -3.09536 0
M  V30 1029 O 95.3704 1.07887 -4.24608 0
M  V30 1030 C 96.8714 2.72082 -3.4998 0
M  V30 1031 H 94.0914 0.279611 -0.609966 0
M  V30 1032 H 96.6354 0.228197 -2.03223 0
M  V30 1033 H 94.7904 2.5481 -2.91806 0
M  V30 1034 H 95.2044 1.69872 -4.9623 0
M  V30 1035 H 96.6784 3.31782 -4.41163 0
M  V30 1036 H 97.1554 3.44806 -2.7204 0
M  V30 1037 H 97.7614 2.09409 -3.70173 0
M  V30 1038 N 96.0765 1.50051 0.48192 0
M  V30 1039 C 97.3535 1.51009 1.2432 0
M  V30 1040 C 97.7335 0.248587 2.09631 0
M  V30 1041 O 97.0815 -0.768409 2.15192 0
M  V30 1042 C 97.2915 2.79981 2.08355 0
M  V30 1043 C 98.6395 3.3022 2.66908 0
M  V30 1044 O 99.6635 2.81228 2.18607 0
M  V30 1045 O 98.5225 4.15595 3.54884 0
M  V30 1046 H 95.6165 0.605239 0.563573 0
M  V30 1047 H 98.1625 1.62332 0.494627 0
M  V30 1048 H 96.9345 3.63275 1.45419 0
M  V30 1049 H 96.5575 2.7161 2.90368 0
M  V30 1050 N 97.5546 -0.734337 1.39446 0
M  V30 1051 C 98.9656 -1.31264 1.32766 0
M  V30 1052 C 99.3166 -1.96198 -0.00767497 0
M  V30 1053 O 98.4416 -1.96346 -0.909796 0
M  V30 1054 C 99.0366 -2.38682 2.4045 0
M  V30 1055 C 97.5956 -2.92184 2.37288 0
M  V30 1056 C 96.7426 -1.6576 2.22304 0
M  V30 1057 H 99.6936 -0.531799 1.49525 0
M  V30 1058 H 99.7146 -3.19087 2.07276 0
M  V30 1059 H 99.2266 -1.91392 3.37625 0
M  V30 1060 H 97.3276 -3.43752 1.43754 0
M  V30 1061 H 97.4406 -3.45253 3.3217 0
M  V30 1062 H 95.8046 -1.9012 1.69489 0
M  V30 1063 H 96.5876 -1.20521 3.21449 0
M  V30 1064 N 99.0327 -1.24633 -0.964593 0
M  V30 1065 C 100.28 -1.08788 -1.70796 0
M  V30 1066 C 100.608 0.372783 -1.90894 0
M  V30 1067 O 99.8627 1.29167 -1.47018 0
M  V30 1068 C 100.162 -1.7763 -3.10133 0
M  V30 1069 C 99.8277 -3.27557 -3.09866 0
M  V30 1070 C 98.4897 -3.6846 -3.09501 0
M  V30 1071 C 100.842 -4.23389 -3.03959 0
M  V30 1072 C 98.1697 -5.03624 -3.00965 0
M  V30 1073 C 100.522 -5.58565 -2.96965 0
M  V30 1074 C 99.1857 -5.98809 -2.9493 0
M  V30 1075 H 98.4557 -0.398084 -0.624988 0
M  V30 1076 H 101.103 -1.54777 -1.12767 0
M  V30 1077 H 99.4077 -1.24044 -3.71645 0
M  V30 1078 H 101.105 -1.62832 -3.66451 0
M  V30 1079 H 97.6947 -2.95006 -3.10917 0
M  V30 1080 H 101.879 -3.92787 -3.03368 0
M  V30 1081 H 97.1347 -5.33998 -2.97752 0
M  V30 1082 H 101.309 -6.32523 -2.91354 0
M  V30 1083 H 98.9357 -7.03505 -2.88071 0
M  V30 1084 N 100.511 1.16574 -1.06058 0
M  V30 1085 C 101.458 2.20883 -0.669263 0
M  V30 1086 C 102.428 1.62729 0.332918 0
M  V30 1087 O 103.613 1.895 0.222346 0
M  V30 1088 C 100.753 3.45049 -0.0593572 0
M  V30 1089 C 99.8658 4.17458 -1.11143 0
M  V30 1090 C 99.0008 5.29135 -0.467916 0
M  V30 1091 C 98.0398 5.93343 -1.50369 0
M  V30 1092 N 97.1768 6.96516 -0.883706 0
M  V30 1093 H 102.017 2.53709 -1.5632 0
M  V30 1094 H 99.5538 1.24616 -0.781625 0
M  V30 1095 H 101.512 4.16033 0.311771 0
M  V30 1096 H 100.142 3.12781 0.797992 0
M  V30 1097 H 99.1938 3.45101 -1.60029 0
M  V30 1098 H 100.506 4.61307 -1.89731 0
M  V30 1099 H 99.6598 6.06684 -0.0436871 0
M  V30 1100 H 98.3988 4.86443 0.349864 0
M  V30 1101 H 97.4038 5.14517 -1.93784 0
M  V30 1102 H 98.6288 6.38114 -2.32352 0
M  V30 1103 H 96.5748 6.55943 -0.086595 0
M  V30 1104 H 96.4918 7.38723 -1.607 0
M  V30 1105 H 97.7598 7.77993 -0.484543 0
M  V30 1106 N 101.989 0.842826 1.3317 0
M  V30 1107 C 102.939 0.250877 2.26616 0
M  V30 1108 C 103.923 -0.596427 1.49437 0
M  V30 1109 O 105.115 -0.447747 1.71243 0
M  V30 1110 C 102.244 -0.569779 3.38539 0
M  V30 1111 C 101.33 0.289254 4.23112 0
M  V30 1112 N 101.721 1.36987 4.86897 0
M  V30 1113 C 100.019 0.0769631 4.45934 0
M  V30 1114 C 100.72 1.89737 5.49886 0
M  V30 1115 N 99.6959 1.19827 5.30229 0
M  V30 1116 H 103.498 1.07718 2.73448 0
M  V30 1117 H 101.012 0.687693 1.47121 0
M  V30 1118 H 103.009 -1.01018 4.04476 0
M  V30 1119 H 101.669 -1.39401 2.93253 0
M  V30 1120 H 102.68 1.75277 4.87338 0
M  V30 1121 H 99.3569 -0.713507 4.11358 0
M  V30 1122 H 100.747 2.80253 6.10662 0
M  V30 1123 N 103.467 -1.45747 0.599634 0
M  V30 1124 C 104.714 -2.02292 0.0917284 0
M  V30 1125 C 105.042 -1.46906 -1.27472 0
M  V30 1126 O 104.297 -0.630652 -1.8526 0
M  V30 1127 C 104.596 -3.57399 -0.00602758 0
M  V30 1128 C 104.262 -4.31902 1.29503 0
M  V30 1129 C 102.924 -4.51974 1.65144 0
M  V30 1130 C 105.276 -4.74551 2.15525 0
M  V30 1131 C 102.604 -5.11949 2.86574 0
M  V30 1132 C 104.956 -5.35868 3.36196 0
M  V30 1133 C 103.62 -5.54165 3.72099 0
M  V30 1134 H 102.89 -0.740239 0.0335658 0
M  V30 1135 H 105.537 -1.7491 0.779661 0
M  V30 1136 H 103.842 -3.84014 -0.777183 0
M  V30 1137 H 105.539 -3.98846 -0.415038 0
M  V30 1138 H 102.129 -4.16588 1.00761 0
M  V30 1139 H 106.313 -4.58784 1.8929 0
M  V30 1140 H 101.569 -5.24305 3.14507 0
M  V30 1141 H 105.743 -5.6787 4.03109 0
M  V30 1142 H 103.37 -6.00406 4.6628 0
M  V30 1143 N 104.945 -0.338344 -1.53925 0
M  V30 1144 C 106.191 0.260143 -2.01125 0
M  V30 1145 C 106.524 1.50617 -1.22589 0
M  V30 1146 O 105.799 1.91979 -0.312113 0
M  V30 1147 C 106.082 0.579499 -3.55407 0
M  V30 1148 C 105.935 -0.678264 -4.44657 0
M  V30 1149 C 107.254 1.39122 -4.17532 0
M  V30 1150 H 104.373 0.0930772 -0.731099 0
M  V30 1151 H 107.015 -0.457852 -1.84401 0
M  V30 1152 H 105.165 1.19118 -3.69788 0
M  V30 1153 H 106.837 -1.31631 -4.42121 0
M  V30 1154 H 105.08 -1.3042 -4.13731 0
M  V30 1155 H 105.751 -0.410143 -5.50474 0
M  V30 1156 H 108.227 0.874035 -4.06817 0
M  V30 1157 H 107.103 1.58342 -5.25565 0
M  V30 1158 H 107.364 2.39178 -3.71815 0
M  V30 1159 N 106.423 1.57458 -0.0668435 0
M  V30 1160 C 107.671 1.92919 0.602214 0
M  V30 1161 C 107.992 0.947215 1.70449 0
M  V30 1162 O 107.262 -0.00544117 1.95899 0
M  V30 1163 H 105.842 0.71217 0.22544 0
M  V30 1164 H 108.504 1.94508 -0.123535 0
M  V30 1165 H 107.6 2.94589 1.03073 0
M  V30 1166 N 107.901 -0.206675 1.56239 0
M  V30 1167 C 108.834 -1.28383 1.88661 0
M  V30 1168 C 109.812 -1.44504 0.745481 0
M  V30 1169 O 110.996 -1.60079 0.995336 0
M  V30 1170 C 108.123 -2.65211 2.10667 0
M  V30 1171 C 107.169 -2.66025 3.33366 0
M  V30 1172 S 108.002 -2.18609 4.88846 0
M  V30 1173 C 109.158 -3.57283 5.13906 0
M  V30 1174 H 109.391 -1.00691 2.7973 0
M  V30 1175 H 106.924 -0.409627 1.48867 0
M  V30 1176 H 108.882 -3.43979 2.24029 0
M  V30 1177 H 107.543 -2.90121 1.20369 0
M  V30 1178 H 106.736 -3.66607 3.45855 0
M  V30 1179 H 106.338 -1.95331 3.18938 0
M  V30 1180 H 108.63 -4.53074 5.03717 0
M  V30 1181 H 109.573 -3.49699 6.15724 0
M  V30 1182 H 109.981 -3.51659 4.41583 0
M  V30 1183 N 109.379 -1.50304 -0.473955 0
M  V30 1184 C 110.309 -1.71886 -1.58042 0
M  V30 1185 C 111.29 -0.567799 -1.60344 0
M  V30 1186 O 112.475 -0.806623 -1.76656 0
M  V30 1187 C 109.605 -1.81036 -2.96384 0
M  V30 1188 C 108.559 -2.962 -3.08949 0
M  V30 1189 C 107.885 -2.9049 -4.48909 0
M  V30 1190 C 109.185 -4.36752 -2.86434 0
M  V30 1191 H 110.879 -2.64527 -1.40234 0
M  V30 1192 H 108.425 -1.27295 -0.673201 0
M  V30 1193 H 110.378 -1.94719 -3.73714 0
M  V30 1194 H 109.102 -0.850147 -3.15341 0
M  V30 1195 H 107.761 -2.82164 -2.3405 0
M  V30 1196 H 107.409 -1.92321 -4.64781 0
M  V30 1197 H 107.109 -3.67802 -4.58253 0
M  V30 1198 H 108.633 -3.06218 -5.28264 0
M  V30 1199 H 110.047 -4.5133 -3.53517 0
M  V30 1200 H 108.444 -5.15493 -3.07225 0
M  V30 1201 H 109.514 -4.49321 -1.82316 0
M  V30 1202 N 110.857 0.726932 -1.39834 0
M  V30 1203 C 112.268 1.30558 -1.3346 0
M  V30 1204 C 112.619 1.962 -0.00273003 0
M  V30 1205 O 111.744 1.96826 0.899371 0
M  V30 1206 C 112.339 2.37404 -2.41713 0
M  V30 1207 C 110.898 2.90921 -2.38835 0
M  V30 1208 C 110.045 1.64578 -2.2318 0
M  V30 1209 H 112.996 0.523862 -1.49804 0
M  V30 1210 H 113.017 3.17984 -2.08966 0
M  V30 1211 H 112.529 1.89599 -3.38635 0
M  V30 1212 H 110.63 3.42985 -1.45575 0
M  V30 1213 H 110.743 3.43487 -3.33997 0
M  V30 1214 H 109.107 1.89219 -1.70494 0
M  V30 1215 H 109.89 1.18814 -3.22084 0
M  V30 1216 N 112.336 1.25143 0.95797 0
M  V30 1217 C 113.246 1.06968 2.08794 0
M  V30 1218 C 114.262 0.00773911 1.73998 0
M  V30 1219 O 115.438 0.207972 2.00323 0
M  V30 1220 C 112.503 0.68691 3.39827 0
M  V30 1221 C 111.564 1.82641 3.88511 0
M  V30 1222 C 110.797 1.46181 5.1329 0
M  V30 1223 O 111.02 0.355971 5.69288 0
M  V30 1224 O 109.954 2.29085 5.566 0
M  V30 1225 H 113.78 2.01723 2.27027 0
M  V30 1226 H 111.365 1.04051 1.07209 0
M  V30 1227 H 113.247 0.485417 4.18595 0
M  V30 1228 H 111.922 -0.231417 3.22872 0
M  V30 1229 H 110.829 2.08274 3.10762 0
M  V30 1230 H 112.162 2.72386 4.09959 0
M  V30 1231 N 113.814 -1.1601 1.06675 0
M  V30 1232 C 114.761 -2.20525 0.680967 0
M  V30 1233 C 115.731 -1.62904 -0.324283 0
M  V30 1234 O 116.916 -1.89615 -0.212294 0
M  V30 1235 C 114.056 -3.45013 0.0776551 0
M  V30 1236 C 113.169 -4.16863 1.13355 0
M  V30 1237 C 112.304 -5.2888 0.49597 0
M  V30 1238 C 111.343 -5.92537 1.53513 0
M  V30 1239 N 110.48 -6.96038 0.920631 0
M  V30 1240 H 115.32 -2.52876 1.57663 0
M  V30 1241 H 112.857 -1.24199 0.788223 0
M  V30 1242 H 114.815 -4.16193 -0.289704 0
M  V30 1243 H 113.445 -3.132 -0.781393 0
M  V30 1244 H 112.497 -3.44248 1.61857 0
M  V30 1245 H 113.809 -4.60294 1.92174 0
M  V30 1246 H 112.963 -6.06653 0.0758604 0
M  V30 1247 H 111.702 -4.86622 -0.324062 0
M  V30 1248 H 110.707 -5.13482 1.9651 0
M  V30 1249 H 111.932 -6.36873 2.35733 0
M  V30 1250 H 109.878 -6.55888 0.12138 0
M  V30 1251 H 109.795 -7.3786 1.64616 0
M  V30 1252 H 111.063 -7.77725 0.525795 0
M  V30 1253 N 115.292 -0.849877 -1.32721 0
M  V30 1254 C 116.569 -0.372405 -1.92022 0
M  V30 1255 C 116.949 1.1435 -1.77447 0
M  V30 1256 O 116.297 1.96296 -1.16962 0
M  V30 1257 C 116.507 -0.831482 -3.3895 0
M  V30 1258 C 117.855 -0.845882 -4.16089 0
M  V30 1259 O 118.879 -0.775806 -3.47649 0
M  V30 1260 O 117.738 -0.943753 -5.38289 0
M  V30 1261 H 114.832 -0.107667 -0.819961 0
M  V30 1262 H 117.378 -0.93646 -1.41522 0
M  V30 1263 H 116.15 -1.87448 -3.4348 0
M  V30 1264 H 115.773 -0.24461 -3.96847 0
M  V30 1265 N 116.77 1.45427 -0.607355 0
M  V30 1266 C 118.01 2.04128 -0.105458 0
M  V30 1267 C 118.374 1.46555 1.24039 0
M  V30 1268 O 119.575 1.96608 1.833 0
M  V30 1269 C 117.846 3.57338 -0.0665324 0
M  V30 1270 S 119.405 4.37201 0.374207 0
M  V30 1271 H 116.223 0.709278 -0.0494575 0
M  V30 1272 H 118.825 1.78139 -0.805404 0
M  V30 1273 H 117.529 3.96752 -1.04957 0
M  V30 1274 H 117.06 3.87902 0.655415 0
M  V30 1275 H 119.075 4.6888 1.62377 0
M  V30 1276 N 118.248 0.346503 1.53744 0
M  V30 1277 C 119.664 -0.00530975 1.59599 0
M  V30 1278 C 119.864 -1.48465 1.36236 0
M  V30 1279 O 118.92 -2.24376 1.15808 0
M  V30 1280 C 120.233 0.433516 2.97559 0
M  V30 1281 C 121.781 0.386111 3.10609 0
M  V30 1282 C 122.256 0.800451 4.50951 0
M  V30 1283 N 123.747 0.754753 4.5701 0
M  V30 1284 C 124.482 1.04727 5.63755 0
M  V30 1285 N 123.978 1.4081 6.7834 0
M  V30 1286 N 125.771 0.971316 5.53644 0
M  V30 1287 H 117.922 1.31009 1.67184 0
M  V30 1288 H 120.185 0.534242 0.783128 0
M  V30 1289 H 119.891 1.46509 3.19731 0
M  V30 1290 H 119.765 -0.189753 3.76722 0
M  V30 1291 H 122.152 -0.636295 2.88158 0
M  V30 1292 H 122.233 1.04462 2.33498 0
M  V30 1293 H 121.877 1.82088 4.74137 0
M  V30 1294 H 121.807 0.119386 5.26465 0
M  V30 1295 H 124.298 0.488662 3.74727 0
M  V30 1296 H 124.611 1.61607 7.55714 0
M  V30 1297 H 122.956 1.44657 6.79779 0
M  V30 1298 H 126.147 0.688748 4.63005 0
M  V30 1299 H 126.32 1.20263 6.36742 0
M  V30 1300 N 119.726 -1.57421 0.075193 0
M  V30 1301 C 120.956 -1.97659 -0.601203 0
M  V30 1302 C 121.364 -0.952427 -1.63479 0
M  V30 1303 O 120.707 0.0688241 -1.83571 0
M  V30 1304 C 120.769 -3.34218 -1.32434 0
M  V30 1305 C 120.433 -4.5484 -0.443826 0
M  V30 1306 C 121.43 -5.19034 0.299969 0
M  V30 1307 C 119.115 -5.00952 -0.367709 0
M  V30 1308 C 121.109 -6.27695 1.10807 0
M  V30 1309 C 118.796 -6.09484 0.444058 0
M  V30 1310 C 119.794 -6.72719 1.18061 0
M  V30 1311 O 119.482 -7.79161 1.97898 0
M  V30 1312 H 119.214 -0.65494 -0.167422 0
M  V30 1313 H 121.768 -2.04886 0.145157 0
M  V30 1314 H 119.998 -3.23615 -2.11685 0
M  V30 1315 H 121.687 -3.59038 -1.89331 0
M  V30 1316 H 122.453 -4.84351 0.250776 0
M  V30 1317 H 118.332 -4.51509 -0.930638 0
M  V30 1318 H 121.876 -6.76982 1.68347 0
M  V30 1319 H 117.773 -6.43601 0.494803 0
M  V30 1320 H 118.541 -7.96055 1.90367 0
M  V30 1321 N 121.204 0.198386 -1.56346 0
M  V30 1322 C 122.167 1.22952 -1.93431 0
M  V30 1323 C 123.167 1.38611 -0.815092 0
M  V30 1324 O 124.357 1.36479 -1.08255 0
M  V30 1325 C 121.489 2.59946 -2.20546 0
M  V30 1326 H 122.682 0.912626 -2.85677 0
M  V30 1327 H 120.235 0.43977 -1.49986 0
M  V30 1328 H 120.97 2.96696 -1.30927 0
M  V30 1329 H 120.755 2.49953 -3.02102 0
M  V30 1330 H 122.245 3.3431 -2.50253 0
M  V30 1331 N 122.682 1.50554 0.465978 0
M  V30 1332 C 123.612 1.72722 1.57128 0
M  V30 1333 C 124.593 0.576294 1.6004 0
M  V30 1334 O 125.778 0.81598 1.76225 0
M  V30 1335 C 122.908 1.82605 2.95419 0
M  V30 1336 C 121.862 2.97835 3.07373 0
M  V30 1337 C 121.188 2.92867 4.47363 0
M  V30 1338 C 122.488 4.38265 2.84114 0
M  V30 1339 H 124.182 2.65267 1.38829 0
M  V30 1340 H 121.728 1.2765 0.666441 0
M  V30 1341 H 123.681 1.96698 3.72677 0
M  V30 1342 H 122.405 0.866858 3.14886 0
M  V30 1343 H 121.064 2.83401 2.3255 0
M  V30 1344 H 120.712 1.94783 4.63755 0
M  V30 1345 H 120.412 3.70227 4.56296 0
M  V30 1346 H 121.936 3.09015 5.26633 0
M  V30 1347 H 123.35 4.53198 3.51118 0
M  V30 1348 H 121.747 5.17115 3.04487 0
M  V30 1349 H 122.817 4.50281 1.7993 0
M  V30 1350 N 124.16 -0.719506 1.40217 0
M  V30 1351 C 125.39 -1.50646 1.41384 0
M  V30 1352 C 125.798 -1.89197 0.0107743 0
M  V30 1353 O 125.141 -1.55709 -0.974708 0
M  V30 1354 C 125.203 -2.81405 2.23722 0
M  V30 1355 C 124.867 -2.65199 3.72181 0
M  V30 1356 C 125.864 -2.32717 4.64907 0
M  V30 1357 C 123.549 -2.81586 4.1595 0
M  V30 1358 C 125.543 -2.16827 5.99387 0
M  V30 1359 C 123.23 -2.65313 5.50502 0
M  V30 1360 C 124.228 -2.32981 6.42035 0
M  V30 1361 O 123.916 -2.16827 7.74107 0
M  V30 1362 H 123.648 -0.471606 0.484318 0
M  V30 1363 H 126.202 -0.895456 1.84853 0
M  V30 1364 H 124.432 -3.44823 1.75026 0
M  V30 1365 H 126.121 -3.43102 2.16878 0
M  V30 1366 H 126.887 -2.19694 4.32388 0
M  V30 1367 H 122.766 -3.0574 3.45027 0
M  V30 1368 H 126.31 -1.91513 6.70797 0
M  V30 1369 H 122.207 -2.7792 5.82607 0
M  V30 1370 H 122.975 -2.31778 7.84998 0
M  V30 1371 N 125.638 -1.25649 -0.95132 0
M  V30 1372 C 126.915 -1.01361 -1.67288 0
M  V30 1373 C 127.295 0.459135 -2.06046 0
M  V30 1374 O 126.643 1.43723 -1.7764 0
M  V30 1375 C 126.853 -1.95256 -2.89268 0
M  V30 1376 C 128.201 -2.23289 -3.61147 0
M  V30 1377 O 129.225 -1.93041 -2.99355 0
M  V30 1378 O 128.084 -2.74741 -4.72419 0
M  V30 1379 H 125.178 -0.38464 -0.732107 0
M  V30 1380 H 127.724 -1.36817 -1.00395 0
M  V30 1381 H 126.496 -2.94685 -2.57442 0
M  V30 1382 H 126.119 -1.60218 -3.6389 0
M  V30 1383 N 127.117 1.15442 -1.07289 0
M  V30 1384 C 128.08 2.18358 -0.696591 0
M  V30 1385 C 129.08 1.58637 0.262837 0
M  V30 1386 O 130.27 1.74145 0.0438809 0
M  V30 1387 C 127.402 3.4089 -0.0266151 0
M  V30 1388 H 128.595 2.53162 -1.60776 0
M  V30 1389 H 126.148 1.29893 -0.869342 0
M  V30 1390 H 126.883 3.11653 0.896822 0
M  V30 1391 H 126.668 3.85495 -0.716657 0
M  V30 1392 H 128.158 4.17009 0.222028 0
M  V30 1393 N 128.595 0.856903 1.32268 0
M  V30 1394 C 129.82 0.474569 2.01897 0
M  V30 1395 C 130.245 -0.921766 1.63967 0
M  V30 1396 O 129.603 -1.60589 0.84148 0
M  V30 1397 C 129.651 0.623799 3.55164 0
M  V30 1398 O 128.755 -0.342459 4.10976 0
M  V30 1399 H 128.096 0.190422 0.63611 0
M  V30 1400 H 130.626 1.15672 1.68764 0
M  V30 1401 H 130.636 0.512169 4.04773 0
M  V30 1402 H 129.311 1.64202 3.82113 0
M  V30 1403 H 127.888 -0.18688 3.72431 0
M  V30 1404 N 130.073 -1.45103 0.615059 0
M  V30 1405 C 131.32 -2.02183 0.113179 0
M  V30 1406 C 131.648 -1.48249 -1.25906 0
M  V30 1407 O 130.903 -0.650265 -1.84581 0
M  V30 1408 C 131.202 -3.57386 0.0318797 0
M  V30 1409 C 130.868 -4.30505 1.34077 0
M  V30 1410 C 129.53 -4.50197 1.69929 0
M  V30 1411 C 131.882 -4.72238 2.20546 0
M  V30 1412 C 129.21 -5.08881 2.91988 0
M  V30 1413 C 131.562 -5.32272 3.41861 0
M  V30 1414 C 130.226 -5.50187 3.77956 0
M  V30 1415 H 129.496 -0.739842 0.0414151 0
M  V30 1416 H 132.143 -1.74073 0.798168 0
M  V30 1417 H 130.448 -3.84817 -0.736409 0
M  V30 1418 H 132.145 -3.99264 -0.372712 0
M  V30 1419 H 128.735 -4.15496 1.05173 0
M  V30 1420 H 132.919 -4.56751 1.94146 0
M  V30 1421 H 128.175 -5.20939 3.2005 0
M  V30 1422 H 132.349 -5.63563 4.09109 0
M  V30 1423 H 129.976 -5.95427 4.72622 0
M  V30 1424 N 131.551 -0.354651 -1.53558 0
M  V30 1425 C 132.461 0.50515 -2.29097 0
M  V30 1426 C 133.477 1.10223 -1.34636 0
M  V30 1427 O 134.653 1.11553 -1.67684 0
M  V30 1428 C 131.718 1.63479 -3.05738 0
M  V30 1429 C 130.779 1.06636 -4.15845 0
M  V30 1430 C 130.012 2.14217 -4.88822 0
M  V30 1431 O 130.235 3.35137 -4.61562 0
M  V30 1432 O 129.169 1.77887 -5.75013 0
M  V30 1433 H 132.995 -0.109237 -3.03503 0
M  V30 1434 H 130.58 -0.119357 -1.48922 0
M  V30 1435 H 132.462 2.2918 -3.5363 0
M  V30 1436 H 131.137 2.23478 -2.34178 0
M  V30 1437 H 130.044 0.373565 -3.7223 0
M  V30 1438 H 131.377 0.511081 -4.89539 0
M  V30 1439 N 133.029 1.57378 -0.0835403 0
M  V30 1440 C 134.257 1.98263 0.59157 0
M  V30 1441 C 134.672 0.962302 1.62435 0
M  V30 1442 O 134.029 -0.049581 1.82433 0
M  V30 1443 C 134.08 3.39214 1.24965 0
M  V30 1444 O 133.801 4.37339 0.258186 0
M  V30 1445 C 135.302 3.95038 2.01147 0
M  V30 1446 H 132.522 0.651773 0.159477 0
M  V30 1447 H 135.066 2.03878 -0.159415 0
M  V30 1448 H 133.221 3.34649 1.95164 0
M  V30 1449 H 133.635 5.19371 0.731734 0
M  V30 1450 H 135.109 4.95848 2.42567 0
M  V30 1451 H 135.586 3.32222 2.87272 0
M  V30 1452 H 136.192 4.0304 1.35789 0
M  V30 1453 N 134.507 -0.190092 1.56449 0
M  V30 1454 C 135.454 -1.23557 1.94942 0
M  V30 1455 C 136.424 -1.44972 0.810696 0
M  V30 1456 O 137.609 -1.58023 1.06927 0
M  V30 1457 C 134.749 -2.57416 2.2985 0
M  V30 1458 C 133.862 -2.43537 3.5681 0
M  V30 1459 C 132.997 -3.70134 3.81017 0
M  V30 1460 C 132.036 -3.51109 5.01387 0
M  V30 1461 N 131.173 -4.6973 5.21822 0
M  V30 1462 H 136.013 -0.900304 2.84075 0
M  V30 1463 H 133.55 -0.43318 1.40577 0
M  V30 1464 H 135.508 -3.35409 2.48106 0
M  V30 1465 H 134.138 -2.88975 1.43852 0
M  V30 1466 H 133.19 -1.56816 3.46573 0
M  V30 1467 H 134.502 -2.25415 4.4496 0
M  V30 1468 H 133.656 -4.56566 3.9954 0
M  V30 1469 H 132.395 -3.91215 2.91207 0
M  V30 1470 H 131.4 -2.63063 4.82782 0
M  V30 1471 H 132.625 -3.31468 5.9271 0
M  V30 1472 H 130.571 -4.91065 4.34961 0
M  V30 1473 H 130.488 -4.54452 6.0416 0
M  V30 1474 H 131.756 -5.57499 5.44808 0
M  V30 1475 N 135.985 -1.50799 -0.457987 0
M  V30 1476 C 136.895 -1.73426 -1.57989 0
M  V30 1477 C 137.911 -0.617745 -1.62665 0
M  V30 1478 O 139.087 -0.897614 -1.80291 0
M  V30 1479 C 136.152 -1.83557 -2.94122 0
M  V30 1480 C 135.213 -3.07345 -2.99729 0
M  V30 1481 C 134.446 -3.16983 -4.29368 0
M  V30 1482 O 134.669 -2.33077 -5.20607 0
M  V30 1483 O 133.603 -4.09812 -4.40837 0
M  V30 1484 H 137.429 -2.68555 -1.41817 0
M  V30 1485 H 135.014 -1.35052 -0.638859 0
M  V30 1486 H 136.896 -1.92326 -3.74952 0
M  V30 1487 H 135.571 -0.916137 -3.10465 0
M  V30 1488 H 134.478 -3.04068 -2.1793 0
M  V30 1489 H 135.811 -3.9891 -2.88326 0
M  V30 1490 N 137.463 0.71206 -1.40597 0
M  V30 1491 C 138.688 1.50617 -1.42581 0
M  V30 1492 C 139.113 1.88079 -0.0282102 0
M  V30 1493 O 138.471 1.53511 0.964579 0
M  V30 1494 C 138.519 2.7557 -2.3258 0
M  V30 1495 O 137.623 3.72414 -1.77148 0
M  V30 1496 H 136.964 0.453966 -0.484573 0
M  V30 1497 H 139.494 0.876649 -1.84868 0
M  V30 1498 H 139.504 3.2406 -2.47889 0
M  V30 1499 H 138.179 2.47639 -3.34138 0
M  V30 1500 H 136.756 3.31276 -1.71204 0
M  V30 1501 N 138.941 1.26152 0.944643 0
M  V30 1502 C 140.357 1.03189 1.21754 0
M  V30 1503 C 140.557 -0.245112 2.00004 0
M  V30 1504 O 139.613 -0.955176 2.33736 0
M  V30 1505 C 140.926 2.26119 1.98219 0
M  V30 1506 C 142.474 2.30984 2.11224 0
M  V30 1507 C 142.949 3.53597 2.91089 0
M  V30 1508 N 144.44 3.54053 2.98664 0
M  V30 1509 C 145.175 4.45593 3.60881 0
M  V30 1510 N 144.671 5.47416 4.24626 0
M  V30 1511 N 146.464 4.33252 3.58119 0
M  V30 1512 H 138.615 2.08177 0.421437 0
M  V30 1513 H 140.878 0.914723 0.248969 0
M  V30 1514 H 140.584 3.18984 1.48128 0
M  V30 1515 H 140.458 2.3009 2.98895 0
M  V30 1516 H 142.845 1.38635 2.60508 0
M  V30 1517 H 142.926 2.31026 1.09821 0
M  V30 1518 H 142.57 4.46273 2.42493 0
M  V30 1519 H 142.5 3.50802 3.92741 0
M  V30 1520 H 144.991 2.80403 2.53343 0
M  V30 1521 H 145.304 6.13459 4.69987 0
M  V30 1522 H 143.649 5.51278 4.23223 0
M  V30 1523 H 146.84 3.52924 3.0751 0
M  V30 1524 H 147.013 5.04786 4.06319 0
M  V30 1525 N 140.419 -1.14872 1.07899 0
M  V30 1526 C 141.366 -2.19791 0.704319 0
M  V30 1527 C 142.336 -1.63238 -0.306987 0
M  V30 1528 O 143.521 -1.8983 -0.192171 0
M  V30 1529 C 140.661 -3.44911 0.114244 0
M  V30 1530 C 139.774 -4.15637 1.1777 0
M  V30 1531 C 138.909 -5.28324 0.552037 0
M  V30 1532 C 137.948 -5.90875 1.59789 0
M  V30 1533 N 137.085 -6.95022 0.994404 0
M  V30 1534 H 141.925 -2.5119 1.60336 0
M  V30 1535 H 139.462 -1.23356 0.801352 0
M  V30 1536 H 141.42 -4.16477 -0.245544 0
M  V30 1537 H 140.05 -3.14011 -0.74813 0
M  V30 1538 H 139.102 -3.42512 1.65499 0
M  V30 1539 H 140.414 -4.5823 1.97046 0
M  V30 1540 H 139.568 -6.06538 0.1402 0
M  V30 1541 H 138.307 -4.86939 -0.272431 0
M  V30 1542 H 137.312 -5.11369 2.01945 0
M  V30 1543 H 138.537 -6.34337 2.42474 0
M  V30 1544 H 136.483 -6.55722 0.190939 0
M  V30 1545 H 136.4 -7.36073 1.72432 0
M  V30 1546 H 137.668 -7.77123 0.608253 0
M  V30 1547 N 141.898 -0.863906 -1.31812 0
M  V30 1548 C 142.808 -0.318461 -2.32428 0
M  V30 1549 C 143.824 0.568496 -1.64451 0
M  V30 1550 O 145 0.46666 -1.95919 0
M  V30 1551 C 142.065 0.476355 -3.43412 0
M  V30 1552 C 141.126 -0.43784 -4.27061 0
M  V30 1553 C 140.359 0.319138 -5.32745 0
M  V30 1554 O 140.582 1.54799 -5.48993 0
M  V30 1555 O 139.516 -0.319861 -6.01049 0
M  V30 1556 H 143.342 -1.15229 -2.80991 0
M  V30 1557 H 140.927 -0.627103 -1.35602 0
M  V30 1558 H 142.809 0.927156 -4.11074 0
M  V30 1559 H 141.484 1.28683 -2.97022 0
M  V30 1560 H 140.391 -0.937013 -3.62175 0
M  V30 1561 H 141.724 -1.21375 -4.77 0
M  V30 1562 N 143.376 1.44774 -0.622745 0
M  V30 1563 C 144.286 2.34433 0.0886031 0
M  V30 1564 C 145.302 1.52131 0.844529 0
M  V30 1565 O 146.478 1.84886 0.798691 0
M  V30 1566 C 143.543 3.29986 1.0635 0
M  V30 1567 C 142.604 4.28195 0.307873 0
M  V30 1568 C 141.837 5.19183 1.23633 0
M  V30 1569 O 142.06 5.13918 2.47476 0
M  V30 1570 O 140.994 5.97515 0.725189 0
M  V30 1571 H 144.82 2.96693 -0.648599 0
M  V30 1572 H 142.405 1.44408 -0.382957 0
M  V30 1573 H 144.287 3.88825 1.6246 0
M  V30 1574 H 142.962 2.70269 1.78146 0
M  V30 1575 H 141.869 3.72927 -0.296064 0
M  V30 1576 H 143.202 4.90808 -0.3699 0
M  V30 1577 N 144.854 0.36279 1.53368 0
M  V30 1578 C 145.784 -0.476976 2.28576 0
M  V30 1579 C 146.765 -1.08631 1.30894 0
M  V30 1580 O 147.95 -1.10409 1.59761 0
M  V30 1581 C 145.08 -1.61828 3.07293 0
M  V30 1582 C 144.034 -1.13633 4.1264 0
M  V30 1583 C 143.36 -2.36766 4.79423 0
M  V30 1584 C 144.66 -0.223061 5.21823 0
M  V30 1585 H 146.354 0.150474 2.99022 0
M  V30 1586 H 143.9 0.0738103 1.43811 0
M  V30 1587 H 145.853 -2.21237 3.58653 0
M  V30 1588 H 144.577 -2.27292 2.34533 0
M  V30 1589 H 143.236 -0.564945 3.62221 0
M  V30 1590 H 142.884 -3.0068 4.03238 0
M  V30 1591 H 142.584 -2.05192 5.50609 0
M  V30 1592 H 144.108 -2.96865 5.33576 0
M  V30 1593 H 145.522 -0.724545 5.68703 0
M  V30 1594 H 143.919 0.001678 6.001 0
M  V30 1595 H 144.989 0.735553 4.79289 0
M  V30 1596 N 146.332 -1.57332 0.0918853 0
M  V30 1597 C 147.265 -2.09499 -0.904735 0
M  V30 1598 C 148.243 -1.00479 -1.27839 0
M  V30 1599 O 149.427 -1.27954 -1.38419 0
M  V30 1600 C 146.554 -2.56931 -2.2069 0
M  V30 1601 C 145.6 -3.77579 -1.98334 0
M  V30 1602 S 146.433 -5.21317 -1.22428 0
M  V30 1603 C 147.589 -5.72097 -2.53882 0
M  V30 1604 H 147.822 -2.93705 -0.460922 0
M  V30 1605 H 145.355 -1.53923 -0.121332 0
M  V30 1606 H 147.313 -2.84917 -2.95521 0
M  V30 1607 H 145.974 -1.72956 -2.62192 0
M  V30 1608 H 145.167 -4.08824 -2.94752 0
M  V30 1609 H 144.769 -3.5007 -1.31633 0
M  V30 1610 H 147.061 -5.80168 -3.49874 0
M  V30 1611 H 148.004 -6.70654 -2.27219 0
M  V30 1612 H 148.412 -5.00012 -2.62007 0
M  V30 1613 N 147.81 0.181792 -1.56548 0
M  V30 1614 C 149.057 0.900097 -1.81396 0
M  V30 1615 C 149.385 1.82695 -0.667281 0
M  V30 1616 O 148.64 1.92614 0.346146 0
M  V30 1617 C 148.939 1.73728 -3.12335 0
M  V30 1618 C 148.605 0.960255 -4.40556 0
M  V30 1619 C 147.267 0.745766 -4.75386 0
M  V30 1620 C 149.619 0.414477 -5.19549 0
M  V30 1621 C 146.947 -0.0257694 -5.86694 0
M  V30 1622 C 149.299 -0.343916 -6.31664 0
M  V30 1623 C 147.963 -0.569301 -6.65068 0
M  V30 1624 H 147.233 0.329369 -0.663775 0
M  V30 1625 H 149.88 0.165647 -1.90782 0
M  V30 1626 H 148.185 2.54081 -2.98245 0
M  V30 1627 H 149.882 2.29591 -3.28769 0
M  V30 1628 H 146.472 1.13746 -4.13231 0
M  V30 1629 H 150.656 0.567554 -4.93044 0
M  V30 1630 H 145.912 -0.210233 -6.11038 0
M  V30 1631 H 150.086 -0.774133 -6.92084 0
M  V30 1632 H 147.713 -1.16903 -7.51158 0
M  V30 1633 N 149.288 1.51039 0.449983 0
M  V30 1634 C 150.535 1.63081 1.20045 0
M  V30 1635 C 150.863 0.341024 1.91487 0
M  V30 1636 O 150.118 -0.674276 1.83717 0
M  V30 1637 C 150.417 2.77556 2.25161 0
M  V30 1638 C 150.083 4.17289 1.70823 0
M  V30 1639 C 148.745 4.55305 1.55725 0
M  V30 1640 C 151.097 5.04536 1.3074 0
M  V30 1641 C 148.425 5.78287 0.989999 0
M  V30 1642 C 150.777 6.28085 0.754482 0
M  V30 1643 C 149.441 6.64885 0.590308 0
M  V30 1644 H 148.711 0.596755 0.439277 0
M  V30 1645 H 151.358 1.85037 0.49333 0
M  V30 1646 H 149.663 2.49771 3.01863 0
M  V30 1647 H 151.36 2.84073 2.83026 0
M  V30 1648 H 147.95 3.8731 1.83546 0
M  V30 1649 H 152.134 4.75782 1.41229 0
M  V30 1650 H 147.39 6.05456 0.850451 0
M  V30 1651 H 151.564 6.95038 0.435324 0
M  V30 1652 H 149.191 7.60055 0.14862 0
M  V30 1653 N 150.766 -0.704594 1.40972 0
M  V30 1654 C 151.696 -1.83124 1.44872 0
M  V30 1655 C 152.677 -1.67281 0.30838 0
M  V30 1656 O 153.862 -1.87149 0.518556 0
M  V30 1657 C 150.992 -3.21181 1.32136 0
M  V30 1658 C 149.946 -3.51714 2.43888 0
M  V30 1659 C 149.272 -4.89032 2.16222 0
M  V30 1660 C 150.572 -3.516 3.86232 0
M  V30 1661 H 152.266 -1.80117 2.39161 0
M  V30 1662 H 149.812 -0.865145 1.15114 0
M  V30 1663 H 151.765 -3.99702 1.33479 0
M  V30 1664 H 150.489 -3.24791 0.343279 0
M  V30 1665 H 149.148 -2.75539 2.41813 0
M  V30 1666 H 148.796 -4.89256 1.16778 0
M  V30 1667 H 148.496 -5.10426 2.911 0
M  V30 1668 H 150.02 -5.69873 2.19265 0
M  V30 1669 H 151.434 -4.2014 3.9007 0
M  V30 1670 H 149.831 -3.84523 4.60719 0
M  V30 1671 H 150.901 -2.50757 4.15029 0
M  V30 1672 N 152.244 -1.26651 -0.937939 0
M  V30 1673 C 153.49 -1.13562 -1.68746 0
M  V30 1674 C 153.845 0.317241 -1.89767 0
M  V30 1675 O 153.138 1.22939 -1.46957 0
M  V30 1676 C 153.332 -1.84168 -3.06295 0
M  V30 1677 C 153.161 -3.36171 -2.98696 0
M  V30 1678 C 151.931 -4.05468 -3.01535 0
M  V30 1679 C 154.129 -4.32312 -2.78588 0
M  V30 1680 N 152.111 -5.44118 -2.84269 0
M  V30 1681 C 153.482 -5.58159 -2.69924 0
M  V30 1682 C 155.537 -4.22524 -2.63396 0
M  V30 1683 C 154.24 -6.75335 -2.47618 0
M  V30 1684 C 156.266 -5.39411 -2.42466 0
M  V30 1685 C 155.628 -6.64208 -2.34536 0
M  V30 1686 H 151.727 -0.470361 -0.624728 0
M  V30 1687 H 154.311 -1.59982 -1.10968 0
M  V30 1688 H 152.482 -1.40219 -3.62206 0
M  V30 1689 H 154.214 -1.63674 -3.70126 0
M  V30 1690 H 150.969 -3.56854 -3.11372 0
M  V30 1691 H 151.393 -6.1693 -2.78795 0
M  V30 1692 H 156.035 -3.26771 -2.68292 0
M  V30 1693 H 153.753 -7.71182 -2.41463 0
M  V30 1694 H 157.339 -5.33711 -2.31611 0
M  V30 1695 H 156.219 -7.53129 -2.18555 0
M  V30 1696 N 153.722 1.14298 -1.08507 0
M  V30 1697 C 154.685 2.17607 -0.719711 0
M  V30 1698 C 155.685 1.58907 0.245997 0
M  V30 1699 O 156.875 1.74181 0.0254081 0
M  V30 1700 C 154.007 3.40842 -0.0627695 0
M  V30 1701 H 155.2 2.51443 -1.63452 0
M  V30 1702 H 152.753 1.28963 -0.88307 0
M  V30 1703 H 153.488 3.12587 0.863716 0
M  V30 1704 H 153.273 3.84713 -0.757504 0
M  V30 1705 H 154.763 4.17221 0.177786 0
M  V30 1706 N 155.201 0.870884 1.31352 0
M  V30 1707 C 156.612 0.534714 1.78879 0
M  V30 1708 C 156.963 -0.948423 1.71754 0
M  V30 1709 O 156.088 -1.74055 1.28584 0
M  V30 1710 C 156.683 0.963839 3.24801 0
M  V30 1711 C 155.242 0.679311 3.70219 0
M  V30 1712 C 154.389 1.15465 2.52117 0
M  V30 1713 H 157.34 1.05651 1.18421 0
M  V30 1714 H 157.361 0.286892 3.79417 0
M  V30 1715 H 156.873 2.04332 3.29955 0
M  V30 1716 H 154.974 -0.388769 3.70566 0
M  V30 1717 H 155.087 1.25698 4.62317 0
M  V30 1718 H 153.451 0.574383 2.48139 0
M  V30 1719 H 154.234 2.24157 2.60016 0
M  V30 1720 N 156.679 -1.44442 0.630414 0
M  V30 1721 C 157.589 -2.34476 -0.0761693 0
M  V30 1722 C 158.605 -1.52576 -0.836449 0
M  V30 1723 O 159.781 -1.85307 -0.788874 0
M  V30 1724 C 156.846 -3.30545 -1.04599 0
M  V30 1725 C 155.907 -4.28352 -0.28516 0
M  V30 1726 C 155.14 -5.19831 -1.20878 0
M  V30 1727 O 155.363 -5.15223 -2.44747 0
M  V30 1728 O 154.297 -5.97892 -0.693491 0
M  V30 1729 H 158.123 -2.96345 0.664324 0
M  V30 1730 H 155.708 -1.44203 0.39061 0
M  V30 1731 H 157.59 -3.89681 -1.60396 0
M  V30 1732 H 156.265 -2.7121 -1.76711 0
M  V30 1733 H 155.172 -3.72764 0.315837 0
M  V30 1734 H 156.505 -4.90605 0.395924 0
M  V30 1735 N 158.157 -0.370918 -1.53173 0
M  V30 1736 C 159.087 0.464847 -2.28826 0
M  V30 1737 C 160.068 1.07936 -1.31468 0
M  V30 1738 O 161.253 1.0956 -1.60344 0
M  V30 1739 C 158.383 1.60196 -3.08147 0
M  V30 1740 C 157.337 1.11443 -4.13237 0
M  V30 1741 C 156.663 2.3422 -4.80672 0
M  V30 1742 C 157.963 0.195384 -5.21934 0
M  V30 1743 H 159.657 -0.166329 -2.98938 0
M  V30 1744 H 157.203 -0.0814359 -1.4377 0
M  V30 1745 H 159.156 2.19332 -3.59822 0
M  V30 1746 H 157.88 2.26045 -2.35735 0
M  V30 1747 H 156.539 0.545727 -3.62515 0
M  V30 1748 H 156.187 2.98537 -4.04827 0
M  V30 1749 H 155.887 2.02269 -5.51689 0
M  V30 1750 H 157.411 2.94032 -5.35143 0
M  V30 1751 H 158.825 0.694375 -5.69079 0
M  V30 1752 H 157.222 -0.0335027 -6.00091 0
M  V30 1753 H 158.292 -0.760961 -4.78892 0
M  V30 1754 N 159.635 1.57281 -0.100228 0
M  V30 1755 C 160.598 2.13158 0.842398 0
M  V30 1756 C 161.598 1.06202 1.20738 0
M  V30 1757 O 162.788 1.32066 1.13597 0
M  V30 1758 C 159.92 2.65639 2.13655 0
M  V30 1759 H 161.113 2.97766 0.357114 0
M  V30 1760 H 158.666 1.5559 0.148823 0
M  V30 1761 H 159.401 1.84566 2.66657 0
M  V30 1762 H 159.186 3.43844 1.88451 0
M  V30 1763 H 160.676 3.08846 2.81077 0
M  V30 1764 N 161.113 -0.173488 1.56642 0
M  V30 1765 C 162.524 -0.736155 1.71574 0
M  V30 1766 C 162.875 -1.82888 0.710389 0
M  V30 1767 O 162 -2.16017 -0.1287 0
M  V30 1768 C 162.595 -1.34211 3.11083 0
M  V30 1769 C 161.154 -1.85162 3.27707 0
M  V30 1770 C 160.301 -0.729765 2.67525 0
M  V30 1771 H 163.252 0.0518786 1.58615 0
M  V30 1772 H 163.273 -2.21178 3.09613 0
M  V30 1773 H 162.785 -0.546579 3.84232 0
M  V30 1774 H 160.886 -2.67366 2.59512 0
M  V30 1775 H 160.999 -1.99855 4.35425 0
M  V30 1776 H 159.363 -1.14965 2.27278 0
M  V30 1777 H 160.146 0.0538806 3.43258 0
M  V30 1778 N 162.591 -1.51276 -0.441967 0
M  V30 1779 C 163.521 -1.752 -1.54361 0
M  V30 1780 C 164.502 -0.601682 -1.59103 0
M  V30 1781 O 165.687 -0.843913 -1.74905 0
M  V30 1782 C 162.817 -1.87282 -2.92477 0
M  V30 1783 C 161.771 -3.02687 -3.02596 0
M  V30 1784 C 161.097 -2.99947 -4.42647 0
M  V30 1785 C 162.397 -4.4273 -2.77106 0
M  V30 1786 H 164.091 -2.67442 -1.34592 0
M  V30 1787 H 161.637 -1.28694 -0.646048 0
M  V30 1788 H 163.59 -2.02602 -3.695 0
M  V30 1789 H 162.314 -0.916844 -3.13467 0
M  V30 1790 H 160.973 -2.87065 -2.28012 0
M  V30 1791 H 160.621 -2.02136 -4.60597 0
M  V30 1792 H 160.321 -3.77439 -4.50348 0
M  V30 1793 H 161.845 -3.17354 -5.2165 0
M  V30 1794 H 163.259 -4.58727 -3.43864 0
M  V30 1795 H 161.656 -5.21893 -2.96222 0
M  V30 1796 H 162.726 -4.53087 -1.72744 0
M  V30 1797 N 164.069 0.697108 -1.41344 0
M  V30 1798 C 165.016 1.81106 -1.43071 0
M  V30 1799 C 165.986 1.63632 -0.285275 0
M  V30 1800 O 167.171 1.84504 -0.486091 0
M  V30 1801 C 164.311 3.18975 -1.31715 0
M  V30 1802 C 163.424 3.47892 -2.56115 0
M  V30 1803 C 162.559 4.75367 -2.37064 0
M  V30 1804 C 161.598 4.97247 -3.56948 0
M  V30 1805 N 160.735 6.15947 -3.36977 0
M  V30 1806 H 165.575 1.78965 -2.38276 0
M  V30 1807 H 163.112 0.873975 -1.18322 0
M  V30 1808 H 165.07 3.98615 -1.23133 0
M  V30 1809 H 163.7 3.20297 -0.401183 0
M  V30 1810 H 162.752 2.62669 -2.75153 0
M  V30 1811 H 164.064 3.59962 -3.45295 0
M  V30 1812 H 163.218 5.63059 -2.25941 0
M  V30 1813 H 161.957 4.65541 -1.45338 0
M  V30 1814 H 160.962 4.08004 -3.68527 0
M  V30 1815 H 162.187 5.08934 -4.49626 0
M  V30 1816 H 160.133 6.07336 -2.47949 0
M  V30 1817 H 160.05 6.28777 -4.19732 0
M  V30 1818 H 161.318 7.06377 -3.29623 0
M  V30 1819 N 165.547 1.27147 0.931209 0
M  V30 1820 C 166.772 1.16191 1.71797 0
M  V30 1821 C 167.197 -0.278004 1.86034 0
M  V30 1822 O 166.555 -1.20137 1.35782 0
M  V30 1823 C 166.603 1.84673 3.09723 0
M  V30 1824 O 165.707 1.14231 3.96264 0
M  V30 1825 H 165.048 0.404303 0.526721 0
M  V30 1826 H 167.578 1.68152 1.1656 0
M  V30 1827 H 167.588 1.91893 3.60057 0
M  V30 1828 H 166.263 2.89421 2.98677 0
M  V30 1829 H 164.84 1.15056 3.54706 0
M  V30 1830 N 167.025 -1.13721 1.09112 0
M  V30 1831 C 167.972 -2.19031 0.727591 0
M  V30 1832 C 168.942 -1.63555 -0.289656 0
M  V30 1833 O 170.127 -1.90023 -0.172026 0
M  V30 1834 C 167.267 -3.4477 0.15082 0
M  V30 1835 C 166.38 -4.14365 1.22172 0
M  V30 1836 C 165.515 -5.27709 0.608042 0
M  V30 1837 C 164.554 -5.89147 1.66047 0
M  V30 1838 N 163.691 -6.93929 1.06806 0
M  V30 1839 H 168.531 -2.49475 1.62991 0
M  V30 1840 H 166.068 -1.22499 0.81439 0
M  V30 1841 H 168.026 -4.16714 -0.201358 0
M  V30 1842 H 166.656 -3.14787 -0.714783 0
M  V30 1843 H 165.708 -3.40737 1.69122 0
M  V30 1844 H 167.02 -4.56114 2.01895 0
M  V30 1845 H 166.174 -6.06355 0.204523 0
M  V30 1846 H 164.913 -4.872 -0.220769 0
M  V30 1847 H 163.918 -5.09198 2.07357 0
M  V30 1848 H 165.143 -6.31729 2.49189 0
M  V30 1849 H 163.089 -6.55483 0.260476 0
M  V30 1850 H 163.006 -7.34202 1.8023 0
M  V30 1851 H 164.274 -7.76434 0.690644 0
M  V30 1852 N 168.503 -0.877838 -1.30888 0
M  V30 1853 C 169.436 -0.283995 -2.26426 0
M  V30 1854 C 170.414 0.591361 -1.51465 0
M  V30 1855 O 171.598 0.54304 -1.80509 0
M  V30 1856 C 168.725 0.597129 -3.33395 0
M  V30 1857 C 167.771 -0.207937 -4.25993 0
M  V30 1858 S 168.604 -1.59158 -5.11301 0
M  V30 1859 C 169.76 -0.716791 -6.21782 0
M  V30 1860 H 169.993 -1.09383 -2.76446 0
M  V30 1861 H 167.526 -0.676828 -1.38775 0
M  V30 1862 H 169.484 1.09978 -3.95493 0
M  V30 1863 H 168.145 1.38099 -2.82113 0
M  V30 1864 H 167.338 0.464163 -5.01858 0
M  V30 1865 H 166.94 -0.642963 -3.68432 0
M  V30 1866 H 169.232 0.0692833 -6.77465 0
M  V30 1867 H 170.175 -1.44682 -6.93161 0
M  V30 1868 H 170.583 -0.280855 -5.63801 0
M  V30 1869 N 169.982 1.44106 -0.638065 0
M  V30 1870 C 171.231 2.01194 -0.142744 0
M  V30 1871 C 171.544 1.50835 1.24532 0
M  V30 1872 O 172.75 2.00096 1.83504 0
M  V30 1873 C 171.206 3.59319 -0.20442 0
M  V30 1874 C 170.814 4.18674 -1.59423 0
M  V30 1875 C 172.558 4.23854 0.234079 0
M  V30 1876 C 170.465 5.69045 -1.61065 0
M  V30 1877 H 169.395 0.752367 -0.0495998 0
M  V30 1878 H 172.046 1.65246 -0.797881 0
M  V30 1879 H 170.428 3.92598 0.517946 0
M  V30 1880 H 171.602 3.96921 -2.34074 0
M  V30 1881 H 169.917 3.66453 -1.97741 0
M  V30 1882 H 172.514 5.34155 0.241443 0
M  V30 1883 H 172.857 3.96688 1.2627 0
M  V30 1884 H 173.39 3.95403 -0.436025 0
M  V30 1885 H 170.129 6.00956 -2.61787 0
M  V30 1886 H 169.649 5.929 -0.90718 0
M  V30 1887 H 171.328 6.32809 -1.34766 0
M  V30 1888 N 171.46 0.379036 1.52974 0
M  V30 1889 C 172.69 -0.20649 2.05566 0
M  V30 1890 C 173.098 -1.41906 1.25137 0
M  V30 1891 O 172.441 -1.81421 0.288464 0
M  V30 1892 C 172.503 -0.651086 3.53555 0
M  V30 1893 C 172.167 0.446626 4.54812 0
M  V30 1894 C 173.164 1.30079 5.03364 0
M  V30 1895 C 170.849 0.610719 4.98573 0
M  V30 1896 C 172.843 2.30426 5.94292 0
M  V30 1897 C 170.53 1.61754 5.89304 0
M  V30 1898 C 171.528 2.46274 6.37054 0
M  V30 1899 O 171.216 3.45237 7.25994 0
M  V30 1900 H 170.948 -0.0372381 0.674974 0
M  V30 1901 H 173.502 0.539718 1.98182 0
M  V30 1902 H 171.732 -1.44911 3.58522 0
M  V30 1903 H 173.421 -1.16112 3.88938 0
M  V30 1904 H 174.187 1.18527 4.70294 0
M  V30 1905 H 170.066 -0.0374044 4.60985 0
M  V30 1906 H 173.61 2.96432 6.31485 0
M  V30 1907 H 169.507 1.73348 6.21788 0
M  V30 1908 H 170.275 3.41124 7.44027 0
M  V30 1909 N 172.938 -1.57226 0.108567 0
M  V30 1910 C 173.901 -2.13602 -0.831082 0
M  V30 1911 C 174.901 -1.06841 -1.20173 0
M  V30 1912 O 176.091 -1.32666 -1.12895 0
M  V30 1913 C 173.223 -2.66769 -2.12243 0
M  V30 1914 H 174.416 -2.97951 -0.341317 0
M  V30 1915 H 171.969 -1.55667 -0.14057 0
M  V30 1916 H 172.704 -1.85977 -2.65675 0
M  V30 1917 H 172.489 -3.44839 -1.86625 0
M  V30 1918 H 173.979 -3.10332 -2.79435 0
M  V30 1919 N 174.416 0.165178 -1.56732 0
M  V30 1920 C 175.641 0.900253 -1.86843 0
M  V30 1921 C 176.066 1.74766 -0.695596 0
M  V30 1922 O 175.424 1.77786 0.35522 0
M  V30 1923 C 175.472 1.74777 -3.15413 0
M  V30 1924 O 174.576 2.85007 -2.98068 0
M  V30 1925 H 173.917 0.251832 -0.614391 0
M  V30 1926 H 176.447 0.161468 -2.03962 0
M  V30 1927 H 176.457 2.14646 -3.46974 0
M  V30 1928 H 175.132 1.12537 -4.00385 0
M  V30 1929 H 173.709 2.48676 -2.77875 0
M  V30 1930 N 175.894 1.51508 0.433938 0
M  V30 1931 C 177.119 1.68443 1.21003 0
M  V30 1932 C 177.544 0.382636 1.84167 0
M  V30 1933 O 176.902 -0.65755 1.68956 0
M  V30 1934 C 176.95 2.80405 2.26727 0
M  V30 1935 O 176.054 2.44245 3.32292 0
M  V30 1936 H 175.395 0.561536 0.354363 0
M  V30 1937 H 177.925 1.9809 0.512024 0
M  V30 1938 H 177.935 3.0459 2.71457 0
M  V30 1939 H 176.61 3.74867 1.80132 0
M  V30 1940 H 175.187 2.30644 2.93015 0
M  V30 1941 N 177.372 -0.689602 1.41712 0
M  V30 1942 C 178.319 -1.80345 1.44029 0
M  V30 1943 C 179.289 -1.63478 0.293948 0
M  V30 1944 O 180.474 -1.84244 0.495869 0
M  V30 1945 C 177.614 -3.18272 1.33405 0
M  V30 1946 C 176.727 -3.46529 2.57956 0
M  V30 1947 C 175.862 -4.74103 2.39582 0
M  V30 1948 C 174.901 -4.95347 3.5958 0
M  V30 1949 N 174.038 -6.14151 3.40239 0
M  V30 1950 H 178.878 -1.77698 2.39222 0
M  V30 1951 H 176.415 -0.867688 1.18784 0
M  V30 1952 H 178.373 -3.97956 1.25246 0
M  V30 1953 H 177.003 -3.2008 0.418164 0
M  V30 1954 H 176.055 -2.61207 2.76542 0
M  V30 1955 H 177.367 -3.58126 3.47199 0
M  V30 1956 H 176.521 -5.61853 2.28924 0
M  V30 1957 H 175.26 -4.64763 1.47805 0
M  V30 1958 H 174.265 -4.06044 3.70686 0
M  V30 1959 H 175.49 -5.06542 4.52318 0
M  V30 1960 H 173.436 -6.06013 2.51167 0
M  V30 1961 H 173.353 -6.26543 4.23061 0
M  V30 1962 H 174.621 -7.04619 3.33365 0
M  V30 1963 N 178.85 -1.27639 -0.924453 0
M  V30 1964 C 180.127 -1.04887 -1.651 0
M  V30 1965 C 180.507 0.415327 -2.06974 0
M  V30 1966 O 179.855 1.39923 -1.80648 0
M  V30 1967 C 180.065 -2.01348 -2.85061 0
M  V30 1968 C 181.413 -2.30899 -3.56329 0
M  V30 1969 O 182.437 -1.99348 -2.95193 0
M  V30 1970 O 181.296 -2.84699 -4.66485 0
M  V30 1971 H 178.39 -0.400083 -0.723784 0
M  V30 1972 H 180.936 -1.38916 -0.974703 0
M  V30 1973 H 179.708 -3.0008 -2.51133 0
M  V30 1974 H 179.331 -1.679 -3.6041 0
M  V30 1975 N 180.328 1.1314 -1.09713 0
M  V30 1976 C 181.291 2.16831 -0.742751 0
M  V30 1977 C 182.291 1.59159 0.229129 0
M  V30 1978 O 183.481 1.74199 0.00693237 0
M  V30 1979 C 180.613 3.40756 -0.0989168 0
M  V30 1980 H 181.806 2.49695 -1.66109 0
M  V30 1981 H 179.359 1.2802 -0.896699 0
M  V30 1982 H 180.094 3.13485 0.830514 0
M  V30 1983 H 179.879 3.83888 -0.798265 0
M  V30 1984 H 181.369 4.17386 0.133524 0
M  V30 1985 N 181.806 0.884767 1.30421 0
M  V30 1986 C 183.055 0.499164 1.95426 0
M  V30 1987 C 183.368 -0.95645 1.70621 0
M  V30 1988 O 184.574 -1.44889 2.29607 0
M  V30 1989 C 183.03 0.84177 3.49917 0
M  V30 1990 C 182.638 2.31514 3.83543 0
M  V30 1991 C 184.382 0.525355 4.21237 0
M  V30 1992 C 182.289 2.59939 5.31212 0
M  V30 1993 H 181.219 0.182944 0.73147 0
M  V30 1994 H 183.87 1.07971 1.48373 0
M  V30 1995 H 182.252 0.190311 3.95542 0
M  V30 1996 H 183.426 3.0109 3.48829 0
M  V30 1997 H 181.741 2.59907 3.25326 0
M  V30 1998 H 184.338 0.714762 5.29901 0
M  V30 1999 H 184.681 -0.535222 4.12845 0
M  V30 2000 H 185.214 1.134 3.81294 0
M  V30 2001 H 181.953 3.64736 5.44654 0
M  V30 2002 H 181.473 1.94972 5.67227 0
M  V30 2003 H 183.152 2.45429 5.98643 0
M  V30 2004 N 183.284 -1.43765 0.645699 0
M  V30 2005 C 184.231 -2.30745 -0.0504648 0
M  V30 2006 C 185.201 -1.4432 -0.822241 0
M  V30 2007 O 186.386 -1.73202 -0.800358 0
M  V30 2008 C 183.526 -3.29802 -1.0161 0
M  V30 2009 C 182.639 -4.31326 -0.241219 0
M  V30 2010 C 181.774 -5.17469 -1.19998 0
M  V30 2011 C 180.813 -6.10691 -0.415094 0
M  V30 2012 N 179.95 -6.89483 -1.32506 0
M  V30 2013 H 184.79 -2.8973 0.697155 0
M  V30 2014 H 182.327 -1.42738 0.355563 0
M  V30 2015 H 184.285 -3.85734 -1.58949 0
M  V30 2016 H 182.915 -2.72483 -1.73069 0
M  V30 2017 H 181.967 -3.77749 0.448334 0
M  V30 2018 H 183.279 -4.9743 0.369437 0
M  V30 2019 H 182.433 -5.7799 -1.84424 0
M  V30 2020 H 181.172 -4.51473 -1.84455 0
M  V30 2021 H 180.177 -5.49265 0.242565 0
M  V30 2022 H 181.402 -6.78727 0.224966 0
M  V30 2023 H 179.348 -6.26142 -1.95657 0
M  V30 2024 H 179.265 -7.52081 -0.768783 0
M  V30 2025 H 180.533 -7.54516 -1.9577 0
M  V30 2026 N 184.763 -0.387143 -1.52771 0
M  V30 2027 C 185.71 0.449048 -2.26389 0
M  V30 2028 C 186.68 1.05961 -1.27912 0
M  V30 2029 O 187.865 1.08804 -1.56737 0
M  V30 2030 C 185.005 1.57155 -3.0724 0
M  V30 2031 C 184.118 0.984066 -4.20643 0
M  V30 2032 C 183.253 2.07745 -4.88892 0
M  V30 2033 C 182.292 1.46574 -5.94292 0
M  V30 2034 N 181.429 2.49834 -6.56146 0
M  V30 2035 H 186.269 -0.185205 -2.97424 0
M  V30 2036 H 183.806 -0.103164 -1.46738 0
M  V30 2037 H 185.764 2.23309 -3.52405 0
M  V30 2038 H 184.394 2.17615 -2.38419 0
M  V30 2039 H 183.446 0.212193 -3.79808 0
M  V30 2040 H 184.758 0.497029 -4.96318 0
M  V30 2041 H 183.912 2.81673 -5.3735 0
M  V30 2042 H 182.651 2.59807 -4.12737 0
M  V30 2043 H 181.656 0.711696 -5.45174 0
M  V30 2044 H 182.881 0.953088 -6.72379 0
M  V30 2045 H 180.827 3.0107 -5.82832 0
M  V30 2046 H 180.744 2.05879 -7.27427 0
M  V30 2047 H 182.012 3.23399 -7.09249 0
M  V30 2048 N 186.241 1.57166 -0.116904 0
M  V30 2049 C 187.188 2.15202 0.83408 0
M  V30 2050 C 188.158 1.07644 1.26499 0
M  V30 2051 O 189.343 1.35541 1.34288 0
M  V30 2052 C 186.483 2.75405 2.07957 0
M  V30 2053 C 185.596 3.97264 1.69721 0
M  V30 2054 C 184.731 4.45561 2.89221 0
M  V30 2055 C 183.77 5.59956 2.47215 0
M  V30 2056 N 182.907 6.03006 3.59622 0
M  V30 2057 H 187.747 2.96141 0.332335 0
M  V30 2058 H 185.284 1.46309 0.152349 0
M  V30 2059 H 187.242 3.08439 2.80929 0
M  V30 2060 H 185.872 1.97159 2.55594 0
M  V30 2061 H 184.924 3.70404 0.866316 0
M  V30 2062 H 186.236 4.80226 1.34849 0
M  V30 2063 H 185.39 4.80493 3.7042 0
M  V30 2064 H 184.129 3.61544 3.27318 0
M  V30 2065 H 183.134 5.2463 1.64448 0
M  V30 2066 H 184.359 6.45738 2.10238 0
M  V30 2067 H 182.305 5.21931 3.97396 0
M  V30 2068 H 182.222 6.80819 3.28667 0
M  V30 2069 H 183.49 6.42576 4.41267 0
M  V30 2070 N 187.719 -0.156864 1.56817 0
M  V30 2071 C 188.966 -0.871125 1.82805 0
M  V30 2072 C 189.294 -1.81611 0.696262 0
M  V30 2073 O 188.549 -1.93141 -0.315459 0
M  V30 2074 C 188.848 -1.68737 3.1506 0
M  V30 2075 C 188.514 -0.890045 4.42028 0
M  V30 2076 C 187.176 -0.670042 4.76512 0
M  V30 2077 C 189.528 -0.331769 5.20143 0
M  V30 2078 C 186.856 0.119104 5.86579 0
M  V30 2079 C 189.208 0.444365 6.31037 0
M  V30 2080 C 187.872 0.675035 6.64078 0
M  V30 2081 H 187.142 -0.318767 0.668931 0
M  V30 2082 H 189.789 -0.135274 1.91022 0
M  V30 2083 H 188.094 -2.49304 3.0225 0
M  V30 2084 H 189.791 -2.24331 3.3238 0
M  V30 2085 H 186.381 -1.07157 4.14988 0
M  V30 2086 H 190.565 -0.489043 4.93885 0
M  V30 2087 H 185.821 0.307417 6.10627 0
M  V30 2088 H 189.995 0.884139 6.90765 0
M  V30 2089 H 187.622 1.28839 7.49203 0
M  V30 2090 N 189.197 -1.51736 -0.425897 0
M  V30 2091 C 190.129 -1.70083 -1.53638 0
M  V30 2092 C 191.142 -0.581349 -1.52066 0
M  V30 2093 O 192.331 -0.856017 -1.56635 0
M  V30 2094 C 189.431 -1.71078 -2.9255 0
M  V30 2095 C 188.604 -2.99795 -3.185 0
M  V30 2096 C 187.663 -2.92825 -4.37196 0
M  V30 2097 O 186.689 -3.66756 -4.35291 0
M  V30 2098 N 187.891 -2.0946 -5.41393 0
M  V30 2099 H 190.656 -2.65882 -1.383 0
M  V30 2100 H 188.217 -1.49765 -0.614988 0
M  V30 2101 H 190.209 -1.63969 -3.69995 0
M  V30 2102 H 188.779 -0.828242 -3.01428 0
M  V30 2103 H 187.999 -3.20684 -2.2925 0
M  V30 2104 H 189.287 -3.84977 -3.32671 0
M  V30 2105 H 188.685 -1.48792 -5.45781 0
M  V30 2106 H 187.242 -2.08221 -6.17647 0
M  V30 2107 N 190.675 0.682077 -1.42076 0
M  V30 2108 C 191.923 1.4393 -1.41876 0
M  V30 2109 C 192.244 1.94971 -0.0335599 0
M  V30 2110 O 191.514 1.72591 0.926773 0
M  V30 2111 H 190.094 0.534085 -0.522267 0
M  V30 2112 H 192.756 0.806427 -1.77434 0
M  V30 2113 H 191.852 2.29588 -2.11414 0
M  V30 2114 N 192.153 1.28127 0.917671 0
M  V30 2115 C 193.402 1.14432 1.66097 0
M  V30 2116 C 193.715 -0.307247 1.93172 0
M  V30 2117 O 194.921 -0.565259 2.65551 0
M  V30 2118 C 193.377 2.00015 2.99202 0
M  V30 2119 C 192.985 3.49889 2.79789 0
M  V30 2120 C 194.729 1.94996 3.77064 0
M  V30 2121 C 192.636 4.27636 4.08511 0
M  V30 2122 H 191.566 0.424662 0.62304 0
M  V30 2123 H 194.217 1.52628 1.01868 0
M  V30 2124 H 192.599 1.54672 3.64544 0
M  V30 2125 H 193.773 4.03162 2.23152 0
M  V30 2126 H 192.088 3.56392 2.15345 0
M  V30 2127 H 194.685 2.50354 4.72469 0
M  V30 2128 H 195.028 0.925819 4.05875 0
M  V30 2129 H 195.561 2.38287 3.18534 0
M  V30 2130 H 192.3 5.30615 3.84874 0
M  V30 2131 H 191.82 3.79137 4.64774 0
M  V30 2132 H 193.499 4.37346 4.76799 0
M  V30 2133 N 193.631 -1.12557 1.10312 0
M  V30 2134 C 194.578 -2.18247 0.750781 0
M  V30 2135 C 195.548 -1.63853 -0.272293 0
M  V30 2136 O 196.733 -1.90195 -0.151862 0
M  V30 2137 C 193.873 -3.44591 0.187379 0
M  V30 2138 C 192.986 -4.13046 1.2656 0
M  V30 2139 C 192.121 -5.27034 0.663978 0
M  V30 2140 C 191.16 -5.87353 1.72287 0
M  V30 2141 N 190.297 -6.92757 1.1416 0
M  V30 2142 H 195.137 -2.47732 1.65628 0
M  V30 2143 H 192.674 -1.21629 0.827337 0
M  V30 2144 H 194.632 -4.16904 -0.157148 0
M  V30 2145 H 193.262 -3.15527 -0.681355 0
M  V30 2146 H 192.314 -3.38924 1.72727 0
M  V30 2147 H 193.626 -4.53947 2.06721 0
M  V30 2148 H 192.78 -6.06104 0.268824 0
M  V30 2149 H 191.519 -4.87407 -0.169082 0
M  V30 2150 H 190.524 -5.06971 2.12746 0
M  V30 2151 H 191.749 -6.29051 2.55875 0
M  V30 2152 H 189.695 -6.5517 0.329984 0
M  V30 2153 H 189.612 -7.3225 1.88007 0
M  V30 2154 H 190.88 -7.75658 0.772956 0
M  V30 2155 N 195.109 -0.891671 -1.2995 0
M  V30 2156 C 196.059 -0.334811 -2.25528 0
M  V30 2157 C 197.043 0.540553 -1.51548 0
M  V30 2158 O 198.235 0.383882 -1.72787 0
M  V30 2159 C 195.364 0.44374 -3.4042 0
M  V30 2160 C 194.45 -0.44609 -4.21747 0
M  V30 2161 N 194.841 -1.54963 -4.81477 0
M  V30 2162 C 193.139 -0.242415 -4.45341 0
M  V30 2163 C 193.84 -2.10015 -5.42465 0
M  V30 2164 N 192.816 -1.39423 -5.25416 0
M  V30 2165 H 196.618 -1.17792 -2.69262 0
M  V30 2166 H 194.132 -0.741822 -1.44467 0
M  V30 2167 H 196.129 0.859362 -4.07947 0
M  V30 2168 H 194.789 1.28421 -2.98225 0
M  V30 2169 H 195.8 -1.93244 -4.80497 0
M  V30 2170 H 192.477 0.560342 -4.13723 0
M  V30 2171 H 193.867 -3.02724 -5.9984 0
M  V30 2172 N 196.587 1.43421 -0.653314 0
M  V30 2173 C 197.497 2.34568 0.0388565 0
M  V30 2174 C 198.513 1.53888 0.81207 0
M  V30 2175 O 199.689 1.86539 0.759294 0
M  V30 2176 C 196.754 3.32167 0.993269 0
M  V30 2177 C 195.815 4.28751 0.216977 0
M  V30 2178 C 195.048 5.21688 1.12593 0
M  V30 2179 O 195.271 5.19052 2.36519 0
M  V30 2180 O 194.205 5.98919 0.598284 0
M  V30 2181 H 198.031 2.95251 -0.711386 0
M  V30 2182 H 195.616 1.43564 -0.413502 0
M  V30 2183 H 197.498 3.92183 1.54176 0
M  V30 2184 H 196.173 2.73987 1.72374 0
M  V30 2185 H 195.08 3.72215 -0.375101 0
M  V30 2186 H 196.413 4.89913 -0.473924 0
M  V30 2187 N 198.065 0.39524 1.52563 0
M  V30 2188 C 199.305 -0.184744 2.03563 0
M  V30 2189 C 199.669 -1.43548 1.27507 0
M  V30 2190 O 200.87 -2.093 1.68662 0
M  V30 2191 C 199.141 -0.440294 3.54678 0
M  V30 2192 S 200.7 -0.989712 4.27493 0
M  V30 2193 H 197.518 -0.0515075 0.709132 0
M  V30 2194 H 200.12 0.544957 1.87751 0
M  V30 2195 H 198.824 0.477005 4.07618 0
M  V30 2196 H 198.355 -1.19825 3.74707 0
M  V30 2197 H 200.37 -2.27155 4.41152 0
M  V30 2198 N 199.544 -1.57102 0.125237 0
M  V30 2199 C 200.476 -2.12726 -0.853237 0
M  V30 2200 C 201.489 -1.07145 -1.22571 0
M  V30 2201 O 202.678 -1.34497 -1.17358 0
M  V30 2202 C 199.778 -2.61709 -2.15317 0
M  V30 2203 C 198.951 -3.91456 -1.95143 0
M  V30 2204 C 198.01 -4.25973 -3.08923 0
M  V30 2205 O 197.036 -4.94682 -2.81564 0
M  V30 2206 N 198.238 -3.83795 -4.35524 0
M  V30 2207 H 201.003 -2.97307 -0.377964 0
M  V30 2208 H 198.564 -1.61792 -0.0590011 0
M  V30 2209 H 200.556 -2.81826 -2.90441 0
M  V30 2210 H 199.126 -1.81974 -2.54174 0
M  V30 2211 H 198.346 -3.80185 -1.04177 0
M  V30 2212 H 199.634 -4.76283 -1.78976 0
M  V30 2213 H 199.032 -3.2839 -4.60626 0
M  V30 2214 H 197.589 -4.09008 -5.07499 0
M  V30 2215 N 201.022 0.148545 -1.56898 0
M  V30 2216 C 201.985 1.16736 -1.97244 0
M  V30 2217 C 202.985 1.35947 -0.858777 0
M  V30 2218 O 204.175 1.32966 -1.12542 0
M  V30 2219 C 201.307 2.52798 -2.28705 0
M  V30 2220 H 202.5 0.821279 -2.88435 0
M  V30 2221 H 200.053 0.391831 -1.51309 0
M  V30 2222 H 200.788 2.92381 -1.403 0
M  V30 2223 H 200.573 2.40216 -3.09901 0
M  V30 2224 H 202.063 3.26179 -2.60762 0
M  V30 2225 N 202.5 1.5196 0.417844 0
M  V30 2226 C 203.448 1.75278 1.52907 0
M  V30 2227 C 204.442 0.619611 1.57662 0
M  V30 2228 O 205.648 0.801457 1.61173 0
M  V30 2229 H 202.023 0.554141 0.508362 0
M  V30 2230 H 203.994 2.68389 1.30422 0
M  V30 2231 C 202.743 1.91262 2.90369 0
M  V30 2232 H 202.066 2.77872 2.8745 0
M  V30 2233 H 203.506 2.11581 3.67436 0
M  V30 2234 C 201.965 0.677431 3.30019 0
M  V30 2235 O 202.495 -0.158799 4.01386 0
M  V30 2236 N 200.701 0.515851 2.85985 0
M  V30 2237 H 200.248 1.19744 2.28077 0
M  V30 2238 H 200.206 -0.309315 3.12875 0
M  V30 2239 N 203.978 -0.674533 1.42435 0
M  V30 2240 C 205.226 -1.43175 1.42637 0
M  V30 2241 C 205.547 -1.94951 0.0438992 0
M  V30 2242 O 204.817 -1.7308 -0.917607 0
M  V30 2243 H 203.397 -0.531307 0.525092 0
M  V30 2244 H 206.059 -0.797006 1.77859 0
M  V30 2245 H 205.155 -2.28463 2.12629 0
M  V30 2246 N 205.456 -1.28612 -0.910864 0
M  V30 2247 C 206.867 -1.14406 -1.47541 0
M  V30 2248 C 207.218 0.264901 -1.94403 0
M  V30 2249 O 206.343 1.15942 -1.82719 0
M  V30 2250 C 206.938 -2.07073 -2.68153 0
M  V30 2251 C 205.497 -1.96923 -3.20778 0
M  V30 2252 C 204.644 -1.98646 -1.93481 0
M  V30 2253 H 207.595 -1.41259 -0.723291 0
M  V30 2254 H 207.616 -1.63642 -3.43514 0
M  V30 2255 H 207.128 -3.09611 -2.34015 0
M  V30 2256 H 205.229 -0.97433 -3.59635 0
M  V30 2257 H 205.342 -2.84026 -3.85832 0
M  V30 2258 H 203.706 -1.43093 -2.10705 0
M  V30 2259 H 204.489 -3.02868 -1.61634 0
M  V30 2260 N 206.934 1.1197 -1.10907 0
M  V30 2261 C 207.844 2.21433 -0.774896 0
M  V30 2262 C 208.86 1.72478 0.229657 0
M  V30 2263 O 210.036 2.01288 0.0672008 0
M  V30 2264 C 207.101 3.4602 -0.216986 0
M  V30 2265 C 206.162 4.09791 -1.27944 0
M  V30 2266 C 205.395 5.28431 -0.748055 0
M  V30 2267 O 205.618 5.68823 0.423833 0
M  V30 2268 O 204.552 5.82644 -1.51027 0
M  V30 2269 H 208.378 2.5242 -1.68873 0
M  V30 2270 H 205.963 1.20399 -0.884555 0
M  V30 2271 H 207.845 4.21304 0.090059 0
M  V30 2272 H 206.52 3.16698 0.669633 0
M  V30 2273 H 205.427 3.36265 -1.63941 0
M  V30 2274 H 206.76 4.4328 -2.13925 0
M  V30 2275 N 208.412 0.89855 1.29475 0
M  V30 2276 C 209.689 0.443416 1.90508 0
M  V30 2277 C 210.069 -1.07685 1.81569 0
M  V30 2278 O 209.417 -1.9182 1.24166 0
M  V30 2279 C 209.627 0.956708 3.35631 0
M  V30 2280 C 210.975 0.999728 4.12663 0
M  V30 2281 O 211.999 0.904299 3.4453 0
M  V30 2282 O 210.858 1.14289 5.34416 0
M  V30 2283 H 207.952 0.138025 0.815401 0
M  V30 2284 H 210.498 0.98834 1.37949 0
M  V30 2285 H 209.27 2.00067 3.36287 0
M  V30 2286 H 208.893 0.391728 3.95666 0
M  V30 2287 N 209.89 -1.43072 0.660911 0
M  V30 2288 C 210.82 -2.33497 -0.0122829 0
M  V30 2289 C 211.801 -1.49903 -0.803925 0
M  V30 2290 O 212.986 -1.78546 -0.763864 0
M  V30 2291 C 210.116 -3.33363 -0.973994 0
M  V30 2292 C 209.07 -4.27003 -0.291928 0
M  V30 2293 C 208.396 -5.16967 -1.36562 0
M  V30 2294 C 209.696 -5.15816 0.820462 0
M  V30 2295 H 211.39 -2.90038 0.742873 0
M  V30 2296 H 208.936 -1.39461 0.358688 0
M  V30 2297 H 210.889 -3.95524 -1.45392 0
M  V30 2298 H 209.613 -2.75095 -1.7604 0
M  V30 2299 H 208.272 -3.66217 0.167623 0
M  V30 2300 H 207.92 -4.55034 -2.14366 0
M  V30 2301 H 207.62 -5.80441 -0.914454 0
M  V30 2302 H 209.144 -5.82003 -1.84675 0
M  V30 2303 H 210.558 -5.71742 0.422366 0
M  V30 2304 H 208.955 -5.8805 1.19656 0
M  V30 2305 H 210.025 -4.55045 1.67518 0
M  V30 2306 N 211.368 -0.403325 -1.52352 0
M  V30 2307 C 212.316 0.439752 -2.28405 0
M  V30 2308 C 213.31 1.05089 -1.32863 0
M  V30 2309 O 214.516 0.989759 -1.50345 0
M  V30 2310 H 210.891 0.160587 -0.734653 0
M  V30 2311 H 212.862 -0.222983 -2.97566 0
M  V30 2312 C 211.611 1.54736 -3.11371 0
M  V30 2313 H 210.934 1.08643 -3.84755 0
M  V30 2314 H 212.374 2.1112 -3.67701 0
M  V30 2315 C 210.833 2.51141 -2.24566 0
M  V30 2316 O 211.363 3.54887 -1.88196 0
M  V30 2317 N 209.569 2.21213 -1.8845 0
M  V30 2318 H 209.116 1.36878 -2.18225 0
M  V30 2319 H 209.074 2.85963 -1.30662 0
M  V30 2320 N 212.846 1.57033 -0.133567 0
M  V30 2321 C 214.262 1.58035 0.222944 0
M  V30 2322 C 214.462 1.14713 1.6566 0
M  V30 2323 O 213.518 0.841218 2.38075 0
M  V30 2324 C 214.831 3.00691 -0.0236116 0
M  V30 2325 C 216.379 3.12973 0.0411512 0
M  V30 2326 C 216.854 4.57654 -0.177899 0
M  V30 2327 N 218.345 4.63033 -0.124365 0
M  V30 2328 C 219.08 5.72771 -0.268553 0
M  V30 2329 N 218.576 6.91206 -0.46972 0
M  V30 2330 N 220.369 5.61718 -0.2071 0
M  V30 2331 H 212.52 1.8349 -1.06981 0
M  V30 2332 H 214.783 0.848677 -0.422436 0
M  V30 2333 H 214.489 3.36726 -1.0153 0
M  V30 2334 H 214.363 3.70614 0.701808 0
M  V30 2335 H 216.75 2.76787 1.02338 0
M  V30 2336 H 216.831 2.45564 -0.716383 0
M  V30 2337 H 216.475 4.94542 -1.15717 0
M  V30 2338 H 216.405 5.23173 0.599797 0
M  V30 2339 H 218.896 3.7789 0.027011 0
M  V30 2340 H 219.209 7.70693 -0.570212 0
M  V30 2341 H 217.554 6.93156 -0.505876 0
M  V30 2342 H 220.745 4.68072 -0.0507986 0
M  V30 2343 H 220.918 6.47195 -0.322909 0
M  V30 2344 N 214.325 -0.140222 1.56975 0
M  V30 2345 C 215.288 -1.15689 1.97861 0
M  V30 2346 C 216.288 -1.3549 0.865974 0
M  V30 2347 O 217.478 -1.32367 1.13246 0
M  V30 2348 C 214.61 -2.51582 2.30042 0
M  V30 2349 H 215.803 -0.805971 2.88867 0
M  V30 2350 H 213.356 -0.383801 1.51515 0
M  V30 2351 H 214.091 -2.91632 1.41849 0
M  V30 2352 H 213.876 -2.38569 3.11171 0
M  V30 2353 H 215.366 -3.24792 2.62488 0
M  V30 2354 N 215.803 -1.52179 -0.40978 0
M  V30 2355 C 217.043 -1.67882 -1.16597 0
M  V30 2356 C 217.407 -0.399795 -1.87791 0
M  V30 2357 O 218.608 -0.43292 -2.65291 0
M  V30 2358 C 216.879 -2.86662 -2.13448 0
M  V30 2359 S 218.438 -3.22843 -2.97183 0
M  V30 2360 H 215.256 -0.59118 -0.395002 0
M  V30 2361 H 217.858 -1.9017 -0.453373 0
M  V30 2362 H 216.562 -3.77998 -1.59831 0
M  V30 2363 H 216.093 -2.66645 -2.89247 0
M  V30 2364 H 218.108 -2.71415 -4.15389 0
M  V30 2365 N 217.281 0.66697 -1.42791 0
M  V30 2366 C 218.53 1.42278 -1.42968 0
M  V30 2367 C 218.843 1.9553 -0.0524489 0
M  V30 2368 O 220.049 2.71414 0.068363 0
M  V30 2369 C 218.505 2.57418 -2.51524 0
M  V30 2370 C 218.113 2.10832 -3.9529 0
M  V30 2371 C 219.857 3.34878 -2.60877 0
M  V30 2372 C 217.764 3.23101 -4.95338 0
M  V30 2373 H 216.694 0.534533 -0.531781 0
M  V30 2374 H 219.345 0.721302 -1.68729 0
M  V30 2375 H 217.727 3.29971 -2.18941 0
M  V30 2376 H 218.901 1.4538 -4.37266 0
M  V30 2377 H 217.216 1.46289 -3.89857 0
M  V30 2378 H 219.813 4.18505 -3.32802 0
M  V30 2379 H 220.156 3.81993 -1.6549 0
M  V30 2380 H 220.689 2.69398 -2.92693 0
M  V30 2381 H 217.428 2.80969 -5.9223 0
M  V30 2382 H 216.948 3.87309 -4.57987 0
M  V30 2383 H 218.627 3.88447 -5.17415 0
M  V30 2384 N 218.759 1.29093 0.90403 0
M  V30 2385 C 219.722 1.1386 1.98919 0
M  V30 2386 C 220.722 0.0753457 1.60623 0
M  V30 2387 O 221.912 0.321931 1.71199 0
M  V30 2388 C 219.044 0.740198 3.32767 0
M  V30 2389 H 220.237 2.10246 2.13861 0
M  V30 2390 H 217.79 1.12218 1.08797 0
M  V30 2391 H 218.525 -0.223997 3.23525 0
M  V30 2392 H 218.31 1.50838 3.61926 0
M  V30 2393 H 219.8 0.656546 4.12407 0
M  V30 2394 N 220.237 -1.11381 1.11499 0
M  V30 2395 C 221.147 -2.21019 0.786628 0
M  V30 2396 C 222.163 -1.72597 -0.220507 0
M  V30 2397 O 223.339 -2.01321 -0.0565251 0
M  V30 2398 C 220.404 -3.459 0.235333 0
M  V30 2399 C 219.465 -4.09107 1.30115 0
M  V30 2400 C 218.698 -5.28027 0.776068 0
M  V30 2401 O 218.921 -5.6904 -0.393661 0
M  V30 2402 O 217.855 -5.81835 1.54114 0
M  V30 2403 H 221.681 -2.51521 1.70209 0
M  V30 2404 H 219.266 -1.19928 0.890928 0
M  V30 2405 H 221.148 -4.21346 -0.067715 0
M  V30 2406 H 219.823 -3.17049 -0.652828 0
M  V30 2407 H 218.73 -3.35391 1.65722 0
M  V30 2408 H 220.063 -4.42139 2.16273 0
M  V30 2409 N 221.715 -0.905404 -1.28997 0
M  V30 2410 C 222.662 -0.385892 -2.27551 0
M  V30 2411 C 223.632 0.535113 -1.57244 0
M  V30 2412 O 224.817 0.459119 -1.85194 0
M  V30 2413 C 221.957 0.375461 -3.43051 0
M  V30 2414 C 221.07 -0.577092 -4.28128 0
M  V30 2415 C 220.205 0.201879 -5.30816 0
M  V30 2416 C 219.244 -0.744829 -6.07551 0
M  V30 2417 N 218.381 9.42587e-05 -7.021 0
M  V30 2418 H 223.221 -1.23139 -2.71368 0
M  V30 2419 H 220.758 -0.618542 -1.33463 0
M  V30 2420 H 222.716 0.832992 -4.088 0
M  V30 2421 H 221.346 1.18537 -3.00248 0
M  V30 2422 H 220.398 -1.15315 -3.62501 0
M  V30 2423 H 221.71 -1.30152 -4.8152 0
M  V30 2424 H 220.864 0.720351 -6.02408 0
M  V30 2425 H 219.603 0.959413 -4.7817 0
M  V30 2426 H 218.608 -1.27475 -5.34818 0
M  V30 2427 H 219.833 -1.50178 -6.62286 0
M  V30 2428 H 217.779 0.739791 -6.51815 0
M  V30 2429 H 217.696 -0.664321 -7.53076 0
M  V30 2430 H 218.964 0.498644 -7.77903 0
M  V30 2431 N 223.193 1.4272 -0.668489 0
M  V30 2432 C 224.123 2.335 -0.000100175 0
M  V30 2433 C 225.104 1.50328 0.795964 0
M  V30 2434 O 226.289 1.78949 0.754385 0
M  V30 2435 C 223.419 3.33874 0.956302 0
M  V30 2436 C 222.373 4.27152 0.269278 0
M  V30 2437 C 221.699 5.17684 1.33818 0
M  V30 2438 C 222.999 5.15373 -0.847805 0
M  V30 2439 H 224.693 2.89639 -0.758244 0
M  V30 2440 H 222.239 1.39269 -0.366079 0
M  V30 2441 H 224.192 3.9629 1.43292 0
M  V30 2442 H 222.916 2.76025 1.74579 0
M  V30 2443 H 221.575 3.66123 -0.187042 0
M  V30 2444 H 221.223 4.56165 2.1195 0
M  V30 2445 H 220.923 5.80918 0.883659 0
M  V30 2446 H 222.447 5.82974 1.81586 0
M  V30 2447 H 223.861 5.7151 -0.452681 0
M  V30 2448 H 222.258 5.87407 -1.22773 0
M  V30 2449 H 223.328 4.5415 -1.69929 0
M  V30 2450 N 224.671 0.411399 1.52136 0
M  V30 2451 C 225.919 -0.163322 2.01439 0
M  V30 2452 C 226.24 -1.45453 1.29879 0
M  V30 2453 O 225.51 -1.91225 0.4254 0
M  V30 2454 H 224.09 -0.0633447 0.744309 0
M  V30 2455 H 226.752 0.548161 1.87033 0
M  V30 2456 H 225.848 -0.357817 3.10042 0
M  V30 2457 N 226.149 -1.5696 0.141893 0
M  V30 2458 C 227.397 -1.95573 -0.509484 0
M  V30 2459 C 227.718 -1.02746 -1.65736 0
M  V30 2460 O 226.988 -0.0880311 -1.95702 0
M  V30 2461 H 225.568 -0.722115 -0.191205 0
M  V30 2462 H 228.23 -1.93697 0.216196 0
M  V30 2463 H 227.326 -2.99171 -0.889 0
M  V30 2464 N 227.627 0.131896 -1.57047 0
M  V30 2465 C 228.852 0.860418 -1.8871 0
M  V30 2466 C 229.277 1.73251 -0.73251 0
M  V30 2467 O 228.635 1.785 0.317429 0
M  V30 2468 C 228.683 1.68047 -3.19049 0
M  V30 2469 O 227.787 2.7862 -3.04047 0
M  V30 2470 H 227.128 0.238743 -0.619595 0
M  V30 2471 H 229.658 0.118169 -2.04258 0
M  V30 2472 H 229.668 2.07238 -3.51449 0
M  V30 2473 H 228.343 1.04018 -4.02682 0
M  V30 2474 H 226.92 2.42726 -2.83088 0
M  V30 2475 N 229.106 1.52395 0.401703 0
M  V30 2476 C 230.036 1.79231 1.49661 0
M  V30 2477 C 231.017 0.643654 1.57452 0
M  V30 2478 O 232.202 0.889989 1.72606 0
M  V30 2479 C 229.332 1.94971 2.87409 0
M  V30 2480 C 228.286 3.10604 2.94465 0
M  V30 2481 C 227.612 3.11577 4.34538 0
M  V30 2482 C 228.912 4.49921 2.6527 0
M  V30 2483 H 230.606 2.70917 1.27454 0
M  V30 2484 H 228.152 1.30362 0.6117 0
M  V30 2485 H 230.105 2.12328 3.63999 0
M  V30 2486 H 228.829 0.999632 3.10926 0
M  V30 2487 H 227.488 2.93009 2.20321 0
M  V30 2488 H 227.136 2.14277 4.55076 0
M  V30 2489 H 226.836 3.89247 4.40183 0
M  V30 2490 H 228.36 3.31073 5.13053 0
M  V30 2491 H 229.774 4.67683 3.31581 0
M  V30 2492 H 228.171 5.29564 2.82281 0
M  V30 2493 H 229.241 4.57507 1.60671 0
M  V30 2494 N 230.584 -0.659388 1.43143 0
M  V30 2495 C 231.833 -1.41518 1.43721 0
M  V30 2496 C 232.146 -1.95499 0.0628176 0
M  V30 2497 O 233.352 -2.71446 -0.0539683 0
M  V30 2498 C 231.808 -2.5608 2.52885 0
M  V30 2499 C 231.416 -2.08733 3.96402 0
M  V30 2500 C 233.16 -3.3349 2.62649 0
M  V30 2501 C 231.067 -3.20469 4.97045 0
M  V30 2502 H 229.997 -0.531705 0.534608 0
M  V30 2503 H 232.648 -0.712343 1.69109 0
M  V30 2504 H 231.03 -3.28805 2.20688 0
M  V30 2505 H 232.204 -1.43059 4.3803 0
M  V30 2506 H 230.519 -1.44219 3.90627 0
M  V30 2507 H 233.116 -4.16734 3.35017 0
M  V30 2508 H 233.459 -3.8111 1.67513 0
M  V30 2509 H 233.992 -2.67842 2.94118 0
M  V30 2510 H 230.731 -2.77824 5.93712 0
M  V30 2511 H 230.251 -3.84874 4.60034 0
M  V30 2512 H 231.93 -3.85698 5.19467 0
M  V30 2513 N 232.062 -1.29571 -0.897171 0
M  V30 2514 C 233.308 -1.17863 -1.65034 0
M  V30 2515 C 233.641 0.268729 -1.92332 0
M  V30 2516 O 232.916 1.19378 -1.53555 0
M  V30 2517 C 233.199 -1.995 -2.99786 0
M  V30 2518 C 233.052 -3.5239 -2.79538 0
M  V30 2519 C 234.371 -1.82335 -4.00552 0
M  V30 2520 H 231.49 -0.429528 -0.598895 0
M  V30 2521 H 234.132 -1.59072 -1.03905 0
M  V30 2522 H 232.282 -1.64485 -3.51962 0
M  V30 2523 H 233.954 -3.97401 -2.34244 0
M  V30 2524 H 232.197 -3.77187 -2.14273 0
M  V30 2525 H 232.868 -4.04787 -3.75302 0
M  V30 2526 H 235.344 -2.12924 -3.57495 0
M  V30 2527 H 234.22 -2.41801 -4.92771 0
M  V30 2528 H 234.481 -0.779209 -4.35179 0
M  V30 2529 N 233.54 1.10788 -1.12088 0
M  V30 2530 C 234.503 2.15207 -0.788577 0
M  V30 2531 C 235.503 1.59609 0.195317 0
M  V30 2532 O 236.693 1.74174 -0.0300193 0
M  V30 2533 C 233.825 3.4047 -0.171174 0
M  V30 2534 H 235.018 2.46116 -1.71368 0
M  V30 2535 H 232.571 1.26089 -0.923652 0
M  V30 2536 H 233.306 3.15176 0.763832 0
M  V30 2537 H 233.091 3.82109 -0.879514 0
M  V30 2538 H 234.581 4.17576 0.04496 0
M  V30 2539 N 235.018 0.912232 1.28515 0
M  V30 2540 C 236.265 0.544599 1.95039 0
M  V30 2541 C 236.593 -0.911435 1.71823 0
M  V30 2542 O 235.848 -1.66317 1.03137 0
M  V30 2543 C 236.147 0.798392 3.48368 0
M  V30 2544 C 235.813 2.23374 3.91682 0
M  V30 2545 C 234.475 2.62617 4.03219 0
M  V30 2546 C 236.827 3.16786 4.13879 0
M  V30 2547 C 234.155 3.94429 4.3433 0
M  V30 2548 C 236.507 4.48161 4.46469 0
M  V30 2549 C 235.171 4.8726 4.56217 0
M  V30 2550 H 234.441 0.199283 0.7137 0
M  V30 2551 H 237.088 1.15327 1.52879 0
M  V30 2552 H 235.393 0.106908 3.91654 0
M  V30 2553 H 237.09 0.493141 3.97956 0
M  V30 2554 H 233.68 1.91922 3.83228 0
M  V30 2555 H 237.864 2.87677 4.0442 0
M  V30 2556 H 233.12 4.24426 4.40082 0
M  V30 2557 H 237.294 5.20559 4.62592 0
M  V30 2558 H 234.921 5.89431 4.80078 0
M  V30 2559 N 236.496 -1.42363 0.676048 0
M  V30 2560 C 237.406 -2.346 -0.00153389 0
M  V30 2561 C 238.422 -1.5516 -0.787485 0
M  V30 2562 O 239.598 -1.87723 -0.729521 0
M  V30 2563 C 236.663 -3.33705 -0.940298 0
M  V30 2564 C 235.724 -4.29042 -0.148739 0
M  V30 2565 C 234.957 -5.23413 -1.04279 0
M  V30 2566 O 235.18 -5.22749 -2.28232 0
M  V30 2567 O 234.114 -5.99795 -0.502925 0
M  V30 2568 H 237.94 -2.94082 0.758268 0
M  V30 2569 H 235.525 -1.42888 0.436289 0
M  V30 2570 H 237.407 -3.94586 -1.47917 0
M  V30 2571 H 236.082 -2.76695 -1.67993 0
M  V30 2572 H 234.989 -3.71571 0.43427 0
M  V30 2573 H 236.322 -4.89097 0.551805 0
M  V30 2574 N 237.974 -0.419461 -1.51915 0
M  V30 2575 C 239.222 0.152637 -2.01523 0
M  V30 2576 C 239.543 1.44762 -1.30649 0
M  V30 2577 O 238.813 1.90997 -0.435535 0
M  V30 2578 H 237.393 0.0593966 -0.744635 0
M  V30 2579 H 240.055 -0.558073 -1.86739 0
M  V30 2580 H 239.151 0.341369 -3.10227 0
M  V30 2581 N 239.452 1.56882 -0.150215 0
M  V30 2582 C 240.692 1.98119 0.502804 0
M  V30 2583 C 241.056 1.03327 1.61826 0
M  V30 2584 O 242.257 1.33621 2.33236 0
M  V30 2585 C 240.528 3.43329 0.992988 0
M  V30 2586 S 242.087 4.0659 1.65015 0
M  V30 2587 H 238.905 0.692189 0.162467 0
M  V30 2588 H 241.507 1.93988 -0.242689 0
M  V30 2589 H 240.211 4.10046 0.170436 0
M  V30 2590 H 239.742 3.5118 1.77303 0
M  V30 2591 H 241.757 3.99906 2.93752 0
M  V30 2592 N 240.93 -0.123565 1.57115 0
M  V30 2593 C 242.341 -0.681198 1.73829 0
M  V30 2594 C 242.692 -1.80535 0.768214 0
M  V30 2595 O 241.817 -2.16317 -0.0599103 0
M  V30 2596 C 242.412 -1.24246 3.15196 0
M  V30 2597 C 240.971 -1.74643 3.33432 0
M  V30 2598 C 240.118 -0.644284 2.69711 0
M  V30 2599 H 243.069 0.102315 1.5837 0
M  V30 2600 H 243.09 -2.11216 3.16493 0
M  V30 2601 H 242.602 -0.424062 3.85776 0
M  V30 2602 H 240.703 -2.58974 2.67886 0
M  V30 2603 H 240.816 -1.85902 4.41562 0
M  V30 2604 H 239.18 -1.07676 2.3082 0
M  V30 2605 H 239.963 0.163058 3.42913 0
M  V30 2606 N 242.408 -1.52605 -0.393616 0
M  V30 2607 C 243.654 -1.67672 -1.14079 0
M  V30 2608 C 243.987 -0.413121 -1.89755 0
M  V30 2609 O 243.262 0.588952 -1.85369 0
M  V30 2610 C 243.545 -2.9088 -2.12276 0
M  V30 2611 C 243.398 -4.27329 -1.40394 0
M  V30 2612 C 244.717 -3.09628 -3.12759 0
M  V30 2613 H 241.836 -0.610168 -0.413356 0
M  V30 2614 H 244.478 -1.85193 -0.424696 0
M  V30 2615 H 242.628 -2.76073 -2.73342 0
M  V30 2616 H 244.3 -4.53894 -0.82327 0
M  V30 2617 H 242.543 -4.2802 -0.705801 0
M  V30 2618 H 243.214 -5.09615 -2.12123 0
M  V30 2619 H 245.69 -3.23436 -2.61779 0
M  V30 2620 H 244.566 -3.97322 -3.78717 0
M  V30 2621 H 244.827 -2.23637 -3.81365 0
M  V30 2622 O 243.925 0.539544 -1.52221 0
M  V30 2623 H 244.616 1.19468 -1.5247 0
M  V30 END ATOM
M  V30 BEGIN BOND
M  V30 END BOND
M  V30 END CTAB
M  END
$$$$
