drugbank_target|P60906 Histidine--tRNA ligase (DB03811; DB04201)
 OpenBabel12092120003D

  0  0  0     0  0            999 V3000
M  V30 BEGIN CTAB
M  V30 COUNTS 9731 10402 0 0 0
M  V30 BEGIN ATOM
M  V30 1 H -2.588 8.49073 -0.0679273 0
M  V30 2 O -1.492 9.37262 0.0843559 0
M  V30 3 P 0 8.791 0 0
M  V30 4 O 1.422 9.31096 0.027933 0
M  V30 5 O -0.36 7.77869 -1.04071 0
M  V30 6 O -0.323 8.09533 1.41463 0
M  V30 7 C -0.483 9.0349 2.53943 0
M  V30 8 C 0.057 8.35226 3.79016 0
M  V30 9 O -0.999 7.57992 4.15078 0
M  V30 10 C 1.275 7.45087 3.67298 0
M  V30 11 O 2.013 7.27796 4.85194 0
M  V30 12 C 0.606 6.17323 3.12027 0
M  V30 13 O 1.405 5.04231 3.47188 0
M  V30 14 C -0.731 6.19961 3.81809 0
M  V30 15 H -0.699 5.58218 4.73051 0
M  V30 16 H 0.484 6.21726 2.02589 0
M  V30 17 H 1.968 7.86112 2.9231 0
M  V30 18 H 0.274 9.11627 4.55076 0
M  V30 19 H 0.084 9.9573 2.34194 0
M  V30 20 H -1.546 9.2792 2.67832 0
M  V30 21 H 1.093 4.67702 4.28772 0
M  V30 22 P 2.95057 7.39546 4.75277 0
M  V30 23 O 4.37157 7.81861 5.05793 0
M  V30 24 O 2.59057 7.1065 3.32998 0
M  V30 25 O 2.62757 6.04542 5.56673 0
M  V30 26 C 2.46657 6.22839 7.02169 0
M  V30 27 C 3.00757 4.97725 7.70406 0
M  V30 28 O 1.95257 4.13208 7.58899 0
M  V30 29 C 4.22557 4.28231 7.11815 0
M  V30 30 O 4.96357 3.49945 8.01648 0
M  V30 31 C 3.55757 3.5063 5.96244 0
M  V30 32 O 4.35557 2.37008 5.64352 0
M  V30 33 C 2.21957 3.15122 6.56374 0
M  V30 34 N 1.17657 3.22311 5.55692 0
M  V30 35 C 1.34557 3.99655 4.46046 0
M  V30 36 N 0.31857 3.97599 3.63918 0
M  V30 37 C -0.56643 3.11159 4.25334 0
M  V30 38 C -1.83343 2.64972 3.85157 0
M  V30 39 N -2.43243 3.02132 2.69405 0
M  V30 40 N -2.39843 1.78482 4.74759 0
M  V30 41 C -1.79643 1.37463 5.90819 0
M  V30 42 N -0.61943 1.7733 6.31889 0
M  V30 43 C -0.04443 2.64393 5.43725 0
M  V30 44 H 2.25157 2.13823 6.99656 0
M  V30 45 H 3.43457 4.12931 5.06895 0
M  V30 46 H 4.91757 5.03285 6.70911 0
M  V30 47 H 3.22357 5.20001 8.76217 0
M  V30 48 H 3.03357 7.11046 7.35349 0
M  V30 49 H 1.40357 6.35815 7.26986 0
M  V30 50 H -2.33243 0.66574 6.53015 0
M  V30 51 H 2.24557 4.58037 4.27732 0
M  V30 52 H -3.36243 2.64828 2.45331 0
M  V30 53 H -1.95843 3.67472 2.05644 0
M  V30 54 H 4.04357 1.61619 6.13468 0
M  V30 55 P 5.90114 3.65191 7.99657 0
M  V30 56 O 7.32314 3.8425 8.48115 0
M  V30 57 O 5.54114 4.17805 6.64342 0
M  V30 58 O 5.57814 2.07613 7.95143 0
M  V30 59 C 5.41814 1.44328 9.27336 0
M  V30 60 C 5.95814 0.0220036 9.17197 0
M  V30 61 O 4.90214 -0.626867 8.61923 0
M  V30 62 C 7.17614 -0.24586 8.30336 0
M  V30 63 O 7.91414 -1.39011 8.63583 0
M  V30 64 C 6.50714 -0.273849 6.91158 0
M  V30 65 O 7.30614 -1.06348 6.02892 0
M  V30 66 C 5.17014 -0.897649 7.22545 0
M  V30 67 H 5.20214 -1.9841 7.04286 0
M  V30 68 H 6.38514 0.739928 6.497 0
M  V30 69 H 7.86914 0.60668 8.36503 0
M  V30 70 H 6.17514 -0.352479 10.1829 0
M  V30 71 H 5.98514 2.00611 10.0304 0
M  V30 72 H 4.35514 1.41843 9.55327 0
M  V30 73 H 6.99414 -1.95734 6.03555 0
M  V30 74 P 8.85171 -1.25109 8.70152 0
M  V30 75 O 10.2737 -1.35274 9.21221 0
M  V30 76 O 8.49171 -0.0769065 7.84762 0
M  V30 77 O 8.52871 -2.55232 7.81161 0
M  V30 78 C 8.36871 -3.79939 8.58154 0
M  V30 79 C 8.90871 -4.94023 7.72785 0
M  V30 80 O 7.85271 -5.18726 6.91205 0
M  V30 81 C 10.1267 -4.69597 6.85231 0
M  V30 82 O 10.8647 -5.83832 6.51337 0
M  V30 83 C 9.45771 -3.96706 5.66633 0
M  V30 84 O 10.2567 -4.15414 4.49689 0
M  V30 85 C 8.12071 -4.66153 5.59313 0
M  V30 86 H 8.15271 -5.47679 4.85214 0
M  V30 87 H 9.33571 -2.89008 5.86566 0
M  V30 88 H 10.8197 -4.0121 7.36511 0
M  V30 89 H 9.12571 -5.80182 8.37584 0
M  V30 90 H 8.93571 -3.73517 9.52265 0
M  V30 91 H 7.30571 -3.97163 8.80359 0
M  V30 92 H 9.94471 -4.90969 4.01921 0
M  V30 93 P 11.8023 -5.75688 6.64379 0
M  V30 94 O 13.2243 -6.11849 7.01846 0
M  V30 95 O 11.4423 -4.30744 6.56026 0
M  V30 96 O 11.4793 -6.37042 5.19165 0
M  V30 97 C 11.3193 -7.83578 5.16515 0
M  V30 98 C 11.8593 -8.33398 3.83019 0
M  V30 99 O 10.8033 -8.10074 3.01034 0
M  V30 100 C 13.0773 -7.65514 3.2257 0
M  V30 101 O 13.8153 -8.4329 2.32297 0
M  V30 102 C 12.4083 -6.40075 2.62207 0
M  V30 103 O 13.2073 -5.92589 1.53712 0
M  V30 104 C 11.0713 -6.9454 2.18503 0
M  V30 105 H 11.1033 -7.23063 1.12091 0
M  V30 106 H 12.2863 -5.6025 3.37201 0
M  V30 107 H 13.7703 -7.35707 4.02681 0
M  V30 108 H 12.0763 -9.40912 3.9095 0
M  V30 109 H 11.8863 -8.29056 5.99158 0
M  V30 110 H 10.2563 -8.10073 5.25882 0
M  V30 111 H 12.8953 -6.30324 0.726794 0
M  V30 112 P 14.7528 -8.4349 2.47671 0
M  V30 113 O 16.1748 -8.94167 2.5964 0
M  V30 114 O 14.3928 -7.1704 3.19006 0
M  V30 115 O 14.4298 -8.16596 0.923387 0
M  V30 116 C 14.2698 -9.38437 0.108857 0
M  V30 117 C 14.8098 -9.08175 -1.28353 0
M  V30 118 O 13.7538 -8.44229 -1.84713 0
M  V30 119 C 16.0278 -8.18386 -1.42505 0
M  V30 120 O 16.7659 -8.3501 -2.60497 0
M  V30 121 C 15.3588 -6.80225 -1.25468 0
M  V30 122 O 16.1578 -5.81621 -1.91066 0
M  V30 123 C 14.0218 -7.02416 -1.9168 0
M  V30 124 H 14.0538 -6.6888 -2.96621 0
M  V30 125 H 15.2368 -6.53617 -0.192223 0
M  V30 126 H 16.7208 -8.36622 -0.589963 0
M  V30 127 H 15.0268 -10.0291 -1.79807 0
M  V30 128 H 14.8368 -10.2138 0.558219 0
M  V30 129 H 13.2068 -9.6579 0.0444202 0
M  V30 130 H 15.8458 -5.69556 -2.79637 0
M  V30 131 P 17.7034 -8.4349 -2.47671 0
M  V30 132 O 19.1244 -8.92689 -2.65029 0
M  V30 133 O 17.3434 -7.7568 -1.19296 0
M  V30 134 O 17.3804 -7.36886 -3.63805 0
M  V30 135 C 17.2194 -7.95433 -4.98253 0
M  V30 136 C 17.7604 -6.94612 -5.98974 0
M  V30 137 O 16.7054 -6.10277 -6.11744 0
M  V30 138 C 18.9784 -6.11426 -5.62335 0
M  V30 139 O 19.7164 -5.6162 -6.70584 0
M  V30 140 C 18.3104 -5.04409 -4.73308 0
M  V30 141 O 19.1084 -3.86404 -4.74719 0
M  V30 142 C 16.9724 -4.8728 -5.41006 0
M  V30 143 N 15.9294 -4.65812 -4.42377 0
M  V30 144 C 16.0984 -5.09132 -3.15382 0
M  V30 145 N 15.0714 -4.84021 -2.3716 0
M  V30 146 C 14.1864 -4.18386 -3.20441 0
M  V30 147 C 12.9194 -3.6275 -2.94905 0
M  V30 148 N 12.3204 -3.65794 -1.73372 0
M  V30 149 N 12.3544 -3.05008 -4.05243 0
M  V30 150 C 12.9564 -2.98348 -5.28159 0
M  V30 151 N 14.1334 -3.48171 -5.56333 0
M  V30 152 C 14.7084 -4.06869 -4.47212 0
M  V30 153 H 17.0044 -4.02278 -6.11074 0
M  V30 154 H 18.1874 -5.39013 -3.70026 0
M  V30 155 H 19.6704 -6.71916 -5.01943 0
M  V30 156 H 17.9764 -7.45796 -6.94223 0
M  V30 157 H 17.7864 -8.89416 -5.05237 0
M  V30 158 H 16.1564 -8.14876 -5.18409 0
M  V30 159 H 12.4204 -2.47853 -6.07807 0
M  V30 160 H 16.9984 -5.59989 -2.81362 0
M  V30 161 H 11.3904 -3.23218 -1.60782 0
M  V30 162 H 12.7944 -4.10523 -0.937856 0
M  V30 163 H 18.7964 -3.27906 -5.43085 0
M  V30 164 P 20.654 -5.75688 -6.64379 0
M  V30 165 O 22.076 -6.07627 -7.05504 0
M  V30 166 O 20.294 -5.88047 -5.19722 0
M  V30 167 O 20.331 -4.2322 -7.04443 0
M  V30 168 C 20.171 -3.99743 -8.4911 0
M  V30 169 C 20.711 -2.60516 -8.79425 0
M  V30 170 O 19.655 -1.82684 -8.4467 0
M  V30 171 C 21.929 -2.10343 -8.03628 0
M  V30 172 O 22.667 -1.09919 -8.67766 0
M  V30 173 C 21.26 -1.68446 -6.70876 0
M  V30 174 O 22.059 -0.678137 -6.08433 0
M  V30 175 C 19.923 -1.17436 -7.18567 0
M  V30 176 H 19.955 -0.0804732 -7.31656 0
M  V30 177 H 21.138 -2.54037 -6.02537 0
M  V30 178 H 22.622 -2.93881 -7.85526 0
M  V30 179 H 20.928 -2.53065 -9.86973 0
M  V30 180 H 20.738 -4.75072 -9.05887 0
M  V30 181 H 19.108 -4.05244 -8.76668 0
M  V30 182 H 21.747 0.177647 -6.34251 0
M  V30 183 P 23.6046 -1.25109 -8.70152 0
M  V30 184 O 25.0256 -1.29758 -9.22115 0
M  V30 185 O 23.2446 -2.13714 -7.55141 0
M  V30 186 O 23.2816 0.248149 -8.21425 0
M  V30 187 C 23.1206 1.22792 -9.30533 0
M  V30 188 C 23.6616 2.56293 -8.80664 0
M  V30 189 O 22.6066 3.02944 -8.09255 0
M  V30 190 C 24.8796 2.57523 -7.89775 0
M  V30 191 O 25.6176 3.7668 -7.89438 0
M  V30 192 C 24.2116 2.20997 -6.55446 0
M  V30 193 O 25.0096 2.71302 -5.48691 0
M  V30 194 C 22.8736 2.89693 -6.67988 0
M  V30 195 N 21.8306 2.08895 -6.07487 0
M  V30 196 C 21.9996 0.753809 -5.94137 0
M  V30 197 N 20.9726 0.146592 -5.38801 0
M  V30 198 C 20.0876 1.1768 -5.13693 0
M  V30 199 C 18.8206 1.17563 -4.52477 0
M  V30 200 N 18.2556 2.41918 -4.45789 0
M  V30 201 C 18.8576 3.56493 -4.90792 0
M  V30 202 N 20.0346 3.61423 -5.47817 0
M  V30 203 C 20.6096 2.37779 -5.5588 0
M  V30 204 H 24.0886 1.12673 -6.44018 0
M  V30 205 H 25.5716 1.7746 -8.19711 0
M  V30 206 H 23.8776 3.21673 -9.66791 0
M  V30 207 H 23.6876 0.901032 -10.1892 0
M  V30 208 H 22.0576 1.33049 -9.56592 0
M  V30 209 H 22.8996 0.233081 -6.26266 0
M  V30 210 H 24.6976 3.5779 -5.23879 0
M  V30 211 P 26.5551 3.65191 -7.99657 0
M  V30 212 O 27.9771 3.89416 -8.45976 0
M  V30 213 O 26.1951 2.28472 -7.50807 0
M  V30 214 O 26.2321 4.64972 -6.77611 0
M  V30 215 C 26.0721 6.06319 -7.16352 0
M  V30 216 C 26.6121 6.91655 -6.02234 0
M  V30 217 O 25.5571 6.92449 -5.17064 0
M  V30 218 C 27.8301 6.43627 -5.25174 0
M  V30 219 O 28.5681 7.43686 -4.60469 0
M  V30 220 C 27.1621 5.40275 -4.31916 0
M  V30 221 O 27.9601 5.25193 -3.14386 0
M  V30 222 C 25.8241 6.04847 -4.05327 0
M  V30 223 N 24.7811 5.04166 -3.98114 0
M  V30 224 C 24.8431 3.96049 -4.75587 0
M  V30 225 N 23.7981 3.15559 -4.54006 0
M  V30 226 C 23.0641 3.78802 -3.62491 0
M  V30 227 C 21.7581 3.476 -3.10071 0
M  V30 228 O 21.0251 2.51136 -3.37021 0
M  V30 229 N 21.3281 4.39088 -2.19956 0
M  V30 230 C 22.0771 5.53215 -1.81733 0
M  V30 231 N 21.4801 6.31963 -0.860928 0
M  V30 232 N 23.2301 5.86688 -2.32562 0
M  V30 233 C 23.6871 4.97525 -3.23407 0
M  V30 234 H 25.8561 6.62195 -3.11261 0
M  V30 235 H 27.0391 4.42488 -4.8131 0
M  V30 236 H 28.5241 5.93051 -5.9305 0
M  V30 237 H 26.8291 7.92655 -6.402 0
M  V30 238 H 26.6391 6.26671 -8.0846 0
M  V30 239 H 25.0081 6.29101 -7.32804 0
M  V30 240 H 20.4321 4.25523 -1.77604 0
M  V30 241 H 25.6391 3.75576 -5.47333 0
M  V30 242 H 20.5691 6.04684 -0.468946 0
M  V30 243 H 21.9451 7.18054 -0.542422 0
M  V30 244 H 27.6491 5.84223 -2.47279 0
M  V30 245 P 29.5057 7.39546 -4.75277 0
M  V30 246 O 30.9277 7.84798 -5.01039 0
M  V30 247 O 29.1457 5.9812 -5.08098 0
M  V30 248 O 29.1827 7.57503 -3.1866 0
M  V30 249 C 29.0227 8.97357 -2.74833 0
M  V30 250 C 29.5627 9.07548 -1.32709 0
M  V30 251 O 28.5067 8.62072 -0.606159 0
M  V30 252 C 30.7807 8.25383 -0.938334 0
M  V30 253 O 31.5187 8.74577 0.146954 0
M  V30 254 C 30.1117 6.8802 -0.712559 0
M  V30 255 O 30.9107 6.1189 0.194655 0
M  V30 256 C 28.7747 7.27966 -0.139777 0
M  V30 257 H 28.8067 7.25354 0.961601 0
M  V30 258 H 29.9897 6.32557 -1.65702 0
M  V30 259 H 31.4737 8.19355 -1.79097 0
M  V30 260 H 29.7797 10.1294 -1.10029 0
M  V30 261 H 29.5897 9.64276 -3.41316 0
M  V30 262 H 27.9597 9.25417 -2.76357 0
M  V30 263 H 30.5987 6.25267 1.07847 0
M  V30 264 P 32.4563 8.791 -9.96115e-15 0
M  V30 265 O 33.8783 9.31096 0.027933 0
M  V30 266 O 32.0963 7.77869 -1.04071 0
M  V30 267 O 32.1333 8.09533 1.41463 0
M  V30 268 C 31.9733 9.0349 2.53943 0
M  V30 269 C 32.5133 8.35226 3.79016 0
M  V30 270 O 31.4573 7.57992 4.15078 0
M  V30 271 C 33.7313 7.45087 3.67298 0
M  V30 272 O 34.4693 7.27796 4.85194 0
M  V30 273 C 33.0623 6.17323 3.12027 0
M  V30 274 O 33.8613 5.04231 3.47188 0
M  V30 275 C 31.7253 6.19961 3.81809 0
M  V30 276 H 31.7573 5.58218 4.73051 0
M  V30 277 H 32.9403 6.21726 2.02589 0
M  V30 278 H 34.4243 7.86112 2.9231 0
M  V30 279 H 32.7303 9.11627 4.55076 0
M  V30 280 H 32.5403 9.9573 2.34194 0
M  V30 281 H 30.9103 9.2792 2.67832 0
M  V30 282 H 33.5493 4.67702 4.28772 0
M  V30 283 P 35.4068 7.39546 4.75277 0
M  V30 284 O 36.8288 7.81777 5.05738 0
M  V30 285 O 35.0468 7.1065 3.32998 0
M  V30 286 O 35.0838 6.04542 5.56673 0
M  V30 287 C 34.9238 6.22772 7.02095 0
M  V30 288 C 35.4638 4.97725 7.70406 0
M  V30 289 O 34.4078 4.13256 7.58987 0
M  V30 290 C 36.6818 4.28231 7.11815 0
M  V30 291 O 37.4198 3.49945 8.01648 0
M  V30 292 C 36.0128 3.5063 5.96244 0
M  V30 293 O 36.8118 2.36482 5.64681 0
M  V30 294 C 34.6758 3.15122 6.56374 0
M  V30 295 H 34.7078 2.13853 6.99751 0
M  V30 296 H 35.8908 4.13501 5.06559 0
M  V30 297 H 37.3748 5.03285 6.70911 0
M  V30 298 H 35.6808 5.20877 8.75697 0
M  V30 299 H 35.4908 7.11046 7.35349 0
M  V30 300 H 33.8608 6.35815 7.26986 0
M  V30 301 H 36.4998 1.61644 6.13565 0
M  V30 302 P 38.3574 3.65191 7.99657 0
M  V30 303 O 39.7584 3.90823 8.51272 0
M  V30 304 O 37.9794 4.23191 6.66972 0
M  V30 305 O 38.0344 2.07587 7.95046 0
M  V30 306 C 37.8744 1.44328 9.27336 0
M  V30 307 C 38.4144 0.0220012 9.17097 0
M  V30 308 O 37.3584 -0.626794 8.61824 0
M  V30 309 C 39.6314 -0.24586 8.30336 0
M  V30 310 O 40.3704 -1.39011 8.63583 0
M  V30 311 C 38.9644 -0.273849 6.91158 0
M  V30 312 O 39.7624 -1.06331 6.02794 0
M  V30 313 C 37.6264 -0.897649 7.22545 0
M  V30 314 N 36.5834 -0.292839 6.41732 0
M  V30 315 C 35.5484 -1.08701 5.98712 0
M  V30 316 O 35.5874 -2.31211 6.24471 0
M  V30 317 N 34.5364 -0.533391 5.28415 0
M  V30 318 C 34.5844 0.770866 4.98576 0
M  V30 319 C 35.6804 1.59049 5.38086 0
M  V30 320 C 36.6464 1.01866 6.10256 0
M  V30 321 H 37.6584 -1.98383 7.04189 0
M  V30 322 H 38.8414 0.733318 6.49674 0
M  V30 323 H 40.3254 0.598386 8.36663 0
M  V30 324 H 38.6314 -0.362662 10.1825 0
M  V30 325 H 38.4404 2.00611 10.0304 0
M  V30 326 H 36.8104 1.41828 9.55228 0
M  V30 327 H 35.7284 2.6415 5.10622 0
M  V30 328 H 37.4924 1.61983 6.44042 0
M  V30 329 H 39.5464 -1.97777 6.14035 0
M  V30 330 P 41.308 -1.25109 8.70152 0
M  V30 331 O 42.73 -1.35274 9.21221 0
M  V30 332 O 40.948 -0.0769065 7.84762 0
M  V30 333 O 40.985 -2.55232 7.81161 0
M  V30 334 C 40.825 -3.79939 8.58154 0
M  V30 335 C 41.365 -4.94023 7.72785 0
M  V30 336 O 40.309 -5.18726 6.91205 0
M  V30 337 C 42.583 -4.69597 6.85231 0
M  V30 338 O 43.321 -5.83832 6.51337 0
M  V30 339 C 41.914 -3.96706 5.66633 0
M  V30 340 O 42.713 -4.15414 4.49689 0
M  V30 341 C 40.577 -4.66153 5.59313 0
M  V30 342 H 40.609 -5.47679 4.85214 0
M  V30 343 H 41.792 -2.89008 5.86566 0
M  V30 344 H 43.276 -4.0121 7.36511 0
M  V30 345 H 41.582 -5.80182 8.37584 0
M  V30 346 H 41.392 -3.73517 9.52265 0
M  V30 347 H 39.762 -3.97163 8.80359 0
M  V30 348 H 42.401 -4.90969 4.01921 0
M  V30 349 P 44.2585 -5.75688 6.64379 0
M  V30 350 O 45.6805 -6.11849 7.01846 0
M  V30 351 O 43.8985 -4.30744 6.56026 0
M  V30 352 O 43.9355 -6.37042 5.19165 0
M  V30 353 C 43.7755 -7.83578 5.16515 0
M  V30 354 C 44.3155 -8.33398 3.83019 0
M  V30 355 O 43.2595 -8.10074 3.01034 0
M  V30 356 C 45.5335 -7.65514 3.2257 0
M  V30 357 O 46.2715 -8.4329 2.32297 0
M  V30 358 C 44.8645 -6.40075 2.62207 0
M  V30 359 O 45.6635 -5.92589 1.53712 0
M  V30 360 C 43.5275 -6.9454 2.18503 0
M  V30 361 H 43.5595 -7.23063 1.12091 0
M  V30 362 H 44.7425 -5.6025 3.37201 0
M  V30 363 H 46.2265 -7.35707 4.02681 0
M  V30 364 H 44.5325 -9.40912 3.9095 0
M  V30 365 H 44.3425 -8.29056 5.99158 0
M  V30 366 H 42.7125 -8.10073 5.25882 0
M  V30 367 H 45.3515 -6.30324 0.726794 0
M  V30 368 P 47.2091 -8.4349 2.47671 0
M  V30 369 O 48.6311 -8.94359 2.59696 0
M  V30 370 O 46.8491 -7.1704 3.19006 0
M  V30 371 O 46.8861 -8.16596 0.923387 0
M  V30 372 C 46.7261 -9.38437 0.108857 0
M  V30 373 C 47.2661 -9.08076 -1.28339 0
M  V30 374 O 46.2111 -8.44229 -1.84713 0
M  V30 375 C 48.4841 -8.18386 -1.42505 0
M  V30 376 O 49.2221 -8.3501 -2.60497 0
M  V30 377 C 47.8161 -6.80225 -1.25468 0
M  V30 378 O 48.6141 -5.81526 -1.91035 0
M  V30 379 C 46.4781 -7.02416 -1.9168 0
M  V30 380 N 45.4351 -6.31033 -1.20314 0
M  V30 381 C 45.4971 -6.18781 0.121293 0
M  V30 382 N 44.4521 -5.49762 0.588272 0
M  V30 383 C 43.7181 -5.22015 -0.488988 0
M  V30 384 C 42.4121 -4.61966 -0.596448 0
M  V30 385 O 41.6791 -4.19162 0.309059 0
M  V30 386 N 41.9821 -4.53773 -1.878 0
M  V30 387 C 42.7311 -4.99623 -2.99082 0
M  V30 388 N 42.1341 -4.78912 -4.21227 0
M  V30 389 N 43.8841 -5.59957 -2.91093 0
M  V30 390 C 44.3411 -5.70225 -1.64218 0
M  V30 391 H 46.5101 -6.6888 -2.96621 0
M  V30 392 H 47.6931 -6.53517 -0.192194 0
M  V30 393 H 49.1781 -8.36563 -0.598329 0
M  V30 394 H 47.4831 -10.0291 -1.79807 0
M  V30 395 H 47.2931 -10.2138 0.558219 0
M  V30 396 H 45.6621 -9.6579 0.0444202 0
M  V30 397 H 41.0861 -4.12883 -2.05283 0
M  V30 398 H 46.2931 -6.59596 0.745856 0
M  V30 399 H 41.2231 -4.31425 -4.2628 0
M  V30 400 H 42.5991 -5.11219 -5.07148 0
M  V30 401 H 48.3031 -5.69466 -2.79593 0
M  V30 402 P 50.1597 -8.4349 -2.47671 0
M  V30 403 O 51.5817 -8.92593 -2.65 0
M  V30 404 O 49.7997 -7.7568 -1.19296 0
M  V30 405 O 49.8367 -7.36886 -3.63805 0
M  V30 406 C 49.6767 -7.95349 -4.982 0
M  V30 407 C 50.2167 -6.94612 -5.98974 0
M  V30 408 O 49.1607 -6.10347 -6.11815 0
M  V30 409 C 51.4347 -6.11426 -5.62335 0
M  V30 410 O 52.1727 -5.6162 -6.70584 0
M  V30 411 C 50.7657 -5.04409 -4.73308 0
M  V30 412 O 51.5647 -3.85992 -4.75183 0
M  V30 413 C 49.4287 -4.8728 -5.41006 0
M  V30 414 H 49.4607 -4.02333 -6.11157 0
M  V30 415 H 50.6437 -5.39466 -3.69543 0
M  V30 416 H 52.1277 -6.71916 -5.01943 0
M  V30 417 H 50.4337 -7.4649 -6.93477 0
M  V30 418 H 50.2437 -8.89416 -5.05237 0
M  V30 419 H 48.6137 -8.14876 -5.18409 0
M  V30 420 H 51.2527 -3.27957 -5.4317 0
M  V30 421 P 53.1103 -5.75688 -6.64379 0
M  V30 422 O 54.5323 -6.07627 -7.05504 0
M  V30 423 O 52.7503 -5.88047 -5.19722 0
M  V30 424 O 52.7873 -4.2322 -7.04443 0
M  V30 425 C 52.6273 -3.99743 -8.4911 0
M  V30 426 C 53.1673 -2.60516 -8.79425 0
M  V30 427 O 52.1113 -1.82684 -8.4467 0
M  V30 428 C 54.3853 -2.10343 -8.03628 0
M  V30 429 O 55.1233 -1.09919 -8.67766 0
M  V30 430 C 53.7163 -1.68446 -6.70876 0
M  V30 431 O 54.5153 -0.678137 -6.08433 0
M  V30 432 C 52.3793 -1.17436 -7.18567 0
M  V30 433 H 52.4113 -0.0804732 -7.31656 0
M  V30 434 H 53.5943 -2.54037 -6.02537 0
M  V30 435 H 55.0783 -2.93881 -7.85526 0
M  V30 436 H 53.3843 -2.53065 -9.86973 0
M  V30 437 H 53.1943 -4.75072 -9.05887 0
M  V30 438 H 51.5643 -4.05244 -8.76668 0
M  V30 439 H 54.2033 0.177647 -6.34251 0
M  V30 440 P 56.0608 -1.25109 -8.70152 0
M  V30 441 O 57.4818 -1.29758 -9.22115 0
M  V30 442 O 55.7008 -2.13714 -7.55141 0
M  V30 443 O 55.7378 0.248149 -8.21425 0
M  V30 444 C 55.5768 1.22792 -9.30533 0
M  V30 445 C 56.1178 2.56293 -8.80664 0
M  V30 446 O 55.0628 3.02944 -8.09255 0
M  V30 447 C 57.3358 2.57523 -7.89775 0
M  V30 448 O 58.0738 3.7668 -7.89438 0
M  V30 449 C 56.6678 2.20997 -6.55446 0
M  V30 450 O 57.4658 2.71302 -5.48691 0
M  V30 451 C 55.3298 2.89693 -6.67988 0
M  V30 452 N 54.2868 2.08895 -6.07487 0
M  V30 453 C 54.4558 0.753809 -5.94137 0
M  V30 454 N 53.4288 0.146592 -5.38801 0
M  V30 455 C 52.5438 1.1768 -5.13693 0
M  V30 456 C 51.2768 1.17563 -4.52477 0
M  V30 457 N 50.6778 0.057481 -4.04759 0
M  V30 458 N 50.7118 2.41918 -4.45789 0
M  V30 459 C 51.3138 3.56493 -4.90792 0
M  V30 460 N 52.4908 3.61423 -5.47817 0
M  V30 461 C 53.0658 2.37779 -5.5588 0
M  V30 462 H 55.3618 3.8874 -6.19774 0
M  V30 463 H 56.5448 1.12673 -6.44018 0
M  V30 464 H 58.0278 1.7746 -8.19711 0
M  V30 465 H 56.3338 3.21673 -9.66791 0
M  V30 466 H 56.1438 0.901032 -10.1892 0
M  V30 467 H 54.5138 1.33049 -9.56592 0
M  V30 468 H 50.7778 4.49919 -4.77947 0
M  V30 469 H 55.3558 0.233081 -6.26266 0
M  V30 470 H 49.7478 0.119831 -3.60801 0
M  V30 471 H 51.1518 -0.852272 -4.12385 0
M  V30 472 H 57.1538 3.5779 -5.23879 0
M  V30 473 P 59.0114 3.65191 -7.99657 0
M  V30 474 O 60.4334 3.89332 -8.45794 0
M  V30 475 O 58.6514 2.28472 -7.50807 0
M  V30 476 O 58.6884 4.64972 -6.77611 0
M  V30 477 C 58.5284 6.06319 -7.16352 0
M  V30 478 C 59.0684 6.91731 -6.02299 0
M  V30 479 O 58.0124 6.92449 -5.17064 0
M  V30 480 C 60.2864 6.43627 -5.25174 0
M  V30 481 O 61.0244 7.43686 -4.60469 0
M  V30 482 C 59.6174 5.40275 -4.31916 0
M  V30 483 O 60.4164 5.25279 -3.14438 0
M  V30 484 C 58.2804 6.04847 -4.05327 0
M  V30 485 H 58.3124 6.62195 -3.11261 0
M  V30 486 H 59.4954 4.42556 -4.81383 0
M  V30 487 H 60.9794 5.92458 -5.93643 0
M  V30 488 H 59.2854 7.92655 -6.402 0
M  V30 489 H 59.0954 6.26671 -8.0846 0
M  V30 490 H 57.4654 6.29101 -7.32804 0
M  V30 491 H 60.1044 5.84315 -2.47318 0
M  V30 492 P 61.962 7.39546 -4.75277 0
M  V30 493 O 63.384 7.84798 -5.01039 0
M  V30 494 O 61.602 5.9812 -5.08098 0
M  V30 495 O 61.639 7.57503 -3.1866 0
M  V30 496 C 61.479 8.97357 -2.74833 0
M  V30 497 C 62.019 9.07548 -1.32709 0
M  V30 498 O 60.963 8.62072 -0.606159 0
M  V30 499 C 63.237 8.25383 -0.938334 0
M  V30 500 O 63.975 8.74577 0.146954 0
M  V30 501 C 62.568 6.8802 -0.712559 0
M  V30 502 O 63.367 6.1189 0.194655 0
M  V30 503 C 61.231 7.27966 -0.139777 0
M  V30 504 H 61.263 7.25354 0.961601 0
M  V30 505 H 62.446 6.32557 -1.65702 0
M  V30 506 H 63.93 8.19355 -1.79097 0
M  V30 507 H 62.236 10.1294 -1.10029 0
M  V30 508 H 62.046 9.64276 -3.41316 0
M  V30 509 H 60.416 9.25417 -2.76357 0
M  V30 510 H 63.055 6.25267 1.07847 0
M  V30 511 P 64.9125 8.791 -3.55383e-14 0
M  V30 512 O 66.3345 9.31096 0.027933 0
M  V30 513 O 64.5525 7.77869 -1.04071 0
M  V30 514 O 64.5895 8.09533 1.41463 0
M  V30 515 C 64.4295 9.0349 2.53943 0
M  V30 516 C 64.9695 8.35226 3.79016 0
M  V30 517 O 63.9135 7.57992 4.15078 0
M  V30 518 C 66.1875 7.45087 3.67298 0
M  V30 519 O 66.9255 7.27796 4.85194 0
M  V30 520 C 65.5185 6.17323 3.12027 0
M  V30 521 O 66.3175 5.04231 3.47188 0
M  V30 522 C 64.1815 6.19961 3.81809 0
M  V30 523 H 64.2135 5.58218 4.73051 0
M  V30 524 H 65.3965 6.21726 2.02589 0
M  V30 525 H 66.8805 7.86112 2.9231 0
M  V30 526 H 65.1865 9.11627 4.55076 0
M  V30 527 H 64.9965 9.9573 2.34194 0
M  V30 528 H 63.3665 9.2792 2.67832 0
M  V30 529 H 66.0055 4.67702 4.28772 0
M  V30 530 P 67.8631 7.39546 4.75277 0
M  V30 531 O 69.2841 7.81861 5.05793 0
M  V30 532 O 67.5031 7.1065 3.32998 0
M  V30 533 O 67.5401 6.04542 5.56673 0
M  V30 534 C 67.3791 6.22839 7.02169 0
M  V30 535 C 67.9201 4.97725 7.70406 0
M  V30 536 O 66.8651 4.13208 7.58899 0
M  V30 537 C 69.1381 4.28231 7.11815 0
M  V30 538 O 69.8761 3.49945 8.01648 0
M  V30 539 C 68.4701 3.5063 5.96244 0
M  V30 540 O 69.2681 2.37008 5.64352 0
M  V30 541 C 67.1321 3.15122 6.56374 0
M  V30 542 N 66.0891 3.22311 5.55692 0
M  V30 543 C 66.2581 3.99655 4.46046 0
M  V30 544 N 65.2311 3.97599 3.63918 0
M  V30 545 C 64.3461 3.11159 4.25334 0
M  V30 546 C 63.0791 2.64972 3.85157 0
M  V30 547 N 62.5141 1.78482 4.74759 0
M  V30 548 C 63.1161 1.37463 5.90819 0
M  V30 549 N 64.2931 1.7733 6.31889 0
M  V30 550 C 64.8681 2.64393 5.43725 0
M  V30 551 H 68.3471 4.12931 5.06895 0
M  V30 552 H 69.8301 5.03285 6.70911 0
M  V30 553 H 68.1361 5.20001 8.76217 0
M  V30 554 H 67.9461 7.11046 7.35349 0
M  V30 555 H 66.3161 6.35815 7.26986 0
M  V30 556 H 67.1581 4.58037 4.27732 0
M  V30 557 H 68.9561 1.61619 6.13468 0
M  V30 558 P 70.8137 3.65191 7.99657 0
M  V30 559 O 72.2357 3.8425 8.48115 0
M  V30 560 O 70.4537 4.17805 6.64342 0
M  V30 561 O 70.4907 2.07613 7.95143 0
M  V30 562 C 70.3307 1.44328 9.27336 0
M  V30 563 C 70.8707 0.0220036 9.17197 0
M  V30 564 O 69.8147 -0.626867 8.61923 0
M  V30 565 C 72.0887 -0.24586 8.30336 0
M  V30 566 O 72.8267 -1.39011 8.63583 0
M  V30 567 C 71.4197 -0.273849 6.91158 0
M  V30 568 O 72.2187 -1.06348 6.02892 0
M  V30 569 C 70.0827 -0.897649 7.22545 0
M  V30 570 H 70.1147 -1.9841 7.04286 0
M  V30 571 H 71.2977 0.739928 6.497 0
M  V30 572 H 72.7817 0.60668 8.36503 0
M  V30 573 H 71.0877 -0.352479 10.1829 0
M  V30 574 H 70.8977 2.00611 10.0304 0
M  V30 575 H 69.2677 1.41843 9.55327 0
M  V30 576 H 71.9067 -1.95734 6.03555 0
M  V30 577 P 73.7642 -1.25109 8.70152 0
M  V30 578 O 75.1862 -1.35274 9.21221 0
M  V30 579 O 73.4042 -0.0769065 7.84762 0
M  V30 580 O 73.4412 -2.55232 7.81161 0
M  V30 581 C 73.2812 -3.79939 8.58154 0
M  V30 582 C 73.8212 -4.94023 7.72785 0
M  V30 583 O 72.7652 -5.18726 6.91205 0
M  V30 584 C 75.0392 -4.69597 6.85231 0
M  V30 585 O 75.7772 -5.83832 6.51337 0
M  V30 586 C 74.3702 -3.96706 5.66633 0
M  V30 587 O 75.1692 -4.15414 4.49689 0
M  V30 588 C 73.0332 -4.66153 5.59313 0
M  V30 589 H 73.0652 -5.47679 4.85214 0
M  V30 590 H 74.2482 -2.89008 5.86566 0
M  V30 591 H 75.7322 -4.0121 7.36511 0
M  V30 592 H 74.0382 -5.80182 8.37584 0
M  V30 593 H 73.8482 -3.73517 9.52265 0
M  V30 594 H 72.2182 -3.97163 8.80359 0
M  V30 595 H 74.8572 -4.90969 4.01921 0
M  V30 596 P 76.7148 -5.75688 6.64379 0
M  V30 597 O 78.1368 -6.11981 7.01997 0
M  V30 598 O 76.3548 -4.30744 6.56026 0
M  V30 599 O 76.3918 -6.37042 5.19165 0
M  V30 600 C 76.2318 -7.83578 5.16515 0
M  V30 601 C 76.7718 -8.33307 3.82977 0
M  V30 602 O 75.7168 -8.10074 3.01034 0
M  V30 603 C 77.9898 -7.65514 3.2257 0
M  V30 604 O 78.7278 -8.4329 2.32297 0
M  V30 605 C 77.3218 -6.40075 2.62207 0
M  V30 606 O 78.1198 -5.92492 1.53687 0
M  V30 607 C 75.9838 -6.9454 2.18503 0
M  V30 608 N 74.9408 -5.95905 2.39948 0
M  V30 609 C 75.0028 -5.13994 3.44742 0
M  V30 610 N 73.9578 -4.30684 3.46712 0
M  V30 611 C 73.2238 -4.65583 2.41086 0
M  V30 612 C 71.9178 -4.20877 1.99581 0
M  V30 613 O 71.1848 -3.35913 2.52616 0
M  V30 614 N 71.4878 -4.83271 0.873406 0
M  V30 615 C 72.2368 -5.82006 0.185129 0
M  V30 616 N 71.6398 -6.30619 -0.95439 0
M  V30 617 N 73.3898 -6.28443 0.578524 0
M  V30 618 C 73.8468 -5.68486 1.70138 0
M  V30 619 H 76.0158 -7.23063 1.12091 0
M  V30 620 H 77.1988 -5.60165 3.3715 0
M  V30 621 H 78.6838 -7.3611 4.01946 0
M  V30 622 H 76.9888 -9.40912 3.9095 0
M  V30 623 H 76.7988 -8.29056 5.99158 0
M  V30 624 H 75.1678 -8.10073 5.25882 0
M  V30 625 H 70.5918 -4.58323 0.505262 0
M  V30 626 H 75.7988 -5.14564 4.1935 0
M  V30 627 H 70.7288 -5.93402 -1.25364 0
M  V30 628 H 72.1048 -7.0425 -1.50254 0
M  V30 629 H 77.8088 -6.30224 0.72668 0
M  V30 630 P 79.6654 -8.4349 2.47671 0
M  V30 631 O 81.0874 -8.94167 2.5964 0
M  V30 632 O 79.3054 -7.1704 3.19006 0
M  V30 633 O 79.3424 -8.16596 0.923387 0
M  V30 634 C 79.1824 -9.38437 0.108857 0
M  V30 635 C 79.7224 -9.08175 -1.28353 0
M  V30 636 O 78.6664 -8.44229 -1.84713 0
M  V30 637 C 80.9404 -8.18386 -1.42505 0
M  V30 638 O 81.6784 -8.3501 -2.60497 0
M  V30 639 C 80.2714 -6.80225 -1.25468 0
M  V30 640 O 81.0704 -5.81621 -1.91066 0
M  V30 641 C 78.9344 -7.02416 -1.9168 0
M  V30 642 H 78.9664 -6.6888 -2.96621 0
M  V30 643 H 80.1494 -6.53617 -0.192223 0
M  V30 644 H 81.6334 -8.36622 -0.589963 0
M  V30 645 H 79.9394 -10.0291 -1.79807 0
M  V30 646 H 79.7494 -10.2138 0.558219 0
M  V30 647 H 78.1194 -9.6579 0.0444202 0
M  V30 648 H 80.7584 -5.69556 -2.79637 0
M  V30 649 P 82.616 -8.4349 -2.47671 0
M  V30 650 O 84.038 -8.92593 -2.65 0
M  V30 651 O 82.256 -7.7568 -1.19296 0
M  V30 652 O 82.293 -7.36886 -3.63805 0
M  V30 653 C 82.133 -7.95349 -4.982 0
M  V30 654 C 82.673 -6.94612 -5.98974 0
M  V30 655 O 81.617 -6.10347 -6.11815 0
M  V30 656 C 83.891 -6.11426 -5.62335 0
M  V30 657 O 84.629 -5.6162 -6.70584 0
M  V30 658 C 83.222 -5.04409 -4.73308 0
M  V30 659 O 84.021 -3.85992 -4.75183 0
M  V30 660 C 81.885 -4.8728 -5.41006 0
M  V30 661 H 81.917 -4.02333 -6.11157 0
M  V30 662 H 83.1 -5.39466 -3.69543 0
M  V30 663 H 84.584 -6.71916 -5.01943 0
M  V30 664 H 82.89 -7.4649 -6.93477 0
M  V30 665 H 82.7 -8.89416 -5.05237 0
M  V30 666 H 81.07 -8.14876 -5.18409 0
M  V30 667 H 83.709 -3.27957 -5.4317 0
M  V30 668 P 85.5665 -5.75688 -6.64379 0
M  V30 669 O 86.9885 -6.07627 -7.05504 0
M  V30 670 O 85.2065 -5.88047 -5.19722 0
M  V30 671 O 85.2435 -4.2322 -7.04443 0
M  V30 672 C 85.0835 -3.99743 -8.4911 0
M  V30 673 C 85.6235 -2.60516 -8.79425 0
M  V30 674 O 84.5675 -1.82684 -8.4467 0
M  V30 675 C 86.8415 -2.10343 -8.03628 0
M  V30 676 O 87.5795 -1.09919 -8.67766 0
M  V30 677 C 86.1725 -1.68446 -6.70876 0
M  V30 678 O 86.9715 -0.678137 -6.08433 0
M  V30 679 C 84.8355 -1.17436 -7.18567 0
M  V30 680 H 84.8675 -0.0804732 -7.31656 0
M  V30 681 H 86.0505 -2.54037 -6.02537 0
M  V30 682 H 87.5345 -2.93881 -7.85526 0
M  V30 683 H 85.8405 -2.53065 -9.86973 0
M  V30 684 H 85.6505 -4.75072 -9.05887 0
M  V30 685 H 84.0205 -4.05244 -8.76668 0
M  V30 686 H 86.6595 0.177647 -6.34251 0
M  V30 687 P 88.5171 -1.25109 -8.70152 0
M  V30 688 O 89.9391 -1.29744 -9.22016 0
M  V30 689 O 88.1571 -2.13714 -7.55141 0
M  V30 690 O 88.1941 0.248149 -8.21425 0
M  V30 691 C 88.0341 1.22779 -9.30434 0
M  V30 692 C 88.5741 2.56293 -8.80664 0
M  V30 693 O 87.5181 3.02979 -8.09349 0
M  V30 694 C 89.7921 2.57523 -7.89775 0
M  V30 695 O 90.5301 3.7668 -7.89438 0
M  V30 696 C 89.1231 2.20997 -6.55446 0
M  V30 697 O 89.9221 2.71895 -5.48509 0
M  V30 698 C 87.7861 2.89693 -6.67988 0
M  V30 699 H 87.8181 3.88793 -6.19859 0
M  V30 700 H 89.0011 1.12046 -6.44229 0
M  V30 701 H 90.4851 1.7746 -8.19711 0
M  V30 702 H 88.7911 3.20706 -9.67112 0
M  V30 703 H 88.6011 0.901032 -10.1892 0
M  V30 704 H 86.9711 1.33049 -9.56592 0
M  V30 705 H 89.6101 3.57847 -5.23962 0
M  V30 706 P 91.4677 3.65191 -7.99657 0
M  V30 707 O 92.8897 3.89332 -8.45794 0
M  V30 708 O 91.1077 2.28472 -7.50807 0
M  V30 709 O 91.1447 4.64972 -6.77611 0
M  V30 710 C 90.9847 6.06319 -7.16352 0
M  V30 711 C 91.5247 6.91731 -6.02299 0
M  V30 712 O 90.4687 6.92449 -5.17064 0
M  V30 713 C 92.7427 6.43627 -5.25174 0
M  V30 714 O 93.4807 7.43686 -4.60469 0
M  V30 715 C 92.0737 5.40275 -4.31916 0
M  V30 716 O 92.8727 5.25279 -3.14438 0
M  V30 717 C 90.7367 6.04847 -4.05327 0
M  V30 718 H 90.7687 6.62195 -3.11261 0
M  V30 719 H 91.9517 4.42556 -4.81383 0
M  V30 720 H 93.4357 5.92458 -5.93643 0
M  V30 721 H 91.7417 7.92655 -6.402 0
M  V30 722 H 91.5517 6.26671 -8.0846 0
M  V30 723 H 89.9217 6.29101 -7.32804 0
M  V30 724 H 92.5607 5.84315 -2.47318 0
M  V30 725 P 94.4182 7.39546 -4.75277 0
M  V30 726 O 95.8402 7.84798 -5.01039 0
M  V30 727 O 94.0582 5.9812 -5.08098 0
M  V30 728 O 94.0952 7.57503 -3.1866 0
M  V30 729 C 93.9352 8.97357 -2.74833 0
M  V30 730 C 94.4752 9.07548 -1.32709 0
M  V30 731 O 93.4192 8.62072 -0.606159 0
M  V30 732 C 95.6932 8.25383 -0.938334 0
M  V30 733 O 96.4312 8.74577 0.146954 0
M  V30 734 C 95.0242 6.8802 -0.712559 0
M  V30 735 O 95.8232 6.1189 0.194655 0
M  V30 736 C 93.6872 7.27966 -0.139777 0
M  V30 737 H 93.7192 7.25354 0.961601 0
M  V30 738 H 94.9022 6.32557 -1.65702 0
M  V30 739 H 96.3862 8.19355 -1.79097 0
M  V30 740 H 94.6922 10.1294 -1.10029 0
M  V30 741 H 94.5022 9.64276 -3.41316 0
M  V30 742 H 92.8722 9.25417 -2.76357 0
M  V30 743 H 95.5112 6.25267 1.07847 0
M  V30 744 P 97.3688 8.791 -6.89233e-14 0
M  V30 745 O 98.7908 9.31296 0.027939 0
M  V30 746 O 97.0088 7.77869 -1.04071 0
M  V30 747 O 97.0458 8.09533 1.41463 0
M  V30 748 C 96.8858 9.0349 2.53943 0
M  V30 749 C 97.4258 8.35135 3.78975 0
M  V30 750 O 96.3708 7.57992 4.15078 0
M  V30 751 C 98.6438 7.45087 3.67298 0
M  V30 752 O 99.3818 7.27796 4.85194 0
M  V30 753 C 97.9758 6.17323 3.12027 0
M  V30 754 O 98.7738 5.04149 3.47132 0
M  V30 755 C 96.6378 6.19961 3.81809 0
M  V30 756 N 95.5948 5.71575 2.93223 0
M  V30 757 C 95.6568 5.97133 1.62693 0
M  V30 758 N 94.6118 5.44066 0.984414 0
M  V30 759 C 93.8778 4.87093 1.93987 0
M  V30 760 C 92.5718 4.26449 1.8738 0
M  V30 761 O 91.8388 4.1089 0.884377 0
M  V30 762 N 92.1418 3.82483 3.08036 0
M  V30 763 C 92.8908 3.95124 4.27727 0
M  V30 764 N 92.2938 3.4084 5.39089 0
M  V30 765 N 94.0438 4.55264 4.3706 0
M  V30 766 C 94.5008 5.00861 3.18217 0
M  V30 767 H 96.6698 5.58218 4.73051 0
M  V30 768 H 97.8528 6.21631 2.02558 0
M  V30 769 H 99.3378 7.85819 2.93096 0
M  V30 770 H 97.6428 9.11627 4.55076 0
M  V30 771 H 97.4528 9.9573 2.34194 0
M  V30 772 H 95.8218 9.2792 2.67832 0
M  V30 773 H 91.2458 3.38323 3.1329 0
M  V30 774 H 96.4528 6.53891 1.14265 0
M  V30 775 H 91.3828 2.93852 5.30559 0
M  V30 776 H 92.7588 3.47631 6.30632 0
M  V30 777 H 98.4628 4.67628 4.28704 0
M  V30 778 P 100.319 7.39546 4.75277 0
M  V30 779 O 101.741 7.81777 5.05738 0
M  V30 780 O 99.9594 7.1065 3.32998 0
M  V30 781 O 99.9964 6.04542 5.56673 0
M  V30 782 C 99.8364 6.22772 7.02095 0
M  V30 783 C 100.376 4.97725 7.70406 0
M  V30 784 O 99.3204 4.13256 7.58987 0
M  V30 785 C 101.594 4.28231 7.11815 0
M  V30 786 O 102.332 3.49945 8.01648 0
M  V30 787 C 100.925 3.5063 5.96244 0
M  V30 788 O 101.724 2.36482 5.64681 0
M  V30 789 C 99.5884 3.15122 6.56374 0
M  V30 790 H 99.6204 2.13853 6.99751 0
M  V30 791 H 100.803 4.13501 5.06559 0
M  V30 792 H 102.287 5.03285 6.70911 0
M  V30 793 H 100.593 5.20877 8.75697 0
M  V30 794 H 100.403 7.11046 7.35349 0
M  V30 795 H 98.7734 6.35815 7.26986 0
M  V30 796 H 101.412 1.61644 6.13565 0
M  V30 797 P 103.27 3.65191 7.99657 0
M  V30 798 O 104.671 3.90823 8.51272 0
M  V30 799 O 102.892 4.23191 6.66972 0
M  V30 800 O 102.947 2.07587 7.95046 0
M  V30 801 C 102.787 1.44328 9.27336 0
M  V30 802 C 103.327 0.0220012 9.17097 0
M  V30 803 O 102.271 -0.626794 8.61824 0
M  V30 804 C 104.544 -0.24586 8.30336 0
M  V30 805 O 105.283 -1.39011 8.63583 0
M  V30 806 C 103.877 -0.273849 6.91158 0
M  V30 807 O 104.675 -1.06331 6.02794 0
M  V30 808 C 102.539 -0.897649 7.22545 0
M  V30 809 N 101.496 -0.292839 6.41732 0
M  V30 810 C 100.461 -1.08701 5.98712 0
M  V30 811 O 100.5 -2.31211 6.24471 0
M  V30 812 N 99.4489 -0.533391 5.28415 0
M  V30 813 C 99.4969 0.770866 4.98576 0
M  V30 814 C 100.593 1.59049 5.38086 0
M  V30 815 C 101.559 1.01866 6.10256 0
M  V30 816 H 102.571 -1.98383 7.04189 0
M  V30 817 H 103.754 0.733318 6.49674 0
M  V30 818 H 105.238 0.598386 8.36663 0
M  V30 819 H 103.544 -0.362662 10.1825 0
M  V30 820 H 103.353 2.00611 10.0304 0
M  V30 821 H 101.723 1.41828 9.55228 0
M  V30 822 H 100.641 2.6415 5.10622 0
M  V30 823 H 102.405 1.61983 6.44042 0
M  V30 824 H 104.459 -1.97777 6.14035 0
M  V30 825 P 106.221 -1.25109 8.70152 0
M  V30 826 O 107.643 -1.35303 9.21419 0
M  V30 827 O 105.861 -0.0769065 7.84762 0
M  V30 828 O 105.898 -2.55232 7.81161 0
M  V30 829 C 105.738 -3.79939 8.58154 0
M  V30 830 C 106.278 -4.93969 7.72701 0
M  V30 831 O 105.223 -5.18726 6.91205 0
M  V30 832 C 107.496 -4.69597 6.85231 0
M  V30 833 O 108.234 -5.83832 6.51337 0
M  V30 834 C 106.828 -3.96706 5.66633 0
M  V30 835 O 107.626 -4.15346 4.49615 0
M  V30 836 C 105.49 -4.66153 5.59313 0
M  V30 837 N 104.447 -3.71582 5.24027 0
M  V30 838 C 104.509 -2.46018 5.67902 0
M  V30 839 N 103.464 -1.74868 5.24518 0
M  V30 840 C 102.73 -2.61333 4.54528 0
M  V30 841 C 101.424 -2.46162 3.95441 0
M  V30 842 O 100.691 -1.46013 3.94122 0
M  V30 843 N 100.994 -3.59334 3.34752 0
M  V30 844 C 101.743 -4.79605 3.3023 0
M  V30 845 N 101.146 -5.82109 2.6065 0
M  V30 846 N 102.896 -4.97402 3.8843 0
M  V30 847 C 103.353 -3.86258 4.50476 0
M  V30 848 H 105.522 -5.47679 4.85214 0
M  V30 849 H 106.705 -2.88964 5.86476 0
M  V30 850 H 108.19 -4.01947 7.36109 0
M  V30 851 H 106.495 -5.80182 8.37584 0
M  V30 852 H 106.305 -3.73517 9.52265 0
M  V30 853 H 104.674 -3.97163 8.80359 0
M  V30 854 H 100.098 -3.5825 2.90294 0
M  V30 855 H 105.305 -2.06161 6.30974 0
M  V30 856 H 100.235 -5.66979 2.15354 0
M  V30 857 H 101.611 -6.73686 2.54344 0
M  V30 858 H 107.315 -4.90891 4.01857 0
M  V30 859 P 109.171 -5.75688 6.64379 0
M  V30 860 O 110.572 -6.11991 7.09136 0
M  V30 861 O 108.793 -4.30899 6.62018 0
M  V30 862 O 108.848 -6.36965 5.19102 0
M  V30 863 C 108.688 -7.83578 5.16515 0
M  V30 864 C 109.228 -8.33307 3.82977 0
M  V30 865 O 108.172 -8.0998 3.00999 0
M  V30 866 C 110.445 -7.65514 3.2257 0
M  V30 867 O 111.184 -8.4329 2.32297 0
M  V30 868 C 109.778 -6.40075 2.62207 0
M  V30 869 O 110.576 -5.92492 1.53687 0
M  V30 870 C 108.44 -6.9454 2.18503 0
M  V30 871 N 107.397 -5.95905 2.39948 0
M  V30 872 C 106.362 -5.89764 1.49837 0
M  V30 873 O 106.401 -6.64088 0.490975 0
M  V30 874 N 105.35 -5.02821 1.70992 0
M  V30 875 C 105.398 -4.21498 2.77236 0
M  V30 876 C 106.494 -4.23389 3.68205 0
M  V30 877 C 107.46 -5.12792 3.46171 0
M  V30 878 H 108.472 -7.22964 1.12076 0
M  V30 879 H 109.655 -5.60502 3.36589 0
M  V30 880 H 111.139 -7.36197 4.01993 0
M  V30 881 H 109.445 -9.41302 3.90009 0
M  V30 882 H 109.254 -8.29056 5.99158 0
M  V30 883 H 107.624 -8.09989 5.25828 0
M  V30 884 H 106.542 -3.54747 4.52399 0
M  V30 885 H 108.306 -5.18551 4.1489 0
M  V30 886 H 110.36 -6.40705 0.751752 0
M  V30 887 P 112.122 -8.4349 2.47671 0
M  V30 888 O 113.544 -8.94167 2.5964 0
M  V30 889 O 111.762 -7.1704 3.19006 0
M  V30 890 O 111.799 -8.16596 0.923387 0
M  V30 891 C 111.639 -9.38437 0.108857 0
M  V30 892 C 112.179 -9.08175 -1.28353 0
M  V30 893 O 111.123 -8.44229 -1.84713 0
M  V30 894 C 113.397 -8.18386 -1.42505 0
M  V30 895 O 114.135 -8.3501 -2.60497 0
M  V30 896 C 112.728 -6.80225 -1.25468 0
M  V30 897 O 113.527 -5.81621 -1.91066 0
M  V30 898 C 111.391 -7.02416 -1.9168 0
M  V30 899 H 111.423 -6.6888 -2.96621 0
M  V30 900 H 112.606 -6.53617 -0.192223 0
M  V30 901 H 114.09 -8.36622 -0.589963 0
M  V30 902 H 112.396 -10.0291 -1.79807 0
M  V30 903 H 112.206 -10.2138 0.558219 0
M  V30 904 H 110.576 -9.6579 0.0444202 0
M  V30 905 H 113.215 -5.69556 -2.79637 0
M  V30 906 P 115.072 -8.4349 -2.47671 0
M  V30 907 O 116.494 -8.92593 -2.65 0
M  V30 908 O 114.712 -7.7568 -1.19296 0
M  V30 909 O 114.749 -7.36886 -3.63805 0
M  V30 910 C 114.589 -7.95349 -4.982 0
M  V30 911 C 115.129 -6.94612 -5.98974 0
M  V30 912 O 114.073 -6.10347 -6.11815 0
M  V30 913 C 116.347 -6.11426 -5.62335 0
M  V30 914 O 117.085 -5.6162 -6.70584 0
M  V30 915 C 115.678 -5.04409 -4.73308 0
M  V30 916 O 116.477 -3.85992 -4.75183 0
M  V30 917 C 114.341 -4.8728 -5.41006 0
M  V30 918 H 114.373 -4.02333 -6.11157 0
M  V30 919 H 115.556 -5.39466 -3.69543 0
M  V30 920 H 117.04 -6.71916 -5.01943 0
M  V30 921 H 115.346 -7.4649 -6.93477 0
M  V30 922 H 115.156 -8.89416 -5.05237 0
M  V30 923 H 113.526 -8.14876 -5.18409 0
M  V30 924 H 116.165 -3.27957 -5.4317 0
M  V30 925 P 118.023 -5.75688 -6.64379 0
M  V30 926 O 119.445 -6.07627 -7.05504 0
M  V30 927 O 117.663 -5.88047 -5.19722 0
M  V30 928 O 117.7 -4.2322 -7.04443 0
M  V30 929 C 117.54 -3.99743 -8.4911 0
M  V30 930 C 118.08 -2.60516 -8.79425 0
M  V30 931 O 117.024 -1.82684 -8.4467 0
M  V30 932 C 119.298 -2.10343 -8.03628 0
M  V30 933 O 120.036 -1.09919 -8.67766 0
M  V30 934 C 118.629 -1.68446 -6.70876 0
M  V30 935 O 119.428 -0.678137 -6.08433 0
M  V30 936 C 117.292 -1.17436 -7.18567 0
M  V30 937 H 117.324 -0.0804732 -7.31656 0
M  V30 938 H 118.507 -2.54037 -6.02537 0
M  V30 939 H 119.991 -2.93881 -7.85526 0
M  V30 940 H 118.297 -2.53065 -9.86973 0
M  V30 941 H 118.107 -4.75072 -9.05887 0
M  V30 942 H 116.477 -4.05244 -8.76668 0
M  V30 943 H 119.116 0.177647 -6.34251 0
M  V30 944 P 120.973 -1.25109 -8.70152 0
M  V30 945 O 122.394 -1.29758 -9.22115 0
M  V30 946 O 120.613 -2.13714 -7.55141 0
M  V30 947 O 120.65 0.248149 -8.21425 0
M  V30 948 C 120.489 1.22792 -9.30533 0
M  V30 949 C 121.03 2.56293 -8.80664 0
M  V30 950 O 119.975 3.02944 -8.09255 0
M  V30 951 C 122.248 2.57523 -7.89775 0
M  V30 952 O 122.986 3.7668 -7.89438 0
M  V30 953 C 121.58 2.20997 -6.55446 0
M  V30 954 O 122.378 2.71302 -5.48691 0
M  V30 955 C 120.242 2.89693 -6.67988 0
M  V30 956 N 119.199 2.08895 -6.07487 0
M  V30 957 C 119.368 0.753809 -5.94137 0
M  V30 958 N 118.341 0.146592 -5.38801 0
M  V30 959 C 117.456 1.1768 -5.13693 0
M  V30 960 C 116.189 1.17563 -4.52477 0
M  V30 961 N 115.624 2.41918 -4.45789 0
M  V30 962 C 116.226 3.56493 -4.90792 0
M  V30 963 N 117.403 3.61423 -5.47817 0
M  V30 964 C 117.978 2.37779 -5.5588 0
M  V30 965 H 121.457 1.12673 -6.44018 0
M  V30 966 H 122.94 1.7746 -8.19711 0
M  V30 967 H 121.246 3.21673 -9.66791 0
M  V30 968 H 121.056 0.901032 -10.1892 0
M  V30 969 H 119.426 1.33049 -9.56592 0
M  V30 970 H 120.268 0.233081 -6.26266 0
M  V30 971 H 122.066 3.5779 -5.23879 0
M  V30 972 P 123.924 3.65191 -7.99657 0
M  V30 973 O 125.346 3.89332 -8.45794 0
M  V30 974 O 123.564 2.28472 -7.50807 0
M  V30 975 O 123.601 4.64972 -6.77611 0
M  V30 976 C 123.441 6.06319 -7.16352 0
M  V30 977 C 123.981 6.91731 -6.02299 0
M  V30 978 O 122.925 6.92449 -5.17064 0
M  V30 979 C 125.199 6.43627 -5.25174 0
M  V30 980 O 125.937 7.43686 -4.60469 0
M  V30 981 C 124.53 5.40275 -4.31916 0
M  V30 982 O 125.329 5.25279 -3.14438 0
M  V30 983 C 123.193 6.04847 -4.05327 0
M  V30 984 H 123.225 6.62195 -3.11261 0
M  V30 985 H 124.408 4.42556 -4.81383 0
M  V30 986 H 125.892 5.92458 -5.93643 0
M  V30 987 H 124.198 7.92655 -6.402 0
M  V30 988 H 124.008 6.26671 -8.0846 0
M  V30 989 H 122.378 6.29101 -7.32804 0
M  V30 990 H 125.017 5.84315 -2.47318 0
M  V30 991 P 126.875 7.39546 -4.75277 0
M  V30 992 O 128.297 7.84798 -5.01039 0
M  V30 993 O 126.515 5.9812 -5.08098 0
M  V30 994 O 126.552 7.57503 -3.1866 0
M  V30 995 C 126.392 8.97357 -2.74833 0
M  V30 996 C 126.932 9.07548 -1.32709 0
M  V30 997 O 125.876 8.62072 -0.606159 0
M  V30 998 C 128.15 8.25383 -0.938334 0
M  V30 999 O 128.888 8.74577 0.146954 0
M  V30 1000 C 127.481 6.8802 -0.712559 0
M  V30 1001 O 128.28 6.1189 0.194655 0
M  V30 1002 C 126.144 7.27966 -0.139777 0
M  V30 1003 H 126.176 7.25354 0.961601 0
M  V30 1004 H 127.359 6.32557 -1.65702 0
M  V30 1005 H 128.843 8.19355 -1.79097 0
M  V30 1006 H 127.149 10.1294 -1.10029 0
M  V30 1007 H 126.959 9.64276 -3.41316 0
M  V30 1008 H 125.329 9.25417 -2.76357 0
M  V30 1009 H 127.968 6.25267 1.07847 0
M  V30 1010 P 129.825 8.791 -1.02308e-13 0
M  V30 1011 O 131.247 9.31096 0.027933 0
M  V30 1012 O 129.465 7.77869 -1.04071 0
M  V30 1013 O 129.502 8.09533 1.41463 0
M  V30 1014 C 129.342 9.0349 2.53943 0
M  V30 1015 C 129.882 8.35226 3.79016 0
M  V30 1016 O 128.826 7.57992 4.15078 0
M  V30 1017 C 131.1 7.45087 3.67298 0
M  V30 1018 O 131.838 7.27796 4.85194 0
M  V30 1019 C 130.431 6.17323 3.12027 0
M  V30 1020 O 131.23 5.04231 3.47188 0
M  V30 1021 C 129.094 6.19961 3.81809 0
M  V30 1022 H 129.126 5.58218 4.73051 0
M  V30 1023 H 130.309 6.21726 2.02589 0
M  V30 1024 H 131.793 7.86112 2.9231 0
M  V30 1025 H 130.099 9.11627 4.55076 0
M  V30 1026 H 129.909 9.9573 2.34194 0
M  V30 1027 H 128.279 9.2792 2.67832 0
M  V30 1028 H 130.918 4.67702 4.28772 0
M  V30 1029 P 132.776 7.39546 4.75277 0
M  V30 1030 O 134.198 7.81777 5.05738 0
M  V30 1031 O 132.416 7.1065 3.32998 0
M  V30 1032 O 132.453 6.04542 5.56673 0
M  V30 1033 C 132.293 6.22772 7.02095 0
M  V30 1034 C 132.833 4.97725 7.70406 0
M  V30 1035 O 131.777 4.13256 7.58987 0
M  V30 1036 C 134.051 4.28231 7.11815 0
M  V30 1037 O 134.789 3.49945 8.01648 0
M  V30 1038 C 133.382 3.5063 5.96244 0
M  V30 1039 O 134.181 2.36482 5.64681 0
M  V30 1040 C 132.045 3.15122 6.56374 0
M  V30 1041 H 132.077 2.13853 6.99751 0
M  V30 1042 H 133.26 4.13501 5.06559 0
M  V30 1043 H 134.744 5.03285 6.70911 0
M  V30 1044 H 133.05 5.20877 8.75697 0
M  V30 1045 H 132.86 7.11046 7.35349 0
M  V30 1046 H 131.23 6.35815 7.26986 0
M  V30 1047 H 133.869 1.61644 6.13565 0
M  V30 1048 P 135.726 3.65191 7.99657 0
M  V30 1049 O 137.148 3.8425 8.48115 0
M  V30 1050 O 135.366 4.17805 6.64342 0
M  V30 1051 O 135.403 2.07613 7.95143 0
M  V30 1052 C 135.243 1.44328 9.27336 0
M  V30 1053 C 135.783 0.0220036 9.17197 0
M  V30 1054 O 134.727 -0.626867 8.61923 0
M  V30 1055 C 137.001 -0.24586 8.30336 0
M  V30 1056 O 137.739 -1.39011 8.63583 0
M  V30 1057 C 136.332 -0.273849 6.91158 0
M  V30 1058 O 137.131 -1.06348 6.02892 0
M  V30 1059 C 134.995 -0.897649 7.22545 0
M  V30 1060 H 135.027 -1.9841 7.04286 0
M  V30 1061 H 136.21 0.739928 6.497 0
M  V30 1062 H 137.694 0.60668 8.36503 0
M  V30 1063 H 136 -0.352479 10.1829 0
M  V30 1064 H 135.81 2.00611 10.0304 0
M  V30 1065 H 134.18 1.41843 9.55327 0
M  V30 1066 H 136.819 -1.95734 6.03555 0
M  V30 1067 P 138.677 -1.25109 8.70152 0
M  V30 1068 O 140.099 -1.35274 9.21221 0
M  V30 1069 O 138.317 -0.0769065 7.84762 0
M  V30 1070 O 138.354 -2.55232 7.81161 0
M  V30 1071 C 138.194 -3.79939 8.58154 0
M  V30 1072 C 138.734 -4.94023 7.72785 0
M  V30 1073 O 137.678 -5.18726 6.91205 0
M  V30 1074 C 139.952 -4.69597 6.85231 0
M  V30 1075 O 140.69 -5.83832 6.51337 0
M  V30 1076 C 139.283 -3.96706 5.66633 0
M  V30 1077 O 140.082 -4.15414 4.49689 0
M  V30 1078 C 137.946 -4.66153 5.59313 0
M  V30 1079 H 137.978 -5.47679 4.85214 0
M  V30 1080 H 139.161 -2.89008 5.86566 0
M  V30 1081 H 140.645 -4.0121 7.36511 0
M  V30 1082 H 138.951 -5.80182 8.37584 0
M  V30 1083 H 138.761 -3.73517 9.52265 0
M  V30 1084 H 137.131 -3.97163 8.80359 0
M  V30 1085 H 139.77 -4.90969 4.01921 0
M  V30 1086 P 141.627 -5.75688 6.64379 0
M  V30 1087 O 143.049 -6.11849 7.01846 0
M  V30 1088 O 141.267 -4.30744 6.56026 0
M  V30 1089 O 141.304 -6.37042 5.19165 0
M  V30 1090 C 141.144 -7.83578 5.16515 0
M  V30 1091 C 141.684 -8.33398 3.83019 0
M  V30 1092 O 140.628 -8.10074 3.01034 0
M  V30 1093 C 142.902 -7.65514 3.2257 0
M  V30 1094 O 143.64 -8.4329 2.32297 0
M  V30 1095 C 142.233 -6.40075 2.62207 0
M  V30 1096 O 143.032 -5.92589 1.53712 0
M  V30 1097 C 140.896 -6.9454 2.18503 0
M  V30 1098 H 140.928 -7.23063 1.12091 0
M  V30 1099 H 142.111 -5.6025 3.37201 0
M  V30 1100 H 143.595 -7.35707 4.02681 0
M  V30 1101 H 141.901 -9.40912 3.9095 0
M  V30 1102 H 141.711 -8.29056 5.99158 0
M  V30 1103 H 140.081 -8.10073 5.25882 0
M  V30 1104 H 142.72 -6.30324 0.726794 0
M  V30 1105 P 144.578 -8.4349 2.47671 0
M  V30 1106 O 146 -8.94167 2.5964 0
M  V30 1107 O 144.218 -7.1704 3.19006 0
M  V30 1108 O 144.255 -8.16596 0.923387 0
M  V30 1109 C 144.095 -9.38437 0.108857 0
M  V30 1110 C 144.635 -9.08175 -1.28353 0
M  V30 1111 O 143.579 -8.44229 -1.84713 0
M  V30 1112 C 145.853 -8.18386 -1.42505 0
M  V30 1113 O 146.591 -8.3501 -2.60497 0
M  V30 1114 C 145.184 -6.80225 -1.25468 0
M  V30 1115 O 145.983 -5.81621 -1.91066 0
M  V30 1116 C 143.847 -7.02416 -1.9168 0
M  V30 1117 H 143.879 -6.6888 -2.96621 0
M  V30 1118 H 145.062 -6.53617 -0.192223 0
M  V30 1119 H 146.546 -8.36622 -0.589963 0
M  V30 1120 H 144.852 -10.0291 -1.79807 0
M  V30 1121 H 144.662 -10.2138 0.558219 0
M  V30 1122 H 143.032 -9.6579 0.0444202 0
M  V30 1123 H 145.671 -5.69556 -2.79637 0
M  V30 1124 P 147.528 -8.4349 -2.47671 0
M  V30 1125 O 148.95 -8.92593 -2.65 0
M  V30 1126 O 147.168 -7.7568 -1.19296 0
M  V30 1127 O 147.205 -7.36886 -3.63805 0
M  V30 1128 C 147.045 -7.95349 -4.982 0
M  V30 1129 C 147.585 -6.94612 -5.98974 0
M  V30 1130 O 146.529 -6.10347 -6.11815 0
M  V30 1131 C 148.803 -6.11426 -5.62335 0
M  V30 1132 O 149.541 -5.6162 -6.70584 0
M  V30 1133 C 148.134 -5.04409 -4.73308 0
M  V30 1134 O 148.933 -3.85992 -4.75183 0
M  V30 1135 C 146.797 -4.8728 -5.41006 0
M  V30 1136 H 146.829 -4.02333 -6.11157 0
M  V30 1137 H 148.012 -5.39466 -3.69543 0
M  V30 1138 H 149.496 -6.71916 -5.01943 0
M  V30 1139 H 147.802 -7.4649 -6.93477 0
M  V30 1140 H 147.612 -8.89416 -5.05237 0
M  V30 1141 H 145.982 -8.14876 -5.18409 0
M  V30 1142 H 148.621 -3.27957 -5.4317 0
M  V30 1143 P 150.479 -5.75688 -6.64379 0
M  V30 1144 O 151.901 -6.07627 -7.05504 0
M  V30 1145 O 150.119 -5.88047 -5.19722 0
M  V30 1146 O 150.156 -4.2322 -7.04443 0
M  V30 1147 C 149.996 -3.99743 -8.4911 0
M  V30 1148 C 150.536 -2.60516 -8.79425 0
M  V30 1149 O 149.48 -1.82684 -8.4467 0
M  V30 1150 C 151.754 -2.10343 -8.03628 0
M  V30 1151 O 152.492 -1.09919 -8.67766 0
M  V30 1152 C 151.085 -1.68446 -6.70876 0
M  V30 1153 O 151.884 -0.678137 -6.08433 0
M  V30 1154 C 149.748 -1.17436 -7.18567 0
M  V30 1155 H 149.78 -0.0804732 -7.31656 0
M  V30 1156 H 150.963 -2.54037 -6.02537 0
M  V30 1157 H 152.447 -2.93881 -7.85526 0
M  V30 1158 H 150.753 -2.53065 -9.86973 0
M  V30 1159 H 150.563 -4.75072 -9.05887 0
M  V30 1160 H 148.933 -4.05244 -8.76668 0
M  V30 1161 H 151.572 0.177647 -6.34251 0
M  V30 1162 P 153.43 -1.25109 -8.70152 0
M  V30 1163 O 154.852 -1.29744 -9.22016 0
M  V30 1164 O 153.07 -2.13714 -7.55141 0
M  V30 1165 O 153.107 0.248149 -8.21425 0
M  V30 1166 C 152.947 1.22779 -9.30434 0
M  V30 1167 C 153.487 2.56293 -8.80664 0
M  V30 1168 O 152.431 3.02979 -8.09349 0
M  V30 1169 C 154.705 2.57523 -7.89775 0
M  V30 1170 O 155.443 3.7668 -7.89438 0
M  V30 1171 C 154.036 2.20997 -6.55446 0
M  V30 1172 O 154.835 2.71895 -5.48509 0
M  V30 1173 C 152.699 2.89693 -6.67988 0
M  V30 1174 H 152.731 3.88793 -6.19859 0
M  V30 1175 H 153.914 1.12046 -6.44229 0
M  V30 1176 H 155.398 1.7746 -8.19711 0
M  V30 1177 H 153.704 3.20706 -9.67112 0
M  V30 1178 H 153.514 0.901032 -10.1892 0
M  V30 1179 H 151.884 1.33049 -9.56592 0
M  V30 1180 H 154.523 3.57847 -5.23962 0
M  V30 1181 P 156.38 3.65191 -7.99657 0
M  V30 1182 O 157.801 3.89374 -8.45885 0
M  V30 1183 O 156.02 2.28472 -7.50807 0
M  V30 1184 O 156.057 4.64972 -6.77611 0
M  V30 1185 C 155.896 6.06383 -7.16428 0
M  V30 1186 C 156.437 6.91731 -6.02299 0
M  V30 1187 O 155.382 6.92369 -5.17005 0
M  V30 1188 C 157.655 6.43627 -5.25174 0
M  V30 1189 O 158.393 7.43686 -4.60469 0
M  V30 1190 C 156.987 5.40275 -4.31916 0
M  V30 1191 O 157.785 5.24878 -3.14911 0
M  V30 1192 C 155.649 6.04847 -4.05327 0
M  V30 1193 N 154.606 5.04166 -3.98114 0
M  V30 1194 C 154.775 3.84629 -4.59066 0
M  V30 1195 N 153.748 3.0363 -4.45343 0
M  V30 1196 C 152.863 3.76722 -3.68523 0
M  V30 1197 C 151.596 3.43528 -3.17088 0
M  V30 1198 N 151.031 4.44526 -2.44231 0
M  V30 1199 C 151.633 5.65243 -2.20146 0
M  V30 1200 N 152.81 6.00221 -2.65453 0
M  V30 1201 C 153.385 5.00564 -3.39083 0
M  V30 1202 H 156.864 4.42969 -4.80867 0
M  V30 1203 H 158.347 5.92458 -5.93643 0
M  V30 1204 H 156.653 7.93295 -6.39407 0
M  V30 1205 H 156.463 6.26671 -8.0846 0
M  V30 1206 H 154.833 6.29101 -7.32804 0
M  V30 1207 H 155.675 3.58193 -5.14248 0
M  V30 1208 H 157.473 5.84223 -2.47279 0
M  V30 1209 P 159.331 7.39546 -4.75277 0
M  V30 1210 O 160.752 7.84882 -5.01092 0
M  V30 1211 O 158.971 5.9812 -5.08098 0
M  V30 1212 O 159.008 7.57503 -3.1866 0
M  V30 1213 C 158.847 8.97452 -2.74862 0
M  V30 1214 C 159.388 9.07548 -1.32709 0
M  V30 1215 O 158.333 8.61972 -0.606089 0
M  V30 1216 C 160.606 8.25383 -0.938334 0
M  V30 1217 O 161.344 8.74577 0.146954 0
M  V30 1218 C 159.938 6.8802 -0.712559 0
M  V30 1219 O 160.736 6.1181 0.188505 0
M  V30 1220 C 158.6 7.27966 -0.139777 0
M  V30 1221 N 157.557 6.39368 -0.623421 0
M  V30 1222 C 157.726 5.71761 -1.78245 0
M  V30 1223 N 156.699 4.962 -2.10491 0
M  V30 1224 C 155.814 5.16158 -1.0635 0
M  V30 1225 C 154.547 4.60425 -0.810266 0
M  V30 1226 N 153.948 3.7057 -1.62914 0
M  V30 1227 N 153.982 5.06 0.348685 0
M  V30 1228 C 154.584 5.94532 1.20395 0
M  V30 1229 N 155.761 6.48452 1.01191 0
M  V30 1230 C 156.336 6.04423 -0.146291 0
M  V30 1231 H 158.632 7.25255 0.961469 0
M  V30 1232 H 159.815 6.32625 -1.65044 0
M  V30 1233 H 161.298 8.19355 -1.79097 0
M  V30 1234 H 159.604 10.1305 -1.09016 0
M  V30 1235 H 159.414 9.64276 -3.41316 0
M  V30 1236 H 157.784 9.25417 -2.76357 0
M  V30 1237 H 154.048 6.21659 2.10714 0
M  V30 1238 H 158.626 5.79354 -2.38959 0
M  V30 1239 H 153.018 3.33174 -1.38982 0
M  V30 1240 H 154.422 3.39714 -2.48836 0
M  V30 1241 H 160.424 6.25169 1.0783 0
M  V30 1242 P 162.281 8.791 -1.35693e-13 0
M  V30 1243 O 163.703 9.31096 0.027933 0
M  V30 1244 O 161.921 7.77869 -1.04071 0
M  V30 1245 O 161.958 8.09533 1.41463 0
M  V30 1246 C 161.798 9.0349 2.53943 0
M  V30 1247 C 162.338 8.35226 3.79016 0
M  V30 1248 O 161.282 7.57992 4.15078 0
M  V30 1249 C 163.556 7.45087 3.67298 0
M  V30 1250 O 164.294 7.27796 4.85194 0
M  V30 1251 C 162.887 6.17323 3.12027 0
M  V30 1252 O 163.686 5.04231 3.47188 0
M  V30 1253 C 161.55 6.19961 3.81809 0
M  V30 1254 H 161.582 5.58218 4.73051 0
M  V30 1255 H 162.765 6.21726 2.02589 0
M  V30 1256 H 164.249 7.86112 2.9231 0
M  V30 1257 H 162.555 9.11627 4.55076 0
M  V30 1258 H 162.365 9.9573 2.34194 0
M  V30 1259 H 160.735 9.2792 2.67832 0
M  V30 1260 H 163.374 4.67702 4.28772 0
M  V30 1261 P 165.232 7.39546 4.75277 0
M  V30 1262 O 166.654 7.81945 5.05847 0
M  V30 1263 O 164.872 7.1065 3.32998 0
M  V30 1264 O 164.909 6.04542 5.56673 0
M  V30 1265 C 164.749 6.22772 7.02095 0
M  V30 1266 C 165.289 4.97671 7.70322 0
M  V30 1267 O 164.234 4.13256 7.58987 0
M  V30 1268 C 166.507 4.28231 7.11815 0
M  V30 1269 O 167.245 3.49945 8.01648 0
M  V30 1270 C 165.839 3.5063 5.96244 0
M  V30 1271 O 166.637 2.36443 5.64589 0
M  V30 1272 C 164.501 3.15122 6.56374 0
M  V30 1273 N 163.458 3.22311 5.55692 0
M  V30 1274 C 163.52 4.14382 4.59701 0
M  V30 1275 N 162.475 4.04476 3.76958 0
M  V30 1276 C 161.741 3.04892 4.26534 0
M  V30 1277 C 160.435 2.57447 3.88189 0
M  V30 1278 O 159.702 2.9785 2.96543 0
M  V30 1279 N 160.005 1.55228 4.65922 0
M  V30 1280 C 160.754 1.01152 5.73447 0
M  V30 1281 N 160.157 -0.0472117 6.37783 0
M  V30 1282 N 161.907 1.467 6.13813 0
M  V30 1283 C 162.364 2.4931 5.38487 0
M  V30 1284 H 164.533 2.13853 6.99751 0
M  V30 1285 H 165.716 4.13438 5.06482 0
M  V30 1286 H 167.201 5.02614 6.71414 0
M  V30 1287 H 165.506 5.20877 8.75697 0
M  V30 1288 H 165.316 7.11046 7.35349 0
M  V30 1289 H 163.685 6.35815 7.26986 0
M  V30 1290 H 159.109 1.15238 4.46468 0
M  V30 1291 H 164.316 4.88312 4.49647 0
M  V30 1292 H 159.246 -0.396382 6.05203 0
M  V30 1293 H 160.622 -0.484997 7.18465 0
M  V30 1294 H 166.326 1.61619 6.13468 0
M  V30 1295 P 168.182 3.65191 7.99657 0
M  V30 1296 O 169.604 3.8425 8.48115 0
M  V30 1297 O 167.822 4.17805 6.64342 0
M  V30 1298 O 167.859 2.07613 7.95143 0
M  V30 1299 C 167.699 1.44328 9.27336 0
M  V30 1300 C 168.239 0.0220036 9.17197 0
M  V30 1301 O 167.183 -0.626867 8.61923 0
M  V30 1302 C 169.457 -0.24586 8.30336 0
M  V30 1303 O 170.195 -1.39011 8.63583 0
M  V30 1304 C 168.788 -0.273849 6.91158 0
M  V30 1305 O 169.587 -1.06348 6.02892 0
M  V30 1306 C 167.451 -0.897649 7.22545 0
M  V30 1307 H 167.483 -1.9841 7.04286 0
M  V30 1308 H 168.666 0.739928 6.497 0
M  V30 1309 H 170.15 0.60668 8.36503 0
M  V30 1310 H 168.456 -0.352479 10.1829 0
M  V30 1311 H 168.266 2.00611 10.0304 0
M  V30 1312 H 166.636 1.41843 9.55327 0
M  V30 1313 H 169.275 -1.95734 6.03555 0
M  V30 1314 P 171.133 -1.25109 8.70152 0
M  V30 1315 O 172.555 -1.35274 9.21221 0
M  V30 1316 O 170.773 -0.0769065 7.84762 0
M  V30 1317 O 170.81 -2.55232 7.81161 0
M  V30 1318 C 170.65 -3.79939 8.58154 0
M  V30 1319 C 171.19 -4.94023 7.72785 0
M  V30 1320 O 170.134 -5.18726 6.91205 0
M  V30 1321 C 172.408 -4.69597 6.85231 0
M  V30 1322 O 173.146 -5.83832 6.51337 0
M  V30 1323 C 171.739 -3.96706 5.66633 0
M  V30 1324 O 172.538 -4.15414 4.49689 0
M  V30 1325 C 170.402 -4.66153 5.59313 0
M  V30 1326 H 170.434 -5.47679 4.85214 0
M  V30 1327 H 171.617 -2.89008 5.86566 0
M  V30 1328 H 173.101 -4.0121 7.36511 0
M  V30 1329 H 171.407 -5.80182 8.37584 0
M  V30 1330 H 171.217 -3.73517 9.52265 0
M  V30 1331 H 169.587 -3.97163 8.80359 0
M  V30 1332 H 172.226 -4.90969 4.01921 0
M  V30 1333 P 174.084 -5.75688 6.64379 0
M  V30 1334 O 175.506 -6.11849 7.01846 0
M  V30 1335 O 173.724 -4.30744 6.56026 0
M  V30 1336 O 173.761 -6.37042 5.19165 0
M  V30 1337 C 173.601 -7.83578 5.16515 0
M  V30 1338 C 174.141 -8.33398 3.83019 0
M  V30 1339 O 173.085 -8.10074 3.01034 0
M  V30 1340 C 175.359 -7.65514 3.2257 0
M  V30 1341 O 176.097 -8.4329 2.32297 0
M  V30 1342 C 174.69 -6.40075 2.62207 0
M  V30 1343 O 175.489 -5.92589 1.53712 0
M  V30 1344 C 173.353 -6.9454 2.18503 0
M  V30 1345 H 173.385 -7.23063 1.12091 0
M  V30 1346 H 174.568 -5.6025 3.37201 0
M  V30 1347 H 176.052 -7.35707 4.02681 0
M  V30 1348 H 174.358 -9.40912 3.9095 0
M  V30 1349 H 174.168 -8.29056 5.99158 0
M  V30 1350 H 172.538 -8.10073 5.25882 0
M  V30 1351 H 175.177 -6.30324 0.726794 0
M  V30 1352 P 177.034 -8.4349 2.47671 0
M  V30 1353 O 178.456 -8.94167 2.5964 0
M  V30 1354 O 176.674 -7.1704 3.19006 0
M  V30 1355 O 176.711 -8.16596 0.923387 0
M  V30 1356 C 176.551 -9.38437 0.108857 0
M  V30 1357 C 177.091 -9.08175 -1.28353 0
M  V30 1358 O 176.035 -8.44229 -1.84713 0
M  V30 1359 C 178.309 -8.18386 -1.42505 0
M  V30 1360 O 179.047 -8.3501 -2.60497 0
M  V30 1361 C 177.64 -6.80225 -1.25468 0
M  V30 1362 O 178.439 -5.81621 -1.91066 0
M  V30 1363 C 176.303 -7.02416 -1.9168 0
M  V30 1364 H 176.335 -6.6888 -2.96621 0
M  V30 1365 H 177.518 -6.53617 -0.192223 0
M  V30 1366 H 179.002 -8.36622 -0.589963 0
M  V30 1367 H 177.308 -10.0291 -1.79807 0
M  V30 1368 H 177.118 -10.2138 0.558219 0
M  V30 1369 H 175.488 -9.6579 0.0444202 0
M  V30 1370 H 178.127 -5.69556 -2.79637 0
M  V30 1371 P 179.985 -8.4349 -2.47671 0
M  V30 1372 O 181.407 -8.92593 -2.65 0
M  V30 1373 O 179.625 -7.7568 -1.19296 0
M  V30 1374 O 179.662 -7.36886 -3.63805 0
M  V30 1375 C 179.502 -7.95349 -4.982 0
M  V30 1376 C 180.042 -6.94612 -5.98974 0
M  V30 1377 O 178.986 -6.10347 -6.11815 0
M  V30 1378 C 181.26 -6.11426 -5.62335 0
M  V30 1379 O 181.998 -5.6162 -6.70584 0
M  V30 1380 C 180.591 -5.04409 -4.73308 0
M  V30 1381 O 181.39 -3.85992 -4.75183 0
M  V30 1382 C 179.254 -4.8728 -5.41006 0
M  V30 1383 H 179.286 -4.02333 -6.11157 0
M  V30 1384 H 180.469 -5.39466 -3.69543 0
M  V30 1385 H 181.953 -6.71916 -5.01943 0
M  V30 1386 H 180.259 -7.4649 -6.93477 0
M  V30 1387 H 180.069 -8.89416 -5.05237 0
M  V30 1388 H 178.439 -8.14876 -5.18409 0
M  V30 1389 H 181.078 -3.27957 -5.4317 0
M  V30 1390 P 182.935 -5.75688 -6.64379 0
M  V30 1391 O 184.357 -6.07627 -7.05504 0
M  V30 1392 O 182.575 -5.88047 -5.19722 0
M  V30 1393 O 182.612 -4.2322 -7.04443 0
M  V30 1394 C 182.452 -3.99743 -8.4911 0
M  V30 1395 C 182.992 -2.60516 -8.79425 0
M  V30 1396 O 181.936 -1.82684 -8.4467 0
M  V30 1397 C 184.21 -2.10343 -8.03628 0
M  V30 1398 O 184.948 -1.09919 -8.67766 0
M  V30 1399 C 183.541 -1.68446 -6.70876 0
M  V30 1400 O 184.34 -0.678137 -6.08433 0
M  V30 1401 C 182.204 -1.17436 -7.18567 0
M  V30 1402 H 182.236 -0.0804732 -7.31656 0
M  V30 1403 H 183.419 -2.54037 -6.02537 0
M  V30 1404 H 184.903 -2.93881 -7.85526 0
M  V30 1405 H 183.209 -2.53065 -9.86973 0
M  V30 1406 H 183.019 -4.75072 -9.05887 0
M  V30 1407 H 181.389 -4.05244 -8.76668 0
M  V30 1408 H 184.028 0.177647 -6.34251 0
M  V30 1409 P 185.886 -1.25109 -8.70152 0
M  V30 1410 O 187.308 -1.29744 -9.22016 0
M  V30 1411 O 185.526 -2.13714 -7.55141 0
M  V30 1412 O 185.563 0.248149 -8.21425 0
M  V30 1413 C 185.403 1.22779 -9.30434 0
M  V30 1414 C 185.943 2.56293 -8.80664 0
M  V30 1415 O 184.887 3.02979 -8.09349 0
M  V30 1416 C 187.161 2.57523 -7.89775 0
M  V30 1417 O 187.899 3.7668 -7.89438 0
M  V30 1418 C 186.492 2.20997 -6.55446 0
M  V30 1419 O 187.291 2.71895 -5.48509 0
M  V30 1420 C 185.155 2.89693 -6.67988 0
M  V30 1421 H 185.187 3.88793 -6.19859 0
M  V30 1422 H 186.37 1.12046 -6.44229 0
M  V30 1423 H 187.854 1.7746 -8.19711 0
M  V30 1424 H 186.16 3.20706 -9.67112 0
M  V30 1425 H 185.97 0.901032 -10.1892 0
M  V30 1426 H 184.34 1.33049 -9.56592 0
M  V30 1427 H 186.979 3.57847 -5.23962 0
M  V30 1428 P 188.836 3.65191 -7.99657 0
M  V30 1429 O 190.258 3.89332 -8.45794 0
M  V30 1430 O 188.476 2.28472 -7.50807 0
M  V30 1431 O 188.513 4.64972 -6.77611 0
M  V30 1432 C 188.353 6.06319 -7.16352 0
M  V30 1433 C 188.893 6.91731 -6.02299 0
M  V30 1434 O 187.837 6.92449 -5.17064 0
M  V30 1435 C 190.111 6.43627 -5.25174 0
M  V30 1436 O 190.849 7.43686 -4.60469 0
M  V30 1437 C 189.442 5.40275 -4.31916 0
M  V30 1438 O 190.241 5.25279 -3.14438 0
M  V30 1439 C 188.105 6.04847 -4.05327 0
M  V30 1440 H 188.137 6.62195 -3.11261 0
M  V30 1441 H 189.32 4.42556 -4.81383 0
M  V30 1442 H 190.804 5.92458 -5.93643 0
M  V30 1443 H 189.11 7.92655 -6.402 0
M  V30 1444 H 188.92 6.26671 -8.0846 0
M  V30 1445 H 187.29 6.29101 -7.32804 0
M  V30 1446 H 189.929 5.84315 -2.47318 0
M  V30 1447 P 191.787 7.39546 -4.75277 0
M  V30 1448 O 193.209 7.84798 -5.01039 0
M  V30 1449 O 191.427 5.9812 -5.08098 0
M  V30 1450 O 191.464 7.57503 -3.1866 0
M  V30 1451 C 191.304 8.97357 -2.74833 0
M  V30 1452 C 191.844 9.07548 -1.32709 0
M  V30 1453 O 190.788 8.62072 -0.606159 0
M  V30 1454 C 193.062 8.25383 -0.938334 0
M  V30 1455 O 193.8 8.74577 0.146954 0
M  V30 1456 C 192.393 6.8802 -0.712559 0
M  V30 1457 O 193.192 6.1189 0.194655 0
M  V30 1458 C 191.056 7.27966 -0.139777 0
M  V30 1459 H 191.088 7.25354 0.961601 0
M  V30 1460 H 192.271 6.32557 -1.65702 0
M  V30 1461 H 193.755 8.19355 -1.79097 0
M  V30 1462 H 192.061 10.1294 -1.10029 0
M  V30 1463 H 191.871 9.64276 -3.41316 0
M  V30 1464 H 190.241 9.25417 -2.76357 0
M  V30 1465 H 192.88 6.25267 1.07847 0
M  V30 1466 P 194.738 8.791 1.12009e-13 0
M  V30 1467 O 196.16 9.31096 0.027933 0
M  V30 1468 O 194.378 7.77869 -1.04071 0
M  V30 1469 O 194.415 8.09533 1.41463 0
M  V30 1470 C 194.255 9.0349 2.53943 0
M  V30 1471 C 194.795 8.35226 3.79016 0
M  V30 1472 O 193.739 7.57992 4.15078 0
M  V30 1473 C 196.013 7.45087 3.67298 0
M  V30 1474 O 196.751 7.27796 4.85194 0
M  V30 1475 C 195.344 6.17323 3.12027 0
M  V30 1476 O 196.143 5.04231 3.47188 0
M  V30 1477 C 194.007 6.19961 3.81809 0
M  V30 1478 H 194.039 5.58218 4.73051 0
M  V30 1479 H 195.222 6.21726 2.02589 0
M  V30 1480 H 196.706 7.86112 2.9231 0
M  V30 1481 H 195.012 9.11627 4.55076 0
M  V30 1482 H 194.822 9.9573 2.34194 0
M  V30 1483 H 193.192 9.2792 2.67832 0
M  V30 1484 H 195.831 4.67702 4.28772 0
M  V30 1485 P 197.688 7.39546 4.75277 0
M  V30 1486 O 199.089 7.89013 5.04841 0
M  V30 1487 O 197.31 7.16603 3.32298 0
M  V30 1488 O 197.365 6.04468 5.56605 0
M  V30 1489 C 197.205 6.22772 7.02095 0
M  V30 1490 C 197.745 4.97671 7.70322 0
M  V30 1491 O 196.689 4.13208 7.58899 0
M  V30 1492 C 198.962 4.28231 7.11815 0
M  V30 1493 O 199.701 3.49945 8.01648 0
M  V30 1494 C 198.295 3.5063 5.96244 0
M  V30 1495 O 199.093 2.36443 5.64589 0
M  V30 1496 C 196.957 3.15122 6.56374 0
M  V30 1497 N 195.914 3.22311 5.55692 0
M  V30 1498 C 194.879 2.32244 5.62437 0
M  V30 1499 O 194.918 1.43107 6.50341 0
M  V30 1500 N 193.867 2.40811 4.73368 0
M  V30 1501 C 193.915 3.344 3.77753 0
M  V30 1502 C 195.011 4.24712 3.66679 0
M  V30 1503 C 195.977 4.15625 4.58307 0
M  V30 1504 H 196.989 2.13823 6.99656 0
M  V30 1505 H 198.172 4.12931 5.06895 0
M  V30 1506 H 199.656 5.02674 6.71494 0
M  V30 1507 H 197.962 5.20001 8.76217 0
M  V30 1508 H 197.771 7.11046 7.35349 0
M  V30 1509 H 196.141 6.35749 7.26911 0
M  V30 1510 H 195.059 4.9828 2.86753 0
M  V30 1511 H 196.823 4.84464 4.54228 0
M  V30 1512 H 198.877 1.65592 6.23485 0
M  V30 1513 P 200.639 3.65191 7.99657 0
M  V30 1514 O 202.061 3.8425 8.48115 0
M  V30 1515 O 200.279 4.17805 6.64342 0
M  V30 1516 O 200.316 2.07613 7.95143 0
M  V30 1517 C 200.156 1.44328 9.27336 0
M  V30 1518 C 200.696 0.0220036 9.17197 0
M  V30 1519 O 199.64 -0.626867 8.61923 0
M  V30 1520 C 201.914 -0.24586 8.30336 0
M  V30 1521 O 202.652 -1.39011 8.63583 0
M  V30 1522 C 201.245 -0.273849 6.91158 0
M  V30 1523 O 202.044 -1.06348 6.02892 0
M  V30 1524 C 199.908 -0.897649 7.22545 0
M  V30 1525 H 199.94 -1.9841 7.04286 0
M  V30 1526 H 201.123 0.739928 6.497 0
M  V30 1527 H 202.607 0.60668 8.36503 0
M  V30 1528 H 200.913 -0.352479 10.1829 0
M  V30 1529 H 200.723 2.00611 10.0304 0
M  V30 1530 H 199.093 1.41843 9.55327 0
M  V30 1531 H 201.732 -1.95734 6.03555 0
M  V30 1532 P 203.589 -1.25109 8.70152 0
M  V30 1533 O 205.011 -1.35274 9.21221 0
M  V30 1534 O 203.229 -0.0769065 7.84762 0
M  V30 1535 O 203.266 -2.55232 7.81161 0
M  V30 1536 C 203.106 -3.79939 8.58154 0
M  V30 1537 C 203.646 -4.94023 7.72785 0
M  V30 1538 O 202.59 -5.18726 6.91205 0
M  V30 1539 C 204.864 -4.69597 6.85231 0
M  V30 1540 O 205.602 -5.83832 6.51337 0
M  V30 1541 C 204.195 -3.96706 5.66633 0
M  V30 1542 O 204.994 -4.15414 4.49689 0
M  V30 1543 C 202.858 -4.66153 5.59313 0
M  V30 1544 H 202.89 -5.47679 4.85214 0
M  V30 1545 H 204.073 -2.89008 5.86566 0
M  V30 1546 H 205.557 -4.0121 7.36511 0
M  V30 1547 H 203.863 -5.80182 8.37584 0
M  V30 1548 H 203.673 -3.73517 9.52265 0
M  V30 1549 H 202.043 -3.97163 8.80359 0
M  V30 1550 H 204.682 -4.90969 4.01921 0
M  V30 1551 P 206.54 -5.75688 6.64379 0
M  V30 1552 O 207.962 -6.11849 7.01846 0
M  V30 1553 O 206.18 -4.30744 6.56026 0
M  V30 1554 O 206.217 -6.37042 5.19165 0
M  V30 1555 C 206.057 -7.83578 5.16515 0
M  V30 1556 C 206.597 -8.33398 3.83019 0
M  V30 1557 O 205.541 -8.10074 3.01034 0
M  V30 1558 C 207.815 -7.65514 3.2257 0
M  V30 1559 O 208.553 -8.4329 2.32297 0
M  V30 1560 C 207.146 -6.40075 2.62207 0
M  V30 1561 O 207.945 -5.92589 1.53712 0
M  V30 1562 C 205.809 -6.9454 2.18503 0
M  V30 1563 H 205.841 -7.23063 1.12091 0
M  V30 1564 H 207.024 -5.6025 3.37201 0
M  V30 1565 H 208.508 -7.35707 4.02681 0
M  V30 1566 H 206.814 -9.40912 3.9095 0
M  V30 1567 H 206.624 -8.29056 5.99158 0
M  V30 1568 H 204.994 -8.10073 5.25882 0
M  V30 1569 H 207.633 -6.30324 0.726794 0
M  V30 1570 P 209.49 -8.4349 2.47671 0
M  V30 1571 O 210.912 -8.94167 2.5964 0
M  V30 1572 O 209.13 -7.1704 3.19006 0
M  V30 1573 O 209.167 -8.16596 0.923387 0
M  V30 1574 C 209.007 -9.38437 0.108857 0
M  V30 1575 C 209.547 -9.08175 -1.28353 0
M  V30 1576 O 208.491 -8.44229 -1.84713 0
M  V30 1577 C 210.765 -8.18386 -1.42505 0
M  V30 1578 O 211.503 -8.3501 -2.60497 0
M  V30 1579 C 210.096 -6.80225 -1.25468 0
M  V30 1580 O 210.895 -5.81621 -1.91066 0
M  V30 1581 C 208.759 -7.02416 -1.9168 0
M  V30 1582 H 208.791 -6.6888 -2.96621 0
M  V30 1583 H 209.974 -6.53617 -0.192223 0
M  V30 1584 H 211.458 -8.36622 -0.589963 0
M  V30 1585 H 209.764 -10.0291 -1.79807 0
M  V30 1586 H 209.574 -10.2138 0.558219 0
M  V30 1587 H 207.944 -9.6579 0.0444202 0
M  V30 1588 H 210.583 -5.69556 -2.79637 0
M  V30 1589 P 212.441 -8.4349 -2.47671 0
M  V30 1590 O 213.862 -8.92689 -2.65029 0
M  V30 1591 O 212.081 -7.7568 -1.19296 0
M  V30 1592 O 212.118 -7.36886 -3.63805 0
M  V30 1593 C 211.957 -7.95433 -4.98253 0
M  V30 1594 C 212.498 -6.94612 -5.98974 0
M  V30 1595 O 211.443 -6.10277 -6.11744 0
M  V30 1596 C 213.716 -6.11426 -5.62335 0
M  V30 1597 O 214.454 -5.6162 -6.70584 0
M  V30 1598 C 213.048 -5.04409 -4.73308 0
M  V30 1599 O 213.846 -3.86404 -4.74719 0
M  V30 1600 C 211.71 -4.8728 -5.41006 0
M  V30 1601 N 210.667 -4.65812 -4.42377 0
M  V30 1602 C 210.836 -5.09132 -3.15382 0
M  V30 1603 N 209.809 -4.84021 -2.3716 0
M  V30 1604 C 208.924 -4.18386 -3.20441 0
M  V30 1605 C 207.657 -3.6275 -2.94905 0
M  V30 1606 N 207.092 -3.05008 -4.05243 0
M  V30 1607 C 207.694 -2.98348 -5.28159 0
M  V30 1608 N 208.871 -3.48171 -5.56333 0
M  V30 1609 C 209.446 -4.06869 -4.47212 0
M  V30 1610 H 212.925 -5.39013 -3.70026 0
M  V30 1611 H 214.408 -6.71916 -5.01943 0
M  V30 1612 H 212.714 -7.45796 -6.94223 0
M  V30 1613 H 212.524 -8.89416 -5.05237 0
M  V30 1614 H 210.894 -8.14876 -5.18409 0
M  V30 1615 H 211.736 -5.59989 -2.81362 0
M  V30 1616 H 213.534 -3.27906 -5.43085 0
M  V30 1617 P 215.392 -5.75688 -6.64379 0
M  V30 1618 O 216.814 -6.07627 -7.05504 0
M  V30 1619 O 215.032 -5.88047 -5.19722 0
M  V30 1620 O 215.069 -4.2322 -7.04443 0
M  V30 1621 C 214.909 -3.99743 -8.4911 0
M  V30 1622 C 215.449 -2.60516 -8.79425 0
M  V30 1623 O 214.393 -1.82684 -8.4467 0
M  V30 1624 C 216.667 -2.10343 -8.03628 0
M  V30 1625 O 217.405 -1.09919 -8.67766 0
M  V30 1626 C 215.998 -1.68446 -6.70876 0
M  V30 1627 O 216.797 -0.678137 -6.08433 0
M  V30 1628 C 214.661 -1.17436 -7.18567 0
M  V30 1629 H 214.693 -0.0804732 -7.31656 0
M  V30 1630 H 215.876 -2.54037 -6.02537 0
M  V30 1631 H 217.36 -2.93881 -7.85526 0
M  V30 1632 H 215.666 -2.53065 -9.86973 0
M  V30 1633 H 215.476 -4.75072 -9.05887 0
M  V30 1634 H 213.846 -4.05244 -8.76668 0
M  V30 1635 H 216.485 0.177647 -6.34251 0
M  V30 1636 P 218.342 -1.25109 -8.70152 0
M  V30 1637 O 219.764 -1.29772 -9.22214 0
M  V30 1638 O 217.982 -2.13714 -7.55141 0
M  V30 1639 O 218.019 0.248149 -8.21425 0
M  V30 1640 C 217.859 1.22779 -9.30434 0
M  V30 1641 C 218.399 2.56265 -8.80568 0
M  V30 1642 O 217.344 3.02979 -8.09349 0
M  V30 1643 C 219.617 2.57523 -7.89775 0
M  V30 1644 O 220.355 3.7668 -7.89438 0
M  V30 1645 C 218.949 2.20997 -6.55446 0
M  V30 1646 O 219.747 2.71851 -5.48419 0
M  V30 1647 C 217.611 2.89693 -6.67988 0
M  V30 1648 N 216.568 2.08895 -6.07487 0
M  V30 1649 C 216.63 0.760559 -6.14209 0
M  V30 1650 N 215.585 0.200108 -5.52538 0
M  V30 1651 C 214.851 1.22692 -5.09742 0
M  V30 1652 C 213.545 1.24782 -4.48775 0
M  V30 1653 O 212.812 0.290617 -4.19294 0
M  V30 1654 N 213.115 2.50468 -4.22428 0
M  V30 1655 C 213.864 3.67142 -4.51974 0
M  V30 1656 N 213.267 4.85096 -4.14091 0
M  V30 1657 N 215.017 3.67821 -5.12831 0
M  V30 1658 C 215.474 2.43698 -5.4105 0
M  V30 1659 H 217.643 3.88793 -6.19859 0
M  V30 1660 H 218.826 1.12029 -6.4413 0
M  V30 1661 H 220.311 1.78279 -8.19533 0
M  V30 1662 H 218.616 3.20706 -9.67112 0
M  V30 1663 H 218.426 0.901032 -10.1892 0
M  V30 1664 H 216.795 1.33049 -9.56592 0
M  V30 1665 H 212.219 2.61953 -3.79465 0
M  V30 1666 H 217.426 0.200439 -6.63497 0
M  V30 1667 H 212.356 4.8334 -3.66367 0
M  V30 1668 H 213.732 5.7474 -4.33841 0
M  V30 1669 H 219.436 3.5779 -5.23879 0
M  V30 1670 P 221.293 3.65191 -7.99657 0
M  V30 1671 O 222.715 3.89332 -8.45794 0
M  V30 1672 O 220.933 2.28472 -7.50807 0
M  V30 1673 O 220.97 4.64972 -6.77611 0
M  V30 1674 C 220.81 6.06319 -7.16352 0
M  V30 1675 C 221.35 6.91731 -6.02299 0
M  V30 1676 O 220.294 6.92449 -5.17064 0
M  V30 1677 C 222.568 6.43627 -5.25174 0
M  V30 1678 O 223.306 7.43686 -4.60469 0
M  V30 1679 C 221.899 5.40275 -4.31916 0
M  V30 1680 O 222.698 5.25279 -3.14438 0
M  V30 1681 C 220.562 6.04847 -4.05327 0
M  V30 1682 H 220.594 6.62195 -3.11261 0
M  V30 1683 H 221.777 4.42556 -4.81383 0
M  V30 1684 H 223.261 5.92458 -5.93643 0
M  V30 1685 H 221.567 7.92655 -6.402 0
M  V30 1686 H 221.377 6.26671 -8.0846 0
M  V30 1687 H 219.747 6.29101 -7.32804 0
M  V30 1688 H 222.386 5.84315 -2.47318 0
M  V30 1689 P 224.243 7.39546 -4.75277 0
M  V30 1690 O 225.665 7.84798 -5.01039 0
M  V30 1691 O 223.883 5.9812 -5.08098 0
M  V30 1692 O 223.92 7.57503 -3.1866 0
M  V30 1693 C 223.76 8.97357 -2.74833 0
M  V30 1694 C 224.3 9.07548 -1.32709 0
M  V30 1695 O 223.244 8.62072 -0.606159 0
M  V30 1696 C 225.518 8.25383 -0.938334 0
M  V30 1697 O 226.256 8.74577 0.146954 0
M  V30 1698 C 224.849 6.8802 -0.712559 0
M  V30 1699 O 225.648 6.1189 0.194655 0
M  V30 1700 C 223.512 7.27966 -0.139777 0
M  V30 1701 H 223.544 7.25354 0.961601 0
M  V30 1702 H 224.727 6.32557 -1.65702 0
M  V30 1703 H 226.211 8.19355 -1.79097 0
M  V30 1704 H 224.517 10.1294 -1.10029 0
M  V30 1705 H 224.327 9.64276 -3.41316 0
M  V30 1706 H 222.697 9.25417 -2.76357 0
M  V30 1707 H 225.336 6.25267 1.07847 0
M  V30 1708 P 227.194 8.791 4.22174e-13 0
M  V30 1709 O 228.616 9.31096 0.027933 0
M  V30 1710 O 226.834 7.77869 -1.04071 0
M  V30 1711 O 226.871 8.09533 1.41463 0
M  V30 1712 C 226.711 9.0349 2.53943 0
M  V30 1713 C 227.251 8.35226 3.79016 0
M  V30 1714 O 226.195 7.57992 4.15078 0
M  V30 1715 C 228.469 7.45087 3.67298 0
M  V30 1716 O 229.207 7.27796 4.85194 0
M  V30 1717 C 227.8 6.17323 3.12027 0
M  V30 1718 O 228.599 5.04231 3.47188 0
M  V30 1719 C 226.463 6.19961 3.81809 0
M  V30 1720 H 226.495 5.58218 4.73051 0
M  V30 1721 H 227.678 6.21726 2.02589 0
M  V30 1722 H 229.162 7.86112 2.9231 0
M  V30 1723 H 227.468 9.11627 4.55076 0
M  V30 1724 H 227.278 9.9573 2.34194 0
M  V30 1725 H 225.648 9.2792 2.67832 0
M  V30 1726 H 228.287 4.67702 4.28772 0
M  V30 1727 P 230.144 7.39546 4.75277 0
M  V30 1728 O 231.566 7.81777 5.05738 0
M  V30 1729 O 229.784 7.1065 3.32998 0
M  V30 1730 O 229.821 6.04542 5.56673 0
M  V30 1731 C 229.661 6.22772 7.02095 0
M  V30 1732 C 230.201 4.97725 7.70406 0
M  V30 1733 O 229.145 4.13256 7.58987 0
M  V30 1734 C 231.419 4.28231 7.11815 0
M  V30 1735 O 232.157 3.49945 8.01648 0
M  V30 1736 C 230.75 3.5063 5.96244 0
M  V30 1737 O 231.549 2.36482 5.64681 0
M  V30 1738 C 229.413 3.15122 6.56374 0
M  V30 1739 H 229.445 2.13853 6.99751 0
M  V30 1740 H 230.628 4.13501 5.06559 0
M  V30 1741 H 232.112 5.03285 6.70911 0
M  V30 1742 H 230.418 5.20877 8.75697 0
M  V30 1743 H 230.228 7.11046 7.35349 0
M  V30 1744 H 228.598 6.35815 7.26986 0
M  V30 1745 H 231.237 1.61644 6.13565 0
M  V30 1746 P 233.095 3.65191 7.99657 0
M  V30 1747 O 234.517 3.8425 8.48115 0
M  V30 1748 O 232.735 4.17805 6.64342 0
M  V30 1749 O 232.772 2.07613 7.95143 0
M  V30 1750 C 232.612 1.44328 9.27336 0
M  V30 1751 C 233.152 0.0220036 9.17197 0
M  V30 1752 O 232.096 -0.626867 8.61923 0
M  V30 1753 C 234.37 -0.24586 8.30336 0
M  V30 1754 O 235.108 -1.39011 8.63583 0
M  V30 1755 C 233.701 -0.273849 6.91158 0
M  V30 1756 O 234.5 -1.06348 6.02892 0
M  V30 1757 C 232.364 -0.897649 7.22545 0
M  V30 1758 H 232.396 -1.9841 7.04286 0
M  V30 1759 H 233.579 0.739928 6.497 0
M  V30 1760 H 235.063 0.60668 8.36503 0
M  V30 1761 H 233.369 -0.352479 10.1829 0
M  V30 1762 H 233.179 2.00611 10.0304 0
M  V30 1763 H 231.549 1.41843 9.55327 0
M  V30 1764 H 234.188 -1.95734 6.03555 0
M  V30 1765 P 236.046 -1.25109 8.70152 0
M  V30 1766 O 237.467 -1.35288 9.2132 0
M  V30 1767 O 235.686 -0.0769065 7.84762 0
M  V30 1768 O 235.723 -2.55232 7.81161 0
M  V30 1769 C 235.562 -3.79979 8.58246 0
M  V30 1770 C 236.103 -4.94023 7.72785 0
M  V30 1771 O 235.048 -5.18666 6.91125 0
M  V30 1772 C 237.321 -4.69597 6.85231 0
M  V30 1773 O 238.059 -5.83832 6.51337 0
M  V30 1774 C 236.653 -3.96706 5.66633 0
M  V30 1775 O 237.451 -4.14896 4.5003 0
M  V30 1776 C 235.315 -4.66153 5.59313 0
M  V30 1777 N 234.272 -3.71582 5.24027 0
M  V30 1778 C 234.441 -2.39715 5.48833 0
M  V30 1779 N 233.414 -1.65863 5.12845 0
M  V30 1780 C 232.529 -2.57637 4.5973 0
M  V30 1781 C 231.262 -2.40278 4.01027 0
M  V30 1782 N 230.697 -3.57711 3.59575 0
M  V30 1783 C 231.299 -4.80324 3.70476 0
M  V30 1784 N 232.476 -5.01121 4.23801 0
M  V30 1785 C 233.051 -3.84757 4.66372 0
M  V30 1786 H 236.53 -2.8955 5.86187 0
M  V30 1787 H 238.013 -4.0121 7.36511 0
M  V30 1788 H 236.319 -5.81019 8.37003 0
M  V30 1789 H 236.129 -3.73517 9.52265 0
M  V30 1790 H 234.499 -3.97163 8.80359 0
M  V30 1791 H 235.341 -1.98804 5.94332 0
M  V30 1792 H 237.139 -4.90891 4.01857 0
M  V30 1793 P 238.996 -5.75688 6.64379 0
M  V30 1794 O 240.418 -6.11849 7.01846 0
M  V30 1795 O 238.636 -4.30744 6.56026 0
M  V30 1796 O 238.673 -6.37042 5.19165 0
M  V30 1797 C 238.513 -7.83578 5.16515 0
M  V30 1798 C 239.053 -8.33398 3.83019 0
M  V30 1799 O 237.997 -8.10074 3.01034 0
M  V30 1800 C 240.271 -7.65514 3.2257 0
M  V30 1801 O 241.009 -8.4329 2.32297 0
M  V30 1802 C 239.602 -6.40075 2.62207 0
M  V30 1803 O 240.401 -5.92589 1.53712 0
M  V30 1804 C 238.265 -6.9454 2.18503 0
M  V30 1805 H 238.297 -7.23063 1.12091 0
M  V30 1806 H 239.48 -5.6025 3.37201 0
M  V30 1807 H 240.964 -7.35707 4.02681 0
M  V30 1808 H 239.27 -9.40912 3.9095 0
M  V30 1809 H 239.08 -8.29056 5.99158 0
M  V30 1810 H 237.45 -8.10073 5.25882 0
M  V30 1811 H 240.089 -6.30324 0.726794 0
M  V30 1812 P 241.947 -8.4349 2.47671 0
M  V30 1813 O 243.369 -8.94167 2.5964 0
M  V30 1814 O 241.587 -7.1704 3.19006 0
M  V30 1815 O 241.624 -8.16596 0.923387 0
M  V30 1816 C 241.464 -9.38437 0.108857 0
M  V30 1817 C 242.004 -9.08175 -1.28353 0
M  V30 1818 O 240.948 -8.44229 -1.84713 0
M  V30 1819 C 243.222 -8.18386 -1.42505 0
M  V30 1820 O 243.96 -8.3501 -2.60497 0
M  V30 1821 C 242.553 -6.80225 -1.25468 0
M  V30 1822 O 243.352 -5.81621 -1.91066 0
M  V30 1823 C 241.216 -7.02416 -1.9168 0
M  V30 1824 H 241.248 -6.6888 -2.96621 0
M  V30 1825 H 242.431 -6.53617 -0.192223 0
M  V30 1826 H 243.915 -8.36622 -0.589963 0
M  V30 1827 H 242.221 -10.0291 -1.79807 0
M  V30 1828 H 242.031 -10.2138 0.558219 0
M  V30 1829 H 240.401 -9.6579 0.0444202 0
M  V30 1830 H 243.04 -5.69556 -2.79637 0
M  V30 1831 P 244.897 -8.4349 -2.47671 0
M  V30 1832 O 246.319 -8.92785 -2.65057 0
M  V30 1833 O 244.537 -7.7568 -1.19296 0
M  V30 1834 O 244.574 -7.36886 -3.63805 0
M  V30 1835 C 244.414 -7.95349 -4.982 0
M  V30 1836 C 244.954 -6.94537 -5.98908 0
M  V30 1837 O 243.899 -6.10347 -6.11815 0
M  V30 1838 C 246.172 -6.11426 -5.62335 0
M  V30 1839 O 246.91 -5.6162 -6.70584 0
M  V30 1840 C 245.504 -5.04409 -4.73308 0
M  V30 1841 O 246.302 -3.85929 -4.75106 0
M  V30 1842 C 244.166 -4.8728 -5.41006 0
M  V30 1843 N 243.123 -4.65812 -4.42377 0
M  V30 1844 C 243.185 -5.27109 -3.24335 0
M  V30 1845 N 242.14 -4.94293 -2.47735 0
M  V30 1846 C 241.406 -4.1271 -3.23359 0
M  V30 1847 C 240.1 -3.56384 -2.99934 0
M  V30 1848 O 239.367 -3.69331 -2.00616 0
M  V30 1849 N 239.67 -2.80206 -4.03316 0
M  V30 1850 C 240.419 -2.58614 -5.2172 0
M  V30 1851 N 239.822 -1.75154 -6.13278 0
M  V30 1852 N 241.572 -3.13689 -5.47619 0
M  V30 1853 C 242.029 -3.90921 -4.46436 0
M  V30 1854 H 244.198 -4.02333 -6.11157 0
M  V30 1855 H 245.381 -5.39383 -3.69487 0
M  V30 1856 H 246.866 -6.71414 -5.02615 0
M  V30 1857 H 245.171 -7.4649 -6.93477 0
M  V30 1858 H 244.981 -8.89416 -5.05237 0
M  V30 1859 H 243.35 -8.14876 -5.18409 0
M  V30 1860 H 238.774 -2.36355 -3.95916 0
M  V30 1861 H 243.981 -5.95212 -2.93859 0
M  V30 1862 H 238.911 -1.32473 -5.91856 0
M  V30 1863 H 240.287 -1.5588 -7.03026 0
M  V30 1864 H 245.991 -3.27906 -5.43085 0
M  V30 1865 P 247.848 -5.75688 -6.64379 0
M  V30 1866 O 249.27 -6.07627 -7.05504 0
M  V30 1867 O 247.488 -5.88047 -5.19722 0
M  V30 1868 O 247.525 -4.2322 -7.04443 0
M  V30 1869 C 247.365 -3.99743 -8.4911 0
M  V30 1870 C 247.905 -2.60516 -8.79425 0
M  V30 1871 O 246.849 -1.82684 -8.4467 0
M  V30 1872 C 249.123 -2.10343 -8.03628 0
M  V30 1873 O 249.861 -1.09919 -8.67766 0
M  V30 1874 C 248.454 -1.68446 -6.70876 0
M  V30 1875 O 249.253 -0.678137 -6.08433 0
M  V30 1876 C 247.117 -1.17436 -7.18567 0
M  V30 1877 H 247.149 -0.0804732 -7.31656 0
M  V30 1878 H 248.332 -2.54037 -6.02537 0
M  V30 1879 H 249.816 -2.93881 -7.85526 0
M  V30 1880 H 248.122 -2.53065 -9.86973 0
M  V30 1881 H 247.932 -4.75072 -9.05887 0
M  V30 1882 H 246.302 -4.05244 -8.76668 0
M  V30 1883 H 248.941 0.177647 -6.34251 0
M  V30 1884 P 250.798 -1.25109 -8.70152 0
M  V30 1885 O 252.219 -1.29758 -9.22115 0
M  V30 1886 O 250.438 -2.13714 -7.55141 0
M  V30 1887 O 250.475 0.248149 -8.21425 0
M  V30 1888 C 250.314 1.22792 -9.30533 0
M  V30 1889 C 250.855 2.56293 -8.80664 0
M  V30 1890 O 249.8 3.02944 -8.09255 0
M  V30 1891 C 252.073 2.57523 -7.89775 0
M  V30 1892 O 252.811 3.7668 -7.89438 0
M  V30 1893 C 251.405 2.20997 -6.55446 0
M  V30 1894 O 252.203 2.71302 -5.48691 0
M  V30 1895 C 250.067 2.89693 -6.67988 0
M  V30 1896 N 249.024 2.08895 -6.07487 0
M  V30 1897 C 249.193 0.753809 -5.94137 0
M  V30 1898 N 248.166 0.146592 -5.38801 0
M  V30 1899 C 247.281 1.1768 -5.13693 0
M  V30 1900 C 246.014 1.17563 -4.52477 0
M  V30 1901 N 245.415 0.057481 -4.04759 0
M  V30 1902 N 245.449 2.41918 -4.45789 0
M  V30 1903 C 246.051 3.56493 -4.90792 0
M  V30 1904 N 247.228 3.61423 -5.47817 0
M  V30 1905 C 247.803 2.37779 -5.5588 0
M  V30 1906 H 250.099 3.8874 -6.19774 0
M  V30 1907 H 251.282 1.12673 -6.44018 0
M  V30 1908 H 252.765 1.7746 -8.19711 0
M  V30 1909 H 251.071 3.21673 -9.66791 0
M  V30 1910 H 250.881 0.901032 -10.1892 0
M  V30 1911 H 249.251 1.33049 -9.56592 0
M  V30 1912 H 245.515 4.49919 -4.77947 0
M  V30 1913 H 250.093 0.233081 -6.26266 0
M  V30 1914 H 244.485 0.119831 -3.60801 0
M  V30 1915 H 245.889 -0.852272 -4.12385 0
M  V30 1916 H 251.891 3.5779 -5.23879 0
M  V30 1917 P 253.749 3.65191 -7.99657 0
M  V30 1918 O 255.171 3.89416 -8.45976 0
M  V30 1919 O 253.389 2.28472 -7.50807 0
M  V30 1920 O 253.426 4.64972 -6.77611 0
M  V30 1921 C 253.266 6.06319 -7.16352 0
M  V30 1922 C 253.806 6.91655 -6.02234 0
M  V30 1923 O 252.751 6.92449 -5.17064 0
M  V30 1924 C 255.024 6.43627 -5.25174 0
M  V30 1925 O 255.762 7.43686 -4.60469 0
M  V30 1926 C 254.356 5.40275 -4.31916 0
M  V30 1927 O 255.154 5.25193 -3.14386 0
M  V30 1928 C 253.018 6.04847 -4.05327 0
M  V30 1929 N 251.975 5.04166 -3.98114 0
M  V30 1930 C 252.037 3.96049 -4.75587 0
M  V30 1931 N 250.992 3.15559 -4.54006 0
M  V30 1932 C 250.258 3.78802 -3.62491 0
M  V30 1933 C 248.952 3.476 -3.10071 0
M  V30 1934 O 248.219 2.51136 -3.37021 0
M  V30 1935 N 248.522 4.39088 -2.19956 0
M  V30 1936 C 249.271 5.53215 -1.81733 0
M  V30 1937 N 248.674 6.31963 -0.860928 0
M  V30 1938 N 250.424 5.86688 -2.32562 0
M  V30 1939 C 250.881 4.97525 -3.23407 0
M  V30 1940 H 253.05 6.62195 -3.11261 0
M  V30 1941 H 254.233 4.42488 -4.8131 0
M  V30 1942 H 255.718 5.93051 -5.9305 0
M  V30 1943 H 254.023 7.92655 -6.402 0
M  V30 1944 H 253.833 6.26671 -8.0846 0
M  V30 1945 H 252.202 6.29101 -7.32804 0
M  V30 1946 H 247.626 4.25523 -1.77604 0
M  V30 1947 H 252.833 3.75576 -5.47333 0
M  V30 1948 H 247.763 6.04684 -0.468946 0
M  V30 1949 H 249.139 7.18054 -0.542422 0
M  V30 1950 H 254.843 5.84223 -2.47279 0
M  V30 1951 P 256.7 7.39546 -4.75277 0
M  V30 1952 O 258.101 7.86988 -5.07993 0
M  V30 1953 O 256.322 5.99957 -5.13804 0
M  V30 1954 O 256.377 7.57411 -3.18621 0
M  V30 1955 C 256.217 8.97357 -2.74833 0
M  V30 1956 C 256.757 9.0745 -1.32694 0
M  V30 1957 O 255.701 8.61972 -0.606089 0
M  V30 1958 C 257.974 8.25383 -0.938334 0
M  V30 1959 O 258.713 8.74577 0.146954 0
M  V30 1960 C 257.307 6.8802 -0.712559 0
M  V30 1961 O 258.105 6.11791 0.194623 0
M  V30 1962 C 255.969 7.27966 -0.139777 0
M  V30 1963 N 254.926 6.39368 -0.623421 0
M  V30 1964 C 253.891 6.08088 0.223886 0
M  V30 1965 O 253.93 6.5102 1.39986 0
M  V30 1966 N 252.879 5.30627 -0.224051 0
M  V30 1967 C 252.927 4.82531 -1.47257 0
M  V30 1968 N 251.917 4.07328 -1.89378 0
M  V30 1969 C 254.023 5.09974 -2.34008 0
M  V30 1970 C 254.989 5.89548 -1.87678 0
M  V30 1971 H 256.001 7.25255 0.961469 0
M  V30 1972 H 257.184 6.32625 -1.65044 0
M  V30 1973 H 258.668 8.19631 -1.78299 0
M  V30 1974 H 256.974 10.1305 -1.09016 0
M  V30 1975 H 256.783 9.64276 -3.41316 0
M  V30 1976 H 255.153 9.25321 -2.76328 0
M  V30 1977 H 254.071 4.67832 -3.3413 0
M  V30 1978 H 255.835 6.14434 -2.51991 0
M  V30 1979 H 251.127 3.87329 -1.26296 0
M  V30 1980 H 251.922 3.69014 -2.84741 0
M  V30 1981 H 257.889 6.35931 1.08377 0
M  V30 1982 P 259.65 8.791 7.3234e-13 0
M  V30 1983 O 261.072 9.31096 0.027933 0
M  V30 1984 O 259.29 7.77869 -1.04071 0
M  V30 1985 O 259.327 8.09533 1.41463 0
M  V30 1986 C 259.167 9.0349 2.53943 0
M  V30 1987 C 259.707 8.35226 3.79016 0
M  V30 1988 O 258.651 7.57992 4.15078 0
M  V30 1989 C 260.925 7.45087 3.67298 0
M  V30 1990 O 261.663 7.27796 4.85194 0
M  V30 1991 C 260.256 6.17323 3.12027 0
M  V30 1992 O 261.055 5.04231 3.47188 0
M  V30 1993 C 258.919 6.19961 3.81809 0
M  V30 1994 H 258.951 5.58218 4.73051 0
M  V30 1995 H 260.134 6.21726 2.02589 0
M  V30 1996 H 261.618 7.86112 2.9231 0
M  V30 1997 H 259.924 9.11627 4.55076 0
M  V30 1998 H 259.734 9.9573 2.34194 0
M  V30 1999 H 258.104 9.2792 2.67832 0
M  V30 2000 H 260.743 4.67702 4.28772 0
M  V30 2001 P 262.601 7.39546 4.75277 0
M  V30 2002 O 264.022 7.81861 5.05793 0
M  V30 2003 O 262.241 7.1065 3.32998 0
M  V30 2004 O 262.278 6.04542 5.56673 0
M  V30 2005 C 262.117 6.22839 7.02169 0
M  V30 2006 C 262.658 4.97725 7.70406 0
M  V30 2007 O 261.603 4.13208 7.58899 0
M  V30 2008 C 263.876 4.28231 7.11815 0
M  V30 2009 O 264.614 3.49945 8.01648 0
M  V30 2010 C 263.208 3.5063 5.96244 0
M  V30 2011 O 264.006 2.37008 5.64352 0
M  V30 2012 C 261.87 3.15122 6.56374 0
M  V30 2013 N 260.827 3.22311 5.55692 0
M  V30 2014 C 260.996 3.99655 4.46046 0
M  V30 2015 N 259.969 3.97599 3.63918 0
M  V30 2016 C 259.084 3.11159 4.25334 0
M  V30 2017 C 257.817 2.64972 3.85157 0
M  V30 2018 N 257.252 1.78482 4.74759 0
M  V30 2019 C 257.854 1.37463 5.90819 0
M  V30 2020 N 259.031 1.7733 6.31889 0
M  V30 2021 C 259.606 2.64393 5.43725 0
M  V30 2022 H 263.085 4.12931 5.06895 0
M  V30 2023 H 264.568 5.03285 6.70911 0
M  V30 2024 H 262.874 5.20001 8.76217 0
M  V30 2025 H 262.684 7.11046 7.35349 0
M  V30 2026 H 261.054 6.35815 7.26986 0
M  V30 2027 H 261.896 4.58037 4.27732 0
M  V30 2028 H 263.694 1.61619 6.13468 0
M  V30 2029 P 265.551 3.65191 7.99657 0
M  V30 2030 O 266.972 3.84292 8.48206 0
M  V30 2031 O 265.191 4.17805 6.64342 0
M  V30 2032 O 265.228 2.07613 7.95143 0
M  V30 2033 C 265.067 1.44344 9.27435 0
M  V30 2034 C 265.608 0.0220036 9.17197 0
M  V30 2035 O 264.553 -0.626794 8.61824 0
M  V30 2036 C 266.826 -0.24586 8.30336 0
M  V30 2037 O 267.564 -1.39011 8.63583 0
M  V30 2038 C 266.158 -0.273849 6.91158 0
M  V30 2039 O 266.956 -1.05728 6.029 0
M  V30 2040 C 264.82 -0.897649 7.22545 0
M  V30 2041 N 263.777 -0.292839 6.41732 0
M  V30 2042 C 263.946 0.950603 5.91308 0
M  V30 2043 N 262.919 1.37732 5.21105 0
M  V30 2044 C 262.034 0.318109 5.26039 0
M  V30 2045 C 260.767 0.146766 4.6727 0
M  V30 2046 N 260.168 1.08519 3.89983 0
M  V30 2047 N 260.202 -1.06525 4.95887 0
M  V30 2048 C 260.804 -2.0378 5.71347 0
M  V30 2049 N 261.981 -1.92445 6.27451 0
M  V30 2050 C 262.556 -0.715382 6.00353 0
M  V30 2051 H 264.852 -1.98383 7.04189 0
M  V30 2052 H 266.035 0.733318 6.49674 0
M  V30 2053 H 267.518 0.60668 8.36503 0
M  V30 2054 H 265.824 -0.362662 10.1825 0
M  V30 2055 H 265.634 2.00611 10.0304 0
M  V30 2056 H 264.004 1.41843 9.55327 0
M  V30 2057 H 260.268 -2.97041 5.85344 0
M  V30 2058 H 264.846 1.54076 6.07465 0
M  V30 2059 H 259.238 0.901517 3.49562 0
M  V30 2060 H 260.642 1.97957 3.71669 0
M  V30 2061 H 266.644 -1.95704 6.0346 0
M  V30 2062 P 268.502 -1.25109 8.70152 0
M  V30 2063 O 269.924 -1.35303 9.21419 0
M  V30 2064 O 268.142 -0.0769065 7.84762 0
M  V30 2065 O 268.179 -2.55232 7.81161 0
M  V30 2066 C 268.019 -3.79939 8.58154 0
M  V30 2067 C 268.559 -4.93969 7.72701 0
M  V30 2068 O 267.504 -5.18726 6.91205 0
M  V30 2069 C 269.777 -4.69597 6.85231 0
M  V30 2070 O 270.515 -5.83832 6.51337 0
M  V30 2071 C 269.109 -3.96706 5.66633 0
M  V30 2072 O 269.907 -4.15346 4.49615 0
M  V30 2073 C 267.771 -4.66153 5.59313 0
M  V30 2074 N 266.728 -3.71582 5.24027 0
M  V30 2075 C 266.79 -2.46018 5.67902 0
M  V30 2076 N 265.745 -1.74868 5.24518 0
M  V30 2077 C 265.011 -2.61333 4.54528 0
M  V30 2078 C 263.705 -2.46162 3.95441 0
M  V30 2079 O 262.972 -1.46013 3.94122 0
M  V30 2080 N 263.275 -3.59334 3.34752 0
M  V30 2081 C 264.024 -4.79605 3.3023 0
M  V30 2082 N 263.427 -5.82109 2.6065 0
M  V30 2083 N 265.177 -4.97402 3.8843 0
M  V30 2084 C 265.634 -3.86258 4.50476 0
M  V30 2085 H 267.803 -5.47679 4.85214 0
M  V30 2086 H 268.986 -2.88964 5.86476 0
M  V30 2087 H 270.471 -4.01947 7.36109 0
M  V30 2088 H 268.776 -5.80182 8.37584 0
M  V30 2089 H 268.586 -3.73517 9.52265 0
M  V30 2090 H 266.955 -3.97163 8.80359 0
M  V30 2091 H 262.379 -3.5825 2.90294 0
M  V30 2092 H 267.586 -2.06161 6.30974 0
M  V30 2093 H 262.516 -5.66979 2.15354 0
M  V30 2094 H 263.892 -6.73686 2.54344 0
M  V30 2095 H 269.596 -4.90891 4.01857 0
M  V30 2096 P 271.452 -5.75688 6.64379 0
M  V30 2097 O 272.874 -6.11849 7.01846 0
M  V30 2098 O 271.092 -4.30744 6.56026 0
M  V30 2099 O 271.129 -6.37042 5.19165 0
M  V30 2100 C 270.969 -7.83578 5.16515 0
M  V30 2101 C 271.509 -8.33398 3.83019 0
M  V30 2102 O 270.453 -8.10074 3.01034 0
M  V30 2103 C 272.727 -7.65514 3.2257 0
M  V30 2104 O 273.465 -8.4329 2.32297 0
M  V30 2105 C 272.058 -6.40075 2.62207 0
M  V30 2106 O 272.857 -5.92589 1.53712 0
M  V30 2107 C 270.721 -6.9454 2.18503 0
M  V30 2108 H 270.753 -7.23063 1.12091 0
M  V30 2109 H 271.936 -5.6025 3.37201 0
M  V30 2110 H 273.42 -7.35707 4.02681 0
M  V30 2111 H 271.726 -9.40912 3.9095 0
M  V30 2112 H 271.536 -8.29056 5.99158 0
M  V30 2113 H 269.906 -8.10073 5.25882 0
M  V30 2114 H 272.545 -6.30324 0.726794 0
M  V30 2115 P 274.403 -8.4349 2.47671 0
M  V30 2116 O 275.825 -8.94167 2.5964 0
M  V30 2117 O 274.043 -7.1704 3.19006 0
M  V30 2118 O 274.08 -8.16596 0.923387 0
M  V30 2119 C 273.92 -9.38437 0.108857 0
M  V30 2120 C 274.46 -9.08175 -1.28353 0
M  V30 2121 O 273.404 -8.44229 -1.84713 0
M  V30 2122 C 275.678 -8.18386 -1.42505 0
M  V30 2123 O 276.416 -8.3501 -2.60497 0
M  V30 2124 C 275.009 -6.80225 -1.25468 0
M  V30 2125 O 275.808 -5.81621 -1.91066 0
M  V30 2126 C 273.672 -7.02416 -1.9168 0
M  V30 2127 H 273.704 -6.6888 -2.96621 0
M  V30 2128 H 274.887 -6.53617 -0.192223 0
M  V30 2129 H 276.371 -8.36622 -0.589963 0
M  V30 2130 H 274.677 -10.0291 -1.79807 0
M  V30 2131 H 274.487 -10.2138 0.558219 0
M  V30 2132 H 272.857 -9.6579 0.0444202 0
M  V30 2133 H 275.496 -5.69556 -2.79637 0
M  V30 2134 P 277.354 -8.4349 -2.47671 0
M  V30 2135 O 278.776 -8.92593 -2.65 0
M  V30 2136 O 276.994 -7.7568 -1.19296 0
M  V30 2137 O 277.031 -7.36886 -3.63805 0
M  V30 2138 C 276.871 -7.95349 -4.982 0
M  V30 2139 C 277.411 -6.94612 -5.98974 0
M  V30 2140 O 276.355 -6.10347 -6.11815 0
M  V30 2141 C 278.629 -6.11426 -5.62335 0
M  V30 2142 O 279.367 -5.6162 -6.70584 0
M  V30 2143 C 277.96 -5.04409 -4.73308 0
M  V30 2144 O 278.759 -3.85992 -4.75183 0
M  V30 2145 C 276.623 -4.8728 -5.41006 0
M  V30 2146 H 276.655 -4.02333 -6.11157 0
M  V30 2147 H 277.838 -5.39466 -3.69543 0
M  V30 2148 H 279.322 -6.71916 -5.01943 0
M  V30 2149 H 277.628 -7.4649 -6.93477 0
M  V30 2150 H 277.438 -8.89416 -5.05237 0
M  V30 2151 H 275.808 -8.14876 -5.18409 0
M  V30 2152 H 278.447 -3.27957 -5.4317 0
M  V30 2153 P 280.304 -5.75688 -6.64379 0
M  V30 2154 O 281.726 -6.07758 -7.05656 0
M  V30 2155 O 279.944 -5.88047 -5.19722 0
M  V30 2156 O 279.981 -4.2322 -7.04443 0
M  V30 2157 C 279.821 -3.99743 -8.4911 0
M  V30 2158 C 280.361 -2.60487 -8.79329 0
M  V30 2159 O 279.306 -1.82684 -8.4467 0
M  V30 2160 C 281.579 -2.10343 -8.03628 0
M  V30 2161 O 282.317 -1.09919 -8.67766 0
M  V30 2162 C 280.911 -1.68446 -6.70876 0
M  V30 2163 O 281.709 -0.678026 -6.08333 0
M  V30 2164 C 279.573 -1.17436 -7.18567 0
M  V30 2165 N 278.53 -1.52699 -6.23988 0
M  V30 2166 C 278.592 -2.68084 -5.57824 0
M  V30 2167 N 277.547 -2.8189 -4.75643 0
M  V30 2168 C 276.813 -1.72373 -4.95155 0
M  V30 2169 C 275.507 -1.37653 -4.44996 0
M  V30 2170 O 274.774 -2.02239 -3.68445 0
M  V30 2171 N 275.077 -0.17675 -4.90782 0
M  V30 2172 C 275.826 0.645036 -5.78716 0
M  V30 2173 N 275.229 1.84214 -6.10618 0
M  V30 2174 N 276.979 0.321732 -6.30279 0
M  V30 2175 C 277.436 -0.87502 -5.86913 0
M  V30 2176 H 279.605 -0.0804732 -7.31656 0
M  V30 2177 H 280.788 -2.53998 -6.02444 0
M  V30 2178 H 282.273 -2.93095 -7.8582 0
M  V30 2179 H 280.578 -2.53065 -9.86973 0
M  V30 2180 H 280.388 -4.75072 -9.05887 0
M  V30 2181 H 278.757 -4.05244 -8.76668 0
M  V30 2182 H 274.181 0.152143 -4.60849 0
M  V30 2183 H 279.388 -3.41852 -5.69006 0
M  V30 2184 H 274.318 2.08538 -5.69521 0
M  V30 2185 H 275.694 2.4895 -6.75698 0
M  V30 2186 H 281.398 0.177619 -6.34151 0
M  V30 2187 P 283.255 -1.25109 -8.70152 0
M  V30 2188 O 284.677 -1.29744 -9.22016 0
M  V30 2189 O 282.895 -2.13714 -7.55141 0
M  V30 2190 O 282.932 0.248149 -8.21425 0
M  V30 2191 C 282.772 1.22779 -9.30434 0
M  V30 2192 C 283.312 2.56293 -8.80664 0
M  V30 2193 O 282.256 3.02979 -8.09349 0
M  V30 2194 C 284.53 2.57523 -7.89775 0
M  V30 2195 O 285.268 3.7668 -7.89438 0
M  V30 2196 C 283.861 2.20997 -6.55446 0
M  V30 2197 O 284.66 2.71895 -5.48509 0
M  V30 2198 C 282.524 2.89693 -6.67988 0
M  V30 2199 H 282.556 3.88793 -6.19859 0
M  V30 2200 H 283.739 1.12046 -6.44229 0
M  V30 2201 H 285.223 1.7746 -8.19711 0
M  V30 2202 H 283.529 3.20706 -9.67112 0
M  V30 2203 H 283.339 0.901032 -10.1892 0
M  V30 2204 H 281.709 1.33049 -9.56592 0
M  V30 2205 H 284.348 3.57847 -5.23962 0
M  V30 2206 P 286.205 3.65191 -7.99657 0
M  V30 2207 O 287.627 3.89332 -8.45794 0
M  V30 2208 O 285.845 2.28472 -7.50807 0
M  V30 2209 O 285.882 4.64972 -6.77611 0
M  V30 2210 C 285.722 6.06319 -7.16352 0
M  V30 2211 C 286.262 6.91731 -6.02299 0
M  V30 2212 O 285.206 6.92449 -5.17064 0
M  V30 2213 C 287.48 6.43627 -5.25174 0
M  V30 2214 O 288.218 7.43686 -4.60469 0
M  V30 2215 C 286.811 5.40275 -4.31916 0
M  V30 2216 O 287.61 5.25279 -3.14438 0
M  V30 2217 C 285.474 6.04847 -4.05327 0
M  V30 2218 H 285.506 6.62195 -3.11261 0
M  V30 2219 H 286.689 4.42556 -4.81383 0
M  V30 2220 H 288.173 5.92458 -5.93643 0
M  V30 2221 H 286.479 7.92655 -6.402 0
M  V30 2222 H 286.289 6.26671 -8.0846 0
M  V30 2223 H 284.659 6.29101 -7.32804 0
M  V30 2224 H 287.298 5.84315 -2.47318 0
M  V30 2225 P 289.156 7.39546 -4.75277 0
M  V30 2226 O 290.557 7.86988 -5.07993 0
M  V30 2227 O 288.778 5.99957 -5.13804 0
M  V30 2228 O 288.833 7.57411 -3.18621 0
M  V30 2229 C 288.673 8.97357 -2.74833 0
M  V30 2230 C 289.213 9.0745 -1.32694 0
M  V30 2231 O 288.157 8.61972 -0.606089 0
M  V30 2232 C 290.43 8.25383 -0.938334 0
M  V30 2233 O 291.169 8.74577 0.146954 0
M  V30 2234 C 289.763 6.8802 -0.712559 0
M  V30 2235 O 290.561 6.11791 0.194623 0
M  V30 2236 C 288.425 7.27966 -0.139777 0
M  V30 2237 N 287.382 6.39368 -0.623421 0
M  V30 2238 C 286.347 6.08088 0.223886 0
M  V30 2239 O 286.386 6.5102 1.39986 0
M  V30 2240 N 285.335 5.30627 -0.224051 0
M  V30 2241 C 285.383 4.82531 -1.47257 0
M  V30 2242 C 286.479 5.09974 -2.34008 0
M  V30 2243 C 287.445 5.89548 -1.87678 0
M  V30 2244 H 288.457 7.25255 0.961469 0
M  V30 2245 H 289.64 6.32625 -1.65044 0
M  V30 2246 H 291.124 8.19631 -1.78299 0
M  V30 2247 H 289.43 10.1305 -1.09016 0
M  V30 2248 H 289.239 9.64276 -3.41316 0
M  V30 2249 H 287.609 9.25321 -2.76328 0
M  V30 2250 H 286.527 4.67832 -3.3413 0
M  V30 2251 H 288.291 6.14434 -2.51991 0
M  V30 2252 H 290.345 6.35931 1.08377 0
M  V30 2253 P 292.106 8.791 1.04251e-12 0
M  V30 2254 O 293.528 9.31096 0.027933 0
M  V30 2255 O 291.746 7.77869 -1.04071 0
M  V30 2256 O 291.783 8.09533 1.41463 0
M  V30 2257 C 291.623 9.0349 2.53943 0
M  V30 2258 C 292.163 8.35226 3.79016 0
M  V30 2259 O 291.107 7.57992 4.15078 0
M  V30 2260 C 293.381 7.45087 3.67298 0
M  V30 2261 O 294.119 7.27796 4.85194 0
M  V30 2262 C 292.712 6.17323 3.12027 0
M  V30 2263 O 293.511 5.04231 3.47188 0
M  V30 2264 C 291.375 6.19961 3.81809 0
M  V30 2265 H 291.407 5.58218 4.73051 0
M  V30 2266 H 292.59 6.21726 2.02589 0
M  V30 2267 H 294.074 7.86112 2.9231 0
M  V30 2268 H 292.38 9.11627 4.55076 0
M  V30 2269 H 292.19 9.9573 2.34194 0
M  V30 2270 H 290.56 9.2792 2.67832 0
M  V30 2271 H 293.199 4.67702 4.28772 0
M  V30 2272 P 295.057 7.39546 4.75277 0
M  V30 2273 O 296.479 7.81777 5.05738 0
M  V30 2274 O 294.697 7.1065 3.32998 0
M  V30 2275 O 294.734 6.04542 5.56673 0
M  V30 2276 C 294.574 6.22772 7.02095 0
M  V30 2277 C 295.114 4.97725 7.70406 0
M  V30 2278 O 294.058 4.13256 7.58987 0
M  V30 2279 C 296.332 4.28231 7.11815 0
M  V30 2280 O 297.07 3.49945 8.01648 0
M  V30 2281 C 295.663 3.5063 5.96244 0
M  V30 2282 O 296.462 2.36482 5.64681 0
M  V30 2283 C 294.326 3.15122 6.56374 0
M  V30 2284 H 294.358 2.13853 6.99751 0
M  V30 2285 H 295.541 4.13501 5.06559 0
M  V30 2286 H 297.025 5.03285 6.70911 0
M  V30 2287 H 295.331 5.20877 8.75697 0
M  V30 2288 H 295.141 7.11046 7.35349 0
M  V30 2289 H 293.511 6.35815 7.26986 0
M  V30 2290 H 296.15 1.61644 6.13565 0
M  V30 2291 P 298.008 3.65191 7.99657 0
M  V30 2292 O 299.43 3.8425 8.48115 0
M  V30 2293 O 297.648 4.17805 6.64342 0
M  V30 2294 O 297.685 2.07613 7.95143 0
M  V30 2295 C 297.525 1.44328 9.27336 0
M  V30 2296 C 298.065 0.0220036 9.17197 0
M  V30 2297 O 297.009 -0.626867 8.61923 0
M  V30 2298 C 299.283 -0.24586 8.30336 0
M  V30 2299 O 300.021 -1.39011 8.63583 0
M  V30 2300 C 298.614 -0.273849 6.91158 0
M  V30 2301 O 299.413 -1.06348 6.02892 0
M  V30 2302 C 297.277 -0.897649 7.22545 0
M  V30 2303 H 297.309 -1.9841 7.04286 0
M  V30 2304 H 298.492 0.739928 6.497 0
M  V30 2305 H 299.976 0.60668 8.36503 0
M  V30 2306 H 298.282 -0.352479 10.1829 0
M  V30 2307 H 298.092 2.00611 10.0304 0
M  V30 2308 H 296.462 1.41843 9.55327 0
M  V30 2309 H 299.101 -1.95734 6.03555 0
M  V30 2310 P 300.958 -1.25109 8.70152 0
M  V30 2311 O 302.38 -1.35274 9.21221 0
M  V30 2312 O 300.598 -0.0769065 7.84762 0
M  V30 2313 O 300.635 -2.55232 7.81161 0
M  V30 2314 C 300.475 -3.79939 8.58154 0
M  V30 2315 C 301.015 -4.94023 7.72785 0
M  V30 2316 O 299.959 -5.18726 6.91205 0
M  V30 2317 C 302.233 -4.69597 6.85231 0
M  V30 2318 O 302.971 -5.83832 6.51337 0
M  V30 2319 C 301.564 -3.96706 5.66633 0
M  V30 2320 O 302.363 -4.15414 4.49689 0
M  V30 2321 C 300.227 -4.66153 5.59313 0
M  V30 2322 H 300.259 -5.47679 4.85214 0
M  V30 2323 H 301.442 -2.89008 5.86566 0
M  V30 2324 H 302.926 -4.0121 7.36511 0
M  V30 2325 H 301.232 -5.80182 8.37584 0
M  V30 2326 H 301.042 -3.73517 9.52265 0
M  V30 2327 H 299.412 -3.97163 8.80359 0
M  V30 2328 H 302.051 -4.90969 4.01921 0
M  V30 2329 P 303.909 -5.75688 6.64379 0
M  V30 2330 O 305.33 -6.11915 7.01921 0
M  V30 2331 O 303.549 -4.30744 6.56026 0
M  V30 2332 O 303.586 -6.37042 5.19165 0
M  V30 2333 C 303.425 -7.83662 5.1657 0
M  V30 2334 C 303.966 -8.33398 3.83019 0
M  V30 2335 O 302.911 -8.0998 3.00999 0
M  V30 2336 C 305.184 -7.65514 3.2257 0
M  V30 2337 O 305.922 -8.4329 2.32297 0
M  V30 2338 C 304.516 -6.40075 2.62207 0
M  V30 2339 O 305.314 -5.92338 1.5428 0
M  V30 2340 C 303.178 -6.9454 2.18503 0
M  V30 2341 N 302.135 -5.95905 2.39948 0
M  V30 2342 C 302.304 -4.98383 3.32108 0
M  V30 2343 N 301.277 -4.16798 3.41761 0
M  V30 2344 C 300.392 -4.65287 2.47461 0
M  V30 2345 C 299.125 -4.18946 2.07461 0
M  V30 2346 N 298.56 -4.95327 1.09101 0
M  V30 2347 C 299.162 -6.04369 0.519812 0
M  V30 2348 N 300.339 -6.50694 0.855982 0
M  V30 2349 C 300.914 -5.75818 1.84322 0
M  V30 2350 H 304.393 -5.60502 3.36589 0
M  V30 2351 H 305.876 -7.35707 4.02681 0
M  V30 2352 H 304.182 -9.41302 3.90009 0
M  V30 2353 H 303.992 -8.29056 5.99158 0
M  V30 2354 H 302.362 -8.10073 5.25882 0
M  V30 2355 H 303.204 -4.88564 3.92502 0
M  V30 2356 H 305.002 -6.30224 0.72668 0
M  V30 2357 P 306.859 -8.4349 2.47671 0
M  V30 2358 O 308.281 -8.94167 2.5964 0
M  V30 2359 O 306.499 -7.1704 3.19006 0
M  V30 2360 O 306.536 -8.16596 0.923387 0
M  V30 2361 C 306.376 -9.38437 0.108857 0
M  V30 2362 C 306.916 -9.08175 -1.28353 0
M  V30 2363 O 305.86 -8.44229 -1.84713 0
M  V30 2364 C 308.134 -8.18386 -1.42505 0
M  V30 2365 O 308.872 -8.3501 -2.60497 0
M  V30 2366 C 307.465 -6.80225 -1.25468 0
M  V30 2367 O 308.264 -5.81621 -1.91066 0
M  V30 2368 C 306.128 -7.02416 -1.9168 0
M  V30 2369 H 306.16 -6.6888 -2.96621 0
M  V30 2370 H 307.343 -6.53617 -0.192223 0
M  V30 2371 H 308.827 -8.36622 -0.589963 0
M  V30 2372 H 307.133 -10.0291 -1.79807 0
M  V30 2373 H 306.943 -10.2138 0.558219 0
M  V30 2374 H 305.313 -9.6579 0.0444202 0
M  V30 2375 H 307.952 -5.69556 -2.79637 0
M  V30 2376 P 309.81 -8.4349 -2.47671 0
M  V30 2377 O 311.232 -8.92593 -2.65 0
M  V30 2378 O 309.45 -7.7568 -1.19296 0
M  V30 2379 O 309.487 -7.36886 -3.63805 0
M  V30 2380 C 309.327 -7.95349 -4.982 0
M  V30 2381 C 309.867 -6.94612 -5.98974 0
M  V30 2382 O 308.811 -6.10347 -6.11815 0
M  V30 2383 C 311.085 -6.11426 -5.62335 0
M  V30 2384 O 311.823 -5.6162 -6.70584 0
M  V30 2385 C 310.416 -5.04409 -4.73308 0
M  V30 2386 O 311.215 -3.85992 -4.75183 0
M  V30 2387 C 309.079 -4.8728 -5.41006 0
M  V30 2388 H 309.111 -4.02333 -6.11157 0
M  V30 2389 H 310.294 -5.39466 -3.69543 0
M  V30 2390 H 311.778 -6.71916 -5.01943 0
M  V30 2391 H 310.084 -7.4649 -6.93477 0
M  V30 2392 H 309.894 -8.89416 -5.05237 0
M  V30 2393 H 308.264 -8.14876 -5.18409 0
M  V30 2394 H 310.903 -3.27957 -5.4317 0
M  V30 2395 P 312.76 -5.75688 -6.64379 0
M  V30 2396 O 314.161 -6.14823 -7.06682 0
M  V30 2397 O 312.382 -5.93957 -5.20728 0
M  V30 2398 O 312.437 -4.23169 -7.04357 0
M  V30 2399 C 312.277 -3.99743 -8.4911 0
M  V30 2400 C 312.817 -2.60487 -8.79329 0
M  V30 2401 O 311.761 -1.82663 -8.44573 0
M  V30 2402 C 314.034 -2.10343 -8.03628 0
M  V30 2403 O 314.773 -1.09919 -8.67766 0
M  V30 2404 C 313.367 -1.68446 -6.70876 0
M  V30 2405 O 314.165 -0.678026 -6.08333 0
M  V30 2406 C 312.029 -1.17436 -7.18567 0
M  V30 2407 N 310.986 -1.52699 -6.23988 0
M  V30 2408 C 309.951 -0.643793 -6.05085 0
M  V30 2409 O 309.99 0.459118 -6.64315 0
M  V30 2410 N 308.939 -0.976931 -5.22038 0
M  V30 2411 C 308.987 -2.14429 -4.56662 0
M  V30 2412 C 310.083 -3.04203 -4.71481 0
M  V30 2413 C 311.049 -2.69669 -5.56838 0
M  V30 2414 H 312.061 -0.0804622 -7.31556 0
M  V30 2415 H 313.244 -2.53396 -6.02698 0
M  V30 2416 H 314.728 -2.9313 -7.85914 0
M  V30 2417 H 313.034 -2.52078 -9.87225 0
M  V30 2418 H 312.843 -4.75072 -9.05887 0
M  V30 2419 H 311.213 -4.05202 -8.76577 0
M  V30 2420 H 310.131 -3.97309 -4.15519 0
M  V30 2421 H 311.895 -3.36869 -5.72318 0
M  V30 2422 H 313.949 0.167718 -6.44882 0
M  V30 2423 P 315.711 -1.25109 -8.70152 0
M  V30 2424 O 317.133 -1.29744 -9.22016 0
M  V30 2425 O 315.351 -2.13714 -7.55141 0
M  V30 2426 O 315.388 0.248149 -8.21425 0
M  V30 2427 C 315.228 1.22779 -9.30434 0
M  V30 2428 C 315.768 2.56293 -8.80664 0
M  V30 2429 O 314.712 3.02979 -8.09349 0
M  V30 2430 C 316.986 2.57523 -7.89775 0
M  V30 2431 O 317.724 3.7668 -7.89438 0
M  V30 2432 C 316.317 2.20997 -6.55446 0
M  V30 2433 O 317.116 2.71895 -5.48509 0
M  V30 2434 C 314.98 2.89693 -6.67988 0
M  V30 2435 H 315.012 3.88793 -6.19859 0
M  V30 2436 H 316.195 1.12046 -6.44229 0
M  V30 2437 H 317.679 1.7746 -8.19711 0
M  V30 2438 H 315.985 3.20706 -9.67112 0
M  V30 2439 H 315.795 0.901032 -10.1892 0
M  V30 2440 H 314.165 1.33049 -9.56592 0
M  V30 2441 H 316.804 3.57847 -5.23962 0
M  V30 2442 P 318.662 3.65191 -7.99657 0
M  V30 2443 O 320.084 3.89416 -8.45976 0
M  V30 2444 O 318.302 2.28472 -7.50807 0
M  V30 2445 O 318.339 4.64972 -6.77611 0
M  V30 2446 C 318.179 6.06319 -7.16352 0
M  V30 2447 C 318.719 6.91655 -6.02234 0
M  V30 2448 O 317.664 6.92449 -5.17064 0
M  V30 2449 C 319.937 6.43627 -5.25174 0
M  V30 2450 O 320.675 7.43686 -4.60469 0
M  V30 2451 C 319.269 5.40275 -4.31916 0
M  V30 2452 O 320.067 5.25193 -3.14386 0
M  V30 2453 C 317.931 6.04847 -4.05327 0
M  V30 2454 N 316.888 5.04166 -3.98114 0
M  V30 2455 C 316.95 3.96049 -4.75587 0
M  V30 2456 N 315.905 3.15559 -4.54006 0
M  V30 2457 C 315.171 3.78802 -3.62491 0
M  V30 2458 C 313.865 3.476 -3.10071 0
M  V30 2459 O 313.132 2.51136 -3.37021 0
M  V30 2460 N 313.435 4.39088 -2.19956 0
M  V30 2461 C 314.184 5.53215 -1.81733 0
M  V30 2462 N 313.587 6.31963 -0.860928 0
M  V30 2463 N 315.337 5.86688 -2.32562 0
M  V30 2464 C 315.794 4.97525 -3.23407 0
M  V30 2465 H 317.963 6.62195 -3.11261 0
M  V30 2466 H 319.146 4.42488 -4.8131 0
M  V30 2467 H 320.631 5.93051 -5.9305 0
M  V30 2468 H 318.936 7.92655 -6.402 0
M  V30 2469 H 318.746 6.26671 -8.0846 0
M  V30 2470 H 317.115 6.29101 -7.32804 0
M  V30 2471 H 312.539 4.25523 -1.77604 0
M  V30 2472 H 317.746 3.75576 -5.47333 0
M  V30 2473 H 312.676 6.04684 -0.468946 0
M  V30 2474 H 314.052 7.18054 -0.542422 0
M  V30 2475 H 319.756 5.84223 -2.47279 0
M  V30 2476 P 321.612 7.39546 -4.75277 0
M  V30 2477 O 323.034 7.84798 -5.01039 0
M  V30 2478 O 321.252 5.9812 -5.08098 0
M  V30 2479 O 321.289 7.57503 -3.1866 0
M  V30 2480 C 321.129 8.97357 -2.74833 0
M  V30 2481 C 321.669 9.07548 -1.32709 0
M  V30 2482 O 320.613 8.62072 -0.606159 0
M  V30 2483 C 322.887 8.25383 -0.938334 0
M  V30 2484 O 323.625 8.74577 0.146954 0
M  V30 2485 C 322.218 6.8802 -0.712559 0
M  V30 2486 O 323.017 6.1189 0.194655 0
M  V30 2487 C 320.881 7.27966 -0.139777 0
M  V30 2488 H 320.913 7.25354 0.961601 0
M  V30 2489 H 322.096 6.32557 -1.65702 0
M  V30 2490 H 323.58 8.19355 -1.79097 0
M  V30 2491 H 321.886 10.1294 -1.10029 0
M  V30 2492 H 321.696 9.64276 -3.41316 0
M  V30 2493 H 320.066 9.25417 -2.76357 0
M  V30 2494 H 322.705 6.25267 1.07847 0
M  V30 2495 P 324.563 8.791 1.35267e-12 0
M  V30 2496 O 325.985 9.31096 0.027933 0
M  V30 2497 O 324.203 7.77869 -1.04071 0
M  V30 2498 O 324.24 8.09533 1.41463 0
M  V30 2499 C 324.08 9.0349 2.53943 0
M  V30 2500 C 324.62 8.35226 3.79016 0
M  V30 2501 O 323.564 7.57992 4.15078 0
M  V30 2502 C 325.838 7.45087 3.67298 0
M  V30 2503 O 326.576 7.27796 4.85194 0
M  V30 2504 C 325.169 6.17323 3.12027 0
M  V30 2505 O 325.968 5.04231 3.47188 0
M  V30 2506 C 323.832 6.19961 3.81809 0
M  V30 2507 H 323.864 5.58218 4.73051 0
M  V30 2508 H 325.047 6.21726 2.02589 0
M  V30 2509 H 326.531 7.86112 2.9231 0
M  V30 2510 H 324.837 9.11627 4.55076 0
M  V30 2511 H 324.647 9.9573 2.34194 0
M  V30 2512 H 323.017 9.2792 2.67832 0
M  V30 2513 H 325.656 4.67702 4.28772 0
M  V30 2514 P 327.513 7.39546 4.75277 0
M  V30 2515 O 328.935 7.81777 5.05738 0
M  V30 2516 O 327.153 7.1065 3.32998 0
M  V30 2517 O 327.19 6.04542 5.56673 0
M  V30 2518 C 327.03 6.22772 7.02095 0
M  V30 2519 C 327.57 4.97725 7.70406 0
M  V30 2520 O 326.514 4.13256 7.58987 0
M  V30 2521 C 328.788 4.28231 7.11815 0
M  V30 2522 O 329.526 3.49945 8.01648 0
M  V30 2523 C 328.119 3.5063 5.96244 0
M  V30 2524 O 328.918 2.36482 5.64681 0
M  V30 2525 C 326.782 3.15122 6.56374 0
M  V30 2526 H 326.814 2.13853 6.99751 0
M  V30 2527 H 327.997 4.13501 5.06559 0
M  V30 2528 H 329.481 5.03285 6.70911 0
M  V30 2529 H 327.787 5.20877 8.75697 0
M  V30 2530 H 327.597 7.11046 7.35349 0
M  V30 2531 H 325.967 6.35815 7.26986 0
M  V30 2532 H 328.606 1.61644 6.13565 0
M  V30 2533 P 330.464 3.65191 7.99657 0
M  V30 2534 O 331.885 3.84292 8.48206 0
M  V30 2535 O 330.104 4.17805 6.64342 0
M  V30 2536 O 330.141 2.07613 7.95143 0
M  V30 2537 C 329.98 1.44344 9.27435 0
M  V30 2538 C 330.521 0.0220036 9.17197 0
M  V30 2539 O 329.466 -0.626794 8.61824 0
M  V30 2540 C 331.739 -0.24586 8.30336 0
M  V30 2541 O 332.477 -1.39011 8.63583 0
M  V30 2542 C 331.071 -0.273849 6.91158 0
M  V30 2543 O 331.869 -1.05728 6.029 0
M  V30 2544 C 329.733 -0.897649 7.22545 0
M  V30 2545 N 328.69 -0.292839 6.41732 0
M  V30 2546 C 328.859 0.950603 5.91308 0
M  V30 2547 N 327.832 1.37732 5.21105 0
M  V30 2548 C 326.947 0.318109 5.26039 0
M  V30 2549 C 325.68 0.146766 4.6727 0
M  V30 2550 N 325.115 -1.06525 4.95887 0
M  V30 2551 C 325.717 -2.0378 5.71347 0
M  V30 2552 N 326.894 -1.92445 6.27451 0
M  V30 2553 C 327.469 -0.715382 6.00353 0
M  V30 2554 H 330.948 0.733318 6.49674 0
M  V30 2555 H 332.431 0.60668 8.36503 0
M  V30 2556 H 330.737 -0.362662 10.1825 0
M  V30 2557 H 330.547 2.00611 10.0304 0
M  V30 2558 H 328.917 1.41843 9.55327 0
M  V30 2559 H 329.759 1.54076 6.07465 0
M  V30 2560 H 331.557 -1.95704 6.0346 0
M  V30 2561 P 333.414 -1.25109 8.70152 0
M  V30 2562 O 334.836 -1.35274 9.21221 0
M  V30 2563 O 333.054 -0.0769065 7.84762 0
M  V30 2564 O 333.091 -2.55232 7.81161 0
M  V30 2565 C 332.931 -3.79939 8.58154 0
M  V30 2566 C 333.471 -4.94023 7.72785 0
M  V30 2567 O 332.415 -5.18726 6.91205 0
M  V30 2568 C 334.689 -4.69597 6.85231 0
M  V30 2569 O 335.427 -5.83832 6.51337 0
M  V30 2570 C 334.02 -3.96706 5.66633 0
M  V30 2571 O 334.819 -4.15414 4.49689 0
M  V30 2572 C 332.683 -4.66153 5.59313 0
M  V30 2573 H 332.715 -5.47679 4.85214 0
M  V30 2574 H 333.898 -2.89008 5.86566 0
M  V30 2575 H 335.382 -4.0121 7.36511 0
M  V30 2576 H 333.688 -5.80182 8.37584 0
M  V30 2577 H 333.498 -3.73517 9.52265 0
M  V30 2578 H 331.868 -3.97163 8.80359 0
M  V30 2579 H 334.507 -4.90969 4.01921 0
M  V30 2580 P 336.365 -5.75688 6.64379 0
M  V30 2581 O 337.787 -6.11849 7.01846 0
M  V30 2582 O 336.005 -4.30744 6.56026 0
M  V30 2583 O 336.042 -6.37042 5.19165 0
M  V30 2584 C 335.882 -7.83578 5.16515 0
M  V30 2585 C 336.422 -8.33398 3.83019 0
M  V30 2586 O 335.366 -8.10074 3.01034 0
M  V30 2587 C 337.64 -7.65514 3.2257 0
M  V30 2588 O 338.378 -8.4329 2.32297 0
M  V30 2589 C 336.971 -6.40075 2.62207 0
M  V30 2590 O 337.77 -5.92589 1.53712 0
M  V30 2591 C 335.634 -6.9454 2.18503 0
M  V30 2592 H 335.666 -7.23063 1.12091 0
M  V30 2593 H 336.849 -5.6025 3.37201 0
M  V30 2594 H 338.333 -7.35707 4.02681 0
M  V30 2595 H 336.639 -9.40912 3.9095 0
M  V30 2596 H 336.449 -8.29056 5.99158 0
M  V30 2597 H 334.819 -8.10073 5.25882 0
M  V30 2598 H 337.458 -6.30324 0.726794 0
M  V30 2599 P 339.316 -8.4349 2.47671 0
M  V30 2600 O 340.737 -8.94263 2.59668 0
M  V30 2601 O 338.956 -7.1704 3.19006 0
M  V30 2602 O 338.993 -8.16596 0.923387 0
M  V30 2603 C 338.832 -9.38537 0.108869 0
M  V30 2604 C 339.373 -9.08175 -1.28353 0
M  V30 2605 O 338.318 -8.44131 -1.84692 0
M  V30 2606 C 340.591 -8.18386 -1.42505 0
M  V30 2607 O 341.329 -8.3501 -2.60497 0
M  V30 2608 C 339.923 -6.80225 -1.25468 0
M  V30 2609 O 340.721 -5.81716 -1.90454 0
M  V30 2610 C 338.585 -7.02416 -1.9168 0
M  V30 2611 N 337.542 -6.31033 -1.20314 0
M  V30 2612 C 337.711 -5.98817 0.0994088 0
M  V30 2613 N 336.684 -5.35403 0.621694 0
M  V30 2614 C 335.799 -5.25212 -0.43376 0
M  V30 2615 C 334.532 -4.64602 -0.519722 0
M  V30 2616 N 333.967 -4.7568 -1.76013 0
M  V30 2617 C 334.569 -5.3653 -2.83017 0
M  V30 2618 N 335.746 -5.93676 -2.79782 0
M  V30 2619 C 336.321 -5.84061 -1.56249 0
M  V30 2620 H 339.8 -6.53498 -0.198729 0
M  V30 2621 H 341.283 -8.36622 -0.589963 0
M  V30 2622 H 339.589 -10.0273 -1.8081 0
M  V30 2623 H 339.399 -10.2138 0.558219 0
M  V30 2624 H 337.769 -9.6579 0.0444202 0
M  V30 2625 H 338.611 -6.23209 0.660562 0
M  V30 2626 H 340.409 -5.69466 -2.79593 0
M  V30 2627 P 342.266 -8.4349 -2.47671 0
M  V30 2628 O 343.688 -8.92593 -2.65 0
M  V30 2629 O 341.906 -7.7568 -1.19296 0
M  V30 2630 O 341.943 -7.36886 -3.63805 0
M  V30 2631 C 341.783 -7.95349 -4.982 0
M  V30 2632 C 342.323 -6.94612 -5.98974 0
M  V30 2633 O 341.267 -6.10347 -6.11815 0
M  V30 2634 C 343.541 -6.11426 -5.62335 0
M  V30 2635 O 344.279 -5.6162 -6.70584 0
M  V30 2636 C 342.872 -5.04409 -4.73308 0
M  V30 2637 O 343.671 -3.85992 -4.75183 0
M  V30 2638 C 341.535 -4.8728 -5.41006 0
M  V30 2639 H 341.567 -4.02333 -6.11157 0
M  V30 2640 H 342.75 -5.39466 -3.69543 0
M  V30 2641 H 344.234 -6.71916 -5.01943 0
M  V30 2642 H 342.54 -7.4649 -6.93477 0
M  V30 2643 H 342.35 -8.89416 -5.05237 0
M  V30 2644 H 340.72 -8.14876 -5.18409 0
M  V30 2645 H 343.359 -3.27957 -5.4317 0
M  V30 2646 P 345.217 -5.75688 -6.64379 0
M  V30 2647 O 346.639 -6.07627 -7.05504 0
M  V30 2648 O 344.857 -5.88047 -5.19722 0
M  V30 2649 O 344.894 -4.2322 -7.04443 0
M  V30 2650 C 344.734 -3.99743 -8.4911 0
M  V30 2651 C 345.274 -2.60516 -8.79425 0
M  V30 2652 O 344.218 -1.82684 -8.4467 0
M  V30 2653 C 346.492 -2.10343 -8.03628 0
M  V30 2654 O 347.23 -1.09919 -8.67766 0
M  V30 2655 C 345.823 -1.68446 -6.70876 0
M  V30 2656 O 346.622 -0.678137 -6.08433 0
M  V30 2657 C 344.486 -1.17436 -7.18567 0
M  V30 2658 H 344.518 -0.0804732 -7.31656 0
M  V30 2659 H 345.701 -2.54037 -6.02537 0
M  V30 2660 H 347.185 -2.93881 -7.85526 0
M  V30 2661 H 345.491 -2.53065 -9.86973 0
M  V30 2662 H 345.301 -4.75072 -9.05887 0
M  V30 2663 H 343.671 -4.05244 -8.76668 0
M  V30 2664 H 346.31 0.177647 -6.34251 0
M  V30 2665 P 348.167 -1.25109 -8.70152 0
M  V30 2666 O 349.589 -1.29744 -9.22016 0
M  V30 2667 O 347.807 -2.13714 -7.55141 0
M  V30 2668 O 347.844 0.248149 -8.21425 0
M  V30 2669 C 347.684 1.22779 -9.30434 0
M  V30 2670 C 348.224 2.56293 -8.80664 0
M  V30 2671 O 347.168 3.02979 -8.09349 0
M  V30 2672 C 349.442 2.57523 -7.89775 0
M  V30 2673 O 350.18 3.7668 -7.89438 0
M  V30 2674 C 348.773 2.20997 -6.55446 0
M  V30 2675 O 349.572 2.71895 -5.48509 0
M  V30 2676 C 347.436 2.89693 -6.67988 0
M  V30 2677 H 347.468 3.88793 -6.19859 0
M  V30 2678 H 348.651 1.12046 -6.44229 0
M  V30 2679 H 350.135 1.7746 -8.19711 0
M  V30 2680 H 348.441 3.20706 -9.67112 0
M  V30 2681 H 348.251 0.901032 -10.1892 0
M  V30 2682 H 346.621 1.33049 -9.56592 0
M  V30 2683 H 349.26 3.57847 -5.23962 0
M  V30 2684 P 351.118 3.65191 -7.99657 0
M  V30 2685 O 352.54 3.89416 -8.45976 0
M  V30 2686 O 350.758 2.28472 -7.50807 0
M  V30 2687 O 350.795 4.64972 -6.77611 0
M  V30 2688 C 350.635 6.06319 -7.16352 0
M  V30 2689 C 351.175 6.91655 -6.02234 0
M  V30 2690 O 350.12 6.92449 -5.17064 0
M  V30 2691 C 352.393 6.43627 -5.25174 0
M  V30 2692 O 353.131 7.43686 -4.60469 0
M  V30 2693 C 351.725 5.40275 -4.31916 0
M  V30 2694 O 352.523 5.25193 -3.14386 0
M  V30 2695 C 350.387 6.04847 -4.05327 0
M  V30 2696 N 349.344 5.04166 -3.98114 0
M  V30 2697 C 349.406 3.96049 -4.75587 0
M  V30 2698 N 348.361 3.15559 -4.54006 0
M  V30 2699 C 347.627 3.78802 -3.62491 0
M  V30 2700 C 346.321 3.476 -3.10071 0
M  V30 2701 O 345.588 2.51136 -3.37021 0
M  V30 2702 N 345.891 4.39088 -2.19956 0
M  V30 2703 C 346.64 5.53215 -1.81733 0
M  V30 2704 N 346.043 6.31963 -0.860928 0
M  V30 2705 N 347.793 5.86688 -2.32562 0
M  V30 2706 C 348.25 4.97525 -3.23407 0
M  V30 2707 H 350.419 6.62195 -3.11261 0
M  V30 2708 H 351.602 4.42488 -4.8131 0
M  V30 2709 H 353.087 5.93051 -5.9305 0
M  V30 2710 H 351.392 7.92655 -6.402 0
M  V30 2711 H 351.202 6.26671 -8.0846 0
M  V30 2712 H 349.571 6.29101 -7.32804 0
M  V30 2713 H 344.995 4.25523 -1.77604 0
M  V30 2714 H 350.202 3.75576 -5.47333 0
M  V30 2715 H 345.132 6.04684 -0.468946 0
M  V30 2716 H 346.508 7.18054 -0.542422 0
M  V30 2717 H 352.212 5.84223 -2.47279 0
M  V30 2718 P 354.068 7.39546 -4.75277 0
M  V30 2719 O 355.489 7.84882 -5.01092 0
M  V30 2720 O 353.708 5.9812 -5.08098 0
M  V30 2721 O 353.745 7.57503 -3.1866 0
M  V30 2722 C 353.584 8.97452 -2.74862 0
M  V30 2723 C 354.125 9.07548 -1.32709 0
M  V30 2724 O 353.07 8.61972 -0.606089 0
M  V30 2725 C 355.343 8.25383 -0.938334 0
M  V30 2726 O 356.081 8.74577 0.146954 0
M  V30 2727 C 354.675 6.8802 -0.712559 0
M  V30 2728 O 355.473 6.1181 0.188505 0
M  V30 2729 C 353.337 7.27966 -0.139777 0
M  V30 2730 N 352.294 6.39368 -0.623421 0
M  V30 2731 C 352.463 5.71761 -1.78245 0
M  V30 2732 N 351.436 4.962 -2.10491 0
M  V30 2733 C 350.551 5.16158 -1.0635 0
M  V30 2734 C 349.284 4.60425 -0.810266 0
M  V30 2735 N 348.719 5.06 0.348685 0
M  V30 2736 C 349.321 5.94532 1.20395 0
M  V30 2737 N 350.498 6.48452 1.01191 0
M  V30 2738 C 351.073 6.04423 -0.146291 0
M  V30 2739 H 354.552 6.32625 -1.65044 0
M  V30 2740 H 356.035 8.19355 -1.79097 0
M  V30 2741 H 354.341 10.1305 -1.09016 0
M  V30 2742 H 354.151 9.64276 -3.41316 0
M  V30 2743 H 352.521 9.25417 -2.76357 0
M  V30 2744 H 353.363 5.79354 -2.38959 0
M  V30 2745 H 355.161 6.25169 1.0783 0
M  V30 2746 P 357.019 8.791 1.66284e-12 0
M  V30 2747 O 358.42 9.36698 -0.018734 0
M  V30 2748 O 356.641 7.82499 -1.07878 0
M  V30 2749 O 356.696 8.09434 1.41446 0
M  V30 2750 C 356.536 9.0349 2.53943 0
M  V30 2751 C 357.076 8.35135 3.78975 0
M  V30 2752 O 356.02 7.57904 4.1503 0
M  V30 2753 C 358.293 7.45087 3.67298 0
M  V30 2754 O 359.032 7.27796 4.85194 0
M  V30 2755 C 357.626 6.17323 3.12027 0
M  V30 2756 O 358.424 5.04149 3.47132 0
M  V30 2757 C 356.288 6.19961 3.81809 0
M  V30 2758 N 355.245 5.71575 2.93223 0
M  V30 2759 C 354.21 4.99452 3.47592 0
M  V30 2760 O 354.249 4.7199 4.69732 0
M  V30 2761 N 353.198 4.58505 2.6803 0
M  V30 2762 C 353.246 4.85544 1.36995 0
M  V30 2763 C 354.342 5.55532 0.788532 0
M  V30 2764 C 355.308 5.97426 1.60849 0
M  V30 2765 H 356.32 5.58142 4.72986 0
M  V30 2766 H 357.503 6.21428 2.0318 0
M  V30 2767 H 358.987 7.85913 2.93131 0
M  V30 2768 H 357.293 9.11171 4.55987 0
M  V30 2769 H 357.102 9.9573 2.34194 0
M  V30 2770 H 355.472 9.27824 2.67805 0
M  V30 2771 H 354.39 5.7421 -0.281588 0
M  V30 2772 H 356.154 6.53132 1.202 0
M  V30 2773 H 358.208 4.76386 4.34983 0
M  V30 2774 P 359.97 7.39546 4.75277 0
M  V30 2775 O 361.391 7.81861 5.05793 0
M  V30 2776 O 359.61 7.1065 3.32998 0
M  V30 2777 O 359.647 6.04542 5.56673 0
M  V30 2778 C 359.486 6.22839 7.02169 0
M  V30 2779 C 360.027 4.97725 7.70406 0
M  V30 2780 O 358.972 4.13208 7.58899 0
M  V30 2781 C 361.245 4.28231 7.11815 0
M  V30 2782 O 361.983 3.49945 8.01648 0
M  V30 2783 C 360.577 3.5063 5.96244 0
M  V30 2784 O 361.375 2.37008 5.64352 0
M  V30 2785 C 359.239 3.15122 6.56374 0
M  V30 2786 N 358.196 3.22311 5.55692 0
M  V30 2787 C 358.365 3.99655 4.46046 0
M  V30 2788 N 357.338 3.97599 3.63918 0
M  V30 2789 C 356.453 3.11159 4.25334 0
M  V30 2790 C 355.186 2.64972 3.85157 0
M  V30 2791 N 354.621 1.78482 4.74759 0
M  V30 2792 C 355.223 1.37463 5.90819 0
M  V30 2793 N 356.4 1.7733 6.31889 0
M  V30 2794 C 356.975 2.64393 5.43725 0
M  V30 2795 H 360.454 4.12931 5.06895 0
M  V30 2796 H 361.937 5.03285 6.70911 0
M  V30 2797 H 360.243 5.20001 8.76217 0
M  V30 2798 H 360.053 7.11046 7.35349 0
M  V30 2799 H 358.423 6.35815 7.26986 0
M  V30 2800 H 359.265 4.58037 4.27732 0
M  V30 2801 H 361.063 1.61619 6.13468 0
M  V30 2802 P 362.92 3.65191 7.99657 0
M  V30 2803 O 364.342 3.8425 8.48115 0
M  V30 2804 O 362.56 4.17805 6.64342 0
M  V30 2805 O 362.597 2.07613 7.95143 0
M  V30 2806 C 362.437 1.44328 9.27336 0
M  V30 2807 C 362.977 0.0220036 9.17197 0
M  V30 2808 O 361.921 -0.626867 8.61923 0
M  V30 2809 C 364.195 -0.24586 8.30336 0
M  V30 2810 O 364.933 -1.39011 8.63583 0
M  V30 2811 C 363.526 -0.273849 6.91158 0
M  V30 2812 O 364.325 -1.06348 6.02892 0
M  V30 2813 C 362.189 -0.897649 7.22545 0
M  V30 2814 H 362.221 -1.9841 7.04286 0
M  V30 2815 H 363.404 0.739928 6.497 0
M  V30 2816 H 364.888 0.60668 8.36503 0
M  V30 2817 H 363.194 -0.352479 10.1829 0
M  V30 2818 H 363.004 2.00611 10.0304 0
M  V30 2819 H 361.374 1.41843 9.55327 0
M  V30 2820 H 364.013 -1.95734 6.03555 0
M  V30 2821 P 365.871 -1.25109 8.70152 0
M  V30 2822 O 367.293 -1.35274 9.21221 0
M  V30 2823 O 365.511 -0.0769065 7.84762 0
M  V30 2824 O 365.548 -2.55232 7.81161 0
M  V30 2825 C 365.388 -3.79939 8.58154 0
M  V30 2826 C 365.928 -4.94023 7.72785 0
M  V30 2827 O 364.872 -5.18726 6.91205 0
M  V30 2828 C 367.146 -4.69597 6.85231 0
M  V30 2829 O 367.884 -5.83832 6.51337 0
M  V30 2830 C 366.477 -3.96706 5.66633 0
M  V30 2831 O 367.276 -4.15414 4.49689 0
M  V30 2832 C 365.14 -4.66153 5.59313 0
M  V30 2833 H 365.172 -5.47679 4.85214 0
M  V30 2834 H 366.355 -2.89008 5.86566 0
M  V30 2835 H 367.839 -4.0121 7.36511 0
M  V30 2836 H 366.145 -5.80182 8.37584 0
M  V30 2837 H 365.955 -3.73517 9.52265 0
M  V30 2838 H 364.325 -3.97163 8.80359 0
M  V30 2839 H 366.964 -4.90969 4.01921 0
M  V30 2840 P 368.821 -5.75688 6.64379 0
M  V30 2841 O 370.243 -6.11849 7.01846 0
M  V30 2842 O 368.461 -4.30744 6.56026 0
M  V30 2843 O 368.498 -6.37042 5.19165 0
M  V30 2844 C 368.338 -7.83578 5.16515 0
M  V30 2845 C 368.878 -8.33398 3.83019 0
M  V30 2846 O 367.822 -8.10074 3.01034 0
M  V30 2847 C 370.096 -7.65514 3.2257 0
M  V30 2848 O 370.834 -8.4329 2.32297 0
M  V30 2849 C 369.427 -6.40075 2.62207 0
M  V30 2850 O 370.226 -5.92589 1.53712 0
M  V30 2851 C 368.09 -6.9454 2.18503 0
M  V30 2852 H 368.122 -7.23063 1.12091 0
M  V30 2853 H 369.305 -5.6025 3.37201 0
M  V30 2854 H 370.789 -7.35707 4.02681 0
M  V30 2855 H 369.095 -9.40912 3.9095 0
M  V30 2856 H 368.905 -8.29056 5.99158 0
M  V30 2857 H 367.275 -8.10073 5.25882 0
M  V30 2858 H 369.914 -6.30324 0.726794 0
M  V30 2859 P 371.772 -8.4349 2.47671 0
M  V30 2860 O 373.194 -8.94167 2.5964 0
M  V30 2861 O 371.412 -7.1704 3.19006 0
M  V30 2862 O 371.449 -8.16596 0.923387 0
M  V30 2863 C 371.289 -9.38437 0.108857 0
M  V30 2864 C 371.829 -9.08175 -1.28353 0
M  V30 2865 O 370.773 -8.44229 -1.84713 0
M  V30 2866 C 373.047 -8.18386 -1.42505 0
M  V30 2867 O 373.785 -8.3501 -2.60497 0
M  V30 2868 C 372.378 -6.80225 -1.25468 0
M  V30 2869 O 373.177 -5.81621 -1.91066 0
M  V30 2870 C 371.041 -7.02416 -1.9168 0
M  V30 2871 H 371.073 -6.6888 -2.96621 0
M  V30 2872 H 372.256 -6.53617 -0.192223 0
M  V30 2873 H 373.74 -8.36622 -0.589963 0
M  V30 2874 H 372.046 -10.0291 -1.79807 0
M  V30 2875 H 371.856 -10.2138 0.558219 0
M  V30 2876 H 370.226 -9.6579 0.0444202 0
M  V30 2877 H 372.865 -5.69556 -2.79637 0
M  V30 2878 P 374.722 -8.4349 -2.47671 0
M  V30 2879 O 376.144 -8.92593 -2.65 0
M  V30 2880 O 374.362 -7.7568 -1.19296 0
M  V30 2881 O 374.399 -7.36886 -3.63805 0
M  V30 2882 C 374.239 -7.95349 -4.982 0
M  V30 2883 C 374.779 -6.94612 -5.98974 0
M  V30 2884 O 373.723 -6.10347 -6.11815 0
M  V30 2885 C 375.997 -6.11426 -5.62335 0
M  V30 2886 O 376.735 -5.6162 -6.70584 0
M  V30 2887 C 375.328 -5.04409 -4.73308 0
M  V30 2888 O 376.127 -3.85992 -4.75183 0
M  V30 2889 C 373.991 -4.8728 -5.41006 0
M  V30 2890 H 374.023 -4.02333 -6.11157 0
M  V30 2891 H 375.206 -5.39466 -3.69543 0
M  V30 2892 H 376.69 -6.71916 -5.01943 0
M  V30 2893 H 374.996 -7.4649 -6.93477 0
M  V30 2894 H 374.806 -8.89416 -5.05237 0
M  V30 2895 H 373.176 -8.14876 -5.18409 0
M  V30 2896 H 375.815 -3.27957 -5.4317 0
M  V30 2897 P 377.673 -5.75688 -6.64379 0
M  V30 2898 O 379.095 -6.07758 -7.05656 0
M  V30 2899 O 377.313 -5.88047 -5.19722 0
M  V30 2900 O 377.35 -4.2322 -7.04443 0
M  V30 2901 C 377.19 -3.99743 -8.4911 0
M  V30 2902 C 377.73 -2.60487 -8.79329 0
M  V30 2903 O 376.675 -1.82684 -8.4467 0
M  V30 2904 C 378.948 -2.10343 -8.03628 0
M  V30 2905 O 379.686 -1.09919 -8.67766 0
M  V30 2906 C 378.28 -1.68446 -6.70876 0
M  V30 2907 O 379.078 -0.678026 -6.08333 0
M  V30 2908 C 376.942 -1.17436 -7.18567 0
M  V30 2909 N 375.899 -1.52699 -6.23988 0
M  V30 2910 C 375.961 -2.68084 -5.57824 0
M  V30 2911 N 374.916 -2.8189 -4.75643 0
M  V30 2912 C 374.182 -1.72373 -4.95155 0
M  V30 2913 C 372.876 -1.37653 -4.44996 0
M  V30 2914 O 372.143 -2.02239 -3.68445 0
M  V30 2915 N 372.446 -0.17675 -4.90782 0
M  V30 2916 C 373.195 0.645036 -5.78716 0
M  V30 2917 N 372.598 1.84214 -6.10618 0
M  V30 2918 N 374.348 0.321732 -6.30279 0
M  V30 2919 C 374.805 -0.87502 -5.86913 0
M  V30 2920 H 376.974 -0.0804732 -7.31656 0
M  V30 2921 H 378.157 -2.53998 -6.02444 0
M  V30 2922 H 379.642 -2.93095 -7.8582 0
M  V30 2923 H 377.947 -2.53065 -9.86973 0
M  V30 2924 H 377.757 -4.75072 -9.05887 0
M  V30 2925 H 376.126 -4.05244 -8.76668 0
M  V30 2926 H 371.55 0.152143 -4.60849 0
M  V30 2927 H 376.757 -3.41852 -5.69006 0
M  V30 2928 H 371.687 2.08538 -5.69521 0
M  V30 2929 H 373.063 2.4895 -6.75698 0
M  V30 2930 H 378.767 0.177619 -6.34151 0
M  V30 2931 P 380.624 -1.25109 -8.70152 0
M  V30 2932 O 382.025 -1.3516 -9.26897 0
M  V30 2933 O 380.246 -2.18141 -7.59181 0
M  V30 2934 O 380.301 0.248118 -8.21325 0
M  V30 2935 C 380.141 1.22779 -9.30434 0
M  V30 2936 C 380.681 2.56265 -8.80568 0
M  V30 2937 O 379.625 3.02944 -8.09255 0
M  V30 2938 C 381.898 2.57523 -7.89775 0
M  V30 2939 O 382.637 3.7668 -7.89438 0
M  V30 2940 C 381.231 2.20997 -6.55446 0
M  V30 2941 O 382.029 2.71851 -5.48419 0
M  V30 2942 C 379.893 2.89693 -6.67988 0
M  V30 2943 N 378.85 2.08895 -6.07487 0
M  V30 2944 C 377.815 2.72974 -5.43836 0
M  V30 2945 O 377.854 3.97779 -5.34036 0
M  V30 2946 N 376.803 2.0005 -4.91983 0
M  V30 2947 C 376.851 0.66501 -5.00098 0
M  V30 2948 N 375.841 -0.0305439 -4.4919 0
M  V30 2949 C 377.947 -0.0100979 -5.61099 0
M  V30 2950 C 378.913 0.74189 -6.14236 0
M  V30 2951 H 379.925 3.8874 -6.19774 0
M  V30 2952 H 381.108 1.12673 -6.44018 0
M  V30 2953 H 382.592 1.783 -8.19631 0
M  V30 2954 H 380.898 3.21673 -9.66791 0
M  V30 2955 H 380.707 0.901032 -10.1892 0
M  V30 2956 H 379.077 1.33036 -9.56493 0
M  V30 2957 H 377.995 -1.09591 -5.64358 0
M  V30 2958 H 379.759 0.260263 -6.6359 0
M  V30 2959 H 375.051 0.460194 -4.04793 0
M  V30 2960 H 375.846 -1.05716 -4.53953 0
M  V30 2961 H 381.813 3.62759 -5.33442 0
M  V30 2962 P 383.574 3.65191 -7.99657 0
M  V30 2963 O 384.996 3.89332 -8.45794 0
M  V30 2964 O 383.214 2.28472 -7.50807 0
M  V30 2965 O 383.251 4.64972 -6.77611 0
M  V30 2966 C 383.091 6.06319 -7.16352 0
M  V30 2967 C 383.631 6.91731 -6.02299 0
M  V30 2968 O 382.575 6.92449 -5.17064 0
M  V30 2969 C 384.849 6.43627 -5.25174 0
M  V30 2970 O 385.587 7.43686 -4.60469 0
M  V30 2971 C 384.18 5.40275 -4.31916 0
M  V30 2972 O 384.979 5.25279 -3.14438 0
M  V30 2973 C 382.843 6.04847 -4.05327 0
M  V30 2974 H 382.875 6.62195 -3.11261 0
M  V30 2975 H 384.058 4.42556 -4.81383 0
M  V30 2976 H 385.542 5.92458 -5.93643 0
M  V30 2977 H 383.848 7.92655 -6.402 0
M  V30 2978 H 383.658 6.26671 -8.0846 0
M  V30 2979 H 382.028 6.29101 -7.32804 0
M  V30 2980 H 384.667 5.84315 -2.47318 0
M  V30 2981 P 386.525 7.39546 -4.75277 0
M  V30 2982 O 387.947 7.84798 -5.01039 0
M  V30 2983 O 386.165 5.9812 -5.08098 0
M  V30 2984 O 386.202 7.57503 -3.1866 0
M  V30 2985 C 386.042 8.97357 -2.74833 0
M  V30 2986 C 386.582 9.07548 -1.32709 0
M  V30 2987 O 385.526 8.62072 -0.606159 0
M  V30 2988 C 387.8 8.25383 -0.938334 0
M  V30 2989 O 388.538 8.74577 0.146954 0
M  V30 2990 C 387.131 6.8802 -0.712559 0
M  V30 2991 O 387.93 6.1189 0.194655 0
M  V30 2992 C 385.794 7.27966 -0.139777 0
M  V30 2993 H 385.826 7.25354 0.961601 0
M  V30 2994 H 387.009 6.32557 -1.65702 0
M  V30 2995 H 388.493 8.19355 -1.79097 0
M  V30 2996 H 386.799 10.1294 -1.10029 0
M  V30 2997 H 386.609 9.64276 -3.41316 0
M  V30 2998 H 384.979 9.25417 -2.76357 0
M  V30 2999 H 387.618 6.25267 1.07847 0
M  V30 3000 P 389.475 8.791 1.973e-12 0
M  V30 3001 O 390.897 9.31096 0.027933 0
M  V30 3002 O 389.115 7.77869 -1.04071 0
M  V30 3003 O 389.152 8.09533 1.41463 0
M  V30 3004 C 388.992 9.0349 2.53943 0
M  V30 3005 C 389.532 8.35226 3.79016 0
M  V30 3006 O 388.476 7.57992 4.15078 0
M  V30 3007 C 390.75 7.45087 3.67298 0
M  V30 3008 O 391.488 7.27796 4.85194 0
M  V30 3009 C 390.081 6.17323 3.12027 0
M  V30 3010 O 390.88 5.04231 3.47188 0
M  V30 3011 C 388.744 6.19961 3.81809 0
M  V30 3012 H 388.776 5.58218 4.73051 0
M  V30 3013 H 389.959 6.21726 2.02589 0
M  V30 3014 H 391.443 7.86112 2.9231 0
M  V30 3015 H 389.749 9.11627 4.55076 0
M  V30 3016 H 389.559 9.9573 2.34194 0
M  V30 3017 H 387.929 9.2792 2.67832 0
M  V30 3018 H 390.568 4.67702 4.28772 0
M  V30 3019 P 392.426 7.39546 4.75277 0
M  V30 3020 O 393.848 7.81945 5.05847 0
M  V30 3021 O 392.066 7.1065 3.32998 0
M  V30 3022 O 392.103 6.04542 5.56673 0
M  V30 3023 C 391.943 6.22772 7.02095 0
M  V30 3024 C 392.483 4.97671 7.70322 0
M  V30 3025 O 391.428 4.13256 7.58987 0
M  V30 3026 C 393.701 4.28231 7.11815 0
M  V30 3027 O 394.439 3.49945 8.01648 0
M  V30 3028 C 393.033 3.5063 5.96244 0
M  V30 3029 O 393.831 2.36443 5.64589 0
M  V30 3030 C 391.695 3.15122 6.56374 0
M  V30 3031 N 390.652 3.22311 5.55692 0
M  V30 3032 C 390.714 4.14382 4.59701 0
M  V30 3033 N 389.669 4.04476 3.76958 0
M  V30 3034 C 388.935 3.04892 4.26534 0
M  V30 3035 C 387.629 2.57447 3.88189 0
M  V30 3036 O 386.896 2.9785 2.96543 0
M  V30 3037 N 387.199 1.55228 4.65922 0
M  V30 3038 C 387.948 1.01152 5.73447 0
M  V30 3039 N 387.351 -0.0472117 6.37783 0
M  V30 3040 N 389.101 1.467 6.13813 0
M  V30 3041 C 389.558 2.4931 5.38487 0
M  V30 3042 H 391.727 2.13853 6.99751 0
M  V30 3043 H 392.91 4.13438 5.06482 0
M  V30 3044 H 394.395 5.02614 6.71414 0
M  V30 3045 H 392.7 5.20877 8.75697 0
M  V30 3046 H 392.51 7.11046 7.35349 0
M  V30 3047 H 390.879 6.35815 7.26986 0
M  V30 3048 H 386.303 1.15238 4.46468 0
M  V30 3049 H 391.51 4.88312 4.49647 0
M  V30 3050 H 386.44 -0.396382 6.05203 0
M  V30 3051 H 387.816 -0.484997 7.18465 0
M  V30 3052 H 393.52 1.61619 6.13468 0
M  V30 3053 P 395.376 3.65191 7.99657 0
M  V30 3054 O 396.798 3.8425 8.48115 0
M  V30 3055 O 395.016 4.17805 6.64342 0
M  V30 3056 O 395.053 2.07613 7.95143 0
M  V30 3057 C 394.893 1.44328 9.27336 0
M  V30 3058 C 395.433 0.0220036 9.17197 0
M  V30 3059 O 394.377 -0.626867 8.61923 0
M  V30 3060 C 396.651 -0.24586 8.30336 0
M  V30 3061 O 397.389 -1.39011 8.63583 0
M  V30 3062 C 395.982 -0.273849 6.91158 0
M  V30 3063 O 396.781 -1.06348 6.02892 0
M  V30 3064 C 394.645 -0.897649 7.22545 0
M  V30 3065 H 394.677 -1.9841 7.04286 0
M  V30 3066 H 395.86 0.739928 6.497 0
M  V30 3067 H 397.344 0.60668 8.36503 0
M  V30 3068 H 395.65 -0.352479 10.1829 0
M  V30 3069 H 395.46 2.00611 10.0304 0
M  V30 3070 H 393.83 1.41843 9.55327 0
M  V30 3071 H 396.469 -1.95734 6.03555 0
M  V30 3072 P 398.327 -1.25109 8.70152 0
M  V30 3073 O 399.749 -1.35274 9.21221 0
M  V30 3074 O 397.967 -0.0769065 7.84762 0
M  V30 3075 O 398.004 -2.55232 7.81161 0
M  V30 3076 C 397.844 -3.79939 8.58154 0
M  V30 3077 C 398.384 -4.94023 7.72785 0
M  V30 3078 O 397.328 -5.18726 6.91205 0
M  V30 3079 C 399.602 -4.69597 6.85231 0
M  V30 3080 O 400.34 -5.83832 6.51337 0
M  V30 3081 C 398.933 -3.96706 5.66633 0
M  V30 3082 O 399.732 -4.15414 4.49689 0
M  V30 3083 C 397.596 -4.66153 5.59313 0
M  V30 3084 H 397.628 -5.47679 4.85214 0
M  V30 3085 H 398.811 -2.89008 5.86566 0
M  V30 3086 H 400.295 -4.0121 7.36511 0
M  V30 3087 H 398.601 -5.80182 8.37584 0
M  V30 3088 H 398.411 -3.73517 9.52265 0
M  V30 3089 H 396.781 -3.97163 8.80359 0
M  V30 3090 H 399.42 -4.90969 4.01921 0
M  V30 3091 P 401.278 -5.75688 6.64379 0
M  V30 3092 O 402.7 -6.11981 7.01997 0
M  V30 3093 O 400.918 -4.30744 6.56026 0
M  V30 3094 O 400.955 -6.37042 5.19165 0
M  V30 3095 C 400.795 -7.83578 5.16515 0
M  V30 3096 C 401.335 -8.33307 3.82977 0
M  V30 3097 O 400.28 -8.10074 3.01034 0
M  V30 3098 C 402.553 -7.65514 3.2257 0
M  V30 3099 O 403.291 -8.4329 2.32297 0
M  V30 3100 C 401.885 -6.40075 2.62207 0
M  V30 3101 O 402.683 -5.92492 1.53687 0
M  V30 3102 C 400.547 -6.9454 2.18503 0
M  V30 3103 N 399.504 -5.95905 2.39948 0
M  V30 3104 C 399.566 -5.13994 3.44742 0
M  V30 3105 N 398.521 -4.30684 3.46712 0
M  V30 3106 C 397.787 -4.65583 2.41086 0
M  V30 3107 C 396.481 -4.20877 1.99581 0
M  V30 3108 O 395.748 -3.35913 2.52616 0
M  V30 3109 N 396.051 -4.83271 0.873406 0
M  V30 3110 C 396.8 -5.82006 0.185129 0
M  V30 3111 N 396.203 -6.30619 -0.95439 0
M  V30 3112 N 397.953 -6.28443 0.578524 0
M  V30 3113 C 398.41 -5.68486 1.70138 0
M  V30 3114 H 400.579 -7.23063 1.12091 0
M  V30 3115 H 401.762 -5.60165 3.3715 0
M  V30 3116 H 403.247 -7.3611 4.01946 0
M  V30 3117 H 401.552 -9.40912 3.9095 0
M  V30 3118 H 401.362 -8.29056 5.99158 0
M  V30 3119 H 399.731 -8.10073 5.25882 0
M  V30 3120 H 395.155 -4.58323 0.505262 0
M  V30 3121 H 400.362 -5.14564 4.1935 0
M  V30 3122 H 395.292 -5.93402 -1.25364 0
M  V30 3123 H 396.668 -7.0425 -1.50254 0
M  V30 3124 H 402.372 -6.30224 0.72668 0
M  V30 3125 P 404.228 -8.4349 2.47671 0
M  V30 3126 O 405.65 -8.94167 2.5964 0
M  V30 3127 O 403.868 -7.1704 3.19006 0
M  V30 3128 O 403.905 -8.16596 0.923387 0
M  V30 3129 C 403.745 -9.38437 0.108857 0
M  V30 3130 C 404.285 -9.08175 -1.28353 0
M  V30 3131 O 403.229 -8.44229 -1.84713 0
M  V30 3132 C 405.503 -8.18386 -1.42505 0
M  V30 3133 O 406.241 -8.3501 -2.60497 0
M  V30 3134 C 404.834 -6.80225 -1.25468 0
M  V30 3135 O 405.633 -5.81621 -1.91066 0
M  V30 3136 C 403.497 -7.02416 -1.9168 0
M  V30 3137 H 403.529 -6.6888 -2.96621 0
M  V30 3138 H 404.712 -6.53617 -0.192223 0
M  V30 3139 H 406.196 -8.36622 -0.589963 0
M  V30 3140 H 404.502 -10.0291 -1.79807 0
M  V30 3141 H 404.312 -10.2138 0.558219 0
M  V30 3142 H 402.682 -9.6579 0.0444202 0
M  V30 3143 H 405.321 -5.69556 -2.79637 0
M  V30 3144 P 407.179 -8.4349 -2.47671 0
M  V30 3145 O 408.601 -8.92593 -2.65 0
M  V30 3146 O 406.819 -7.7568 -1.19296 0
M  V30 3147 O 406.856 -7.36886 -3.63805 0
M  V30 3148 C 406.696 -7.95349 -4.982 0
M  V30 3149 C 407.236 -6.94612 -5.98974 0
M  V30 3150 O 406.18 -6.10347 -6.11815 0
M  V30 3151 C 408.454 -6.11426 -5.62335 0
M  V30 3152 O 409.192 -5.6162 -6.70584 0
M  V30 3153 C 407.785 -5.04409 -4.73308 0
M  V30 3154 O 408.584 -3.85992 -4.75183 0
M  V30 3155 C 406.448 -4.8728 -5.41006 0
M  V30 3156 H 406.48 -4.02333 -6.11157 0
M  V30 3157 H 407.663 -5.39466 -3.69543 0
M  V30 3158 H 409.147 -6.71916 -5.01943 0
M  V30 3159 H 407.453 -7.4649 -6.93477 0
M  V30 3160 H 407.263 -8.89416 -5.05237 0
M  V30 3161 H 405.633 -8.14876 -5.18409 0
M  V30 3162 H 408.272 -3.27957 -5.4317 0
M  V30 3163 P 410.129 -5.75688 -6.64379 0
M  V30 3164 O 411.551 -6.07627 -7.05504 0
M  V30 3165 O 409.769 -5.88047 -5.19722 0
M  V30 3166 O 409.806 -4.2322 -7.04443 0
M  V30 3167 C 409.646 -3.99743 -8.4911 0
M  V30 3168 C 410.186 -2.60516 -8.79425 0
M  V30 3169 O 409.13 -1.82684 -8.4467 0
M  V30 3170 C 411.404 -2.10343 -8.03628 0
M  V30 3171 O 412.142 -1.09919 -8.67766 0
M  V30 3172 C 410.735 -1.68446 -6.70876 0
M  V30 3173 O 411.534 -0.678137 -6.08433 0
M  V30 3174 C 409.398 -1.17436 -7.18567 0
M  V30 3175 H 409.43 -0.0804732 -7.31656 0
M  V30 3176 H 410.613 -2.54037 -6.02537 0
M  V30 3177 H 412.097 -2.93881 -7.85526 0
M  V30 3178 H 410.403 -2.53065 -9.86973 0
M  V30 3179 H 410.213 -4.75072 -9.05887 0
M  V30 3180 H 408.583 -4.05244 -8.76668 0
M  V30 3181 H 411.222 0.177647 -6.34251 0
M  V30 3182 P 413.08 -1.25109 -8.70152 0
M  V30 3183 O 414.502 -1.29744 -9.22016 0
M  V30 3184 O 412.72 -2.13714 -7.55141 0
M  V30 3185 O 412.757 0.248149 -8.21425 0
M  V30 3186 C 412.597 1.22779 -9.30434 0
M  V30 3187 C 413.137 2.56293 -8.80664 0
M  V30 3188 O 412.081 3.02979 -8.09349 0
M  V30 3189 C 414.355 2.57523 -7.89775 0
M  V30 3190 O 415.093 3.7668 -7.89438 0
M  V30 3191 C 413.686 2.20997 -6.55446 0
M  V30 3192 O 414.485 2.71895 -5.48509 0
M  V30 3193 C 412.349 2.89693 -6.67988 0
M  V30 3194 H 412.381 3.88793 -6.19859 0
M  V30 3195 H 413.564 1.12046 -6.44229 0
M  V30 3196 H 415.048 1.7746 -8.19711 0
M  V30 3197 H 413.354 3.20706 -9.67112 0
M  V30 3198 H 413.164 0.901032 -10.1892 0
M  V30 3199 H 411.534 1.33049 -9.56592 0
M  V30 3200 H 414.173 3.57847 -5.23962 0
M  V30 3201 P 416.03 3.65191 -7.99657 0
M  V30 3202 O 417.451 3.89374 -8.45885 0
M  V30 3203 O 415.67 2.28472 -7.50807 0
M  V30 3204 O 415.707 4.64972 -6.77611 0
M  V30 3205 C 415.546 6.06383 -7.16428 0
M  V30 3206 C 416.087 6.91731 -6.02299 0
M  V30 3207 O 415.032 6.92369 -5.17005 0
M  V30 3208 C 417.305 6.43627 -5.25174 0
M  V30 3209 O 418.043 7.43686 -4.60469 0
M  V30 3210 C 416.637 5.40275 -4.31916 0
M  V30 3211 O 417.435 5.24878 -3.14911 0
M  V30 3212 C 415.299 6.04847 -4.05327 0
M  V30 3213 N 414.256 5.04166 -3.98114 0
M  V30 3214 C 414.425 3.84629 -4.59066 0
M  V30 3215 N 413.398 3.0363 -4.45343 0
M  V30 3216 C 412.513 3.76722 -3.68523 0
M  V30 3217 C 411.246 3.43528 -3.17088 0
M  V30 3218 N 410.647 2.23665 -3.37397 0
M  V30 3219 N 410.681 4.44526 -2.44231 0
M  V30 3220 C 411.283 5.65243 -2.20146 0
M  V30 3221 N 412.46 6.00221 -2.65453 0
M  V30 3222 C 413.035 5.00564 -3.39083 0
M  V30 3223 H 415.331 6.62104 -3.11218 0
M  V30 3224 H 416.514 4.42969 -4.80867 0
M  V30 3225 H 417.997 5.92458 -5.93643 0
M  V30 3226 H 416.303 7.93295 -6.39407 0
M  V30 3227 H 416.113 6.26671 -8.0846 0
M  V30 3228 H 414.483 6.29101 -7.32804 0
M  V30 3229 H 410.747 6.36894 -1.5883 0
M  V30 3230 H 415.325 3.58193 -5.14248 0
M  V30 3231 H 409.717 2.05145 -2.97047 0
M  V30 3232 H 411.121 1.51255 -3.92998 0
M  V30 3233 H 417.123 5.84223 -2.47279 0
M  V30 3234 P 418.981 7.39546 -4.75277 0
M  V30 3235 O 420.403 7.84798 -5.01039 0
M  V30 3236 O 418.621 5.9812 -5.08098 0
M  V30 3237 O 418.658 7.57503 -3.1866 0
M  V30 3238 C 418.498 8.97357 -2.74833 0
M  V30 3239 C 419.038 9.07548 -1.32709 0
M  V30 3240 O 417.982 8.62072 -0.606159 0
M  V30 3241 C 420.256 8.25383 -0.938334 0
M  V30 3242 O 420.994 8.74577 0.146954 0
M  V30 3243 C 419.587 6.8802 -0.712559 0
M  V30 3244 O 420.386 6.1189 0.194655 0
M  V30 3245 C 418.25 7.27966 -0.139777 0
M  V30 3246 H 418.282 7.25354 0.961601 0
M  V30 3247 H 419.465 6.32557 -1.65702 0
M  V30 3248 H 420.949 8.19355 -1.79097 0
M  V30 3249 H 419.255 10.1294 -1.10029 0
M  V30 3250 H 419.065 9.64276 -3.41316 0
M  V30 3251 H 417.435 9.25417 -2.76357 0
M  V30 3252 H 420.074 6.25267 1.07847 0
M  V30 3253 P 421.932 8.791 2.28317e-12 0
M  V30 3254 O 423.354 9.31096 0.027933 0
M  V30 3255 O 421.572 7.77869 -1.04071 0
M  V30 3256 O 421.609 8.09533 1.41463 0
M  V30 3257 C 421.449 9.0349 2.53943 0
M  V30 3258 C 421.989 8.35226 3.79016 0
M  V30 3259 O 420.933 7.57992 4.15078 0
M  V30 3260 C 423.207 7.45087 3.67298 0
M  V30 3261 O 423.945 7.27796 4.85194 0
M  V30 3262 C 422.538 6.17323 3.12027 0
M  V30 3263 O 423.337 5.04231 3.47188 0
M  V30 3264 C 421.201 6.19961 3.81809 0
M  V30 3265 H 421.233 5.58218 4.73051 0
M  V30 3266 H 422.416 6.21726 2.02589 0
M  V30 3267 H 423.9 7.86112 2.9231 0
M  V30 3268 H 422.206 9.11627 4.55076 0
M  V30 3269 H 422.016 9.9573 2.34194 0
M  V30 3270 H 420.386 9.2792 2.67832 0
M  V30 3271 H 423.025 4.67702 4.28772 0
M  V30 3272 P 424.882 7.39546 4.75277 0
M  V30 3273 O 426.304 7.81777 5.05738 0
M  V30 3274 O 424.522 7.1065 3.32998 0
M  V30 3275 O 424.559 6.04542 5.56673 0
M  V30 3276 C 424.399 6.22772 7.02095 0
M  V30 3277 C 424.939 4.97725 7.70406 0
M  V30 3278 O 423.883 4.13256 7.58987 0
M  V30 3279 C 426.157 4.28231 7.11815 0
M  V30 3280 O 426.895 3.49945 8.01648 0
M  V30 3281 C 425.488 3.5063 5.96244 0
M  V30 3282 O 426.287 2.36482 5.64681 0
M  V30 3283 C 424.151 3.15122 6.56374 0
M  V30 3284 H 424.183 2.13853 6.99751 0
M  V30 3285 H 425.366 4.13501 5.06559 0
M  V30 3286 H 426.85 5.03285 6.70911 0
M  V30 3287 H 425.156 5.20877 8.75697 0
M  V30 3288 H 424.966 7.11046 7.35349 0
M  V30 3289 H 423.336 6.35815 7.26986 0
M  V30 3290 H 425.975 1.61644 6.13565 0
M  V30 3291 P 427.833 3.65191 7.99657 0
M  V30 3292 O 429.255 3.8425 8.48115 0
M  V30 3293 O 427.473 4.17805 6.64342 0
M  V30 3294 O 427.51 2.07613 7.95143 0
M  V30 3295 C 427.35 1.44328 9.27336 0
M  V30 3296 C 427.89 0.0220036 9.17197 0
M  V30 3297 O 426.834 -0.626867 8.61923 0
M  V30 3298 C 429.108 -0.24586 8.30336 0
M  V30 3299 O 429.846 -1.39011 8.63583 0
M  V30 3300 C 428.439 -0.273849 6.91158 0
M  V30 3301 O 429.238 -1.06348 6.02892 0
M  V30 3302 C 427.102 -0.897649 7.22545 0
M  V30 3303 H 427.134 -1.9841 7.04286 0
M  V30 3304 H 428.317 0.739928 6.497 0
M  V30 3305 H 429.801 0.60668 8.36503 0
M  V30 3306 H 428.107 -0.352479 10.1829 0
M  V30 3307 H 427.917 2.00611 10.0304 0
M  V30 3308 H 426.287 1.41843 9.55327 0
M  V30 3309 H 428.926 -1.95734 6.03555 0
M  V30 3310 P 430.783 -1.25109 8.70152 0
M  V30 3311 O 432.205 -1.35274 9.21221 0
M  V30 3312 O 430.423 -0.0769065 7.84762 0
M  V30 3313 O 430.46 -2.55232 7.81161 0
M  V30 3314 C 430.3 -3.79939 8.58154 0
M  V30 3315 C 430.84 -4.94023 7.72785 0
M  V30 3316 O 429.784 -5.18726 6.91205 0
M  V30 3317 C 432.058 -4.69597 6.85231 0
M  V30 3318 O 432.796 -5.83832 6.51337 0
M  V30 3319 C 431.389 -3.96706 5.66633 0
M  V30 3320 O 432.188 -4.15414 4.49689 0
M  V30 3321 C 430.052 -4.66153 5.59313 0
M  V30 3322 H 430.084 -5.47679 4.85214 0
M  V30 3323 H 431.267 -2.89008 5.86566 0
M  V30 3324 H 432.751 -4.0121 7.36511 0
M  V30 3325 H 431.057 -5.80182 8.37584 0
M  V30 3326 H 430.867 -3.73517 9.52265 0
M  V30 3327 H 429.237 -3.97163 8.80359 0
M  V30 3328 H 431.876 -4.90969 4.01921 0
M  V30 3329 P 433.734 -5.75688 6.64379 0
M  V30 3330 O 435.156 -6.11849 7.01846 0
M  V30 3331 O 433.374 -4.30744 6.56026 0
M  V30 3332 O 433.411 -6.37042 5.19165 0
M  V30 3333 C 433.251 -7.83578 5.16515 0
M  V30 3334 C 433.791 -8.33398 3.83019 0
M  V30 3335 O 432.735 -8.10074 3.01034 0
M  V30 3336 C 435.009 -7.65514 3.2257 0
M  V30 3337 O 435.747 -8.4329 2.32297 0
M  V30 3338 C 434.34 -6.40075 2.62207 0
M  V30 3339 O 435.139 -5.92589 1.53712 0
M  V30 3340 C 433.003 -6.9454 2.18503 0
M  V30 3341 H 433.035 -7.23063 1.12091 0
M  V30 3342 H 434.218 -5.6025 3.37201 0
M  V30 3343 H 435.702 -7.35707 4.02681 0
M  V30 3344 H 434.008 -9.40912 3.9095 0
M  V30 3345 H 433.818 -8.29056 5.99158 0
M  V30 3346 H 432.188 -8.10073 5.25882 0
M  V30 3347 H 434.827 -6.30324 0.726794 0
M  V30 3348 P 436.684 -8.4349 2.47671 0
M  V30 3349 O 438.105 -8.94263 2.59668 0
M  V30 3350 O 436.324 -7.1704 3.19006 0
M  V30 3351 O 436.361 -8.16596 0.923387 0
M  V30 3352 C 436.2 -9.38537 0.108869 0
M  V30 3353 C 436.741 -9.08175 -1.28353 0
M  V30 3354 O 435.686 -8.44131 -1.84692 0
M  V30 3355 C 437.959 -8.18386 -1.42505 0
M  V30 3356 O 438.697 -8.3501 -2.60497 0
M  V30 3357 C 437.291 -6.80225 -1.25468 0
M  V30 3358 O 438.089 -5.81716 -1.90454 0
M  V30 3359 C 435.953 -7.02416 -1.9168 0
M  V30 3360 N 434.91 -6.31033 -1.20314 0
M  V30 3361 C 435.079 -5.98817 0.0994088 0
M  V30 3362 N 434.052 -5.35403 0.621694 0
M  V30 3363 C 433.167 -5.25212 -0.43376 0
M  V30 3364 C 431.9 -4.64602 -0.519722 0
M  V30 3365 N 431.301 -4.01457 0.519136 0
M  V30 3366 N 431.335 -4.7568 -1.76013 0
M  V30 3367 C 431.937 -5.3653 -2.83017 0
M  V30 3368 N 433.114 -5.93676 -2.79782 0
M  V30 3369 C 433.689 -5.84061 -1.56249 0
M  V30 3370 H 435.985 -6.68789 -2.9658 0
M  V30 3371 H 437.168 -6.53498 -0.198729 0
M  V30 3372 H 438.651 -8.36622 -0.589963 0
M  V30 3373 H 436.957 -10.0273 -1.8081 0
M  V30 3374 H 436.767 -10.2138 0.558219 0
M  V30 3375 H 435.137 -9.6579 0.0444202 0
M  V30 3376 H 431.401 -5.37113 -3.77321 0
M  V30 3377 H 435.979 -6.23209 0.660562 0
M  V30 3378 H 430.371 -3.58834 0.394862 0
M  V30 3379 H 431.775 -3.96059 1.43048 0
M  V30 3380 H 437.777 -5.69466 -2.79593 0
M  V30 3381 P 439.635 -8.4349 -2.47671 0
M  V30 3382 O 441.056 -8.92689 -2.65029 0
M  V30 3383 O 439.275 -7.7568 -1.19296 0
M  V30 3384 O 439.312 -7.36886 -3.63805 0
M  V30 3385 C 439.151 -7.95433 -4.98253 0
M  V30 3386 C 439.692 -6.94612 -5.98974 0
M  V30 3387 O 438.637 -6.10277 -6.11744 0
M  V30 3388 C 440.91 -6.11426 -5.62335 0
M  V30 3389 O 441.648 -5.6162 -6.70584 0
M  V30 3390 C 440.242 -5.04409 -4.73308 0
M  V30 3391 O 441.04 -3.86404 -4.74719 0
M  V30 3392 C 438.904 -4.8728 -5.41006 0
M  V30 3393 N 437.861 -4.65812 -4.42377 0
M  V30 3394 C 438.03 -5.09132 -3.15382 0
M  V30 3395 N 437.003 -4.84021 -2.3716 0
M  V30 3396 C 436.118 -4.18386 -3.20441 0
M  V30 3397 C 434.851 -3.6275 -2.94905 0
M  V30 3398 N 434.286 -3.05008 -4.05243 0
M  V30 3399 C 434.888 -2.98348 -5.28159 0
M  V30 3400 N 436.065 -3.48171 -5.56333 0
M  V30 3401 C 436.64 -4.06869 -4.47212 0
M  V30 3402 H 440.119 -5.39013 -3.70026 0
M  V30 3403 H 441.602 -6.71916 -5.01943 0
M  V30 3404 H 439.908 -7.45796 -6.94223 0
M  V30 3405 H 439.718 -8.89416 -5.05237 0
M  V30 3406 H 438.088 -8.14876 -5.18409 0
M  V30 3407 H 438.93 -5.59989 -2.81362 0
M  V30 3408 H 440.728 -3.27906 -5.43085 0
M  V30 3409 P 442.586 -5.75688 -6.64379 0
M  V30 3410 O 444.008 -6.07627 -7.05504 0
M  V30 3411 O 442.226 -5.88047 -5.19722 0
M  V30 3412 O 442.263 -4.2322 -7.04443 0
M  V30 3413 C 442.103 -3.99743 -8.4911 0
M  V30 3414 C 442.643 -2.60516 -8.79425 0
M  V30 3415 O 441.587 -1.82684 -8.4467 0
M  V30 3416 C 443.861 -2.10343 -8.03628 0
M  V30 3417 O 444.599 -1.09919 -8.67766 0
M  V30 3418 C 443.192 -1.68446 -6.70876 0
M  V30 3419 O 443.991 -0.678137 -6.08433 0
M  V30 3420 C 441.855 -1.17436 -7.18567 0
M  V30 3421 H 441.887 -0.0804732 -7.31656 0
M  V30 3422 H 443.07 -2.54037 -6.02537 0
M  V30 3423 H 444.554 -2.93881 -7.85526 0
M  V30 3424 H 442.86 -2.53065 -9.86973 0
M  V30 3425 H 442.67 -4.75072 -9.05887 0
M  V30 3426 H 441.04 -4.05244 -8.76668 0
M  V30 3427 H 443.679 0.177647 -6.34251 0
M  V30 3428 P 445.536 -1.25109 -8.70152 0
M  V30 3429 O 446.958 -1.29744 -9.22016 0
M  V30 3430 O 445.176 -2.13714 -7.55141 0
M  V30 3431 O 445.213 0.248149 -8.21425 0
M  V30 3432 C 445.053 1.22779 -9.30434 0
M  V30 3433 C 445.593 2.56293 -8.80664 0
M  V30 3434 O 444.537 3.02979 -8.09349 0
M  V30 3435 C 446.811 2.57523 -7.89775 0
M  V30 3436 O 447.549 3.7668 -7.89438 0
M  V30 3437 C 446.142 2.20997 -6.55446 0
M  V30 3438 O 446.941 2.71895 -5.48509 0
M  V30 3439 C 444.805 2.89693 -6.67988 0
M  V30 3440 H 444.837 3.88793 -6.19859 0
M  V30 3441 H 446.02 1.12046 -6.44229 0
M  V30 3442 H 447.504 1.7746 -8.19711 0
M  V30 3443 H 445.81 3.20706 -9.67112 0
M  V30 3444 H 445.62 0.901032 -10.1892 0
M  V30 3445 H 443.99 1.33049 -9.56592 0
M  V30 3446 H 446.629 3.57847 -5.23962 0
M  V30 3447 P 448.487 3.65191 -7.99657 0
M  V30 3448 O 449.908 3.89374 -8.45885 0
M  V30 3449 O 448.127 2.28472 -7.50807 0
M  V30 3450 O 448.164 4.64972 -6.77611 0
M  V30 3451 C 448.003 6.06383 -7.16428 0
M  V30 3452 C 448.544 6.91731 -6.02299 0
M  V30 3453 O 447.489 6.92369 -5.17005 0
M  V30 3454 C 449.762 6.43627 -5.25174 0
M  V30 3455 O 450.5 7.43686 -4.60469 0
M  V30 3456 C 449.094 5.40275 -4.31916 0
M  V30 3457 O 449.892 5.24878 -3.14911 0
M  V30 3458 C 447.756 6.04847 -4.05327 0
M  V30 3459 N 446.713 5.04166 -3.98114 0
M  V30 3460 C 446.882 3.84629 -4.59066 0
M  V30 3461 N 445.855 3.0363 -4.45343 0
M  V30 3462 C 444.97 3.76722 -3.68523 0
M  V30 3463 C 443.703 3.43528 -3.17088 0
M  V30 3464 N 443.138 4.44526 -2.44231 0
M  V30 3465 C 443.74 5.65243 -2.20146 0
M  V30 3466 N 444.917 6.00221 -2.65453 0
M  V30 3467 C 445.492 5.00564 -3.39083 0
M  V30 3468 H 448.971 4.42969 -4.80867 0
M  V30 3469 H 450.454 5.92458 -5.93643 0
M  V30 3470 H 448.76 7.93295 -6.39407 0
M  V30 3471 H 448.57 6.26671 -8.0846 0
M  V30 3472 H 446.94 6.29101 -7.32804 0
M  V30 3473 H 447.782 3.58193 -5.14248 0
M  V30 3474 H 449.58 5.84223 -2.47279 0
M  V30 3475 P 451.437 7.39546 -4.75277 0
M  V30 3476 O 452.858 7.84882 -5.01092 0
M  V30 3477 O 451.077 5.9812 -5.08098 0
M  V30 3478 O 451.114 7.57503 -3.1866 0
M  V30 3479 C 450.953 8.97452 -2.74862 0
M  V30 3480 C 451.494 9.07548 -1.32709 0
M  V30 3481 O 450.439 8.61972 -0.606089 0
M  V30 3482 C 452.712 8.25383 -0.938334 0
M  V30 3483 O 453.45 8.74577 0.146954 0
M  V30 3484 C 452.044 6.8802 -0.712559 0
M  V30 3485 O 452.842 6.1181 0.188505 0
M  V30 3486 C 450.706 7.27966 -0.139777 0
M  V30 3487 N 449.663 6.39368 -0.623421 0
M  V30 3488 C 449.832 5.71761 -1.78245 0
M  V30 3489 N 448.805 4.962 -2.10491 0
M  V30 3490 C 447.92 5.16158 -1.0635 0
M  V30 3491 C 446.653 4.60425 -0.810266 0
M  V30 3492 N 446.054 3.7057 -1.62914 0
M  V30 3493 N 446.088 5.06 0.348685 0
M  V30 3494 C 446.69 5.94532 1.20395 0
M  V30 3495 N 447.867 6.48452 1.01191 0
M  V30 3496 C 448.442 6.04423 -0.146291 0
M  V30 3497 H 450.738 7.25255 0.961469 0
M  V30 3498 H 451.921 6.32625 -1.65044 0
M  V30 3499 H 453.404 8.19355 -1.79097 0
M  V30 3500 H 451.71 10.1305 -1.09016 0
M  V30 3501 H 451.52 9.64276 -3.41316 0
M  V30 3502 H 449.89 9.25417 -2.76357 0
M  V30 3503 H 446.154 6.21659 2.10714 0
M  V30 3504 H 450.732 5.79354 -2.38959 0
M  V30 3505 H 445.124 3.33174 -1.38982 0
M  V30 3506 H 446.528 3.39714 -2.48836 0
M  V30 3507 H 452.53 6.25169 1.0783 0
M  V30 3508 P 454.388 8.791 2.59334e-12 0
M  V30 3509 O 455.81 9.31096 0.027933 0
M  V30 3510 O 454.028 7.77869 -1.04071 0
M  V30 3511 O 454.065 8.09533 1.41463 0
M  V30 3512 C 453.905 9.0349 2.53943 0
M  V30 3513 C 454.445 8.35226 3.79016 0
M  V30 3514 O 453.389 7.57992 4.15078 0
M  V30 3515 C 455.663 7.45087 3.67298 0
M  V30 3516 O 456.401 7.27796 4.85194 0
M  V30 3517 C 454.994 6.17323 3.12027 0
M  V30 3518 O 455.793 5.04231 3.47188 0
M  V30 3519 C 453.657 6.19961 3.81809 0
M  V30 3520 H 453.689 5.58218 4.73051 0
M  V30 3521 H 454.872 6.21726 2.02589 0
M  V30 3522 H 456.356 7.86112 2.9231 0
M  V30 3523 H 454.662 9.11627 4.55076 0
M  V30 3524 H 454.472 9.9573 2.34194 0
M  V30 3525 H 452.842 9.2792 2.67832 0
M  V30 3526 H 455.481 4.67702 4.28772 0
M  V30 3527 P 457.338 7.39546 4.75277 0
M  V30 3528 O 458.76 7.81945 5.05847 0
M  V30 3529 O 456.978 7.1065 3.32998 0
M  V30 3530 O 457.015 6.04542 5.56673 0
M  V30 3531 C 456.855 6.22772 7.02095 0
M  V30 3532 C 457.395 4.97671 7.70322 0
M  V30 3533 O 456.34 4.13256 7.58987 0
M  V30 3534 C 458.613 4.28231 7.11815 0
M  V30 3535 O 459.351 3.49945 8.01648 0
M  V30 3536 C 457.945 3.5063 5.96244 0
M  V30 3537 O 458.743 2.36443 5.64589 0
M  V30 3538 C 456.607 3.15122 6.56374 0
M  V30 3539 N 455.564 3.22311 5.55692 0
M  V30 3540 C 455.626 4.14382 4.59701 0
M  V30 3541 N 454.581 4.04476 3.76958 0
M  V30 3542 C 453.847 3.04892 4.26534 0
M  V30 3543 C 452.541 2.57447 3.88189 0
M  V30 3544 O 451.808 2.9785 2.96543 0
M  V30 3545 N 452.111 1.55228 4.65922 0
M  V30 3546 C 452.86 1.01152 5.73447 0
M  V30 3547 N 452.263 -0.0472117 6.37783 0
M  V30 3548 N 454.013 1.467 6.13813 0
M  V30 3549 C 454.47 2.4931 5.38487 0
M  V30 3550 H 456.639 2.13853 6.99751 0
M  V30 3551 H 457.822 4.13438 5.06482 0
M  V30 3552 H 459.307 5.02614 6.71414 0
M  V30 3553 H 457.612 5.20877 8.75697 0
M  V30 3554 H 457.422 7.11046 7.35349 0
M  V30 3555 H 455.791 6.35815 7.26986 0
M  V30 3556 H 451.215 1.15238 4.46468 0
M  V30 3557 H 456.422 4.88312 4.49647 0
M  V30 3558 H 451.352 -0.396382 6.05203 0
M  V30 3559 H 452.728 -0.484997 7.18465 0
M  V30 3560 H 458.432 1.61619 6.13468 0
M  V30 3561 P 460.289 3.65191 7.99657 0
M  V30 3562 O 461.711 3.8425 8.48115 0
M  V30 3563 O 459.929 4.17805 6.64342 0
M  V30 3564 O 459.966 2.07613 7.95143 0
M  V30 3565 C 459.806 1.44328 9.27336 0
M  V30 3566 C 460.346 0.0220036 9.17197 0
M  V30 3567 O 459.29 -0.626867 8.61923 0
M  V30 3568 C 461.564 -0.24586 8.30336 0
M  V30 3569 O 462.302 -1.39011 8.63583 0
M  V30 3570 C 460.895 -0.273849 6.91158 0
M  V30 3571 O 461.694 -1.06348 6.02892 0
M  V30 3572 C 459.558 -0.897649 7.22545 0
M  V30 3573 H 459.59 -1.9841 7.04286 0
M  V30 3574 H 460.773 0.739928 6.497 0
M  V30 3575 H 462.257 0.60668 8.36503 0
M  V30 3576 H 460.563 -0.352479 10.1829 0
M  V30 3577 H 460.373 2.00611 10.0304 0
M  V30 3578 H 458.743 1.41843 9.55327 0
M  V30 3579 H 461.382 -1.95734 6.03555 0
M  V30 3580 P 463.239 -1.25109 8.70152 0
M  V30 3581 O 464.661 -1.35274 9.21221 0
M  V30 3582 O 462.879 -0.0769065 7.84762 0
M  V30 3583 O 462.916 -2.55232 7.81161 0
M  V30 3584 C 462.756 -3.79939 8.58154 0
M  V30 3585 C 463.296 -4.94023 7.72785 0
M  V30 3586 O 462.24 -5.18726 6.91205 0
M  V30 3587 C 464.514 -4.69597 6.85231 0
M  V30 3588 O 465.252 -5.83832 6.51337 0
M  V30 3589 C 463.845 -3.96706 5.66633 0
M  V30 3590 O 464.644 -4.15414 4.49689 0
M  V30 3591 C 462.508 -4.66153 5.59313 0
M  V30 3592 H 462.54 -5.47679 4.85214 0
M  V30 3593 H 463.723 -2.89008 5.86566 0
M  V30 3594 H 465.207 -4.0121 7.36511 0
M  V30 3595 H 463.513 -5.80182 8.37584 0
M  V30 3596 H 463.323 -3.73517 9.52265 0
M  V30 3597 H 461.693 -3.97163 8.80359 0
M  V30 3598 H 464.332 -4.90969 4.01921 0
M  V30 3599 P 466.19 -5.75688 6.64379 0
M  V30 3600 O 467.612 -6.11849 7.01846 0
M  V30 3601 O 465.83 -4.30744 6.56026 0
M  V30 3602 O 465.867 -6.37042 5.19165 0
M  V30 3603 C 465.707 -7.83578 5.16515 0
M  V30 3604 C 466.247 -8.33398 3.83019 0
M  V30 3605 O 465.191 -8.10074 3.01034 0
M  V30 3606 C 467.465 -7.65514 3.2257 0
M  V30 3607 O 468.203 -8.4329 2.32297 0
M  V30 3608 C 466.796 -6.40075 2.62207 0
M  V30 3609 O 467.595 -5.92589 1.53712 0
M  V30 3610 C 465.459 -6.9454 2.18503 0
M  V30 3611 H 465.491 -7.23063 1.12091 0
M  V30 3612 H 466.674 -5.6025 3.37201 0
M  V30 3613 H 468.158 -7.35707 4.02681 0
M  V30 3614 H 466.464 -9.40912 3.9095 0
M  V30 3615 H 466.274 -8.29056 5.99158 0
M  V30 3616 H 464.644 -8.10073 5.25882 0
M  V30 3617 H 467.283 -6.30324 0.726794 0
M  V30 3618 P 469.141 -8.4349 2.47671 0
M  V30 3619 O 470.563 -8.94167 2.5964 0
M  V30 3620 O 468.781 -7.1704 3.19006 0
M  V30 3621 O 468.818 -8.16596 0.923387 0
M  V30 3622 C 468.658 -9.38437 0.108857 0
M  V30 3623 C 469.198 -9.08175 -1.28353 0
M  V30 3624 O 468.142 -8.44229 -1.84713 0
M  V30 3625 C 470.416 -8.18386 -1.42505 0
M  V30 3626 O 471.154 -8.3501 -2.60497 0
M  V30 3627 C 469.747 -6.80225 -1.25468 0
M  V30 3628 O 470.546 -5.81621 -1.91066 0
M  V30 3629 C 468.41 -7.02416 -1.9168 0
M  V30 3630 H 468.442 -6.6888 -2.96621 0
M  V30 3631 H 469.625 -6.53617 -0.192223 0
M  V30 3632 H 471.109 -8.36622 -0.589963 0
M  V30 3633 H 469.415 -10.0291 -1.79807 0
M  V30 3634 H 469.225 -10.2138 0.558219 0
M  V30 3635 H 467.595 -9.6579 0.0444202 0
M  V30 3636 H 470.234 -5.69556 -2.79637 0
M  V30 3637 P 472.091 -8.4349 -2.47671 0
M  V30 3638 O 473.513 -8.92593 -2.65 0
M  V30 3639 O 471.731 -7.7568 -1.19296 0
M  V30 3640 O 471.768 -7.36886 -3.63805 0
M  V30 3641 C 471.608 -7.95349 -4.982 0
M  V30 3642 C 472.148 -6.94612 -5.98974 0
M  V30 3643 O 471.092 -6.10347 -6.11815 0
M  V30 3644 C 473.366 -6.11426 -5.62335 0
M  V30 3645 O 474.104 -5.6162 -6.70584 0
M  V30 3646 C 472.697 -5.04409 -4.73308 0
M  V30 3647 O 473.496 -3.85992 -4.75183 0
M  V30 3648 C 471.36 -4.8728 -5.41006 0
M  V30 3649 H 471.392 -4.02333 -6.11157 0
M  V30 3650 H 472.575 -5.39466 -3.69543 0
M  V30 3651 H 474.059 -6.71916 -5.01943 0
M  V30 3652 H 472.365 -7.4649 -6.93477 0
M  V30 3653 H 472.175 -8.89416 -5.05237 0
M  V30 3654 H 470.545 -8.14876 -5.18409 0
M  V30 3655 H 473.184 -3.27957 -5.4317 0
M  V30 3656 P 475.042 -5.75688 -6.64379 0
M  V30 3657 O 476.464 -6.07627 -7.05504 0
M  V30 3658 O 474.682 -5.88047 -5.19722 0
M  V30 3659 O 474.719 -4.2322 -7.04443 0
M  V30 3660 C 474.559 -3.99743 -8.4911 0
M  V30 3661 C 475.099 -2.60516 -8.79425 0
M  V30 3662 O 474.043 -1.82684 -8.4467 0
M  V30 3663 C 476.317 -2.10343 -8.03628 0
M  V30 3664 O 477.055 -1.09919 -8.67766 0
M  V30 3665 C 475.648 -1.68446 -6.70876 0
M  V30 3666 O 476.447 -0.678137 -6.08433 0
M  V30 3667 C 474.311 -1.17436 -7.18567 0
M  V30 3668 H 474.343 -0.0804732 -7.31656 0
M  V30 3669 H 475.526 -2.54037 -6.02537 0
M  V30 3670 H 477.01 -2.93881 -7.85526 0
M  V30 3671 H 475.316 -2.53065 -9.86973 0
M  V30 3672 H 475.126 -4.75072 -9.05887 0
M  V30 3673 H 473.496 -4.05244 -8.76668 0
M  V30 3674 H 476.135 0.177647 -6.34251 0
M  V30 3675 P 477.992 -1.25109 -8.70152 0
M  V30 3676 O 479.414 -1.29744 -9.22016 0
M  V30 3677 O 477.632 -2.13714 -7.55141 0
M  V30 3678 O 477.669 0.248149 -8.21425 0
M  V30 3679 C 477.509 1.22779 -9.30434 0
M  V30 3680 C 478.049 2.56293 -8.80664 0
M  V30 3681 O 476.993 3.02979 -8.09349 0
M  V30 3682 C 479.267 2.57523 -7.89775 0
M  V30 3683 O 480.005 3.7668 -7.89438 0
M  V30 3684 C 478.598 2.20997 -6.55446 0
M  V30 3685 O 479.397 2.71895 -5.48509 0
M  V30 3686 C 477.261 2.89693 -6.67988 0
M  V30 3687 H 477.293 3.88793 -6.19859 0
M  V30 3688 H 478.476 1.12046 -6.44229 0
M  V30 3689 H 479.96 1.7746 -8.19711 0
M  V30 3690 H 478.266 3.20706 -9.67112 0
M  V30 3691 H 478.076 0.901032 -10.1892 0
M  V30 3692 H 476.446 1.33049 -9.56592 0
M  V30 3693 H 479.085 3.57847 -5.23962 0
M  V30 3694 P 480.943 3.65191 -7.99657 0
M  V30 3695 O 482.365 3.89332 -8.45794 0
M  V30 3696 O 480.583 2.28472 -7.50807 0
M  V30 3697 O 480.62 4.64972 -6.77611 0
M  V30 3698 C 480.46 6.06319 -7.16352 0
M  V30 3699 C 481 6.91731 -6.02299 0
M  V30 3700 O 479.944 6.92449 -5.17064 0
M  V30 3701 C 482.218 6.43627 -5.25174 0
M  V30 3702 O 482.956 7.43686 -4.60469 0
M  V30 3703 C 481.549 5.40275 -4.31916 0
M  V30 3704 O 482.348 5.25279 -3.14438 0
M  V30 3705 C 480.212 6.04847 -4.05327 0
M  V30 3706 H 480.244 6.62195 -3.11261 0
M  V30 3707 H 481.427 4.42556 -4.81383 0
M  V30 3708 H 482.911 5.92458 -5.93643 0
M  V30 3709 H 481.217 7.92655 -6.402 0
M  V30 3710 H 481.027 6.26671 -8.0846 0
M  V30 3711 H 479.397 6.29101 -7.32804 0
M  V30 3712 H 482.036 5.84315 -2.47318 0
M  V30 3713 P 483.893 7.39546 -4.75277 0
M  V30 3714 O 485.315 7.84798 -5.01039 0
M  V30 3715 O 483.533 5.9812 -5.08098 0
M  V30 3716 O 483.57 7.57503 -3.1866 0
M  V30 3717 C 483.41 8.97357 -2.74833 0
M  V30 3718 C 483.95 9.07548 -1.32709 0
M  V30 3719 O 482.894 8.62072 -0.606159 0
M  V30 3720 C 485.168 8.25383 -0.938334 0
M  V30 3721 O 485.906 8.74577 0.146954 0
M  V30 3722 C 484.499 6.8802 -0.712559 0
M  V30 3723 O 485.298 6.1189 0.194655 0
M  V30 3724 C 483.162 7.27966 -0.139777 0
M  V30 3725 H 483.194 7.25354 0.961601 0
M  V30 3726 H 484.377 6.32557 -1.65702 0
M  V30 3727 H 485.861 8.19355 -1.79097 0
M  V30 3728 H 484.167 10.1294 -1.10029 0
M  V30 3729 H 483.977 9.64276 -3.41316 0
M  V30 3730 H 482.347 9.25417 -2.76357 0
M  V30 3731 H 484.986 6.25267 1.07847 0
M  V30 3732 P 486.844 8.791 2.9035e-12 0
M  V30 3733 O 488.266 9.31096 0.027933 0
M  V30 3734 O 486.484 7.77869 -1.04071 0
M  V30 3735 O 486.521 8.09533 1.41463 0
M  V30 3736 C 486.361 9.0349 2.53943 0
M  V30 3737 C 486.901 8.35226 3.79016 0
M  V30 3738 O 485.845 7.57992 4.15078 0
M  V30 3739 C 488.119 7.45087 3.67298 0
M  V30 3740 O 488.857 7.27796 4.85194 0
M  V30 3741 C 487.45 6.17323 3.12027 0
M  V30 3742 O 488.249 5.04231 3.47188 0
M  V30 3743 C 486.113 6.19961 3.81809 0
M  V30 3744 H 486.145 5.58218 4.73051 0
M  V30 3745 H 487.328 6.21726 2.02589 0
M  V30 3746 H 488.812 7.86112 2.9231 0
M  V30 3747 H 487.118 9.11627 4.55076 0
M  V30 3748 H 486.928 9.9573 2.34194 0
M  V30 3749 H 485.298 9.2792 2.67832 0
M  V30 3750 H 487.937 4.67702 4.28772 0
M  V30 3751 P 489.795 7.39546 4.75277 0
M  V30 3752 O 491.217 7.81777 5.05738 0
M  V30 3753 O 489.435 7.1065 3.32998 0
M  V30 3754 O 489.472 6.04542 5.56673 0
M  V30 3755 C 489.312 6.22772 7.02095 0
M  V30 3756 C 489.852 4.97725 7.70406 0
M  V30 3757 O 488.796 4.13256 7.58987 0
M  V30 3758 C 491.07 4.28231 7.11815 0
M  V30 3759 O 491.808 3.49945 8.01648 0
M  V30 3760 C 490.401 3.5063 5.96244 0
M  V30 3761 O 491.2 2.36482 5.64681 0
M  V30 3762 C 489.064 3.15122 6.56374 0
M  V30 3763 H 489.096 2.13853 6.99751 0
M  V30 3764 H 490.279 4.13501 5.06559 0
M  V30 3765 H 491.763 5.03285 6.70911 0
M  V30 3766 H 490.069 5.20877 8.75697 0
M  V30 3767 H 489.879 7.11046 7.35349 0
M  V30 3768 H 488.249 6.35815 7.26986 0
M  V30 3769 H 490.888 1.61644 6.13565 0
M  V30 3770 P 492.745 3.65191 7.99657 0
M  V30 3771 O 494.167 3.8425 8.48115 0
M  V30 3772 O 492.385 4.17805 6.64342 0
M  V30 3773 O 492.422 2.07613 7.95143 0
M  V30 3774 C 492.262 1.44328 9.27336 0
M  V30 3775 C 492.802 0.0220036 9.17197 0
M  V30 3776 O 491.746 -0.626867 8.61923 0
M  V30 3777 C 494.02 -0.24586 8.30336 0
M  V30 3778 O 494.758 -1.39011 8.63583 0
M  V30 3779 C 493.351 -0.273849 6.91158 0
M  V30 3780 O 494.15 -1.06348 6.02892 0
M  V30 3781 C 492.014 -0.897649 7.22545 0
M  V30 3782 H 492.046 -1.9841 7.04286 0
M  V30 3783 H 493.229 0.739928 6.497 0
M  V30 3784 H 494.713 0.60668 8.36503 0
M  V30 3785 H 493.019 -0.352479 10.1829 0
M  V30 3786 H 492.829 2.00611 10.0304 0
M  V30 3787 H 491.199 1.41843 9.55327 0
M  V30 3788 H 493.838 -1.95734 6.03555 0
M  V30 3789 P 495.696 -1.25109 8.70152 0
M  V30 3790 O 497.118 -1.35303 9.21419 0
M  V30 3791 O 495.336 -0.0769065 7.84762 0
M  V30 3792 O 495.373 -2.55232 7.81161 0
M  V30 3793 C 495.213 -3.79939 8.58154 0
M  V30 3794 C 495.753 -4.93969 7.72701 0
M  V30 3795 O 494.698 -5.18726 6.91205 0
M  V30 3796 C 496.971 -4.69597 6.85231 0
M  V30 3797 O 497.709 -5.83832 6.51337 0
M  V30 3798 C 496.303 -3.96706 5.66633 0
M  V30 3799 O 497.101 -4.15346 4.49615 0
M  V30 3800 C 494.965 -4.66153 5.59313 0
M  V30 3801 N 493.922 -3.71582 5.24027 0
M  V30 3802 C 493.984 -2.46018 5.67902 0
M  V30 3803 N 492.939 -1.74868 5.24518 0
M  V30 3804 C 492.205 -2.61333 4.54528 0
M  V30 3805 C 490.899 -2.46162 3.95441 0
M  V30 3806 O 490.166 -1.46013 3.94122 0
M  V30 3807 N 490.469 -3.59334 3.34752 0
M  V30 3808 C 491.218 -4.79605 3.3023 0
M  V30 3809 N 490.621 -5.82109 2.6065 0
M  V30 3810 N 492.371 -4.97402 3.8843 0
M  V30 3811 C 492.828 -3.86258 4.50476 0
M  V30 3812 H 494.997 -5.47679 4.85214 0
M  V30 3813 H 496.18 -2.88964 5.86476 0
M  V30 3814 H 497.665 -4.01947 7.36109 0
M  V30 3815 H 495.97 -5.80182 8.37584 0
M  V30 3816 H 495.78 -3.73517 9.52265 0
M  V30 3817 H 494.149 -3.97163 8.80359 0
M  V30 3818 H 489.573 -3.5825 2.90294 0
M  V30 3819 H 494.78 -2.06161 6.30974 0
M  V30 3820 H 489.71 -5.66979 2.15354 0
M  V30 3821 H 491.086 -6.73686 2.54344 0
M  V30 3822 H 496.79 -4.90891 4.01857 0
M  V30 3823 P 498.646 -5.75688 6.64379 0
M  V30 3824 O 500.068 -6.11849 7.01846 0
M  V30 3825 O 498.286 -4.30744 6.56026 0
M  V30 3826 O 498.323 -6.37042 5.19165 0
M  V30 3827 C 498.163 -7.83578 5.16515 0
M  V30 3828 C 498.703 -8.33398 3.83019 0
M  V30 3829 O 497.647 -8.10074 3.01034 0
M  V30 3830 C 499.921 -7.65514 3.2257 0
M  V30 3831 O 500.659 -8.4329 2.32297 0
M  V30 3832 C 499.252 -6.40075 2.62207 0
M  V30 3833 O 500.051 -5.92589 1.53712 0
M  V30 3834 C 497.915 -6.9454 2.18503 0
M  V30 3835 H 497.947 -7.23063 1.12091 0
M  V30 3836 H 499.13 -5.6025 3.37201 0
M  V30 3837 H 500.614 -7.35707 4.02681 0
M  V30 3838 H 498.92 -9.40912 3.9095 0
M  V30 3839 H 498.73 -8.29056 5.99158 0
M  V30 3840 H 497.1 -8.10073 5.25882 0
M  V30 3841 H 499.739 -6.30324 0.726794 0
M  V30 3842 P 501.597 -8.4349 2.47671 0
M  V30 3843 O 503.019 -8.94167 2.5964 0
M  V30 3844 O 501.237 -7.1704 3.19006 0
M  V30 3845 O 501.274 -8.16596 0.923387 0
M  V30 3846 C 501.114 -9.38437 0.108857 0
M  V30 3847 C 501.654 -9.08175 -1.28353 0
M  V30 3848 O 500.598 -8.44229 -1.84713 0
M  V30 3849 C 502.872 -8.18386 -1.42505 0
M  V30 3850 O 503.61 -8.3501 -2.60497 0
M  V30 3851 C 502.203 -6.80225 -1.25468 0
M  V30 3852 O 503.002 -5.81621 -1.91066 0
M  V30 3853 C 500.866 -7.02416 -1.9168 0
M  V30 3854 H 500.898 -6.6888 -2.96621 0
M  V30 3855 H 502.081 -6.53617 -0.192223 0
M  V30 3856 H 503.565 -8.36622 -0.589963 0
M  V30 3857 H 501.871 -10.0291 -1.79807 0
M  V30 3858 H 501.681 -10.2138 0.558219 0
M  V30 3859 H 500.051 -9.6579 0.0444202 0
M  V30 3860 H 502.69 -5.69556 -2.79637 0
M  V30 3861 P 504.547 -8.4349 -2.47671 0
M  V30 3862 O 505.969 -8.92593 -2.65 0
M  V30 3863 O 504.187 -7.7568 -1.19296 0
M  V30 3864 O 504.224 -7.36886 -3.63805 0
M  V30 3865 C 504.064 -7.95349 -4.982 0
M  V30 3866 C 504.604 -6.94612 -5.98974 0
M  V30 3867 O 503.548 -6.10347 -6.11815 0
M  V30 3868 C 505.822 -6.11426 -5.62335 0
M  V30 3869 O 506.56 -5.6162 -6.70584 0
M  V30 3870 C 505.153 -5.04409 -4.73308 0
M  V30 3871 O 505.952 -3.85992 -4.75183 0
M  V30 3872 C 503.816 -4.8728 -5.41006 0
M  V30 3873 H 503.848 -4.02333 -6.11157 0
M  V30 3874 H 505.031 -5.39466 -3.69543 0
M  V30 3875 H 506.515 -6.71916 -5.01943 0
M  V30 3876 H 504.821 -7.4649 -6.93477 0
M  V30 3877 H 504.631 -8.89416 -5.05237 0
M  V30 3878 H 503.001 -8.14876 -5.18409 0
M  V30 3879 H 505.64 -3.27957 -5.4317 0
M  V30 3880 P 507.498 -5.75688 -6.64379 0
M  V30 3881 O 508.919 -6.07692 -7.0558 0
M  V30 3882 O 507.138 -5.88047 -5.19722 0
M  V30 3883 O 507.175 -4.2322 -7.04443 0
M  V30 3884 C 507.014 -3.99785 -8.49201 0
M  V30 3885 C 507.555 -2.60516 -8.79425 0
M  V30 3886 O 506.5 -1.82663 -8.44573 0
M  V30 3887 C 508.773 -2.10343 -8.03628 0
M  V30 3888 O 509.511 -1.09919 -8.67766 0
M  V30 3889 C 508.105 -1.68446 -6.70876 0
M  V30 3890 O 508.903 -0.684109 -6.08265 0
M  V30 3891 C 506.767 -1.17436 -7.18567 0
M  V30 3892 N 505.724 -1.52699 -6.23988 0
M  V30 3893 C 505.893 -2.578 -5.40574 0
M  V30 3894 N 504.866 -2.78966 -4.61193 0
M  V30 3895 C 503.981 -1.78725 -4.95769 0
M  V30 3896 C 502.714 -1.45727 -4.44207 0
M  V30 3897 N 502.115 -2.13994 -3.43613 0
M  V30 3898 N 502.149 -0.374977 -5.05812 0
M  V30 3899 C 502.751 0.345585 -6.05615 0
M  V30 3900 N 503.928 0.0787651 -6.56253 0
M  V30 3901 C 504.503 -1.00499 -5.96189 0
M  V30 3902 H 506.799 -0.0804622 -7.31556 0
M  V30 3903 H 507.982 -2.53396 -6.02698 0
M  V30 3904 H 509.465 -2.93881 -7.85526 0
M  V30 3905 H 507.771 -2.52078 -9.87225 0
M  V30 3906 H 507.581 -4.75072 -9.05887 0
M  V30 3907 H 505.951 -4.05244 -8.76668 0
M  V30 3908 H 502.215 1.20098 -6.4532 0
M  V30 3909 H 506.793 -3.18977 -5.3945 0
M  V30 3910 H 501.185 -1.84983 -3.10004 0
M  V30 3911 H 502.589 -2.9465 -3.00843 0
M  V30 3912 H 508.591 0.177619 -6.34151 0
M  V30 3913 P 510.449 -1.25109 -8.70152 0
M  V30 3914 O 511.87 -1.29758 -9.22115 0
M  V30 3915 O 510.089 -2.13714 -7.55141 0
M  V30 3916 O 510.126 0.248149 -8.21425 0
M  V30 3917 C 509.965 1.22792 -9.30533 0
M  V30 3918 C 510.506 2.56293 -8.80664 0
M  V30 3919 O 509.451 3.02944 -8.09255 0
M  V30 3920 C 511.724 2.57523 -7.89775 0
M  V30 3921 O 512.462 3.7668 -7.89438 0
M  V30 3922 C 511.056 2.20997 -6.55446 0
M  V30 3923 O 511.854 2.71302 -5.48691 0
M  V30 3924 C 509.718 2.89693 -6.67988 0
M  V30 3925 N 508.675 2.08895 -6.07487 0
M  V30 3926 C 508.844 0.753809 -5.94137 0
M  V30 3927 N 507.817 0.146592 -5.38801 0
M  V30 3928 C 506.932 1.1768 -5.13693 0
M  V30 3929 C 505.665 1.17563 -4.52477 0
M  V30 3930 N 505.1 2.41918 -4.45789 0
M  V30 3931 C 505.702 3.56493 -4.90792 0
M  V30 3932 N 506.879 3.61423 -5.47817 0
M  V30 3933 C 507.454 2.37779 -5.5588 0
M  V30 3934 H 510.933 1.12673 -6.44018 0
M  V30 3935 H 512.416 1.7746 -8.19711 0
M  V30 3936 H 510.722 3.21673 -9.66791 0
M  V30 3937 H 510.532 0.901032 -10.1892 0
M  V30 3938 H 508.902 1.33049 -9.56592 0
M  V30 3939 H 509.744 0.233081 -6.26266 0
M  V30 3940 H 511.542 3.5779 -5.23879 0
M  V30 3941 P 513.399 3.65191 -7.99657 0
M  V30 3942 O 514.82 3.89374 -8.45885 0
M  V30 3943 O 513.039 2.28472 -7.50807 0
M  V30 3944 O 513.076 4.64972 -6.77611 0
M  V30 3945 C 512.915 6.06383 -7.16428 0
M  V30 3946 C 513.456 6.91731 -6.02299 0
M  V30 3947 O 512.401 6.92369 -5.17005 0
M  V30 3948 C 514.674 6.43627 -5.25174 0
M  V30 3949 O 515.412 7.43686 -4.60469 0
M  V30 3950 C 514.006 5.40275 -4.31916 0
M  V30 3951 O 514.804 5.24878 -3.14911 0
M  V30 3952 C 512.668 6.04847 -4.05327 0
M  V30 3953 N 511.625 5.04166 -3.98114 0
M  V30 3954 C 511.794 3.84629 -4.59066 0
M  V30 3955 N 510.767 3.0363 -4.45343 0
M  V30 3956 C 509.882 3.76722 -3.68523 0
M  V30 3957 C 508.615 3.43528 -3.17088 0
M  V30 3958 N 508.016 2.23665 -3.37397 0
M  V30 3959 N 508.05 4.44526 -2.44231 0
M  V30 3960 C 508.652 5.65243 -2.20146 0
M  V30 3961 N 509.829 6.00221 -2.65453 0
M  V30 3962 C 510.404 5.00564 -3.39083 0
M  V30 3963 H 512.7 6.62104 -3.11218 0
M  V30 3964 H 513.883 4.42969 -4.80867 0
M  V30 3965 H 515.366 5.92458 -5.93643 0
M  V30 3966 H 513.672 7.93295 -6.39407 0
M  V30 3967 H 513.482 6.26671 -8.0846 0
M  V30 3968 H 511.852 6.29101 -7.32804 0
M  V30 3969 H 508.116 6.36894 -1.5883 0
M  V30 3970 H 512.694 3.58193 -5.14248 0
M  V30 3971 H 507.086 2.05145 -2.97047 0
M  V30 3972 H 508.49 1.51255 -3.92998 0
M  V30 3973 H 514.492 5.84223 -2.47279 0
M  V30 3974 P 516.35 7.39546 -4.75277 0
M  V30 3975 O 517.772 7.84798 -5.01039 0
M  V30 3976 O 515.99 5.9812 -5.08098 0
M  V30 3977 O 516.027 7.57503 -3.1866 0
M  V30 3978 C 515.867 8.97357 -2.74833 0
M  V30 3979 C 516.407 9.07548 -1.32709 0
M  V30 3980 O 515.351 8.62072 -0.606159 0
M  V30 3981 C 517.625 8.25383 -0.938334 0
M  V30 3982 O 518.363 8.74577 0.146954 0
M  V30 3983 C 516.956 6.8802 -0.712559 0
M  V30 3984 O 517.755 6.1189 0.194655 0
M  V30 3985 C 515.619 7.27966 -0.139777 0
M  V30 3986 H 515.651 7.25354 0.961601 0
M  V30 3987 H 516.834 6.32557 -1.65702 0
M  V30 3988 H 518.318 8.19355 -1.79097 0
M  V30 3989 H 516.624 10.1294 -1.10029 0
M  V30 3990 H 516.434 9.64276 -3.41316 0
M  V30 3991 H 514.804 9.25417 -2.76357 0
M  V30 3992 H 517.443 6.25267 1.07847 0
M  V30 3993 P 519.3 8.791 3.21367e-12 0
M  V30 3994 O 520.701 9.36698 -0.018734 0
M  V30 3995 O 518.922 7.82499 -1.07878 0
M  V30 3996 O 518.977 8.09434 1.41446 0
M  V30 3997 C 518.817 9.0349 2.53943 0
M  V30 3998 C 519.357 8.35135 3.78975 0
M  V30 3999 O 518.301 7.57904 4.1503 0
M  V30 4000 C 520.574 7.45087 3.67298 0
M  V30 4001 O 521.313 7.27796 4.85194 0
M  V30 4002 C 519.907 6.17323 3.12027 0
M  V30 4003 O 520.705 5.04149 3.47132 0
M  V30 4004 C 518.569 6.19961 3.81809 0
M  V30 4005 N 517.526 5.71575 2.93223 0
M  V30 4006 C 516.491 4.99452 3.47592 0
M  V30 4007 O 516.53 4.7199 4.69732 0
M  V30 4008 N 515.479 4.58505 2.6803 0
M  V30 4009 C 515.527 4.85544 1.36995 0
M  V30 4010 C 516.623 5.55532 0.788532 0
M  V30 4011 C 517.589 5.97426 1.60849 0
M  V30 4012 H 518.601 5.58142 4.72986 0
M  V30 4013 H 519.784 6.21428 2.0318 0
M  V30 4014 H 521.268 7.85913 2.93131 0
M  V30 4015 H 519.574 9.11171 4.55987 0
M  V30 4016 H 519.383 9.9573 2.34194 0
M  V30 4017 H 517.753 9.27824 2.67805 0
M  V30 4018 H 516.671 5.7421 -0.281588 0
M  V30 4019 H 518.435 6.53132 1.202 0
M  V30 4020 H 520.489 4.76386 4.34983 0
M  V30 4021 P 522.251 7.39546 4.75277 0
M  V30 4022 O 523.672 7.81861 5.05793 0
M  V30 4023 O 521.891 7.1065 3.32998 0
M  V30 4024 O 521.928 6.04542 5.56673 0
M  V30 4025 C 521.767 6.22839 7.02169 0
M  V30 4026 C 522.308 4.97725 7.70406 0
M  V30 4027 O 521.253 4.13208 7.58899 0
M  V30 4028 C 523.526 4.28231 7.11815 0
M  V30 4029 O 524.264 3.49945 8.01648 0
M  V30 4030 C 522.858 3.5063 5.96244 0
M  V30 4031 O 523.656 2.37008 5.64352 0
M  V30 4032 C 521.52 3.15122 6.56374 0
M  V30 4033 N 520.477 3.22311 5.55692 0
M  V30 4034 C 520.646 3.99655 4.46046 0
M  V30 4035 N 519.619 3.97599 3.63918 0
M  V30 4036 C 518.734 3.11159 4.25334 0
M  V30 4037 C 517.467 2.64972 3.85157 0
M  V30 4038 N 516.902 1.78482 4.74759 0
M  V30 4039 C 517.504 1.37463 5.90819 0
M  V30 4040 N 518.681 1.7733 6.31889 0
M  V30 4041 C 519.256 2.64393 5.43725 0
M  V30 4042 H 522.735 4.12931 5.06895 0
M  V30 4043 H 524.218 5.03285 6.70911 0
M  V30 4044 H 522.524 5.20001 8.76217 0
M  V30 4045 H 522.334 7.11046 7.35349 0
M  V30 4046 H 520.704 6.35815 7.26986 0
M  V30 4047 H 521.546 4.58037 4.27732 0
M  V30 4048 H 523.344 1.61619 6.13468 0
M  V30 4049 P 525.201 3.65191 7.99657 0
M  V30 4050 O 526.623 3.8425 8.48115 0
M  V30 4051 O 524.841 4.17805 6.64342 0
M  V30 4052 O 524.878 2.07613 7.95143 0
M  V30 4053 C 524.718 1.44328 9.27336 0
M  V30 4054 C 525.258 0.0220036 9.17197 0
M  V30 4055 O 524.202 -0.626867 8.61923 0
M  V30 4056 C 526.476 -0.24586 8.30336 0
M  V30 4057 O 527.214 -1.39011 8.63583 0
M  V30 4058 C 525.807 -0.273849 6.91158 0
M  V30 4059 O 526.606 -1.06348 6.02892 0
M  V30 4060 C 524.47 -0.897649 7.22545 0
M  V30 4061 H 524.502 -1.9841 7.04286 0
M  V30 4062 H 525.685 0.739928 6.497 0
M  V30 4063 H 527.169 0.60668 8.36503 0
M  V30 4064 H 525.475 -0.352479 10.1829 0
M  V30 4065 H 525.285 2.00611 10.0304 0
M  V30 4066 H 523.655 1.41843 9.55327 0
M  V30 4067 H 526.294 -1.95734 6.03555 0
M  V30 4068 P 528.152 -1.25109 8.70152 0
M  V30 4069 O 529.573 -1.35288 9.2132 0
M  V30 4070 O 527.792 -0.0769065 7.84762 0
M  V30 4071 O 527.829 -2.55232 7.81161 0
M  V30 4072 C 527.668 -3.79979 8.58246 0
M  V30 4073 C 528.209 -4.94023 7.72785 0
M  V30 4074 O 527.154 -5.18666 6.91125 0
M  V30 4075 C 529.427 -4.69597 6.85231 0
M  V30 4076 O 530.165 -5.83832 6.51337 0
M  V30 4077 C 528.759 -3.96706 5.66633 0
M  V30 4078 O 529.557 -4.14896 4.5003 0
M  V30 4079 C 527.421 -4.66153 5.59313 0
M  V30 4080 N 526.378 -3.71582 5.24027 0
M  V30 4081 C 526.547 -2.39715 5.48833 0
M  V30 4082 N 525.52 -1.65863 5.12845 0
M  V30 4083 C 524.635 -2.57637 4.5973 0
M  V30 4084 C 523.368 -2.40278 4.01027 0
M  V30 4085 N 522.769 -1.19549 3.86744 0
M  V30 4086 N 522.803 -3.57711 3.59575 0
M  V30 4087 C 523.405 -4.80324 3.70476 0
M  V30 4088 N 524.582 -5.01121 4.23801 0
M  V30 4089 C 525.157 -3.84757 4.66372 0
M  V30 4090 H 527.453 -5.47604 4.85148 0
M  V30 4091 H 528.636 -2.8955 5.86187 0
M  V30 4092 H 530.119 -4.0121 7.36511 0
M  V30 4093 H 528.425 -5.81019 8.37003 0
M  V30 4094 H 528.235 -3.73517 9.52265 0
M  V30 4095 H 526.605 -3.97163 8.80359 0
M  V30 4096 H 522.869 -5.66348 3.3183 0
M  V30 4097 H 527.447 -1.98804 5.94332 0
M  V30 4098 H 521.839 -1.13147 3.4281 0
M  V30 4099 H 523.243 -0.344074 4.19692 0
M  V30 4100 H 529.245 -4.90891 4.01857 0
M  V30 4101 P 531.103 -5.75688 6.64379 0
M  V30 4102 O 532.525 -6.11849 7.01846 0
M  V30 4103 O 530.743 -4.30744 6.56026 0
M  V30 4104 O 530.78 -6.37042 5.19165 0
M  V30 4105 C 530.62 -7.83578 5.16515 0
M  V30 4106 C 531.16 -8.33398 3.83019 0
M  V30 4107 O 530.104 -8.10074 3.01034 0
M  V30 4108 C 532.378 -7.65514 3.2257 0
M  V30 4109 O 533.116 -8.4329 2.32297 0
M  V30 4110 C 531.709 -6.40075 2.62207 0
M  V30 4111 O 532.508 -5.92589 1.53712 0
M  V30 4112 C 530.372 -6.9454 2.18503 0
M  V30 4113 H 530.404 -7.23063 1.12091 0
M  V30 4114 H 531.587 -5.6025 3.37201 0
M  V30 4115 H 533.071 -7.35707 4.02681 0
M  V30 4116 H 531.377 -9.40912 3.9095 0
M  V30 4117 H 531.187 -8.29056 5.99158 0
M  V30 4118 H 529.557 -8.10073 5.25882 0
M  V30 4119 H 532.196 -6.30324 0.726794 0
M  V30 4120 P 534.053 -8.4349 2.47671 0
M  V30 4121 O 535.475 -8.94167 2.5964 0
M  V30 4122 O 533.693 -7.1704 3.19006 0
M  V30 4123 O 533.73 -8.16596 0.923387 0
M  V30 4124 C 533.57 -9.38437 0.108857 0
M  V30 4125 C 534.11 -9.08175 -1.28353 0
M  V30 4126 O 533.054 -8.44229 -1.84713 0
M  V30 4127 C 535.328 -8.18386 -1.42505 0
M  V30 4128 O 536.066 -8.3501 -2.60497 0
M  V30 4129 C 534.659 -6.80225 -1.25468 0
M  V30 4130 O 535.458 -5.81621 -1.91066 0
M  V30 4131 C 533.322 -7.02416 -1.9168 0
M  V30 4132 H 533.354 -6.6888 -2.96621 0
M  V30 4133 H 534.537 -6.53617 -0.192223 0
M  V30 4134 H 536.021 -8.36622 -0.589963 0
M  V30 4135 H 534.327 -10.0291 -1.79807 0
M  V30 4136 H 534.137 -10.2138 0.558219 0
M  V30 4137 H 532.507 -9.6579 0.0444202 0
M  V30 4138 H 535.146 -5.69556 -2.79637 0
M  V30 4139 P 537.004 -8.4349 -2.47671 0
M  V30 4140 O 538.425 -8.92689 -2.65029 0
M  V30 4141 O 536.644 -7.7568 -1.19296 0
M  V30 4142 O 536.681 -7.36886 -3.63805 0
M  V30 4143 C 536.52 -7.95433 -4.98253 0
M  V30 4144 C 537.061 -6.94612 -5.98974 0
M  V30 4145 O 536.006 -6.10277 -6.11744 0
M  V30 4146 C 538.279 -6.11426 -5.62335 0
M  V30 4147 O 539.017 -5.6162 -6.70584 0
M  V30 4148 C 537.611 -5.04409 -4.73308 0
M  V30 4149 O 538.409 -3.86404 -4.74719 0
M  V30 4150 C 536.273 -4.8728 -5.41006 0
M  V30 4151 N 535.23 -4.65812 -4.42377 0
M  V30 4152 C 535.399 -5.09132 -3.15382 0
M  V30 4153 N 534.372 -4.84021 -2.3716 0
M  V30 4154 C 533.487 -4.18386 -3.20441 0
M  V30 4155 C 532.22 -3.6275 -2.94905 0
M  V30 4156 N 531.621 -3.65794 -1.73372 0
M  V30 4157 N 531.655 -3.05008 -4.05243 0
M  V30 4158 C 532.257 -2.98348 -5.28159 0
M  V30 4159 N 533.434 -3.48171 -5.56333 0
M  V30 4160 C 534.009 -4.06869 -4.47212 0
M  V30 4161 H 536.305 -4.02278 -6.11074 0
M  V30 4162 H 537.488 -5.39013 -3.70026 0
M  V30 4163 H 538.971 -6.71916 -5.01943 0
M  V30 4164 H 537.277 -7.45796 -6.94223 0
M  V30 4165 H 537.087 -8.89416 -5.05237 0
M  V30 4166 H 535.457 -8.14876 -5.18409 0
M  V30 4167 H 531.721 -2.47853 -6.07807 0
M  V30 4168 H 536.299 -5.59989 -2.81362 0
M  V30 4169 H 530.691 -3.23218 -1.60782 0
M  V30 4170 H 532.095 -4.10523 -0.937856 0
M  V30 4171 H 538.097 -3.27906 -5.43085 0
M  V30 4172 P 539.954 -5.75688 -6.64379 0
M  V30 4173 O 541.376 -6.07627 -7.05504 0
M  V30 4174 O 539.594 -5.88047 -5.19722 0
M  V30 4175 O 539.631 -4.2322 -7.04443 0
M  V30 4176 C 539.471 -3.99743 -8.4911 0
M  V30 4177 C 540.011 -2.60516 -8.79425 0
M  V30 4178 O 538.955 -1.82684 -8.4467 0
M  V30 4179 C 541.229 -2.10343 -8.03628 0
M  V30 4180 O 541.967 -1.09919 -8.67766 0
M  V30 4181 C 540.56 -1.68446 -6.70876 0
M  V30 4182 O 541.359 -0.678137 -6.08433 0
M  V30 4183 C 539.223 -1.17436 -7.18567 0
M  V30 4184 H 539.255 -0.0804732 -7.31656 0
M  V30 4185 H 540.438 -2.54037 -6.02537 0
M  V30 4186 H 541.922 -2.93881 -7.85526 0
M  V30 4187 H 540.228 -2.53065 -9.86973 0
M  V30 4188 H 540.038 -4.75072 -9.05887 0
M  V30 4189 H 538.408 -4.05244 -8.76668 0
M  V30 4190 H 541.047 0.177647 -6.34251 0
M  V30 4191 P 542.905 -1.25109 -8.70152 0
M  V30 4192 O 544.327 -1.29744 -9.22016 0
M  V30 4193 O 542.545 -2.13714 -7.55141 0
M  V30 4194 O 542.582 0.248149 -8.21425 0
M  V30 4195 C 542.422 1.22779 -9.30434 0
M  V30 4196 C 542.962 2.56293 -8.80664 0
M  V30 4197 O 541.906 3.02979 -8.09349 0
M  V30 4198 C 544.18 2.57523 -7.89775 0
M  V30 4199 O 544.918 3.7668 -7.89438 0
M  V30 4200 C 543.511 2.20997 -6.55446 0
M  V30 4201 O 544.31 2.71895 -5.48509 0
M  V30 4202 C 542.174 2.89693 -6.67988 0
M  V30 4203 H 542.206 3.88793 -6.19859 0
M  V30 4204 H 543.389 1.12046 -6.44229 0
M  V30 4205 H 544.873 1.7746 -8.19711 0
M  V30 4206 H 543.179 3.20706 -9.67112 0
M  V30 4207 H 542.989 0.901032 -10.1892 0
M  V30 4208 H 541.359 1.33049 -9.56592 0
M  V30 4209 H 543.998 3.57847 -5.23962 0
M  V30 4210 P 545.855 3.65191 -7.99657 0
M  V30 4211 O 547.277 3.89332 -8.45794 0
M  V30 4212 O 545.495 2.28472 -7.50807 0
M  V30 4213 O 545.532 4.64972 -6.77611 0
M  V30 4214 C 545.372 6.06319 -7.16352 0
M  V30 4215 C 545.912 6.91731 -6.02299 0
M  V30 4216 O 544.856 6.92449 -5.17064 0
M  V30 4217 C 547.13 6.43627 -5.25174 0
M  V30 4218 O 547.868 7.43686 -4.60469 0
M  V30 4219 C 546.461 5.40275 -4.31916 0
M  V30 4220 O 547.26 5.25279 -3.14438 0
M  V30 4221 C 545.124 6.04847 -4.05327 0
M  V30 4222 H 545.156 6.62195 -3.11261 0
M  V30 4223 H 546.339 4.42556 -4.81383 0
M  V30 4224 H 547.823 5.92458 -5.93643 0
M  V30 4225 H 546.129 7.92655 -6.402 0
M  V30 4226 H 545.939 6.26671 -8.0846 0
M  V30 4227 H 544.309 6.29101 -7.32804 0
M  V30 4228 H 546.948 5.84315 -2.47318 0
M  V30 4229 P 548.806 7.39546 -4.75277 0
M  V30 4230 O 550.228 7.84798 -5.01039 0
M  V30 4231 O 548.446 5.9812 -5.08098 0
M  V30 4232 O 548.483 7.57503 -3.1866 0
M  V30 4233 C 548.323 8.97357 -2.74833 0
M  V30 4234 C 548.863 9.07548 -1.32709 0
M  V30 4235 O 547.807 8.62072 -0.606159 0
M  V30 4236 C 550.081 8.25383 -0.938334 0
M  V30 4237 O 550.819 8.74577 0.146954 0
M  V30 4238 C 549.412 6.8802 -0.712559 0
M  V30 4239 O 550.211 6.1189 0.194655 0
M  V30 4240 C 548.075 7.27966 -0.139777 0
M  V30 4241 H 548.107 7.25354 0.961601 0
M  V30 4242 H 549.29 6.32557 -1.65702 0
M  V30 4243 H 550.774 8.19355 -1.79097 0
M  V30 4244 H 549.08 10.1294 -1.10029 0
M  V30 4245 H 548.89 9.64276 -3.41316 0
M  V30 4246 H 547.26 9.25417 -2.76357 0
M  V30 4247 H 549.899 6.25267 1.07847 0
M  V30 4248 P 551.757 8.791 3.52383e-12 0
M  V30 4249 O 553.179 9.31096 0.027933 0
M  V30 4250 O 551.397 7.77869 -1.04071 0
M  V30 4251 O 551.434 8.09533 1.41463 0
M  V30 4252 C 551.274 9.0349 2.53943 0
M  V30 4253 C 551.814 8.35226 3.79016 0
M  V30 4254 O 550.758 7.57992 4.15078 0
M  V30 4255 C 553.032 7.45087 3.67298 0
M  V30 4256 O 553.77 7.27796 4.85194 0
M  V30 4257 C 552.363 6.17323 3.12027 0
M  V30 4258 O 553.162 5.04231 3.47188 0
M  V30 4259 C 551.026 6.19961 3.81809 0
M  V30 4260 H 551.058 5.58218 4.73051 0
M  V30 4261 H 552.241 6.21726 2.02589 0
M  V30 4262 H 553.725 7.86112 2.9231 0
M  V30 4263 H 552.031 9.11627 4.55076 0
M  V30 4264 H 551.841 9.9573 2.34194 0
M  V30 4265 H 550.211 9.2792 2.67832 0
M  V30 4266 H 552.85 4.67702 4.28772 0
M  V30 4267 P 554.707 7.39546 4.75277 0
M  V30 4268 O 556.129 7.81777 5.05738 0
M  V30 4269 O 554.347 7.1065 3.32998 0
M  V30 4270 O 554.384 6.04542 5.56673 0
M  V30 4271 C 554.224 6.22772 7.02095 0
M  V30 4272 C 554.764 4.97725 7.70406 0
M  V30 4273 O 553.708 4.13256 7.58987 0
M  V30 4274 C 555.982 4.28231 7.11815 0
M  V30 4275 O 556.72 3.49945 8.01648 0
M  V30 4276 C 555.313 3.5063 5.96244 0
M  V30 4277 O 556.112 2.36482 5.64681 0
M  V30 4278 C 553.976 3.15122 6.56374 0
M  V30 4279 H 554.008 2.13853 6.99751 0
M  V30 4280 H 555.191 4.13501 5.06559 0
M  V30 4281 H 556.675 5.03285 6.70911 0
M  V30 4282 H 554.981 5.20877 8.75697 0
M  V30 4283 H 554.791 7.11046 7.35349 0
M  V30 4284 H 553.161 6.35815 7.26986 0
M  V30 4285 H 555.8 1.61644 6.13565 0
M  V30 4286 P 557.658 3.65191 7.99657 0
M  V30 4287 O 559.08 3.8425 8.48115 0
M  V30 4288 O 557.298 4.17805 6.64342 0
M  V30 4289 O 557.335 2.07613 7.95143 0
M  V30 4290 C 557.175 1.44328 9.27336 0
M  V30 4291 C 557.715 0.0220036 9.17197 0
M  V30 4292 O 556.659 -0.626867 8.61923 0
M  V30 4293 C 558.933 -0.24586 8.30336 0
M  V30 4294 O 559.671 -1.39011 8.63583 0
M  V30 4295 C 558.264 -0.273849 6.91158 0
M  V30 4296 O 559.063 -1.06348 6.02892 0
M  V30 4297 C 556.927 -0.897649 7.22545 0
M  V30 4298 H 556.959 -1.9841 7.04286 0
M  V30 4299 H 558.142 0.739928 6.497 0
M  V30 4300 H 559.626 0.60668 8.36503 0
M  V30 4301 H 557.932 -0.352479 10.1829 0
M  V30 4302 H 557.742 2.00611 10.0304 0
M  V30 4303 H 556.112 1.41843 9.55327 0
M  V30 4304 H 558.751 -1.95734 6.03555 0
M  V30 4305 P 560.608 -1.25109 8.70152 0
M  V30 4306 O 562.03 -1.35274 9.21221 0
M  V30 4307 O 560.248 -0.0769065 7.84762 0
M  V30 4308 O 560.285 -2.55232 7.81161 0
M  V30 4309 C 560.125 -3.79939 8.58154 0
M  V30 4310 C 560.665 -4.94023 7.72785 0
M  V30 4311 O 559.609 -5.18726 6.91205 0
M  V30 4312 C 561.883 -4.69597 6.85231 0
M  V30 4313 O 562.621 -5.83832 6.51337 0
M  V30 4314 C 561.214 -3.96706 5.66633 0
M  V30 4315 O 562.013 -4.15414 4.49689 0
M  V30 4316 C 559.877 -4.66153 5.59313 0
M  V30 4317 H 559.909 -5.47679 4.85214 0
M  V30 4318 H 561.092 -2.89008 5.86566 0
M  V30 4319 H 562.576 -4.0121 7.36511 0
M  V30 4320 H 560.882 -5.80182 8.37584 0
M  V30 4321 H 560.692 -3.73517 9.52265 0
M  V30 4322 H 559.062 -3.97163 8.80359 0
M  V30 4323 H 561.701 -4.90969 4.01921 0
M  V30 4324 P 563.559 -5.75688 6.64379 0
M  V30 4325 O 564.981 -6.11849 7.01846 0
M  V30 4326 O 563.199 -4.30744 6.56026 0
M  V30 4327 O 563.236 -6.37042 5.19165 0
M  V30 4328 C 563.076 -7.83578 5.16515 0
M  V30 4329 C 563.616 -8.33398 3.83019 0
M  V30 4330 O 562.56 -8.10074 3.01034 0
M  V30 4331 C 564.834 -7.65514 3.2257 0
M  V30 4332 O 565.572 -8.4329 2.32297 0
M  V30 4333 C 564.165 -6.40075 2.62207 0
M  V30 4334 O 564.964 -5.92589 1.53712 0
M  V30 4335 C 562.828 -6.9454 2.18503 0
M  V30 4336 H 562.86 -7.23063 1.12091 0
M  V30 4337 H 564.043 -5.6025 3.37201 0
M  V30 4338 H 565.527 -7.35707 4.02681 0
M  V30 4339 H 563.833 -9.40912 3.9095 0
M  V30 4340 H 563.643 -8.29056 5.99158 0
M  V30 4341 H 562.013 -8.10073 5.25882 0
M  V30 4342 H 564.652 -6.30324 0.726794 0
M  V30 4343 P 566.509 -8.4349 2.47671 0
M  V30 4344 O 567.931 -8.94167 2.5964 0
M  V30 4345 O 566.149 -7.1704 3.19006 0
M  V30 4346 O 566.186 -8.16596 0.923387 0
M  V30 4347 C 566.026 -9.38437 0.108857 0
M  V30 4348 C 566.566 -9.08175 -1.28353 0
M  V30 4349 O 565.51 -8.44229 -1.84713 0
M  V30 4350 C 567.784 -8.18386 -1.42505 0
M  V30 4351 O 568.522 -8.3501 -2.60497 0
M  V30 4352 C 567.115 -6.80225 -1.25468 0
M  V30 4353 O 567.914 -5.81621 -1.91066 0
M  V30 4354 C 565.778 -7.02416 -1.9168 0
M  V30 4355 H 565.81 -6.6888 -2.96621 0
M  V30 4356 H 566.993 -6.53617 -0.192223 0
M  V30 4357 H 568.477 -8.36622 -0.589963 0
M  V30 4358 H 566.783 -10.0291 -1.79807 0
M  V30 4359 H 566.593 -10.2138 0.558219 0
M  V30 4360 H 564.963 -9.6579 0.0444202 0
M  V30 4361 H 567.602 -5.69556 -2.79637 0
M  V30 4362 P 569.46 -8.4349 -2.47671 0
M  V30 4363 O 570.882 -8.92593 -2.65 0
M  V30 4364 O 569.1 -7.7568 -1.19296 0
M  V30 4365 O 569.137 -7.36886 -3.63805 0
M  V30 4366 C 568.977 -7.95349 -4.982 0
M  V30 4367 C 569.517 -6.94612 -5.98974 0
M  V30 4368 O 568.461 -6.10347 -6.11815 0
M  V30 4369 C 570.735 -6.11426 -5.62335 0
M  V30 4370 O 571.473 -5.6162 -6.70584 0
M  V30 4371 C 570.066 -5.04409 -4.73308 0
M  V30 4372 O 570.865 -3.85992 -4.75183 0
M  V30 4373 C 568.729 -4.8728 -5.41006 0
M  V30 4374 H 568.761 -4.02333 -6.11157 0
M  V30 4375 H 569.944 -5.39466 -3.69543 0
M  V30 4376 H 571.428 -6.71916 -5.01943 0
M  V30 4377 H 569.734 -7.4649 -6.93477 0
M  V30 4378 H 569.544 -8.89416 -5.05237 0
M  V30 4379 H 567.914 -8.14876 -5.18409 0
M  V30 4380 H 570.553 -3.27957 -5.4317 0
M  V30 4381 P 572.411 -5.75688 -6.64379 0
M  V30 4382 O 573.833 -6.07627 -7.05504 0
M  V30 4383 O 572.051 -5.88047 -5.19722 0
M  V30 4384 O 572.088 -4.2322 -7.04443 0
M  V30 4385 C 571.928 -3.99743 -8.4911 0
M  V30 4386 C 572.468 -2.60516 -8.79425 0
M  V30 4387 O 571.412 -1.82684 -8.4467 0
M  V30 4388 C 573.686 -2.10343 -8.03628 0
M  V30 4389 O 574.424 -1.09919 -8.67766 0
M  V30 4390 C 573.017 -1.68446 -6.70876 0
M  V30 4391 O 573.816 -0.678137 -6.08433 0
M  V30 4392 C 571.68 -1.17436 -7.18567 0
M  V30 4393 H 571.712 -0.0804732 -7.31656 0
M  V30 4394 H 572.895 -2.54037 -6.02537 0
M  V30 4395 H 574.379 -2.93881 -7.85526 0
M  V30 4396 H 572.685 -2.53065 -9.86973 0
M  V30 4397 H 572.495 -4.75072 -9.05887 0
M  V30 4398 H 570.865 -4.05244 -8.76668 0
M  V30 4399 H 573.504 0.177647 -6.34251 0
M  V30 4400 P 575.361 -1.25109 -8.70152 0
M  V30 4401 O 576.762 -1.3516 -9.26897 0
M  V30 4402 O 574.983 -2.18141 -7.59181 0
M  V30 4403 O 575.038 0.248118 -8.21325 0
M  V30 4404 C 574.878 1.22779 -9.30434 0
M  V30 4405 C 575.418 2.56265 -8.80568 0
M  V30 4406 O 574.362 3.02944 -8.09255 0
M  V30 4407 C 576.635 2.57523 -7.89775 0
M  V30 4408 O 577.374 3.7668 -7.89438 0
M  V30 4409 C 575.968 2.20997 -6.55446 0
M  V30 4410 O 576.766 2.71851 -5.48419 0
M  V30 4411 C 574.63 2.89693 -6.67988 0
M  V30 4412 N 573.587 2.08895 -6.07487 0
M  V30 4413 C 572.552 2.72974 -5.43836 0
M  V30 4414 O 572.591 3.97779 -5.34036 0
M  V30 4415 N 571.54 2.0005 -4.91983 0
M  V30 4416 C 571.588 0.66501 -5.00098 0
M  V30 4417 N 570.578 -0.0305439 -4.4919 0
M  V30 4418 C 572.684 -0.0100979 -5.61099 0
M  V30 4419 C 573.65 0.74189 -6.14236 0
M  V30 4420 H 574.662 3.8874 -6.19774 0
M  V30 4421 H 575.845 1.12673 -6.44018 0
M  V30 4422 H 577.329 1.783 -8.19631 0
M  V30 4423 H 575.635 3.21673 -9.66791 0
M  V30 4424 H 575.444 0.901032 -10.1892 0
M  V30 4425 H 573.814 1.33036 -9.56493 0
M  V30 4426 H 572.732 -1.09591 -5.64358 0
M  V30 4427 H 574.496 0.260263 -6.6359 0
M  V30 4428 H 569.788 0.460194 -4.04793 0
M  V30 4429 H 570.583 -1.05716 -4.53953 0
M  V30 4430 H 576.55 3.62759 -5.33442 0
M  V30 4431 P 578.312 3.65191 -7.99657 0
M  V30 4432 O 579.734 3.89332 -8.45794 0
M  V30 4433 O 577.952 2.28472 -7.50807 0
M  V30 4434 O 577.989 4.64972 -6.77611 0
M  V30 4435 C 577.829 6.06319 -7.16352 0
M  V30 4436 C 578.369 6.91731 -6.02299 0
M  V30 4437 O 577.313 6.92449 -5.17064 0
M  V30 4438 C 579.587 6.43627 -5.25174 0
M  V30 4439 O 580.325 7.43686 -4.60469 0
M  V30 4440 C 578.918 5.40275 -4.31916 0
M  V30 4441 O 579.717 5.25279 -3.14438 0
M  V30 4442 C 577.581 6.04847 -4.05327 0
M  V30 4443 H 577.613 6.62195 -3.11261 0
M  V30 4444 H 578.796 4.42556 -4.81383 0
M  V30 4445 H 580.28 5.92458 -5.93643 0
M  V30 4446 H 578.586 7.92655 -6.402 0
M  V30 4447 H 578.396 6.26671 -8.0846 0
M  V30 4448 H 576.766 6.29101 -7.32804 0
M  V30 4449 H 579.405 5.84315 -2.47318 0
M  V30 4450 P 581.262 7.39546 -4.75277 0
M  V30 4451 O 582.683 7.84882 -5.01092 0
M  V30 4452 O 580.902 5.9812 -5.08098 0
M  V30 4453 O 580.939 7.57503 -3.1866 0
M  V30 4454 C 580.778 8.97452 -2.74862 0
M  V30 4455 C 581.319 9.07548 -1.32709 0
M  V30 4456 O 580.264 8.61972 -0.606089 0
M  V30 4457 C 582.537 8.25383 -0.938334 0
M  V30 4458 O 583.275 8.74577 0.146954 0
M  V30 4459 C 581.869 6.8802 -0.712559 0
M  V30 4460 O 582.667 6.1181 0.188505 0
M  V30 4461 C 580.531 7.27966 -0.139777 0
M  V30 4462 N 579.488 6.39368 -0.623421 0
M  V30 4463 C 579.657 5.71761 -1.78245 0
M  V30 4464 N 578.63 4.962 -2.10491 0
M  V30 4465 C 577.745 5.16158 -1.0635 0
M  V30 4466 C 576.478 4.60425 -0.810266 0
M  V30 4467 N 575.913 5.06 0.348685 0
M  V30 4468 C 576.515 5.94532 1.20395 0
M  V30 4469 N 577.692 6.48452 1.01191 0
M  V30 4470 C 578.267 6.04423 -0.146291 0
M  V30 4471 H 581.746 6.32625 -1.65044 0
M  V30 4472 H 583.229 8.19355 -1.79097 0
M  V30 4473 H 581.535 10.1305 -1.09016 0
M  V30 4474 H 581.345 9.64276 -3.41316 0
M  V30 4475 H 579.715 9.25417 -2.76357 0
M  V30 4476 H 580.557 5.79354 -2.38959 0
M  V30 4477 H 582.355 6.25169 1.0783 0
M  V30 4478 P 584.213 8.791 3.834e-12 0
M  V30 4479 O 585.634 9.31196 0.027936 0
M  V30 4480 O 583.853 7.77869 -1.04071 0
M  V30 4481 O 583.89 8.09533 1.41463 0
M  V30 4482 C 583.729 9.03587 2.5397 0
M  V30 4483 C 584.27 8.35226 3.79016 0
M  V30 4484 O 583.215 7.57904 4.1503 0
M  V30 4485 C 585.488 7.45087 3.67298 0
M  V30 4486 O 586.226 7.27796 4.85194 0
M  V30 4487 C 584.82 6.17323 3.12027 0
M  V30 4488 O 585.618 5.04496 3.46627 0
M  V30 4489 C 583.482 6.19961 3.81809 0
M  V30 4490 N 582.439 5.71575 2.93223 0
M  V30 4491 C 582.608 5.77362 1.59168 0
M  V30 4492 N 581.581 5.3123 0.911893 0
M  V30 4493 C 580.696 4.91717 1.89588 0
M  V30 4494 C 579.429 4.3114 1.8076 0
M  V30 4495 N 578.864 4.06823 3.02898 0
M  V30 4496 C 579.466 4.35062 4.22711 0
M  V30 4497 N 580.643 4.90805 4.35707 0
M  V30 4498 C 581.218 5.16382 3.14469 0
M  V30 4499 H 584.697 6.21428 2.0318 0
M  V30 4500 H 586.18 7.86112 2.9231 0
M  V30 4501 H 584.486 9.11171 4.55987 0
M  V30 4502 H 584.296 9.9573 2.34194 0
M  V30 4503 H 582.666 9.2792 2.67832 0
M  V30 4504 H 583.508 6.16575 1.12198 0
M  V30 4505 H 585.306 4.67628 4.28704 0
M  V30 4506 P 587.163 7.39546 4.75277 0
M  V30 4507 O 588.585 7.81777 5.05738 0
M  V30 4508 O 586.803 7.1065 3.32998 0
M  V30 4509 O 586.84 6.04542 5.56673 0
M  V30 4510 C 586.68 6.22772 7.02095 0
M  V30 4511 C 587.22 4.97725 7.70406 0
M  V30 4512 O 586.164 4.13256 7.58987 0
M  V30 4513 C 588.438 4.28231 7.11815 0
M  V30 4514 O 589.176 3.49945 8.01648 0
M  V30 4515 C 587.769 3.5063 5.96244 0
M  V30 4516 O 588.568 2.36482 5.64681 0
M  V30 4517 C 586.432 3.15122 6.56374 0
M  V30 4518 H 586.464 2.13853 6.99751 0
M  V30 4519 H 587.647 4.13501 5.06559 0
M  V30 4520 H 589.131 5.03285 6.70911 0
M  V30 4521 H 587.437 5.20877 8.75697 0
M  V30 4522 H 587.247 7.11046 7.35349 0
M  V30 4523 H 585.617 6.35815 7.26986 0
M  V30 4524 H 588.256 1.61644 6.13565 0
M  V30 4525 P 590.114 3.65191 7.99657 0
M  V30 4526 O 591.515 3.90823 8.51272 0
M  V30 4527 O 589.736 4.23191 6.66972 0
M  V30 4528 O 589.791 2.07587 7.95046 0
M  V30 4529 C 589.631 1.44328 9.27336 0
M  V30 4530 C 590.171 0.0220012 9.17097 0
M  V30 4531 O 589.115 -0.626794 8.61824 0
M  V30 4532 C 591.388 -0.24586 8.30336 0
M  V30 4533 O 592.127 -1.39011 8.63583 0
M  V30 4534 C 590.721 -0.273849 6.91158 0
M  V30 4535 O 591.519 -1.06331 6.02794 0
M  V30 4536 C 589.383 -0.897649 7.22545 0
M  V30 4537 N 588.34 -0.292839 6.41732 0
M  V30 4538 C 587.305 -1.08701 5.98712 0
M  V30 4539 O 587.344 -2.31211 6.24471 0
M  V30 4540 N 586.293 -0.533391 5.28415 0
M  V30 4541 C 586.341 0.770866 4.98576 0
M  V30 4542 C 587.437 1.59049 5.38086 0
M  V30 4543 C 588.403 1.01866 6.10256 0
M  V30 4544 H 589.415 -1.98383 7.04189 0
M  V30 4545 H 590.598 0.733318 6.49674 0
M  V30 4546 H 592.082 0.598386 8.36663 0
M  V30 4547 H 590.388 -0.362662 10.1825 0
M  V30 4548 H 590.197 2.00611 10.0304 0
M  V30 4549 H 588.567 1.41828 9.55228 0
M  V30 4550 H 587.485 2.6415 5.10622 0
M  V30 4551 H 589.249 1.61983 6.44042 0
M  V30 4552 H 591.303 -1.97777 6.14035 0
M  V30 4553 P 593.065 -1.25109 8.70152 0
M  V30 4554 O 594.487 -1.35274 9.21221 0
M  V30 4555 O 592.705 -0.0769065 7.84762 0
M  V30 4556 O 592.742 -2.55232 7.81161 0
M  V30 4557 C 592.582 -3.79939 8.58154 0
M  V30 4558 C 593.122 -4.94023 7.72785 0
M  V30 4559 O 592.066 -5.18726 6.91205 0
M  V30 4560 C 594.34 -4.69597 6.85231 0
M  V30 4561 O 595.078 -5.83832 6.51337 0
M  V30 4562 C 593.671 -3.96706 5.66633 0
M  V30 4563 O 594.47 -4.15414 4.49689 0
M  V30 4564 C 592.334 -4.66153 5.59313 0
M  V30 4565 H 592.366 -5.47679 4.85214 0
M  V30 4566 H 593.549 -2.89008 5.86566 0
M  V30 4567 H 595.033 -4.0121 7.36511 0
M  V30 4568 H 593.339 -5.80182 8.37584 0
M  V30 4569 H 593.149 -3.73517 9.52265 0
M  V30 4570 H 591.519 -3.97163 8.80359 0
M  V30 4571 H 594.158 -4.90969 4.01921 0
M  V30 4572 P 596.015 -5.75688 6.64379 0
M  V30 4573 O 597.437 -6.11849 7.01846 0
M  V30 4574 O 595.655 -4.30744 6.56026 0
M  V30 4575 O 595.692 -6.37042 5.19165 0
M  V30 4576 C 595.532 -7.83578 5.16515 0
M  V30 4577 C 596.072 -8.33398 3.83019 0
M  V30 4578 O 595.016 -8.10074 3.01034 0
M  V30 4579 C 597.29 -7.65514 3.2257 0
M  V30 4580 O 598.028 -8.4329 2.32297 0
M  V30 4581 C 596.621 -6.40075 2.62207 0
M  V30 4582 O 597.42 -5.92589 1.53712 0
M  V30 4583 C 595.284 -6.9454 2.18503 0
M  V30 4584 H 595.316 -7.23063 1.12091 0
M  V30 4585 H 596.499 -5.6025 3.37201 0
M  V30 4586 H 597.983 -7.35707 4.02681 0
M  V30 4587 H 596.289 -9.40912 3.9095 0
M  V30 4588 H 596.099 -8.29056 5.99158 0
M  V30 4589 H 594.469 -8.10073 5.25882 0
M  V30 4590 H 597.108 -6.30324 0.726794 0
M  V30 4591 P 598.966 -8.4349 2.47671 0
M  V30 4592 O 600.388 -8.94167 2.5964 0
M  V30 4593 O 598.606 -7.1704 3.19006 0
M  V30 4594 O 598.643 -8.16596 0.923387 0
M  V30 4595 C 598.483 -9.38437 0.108857 0
M  V30 4596 C 599.023 -9.08175 -1.28353 0
M  V30 4597 O 597.967 -8.44229 -1.84713 0
M  V30 4598 C 600.241 -8.18386 -1.42505 0
M  V30 4599 O 600.979 -8.3501 -2.60497 0
M  V30 4600 C 599.572 -6.80225 -1.25468 0
M  V30 4601 O 600.371 -5.81621 -1.91066 0
M  V30 4602 C 598.235 -7.02416 -1.9168 0
M  V30 4603 H 598.267 -6.6888 -2.96621 0
M  V30 4604 H 599.45 -6.53617 -0.192223 0
M  V30 4605 H 600.934 -8.36622 -0.589963 0
M  V30 4606 H 599.24 -10.0291 -1.79807 0
M  V30 4607 H 599.05 -10.2138 0.558219 0
M  V30 4608 H 597.42 -9.6579 0.0444202 0
M  V30 4609 H 600.059 -5.69556 -2.79637 0
M  V30 4610 P 601.916 -8.4349 -2.47671 0
M  V30 4611 O 603.338 -8.92593 -2.65 0
M  V30 4612 O 601.556 -7.7568 -1.19296 0
M  V30 4613 O 601.593 -7.36886 -3.63805 0
M  V30 4614 C 601.433 -7.95349 -4.982 0
M  V30 4615 C 601.973 -6.94612 -5.98974 0
M  V30 4616 O 600.917 -6.10347 -6.11815 0
M  V30 4617 C 603.191 -6.11426 -5.62335 0
M  V30 4618 O 603.929 -5.6162 -6.70584 0
M  V30 4619 C 602.522 -5.04409 -4.73308 0
M  V30 4620 O 603.321 -3.85992 -4.75183 0
M  V30 4621 C 601.185 -4.8728 -5.41006 0
M  V30 4622 H 601.217 -4.02333 -6.11157 0
M  V30 4623 H 602.4 -5.39466 -3.69543 0
M  V30 4624 H 603.884 -6.71916 -5.01943 0
M  V30 4625 H 602.19 -7.4649 -6.93477 0
M  V30 4626 H 602 -8.89416 -5.05237 0
M  V30 4627 H 600.37 -8.14876 -5.18409 0
M  V30 4628 H 603.009 -3.27957 -5.4317 0
M  V30 4629 P 604.867 -5.75688 -6.64379 0
M  V30 4630 O 606.288 -6.07692 -7.0558 0
M  V30 4631 O 604.507 -5.88047 -5.19722 0
M  V30 4632 O 604.544 -4.2322 -7.04443 0
M  V30 4633 C 604.383 -3.99785 -8.49201 0
M  V30 4634 C 604.924 -2.60516 -8.79425 0
M  V30 4635 O 603.869 -1.82663 -8.44573 0
M  V30 4636 C 606.142 -2.10343 -8.03628 0
M  V30 4637 O 606.88 -1.09919 -8.67766 0
M  V30 4638 C 605.474 -1.68446 -6.70876 0
M  V30 4639 O 606.272 -0.684109 -6.08265 0
M  V30 4640 C 604.136 -1.17436 -7.18567 0
M  V30 4641 N 603.093 -1.52699 -6.23988 0
M  V30 4642 C 603.262 -2.578 -5.40574 0
M  V30 4643 N 602.235 -2.78966 -4.61193 0
M  V30 4644 C 601.35 -1.78725 -4.95769 0
M  V30 4645 C 600.083 -1.45727 -4.44207 0
M  V30 4646 N 599.518 -0.374977 -5.05812 0
M  V30 4647 C 600.12 0.345585 -6.05615 0
M  V30 4648 N 601.297 0.0787651 -6.56253 0
M  V30 4649 C 601.872 -1.00499 -5.96189 0
M  V30 4650 H 605.351 -2.53396 -6.02698 0
M  V30 4651 H 606.834 -2.93881 -7.85526 0
M  V30 4652 H 605.14 -2.52078 -9.87225 0
M  V30 4653 H 604.95 -4.75072 -9.05887 0
M  V30 4654 H 603.32 -4.05244 -8.76668 0
M  V30 4655 H 604.162 -3.18977 -5.3945 0
M  V30 4656 H 605.96 0.177619 -6.34151 0
M  V30 4657 P 607.817 -1.25109 -8.70152 0
M  V30 4658 O 609.239 -1.29744 -9.22016 0
M  V30 4659 O 607.457 -2.13714 -7.55141 0
M  V30 4660 O 607.494 0.248149 -8.21425 0
M  V30 4661 C 607.334 1.22779 -9.30434 0
M  V30 4662 C 607.874 2.56293 -8.80664 0
M  V30 4663 O 606.818 3.02979 -8.09349 0
M  V30 4664 C 609.092 2.57523 -7.89775 0
M  V30 4665 O 609.83 3.7668 -7.89438 0
M  V30 4666 C 608.423 2.20997 -6.55446 0
M  V30 4667 O 609.222 2.71895 -5.48509 0
M  V30 4668 C 607.086 2.89693 -6.67988 0
M  V30 4669 H 607.118 3.88793 -6.19859 0
M  V30 4670 H 608.301 1.12046 -6.44229 0
M  V30 4671 H 609.785 1.7746 -8.19711 0
M  V30 4672 H 608.091 3.20706 -9.67112 0
M  V30 4673 H 607.901 0.901032 -10.1892 0
M  V30 4674 H 606.271 1.33049 -9.56592 0
M  V30 4675 H 608.91 3.57847 -5.23962 0
M  V30 4676 P 610.768 3.65191 -7.99657 0
M  V30 4677 O 612.19 3.89332 -8.45794 0
M  V30 4678 O 610.408 2.28472 -7.50807 0
M  V30 4679 O 610.445 4.64972 -6.77611 0
M  V30 4680 C 610.285 6.06319 -7.16352 0
M  V30 4681 C 610.825 6.91731 -6.02299 0
M  V30 4682 O 609.769 6.92449 -5.17064 0
M  V30 4683 C 612.043 6.43627 -5.25174 0
M  V30 4684 O 612.781 7.43686 -4.60469 0
M  V30 4685 C 611.374 5.40275 -4.31916 0
M  V30 4686 O 612.173 5.25279 -3.14438 0
M  V30 4687 C 610.037 6.04847 -4.05327 0
M  V30 4688 H 610.069 6.62195 -3.11261 0
M  V30 4689 H 611.252 4.42556 -4.81383 0
M  V30 4690 H 612.736 5.92458 -5.93643 0
M  V30 4691 H 611.042 7.92655 -6.402 0
M  V30 4692 H 610.852 6.26671 -8.0846 0
M  V30 4693 H 609.222 6.29101 -7.32804 0
M  V30 4694 H 611.861 5.84315 -2.47318 0
M  V30 4695 P 613.719 7.39546 -4.75277 0
M  V30 4696 O 615.141 7.84798 -5.01039 0
M  V30 4697 O 613.359 5.9812 -5.08098 0
M  V30 4698 O 613.396 7.57503 -3.1866 0
M  V30 4699 C 613.236 8.97357 -2.74833 0
M  V30 4700 C 613.776 9.07548 -1.32709 0
M  V30 4701 O 612.72 8.62072 -0.606159 0
M  V30 4702 C 614.994 8.25383 -0.938334 0
M  V30 4703 O 615.732 8.74577 0.146954 0
M  V30 4704 C 614.325 6.8802 -0.712559 0
M  V30 4705 O 615.124 6.1189 0.194655 0
M  V30 4706 C 612.988 7.27966 -0.139777 0
M  V30 4707 H 613.02 7.25354 0.961601 0
M  V30 4708 H 614.203 6.32557 -1.65702 0
M  V30 4709 H 615.687 8.19355 -1.79097 0
M  V30 4710 H 613.993 10.1294 -1.10029 0
M  V30 4711 H 613.803 9.64276 -3.41316 0
M  V30 4712 H 612.173 9.25417 -2.76357 0
M  V30 4713 H 614.812 6.25267 1.07847 0
M  V30 4714 P 616.669 8.791 4.14417e-12 0
M  V30 4715 O 618.091 9.31096 0.027933 0
M  V30 4716 O 616.309 7.77869 -1.04071 0
M  V30 4717 O 616.346 8.09533 1.41463 0
M  V30 4718 C 616.186 9.0349 2.53943 0
M  V30 4719 C 616.726 8.35226 3.79016 0
M  V30 4720 O 615.67 7.57992 4.15078 0
M  V30 4721 C 617.944 7.45087 3.67298 0
M  V30 4722 O 618.682 7.27796 4.85194 0
M  V30 4723 C 617.275 6.17323 3.12027 0
M  V30 4724 O 618.074 5.04231 3.47188 0
M  V30 4725 C 615.938 6.19961 3.81809 0
M  V30 4726 H 615.97 5.58218 4.73051 0
M  V30 4727 H 617.153 6.21726 2.02589 0
M  V30 4728 H 618.637 7.86112 2.9231 0
M  V30 4729 H 616.943 9.11627 4.55076 0
M  V30 4730 H 616.753 9.9573 2.34194 0
M  V30 4731 H 615.123 9.2792 2.67832 0
M  V30 4732 H 617.762 4.67702 4.28772 0
M  V30 4733 P 619.62 7.39546 4.75277 0
M  V30 4734 O 621.042 7.81777 5.05738 0
M  V30 4735 O 619.26 7.1065 3.32998 0
M  V30 4736 O 619.297 6.04542 5.56673 0
M  V30 4737 C 619.137 6.22772 7.02095 0
M  V30 4738 C 619.677 4.97725 7.70406 0
M  V30 4739 O 618.621 4.13256 7.58987 0
M  V30 4740 C 620.895 4.28231 7.11815 0
M  V30 4741 O 621.633 3.49945 8.01648 0
M  V30 4742 C 620.226 3.5063 5.96244 0
M  V30 4743 O 621.025 2.36482 5.64681 0
M  V30 4744 C 618.889 3.15122 6.56374 0
M  V30 4745 H 618.921 2.13853 6.99751 0
M  V30 4746 H 620.104 4.13501 5.06559 0
M  V30 4747 H 621.588 5.03285 6.70911 0
M  V30 4748 H 619.894 5.20877 8.75697 0
M  V30 4749 H 619.704 7.11046 7.35349 0
M  V30 4750 H 618.074 6.35815 7.26986 0
M  V30 4751 H 620.713 1.61644 6.13565 0
M  V30 4752 P 622.57 3.65191 7.99657 0
M  V30 4753 O 623.992 3.8425 8.48115 0
M  V30 4754 O 622.21 4.17805 6.64342 0
M  V30 4755 O 622.247 2.07613 7.95143 0
M  V30 4756 C 622.087 1.44328 9.27336 0
M  V30 4757 C 622.627 0.0220036 9.17197 0
M  V30 4758 O 621.571 -0.626867 8.61923 0
M  V30 4759 C 623.845 -0.24586 8.30336 0
M  V30 4760 O 624.583 -1.39011 8.63583 0
M  V30 4761 C 623.176 -0.273849 6.91158 0
M  V30 4762 O 623.975 -1.06348 6.02892 0
M  V30 4763 C 621.839 -0.897649 7.22545 0
M  V30 4764 H 621.871 -1.9841 7.04286 0
M  V30 4765 H 623.054 0.739928 6.497 0
M  V30 4766 H 624.538 0.60668 8.36503 0
M  V30 4767 H 622.844 -0.352479 10.1829 0
M  V30 4768 H 622.654 2.00611 10.0304 0
M  V30 4769 H 621.024 1.41843 9.55327 0
M  V30 4770 H 623.663 -1.95734 6.03555 0
M  V30 4771 P 625.521 -1.25109 8.70152 0
M  V30 4772 O 626.943 -1.35274 9.21221 0
M  V30 4773 O 625.161 -0.0769065 7.84762 0
M  V30 4774 O 625.198 -2.55232 7.81161 0
M  V30 4775 C 625.038 -3.79939 8.58154 0
M  V30 4776 C 625.578 -4.94023 7.72785 0
M  V30 4777 O 624.522 -5.18726 6.91205 0
M  V30 4778 C 626.796 -4.69597 6.85231 0
M  V30 4779 O 627.534 -5.83832 6.51337 0
M  V30 4780 C 626.127 -3.96706 5.66633 0
M  V30 4781 O 626.926 -4.15414 4.49689 0
M  V30 4782 C 624.79 -4.66153 5.59313 0
M  V30 4783 H 624.822 -5.47679 4.85214 0
M  V30 4784 H 626.005 -2.89008 5.86566 0
M  V30 4785 H 627.489 -4.0121 7.36511 0
M  V30 4786 H 625.795 -5.80182 8.37584 0
M  V30 4787 H 625.605 -3.73517 9.52265 0
M  V30 4788 H 623.975 -3.97163 8.80359 0
M  V30 4789 H 626.614 -4.90969 4.01921 0
M  V30 4790 P 628.471 -5.75688 6.64379 0
M  V30 4791 O 629.893 -6.11849 7.01846 0
M  V30 4792 O 628.111 -4.30744 6.56026 0
M  V30 4793 O 628.148 -6.37042 5.19165 0
M  V30 4794 C 627.988 -7.83578 5.16515 0
M  V30 4795 C 628.528 -8.33398 3.83019 0
M  V30 4796 O 627.472 -8.10074 3.01034 0
M  V30 4797 C 629.746 -7.65514 3.2257 0
M  V30 4798 O 630.484 -8.4329 2.32297 0
M  V30 4799 C 629.077 -6.40075 2.62207 0
M  V30 4800 O 629.876 -5.92589 1.53712 0
M  V30 4801 C 627.74 -6.9454 2.18503 0
M  V30 4802 H 627.772 -7.23063 1.12091 0
M  V30 4803 H 628.955 -5.6025 3.37201 0
M  V30 4804 H 630.439 -7.35707 4.02681 0
M  V30 4805 H 628.745 -9.40912 3.9095 0
M  V30 4806 H 628.555 -8.29056 5.99158 0
M  V30 4807 H 626.925 -8.10073 5.25882 0
M  V30 4808 H 629.564 -6.30324 0.726794 0
M  V30 4809 P 631.422 -8.4349 2.47671 0
M  V30 4810 O 632.844 -8.94167 2.5964 0
M  V30 4811 O 631.062 -7.1704 3.19006 0
M  V30 4812 O 631.099 -8.16596 0.923387 0
M  V30 4813 C 630.939 -9.38437 0.108857 0
M  V30 4814 C 631.479 -9.08175 -1.28353 0
M  V30 4815 O 630.423 -8.44229 -1.84713 0
M  V30 4816 C 632.697 -8.18386 -1.42505 0
M  V30 4817 O 633.435 -8.3501 -2.60497 0
M  V30 4818 C 632.028 -6.80225 -1.25468 0
M  V30 4819 O 632.827 -5.81621 -1.91066 0
M  V30 4820 C 630.691 -7.02416 -1.9168 0
M  V30 4821 H 630.723 -6.6888 -2.96621 0
M  V30 4822 H 631.906 -6.53617 -0.192223 0
M  V30 4823 H 633.39 -8.36622 -0.589963 0
M  V30 4824 H 631.696 -10.0291 -1.79807 0
M  V30 4825 H 631.506 -10.2138 0.558219 0
M  V30 4826 H 629.876 -9.6579 0.0444202 0
M  V30 4827 H 632.515 -5.69556 -2.79637 0
M  V30 4828 P 634.373 -8.4349 -2.47671 0
M  V30 4829 O 635.795 -8.92593 -2.65 0
M  V30 4830 O 634.013 -7.7568 -1.19296 0
M  V30 4831 O 634.05 -7.36886 -3.63805 0
M  V30 4832 C 633.89 -7.95349 -4.982 0
M  V30 4833 C 634.43 -6.94612 -5.98974 0
M  V30 4834 O 633.374 -6.10347 -6.11815 0
M  V30 4835 C 635.648 -6.11426 -5.62335 0
M  V30 4836 O 636.386 -5.6162 -6.70584 0
M  V30 4837 C 634.979 -5.04409 -4.73308 0
M  V30 4838 O 635.778 -3.85992 -4.75183 0
M  V30 4839 C 633.642 -4.8728 -5.41006 0
M  V30 4840 H 633.674 -4.02333 -6.11157 0
M  V30 4841 H 634.857 -5.39466 -3.69543 0
M  V30 4842 H 636.341 -6.71916 -5.01943 0
M  V30 4843 H 634.647 -7.4649 -6.93477 0
M  V30 4844 H 634.457 -8.89416 -5.05237 0
M  V30 4845 H 632.827 -8.14876 -5.18409 0
M  V30 4846 H 635.466 -3.27957 -5.4317 0
M  V30 4847 P 637.323 -5.75688 -6.64379 0
M  V30 4848 O 638.744 -6.07692 -7.0558 0
M  V30 4849 O 636.963 -5.88047 -5.19722 0
M  V30 4850 O 637 -4.2322 -7.04443 0
M  V30 4851 C 636.839 -3.99785 -8.49201 0
M  V30 4852 C 637.38 -2.60516 -8.79425 0
M  V30 4853 O 636.325 -1.82663 -8.44573 0
M  V30 4854 C 638.598 -2.10343 -8.03628 0
M  V30 4855 O 639.336 -1.09919 -8.67766 0
M  V30 4856 C 637.93 -1.68446 -6.70876 0
M  V30 4857 O 638.728 -0.684109 -6.08265 0
M  V30 4858 C 636.592 -1.17436 -7.18567 0
M  V30 4859 N 635.549 -1.52699 -6.23988 0
M  V30 4860 C 635.718 -2.578 -5.40574 0
M  V30 4861 N 634.691 -2.78966 -4.61193 0
M  V30 4862 C 633.806 -1.78725 -4.95769 0
M  V30 4863 C 632.539 -1.45727 -4.44207 0
M  V30 4864 N 631.94 -2.13994 -3.43613 0
M  V30 4865 N 631.974 -0.374977 -5.05812 0
M  V30 4866 C 632.576 0.345585 -6.05615 0
M  V30 4867 N 633.753 0.0787651 -6.56253 0
M  V30 4868 C 634.328 -1.00499 -5.96189 0
M  V30 4869 H 636.624 -0.0804622 -7.31556 0
M  V30 4870 H 637.807 -2.53396 -6.02698 0
M  V30 4871 H 639.29 -2.93881 -7.85526 0
M  V30 4872 H 637.596 -2.52078 -9.87225 0
M  V30 4873 H 637.406 -4.75072 -9.05887 0
M  V30 4874 H 635.776 -4.05244 -8.76668 0
M  V30 4875 H 632.04 1.20098 -6.4532 0
M  V30 4876 H 636.618 -3.18977 -5.3945 0
M  V30 4877 H 631.01 -1.84983 -3.10004 0
M  V30 4878 H 632.414 -2.9465 -3.00843 0
M  V30 4879 H 638.416 0.177619 -6.34151 0
M  V30 4880 P 640.274 -1.25109 -8.70152 0
M  V30 4881 O 641.696 -1.29744 -9.22016 0
M  V30 4882 O 639.914 -2.13714 -7.55141 0
M  V30 4883 O 639.951 0.248149 -8.21425 0
M  V30 4884 C 639.791 1.22779 -9.30434 0
M  V30 4885 C 640.331 2.56293 -8.80664 0
M  V30 4886 O 639.275 3.02979 -8.09349 0
M  V30 4887 C 641.549 2.57523 -7.89775 0
M  V30 4888 O 642.287 3.7668 -7.89438 0
M  V30 4889 C 640.88 2.20997 -6.55446 0
M  V30 4890 O 641.679 2.71895 -5.48509 0
M  V30 4891 C 639.543 2.89693 -6.67988 0
M  V30 4892 H 639.575 3.88793 -6.19859 0
M  V30 4893 H 640.758 1.12046 -6.44229 0
M  V30 4894 H 642.242 1.7746 -8.19711 0
M  V30 4895 H 640.548 3.20706 -9.67112 0
M  V30 4896 H 640.358 0.901032 -10.1892 0
M  V30 4897 H 638.728 1.33049 -9.56592 0
M  V30 4898 H 641.367 3.57847 -5.23962 0
M  V30 4899 P 643.224 3.65191 -7.99657 0
M  V30 4900 O 644.646 3.89332 -8.45794 0
M  V30 4901 O 642.864 2.28472 -7.50807 0
M  V30 4902 O 642.901 4.64972 -6.77611 0
M  V30 4903 C 642.741 6.06319 -7.16352 0
M  V30 4904 C 643.281 6.91731 -6.02299 0
M  V30 4905 O 642.225 6.92449 -5.17064 0
M  V30 4906 C 644.499 6.43627 -5.25174 0
M  V30 4907 O 645.237 7.43686 -4.60469 0
M  V30 4908 C 643.83 5.40275 -4.31916 0
M  V30 4909 O 644.629 5.25279 -3.14438 0
M  V30 4910 C 642.493 6.04847 -4.05327 0
M  V30 4911 H 642.525 6.62195 -3.11261 0
M  V30 4912 H 643.708 4.42556 -4.81383 0
M  V30 4913 H 645.192 5.92458 -5.93643 0
M  V30 4914 H 643.498 7.92655 -6.402 0
M  V30 4915 H 643.308 6.26671 -8.0846 0
M  V30 4916 H 641.678 6.29101 -7.32804 0
M  V30 4917 H 644.317 5.84315 -2.47318 0
M  V30 4918 P 646.175 7.39546 -4.75277 0
M  V30 4919 O 647.597 7.84798 -5.01039 0
M  V30 4920 O 645.815 5.9812 -5.08098 0
M  V30 4921 O 645.852 7.57503 -3.1866 0
M  V30 4922 C 645.692 8.97357 -2.74833 0
M  V30 4923 C 646.232 9.07548 -1.32709 0
M  V30 4924 O 645.176 8.62072 -0.606159 0
M  V30 4925 C 647.45 8.25383 -0.938334 0
M  V30 4926 O 648.188 8.74577 0.146954 0
M  V30 4927 C 646.781 6.8802 -0.712559 0
M  V30 4928 O 647.58 6.1189 0.194655 0
M  V30 4929 C 645.444 7.27966 -0.139777 0
M  V30 4930 H 645.476 7.25354 0.961601 0
M  V30 4931 H 646.659 6.32557 -1.65702 0
M  V30 4932 H 648.143 8.19355 -1.79097 0
M  V30 4933 H 646.449 10.1294 -1.10029 0
M  V30 4934 H 646.259 9.64276 -3.41316 0
M  V30 4935 H 644.629 9.25417 -2.76357 0
M  V30 4936 H 647.268 6.25267 1.07847 0
M  V30 4937 P 649.125 8.791 4.45433e-12 0
M  V30 4938 O 650.547 9.31096 0.027933 0
M  V30 4939 O 648.765 7.77869 -1.04071 0
M  V30 4940 O 648.802 8.09533 1.41463 0
M  V30 4941 C 648.642 9.0349 2.53943 0
M  V30 4942 C 649.182 8.35226 3.79016 0
M  V30 4943 O 648.126 7.57992 4.15078 0
M  V30 4944 C 650.4 7.45087 3.67298 0
M  V30 4945 O 651.138 7.27796 4.85194 0
M  V30 4946 C 649.731 6.17323 3.12027 0
M  V30 4947 O 650.53 5.04231 3.47188 0
M  V30 4948 C 648.394 6.19961 3.81809 0
M  V30 4949 H 648.426 5.58218 4.73051 0
M  V30 4950 H 649.609 6.21726 2.02589 0
M  V30 4951 H 651.093 7.86112 2.9231 0
M  V30 4952 H 649.399 9.11627 4.55076 0
M  V30 4953 H 649.209 9.9573 2.34194 0
M  V30 4954 H 647.579 9.2792 2.67832 0
M  V30 4955 H 650.218 4.67702 4.28772 0
M  V30 4956 P 652.076 7.39546 4.75277 0
M  V30 4957 O 653.497 7.81861 5.05793 0
M  V30 4958 O 651.716 7.1065 3.32998 0
M  V30 4959 O 651.753 6.04542 5.56673 0
M  V30 4960 C 651.592 6.22839 7.02169 0
M  V30 4961 C 652.133 4.97725 7.70406 0
M  V30 4962 O 651.078 4.13208 7.58899 0
M  V30 4963 C 653.351 4.28231 7.11815 0
M  V30 4964 O 654.089 3.49945 8.01648 0
M  V30 4965 C 652.683 3.5063 5.96244 0
M  V30 4966 O 653.481 2.37008 5.64352 0
M  V30 4967 C 651.345 3.15122 6.56374 0
M  V30 4968 N 650.302 3.22311 5.55692 0
M  V30 4969 C 650.471 3.99655 4.46046 0
M  V30 4970 N 649.444 3.97599 3.63918 0
M  V30 4971 C 648.559 3.11159 4.25334 0
M  V30 4972 C 647.292 2.64972 3.85157 0
M  V30 4973 N 646.693 3.02132 2.69405 0
M  V30 4974 N 646.727 1.78482 4.74759 0
M  V30 4975 C 647.329 1.37463 5.90819 0
M  V30 4976 N 648.506 1.7733 6.31889 0
M  V30 4977 C 649.081 2.64393 5.43725 0
M  V30 4978 H 651.377 2.13823 6.99656 0
M  V30 4979 H 652.56 4.12931 5.06895 0
M  V30 4980 H 654.043 5.03285 6.70911 0
M  V30 4981 H 652.349 5.20001 8.76217 0
M  V30 4982 H 652.159 7.11046 7.35349 0
M  V30 4983 H 650.529 6.35815 7.26986 0
M  V30 4984 H 646.793 0.66574 6.53015 0
M  V30 4985 H 651.371 4.58037 4.27732 0
M  V30 4986 H 645.763 2.64828 2.45331 0
M  V30 4987 H 647.167 3.67472 2.05644 0
M  V30 4988 H 653.169 1.61619 6.13468 0
M  V30 4989 P 655.027 3.65191 7.99657 0
M  V30 4990 O 656.449 3.8425 8.48115 0
M  V30 4991 O 654.667 4.17805 6.64342 0
M  V30 4992 O 654.704 2.07613 7.95143 0
M  V30 4993 C 654.544 1.44328 9.27336 0
M  V30 4994 C 655.084 0.0220036 9.17197 0
M  V30 4995 O 654.028 -0.626867 8.61923 0
M  V30 4996 C 656.302 -0.24586 8.30336 0
M  V30 4997 O 657.04 -1.39011 8.63583 0
M  V30 4998 C 655.633 -0.273849 6.91158 0
M  V30 4999 O 656.432 -1.06348 6.02892 0
M  V30 5000 C 654.296 -0.897649 7.22545 0
M  V30 5001 H 654.328 -1.9841 7.04286 0
M  V30 5002 H 655.511 0.739928 6.497 0
M  V30 5003 H 656.995 0.60668 8.36503 0
M  V30 5004 H 655.301 -0.352479 10.1829 0
M  V30 5005 H 655.111 2.00611 10.0304 0
M  V30 5006 H 653.481 1.41843 9.55327 0
M  V30 5007 H 656.12 -1.95734 6.03555 0
M  V30 5008 P 657.977 -1.25109 8.70152 0
M  V30 5009 O 659.398 -1.35288 9.2132 0
M  V30 5010 O 657.617 -0.0769065 7.84762 0
M  V30 5011 O 657.654 -2.55232 7.81161 0
M  V30 5012 C 657.493 -3.79979 8.58246 0
M  V30 5013 C 658.034 -4.94023 7.72785 0
M  V30 5014 O 656.979 -5.18666 6.91125 0
M  V30 5015 C 659.252 -4.69597 6.85231 0
M  V30 5016 O 659.99 -5.83832 6.51337 0
M  V30 5017 C 658.584 -3.96706 5.66633 0
M  V30 5018 O 659.382 -4.14896 4.5003 0
M  V30 5019 C 657.246 -4.66153 5.59313 0
M  V30 5020 N 656.203 -3.71582 5.24027 0
M  V30 5021 C 656.372 -2.39715 5.48833 0
M  V30 5022 N 655.345 -1.65863 5.12845 0
M  V30 5023 C 654.46 -2.57637 4.5973 0
M  V30 5024 C 653.193 -2.40278 4.01027 0
M  V30 5025 N 652.594 -1.19549 3.86744 0
M  V30 5026 N 652.628 -3.57711 3.59575 0
M  V30 5027 C 653.23 -4.80324 3.70476 0
M  V30 5028 N 654.407 -5.01121 4.23801 0
M  V30 5029 C 654.982 -3.84757 4.66372 0
M  V30 5030 H 657.278 -5.47604 4.85148 0
M  V30 5031 H 658.461 -2.8955 5.86187 0
M  V30 5032 H 659.944 -4.0121 7.36511 0
M  V30 5033 H 658.25 -5.81019 8.37003 0
M  V30 5034 H 658.06 -3.73517 9.52265 0
M  V30 5035 H 656.43 -3.97163 8.80359 0
M  V30 5036 H 652.694 -5.66348 3.3183 0
M  V30 5037 H 657.272 -1.98804 5.94332 0
M  V30 5038 H 651.664 -1.13147 3.4281 0
M  V30 5039 H 653.068 -0.344074 4.19692 0
M  V30 5040 H 659.07 -4.90891 4.01857 0
M  V30 5041 P 660.928 -5.75688 6.64379 0
M  V30 5042 O 662.35 -6.11849 7.01846 0
M  V30 5043 O 660.568 -4.30744 6.56026 0
M  V30 5044 O 660.605 -6.37042 5.19165 0
M  V30 5045 C 660.445 -7.83578 5.16515 0
M  V30 5046 C 660.985 -8.33398 3.83019 0
M  V30 5047 O 659.929 -8.10074 3.01034 0
M  V30 5048 C 662.203 -7.65514 3.2257 0
M  V30 5049 O 662.941 -8.4329 2.32297 0
M  V30 5050 C 661.534 -6.40075 2.62207 0
M  V30 5051 O 662.333 -5.92589 1.53712 0
M  V30 5052 C 660.197 -6.9454 2.18503 0
M  V30 5053 H 660.229 -7.23063 1.12091 0
M  V30 5054 H 661.412 -5.6025 3.37201 0
M  V30 5055 H 662.896 -7.35707 4.02681 0
M  V30 5056 H 661.202 -9.40912 3.9095 0
M  V30 5057 H 661.012 -8.29056 5.99158 0
M  V30 5058 H 659.382 -8.10073 5.25882 0
M  V30 5059 H 662.021 -6.30324 0.726794 0
M  V30 5060 P 663.878 -8.4349 2.47671 0
M  V30 5061 O 665.3 -8.94359 2.59696 0
M  V30 5062 O 663.518 -7.1704 3.19006 0
M  V30 5063 O 663.555 -8.16596 0.923387 0
M  V30 5064 C 663.395 -9.38437 0.108857 0
M  V30 5065 C 663.935 -9.08076 -1.28339 0
M  V30 5066 O 662.88 -8.44229 -1.84713 0
M  V30 5067 C 665.153 -8.18386 -1.42505 0
M  V30 5068 O 665.891 -8.3501 -2.60497 0
M  V30 5069 C 664.485 -6.80225 -1.25468 0
M  V30 5070 O 665.283 -5.81526 -1.91035 0
M  V30 5071 C 663.147 -7.02416 -1.9168 0
M  V30 5072 N 662.104 -6.31033 -1.20314 0
M  V30 5073 C 662.166 -6.18781 0.121293 0
M  V30 5074 N 661.121 -5.49762 0.588272 0
M  V30 5075 C 660.387 -5.22015 -0.488988 0
M  V30 5076 C 659.081 -4.61966 -0.596448 0
M  V30 5077 O 658.348 -4.19162 0.309059 0
M  V30 5078 N 658.651 -4.53773 -1.878 0
M  V30 5079 C 659.4 -4.99623 -2.99082 0
M  V30 5080 N 658.803 -4.78912 -4.21227 0
M  V30 5081 N 660.553 -5.59957 -2.91093 0
M  V30 5082 C 661.01 -5.70225 -1.64218 0
M  V30 5083 H 663.179 -6.6888 -2.96621 0
M  V30 5084 H 664.362 -6.53517 -0.192194 0
M  V30 5085 H 665.847 -8.36563 -0.598329 0
M  V30 5086 H 664.152 -10.0291 -1.79807 0
M  V30 5087 H 663.962 -10.2138 0.558219 0
M  V30 5088 H 662.331 -9.6579 0.0444202 0
M  V30 5089 H 657.755 -4.12883 -2.05283 0
M  V30 5090 H 662.962 -6.59596 0.745856 0
M  V30 5091 H 657.892 -4.31425 -4.2628 0
M  V30 5092 H 659.268 -5.11219 -5.07148 0
M  V30 5093 H 664.972 -5.69466 -2.79593 0
M  V30 5094 P 666.829 -8.4349 -2.47671 0
M  V30 5095 O 668.251 -8.92593 -2.65 0
M  V30 5096 O 666.469 -7.7568 -1.19296 0
M  V30 5097 O 666.506 -7.36886 -3.63805 0
M  V30 5098 C 666.346 -7.95349 -4.982 0
M  V30 5099 C 666.886 -6.94612 -5.98974 0
M  V30 5100 O 665.83 -6.10347 -6.11815 0
M  V30 5101 C 668.104 -6.11426 -5.62335 0
M  V30 5102 O 668.842 -5.6162 -6.70584 0
M  V30 5103 C 667.435 -5.04409 -4.73308 0
M  V30 5104 O 668.234 -3.85992 -4.75183 0
M  V30 5105 C 666.098 -4.8728 -5.41006 0
M  V30 5106 H 666.13 -4.02333 -6.11157 0
M  V30 5107 H 667.313 -5.39466 -3.69543 0
M  V30 5108 H 668.797 -6.71916 -5.01943 0
M  V30 5109 H 667.103 -7.4649 -6.93477 0
M  V30 5110 H 666.913 -8.89416 -5.05237 0
M  V30 5111 H 665.283 -8.14876 -5.18409 0
M  V30 5112 H 667.922 -3.27957 -5.4317 0
M  V30 5113 P 669.779 -5.75688 -6.64379 0
M  V30 5114 O 671.18 -6.14823 -7.06682 0
M  V30 5115 O 669.401 -5.93957 -5.20728 0
M  V30 5116 O 669.456 -4.23169 -7.04357 0
M  V30 5117 C 669.296 -3.99743 -8.4911 0
M  V30 5118 C 669.836 -2.60487 -8.79329 0
M  V30 5119 O 668.78 -1.82663 -8.44573 0
M  V30 5120 C 671.053 -2.10343 -8.03628 0
M  V30 5121 O 671.792 -1.09919 -8.67766 0
M  V30 5122 C 670.386 -1.68446 -6.70876 0
M  V30 5123 O 671.184 -0.678026 -6.08333 0
M  V30 5124 C 669.048 -1.17436 -7.18567 0
M  V30 5125 N 668.005 -1.52699 -6.23988 0
M  V30 5126 C 666.97 -0.643793 -6.05085 0
M  V30 5127 O 667.009 0.459118 -6.64315 0
M  V30 5128 N 665.958 -0.976931 -5.22038 0
M  V30 5129 C 666.006 -2.14429 -4.56662 0
M  V30 5130 C 667.102 -3.04203 -4.71481 0
M  V30 5131 C 668.068 -2.69669 -5.56838 0
M  V30 5132 H 669.08 -0.0804622 -7.31556 0
M  V30 5133 H 670.263 -2.53396 -6.02698 0
M  V30 5134 H 671.747 -2.9313 -7.85914 0
M  V30 5135 H 670.053 -2.52078 -9.87225 0
M  V30 5136 H 669.862 -4.75072 -9.05887 0
M  V30 5137 H 668.232 -4.05202 -8.76577 0
M  V30 5138 H 667.15 -3.97309 -4.15519 0
M  V30 5139 H 668.914 -3.36869 -5.72318 0
M  V30 5140 H 670.968 0.167718 -6.44882 0
M  V30 5141 P 672.73 -1.25109 -8.70152 0
M  V30 5142 O 674.152 -1.29744 -9.22016 0
M  V30 5143 O 672.37 -2.13714 -7.55141 0
M  V30 5144 O 672.407 0.248149 -8.21425 0
M  V30 5145 C 672.247 1.22779 -9.30434 0
M  V30 5146 C 672.787 2.56293 -8.80664 0
M  V30 5147 O 671.731 3.02979 -8.09349 0
M  V30 5148 C 674.005 2.57523 -7.89775 0
M  V30 5149 O 674.743 3.7668 -7.89438 0
M  V30 5150 C 673.336 2.20997 -6.55446 0
M  V30 5151 O 674.135 2.71895 -5.48509 0
M  V30 5152 C 671.999 2.89693 -6.67988 0
M  V30 5153 H 672.031 3.88793 -6.19859 0
M  V30 5154 H 673.214 1.12046 -6.44229 0
M  V30 5155 H 674.698 1.7746 -8.19711 0
M  V30 5156 H 673.004 3.20706 -9.67112 0
M  V30 5157 H 672.814 0.901032 -10.1892 0
M  V30 5158 H 671.184 1.33049 -9.56592 0
M  V30 5159 H 673.823 3.57847 -5.23962 0
M  V30 5160 P 675.681 3.65191 -7.99657 0
M  V30 5161 O 677.103 3.89332 -8.45794 0
M  V30 5162 O 675.321 2.28472 -7.50807 0
M  V30 5163 O 675.358 4.64972 -6.77611 0
M  V30 5164 C 675.198 6.06319 -7.16352 0
M  V30 5165 C 675.738 6.91731 -6.02299 0
M  V30 5166 O 674.682 6.92449 -5.17064 0
M  V30 5167 C 676.956 6.43627 -5.25174 0
M  V30 5168 O 677.694 7.43686 -4.60469 0
M  V30 5169 C 676.287 5.40275 -4.31916 0
M  V30 5170 O 677.086 5.25279 -3.14438 0
M  V30 5171 C 674.95 6.04847 -4.05327 0
M  V30 5172 H 674.982 6.62195 -3.11261 0
M  V30 5173 H 676.165 4.42556 -4.81383 0
M  V30 5174 H 677.649 5.92458 -5.93643 0
M  V30 5175 H 675.955 7.92655 -6.402 0
M  V30 5176 H 675.765 6.26671 -8.0846 0
M  V30 5177 H 674.135 6.29101 -7.32804 0
M  V30 5178 H 676.774 5.84315 -2.47318 0
M  V30 5179 P 678.631 7.39546 -4.75277 0
M  V30 5180 O 680.053 7.84798 -5.01039 0
M  V30 5181 O 678.271 5.9812 -5.08098 0
M  V30 5182 O 678.308 7.57503 -3.1866 0
M  V30 5183 C 678.148 8.97357 -2.74833 0
M  V30 5184 C 678.688 9.07548 -1.32709 0
M  V30 5185 O 677.632 8.62072 -0.606159 0
M  V30 5186 C 679.906 8.25383 -0.938334 0
M  V30 5187 O 680.644 8.74577 0.146954 0
M  V30 5188 C 679.237 6.8802 -0.712559 0
M  V30 5189 O 680.036 6.1189 0.194655 0
M  V30 5190 C 677.9 7.27966 -0.139777 0
M  V30 5191 H 677.932 7.25354 0.961601 0
M  V30 5192 H 679.115 6.32557 -1.65702 0
M  V30 5193 H 680.599 8.19355 -1.79097 0
M  V30 5194 H 678.905 10.1294 -1.10029 0
M  V30 5195 H 678.715 9.64276 -3.41316 0
M  V30 5196 H 677.085 9.25417 -2.76357 0
M  V30 5197 H 679.724 6.25267 1.07847 0
M  V30 5198 P 681.582 8.791 4.7645e-12 0
M  V30 5199 O 683.004 9.31096 0.027933 0
M  V30 5200 O 681.222 7.77869 -1.04071 0
M  V30 5201 O 681.259 8.09533 1.41463 0
M  V30 5202 C 681.099 9.0349 2.53943 0
M  V30 5203 C 681.639 8.35226 3.79016 0
M  V30 5204 O 680.583 7.57992 4.15078 0
M  V30 5205 C 682.857 7.45087 3.67298 0
M  V30 5206 O 683.595 7.27796 4.85194 0
M  V30 5207 C 682.188 6.17323 3.12027 0
M  V30 5208 O 682.987 5.04231 3.47188 0
M  V30 5209 C 680.851 6.19961 3.81809 0
M  V30 5210 H 680.883 5.58218 4.73051 0
M  V30 5211 H 682.066 6.21726 2.02589 0
M  V30 5212 H 683.55 7.86112 2.9231 0
M  V30 5213 H 681.856 9.11627 4.55076 0
M  V30 5214 H 681.666 9.9573 2.34194 0
M  V30 5215 H 680.036 9.2792 2.67832 0
M  V30 5216 H 682.675 4.67702 4.28772 0
M  V30 5217 P 684.532 7.39546 4.75277 0
M  V30 5218 O 685.954 7.81777 5.05738 0
M  V30 5219 O 684.172 7.1065 3.32998 0
M  V30 5220 O 684.209 6.04542 5.56673 0
M  V30 5221 C 684.049 6.22772 7.02095 0
M  V30 5222 C 684.589 4.97725 7.70406 0
M  V30 5223 O 683.533 4.13256 7.58987 0
M  V30 5224 C 685.807 4.28231 7.11815 0
M  V30 5225 O 686.545 3.49945 8.01648 0
M  V30 5226 C 685.138 3.5063 5.96244 0
M  V30 5227 O 685.937 2.36482 5.64681 0
M  V30 5228 C 683.801 3.15122 6.56374 0
M  V30 5229 H 683.833 2.13853 6.99751 0
M  V30 5230 H 685.016 4.13501 5.06559 0
M  V30 5231 H 686.5 5.03285 6.70911 0
M  V30 5232 H 684.806 5.20877 8.75697 0
M  V30 5233 H 684.616 7.11046 7.35349 0
M  V30 5234 H 682.986 6.35815 7.26986 0
M  V30 5235 H 685.625 1.61644 6.13565 0
M  V30 5236 P 687.483 3.65191 7.99657 0
M  V30 5237 O 688.904 3.84292 8.48206 0
M  V30 5238 O 687.123 4.17805 6.64342 0
M  V30 5239 O 687.16 2.07613 7.95143 0
M  V30 5240 C 686.999 1.44344 9.27435 0
M  V30 5241 C 687.54 0.0220036 9.17197 0
M  V30 5242 O 686.485 -0.626794 8.61824 0
M  V30 5243 C 688.758 -0.24586 8.30336 0
M  V30 5244 O 689.496 -1.39011 8.63583 0
M  V30 5245 C 688.09 -0.273849 6.91158 0
M  V30 5246 O 688.888 -1.05728 6.029 0
M  V30 5247 C 686.752 -0.897649 7.22545 0
M  V30 5248 N 685.709 -0.292839 6.41732 0
M  V30 5249 C 685.878 0.950603 5.91308 0
M  V30 5250 N 684.851 1.37732 5.21105 0
M  V30 5251 C 683.966 0.318109 5.26039 0
M  V30 5252 C 682.699 0.146766 4.6727 0
M  V30 5253 N 682.134 -1.06525 4.95887 0
M  V30 5254 C 682.736 -2.0378 5.71347 0
M  V30 5255 N 683.913 -1.92445 6.27451 0
M  V30 5256 C 684.488 -0.715382 6.00353 0
M  V30 5257 H 687.967 0.733318 6.49674 0
M  V30 5258 H 689.45 0.60668 8.36503 0
M  V30 5259 H 687.756 -0.362662 10.1825 0
M  V30 5260 H 687.566 2.00611 10.0304 0
M  V30 5261 H 685.936 1.41843 9.55327 0
M  V30 5262 H 686.778 1.54076 6.07465 0
M  V30 5263 H 688.576 -1.95704 6.0346 0
M  V30 5264 P 690.433 -1.25109 8.70152 0
M  V30 5265 O 691.855 -1.35274 9.21221 0
M  V30 5266 O 690.073 -0.0769065 7.84762 0
M  V30 5267 O 690.11 -2.55232 7.81161 0
M  V30 5268 C 689.95 -3.79939 8.58154 0
M  V30 5269 C 690.49 -4.94023 7.72785 0
M  V30 5270 O 689.434 -5.18726 6.91205 0
M  V30 5271 C 691.708 -4.69597 6.85231 0
M  V30 5272 O 692.446 -5.83832 6.51337 0
M  V30 5273 C 691.039 -3.96706 5.66633 0
M  V30 5274 O 691.838 -4.15414 4.49689 0
M  V30 5275 C 689.702 -4.66153 5.59313 0
M  V30 5276 H 689.734 -5.47679 4.85214 0
M  V30 5277 H 690.917 -2.89008 5.86566 0
M  V30 5278 H 692.401 -4.0121 7.36511 0
M  V30 5279 H 690.707 -5.80182 8.37584 0
M  V30 5280 H 690.517 -3.73517 9.52265 0
M  V30 5281 H 688.887 -3.97163 8.80359 0
M  V30 5282 H 691.526 -4.90969 4.01921 0
M  V30 5283 P 693.384 -5.75688 6.64379 0
M  V30 5284 O 694.806 -6.11849 7.01846 0
M  V30 5285 O 693.024 -4.30744 6.56026 0
M  V30 5286 O 693.061 -6.37042 5.19165 0
M  V30 5287 C 692.901 -7.83578 5.16515 0
M  V30 5288 C 693.441 -8.33398 3.83019 0
M  V30 5289 O 692.385 -8.10074 3.01034 0
M  V30 5290 C 694.659 -7.65514 3.2257 0
M  V30 5291 O 695.397 -8.4329 2.32297 0
M  V30 5292 C 693.99 -6.40075 2.62207 0
M  V30 5293 O 694.789 -5.92589 1.53712 0
M  V30 5294 C 692.653 -6.9454 2.18503 0
M  V30 5295 H 692.685 -7.23063 1.12091 0
M  V30 5296 H 693.868 -5.6025 3.37201 0
M  V30 5297 H 695.352 -7.35707 4.02681 0
M  V30 5298 H 693.658 -9.40912 3.9095 0
M  V30 5299 H 693.468 -8.29056 5.99158 0
M  V30 5300 H 691.838 -8.10073 5.25882 0
M  V30 5301 H 694.477 -6.30324 0.726794 0
M  V30 5302 P 696.335 -8.4349 2.47671 0
M  V30 5303 O 697.757 -8.94167 2.5964 0
M  V30 5304 O 695.975 -7.1704 3.19006 0
M  V30 5305 O 696.012 -8.16596 0.923387 0
M  V30 5306 C 695.852 -9.38437 0.108857 0
M  V30 5307 C 696.392 -9.08175 -1.28353 0
M  V30 5308 O 695.336 -8.44229 -1.84713 0
M  V30 5309 C 697.61 -8.18386 -1.42505 0
M  V30 5310 O 698.348 -8.3501 -2.60497 0
M  V30 5311 C 696.941 -6.80225 -1.25468 0
M  V30 5312 O 697.74 -5.81621 -1.91066 0
M  V30 5313 C 695.604 -7.02416 -1.9168 0
M  V30 5314 H 695.636 -6.6888 -2.96621 0
M  V30 5315 H 696.819 -6.53617 -0.192223 0
M  V30 5316 H 698.303 -8.36622 -0.589963 0
M  V30 5317 H 696.609 -10.0291 -1.79807 0
M  V30 5318 H 696.419 -10.2138 0.558219 0
M  V30 5319 H 694.789 -9.6579 0.0444202 0
M  V30 5320 H 697.428 -5.69556 -2.79637 0
M  V30 5321 P 699.285 -8.4349 -2.47671 0
M  V30 5322 O 700.706 -8.92689 -2.65029 0
M  V30 5323 O 698.925 -7.7568 -1.19296 0
M  V30 5324 O 698.962 -7.36886 -3.63805 0
M  V30 5325 C 698.801 -7.95433 -4.98253 0
M  V30 5326 C 699.342 -6.94612 -5.98974 0
M  V30 5327 O 698.287 -6.10277 -6.11744 0
M  V30 5328 C 700.56 -6.11426 -5.62335 0
M  V30 5329 O 701.298 -5.6162 -6.70584 0
M  V30 5330 C 699.892 -5.04409 -4.73308 0
M  V30 5331 O 700.69 -3.86404 -4.74719 0
M  V30 5332 C 698.554 -4.8728 -5.41006 0
M  V30 5333 N 697.511 -4.65812 -4.42377 0
M  V30 5334 C 697.68 -5.09132 -3.15382 0
M  V30 5335 N 696.653 -4.84021 -2.3716 0
M  V30 5336 C 695.768 -4.18386 -3.20441 0
M  V30 5337 C 694.501 -3.6275 -2.94905 0
M  V30 5338 N 693.902 -3.65794 -1.73372 0
M  V30 5339 N 693.936 -3.05008 -4.05243 0
M  V30 5340 C 694.538 -2.98348 -5.28159 0
M  V30 5341 N 695.715 -3.48171 -5.56333 0
M  V30 5342 C 696.29 -4.06869 -4.47212 0
M  V30 5343 H 698.586 -4.02278 -6.11074 0
M  V30 5344 H 699.769 -5.39013 -3.70026 0
M  V30 5345 H 701.252 -6.71916 -5.01943 0
M  V30 5346 H 699.558 -7.45796 -6.94223 0
M  V30 5347 H 699.368 -8.89416 -5.05237 0
M  V30 5348 H 697.738 -8.14876 -5.18409 0
M  V30 5349 H 694.002 -2.47853 -6.07807 0
M  V30 5350 H 698.58 -5.59989 -2.81362 0
M  V30 5351 H 692.972 -3.23218 -1.60782 0
M  V30 5352 H 694.376 -4.10523 -0.937856 0
M  V30 5353 H 700.378 -3.27906 -5.43085 0
M  V30 5354 P 702.236 -5.75688 -6.64379 0
M  V30 5355 O 703.658 -6.07758 -7.05656 0
M  V30 5356 O 701.876 -5.88047 -5.19722 0
M  V30 5357 O 701.913 -4.2322 -7.04443 0
M  V30 5358 C 701.753 -3.99743 -8.4911 0
M  V30 5359 C 702.293 -2.60487 -8.79329 0
M  V30 5360 O 701.238 -1.82684 -8.4467 0
M  V30 5361 C 703.511 -2.10343 -8.03628 0
M  V30 5362 O 704.249 -1.09919 -8.67766 0
M  V30 5363 C 702.843 -1.68446 -6.70876 0
M  V30 5364 O 703.641 -0.678026 -6.08333 0
M  V30 5365 C 701.505 -1.17436 -7.18567 0
M  V30 5366 N 700.462 -1.52699 -6.23988 0
M  V30 5367 C 700.524 -2.68084 -5.57824 0
M  V30 5368 N 699.479 -2.8189 -4.75643 0
M  V30 5369 C 698.745 -1.72373 -4.95155 0
M  V30 5370 C 697.439 -1.37653 -4.44996 0
M  V30 5371 O 696.706 -2.02239 -3.68445 0
M  V30 5372 N 697.009 -0.17675 -4.90782 0
M  V30 5373 C 697.758 0.645036 -5.78716 0
M  V30 5374 N 697.161 1.84214 -6.10618 0
M  V30 5375 N 698.911 0.321732 -6.30279 0
M  V30 5376 C 699.368 -0.87502 -5.86913 0
M  V30 5377 H 701.537 -0.0804732 -7.31656 0
M  V30 5378 H 702.72 -2.53998 -6.02444 0
M  V30 5379 H 704.205 -2.93095 -7.8582 0
M  V30 5380 H 702.51 -2.53065 -9.86973 0
M  V30 5381 H 702.32 -4.75072 -9.05887 0
M  V30 5382 H 700.689 -4.05244 -8.76668 0
M  V30 5383 H 696.113 0.152143 -4.60849 0
M  V30 5384 H 701.32 -3.41852 -5.69006 0
M  V30 5385 H 696.25 2.08538 -5.69521 0
M  V30 5386 H 697.626 2.4895 -6.75698 0
M  V30 5387 H 703.33 0.177619 -6.34151 0
M  V30 5388 P 705.186 -1.25109 -8.70152 0
M  V30 5389 O 706.608 -1.29744 -9.22016 0
M  V30 5390 O 704.826 -2.13714 -7.55141 0
M  V30 5391 O 704.863 0.248149 -8.21425 0
M  V30 5392 C 704.703 1.22779 -9.30434 0
M  V30 5393 C 705.243 2.56293 -8.80664 0
M  V30 5394 O 704.187 3.02979 -8.09349 0
M  V30 5395 C 706.461 2.57523 -7.89775 0
M  V30 5396 O 707.199 3.7668 -7.89438 0
M  V30 5397 C 705.792 2.20997 -6.55446 0
M  V30 5398 O 706.591 2.71895 -5.48509 0
M  V30 5399 C 704.455 2.89693 -6.67988 0
M  V30 5400 H 704.487 3.88793 -6.19859 0
M  V30 5401 H 705.67 1.12046 -6.44229 0
M  V30 5402 H 707.154 1.7746 -8.19711 0
M  V30 5403 H 705.46 3.20706 -9.67112 0
M  V30 5404 H 705.27 0.901032 -10.1892 0
M  V30 5405 H 703.64 1.33049 -9.56592 0
M  V30 5406 H 706.279 3.57847 -5.23962 0
M  V30 5407 P 708.137 3.65191 -7.99657 0
M  V30 5408 O 709.538 3.87414 -8.52829 0
M  V30 5409 O 707.759 2.26932 -7.566 0
M  V30 5410 O 707.814 4.64915 -6.77529 0
M  V30 5411 C 707.654 6.06319 -7.16352 0
M  V30 5412 C 708.194 6.91655 -6.02234 0
M  V30 5413 O 707.138 6.92369 -5.17005 0
M  V30 5414 C 709.411 6.43627 -5.25174 0
M  V30 5415 O 710.15 7.43686 -4.60469 0
M  V30 5416 C 708.744 5.40275 -4.31916 0
M  V30 5417 O 709.542 5.25193 -3.14386 0
M  V30 5418 C 707.406 6.04847 -4.05327 0
M  V30 5419 N 706.363 5.04166 -3.98114 0
M  V30 5420 C 705.328 5.2366 -3.09923 0
M  V30 5421 O 705.367 6.23355 -2.34204 0
M  V30 5422 N 704.316 4.34279 -3.05727 0
M  V30 5423 C 704.364 3.26317 -3.84756 0
M  V30 5424 N 703.354 2.40281 -3.79534 0
M  V30 5425 C 705.46 3.02504 -4.72573 0
M  V30 5426 C 706.426 3.94493 -4.76618 0
M  V30 5427 H 707.438 6.62104 -3.11218 0
M  V30 5428 H 708.621 4.42969 -4.80867 0
M  V30 5429 H 710.105 5.93122 -5.93121 0
M  V30 5430 H 708.411 7.93295 -6.39407 0
M  V30 5431 H 708.22 6.26671 -8.0846 0
M  V30 5432 H 706.59 6.29036 -7.32728 0
M  V30 5433 H 705.508 2.12921 -5.34017 0
M  V30 5434 H 707.272 3.80658 -5.44176 0
M  V30 5435 H 702.564 2.57561 -3.15653 0
M  V30 5436 H 703.359 1.56492 -4.39044 0
M  V30 5437 H 709.326 5.93572 -2.52637 0
M  V30 5438 P 711.087 7.39546 -4.75277 0
M  V30 5439 O 712.509 7.84798 -5.01039 0
M  V30 5440 O 710.727 5.9812 -5.08098 0
M  V30 5441 O 710.764 7.57503 -3.1866 0
M  V30 5442 C 710.604 8.97357 -2.74833 0
M  V30 5443 C 711.144 9.07548 -1.32709 0
M  V30 5444 O 710.088 8.62072 -0.606159 0
M  V30 5445 C 712.362 8.25383 -0.938334 0
M  V30 5446 O 713.1 8.74577 0.146954 0
M  V30 5447 C 711.693 6.8802 -0.712559 0
M  V30 5448 O 712.492 6.1189 0.194655 0
M  V30 5449 C 710.356 7.27966 -0.139777 0
M  V30 5450 H 710.388 7.25354 0.961601 0
M  V30 5451 H 711.571 6.32557 -1.65702 0
M  V30 5452 H 713.055 8.19355 -1.79097 0
M  V30 5453 H 711.361 10.1294 -1.10029 0
M  V30 5454 H 711.171 9.64276 -3.41316 0
M  V30 5455 H 709.541 9.25417 -2.76357 0
M  V30 5456 H 712.18 6.25267 1.07847 0
M  V30 5457 P 714.038 8.791 5.07466e-12 0
M  V30 5458 O 715.46 9.31096 0.027933 0
M  V30 5459 O 713.678 7.77869 -1.04071 0
M  V30 5460 O 713.715 8.09533 1.41463 0
M  V30 5461 C 713.555 9.0349 2.53943 0
M  V30 5462 C 714.095 8.35226 3.79016 0
M  V30 5463 O 713.039 7.57992 4.15078 0
M  V30 5464 C 715.313 7.45087 3.67298 0
M  V30 5465 O 716.051 7.27796 4.85194 0
M  V30 5466 C 714.644 6.17323 3.12027 0
M  V30 5467 O 715.443 5.04231 3.47188 0
M  V30 5468 C 713.307 6.19961 3.81809 0
M  V30 5469 H 713.339 5.58218 4.73051 0
M  V30 5470 H 714.522 6.21726 2.02589 0
M  V30 5471 H 716.006 7.86112 2.9231 0
M  V30 5472 H 714.312 9.11627 4.55076 0
M  V30 5473 H 714.122 9.9573 2.34194 0
M  V30 5474 H 712.492 9.2792 2.67832 0
M  V30 5475 H 715.131 4.67702 4.28772 0
M  V30 5476 P 716.989 7.39546 4.75277 0
M  V30 5477 O 718.411 7.81777 5.05738 0
M  V30 5478 O 716.629 7.1065 3.32998 0
M  V30 5479 O 716.666 6.04542 5.56673 0
M  V30 5480 C 716.506 6.22772 7.02095 0
M  V30 5481 C 717.046 4.97725 7.70406 0
M  V30 5482 O 715.99 4.13256 7.58987 0
M  V30 5483 C 718.264 4.28231 7.11815 0
M  V30 5484 O 719.002 3.49945 8.01648 0
M  V30 5485 C 717.595 3.5063 5.96244 0
M  V30 5486 O 718.394 2.36482 5.64681 0
M  V30 5487 C 716.258 3.15122 6.56374 0
M  V30 5488 H 716.29 2.13853 6.99751 0
M  V30 5489 H 717.473 4.13501 5.06559 0
M  V30 5490 H 718.957 5.03285 6.70911 0
M  V30 5491 H 717.263 5.20877 8.75697 0
M  V30 5492 H 717.073 7.11046 7.35349 0
M  V30 5493 H 715.443 6.35815 7.26986 0
M  V30 5494 H 718.082 1.61644 6.13565 0
M  V30 5495 P 719.939 3.65191 7.99657 0
M  V30 5496 O 721.361 3.8425 8.48115 0
M  V30 5497 O 719.579 4.17805 6.64342 0
M  V30 5498 O 719.616 2.07613 7.95143 0
M  V30 5499 C 719.456 1.44328 9.27336 0
M  V30 5500 C 719.996 0.0220036 9.17197 0
M  V30 5501 O 718.94 -0.626867 8.61923 0
M  V30 5502 C 721.214 -0.24586 8.30336 0
M  V30 5503 O 721.952 -1.39011 8.63583 0
M  V30 5504 C 720.545 -0.273849 6.91158 0
M  V30 5505 O 721.344 -1.06348 6.02892 0
M  V30 5506 C 719.208 -0.897649 7.22545 0
M  V30 5507 H 719.24 -1.9841 7.04286 0
M  V30 5508 H 720.423 0.739928 6.497 0
M  V30 5509 H 721.907 0.60668 8.36503 0
M  V30 5510 H 720.213 -0.352479 10.1829 0
M  V30 5511 H 720.023 2.00611 10.0304 0
M  V30 5512 H 718.393 1.41843 9.55327 0
M  V30 5513 H 721.032 -1.95734 6.03555 0
M  V30 5514 P 722.89 -1.25109 8.70152 0
M  V30 5515 O 724.312 -1.35274 9.21221 0
M  V30 5516 O 722.53 -0.0769065 7.84762 0
M  V30 5517 O 722.567 -2.55232 7.81161 0
M  V30 5518 C 722.407 -3.79939 8.58154 0
M  V30 5519 C 722.947 -4.94023 7.72785 0
M  V30 5520 O 721.891 -5.18726 6.91205 0
M  V30 5521 C 724.165 -4.69597 6.85231 0
M  V30 5522 O 724.903 -5.83832 6.51337 0
M  V30 5523 C 723.496 -3.96706 5.66633 0
M  V30 5524 O 724.295 -4.15414 4.49689 0
M  V30 5525 C 722.159 -4.66153 5.59313 0
M  V30 5526 H 722.191 -5.47679 4.85214 0
M  V30 5527 H 723.374 -2.89008 5.86566 0
M  V30 5528 H 724.858 -4.0121 7.36511 0
M  V30 5529 H 723.164 -5.80182 8.37584 0
M  V30 5530 H 722.974 -3.73517 9.52265 0
M  V30 5531 H 721.344 -3.97163 8.80359 0
M  V30 5532 H 723.983 -4.90969 4.01921 0
M  V30 5533 P 725.84 -5.75688 6.64379 0
M  V30 5534 O 727.261 -6.11915 7.01921 0
M  V30 5535 O 725.48 -4.30744 6.56026 0
M  V30 5536 O 725.517 -6.37042 5.19165 0
M  V30 5537 C 725.356 -7.83662 5.1657 0
M  V30 5538 C 725.897 -8.33398 3.83019 0
M  V30 5539 O 724.842 -8.0998 3.00999 0
M  V30 5540 C 727.115 -7.65514 3.2257 0
M  V30 5541 O 727.853 -8.4329 2.32297 0
M  V30 5542 C 726.447 -6.40075 2.62207 0
M  V30 5543 O 727.245 -5.92338 1.5428 0
M  V30 5544 C 725.109 -6.9454 2.18503 0
M  V30 5545 N 724.066 -5.95905 2.39948 0
M  V30 5546 C 724.235 -4.98383 3.32108 0
M  V30 5547 N 723.208 -4.16798 3.41761 0
M  V30 5548 C 722.323 -4.65287 2.47461 0
M  V30 5549 C 721.056 -4.18946 2.07461 0
M  V30 5550 N 720.457 -3.09661 2.60717 0
M  V30 5551 N 720.491 -4.95327 1.09101 0
M  V30 5552 C 721.093 -6.04369 0.519812 0
M  V30 5553 N 722.27 -6.50694 0.855982 0
M  V30 5554 C 722.845 -5.75818 1.84322 0
M  V30 5555 H 725.141 -7.22964 1.12076 0
M  V30 5556 H 726.324 -5.60502 3.36589 0
M  V30 5557 H 727.807 -7.35707 4.02681 0
M  V30 5558 H 726.113 -9.41302 3.90009 0
M  V30 5559 H 725.923 -8.29056 5.99158 0
M  V30 5560 H 724.293 -8.10073 5.25882 0
M  V30 5561 H 720.557 -6.55843 -0.270373 0
M  V30 5562 H 725.135 -4.88564 3.92502 0
M  V30 5563 H 719.527 -2.80523 2.27218 0
M  V30 5564 H 720.931 -2.55848 3.34465 0
M  V30 5565 H 726.933 -6.30224 0.72668 0
M  V30 5566 P 728.791 -8.4349 2.47671 0
M  V30 5567 O 730.213 -8.94359 2.59696 0
M  V30 5568 O 728.431 -7.1704 3.19006 0
M  V30 5569 O 728.468 -8.16596 0.923387 0
M  V30 5570 C 728.308 -9.38437 0.108857 0
M  V30 5571 C 728.848 -9.08076 -1.28339 0
M  V30 5572 O 727.793 -8.44229 -1.84713 0
M  V30 5573 C 730.066 -8.18386 -1.42505 0
M  V30 5574 O 730.804 -8.3501 -2.60497 0
M  V30 5575 C 729.398 -6.80225 -1.25468 0
M  V30 5576 O 730.196 -5.81526 -1.91035 0
M  V30 5577 C 728.06 -7.02416 -1.9168 0
M  V30 5578 N 727.017 -6.31033 -1.20314 0
M  V30 5579 C 727.079 -6.18781 0.121293 0
M  V30 5580 N 726.034 -5.49762 0.588272 0
M  V30 5581 C 725.3 -5.22015 -0.488988 0
M  V30 5582 C 723.994 -4.61966 -0.596448 0
M  V30 5583 O 723.261 -4.19162 0.309059 0
M  V30 5584 N 723.564 -4.53773 -1.878 0
M  V30 5585 C 724.313 -4.99623 -2.99082 0
M  V30 5586 N 723.716 -4.78912 -4.21227 0
M  V30 5587 N 725.466 -5.59957 -2.91093 0
M  V30 5588 C 725.923 -5.70225 -1.64218 0
M  V30 5589 H 728.092 -6.6888 -2.96621 0
M  V30 5590 H 729.275 -6.53517 -0.192194 0
M  V30 5591 H 730.76 -8.36563 -0.598329 0
M  V30 5592 H 729.065 -10.0291 -1.79807 0
M  V30 5593 H 728.875 -10.2138 0.558219 0
M  V30 5594 H 727.244 -9.6579 0.0444202 0
M  V30 5595 H 722.668 -4.12883 -2.05283 0
M  V30 5596 H 727.875 -6.59596 0.745856 0
M  V30 5597 H 722.805 -4.31425 -4.2628 0
M  V30 5598 H 724.181 -5.11219 -5.07148 0
M  V30 5599 H 729.885 -5.69466 -2.79593 0
M  V30 5600 P 731.741 -8.4349 -2.47671 0
M  V30 5601 O 733.163 -8.92593 -2.65 0
M  V30 5602 O 731.381 -7.7568 -1.19296 0
M  V30 5603 O 731.418 -7.36886 -3.63805 0
M  V30 5604 C 731.258 -7.95349 -4.982 0
M  V30 5605 C 731.798 -6.94612 -5.98974 0
M  V30 5606 O 730.742 -6.10347 -6.11815 0
M  V30 5607 C 733.016 -6.11426 -5.62335 0
M  V30 5608 O 733.754 -5.6162 -6.70584 0
M  V30 5609 C 732.347 -5.04409 -4.73308 0
M  V30 5610 O 733.146 -3.85992 -4.75183 0
M  V30 5611 C 731.01 -4.8728 -5.41006 0
M  V30 5612 H 731.042 -4.02333 -6.11157 0
M  V30 5613 H 732.225 -5.39466 -3.69543 0
M  V30 5614 H 733.709 -6.71916 -5.01943 0
M  V30 5615 H 732.015 -7.4649 -6.93477 0
M  V30 5616 H 731.825 -8.89416 -5.05237 0
M  V30 5617 H 730.195 -8.14876 -5.18409 0
M  V30 5618 H 732.834 -3.27957 -5.4317 0
M  V30 5619 P 734.692 -5.75688 -6.64379 0
M  V30 5620 O 736.113 -6.07692 -7.0558 0
M  V30 5621 O 734.332 -5.88047 -5.19722 0
M  V30 5622 O 734.369 -4.2322 -7.04443 0
M  V30 5623 C 734.208 -3.99785 -8.49201 0
M  V30 5624 C 734.749 -2.60516 -8.79425 0
M  V30 5625 O 733.694 -1.82663 -8.44573 0
M  V30 5626 C 735.967 -2.10343 -8.03628 0
M  V30 5627 O 736.705 -1.09919 -8.67766 0
M  V30 5628 C 735.299 -1.68446 -6.70876 0
M  V30 5629 O 736.097 -0.684109 -6.08265 0
M  V30 5630 C 733.961 -1.17436 -7.18567 0
M  V30 5631 N 732.918 -1.52699 -6.23988 0
M  V30 5632 C 733.087 -2.578 -5.40574 0
M  V30 5633 N 732.06 -2.78966 -4.61193 0
M  V30 5634 C 731.175 -1.78725 -4.95769 0
M  V30 5635 C 729.908 -1.45727 -4.44207 0
M  V30 5636 N 729.309 -2.13994 -3.43613 0
M  V30 5637 N 729.343 -0.374977 -5.05812 0
M  V30 5638 C 729.945 0.345585 -6.05615 0
M  V30 5639 N 731.122 0.0787651 -6.56253 0
M  V30 5640 C 731.697 -1.00499 -5.96189 0
M  V30 5641 H 733.993 -0.0804622 -7.31556 0
M  V30 5642 H 735.176 -2.53396 -6.02698 0
M  V30 5643 H 736.659 -2.93881 -7.85526 0
M  V30 5644 H 734.965 -2.52078 -9.87225 0
M  V30 5645 H 734.775 -4.75072 -9.05887 0
M  V30 5646 H 733.145 -4.05244 -8.76668 0
M  V30 5647 H 729.409 1.20098 -6.4532 0
M  V30 5648 H 733.987 -3.18977 -5.3945 0
M  V30 5649 H 728.379 -1.84983 -3.10004 0
M  V30 5650 H 729.783 -2.9465 -3.00843 0
M  V30 5651 H 735.785 0.177619 -6.34151 0
M  V30 5652 P 737.643 -1.25109 -8.70152 0
M  V30 5653 O 739.043 -1.3516 -9.26897 0
M  V30 5654 O 737.264 -2.18141 -7.59181 0
M  V30 5655 O 737.32 0.248118 -8.21325 0
M  V30 5656 C 737.16 1.22779 -9.30434 0
M  V30 5657 C 737.7 2.56265 -8.80568 0
M  V30 5658 O 736.644 3.02944 -8.09255 0
M  V30 5659 C 738.917 2.57523 -7.89775 0
M  V30 5660 O 739.656 3.7668 -7.89438 0
M  V30 5661 C 738.25 2.20997 -6.55446 0
M  V30 5662 O 739.048 2.71851 -5.48419 0
M  V30 5663 C 736.912 2.89693 -6.67988 0
M  V30 5664 N 735.869 2.08895 -6.07487 0
M  V30 5665 C 734.834 2.72974 -5.43836 0
M  V30 5666 O 734.873 3.97779 -5.34036 0
M  V30 5667 N 733.822 2.0005 -4.91983 0
M  V30 5668 C 733.87 0.66501 -5.00098 0
M  V30 5669 C 734.966 -0.0100979 -5.61099 0
M  V30 5670 C 735.932 0.74189 -6.14236 0
M  V30 5671 H 736.944 3.8874 -6.19774 0
M  V30 5672 H 738.127 1.12673 -6.44018 0
M  V30 5673 H 739.611 1.783 -8.19631 0
M  V30 5674 H 737.917 3.21673 -9.66791 0
M  V30 5675 H 737.726 0.901032 -10.1892 0
M  V30 5676 H 736.096 1.33036 -9.56493 0
M  V30 5677 H 735.014 -1.09591 -5.64358 0
M  V30 5678 H 736.778 0.260263 -6.6359 0
M  V30 5679 H 738.832 3.62759 -5.33442 0
M  V30 5680 P 740.593 3.65191 -7.99657 0
M  V30 5681 O 742.015 3.89332 -8.45794 0
M  V30 5682 O 740.233 2.28472 -7.50807 0
M  V30 5683 O 740.27 4.64972 -6.77611 0
M  V30 5684 C 740.11 6.06319 -7.16352 0
M  V30 5685 C 740.65 6.91731 -6.02299 0
M  V30 5686 O 739.594 6.92449 -5.17064 0
M  V30 5687 C 741.868 6.43627 -5.25174 0
M  V30 5688 O 742.606 7.43686 -4.60469 0
M  V30 5689 C 741.199 5.40275 -4.31916 0
M  V30 5690 O 741.998 5.25279 -3.14438 0
M  V30 5691 C 739.862 6.04847 -4.05327 0
M  V30 5692 H 739.894 6.62195 -3.11261 0
M  V30 5693 H 741.077 4.42556 -4.81383 0
M  V30 5694 H 742.561 5.92458 -5.93643 0
M  V30 5695 H 740.867 7.92655 -6.402 0
M  V30 5696 H 740.677 6.26671 -8.0846 0
M  V30 5697 H 739.047 6.29101 -7.32804 0
M  V30 5698 H 741.686 5.84315 -2.47318 0
M  V30 5699 P 743.544 7.39546 -4.75277 0
M  V30 5700 O 744.966 7.84798 -5.01039 0
M  V30 5701 O 743.184 5.9812 -5.08098 0
M  V30 5702 O 743.221 7.57503 -3.1866 0
M  V30 5703 C 743.061 8.97357 -2.74833 0
M  V30 5704 C 743.601 9.07548 -1.32709 0
M  V30 5705 O 742.545 8.62072 -0.606159 0
M  V30 5706 C 744.819 8.25383 -0.938334 0
M  V30 5707 O 745.557 8.74577 0.146954 0
M  V30 5708 C 744.15 6.8802 -0.712559 0
M  V30 5709 O 744.949 6.1189 0.194655 0
M  V30 5710 C 742.813 7.27966 -0.139777 0
M  V30 5711 H 742.845 7.25354 0.961601 0
M  V30 5712 H 744.028 6.32557 -1.65702 0
M  V30 5713 H 745.512 8.19355 -1.79097 0
M  V30 5714 H 743.818 10.1294 -1.10029 0
M  V30 5715 H 743.628 9.64276 -3.41316 0
M  V30 5716 H 741.998 9.25417 -2.76357 0
M  V30 5717 H 744.637 6.25267 1.07847 0
M  V30 5718 P 746.494 8.791 5.38483e-12 0
M  V30 5719 O 747.916 9.31096 0.027933 0
M  V30 5720 O 746.134 7.77869 -1.04071 0
M  V30 5721 O 746.171 8.09533 1.41463 0
M  V30 5722 C 746.011 9.0349 2.53943 0
M  V30 5723 C 746.551 8.35226 3.79016 0
M  V30 5724 O 745.495 7.57992 4.15078 0
M  V30 5725 C 747.769 7.45087 3.67298 0
M  V30 5726 O 748.507 7.27796 4.85194 0
M  V30 5727 C 747.1 6.17323 3.12027 0
M  V30 5728 O 747.899 5.04231 3.47188 0
M  V30 5729 C 745.763 6.19961 3.81809 0
M  V30 5730 H 745.795 5.58218 4.73051 0
M  V30 5731 H 746.978 6.21726 2.02589 0
M  V30 5732 H 748.462 7.86112 2.9231 0
M  V30 5733 H 746.768 9.11627 4.55076 0
M  V30 5734 H 746.578 9.9573 2.34194 0
M  V30 5735 H 744.948 9.2792 2.67832 0
M  V30 5736 H 747.587 4.67702 4.28772 0
M  V30 5737 P 749.445 7.39546 4.75277 0
M  V30 5738 O 750.867 7.81777 5.05738 0
M  V30 5739 O 749.085 7.1065 3.32998 0
M  V30 5740 O 749.122 6.04542 5.56673 0
M  V30 5741 C 748.962 6.22772 7.02095 0
M  V30 5742 C 749.502 4.97725 7.70406 0
M  V30 5743 O 748.446 4.13256 7.58987 0
M  V30 5744 C 750.72 4.28231 7.11815 0
M  V30 5745 O 751.458 3.49945 8.01648 0
M  V30 5746 C 750.051 3.5063 5.96244 0
M  V30 5747 O 750.85 2.36482 5.64681 0
M  V30 5748 C 748.714 3.15122 6.56374 0
M  V30 5749 H 748.746 2.13853 6.99751 0
M  V30 5750 H 749.929 4.13501 5.06559 0
M  V30 5751 H 751.413 5.03285 6.70911 0
M  V30 5752 H 749.719 5.20877 8.75697 0
M  V30 5753 H 749.529 7.11046 7.35349 0
M  V30 5754 H 747.899 6.35815 7.26986 0
M  V30 5755 H 750.538 1.61644 6.13565 0
M  V30 5756 P 752.395 3.65191 7.99657 0
M  V30 5757 O 753.816 3.84292 8.48206 0
M  V30 5758 O 752.035 4.17805 6.64342 0
M  V30 5759 O 752.072 2.07613 7.95143 0
M  V30 5760 C 751.911 1.44344 9.27435 0
M  V30 5761 C 752.452 0.0220036 9.17197 0
M  V30 5762 O 751.397 -0.626794 8.61824 0
M  V30 5763 C 753.67 -0.24586 8.30336 0
M  V30 5764 O 754.408 -1.39011 8.63583 0
M  V30 5765 C 753.002 -0.273849 6.91158 0
M  V30 5766 O 753.8 -1.05728 6.029 0
M  V30 5767 C 751.664 -0.897649 7.22545 0
M  V30 5768 N 750.621 -0.292839 6.41732 0
M  V30 5769 C 750.79 0.950603 5.91308 0
M  V30 5770 N 749.763 1.37732 5.21105 0
M  V30 5771 C 748.878 0.318109 5.26039 0
M  V30 5772 C 747.611 0.146766 4.6727 0
M  V30 5773 N 747.046 -1.06525 4.95887 0
M  V30 5774 C 747.648 -2.0378 5.71347 0
M  V30 5775 N 748.825 -1.92445 6.27451 0
M  V30 5776 C 749.4 -0.715382 6.00353 0
M  V30 5777 H 752.879 0.733318 6.49674 0
M  V30 5778 H 754.362 0.60668 8.36503 0
M  V30 5779 H 752.668 -0.362662 10.1825 0
M  V30 5780 H 752.478 2.00611 10.0304 0
M  V30 5781 H 750.848 1.41843 9.55327 0
M  V30 5782 H 751.69 1.54076 6.07465 0
M  V30 5783 H 753.488 -1.95704 6.0346 0
M  V30 5784 P 755.346 -1.25109 8.70152 0
M  V30 5785 O 756.768 -1.35274 9.21221 0
M  V30 5786 O 754.986 -0.0769065 7.84762 0
M  V30 5787 O 755.023 -2.55232 7.81161 0
M  V30 5788 C 754.863 -3.79939 8.58154 0
M  V30 5789 C 755.403 -4.94023 7.72785 0
M  V30 5790 O 754.347 -5.18726 6.91205 0
M  V30 5791 C 756.621 -4.69597 6.85231 0
M  V30 5792 O 757.359 -5.83832 6.51337 0
M  V30 5793 C 755.952 -3.96706 5.66633 0
M  V30 5794 O 756.751 -4.15414 4.49689 0
M  V30 5795 C 754.615 -4.66153 5.59313 0
M  V30 5796 H 754.647 -5.47679 4.85214 0
M  V30 5797 H 755.83 -2.89008 5.86566 0
M  V30 5798 H 757.314 -4.0121 7.36511 0
M  V30 5799 H 755.62 -5.80182 8.37584 0
M  V30 5800 H 755.43 -3.73517 9.52265 0
M  V30 5801 H 753.8 -3.97163 8.80359 0
M  V30 5802 H 756.439 -4.90969 4.01921 0
M  V30 5803 P 758.296 -5.75688 6.64379 0
M  V30 5804 O 759.718 -6.11849 7.01846 0
M  V30 5805 O 757.936 -4.30744 6.56026 0
M  V30 5806 O 757.973 -6.37042 5.19165 0
M  V30 5807 C 757.813 -7.83578 5.16515 0
M  V30 5808 C 758.353 -8.33398 3.83019 0
M  V30 5809 O 757.297 -8.10074 3.01034 0
M  V30 5810 C 759.571 -7.65514 3.2257 0
M  V30 5811 O 760.309 -8.4329 2.32297 0
M  V30 5812 C 758.902 -6.40075 2.62207 0
M  V30 5813 O 759.701 -5.92589 1.53712 0
M  V30 5814 C 757.565 -6.9454 2.18503 0
M  V30 5815 H 757.597 -7.23063 1.12091 0
M  V30 5816 H 758.78 -5.6025 3.37201 0
M  V30 5817 H 760.264 -7.35707 4.02681 0
M  V30 5818 H 758.57 -9.40912 3.9095 0
M  V30 5819 H 758.38 -8.29056 5.99158 0
M  V30 5820 H 756.75 -8.10073 5.25882 0
M  V30 5821 H 759.389 -6.30324 0.726794 0
M  V30 5822 P 761.247 -8.4349 2.47671 0
M  V30 5823 O 762.668 -8.94263 2.59668 0
M  V30 5824 O 760.887 -7.1704 3.19006 0
M  V30 5825 O 760.924 -8.16596 0.923387 0
M  V30 5826 C 760.763 -9.38537 0.108869 0
M  V30 5827 C 761.304 -9.08175 -1.28353 0
M  V30 5828 O 760.249 -8.44131 -1.84692 0
M  V30 5829 C 762.522 -8.18386 -1.42505 0
M  V30 5830 O 763.26 -8.3501 -2.60497 0
M  V30 5831 C 761.854 -6.80225 -1.25468 0
M  V30 5832 O 762.652 -5.81716 -1.90454 0
M  V30 5833 C 760.516 -7.02416 -1.9168 0
M  V30 5834 N 759.473 -6.31033 -1.20314 0
M  V30 5835 C 759.642 -5.98817 0.0994088 0
M  V30 5836 N 758.615 -5.35403 0.621694 0
M  V30 5837 C 757.73 -5.25212 -0.43376 0
M  V30 5838 C 756.463 -4.64602 -0.519722 0
M  V30 5839 N 755.898 -4.7568 -1.76013 0
M  V30 5840 C 756.5 -5.3653 -2.83017 0
M  V30 5841 N 757.677 -5.93676 -2.79782 0
M  V30 5842 C 758.252 -5.84061 -1.56249 0
M  V30 5843 H 761.731 -6.53498 -0.198729 0
M  V30 5844 H 763.214 -8.36622 -0.589963 0
M  V30 5845 H 761.52 -10.0273 -1.8081 0
M  V30 5846 H 761.33 -10.2138 0.558219 0
M  V30 5847 H 759.7 -9.6579 0.0444202 0
M  V30 5848 H 760.542 -6.23209 0.660562 0
M  V30 5849 H 762.34 -5.69466 -2.79593 0
M  V30 5850 P 764.198 -8.4349 -2.47671 0
M  V30 5851 O 765.62 -8.92785 -2.65057 0
M  V30 5852 O 763.838 -7.7568 -1.19296 0
M  V30 5853 O 763.875 -7.36886 -3.63805 0
M  V30 5854 C 763.715 -7.95349 -4.982 0
M  V30 5855 C 764.255 -6.94537 -5.98908 0
M  V30 5856 O 763.2 -6.10347 -6.11815 0
M  V30 5857 C 765.473 -6.11426 -5.62335 0
M  V30 5858 O 766.211 -5.6162 -6.70584 0
M  V30 5859 C 764.805 -5.04409 -4.73308 0
M  V30 5860 O 765.603 -3.85929 -4.75106 0
M  V30 5861 C 763.467 -4.8728 -5.41006 0
M  V30 5862 N 762.424 -4.65812 -4.42377 0
M  V30 5863 C 762.486 -5.27109 -3.24335 0
M  V30 5864 N 761.441 -4.94293 -2.47735 0
M  V30 5865 C 760.707 -4.1271 -3.23359 0
M  V30 5866 C 759.401 -3.56384 -2.99934 0
M  V30 5867 O 758.668 -3.69331 -2.00616 0
M  V30 5868 N 758.971 -2.80206 -4.03316 0
M  V30 5869 C 759.72 -2.58614 -5.2172 0
M  V30 5870 N 759.123 -1.75154 -6.13278 0
M  V30 5871 N 760.873 -3.13689 -5.47619 0
M  V30 5872 C 761.33 -3.90921 -4.46436 0
M  V30 5873 H 763.499 -4.02333 -6.11157 0
M  V30 5874 H 764.682 -5.39383 -3.69487 0
M  V30 5875 H 766.167 -6.71414 -5.02615 0
M  V30 5876 H 764.472 -7.4649 -6.93477 0
M  V30 5877 H 764.282 -8.89416 -5.05237 0
M  V30 5878 H 762.651 -8.14876 -5.18409 0
M  V30 5879 H 758.075 -2.36355 -3.95916 0
M  V30 5880 H 763.282 -5.95212 -2.93859 0
M  V30 5881 H 758.212 -1.32473 -5.91856 0
M  V30 5882 H 759.588 -1.5588 -7.03026 0
M  V30 5883 H 765.292 -3.27906 -5.43085 0
M  V30 5884 P 767.148 -5.75688 -6.64379 0
M  V30 5885 O 768.57 -6.07627 -7.05504 0
M  V30 5886 O 766.788 -5.88047 -5.19722 0
M  V30 5887 O 766.825 -4.2322 -7.04443 0
M  V30 5888 C 766.665 -3.99743 -8.4911 0
M  V30 5889 C 767.205 -2.60516 -8.79425 0
M  V30 5890 O 766.149 -1.82684 -8.4467 0
M  V30 5891 C 768.423 -2.10343 -8.03628 0
M  V30 5892 O 769.161 -1.09919 -8.67766 0
M  V30 5893 C 767.754 -1.68446 -6.70876 0
M  V30 5894 O 768.553 -0.678137 -6.08433 0
M  V30 5895 C 766.417 -1.17436 -7.18567 0
M  V30 5896 H 766.449 -0.0804732 -7.31656 0
M  V30 5897 H 767.632 -2.54037 -6.02537 0
M  V30 5898 H 769.116 -2.93881 -7.85526 0
M  V30 5899 H 767.422 -2.53065 -9.86973 0
M  V30 5900 H 767.232 -4.75072 -9.05887 0
M  V30 5901 H 765.602 -4.05244 -8.76668 0
M  V30 5902 H 768.241 0.177647 -6.34251 0
M  V30 5903 P 770.099 -1.25109 -8.70152 0
M  V30 5904 O 771.521 -1.29744 -9.22016 0
M  V30 5905 O 769.739 -2.13714 -7.55141 0
M  V30 5906 O 769.776 0.248149 -8.21425 0
M  V30 5907 C 769.616 1.22779 -9.30434 0
M  V30 5908 C 770.156 2.56293 -8.80664 0
M  V30 5909 O 769.1 3.02979 -8.09349 0
M  V30 5910 C 771.374 2.57523 -7.89775 0
M  V30 5911 O 772.112 3.7668 -7.89438 0
M  V30 5912 C 770.705 2.20997 -6.55446 0
M  V30 5913 O 771.504 2.71895 -5.48509 0
M  V30 5914 C 769.368 2.89693 -6.67988 0
M  V30 5915 H 769.4 3.88793 -6.19859 0
M  V30 5916 H 770.583 1.12046 -6.44229 0
M  V30 5917 H 772.067 1.7746 -8.19711 0
M  V30 5918 H 770.373 3.20706 -9.67112 0
M  V30 5919 H 770.183 0.901032 -10.1892 0
M  V30 5920 H 768.553 1.33049 -9.56592 0
M  V30 5921 H 771.192 3.57847 -5.23962 0
M  V30 5922 P 773.049 3.65191 -7.99657 0
M  V30 5923 O 774.45 3.87414 -8.52829 0
M  V30 5924 O 772.671 2.26932 -7.566 0
M  V30 5925 O 772.726 4.64915 -6.77529 0
M  V30 5926 C 772.566 6.06319 -7.16352 0
M  V30 5927 C 773.106 6.91655 -6.02234 0
M  V30 5928 O 772.05 6.92369 -5.17005 0
M  V30 5929 C 774.323 6.43627 -5.25174 0
M  V30 5930 O 775.062 7.43686 -4.60469 0
M  V30 5931 C 773.656 5.40275 -4.31916 0
M  V30 5932 O 774.454 5.25193 -3.14386 0
M  V30 5933 C 772.318 6.04847 -4.05327 0
M  V30 5934 N 771.275 5.04166 -3.98114 0
M  V30 5935 C 770.24 5.2366 -3.09923 0
M  V30 5936 O 770.279 6.23355 -2.34204 0
M  V30 5937 N 769.228 4.34279 -3.05727 0
M  V30 5938 C 769.276 3.26317 -3.84756 0
M  V30 5939 C 770.372 3.02504 -4.72573 0
M  V30 5940 C 771.338 3.94493 -4.76618 0
M  V30 5941 H 772.35 6.62104 -3.11218 0
M  V30 5942 H 773.533 4.42969 -4.80867 0
M  V30 5943 H 775.017 5.93122 -5.93121 0
M  V30 5944 H 773.323 7.93295 -6.39407 0
M  V30 5945 H 773.132 6.26671 -8.0846 0
M  V30 5946 H 771.502 6.29036 -7.32728 0
M  V30 5947 H 770.42 2.12921 -5.34017 0
M  V30 5948 H 772.184 3.80658 -5.44176 0
M  V30 5949 H 774.238 5.93572 -2.52637 0
M  V30 5950 P 776 7.39546 -4.75277 0
M  V30 5951 O 777.401 7.86988 -5.07993 0
M  V30 5952 O 775.622 5.99957 -5.13804 0
M  V30 5953 O 775.677 7.57411 -3.18621 0
M  V30 5954 C 775.517 8.97357 -2.74833 0
M  V30 5955 C 776.057 9.0745 -1.32694 0
M  V30 5956 O 775.001 8.61972 -0.606089 0
M  V30 5957 C 777.274 8.25383 -0.938334 0
M  V30 5958 O 778.013 8.74577 0.146954 0
M  V30 5959 C 776.607 6.8802 -0.712559 0
M  V30 5960 O 777.405 6.11791 0.194623 0
M  V30 5961 C 775.269 7.27966 -0.139777 0
M  V30 5962 N 774.226 6.39368 -0.623421 0
M  V30 5963 C 773.191 6.08088 0.223886 0
M  V30 5964 O 773.23 6.5102 1.39986 0
M  V30 5965 N 772.179 5.30627 -0.224051 0
M  V30 5966 C 772.227 4.82531 -1.47257 0
M  V30 5967 C 773.323 5.09974 -2.34008 0
M  V30 5968 C 774.289 5.89548 -1.87678 0
M  V30 5969 H 775.301 7.25255 0.961469 0
M  V30 5970 H 776.484 6.32625 -1.65044 0
M  V30 5971 H 777.968 8.19631 -1.78299 0
M  V30 5972 H 776.274 10.1305 -1.09016 0
M  V30 5973 H 776.083 9.64276 -3.41316 0
M  V30 5974 H 774.453 9.25321 -2.76328 0
M  V30 5975 H 773.371 4.67832 -3.3413 0
M  V30 5976 H 775.135 6.14434 -2.51991 0
M  V30 5977 H 777.189 6.35931 1.08377 0
M  V30 5978 P 778.95 8.791 5.69499e-12 0
M  V30 5979 O 780.372 9.31096 0.027933 0
M  V30 5980 O 778.59 7.77869 -1.04071 0
M  V30 5981 O 778.627 8.09533 1.41463 0
M  V30 5982 C 778.467 9.0349 2.53943 0
M  V30 5983 C 779.007 8.35226 3.79016 0
M  V30 5984 O 777.951 7.57992 4.15078 0
M  V30 5985 C 780.225 7.45087 3.67298 0
M  V30 5986 O 780.963 7.27796 4.85194 0
M  V30 5987 C 779.556 6.17323 3.12027 0
M  V30 5988 O 780.355 5.04231 3.47188 0
M  V30 5989 C 778.219 6.19961 3.81809 0
M  V30 5990 H 778.251 5.58218 4.73051 0
M  V30 5991 H 779.434 6.21726 2.02589 0
M  V30 5992 H 780.918 7.86112 2.9231 0
M  V30 5993 H 779.224 9.11627 4.55076 0
M  V30 5994 H 779.034 9.9573 2.34194 0
M  V30 5995 H 777.404 9.2792 2.67832 0
M  V30 5996 H 780.043 4.67702 4.28772 0
M  V30 5997 P 781.901 7.39546 4.75277 0
M  V30 5998 O 783.322 7.81861 5.05793 0
M  V30 5999 O 781.541 7.1065 3.32998 0
M  V30 6000 O 781.578 6.04542 5.56673 0
M  V30 6001 C 781.417 6.22839 7.02169 0
M  V30 6002 C 781.958 4.97725 7.70406 0
M  V30 6003 O 780.903 4.13208 7.58899 0
M  V30 6004 C 783.176 4.28231 7.11815 0
M  V30 6005 O 783.914 3.49945 8.01648 0
M  V30 6006 C 782.508 3.5063 5.96244 0
M  V30 6007 O 783.306 2.37008 5.64352 0
M  V30 6008 C 781.17 3.15122 6.56374 0
M  V30 6009 N 780.127 3.22311 5.55692 0
M  V30 6010 C 780.296 3.99655 4.46046 0
M  V30 6011 N 779.269 3.97599 3.63918 0
M  V30 6012 C 778.384 3.11159 4.25334 0
M  V30 6013 C 777.117 2.64972 3.85157 0
M  V30 6014 N 776.552 1.78482 4.74759 0
M  V30 6015 C 777.154 1.37463 5.90819 0
M  V30 6016 N 778.331 1.7733 6.31889 0
M  V30 6017 C 778.906 2.64393 5.43725 0
M  V30 6018 H 782.385 4.12931 5.06895 0
M  V30 6019 H 783.868 5.03285 6.70911 0
M  V30 6020 H 782.174 5.20001 8.76217 0
M  V30 6021 H 781.984 7.11046 7.35349 0
M  V30 6022 H 780.354 6.35815 7.26986 0
M  V30 6023 H 781.196 4.58037 4.27732 0
M  V30 6024 H 782.994 1.61619 6.13468 0
M  V30 6025 P 784.852 3.65191 7.99657 0
M  V30 6026 O 786.274 3.8425 8.48115 0
M  V30 6027 O 784.492 4.17805 6.64342 0
M  V30 6028 O 784.529 2.07613 7.95143 0
M  V30 6029 C 784.369 1.44328 9.27336 0
M  V30 6030 C 784.909 0.0220036 9.17197 0
M  V30 6031 O 783.853 -0.626867 8.61923 0
M  V30 6032 C 786.127 -0.24586 8.30336 0
M  V30 6033 O 786.865 -1.39011 8.63583 0
M  V30 6034 C 785.458 -0.273849 6.91158 0
M  V30 6035 O 786.257 -1.06348 6.02892 0
M  V30 6036 C 784.121 -0.897649 7.22545 0
M  V30 6037 H 784.153 -1.9841 7.04286 0
M  V30 6038 H 785.336 0.739928 6.497 0
M  V30 6039 H 786.82 0.60668 8.36503 0
M  V30 6040 H 785.126 -0.352479 10.1829 0
M  V30 6041 H 784.936 2.00611 10.0304 0
M  V30 6042 H 783.306 1.41843 9.55327 0
M  V30 6043 H 785.945 -1.95734 6.03555 0
M  V30 6044 P 787.802 -1.25109 8.70152 0
M  V30 6045 O 789.224 -1.35274 9.21221 0
M  V30 6046 O 787.442 -0.0769065 7.84762 0
M  V30 6047 O 787.479 -2.55232 7.81161 0
M  V30 6048 C 787.319 -3.79939 8.58154 0
M  V30 6049 C 787.859 -4.94023 7.72785 0
M  V30 6050 O 786.803 -5.18726 6.91205 0
M  V30 6051 C 789.077 -4.69597 6.85231 0
M  V30 6052 O 789.815 -5.83832 6.51337 0
M  V30 6053 C 788.408 -3.96706 5.66633 0
M  V30 6054 O 789.207 -4.15414 4.49689 0
M  V30 6055 C 787.071 -4.66153 5.59313 0
M  V30 6056 H 787.103 -5.47679 4.85214 0
M  V30 6057 H 788.286 -2.89008 5.86566 0
M  V30 6058 H 789.77 -4.0121 7.36511 0
M  V30 6059 H 788.076 -5.80182 8.37584 0
M  V30 6060 H 787.886 -3.73517 9.52265 0
M  V30 6061 H 786.256 -3.97163 8.80359 0
M  V30 6062 H 788.895 -4.90969 4.01921 0
M  V30 6063 P 790.753 -5.75688 6.64379 0
M  V30 6064 O 792.175 -6.11849 7.01846 0
M  V30 6065 O 790.393 -4.30744 6.56026 0
M  V30 6066 O 790.43 -6.37042 5.19165 0
M  V30 6067 C 790.27 -7.83578 5.16515 0
M  V30 6068 C 790.81 -8.33398 3.83019 0
M  V30 6069 O 789.754 -8.10074 3.01034 0
M  V30 6070 C 792.028 -7.65514 3.2257 0
M  V30 6071 O 792.766 -8.4329 2.32297 0
M  V30 6072 C 791.359 -6.40075 2.62207 0
M  V30 6073 O 792.158 -5.92589 1.53712 0
M  V30 6074 C 790.022 -6.9454 2.18503 0
M  V30 6075 H 790.054 -7.23063 1.12091 0
M  V30 6076 H 791.237 -5.6025 3.37201 0
M  V30 6077 H 792.721 -7.35707 4.02681 0
M  V30 6078 H 791.027 -9.40912 3.9095 0
M  V30 6079 H 790.837 -8.29056 5.99158 0
M  V30 6080 H 789.207 -8.10073 5.25882 0
M  V30 6081 H 791.846 -6.30324 0.726794 0
M  V30 6082 P 793.703 -8.4349 2.47671 0
M  V30 6083 O 795.125 -8.94167 2.5964 0
M  V30 6084 O 793.343 -7.1704 3.19006 0
M  V30 6085 O 793.38 -8.16596 0.923387 0
M  V30 6086 C 793.22 -9.38437 0.108857 0
M  V30 6087 C 793.76 -9.08175 -1.28353 0
M  V30 6088 O 792.704 -8.44229 -1.84713 0
M  V30 6089 C 794.978 -8.18386 -1.42505 0
M  V30 6090 O 795.716 -8.3501 -2.60497 0
M  V30 6091 C 794.309 -6.80225 -1.25468 0
M  V30 6092 O 795.108 -5.81621 -1.91066 0
M  V30 6093 C 792.972 -7.02416 -1.9168 0
M  V30 6094 H 793.004 -6.6888 -2.96621 0
M  V30 6095 H 794.187 -6.53617 -0.192223 0
M  V30 6096 H 795.671 -8.36622 -0.589963 0
M  V30 6097 H 793.977 -10.0291 -1.79807 0
M  V30 6098 H 793.787 -10.2138 0.558219 0
M  V30 6099 H 792.157 -9.6579 0.0444202 0
M  V30 6100 H 794.796 -5.69556 -2.79637 0
M  V30 6101 P 796.654 -8.4349 -2.47671 0
M  V30 6102 O 798.076 -8.92593 -2.65 0
M  V30 6103 O 796.294 -7.7568 -1.19296 0
M  V30 6104 O 796.331 -7.36886 -3.63805 0
M  V30 6105 C 796.171 -7.95349 -4.982 0
M  V30 6106 C 796.711 -6.94612 -5.98974 0
M  V30 6107 O 795.655 -6.10347 -6.11815 0
M  V30 6108 C 797.929 -6.11426 -5.62335 0
M  V30 6109 O 798.667 -5.6162 -6.70584 0
M  V30 6110 C 797.26 -5.04409 -4.73308 0
M  V30 6111 O 798.059 -3.85992 -4.75183 0
M  V30 6112 C 795.923 -4.8728 -5.41006 0
M  V30 6113 H 795.955 -4.02333 -6.11157 0
M  V30 6114 H 797.138 -5.39466 -3.69543 0
M  V30 6115 H 798.622 -6.71916 -5.01943 0
M  V30 6116 H 796.928 -7.4649 -6.93477 0
M  V30 6117 H 796.738 -8.89416 -5.05237 0
M  V30 6118 H 795.108 -8.14876 -5.18409 0
M  V30 6119 H 797.747 -3.27957 -5.4317 0
M  V30 6120 P 799.604 -5.75688 -6.64379 0
M  V30 6121 O 801.026 -6.07627 -7.05504 0
M  V30 6122 O 799.244 -5.88047 -5.19722 0
M  V30 6123 O 799.281 -4.2322 -7.04443 0
M  V30 6124 C 799.121 -3.99743 -8.4911 0
M  V30 6125 C 799.661 -2.60516 -8.79425 0
M  V30 6126 O 798.605 -1.82684 -8.4467 0
M  V30 6127 C 800.879 -2.10343 -8.03628 0
M  V30 6128 O 801.617 -1.09919 -8.67766 0
M  V30 6129 C 800.21 -1.68446 -6.70876 0
M  V30 6130 O 801.009 -0.678137 -6.08433 0
M  V30 6131 C 798.873 -1.17436 -7.18567 0
M  V30 6132 H 798.905 -0.0804732 -7.31656 0
M  V30 6133 H 800.088 -2.54037 -6.02537 0
M  V30 6134 H 801.572 -2.93881 -7.85526 0
M  V30 6135 H 799.878 -2.53065 -9.86973 0
M  V30 6136 H 799.688 -4.75072 -9.05887 0
M  V30 6137 H 798.058 -4.05244 -8.76668 0
M  V30 6138 H 800.697 0.177647 -6.34251 0
M  V30 6139 P 802.555 -1.25109 -8.70152 0
M  V30 6140 O 803.977 -1.29744 -9.22016 0
M  V30 6141 O 802.195 -2.13714 -7.55141 0
M  V30 6142 O 802.232 0.248149 -8.21425 0
M  V30 6143 C 802.072 1.22779 -9.30434 0
M  V30 6144 C 802.612 2.56293 -8.80664 0
M  V30 6145 O 801.556 3.02979 -8.09349 0
M  V30 6146 C 803.83 2.57523 -7.89775 0
M  V30 6147 O 804.568 3.7668 -7.89438 0
M  V30 6148 C 803.161 2.20997 -6.55446 0
M  V30 6149 O 803.96 2.71895 -5.48509 0
M  V30 6150 C 801.824 2.89693 -6.67988 0
M  V30 6151 H 801.856 3.88793 -6.19859 0
M  V30 6152 H 803.039 1.12046 -6.44229 0
M  V30 6153 H 804.523 1.7746 -8.19711 0
M  V30 6154 H 802.829 3.20706 -9.67112 0
M  V30 6155 H 802.639 0.901032 -10.1892 0
M  V30 6156 H 801.009 1.33049 -9.56592 0
M  V30 6157 H 803.648 3.57847 -5.23962 0
M  V30 6158 P 805.506 3.65191 -7.99657 0
M  V30 6159 O 806.928 3.89332 -8.45794 0
M  V30 6160 O 805.146 2.28472 -7.50807 0
M  V30 6161 O 805.183 4.64972 -6.77611 0
M  V30 6162 C 805.023 6.06319 -7.16352 0
M  V30 6163 C 805.563 6.91731 -6.02299 0
M  V30 6164 O 804.507 6.92449 -5.17064 0
M  V30 6165 C 806.781 6.43627 -5.25174 0
M  V30 6166 O 807.519 7.43686 -4.60469 0
M  V30 6167 C 806.112 5.40275 -4.31916 0
M  V30 6168 O 806.911 5.25279 -3.14438 0
M  V30 6169 C 804.775 6.04847 -4.05327 0
M  V30 6170 H 804.807 6.62195 -3.11261 0
M  V30 6171 H 805.99 4.42556 -4.81383 0
M  V30 6172 H 807.474 5.92458 -5.93643 0
M  V30 6173 H 805.78 7.92655 -6.402 0
M  V30 6174 H 805.59 6.26671 -8.0846 0
M  V30 6175 H 803.96 6.29101 -7.32804 0
M  V30 6176 H 806.599 5.84315 -2.47318 0
M  V30 6177 P 808.456 7.39546 -4.75277 0
M  V30 6178 O 809.878 7.84798 -5.01039 0
M  V30 6179 O 808.096 5.9812 -5.08098 0
M  V30 6180 O 808.133 7.57503 -3.1866 0
M  V30 6181 C 807.973 8.97357 -2.74833 0
M  V30 6182 C 808.513 9.07548 -1.32709 0
M  V30 6183 O 807.457 8.62072 -0.606159 0
M  V30 6184 C 809.731 8.25383 -0.938334 0
M  V30 6185 O 810.469 8.74577 0.146954 0
M  V30 6186 C 809.062 6.8802 -0.712559 0
M  V30 6187 O 809.861 6.1189 0.194655 0
M  V30 6188 C 807.725 7.27966 -0.139777 0
M  V30 6189 H 807.757 7.25354 0.961601 0
M  V30 6190 H 808.94 6.32557 -1.65702 0
M  V30 6191 H 810.424 8.19355 -1.79097 0
M  V30 6192 H 808.73 10.1294 -1.10029 0
M  V30 6193 H 808.54 9.64276 -3.41316 0
M  V30 6194 H 806.91 9.25417 -2.76357 0
M  V30 6195 H 809.549 6.25267 1.07847 0
M  V30 6196 P 811.407 8.791 6.00516e-12 0
M  V30 6197 O 812.829 9.31096 0.027933 0
M  V30 6198 O 811.047 7.77869 -1.04071 0
M  V30 6199 O 811.084 8.09533 1.41463 0
M  V30 6200 C 810.924 9.0349 2.53943 0
M  V30 6201 C 811.464 8.35226 3.79016 0
M  V30 6202 O 810.408 7.57992 4.15078 0
M  V30 6203 C 812.682 7.45087 3.67298 0
M  V30 6204 O 813.42 7.27796 4.85194 0
M  V30 6205 C 812.013 6.17323 3.12027 0
M  V30 6206 O 812.812 5.04231 3.47188 0
M  V30 6207 C 810.676 6.19961 3.81809 0
M  V30 6208 H 810.708 5.58218 4.73051 0
M  V30 6209 H 811.891 6.21726 2.02589 0
M  V30 6210 H 813.375 7.86112 2.9231 0
M  V30 6211 H 811.681 9.11627 4.55076 0
M  V30 6212 H 811.491 9.9573 2.34194 0
M  V30 6213 H 809.861 9.2792 2.67832 0
M  V30 6214 H 812.5 4.67702 4.28772 0
M  V30 6215 P 814.357 7.39546 4.75277 0
M  V30 6216 O 815.779 7.81945 5.05847 0
M  V30 6217 O 813.997 7.1065 3.32998 0
M  V30 6218 O 814.034 6.04542 5.56673 0
M  V30 6219 C 813.874 6.22772 7.02095 0
M  V30 6220 C 814.414 4.97671 7.70322 0
M  V30 6221 O 813.359 4.13256 7.58987 0
M  V30 6222 C 815.632 4.28231 7.11815 0
M  V30 6223 O 816.37 3.49945 8.01648 0
M  V30 6224 C 814.964 3.5063 5.96244 0
M  V30 6225 O 815.762 2.36443 5.64589 0
M  V30 6226 C 813.626 3.15122 6.56374 0
M  V30 6227 N 812.583 3.22311 5.55692 0
M  V30 6228 C 812.645 4.14382 4.59701 0
M  V30 6229 N 811.6 4.04476 3.76958 0
M  V30 6230 C 810.866 3.04892 4.26534 0
M  V30 6231 C 809.56 2.57447 3.88189 0
M  V30 6232 O 808.827 2.9785 2.96543 0
M  V30 6233 N 809.13 1.55228 4.65922 0
M  V30 6234 C 809.879 1.01152 5.73447 0
M  V30 6235 N 809.282 -0.0472117 6.37783 0
M  V30 6236 N 811.032 1.467 6.13813 0
M  V30 6237 C 811.489 2.4931 5.38487 0
M  V30 6238 H 813.658 2.13853 6.99751 0
M  V30 6239 H 814.841 4.13438 5.06482 0
M  V30 6240 H 816.326 5.02614 6.71414 0
M  V30 6241 H 814.631 5.20877 8.75697 0
M  V30 6242 H 814.441 7.11046 7.35349 0
M  V30 6243 H 812.81 6.35815 7.26986 0
M  V30 6244 H 808.234 1.15238 4.46468 0
M  V30 6245 H 813.441 4.88312 4.49647 0
M  V30 6246 H 808.371 -0.396382 6.05203 0
M  V30 6247 H 809.747 -0.484997 7.18465 0
M  V30 6248 H 815.451 1.61619 6.13468 0
M  V30 6249 P 817.308 3.65191 7.99657 0
M  V30 6250 O 818.73 3.8425 8.48115 0
M  V30 6251 O 816.948 4.17805 6.64342 0
M  V30 6252 O 816.985 2.07613 7.95143 0
M  V30 6253 C 816.825 1.44328 9.27336 0
M  V30 6254 C 817.365 0.0220036 9.17197 0
M  V30 6255 O 816.309 -0.626867 8.61923 0
M  V30 6256 C 818.583 -0.24586 8.30336 0
M  V30 6257 O 819.321 -1.39011 8.63583 0
M  V30 6258 C 817.914 -0.273849 6.91158 0
M  V30 6259 O 818.713 -1.06348 6.02892 0
M  V30 6260 C 816.577 -0.897649 7.22545 0
M  V30 6261 H 816.609 -1.9841 7.04286 0
M  V30 6262 H 817.792 0.739928 6.497 0
M  V30 6263 H 819.276 0.60668 8.36503 0
M  V30 6264 H 817.582 -0.352479 10.1829 0
M  V30 6265 H 817.392 2.00611 10.0304 0
M  V30 6266 H 815.762 1.41843 9.55327 0
M  V30 6267 H 818.401 -1.95734 6.03555 0
M  V30 6268 P 820.258 -1.25109 8.70152 0
M  V30 6269 O 821.68 -1.35274 9.21221 0
M  V30 6270 O 819.898 -0.0769065 7.84762 0
M  V30 6271 O 819.935 -2.55232 7.81161 0
M  V30 6272 C 819.775 -3.79939 8.58154 0
M  V30 6273 C 820.315 -4.94023 7.72785 0
M  V30 6274 O 819.259 -5.18726 6.91205 0
M  V30 6275 C 821.533 -4.69597 6.85231 0
M  V30 6276 O 822.271 -5.83832 6.51337 0
M  V30 6277 C 820.864 -3.96706 5.66633 0
M  V30 6278 O 821.663 -4.15414 4.49689 0
M  V30 6279 C 819.527 -4.66153 5.59313 0
M  V30 6280 H 819.559 -5.47679 4.85214 0
M  V30 6281 H 820.742 -2.89008 5.86566 0
M  V30 6282 H 822.226 -4.0121 7.36511 0
M  V30 6283 H 820.532 -5.80182 8.37584 0
M  V30 6284 H 820.342 -3.73517 9.52265 0
M  V30 6285 H 818.712 -3.97163 8.80359 0
M  V30 6286 H 821.351 -4.90969 4.01921 0
M  V30 6287 P 823.209 -5.75688 6.64379 0
M  V30 6288 O 824.631 -6.11981 7.01997 0
M  V30 6289 O 822.849 -4.30744 6.56026 0
M  V30 6290 O 822.886 -6.37042 5.19165 0
M  V30 6291 C 822.726 -7.83578 5.16515 0
M  V30 6292 C 823.266 -8.33307 3.82977 0
M  V30 6293 O 822.211 -8.10074 3.01034 0
M  V30 6294 C 824.484 -7.65514 3.2257 0
M  V30 6295 O 825.222 -8.4329 2.32297 0
M  V30 6296 C 823.816 -6.40075 2.62207 0
M  V30 6297 O 824.614 -5.92492 1.53687 0
M  V30 6298 C 822.478 -6.9454 2.18503 0
M  V30 6299 N 821.435 -5.95905 2.39948 0
M  V30 6300 C 821.497 -5.13994 3.44742 0
M  V30 6301 N 820.452 -4.30684 3.46712 0
M  V30 6302 C 819.718 -4.65583 2.41086 0
M  V30 6303 C 818.412 -4.20877 1.99581 0
M  V30 6304 O 817.679 -3.35913 2.52616 0
M  V30 6305 N 817.982 -4.83271 0.873406 0
M  V30 6306 C 818.731 -5.82006 0.185129 0
M  V30 6307 N 818.134 -6.30619 -0.95439 0
M  V30 6308 N 819.884 -6.28443 0.578524 0
M  V30 6309 C 820.341 -5.68486 1.70138 0
M  V30 6310 H 822.51 -7.23063 1.12091 0
M  V30 6311 H 823.693 -5.60165 3.3715 0
M  V30 6312 H 825.178 -7.3611 4.01946 0
M  V30 6313 H 823.483 -9.40912 3.9095 0
M  V30 6314 H 823.293 -8.29056 5.99158 0
M  V30 6315 H 821.662 -8.10073 5.25882 0
M  V30 6316 H 817.086 -4.58323 0.505262 0
M  V30 6317 H 822.293 -5.14564 4.1935 0
M  V30 6318 H 817.223 -5.93402 -1.25364 0
M  V30 6319 H 818.599 -7.0425 -1.50254 0
M  V30 6320 H 824.303 -6.30224 0.72668 0
M  V30 6321 P 826.16 -8.4349 2.47671 0
M  V30 6322 O 827.582 -8.94167 2.5964 0
M  V30 6323 O 825.8 -7.1704 3.19006 0
M  V30 6324 O 825.837 -8.16596 0.923387 0
M  V30 6325 C 825.677 -9.38437 0.108857 0
M  V30 6326 C 826.217 -9.08175 -1.28353 0
M  V30 6327 O 825.161 -8.44229 -1.84713 0
M  V30 6328 C 827.435 -8.18386 -1.42505 0
M  V30 6329 O 828.173 -8.3501 -2.60497 0
M  V30 6330 C 826.766 -6.80225 -1.25468 0
M  V30 6331 O 827.565 -5.81621 -1.91066 0
M  V30 6332 C 825.429 -7.02416 -1.9168 0
M  V30 6333 H 825.461 -6.6888 -2.96621 0
M  V30 6334 H 826.644 -6.53617 -0.192223 0
M  V30 6335 H 828.128 -8.36622 -0.589963 0
M  V30 6336 H 826.434 -10.0291 -1.79807 0
M  V30 6337 H 826.244 -10.2138 0.558219 0
M  V30 6338 H 824.614 -9.6579 0.0444202 0
M  V30 6339 H 827.253 -5.69556 -2.79637 0
M  V30 6340 P 829.11 -8.4349 -2.47671 0
M  V30 6341 O 830.532 -8.92593 -2.65 0
M  V30 6342 O 828.75 -7.7568 -1.19296 0
M  V30 6343 O 828.787 -7.36886 -3.63805 0
M  V30 6344 C 828.627 -7.95349 -4.982 0
M  V30 6345 C 829.167 -6.94612 -5.98974 0
M  V30 6346 O 828.111 -6.10347 -6.11815 0
M  V30 6347 C 830.385 -6.11426 -5.62335 0
M  V30 6348 O 831.123 -5.6162 -6.70584 0
M  V30 6349 C 829.716 -5.04409 -4.73308 0
M  V30 6350 O 830.515 -3.85992 -4.75183 0
M  V30 6351 C 828.379 -4.8728 -5.41006 0
M  V30 6352 H 828.411 -4.02333 -6.11157 0
M  V30 6353 H 829.594 -5.39466 -3.69543 0
M  V30 6354 H 831.078 -6.71916 -5.01943 0
M  V30 6355 H 829.384 -7.4649 -6.93477 0
M  V30 6356 H 829.194 -8.89416 -5.05237 0
M  V30 6357 H 827.564 -8.14876 -5.18409 0
M  V30 6358 H 830.203 -3.27957 -5.4317 0
M  V30 6359 P 832.061 -5.75688 -6.64379 0
M  V30 6360 O 833.462 -6.14823 -7.06682 0
M  V30 6361 O 831.683 -5.93957 -5.20728 0
M  V30 6362 O 831.738 -4.23169 -7.04357 0
M  V30 6363 C 831.578 -3.99743 -8.4911 0
M  V30 6364 C 832.118 -2.60487 -8.79329 0
M  V30 6365 O 831.062 -1.82663 -8.44573 0
M  V30 6366 C 833.335 -2.10343 -8.03628 0
M  V30 6367 O 834.074 -1.09919 -8.67766 0
M  V30 6368 C 832.668 -1.68446 -6.70876 0
M  V30 6369 O 833.466 -0.678026 -6.08333 0
M  V30 6370 C 831.33 -1.17436 -7.18567 0
M  V30 6371 N 830.287 -1.52699 -6.23988 0
M  V30 6372 C 829.252 -0.643793 -6.05085 0
M  V30 6373 O 829.291 0.459118 -6.64315 0
M  V30 6374 N 828.24 -0.976931 -5.22038 0
M  V30 6375 C 828.288 -2.14429 -4.56662 0
M  V30 6376 N 827.278 -2.4542 -3.76231 0
M  V30 6377 C 829.384 -3.04203 -4.71481 0
M  V30 6378 C 830.35 -2.69669 -5.56838 0
M  V30 6379 H 831.362 -0.0804622 -7.31556 0
M  V30 6380 H 832.545 -2.53396 -6.02698 0
M  V30 6381 H 834.029 -2.9313 -7.85914 0
M  V30 6382 H 832.335 -2.52078 -9.87225 0
M  V30 6383 H 832.144 -4.75072 -9.05887 0
M  V30 6384 H 830.514 -4.05202 -8.76577 0
M  V30 6385 H 829.432 -3.97309 -4.15519 0
M  V30 6386 H 831.196 -3.36869 -5.72318 0
M  V30 6387 H 826.488 -1.80133 -3.65413 0
M  V30 6388 H 827.283 -3.34359 -3.24736 0
M  V30 6389 H 833.25 0.167718 -6.44882 0
M  V30 6390 P 835.011 -1.25109 -8.70152 0
M  V30 6391 O 836.432 -1.29758 -9.22115 0
M  V30 6392 O 834.651 -2.13714 -7.55141 0
M  V30 6393 O 834.688 0.248149 -8.21425 0
M  V30 6394 C 834.527 1.22792 -9.30533 0
M  V30 6395 C 835.068 2.56293 -8.80664 0
M  V30 6396 O 834.013 3.02944 -8.09255 0
M  V30 6397 C 836.286 2.57523 -7.89775 0
M  V30 6398 O 837.024 3.7668 -7.89438 0
M  V30 6399 C 835.618 2.20997 -6.55446 0
M  V30 6400 O 836.416 2.71302 -5.48691 0
M  V30 6401 C 834.28 2.89693 -6.67988 0
M  V30 6402 N 833.237 2.08895 -6.07487 0
M  V30 6403 C 833.406 0.753809 -5.94137 0
M  V30 6404 N 832.379 0.146592 -5.38801 0
M  V30 6405 C 831.494 1.1768 -5.13693 0
M  V30 6406 C 830.227 1.17563 -4.52477 0
M  V30 6407 N 829.628 0.057481 -4.04759 0
M  V30 6408 N 829.662 2.41918 -4.45789 0
M  V30 6409 C 830.264 3.56493 -4.90792 0
M  V30 6410 N 831.441 3.61423 -5.47817 0
M  V30 6411 C 832.016 2.37779 -5.5588 0
M  V30 6412 H 834.312 3.8874 -6.19774 0
M  V30 6413 H 835.495 1.12673 -6.44018 0
M  V30 6414 H 836.978 1.7746 -8.19711 0
M  V30 6415 H 835.284 3.21673 -9.66791 0
M  V30 6416 H 835.094 0.901032 -10.1892 0
M  V30 6417 H 833.464 1.33049 -9.56592 0
M  V30 6418 H 829.728 4.49919 -4.77947 0
M  V30 6419 H 834.306 0.233081 -6.26266 0
M  V30 6420 H 828.698 0.119831 -3.60801 0
M  V30 6421 H 830.102 -0.852272 -4.12385 0
M  V30 6422 H 836.104 3.5779 -5.23879 0
M  V30 6423 P 837.962 3.65191 -7.99657 0
M  V30 6424 O 839.384 3.89416 -8.45976 0
M  V30 6425 O 837.602 2.28472 -7.50807 0
M  V30 6426 O 837.639 4.64972 -6.77611 0
M  V30 6427 C 837.479 6.06319 -7.16352 0
M  V30 6428 C 838.019 6.91655 -6.02234 0
M  V30 6429 O 836.964 6.92449 -5.17064 0
M  V30 6430 C 839.237 6.43627 -5.25174 0
M  V30 6431 O 839.975 7.43686 -4.60469 0
M  V30 6432 C 838.569 5.40275 -4.31916 0
M  V30 6433 O 839.367 5.25193 -3.14386 0
M  V30 6434 C 837.231 6.04847 -4.05327 0
M  V30 6435 N 836.188 5.04166 -3.98114 0
M  V30 6436 C 836.25 3.96049 -4.75587 0
M  V30 6437 N 835.205 3.15559 -4.54006 0
M  V30 6438 C 834.471 3.78802 -3.62491 0
M  V30 6439 C 833.165 3.476 -3.10071 0
M  V30 6440 O 832.432 2.51136 -3.37021 0
M  V30 6441 N 832.735 4.39088 -2.19956 0
M  V30 6442 C 833.484 5.53215 -1.81733 0
M  V30 6443 N 832.887 6.31963 -0.860928 0
M  V30 6444 N 834.637 5.86688 -2.32562 0
M  V30 6445 C 835.094 4.97525 -3.23407 0
M  V30 6446 H 837.263 6.62195 -3.11261 0
M  V30 6447 H 838.446 4.42488 -4.8131 0
M  V30 6448 H 839.931 5.93051 -5.9305 0
M  V30 6449 H 838.236 7.92655 -6.402 0
M  V30 6450 H 838.046 6.26671 -8.0846 0
M  V30 6451 H 836.415 6.29101 -7.32804 0
M  V30 6452 H 831.839 4.25523 -1.77604 0
M  V30 6453 H 837.046 3.75576 -5.47333 0
M  V30 6454 H 831.976 6.04684 -0.468946 0
M  V30 6455 H 833.352 7.18054 -0.542422 0
M  V30 6456 H 839.056 5.84223 -2.47279 0
M  V30 6457 P 840.912 7.39546 -4.75277 0
M  V30 6458 O 842.334 7.84966 -5.01146 0
M  V30 6459 O 840.552 5.9812 -5.08098 0
M  V30 6460 O 840.589 7.57503 -3.1866 0
M  V30 6461 C 840.429 8.97357 -2.74833 0
M  V30 6462 C 840.969 9.0745 -1.32694 0
M  V30 6463 O 839.914 8.62072 -0.606159 0
M  V30 6464 C 842.187 8.25383 -0.938334 0
M  V30 6465 O 842.925 8.74577 0.146954 0
M  V30 6466 C 841.519 6.8802 -0.712559 0
M  V30 6467 O 842.317 6.11791 0.194623 0
M  V30 6468 C 840.181 7.27966 -0.139777 0
M  V30 6469 N 839.138 6.39368 -0.623421 0
M  V30 6470 C 839.2 5.90299 -1.85969 0
M  V30 6471 N 838.155 5.10919 -2.1133 0
M  V30 6472 C 837.421 5.14646 -1.0015 0
M  V30 6473 C 836.115 4.60057 -0.729219 0
M  V30 6474 O 835.382 3.93476 -1.47746 0
M  V30 6475 N 835.685 4.88302 0.523505 0
M  V30 6476 C 836.434 5.63646 1.46207 0
M  V30 6477 N 835.837 5.78186 2.69239 0
M  V30 6478 N 837.587 6.19285 1.21544 0
M  V30 6479 C 838.044 5.93392 -0.0308487 0
M  V30 6480 H 840.213 7.25354 0.961601 0
M  V30 6481 H 841.396 6.3246 -1.65676 0
M  V30 6482 H 842.881 8.19533 -1.78278 0
M  V30 6483 H 841.186 10.1294 -1.10029 0
M  V30 6484 H 840.996 9.64276 -3.41316 0
M  V30 6485 H 839.365 9.25417 -2.76357 0
M  V30 6486 H 834.789 4.53993 0.806451 0
M  V30 6487 H 839.996 6.11865 -2.57394 0
M  V30 6488 H 834.926 5.34046 2.87467 0
M  V30 6489 H 836.302 6.33391 3.42578 0
M  V30 6490 H 842.006 6.25169 1.0783 0
M  V30 6491 P 843.863 8.791 6.31533e-12 0
M  V30 6492 O 845.284 9.31196 0.027936 0
M  V30 6493 O 843.503 7.77869 -1.04071 0
M  V30 6494 O 843.54 8.09533 1.41463 0
M  V30 6495 C 843.379 9.03587 2.5397 0
M  V30 6496 C 843.92 8.35226 3.79016 0
M  V30 6497 O 842.865 7.57904 4.1503 0
M  V30 6498 C 845.138 7.45087 3.67298 0
M  V30 6499 O 845.876 7.27796 4.85194 0
M  V30 6500 C 844.47 6.17323 3.12027 0
M  V30 6501 O 845.268 5.04496 3.46627 0
M  V30 6502 C 843.132 6.19961 3.81809 0
M  V30 6503 N 842.089 5.71575 2.93223 0
M  V30 6504 C 842.258 5.77362 1.59168 0
M  V30 6505 N 841.231 5.3123 0.911893 0
M  V30 6506 C 840.346 4.91717 1.89588 0
M  V30 6507 C 839.079 4.3114 1.8076 0
M  V30 6508 N 838.514 4.06823 3.02898 0
M  V30 6509 C 839.116 4.35062 4.22711 0
M  V30 6510 N 840.293 4.90805 4.35707 0
M  V30 6511 C 840.868 5.16382 3.14469 0
M  V30 6512 H 844.347 6.21428 2.0318 0
M  V30 6513 H 845.83 7.86112 2.9231 0
M  V30 6514 H 844.136 9.11171 4.55987 0
M  V30 6515 H 843.946 9.9573 2.34194 0
M  V30 6516 H 842.316 9.2792 2.67832 0
M  V30 6517 H 843.158 6.16575 1.12198 0
M  V30 6518 H 844.956 4.67628 4.28704 0
M  V30 6519 P 846.814 7.39546 4.75277 0
M  V30 6520 O 848.215 7.89013 5.04841 0
M  V30 6521 O 846.436 7.16603 3.32298 0
M  V30 6522 O 846.491 6.04468 5.56605 0
M  V30 6523 C 846.331 6.22772 7.02095 0
M  V30 6524 C 846.871 4.97671 7.70322 0
M  V30 6525 O 845.815 4.13208 7.58899 0
M  V30 6526 C 848.088 4.28231 7.11815 0
M  V30 6527 O 848.827 3.49945 8.01648 0
M  V30 6528 C 847.421 3.5063 5.96244 0
M  V30 6529 O 848.219 2.36443 5.64589 0
M  V30 6530 C 846.083 3.15122 6.56374 0
M  V30 6531 N 845.04 3.22311 5.55692 0
M  V30 6532 C 844.005 2.32244 5.62437 0
M  V30 6533 O 844.044 1.43107 6.50341 0
M  V30 6534 N 842.993 2.40811 4.73368 0
M  V30 6535 C 843.041 3.344 3.77753 0
M  V30 6536 C 844.137 4.24712 3.66679 0
M  V30 6537 C 845.103 4.15625 4.58307 0
M  V30 6538 H 846.115 2.13823 6.99656 0
M  V30 6539 H 847.298 4.12931 5.06895 0
M  V30 6540 H 848.782 5.02674 6.71494 0
M  V30 6541 H 847.088 5.20001 8.76217 0
M  V30 6542 H 846.897 7.11046 7.35349 0
M  V30 6543 H 845.267 6.35749 7.26911 0
M  V30 6544 H 844.185 4.9828 2.86753 0
M  V30 6545 H 845.949 4.84464 4.54228 0
M  V30 6546 H 848.003 1.65592 6.23485 0
M  V30 6547 P 849.764 3.65191 7.99657 0
M  V30 6548 O 851.186 3.8425 8.48115 0
M  V30 6549 O 849.404 4.17805 6.64342 0
M  V30 6550 O 849.441 2.07613 7.95143 0
M  V30 6551 C 849.281 1.44328 9.27336 0
M  V30 6552 C 849.821 0.0220036 9.17197 0
M  V30 6553 O 848.765 -0.626867 8.61923 0
M  V30 6554 C 851.039 -0.24586 8.30336 0
M  V30 6555 O 851.777 -1.39011 8.63583 0
M  V30 6556 C 850.37 -0.273849 6.91158 0
M  V30 6557 O 851.169 -1.06348 6.02892 0
M  V30 6558 C 849.033 -0.897649 7.22545 0
M  V30 6559 H 849.065 -1.9841 7.04286 0
M  V30 6560 H 850.248 0.739928 6.497 0
M  V30 6561 H 851.732 0.60668 8.36503 0
M  V30 6562 H 850.038 -0.352479 10.1829 0
M  V30 6563 H 849.848 2.00611 10.0304 0
M  V30 6564 H 848.218 1.41843 9.55327 0
M  V30 6565 H 850.857 -1.95734 6.03555 0
M  V30 6566 P 852.715 -1.25109 8.70152 0
M  V30 6567 O 854.137 -1.35303 9.21419 0
M  V30 6568 O 852.355 -0.0769065 7.84762 0
M  V30 6569 O 852.392 -2.55232 7.81161 0
M  V30 6570 C 852.232 -3.79939 8.58154 0
M  V30 6571 C 852.772 -4.93969 7.72701 0
M  V30 6572 O 851.717 -5.18726 6.91205 0
M  V30 6573 C 853.99 -4.69597 6.85231 0
M  V30 6574 O 854.728 -5.83832 6.51337 0
M  V30 6575 C 853.322 -3.96706 5.66633 0
M  V30 6576 O 854.12 -4.15346 4.49615 0
M  V30 6577 C 851.984 -4.66153 5.59313 0
M  V30 6578 N 850.941 -3.71582 5.24027 0
M  V30 6579 C 851.003 -2.46018 5.67902 0
M  V30 6580 N 849.958 -1.74868 5.24518 0
M  V30 6581 C 849.224 -2.61333 4.54528 0
M  V30 6582 C 847.918 -2.46162 3.95441 0
M  V30 6583 O 847.185 -1.46013 3.94122 0
M  V30 6584 N 847.488 -3.59334 3.34752 0
M  V30 6585 C 848.237 -4.79605 3.3023 0
M  V30 6586 N 847.64 -5.82109 2.6065 0
M  V30 6587 N 849.39 -4.97402 3.8843 0
M  V30 6588 C 849.847 -3.86258 4.50476 0
M  V30 6589 H 852.016 -5.47679 4.85214 0
M  V30 6590 H 853.199 -2.88964 5.86476 0
M  V30 6591 H 854.684 -4.01947 7.36109 0
M  V30 6592 H 852.989 -5.80182 8.37584 0
M  V30 6593 H 852.799 -3.73517 9.52265 0
M  V30 6594 H 851.168 -3.97163 8.80359 0
M  V30 6595 H 846.592 -3.5825 2.90294 0
M  V30 6596 H 851.799 -2.06161 6.30974 0
M  V30 6597 H 846.729 -5.66979 2.15354 0
M  V30 6598 H 848.105 -6.73686 2.54344 0
M  V30 6599 H 853.809 -4.90891 4.01857 0
M  V30 6600 P 855.665 -5.75688 6.64379 0
M  V30 6601 O 857.087 -6.11849 7.01846 0
M  V30 6602 O 855.305 -4.30744 6.56026 0
M  V30 6603 O 855.342 -6.37042 5.19165 0
M  V30 6604 C 855.182 -7.83578 5.16515 0
M  V30 6605 C 855.722 -8.33398 3.83019 0
M  V30 6606 O 854.666 -8.10074 3.01034 0
M  V30 6607 C 856.94 -7.65514 3.2257 0
M  V30 6608 O 857.678 -8.4329 2.32297 0
M  V30 6609 C 856.271 -6.40075 2.62207 0
M  V30 6610 O 857.07 -5.92589 1.53712 0
M  V30 6611 C 854.934 -6.9454 2.18503 0
M  V30 6612 H 854.966 -7.23063 1.12091 0
M  V30 6613 H 856.149 -5.6025 3.37201 0
M  V30 6614 H 857.633 -7.35707 4.02681 0
M  V30 6615 H 855.939 -9.40912 3.9095 0
M  V30 6616 H 855.749 -8.29056 5.99158 0
M  V30 6617 H 854.119 -8.10073 5.25882 0
M  V30 6618 H 856.758 -6.30324 0.726794 0
M  V30 6619 P 858.616 -8.4349 2.47671 0
M  V30 6620 O 860.038 -8.94167 2.5964 0
M  V30 6621 O 858.256 -7.1704 3.19006 0
M  V30 6622 O 858.293 -8.16596 0.923387 0
M  V30 6623 C 858.133 -9.38437 0.108857 0
M  V30 6624 C 858.673 -9.08175 -1.28353 0
M  V30 6625 O 857.617 -8.44229 -1.84713 0
M  V30 6626 C 859.891 -8.18386 -1.42505 0
M  V30 6627 O 860.629 -8.3501 -2.60497 0
M  V30 6628 C 859.222 -6.80225 -1.25468 0
M  V30 6629 O 860.021 -5.81621 -1.91066 0
M  V30 6630 C 857.885 -7.02416 -1.9168 0
M  V30 6631 H 857.917 -6.6888 -2.96621 0
M  V30 6632 H 859.1 -6.53617 -0.192223 0
M  V30 6633 H 860.584 -8.36622 -0.589963 0
M  V30 6634 H 858.89 -10.0291 -1.79807 0
M  V30 6635 H 858.7 -10.2138 0.558219 0
M  V30 6636 H 857.07 -9.6579 0.0444202 0
M  V30 6637 H 859.709 -5.69556 -2.79637 0
M  V30 6638 P 861.566 -8.4349 -2.47671 0
M  V30 6639 O 862.988 -8.92593 -2.65 0
M  V30 6640 O 861.206 -7.7568 -1.19296 0
M  V30 6641 O 861.243 -7.36886 -3.63805 0
M  V30 6642 C 861.083 -7.95349 -4.982 0
M  V30 6643 C 861.623 -6.94612 -5.98974 0
M  V30 6644 O 860.567 -6.10347 -6.11815 0
M  V30 6645 C 862.841 -6.11426 -5.62335 0
M  V30 6646 O 863.579 -5.6162 -6.70584 0
M  V30 6647 C 862.172 -5.04409 -4.73308 0
M  V30 6648 O 862.971 -3.85992 -4.75183 0
M  V30 6649 C 860.835 -4.8728 -5.41006 0
M  V30 6650 H 860.867 -4.02333 -6.11157 0
M  V30 6651 H 862.05 -5.39466 -3.69543 0
M  V30 6652 H 863.534 -6.71916 -5.01943 0
M  V30 6653 H 861.84 -7.4649 -6.93477 0
M  V30 6654 H 861.65 -8.89416 -5.05237 0
M  V30 6655 H 860.02 -8.14876 -5.18409 0
M  V30 6656 H 862.659 -3.27957 -5.4317 0
M  V30 6657 P 864.517 -5.75688 -6.64379 0
M  V30 6658 O 865.939 -6.07627 -7.05504 0
M  V30 6659 O 864.157 -5.88047 -5.19722 0
M  V30 6660 O 864.194 -4.2322 -7.04443 0
M  V30 6661 C 864.034 -3.99743 -8.4911 0
M  V30 6662 C 864.574 -2.60516 -8.79425 0
M  V30 6663 O 863.518 -1.82684 -8.4467 0
M  V30 6664 C 865.792 -2.10343 -8.03628 0
M  V30 6665 O 866.53 -1.09919 -8.67766 0
M  V30 6666 C 865.123 -1.68446 -6.70876 0
M  V30 6667 O 865.922 -0.678137 -6.08433 0
M  V30 6668 C 863.786 -1.17436 -7.18567 0
M  V30 6669 H 863.818 -0.0804732 -7.31656 0
M  V30 6670 H 865.001 -2.54037 -6.02537 0
M  V30 6671 H 866.485 -2.93881 -7.85526 0
M  V30 6672 H 864.791 -2.53065 -9.86973 0
M  V30 6673 H 864.601 -4.75072 -9.05887 0
M  V30 6674 H 862.971 -4.05244 -8.76668 0
M  V30 6675 H 865.61 0.177647 -6.34251 0
M  V30 6676 P 867.468 -1.25109 -8.70152 0
M  V30 6677 O 868.89 -1.29744 -9.22016 0
M  V30 6678 O 867.108 -2.13714 -7.55141 0
M  V30 6679 O 867.145 0.248149 -8.21425 0
M  V30 6680 C 866.985 1.22779 -9.30434 0
M  V30 6681 C 867.525 2.56293 -8.80664 0
M  V30 6682 O 866.469 3.02979 -8.09349 0
M  V30 6683 C 868.743 2.57523 -7.89775 0
M  V30 6684 O 869.481 3.7668 -7.89438 0
M  V30 6685 C 868.074 2.20997 -6.55446 0
M  V30 6686 O 868.873 2.71895 -5.48509 0
M  V30 6687 C 866.737 2.89693 -6.67988 0
M  V30 6688 H 866.769 3.88793 -6.19859 0
M  V30 6689 H 867.952 1.12046 -6.44229 0
M  V30 6690 H 869.436 1.7746 -8.19711 0
M  V30 6691 H 867.742 3.20706 -9.67112 0
M  V30 6692 H 867.552 0.901032 -10.1892 0
M  V30 6693 H 865.922 1.33049 -9.56592 0
M  V30 6694 H 868.561 3.57847 -5.23962 0
M  V30 6695 P 870.418 3.65191 -7.99657 0
M  V30 6696 O 871.84 3.89416 -8.45976 0
M  V30 6697 O 870.058 2.28472 -7.50807 0
M  V30 6698 O 870.095 4.64972 -6.77611 0
M  V30 6699 C 869.935 6.06319 -7.16352 0
M  V30 6700 C 870.475 6.91655 -6.02234 0
M  V30 6701 O 869.42 6.92449 -5.17064 0
M  V30 6702 C 871.693 6.43627 -5.25174 0
M  V30 6703 O 872.431 7.43686 -4.60469 0
M  V30 6704 C 871.025 5.40275 -4.31916 0
M  V30 6705 O 871.823 5.25193 -3.14386 0
M  V30 6706 C 869.687 6.04847 -4.05327 0
M  V30 6707 N 868.644 5.04166 -3.98114 0
M  V30 6708 C 868.706 3.96049 -4.75587 0
M  V30 6709 N 867.661 3.15559 -4.54006 0
M  V30 6710 C 866.927 3.78802 -3.62491 0
M  V30 6711 C 865.621 3.476 -3.10071 0
M  V30 6712 O 864.888 2.51136 -3.37021 0
M  V30 6713 N 865.191 4.39088 -2.19956 0
M  V30 6714 C 865.94 5.53215 -1.81733 0
M  V30 6715 N 865.343 6.31963 -0.860928 0
M  V30 6716 N 867.093 5.86688 -2.32562 0
M  V30 6717 C 867.55 4.97525 -3.23407 0
M  V30 6718 H 869.719 6.62195 -3.11261 0
M  V30 6719 H 870.902 4.42488 -4.8131 0
M  V30 6720 H 872.387 5.93051 -5.9305 0
M  V30 6721 H 870.692 7.92655 -6.402 0
M  V30 6722 H 870.502 6.26671 -8.0846 0
M  V30 6723 H 868.871 6.29101 -7.32804 0
M  V30 6724 H 864.295 4.25523 -1.77604 0
M  V30 6725 H 869.502 3.75576 -5.47333 0
M  V30 6726 H 864.432 6.04684 -0.468946 0
M  V30 6727 H 865.808 7.18054 -0.542422 0
M  V30 6728 H 871.512 5.84223 -2.47279 0
M  V30 6729 P 873.369 7.39546 -4.75277 0
M  V30 6730 O 874.791 7.84966 -5.01146 0
M  V30 6731 O 873.009 5.9812 -5.08098 0
M  V30 6732 O 873.046 7.57503 -3.1866 0
M  V30 6733 C 872.886 8.97357 -2.74833 0
M  V30 6734 C 873.426 9.0745 -1.32694 0
M  V30 6735 O 872.371 8.62072 -0.606159 0
M  V30 6736 C 874.644 8.25383 -0.938334 0
M  V30 6737 O 875.382 8.74577 0.146954 0
M  V30 6738 C 873.976 6.8802 -0.712559 0
M  V30 6739 O 874.774 6.11791 0.194623 0
M  V30 6740 C 872.638 7.27966 -0.139777 0
M  V30 6741 N 871.595 6.39368 -0.623421 0
M  V30 6742 C 871.657 5.90299 -1.85969 0
M  V30 6743 N 870.612 5.10919 -2.1133 0
M  V30 6744 C 869.878 5.14646 -1.0015 0
M  V30 6745 C 868.572 4.60057 -0.729219 0
M  V30 6746 O 867.839 3.93476 -1.47746 0
M  V30 6747 N 868.142 4.88302 0.523505 0
M  V30 6748 C 868.891 5.63646 1.46207 0
M  V30 6749 N 868.294 5.78186 2.69239 0
M  V30 6750 N 870.044 6.19285 1.21544 0
M  V30 6751 C 870.501 5.93392 -0.0308487 0
M  V30 6752 H 872.67 7.25354 0.961601 0
M  V30 6753 H 873.853 6.3246 -1.65676 0
M  V30 6754 H 875.338 8.19533 -1.78278 0
M  V30 6755 H 873.643 10.1294 -1.10029 0
M  V30 6756 H 873.453 9.64276 -3.41316 0
M  V30 6757 H 871.822 9.25417 -2.76357 0
M  V30 6758 H 867.246 4.53993 0.806451 0
M  V30 6759 H 872.453 6.11865 -2.57394 0
M  V30 6760 H 867.383 5.34046 2.87467 0
M  V30 6761 H 868.759 6.33391 3.42578 0
M  V30 6762 H 874.463 6.25169 1.0783 0
M  V30 6763 P 876.319 8.791 6.62549e-12 0
M  V30 6764 O 877.74 9.31196 0.027936 0
M  V30 6765 O 875.959 7.77869 -1.04071 0
M  V30 6766 O 875.996 8.09533 1.41463 0
M  V30 6767 C 875.835 9.03587 2.5397 0
M  V30 6768 C 876.376 8.35226 3.79016 0
M  V30 6769 O 875.321 7.57904 4.1503 0
M  V30 6770 C 877.594 7.45087 3.67298 0
M  V30 6771 O 878.332 7.27796 4.85194 0
M  V30 6772 C 876.926 6.17323 3.12027 0
M  V30 6773 O 877.724 5.04496 3.46627 0
M  V30 6774 C 875.588 6.19961 3.81809 0
M  V30 6775 N 874.545 5.71575 2.93223 0
M  V30 6776 C 874.714 5.77362 1.59168 0
M  V30 6777 N 873.687 5.3123 0.911893 0
M  V30 6778 C 872.802 4.91717 1.89588 0
M  V30 6779 C 871.535 4.3114 1.8076 0
M  V30 6780 N 870.97 4.06823 3.02898 0
M  V30 6781 C 871.572 4.35062 4.22711 0
M  V30 6782 N 872.749 4.90805 4.35707 0
M  V30 6783 C 873.324 5.16382 3.14469 0
M  V30 6784 H 876.803 6.21428 2.0318 0
M  V30 6785 H 878.286 7.86112 2.9231 0
M  V30 6786 H 876.592 9.11171 4.55987 0
M  V30 6787 H 876.402 9.9573 2.34194 0
M  V30 6788 H 874.772 9.2792 2.67832 0
M  V30 6789 H 875.614 6.16575 1.12198 0
M  V30 6790 H 877.412 4.67628 4.28704 0
M  V30 6791 P 879.27 7.39546 4.75277 0
M  V30 6792 O 880.691 7.81861 5.05793 0
M  V30 6793 O 878.91 7.1065 3.32998 0
M  V30 6794 O 878.947 6.04542 5.56673 0
M  V30 6795 C 878.786 6.22839 7.02169 0
M  V30 6796 C 879.327 4.97725 7.70406 0
M  V30 6797 O 878.272 4.13208 7.58899 0
M  V30 6798 C 880.545 4.28231 7.11815 0
M  V30 6799 O 881.283 3.49945 8.01648 0
M  V30 6800 C 879.877 3.5063 5.96244 0
M  V30 6801 O 880.675 2.37008 5.64352 0
M  V30 6802 C 878.539 3.15122 6.56374 0
M  V30 6803 N 877.496 3.22311 5.55692 0
M  V30 6804 C 877.665 3.99655 4.46046 0
M  V30 6805 N 876.638 3.97599 3.63918 0
M  V30 6806 C 875.753 3.11159 4.25334 0
M  V30 6807 C 874.486 2.64972 3.85157 0
M  V30 6808 N 873.887 3.02132 2.69405 0
M  V30 6809 N 873.921 1.78482 4.74759 0
M  V30 6810 C 874.523 1.37463 5.90819 0
M  V30 6811 N 875.7 1.7733 6.31889 0
M  V30 6812 C 876.275 2.64393 5.43725 0
M  V30 6813 H 878.571 2.13823 6.99656 0
M  V30 6814 H 879.754 4.12931 5.06895 0
M  V30 6815 H 881.237 5.03285 6.70911 0
M  V30 6816 H 879.543 5.20001 8.76217 0
M  V30 6817 H 879.353 7.11046 7.35349 0
M  V30 6818 H 877.723 6.35815 7.26986 0
M  V30 6819 H 873.987 0.66574 6.53015 0
M  V30 6820 H 878.565 4.58037 4.27732 0
M  V30 6821 H 872.957 2.64828 2.45331 0
M  V30 6822 H 874.361 3.67472 2.05644 0
M  V30 6823 H 880.363 1.61619 6.13468 0
M  V30 6824 P 882.22 3.65191 7.99657 0
M  V30 6825 O 883.642 3.8425 8.48115 0
M  V30 6826 O 881.86 4.17805 6.64342 0
M  V30 6827 O 881.897 2.07613 7.95143 0
M  V30 6828 C 881.737 1.44328 9.27336 0
M  V30 6829 C 882.277 0.0220036 9.17197 0
M  V30 6830 O 881.221 -0.626867 8.61923 0
M  V30 6831 C 883.495 -0.24586 8.30336 0
M  V30 6832 O 884.233 -1.39011 8.63583 0
M  V30 6833 C 882.826 -0.273849 6.91158 0
M  V30 6834 O 883.625 -1.06348 6.02892 0
M  V30 6835 C 881.489 -0.897649 7.22545 0
M  V30 6836 H 881.521 -1.9841 7.04286 0
M  V30 6837 H 882.704 0.739928 6.497 0
M  V30 6838 H 884.188 0.60668 8.36503 0
M  V30 6839 H 882.494 -0.352479 10.1829 0
M  V30 6840 H 882.304 2.00611 10.0304 0
M  V30 6841 H 880.674 1.41843 9.55327 0
M  V30 6842 H 883.313 -1.95734 6.03555 0
M  V30 6843 P 885.171 -1.25109 8.70152 0
M  V30 6844 O 886.593 -1.35274 9.21221 0
M  V30 6845 O 884.811 -0.0769065 7.84762 0
M  V30 6846 O 884.848 -2.55232 7.81161 0
M  V30 6847 C 884.688 -3.79939 8.58154 0
M  V30 6848 C 885.228 -4.94023 7.72785 0
M  V30 6849 O 884.172 -5.18726 6.91205 0
M  V30 6850 C 886.446 -4.69597 6.85231 0
M  V30 6851 O 887.184 -5.83832 6.51337 0
M  V30 6852 C 885.777 -3.96706 5.66633 0
M  V30 6853 O 886.576 -4.15414 4.49689 0
M  V30 6854 C 884.44 -4.66153 5.59313 0
M  V30 6855 H 884.472 -5.47679 4.85214 0
M  V30 6856 H 885.655 -2.89008 5.86566 0
M  V30 6857 H 887.139 -4.0121 7.36511 0
M  V30 6858 H 885.445 -5.80182 8.37584 0
M  V30 6859 H 885.255 -3.73517 9.52265 0
M  V30 6860 H 883.625 -3.97163 8.80359 0
M  V30 6861 H 886.264 -4.90969 4.01921 0
M  V30 6862 P 888.122 -5.75688 6.64379 0
M  V30 6863 O 889.543 -6.11915 7.01921 0
M  V30 6864 O 887.762 -4.30744 6.56026 0
M  V30 6865 O 887.799 -6.37042 5.19165 0
M  V30 6866 C 887.638 -7.83662 5.1657 0
M  V30 6867 C 888.179 -8.33398 3.83019 0
M  V30 6868 O 887.124 -8.0998 3.00999 0
M  V30 6869 C 889.397 -7.65514 3.2257 0
M  V30 6870 O 890.135 -8.4329 2.32297 0
M  V30 6871 C 888.729 -6.40075 2.62207 0
M  V30 6872 O 889.527 -5.92338 1.5428 0
M  V30 6873 C 887.391 -6.9454 2.18503 0
M  V30 6874 N 886.348 -5.95905 2.39948 0
M  V30 6875 C 886.517 -4.98383 3.32108 0
M  V30 6876 N 885.49 -4.16798 3.41761 0
M  V30 6877 C 884.605 -4.65287 2.47461 0
M  V30 6878 C 883.338 -4.18946 2.07461 0
M  V30 6879 N 882.739 -3.09661 2.60717 0
M  V30 6880 N 882.773 -4.95327 1.09101 0
M  V30 6881 C 883.375 -6.04369 0.519812 0
M  V30 6882 N 884.552 -6.50694 0.855982 0
M  V30 6883 C 885.127 -5.75818 1.84322 0
M  V30 6884 H 887.423 -7.22964 1.12076 0
M  V30 6885 H 888.606 -5.60502 3.36589 0
M  V30 6886 H 890.089 -7.35707 4.02681 0
M  V30 6887 H 888.395 -9.41302 3.90009 0
M  V30 6888 H 888.205 -8.29056 5.99158 0
M  V30 6889 H 886.575 -8.10073 5.25882 0
M  V30 6890 H 882.839 -6.55843 -0.270373 0
M  V30 6891 H 887.417 -4.88564 3.92502 0
M  V30 6892 H 881.809 -2.80523 2.27218 0
M  V30 6893 H 883.213 -2.55848 3.34465 0
M  V30 6894 H 889.215 -6.30224 0.72668 0
M  V30 6895 P 891.072 -8.4349 2.47671 0
M  V30 6896 O 892.494 -8.94167 2.5964 0
M  V30 6897 O 890.712 -7.1704 3.19006 0
M  V30 6898 O 890.749 -8.16596 0.923387 0
M  V30 6899 C 890.589 -9.38437 0.108857 0
M  V30 6900 C 891.129 -9.08175 -1.28353 0
M  V30 6901 O 890.073 -8.44229 -1.84713 0
M  V30 6902 C 892.347 -8.18386 -1.42505 0
M  V30 6903 O 893.085 -8.3501 -2.60497 0
M  V30 6904 C 891.678 -6.80225 -1.25468 0
M  V30 6905 O 892.477 -5.81621 -1.91066 0
M  V30 6906 C 890.341 -7.02416 -1.9168 0
M  V30 6907 H 890.373 -6.6888 -2.96621 0
M  V30 6908 H 891.556 -6.53617 -0.192223 0
M  V30 6909 H 893.04 -8.36622 -0.589963 0
M  V30 6910 H 891.346 -10.0291 -1.79807 0
M  V30 6911 H 891.156 -10.2138 0.558219 0
M  V30 6912 H 889.526 -9.6579 0.0444202 0
M  V30 6913 H 892.165 -5.69556 -2.79637 0
M  V30 6914 P 894.023 -8.4349 -2.47671 0
M  V30 6915 O 895.445 -8.92785 -2.65057 0
M  V30 6916 O 893.663 -7.7568 -1.19296 0
M  V30 6917 O 893.7 -7.36886 -3.63805 0
M  V30 6918 C 893.54 -7.95349 -4.982 0
M  V30 6919 C 894.08 -6.94537 -5.98908 0
M  V30 6920 O 893.025 -6.10347 -6.11815 0
M  V30 6921 C 895.298 -6.11426 -5.62335 0
M  V30 6922 O 896.036 -5.6162 -6.70584 0
M  V30 6923 C 894.63 -5.04409 -4.73308 0
M  V30 6924 O 895.428 -3.85929 -4.75106 0
M  V30 6925 C 893.292 -4.8728 -5.41006 0
M  V30 6926 N 892.249 -4.65812 -4.42377 0
M  V30 6927 C 892.311 -5.27109 -3.24335 0
M  V30 6928 N 891.266 -4.94293 -2.47735 0
M  V30 6929 C 890.532 -4.1271 -3.23359 0
M  V30 6930 C 889.226 -3.56384 -2.99934 0
M  V30 6931 O 888.493 -3.69331 -2.00616 0
M  V30 6932 N 888.796 -2.80206 -4.03316 0
M  V30 6933 C 889.545 -2.58614 -5.2172 0
M  V30 6934 N 888.948 -1.75154 -6.13278 0
M  V30 6935 N 890.698 -3.13689 -5.47619 0
M  V30 6936 C 891.155 -3.90921 -4.46436 0
M  V30 6937 H 893.324 -4.02333 -6.11157 0
M  V30 6938 H 894.507 -5.39383 -3.69487 0
M  V30 6939 H 895.992 -6.71414 -5.02615 0
M  V30 6940 H 894.297 -7.4649 -6.93477 0
M  V30 6941 H 894.107 -8.89416 -5.05237 0
M  V30 6942 H 892.476 -8.14876 -5.18409 0
M  V30 6943 H 887.9 -2.36355 -3.95916 0
M  V30 6944 H 893.107 -5.95212 -2.93859 0
M  V30 6945 H 888.037 -1.32473 -5.91856 0
M  V30 6946 H 889.413 -1.5588 -7.03026 0
M  V30 6947 H 895.117 -3.27906 -5.43085 0
M  V30 6948 P 896.973 -5.75688 -6.64379 0
M  V30 6949 O 898.395 -6.07627 -7.05504 0
M  V30 6950 O 896.613 -5.88047 -5.19722 0
M  V30 6951 O 896.65 -4.2322 -7.04443 0
M  V30 6952 C 896.49 -3.99743 -8.4911 0
M  V30 6953 C 897.03 -2.60516 -8.79425 0
M  V30 6954 O 895.974 -1.82684 -8.4467 0
M  V30 6955 C 898.248 -2.10343 -8.03628 0
M  V30 6956 O 898.986 -1.09919 -8.67766 0
M  V30 6957 C 897.579 -1.68446 -6.70876 0
M  V30 6958 O 898.378 -0.678137 -6.08433 0
M  V30 6959 C 896.242 -1.17436 -7.18567 0
M  V30 6960 H 896.274 -0.0804732 -7.31656 0
M  V30 6961 H 897.457 -2.54037 -6.02537 0
M  V30 6962 H 898.941 -2.93881 -7.85526 0
M  V30 6963 H 897.247 -2.53065 -9.86973 0
M  V30 6964 H 897.057 -4.75072 -9.05887 0
M  V30 6965 H 895.427 -4.05244 -8.76668 0
M  V30 6966 H 898.066 0.177647 -6.34251 0
M  V30 6967 P 899.924 -1.25109 -8.70152 0
M  V30 6968 O 901.345 -1.29758 -9.22115 0
M  V30 6969 O 899.564 -2.13714 -7.55141 0
M  V30 6970 O 899.601 0.248149 -8.21425 0
M  V30 6971 C 899.44 1.22792 -9.30533 0
M  V30 6972 C 899.981 2.56293 -8.80664 0
M  V30 6973 O 898.926 3.02944 -8.09255 0
M  V30 6974 C 901.199 2.57523 -7.89775 0
M  V30 6975 O 901.937 3.7668 -7.89438 0
M  V30 6976 C 900.531 2.20997 -6.55446 0
M  V30 6977 O 901.329 2.71302 -5.48691 0
M  V30 6978 C 899.193 2.89693 -6.67988 0
M  V30 6979 N 898.15 2.08895 -6.07487 0
M  V30 6980 C 898.319 0.753809 -5.94137 0
M  V30 6981 N 897.292 0.146592 -5.38801 0
M  V30 6982 C 896.407 1.1768 -5.13693 0
M  V30 6983 C 895.14 1.17563 -4.52477 0
M  V30 6984 N 894.541 0.057481 -4.04759 0
M  V30 6985 N 894.575 2.41918 -4.45789 0
M  V30 6986 C 895.177 3.56493 -4.90792 0
M  V30 6987 N 896.354 3.61423 -5.47817 0
M  V30 6988 C 896.929 2.37779 -5.5588 0
M  V30 6989 H 899.225 3.8874 -6.19774 0
M  V30 6990 H 900.408 1.12673 -6.44018 0
M  V30 6991 H 901.891 1.7746 -8.19711 0
M  V30 6992 H 900.197 3.21673 -9.66791 0
M  V30 6993 H 900.007 0.901032 -10.1892 0
M  V30 6994 H 898.377 1.33049 -9.56592 0
M  V30 6995 H 894.641 4.49919 -4.77947 0
M  V30 6996 H 899.219 0.233081 -6.26266 0
M  V30 6997 H 893.611 0.119831 -3.60801 0
M  V30 6998 H 895.015 -0.852272 -4.12385 0
M  V30 6999 H 901.017 3.5779 -5.23879 0
M  V30 7000 P 902.874 3.65191 -7.99657 0
M  V30 7001 O 904.296 3.89332 -8.45794 0
M  V30 7002 O 902.514 2.28472 -7.50807 0
M  V30 7003 O 902.551 4.64972 -6.77611 0
M  V30 7004 C 902.391 6.06319 -7.16352 0
M  V30 7005 C 902.931 6.91731 -6.02299 0
M  V30 7006 O 901.875 6.92449 -5.17064 0
M  V30 7007 C 904.149 6.43627 -5.25174 0
M  V30 7008 O 904.887 7.43686 -4.60469 0
M  V30 7009 C 903.48 5.40275 -4.31916 0
M  V30 7010 O 904.279 5.25279 -3.14438 0
M  V30 7011 C 902.143 6.04847 -4.05327 0
M  V30 7012 H 902.175 6.62195 -3.11261 0
M  V30 7013 H 903.358 4.42556 -4.81383 0
M  V30 7014 H 904.842 5.92458 -5.93643 0
M  V30 7015 H 903.148 7.92655 -6.402 0
M  V30 7016 H 902.958 6.26671 -8.0846 0
M  V30 7017 H 901.328 6.29101 -7.32804 0
M  V30 7018 H 903.967 5.84315 -2.47318 0
M  V30 7019 P 905.825 7.39546 -4.75277 0
M  V30 7020 O 907.247 7.84966 -5.01146 0
M  V30 7021 O 905.465 5.9812 -5.08098 0
M  V30 7022 O 905.502 7.57503 -3.1866 0
M  V30 7023 C 905.342 8.97357 -2.74833 0
M  V30 7024 C 905.882 9.0745 -1.32694 0
M  V30 7025 O 904.827 8.62072 -0.606159 0
M  V30 7026 C 907.1 8.25383 -0.938334 0
M  V30 7027 O 907.838 8.74577 0.146954 0
M  V30 7028 C 906.432 6.8802 -0.712559 0
M  V30 7029 O 907.23 6.11791 0.194623 0
M  V30 7030 C 905.094 7.27966 -0.139777 0
M  V30 7031 N 904.051 6.39368 -0.623421 0
M  V30 7032 C 904.113 5.90299 -1.85969 0
M  V30 7033 N 903.068 5.10919 -2.1133 0
M  V30 7034 C 902.334 5.14646 -1.0015 0
M  V30 7035 C 901.028 4.60057 -0.729219 0
M  V30 7036 O 900.295 3.93476 -1.47746 0
M  V30 7037 N 900.598 4.88302 0.523505 0
M  V30 7038 C 901.347 5.63646 1.46207 0
M  V30 7039 N 900.75 5.78186 2.69239 0
M  V30 7040 N 902.5 6.19285 1.21544 0
M  V30 7041 C 902.957 5.93392 -0.0308487 0
M  V30 7042 H 905.126 7.25354 0.961601 0
M  V30 7043 H 906.309 6.3246 -1.65676 0
M  V30 7044 H 907.794 8.19533 -1.78278 0
M  V30 7045 H 906.099 10.1294 -1.10029 0
M  V30 7046 H 905.909 9.64276 -3.41316 0
M  V30 7047 H 904.278 9.25417 -2.76357 0
M  V30 7048 H 899.702 4.53993 0.806451 0
M  V30 7049 H 904.909 6.11865 -2.57394 0
M  V30 7050 H 899.839 5.34046 2.87467 0
M  V30 7051 H 901.215 6.33391 3.42578 0
M  V30 7052 H 906.919 6.25169 1.0783 0
M  V30 7053 P 908.776 8.791 6.93566e-12 0
M  V30 7054 O 910.198 9.31096 0.027933 0
M  V30 7055 O 908.416 7.77869 -1.04071 0
M  V30 7056 O 908.453 8.09533 1.41463 0
M  V30 7057 C 908.293 9.0349 2.53943 0
M  V30 7058 C 908.833 8.35226 3.79016 0
M  V30 7059 O 907.777 7.57992 4.15078 0
M  V30 7060 C 910.051 7.45087 3.67298 0
M  V30 7061 O 910.789 7.27796 4.85194 0
M  V30 7062 C 909.382 6.17323 3.12027 0
M  V30 7063 O 910.181 5.04231 3.47188 0
M  V30 7064 C 908.045 6.19961 3.81809 0
M  V30 7065 H 908.077 5.58218 4.73051 0
M  V30 7066 H 909.26 6.21726 2.02589 0
M  V30 7067 H 910.744 7.86112 2.9231 0
M  V30 7068 H 909.05 9.11627 4.55076 0
M  V30 7069 H 908.86 9.9573 2.34194 0
M  V30 7070 H 907.23 9.2792 2.67832 0
M  V30 7071 H 909.869 4.67702 4.28772 0
M  V30 7072 P 911.726 7.39546 4.75277 0
M  V30 7073 O 913.148 7.81777 5.05738 0
M  V30 7074 O 911.366 7.1065 3.32998 0
M  V30 7075 O 911.403 6.04542 5.56673 0
M  V30 7076 C 911.243 6.22772 7.02095 0
M  V30 7077 C 911.783 4.97725 7.70406 0
M  V30 7078 O 910.727 4.13256 7.58987 0
M  V30 7079 C 913.001 4.28231 7.11815 0
M  V30 7080 O 913.739 3.49945 8.01648 0
M  V30 7081 C 912.332 3.5063 5.96244 0
M  V30 7082 O 913.131 2.36482 5.64681 0
M  V30 7083 C 910.995 3.15122 6.56374 0
M  V30 7084 H 911.027 2.13853 6.99751 0
M  V30 7085 H 912.21 4.13501 5.06559 0
M  V30 7086 H 913.694 5.03285 6.70911 0
M  V30 7087 H 912 5.20877 8.75697 0
M  V30 7088 H 911.81 7.11046 7.35349 0
M  V30 7089 H 910.18 6.35815 7.26986 0
M  V30 7090 H 912.819 1.61644 6.13565 0
M  V30 7091 P 914.677 3.65191 7.99657 0
M  V30 7092 O 916.098 3.84292 8.48206 0
M  V30 7093 O 914.317 4.17805 6.64342 0
M  V30 7094 O 914.354 2.07613 7.95143 0
M  V30 7095 C 914.193 1.44344 9.27435 0
M  V30 7096 C 914.734 0.0220036 9.17197 0
M  V30 7097 O 913.679 -0.626794 8.61824 0
M  V30 7098 C 915.952 -0.24586 8.30336 0
M  V30 7099 O 916.69 -1.39011 8.63583 0
M  V30 7100 C 915.284 -0.273849 6.91158 0
M  V30 7101 O 916.082 -1.05728 6.029 0
M  V30 7102 C 913.946 -0.897649 7.22545 0
M  V30 7103 N 912.903 -0.292839 6.41732 0
M  V30 7104 C 913.072 0.950603 5.91308 0
M  V30 7105 N 912.045 1.37732 5.21105 0
M  V30 7106 C 911.16 0.318109 5.26039 0
M  V30 7107 C 909.893 0.146766 4.6727 0
M  V30 7108 N 909.328 -1.06525 4.95887 0
M  V30 7109 C 909.93 -2.0378 5.71347 0
M  V30 7110 N 911.107 -1.92445 6.27451 0
M  V30 7111 C 911.682 -0.715382 6.00353 0
M  V30 7112 H 915.161 0.733318 6.49674 0
M  V30 7113 H 916.644 0.60668 8.36503 0
M  V30 7114 H 914.95 -0.362662 10.1825 0
M  V30 7115 H 914.76 2.00611 10.0304 0
M  V30 7116 H 913.13 1.41843 9.55327 0
M  V30 7117 H 913.972 1.54076 6.07465 0
M  V30 7118 H 915.77 -1.95704 6.0346 0
M  V30 7119 P 917.627 -1.25109 8.70152 0
M  V30 7120 O 919.049 -1.35274 9.21221 0
M  V30 7121 O 917.267 -0.0769065 7.84762 0
M  V30 7122 O 917.304 -2.55232 7.81161 0
M  V30 7123 C 917.144 -3.79939 8.58154 0
M  V30 7124 C 917.684 -4.94023 7.72785 0
M  V30 7125 O 916.628 -5.18726 6.91205 0
M  V30 7126 C 918.902 -4.69597 6.85231 0
M  V30 7127 O 919.64 -5.83832 6.51337 0
M  V30 7128 C 918.233 -3.96706 5.66633 0
M  V30 7129 O 919.032 -4.15414 4.49689 0
M  V30 7130 C 916.896 -4.66153 5.59313 0
M  V30 7131 H 916.928 -5.47679 4.85214 0
M  V30 7132 H 918.111 -2.89008 5.86566 0
M  V30 7133 H 919.595 -4.0121 7.36511 0
M  V30 7134 H 917.901 -5.80182 8.37584 0
M  V30 7135 H 917.711 -3.73517 9.52265 0
M  V30 7136 H 916.081 -3.97163 8.80359 0
M  V30 7137 H 918.72 -4.90969 4.01921 0
M  V30 7138 P 920.578 -5.75688 6.64379 0
M  V30 7139 O 922 -6.11849 7.01846 0
M  V30 7140 O 920.218 -4.30744 6.56026 0
M  V30 7141 O 920.255 -6.37042 5.19165 0
M  V30 7142 C 920.095 -7.83578 5.16515 0
M  V30 7143 C 920.635 -8.33398 3.83019 0
M  V30 7144 O 919.579 -8.10074 3.01034 0
M  V30 7145 C 921.853 -7.65514 3.2257 0
M  V30 7146 O 922.591 -8.4329 2.32297 0
M  V30 7147 C 921.184 -6.40075 2.62207 0
M  V30 7148 O 921.983 -5.92589 1.53712 0
M  V30 7149 C 919.847 -6.9454 2.18503 0
M  V30 7150 H 919.879 -7.23063 1.12091 0
M  V30 7151 H 921.062 -5.6025 3.37201 0
M  V30 7152 H 922.546 -7.35707 4.02681 0
M  V30 7153 H 920.852 -9.40912 3.9095 0
M  V30 7154 H 920.662 -8.29056 5.99158 0
M  V30 7155 H 919.032 -8.10073 5.25882 0
M  V30 7156 H 921.671 -6.30324 0.726794 0
M  V30 7157 P 923.528 -8.4349 2.47671 0
M  V30 7158 O 924.95 -8.94167 2.5964 0
M  V30 7159 O 923.168 -7.1704 3.19006 0
M  V30 7160 O 923.205 -8.16596 0.923387 0
M  V30 7161 C 923.045 -9.38437 0.108857 0
M  V30 7162 C 923.585 -9.08175 -1.28353 0
M  V30 7163 O 922.529 -8.44229 -1.84713 0
M  V30 7164 C 924.803 -8.18386 -1.42505 0
M  V30 7165 O 925.541 -8.3501 -2.60497 0
M  V30 7166 C 924.134 -6.80225 -1.25468 0
M  V30 7167 O 924.933 -5.81621 -1.91066 0
M  V30 7168 C 922.797 -7.02416 -1.9168 0
M  V30 7169 H 922.829 -6.6888 -2.96621 0
M  V30 7170 H 924.012 -6.53617 -0.192223 0
M  V30 7171 H 925.496 -8.36622 -0.589963 0
M  V30 7172 H 923.802 -10.0291 -1.79807 0
M  V30 7173 H 923.612 -10.2138 0.558219 0
M  V30 7174 H 921.982 -9.6579 0.0444202 0
M  V30 7175 H 924.621 -5.69556 -2.79637 0
M  V30 7176 P 926.479 -8.4349 -2.47671 0
M  V30 7177 O 927.901 -8.92593 -2.65 0
M  V30 7178 O 926.119 -7.7568 -1.19296 0
M  V30 7179 O 926.156 -7.36886 -3.63805 0
M  V30 7180 C 925.996 -7.95349 -4.982 0
M  V30 7181 C 926.536 -6.94612 -5.98974 0
M  V30 7182 O 925.48 -6.10347 -6.11815 0
M  V30 7183 C 927.754 -6.11426 -5.62335 0
M  V30 7184 O 928.492 -5.6162 -6.70584 0
M  V30 7185 C 927.085 -5.04409 -4.73308 0
M  V30 7186 O 927.884 -3.85992 -4.75183 0
M  V30 7187 C 925.748 -4.8728 -5.41006 0
M  V30 7188 H 925.78 -4.02333 -6.11157 0
M  V30 7189 H 926.963 -5.39466 -3.69543 0
M  V30 7190 H 928.447 -6.71916 -5.01943 0
M  V30 7191 H 926.753 -7.4649 -6.93477 0
M  V30 7192 H 926.563 -8.89416 -5.05237 0
M  V30 7193 H 924.933 -8.14876 -5.18409 0
M  V30 7194 H 927.572 -3.27957 -5.4317 0
M  V30 7195 P 929.43 -5.75688 -6.64379 0
M  V30 7196 O 930.852 -6.07627 -7.05504 0
M  V30 7197 O 929.07 -5.88047 -5.19722 0
M  V30 7198 O 929.107 -4.2322 -7.04443 0
M  V30 7199 C 928.947 -3.99743 -8.4911 0
M  V30 7200 C 929.487 -2.60516 -8.79425 0
M  V30 7201 O 928.431 -1.82684 -8.4467 0
M  V30 7202 C 930.705 -2.10343 -8.03628 0
M  V30 7203 O 931.443 -1.09919 -8.67766 0
M  V30 7204 C 930.036 -1.68446 -6.70876 0
M  V30 7205 O 930.835 -0.678137 -6.08433 0
M  V30 7206 C 928.699 -1.17436 -7.18567 0
M  V30 7207 H 928.731 -0.0804732 -7.31656 0
M  V30 7208 H 929.914 -2.54037 -6.02537 0
M  V30 7209 H 931.398 -2.93881 -7.85526 0
M  V30 7210 H 929.704 -2.53065 -9.86973 0
M  V30 7211 H 929.514 -4.75072 -9.05887 0
M  V30 7212 H 927.884 -4.05244 -8.76668 0
M  V30 7213 H 930.523 0.177647 -6.34251 0
M  V30 7214 P 932.38 -1.25109 -8.70152 0
M  V30 7215 O 933.802 -1.29744 -9.22016 0
M  V30 7216 O 932.02 -2.13714 -7.55141 0
M  V30 7217 O 932.057 0.248149 -8.21425 0
M  V30 7218 C 931.897 1.22779 -9.30434 0
M  V30 7219 C 932.437 2.56293 -8.80664 0
M  V30 7220 O 931.381 3.02979 -8.09349 0
M  V30 7221 C 933.655 2.57523 -7.89775 0
M  V30 7222 O 934.393 3.7668 -7.89438 0
M  V30 7223 C 932.986 2.20997 -6.55446 0
M  V30 7224 O 933.785 2.71895 -5.48509 0
M  V30 7225 C 931.649 2.89693 -6.67988 0
M  V30 7226 H 931.681 3.88793 -6.19859 0
M  V30 7227 H 932.864 1.12046 -6.44229 0
M  V30 7228 H 934.348 1.7746 -8.19711 0
M  V30 7229 H 932.654 3.20706 -9.67112 0
M  V30 7230 H 932.464 0.901032 -10.1892 0
M  V30 7231 H 930.834 1.33049 -9.56592 0
M  V30 7232 H 933.473 3.57847 -5.23962 0
M  V30 7233 P 935.331 3.65191 -7.99657 0
M  V30 7234 O 936.752 3.89374 -8.45885 0
M  V30 7235 O 934.971 2.28472 -7.50807 0
M  V30 7236 O 935.008 4.64972 -6.77611 0
M  V30 7237 C 934.847 6.06383 -7.16428 0
M  V30 7238 C 935.388 6.91731 -6.02299 0
M  V30 7239 O 934.333 6.92369 -5.17005 0
M  V30 7240 C 936.606 6.43627 -5.25174 0
M  V30 7241 O 937.344 7.43686 -4.60469 0
M  V30 7242 C 935.938 5.40275 -4.31916 0
M  V30 7243 O 936.736 5.24878 -3.14911 0
M  V30 7244 C 934.6 6.04847 -4.05327 0
M  V30 7245 N 933.557 5.04166 -3.98114 0
M  V30 7246 C 933.726 3.84629 -4.59066 0
M  V30 7247 N 932.699 3.0363 -4.45343 0
M  V30 7248 C 931.814 3.76722 -3.68523 0
M  V30 7249 C 930.547 3.43528 -3.17088 0
M  V30 7250 N 929.948 2.23665 -3.37397 0
M  V30 7251 N 929.982 4.44526 -2.44231 0
M  V30 7252 C 930.584 5.65243 -2.20146 0
M  V30 7253 N 931.761 6.00221 -2.65453 0
M  V30 7254 C 932.336 5.00564 -3.39083 0
M  V30 7255 H 934.632 6.62104 -3.11218 0
M  V30 7256 H 935.815 4.42969 -4.80867 0
M  V30 7257 H 937.298 5.92458 -5.93643 0
M  V30 7258 H 935.604 7.93295 -6.39407 0
M  V30 7259 H 935.414 6.26671 -8.0846 0
M  V30 7260 H 933.784 6.29101 -7.32804 0
M  V30 7261 H 930.048 6.36894 -1.5883 0
M  V30 7262 H 934.626 3.58193 -5.14248 0
M  V30 7263 H 929.018 2.05145 -2.97047 0
M  V30 7264 H 930.422 1.51255 -3.92998 0
M  V30 7265 H 936.424 5.84223 -2.47279 0
M  V30 7266 P 938.281 7.39546 -4.75277 0
M  V30 7267 O 939.703 7.84798 -5.01039 0
M  V30 7268 O 937.921 5.9812 -5.08098 0
M  V30 7269 O 937.958 7.57503 -3.1866 0
M  V30 7270 C 937.798 8.97357 -2.74833 0
M  V30 7271 C 938.338 9.07548 -1.32709 0
M  V30 7272 O 937.282 8.62072 -0.606159 0
M  V30 7273 C 939.556 8.25383 -0.938334 0
M  V30 7274 O 940.294 8.74577 0.146954 0
M  V30 7275 C 938.887 6.8802 -0.712559 0
M  V30 7276 O 939.686 6.1189 0.194655 0
M  V30 7277 C 937.55 7.27966 -0.139777 0
M  V30 7278 H 937.582 7.25354 0.961601 0
M  V30 7279 H 938.765 6.32557 -1.65702 0
M  V30 7280 H 940.249 8.19355 -1.79097 0
M  V30 7281 H 938.555 10.1294 -1.10029 0
M  V30 7282 H 938.365 9.64276 -3.41316 0
M  V30 7283 H 936.735 9.25417 -2.76357 0
M  V30 7284 H 939.374 6.25267 1.07847 0
M  V30 7285 P 941.232 8.791 7.24582e-12 0
M  V30 7286 O 942.654 9.31096 0.027933 0
M  V30 7287 O 940.872 7.77869 -1.04071 0
M  V30 7288 O 940.909 8.09533 1.41463 0
M  V30 7289 C 940.749 9.0349 2.53943 0
M  V30 7290 C 941.289 8.35226 3.79016 0
M  V30 7291 O 940.233 7.57992 4.15078 0
M  V30 7292 C 942.507 7.45087 3.67298 0
M  V30 7293 O 943.245 7.27796 4.85194 0
M  V30 7294 C 941.838 6.17323 3.12027 0
M  V30 7295 O 942.637 5.04231 3.47188 0
M  V30 7296 C 940.501 6.19961 3.81809 0
M  V30 7297 H 940.533 5.58218 4.73051 0
M  V30 7298 H 941.716 6.21726 2.02589 0
M  V30 7299 H 943.2 7.86112 2.9231 0
M  V30 7300 H 941.506 9.11627 4.55076 0
M  V30 7301 H 941.316 9.9573 2.34194 0
M  V30 7302 H 939.686 9.2792 2.67832 0
M  V30 7303 H 942.325 4.67702 4.28772 0
M  V30 7304 P 944.182 7.39546 4.75277 0
M  V30 7305 O 945.604 7.81777 5.05738 0
M  V30 7306 O 943.822 7.1065 3.32998 0
M  V30 7307 O 943.859 6.04542 5.56673 0
M  V30 7308 C 943.699 6.22772 7.02095 0
M  V30 7309 C 944.239 4.97725 7.70406 0
M  V30 7310 O 943.183 4.13256 7.58987 0
M  V30 7311 C 945.457 4.28231 7.11815 0
M  V30 7312 O 946.195 3.49945 8.01648 0
M  V30 7313 C 944.788 3.5063 5.96244 0
M  V30 7314 O 945.587 2.36482 5.64681 0
M  V30 7315 C 943.451 3.15122 6.56374 0
M  V30 7316 H 943.483 2.13853 6.99751 0
M  V30 7317 H 944.666 4.13501 5.06559 0
M  V30 7318 H 946.15 5.03285 6.70911 0
M  V30 7319 H 944.456 5.20877 8.75697 0
M  V30 7320 H 944.266 7.11046 7.35349 0
M  V30 7321 H 942.636 6.35815 7.26986 0
M  V30 7322 H 945.275 1.61644 6.13565 0
M  V30 7323 P 947.133 3.65191 7.99657 0
M  V30 7324 O 948.555 3.8425 8.48115 0
M  V30 7325 O 946.773 4.17805 6.64342 0
M  V30 7326 O 946.81 2.07613 7.95143 0
M  V30 7327 C 946.65 1.44328 9.27336 0
M  V30 7328 C 947.19 0.0220036 9.17197 0
M  V30 7329 O 946.134 -0.626867 8.61923 0
M  V30 7330 C 948.408 -0.24586 8.30336 0
M  V30 7331 O 949.146 -1.39011 8.63583 0
M  V30 7332 C 947.739 -0.273849 6.91158 0
M  V30 7333 O 948.538 -1.06348 6.02892 0
M  V30 7334 C 946.402 -0.897649 7.22545 0
M  V30 7335 H 946.434 -1.9841 7.04286 0
M  V30 7336 H 947.617 0.739928 6.497 0
M  V30 7337 H 949.101 0.60668 8.36503 0
M  V30 7338 H 947.407 -0.352479 10.1829 0
M  V30 7339 H 947.217 2.00611 10.0304 0
M  V30 7340 H 945.587 1.41843 9.55327 0
M  V30 7341 H 948.226 -1.95734 6.03555 0
M  V30 7342 P 950.084 -1.25109 8.70152 0
M  V30 7343 O 951.506 -1.35274 9.21221 0
M  V30 7344 O 949.724 -0.0769065 7.84762 0
M  V30 7345 O 949.761 -2.55232 7.81161 0
M  V30 7346 C 949.601 -3.79939 8.58154 0
M  V30 7347 C 950.141 -4.94023 7.72785 0
M  V30 7348 O 949.085 -5.18726 6.91205 0
M  V30 7349 C 951.359 -4.69597 6.85231 0
M  V30 7350 O 952.097 -5.83832 6.51337 0
M  V30 7351 C 950.69 -3.96706 5.66633 0
M  V30 7352 O 951.489 -4.15414 4.49689 0
M  V30 7353 C 949.353 -4.66153 5.59313 0
M  V30 7354 H 949.385 -5.47679 4.85214 0
M  V30 7355 H 950.568 -2.89008 5.86566 0
M  V30 7356 H 952.052 -4.0121 7.36511 0
M  V30 7357 H 950.358 -5.80182 8.37584 0
M  V30 7358 H 950.168 -3.73517 9.52265 0
M  V30 7359 H 948.538 -3.97163 8.80359 0
M  V30 7360 H 951.177 -4.90969 4.01921 0
M  V30 7361 P 953.034 -5.75688 6.64379 0
M  V30 7362 O 954.456 -6.11849 7.01846 0
M  V30 7363 O 952.674 -4.30744 6.56026 0
M  V30 7364 O 952.711 -6.37042 5.19165 0
M  V30 7365 C 952.551 -7.83578 5.16515 0
M  V30 7366 C 953.091 -8.33398 3.83019 0
M  V30 7367 O 952.035 -8.10074 3.01034 0
M  V30 7368 C 954.309 -7.65514 3.2257 0
M  V30 7369 O 955.047 -8.4329 2.32297 0
M  V30 7370 C 953.64 -6.40075 2.62207 0
M  V30 7371 O 954.439 -5.92589 1.53712 0
M  V30 7372 C 952.303 -6.9454 2.18503 0
M  V30 7373 H 952.335 -7.23063 1.12091 0
M  V30 7374 H 953.518 -5.6025 3.37201 0
M  V30 7375 H 955.002 -7.35707 4.02681 0
M  V30 7376 H 953.308 -9.40912 3.9095 0
M  V30 7377 H 953.118 -8.29056 5.99158 0
M  V30 7378 H 951.488 -8.10073 5.25882 0
M  V30 7379 H 954.127 -6.30324 0.726794 0
M  V30 7380 P 955.985 -8.4349 2.47671 0
M  V30 7381 O 957.406 -8.94263 2.59668 0
M  V30 7382 O 955.625 -7.1704 3.19006 0
M  V30 7383 O 955.662 -8.16596 0.923387 0
M  V30 7384 C 955.501 -9.38537 0.108869 0
M  V30 7385 C 956.042 -9.08175 -1.28353 0
M  V30 7386 O 954.987 -8.44131 -1.84692 0
M  V30 7387 C 957.26 -8.18386 -1.42505 0
M  V30 7388 O 957.998 -8.3501 -2.60497 0
M  V30 7389 C 956.592 -6.80225 -1.25468 0
M  V30 7390 O 957.39 -5.81716 -1.90454 0
M  V30 7391 C 955.254 -7.02416 -1.9168 0
M  V30 7392 N 954.211 -6.31033 -1.20314 0
M  V30 7393 C 954.38 -5.98817 0.0994088 0
M  V30 7394 N 953.353 -5.35403 0.621694 0
M  V30 7395 C 952.468 -5.25212 -0.43376 0
M  V30 7396 C 951.201 -4.64602 -0.519722 0
M  V30 7397 N 950.602 -4.01457 0.519136 0
M  V30 7398 N 950.636 -4.7568 -1.76013 0
M  V30 7399 C 951.238 -5.3653 -2.83017 0
M  V30 7400 N 952.415 -5.93676 -2.79782 0
M  V30 7401 C 952.99 -5.84061 -1.56249 0
M  V30 7402 H 955.286 -6.68789 -2.9658 0
M  V30 7403 H 956.469 -6.53498 -0.198729 0
M  V30 7404 H 957.952 -8.36622 -0.589963 0
M  V30 7405 H 956.258 -10.0273 -1.8081 0
M  V30 7406 H 956.068 -10.2138 0.558219 0
M  V30 7407 H 954.438 -9.6579 0.0444202 0
M  V30 7408 H 950.702 -5.37113 -3.77321 0
M  V30 7409 H 955.28 -6.23209 0.660562 0
M  V30 7410 H 949.672 -3.58834 0.394862 0
M  V30 7411 H 951.076 -3.96059 1.43048 0
M  V30 7412 H 957.078 -5.69466 -2.79593 0
M  V30 7413 P 958.935 -8.4349 -2.47671 0
M  V30 7414 O 960.357 -8.92593 -2.65 0
M  V30 7415 O 958.575 -7.7568 -1.19296 0
M  V30 7416 O 958.612 -7.36886 -3.63805 0
M  V30 7417 C 958.452 -7.95349 -4.982 0
M  V30 7418 C 958.992 -6.94612 -5.98974 0
M  V30 7419 O 957.936 -6.10347 -6.11815 0
M  V30 7420 C 960.21 -6.11426 -5.62335 0
M  V30 7421 O 960.948 -5.6162 -6.70584 0
M  V30 7422 C 959.541 -5.04409 -4.73308 0
M  V30 7423 O 960.34 -3.85992 -4.75183 0
M  V30 7424 C 958.204 -4.8728 -5.41006 0
M  V30 7425 H 958.236 -4.02333 -6.11157 0
M  V30 7426 H 959.419 -5.39466 -3.69543 0
M  V30 7427 H 960.903 -6.71916 -5.01943 0
M  V30 7428 H 959.209 -7.4649 -6.93477 0
M  V30 7429 H 959.019 -8.89416 -5.05237 0
M  V30 7430 H 957.389 -8.14876 -5.18409 0
M  V30 7431 H 960.028 -3.27957 -5.4317 0
M  V30 7432 P 961.886 -5.75688 -6.64379 0
M  V30 7433 O 963.308 -6.07627 -7.05504 0
M  V30 7434 O 961.526 -5.88047 -5.19722 0
M  V30 7435 O 961.563 -4.2322 -7.04443 0
M  V30 7436 C 961.403 -3.99743 -8.4911 0
M  V30 7437 C 961.943 -2.60516 -8.79425 0
M  V30 7438 O 960.887 -1.82684 -8.4467 0
M  V30 7439 C 963.161 -2.10343 -8.03628 0
M  V30 7440 O 963.899 -1.09919 -8.67766 0
M  V30 7441 C 962.492 -1.68446 -6.70876 0
M  V30 7442 O 963.291 -0.678137 -6.08433 0
M  V30 7443 C 961.155 -1.17436 -7.18567 0
M  V30 7444 H 961.187 -0.0804732 -7.31656 0
M  V30 7445 H 962.37 -2.54037 -6.02537 0
M  V30 7446 H 963.854 -2.93881 -7.85526 0
M  V30 7447 H 962.16 -2.53065 -9.86973 0
M  V30 7448 H 961.97 -4.75072 -9.05887 0
M  V30 7449 H 960.34 -4.05244 -8.76668 0
M  V30 7450 H 962.979 0.177647 -6.34251 0
M  V30 7451 P 964.836 -1.25109 -8.70152 0
M  V30 7452 O 966.258 -1.29744 -9.22016 0
M  V30 7453 O 964.476 -2.13714 -7.55141 0
M  V30 7454 O 964.513 0.248149 -8.21425 0
M  V30 7455 C 964.353 1.22779 -9.30434 0
M  V30 7456 C 964.893 2.56293 -8.80664 0
M  V30 7457 O 963.837 3.02979 -8.09349 0
M  V30 7458 C 966.111 2.57523 -7.89775 0
M  V30 7459 O 966.849 3.7668 -7.89438 0
M  V30 7460 C 965.442 2.20997 -6.55446 0
M  V30 7461 O 966.241 2.71895 -5.48509 0
M  V30 7462 C 964.105 2.89693 -6.67988 0
M  V30 7463 H 964.137 3.88793 -6.19859 0
M  V30 7464 H 965.32 1.12046 -6.44229 0
M  V30 7465 H 966.804 1.7746 -8.19711 0
M  V30 7466 H 965.11 3.20706 -9.67112 0
M  V30 7467 H 964.92 0.901032 -10.1892 0
M  V30 7468 H 963.29 1.33049 -9.56592 0
M  V30 7469 H 965.929 3.57847 -5.23962 0
M  V30 7470 P 967.787 3.65191 -7.99657 0
M  V30 7471 O 969.209 3.89332 -8.45794 0
M  V30 7472 O 967.427 2.28472 -7.50807 0
M  V30 7473 O 967.464 4.64972 -6.77611 0
M  V30 7474 C 967.304 6.06319 -7.16352 0
M  V30 7475 C 967.844 6.91731 -6.02299 0
M  V30 7476 O 966.788 6.92449 -5.17064 0
M  V30 7477 C 969.062 6.43627 -5.25174 0
M  V30 7478 O 969.8 7.43686 -4.60469 0
M  V30 7479 C 968.393 5.40275 -4.31916 0
M  V30 7480 O 969.192 5.25279 -3.14438 0
M  V30 7481 C 967.056 6.04847 -4.05327 0
M  V30 7482 H 967.088 6.62195 -3.11261 0
M  V30 7483 H 968.271 4.42556 -4.81383 0
M  V30 7484 H 969.755 5.92458 -5.93643 0
M  V30 7485 H 968.061 7.92655 -6.402 0
M  V30 7486 H 967.871 6.26671 -8.0846 0
M  V30 7487 H 966.241 6.29101 -7.32804 0
M  V30 7488 H 968.88 5.84315 -2.47318 0
M  V30 7489 P 970.738 7.39546 -4.75277 0
M  V30 7490 O 972.16 7.84798 -5.01039 0
M  V30 7491 O 970.378 5.9812 -5.08098 0
M  V30 7492 O 970.415 7.57503 -3.1866 0
M  V30 7493 C 970.255 8.97357 -2.74833 0
M  V30 7494 C 970.795 9.07548 -1.32709 0
M  V30 7495 O 969.739 8.62072 -0.606159 0
M  V30 7496 C 972.013 8.25383 -0.938334 0
M  V30 7497 O 972.751 8.74577 0.146954 0
M  V30 7498 C 971.344 6.8802 -0.712559 0
M  V30 7499 O 972.143 6.1189 0.194655 0
M  V30 7500 C 970.007 7.27966 -0.139777 0
M  V30 7501 H 970.039 7.25354 0.961601 0
M  V30 7502 H 971.222 6.32557 -1.65702 0
M  V30 7503 H 972.706 8.19355 -1.79097 0
M  V30 7504 H 971.012 10.1294 -1.10029 0
M  V30 7505 H 970.822 9.64276 -3.41316 0
M  V30 7506 H 969.192 9.25417 -2.76357 0
M  V30 7507 H 971.831 6.25267 1.07847 0
M  V30 7508 P 973.688 8.791 7.55599e-12 0
M  V30 7509 O 975.11 9.31096 0.027933 0
M  V30 7510 O 973.328 7.77869 -1.04071 0
M  V30 7511 O 973.365 8.09533 1.41463 0
M  V30 7512 C 973.205 9.0349 2.53943 0
M  V30 7513 C 973.745 8.35226 3.79016 0
M  V30 7514 O 972.689 7.57992 4.15078 0
M  V30 7515 C 974.963 7.45087 3.67298 0
M  V30 7516 O 975.701 7.27796 4.85194 0
M  V30 7517 C 974.294 6.17323 3.12027 0
M  V30 7518 O 975.093 5.04231 3.47188 0
M  V30 7519 C 972.957 6.19961 3.81809 0
M  V30 7520 H 972.989 5.58218 4.73051 0
M  V30 7521 H 974.172 6.21726 2.02589 0
M  V30 7522 H 975.656 7.86112 2.9231 0
M  V30 7523 H 973.962 9.11627 4.55076 0
M  V30 7524 H 973.772 9.9573 2.34194 0
M  V30 7525 H 972.142 9.2792 2.67832 0
M  V30 7526 H 974.781 4.67702 4.28772 0
M  V30 7527 P 976.639 7.39546 4.75277 0
M  V30 7528 O 978.04 7.89013 5.04841 0
M  V30 7529 O 976.261 7.16603 3.32298 0
M  V30 7530 O 976.316 6.04468 5.56605 0
M  V30 7531 C 976.156 6.22772 7.02095 0
M  V30 7532 C 976.696 4.97671 7.70322 0
M  V30 7533 O 975.64 4.13208 7.58899 0
M  V30 7534 C 977.913 4.28231 7.11815 0
M  V30 7535 O 978.652 3.49945 8.01648 0
M  V30 7536 C 977.246 3.5063 5.96244 0
M  V30 7537 O 978.044 2.36443 5.64589 0
M  V30 7538 C 975.908 3.15122 6.56374 0
M  V30 7539 N 974.865 3.22311 5.55692 0
M  V30 7540 C 973.83 2.32244 5.62437 0
M  V30 7541 O 973.869 1.43107 6.50341 0
M  V30 7542 N 972.818 2.40811 4.73368 0
M  V30 7543 C 972.866 3.344 3.77753 0
M  V30 7544 C 973.962 4.24712 3.66679 0
M  V30 7545 C 974.928 4.15625 4.58307 0
M  V30 7546 H 975.94 2.13823 6.99656 0
M  V30 7547 H 977.123 4.12931 5.06895 0
M  V30 7548 H 978.607 5.02674 6.71494 0
M  V30 7549 H 976.913 5.20001 8.76217 0
M  V30 7550 H 976.722 7.11046 7.35349 0
M  V30 7551 H 975.092 6.35749 7.26911 0
M  V30 7552 H 974.01 4.9828 2.86753 0
M  V30 7553 H 975.774 4.84464 4.54228 0
M  V30 7554 H 977.828 1.65592 6.23485 0
M  V30 7555 P 979.589 3.65191 7.99657 0
M  V30 7556 O 981.011 3.8425 8.48115 0
M  V30 7557 O 979.229 4.17805 6.64342 0
M  V30 7558 O 979.266 2.07613 7.95143 0
M  V30 7559 C 979.106 1.44328 9.27336 0
M  V30 7560 C 979.646 0.0220036 9.17197 0
M  V30 7561 O 978.59 -0.626867 8.61923 0
M  V30 7562 C 980.864 -0.24586 8.30336 0
M  V30 7563 O 981.602 -1.39011 8.63583 0
M  V30 7564 C 980.195 -0.273849 6.91158 0
M  V30 7565 O 980.994 -1.06348 6.02892 0
M  V30 7566 C 978.858 -0.897649 7.22545 0
M  V30 7567 H 978.89 -1.9841 7.04286 0
M  V30 7568 H 980.073 0.739928 6.497 0
M  V30 7569 H 981.557 0.60668 8.36503 0
M  V30 7570 H 979.863 -0.352479 10.1829 0
M  V30 7571 H 979.673 2.00611 10.0304 0
M  V30 7572 H 978.043 1.41843 9.55327 0
M  V30 7573 H 980.682 -1.95734 6.03555 0
M  V30 7574 P 982.54 -1.25109 8.70152 0
M  V30 7575 O 983.962 -1.35274 9.21221 0
M  V30 7576 O 982.18 -0.0769065 7.84762 0
M  V30 7577 O 982.217 -2.55232 7.81161 0
M  V30 7578 C 982.057 -3.79939 8.58154 0
M  V30 7579 C 982.597 -4.94023 7.72785 0
M  V30 7580 O 981.541 -5.18726 6.91205 0
M  V30 7581 C 983.815 -4.69597 6.85231 0
M  V30 7582 O 984.553 -5.83832 6.51337 0
M  V30 7583 C 983.146 -3.96706 5.66633 0
M  V30 7584 O 983.945 -4.15414 4.49689 0
M  V30 7585 C 981.809 -4.66153 5.59313 0
M  V30 7586 H 981.841 -5.47679 4.85214 0
M  V30 7587 H 983.024 -2.89008 5.86566 0
M  V30 7588 H 984.508 -4.0121 7.36511 0
M  V30 7589 H 982.814 -5.80182 8.37584 0
M  V30 7590 H 982.624 -3.73517 9.52265 0
M  V30 7591 H 980.994 -3.97163 8.80359 0
M  V30 7592 H 983.633 -4.90969 4.01921 0
M  V30 7593 P 985.49 -5.75688 6.64379 0
M  V30 7594 O 986.911 -6.11915 7.01921 0
M  V30 7595 O 985.13 -4.30744 6.56026 0
M  V30 7596 O 985.167 -6.37042 5.19165 0
M  V30 7597 C 985.006 -7.83662 5.1657 0
M  V30 7598 C 985.547 -8.33398 3.83019 0
M  V30 7599 O 984.492 -8.0998 3.00999 0
M  V30 7600 C 986.765 -7.65514 3.2257 0
M  V30 7601 O 987.503 -8.4329 2.32297 0
M  V30 7602 C 986.097 -6.40075 2.62207 0
M  V30 7603 O 986.895 -5.92338 1.5428 0
M  V30 7604 C 984.759 -6.9454 2.18503 0
M  V30 7605 N 983.716 -5.95905 2.39948 0
M  V30 7606 C 983.885 -4.98383 3.32108 0
M  V30 7607 N 982.858 -4.16798 3.41761 0
M  V30 7608 C 981.973 -4.65287 2.47461 0
M  V30 7609 C 980.706 -4.18946 2.07461 0
M  V30 7610 N 980.107 -3.09661 2.60717 0
M  V30 7611 N 980.141 -4.95327 1.09101 0
M  V30 7612 C 980.743 -6.04369 0.519812 0
M  V30 7613 N 981.92 -6.50694 0.855982 0
M  V30 7614 C 982.495 -5.75818 1.84322 0
M  V30 7615 H 984.791 -7.22964 1.12076 0
M  V30 7616 H 985.974 -5.60502 3.36589 0
M  V30 7617 H 987.457 -7.35707 4.02681 0
M  V30 7618 H 985.763 -9.41302 3.90009 0
M  V30 7619 H 985.573 -8.29056 5.99158 0
M  V30 7620 H 983.943 -8.10073 5.25882 0
M  V30 7621 H 980.207 -6.55843 -0.270373 0
M  V30 7622 H 984.785 -4.88564 3.92502 0
M  V30 7623 H 979.177 -2.80523 2.27218 0
M  V30 7624 H 980.581 -2.55848 3.34465 0
M  V30 7625 H 986.583 -6.30224 0.72668 0
M  V30 7626 P 988.441 -8.4349 2.47671 0
M  V30 7627 O 989.863 -8.94167 2.5964 0
M  V30 7628 O 988.081 -7.1704 3.19006 0
M  V30 7629 O 988.118 -8.16596 0.923387 0
M  V30 7630 C 987.958 -9.38437 0.108857 0
M  V30 7631 C 988.498 -9.08175 -1.28353 0
M  V30 7632 O 987.442 -8.44229 -1.84713 0
M  V30 7633 C 989.716 -8.18386 -1.42505 0
M  V30 7634 O 990.454 -8.3501 -2.60497 0
M  V30 7635 C 989.047 -6.80225 -1.25468 0
M  V30 7636 O 989.846 -5.81621 -1.91066 0
M  V30 7637 C 987.71 -7.02416 -1.9168 0
M  V30 7638 H 987.742 -6.6888 -2.96621 0
M  V30 7639 H 988.925 -6.53617 -0.192223 0
M  V30 7640 H 990.409 -8.36622 -0.589963 0
M  V30 7641 H 988.715 -10.0291 -1.79807 0
M  V30 7642 H 988.525 -10.2138 0.558219 0
M  V30 7643 H 986.895 -9.6579 0.0444202 0
M  V30 7644 H 989.534 -5.69556 -2.79637 0
M  V30 7645 P 991.392 -8.4349 -2.47671 0
M  V30 7646 O 992.814 -8.92785 -2.65057 0
M  V30 7647 O 991.032 -7.7568 -1.19296 0
M  V30 7648 O 991.069 -7.36886 -3.63805 0
M  V30 7649 C 990.909 -7.95349 -4.982 0
M  V30 7650 C 991.449 -6.94537 -5.98908 0
M  V30 7651 O 990.394 -6.10347 -6.11815 0
M  V30 7652 C 992.667 -6.11426 -5.62335 0
M  V30 7653 O 993.405 -5.6162 -6.70584 0
M  V30 7654 C 991.999 -5.04409 -4.73308 0
M  V30 7655 O 992.797 -3.85929 -4.75106 0
M  V30 7656 C 990.661 -4.8728 -5.41006 0
M  V30 7657 N 989.618 -4.65812 -4.42377 0
M  V30 7658 C 989.68 -5.27109 -3.24335 0
M  V30 7659 N 988.635 -4.94293 -2.47735 0
M  V30 7660 C 987.901 -4.1271 -3.23359 0
M  V30 7661 C 986.595 -3.56384 -2.99934 0
M  V30 7662 O 985.862 -3.69331 -2.00616 0
M  V30 7663 N 986.165 -2.80206 -4.03316 0
M  V30 7664 C 986.914 -2.58614 -5.2172 0
M  V30 7665 N 986.317 -1.75154 -6.13278 0
M  V30 7666 N 988.067 -3.13689 -5.47619 0
M  V30 7667 C 988.524 -3.90921 -4.46436 0
M  V30 7668 H 990.693 -4.02333 -6.11157 0
M  V30 7669 H 991.876 -5.39383 -3.69487 0
M  V30 7670 H 993.361 -6.71414 -5.02615 0
M  V30 7671 H 991.666 -7.4649 -6.93477 0
M  V30 7672 H 991.476 -8.89416 -5.05237 0
M  V30 7673 H 989.845 -8.14876 -5.18409 0
M  V30 7674 H 985.269 -2.36355 -3.95916 0
M  V30 7675 H 990.476 -5.95212 -2.93859 0
M  V30 7676 H 985.406 -1.32473 -5.91856 0
M  V30 7677 H 986.782 -1.5588 -7.03026 0
M  V30 7678 H 992.486 -3.27906 -5.43085 0
M  V30 7679 P 994.342 -5.75688 -6.64379 0
M  V30 7680 O 995.763 -6.07692 -7.0558 0
M  V30 7681 O 993.982 -5.88047 -5.19722 0
M  V30 7682 O 994.019 -4.2322 -7.04443 0
M  V30 7683 C 993.858 -3.99785 -8.49201 0
M  V30 7684 C 994.399 -2.60516 -8.79425 0
M  V30 7685 O 993.344 -1.82663 -8.44573 0
M  V30 7686 C 995.617 -2.10343 -8.03628 0
M  V30 7687 O 996.355 -1.09919 -8.67766 0
M  V30 7688 C 994.949 -1.68446 -6.70876 0
M  V30 7689 O 995.747 -0.684109 -6.08265 0
M  V30 7690 C 993.611 -1.17436 -7.18567 0
M  V30 7691 N 992.568 -1.52699 -6.23988 0
M  V30 7692 C 992.737 -2.578 -5.40574 0
M  V30 7693 N 991.71 -2.78966 -4.61193 0
M  V30 7694 C 990.825 -1.78725 -4.95769 0
M  V30 7695 C 989.558 -1.45727 -4.44207 0
M  V30 7696 N 988.959 -2.13994 -3.43613 0
M  V30 7697 N 988.993 -0.374977 -5.05812 0
M  V30 7698 C 989.595 0.345585 -6.05615 0
M  V30 7699 N 990.772 0.0787651 -6.56253 0
M  V30 7700 C 991.347 -1.00499 -5.96189 0
M  V30 7701 H 993.643 -0.0804622 -7.31556 0
M  V30 7702 H 994.826 -2.53396 -6.02698 0
M  V30 7703 H 996.309 -2.93881 -7.85526 0
M  V30 7704 H 994.615 -2.52078 -9.87225 0
M  V30 7705 H 994.425 -4.75072 -9.05887 0
M  V30 7706 H 992.795 -4.05244 -8.76668 0
M  V30 7707 H 989.059 1.20098 -6.4532 0
M  V30 7708 H 993.637 -3.18977 -5.3945 0
M  V30 7709 H 988.029 -1.84983 -3.10004 0
M  V30 7710 H 989.433 -2.9465 -3.00843 0
M  V30 7711 H 995.435 0.177619 -6.34151 0
M  V30 7712 P 997.293 -1.25109 -8.70152 0
M  V30 7713 O 998.715 -1.29744 -9.22016 0
M  V30 7714 O 996.933 -2.13714 -7.55141 0
M  V30 7715 O 996.97 0.248149 -8.21425 0
M  V30 7716 C 996.81 1.22779 -9.30434 0
M  V30 7717 C 997.35 2.56293 -8.80664 0
M  V30 7718 O 996.294 3.02979 -8.09349 0
M  V30 7719 C 998.568 2.57523 -7.89775 0
M  V30 7720 O 999.306 3.7668 -7.89438 0
M  V30 7721 C 997.899 2.20997 -6.55446 0
M  V30 7722 O 998.698 2.71895 -5.48509 0
M  V30 7723 C 996.562 2.89693 -6.67988 0
M  V30 7724 H 996.594 3.88793 -6.19859 0
M  V30 7725 H 997.777 1.12046 -6.44229 0
M  V30 7726 H 999.261 1.7746 -8.19711 0
M  V30 7727 H 997.567 3.20706 -9.67112 0
M  V30 7728 H 997.377 0.901032 -10.1892 0
M  V30 7729 H 995.747 1.33049 -9.56592 0
M  V30 7730 H 998.386 3.57847 -5.23962 0
M  V30 7731 P 1000.24 3.65191 -7.99657 0
M  V30 7732 O 1001.67 3.89332 -8.45794 0
M  V30 7733 O 999.883 2.28472 -7.50807 0
M  V30 7734 O 999.92 4.64972 -6.77611 0
M  V30 7735 C 999.76 6.06319 -7.16352 0
M  V30 7736 C 1000.3 6.91731 -6.02299 0
M  V30 7737 O 999.244 6.92449 -5.17064 0
M  V30 7738 C 1001.52 6.43627 -5.25174 0
M  V30 7739 O 1002.26 7.43686 -4.60469 0
M  V30 7740 C 1000.85 5.40275 -4.31916 0
M  V30 7741 O 1001.65 5.25279 -3.14438 0
M  V30 7742 C 999.512 6.04847 -4.05327 0
M  V30 7743 H 999.544 6.62195 -3.11261 0
M  V30 7744 H 1000.73 4.42556 -4.81383 0
M  V30 7745 H 1002.21 5.92458 -5.93643 0
M  V30 7746 H 1000.52 7.92655 -6.402 0
M  V30 7747 H 1000.33 6.26671 -8.0846 0
M  V30 7748 H 998.697 6.29101 -7.32804 0
M  V30 7749 H 1001.34 5.84315 -2.47318 0
M  V30 7750 P 1003.19 7.39546 -4.75277 0
M  V30 7751 O 1004.62 7.84798 -5.01039 0
M  V30 7752 O 1002.83 5.9812 -5.08098 0
M  V30 7753 O 1002.87 7.57503 -3.1866 0
M  V30 7754 C 1002.71 8.97357 -2.74833 0
M  V30 7755 C 1003.25 9.07548 -1.32709 0
M  V30 7756 O 1002.19 8.62072 -0.606159 0
M  V30 7757 C 1004.47 8.25383 -0.938334 0
M  V30 7758 O 1005.21 8.74577 0.146954 0
M  V30 7759 C 1003.8 6.8802 -0.712559 0
M  V30 7760 O 1004.6 6.1189 0.194655 0
M  V30 7761 C 1002.46 7.27966 -0.139777 0
M  V30 7762 H 1002.49 7.25354 0.961601 0
M  V30 7763 H 1003.68 6.32557 -1.65702 0
M  V30 7764 H 1005.16 8.19355 -1.79097 0
M  V30 7765 H 1003.47 10.1294 -1.10029 0
M  V30 7766 H 1003.28 9.64276 -3.41316 0
M  V30 7767 H 1001.65 9.25417 -2.76357 0
M  V30 7768 H 1004.29 6.25267 1.07847 0
M  V30 7769 P 1006.14 8.791 7.86616e-12 0
M  V30 7770 O 1007.57 9.31096 0.027933 0
M  V30 7771 O 1005.78 7.77869 -1.04071 0
M  V30 7772 O 1005.82 8.09533 1.41463 0
M  V30 7773 C 1005.66 9.0349 2.53943 0
M  V30 7774 C 1006.2 8.35226 3.79016 0
M  V30 7775 O 1005.15 7.57992 4.15078 0
M  V30 7776 C 1007.42 7.45087 3.67298 0
M  V30 7777 O 1008.16 7.27796 4.85194 0
M  V30 7778 C 1006.75 6.17323 3.12027 0
M  V30 7779 O 1007.55 5.04231 3.47188 0
M  V30 7780 C 1005.41 6.19961 3.81809 0
M  V30 7781 H 1005.45 5.58218 4.73051 0
M  V30 7782 H 1006.63 6.21726 2.02589 0
M  V30 7783 H 1008.11 7.86112 2.9231 0
M  V30 7784 H 1006.42 9.11627 4.55076 0
M  V30 7785 H 1006.23 9.9573 2.34194 0
M  V30 7786 H 1004.6 9.2792 2.67832 0
M  V30 7787 H 1007.24 4.67702 4.28772 0
M  V30 7788 P 1009.09 7.39546 4.75277 0
M  V30 7789 O 1010.52 7.81861 5.05793 0
M  V30 7790 O 1008.73 7.1065 3.32998 0
M  V30 7791 O 1008.77 6.04542 5.56673 0
M  V30 7792 C 1008.61 6.22839 7.02169 0
M  V30 7793 C 1009.15 4.97725 7.70406 0
M  V30 7794 O 1008.1 4.13208 7.58899 0
M  V30 7795 C 1010.37 4.28231 7.11815 0
M  V30 7796 O 1011.11 3.49945 8.01648 0
M  V30 7797 C 1009.7 3.5063 5.96244 0
M  V30 7798 O 1010.5 2.37008 5.64352 0
M  V30 7799 C 1008.36 3.15122 6.56374 0
M  V30 7800 N 1007.32 3.22311 5.55692 0
M  V30 7801 C 1007.49 3.99655 4.46046 0
M  V30 7802 N 1006.46 3.97599 3.63918 0
M  V30 7803 C 1005.58 3.11159 4.25334 0
M  V30 7804 C 1004.31 2.64972 3.85157 0
M  V30 7805 N 1003.71 3.02132 2.69405 0
M  V30 7806 N 1003.75 1.78482 4.74759 0
M  V30 7807 C 1004.35 1.37463 5.90819 0
M  V30 7808 N 1005.52 1.7733 6.31889 0
M  V30 7809 C 1006.1 2.64393 5.43725 0
M  V30 7810 H 1008.4 2.13823 6.99656 0
M  V30 7811 H 1009.58 4.12931 5.06895 0
M  V30 7812 H 1011.06 5.03285 6.70911 0
M  V30 7813 H 1009.37 5.20001 8.76217 0
M  V30 7814 H 1009.18 7.11046 7.35349 0
M  V30 7815 H 1007.55 6.35815 7.26986 0
M  V30 7816 H 1003.81 0.66574 6.53015 0
M  V30 7817 H 1008.39 4.58037 4.27732 0
M  V30 7818 H 1002.78 2.64828 2.45331 0
M  V30 7819 H 1004.19 3.67472 2.05644 0
M  V30 7820 H 1010.19 1.61619 6.13468 0
M  V30 7821 P 1012.05 3.65191 7.99657 0
M  V30 7822 O 1013.47 3.84292 8.48206 0
M  V30 7823 O 1011.69 4.17805 6.64342 0
M  V30 7824 O 1011.72 2.07613 7.95143 0
M  V30 7825 C 1011.56 1.44344 9.27435 0
M  V30 7826 C 1012.1 0.0220036 9.17197 0
M  V30 7827 O 1011.05 -0.626794 8.61824 0
M  V30 7828 C 1013.32 -0.24586 8.30336 0
M  V30 7829 O 1014.06 -1.39011 8.63583 0
M  V30 7830 C 1012.65 -0.273849 6.91158 0
M  V30 7831 O 1013.45 -1.05728 6.029 0
M  V30 7832 C 1011.31 -0.897649 7.22545 0
M  V30 7833 N 1010.27 -0.292839 6.41732 0
M  V30 7834 C 1010.44 0.950603 5.91308 0
M  V30 7835 N 1009.41 1.37732 5.21105 0
M  V30 7836 C 1008.53 0.318109 5.26039 0
M  V30 7837 C 1007.26 0.146766 4.6727 0
M  V30 7838 N 1006.66 1.08519 3.89983 0
M  V30 7839 N 1006.7 -1.06525 4.95887 0
M  V30 7840 C 1007.3 -2.0378 5.71347 0
M  V30 7841 N 1008.48 -1.92445 6.27451 0
M  V30 7842 C 1009.05 -0.715382 6.00353 0
M  V30 7843 H 1011.35 -1.98383 7.04189 0
M  V30 7844 H 1012.53 0.733318 6.49674 0
M  V30 7845 H 1014.01 0.60668 8.36503 0
M  V30 7846 H 1012.32 -0.362662 10.1825 0
M  V30 7847 H 1012.13 2.00611 10.0304 0
M  V30 7848 H 1010.5 1.41843 9.55327 0
M  V30 7849 H 1006.76 -2.97041 5.85344 0
M  V30 7850 H 1011.34 1.54076 6.07465 0
M  V30 7851 H 1005.73 0.901517 3.49562 0
M  V30 7852 H 1007.14 1.97957 3.71669 0
M  V30 7853 H 1013.14 -1.95704 6.0346 0
M  V30 7854 P 1015 -1.25109 8.70152 0
M  V30 7855 O 1016.42 -1.35274 9.21221 0
M  V30 7856 O 1014.64 -0.0769065 7.84762 0
M  V30 7857 O 1014.67 -2.55232 7.81161 0
M  V30 7858 C 1014.51 -3.79939 8.58154 0
M  V30 7859 C 1015.05 -4.94023 7.72785 0
M  V30 7860 O 1014 -5.18726 6.91205 0
M  V30 7861 C 1016.27 -4.69597 6.85231 0
M  V30 7862 O 1017.01 -5.83832 6.51337 0
M  V30 7863 C 1015.6 -3.96706 5.66633 0
M  V30 7864 O 1016.4 -4.15414 4.49689 0
M  V30 7865 C 1014.27 -4.66153 5.59313 0
M  V30 7866 H 1014.3 -5.47679 4.85214 0
M  V30 7867 H 1015.48 -2.89008 5.86566 0
M  V30 7868 H 1016.96 -4.0121 7.36511 0
M  V30 7869 H 1015.27 -5.80182 8.37584 0
M  V30 7870 H 1015.08 -3.73517 9.52265 0
M  V30 7871 H 1013.45 -3.97163 8.80359 0
M  V30 7872 H 1016.09 -4.90969 4.01921 0
M  V30 7873 P 1017.95 -5.75688 6.64379 0
M  V30 7874 O 1019.37 -6.11915 7.01921 0
M  V30 7875 O 1017.59 -4.30744 6.56026 0
M  V30 7876 O 1017.62 -6.37042 5.19165 0
M  V30 7877 C 1017.46 -7.83662 5.1657 0
M  V30 7878 C 1018 -8.33398 3.83019 0
M  V30 7879 O 1016.95 -8.0998 3.00999 0
M  V30 7880 C 1019.22 -7.65514 3.2257 0
M  V30 7881 O 1019.96 -8.4329 2.32297 0
M  V30 7882 C 1018.55 -6.40075 2.62207 0
M  V30 7883 O 1019.35 -5.92338 1.5428 0
M  V30 7884 C 1017.22 -6.9454 2.18503 0
M  V30 7885 N 1016.17 -5.95905 2.39948 0
M  V30 7886 C 1016.34 -4.98383 3.32108 0
M  V30 7887 N 1015.31 -4.16798 3.41761 0
M  V30 7888 C 1014.43 -4.65287 2.47461 0
M  V30 7889 C 1013.16 -4.18946 2.07461 0
M  V30 7890 N 1012.56 -3.09661 2.60717 0
M  V30 7891 N 1012.6 -4.95327 1.09101 0
M  V30 7892 C 1013.2 -6.04369 0.519812 0
M  V30 7893 N 1014.38 -6.50694 0.855982 0
M  V30 7894 C 1014.95 -5.75818 1.84322 0
M  V30 7895 H 1017.25 -7.22964 1.12076 0
M  V30 7896 H 1018.43 -5.60502 3.36589 0
M  V30 7897 H 1019.91 -7.35707 4.02681 0
M  V30 7898 H 1018.22 -9.41302 3.90009 0
M  V30 7899 H 1018.03 -8.29056 5.99158 0
M  V30 7900 H 1016.4 -8.10073 5.25882 0
M  V30 7901 H 1012.66 -6.55843 -0.270373 0
M  V30 7902 H 1017.24 -4.88564 3.92502 0
M  V30 7903 H 1011.63 -2.80523 2.27218 0
M  V30 7904 H 1013.04 -2.55848 3.34465 0
M  V30 7905 H 1019.04 -6.30224 0.72668 0
M  V30 7906 P 1020.9 -8.4349 2.47671 0
M  V30 7907 O 1022.32 -8.94167 2.5964 0
M  V30 7908 O 1020.54 -7.1704 3.19006 0
M  V30 7909 O 1020.57 -8.16596 0.923387 0
M  V30 7910 C 1020.41 -9.38437 0.108857 0
M  V30 7911 C 1020.95 -9.08175 -1.28353 0
M  V30 7912 O 1019.9 -8.44229 -1.84713 0
M  V30 7913 C 1022.17 -8.18386 -1.42505 0
M  V30 7914 O 1022.91 -8.3501 -2.60497 0
M  V30 7915 C 1021.5 -6.80225 -1.25468 0
M  V30 7916 O 1022.3 -5.81621 -1.91066 0
M  V30 7917 C 1020.17 -7.02416 -1.9168 0
M  V30 7918 H 1020.2 -6.6888 -2.96621 0
M  V30 7919 H 1021.38 -6.53617 -0.192223 0
M  V30 7920 H 1022.87 -8.36622 -0.589963 0
M  V30 7921 H 1021.17 -10.0291 -1.79807 0
M  V30 7922 H 1020.98 -10.2138 0.558219 0
M  V30 7923 H 1019.35 -9.6579 0.0444202 0
M  V30 7924 H 1021.99 -5.69556 -2.79637 0
M  V30 7925 P 1023.85 -8.4349 -2.47671 0
M  V30 7926 O 1025.27 -8.92689 -2.65029 0
M  V30 7927 O 1023.49 -7.7568 -1.19296 0
M  V30 7928 O 1023.52 -7.36886 -3.63805 0
M  V30 7929 C 1023.36 -7.95433 -4.98253 0
M  V30 7930 C 1023.9 -6.94612 -5.98974 0
M  V30 7931 O 1022.85 -6.10277 -6.11744 0
M  V30 7932 C 1025.12 -6.11426 -5.62335 0
M  V30 7933 O 1025.86 -5.6162 -6.70584 0
M  V30 7934 C 1024.45 -5.04409 -4.73308 0
M  V30 7935 O 1025.25 -3.86404 -4.74719 0
M  V30 7936 C 1023.12 -4.8728 -5.41006 0
M  V30 7937 N 1022.07 -4.65812 -4.42377 0
M  V30 7938 C 1022.24 -5.09132 -3.15382 0
M  V30 7939 N 1021.22 -4.84021 -2.3716 0
M  V30 7940 C 1020.33 -4.18386 -3.20441 0
M  V30 7941 C 1019.06 -3.6275 -2.94905 0
M  V30 7942 N 1018.46 -3.65794 -1.73372 0
M  V30 7943 N 1018.5 -3.05008 -4.05243 0
M  V30 7944 C 1019.1 -2.98348 -5.28159 0
M  V30 7945 N 1020.28 -3.48171 -5.56333 0
M  V30 7946 C 1020.85 -4.06869 -4.47212 0
M  V30 7947 H 1023.15 -4.02278 -6.11074 0
M  V30 7948 H 1024.33 -5.39013 -3.70026 0
M  V30 7949 H 1025.81 -6.71916 -5.01943 0
M  V30 7950 H 1024.12 -7.45796 -6.94223 0
M  V30 7951 H 1023.93 -8.89416 -5.05237 0
M  V30 7952 H 1022.3 -8.14876 -5.18409 0
M  V30 7953 H 1018.56 -2.47853 -6.07807 0
M  V30 7954 H 1023.14 -5.59989 -2.81362 0
M  V30 7955 H 1017.53 -3.23218 -1.60782 0
M  V30 7956 H 1018.94 -4.10523 -0.937856 0
M  V30 7957 H 1024.94 -3.27906 -5.43085 0
M  V30 7958 P 1026.8 -5.75688 -6.64379 0
M  V30 7959 O 1028.22 -6.07627 -7.05504 0
M  V30 7960 O 1026.44 -5.88047 -5.19722 0
M  V30 7961 O 1026.48 -4.2322 -7.04443 0
M  V30 7962 C 1026.32 -3.99743 -8.4911 0
M  V30 7963 C 1026.86 -2.60516 -8.79425 0
M  V30 7964 O 1025.8 -1.82684 -8.4467 0
M  V30 7965 C 1028.07 -2.10343 -8.03628 0
M  V30 7966 O 1028.81 -1.09919 -8.67766 0
M  V30 7967 C 1027.4 -1.68446 -6.70876 0
M  V30 7968 O 1028.2 -0.678137 -6.08433 0
M  V30 7969 C 1026.07 -1.17436 -7.18567 0
M  V30 7970 H 1026.1 -0.0804732 -7.31656 0
M  V30 7971 H 1027.28 -2.54037 -6.02537 0
M  V30 7972 H 1028.77 -2.93881 -7.85526 0
M  V30 7973 H 1027.07 -2.53065 -9.86973 0
M  V30 7974 H 1026.88 -4.75072 -9.05887 0
M  V30 7975 H 1025.25 -4.05244 -8.76668 0
M  V30 7976 H 1027.89 0.177647 -6.34251 0
M  V30 7977 P 1029.75 -1.25109 -8.70152 0
M  V30 7978 O 1031.17 -1.29758 -9.22115 0
M  V30 7979 O 1029.39 -2.13714 -7.55141 0
M  V30 7980 O 1029.43 0.248149 -8.21425 0
M  V30 7981 C 1029.26 1.22792 -9.30533 0
M  V30 7982 C 1029.81 2.56293 -8.80664 0
M  V30 7983 O 1028.75 3.02944 -8.09255 0
M  V30 7984 C 1031.02 2.57523 -7.89775 0
M  V30 7985 O 1031.76 3.7668 -7.89438 0
M  V30 7986 C 1030.36 2.20997 -6.55446 0
M  V30 7987 O 1031.15 2.71302 -5.48691 0
M  V30 7988 C 1029.02 2.89693 -6.67988 0
M  V30 7989 N 1027.97 2.08895 -6.07487 0
M  V30 7990 C 1028.14 0.753809 -5.94137 0
M  V30 7991 N 1027.12 0.146592 -5.38801 0
M  V30 7992 C 1026.23 1.1768 -5.13693 0
M  V30 7993 C 1024.96 1.17563 -4.52477 0
M  V30 7994 N 1024.4 2.41918 -4.45789 0
M  V30 7995 C 1025 3.56493 -4.90792 0
M  V30 7996 N 1026.18 3.61423 -5.47817 0
M  V30 7997 C 1026.75 2.37779 -5.5588 0
M  V30 7998 H 1030.23 1.12673 -6.44018 0
M  V30 7999 H 1031.72 1.7746 -8.19711 0
M  V30 8000 H 1030.02 3.21673 -9.66791 0
M  V30 8001 H 1029.83 0.901032 -10.1892 0
M  V30 8002 H 1028.2 1.33049 -9.56592 0
M  V30 8003 H 1029.04 0.233081 -6.26266 0
M  V30 8004 H 1030.84 3.5779 -5.23879 0
M  V30 8005 P 1032.7 3.65191 -7.99657 0
M  V30 8006 O 1034.12 3.89332 -8.45794 0
M  V30 8007 O 1032.34 2.28472 -7.50807 0
M  V30 8008 O 1032.38 4.64972 -6.77611 0
M  V30 8009 C 1032.22 6.06319 -7.16352 0
M  V30 8010 C 1032.76 6.91731 -6.02299 0
M  V30 8011 O 1031.7 6.92449 -5.17064 0
M  V30 8012 C 1033.97 6.43627 -5.25174 0
M  V30 8013 O 1034.71 7.43686 -4.60469 0
M  V30 8014 C 1033.31 5.40275 -4.31916 0
M  V30 8015 O 1034.1 5.25279 -3.14438 0
M  V30 8016 C 1031.97 6.04847 -4.05327 0
M  V30 8017 H 1032 6.62195 -3.11261 0
M  V30 8018 H 1033.18 4.42556 -4.81383 0
M  V30 8019 H 1034.67 5.92458 -5.93643 0
M  V30 8020 H 1032.97 7.92655 -6.402 0
M  V30 8021 H 1032.78 6.26671 -8.0846 0
M  V30 8022 H 1031.15 6.29101 -7.32804 0
M  V30 8023 H 1033.79 5.84315 -2.47318 0
M  V30 8024 P 1035.65 7.39546 -4.75277 0
M  V30 8025 O 1037.07 7.84882 -5.01092 0
M  V30 8026 O 1035.29 5.9812 -5.08098 0
M  V30 8027 O 1035.33 7.57503 -3.1866 0
M  V30 8028 C 1035.17 8.97452 -2.74862 0
M  V30 8029 C 1035.71 9.07548 -1.32709 0
M  V30 8030 O 1034.65 8.61972 -0.606089 0
M  V30 8031 C 1036.93 8.25383 -0.938334 0
M  V30 8032 O 1037.66 8.74577 0.146954 0
M  V30 8033 C 1036.26 6.8802 -0.712559 0
M  V30 8034 O 1037.06 6.1181 0.188505 0
M  V30 8035 C 1034.92 7.27966 -0.139777 0
M  V30 8036 N 1033.88 6.39368 -0.623421 0
M  V30 8037 C 1034.05 5.71761 -1.78245 0
M  V30 8038 N 1033.02 4.962 -2.10491 0
M  V30 8039 C 1032.13 5.16158 -1.0635 0
M  V30 8040 C 1030.87 4.60425 -0.810266 0
M  V30 8041 N 1030.3 5.06 0.348685 0
M  V30 8042 C 1030.9 5.94532 1.20395 0
M  V30 8043 N 1032.08 6.48452 1.01191 0
M  V30 8044 C 1032.66 6.04423 -0.146291 0
M  V30 8045 H 1036.13 6.32625 -1.65044 0
M  V30 8046 H 1037.62 8.19355 -1.79097 0
M  V30 8047 H 1035.92 10.1305 -1.09016 0
M  V30 8048 H 1035.73 9.64276 -3.41316 0
M  V30 8049 H 1034.1 9.25417 -2.76357 0
M  V30 8050 H 1034.95 5.79354 -2.38959 0
M  V30 8051 H 1036.74 6.25169 1.0783 0
M  V30 8052 P 1038.6 8.791 8.17632e-12 0
M  V30 8053 O 1040.02 9.31096 0.027933 0
M  V30 8054 O 1038.24 7.77869 -1.04071 0
M  V30 8055 O 1038.28 8.09533 1.41463 0
M  V30 8056 C 1038.12 9.0349 2.53943 0
M  V30 8057 C 1038.66 8.35226 3.79016 0
M  V30 8058 O 1037.6 7.57992 4.15078 0
M  V30 8059 C 1039.88 7.45087 3.67298 0
M  V30 8060 O 1040.61 7.27796 4.85194 0
M  V30 8061 C 1039.21 6.17323 3.12027 0
M  V30 8062 O 1040.01 5.04231 3.47188 0
M  V30 8063 C 1037.87 6.19961 3.81809 0
M  V30 8064 H 1037.9 5.58218 4.73051 0
M  V30 8065 H 1039.08 6.21726 2.02589 0
M  V30 8066 H 1040.57 7.86112 2.9231 0
M  V30 8067 H 1038.87 9.11627 4.55076 0
M  V30 8068 H 1038.68 9.9573 2.34194 0
M  V30 8069 H 1037.05 9.2792 2.67832 0
M  V30 8070 H 1039.69 4.67702 4.28772 0
M  V30 8071 P 1041.55 7.39546 4.75277 0
M  V30 8072 O 1042.97 7.81777 5.05738 0
M  V30 8073 O 1041.19 7.1065 3.32998 0
M  V30 8074 O 1041.23 6.04542 5.56673 0
M  V30 8075 C 1041.07 6.22772 7.02095 0
M  V30 8076 C 1041.61 4.97725 7.70406 0
M  V30 8077 O 1040.55 4.13256 7.58987 0
M  V30 8078 C 1042.83 4.28231 7.11815 0
M  V30 8079 O 1043.56 3.49945 8.01648 0
M  V30 8080 C 1042.16 3.5063 5.96244 0
M  V30 8081 O 1042.96 2.36482 5.64681 0
M  V30 8082 C 1040.82 3.15122 6.56374 0
M  V30 8083 H 1040.85 2.13853 6.99751 0
M  V30 8084 H 1042.04 4.13501 5.06559 0
M  V30 8085 H 1043.52 5.03285 6.70911 0
M  V30 8086 H 1041.83 5.20877 8.75697 0
M  V30 8087 H 1041.64 7.11046 7.35349 0
M  V30 8088 H 1040.01 6.35815 7.26986 0
M  V30 8089 H 1042.64 1.61644 6.13565 0
M  V30 8090 P 1044.5 3.65191 7.99657 0
M  V30 8091 O 1045.92 3.8425 8.48115 0
M  V30 8092 O 1044.14 4.17805 6.64342 0
M  V30 8093 O 1044.18 2.07613 7.95143 0
M  V30 8094 C 1044.02 1.44328 9.27336 0
M  V30 8095 C 1044.56 0.0220036 9.17197 0
M  V30 8096 O 1043.5 -0.626867 8.61923 0
M  V30 8097 C 1045.78 -0.24586 8.30336 0
M  V30 8098 O 1046.51 -1.39011 8.63583 0
M  V30 8099 C 1045.11 -0.273849 6.91158 0
M  V30 8100 O 1045.91 -1.06348 6.02892 0
M  V30 8101 C 1043.77 -0.897649 7.22545 0
M  V30 8102 H 1043.8 -1.9841 7.04286 0
M  V30 8103 H 1044.99 0.739928 6.497 0
M  V30 8104 H 1046.47 0.60668 8.36503 0
M  V30 8105 H 1044.78 -0.352479 10.1829 0
M  V30 8106 H 1044.59 2.00611 10.0304 0
M  V30 8107 H 1042.96 1.41843 9.55327 0
M  V30 8108 H 1045.59 -1.95734 6.03555 0
M  V30 8109 P 1047.45 -1.25109 8.70152 0
M  V30 8110 O 1048.87 -1.35274 9.21221 0
M  V30 8111 O 1047.09 -0.0769065 7.84762 0
M  V30 8112 O 1047.13 -2.55232 7.81161 0
M  V30 8113 C 1046.97 -3.79939 8.58154 0
M  V30 8114 C 1047.51 -4.94023 7.72785 0
M  V30 8115 O 1046.45 -5.18726 6.91205 0
M  V30 8116 C 1048.73 -4.69597 6.85231 0
M  V30 8117 O 1049.47 -5.83832 6.51337 0
M  V30 8118 C 1048.06 -3.96706 5.66633 0
M  V30 8119 O 1048.86 -4.15414 4.49689 0
M  V30 8120 C 1046.72 -4.66153 5.59313 0
M  V30 8121 H 1046.75 -5.47679 4.85214 0
M  V30 8122 H 1047.94 -2.89008 5.86566 0
M  V30 8123 H 1049.42 -4.0121 7.36511 0
M  V30 8124 H 1047.73 -5.80182 8.37584 0
M  V30 8125 H 1047.54 -3.73517 9.52265 0
M  V30 8126 H 1045.91 -3.97163 8.80359 0
M  V30 8127 H 1048.55 -4.90969 4.01921 0
M  V30 8128 P 1050.4 -5.75688 6.64379 0
M  V30 8129 O 1051.82 -6.11981 7.01997 0
M  V30 8130 O 1050.04 -4.30744 6.56026 0
M  V30 8131 O 1050.08 -6.37042 5.19165 0
M  V30 8132 C 1049.92 -7.83578 5.16515 0
M  V30 8133 C 1050.46 -8.33307 3.82977 0
M  V30 8134 O 1049.4 -8.10074 3.01034 0
M  V30 8135 C 1051.68 -7.65514 3.2257 0
M  V30 8136 O 1052.42 -8.4329 2.32297 0
M  V30 8137 C 1051.01 -6.40075 2.62207 0
M  V30 8138 O 1051.81 -5.92492 1.53687 0
M  V30 8139 C 1049.67 -6.9454 2.18503 0
M  V30 8140 N 1048.63 -5.95905 2.39948 0
M  V30 8141 C 1048.69 -5.13994 3.44742 0
M  V30 8142 N 1047.65 -4.30684 3.46712 0
M  V30 8143 C 1046.91 -4.65583 2.41086 0
M  V30 8144 C 1045.61 -4.20877 1.99581 0
M  V30 8145 O 1044.87 -3.35913 2.52616 0
M  V30 8146 N 1045.18 -4.83271 0.873406 0
M  V30 8147 C 1045.92 -5.82006 0.185129 0
M  V30 8148 N 1045.33 -6.30619 -0.95439 0
M  V30 8149 N 1047.08 -6.28443 0.578524 0
M  V30 8150 C 1047.53 -5.68486 1.70138 0
M  V30 8151 H 1049.7 -7.23063 1.12091 0
M  V30 8152 H 1050.89 -5.60165 3.3715 0
M  V30 8153 H 1052.37 -7.3611 4.01946 0
M  V30 8154 H 1050.68 -9.40912 3.9095 0
M  V30 8155 H 1050.49 -8.29056 5.99158 0
M  V30 8156 H 1048.86 -8.10073 5.25882 0
M  V30 8157 H 1044.28 -4.58323 0.505262 0
M  V30 8158 H 1049.49 -5.14564 4.1935 0
M  V30 8159 H 1044.42 -5.93402 -1.25364 0
M  V30 8160 H 1045.79 -7.0425 -1.50254 0
M  V30 8161 H 1051.5 -6.30224 0.72668 0
M  V30 8162 P 1053.35 -8.4349 2.47671 0
M  V30 8163 O 1054.78 -8.94167 2.5964 0
M  V30 8164 O 1052.99 -7.1704 3.19006 0
M  V30 8165 O 1053.03 -8.16596 0.923387 0
M  V30 8166 C 1052.87 -9.38437 0.108857 0
M  V30 8167 C 1053.41 -9.08175 -1.28353 0
M  V30 8168 O 1052.35 -8.44229 -1.84713 0
M  V30 8169 C 1054.63 -8.18386 -1.42505 0
M  V30 8170 O 1055.37 -8.3501 -2.60497 0
M  V30 8171 C 1053.96 -6.80225 -1.25468 0
M  V30 8172 O 1054.76 -5.81621 -1.91066 0
M  V30 8173 C 1052.62 -7.02416 -1.9168 0
M  V30 8174 H 1052.65 -6.6888 -2.96621 0
M  V30 8175 H 1053.84 -6.53617 -0.192223 0
M  V30 8176 H 1055.32 -8.36622 -0.589963 0
M  V30 8177 H 1053.63 -10.0291 -1.79807 0
M  V30 8178 H 1053.44 -10.2138 0.558219 0
M  V30 8179 H 1051.81 -9.6579 0.0444202 0
M  V30 8180 H 1054.45 -5.69556 -2.79637 0
M  V30 8181 P 1056.3 -8.4349 -2.47671 0
M  V30 8182 O 1057.73 -8.92593 -2.65 0
M  V30 8183 O 1055.94 -7.7568 -1.19296 0
M  V30 8184 O 1055.98 -7.36886 -3.63805 0
M  V30 8185 C 1055.82 -7.95349 -4.982 0
M  V30 8186 C 1056.36 -6.94612 -5.98974 0
M  V30 8187 O 1055.31 -6.10347 -6.11815 0
M  V30 8188 C 1057.58 -6.11426 -5.62335 0
M  V30 8189 O 1058.32 -5.6162 -6.70584 0
M  V30 8190 C 1056.91 -5.04409 -4.73308 0
M  V30 8191 O 1057.71 -3.85992 -4.75183 0
M  V30 8192 C 1055.57 -4.8728 -5.41006 0
M  V30 8193 H 1055.61 -4.02333 -6.11157 0
M  V30 8194 H 1056.79 -5.39466 -3.69543 0
M  V30 8195 H 1058.27 -6.71916 -5.01943 0
M  V30 8196 H 1056.58 -7.4649 -6.93477 0
M  V30 8197 H 1056.39 -8.89416 -5.05237 0
M  V30 8198 H 1054.76 -8.14876 -5.18409 0
M  V30 8199 H 1057.4 -3.27957 -5.4317 0
M  V30 8200 P 1059.25 -5.75688 -6.64379 0
M  V30 8201 O 1060.68 -6.07627 -7.05504 0
M  V30 8202 O 1058.89 -5.88047 -5.19722 0
M  V30 8203 O 1058.93 -4.2322 -7.04443 0
M  V30 8204 C 1058.77 -3.99743 -8.4911 0
M  V30 8205 C 1059.31 -2.60516 -8.79425 0
M  V30 8206 O 1058.26 -1.82684 -8.4467 0
M  V30 8207 C 1060.53 -2.10343 -8.03628 0
M  V30 8208 O 1061.27 -1.09919 -8.67766 0
M  V30 8209 C 1059.86 -1.68446 -6.70876 0
M  V30 8210 O 1060.66 -0.678137 -6.08433 0
M  V30 8211 C 1058.52 -1.17436 -7.18567 0
M  V30 8212 H 1058.56 -0.0804732 -7.31656 0
M  V30 8213 H 1059.74 -2.54037 -6.02537 0
M  V30 8214 H 1061.22 -2.93881 -7.85526 0
M  V30 8215 H 1059.53 -2.53065 -9.86973 0
M  V30 8216 H 1059.34 -4.75072 -9.05887 0
M  V30 8217 H 1057.71 -4.05244 -8.76668 0
M  V30 8218 H 1060.35 0.177647 -6.34251 0
M  V30 8219 P 1062.21 -1.25109 -8.70152 0
M  V30 8220 O 1063.63 -1.29744 -9.22016 0
M  V30 8221 O 1061.85 -2.13714 -7.55141 0
M  V30 8222 O 1061.88 0.248149 -8.21425 0
M  V30 8223 C 1061.72 1.22779 -9.30434 0
M  V30 8224 C 1062.26 2.56293 -8.80664 0
M  V30 8225 O 1061.21 3.02979 -8.09349 0
M  V30 8226 C 1063.48 2.57523 -7.89775 0
M  V30 8227 O 1064.22 3.7668 -7.89438 0
M  V30 8228 C 1062.81 2.20997 -6.55446 0
M  V30 8229 O 1063.61 2.71895 -5.48509 0
M  V30 8230 C 1061.47 2.89693 -6.67988 0
M  V30 8231 H 1061.51 3.88793 -6.19859 0
M  V30 8232 H 1062.69 1.12046 -6.44229 0
M  V30 8233 H 1064.17 1.7746 -8.19711 0
M  V30 8234 H 1062.48 3.20706 -9.67112 0
M  V30 8235 H 1062.29 0.901032 -10.1892 0
M  V30 8236 H 1060.66 1.33049 -9.56592 0
M  V30 8237 H 1063.3 3.57847 -5.23962 0
M  V30 8238 P 1065.16 3.65191 -7.99657 0
M  V30 8239 O 1066.58 3.89332 -8.45794 0
M  V30 8240 O 1064.8 2.28472 -7.50807 0
M  V30 8241 O 1064.83 4.64972 -6.77611 0
M  V30 8242 C 1064.67 6.06319 -7.16352 0
M  V30 8243 C 1065.21 6.91731 -6.02299 0
M  V30 8244 O 1064.16 6.92449 -5.17064 0
M  V30 8245 C 1066.43 6.43627 -5.25174 0
M  V30 8246 O 1067.17 7.43686 -4.60469 0
M  V30 8247 C 1065.76 5.40275 -4.31916 0
M  V30 8248 O 1066.56 5.25279 -3.14438 0
M  V30 8249 C 1064.42 6.04847 -4.05327 0
M  V30 8250 H 1064.46 6.62195 -3.11261 0
M  V30 8251 H 1065.64 4.42556 -4.81383 0
M  V30 8252 H 1067.12 5.92458 -5.93643 0
M  V30 8253 H 1065.43 7.92655 -6.402 0
M  V30 8254 H 1065.24 6.26671 -8.0846 0
M  V30 8255 H 1063.61 6.29101 -7.32804 0
M  V30 8256 H 1066.25 5.84315 -2.47318 0
M  V30 8257 P 1068.11 7.39546 -4.75277 0
M  V30 8258 O 1069.53 7.84798 -5.01039 0
M  V30 8259 O 1067.75 5.9812 -5.08098 0
M  V30 8260 O 1067.78 7.57503 -3.1866 0
M  V30 8261 C 1067.62 8.97357 -2.74833 0
M  V30 8262 C 1068.16 9.07548 -1.32709 0
M  V30 8263 O 1067.11 8.62072 -0.606159 0
M  V30 8264 C 1069.38 8.25383 -0.938334 0
M  V30 8265 O 1070.12 8.74577 0.146954 0
M  V30 8266 C 1068.71 6.8802 -0.712559 0
M  V30 8267 O 1069.51 6.1189 0.194655 0
M  V30 8268 C 1067.38 7.27966 -0.139777 0
M  V30 8269 H 1067.41 7.25354 0.961601 0
M  V30 8270 H 1068.59 6.32557 -1.65702 0
M  V30 8271 H 1070.07 8.19355 -1.79097 0
M  V30 8272 H 1068.38 10.1294 -1.10029 0
M  V30 8273 H 1068.19 9.64276 -3.41316 0
M  V30 8274 H 1066.56 9.25417 -2.76357 0
M  V30 8275 H 1069.2 6.25267 1.07847 0
M  V30 8276 P 1071.06 8.791 8.48649e-12 0
M  V30 8277 O 1072.48 9.31096 0.027933 0
M  V30 8278 O 1070.7 7.77869 -1.04071 0
M  V30 8279 O 1070.73 8.09533 1.41463 0
M  V30 8280 C 1070.57 9.0349 2.53943 0
M  V30 8281 C 1071.11 8.35226 3.79016 0
M  V30 8282 O 1070.06 7.57992 4.15078 0
M  V30 8283 C 1072.33 7.45087 3.67298 0
M  V30 8284 O 1073.07 7.27796 4.85194 0
M  V30 8285 C 1071.66 6.17323 3.12027 0
M  V30 8286 O 1072.46 5.04231 3.47188 0
M  V30 8287 C 1070.33 6.19961 3.81809 0
M  V30 8288 H 1070.36 5.58218 4.73051 0
M  V30 8289 H 1071.54 6.21726 2.02589 0
M  V30 8290 H 1073.02 7.86112 2.9231 0
M  V30 8291 H 1071.33 9.11627 4.55076 0
M  V30 8292 H 1071.14 9.9573 2.34194 0
M  V30 8293 H 1069.51 9.2792 2.67832 0
M  V30 8294 H 1072.15 4.67702 4.28772 0
M  V30 8295 P 1074.01 7.39546 4.75277 0
M  V30 8296 O 1075.43 7.81945 5.05847 0
M  V30 8297 O 1073.65 7.1065 3.32998 0
M  V30 8298 O 1073.68 6.04542 5.56673 0
M  V30 8299 C 1073.52 6.22772 7.02095 0
M  V30 8300 C 1074.06 4.97671 7.70322 0
M  V30 8301 O 1073.01 4.13256 7.58987 0
M  V30 8302 C 1075.28 4.28231 7.11815 0
M  V30 8303 O 1076.02 3.49945 8.01648 0
M  V30 8304 C 1074.61 3.5063 5.96244 0
M  V30 8305 O 1075.41 2.36443 5.64589 0
M  V30 8306 C 1073.28 3.15122 6.56374 0
M  V30 8307 N 1072.23 3.22311 5.55692 0
M  V30 8308 C 1072.3 4.14382 4.59701 0
M  V30 8309 N 1071.25 4.04476 3.76958 0
M  V30 8310 C 1070.52 3.04892 4.26534 0
M  V30 8311 C 1069.21 2.57447 3.88189 0
M  V30 8312 O 1068.48 2.9785 2.96543 0
M  V30 8313 N 1068.78 1.55228 4.65922 0
M  V30 8314 C 1069.53 1.01152 5.73447 0
M  V30 8315 N 1068.93 -0.0472117 6.37783 0
M  V30 8316 N 1070.68 1.467 6.13813 0
M  V30 8317 C 1071.14 2.4931 5.38487 0
M  V30 8318 H 1073.31 2.13853 6.99751 0
M  V30 8319 H 1074.49 4.13438 5.06482 0
M  V30 8320 H 1075.98 5.02614 6.71414 0
M  V30 8321 H 1074.28 5.20877 8.75697 0
M  V30 8322 H 1074.09 7.11046 7.35349 0
M  V30 8323 H 1072.46 6.35815 7.26986 0
M  V30 8324 H 1067.88 1.15238 4.46468 0
M  V30 8325 H 1073.09 4.88312 4.49647 0
M  V30 8326 H 1068.02 -0.396382 6.05203 0
M  V30 8327 H 1069.4 -0.484997 7.18465 0
M  V30 8328 H 1075.1 1.61619 6.13468 0
M  V30 8329 P 1076.96 3.65191 7.99657 0
M  V30 8330 O 1078.38 3.84333 8.48297 0
M  V30 8331 O 1076.6 4.17805 6.64342 0
M  V30 8332 O 1076.64 2.07613 7.95143 0
M  V30 8333 C 1076.48 1.44328 9.27336 0
M  V30 8334 C 1077.02 0.0220012 9.17097 0
M  V30 8335 O 1075.96 -0.626867 8.61923 0
M  V30 8336 C 1078.23 -0.24586 8.30336 0
M  V30 8337 O 1078.97 -1.39011 8.63583 0
M  V30 8338 C 1077.57 -0.273849 6.91158 0
M  V30 8339 O 1078.36 -1.06331 6.02794 0
M  V30 8340 C 1076.23 -0.897649 7.22545 0
M  V30 8341 N 1075.18 -0.292839 6.41732 0
M  V30 8342 C 1075.25 1.00068 6.10757 0
M  V30 8343 N 1074.2 1.36468 5.35794 0
M  V30 8344 C 1073.47 0.258894 5.2366 0
M  V30 8345 C 1072.16 0.0670682 4.65752 0
M  V30 8346 O 1071.43 0.902443 4.10497 0
M  V30 8347 N 1071.73 -1.2131 4.75881 0
M  V30 8348 C 1072.48 -2.24934 5.37101 0
M  V30 8349 N 1071.88 -3.48783 5.33984 0
M  V30 8350 N 1073.63 -2.0844 5.95684 0
M  V30 8351 C 1074.09 -0.81395 5.87791 0
M  V30 8352 H 1076.26 -1.9841 7.04286 0
M  V30 8353 H 1077.44 0.739815 6.49601 0
M  V30 8354 H 1078.93 0.598315 8.36563 0
M  V30 8355 H 1077.23 -0.352479 10.1829 0
M  V30 8356 H 1077.04 2.00611 10.0304 0
M  V30 8357 H 1075.41 1.41843 9.55327 0
M  V30 8358 H 1070.84 -1.44434 4.37895 0
M  V30 8359 H 1076.04 1.67697 6.42268 0
M  V30 8360 H 1070.97 -3.60543 4.87699 0
M  V30 8361 H 1072.35 -4.29232 5.7819 0
M  V30 8362 H 1078.05 -1.95704 6.0346 0
M  V30 8363 P 1079.91 -1.25109 8.70152 0
M  V30 8364 O 1081.33 -1.35303 9.21419 0
M  V30 8365 O 1079.55 -0.0769065 7.84762 0
M  V30 8366 O 1079.59 -2.55232 7.81161 0
M  V30 8367 C 1079.43 -3.79939 8.58154 0
M  V30 8368 C 1079.97 -4.93969 7.72701 0
M  V30 8369 O 1078.91 -5.18726 6.91205 0
M  V30 8370 C 1081.18 -4.69597 6.85231 0
M  V30 8371 O 1081.92 -5.83832 6.51337 0
M  V30 8372 C 1080.52 -3.96706 5.66633 0
M  V30 8373 O 1081.31 -4.15346 4.49615 0
M  V30 8374 C 1079.18 -4.66153 5.59313 0
M  V30 8375 N 1078.13 -3.71582 5.24027 0
M  V30 8376 C 1078.2 -2.46018 5.67902 0
M  V30 8377 N 1077.15 -1.74868 5.24518 0
M  V30 8378 C 1076.42 -2.61333 4.54528 0
M  V30 8379 C 1075.11 -2.46162 3.95441 0
M  V30 8380 O 1074.38 -1.46013 3.94122 0
M  V30 8381 N 1074.68 -3.59334 3.34752 0
M  V30 8382 C 1075.43 -4.79605 3.3023 0
M  V30 8383 N 1074.83 -5.82109 2.6065 0
M  V30 8384 N 1076.58 -4.97402 3.8843 0
M  V30 8385 C 1077.04 -3.86258 4.50476 0
M  V30 8386 H 1079.21 -5.47679 4.85214 0
M  V30 8387 H 1080.39 -2.88964 5.86476 0
M  V30 8388 H 1081.88 -4.01947 7.36109 0
M  V30 8389 H 1080.18 -5.80182 8.37584 0
M  V30 8390 H 1079.99 -3.73517 9.52265 0
M  V30 8391 H 1078.36 -3.97163 8.80359 0
M  V30 8392 H 1073.79 -3.5825 2.90294 0
M  V30 8393 H 1078.99 -2.06161 6.30974 0
M  V30 8394 H 1073.92 -5.66979 2.15354 0
M  V30 8395 H 1075.3 -6.73686 2.54344 0
M  V30 8396 H 1081 -4.90891 4.01857 0
M  V30 8397 P 1082.86 -5.75688 6.64379 0
M  V30 8398 O 1084.28 -6.11849 7.01846 0
M  V30 8399 O 1082.5 -4.30744 6.56026 0
M  V30 8400 O 1082.54 -6.37042 5.19165 0
M  V30 8401 C 1082.38 -7.83578 5.16515 0
M  V30 8402 C 1082.92 -8.33398 3.83019 0
M  V30 8403 O 1081.86 -8.10074 3.01034 0
M  V30 8404 C 1084.13 -7.65514 3.2257 0
M  V30 8405 O 1084.87 -8.4329 2.32297 0
M  V30 8406 C 1083.47 -6.40075 2.62207 0
M  V30 8407 O 1084.26 -5.92589 1.53712 0
M  V30 8408 C 1082.13 -6.9454 2.18503 0
M  V30 8409 H 1082.16 -7.23063 1.12091 0
M  V30 8410 H 1083.34 -5.6025 3.37201 0
M  V30 8411 H 1084.83 -7.35707 4.02681 0
M  V30 8412 H 1083.13 -9.40912 3.9095 0
M  V30 8413 H 1082.94 -8.29056 5.99158 0
M  V30 8414 H 1081.31 -8.10073 5.25882 0
M  V30 8415 H 1083.95 -6.30324 0.726794 0
M  V30 8416 P 1085.81 -8.4349 2.47671 0
M  V30 8417 O 1087.23 -8.94167 2.5964 0
M  V30 8418 O 1085.45 -7.1704 3.19006 0
M  V30 8419 O 1085.49 -8.16596 0.923387 0
M  V30 8420 C 1085.33 -9.38437 0.108857 0
M  V30 8421 C 1085.87 -9.08175 -1.28353 0
M  V30 8422 O 1084.81 -8.44229 -1.84713 0
M  V30 8423 C 1087.08 -8.18386 -1.42505 0
M  V30 8424 O 1087.82 -8.3501 -2.60497 0
M  V30 8425 C 1086.42 -6.80225 -1.25468 0
M  V30 8426 O 1087.21 -5.81621 -1.91066 0
M  V30 8427 C 1085.08 -7.02416 -1.9168 0
M  V30 8428 H 1085.11 -6.6888 -2.96621 0
M  V30 8429 H 1086.29 -6.53617 -0.192223 0
M  V30 8430 H 1087.78 -8.36622 -0.589963 0
M  V30 8431 H 1086.08 -10.0291 -1.79807 0
M  V30 8432 H 1085.89 -10.2138 0.558219 0
M  V30 8433 H 1084.26 -9.6579 0.0444202 0
M  V30 8434 H 1086.9 -5.69556 -2.79637 0
M  V30 8435 P 1088.76 -8.4349 -2.47671 0
M  V30 8436 O 1090.18 -8.92593 -2.65 0
M  V30 8437 O 1088.4 -7.7568 -1.19296 0
M  V30 8438 O 1088.44 -7.36886 -3.63805 0
M  V30 8439 C 1088.28 -7.95349 -4.982 0
M  V30 8440 C 1088.82 -6.94612 -5.98974 0
M  V30 8441 O 1087.76 -6.10347 -6.11815 0
M  V30 8442 C 1090.04 -6.11426 -5.62335 0
M  V30 8443 O 1090.77 -5.6162 -6.70584 0
M  V30 8444 C 1089.37 -5.04409 -4.73308 0
M  V30 8445 O 1090.17 -3.85992 -4.75183 0
M  V30 8446 C 1088.03 -4.8728 -5.41006 0
M  V30 8447 H 1088.06 -4.02333 -6.11157 0
M  V30 8448 H 1089.24 -5.39466 -3.69543 0
M  V30 8449 H 1090.73 -6.71916 -5.01943 0
M  V30 8450 H 1089.03 -7.4649 -6.93477 0
M  V30 8451 H 1088.84 -8.89416 -5.05237 0
M  V30 8452 H 1087.21 -8.14876 -5.18409 0
M  V30 8453 H 1089.85 -3.27957 -5.4317 0
M  V30 8454 P 1091.71 -5.75688 -6.64379 0
M  V30 8455 O 1093.13 -6.07627 -7.05504 0
M  V30 8456 O 1091.35 -5.88047 -5.19722 0
M  V30 8457 O 1091.39 -4.2322 -7.04443 0
M  V30 8458 C 1091.23 -3.99743 -8.4911 0
M  V30 8459 C 1091.77 -2.60516 -8.79425 0
M  V30 8460 O 1090.71 -1.82684 -8.4467 0
M  V30 8461 C 1092.99 -2.10343 -8.03628 0
M  V30 8462 O 1093.72 -1.09919 -8.67766 0
M  V30 8463 C 1092.32 -1.68446 -6.70876 0
M  V30 8464 O 1093.12 -0.678137 -6.08433 0
M  V30 8465 C 1090.98 -1.17436 -7.18567 0
M  V30 8466 H 1091.01 -0.0804732 -7.31656 0
M  V30 8467 H 1092.19 -2.54037 -6.02537 0
M  V30 8468 H 1093.68 -2.93881 -7.85526 0
M  V30 8469 H 1091.98 -2.53065 -9.86973 0
M  V30 8470 H 1091.79 -4.75072 -9.05887 0
M  V30 8471 H 1090.16 -4.05244 -8.76668 0
M  V30 8472 H 1092.8 0.177647 -6.34251 0
M  V30 8473 P 1094.66 -1.25109 -8.70152 0
M  V30 8474 O 1096.08 -1.29744 -9.22016 0
M  V30 8475 O 1094.3 -2.13714 -7.55141 0
M  V30 8476 O 1094.34 0.248149 -8.21425 0
M  V30 8477 C 1094.18 1.22779 -9.30434 0
M  V30 8478 C 1094.72 2.56293 -8.80664 0
M  V30 8479 O 1093.66 3.02979 -8.09349 0
M  V30 8480 C 1095.94 2.57523 -7.89775 0
M  V30 8481 O 1096.67 3.7668 -7.89438 0
M  V30 8482 C 1095.27 2.20997 -6.55446 0
M  V30 8483 O 1096.07 2.71895 -5.48509 0
M  V30 8484 C 1093.93 2.89693 -6.67988 0
M  V30 8485 H 1093.96 3.88793 -6.19859 0
M  V30 8486 H 1095.15 1.12046 -6.44229 0
M  V30 8487 H 1096.63 1.7746 -8.19711 0
M  V30 8488 H 1094.94 3.20706 -9.67112 0
M  V30 8489 H 1094.75 0.901032 -10.1892 0
M  V30 8490 H 1093.12 1.33049 -9.56592 0
M  V30 8491 H 1095.75 3.57847 -5.23962 0
M  V30 8492 P 1097.61 3.65191 -7.99657 0
M  V30 8493 O 1099.03 3.89332 -8.45794 0
M  V30 8494 O 1097.25 2.28472 -7.50807 0
M  V30 8495 O 1097.29 4.64972 -6.77611 0
M  V30 8496 C 1097.13 6.06319 -7.16352 0
M  V30 8497 C 1097.67 6.91731 -6.02299 0
M  V30 8498 O 1096.61 6.92449 -5.17064 0
M  V30 8499 C 1098.89 6.43627 -5.25174 0
M  V30 8500 O 1099.63 7.43686 -4.60469 0
M  V30 8501 C 1098.22 5.40275 -4.31916 0
M  V30 8502 O 1099.02 5.25279 -3.14438 0
M  V30 8503 C 1096.88 6.04847 -4.05327 0
M  V30 8504 H 1096.91 6.62195 -3.11261 0
M  V30 8505 H 1098.1 4.42556 -4.81383 0
M  V30 8506 H 1099.58 5.92458 -5.93643 0
M  V30 8507 H 1097.89 7.92655 -6.402 0
M  V30 8508 H 1097.7 6.26671 -8.0846 0
M  V30 8509 H 1096.07 6.29101 -7.32804 0
M  V30 8510 H 1098.71 5.84315 -2.47318 0
M  V30 8511 P 1100.56 7.39546 -4.75277 0
M  V30 8512 O 1101.98 7.84882 -5.01092 0
M  V30 8513 O 1100.2 5.9812 -5.08098 0
M  V30 8514 O 1100.24 7.57503 -3.1866 0
M  V30 8515 C 1100.08 8.97452 -2.74862 0
M  V30 8516 C 1100.62 9.07548 -1.32709 0
M  V30 8517 O 1099.56 8.61972 -0.606089 0
M  V30 8518 C 1101.84 8.25383 -0.938334 0
M  V30 8519 O 1102.58 8.74577 0.146954 0
M  V30 8520 C 1101.17 6.8802 -0.712559 0
M  V30 8521 O 1101.97 6.1181 0.188505 0
M  V30 8522 C 1099.83 7.27966 -0.139777 0
M  V30 8523 N 1098.79 6.39368 -0.623421 0
M  V30 8524 C 1098.96 5.71761 -1.78245 0
M  V30 8525 N 1097.93 4.962 -2.10491 0
M  V30 8526 C 1097.05 5.16158 -1.0635 0
M  V30 8527 C 1095.78 4.60425 -0.810266 0
M  V30 8528 N 1095.18 3.7057 -1.62914 0
M  V30 8529 N 1095.21 5.06 0.348685 0
M  V30 8530 C 1095.82 5.94532 1.20395 0
M  V30 8531 N 1096.99 6.48452 1.01191 0
M  V30 8532 C 1097.57 6.04423 -0.146291 0
M  V30 8533 H 1099.86 7.25255 0.961469 0
M  V30 8534 H 1101.05 6.32625 -1.65044 0
M  V30 8535 H 1102.53 8.19355 -1.79097 0
M  V30 8536 H 1100.84 10.1305 -1.09016 0
M  V30 8537 H 1100.65 9.64276 -3.41316 0
M  V30 8538 H 1099.02 9.25417 -2.76357 0
M  V30 8539 H 1095.28 6.21659 2.10714 0
M  V30 8540 H 1099.86 5.79354 -2.38959 0
M  V30 8541 H 1094.25 3.33174 -1.38982 0
M  V30 8542 H 1095.65 3.39714 -2.48836 0
M  V30 8543 H 1101.66 6.25169 1.0783 0
M  V30 8544 P 1103.51 8.791 8.79665e-12 0
M  V30 8545 O 1104.93 9.31196 0.027936 0
M  V30 8546 O 1103.15 7.77869 -1.04071 0
M  V30 8547 O 1103.19 8.09533 1.41463 0
M  V30 8548 C 1103.03 9.03587 2.5397 0
M  V30 8549 C 1103.57 8.35226 3.79016 0
M  V30 8550 O 1102.52 7.57904 4.1503 0
M  V30 8551 C 1104.79 7.45087 3.67298 0
M  V30 8552 O 1105.53 7.27796 4.85194 0
M  V30 8553 C 1104.12 6.17323 3.12027 0
M  V30 8554 O 1104.92 5.04496 3.46627 0
M  V30 8555 C 1102.78 6.19961 3.81809 0
M  V30 8556 N 1101.74 5.71575 2.93223 0
M  V30 8557 C 1101.91 5.77362 1.59168 0
M  V30 8558 N 1100.88 5.3123 0.911893 0
M  V30 8559 C 1100 4.91717 1.89588 0
M  V30 8560 C 1098.73 4.3114 1.8076 0
M  V30 8561 N 1098.16 4.06823 3.02898 0
M  V30 8562 C 1098.77 4.35062 4.22711 0
M  V30 8563 N 1099.94 4.90805 4.35707 0
M  V30 8564 C 1100.52 5.16382 3.14469 0
M  V30 8565 H 1104 6.21428 2.0318 0
M  V30 8566 H 1105.48 7.86112 2.9231 0
M  V30 8567 H 1103.79 9.11171 4.55987 0
M  V30 8568 H 1103.6 9.9573 2.34194 0
M  V30 8569 H 1101.97 9.2792 2.67832 0
M  V30 8570 H 1102.81 6.16575 1.12198 0
M  V30 8571 H 1104.61 4.67628 4.28704 0
M  V30 8572 P 1106.46 7.39546 4.75277 0
M  V30 8573 O 1107.88 7.81861 5.05793 0
M  V30 8574 O 1106.1 7.1065 3.32998 0
M  V30 8575 O 1106.14 6.04542 5.56673 0
M  V30 8576 C 1105.98 6.22839 7.02169 0
M  V30 8577 C 1106.52 4.97725 7.70406 0
M  V30 8578 O 1105.47 4.13208 7.58899 0
M  V30 8579 C 1107.74 4.28231 7.11815 0
M  V30 8580 O 1108.48 3.49945 8.01648 0
M  V30 8581 C 1107.07 3.5063 5.96244 0
M  V30 8582 O 1107.87 2.37008 5.64352 0
M  V30 8583 C 1105.73 3.15122 6.56374 0
M  V30 8584 N 1104.69 3.22311 5.55692 0
M  V30 8585 C 1104.86 3.99655 4.46046 0
M  V30 8586 N 1103.83 3.97599 3.63918 0
M  V30 8587 C 1102.95 3.11159 4.25334 0
M  V30 8588 C 1101.68 2.64972 3.85157 0
M  V30 8589 N 1101.08 3.02132 2.69405 0
M  V30 8590 N 1101.11 1.78482 4.74759 0
M  V30 8591 C 1101.72 1.37463 5.90819 0
M  V30 8592 N 1102.89 1.7733 6.31889 0
M  V30 8593 C 1103.47 2.64393 5.43725 0
M  V30 8594 H 1105.76 2.13823 6.99656 0
M  V30 8595 H 1106.95 4.12931 5.06895 0
M  V30 8596 H 1108.43 5.03285 6.70911 0
M  V30 8597 H 1106.74 5.20001 8.76217 0
M  V30 8598 H 1106.55 7.11046 7.35349 0
M  V30 8599 H 1104.92 6.35815 7.26986 0
M  V30 8600 H 1101.18 0.66574 6.53015 0
M  V30 8601 H 1105.76 4.58037 4.27732 0
M  V30 8602 H 1100.15 2.64828 2.45331 0
M  V30 8603 H 1101.55 3.67472 2.05644 0
M  V30 8604 H 1107.56 1.61619 6.13468 0
M  V30 8605 P 1109.41 3.65191 7.99657 0
M  V30 8606 O 1110.84 3.8425 8.48115 0
M  V30 8607 O 1109.05 4.17805 6.64342 0
M  V30 8608 O 1109.09 2.07613 7.95143 0
M  V30 8609 C 1108.93 1.44328 9.27336 0
M  V30 8610 C 1109.47 0.0220036 9.17197 0
M  V30 8611 O 1108.42 -0.626867 8.61923 0
M  V30 8612 C 1110.69 -0.24586 8.30336 0
M  V30 8613 O 1111.43 -1.39011 8.63583 0
M  V30 8614 C 1110.02 -0.273849 6.91158 0
M  V30 8615 O 1110.82 -1.06348 6.02892 0
M  V30 8616 C 1108.68 -0.897649 7.22545 0
M  V30 8617 H 1108.72 -1.9841 7.04286 0
M  V30 8618 H 1109.9 0.739928 6.497 0
M  V30 8619 H 1111.38 0.60668 8.36503 0
M  V30 8620 H 1109.69 -0.352479 10.1829 0
M  V30 8621 H 1109.5 2.00611 10.0304 0
M  V30 8622 H 1107.87 1.41843 9.55327 0
M  V30 8623 H 1110.51 -1.95734 6.03555 0
M  V30 8624 P 1112.36 -1.25109 8.70152 0
M  V30 8625 O 1113.79 -1.35274 9.21221 0
M  V30 8626 O 1112 -0.0769065 7.84762 0
M  V30 8627 O 1112.04 -2.55232 7.81161 0
M  V30 8628 C 1111.88 -3.79939 8.58154 0
M  V30 8629 C 1112.42 -4.94023 7.72785 0
M  V30 8630 O 1111.37 -5.18726 6.91205 0
M  V30 8631 C 1113.64 -4.69597 6.85231 0
M  V30 8632 O 1114.38 -5.83832 6.51337 0
M  V30 8633 C 1112.97 -3.96706 5.66633 0
M  V30 8634 O 1113.77 -4.15414 4.49689 0
M  V30 8635 C 1111.63 -4.66153 5.59313 0
M  V30 8636 H 1111.67 -5.47679 4.85214 0
M  V30 8637 H 1112.85 -2.89008 5.86566 0
M  V30 8638 H 1114.33 -4.0121 7.36511 0
M  V30 8639 H 1112.64 -5.80182 8.37584 0
M  V30 8640 H 1112.45 -3.73517 9.52265 0
M  V30 8641 H 1110.82 -3.97163 8.80359 0
M  V30 8642 H 1113.46 -4.90969 4.01921 0
M  V30 8643 P 1115.32 -5.75688 6.64379 0
M  V30 8644 O 1116.74 -6.11849 7.01846 0
M  V30 8645 O 1114.96 -4.30744 6.56026 0
M  V30 8646 O 1114.99 -6.37042 5.19165 0
M  V30 8647 C 1114.83 -7.83578 5.16515 0
M  V30 8648 C 1115.37 -8.33398 3.83019 0
M  V30 8649 O 1114.32 -8.10074 3.01034 0
M  V30 8650 C 1116.59 -7.65514 3.2257 0
M  V30 8651 O 1117.33 -8.4329 2.32297 0
M  V30 8652 C 1115.92 -6.40075 2.62207 0
M  V30 8653 O 1116.72 -5.92589 1.53712 0
M  V30 8654 C 1114.58 -6.9454 2.18503 0
M  V30 8655 H 1114.62 -7.23063 1.12091 0
M  V30 8656 H 1115.8 -5.6025 3.37201 0
M  V30 8657 H 1117.28 -7.35707 4.02681 0
M  V30 8658 H 1115.59 -9.40912 3.9095 0
M  V30 8659 H 1115.4 -8.29056 5.99158 0
M  V30 8660 H 1113.77 -8.10073 5.25882 0
M  V30 8661 H 1116.41 -6.30324 0.726794 0
M  V30 8662 P 1118.27 -8.4349 2.47671 0
M  V30 8663 O 1119.69 -8.94359 2.59696 0
M  V30 8664 O 1117.91 -7.1704 3.19006 0
M  V30 8665 O 1117.94 -8.16596 0.923387 0
M  V30 8666 C 1117.78 -9.38437 0.108857 0
M  V30 8667 C 1118.32 -9.08076 -1.28339 0
M  V30 8668 O 1117.27 -8.44229 -1.84713 0
M  V30 8669 C 1119.54 -8.18386 -1.42505 0
M  V30 8670 O 1120.28 -8.3501 -2.60497 0
M  V30 8671 C 1118.87 -6.80225 -1.25468 0
M  V30 8672 O 1119.67 -5.81526 -1.91035 0
M  V30 8673 C 1117.54 -7.02416 -1.9168 0
M  V30 8674 N 1116.49 -6.31033 -1.20314 0
M  V30 8675 C 1116.55 -6.18781 0.121293 0
M  V30 8676 N 1115.51 -5.49762 0.588272 0
M  V30 8677 C 1114.78 -5.22015 -0.488988 0
M  V30 8678 C 1113.47 -4.61966 -0.596448 0
M  V30 8679 O 1112.74 -4.19162 0.309059 0
M  V30 8680 N 1113.04 -4.53773 -1.878 0
M  V30 8681 C 1113.79 -4.99623 -2.99082 0
M  V30 8682 N 1113.19 -4.78912 -4.21227 0
M  V30 8683 N 1114.94 -5.59957 -2.91093 0
M  V30 8684 C 1115.4 -5.70225 -1.64218 0
M  V30 8685 H 1117.57 -6.6888 -2.96621 0
M  V30 8686 H 1118.75 -6.53517 -0.192194 0
M  V30 8687 H 1120.24 -8.36563 -0.598329 0
M  V30 8688 H 1118.54 -10.0291 -1.79807 0
M  V30 8689 H 1118.35 -10.2138 0.558219 0
M  V30 8690 H 1116.72 -9.6579 0.0444202 0
M  V30 8691 H 1112.14 -4.12883 -2.05283 0
M  V30 8692 H 1117.35 -6.59596 0.745856 0
M  V30 8693 H 1112.28 -4.31425 -4.2628 0
M  V30 8694 H 1113.66 -5.11219 -5.07148 0
M  V30 8695 H 1119.36 -5.69466 -2.79593 0
M  V30 8696 P 1121.22 -8.4349 -2.47671 0
M  V30 8697 O 1122.64 -8.92689 -2.65029 0
M  V30 8698 O 1120.86 -7.7568 -1.19296 0
M  V30 8699 O 1120.89 -7.36886 -3.63805 0
M  V30 8700 C 1120.73 -7.95433 -4.98253 0
M  V30 8701 C 1121.27 -6.94612 -5.98974 0
M  V30 8702 O 1120.22 -6.10277 -6.11744 0
M  V30 8703 C 1122.49 -6.11426 -5.62335 0
M  V30 8704 O 1123.23 -5.6162 -6.70584 0
M  V30 8705 C 1121.82 -5.04409 -4.73308 0
M  V30 8706 O 1122.62 -3.86404 -4.74719 0
M  V30 8707 C 1120.49 -4.8728 -5.41006 0
M  V30 8708 N 1119.44 -4.65812 -4.42377 0
M  V30 8709 C 1119.61 -5.09132 -3.15382 0
M  V30 8710 N 1118.58 -4.84021 -2.3716 0
M  V30 8711 C 1117.7 -4.18386 -3.20441 0
M  V30 8712 C 1116.43 -3.6275 -2.94905 0
M  V30 8713 N 1115.83 -3.65794 -1.73372 0
M  V30 8714 N 1115.87 -3.05008 -4.05243 0
M  V30 8715 C 1116.47 -2.98348 -5.28159 0
M  V30 8716 N 1117.65 -3.48171 -5.56333 0
M  V30 8717 C 1118.22 -4.06869 -4.47212 0
M  V30 8718 H 1120.52 -4.02278 -6.11074 0
M  V30 8719 H 1121.7 -5.39013 -3.70026 0
M  V30 8720 H 1123.18 -6.71916 -5.01943 0
M  V30 8721 H 1121.49 -7.45796 -6.94223 0
M  V30 8722 H 1121.3 -8.89416 -5.05237 0
M  V30 8723 H 1119.67 -8.14876 -5.18409 0
M  V30 8724 H 1115.93 -2.47853 -6.07807 0
M  V30 8725 H 1120.51 -5.59989 -2.81362 0
M  V30 8726 H 1114.9 -3.23218 -1.60782 0
M  V30 8727 H 1116.31 -4.10523 -0.937856 0
M  V30 8728 H 1122.31 -3.27906 -5.43085 0
M  V30 8729 P 1124.17 -5.75688 -6.64379 0
M  V30 8730 O 1125.59 -6.07692 -7.0558 0
M  V30 8731 O 1123.81 -5.88047 -5.19722 0
M  V30 8732 O 1123.84 -4.2322 -7.04443 0
M  V30 8733 C 1123.68 -3.99785 -8.49201 0
M  V30 8734 C 1124.22 -2.60516 -8.79425 0
M  V30 8735 O 1123.17 -1.82663 -8.44573 0
M  V30 8736 C 1125.44 -2.10343 -8.03628 0
M  V30 8737 O 1126.18 -1.09919 -8.67766 0
M  V30 8738 C 1124.77 -1.68446 -6.70876 0
M  V30 8739 O 1125.57 -0.684109 -6.08265 0
M  V30 8740 C 1123.44 -1.17436 -7.18567 0
M  V30 8741 N 1122.39 -1.52699 -6.23988 0
M  V30 8742 C 1122.56 -2.578 -5.40574 0
M  V30 8743 N 1121.54 -2.78966 -4.61193 0
M  V30 8744 C 1120.65 -1.78725 -4.95769 0
M  V30 8745 C 1119.38 -1.45727 -4.44207 0
M  V30 8746 N 1118.82 -0.374977 -5.05812 0
M  V30 8747 C 1119.42 0.345585 -6.05615 0
M  V30 8748 N 1120.6 0.0787651 -6.56253 0
M  V30 8749 C 1121.17 -1.00499 -5.96189 0
M  V30 8750 H 1124.65 -2.53396 -6.02698 0
M  V30 8751 H 1126.13 -2.93881 -7.85526 0
M  V30 8752 H 1124.44 -2.52078 -9.87225 0
M  V30 8753 H 1124.25 -4.75072 -9.05887 0
M  V30 8754 H 1122.62 -4.05244 -8.76668 0
M  V30 8755 H 1123.46 -3.18977 -5.3945 0
M  V30 8756 H 1125.26 0.177619 -6.34151 0
M  V30 8757 P 1127.12 -1.25109 -8.70152 0
M  V30 8758 O 1128.54 -1.29744 -9.22016 0
M  V30 8759 O 1126.76 -2.13714 -7.55141 0
M  V30 8760 O 1126.79 0.248149 -8.21425 0
M  V30 8761 C 1126.63 1.22779 -9.30434 0
M  V30 8762 C 1127.17 2.56293 -8.80664 0
M  V30 8763 O 1126.12 3.02979 -8.09349 0
M  V30 8764 C 1128.39 2.57523 -7.89775 0
M  V30 8765 O 1129.13 3.7668 -7.89438 0
M  V30 8766 C 1127.72 2.20997 -6.55446 0
M  V30 8767 O 1128.52 2.71895 -5.48509 0
M  V30 8768 C 1126.39 2.89693 -6.67988 0
M  V30 8769 H 1126.42 3.88793 -6.19859 0
M  V30 8770 H 1127.6 1.12046 -6.44229 0
M  V30 8771 H 1129.09 1.7746 -8.19711 0
M  V30 8772 H 1127.39 3.20706 -9.67112 0
M  V30 8773 H 1127.2 0.901032 -10.1892 0
M  V30 8774 H 1125.57 1.33049 -9.56592 0
M  V30 8775 H 1128.21 3.57847 -5.23962 0
M  V30 8776 P 1130.07 3.65191 -7.99657 0
M  V30 8777 O 1131.49 3.89374 -8.45885 0
M  V30 8778 O 1129.71 2.28472 -7.50807 0
M  V30 8779 O 1129.75 4.64972 -6.77611 0
M  V30 8780 C 1129.58 6.06383 -7.16428 0
M  V30 8781 C 1130.13 6.91731 -6.02299 0
M  V30 8782 O 1129.07 6.92369 -5.17005 0
M  V30 8783 C 1131.34 6.43627 -5.25174 0
M  V30 8784 O 1132.08 7.43686 -4.60469 0
M  V30 8785 C 1130.68 5.40275 -4.31916 0
M  V30 8786 O 1131.47 5.24878 -3.14911 0
M  V30 8787 C 1129.34 6.04847 -4.05327 0
M  V30 8788 N 1128.29 5.04166 -3.98114 0
M  V30 8789 C 1128.46 3.84629 -4.59066 0
M  V30 8790 N 1127.44 3.0363 -4.45343 0
M  V30 8791 C 1126.55 3.76722 -3.68523 0
M  V30 8792 C 1125.28 3.43528 -3.17088 0
M  V30 8793 N 1124.69 2.23665 -3.37397 0
M  V30 8794 N 1124.72 4.44526 -2.44231 0
M  V30 8795 C 1125.32 5.65243 -2.20146 0
M  V30 8796 N 1126.5 6.00221 -2.65453 0
M  V30 8797 C 1127.07 5.00564 -3.39083 0
M  V30 8798 H 1129.37 6.62104 -3.11218 0
M  V30 8799 H 1130.55 4.42969 -4.80867 0
M  V30 8800 H 1132.04 5.92458 -5.93643 0
M  V30 8801 H 1130.34 7.93295 -6.39407 0
M  V30 8802 H 1130.15 6.26671 -8.0846 0
M  V30 8803 H 1128.52 6.29101 -7.32804 0
M  V30 8804 H 1124.79 6.36894 -1.5883 0
M  V30 8805 H 1129.36 3.58193 -5.14248 0
M  V30 8806 H 1123.76 2.05145 -2.97047 0
M  V30 8807 H 1125.16 1.51255 -3.92998 0
M  V30 8808 H 1131.16 5.84223 -2.47279 0
M  V30 8809 P 1133.02 7.39546 -4.75277 0
M  V30 8810 O 1134.44 7.84798 -5.01039 0
M  V30 8811 O 1132.66 5.9812 -5.08098 0
M  V30 8812 O 1132.7 7.57503 -3.1866 0
M  V30 8813 C 1132.54 8.97357 -2.74833 0
M  V30 8814 C 1133.08 9.07548 -1.32709 0
M  V30 8815 O 1132.02 8.62072 -0.606159 0
M  V30 8816 C 1134.29 8.25383 -0.938334 0
M  V30 8817 O 1135.03 8.74577 0.146954 0
M  V30 8818 C 1133.62 6.8802 -0.712559 0
M  V30 8819 O 1134.42 6.1189 0.194655 0
M  V30 8820 C 1132.29 7.27966 -0.139777 0
M  V30 8821 H 1132.32 7.25354 0.961601 0
M  V30 8822 H 1133.5 6.32557 -1.65702 0
M  V30 8823 H 1134.99 8.19355 -1.79097 0
M  V30 8824 H 1133.29 10.1294 -1.10029 0
M  V30 8825 H 1133.1 9.64276 -3.41316 0
M  V30 8826 H 1131.47 9.25417 -2.76357 0
M  V30 8827 H 1134.11 6.25267 1.07847 0
M  V30 8828 P 1135.97 8.791 9.10682e-12 0
M  V30 8829 O 1137.39 9.31096 0.027933 0
M  V30 8830 O 1135.61 7.77869 -1.04071 0
M  V30 8831 O 1135.65 8.09533 1.41463 0
M  V30 8832 C 1135.49 9.0349 2.53943 0
M  V30 8833 C 1136.03 8.35226 3.79016 0
M  V30 8834 O 1134.97 7.57992 4.15078 0
M  V30 8835 C 1137.24 7.45087 3.67298 0
M  V30 8836 O 1137.98 7.27796 4.85194 0
M  V30 8837 C 1136.58 6.17323 3.12027 0
M  V30 8838 O 1137.37 5.04231 3.47188 0
M  V30 8839 C 1135.24 6.19961 3.81809 0
M  V30 8840 H 1135.27 5.58218 4.73051 0
M  V30 8841 H 1136.45 6.21726 2.02589 0
M  V30 8842 H 1137.94 7.86112 2.9231 0
M  V30 8843 H 1136.24 9.11627 4.55076 0
M  V30 8844 H 1136.05 9.9573 2.34194 0
M  V30 8845 H 1134.42 9.2792 2.67832 0
M  V30 8846 H 1137.06 4.67702 4.28772 0
M  V30 8847 P 1138.92 7.39546 4.75277 0
M  V30 8848 O 1140.34 7.81777 5.05738 0
M  V30 8849 O 1138.56 7.1065 3.32998 0
M  V30 8850 O 1138.6 6.04542 5.56673 0
M  V30 8851 C 1138.44 6.22772 7.02095 0
M  V30 8852 C 1138.98 4.97725 7.70406 0
M  V30 8853 O 1137.92 4.13256 7.58987 0
M  V30 8854 C 1140.2 4.28231 7.11815 0
M  V30 8855 O 1140.93 3.49945 8.01648 0
M  V30 8856 C 1139.53 3.5063 5.96244 0
M  V30 8857 O 1140.33 2.36482 5.64681 0
M  V30 8858 C 1138.19 3.15122 6.56374 0
M  V30 8859 H 1138.22 2.13853 6.99751 0
M  V30 8860 H 1139.4 4.13501 5.06559 0
M  V30 8861 H 1140.89 5.03285 6.70911 0
M  V30 8862 H 1139.19 5.20877 8.75697 0
M  V30 8863 H 1139 7.11046 7.35349 0
M  V30 8864 H 1137.37 6.35815 7.26986 0
M  V30 8865 H 1140.01 1.61644 6.13565 0
M  V30 8866 P 1141.87 3.65191 7.99657 0
M  V30 8867 O 1143.29 3.84333 8.48297 0
M  V30 8868 O 1141.51 4.17805 6.64342 0
M  V30 8869 O 1141.55 2.07613 7.95143 0
M  V30 8870 C 1141.39 1.44328 9.27336 0
M  V30 8871 C 1141.93 0.0220012 9.17097 0
M  V30 8872 O 1140.87 -0.626867 8.61923 0
M  V30 8873 C 1143.15 -0.24586 8.30336 0
M  V30 8874 O 1143.88 -1.39011 8.63583 0
M  V30 8875 C 1142.48 -0.273849 6.91158 0
M  V30 8876 O 1143.28 -1.06331 6.02794 0
M  V30 8877 C 1141.14 -0.897649 7.22545 0
M  V30 8878 N 1140.1 -0.292839 6.41732 0
M  V30 8879 C 1140.16 1.00068 6.10757 0
M  V30 8880 N 1139.11 1.36468 5.35794 0
M  V30 8881 C 1138.38 0.258894 5.2366 0
M  V30 8882 C 1137.07 0.0670682 4.65752 0
M  V30 8883 O 1136.34 0.902443 4.10497 0
M  V30 8884 N 1136.64 -1.2131 4.75881 0
M  V30 8885 C 1137.39 -2.24934 5.37101 0
M  V30 8886 N 1136.8 -3.48783 5.33984 0
M  V30 8887 N 1138.55 -2.0844 5.95684 0
M  V30 8888 C 1139 -0.81395 5.87791 0
M  V30 8889 H 1141.17 -1.9841 7.04286 0
M  V30 8890 H 1142.35 0.739815 6.49601 0
M  V30 8891 H 1143.84 0.598315 8.36563 0
M  V30 8892 H 1142.14 -0.352479 10.1829 0
M  V30 8893 H 1141.95 2.00611 10.0304 0
M  V30 8894 H 1140.32 1.41843 9.55327 0
M  V30 8895 H 1135.75 -1.44434 4.37895 0
M  V30 8896 H 1140.95 1.67697 6.42268 0
M  V30 8897 H 1135.88 -3.60543 4.87699 0
M  V30 8898 H 1137.26 -4.29232 5.7819 0
M  V30 8899 H 1142.96 -1.95704 6.0346 0
M  V30 8900 P 1144.82 -1.25109 8.70152 0
M  V30 8901 O 1146.24 -1.35274 9.21221 0
M  V30 8902 O 1144.46 -0.0769065 7.84762 0
M  V30 8903 O 1144.5 -2.55232 7.81161 0
M  V30 8904 C 1144.34 -3.79939 8.58154 0
M  V30 8905 C 1144.88 -4.94023 7.72785 0
M  V30 8906 O 1143.82 -5.18726 6.91205 0
M  V30 8907 C 1146.1 -4.69597 6.85231 0
M  V30 8908 O 1146.83 -5.83832 6.51337 0
M  V30 8909 C 1145.43 -3.96706 5.66633 0
M  V30 8910 O 1146.23 -4.15414 4.49689 0
M  V30 8911 C 1144.09 -4.66153 5.59313 0
M  V30 8912 H 1144.12 -5.47679 4.85214 0
M  V30 8913 H 1145.31 -2.89008 5.86566 0
M  V30 8914 H 1146.79 -4.0121 7.36511 0
M  V30 8915 H 1145.1 -5.80182 8.37584 0
M  V30 8916 H 1144.91 -3.73517 9.52265 0
M  V30 8917 H 1143.28 -3.97163 8.80359 0
M  V30 8918 H 1145.91 -4.90969 4.01921 0
M  V30 8919 P 1147.77 -5.75688 6.64379 0
M  V30 8920 O 1149.19 -6.11849 7.01846 0
M  V30 8921 O 1147.41 -4.30744 6.56026 0
M  V30 8922 O 1147.45 -6.37042 5.19165 0
M  V30 8923 C 1147.29 -7.83578 5.16515 0
M  V30 8924 C 1147.83 -8.33398 3.83019 0
M  V30 8925 O 1146.77 -8.10074 3.01034 0
M  V30 8926 C 1149.05 -7.65514 3.2257 0
M  V30 8927 O 1149.78 -8.4329 2.32297 0
M  V30 8928 C 1148.38 -6.40075 2.62207 0
M  V30 8929 O 1149.18 -5.92589 1.53712 0
M  V30 8930 C 1147.04 -6.9454 2.18503 0
M  V30 8931 H 1147.07 -7.23063 1.12091 0
M  V30 8932 H 1148.26 -5.6025 3.37201 0
M  V30 8933 H 1149.74 -7.35707 4.02681 0
M  V30 8934 H 1148.05 -9.40912 3.9095 0
M  V30 8935 H 1147.86 -8.29056 5.99158 0
M  V30 8936 H 1146.23 -8.10073 5.25882 0
M  V30 8937 H 1148.86 -6.30324 0.726794 0
M  V30 8938 P 1150.72 -8.4349 2.47671 0
M  V30 8939 O 1152.14 -8.94167 2.5964 0
M  V30 8940 O 1150.36 -7.1704 3.19006 0
M  V30 8941 O 1150.4 -8.16596 0.923387 0
M  V30 8942 C 1150.24 -9.38437 0.108857 0
M  V30 8943 C 1150.78 -9.08175 -1.28353 0
M  V30 8944 O 1149.72 -8.44229 -1.84713 0
M  V30 8945 C 1152 -8.18386 -1.42505 0
M  V30 8946 O 1152.74 -8.3501 -2.60497 0
M  V30 8947 C 1151.33 -6.80225 -1.25468 0
M  V30 8948 O 1152.13 -5.81621 -1.91066 0
M  V30 8949 C 1149.99 -7.02416 -1.9168 0
M  V30 8950 H 1150.02 -6.6888 -2.96621 0
M  V30 8951 H 1151.21 -6.53617 -0.192223 0
M  V30 8952 H 1152.69 -8.36622 -0.589963 0
M  V30 8953 H 1151 -10.0291 -1.79807 0
M  V30 8954 H 1150.81 -10.2138 0.558219 0
M  V30 8955 H 1149.18 -9.6579 0.0444202 0
M  V30 8956 H 1151.82 -5.69556 -2.79637 0
M  V30 8957 P 1153.67 -8.4349 -2.47671 0
M  V30 8958 O 1155.09 -8.92593 -2.65 0
M  V30 8959 O 1153.31 -7.7568 -1.19296 0
M  V30 8960 O 1153.35 -7.36886 -3.63805 0
M  V30 8961 C 1153.19 -7.95349 -4.982 0
M  V30 8962 C 1153.73 -6.94612 -5.98974 0
M  V30 8963 O 1152.67 -6.10347 -6.11815 0
M  V30 8964 C 1154.95 -6.11426 -5.62335 0
M  V30 8965 O 1155.69 -5.6162 -6.70584 0
M  V30 8966 C 1154.28 -5.04409 -4.73308 0
M  V30 8967 O 1155.08 -3.85992 -4.75183 0
M  V30 8968 C 1152.94 -4.8728 -5.41006 0
M  V30 8969 H 1152.97 -4.02333 -6.11157 0
M  V30 8970 H 1154.16 -5.39466 -3.69543 0
M  V30 8971 H 1155.64 -6.71916 -5.01943 0
M  V30 8972 H 1153.95 -7.4649 -6.93477 0
M  V30 8973 H 1153.76 -8.89416 -5.05237 0
M  V30 8974 H 1152.13 -8.14876 -5.18409 0
M  V30 8975 H 1154.77 -3.27957 -5.4317 0
M  V30 8976 P 1156.62 -5.75688 -6.64379 0
M  V30 8977 O 1158.04 -6.07692 -7.0558 0
M  V30 8978 O 1156.26 -5.88047 -5.19722 0
M  V30 8979 O 1156.3 -4.2322 -7.04443 0
M  V30 8980 C 1156.14 -3.99785 -8.49201 0
M  V30 8981 C 1156.68 -2.60516 -8.79425 0
M  V30 8982 O 1155.63 -1.82663 -8.44573 0
M  V30 8983 C 1157.9 -2.10343 -8.03628 0
M  V30 8984 O 1158.64 -1.09919 -8.67766 0
M  V30 8985 C 1157.23 -1.68446 -6.70876 0
M  V30 8986 O 1158.03 -0.684109 -6.08265 0
M  V30 8987 C 1155.89 -1.17436 -7.18567 0
M  V30 8988 N 1154.85 -1.52699 -6.23988 0
M  V30 8989 C 1155.02 -2.578 -5.40574 0
M  V30 8990 N 1153.99 -2.78966 -4.61193 0
M  V30 8991 C 1153.11 -1.78725 -4.95769 0
M  V30 8992 C 1151.84 -1.45727 -4.44207 0
M  V30 8993 N 1151.24 -2.13994 -3.43613 0
M  V30 8994 N 1151.27 -0.374977 -5.05812 0
M  V30 8995 C 1151.88 0.345585 -6.05615 0
M  V30 8996 N 1153.05 0.0787651 -6.56253 0
M  V30 8997 C 1153.63 -1.00499 -5.96189 0
M  V30 8998 H 1155.92 -0.0804622 -7.31556 0
M  V30 8999 H 1157.11 -2.53396 -6.02698 0
M  V30 9000 H 1158.59 -2.93881 -7.85526 0
M  V30 9001 H 1156.9 -2.52078 -9.87225 0
M  V30 9002 H 1156.71 -4.75072 -9.05887 0
M  V30 9003 H 1155.08 -4.05244 -8.76668 0
M  V30 9004 H 1151.34 1.20098 -6.4532 0
M  V30 9005 H 1155.92 -3.18977 -5.3945 0
M  V30 9006 H 1150.31 -1.84983 -3.10004 0
M  V30 9007 H 1151.71 -2.9465 -3.00843 0
M  V30 9008 H 1157.72 0.177619 -6.34151 0
M  V30 9009 P 1159.57 -1.25109 -8.70152 0
M  V30 9010 O 1161 -1.29744 -9.22016 0
M  V30 9011 O 1159.21 -2.13714 -7.55141 0
M  V30 9012 O 1159.25 0.248149 -8.21425 0
M  V30 9013 C 1159.09 1.22779 -9.30434 0
M  V30 9014 C 1159.63 2.56293 -8.80664 0
M  V30 9015 O 1158.58 3.02979 -8.09349 0
M  V30 9016 C 1160.85 2.57523 -7.89775 0
M  V30 9017 O 1161.59 3.7668 -7.89438 0
M  V30 9018 C 1160.18 2.20997 -6.55446 0
M  V30 9019 O 1160.98 2.71895 -5.48509 0
M  V30 9020 C 1158.84 2.89693 -6.67988 0
M  V30 9021 H 1158.88 3.88793 -6.19859 0
M  V30 9022 H 1160.06 1.12046 -6.44229 0
M  V30 9023 H 1161.54 1.7746 -8.19711 0
M  V30 9024 H 1159.85 3.20706 -9.67112 0
M  V30 9025 H 1159.66 0.901032 -10.1892 0
M  V30 9026 H 1158.03 1.33049 -9.56592 0
M  V30 9027 H 1160.67 3.57847 -5.23962 0
M  V30 9028 P 1162.52 3.65191 -7.99657 0
M  V30 9029 O 1163.95 3.89416 -8.45976 0
M  V30 9030 O 1162.16 2.28472 -7.50807 0
M  V30 9031 O 1162.2 4.64972 -6.77611 0
M  V30 9032 C 1162.04 6.06319 -7.16352 0
M  V30 9033 C 1162.58 6.91655 -6.02234 0
M  V30 9034 O 1161.53 6.92449 -5.17064 0
M  V30 9035 C 1163.8 6.43627 -5.25174 0
M  V30 9036 O 1164.54 7.43686 -4.60469 0
M  V30 9037 C 1163.13 5.40275 -4.31916 0
M  V30 9038 O 1163.93 5.25193 -3.14386 0
M  V30 9039 C 1161.79 6.04847 -4.05327 0
M  V30 9040 N 1160.75 5.04166 -3.98114 0
M  V30 9041 C 1160.81 3.96049 -4.75587 0
M  V30 9042 N 1159.77 3.15559 -4.54006 0
M  V30 9043 C 1159.03 3.78802 -3.62491 0
M  V30 9044 C 1157.73 3.476 -3.10071 0
M  V30 9045 O 1156.99 2.51136 -3.37021 0
M  V30 9046 N 1157.3 4.39088 -2.19956 0
M  V30 9047 C 1158.05 5.53215 -1.81733 0
M  V30 9048 N 1157.45 6.31963 -0.860928 0
M  V30 9049 N 1159.2 5.86688 -2.32562 0
M  V30 9050 C 1159.66 4.97525 -3.23407 0
M  V30 9051 H 1161.83 6.62195 -3.11261 0
M  V30 9052 H 1163.01 4.42488 -4.8131 0
M  V30 9053 H 1164.49 5.93051 -5.9305 0
M  V30 9054 H 1162.8 7.92655 -6.402 0
M  V30 9055 H 1162.61 6.26671 -8.0846 0
M  V30 9056 H 1160.98 6.29101 -7.32804 0
M  V30 9057 H 1156.4 4.25523 -1.77604 0
M  V30 9058 H 1161.61 3.75576 -5.47333 0
M  V30 9059 H 1156.54 6.04684 -0.468946 0
M  V30 9060 H 1157.91 7.18054 -0.542422 0
M  V30 9061 H 1163.62 5.84223 -2.47279 0
M  V30 9062 P 1165.48 7.39546 -4.75277 0
M  V30 9063 O 1166.9 7.84798 -5.01039 0
M  V30 9064 O 1165.12 5.9812 -5.08098 0
M  V30 9065 O 1165.15 7.57503 -3.1866 0
M  V30 9066 C 1164.99 8.97357 -2.74833 0
M  V30 9067 C 1165.53 9.07548 -1.32709 0
M  V30 9068 O 1164.48 8.62072 -0.606159 0
M  V30 9069 C 1166.75 8.25383 -0.938334 0
M  V30 9070 O 1167.49 8.74577 0.146954 0
M  V30 9071 C 1166.08 6.8802 -0.712559 0
M  V30 9072 O 1166.88 6.1189 0.194655 0
M  V30 9073 C 1164.74 7.27966 -0.139777 0
M  V30 9074 H 1164.78 7.25354 0.961601 0
M  V30 9075 H 1165.96 6.32557 -1.65702 0
M  V30 9076 H 1167.44 8.19355 -1.79097 0
M  V30 9077 H 1165.75 10.1294 -1.10029 0
M  V30 9078 H 1165.56 9.64276 -3.41316 0
M  V30 9079 H 1163.93 9.25417 -2.76357 0
M  V30 9080 H 1166.57 6.25267 1.07847 0
M  V30 9081 P 1168.43 8.791 9.41699e-12 0
M  V30 9082 O 1169.85 9.31196 0.027936 0
M  V30 9083 O 1168.07 7.77869 -1.04071 0
M  V30 9084 O 1168.1 8.09533 1.41463 0
M  V30 9085 C 1167.94 9.03587 2.5397 0
M  V30 9086 C 1168.48 8.35226 3.79016 0
M  V30 9087 O 1167.43 7.57904 4.1503 0
M  V30 9088 C 1169.7 7.45087 3.67298 0
M  V30 9089 O 1170.44 7.27796 4.85194 0
M  V30 9090 C 1169.03 6.17323 3.12027 0
M  V30 9091 O 1169.83 5.04496 3.46627 0
M  V30 9092 C 1167.69 6.19961 3.81809 0
M  V30 9093 N 1166.65 5.71575 2.93223 0
M  V30 9094 C 1166.82 5.77362 1.59168 0
M  V30 9095 N 1165.79 5.3123 0.911893 0
M  V30 9096 C 1164.91 4.91717 1.89588 0
M  V30 9097 C 1163.64 4.3114 1.8076 0
M  V30 9098 N 1163.04 3.99821 0.632928 0
M  V30 9099 N 1163.08 4.06823 3.02898 0
M  V30 9100 C 1163.68 4.35062 4.22711 0
M  V30 9101 N 1164.86 4.90805 4.35707 0
M  V30 9102 C 1165.43 5.16382 3.14469 0
M  V30 9103 H 1167.73 5.58142 4.72986 0
M  V30 9104 H 1168.91 6.21428 2.0318 0
M  V30 9105 H 1170.39 7.86112 2.9231 0
M  V30 9106 H 1168.7 9.11171 4.55987 0
M  V30 9107 H 1168.51 9.9573 2.34194 0
M  V30 9108 H 1166.88 9.2792 2.67832 0
M  V30 9109 H 1163.14 4.09052 5.13359 0
M  V30 9110 H 1167.72 6.16575 1.12198 0
M  V30 9111 H 1162.11 3.55423 0.632085 0
M  V30 9112 H 1163.52 4.20317 -0.256712 0
M  V30 9113 H 1169.52 4.67628 4.28704 0
M  V30 9114 P 1171.38 7.39546 4.75277 0
M  V30 9115 O 1172.8 7.81777 5.05738 0
M  V30 9116 O 1171.02 7.1065 3.32998 0
M  V30 9117 O 1171.05 6.04542 5.56673 0
M  V30 9118 C 1170.89 6.22772 7.02095 0
M  V30 9119 C 1171.43 4.97725 7.70406 0
M  V30 9120 O 1170.38 4.13256 7.58987 0
M  V30 9121 C 1172.65 4.28231 7.11815 0
M  V30 9122 O 1173.39 3.49945 8.01648 0
M  V30 9123 C 1171.98 3.5063 5.96244 0
M  V30 9124 O 1172.78 2.36482 5.64681 0
M  V30 9125 C 1170.65 3.15122 6.56374 0
M  V30 9126 H 1170.68 2.13853 6.99751 0
M  V30 9127 H 1171.86 4.13501 5.06559 0
M  V30 9128 H 1173.34 5.03285 6.70911 0
M  V30 9129 H 1171.65 5.20877 8.75697 0
M  V30 9130 H 1171.46 7.11046 7.35349 0
M  V30 9131 H 1169.83 6.35815 7.26986 0
M  V30 9132 H 1172.47 1.61644 6.13565 0
M  V30 9133 P 1174.33 3.65191 7.99657 0
M  V30 9134 O 1175.75 3.8425 8.48115 0
M  V30 9135 O 1173.97 4.17805 6.64342 0
M  V30 9136 O 1174 2.07613 7.95143 0
M  V30 9137 C 1173.84 1.44328 9.27336 0
M  V30 9138 C 1174.38 0.0220036 9.17197 0
M  V30 9139 O 1173.33 -0.626867 8.61923 0
M  V30 9140 C 1175.6 -0.24586 8.30336 0
M  V30 9141 O 1176.34 -1.39011 8.63583 0
M  V30 9142 C 1174.93 -0.273849 6.91158 0
M  V30 9143 O 1175.73 -1.06348 6.02892 0
M  V30 9144 C 1173.6 -0.897649 7.22545 0
M  V30 9145 H 1173.63 -1.9841 7.04286 0
M  V30 9146 H 1174.81 0.739928 6.497 0
M  V30 9147 H 1176.29 0.60668 8.36503 0
M  V30 9148 H 1174.6 -0.352479 10.1829 0
M  V30 9149 H 1174.41 2.00611 10.0304 0
M  V30 9150 H 1172.78 1.41843 9.55327 0
M  V30 9151 H 1175.42 -1.95734 6.03555 0
M  V30 9152 P 1177.28 -1.25109 8.70152 0
M  V30 9153 O 1178.7 -1.35274 9.21221 0
M  V30 9154 O 1176.92 -0.0769065 7.84762 0
M  V30 9155 O 1176.95 -2.55232 7.81161 0
M  V30 9156 C 1176.79 -3.79939 8.58154 0
M  V30 9157 C 1177.33 -4.94023 7.72785 0
M  V30 9158 O 1176.28 -5.18726 6.91205 0
M  V30 9159 C 1178.55 -4.69597 6.85231 0
M  V30 9160 O 1179.29 -5.83832 6.51337 0
M  V30 9161 C 1177.88 -3.96706 5.66633 0
M  V30 9162 O 1178.68 -4.15414 4.49689 0
M  V30 9163 C 1176.55 -4.66153 5.59313 0
M  V30 9164 H 1176.58 -5.47679 4.85214 0
M  V30 9165 H 1177.76 -2.89008 5.86566 0
M  V30 9166 H 1179.25 -4.0121 7.36511 0
M  V30 9167 H 1177.55 -5.80182 8.37584 0
M  V30 9168 H 1177.36 -3.73517 9.52265 0
M  V30 9169 H 1175.73 -3.97163 8.80359 0
M  V30 9170 H 1178.37 -4.90969 4.01921 0
M  V30 9171 P 1180.23 -5.75688 6.64379 0
M  V30 9172 O 1181.65 -6.11849 7.01846 0
M  V30 9173 O 1179.87 -4.30744 6.56026 0
M  V30 9174 O 1179.9 -6.37042 5.19165 0
M  V30 9175 C 1179.74 -7.83578 5.16515 0
M  V30 9176 C 1180.28 -8.33398 3.83019 0
M  V30 9177 O 1179.23 -8.10074 3.01034 0
M  V30 9178 C 1181.5 -7.65514 3.2257 0
M  V30 9179 O 1182.24 -8.4329 2.32297 0
M  V30 9180 C 1180.83 -6.40075 2.62207 0
M  V30 9181 O 1181.63 -5.92589 1.53712 0
M  V30 9182 C 1179.5 -6.9454 2.18503 0
M  V30 9183 H 1179.53 -7.23063 1.12091 0
M  V30 9184 H 1180.71 -5.6025 3.37201 0
M  V30 9185 H 1182.2 -7.35707 4.02681 0
M  V30 9186 H 1180.5 -9.40912 3.9095 0
M  V30 9187 H 1180.31 -8.29056 5.99158 0
M  V30 9188 H 1178.68 -8.10073 5.25882 0
M  V30 9189 H 1181.32 -6.30324 0.726794 0
M  V30 9190 P 1183.18 -8.4349 2.47671 0
M  V30 9191 O 1184.6 -8.94167 2.5964 0
M  V30 9192 O 1182.82 -7.1704 3.19006 0
M  V30 9193 O 1182.86 -8.16596 0.923387 0
M  V30 9194 C 1182.7 -9.38437 0.108857 0
M  V30 9195 C 1183.24 -9.08175 -1.28353 0
M  V30 9196 O 1182.18 -8.44229 -1.84713 0
M  V30 9197 C 1184.45 -8.18386 -1.42505 0
M  V30 9198 O 1185.19 -8.3501 -2.60497 0
M  V30 9199 C 1183.78 -6.80225 -1.25468 0
M  V30 9200 O 1184.58 -5.81621 -1.91066 0
M  V30 9201 C 1182.45 -7.02416 -1.9168 0
M  V30 9202 H 1182.48 -6.6888 -2.96621 0
M  V30 9203 H 1183.66 -6.53617 -0.192223 0
M  V30 9204 H 1185.15 -8.36622 -0.589963 0
M  V30 9205 H 1183.45 -10.0291 -1.79807 0
M  V30 9206 H 1183.26 -10.2138 0.558219 0
M  V30 9207 H 1181.63 -9.6579 0.0444202 0
M  V30 9208 H 1184.27 -5.69556 -2.79637 0
M  V30 9209 P 1186.13 -8.4349 -2.47671 0
M  V30 9210 O 1187.55 -8.92689 -2.65029 0
M  V30 9211 O 1185.77 -7.7568 -1.19296 0
M  V30 9212 O 1185.81 -7.36886 -3.63805 0
M  V30 9213 C 1185.65 -7.95433 -4.98253 0
M  V30 9214 C 1186.19 -6.94612 -5.98974 0
M  V30 9215 O 1185.13 -6.10277 -6.11744 0
M  V30 9216 C 1187.4 -6.11426 -5.62335 0
M  V30 9217 O 1188.14 -5.6162 -6.70584 0
M  V30 9218 C 1186.74 -5.04409 -4.73308 0
M  V30 9219 O 1187.53 -3.86404 -4.74719 0
M  V30 9220 C 1185.4 -4.8728 -5.41006 0
M  V30 9221 N 1184.36 -4.65812 -4.42377 0
M  V30 9222 C 1184.52 -5.09132 -3.15382 0
M  V30 9223 N 1183.5 -4.84021 -2.3716 0
M  V30 9224 C 1182.61 -4.18386 -3.20441 0
M  V30 9225 C 1181.35 -3.6275 -2.94905 0
M  V30 9226 N 1180.78 -3.05008 -4.05243 0
M  V30 9227 C 1181.38 -2.98348 -5.28159 0
M  V30 9228 N 1182.56 -3.48171 -5.56333 0
M  V30 9229 C 1183.13 -4.06869 -4.47212 0
M  V30 9230 H 1186.61 -5.39013 -3.70026 0
M  V30 9231 H 1188.1 -6.71916 -5.01943 0
M  V30 9232 H 1186.4 -7.45796 -6.94223 0
M  V30 9233 H 1186.21 -8.89416 -5.05237 0
M  V30 9234 H 1184.58 -8.14876 -5.18409 0
M  V30 9235 H 1185.42 -5.59989 -2.81362 0
M  V30 9236 H 1187.22 -3.27906 -5.43085 0
M  V30 9237 P 1189.08 -5.75688 -6.64379 0
M  V30 9238 O 1190.5 -6.07627 -7.05504 0
M  V30 9239 O 1188.72 -5.88047 -5.19722 0
M  V30 9240 O 1188.76 -4.2322 -7.04443 0
M  V30 9241 C 1188.6 -3.99743 -8.4911 0
M  V30 9242 C 1189.14 -2.60516 -8.79425 0
M  V30 9243 O 1188.08 -1.82684 -8.4467 0
M  V30 9244 C 1190.35 -2.10343 -8.03628 0
M  V30 9245 O 1191.09 -1.09919 -8.67766 0
M  V30 9246 C 1189.69 -1.68446 -6.70876 0
M  V30 9247 O 1190.48 -0.678137 -6.08433 0
M  V30 9248 C 1188.35 -1.17436 -7.18567 0
M  V30 9249 H 1188.38 -0.0804732 -7.31656 0
M  V30 9250 H 1189.56 -2.54037 -6.02537 0
M  V30 9251 H 1191.05 -2.93881 -7.85526 0
M  V30 9252 H 1189.35 -2.53065 -9.86973 0
M  V30 9253 H 1189.16 -4.75072 -9.05887 0
M  V30 9254 H 1187.53 -4.05244 -8.76668 0
M  V30 9255 H 1190.17 0.177647 -6.34251 0
M  V30 9256 P 1192.03 -1.25109 -8.70152 0
M  V30 9257 O 1193.45 -1.29772 -9.22214 0
M  V30 9258 O 1191.67 -2.13714 -7.55141 0
M  V30 9259 O 1191.71 0.248149 -8.21425 0
M  V30 9260 C 1191.55 1.22779 -9.30434 0
M  V30 9261 C 1192.09 2.56265 -8.80568 0
M  V30 9262 O 1191.03 3.02979 -8.09349 0
M  V30 9263 C 1193.31 2.57523 -7.89775 0
M  V30 9264 O 1194.04 3.7668 -7.89438 0
M  V30 9265 C 1192.64 2.20997 -6.55446 0
M  V30 9266 O 1193.44 2.71851 -5.48419 0
M  V30 9267 C 1191.3 2.89693 -6.67988 0
M  V30 9268 N 1190.26 2.08895 -6.07487 0
M  V30 9269 C 1190.32 0.760559 -6.14209 0
M  V30 9270 N 1189.27 0.200108 -5.52538 0
M  V30 9271 C 1188.54 1.22692 -5.09742 0
M  V30 9272 C 1187.23 1.24782 -4.48775 0
M  V30 9273 O 1186.5 0.290617 -4.19294 0
M  V30 9274 N 1186.8 2.50468 -4.22428 0
M  V30 9275 C 1187.55 3.67142 -4.51974 0
M  V30 9276 N 1186.96 4.85096 -4.14091 0
M  V30 9277 N 1188.71 3.67821 -5.12831 0
M  V30 9278 C 1189.16 2.43698 -5.4105 0
M  V30 9279 H 1191.33 3.88793 -6.19859 0
M  V30 9280 H 1192.51 1.12029 -6.4413 0
M  V30 9281 H 1194 1.78279 -8.19533 0
M  V30 9282 H 1192.3 3.20706 -9.67112 0
M  V30 9283 H 1192.11 0.901032 -10.1892 0
M  V30 9284 H 1190.48 1.33049 -9.56592 0
M  V30 9285 H 1185.91 2.61953 -3.79465 0
M  V30 9286 H 1191.11 0.200439 -6.63497 0
M  V30 9287 H 1186.04 4.8334 -3.66367 0
M  V30 9288 H 1187.42 5.7474 -4.33841 0
M  V30 9289 H 1193.12 3.5779 -5.23879 0
M  V30 9290 P 1194.98 3.65191 -7.99657 0
M  V30 9291 O 1196.4 3.89332 -8.45794 0
M  V30 9292 O 1194.62 2.28472 -7.50807 0
M  V30 9293 O 1194.66 4.64972 -6.77611 0
M  V30 9294 C 1194.5 6.06319 -7.16352 0
M  V30 9295 C 1195.04 6.91731 -6.02299 0
M  V30 9296 O 1193.98 6.92449 -5.17064 0
M  V30 9297 C 1196.26 6.43627 -5.25174 0
M  V30 9298 O 1196.99 7.43686 -4.60469 0
M  V30 9299 C 1195.59 5.40275 -4.31916 0
M  V30 9300 O 1196.39 5.25279 -3.14438 0
M  V30 9301 C 1194.25 6.04847 -4.05327 0
M  V30 9302 H 1194.28 6.62195 -3.11261 0
M  V30 9303 H 1195.46 4.42556 -4.81383 0
M  V30 9304 H 1196.95 5.92458 -5.93643 0
M  V30 9305 H 1195.25 7.92655 -6.402 0
M  V30 9306 H 1195.06 6.26671 -8.0846 0
M  V30 9307 H 1193.43 6.29101 -7.32804 0
M  V30 9308 H 1196.07 5.84315 -2.47318 0
M  V30 9309 P 1197.93 7.39546 -4.75277 0
M  V30 9310 O 1199.35 7.84798 -5.01039 0
M  V30 9311 O 1197.57 5.9812 -5.08098 0
M  V30 9312 O 1197.61 7.57503 -3.1866 0
M  V30 9313 C 1197.45 8.97357 -2.74833 0
M  V30 9314 C 1197.99 9.07548 -1.32709 0
M  V30 9315 O 1196.93 8.62072 -0.606159 0
M  V30 9316 C 1199.21 8.25383 -0.938334 0
M  V30 9317 O 1199.94 8.74577 0.146954 0
M  V30 9318 C 1198.54 6.8802 -0.712559 0
M  V30 9319 O 1199.34 6.1189 0.194655 0
M  V30 9320 C 1197.2 7.27966 -0.139777 0
M  V30 9321 H 1197.23 7.25354 0.961601 0
M  V30 9322 H 1198.42 6.32557 -1.65702 0
M  V30 9323 H 1199.9 8.19355 -1.79097 0
M  V30 9324 H 1198.21 10.1294 -1.10029 0
M  V30 9325 H 1198.02 9.64276 -3.41316 0
M  V30 9326 H 1196.39 9.25417 -2.76357 0
M  V30 9327 H 1199.02 6.25267 1.07847 0
M  V30 9328 P 1200.88 8.791 9.72715e-12 0
M  V30 9329 O 1202.3 9.31096 0.027933 0
M  V30 9330 O 1200.52 7.77869 -1.04071 0
M  V30 9331 O 1200.56 8.09533 1.41463 0
M  V30 9332 C 1200.4 9.0349 2.53943 0
M  V30 9333 C 1200.94 8.35226 3.79016 0
M  V30 9334 O 1199.88 7.57992 4.15078 0
M  V30 9335 C 1202.16 7.45087 3.67298 0
M  V30 9336 O 1202.89 7.27796 4.85194 0
M  V30 9337 C 1201.49 6.17323 3.12027 0
M  V30 9338 O 1202.29 5.04231 3.47188 0
M  V30 9339 C 1200.15 6.19961 3.81809 0
M  V30 9340 H 1200.18 5.58218 4.73051 0
M  V30 9341 H 1201.37 6.21726 2.02589 0
M  V30 9342 H 1202.85 7.86112 2.9231 0
M  V30 9343 H 1201.16 9.11627 4.55076 0
M  V30 9344 H 1200.97 9.9573 2.34194 0
M  V30 9345 H 1199.34 9.2792 2.67832 0
M  V30 9346 H 1201.97 4.67702 4.28772 0
M  V30 9347 P 1203.83 7.39546 4.75277 0
M  V30 9348 O 1205.25 7.81861 5.05793 0
M  V30 9349 O 1203.47 7.1065 3.32998 0
M  V30 9350 O 1203.51 6.04542 5.56673 0
M  V30 9351 C 1203.35 6.22839 7.02169 0
M  V30 9352 C 1203.89 4.97725 7.70406 0
M  V30 9353 O 1202.83 4.13208 7.58899 0
M  V30 9354 C 1205.11 4.28231 7.11815 0
M  V30 9355 O 1205.85 3.49945 8.01648 0
M  V30 9356 C 1204.44 3.5063 5.96244 0
M  V30 9357 O 1205.24 2.37008 5.64352 0
M  V30 9358 C 1203.1 3.15122 6.56374 0
M  V30 9359 N 1202.06 3.22311 5.55692 0
M  V30 9360 C 1202.23 3.99655 4.46046 0
M  V30 9361 N 1201.2 3.97599 3.63918 0
M  V30 9362 C 1200.32 3.11159 4.25334 0
M  V30 9363 C 1199.05 2.64972 3.85157 0
M  V30 9364 N 1198.45 3.02132 2.69405 0
M  V30 9365 N 1198.48 1.78482 4.74759 0
M  V30 9366 C 1199.09 1.37463 5.90819 0
M  V30 9367 N 1200.26 1.7733 6.31889 0
M  V30 9368 C 1200.84 2.64393 5.43725 0
M  V30 9369 H 1203.13 2.13823 6.99656 0
M  V30 9370 H 1204.32 4.12931 5.06895 0
M  V30 9371 H 1205.8 5.03285 6.70911 0
M  V30 9372 H 1204.11 5.20001 8.76217 0
M  V30 9373 H 1203.92 7.11046 7.35349 0
M  V30 9374 H 1202.29 6.35815 7.26986 0
M  V30 9375 H 1198.55 0.66574 6.53015 0
M  V30 9376 H 1203.13 4.58037 4.27732 0
M  V30 9377 H 1197.52 2.64828 2.45331 0
M  V30 9378 H 1198.92 3.67472 2.05644 0
M  V30 9379 H 1204.93 1.61619 6.13468 0
M  V30 9380 P 1206.78 3.65191 7.99657 0
M  V30 9381 O 1208.21 3.8425 8.48115 0
M  V30 9382 O 1206.42 4.17805 6.64342 0
M  V30 9383 O 1206.46 2.07613 7.95143 0
M  V30 9384 C 1206.3 1.44328 9.27336 0
M  V30 9385 C 1206.84 0.0220036 9.17197 0
M  V30 9386 O 1205.78 -0.626867 8.61923 0
M  V30 9387 C 1208.06 -0.24586 8.30336 0
M  V30 9388 O 1208.8 -1.39011 8.63583 0
M  V30 9389 C 1207.39 -0.273849 6.91158 0
M  V30 9390 O 1208.19 -1.06348 6.02892 0
M  V30 9391 C 1206.05 -0.897649 7.22545 0
M  V30 9392 H 1206.08 -1.9841 7.04286 0
M  V30 9393 H 1207.27 0.739928 6.497 0
M  V30 9394 H 1208.75 0.60668 8.36503 0
M  V30 9395 H 1207.06 -0.352479 10.1829 0
M  V30 9396 H 1206.87 2.00611 10.0304 0
M  V30 9397 H 1205.24 1.41843 9.55327 0
M  V30 9398 H 1207.88 -1.95734 6.03555 0
M  V30 9399 P 1209.73 -1.25109 8.70152 0
M  V30 9400 O 1211.15 -1.35288 9.2132 0
M  V30 9401 O 1209.37 -0.0769065 7.84762 0
M  V30 9402 O 1209.41 -2.55232 7.81161 0
M  V30 9403 C 1209.25 -3.79979 8.58246 0
M  V30 9404 C 1209.79 -4.94023 7.72785 0
M  V30 9405 O 1208.74 -5.18666 6.91125 0
M  V30 9406 C 1211.01 -4.69597 6.85231 0
M  V30 9407 O 1211.75 -5.83832 6.51337 0
M  V30 9408 C 1210.34 -3.96706 5.66633 0
M  V30 9409 O 1211.14 -4.14896 4.5003 0
M  V30 9410 C 1209 -4.66153 5.59313 0
M  V30 9411 N 1207.96 -3.71582 5.24027 0
M  V30 9412 C 1208.13 -2.39715 5.48833 0
M  V30 9413 N 1207.1 -1.65863 5.12845 0
M  V30 9414 C 1206.22 -2.57637 4.5973 0
M  V30 9415 C 1204.95 -2.40278 4.01027 0
M  V30 9416 N 1204.35 -1.19549 3.86744 0
M  V30 9417 N 1204.38 -3.57711 3.59575 0
M  V30 9418 C 1204.99 -4.80324 3.70476 0
M  V30 9419 N 1206.16 -5.01121 4.23801 0
M  V30 9420 C 1206.74 -3.84757 4.66372 0
M  V30 9421 H 1209.03 -5.47604 4.85148 0
M  V30 9422 H 1210.22 -2.8955 5.86187 0
M  V30 9423 H 1211.7 -4.0121 7.36511 0
M  V30 9424 H 1210.01 -5.81019 8.37003 0
M  V30 9425 H 1209.82 -3.73517 9.52265 0
M  V30 9426 H 1208.19 -3.97163 8.80359 0
M  V30 9427 H 1204.45 -5.66348 3.3183 0
M  V30 9428 H 1209.03 -1.98804 5.94332 0
M  V30 9429 H 1203.42 -1.13147 3.4281 0
M  V30 9430 H 1204.82 -0.344074 4.19692 0
M  V30 9431 H 1210.83 -4.90891 4.01857 0
M  V30 9432 P 1212.68 -5.75688 6.64379 0
M  V30 9433 O 1214.11 -6.11849 7.01846 0
M  V30 9434 O 1212.32 -4.30744 6.56026 0
M  V30 9435 O 1212.36 -6.37042 5.19165 0
M  V30 9436 C 1212.2 -7.83578 5.16515 0
M  V30 9437 C 1212.74 -8.33398 3.83019 0
M  V30 9438 O 1211.69 -8.10074 3.01034 0
M  V30 9439 C 1213.96 -7.65514 3.2257 0
M  V30 9440 O 1214.7 -8.4329 2.32297 0
M  V30 9441 C 1213.29 -6.40075 2.62207 0
M  V30 9442 O 1214.09 -5.92589 1.53712 0
M  V30 9443 C 1211.95 -6.9454 2.18503 0
M  V30 9444 H 1211.99 -7.23063 1.12091 0
M  V30 9445 H 1213.17 -5.6025 3.37201 0
M  V30 9446 H 1214.65 -7.35707 4.02681 0
M  V30 9447 H 1212.96 -9.40912 3.9095 0
M  V30 9448 H 1212.77 -8.29056 5.99158 0
M  V30 9449 H 1211.14 -8.10073 5.25882 0
M  V30 9450 H 1213.78 -6.30324 0.726794 0
M  V30 9451 P 1215.63 -8.4349 2.47671 0
M  V30 9452 O 1217.06 -8.94167 2.5964 0
M  V30 9453 O 1215.27 -7.1704 3.19006 0
M  V30 9454 O 1215.31 -8.16596 0.923387 0
M  V30 9455 C 1215.15 -9.38437 0.108857 0
M  V30 9456 C 1215.69 -9.08175 -1.28353 0
M  V30 9457 O 1214.64 -8.44229 -1.84713 0
M  V30 9458 C 1216.91 -8.18386 -1.42505 0
M  V30 9459 O 1217.65 -8.3501 -2.60497 0
M  V30 9460 C 1216.24 -6.80225 -1.25468 0
M  V30 9461 O 1217.04 -5.81621 -1.91066 0
M  V30 9462 C 1214.9 -7.02416 -1.9168 0
M  V30 9463 H 1214.94 -6.6888 -2.96621 0
M  V30 9464 H 1216.12 -6.53617 -0.192223 0
M  V30 9465 H 1217.6 -8.36622 -0.589963 0
M  V30 9466 H 1215.91 -10.0291 -1.79807 0
M  V30 9467 H 1215.72 -10.2138 0.558219 0
M  V30 9468 H 1214.09 -9.6579 0.0444202 0
M  V30 9469 H 1216.73 -5.69556 -2.79637 0
M  V30 9470 P 1218.59 -8.4349 -2.47671 0
M  V30 9471 O 1220.01 -8.92593 -2.65 0
M  V30 9472 O 1218.23 -7.7568 -1.19296 0
M  V30 9473 O 1218.26 -7.36886 -3.63805 0
M  V30 9474 C 1218.1 -7.95349 -4.982 0
M  V30 9475 C 1218.64 -6.94612 -5.98974 0
M  V30 9476 O 1217.59 -6.10347 -6.11815 0
M  V30 9477 C 1219.86 -6.11426 -5.62335 0
M  V30 9478 O 1220.6 -5.6162 -6.70584 0
M  V30 9479 C 1219.19 -5.04409 -4.73308 0
M  V30 9480 O 1219.99 -3.85992 -4.75183 0
M  V30 9481 C 1217.85 -4.8728 -5.41006 0
M  V30 9482 H 1217.89 -4.02333 -6.11157 0
M  V30 9483 H 1219.07 -5.39466 -3.69543 0
M  V30 9484 H 1220.55 -6.71916 -5.01943 0
M  V30 9485 H 1218.86 -7.4649 -6.93477 0
M  V30 9486 H 1218.67 -8.89416 -5.05237 0
M  V30 9487 H 1217.04 -8.14876 -5.18409 0
M  V30 9488 H 1219.68 -3.27957 -5.4317 0
M  V30 9489 P 1221.54 -5.75688 -6.64379 0
M  V30 9490 O 1222.96 -6.07627 -7.05504 0
M  V30 9491 O 1221.18 -5.88047 -5.19722 0
M  V30 9492 O 1221.21 -4.2322 -7.04443 0
M  V30 9493 C 1221.05 -3.99743 -8.4911 0
M  V30 9494 C 1221.59 -2.60516 -8.79425 0
M  V30 9495 O 1220.54 -1.82684 -8.4467 0
M  V30 9496 C 1222.81 -2.10343 -8.03628 0
M  V30 9497 O 1223.55 -1.09919 -8.67766 0
M  V30 9498 C 1222.14 -1.68446 -6.70876 0
M  V30 9499 O 1222.94 -0.678137 -6.08433 0
M  V30 9500 C 1220.8 -1.17436 -7.18567 0
M  V30 9501 H 1220.84 -0.0804732 -7.31656 0
M  V30 9502 H 1222.02 -2.54037 -6.02537 0
M  V30 9503 H 1223.5 -2.93881 -7.85526 0
M  V30 9504 H 1221.81 -2.53065 -9.86973 0
M  V30 9505 H 1221.62 -4.75072 -9.05887 0
M  V30 9506 H 1219.99 -4.05244 -8.76668 0
M  V30 9507 H 1222.63 0.177647 -6.34251 0
M  V30 9508 P 1224.49 -1.25109 -8.70152 0
M  V30 9509 O 1225.91 -1.29758 -9.22115 0
M  V30 9510 O 1224.13 -2.13714 -7.55141 0
M  V30 9511 O 1224.16 0.248149 -8.21425 0
M  V30 9512 C 1224 1.22792 -9.30533 0
M  V30 9513 C 1224.54 2.56293 -8.80664 0
M  V30 9514 O 1223.49 3.02944 -8.09255 0
M  V30 9515 C 1225.76 2.57523 -7.89775 0
M  V30 9516 O 1226.5 3.7668 -7.89438 0
M  V30 9517 C 1225.09 2.20997 -6.55446 0
M  V30 9518 O 1225.89 2.71302 -5.48691 0
M  V30 9519 C 1223.76 2.89693 -6.67988 0
M  V30 9520 N 1222.71 2.08895 -6.07487 0
M  V30 9521 C 1222.88 0.753809 -5.94137 0
M  V30 9522 N 1221.85 0.146592 -5.38801 0
M  V30 9523 C 1220.97 1.1768 -5.13693 0
M  V30 9524 C 1219.7 1.17563 -4.52477 0
M  V30 9525 N 1219.1 0.057481 -4.04759 0
M  V30 9526 N 1219.14 2.41918 -4.45789 0
M  V30 9527 C 1219.74 3.56493 -4.90792 0
M  V30 9528 N 1220.92 3.61423 -5.47817 0
M  V30 9529 C 1221.49 2.37779 -5.5588 0
M  V30 9530 H 1223.79 3.8874 -6.19774 0
M  V30 9531 H 1224.97 1.12673 -6.44018 0
M  V30 9532 H 1226.45 1.7746 -8.19711 0
M  V30 9533 H 1224.76 3.21673 -9.66791 0
M  V30 9534 H 1224.57 0.901032 -10.1892 0
M  V30 9535 H 1222.94 1.33049 -9.56592 0
M  V30 9536 H 1219.2 4.49919 -4.77947 0
M  V30 9537 H 1223.78 0.233081 -6.26266 0
M  V30 9538 H 1218.17 0.119831 -3.60801 0
M  V30 9539 H 1219.58 -0.852272 -4.12385 0
M  V30 9540 H 1225.58 3.5779 -5.23879 0
M  V30 9541 P 1227.44 3.65191 -7.99657 0
M  V30 9542 O 1228.86 3.89374 -8.45885 0
M  V30 9543 O 1227.08 2.28472 -7.50807 0
M  V30 9544 O 1227.11 4.64972 -6.77611 0
M  V30 9545 C 1226.95 6.06383 -7.16428 0
M  V30 9546 C 1227.49 6.91731 -6.02299 0
M  V30 9547 O 1226.44 6.92369 -5.17005 0
M  V30 9548 C 1228.71 6.43627 -5.25174 0
M  V30 9549 O 1229.45 7.43686 -4.60469 0
M  V30 9550 C 1228.04 5.40275 -4.31916 0
M  V30 9551 O 1228.84 5.24878 -3.14911 0
M  V30 9552 C 1226.71 6.04847 -4.05327 0
M  V30 9553 N 1225.66 5.04166 -3.98114 0
M  V30 9554 C 1225.83 3.84629 -4.59066 0
M  V30 9555 N 1224.81 3.0363 -4.45343 0
M  V30 9556 C 1223.92 3.76722 -3.68523 0
M  V30 9557 C 1222.65 3.43528 -3.17088 0
M  V30 9558 N 1222.05 2.23665 -3.37397 0
M  V30 9559 N 1222.09 4.44526 -2.44231 0
M  V30 9560 C 1222.69 5.65243 -2.20146 0
M  V30 9561 N 1223.87 6.00221 -2.65453 0
M  V30 9562 C 1224.44 5.00564 -3.39083 0
M  V30 9563 H 1226.74 6.62104 -3.11218 0
M  V30 9564 H 1227.92 4.42969 -4.80867 0
M  V30 9565 H 1229.4 5.92458 -5.93643 0
M  V30 9566 H 1227.71 7.93295 -6.39407 0
M  V30 9567 H 1227.52 6.26671 -8.0846 0
M  V30 9568 H 1225.89 6.29101 -7.32804 0
M  V30 9569 H 1222.15 6.36894 -1.5883 0
M  V30 9570 H 1226.73 3.58193 -5.14248 0
M  V30 9571 H 1221.12 2.05145 -2.97047 0
M  V30 9572 H 1222.53 1.51255 -3.92998 0
M  V30 9573 H 1228.53 5.84223 -2.47279 0
M  V30 9574 P 1230.39 7.39546 -4.75277 0
M  V30 9575 O 1231.81 7.84798 -5.01039 0
M  V30 9576 O 1230.03 5.9812 -5.08098 0
M  V30 9577 O 1230.06 7.57503 -3.1866 0
M  V30 9578 C 1229.9 8.97357 -2.74833 0
M  V30 9579 C 1230.44 9.07548 -1.32709 0
M  V30 9580 O 1229.39 8.62072 -0.606159 0
M  V30 9581 C 1231.66 8.25383 -0.938334 0
M  V30 9582 O 1232.4 8.74577 0.146954 0
M  V30 9583 C 1230.99 6.8802 -0.712559 0
M  V30 9584 O 1231.79 6.1189 0.194655 0
M  V30 9585 C 1229.66 7.27966 -0.139777 0
M  V30 9586 H 1229.69 7.25354 0.961601 0
M  V30 9587 H 1230.87 6.32557 -1.65702 0
M  V30 9588 H 1232.36 8.19355 -1.79097 0
M  V30 9589 H 1230.66 10.1294 -1.10029 0
M  V30 9590 H 1230.47 9.64276 -3.41316 0
M  V30 9591 H 1228.84 9.25417 -2.76357 0
M  V30 9592 H 1231.48 6.25267 1.07847 0
M  V30 9593 P 1233.34 8.791 1.00373e-11 0
M  V30 9594 O 1234.76 9.31096 0.027933 0
M  V30 9595 O 1232.98 7.77869 -1.04071 0
M  V30 9596 O 1233.02 8.09533 1.41463 0
M  V30 9597 C 1232.86 9.0349 2.53943 0
M  V30 9598 C 1233.4 8.35226 3.79016 0
M  V30 9599 O 1232.34 7.57992 4.15078 0
M  V30 9600 C 1234.61 7.45087 3.67298 0
M  V30 9601 O 1235.35 7.27796 4.85194 0
M  V30 9602 C 1233.94 6.17323 3.12027 0
M  V30 9603 O 1234.74 5.04231 3.47188 0
M  V30 9604 C 1232.61 6.19961 3.81809 0
M  V30 9605 H 1232.64 5.58218 4.73051 0
M  V30 9606 H 1233.82 6.21726 2.02589 0
M  V30 9607 H 1235.31 7.86112 2.9231 0
M  V30 9608 H 1233.61 9.11627 4.55076 0
M  V30 9609 H 1233.42 9.9573 2.34194 0
M  V30 9610 H 1231.79 9.2792 2.67832 0
M  V30 9611 H 1234.43 4.67702 4.28772 0
M  V30 9612 P 1236.29 7.39546 4.75277 0
M  V30 9613 O 1237.71 7.81861 5.05793 0
M  V30 9614 O 1235.93 7.1065 3.32998 0
M  V30 9615 O 1235.97 6.04542 5.56673 0
M  V30 9616 C 1235.8 6.22839 7.02169 0
M  V30 9617 C 1236.35 4.97725 7.70406 0
M  V30 9618 O 1235.29 4.13208 7.58899 0
M  V30 9619 C 1237.56 4.28231 7.11815 0
M  V30 9620 O 1238.3 3.49945 8.01648 0
M  V30 9621 C 1236.9 3.5063 5.96244 0
M  V30 9622 O 1237.69 2.37008 5.64352 0
M  V30 9623 C 1235.56 3.15122 6.56374 0
M  V30 9624 N 1234.51 3.22311 5.55692 0
M  V30 9625 C 1234.68 3.99655 4.46046 0
M  V30 9626 N 1233.66 3.97599 3.63918 0
M  V30 9627 C 1232.77 3.11159 4.25334 0
M  V30 9628 C 1231.5 2.64972 3.85157 0
M  V30 9629 N 1230.94 1.78482 4.74759 0
M  V30 9630 C 1231.54 1.37463 5.90819 0
M  V30 9631 N 1232.72 1.7733 6.31889 0
M  V30 9632 C 1233.29 2.64393 5.43725 0
M  V30 9633 H 1236.77 4.12931 5.06895 0
M  V30 9634 H 1238.26 5.03285 6.70911 0
M  V30 9635 H 1236.56 5.20001 8.76217 0
M  V30 9636 H 1236.37 7.11046 7.35349 0
M  V30 9637 H 1234.74 6.35815 7.26986 0
M  V30 9638 H 1235.58 4.58037 4.27732 0
M  V30 9639 H 1237.38 1.61619 6.13468 0
M  V30 9640 P 1239.24 3.65191 7.99657 0
M  V30 9641 O 1240.66 3.8425 8.48115 0
M  V30 9642 O 1238.88 4.17805 6.64342 0
M  V30 9643 O 1238.92 2.07613 7.95143 0
M  V30 9644 C 1238.76 1.44328 9.27336 0
M  V30 9645 C 1239.3 0.0220036 9.17197 0
M  V30 9646 O 1238.24 -0.626867 8.61923 0
M  V30 9647 C 1240.51 -0.24586 8.30336 0
M  V30 9648 O 1241.25 -1.39011 8.63583 0
M  V30 9649 C 1239.85 -0.273849 6.91158 0
M  V30 9650 O 1240.64 -1.06348 6.02892 0
M  V30 9651 C 1238.51 -0.897649 7.22545 0
M  V30 9652 H 1238.54 -1.9841 7.04286 0
M  V30 9653 H 1239.72 0.739928 6.497 0
M  V30 9654 H 1241.21 0.60668 8.36503 0
M  V30 9655 H 1239.51 -0.352479 10.1829 0
M  V30 9656 H 1239.32 2.00611 10.0304 0
M  V30 9657 H 1237.69 1.41843 9.55327 0
M  V30 9658 H 1240.33 -1.95734 6.03555 0
M  V30 9659 P 1242.19 -1.25109 8.70152 0
M  V30 9660 O 1243.61 -1.35274 9.21221 0
M  V30 9661 O 1241.83 -0.0769065 7.84762 0
M  V30 9662 O 1241.87 -2.55232 7.81161 0
M  V30 9663 C 1241.71 -3.79939 8.58154 0
M  V30 9664 C 1242.25 -4.94023 7.72785 0
M  V30 9665 O 1241.19 -5.18726 6.91205 0
M  V30 9666 C 1243.46 -4.69597 6.85231 0
M  V30 9667 O 1244.2 -5.83832 6.51337 0
M  V30 9668 C 1242.8 -3.96706 5.66633 0
M  V30 9669 O 1243.59 -4.15414 4.49689 0
M  V30 9670 C 1241.46 -4.66153 5.59313 0
M  V30 9671 H 1241.49 -5.47679 4.85214 0
M  V30 9672 H 1242.67 -2.89008 5.86566 0
M  V30 9673 H 1244.16 -4.0121 7.36511 0
M  V30 9674 H 1242.46 -5.80182 8.37584 0
M  V30 9675 H 1242.27 -3.73517 9.52265 0
M  V30 9676 H 1240.64 -3.97163 8.80359 0
M  V30 9677 H 1243.28 -4.90969 4.01921 0
M  V30 9678 P 1245.14 -5.75688 6.64379 0
M  V30 9679 O 1246.56 -6.11849 7.01846 0
M  V30 9680 O 1244.78 -4.30744 6.56026 0
M  V30 9681 O 1244.82 -6.37042 5.19165 0
M  V30 9682 C 1244.66 -7.83578 5.16515 0
M  V30 9683 C 1245.2 -8.33398 3.83019 0
M  V30 9684 O 1244.14 -8.10074 3.01034 0
M  V30 9685 C 1246.42 -7.65514 3.2257 0
M  V30 9686 O 1247.15 -8.4329 2.32297 0
M  V30 9687 C 1245.75 -6.40075 2.62207 0
M  V30 9688 O 1246.55 -5.92589 1.53712 0
M  V30 9689 C 1244.41 -6.9454 2.18503 0
M  V30 9690 H 1244.44 -7.23063 1.12091 0
M  V30 9691 H 1245.62 -5.6025 3.37201 0
M  V30 9692 H 1247.11 -7.35707 4.02681 0
M  V30 9693 H 1245.41 -9.40912 3.9095 0
M  V30 9694 H 1245.22 -8.29056 5.99158 0
M  V30 9695 H 1243.59 -8.10073 5.25882 0
M  V30 9696 H 1246.23 -6.30324 0.726794 0
M  V30 9697 P 1248.09 -8.4349 2.47671 0
M  V30 9698 O 1249.51 -8.94359 2.59696 0
M  V30 9699 O 1247.73 -7.1704 3.19006 0
M  V30 9700 O 1247.77 -8.16596 0.923387 0
M  V30 9701 C 1247.61 -9.38437 0.108857 0
M  V30 9702 C 1248.15 -9.08076 -1.28339 0
M  V30 9703 O 1247.09 -8.44229 -1.84713 0
M  V30 9704 C 1249.37 -8.18386 -1.42505 0
M  V30 9705 O 1250.1 -8.3501 -2.60497 0
M  V30 9706 C 1248.7 -6.80225 -1.25468 0
M  V30 9707 O 1249.5 -5.81526 -1.91035 0
M  V30 9708 C 1247.36 -7.02416 -1.9168 0
M  V30 9709 N 1246.32 -6.31033 -1.20314 0
M  V30 9710 C 1246.38 -6.18781 0.121293 0
M  V30 9711 N 1245.33 -5.49762 0.588272 0
M  V30 9712 C 1244.6 -5.22015 -0.488988 0
M  V30 9713 C 1243.29 -4.61966 -0.596448 0
M  V30 9714 O 1242.56 -4.19162 0.309059 0
M  V30 9715 N 1242.86 -4.53773 -1.878 0
M  V30 9716 C 1243.61 -4.99623 -2.99082 0
M  V30 9717 N 1243.02 -4.78912 -4.21227 0
M  V30 9718 N 1244.77 -5.59957 -2.91093 0
M  V30 9719 C 1245.22 -5.70225 -1.64218 0
M  V30 9720 H 1247.39 -6.6888 -2.96621 0
M  V30 9721 H 1248.58 -6.53517 -0.192194 0
M  V30 9722 H 1250.06 -8.36563 -0.598329 0
M  V30 9723 H 1248.37 -10.0291 -1.79807 0
M  V30 9724 H 1248.18 -10.2138 0.558219 0
M  V30 9725 H 1246.54 -9.6579 0.0444202 0
M  V30 9726 H 1241.97 -4.12883 -2.05283 0
M  V30 9727 H 1247.18 -6.59596 0.745856 0
M  V30 9728 H 1242.11 -4.31425 -4.2628 0
M  V30 9729 H 1243.48 -5.11219 -5.07148 0
M  V30 9730 H 1249.19 -5.69466 -2.79593 0
M  V30 9731 H 1251.74 -7.91782 -2.28882 0
M  V30 END ATOM
M  V30 BEGIN BOND
M  V30 END BOND
M  V30 END CTAB
M  END
$$$$
