drugbank_target|P61182 50S ribosomal protein L22 (DB12825)
 OpenBabel12092121203D

  0  0  0     0  0            999 V3000
M  V30 BEGIN CTAB
M  V30 COUNTS 1768 1777 0 0 0
M  V30 BEGIN ATOM
M  V30 1 H -0.908 1.98254 -0.117106 0
M  V30 2 N 0 1.576 0 0
M  V30 3 C 0.933 2.03868 1.02534 0
M  V30 4 C 1.911 0.928543 1.3348 0
M  V30 5 O 3.095 1.19667 1.45644 0
M  V30 6 C 0.222 2.43627 2.35294 0
M  V30 7 C -0.732 3.65373 2.2001 0
M  V30 8 S 0.101 5.13292 1.52614 0
M  V30 9 C 1.257 5.56322 2.86805 0
M  V30 10 H 1.49 2.90518 0.631377 0
M  V30 11 H -0.977 1.52953 0.210867 0
M  V30 12 H 0.981 2.67203 3.11629 0
M  V30 13 H -0.358 1.57376 2.7183 0
M  V30 14 H -1.165 3.90944 3.18086 0
M  V30 15 H -1.563 3.418 1.51819 0
M  V30 16 H 0.729 5.58782 3.83104 0
M  V30 17 H 1.672 6.56266 2.65933 0
M  V30 18 H 2.08 4.83886 2.90714 0
M  V30 19 N 1.4781 -0.272755 1.55222 0
M  V30 20 C 2.4411 -1.32041 1.87344 0
M  V30 21 C 3.4411 -1.42342 0.74803 0
M  V30 22 O 4.6311 -1.41488 1.0162 0
M  V30 23 C 1.7631 -2.70173 2.07893 0
M  V30 24 H 2.9561 -1.04789 2.80997 0
M  V30 25 H 0.5091 -0.51083 1.47717 0
M  V30 26 H 1.2441 -3.02605 1.16622 0
M  V30 27 H 1.0291 -2.64082 2.89833 0
M  V30 28 H 2.5191 -3.45869 2.34017 0
M  V30 29 N 2.9562 -1.48159 -0.537278 0
M  V30 30 C 3.8662 -1.64807 -1.6696 0
M  V30 31 C 4.8822 -0.530651 -1.65711 0
M  V30 32 O 6.0582 -0.800784 -1.84796 0
M  V30 33 C 3.1232 -1.67708 -3.03438 0
M  V30 34 C 2.1842 -2.91025 -3.156 0
M  V30 35 C 1.4172 -2.93778 -4.45567 0
M  V30 36 O 1.6402 -2.05153 -5.3223 0
M  V30 37 O 0.5742 -3.85868 -4.61941 0
M  V30 38 H 4.4002 -2.6066 -1.55853 0
M  V30 39 H 1.9852 -1.31475 -0.709549 0
M  V30 40 H 3.8672 -1.7218 -3.84619 0
M  V30 41 H 2.5422 -0.750278 -3.14885 0
M  V30 42 H 1.4492 -2.92089 -2.33741 0
M  V30 43 H 2.7822 -3.83065 -3.09066 0
M  V30 44 N 4.4343 0.785586 -1.36625 0
M  V30 45 C 5.6833 1.53883 -1.30396 0
M  V30 46 C 5.9963 1.95271 0.113452 0
M  V30 47 O 7.2023 2.69858 0.298142 0
M  V30 48 C 5.6583 2.77808 -2.28802 0
M  V30 49 C 5.2663 2.43574 -3.75999 0
M  V30 50 C 7.0103 3.55783 -2.31558 0
M  V30 51 C 4.9173 3.63919 -4.66173 0
M  V30 52 H 3.8473 0.577678 -0.484566 0
M  V30 53 H 6.4983 0.861705 -1.62009 0
M  V30 54 H 4.8803 3.47339 -1.90188 0
M  V30 55 H 6.0543 1.81916 -4.23371 0
M  V30 56 H 4.3693 1.78803 -3.76056 0
M  V30 57 H 6.9663 4.45205 -2.96137 0
M  V30 58 H 7.3093 3.94644 -1.3252 0
M  V30 59 H 7.8423 2.93235 -2.68809 0
M  V30 60 H 4.5813 3.3015 -5.66287 0
M  V30 61 H 4.1013 4.2473 -4.23515 0
M  V30 62 H 5.7803 4.30901 -4.82632 0
M  V30 63 N 5.9124 1.20967 1.01018 0
M  V30 64 C 7.1404 1.04956 1.78303 0
M  V30 65 C 7.5554 -0.400915 1.84494 0
M  V30 66 O 6.9124 -1.27826 1.30257 0
M  V30 67 C 6.9634 1.63403 3.22462 0
M  V30 68 O 6.6844 3.02775 3.16637 0
M  V30 69 C 8.1854 1.52432 4.16268 0
M  V30 70 H 5.4054 0.368858 0.560522 0
M  V30 71 H 7.9494 1.60193 1.27116 0
M  V30 72 H 6.1044 1.1227 3.70775 0
M  V30 73 H 6.5184 3.30626 4.07169 0
M  V30 74 H 7.9924 1.98078 5.15237 0
M  V30 75 H 8.4694 0.477875 4.36592 0
M  V30 76 H 9.0754 2.02787 3.73841 0
M  V30 77 N 7.3905 -1.2043 1.01659 0
M  V30 78 C 8.6155 -1.94318 0.724942 0
M  V30 79 C 9.0405 -1.74266 -0.708034 0
M  V30 80 O 8.3985 -1.03694 -1.48719 0
M  V30 81 C 8.4465 -3.44486 1.06591 0
M  V30 82 O 7.5505 -4.12017 0.177599 0
M  V30 83 H 6.8915 -0.60708 0.26898 0
M  V30 84 H 9.4215 -1.52861 1.35995 0
M  V30 85 H 9.4315 -3.95106 1.01762 0
M  V30 86 H 8.1065 -3.58404 2.10997 0
M  V30 87 H 6.6835 -3.71821 0.283421 0
M  V30 88 N 8.8686 -0.792821 -1.36206 0
M  V30 89 C 9.8316 -0.199459 -2.2833 0
M  V30 90 C 10.8316 0.605189 -1.48977 0
M  V30 91 O 12.0216 0.425685 -1.68919 0
M  V30 92 C 9.1536 0.723523 -3.33134 0
M  V30 93 H 10.3466 -1.01181 -2.82316 0
M  V30 94 H 7.8996 -0.562485 -1.45828 0
M  V30 95 H 8.6346 1.56008 -2.84309 0
M  V30 96 H 8.4196 0.148436 -3.91819 0
M  V30 97 H 9.9096 1.13344 -4.01924 0
M  V30 98 N 10.3467 1.47872 -0.545128 0
M  V30 99 C 11.2937 2.29849 0.2093 0
M  V30 100 C 12.2637 1.38313 0.919707 0
M  V30 101 O 13.4487 1.67277 0.917772 0
M  V30 102 C 10.5887 3.22019 1.24088 0
M  V30 103 C 9.7017 4.2864 0.537778 0
M  V30 104 C 8.8367 5.07973 1.5536 0
M  V30 105 C 7.8757 6.06381 0.8348 0
M  V30 106 N 7.0127 6.78717 1.79688 0
M  V30 107 H 11.8527 2.93845 -0.49591 0
M  V30 108 H 9.3897 1.44848 -0.256389 0
M  V30 109 H 11.3477 3.73868 1.85144 0
M  V30 110 H 9.9777 2.59914 1.91428 0
M  V30 111 H 9.0297 3.7994 -0.187046 0
M  V30 112 H 10.3417 4.98793 -0.0258907 0
M  V30 113 H 9.4957 5.63912 2.23803 0
M  V30 114 H 8.2347 4.37693 2.15118 0
M  V30 115 H 7.2397 5.49631 0.136388 0
M  V30 116 H 8.4647 6.78665 0.24313 0
M  V30 117 H 6.4107 6.11177 2.38326 0
M  V30 118 H 6.3277 7.44998 1.28505 0
M  V30 119 H 7.5957 7.39237 2.47282 0
M  V30 120 N 11.8248 0.280983 1.55075 0
M  V30 121 C 12.7878 -0.590896 2.21452 0
M  V30 122 C 13.7878 -1.07682 1.19421 0
M  V30 123 O 14.9778 -0.97605 1.44288 0
M  V30 124 C 12.1098 -1.81587 2.88511 0
M  V30 125 H 13.3028 -0.0112554 2.99898 0
M  V30 126 H 10.8558 0.0316438 1.56268 0
M  V30 127 H 11.5908 -2.43587 2.14093 0
M  V30 128 H 11.3758 -1.4753 3.63287 0
M  V30 129 H 12.8658 -2.43575 3.39206 0
M  V30 130 N 13.3029 -1.57598 0.00835791 0
M  V30 131 C 14.2359 -2.04409 -1.01451 0
M  V30 132 C 15.2139 -0.935609 -1.32985 0
M  V30 133 O 16.3979 -1.20437 -1.45007 0
M  V30 134 C 13.5249 -2.44872 -2.33999 0
M  V30 135 C 12.5709 -3.66535 -2.18069 0
M  V30 136 S 13.4039 -5.14095 -1.4989 0
M  V30 137 C 14.5599 -5.57835 -2.8385 0
M  V30 138 H 14.7929 -2.90849 -0.615961 0
M  V30 139 H 12.3259 -1.53063 -0.202752 0
M  V30 140 H 14.2839 -2.68852 -3.10208 0
M  V30 141 H 12.9449 -1.58815 -2.70992 0
M  V30 142 H 12.1379 -3.92626 -3.16008 0
M  V30 143 H 11.7399 -3.426 -1.50004 0
M  V30 144 H 14.0319 -5.60806 -3.80136 0
M  V30 145 H 14.9749 -6.57667 -2.62449 0
M  V30 146 H 15.3829 -4.85421 -2.88144 0
M  V30 147 N 14.781 0.264519 -1.55364 0
M  V30 148 C 15.744 1.31046 -1.88042 0
M  V30 149 C 16.744 1.41943 -0.755569 0
M  V30 150 O 17.934 1.40947 -1.02369 0
M  V30 151 C 15.066 2.69067 -2.09323 0
M  V30 152 H 16.259 1.03297 -2.81549 0
M  V30 153 H 13.812 0.502989 -1.47986 0
M  V30 154 H 14.547 3.01982 -1.18226 0
M  V30 155 H 14.332 2.62542 -2.91229 0
M  V30 156 H 15.822 3.44623 -2.35848 0
M  V30 157 N 16.2591 1.48442 0.529413 0
M  V30 158 C 17.6751 1.34575 0.858004 0
M  V30 159 C 17.8751 0.3572 1.98309 0
M  V30 160 O 16.9311 -0.221379 2.51528 0
M  V30 161 C 18.2441 2.74617 1.22499 0
M  V30 162 C 19.7921 2.83109 1.33484 0
M  V30 163 C 20.2671 4.23854 1.73526 0
M  V30 164 N 21.7581 4.2653 1.80628 0
M  V30 165 C 22.4931 5.32372 2.12997 0
M  V30 166 N 21.9891 6.48491 2.43786 0
M  V30 167 N 23.7821 5.19766 2.14008 0
M  V30 168 H 15.9331 2.1133 -0.212925 0
M  V30 169 H 18.1961 0.947439 -0.0326199 0
M  V30 170 H 17.9021 3.4852 0.471905 0
M  V30 171 H 17.7761 3.08177 2.17501 0
M  V30 172 H 20.1631 2.09462 2.0787 0
M  V30 173 H 20.2441 2.53168 0.366027 0
M  V30 174 H 19.8881 4.98018 0.997013 0
M  V30 175 H 19.8181 4.5124 2.71459 0
M  V30 176 H 22.3091 3.42772 1.59108 0
M  V30 177 H 22.6221 7.24993 2.67592 0
M  V30 178 H 20.9671 6.51765 2.41304 0
M  V30 179 H 24.1581 4.28066 1.89412 0
M  V30 180 H 24.3311 6.02354 2.38902 0
M  V30 181 N 17.7372 -0.778329 1.37039 0
M  V30 182 C 18.9652 -1.56734 1.35063 0
M  V30 183 C 19.3802 -1.88686 -0.0655597 0
M  V30 184 O 18.7372 -1.5096 -1.02554 0
M  V30 185 C 18.7882 -2.88163 2.18276 0
M  V30 186 O 18.5092 -2.57583 3.54376 0
M  V30 187 C 20.0102 -3.82422 2.24206 0
M  V30 188 H 17.2302 -0.485778 0.462883 0
M  V30 189 H 19.7742 -0.965185 1.8029 0
M  V30 190 H 17.9292 -3.44818 1.76576 0
M  V30 191 H 18.3432 -3.41699 3.97922 0
M  V30 192 H 19.8172 -4.71667 2.86765 0
M  V30 193 H 20.2942 -4.21078 1.24861 0
M  V30 194 H 20.9002 -3.31697 2.6619 0
M  V30 195 N 19.2153 -1.21501 -1.00376 0
M  V30 196 C 20.4613 -1.03452 -1.74429 0
M  V30 197 C 20.7943 0.430764 -1.89362 0
M  V30 198 O 20.0693 1.31962 -1.42886 0
M  V30 199 C 20.3523 -1.73375 -3.15615 0
M  V30 200 C 20.2053 -3.27431 -3.08397 0
M  V30 201 C 21.5243 -1.47732 -4.14564 0
M  V30 202 H 18.6433 -0.377226 -0.633143 0
M  V30 203 H 21.2853 -1.49693 -1.17013 0
M  V30 204 H 19.4353 -1.34064 -3.64636 0
M  V30 205 H 21.1073 -3.76119 -2.67081 0
M  V30 206 H 19.3503 -3.5767 -2.45468 0
M  V30 207 H 20.0213 -3.71524 -4.08258 0
M  V30 208 H 22.4973 -1.8186 -3.74254 0
M  V30 209 H 21.3733 -1.99169 -5.11491 0
M  V30 210 H 21.6343 -0.407589 -4.40217 0
M  V30 211 N 20.6934 1.19889 -1.02296 0
M  V30 212 C 22.1094 1.41462 -0.738954 0
M  V30 213 C 22.3094 1.89721 0.678846 0
M  V30 214 O 21.3654 2.07016 1.4457 0
M  V30 215 C 22.6784 2.43083 -1.77005 0
M  V30 216 C 24.2264 2.5684 -1.78892 0
M  V30 217 C 24.7014 3.61709 -2.80945 0
M  V30 218 N 26.1924 3.69199 -2.79725 0
M  V30 219 C 26.9274 4.50019 -3.55345 0
M  V30 220 N 26.4234 5.34592 -4.40662 0
M  V30 221 N 28.2164 4.44612 -3.43914 0
M  V30 222 H 20.3674 0.868827 -1.93817 0
M  V30 223 H 22.6304 0.44399 -0.837602 0
M  V30 224 H 22.3364 2.14636 -2.78612 0
M  V30 225 H 22.2104 3.4217 -1.58744 0
M  V30 226 H 24.5974 2.84614 -0.779674 0
M  V30 227 H 24.6784 1.57927 -2.01228 0
M  V30 228 H 24.3224 3.34678 -3.82038 0
M  V30 229 H 24.2524 4.60259 -2.5587 0
M  V30 230 H 26.7434 3.08794 -2.17842 0
M  V30 231 H 27.0564 5.93363 -4.95116 0
M  V30 232 H 25.4014 5.34073 -4.44737 0
M  V30 233 H 28.5924 3.7758 -2.76679 0
M  V30 234 H 28.7654 5.0736 -4.031 0
M  V30 235 N 22.1715 0.800033 1.35784 0
M  V30 236 C 23.4175 0.377901 1.99248 0
M  V30 237 C 23.7505 -1.05052 1.63333 0
M  V30 238 O 23.0255 -1.72768 0.893385 0
M  V30 239 C 23.3085 0.553922 3.55814 0
M  V30 240 C 23.1615 2.0268 4.01548 0
M  V30 241 C 24.4805 -0.0244802 4.40093 0
M  V30 242 H 21.5995 0.138782 0.723815 0
M  V30 243 H 24.2415 1.00835 1.61035 0
M  V30 244 H 22.3915 0.0172398 3.88496 0
M  V30 245 H 24.0635 2.62536 3.79305 0
M  V30 246 H 22.3065 2.5256 3.52698 0
M  V30 247 H 22.9775 2.10087 5.10458 0
M  V30 248 H 25.4535 0.433775 4.13833 0
M  V30 249 H 24.3295 0.128637 5.48749 0
M  V30 250 H 24.5905 -1.11758 4.27741 0
M  V30 251 N 23.6496 -1.47581 0.552962 0
M  V30 252 C 24.8746 -2.07378 0.0300593 0
M  V30 253 C 25.2996 -1.40355 -1.25229 0
M  V30 254 O 24.6576 -0.477099 -1.7491 0
M  V30 255 C 24.7056 -3.60274 -0.153231 0
M  V30 256 O 23.8096 -3.94041 -1.21678 0
M  V30 257 H 23.1506 -0.662158 0.0494182 0
M  V30 258 H 25.6806 -1.89662 0.767434 0
M  V30 259 H 25.6906 -4.0633 -0.368761 0
M  V30 260 H 24.3656 -4.08455 0.783397 0
M  V30 261 H 22.9426 -3.59735 -0.982079 0
M  V30 262 N 25.1277 -0.289203 -1.54924 0
M  V30 263 C 26.5387 0.205791 -1.85562 0
M  V30 264 C 26.8897 1.54351 -1.2112 0
M  V30 265 O 26.0147 2.10435 -0.504601 0
M  V30 266 C 26.6097 0.380177 -3.3666 0
M  V30 267 C 25.1687 0.819395 -3.67373 0
M  V30 268 C 24.3157 -0.079159 -2.77187 0
M  V30 269 H 27.2667 -0.510577 -1.50262 0
M  V30 270 H 27.2877 1.21659 -3.60526 0
M  V30 271 H 26.7997 -0.593589 -3.83534 0
M  V30 272 H 24.9007 1.80413 -3.26009 0
M  V30 273 H 25.0137 0.646957 -4.74712 0
M  V30 274 H 23.3777 0.439565 -2.50878 0
M  V30 275 H 24.1607 -1.04906 -3.26878 0
M  V30 276 N 26.6058 1.57591 -0.0167156 0
M  V30 277 C 28.0218 1.55946 0.339557 0
M  V30 278 C 28.2218 1.02109 1.73713 0
M  V30 279 O 27.2778 0.662303 2.43659 0
M  V30 280 C 28.5908 3.00037 0.199499 0
M  V30 281 C 30.1388 3.11805 0.273193 0
M  V30 282 C 30.6138 4.57713 0.162068 0
M  V30 283 N 32.1048 4.6268 0.219444 0
M  V30 284 C 32.8398 5.73185 0.157054 0
M  V30 285 N 32.3358 6.92786 0.0442936 0
M  V30 286 N 34.1288 5.61707 0.21014 0
M  V30 287 H 26.2798 1.90921 -0.930758 0
M  V30 288 H 28.5428 0.877674 -0.358319 0
M  V30 289 H 28.2488 3.4333 -0.76273 0
M  V30 290 H 28.1228 3.64387 0.974786 0
M  V30 291 H 30.5098 2.68433 1.22587 0
M  V30 292 H 30.5908 2.50201 -0.532256 0
M  V30 293 H 30.2348 5.01763 -0.78714 0
M  V30 294 H 30.1648 5.17283 0.986222 0
M  V30 295 H 32.6558 3.76649 0.307246 0
M  V30 296 H 32.9688 7.728 0.00304069 0
M  V30 297 H 31.3138 6.94999 0.00968457 0
M  V30 298 H 34.5048 4.6716 0.296546 0
M  V30 299 H 34.6778 6.47807 0.158054 0
M  V30 300 N 28.0839 -0.256276 1.55502 0
M  V30 301 C 29.0309 -1.31714 1.89526 0
M  V30 302 C 30.0009 -1.4828 0.748479 0
M  V30 303 O 31.1859 -1.62416 1.00128 0
M  V30 304 C 28.3259 -2.66933 2.18725 0
M  V30 305 C 27.4389 -2.58452 3.4616 0
M  V30 306 C 26.5739 -3.85961 3.64976 0
M  V30 307 C 25.6129 -3.72059 4.86044 0
M  V30 308 N 24.7499 -4.9144 5.01429 0
M  V30 309 H 29.5899 -1.01998 2.80001 0
M  V30 310 H 27.1269 -0.492413 1.38613 0
M  V30 311 H 29.0849 -3.4563 2.33657 0
M  V30 312 H 27.7149 -2.94816 1.31466 0
M  V30 313 H 26.7669 -1.71374 3.3961 0
M  V30 314 H 28.0789 -2.44085 4.34999 0
M  V30 315 H 27.2329 -4.73101 3.79816 0
M  V30 316 H 25.9719 -4.03215 2.74353 0
M  V30 317 H 24.9769 -2.83302 4.7119 0
M  V30 318 H 26.2019 -3.56309 5.78118 0
M  V30 319 H 24.1479 -5.09072 4.13741 0
M  V30 320 H 24.0649 -4.79668 5.84341 0
M  V30 321 H 25.3329 -5.80104 5.20672 0
M  V30 322 N 29.562 -1.4872 -0.521534 0
M  V30 323 C 30.787 -1.61101 -1.30618 0
M  V30 324 C 31.212 -0.274611 -1.86085 0
M  V30 325 O 30.57 0.754937 -1.64834 0
M  V30 326 C 30.618 -2.66709 -2.4269 0
M  V30 327 O 29.722 -2.24456 -3.45967 0
M  V30 328 H 29.063 -0.539921 -0.386499 0
M  V30 329 H 31.593 -1.94767 -0.626645 0
M  V30 330 H 31.603 -2.88245 -2.88754 0
M  V30 331 H 30.278 -3.63727 -2.01682 0
M  V30 332 H 28.855 -2.13168 -3.05964 0
M  V30 333 N 31.0401 0.771051 -1.3745 0
M  V30 334 C 32.4561 1.07171 -1.18265 0
M  V30 335 C 32.6561 2.01491 -0.019287 0
M  V30 336 O 31.7121 2.44244 0.640408 0
M  V30 337 C 33.0251 1.66854 -2.50161 0
M  V30 338 C 34.5731 1.79109 -2.56689 0
M  V30 339 C 35.0481 2.42205 -3.88717 0
M  V30 340 N 36.5391 2.49655 -3.90162 0
M  V30 341 C 37.2741 2.9933 -4.8907 0
M  V30 342 N 36.7701 3.49172 -5.98374 0
M  V30 343 N 38.5631 2.9821 -4.76474 0
M  V30 344 H 30.7141 0.144796 -2.11906 0
M  V30 345 H 32.9771 0.126863 -0.939473 0
M  V30 346 H 32.6831 1.05017 -3.35655 0
M  V30 347 H 32.5571 2.6614 -2.673 0
M  V30 348 H 34.9441 2.40077 -1.71601 0
M  V30 349 H 35.0251 0.785757 -2.43433 0
M  V30 350 H 34.6691 1.81875 -4.74219 0
M  V30 351 H 34.5991 3.43345 -3.99276 0
M  V30 352 H 37.0901 2.14383 -3.11205 0
M  V30 353 H 37.4031 3.8548 -6.69795 0
M  V30 354 H 35.7481 3.47275 -6.02018 0
M  V30 355 H 38.9391 2.58572 -3.90203 0
M  V30 356 H 39.1121 3.36613 -5.53711 0
M  V30 357 N 32.5182 1.22032 0.997298 0
M  V30 358 C 33.4482 1.01065 2.10495 0
M  V30 359 C 34.4292 -0.0669542 1.69968 0
M  V30 360 O 35.6142 0.0943987 1.9397 0
M  V30 361 C 32.7442 0.582874 3.42374 0
M  V30 362 C 31.6982 1.60592 3.96729 0
M  V30 363 C 31.0242 1.03412 5.24605 0
M  V30 364 C 32.3242 2.99478 4.27914 0
M  V30 365 H 34.0182 1.93708 2.28292 0
M  V30 366 H 31.5642 0.932761 1.09707 0
M  V30 367 H 33.5172 0.423332 4.19268 0
M  V30 368 H 32.2412 -0.379213 3.24391 0
M  V30 369 H 30.9002 1.75316 3.21963 0
M  V30 370 H 30.5482 0.063518 5.0296 0
M  V30 371 H 30.2482 1.71754 5.61938 0
M  V30 372 H 31.7722 0.886066 6.04137 0
M  V30 373 H 33.1862 2.88153 4.95622 0
M  V30 374 H 31.5832 3.64903 4.76409 0
M  V30 375 H 32.6532 3.49742 3.3587 0
M  V30 376 N 33.9963 -1.19345 1.0293 0
M  V30 377 C 35.2423 -1.89318 0.727083 0
M  V30 378 C 35.5753 -1.79446 -0.742483 0
M  V30 379 O 34.8503 -1.1871 -1.54072 0
M  V30 380 C 35.1333 -3.40238 1.17942 0
M  V30 381 C 34.9863 -3.58979 2.71024 0
M  V30 382 C 36.3053 -4.33479 0.760548 0
M  V30 383 H 33.4243 -0.687475 0.265606 0
M  V30 384 H 36.0663 -1.40477 1.2793 0
M  V30 385 H 34.2163 -3.81964 0.709608 0
M  V30 386 H 35.8883 -3.26421 3.25955 0
M  V30 387 H 34.1313 -3.02018 3.11396 0
M  V30 388 H 34.8023 -4.64823 2.9773 0
M  V30 389 H 37.2783 -3.99469 1.16464 0
M  V30 390 H 36.1543 -5.37664 1.10493 0
M  V30 391 H 36.4153 -4.40813 -0.337063 0
M  V30 392 N 35.4744 -0.807222 -1.35358 0
M  V30 393 C 36.4044 -0.232509 -2.3234 0
M  V30 394 C 37.3854 0.642386 -1.57504 0
M  V30 395 O 38.5704 0.572526 -1.85569 0
M  V30 396 C 35.7004 0.619238 -3.41735 0
M  V30 397 C 34.6544 -0.157215 -4.27711 0
M  V30 398 C 33.9804 0.816273 -5.28433 0
M  V30 399 C 35.2804 -1.35656 -5.04376 0
M  V30 400 H 36.9744 -1.04276 -2.80654 0
M  V30 401 H 34.5204 -0.50288 -1.34934 0
M  V30 402 H 36.4734 1.03137 -4.08584 0
M  V30 403 H 35.1974 1.46239 -2.92031 0
M  V30 404 H 33.8564 -0.550525 -3.62443 0
M  V30 405 H 33.5044 1.65494 -4.74996 0
M  V30 406 H 33.2044 0.301067 -5.86828 0
M  V30 407 H 34.7284 1.22659 -5.98153 0
M  V30 408 H 36.1424 -1.01927 -5.64166 0
M  V30 409 H 34.5394 -1.8063 -5.7227 0
M  V30 410 H 35.6094 -2.14288 -4.34981 0
M  V30 411 N 36.9525 1.47285 -0.560781 0
M  V30 412 C 38.2295 1.9558 0.0277798 0
M  V30 413 C 38.6095 1.5034 1.48192 0
M  V30 414 O 37.9575 0.743882 2.16052 0
M  V30 415 C 38.1675 3.48789 -0.121418 0
M  V30 416 C 39.5155 4.24594 0.0220912 0
M  V30 417 O 40.5395 3.56166 -0.0491439 0
M  V30 418 O 39.3985 5.46217 0.175958 0
M  V30 419 H 36.4925 0.824663 0.0621342 0
M  V30 420 H 39.0385 1.5767 -0.627556 0
M  V30 421 H 37.8105 3.74533 -1.13316 0
M  V30 422 H 37.4335 3.93473 0.571366 0
M  V30 423 N 38.4306 0.297415 1.54768 0
M  V30 424 C 39.3786 -0.596051 2.24833 0
M  V30 425 C 40.3726 -1.13992 1.25308 0
M  V30 426 O 41.5786 -1.09098 1.4317 0
M  V30 427 H 37.9536 -0.210814 0.721846 0
M  V30 428 H 39.9246 0.0174667 2.98395 0
M  V30 429 C 38.6736 -1.75818 2.99972 0
M  V30 430 H 37.9966 -1.3489 3.76357 0
M  V30 431 H 39.4366 -2.35949 3.52284 0
M  V30 432 C 37.8956 -2.66014 2.06732 0
M  V30 433 O 38.4256 -3.67009 1.63302 0
M  V30 434 N 36.6316 -2.33669 1.72763 0
M  V30 435 H 36.1786 -1.51586 2.08277 0
M  V30 436 H 36.1366 -2.94285 1.10652 0
M  V30 437 N 39.9087 -1.5758 0.0250728 0
M  V30 438 C 41.1577 -1.90811 -0.653767 0
M  V30 439 C 41.4707 -0.90273 -1.73523 0
M  V30 440 O 42.6767 -1.12614 -2.47043 0
M  V30 441 C 41.1327 -3.38804 -1.21409 0
M  V30 442 C 40.7407 -4.47692 -0.166126 0
M  V30 443 C 42.4847 -3.81108 -1.86967 0
M  V30 444 C 40.3917 -5.86779 -0.737856 0
M  V30 445 H 39.3217 -0.712063 -0.247956 0
M  V30 446 H 41.9727 -1.83281 0.0897137 0
M  V30 447 H 40.3547 -3.41252 -2.00905 0
M  V30 448 H 41.5287 -4.56797 0.606079 0
M  V30 449 H 39.8437 -4.14565 0.390466 0
M  V30 450 H 42.4407 -4.82375 -2.30692 0
M  V30 451 H 42.7837 -3.15953 -2.71071 0
M  V30 452 H 43.3167 -3.81065 -1.14167 0
M  V30 453 H 40.0557 -6.55468 0.0649577 0
M  V30 454 H 39.5757 -5.81288 -1.47864 0
M  V30 455 H 41.2547 -6.35223 -1.22884 0
M  V30 456 N 41.3868 0.248026 -1.55636 0
M  V30 457 C 42.8028 0.596483 -1.48035 0
M  V30 458 C 43.0028 1.88386 -0.715039 0
M  V30 459 O 42.0588 2.51319 -0.243944 0
M  V30 460 C 43.3718 0.700258 -2.92433 0
M  V30 461 C 44.9198 0.792659 -3.02797 0
M  V30 462 C 45.3948 0.928005 -4.485 0
M  V30 463 N 46.8858 0.992903 -4.52433 0
M  V30 464 C 47.6208 1.11687 -5.62418 0
M  V30 465 N 47.1168 1.20645 -6.82214 0
M  V30 466 N 48.9098 1.14994 -5.50212 0
M  V30 467 H 41.0608 -0.597109 -2.03834 0
M  V30 468 H 43.3238 -0.205925 -0.925364 0
M  V30 469 H 43.0298 -0.175658 -3.51261 0
M  V30 470 H 42.9038 1.57255 -3.42857 0
M  V30 471 H 45.2908 1.65903 -2.4405 0
M  V30 472 H 45.3718 -0.104762 -2.55585 0
M  V30 473 H 45.0158 0.0661971 -5.07857 0
M  V30 474 H 44.9458 1.84045 -4.93391 0
M  V30 475 H 47.4368 0.935064 -3.66149 0
M  V30 476 H 47.7498 1.30008 -7.61786 0
M  V30 477 H 46.0948 1.17605 -6.84977 0
M  V30 478 H 49.2858 1.07643 -4.55555 0
M  V30 479 H 49.4588 1.24311 -6.35965 0
M  V30 480 N 42.8649 1.48995 0.513639 0
M  V30 481 C 44.1129 1.57531 1.26604 0
M  V30 482 C 44.4339 0.258236 1.93283 0
M  V30 483 O 43.7039 -0.721502 1.8213 0
M  V30 484 H 42.2839 0.580387 0.470276 0
M  V30 485 H 44.9459 1.85552 0.596373 0
M  V30 486 H 44.0419 2.36486 2.03669 0
M  V30 487 N 44.343 -0.763751 1.37857 0
M  V30 488 C 45.29 -1.87726 1.34267 0
M  V30 489 C 46.26 -1.64807 0.206879 0
M  V30 490 O 47.445 -1.86613 0.397508 0
M  V30 491 C 44.585 -3.24896 1.16346 0
M  V30 492 C 43.698 -3.59716 2.39225 0
M  V30 493 C 42.833 -4.86137 2.14114 0
M  V30 494 C 41.872 -5.13711 3.32817 0
M  V30 495 N 41.009 -6.31323 3.07206 0
M  V30 496 H 45.849 -1.90129 2.29466 0
M  V30 497 H 43.386 -0.929433 1.14017 0
M  V30 498 H 45.344 -4.04036 1.03975 0
M  V30 499 H 43.974 -3.21847 0.247909 0
M  V30 500 H 43.026 -2.75498 2.62307 0
M  V30 501 H 44.338 -3.76027 3.27728 0
M  V30 502 H 43.492 -5.73198 1.9882 0
M  V30 503 H 42.231 -4.71945 1.22961 0
M  V30 504 H 41.236 -4.25123 3.48641 0
M  V30 505 H 42.461 -5.29807 4.24832 0
M  V30 506 H 40.407 -6.18474 2.1869 0
M  V30 507 H 40.324 -6.48087 3.89254 0
M  V30 508 H 41.592 -7.213 2.95546 0
M  V30 509 N 45.8211 -1.22559 -0.990812 0
M  V30 510 C 47.0461 -1.07862 -1.77145 0
M  V30 511 C 47.4711 0.366447 -1.84496 0
M  V30 512 O 46.8291 1.26478 -1.29896 0
M  V30 513 C 46.8771 -1.69686 -3.18181 0
M  V30 514 O 45.9811 -0.951946 -4.01263 0
M  V30 515 H 45.3221 -0.378712 -0.545411 0
M  V30 516 H 47.8521 -1.62399 -1.2445 0
M  V30 517 H 47.8621 -1.74496 -3.68802 0
M  V30 518 H 46.5371 -2.74841 -3.12146 0
M  V30 519 H 45.1141 -0.980011 -3.59792 0
M  V30 520 N 47.2992 1.18797 -1.03562 0
M  V30 521 C 48.5452 1.8893 -0.737113 0
M  V30 522 C 48.8782 1.79837 0.732956 0
M  V30 523 O 48.1532 1.19525 1.5344 0
M  V30 524 C 48.4362 3.39607 -1.19745 0
M  V30 525 C 48.2892 3.57537 -2.72924 0
M  V30 526 C 49.6082 4.33069 -0.783526 0
M  V30 527 H 46.7272 0.686057 -0.269249 0
M  V30 528 H 49.3692 1.39797 -1.28673 0
M  V30 529 H 47.5192 3.81583 -0.729855 0
M  V30 530 H 49.1912 3.24688 -3.27682 0
M  V30 531 H 47.4342 3.00363 -3.12993 0
M  V30 532 H 48.1052 4.63238 -3.00191 0
M  V30 533 H 50.5812 3.98846 -1.18581 0
M  V30 534 H 49.4572 5.3707 -1.13343 0
M  V30 535 H 49.7182 4.40986 0.313681 0
M  V30 536 N 48.7773 0.814389 1.34928 0
M  V30 537 C 49.7403 0.235759 2.27984 0
M  V30 538 C 50.7403 -0.581412 1.49921 0
M  V30 539 O 51.9303 -0.398758 1.69575 0
M  V30 540 C 49.0623 -0.670433 3.34242 0
M  V30 541 H 50.2553 1.05659 2.80671 0
M  V30 542 H 47.8083 0.585614 1.44915 0
M  V30 543 H 48.5433 -1.51466 2.86755 0
M  V30 544 H 48.3283 -0.0860822 3.92005 0
M  V30 545 H 49.8183 -1.06935 4.03676 0
M  V30 546 N 50.2554 -1.46986 0.568584 0
M  V30 547 C 51.5324 -1.95592 -0.0174074 0
M  V30 548 C 51.9124 -1.51124 -1.47393 0
M  V30 549 O 51.2604 -0.755329 -2.15655 0
M  V30 550 C 51.4704 -3.48719 0.139913 0
M  V30 551 C 52.8184 -4.246 0.000426376 0
M  V30 552 O 53.8424 -3.56135 0.0680316 0
M  V30 553 O 52.7014 -5.46302 -0.146988 0
M  V30 554 H 49.7954 -0.82498 -0.0577599 0
M  V30 555 H 52.3414 -1.57335 0.635909 0
M  V30 556 H 51.1134 -3.73927 1.15301 0
M  V30 557 H 50.7364 -3.93771 -0.550491 0
M  V30 558 N 51.7335 -0.305618 -1.54608 0
M  V30 559 C 52.6965 0.555591 -2.22364 0
M  V30 560 C 53.6965 1.05768 -1.21119 0
M  V30 561 O 54.8865 0.952972 -1.45822 0
M  V30 562 C 52.0185 1.76974 -2.91364 0
M  V30 563 H 53.2115 -0.0364572 -2.99878 0
M  V30 564 H 50.7645 -0.0565007 -1.56198 0
M  V30 565 H 51.4995 2.40151 -2.17941 0
M  V30 566 H 51.2845 1.41732 -3.65588 0
M  V30 567 H 52.7745 2.38148 -3.43038 0
M  V30 568 N 53.2116 1.57565 -0.0334293 0
M  V30 569 C 54.4606 1.91155 0.643639 0
M  V30 570 C 54.7736 0.91192 1.73042 0
M  V30 571 O 55.9796 1.13923 2.46442 0
M  V30 572 C 54.4356 3.39443 1.1961 0
M  V30 573 C 54.0436 4.47774 0.142381 0
M  V30 574 C 55.7876 3.82094 1.84944 0
M  V30 575 C 53.6946 5.87162 0.706727 0
M  V30 576 H 52.6246 0.713368 0.244176 0
M  V30 577 H 55.2756 1.8323 -0.0994323 0
M  V30 578 H 53.6576 3.42313 1.99092 0
M  V30 579 H 54.8316 4.56469 -0.630296 0
M  V30 580 H 53.1466 4.14352 -0.412446 0
M  V30 581 H 55.7436 4.83591 2.2813 0
M  V30 582 H 56.0866 3.17386 2.69392 0
M  V30 583 H 56.6196 3.81665 1.12145 0
M  V30 584 H 53.3586 6.55424 -0.0997178 0
M  V30 585 H 52.8786 5.82064 1.44779 0
M  V30 586 H 54.5576 6.35866 1.19514 0
M  V30 587 N 54.6897 -0.239769 1.55765 0
M  V30 588 C 55.6527 -1.28038 1.90103 0
M  V30 589 C 56.6527 -1.40723 0.778055 0
M  V30 590 O 57.8427 -1.39301 1.04599 0
M  V30 591 C 54.9747 -2.65702 2.13577 0
M  V30 592 H 56.1677 -0.988048 2.83157 0
M  V30 593 H 53.7207 -0.479382 1.48767 0
M  V30 594 H 54.4557 -3.00063 1.23015 0
M  V30 595 H 54.2407 -2.57875 2.95369 0
M  V30 596 H 55.7307 -3.40828 2.41301 0
M  V30 597 N 56.1678 -1.49265 -0.50573 0
M  V30 598 C 57.4168 -1.57761 -1.25675 0
M  V30 599 C 57.7298 -0.267371 -1.93764 0
M  V30 600 O 58.9358 -0.230827 -2.70517 0
M  V30 601 C 57.3918 -2.78332 -2.28165 0
M  V30 602 C 56.9998 -4.16096 -1.66037 0
M  V30 603 C 58.7438 -2.96155 -3.04125 0
M  V30 604 C 56.6508 -5.27895 -2.6661 0
M  V30 605 H 55.5808 -0.587391 -0.472745 0
M  V30 606 H 58.2318 -1.75644 -0.53118 0
M  V30 607 H 56.6138 -2.53934 -3.03865 0
M  V30 608 H 57.7878 -4.50612 -0.963622 0
M  V30 609 H 56.1028 -4.03591 -1.02484 0
M  V30 610 H 58.6998 -3.76849 -3.79327 0
M  V30 611 H 59.0428 -2.06534 -3.61455 0
M  V30 612 H 59.5758 -3.2057 -2.35541 0
M  V30 613 H 56.3148 -6.1956 -2.14068 0
M  V30 614 H 55.8348 -4.97839 -3.34539 0
M  V30 615 H 57.5138 -5.57031 -3.29129 0
M  V30 616 N 57.6459 0.756429 -1.3826 0
M  V30 617 C 58.5759 1.88374 -1.37976 0
M  V30 618 C 59.5569 1.68311 -0.246082 0
M  V30 619 O 60.7419 1.88944 -0.44874 0
M  V30 620 C 57.8719 3.25864 -1.20125 0
M  V30 621 C 56.8259 3.60523 -2.30666 0
M  V30 622 C 56.1519 4.9672 -1.97923 0
M  V30 623 C 57.4519 3.65692 -3.72916 0
M  V30 624 H 59.1459 1.88869 -2.32312 0
M  V30 625 H 56.6919 0.907272 -1.11824 0
M  V30 626 H 58.6449 4.0438 -1.18552 0
M  V30 627 H 57.3689 3.25841 -0.222498 0
M  V30 628 H 56.0279 2.84324 -2.3142 0
M  V30 629 H 55.6759 4.93253 -0.985393 0
M  V30 630 H 55.3759 5.20878 -2.71955 0
M  V30 631 H 56.8999 5.77618 -1.97964 0
M  V30 632 H 58.3139 4.34328 -3.74208 0
M  V30 633 H 56.7109 4.01358 -4.4613 0
M  V30 634 H 57.7809 2.65987 -4.05436 0
M  V30 635 N 59.124 1.23083 0.984299 0
M  V30 636 C 60.352 1.08714 1.76037 0
M  V30 637 C 60.767 -0.361691 1.85303 0
M  V30 638 O 60.124 -1.25034 1.32939 0
M  V30 639 C 60.175 1.70206 3.18923 0
M  V30 640 O 59.896 3.09423 3.10144 0
M  V30 641 C 61.397 1.61227 4.12941 0
M  V30 642 H 58.617 0.380664 0.552572 0
M  V30 643 H 61.161 1.62853 1.23689 0
M  V30 644 H 59.316 1.20109 3.6831 0
M  V30 645 H 59.73 3.39188 4.00065 0
M  V30 646 H 61.204 2.08962 5.10919 0
M  V30 647 H 61.681 0.570375 4.35481 0
M  V30 648 H 62.287 2.10671 3.69456 0
M  V30 649 N 60.6021 -1.18246 1.0419 0
M  V30 650 C 61.8491 -1.88257 0.746017 0
M  V30 651 C 62.1771 -1.80429 -0.726331 0
M  V30 652 O 61.4321 -1.2 -1.54591 0
M  V30 653 C 61.7311 -3.38082 1.15911 0
M  V30 654 C 61.3971 -3.66114 2.63195 0
M  V30 655 C 60.0591 -3.73474 3.03432 0
M  V30 656 C 62.4111 -3.78398 3.5842 0
M  V30 657 C 59.7391 -3.90599 4.37778 0
M  V30 658 C 62.0911 -3.97039 4.92487 0
M  V30 659 C 60.7551 -4.02635 5.32392 0
M  V30 660 H 60.0251 -0.688883 0.272987 0
M  V30 661 H 62.6721 -1.3995 1.30715 0
M  V30 662 H 60.9771 -3.88377 0.516806 0
M  V30 663 H 62.6741 -3.90596 0.907516 0
M  V30 664 H 59.2641 -3.61003 2.3103 0
M  V30 665 H 63.4481 -3.72042 3.28479 0
M  V30 666 H 58.7041 -3.93175 4.68213 0
M  V30 667 H 62.8781 -4.05486 5.66175 0
M  V30 668 H 60.5051 -4.15657 6.36501 0
M  V30 669 N 62.0802 -0.821533 -1.34494 0
M  V30 670 C 63.3082 -0.421884 -2.02553 0
M  V30 671 C 63.7232 0.971745 -1.61872 0
M  V30 672 O 63.0802 1.62864 -0.823496 0
M  V30 673 C 63.1312 -0.51285 -3.57844 0
M  V30 674 O 62.8522 -1.85155 -3.97051 0
M  V30 675 C 64.3532 -0.107921 -4.43169 0
M  V30 676 H 61.5732 -0.169482 -0.649243 0
M  V30 677 H 64.1172 -1.1093 -1.71798 0
M  V30 678 H 62.2722 0.126474 -3.87193 0
M  V30 679 H 62.6862 -1.82482 -4.91732 0
M  V30 680 H 64.1602 -0.222657 -5.51551 0
M  V30 681 H 64.6372 0.948401 -4.28838 0
M  V30 682 H 65.2432 -0.720989 -4.19144 0
M  V30 683 N 63.5583 1.46682 -0.576371 0
M  V30 684 C 64.9693 1.86112 -0.148091 0
M  V30 685 C 65.3203 1.48073 1.2872 0
M  V30 686 O 64.4453 0.892656 1.97131 0
M  V30 687 C 65.0403 3.37786 -0.261982 0
M  V30 688 C 63.5993 3.76235 0.111384 0
M  V30 689 C 62.7463 2.70713 -0.60083 0
M  V30 690 H 65.6973 1.37927 -0.78497 0
M  V30 691 H 65.7183 3.77007 0.514364 0
M  V30 692 H 65.2303 3.6544 -1.30671 0
M  V30 693 H 63.3313 3.54198 1.15649 0
M  V30 694 H 63.4443 4.78391 -0.26052 0
M  V30 695 H 61.8083 2.54666 -0.0417783 0
M  V30 696 H 62.5913 3.01208 -1.64708 0
M  V30 697 N 65.0364 0.313813 1.54444 0
M  V30 698 C 65.9844 -0.572171 2.25453 0
M  V30 699 C 66.9784 -1.12657 1.2651 0
M  V30 700 O 68.1844 -1.07573 1.44319 0
M  V30 701 H 64.5594 -0.203146 0.724041 0
M  V30 702 H 66.5304 0.0491145 2.9836 0
M  V30 703 C 65.2794 -1.72626 3.0182 0
M  V30 704 H 64.6024 -1.30891 3.77767 0
M  V30 705 H 66.0424 -2.32199 3.54767 0
M  V30 706 C 64.5014 -2.63806 2.09542 0
M  V30 707 O 65.0314 -3.65256 1.67185 0
M  V30 708 N 63.2374 -2.31824 1.75232 0
M  V30 709 H 62.7844 -1.49368 2.09873 0
M  V30 710 H 62.7424 -2.93095 1.13767 0
M  V30 711 N 66.5145 -1.57545 0.0417849 0
M  V30 712 C 67.4615 -2.10977 -0.935805 0
M  V30 713 C 68.4315 -1.01486 -1.31491 0
M  V30 714 O 69.6165 -1.2898 -1.40602 0
M  V30 715 C 66.7565 -2.65169 -2.2086 0
M  V30 716 C 65.8695 -3.88714 -1.88482 0
M  V30 717 C 65.0045 -4.31254 -3.1015 0
M  V30 718 C 64.0435 -5.47524 -2.7365 0
M  V30 719 N 63.1805 -5.85162 -3.87982 0
M  V30 720 H 68.0205 -2.94218 -0.473249 0
M  V30 721 H 65.5575 -1.45415 -0.221981 0
M  V30 722 H 67.5155 -2.94685 -2.95325 0
M  V30 723 H 66.1455 -1.8474 -2.64709 0
M  V30 724 H 65.1975 -3.65849 -1.04205 0
M  V30 725 H 66.5095 -4.73245 -1.57608 0
M  V30 726 H 65.6635 -4.62273 -3.92923 0
M  V30 727 H 64.4025 -3.45516 -3.44195 0
M  V30 728 H 63.4075 -5.16187 -1.89291 0
M  V30 729 H 64.6325 -6.34971 -2.40807 0
M  V30 730 H 62.5785 -5.02377 -4.21846 0
M  V30 731 H 62.4955 -6.64362 -3.60775 0
M  V30 732 H 63.7635 -6.20791 -4.71422 0
M  V30 733 N 67.9926 0.231505 -1.5589 0
M  V30 734 C 68.9556 1.27028 -1.90779 0
M  V30 735 C 69.9556 1.40308 -0.785507 0
M  V30 736 O 71.1456 1.38744 -1.05336 0
M  V30 737 C 68.2776 2.64566 -2.14983 0
M  V30 738 H 69.4706 0.973017 -2.83677 0
M  V30 739 H 67.0236 0.471486 -1.49019 0
M  V30 740 H 67.7586 2.99406 -1.24604 0
M  V30 741 H 67.5436 2.56305 -2.96732 0
M  V30 742 H 69.0336 3.39543 -2.43105 0
M  V30 743 N 69.4707 1.49531 0.497807 0
M  V30 744 C 70.4337 1.65916 1.58128 0
M  V30 745 C 71.4337 0.530825 1.51786 0
M  V30 746 O 72.6237 0.797342 1.54881 0
M  V30 747 C 69.7557 1.65951 2.9778 0
M  V30 748 H 70.9487 2.62556 1.44929 0
M  V30 749 H 68.5017 1.38611 0.722275 0
M  V30 750 H 69.2367 0.709065 3.16453 0
M  V30 751 H 69.0217 2.47897 3.03792 0
M  V30 752 H 70.5117 1.80673 3.76493 0
M  V30 753 N 70.9488 -0.749086 1.3866 0
M  V30 754 C 71.8588 -1.89358 1.38494 0
M  V30 755 C 72.8748 -1.71708 0.281476 0
M  V30 756 O 74.0508 -1.94554 0.520643 0
M  V30 757 C 71.1158 -3.24782 1.21316 0
M  V30 758 C 70.1768 -3.54926 2.41508 0
M  V30 759 C 69.4098 -4.83888 2.2514 0
M  V30 760 O 69.6328 -5.56592 1.24746 0
M  V30 761 O 68.5668 -5.13612 3.13826 0
M  V30 762 H 72.3928 -1.92452 2.34938 0
M  V30 763 H 69.9778 -0.894981 1.19626 0
M  V30 764 H 71.8598 -4.05739 1.13814 0
M  V30 765 H 70.5348 -3.2249 0.279592 0
M  V30 766 H 69.4418 -2.74112 2.54585 0
M  V30 767 H 70.7748 -3.61983 3.3351 0
M  V30 768 N 72.4269 -1.23603 -0.977757 0
M  V30 769 C 73.6759 -1.06377 -1.71368 0
M  V30 770 C 73.9889 0.399062 -1.91486 0
M  V30 771 O 75.1949 0.691312 -2.62551 0
M  V30 772 C 73.6509 -1.85512 -3.08404 0
M  V30 773 C 73.2589 -3.36141 -2.96164 0
M  V30 774 C 75.0029 -1.76783 -3.85938 0
M  V30 775 C 72.9099 -4.07659 -4.28449 0
M  V30 776 H 71.8399 -0.394452 -0.642591 0
M  V30 777 H 74.4909 -1.47594 -1.09034 0
M  V30 778 H 72.8729 -1.37103 -3.71509 0
M  V30 779 H 74.0469 -3.92056 -2.42133 0
M  V30 780 H 72.3619 -3.45712 -2.32104 0
M  V30 781 H 74.9589 -2.27526 -4.83876 0
M  V30 782 H 75.3019 -0.731116 -4.0983 0
M  V30 783 H 75.8349 -2.22818 -3.2954 0
M  V30 784 H 72.5739 -5.11648 -4.09752 0
M  V30 785 H 72.0939 -3.5653 -4.82334 0
M  V30 786 H 73.7729 -4.141 -4.97122 0
M  V30 787 N 73.905 1.17692 -1.04816 0
M  V30 788 C 75.154 1.87192 -0.751132 0
M  V30 789 C 75.467 1.8169 0.724441 0
M  V30 790 O 76.673 2.46625 1.13527 0
M  V30 791 C 75.129 3.35857 -1.29338 0
M  V30 792 C 74.737 3.4987 -2.79812 0
M  V30 793 C 76.481 4.10709 -1.07322 0
M  V30 794 C 74.388 4.92536 -3.27356 0
M  V30 795 H 73.318 0.701162 -0.277288 0
M  V30 796 H 75.969 1.32932 -1.26496 0
M  V30 797 H 74.351 3.89631 -0.707376 0
M  V30 798 H 75.525 3.06332 -3.44235 0
M  V30 799 H 73.84 2.88433 -3.00325 0
M  V30 800 H 76.437 5.15952 -1.4035 0
M  V30 801 H 76.78 4.16299 -0.0108001 0
M  V30 802 H 77.313 3.6313 -1.62423 0
M  V30 803 H 74.052 4.92119 -4.33012 0
M  V30 804 H 73.572 5.3676 -2.67673 0
M  V30 805 H 75.251 5.61288 -3.21815 0
M  V30 806 N 75.3831 0.828654 1.34056 0
M  V30 807 C 76.3131 0.269443 2.3194 0
M  V30 808 C 77.2941 -0.617247 1.58506 0
M  V30 809 O 78.4791 -0.542931 1.86456 0
M  V30 810 C 75.6091 -0.564793 3.42677 0
M  V30 811 C 74.5631 0.225241 4.27407 0
M  V30 812 C 73.8891 -0.7321 5.29664 0
M  V30 813 C 75.1891 1.43663 5.02154 0
M  V30 814 H 76.8831 1.08728 2.7896 0
M  V30 815 H 74.4291 0.524283 1.34117 0
M  V30 816 H 76.3821 -0.966233 4.10173 0
M  V30 817 H 75.1061 -1.41574 2.9432 0
M  V30 818 H 73.7651 0.608117 3.61521 0
M  V30 819 H 73.4131 -1.57916 4.77568 0
M  V30 820 H 73.1131 -0.20767 5.87233 0
M  V30 821 H 74.6371 -1.13128 6.00029 0
M  V30 822 H 76.0511 1.1089 5.62473 0
M  V30 823 H 74.4481 1.89711 5.69324 0
M  V30 824 H 75.5181 2.21181 4.31517 0
M  V30 825 N 76.8612 -1.46375 0.584142 0
M  V30 826 C 77.8082 -2.30323 -0.148286 0
M  V30 827 C 78.7782 -1.40703 -0.882713 0
M  V30 828 O 79.9632 -1.69651 -0.873099 0
M  V30 829 C 77.1032 -3.25196 -1.15507 0
M  V30 830 C 76.2162 -4.29915 -0.423943 0
M  V30 831 C 75.3512 -5.11914 -1.41838 0
M  V30 832 C 74.3902 -6.08381 -0.673736 0
M  V30 833 N 73.5272 -6.83242 -1.6163 0
M  V30 834 H 78.3672 -2.92427 0.573644 0
M  V30 835 H 75.9042 -1.44118 0.294703 0
M  V30 836 H 77.8622 -3.78646 -1.75166 0
M  V30 837 H 76.4922 -2.64898 -1.8447 0
M  V30 838 H 75.5442 -3.7931 0.287714 0
M  V30 839 H 76.8562 -4.98549 0.158128 0
M  V30 840 H 76.0102 -5.69648 -2.08773 0
M  V30 841 H 74.7492 -4.43243 -2.03438 0
M  V30 842 H 73.7542 -5.49799 0.00938483 0
M  V30 843 H 74.9792 -6.79071 -0.0631082 0
M  V30 844 H 72.9252 -6.1728 -2.22038 0
M  V30 845 H 72.8422 -7.48144 -1.08707 0
M  V30 846 H 74.1102 -7.45534 -2.27596 0
M  V30 847 N 78.3393 -0.321999 -1.54275 0
M  V30 848 C 79.5853 0.281461 -2.00837 0
M  V30 849 C 79.9183 1.51909 -1.20985 0
M  V30 850 O 79.1933 1.923 -0.291733 0
M  V30 851 C 79.4763 0.617162 -3.54772 0
M  V30 852 C 79.3293 -0.631064 -4.45351 0
M  V30 853 C 80.6483 1.43542 -4.16033 0
M  V30 854 H 77.7673 0.100826 -0.730071 0
M  V30 855 H 80.4093 -0.438268 -1.84876 0
M  V30 856 H 78.5593 1.23034 -3.68504 0
M  V30 857 H 80.2313 -1.26934 -4.43492 0
M  V30 858 H 78.4743 -1.26025 -4.15091 0
M  V30 859 H 79.1453 -0.351735 -5.50878 0
M  V30 860 H 81.6213 0.917134 -4.05867 0
M  V30 861 H 80.4973 1.63907 -5.23856 0
M  V30 862 H 80.7583 2.43108 -3.69257 0
M  V30 863 N 79.8174 1.5752 -0.0501392 0
M  V30 864 C 80.7474 2.14502 0.922566 0
M  V30 865 C 81.7284 1.06642 1.3252 0
M  V30 866 O 82.9134 1.34577 1.4001 0
M  V30 867 C 80.0434 2.68916 2.19776 0
M  V30 868 C 78.9974 3.8175 1.93523 0
M  V30 869 C 78.3234 4.22677 3.27487 0
M  V30 870 C 79.6234 5.06932 1.25765 0
M  V30 871 H 81.3174 2.9603 0.447952 0
M  V30 872 H 78.8634 1.42401 0.214024 0
M  V30 873 H 80.8164 3.07419 2.88222 0
M  V30 874 H 79.5404 1.84578 2.69441 0
M  V30 875 H 78.1994 3.43718 1.27489 0
M  V30 876 H 77.8474 3.35291 3.74952 0
M  V30 877 H 77.5474 4.98725 3.1072 0
M  V30 878 H 79.0714 4.63779 3.97166 0
M  V30 879 H 80.4854 5.42888 1.84244 0
M  V30 880 H 78.8824 5.88116 1.19328 0
M  V30 881 H 79.9524 4.84337 0.233536 0
M  V30 882 N 81.2955 -0.223234 1.56011 0
M  V30 883 C 82.2435 -1.29627 1.93131 0
M  V30 884 C 83.2375 -1.48608 0.813146 0
M  V30 885 O 84.4435 -1.49802 0.997966 0
M  V30 886 H 80.8185 -0.434563 0.613726 0
M  V30 887 H 82.7895 -0.955995 2.82672 0
M  V30 888 C 81.5385 -2.63983 2.26292 0
M  V30 889 H 80.8615 -2.50185 3.11846 0
M  V30 890 H 82.3015 -3.3788 2.56151 0
M  V30 891 C 80.7605 -3.18866 1.08747 0
M  V30 892 O 81.2905 -4.00192 0.347727 0
M  V30 893 N 79.4965 -2.77217 0.871743 0
M  V30 894 H 79.0435 -2.1119 1.47501 0
M  V30 895 H 79.0015 -3.1428 0.0869905 0
M  V30 896 N 82.7736 -1.49793 -0.48987 0
M  V30 897 C 83.9986 -1.63836 -1.27172 0
M  V30 898 C 84.4236 -0.31402 -1.8546 0
M  V30 899 O 83.7816 0.719803 -1.66399 0
M  V30 900 C 83.8296 -2.71797 -2.36978 0
M  V30 901 O 82.9336 -2.31744 -3.41128 0
M  V30 902 H 82.2746 -0.547997 -0.37496 0
M  V30 903 H 84.8046 -1.96053 -0.585191 0
M  V30 904 H 84.8146 -2.94305 -2.82575 0
M  V30 905 H 83.4896 -3.67923 -1.93921 0
M  V30 906 H 82.0666 -2.1961 -3.01373 0
M  V30 907 N 84.2517 0.741722 -1.39055 0
M  V30 908 C 85.2147 1.83733 -1.37021 0
M  V30 909 C 86.2147 1.58542 -0.268534 0
M  V30 910 O 87.4047 1.66067 -0.526076 0
M  V30 911 C 84.5367 3.2141 -1.13617 0
M  V30 912 H 85.7297 1.86941 -2.34506 0
M  V30 913 H 83.2827 0.944676 -1.24521 0
M  V30 914 H 84.0177 3.23865 -0.167863 0
M  V30 915 H 83.8027 3.4109 -1.93391 0
M  V30 916 H 85.2927 4.01477 -1.14918 0
M  V30 917 N 85.7298 1.2412 0.971189 0
M  V30 918 C 86.9758 1.08041 1.71625 0
M  V30 919 C 87.3088 -0.380407 1.90438 0
M  V30 920 O 86.5838 -1.28127 1.46334 0
M  V30 921 C 86.8668 1.81682 3.10908 0
M  V30 922 C 86.7198 3.35493 2.99608 0
M  V30 923 C 88.0388 1.58671 4.10501 0
M  V30 924 H 85.1578 0.39388 0.622919 0
M  V30 925 H 87.7998 1.52743 1.13003 0
M  V30 926 H 85.9498 1.43684 3.60953 0
M  V30 927 H 87.6218 3.83068 2.57015 0
M  V30 928 H 85.8648 3.64052 2.35899 0
M  V30 929 H 86.5358 3.82217 3.98264 0
M  V30 930 H 89.0118 1.91719 3.69301 0
M  V30 931 H 87.8878 2.1266 5.06031 0
M  V30 932 H 88.1488 0.524161 4.38982 0
M  V30 933 N 87.2079 -1.17134 1.05439 0
M  V30 934 C 88.1709 -2.19439 0.661764 0
M  V30 935 C 89.1709 -1.58199 -0.288042 0
M  V30 936 O 90.3609 -1.74053 -0.0715803 0
M  V30 937 C 87.4929 -3.40889 -0.0276209 0
M  V30 938 H 88.6859 -2.55688 1.56728 0
M  V30 939 H 86.2389 -1.31259 0.848567 0
M  V30 940 H 86.9739 -3.10187 -0.94629 0
M  V30 941 H 86.7589 -3.86586 0.655238 0
M  V30 942 H 88.2489 -4.16603 -0.288342 0
M  V30 943 N 88.686 -0.835752 -1.33615 0
M  V30 944 C 89.634 -0.255238 -2.31195 0
M  V30 945 C 90.628 0.61107 -1.57995 0
M  V30 946 O 91.834 0.500979 -1.72888 0
M  V30 947 H 88.209 -0.0638085 -0.749288 0
M  V30 948 H 90.18 -1.09283 -2.77669 0
M  V30 949 C 88.929 0.55754 -3.43201 0
M  V30 950 H 88.252 -0.0997553 -3.99676 0
M  V30 951 H 89.692 0.929622 -4.13683 0
M  V30 952 C 88.151 1.73515 -2.88781 0
M  V30 953 O 88.681 2.83376 -2.84712 0
M  V30 954 N 86.887 1.55603 -2.4543 0
M  V30 955 H 86.434 0.662354 -2.48939 0
M  V30 956 H 86.392 2.34545 -2.09371 0
M  V30 957 N 90.1641 1.46063 -0.591896 0
M  V30 958 C 91.1271 2.28854 0.125973 0
M  V30 959 C 92.1271 1.38903 0.810107 0
M  V30 960 O 93.3171 1.61186 0.66066 0
M  V30 961 C 90.4491 3.19526 1.1881 0
M  V30 962 H 91.6421 2.93802 -0.601717 0
M  V30 963 H 89.1951 1.52325 -0.350254 0
M  V30 964 H 89.9301 2.59345 1.94707 0
M  V30 965 H 89.7151 3.85766 0.701936 0
M  V30 966 H 91.2051 3.81817 1.69132 0
M  V30 967 N 91.6422 0.330177 1.54103 0
M  V30 968 C 92.5522 -0.541534 2.28264 0
M  V30 969 C 93.5682 -1.12351 1.32866 0
M  V30 970 O 94.7442 -1.14206 1.65888 0
M  V30 971 C 91.8092 -1.68322 3.03098 0
M  V30 972 C 90.8702 -1.13238 4.14096 0
M  V30 973 C 90.1032 -2.21966 4.85352 0
M  V30 974 O 90.3262 -3.42437 4.56172 0
M  V30 975 O 89.2602 -1.87013 5.7211 0
M  V30 976 H 93.0862 0.060938 3.03639 0
M  V30 977 H 90.6712 0.09565 1.49093 0
M  V30 978 H 92.5532 -2.34777 3.49939 0
M  V30 979 H 91.2282 -2.27176 2.30593 0
M  V30 980 H 90.1352 -0.432736 3.71589 0
M  V30 981 H 91.4682 -0.588898 4.88664 0
M  V30 982 N 93.1203 -1.57491 0.0584922 0
M  V30 983 C 94.0683 -2.13148 -0.931168 0
M  V30 984 C 95.0623 -1.06507 -1.31729 0
M  V30 985 O 96.2683 -1.24906 -1.29609 0
M  V30 986 H 92.6433 -0.68137 -0.31818 0
M  V30 987 H 94.6143 -2.95187 -0.436707 0
M  V30 988 C 93.3633 -2.69732 -2.19408 0
M  V30 989 H 92.6863 -3.51454 -1.90578 0
M  V30 990 H 94.1263 -3.12287 -2.86798 0
M  V30 991 C 92.5853 -1.63855 -2.94369 0
M  V30 992 O 93.1153 -1.05565 -3.87581 0
M  V30 993 N 91.3213 -1.35202 -2.57233 0
M  V30 994 H 90.8683 -1.82791 -1.81508 0
M  V30 995 H 90.8263 -0.645922 -3.07693 0
M  V30 996 N 94.5984 0.214957 -1.56127 0
M  V30 997 C 95.5464 1.28601 -1.93816 0
M  V30 998 C 96.5404 1.48175 -0.821016 0
M  V30 999 O 97.7464 1.49271 -1.0059 0
M  V30 1000 H 94.1214 0.431302 -0.616022 0
M  V30 1001 H 96.0924 0.940991 -2.83175 0
M  V30 1002 C 94.8414 2.62779 -2.27689 0
M  V30 1003 H 94.1644 2.48527 -3.13168 0
M  V30 1004 H 95.6044 3.36517 -2.57939 0
M  V30 1005 C 94.0634 3.18285 -1.10436 0
M  V30 1006 O 94.5934 4.00002 -0.368945 0
M  V30 1007 N 92.7994 2.7675 -0.886433 0
M  V30 1008 H 92.3464 2.10404 -1.48619 0
M  V30 1009 H 92.3044 3.14229 -0.103656 0
M  V30 1010 N 96.0765 1.50051 0.48192 0
M  V30 1011 C 97.3235 1.60498 1.23477 0
M  V30 1012 C 97.6515 0.300331 1.92167 0
M  V30 1013 O 96.9065 -0.713094 1.82246 0
M  V30 1014 C 97.2055 2.72717 2.30998 0
M  V30 1015 C 96.8715 4.13572 1.79636 0
M  V30 1016 C 95.5335 4.519 1.65348 0
M  V30 1017 C 97.8855 5.01649 1.41412 0
M  V30 1018 C 95.2135 5.76057 1.11244 0
M  V30 1019 C 97.5655 6.26343 0.887538 0
M  V30 1020 C 96.2295 6.63483 0.731207 0
M  V30 1021 H 95.4995 0.587303 0.451836 0
M  V30 1022 H 98.1465 1.83948 0.532468 0
M  V30 1023 H 96.4515 2.43312 3.07094 0
M  V30 1024 H 98.1485 2.78006 2.88988 0
M  V30 1025 H 94.7385 3.83329 1.91721 0
M  V30 1026 H 98.9225 4.72679 1.51289 0
M  V30 1027 H 94.1785 6.03516 0.978686 0
M  V30 1028 H 98.3525 6.93958 0.582654 0
M  V30 1029 H 95.9795 7.59568 0.309806 0
M  V30 1030 N 97.5546 -0.734337 1.39446 0
M  V30 1031 C 98.8026 -1.49096 1.36436 0
M  V30 1032 C 99.1236 -1.94961 -0.0388255 0
M  V30 1033 O 98.3936 -1.69033 -0.990191 0
M  V30 1034 H 96.9736 -0.5531 0.502085 0
M  V30 1035 H 99.6356 -0.871725 1.74319 0
M  V30 1036 H 98.7316 -2.37276 2.02747 0
M  V30 1037 N 99.0327 -1.24633 -0.964593 0
M  V30 1038 C 99.9627 -1.06611 -2.07741 0
M  V30 1039 C 100.944 0.0218666 -1.70086 0
M  V30 1040 O 102.129 -0.145793 -1.93652 0
M  V30 1041 C 99.2587 -0.673444 -3.40708 0
M  V30 1042 C 98.2127 -1.71054 -3.92332 0
M  V30 1043 C 97.5387 -1.17285 -5.21678 0
M  V30 1044 C 98.8387 -3.10718 -4.19824 0
M  V30 1045 H 100.533 -1.99693 -2.23076 0
M  V30 1046 H 98.0787 -0.96152 -1.07195 0
M  V30 1047 H 100.032 -0.534345 -4.17998 0
M  V30 1048 H 98.7557 0.293073 -3.25282 0
M  V30 1049 H 97.4147 -1.83791 -3.17201 0
M  V30 1050 H 97.0627 -0.196847 -5.02615 0
M  V30 1051 H 96.7627 -1.86592 -5.57187 0
M  V30 1052 H 98.2867 -1.04593 -6.01575 0
M  V30 1053 H 99.7007 -3.01192 -4.87808 0
M  V30 1054 H 98.0977 -3.77406 -4.66567 0
M  V30 1055 H 99.1677 -3.58524 -3.26479 0
M  V30 1056 N 100.511 1.16574 -1.06058 0
M  V30 1057 C 101.788 1.83048 -0.689416 0
M  V30 1058 C 102.168 1.94122 0.829443 0
M  V30 1059 O 101.516 1.48249 1.7388 0
M  V30 1060 C 101.726 3.20186 -1.38859 0
M  V30 1061 C 103.074 3.95989 -1.53226 0
M  V30 1062 O 104.098 3.29696 -1.3483 0
M  V30 1063 O 102.957 5.14813 -1.83384 0
M  V30 1064 H 100.051 0.790258 -0.243764 0
M  V30 1065 H 102.597 1.23797 -1.16071 0
M  V30 1066 H 101.369 3.07146 -2.4244 0
M  V30 1067 H 100.992 3.87112 -0.907216 0
M  V30 1068 N 101.989 0.842826 1.3317 0
M  V30 1069 C 102.936 0.276885 2.29133 0
M  V30 1070 C 103.906 -0.609527 1.54512 0
M  V30 1071 O 105.091 -0.546955 1.82792 0
M  V30 1072 C 102.231 -0.538707 3.40869 0
M  V30 1073 C 101.344 0.372169 4.30394 0
M  V30 1074 C 100.479 -0.454908 5.29249 0
M  V30 1075 C 99.5179 0.45411 6.10413 0
M  V30 1076 N 98.6549 -0.335075 7.013 0
M  V30 1077 H 103.495 1.10052 2.76934 0
M  V30 1078 H 101.032 0.554161 1.36262 0
M  V30 1079 H 102.99 -1.02709 4.0436 0
M  V30 1080 H 101.62 -1.32727 2.9425 0
M  V30 1081 H 100.672 0.97888 3.6759 0
M  V30 1082 H 101.984 1.0703 4.87182 0
M  V30 1083 H 101.138 -1.00695 5.98285 0
M  V30 1084 H 99.8769 -1.18646 4.73048 0
M  V30 1085 H 98.8819 1.01813 5.40291 0
M  V30 1086 H 100.107 1.18409 6.68697 0
M  V30 1087 H 98.0529 -1.04994 6.47543 0
M  V30 1088 H 97.9699 0.304262 7.55387 0
M  V30 1089 H 99.2379 -0.869224 7.74638 0
M  V30 1090 N 103.467 -1.45747 0.599634 0
M  V30 1091 C 104.43 -2.28917 -0.113835 0
M  V30 1092 C 105.43 -1.3933 -0.802729 0
M  V30 1093 O 106.62 -1.61534 -0.652103 0
M  V30 1094 C 103.752 -3.20152 -1.17114 0
M  V30 1095 H 104.945 -2.93478 0.617289 0
M  V30 1096 H 102.498 -1.52137 0.358327 0
M  V30 1097 H 103.233 -2.60374 -1.93329 0
M  V30 1098 H 103.018 -3.86133 -0.681468 0
M  V30 1099 H 104.508 -3.82708 -1.67105 0
M  V30 1100 N 104.945 -0.338344 -1.53925 0
M  V30 1101 C 105.893 0.536231 -2.26335 0
M  V30 1102 C 106.887 1.1063 -1.28286 0
M  V30 1103 O 108.093 1.05264 -1.46012 0
M  V30 1104 H 104.468 0.191602 -0.727181 0
M  V30 1105 H 106.439 -0.0965747 -2.98244 0
M  V30 1106 C 105.188 1.67803 -3.04528 0
M  V30 1107 H 104.511 1.24864 -3.79801 0
M  V30 1108 H 105.951 2.26526 -3.58416 0
M  V30 1109 C 104.41 2.60439 -2.13712 0
M  V30 1110 O 104.94 3.6255 -1.72975 0
M  V30 1111 N 103.146 2.29006 -1.78898 0
M  V30 1112 H 102.693 1.46011 -2.12223 0
M  V30 1113 H 102.651 2.91248 -1.18416 0
M  V30 1114 N 106.423 1.57458 -0.0668435 0
M  V30 1115 C 107.353 2.15468 0.899764 0
M  V30 1116 C 108.334 1.08042 1.31381 0
M  V30 1117 O 109.519 1.36054 1.38574 0
M  V30 1118 C 106.649 2.71232 2.16911 0
M  V30 1119 C 105.603 3.83781 1.89463 0
M  V30 1120 C 104.929 4.26127 3.22986 0
M  V30 1121 C 106.229 5.08238 1.20381 0
M  V30 1122 H 107.923 2.96488 0.416529 0
M  V30 1123 H 105.469 1.4262 0.198908 0
M  V30 1124 H 107.422 3.10458 2.84945 0
M  V30 1125 H 106.146 1.87426 2.67468 0
M  V30 1126 H 104.805 3.45051 1.23836 0
M  V30 1127 H 104.453 3.39249 3.71374 0
M  V30 1128 H 104.153 5.01993 3.05413 0
M  V30 1129 H 105.677 4.67966 3.92225 0
M  V30 1130 H 107.091 5.44811 1.78475 0
M  V30 1131 H 105.488 5.89349 1.13083 0
M  V30 1132 H 106.558 4.84558 0.182153 0
M  V30 1133 N 107.901 -0.206675 1.56239 0
M  V30 1134 C 109.147 -0.930218 1.80208 0
M  V30 1135 C 109.48 -1.83387 0.638981 0
M  V30 1136 O 108.755 -1.91119 -0.361066 0
M  V30 1137 C 109.038 -1.75641 3.1436 0
M  V30 1138 C 108.891 -0.878257 4.41142 0
M  V30 1139 C 110.21 -2.73129 3.45092 0
M  V30 1140 H 107.329 -0.336742 0.655571 0
M  V30 1141 H 109.971 -0.198222 1.88963 0
M  V30 1142 H 108.121 -2.38048 3.07027 0
M  V30 1143 H 109.793 -0.269787 4.6051 0
M  V30 1144 H 108.036 -0.184385 4.33408 0
M  V30 1145 H 108.707 -1.49106 5.3148 0
M  V30 1146 H 111.183 -2.20856 3.52649 0
M  V30 1147 H 110.059 -3.28028 4.40101 0
M  V30 1148 H 110.32 -3.51606 2.68003 0
M  V30 1149 N 109.379 -1.50304 -0.473955 0
M  V30 1150 C 110.625 -1.61389 -1.22806 0
M  V30 1151 C 110.958 -0.311955 -1.91678 0
M  V30 1152 O 110.233 0.686384 -1.81986 0
M  V30 1153 C 110.516 -2.79219 -2.27396 0
M  V30 1154 C 110.369 -4.19286 -1.62848 0
M  V30 1155 C 111.688 -2.92614 -3.28732 0
M  V30 1156 H 108.807 -0.587399 -0.445119 0
M  V30 1157 H 111.449 -1.82681 -0.522265 0
M  V30 1158 H 109.599 -2.61195 -2.87592 0
M  V30 1159 H 111.271 -4.48892 -1.06271 0
M  V30 1160 H 109.514 -4.23677 -0.931693 0
M  V30 1161 H 110.185 -4.97655 -2.38838 0
M  V30 1162 H 112.661 -3.09105 -2.78556 0
M  V30 1163 H 111.537 -3.76688 -3.99246 0
M  V30 1164 H 111.798 -2.03107 -3.92683 0
M  V30 1165 N 110.857 0.726932 -1.39834 0
M  V30 1166 C 112.082 1.52121 -1.40976 0
M  V30 1167 C 112.507 1.88098 -0.00826029 0
M  V30 1168 O 111.865 1.52479 0.980807 0
M  V30 1169 C 111.913 2.78021 -2.29644 0
M  V30 1170 O 111.017 3.74272 -1.73188 0
M  V30 1171 H 110.358 0.45908 -0.479731 0
M  V30 1172 H 112.888 0.896207 -1.83927 0
M  V30 1173 H 112.898 3.26671 -2.44438 0
M  V30 1174 H 111.573 2.51169 -3.31492 0
M  V30 1175 H 110.15 3.33073 -1.6768 0
M  V30 1176 N 112.336 1.25143 0.95797 0
M  V30 1177 C 113.246 1.06968 2.08794 0
M  V30 1178 C 114.262 0.00773911 1.73998 0
M  V30 1179 O 115.438 0.207972 2.00323 0
M  V30 1180 C 112.503 0.68691 3.39827 0
M  V30 1181 C 111.564 1.82641 3.88511 0
M  V30 1182 C 110.797 1.46181 5.1329 0
M  V30 1183 O 111.02 0.355971 5.69288 0
M  V30 1184 O 109.954 2.29085 5.566 0
M  V30 1185 H 113.78 2.01723 2.27027 0
M  V30 1186 H 111.365 1.04051 1.07209 0
M  V30 1187 H 113.247 0.485417 4.18595 0
M  V30 1188 H 111.922 -0.231417 3.22872 0
M  V30 1189 H 110.829 2.08274 3.10762 0
M  V30 1190 H 112.162 2.72386 4.09959 0
M  V30 1191 N 113.814 -1.1601 1.06675 0
M  V30 1192 C 114.777 -2.18724 0.685001 0
M  V30 1193 C 115.777 -1.58496 -0.271246 0
M  V30 1194 O 116.967 -1.74119 -0.0531156 0
M  V30 1195 C 114.099 -3.40899 0.00853648 0
M  V30 1196 H 115.292 -2.54011 1.59431 0
M  V30 1197 H 112.845 -1.30352 0.862441 0
M  V30 1198 H 113.58 -3.11173 -0.913337 0
M  V30 1199 H 113.365 -3.8587 0.696204 0
M  V30 1200 H 114.855 -4.16886 -0.24414 0
M  V30 1201 N 115.292 -0.849877 -1.32721 0
M  V30 1202 C 116.539 -0.450923 -1.97416 0
M  V30 1203 C 116.867 0.992376 -1.67279 0
M  V30 1204 O 116.122 1.71048 -0.950845 0
M  V30 1205 C 116.421 -0.631272 -3.51781 0
M  V30 1206 C 116.087 -2.04432 -4.01894 0
M  V30 1207 C 114.749 -2.4308 -4.1529 0
M  V30 1208 C 117.101 -2.96679 -4.28522 0
M  V30 1209 C 114.429 -3.73257 -4.52654 0
M  V30 1210 C 116.781 -4.26349 -4.67343 0
M  V30 1211 C 115.445 -4.64939 -4.78945 0
M  V30 1212 H 114.715 -0.165004 -0.722395 0
M  V30 1213 H 117.362 -1.07901 -1.58207 0
M  V30 1214 H 115.667 0.0800767 -3.91718 0
M  V30 1215 H 117.364 -0.302709 -3.99856 0
M  V30 1216 H 113.954 -1.73419 -3.91949 0
M  V30 1217 H 118.138 -2.68054 -4.17685 0
M  V30 1218 H 113.394 -4.02946 -4.59831 0
M  V30 1219 H 117.568 -4.97895 -4.86902 0
M  V30 1220 H 115.195 -5.65855 -5.07654 0
M  V30 1221 N 116.77 1.45427 -0.607355 0
M  V30 1222 C 117.733 2.28974 0.101693 0
M  V30 1223 C 118.733 1.39754 0.795329 0
M  V30 1224 O 119.923 1.61878 0.643527 0
M  V30 1225 C 117.055 3.20768 1.15414 0
M  V30 1226 H 118.248 2.93147 -0.632844 0
M  V30 1227 H 115.801 1.51945 -0.366391 0
M  V30 1228 H 116.536 2.61395 1.91945 0
M  V30 1229 H 116.321 3.86489 0.66098 0
M  V30 1230 H 117.811 3.83589 1.65073 0
M  V30 1231 N 118.248 0.346503 1.53744 0
M  V30 1232 C 119.196 -0.52422 2.26616 0
M  V30 1233 C 120.19 -1.09948 1.28871 0
M  V30 1234 O 121.396 -1.04488 1.46568 0
M  V30 1235 H 117.771 -0.187743 0.728187 0
M  V30 1236 H 119.742 0.11239 2.98188 0
M  V30 1237 C 118.491 -1.66186 3.05414 0
M  V30 1238 H 117.814 -1.22848 3.80458 0
M  V30 1239 H 119.254 -2.24622 3.59612 0
M  V30 1240 C 117.713 -2.59302 2.1509 0
M  V30 1241 O 118.243 -3.61628 1.74895 0
M  V30 1242 N 116.449 -2.28055 1.8011 0
M  V30 1243 H 115.996 -1.44883 2.12994 0
M  V30 1244 H 115.954 -2.90615 1.19958 0
M  V30 1245 N 119.726 -1.57421 0.075193 0
M  V30 1246 C 120.636 -2.1642 -0.905511 0
M  V30 1247 C 121.652 -1.12828 -1.32461 0
M  V30 1248 O 122.828 -1.45109 -1.39661 0
M  V30 1249 C 119.893 -2.71693 -2.15369 0
M  V30 1250 C 118.954 -3.90171 -1.79068 0
M  V30 1251 C 118.187 -4.42798 -2.97936 0
M  V30 1252 O 118.41 -3.94416 -4.12058 0
M  V30 1253 O 117.344 -5.34085 -2.77555 0
M  V30 1254 H 121.17 -3.00588 -0.433626 0
M  V30 1255 H 118.755 -1.48664 -0.148067 0
M  V30 1256 H 120.637 -3.07104 -2.88557 0
M  V30 1257 H 119.312 -1.90582 -2.61649 0
M  V30 1258 H 118.219 -3.59606 -1.03122 0
M  V30 1259 H 119.552 -4.72584 -1.37569 0
M  V30 1260 N 121.204 0.198386 -1.56346 0
M  V30 1261 C 122.452 0.91747 -1.80075 0
M  V30 1262 C 122.773 1.83929 -0.647692 0
M  V30 1263 O 122.043 1.93029 0.334166 0
M  V30 1264 H 120.623 0.341774 -0.664228 0
M  V30 1265 H 123.285 0.204684 -1.93822 0
M  V30 1266 H 122.381 1.51055 -2.7311 0
M  V30 1267 N 122.682 1.50554 0.465978 0
M  V30 1268 C 124.093 1.54599 1.04671 0
M  V30 1269 C 124.444 0.352488 1.93008 0
M  V30 1270 O 123.569 -0.534044 2.09707 0
M  V30 1271 C 124.164 2.80166 1.90505 0
M  V30 1272 C 122.723 2.86876 2.43678 0
M  V30 1273 C 121.87 2.48947 1.22151 0
M  V30 1274 H 124.821 1.56744 0.248384 0
M  V30 1275 H 124.842 2.62311 2.75633 0
M  V30 1276 H 124.354 3.67013 1.26186 0
M  V30 1277 H 122.455 2.04393 3.11536 0
M  V30 1278 H 122.568 3.89885 2.78436 0
M  V30 1279 H 120.932 2.01498 1.5579 0
M  V30 1280 H 121.715 3.38107 0.594866 0
M  V30 1281 N 124.16 -0.719506 1.40217 0
M  V30 1282 C 125.388 -1.50864 1.41589 0
M  V30 1283 C 125.803 -1.88794 0.0145275 0
M  V30 1284 O 125.16 -1.55174 -0.960594 0
M  V30 1285 C 125.211 -2.78646 2.30302 0
M  V30 1286 O 124.932 -2.42321 3.64983 0
M  V30 1287 C 126.433 -3.72569 2.40224 0
M  V30 1288 H 123.653 -0.465709 0.48307 0
M  V30 1289 H 126.197 -0.88785 1.84221 0
M  V30 1290 H 124.352 -3.37019 1.91042 0
M  V30 1291 H 124.766 -3.24514 4.12057 0
M  V30 1292 H 126.24 -4.5908 3.06512 0
M  V30 1293 H 126.717 -4.15403 1.42608 0
M  V30 1294 H 127.323 -3.20109 2.80019 0
M  V30 1295 N 125.638 -1.25649 -0.95132 0
M  V30 1296 C 126.571 -1.00644 -2.04807 0
M  V30 1297 C 127.549 0.0654271 -1.62468 0
M  V30 1298 O 128.733 -0.074911 -1.88351 0
M  V30 1299 C 125.86 -0.522052 -3.34653 0
M  V30 1300 C 124.906 -1.58495 -3.95957 0
M  V30 1301 S 125.739 -3.17108 -4.31512 0
M  V30 1302 C 126.895 -2.70412 -5.64471 0
M  V30 1303 H 127.128 -1.93508 -2.25703 0
M  V30 1304 H 124.661 -1.09216 -1.09139 0
M  V30 1305 H 126.619 -0.24923 -4.09743 0
M  V30 1306 H 125.28 0.386146 -3.11717 0
M  V30 1307 H 124.473 -1.1968 -4.89584 0
M  V30 1308 H 124.075 -1.80862 -3.2736 0
M  V30 1309 H 126.367 -2.14245 -6.42733 0
M  V30 1310 H 127.31 -3.62693 -6.08161 0
M  V30 1311 H 127.718 -2.10302 -5.23864 0
M  V30 1312 N 127.117 1.15442 -1.07289 0
M  V30 1313 C 128.064 2.20161 -0.692653 0
M  V30 1314 C 129.034 1.63073 0.31564 0
M  V30 1315 O 130.219 1.89725 0.202235 0
M  V30 1316 C 127.359 3.44967 -0.0959509 0
M  V30 1317 C 126.472 4.16256 -1.15564 0
M  V30 1318 C 125.607 5.28609 -0.524011 0
M  V30 1319 C 124.646 5.91715 -1.56653 0
M  V30 1320 N 123.783 6.9554 -0.957531 0
M  V30 1321 H 128.623 2.52037 -1.59002 0
M  V30 1322 H 126.16 1.2378 -0.794798 0
M  V30 1323 H 128.118 4.16341 0.267628 0
M  V30 1324 H 126.748 3.1361 0.764772 0
M  V30 1325 H 125.8 3.43385 -1.6368 0
M  V30 1326 H 127.112 4.59268 -1.94613 0
M  V30 1327 H 126.266 6.06604 -0.108032 0
M  V30 1328 H 125.005 4.86787 0.29825 0
M  V30 1329 H 124.01 5.12433 -1.9923 0
M  V30 1330 H 125.235 6.35614 -2.39107 0
M  V30 1331 H 123.181 6.55814 -0.156162 0
M  V30 1332 H 123.098 7.36977 -1.68526 0
M  V30 1333 H 124.366 7.77435 -0.567032 0
M  V30 1334 N 128.595 0.856903 1.32268 0
M  V30 1335 C 130.011 0.547061 1.49931 0
M  V30 1336 C 130.211 -0.921781 1.7918 0
M  V30 1337 O 129.267 -1.70469 1.8627 0
M  V30 1338 C 130.58 1.43599 2.64196 0
M  V30 1339 C 132.128 1.43665 2.78081 0
M  V30 1340 C 132.603 2.31085 3.95428 0
M  V30 1341 N 134.094 2.28893 4.02694 0
M  V30 1342 C 134.829 2.93262 4.92732 0
M  V30 1343 N 134.325 3.66751 5.87763 0
M  V30 1344 N 136.118 2.82638 4.85873 0
M  V30 1345 H 128.269 1.8075 1.11549 0
M  V30 1346 H 130.532 0.772144 0.549997 0
M  V30 1347 H 130.238 2.48058 2.49319 0
M  V30 1348 H 130.112 1.12502 3.60032 0
M  V30 1349 H 132.499 0.399701 2.92381 0
M  V30 1350 H 132.58 1.7878 1.82952 0
M  V30 1351 H 132.224 3.34849 3.81888 0
M  V30 1352 H 132.154 1.93302 4.89839 0
M  V30 1353 H 134.645 1.75466 3.34694 0
M  V30 1354 H 134.958 4.13027 6.53168 0
M  V30 1355 H 133.303 3.70859 5.87783 0
M  V30 1356 H 136.494 2.24774 4.10602 0
M  V30 1357 H 136.667 3.33084 5.55841 0
M  V30 1358 N 130.073 -1.45103 0.615059 0
M  V30 1359 C 131.32 -2.02183 0.113179 0
M  V30 1360 C 131.648 -1.48249 -1.25906 0
M  V30 1361 O 130.903 -0.650265 -1.84581 0
M  V30 1362 C 131.202 -3.57386 0.0318797 0
M  V30 1363 C 130.868 -4.30505 1.34077 0
M  V30 1364 C 129.53 -4.50197 1.69929 0
M  V30 1365 C 131.882 -4.72238 2.20546 0
M  V30 1366 C 129.21 -5.08881 2.91988 0
M  V30 1367 C 131.562 -5.32272 3.41861 0
M  V30 1368 C 130.226 -5.50187 3.77956 0
M  V30 1369 H 129.496 -0.739842 0.0414151 0
M  V30 1370 H 132.143 -1.74073 0.798168 0
M  V30 1371 H 130.448 -3.84817 -0.736409 0
M  V30 1372 H 132.145 -3.99264 -0.372712 0
M  V30 1373 H 128.735 -4.15496 1.05173 0
M  V30 1374 H 132.919 -4.56751 1.94146 0
M  V30 1375 H 128.175 -5.20939 3.2005 0
M  V30 1376 H 132.349 -5.63563 4.09109 0
M  V30 1377 H 129.976 -5.95427 4.72622 0
M  V30 1378 N 131.551 -0.354651 -1.53558 0
M  V30 1379 C 132.967 -0.00315426 -1.596 0
M  V30 1380 C 133.167 1.47741 -1.37021 0
M  V30 1381 O 132.223 2.23759 -1.16996 0
M  V30 1382 C 133.536 -0.44929 -2.97325 0
M  V30 1383 C 135.084 -0.402578 -3.104 0
M  V30 1384 C 135.559 -0.824355 -4.5052 0
M  V30 1385 N 137.05 -0.778979 -4.56603 0
M  V30 1386 C 137.785 -1.07715 -5.63192 0
M  V30 1387 N 137.281 -1.44405 -6.77583 0
M  V30 1388 N 139.074 -1.00066 -5.53121 0
M  V30 1389 H 131.225 -1.31893 -1.66487 0
M  V30 1390 H 133.488 -0.538388 -0.780284 0
M  V30 1391 H 133.194 -1.48202 -3.1895 0
M  V30 1392 H 133.068 0.169772 -3.76818 0
M  V30 1393 H 135.455 0.621004 -2.88492 0
M  V30 1394 H 135.536 -1.05699 -2.32941 0
M  V30 1395 H 135.18 -1.846 -4.73165 0
M  V30 1396 H 135.11 -0.147304 -5.26394 0
M  V30 1397 H 137.601 -0.508528 -3.74463 0
M  V30 1398 H 137.914 -1.65612 -7.54846 0
M  V30 1399 H 136.259 -1.4826 -6.79002 0
M  V30 1400 H 139.45 -0.713293 -4.62633 0
M  V30 1401 H 139.623 -1.23638 -6.36096 0
M  V30 1402 N 133.029 1.57378 -0.0835403 0
M  V30 1403 C 134.44 1.81261 0.447358 0
M  V30 1404 C 134.791 0.998331 1.68902 0
M  V30 1405 O 133.916 0.224282 2.15235 0
M  V30 1406 C 134.511 3.28767 0.818386 0
M  V30 1407 C 133.07 3.53455 1.29409 0
M  V30 1408 C 132.217 2.75831 0.285024 0
M  V30 1409 H 135.168 1.5566 -0.309115 0
M  V30 1410 H 135.189 3.41459 1.67887 0
M  V30 1411 H 134.701 3.88006 -0.0855019 0
M  V30 1412 H 132.802 2.99534 2.21608 0
M  V30 1413 H 132.915 4.62128 1.2639 0
M  V30 1414 H 131.279 2.42947 0.764767 0
M  V30 1415 H 132.062 3.37813 -0.611341 0
M  V30 1416 N 134.507 -0.190092 1.56449 0
M  V30 1417 C 135.923 -0.54113 1.50146 0
M  V30 1418 C 136.123 -1.85603 0.784465 0
M  V30 1419 O 135.179 -2.5024 0.337051 0
M  V30 1420 C 136.492 -0.591241 2.9483 0
M  V30 1421 C 138.04 -0.679732 3.0553 0
M  V30 1422 C 138.515 -0.760908 4.51635 0
M  V30 1423 N 140.006 -0.824302 4.55806 0
M  V30 1424 C 140.741 -0.907365 5.66175 0
M  V30 1425 N 140.237 -0.952422 6.86222 0
M  V30 1426 N 142.03 -0.94494 5.541 0
M  V30 1427 H 134.181 0.67235 2.01478 0
M  V30 1428 H 136.444 0.240127 0.917084 0
M  V30 1429 H 136.15 0.305905 3.50367 0
M  V30 1430 H 136.024 -1.44422 3.48457 0
M  V30 1431 H 138.411 -1.56731 2.50039 0
M  V30 1432 H 138.492 0.199549 2.5502 0
M  V30 1433 H 138.136 0.122336 5.07753 0
M  V30 1434 H 138.066 -1.65606 4.99882 0
M  V30 1435 H 140.557 -0.798526 3.69367 0
M  V30 1436 H 140.87 -1.01645 7.66086 0
M  V30 1437 H 139.215 -0.921014 6.8887 0
M  V30 1438 H 142.406 -0.906612 4.59236 0
M  V30 1439 H 142.579 -1.00622 6.4014 0
M  V30 1440 N 135.985 -1.50799 -0.457987 0
M  V30 1441 C 136.948 -1.7005 -1.53674 0
M  V30 1442 C 137.948 -0.570881 -1.50325 0
M  V30 1443 O 139.138 -0.838126 -1.52712 0
M  V30 1444 C 136.27 -1.73788 -2.93276 0
M  V30 1445 H 137.463 -2.66306 -1.37917 0
M  V30 1446 H 135.016 -1.40477 -0.685271 0
M  V30 1447 H 135.751 -0.792717 -3.14462 0
M  V30 1448 H 135.536 -2.55864 -2.97113 0
M  V30 1449 H 137.026 -1.90591 -3.71571 0
M  V30 1450 N 137.463 0.71206 -1.40597 0
M  V30 1451 C 138.41 1.82613 -1.41142 0
M  V30 1452 C 139.38 1.63925 -0.267903 0
M  V30 1453 O 140.565 1.85009 -0.466495 0
M  V30 1454 C 137.705 3.20354 -1.28324 0
M  V30 1455 C 136.818 3.50589 -2.52411 0
M  V30 1456 C 135.953 4.77855 -2.32009 0
M  V30 1457 C 134.992 5.01005 -3.51654 0
M  V30 1458 N 134.129 6.19487 -3.30425 0
M  V30 1459 H 138.969 1.81482 -2.36365 0
M  V30 1460 H 136.506 0.886475 -1.17388 0
M  V30 1461 H 138.464 3.99899 -1.18899 0
M  V30 1462 H 137.094 3.20705 -0.367189 0
M  V30 1463 H 136.146 2.65573 -2.72351 0
M  V30 1464 H 137.458 3.63604 -3.41458 0
M  V30 1465 H 136.612 5.65424 -2.19956 0
M  V30 1466 H 135.351 4.67056 -1.40392 0
M  V30 1467 H 134.356 4.1189 -3.64179 0
M  V30 1468 H 135.581 5.13674 -4.44202 0
M  V30 1469 H 133.527 6.09932 -2.41494 0
M  V30 1470 H 133.444 6.33194 -4.13039 0
M  V30 1471 H 134.712 7.09834 -3.22113 0
M  V30 1472 N 138.941 1.26152 0.944643 0
M  V30 1473 C 140.189 1.11271 1.6871 0
M  V30 1474 C 140.51 -0.345166 1.91921 0
M  V30 1475 O 139.78 -1.24387 1.51343 0
M  V30 1476 H 138.36 0.408783 0.625224 0
M  V30 1477 H 141.022 1.58427 1.1352 0
M  V30 1478 H 140.118 1.62879 2.66227 0
M  V30 1479 N 140.419 -1.14872 1.07899 0
M  V30 1480 C 141.644 -1.90202 0.826926 0
M  V30 1481 C 142.069 -1.77774 -0.614664 0
M  V30 1482 O 141.427 -1.11431 -1.43013 0
M  V30 1483 C 141.475 -3.38352 1.24702 0
M  V30 1484 O 140.579 -4.10497 0.39575 0
M  V30 1485 H 139.92 -0.591968 0.300782 0
M  V30 1486 H 142.45 -1.45437 1.43907 0
M  V30 1487 H 142.46 -3.89156 1.22563 0
M  V30 1488 H 141.135 -3.46715 2.29698 0
M  V30 1489 H 139.712 -3.69796 0.480117 0
M  V30 1490 N 141.898 -0.863906 -1.31812 0
M  V30 1491 C 142.861 -0.320212 -2.26952 0
M  V30 1492 C 143.861 0.525369 -1.51975 0
M  V30 1493 O 145.051 0.335547 -1.70938 0
M  V30 1494 C 142.183 0.545919 -3.365 0
M  V30 1495 H 143.376 -1.16004 -2.76556 0
M  V30 1496 H 140.929 -0.638995 -1.42641 0
M  V30 1497 H 141.664 1.40718 -2.92179 0
M  V30 1498 H 141.449 -0.0594674 -3.92055 0
M  V30 1499 H 142.939 0.918796 -4.07367 0
M  V30 1500 N 143.376 1.44774 -0.622745 0
M  V30 1501 C 144.601 2.06999 -0.128968 0
M  V30 1502 C 145.026 1.4617 1.1839 0
M  V30 1503 O 144.384 0.560007 1.72434 0
M  V30 1504 C 144.432 3.60595 -0.0188351 0
M  V30 1505 O 143.536 3.99398 1.02739 0
M  V30 1506 H 142.877 0.659047 -0.0809544 0
M  V30 1507 H 145.407 1.85784 -0.85705 0
M  V30 1508 H 145.417 4.07627 0.174476 0
M  V30 1509 H 144.092 4.04252 -0.977384 0
M  V30 1510 H 142.669 3.64011 0.809326 0
M  V30 1511 N 144.854 0.36279 1.53368 0
M  V30 1512 C 146.265 -0.117022 1.86333 0
M  V30 1513 C 146.616 -1.48397 1.28347 0
M  V30 1514 O 145.741 -2.07787 0.604428 0
M  V30 1515 C 146.336 -0.21912 3.38091 0
M  V30 1516 C 144.895 -0.643184 3.70864 0
M  V30 1517 C 144.042 0.211318 2.76494 0
M  V30 1518 H 146.993 0.581687 1.47655 0
M  V30 1519 H 147.014 -1.04319 3.6592 0
M  V30 1520 H 146.526 0.775902 3.80265 0
M  V30 1521 H 144.627 -1.64654 3.34245 0
M  V30 1522 H 144.74 -0.41973 4.77258 0
M  V30 1523 H 143.104 -0.319367 2.5269 0
M  V30 1524 H 143.887 1.20383 3.21501 0
M  V30 1525 N 146.332 -1.57332 0.0918853 0
M  V30 1526 C 147.581 -1.93412 -0.572249 0
M  V30 1527 C 147.894 -0.975515 -1.69538 0
M  V30 1528 O 149.1 -1.22991 -2.42045 0
M  V30 1529 C 147.556 -3.43648 -1.0693 0
M  V30 1530 C 147.164 -4.47994 0.0239049 0
M  V30 1531 C 148.908 -3.88695 -1.70635 0
M  V30 1532 C 146.815 -5.89381 -0.488319 0
M  V30 1533 H 145.745 -0.721939 -0.217532 0
M  V30 1534 H 148.396 -1.82735 0.167369 0
M  V30 1535 H 146.778 -3.49466 -1.8625 0
M  V30 1536 H 147.952 -4.53815 0.799277 0
M  V30 1537 H 146.267 -4.12536 0.565946 0
M  V30 1538 H 148.864 -4.91725 -2.10025 0
M  V30 1539 H 149.207 -3.27166 -2.57426 0
M  V30 1540 H 149.74 -3.85564 -0.979023 0
M  V30 1541 H 146.479 -6.54602 0.342906 0
M  V30 1542 H 145.999 -5.87037 -1.23077 0
M  V30 1543 H 147.678 -6.39863 -0.958317 0
M  V30 1544 N 147.81 0.181792 -1.56548 0
M  V30 1545 C 148.758 1.24461 -1.965 0
M  V30 1546 C 149.752 1.464 -0.852261 0
M  V30 1547 O 150.958 1.47103 -1.03733 0
M  V30 1548 H 147.333 0.418138 -0.625031 0
M  V30 1549 H 149.304 0.880714 -2.85107 0
M  V30 1550 C 148.053 2.57891 -2.33212 0
M  V30 1551 H 147.376 2.41829 -3.18369 0
M  V30 1552 H 148.816 3.3097 -2.65019 0
M  V30 1553 C 147.275 3.15871 -1.17163 0
M  V30 1554 O 147.805 3.9913 -0.453708 0
M  V30 1555 N 146.011 2.74808 -0.944936 0
M  V30 1556 H 145.558 2.07205 -1.53049 0
M  V30 1557 H 145.516 3.13939 -0.170286 0
M  V30 1558 N 149.288 1.51039 0.449983 0
M  V30 1559 C 150.235 1.71439 1.54523 0
M  V30 1560 C 151.205 0.555871 1.56522 0
M  V30 1561 O 152.39 0.788871 1.73728 0
M  V30 1562 C 149.53 1.83384 2.92343 0
M  V30 1563 C 148.643 3.10873 2.9997 0
M  V30 1564 C 147.778 3.13488 4.28834 0
M  V30 1565 C 146.817 4.35343 4.30282 0
M  V30 1566 N 145.954 4.35579 5.5065 0
M  V30 1567 H 150.794 2.64934 1.36433 0
M  V30 1568 H 148.331 1.31312 0.662982 0
M  V30 1569 H 150.289 1.88291 3.72293 0
M  V30 1570 H 148.919 0.933086 3.0902 0
M  V30 1571 H 147.971 3.15336 2.12761 0
M  V30 1572 H 149.283 4.00814 2.96901 0
M  V30 1573 H 148.437 3.17241 5.17149 0
M  V30 1574 H 147.176 2.21414 4.34543 0
M  V30 1575 H 146.181 4.3178 3.40362 0
M  V30 1576 H 147.406 5.28668 4.26248 0
M  V30 1577 H 145.352 3.46369 5.57104 0
M  V30 1578 H 145.269 5.19313 5.49409 0
M  V30 1579 H 146.537 4.43507 6.41032 0
M  V30 1580 N 150.766 -0.704594 1.40972 0
M  V30 1581 C 152.182 -1.01406 1.23244 0
M  V30 1582 C 152.382 -2.01169 0.115399 0
M  V30 1583 O 151.438 -2.47021 -0.523147 0
M  V30 1584 C 152.751 -1.54728 2.57836 0
M  V30 1585 C 154.299 -1.66658 2.64942 0
M  V30 1586 C 154.774 -2.23383 3.9983 0
M  V30 1587 N 156.265 -2.30756 4.01629 0
M  V30 1588 C 157 -2.75655 5.02794 0
M  V30 1589 N 156.496 -3.20225 6.14352 0
M  V30 1590 N 158.289 -2.75138 4.90159 0
M  V30 1591 H 150.44 -0.0435285 2.12355 0
M  V30 1592 H 152.703 -0.0818951 0.944456 0
M  V30 1593 H 152.409 -0.888832 3.40283 0
M  V30 1594 H 152.283 -2.53084 2.79693 0
M  V30 1595 H 154.67 -2.31617 1.8286 0
M  V30 1596 H 154.751 -0.668717 2.46904 0
M  V30 1597 H 154.395 -1.59043 4.82357 0
M  V30 1598 H 154.325 -3.23904 4.15203 0
M  V30 1599 H 156.816 -1.99291 3.21079 0
M  V30 1600 H 157.129 -3.53084 6.87424 0
M  V30 1601 H 155.474 -3.18156 6.17901 0
M  V30 1602 H 158.665 -2.39661 4.02095 0
M  V30 1603 H 158.838 -3.09812 5.6914 0
M  V30 1604 N 152.244 -1.26651 -0.937939 0
M  V30 1605 C 153.472 -1.15173 -1.7188 0
M  V30 1606 C 153.887 0.292668 -1.86518 0
M  V30 1607 O 153.244 1.20014 -1.37488 0
M  V30 1608 C 153.295 -1.81925 -3.12387 0
M  V30 1609 O 153.016 -3.2072 -2.98446 0
M  V30 1610 C 154.517 -1.76442 -4.06673 0
M  V30 1611 H 151.737 -0.400911 -0.538063 0
M  V30 1612 H 154.281 -1.67332 -1.1756 0
M  V30 1613 H 152.436 -1.33696 -3.63599 0
M  V30 1614 H 152.85 -3.53802 -3.872 0
M  V30 1615 H 154.324 -2.27781 -5.02812 0
M  V30 1616 H 154.801 -0.731608 -4.33064 0
M  V30 1617 H 155.407 -2.24238 -3.61382 0
M  V30 1618 N 153.722 1.14298 -1.08507 0
M  V30 1619 C 154.685 2.17607 -0.719711 0
M  V30 1620 C 155.685 1.58907 0.245997 0
M  V30 1621 O 156.875 1.74181 0.0254081 0
M  V30 1622 C 154.007 3.40842 -0.0627695 0
M  V30 1623 H 155.2 2.51443 -1.63452 0
M  V30 1624 H 152.753 1.28963 -0.88307 0
M  V30 1625 H 153.488 3.12587 0.863716 0
M  V30 1626 H 153.273 3.84713 -0.757504 0
M  V30 1627 H 154.763 4.17221 0.177786 0
M  V30 1628 N 155.201 0.870884 1.31352 0
M  V30 1629 C 156.151 0.298889 2.26032 0
M  V30 1630 C 157.135 -0.564595 1.50669 0
M  V30 1631 O 158.327 -0.411323 1.72154 0
M  V30 1632 C 155.456 -0.497842 3.39671 0
M  V30 1633 C 154.542 0.378937 4.22404 0
M  V30 1634 N 154.933 1.47284 4.83881 0
M  V30 1635 C 153.231 0.171535 4.4567 0
M  V30 1636 C 153.932 2.01359 5.45738 0
M  V30 1637 N 152.908 1.31047 5.27568 0
M  V30 1638 H 156.71 1.13494 2.71102 0
M  V30 1639 H 154.224 0.718745 1.45629 0
M  V30 1640 H 156.221 -0.924155 4.06528 0
M  V30 1641 H 154.881 -1.33149 2.96144 0
M  V30 1642 H 155.892 1.85575 4.8351 0
M  V30 1643 H 152.569 -0.626091 4.12779 0
M  V30 1644 H 153.959 2.93143 6.0458 0
M  V30 1645 N 156.679 -1.44442 0.630414 0
M  V30 1646 C 157.928 -2.01267 0.132073 0
M  V30 1647 C 158.241 -1.50172 -1.25331 0
M  V30 1648 O 159.447 -1.9912 -1.84562 0
M  V30 1649 C 157.903 -3.59422 0.185362 0
M  V30 1650 C 157.511 -4.19514 1.57201 0
M  V30 1651 C 159.255 -4.23724 -0.256553 0
M  V30 1652 C 157.162 -5.69891 1.58045 0
M  V30 1653 H 156.092 -0.752619 0.0456092 0
M  V30 1654 H 158.743 -1.65666 0.789106 0
M  V30 1655 H 157.125 -3.92318 -0.538759 0
M  V30 1656 H 158.299 -3.98156 2.31966 0
M  V30 1657 H 156.614 -3.67496 1.95795 0
M  V30 1658 H 159.211 -5.34019 -0.269767 0
M  V30 1659 H 159.554 -3.96013 -1.28372 0
M  V30 1660 H 160.087 -3.95629 0.41505 0
M  V30 1661 H 156.826 -6.02336 2.58597 0
M  V30 1662 H 156.346 -5.93373 0.875725 0
M  V30 1663 H 158.025 -6.33515 1.31408 0
M  V30 1664 N 158.157 -0.370918 -1.53173 0
M  V30 1665 C 159.385 0.217704 -2.05751 0
M  V30 1666 C 159.8 1.42018 -1.24404 0
M  V30 1667 O 159.157 1.80245 -0.286033 0
M  V30 1668 C 159.208 0.605954 -3.56385 0
M  V30 1669 O 158.929 -0.548734 -4.3465 0
M  V30 1670 C 160.43 1.2524 -4.25241 0
M  V30 1671 H 157.65 0.0371659 -0.66997 0
M  V30 1672 H 160.194 -0.530832 -1.9749 0
M  V30 1673 H 158.349 1.3044 -3.6478 0
M  V30 1674 H 158.763 -0.23376 -5.23979 0
M  V30 1675 H 160.237 1.47458 -5.3194 0
M  V30 1676 H 160.714 2.2143 -3.79296 0
M  V30 1677 H 161.32 0.595233 -4.21114 0
M  V30 1678 N 159.635 1.57281 -0.100228 0
M  V30 1679 C 160.881 1.94826 0.563101 0
M  V30 1680 C 161.214 0.982475 1.67514 0
M  V30 1681 O 160.489 0.0164069 1.94493 0
M  V30 1682 C 160.772 3.42453 1.11346 0
M  V30 1683 C 160.625 4.498 0.00612081 0
M  V30 1684 C 161.944 3.91506 2.01024 0
M  V30 1685 H 159.063 0.708428 0.203221 0
M  V30 1686 H 161.705 1.8922 -0.171979 0
M  V30 1687 H 159.855 3.47361 1.7399 0
M  V30 1688 H 161.527 4.57 -0.628357 0
M  V30 1689 H 159.77 4.28756 -0.659581 0
M  V30 1690 H 160.441 5.50306 0.432109 0
M  V30 1691 H 162.917 3.88784 1.48278 0
M  V30 1692 H 161.793 4.95358 2.36457 0
M  V30 1693 H 162.054 3.31099 2.92961 0
M  V30 1694 N 161.113 -0.173488 1.56642 0
M  V30 1695 C 162.076 -1.19859 1.95362 0
M  V30 1696 C 163.076 -1.37296 0.83704 0
M  V30 1697 O 164.266 -1.34739 1.10413 0
M  V30 1698 C 161.398 -2.56405 2.24654 0
M  V30 1699 H 162.591 -0.867062 2.87092 0
M  V30 1700 H 160.144 -0.415853 1.50666 0
M  V30 1701 H 160.879 -2.94576 1.35631 0
M  V30 1702 H 160.664 -2.45115 3.06041 0
M  V30 1703 H 162.154 -3.30287 2.5554 0
M  V30 1704 N 162.591 -1.51276 -0.441967 0
M  V30 1705 C 163.837 -1.63958 -1.19355 0
M  V30 1706 C 164.17 -0.352543 -1.90973 0
M  V30 1707 O 163.445 0.647627 -1.83401 0
M  V30 1708 C 163.728 -2.83979 -2.21422 0
M  V30 1709 C 163.581 -4.22646 -1.53918 0
M  V30 1710 C 164.9 -2.99521 -3.22451 0
M  V30 1711 H 162.019 -0.596709 -0.432559 0
M  V30 1712 H 164.661 -1.83748 -0.483398 0
M  V30 1713 H 162.811 -2.67237 -2.81987 0
M  V30 1714 H 164.483 -4.51045 -0.967256 0
M  V30 1715 H 162.726 -4.25558 -0.841615 0
M  V30 1716 H 163.397 -5.02609 -2.28229 0
M  V30 1717 H 165.873 -3.14944 -2.71937 0
M  V30 1718 H 164.749 -3.85072 -3.91166 0
M  V30 1719 H 165.01 -2.11391 -3.88287 0
M  V30 1720 N 164.069 0.697108 -1.41344 0
M  V30 1721 C 165.032 1.79281 -1.42797 0
M  V30 1722 C 166.032 1.57607 -0.318837 0
M  V30 1723 O 167.222 1.64309 -0.578642 0
M  V30 1724 C 164.354 3.17632 -1.23785 0
M  V30 1725 H 165.547 1.79385 -2.40335 0
M  V30 1726 H 163.1 0.904582 -1.27464 0
M  V30 1727 H 163.835 3.23167 -0.270814 0
M  V30 1728 H 163.62 3.34765 -2.04144 0
M  V30 1729 H 165.11 3.97617 -1.27633 0
M  V30 1730 N 165.547 1.27147 0.931209 0
M  V30 1731 C 166.457 1.11372 2.06478 0
M  V30 1732 C 167.473 0.044645 1.73943 0
M  V30 1733 O 168.649 0.250417 1.99837 0
M  V30 1734 C 165.714 0.758838 3.38294 0
M  V30 1735 C 164.775 1.90841 3.84549 0
M  V30 1736 C 164.008 1.57036 5.10074 0
M  V30 1737 O 164.231 0.476645 5.68405 0
M  V30 1738 O 163.165 2.40839 5.51616 0
M  V30 1739 H 166.991 2.06493 2.22698 0
M  V30 1740 H 164.576 1.06301 1.04978 0
M  V30 1741 H 166.458 0.574098 4.17471 0
M  V30 1742 H 165.133 -0.162879 3.2329 0
M  V30 1743 H 164.04 2.14819 3.06274 0
M  V30 1744 H 165.373 2.81021 4.04089 0
M  V30 1745 N 167.025 -1.13721 1.09112 0
M  V30 1746 C 167.972 -2.19031 0.727591 0
M  V30 1747 C 168.942 -1.63555 -0.289656 0
M  V30 1748 O 170.127 -1.90023 -0.172026 0
M  V30 1749 C 167.267 -3.4477 0.15082 0
M  V30 1750 C 166.38 -4.14365 1.22172 0
M  V30 1751 C 165.515 -5.27709 0.608042 0
M  V30 1752 C 164.554 -5.89147 1.66047 0
M  V30 1753 N 163.691 -6.93929 1.06806 0
M  V30 1754 H 168.531 -2.49475 1.62991 0
M  V30 1755 H 166.068 -1.22499 0.81439 0
M  V30 1756 H 168.026 -4.16714 -0.201358 0
M  V30 1757 H 166.656 -3.14787 -0.714783 0
M  V30 1758 H 165.708 -3.40737 1.69122 0
M  V30 1759 H 167.02 -4.56114 2.01895 0
M  V30 1760 H 166.174 -6.06355 0.204523 0
M  V30 1761 H 164.913 -4.872 -0.220769 0
M  V30 1762 H 163.918 -5.09198 2.07357 0
M  V30 1763 H 165.143 -6.31729 2.49189 0
M  V30 1764 H 163.089 -6.55483 0.260476 0
M  V30 1765 H 163.006 -7.34202 1.8023 0
M  V30 1766 H 164.274 -7.76434 0.690644 0
M  V30 1767 O 168.542 -1.01112 -1.25931 0
M  V30 1768 H 169.233 -0.668764 -1.81789 0
M  V30 END ATOM
M  V30 BEGIN BOND
M  V30 END BOND
M  V30 END CTAB
M  END
$$$$
