drugbank_target|P61177 50S ribosomal protein L22 (DB01369)
 OpenBabel12092120213D

  0  0  0     0  0            999 V3000
M  V30 BEGIN CTAB
M  V30 COUNTS 1779 1786 0 0 0
M  V30 BEGIN ATOM
M  V30 1 H -0.908 1.98254 -0.117106 0
M  V30 2 N 0 1.576 0 0
M  V30 3 C 0.933 2.03868 1.02534 0
M  V30 4 C 1.911 0.928543 1.3348 0
M  V30 5 O 3.095 1.19667 1.45644 0
M  V30 6 C 0.222 2.43627 2.35294 0
M  V30 7 C -0.732 3.65373 2.2001 0
M  V30 8 S 0.101 5.13292 1.52614 0
M  V30 9 C 1.257 5.56322 2.86805 0
M  V30 10 H 1.49 2.90518 0.631377 0
M  V30 11 H -0.977 1.52953 0.210867 0
M  V30 12 H 0.981 2.67203 3.11629 0
M  V30 13 H -0.358 1.57376 2.7183 0
M  V30 14 H -1.165 3.90944 3.18086 0
M  V30 15 H -1.563 3.418 1.51819 0
M  V30 16 H 0.729 5.58782 3.83104 0
M  V30 17 H 1.672 6.56266 2.65933 0
M  V30 18 H 2.08 4.83886 2.90714 0
M  V30 19 N 1.4781 -0.272755 1.55222 0
M  V30 20 C 2.3881 -1.35918 1.91216 0
M  V30 21 C 3.4041 -1.54026 0.809436 0
M  V30 22 O 4.5801 -1.68148 1.10852 0
M  V30 23 C 1.6451 -2.69834 2.17693 0
M  V30 24 C 0.7061 -2.6047 3.41253 0
M  V30 25 C -0.0609 -3.88 3.66458 0
M  V30 26 O 0.1621 -4.88693 2.94169 0
M  V30 27 O -0.9039 -3.88189 4.59992 0
M  V30 28 H 2.9221 -1.0839 2.83699 0
M  V30 29 H 0.5071 -0.471301 1.41771 0
M  V30 30 H 2.3891 -3.49017 2.36147 0
M  V30 31 H 1.0641 -2.97148 1.28392 0
M  V30 32 H -0.0289 -1.79663 3.28134 0
M  V30 33 H 1.3041 -2.38106 4.30774 0
M  V30 34 N 2.9562 -1.48159 -0.537278 0
M  V30 35 C 4.1842 -1.59454 -1.31841 0
M  V30 36 C 4.5992 -0.252065 -1.8711 0
M  V30 37 O 3.9562 0.757621 -1.66031 0
M  V30 38 C 4.0072 -2.63546 -2.47439 0
M  V30 39 O 3.7282 -3.92583 -1.94449 0
M  V30 40 C 5.2292 -2.85212 -3.39366 0
M  V30 41 H 2.4492 -0.53785 -0.401196 0
M  V30 42 H 4.9932 -1.93932 -0.648891 0
M  V30 43 H 3.1482 -2.31946 -3.1029 0
M  V30 44 H 3.5622 -4.49629 -2.70063 0
M  V30 45 H 5.0362 -3.61863 -4.16844 0
M  V30 46 H 5.5132 -1.93765 -3.94147 0
M  V30 47 H 6.1192 -3.18086 -2.82314 0
M  V30 48 N 4.4343 0.785586 -1.36625 0
M  V30 49 C 5.6833 1.53883 -1.30396 0
M  V30 50 C 5.9963 1.95271 0.113452 0
M  V30 51 O 7.2023 2.69858 0.298142 0
M  V30 52 C 5.6583 2.77808 -2.28802 0
M  V30 53 C 5.2663 2.43574 -3.75999 0
M  V30 54 C 7.0103 3.55783 -2.31558 0
M  V30 55 C 4.9173 3.63919 -4.66173 0
M  V30 56 H 3.8473 0.577678 -0.484566 0
M  V30 57 H 6.4983 0.861705 -1.62009 0
M  V30 58 H 4.8803 3.47339 -1.90188 0
M  V30 59 H 6.0543 1.81916 -4.23371 0
M  V30 60 H 4.3693 1.78803 -3.76056 0
M  V30 61 H 6.9663 4.45205 -2.96137 0
M  V30 62 H 7.3093 3.94644 -1.3252 0
M  V30 63 H 7.8423 2.93235 -2.68809 0
M  V30 64 H 4.5813 3.3015 -5.66287 0
M  V30 65 H 4.1013 4.2473 -4.23515 0
M  V30 66 H 5.7803 4.30901 -4.82632 0
M  V30 67 N 5.9124 1.20967 1.01018 0
M  V30 68 C 6.8754 0.965918 2.07853 0
M  V30 69 C 7.8754 -0.0610545 1.60684 0
M  V30 70 O 9.0654 0.175681 1.73312 0
M  V30 71 C 6.1974 0.455513 3.37843 0
M  V30 72 H 7.3904 1.91365 2.3091 0
M  V30 73 H 4.9434 1.02594 1.17916 0
M  V30 74 H 5.6784 -0.497381 3.20463 0
M  V30 75 H 5.4634 1.19622 3.73407 0
M  V30 76 H 6.9534 0.304667 4.16487 0
M  V30 77 N 7.3905 -1.2043 1.01659 0
M  V30 78 C 8.3375 -2.23215 0.586822 0
M  V30 79 C 9.3075 -1.61382 -0.393085 0
M  V30 80 O 10.4925 -1.88544 -0.292525 0
M  V30 81 C 7.6325 -3.45032 -0.0687464 0
M  V30 82 C 6.7455 -4.21296 0.955724 0
M  V30 83 C 5.8805 -5.30507 0.271208 0
M  V30 84 C 4.9195 -5.98515 1.28244 0
M  V30 85 N 4.0565 -6.99316 0.62459 0
M  V30 86 H 8.8965 -2.59336 1.46796 0
M  V30 87 H 6.4335 -1.27431 0.734836 0
M  V30 88 H 8.3915 -4.1459 -0.465965 0
M  V30 89 H 7.0215 -3.09604 -0.913529 0
M  V30 90 H 6.0735 -3.50803 1.4711 0
M  V30 91 H 7.3855 -4.6803 1.72479 0
M  V30 92 H 6.5395 -6.06428 -0.18151 0
M  V30 93 H 5.2785 -4.8481 -0.530163 0
M  V30 94 H 4.2835 -5.21355 1.74554 0
M  V30 95 H 5.5085 -6.46298 2.08509 0
M  V30 96 H 3.4545 -6.55812 -0.156914 0
M  V30 97 H 3.3715 -7.44178 1.33172 0
M  V30 98 H 4.6395 -7.79255 0.195462 0
M  V30 99 N 8.8686 -0.792821 -1.36206 0
M  V30 100 C 9.8186 -0.166598 -2.27391 0
M  V30 101 C 10.8026 0.651479 -1.47121 0
M  V30 102 O 11.9946 0.510994 -1.69463 0
M  V30 103 C 9.1236 0.695033 -3.36191 0
M  V30 104 C 8.2096 -0.132019 -4.23894 0
M  V30 105 N 8.6006 -1.18822 -4.91645 0
M  V30 106 C 6.8986 0.0885952 -4.45912 0
M  V30 107 C 7.5996 -1.69198 -5.56549 0
M  V30 108 N 6.5756 -1.00065 -5.34311 0
M  V30 109 H 10.3776 -0.974947 -2.77258 0
M  V30 110 H 7.8916 -0.632616 -1.49572 0
M  V30 111 H 9.8886 1.1596 -4.00448 0
M  V30 112 H 8.5486 1.50189 -2.87877 0
M  V30 113 H 9.5596 -1.57069 -4.93507 0
M  V30 114 H 6.2366 0.865688 -4.08426 0
M  V30 115 H 7.6266 -2.57395 -6.20643 0
M  V30 116 N 10.3467 1.47872 -0.545128 0
M  V30 117 C 11.7627 1.5829 -0.204032 0
M  V30 118 C 11.9627 1.54529 1.29317 0
M  V30 119 O 11.0187 1.44232 2.07252 0
M  V30 120 C 12.3317 2.89304 -0.819987 0
M  V30 121 C 13.8797 3.02864 -0.790105 0
M  V30 122 C 14.3547 4.3656 -1.38491 0
M  V30 123 N 15.8457 4.43165 -1.34755 0
M  V30 124 C 16.5807 5.45153 -1.77753 0
M  V30 125 N 16.0767 6.54016 -2.2855 0
M  V30 126 N 17.8697 5.36125 -1.68897 0
M  V30 127 H 10.0207 1.4856 -1.51802 0
M  V30 128 H 12.2837 0.706305 -0.632327 0
M  V30 129 H 11.9897 2.97757 -1.87173 0
M  V30 130 H 11.8637 3.75957 -0.305915 0
M  V30 131 H 14.2507 2.94014 0.252913 0
M  V30 132 H 14.3317 2.17782 -1.34181 0
M  V30 133 H 13.9757 4.46164 -2.42693 0
M  V30 134 H 13.9057 5.20353 -0.808754 0
M  V30 135 H 16.3967 3.65083 -0.975855 0
M  V30 136 H 16.7097 7.27994 -2.59314 0
M  V30 137 H 15.0547 6.54938 -2.32553 0
M  V30 138 H 18.2457 4.49975 -1.28998 0
M  V30 139 H 18.4187 6.15472 -2.02726 0
M  V30 140 N 11.8248 0.280983 1.55075 0
M  V30 141 C 12.7748 -0.618585 2.19448 0
M  V30 142 C 13.7588 -1.11401 1.16098 0
M  V30 143 O 14.9508 -1.0581 1.41891 0
M  V30 144 C 12.0798 -1.79951 2.92357 0
M  V30 145 C 11.1658 -1.321 4.03002 0
M  V30 146 N 11.5568 -0.559044 5.02701 0
M  V30 147 C 9.8548 -1.60346 4.16179 0
M  V30 148 C 10.5558 -0.306722 5.80891 0
M  V30 149 N 9.5318 -0.880825 5.36416 0
M  V30 150 H 13.3338 -0.0286638 2.93886 0
M  V30 151 H 10.8478 0.0848104 1.62178 0
M  V30 152 H 12.8448 -2.45531 3.36927 0
M  V30 153 H 11.5048 -2.39333 2.19431 0
M  V30 154 H 12.5158 -0.205827 5.17491 0
M  V30 155 H 9.1928 -2.20621 3.54447 0
M  V30 156 H 10.5828 0.30391 6.71212 0
M  V30 157 N 13.3029 -1.57598 0.00835791 0
M  V30 158 C 14.2659 -2.07884 -0.965242 0
M  V30 159 C 15.2659 -0.989825 -1.26725 0
M  V30 160 O 16.4559 -1.25218 -1.21104 0
M  V30 161 C 13.5879 -2.52731 -2.28779 0
M  V30 162 H 14.7809 -2.95178 -0.530112 0
M  V30 163 H 12.3339 -1.54458 -0.239283 0
M  V30 164 H 13.0689 -1.68705 -2.76964 0
M  V30 165 H 12.8539 -3.32272 -2.08177 0
M  V30 166 H 14.3439 -2.91933 -2.98605 0
M  V30 167 N 14.781 0.264519 -1.55364 0
M  V30 168 C 16.197 0.61215 -1.47394 0
M  V30 169 C 16.397 1.89134 -0.695018 0
M  V30 170 O 15.453 2.51563 -0.217275 0
M  V30 171 C 16.766 0.731235 -2.91674 0
M  V30 172 C 18.314 0.82473 -3.01939 0
M  V30 173 C 18.789 0.975522 -4.4749 0
M  V30 174 N 20.28 1.04083 -4.51354 0
M  V30 175 C 21.015 1.17646 -5.61201 0
M  V30 176 N 20.511 1.27874 -6.80896 0
M  V30 177 N 22.304 1.20823 -5.48961 0
M  V30 178 H 14.455 -0.575456 -2.04456 0
M  V30 179 H 16.718 -0.196099 -0.927496 0
M  V30 180 H 16.424 -0.138392 -3.51428 0
M  V30 181 H 16.298 1.60883 -3.41169 0
M  V30 182 H 18.685 1.68482 -2.42276 0
M  V30 183 H 18.766 -0.0776479 -2.55682 0
M  V30 184 H 18.41 0.120058 -5.07758 0
M  V30 185 H 18.34 1.89268 -4.91412 0
M  V30 186 H 20.831 0.973846 -3.65136 0
M  V30 187 H 21.144 1.38081 -7.60364 0
M  V30 188 H 19.489 1.24863 -6.83692 0
M  V30 189 H 22.68 1.12469 -4.54388 0
M  V30 190 H 22.853 1.31049 -6.3461 0
M  V30 191 N 16.2591 1.48442 0.529413 0
M  V30 192 C 17.4841 1.60406 1.31471 0
M  V30 193 C 17.9091 0.264738 1.86228 0
M  V30 194 O 17.2671 -0.763668 1.64432 0
M  V30 195 C 17.3151 2.65419 2.44101 0
M  V30 196 O 16.4191 2.22618 3.47153 0
M  V30 197 H 15.7601 0.537863 0.389357 0
M  V30 198 H 18.2901 1.94432 0.636965 0
M  V30 199 H 18.3001 2.86709 2.90279 0
M  V30 200 H 16.9751 3.62652 2.03608 0
M  V30 201 H 15.5521 2.11543 3.0709 0
M  V30 202 N 17.7372 -0.778329 1.37039 0
M  V30 203 C 18.9622 -1.57248 1.35233 0
M  V30 204 C 19.3872 -1.87999 -0.0615568 0
M  V30 205 O 18.7452 -1.48734 -1.03672 0
M  V30 206 C 18.7932 -2.86353 2.19167 0
M  V30 207 O 17.8972 -3.80442 1.59178 0
M  V30 208 H 17.2382 -0.476569 0.462362 0
M  V30 209 H 19.7682 -0.963853 1.80474 0
M  V30 210 H 19.7782 -3.35519 2.32145 0
M  V30 211 H 18.4532 -2.63299 3.21942 0
M  V30 212 H 17.0302 -3.39067 1.55203 0
M  V30 213 N 19.2153 -1.21501 -1.00376 0
M  V30 214 C 20.1783 -0.976927 -2.07337 0
M  V30 215 C 21.1783 0.0525322 -1.60714 0
M  V30 216 O 22.3683 -0.184869 -1.73216 0
M  V30 217 C 19.5003 -0.473423 -3.37597 0
M  V30 218 H 20.6933 -1.92587 -2.29892 0
M  V30 219 H 18.2463 -1.03217 -1.17371 0
M  V30 220 H 18.9813 0.480379 -3.20722 0
M  V30 221 H 18.7663 -1.216 -3.72768 0
M  V30 222 H 20.2563 -0.32675 -4.1632 0
M  V30 223 N 20.6934 1.19889 -1.02296 0
M  V30 224 C 21.6254 2.22334 -0.556787 0
M  V30 225 C 22.6384 1.58674 0.364199 0
M  V30 226 O 23.8274 1.77768 0.161533 0
M  V30 227 C 20.9274 3.38257 0.208694 0
M  V30 228 C 20.1004 4.31504 -0.71577 0
M  V30 229 C 19.1594 5.262 0.00325597 0
M  V30 230 O 18.1854 5.65798 -0.621357 0
M  V30 231 N 19.3874 5.66303 1.27599 0
M  V30 232 H 22.1524 2.62957 -1.43784 0
M  V30 233 H 19.7134 1.34495 -0.901261 0
M  V30 234 H 21.7054 3.98616 0.699111 0
M  V30 235 H 20.2754 2.96472 0.991102 0
M  V30 236 H 19.4954 3.69016 -1.38638 0
M  V30 237 H 20.7834 4.9072 -1.34428 0
M  V30 238 H 20.1814 5.36155 1.80429 0
M  V30 239 H 18.7384 6.28942 1.71102 0
M  V30 240 N 22.1715 0.800033 1.35784 0
M  V30 241 C 23.1185 0.203848 2.29898 0
M  V30 242 C 24.0885 -0.658375 1.52495 0
M  V30 243 O 25.2735 -0.604832 1.8096 0
M  V30 244 C 22.4135 -0.64688 3.38983 0
M  V30 245 C 21.5265 0.235054 4.3136 0
M  V30 246 C 20.6615 -0.623054 5.27533 0
M  V30 247 C 19.7005 0.259682 6.11549 0
M  V30 248 N 18.8375 -0.558019 6.99879 0
M  V30 249 H 23.6775 1.01186 2.80295 0
M  V30 250 H 21.2145 0.51053 1.37957 0
M  V30 251 H 23.1725 -1.15521 4.00887 0
M  V30 252 H 21.8025 -1.42021 2.89879 0
M  V30 253 H 20.8545 0.861438 3.70518 0
M  V30 254 H 22.1665 0.914768 4.9034 0
M  V30 255 H 21.3205 -1.19678 5.94779 0
M  V30 256 H 20.0595 -1.33636 4.69034 0
M  V30 257 H 19.0645 0.845726 5.43256 0
M  V30 258 H 20.2895 0.970748 6.72126 0
M  V30 259 H 18.2355 -1.25542 6.43875 0
M  V30 260 H 18.1525 0.0637872 7.55973 0
M  V30 261 H 19.4205 -1.11523 7.71481 0
M  V30 262 N 23.6496 -1.47581 0.552962 0
M  V30 263 C 24.8956 -2.02782 0.0273648 0
M  V30 264 C 25.2286 -1.42687 -1.31734 0
M  V30 265 O 24.5036 -0.580897 -1.85623 0
M  V30 266 C 24.7866 -3.60031 -0.0702371 0
M  V30 267 C 24.6396 -4.30566 1.30126 0
M  V30 268 C 25.9586 -4.33028 -0.785771 0
M  V30 269 H 23.0776 -0.736912 0.0114185 0
M  V30 270 H 25.7196 -1.76056 0.714432 0
M  V30 271 H 23.8696 -3.82932 -0.655382 0
M  V30 272 H 25.5416 -4.19018 1.92929 0
M  V30 273 H 23.7846 -3.91086 1.87709 0
M  V30 274 H 24.4556 -5.39114 1.18573 0
M  V30 275 H 26.9316 -4.15095 -0.288982 0
M  V30 276 H 25.8076 -5.42695 -0.823013 0
M  V30 277 H 26.0686 -4.01945 -1.841 0
M  V30 278 N 25.1277 -0.289203 -1.54924 0
M  V30 279 C 26.5437 0.0645403 -1.59469 0
M  V30 280 C 26.7437 1.53419 -1.30632 0
M  V30 281 O 25.7997 2.2852 -1.074 0
M  V30 282 C 27.1127 -0.32278 -2.98963 0
M  V30 283 C 28.6607 -0.270564 -3.11828 0
M  V30 284 C 29.1357 -0.632532 -4.53611 0
M  V30 285 N 30.6267 -0.584617 -4.59496 0
M  V30 286 C 31.3617 -0.837314 -5.67254 0
M  V30 287 N 30.8577 -1.15536 -6.83098 0
M  V30 288 N 32.6507 -0.765166 -5.56868 0
M  V30 289 H 24.8017 -1.24714 -1.71931 0
M  V30 290 H 27.0647 -0.504809 -0.802416 0
M  V30 291 H 26.7707 -1.34541 -3.24948 0
M  V30 292 H 26.6447 0.32944 -3.75759 0
M  V30 293 H 29.0317 0.742805 -2.85598 0
M  V30 294 H 29.1127 -0.957242 -2.37214 0
M  V30 295 H 28.7567 -1.64365 -4.80569 0
M  V30 296 H 28.6867 0.07609 -5.26545 0
M  V30 297 H 31.1777 -0.349248 -3.76283 0
M  V30 298 H 31.4907 -1.33447 -7.61191 0
M  V30 299 H 29.8357 -1.19328 -6.84679 0
M  V30 300 H 33.0267 -0.516432 -4.65243 0
M  V30 301 H 33.1997 -0.965477 -6.40767 0
M  V30 302 N 26.6058 1.57591 -0.0167156 0
M  V30 303 C 27.5358 2.12496 0.967858 0
M  V30 304 C 28.5168 1.03807 1.34752 0
M  V30 305 O 29.7018 1.31577 1.42833 0
M  V30 306 C 26.8318 2.64194 2.25431 0
M  V30 307 C 25.7858 3.77559 2.01576 0
M  V30 308 C 25.1118 4.15636 3.36379 0
M  V30 309 C 26.4118 5.04151 1.36489 0
M  V30 310 H 28.1058 2.95013 0.510643 0
M  V30 311 H 25.6518 1.41915 0.244181 0
M  V30 312 H 27.6048 3.01236 2.94678 0
M  V30 313 H 26.3288 1.78821 2.73296 0
M  V30 314 H 24.9878 3.40937 1.34751 0
M  V30 315 H 24.6358 3.27263 3.81979 0
M  V30 316 H 24.3358 4.92022 3.21229 0
M  V30 317 H 25.8598 4.5525 4.06915 0
M  V30 318 H 27.2738 5.38857 1.95718 0
M  V30 319 H 25.6708 5.85453 1.31776 0
M  V30 320 H 26.7408 4.83733 0.336219 0
M  V30 321 N 28.0839 -0.256276 1.55502 0
M  V30 322 C 29.3299 -0.987079 1.77157 0
M  V30 323 C 29.6629 -1.85327 0.580315 0
M  V30 324 O 28.9379 -1.89874 -0.421686 0
M  V30 325 C 29.2209 -1.85553 3.08613 0
M  V30 326 C 29.0739 -1.01816 4.38125 0
M  V30 327 C 30.3929 -2.8397 3.36228 0
M  V30 328 H 27.5119 -0.357428 0.644526 0
M  V30 329 H 30.1539 -0.258239 1.88237 0
M  V30 330 H 28.3039 -2.47695 2.99298 0
M  V30 331 H 29.9759 -0.416159 4.59419 0
M  V30 332 H 28.2189 -0.322178 4.32602 0
M  V30 333 H 28.8899 -1.65939 5.26468 0
M  V30 334 H 31.3659 -2.31964 3.45445 0
M  V30 335 H 30.2419 -3.41864 4.29442 0
M  V30 336 H 30.5029 -3.59955 2.56681 0
M  V30 337 N 29.562 -1.4872 -0.521534 0
M  V30 338 C 30.525 -1.63379 -1.60748 0
M  V30 339 C 31.525 -0.50661 -1.52611 0
M  V30 340 O 32.715 -0.772601 -1.5613 0
M  V30 341 C 29.847 -1.61192 -3.00383 0
M  V30 342 H 31.04 -2.60217 -1.49087 0
M  V30 343 H 28.593 -1.37444 -0.744235 0
M  V30 344 H 29.328 -0.65863 -3.17541 0
M  V30 345 H 29.113 -2.43032 -3.07698 0
M  V30 346 H 30.603 -1.7466 -3.7932 0
M  V30 347 N 31.0401 0.771051 -1.3745 0
M  V30 348 C 32.3171 1.519 -1.23231 0
M  V30 349 C 32.6971 2.10383 0.173809 0
M  V30 350 O 32.0451 1.95583 1.18151 0
M  V30 351 C 32.2551 2.59933 -2.32886 0
M  V30 352 C 33.6031 3.27316 -2.70461 0
M  V30 353 O 34.6271 2.70228 -2.32068 0
M  V30 354 O 33.4861 4.30531 -3.36608 0
M  V30 355 H 30.5801 0.672803 -0.480901 0
M  V30 356 H 33.1261 0.807957 -1.49232 0
M  V30 357 H 31.8981 2.14842 -3.27045 0
M  V30 358 H 31.5211 3.38637 -2.08353 0
M  V30 359 N 32.5182 1.22032 0.997298 0
M  V30 360 C 33.4482 1.01065 2.10495 0
M  V30 361 C 34.4292 -0.0669542 1.69968 0
M  V30 362 O 35.6142 0.0943987 1.9397 0
M  V30 363 C 32.7442 0.582874 3.42374 0
M  V30 364 C 31.6982 1.60592 3.96729 0
M  V30 365 C 31.0242 1.03412 5.24605 0
M  V30 366 C 32.3242 2.99478 4.27914 0
M  V30 367 H 34.0182 1.93708 2.28292 0
M  V30 368 H 31.5642 0.932761 1.09707 0
M  V30 369 H 33.5172 0.423332 4.19268 0
M  V30 370 H 32.2412 -0.379213 3.24391 0
M  V30 371 H 30.9002 1.75316 3.21963 0
M  V30 372 H 30.5482 0.063518 5.0296 0
M  V30 373 H 30.2482 1.71754 5.61938 0
M  V30 374 H 31.7722 0.886066 6.04137 0
M  V30 375 H 33.1862 2.88153 4.95622 0
M  V30 376 H 31.5832 3.64903 4.76409 0
M  V30 377 H 32.6532 3.49742 3.3587 0
M  V30 378 N 33.9963 -1.19345 1.0293 0
M  V30 379 C 35.2453 -1.88363 0.721256 0
M  V30 380 C 35.5583 -1.80514 -0.753254 0
M  V30 381 O 36.7643 -2.44788 -1.17436 0
M  V30 382 C 35.2203 -3.37872 1.23978 0
M  V30 383 C 34.8283 -3.54278 2.74211 0
M  V30 384 C 36.5723 -4.12365 1.00775 0
M  V30 385 C 34.4793 -4.97682 3.19479 0
M  V30 386 H 33.4093 -0.705484 0.266098 0
M  V30 387 H 36.0603 -1.34928 1.24365 0
M  V30 388 H 34.4423 -3.90707 0.6453 0
M  V30 389 H 35.6163 -3.11769 3.39318 0
M  V30 390 H 33.9313 -2.93174 2.95699 0
M  V30 391 H 36.5283 -5.18119 1.32123 0
M  V30 392 H 36.8713 -4.16263 -0.0554308 0
M  V30 393 H 37.4043 -3.65668 1.56625 0
M  V30 394 H 34.1433 -4.98945 4.25128 0
M  V30 395 H 33.6633 -5.4095 2.591 0
M  V30 396 H 35.3423 -5.66337 3.12845 0
M  V30 397 N 35.4744 -0.807222 -1.35358 0
M  V30 398 C 36.8904 -0.491038 -1.51858 0
M  V30 399 C 37.0904 0.987648 -1.75635 0
M  V30 400 O 36.1464 1.77265 -1.79815 0
M  V30 401 C 37.4594 -1.33695 -2.69344 0
M  V30 402 C 39.0074 -1.33246 -2.83222 0
M  V30 403 C 39.4824 -2.1625 -4.03733 0
M  V30 404 N 40.9734 -2.1379 -4.10911 0
M  V30 405 C 41.7084 -2.74772 -5.03277 0
M  V30 406 N 41.2044 -3.44684 -6.0097 0
M  V30 407 N 42.9974 -2.6441 -4.96028 0
M  V30 408 H 35.1484 -1.76485 -1.18181 0
M  V30 409 H 37.4114 -0.751199 -0.578276 0
M  V30 410 H 37.1174 -2.38634 -2.58354 0
M  V30 411 H 36.9914 -0.990618 -3.6396 0
M  V30 412 H 39.3784 -0.290911 -2.93663 0
M  V30 413 H 39.4594 -1.71866 -1.89461 0
M  V30 414 H 39.1034 -3.20445 -3.94052 0
M  V30 415 H 39.0334 -1.74989 -4.96675 0
M  V30 416 H 41.5244 -1.62923 -3.40976 0
M  V30 417 H 41.8374 -3.88501 -6.68047 0
M  V30 418 H 40.1824 -3.48788 -6.01142 0
M  V30 419 H 43.3734 -2.0938 -4.18662 0
M  V30 420 H 43.5464 -3.12225 -5.6782 0
M  V30 421 N 36.9525 1.47285 -0.560781 0
M  V30 422 C 38.2005 2.02064 -0.0379868 0
M  V30 423 C 38.5215 1.43711 1.31803 0
M  V30 424 O 37.7915 0.61362 1.86042 0
M  V30 425 H 36.3715 0.746918 -0.0110531 0
M  V30 426 H 39.0335 1.80648 -0.731598 0
M  V30 427 H 38.1295 3.12064 0.0474463 0
M  V30 428 N 38.4306 0.297415 1.54768 0
M  V30 429 C 39.3776 -0.580276 2.23386 0
M  V30 430 C 40.3476 -1.13238 1.21517 0
M  V30 431 O 41.5326 -1.17757 1.50126 0
M  V30 432 C 38.6726 -1.74801 2.97555 0
M  V30 433 C 37.7856 -1.22764 4.1419 0
M  V30 434 C 36.9206 -2.35895 4.75949 0
M  V30 435 C 35.9596 -1.80974 5.84735 0
M  V30 436 N 35.0966 -2.87664 6.40464 0
M  V30 437 H 39.9366 0.0114833 2.97998 0
M  V30 438 H 37.4736 0.0174361 1.4709 0
M  V30 439 H 39.4316 -2.43475 3.38786 0
M  V30 440 H 38.0616 -2.31145 2.25326 0
M  V30 441 H 37.1136 -0.433271 3.77924 0
M  V30 442 H 38.4256 -0.785551 4.92575 0
M  V30 443 H 37.5796 -3.12523 5.20014 0
M  V30 444 H 36.3186 -2.83429 3.96887 0
M  V30 445 H 35.3236 -1.02834 5.40097 0
M  V30 446 H 36.5486 -1.34348 6.65678 0
M  V30 447 H 34.4946 -3.34538 5.64287 0
M  V30 448 H 34.4116 -2.4794 7.14186 0
M  V30 449 H 35.6796 -3.642 6.89187 0
M  V30 450 N 39.9087 -1.5758 0.0250728 0
M  V30 451 C 40.8557 -2.09973 -0.958129 0
M  V30 452 C 41.8257 -1.00085 -1.3256 0
M  V30 453 O 43.0107 -1.27481 -1.41962 0
M  V30 454 C 40.1507 -2.62812 -2.2366 0
M  V30 455 C 39.2637 -3.86693 -1.92594 0
M  V30 456 C 38.3987 -4.27941 -3.14707 0
M  V30 457 C 37.4377 -5.44591 -2.79442 0
M  V30 458 N 36.5747 -5.81014 -3.94167 0
M  V30 459 H 41.4147 -2.937 -0.504428 0
M  V30 460 H 38.9517 -1.45172 -0.237392 0
M  V30 461 H 40.9097 -2.91536 -2.98434 0
M  V30 462 H 39.5397 -1.81922 -2.66654 0
M  V30 463 H 38.5917 -3.64723 -1.0808 0
M  V30 464 H 39.9037 -4.71547 -1.62619 0
M  V30 465 H 39.0577 -4.58079 -3.97804 0
M  V30 466 H 37.7967 -3.41845 -3.4784 0
M  V30 467 H 36.8017 -5.1415 -1.94755 0
M  V30 468 H 38.0267 -6.32382 -2.47528 0
M  V30 469 H 35.9727 -4.97874 -4.2715 0
M  V30 470 H 35.8897 -6.60498 -3.67801 0
M  V30 471 H 37.1577 -6.15756 -4.7798 0
M  V30 472 N 41.3868 0.248026 -1.55636 0
M  V30 473 C 42.6328 0.97767 -1.77678 0
M  V30 474 C 42.9658 1.85016 -0.590135 0
M  V30 475 O 42.2408 1.90095 0.411611 0
M  V30 476 C 42.5238 1.83914 -3.09593 0
M  V30 477 C 42.3768 0.99491 -4.38659 0
M  V30 478 C 43.6958 2.82183 -3.37729 0
M  V30 479 H 40.8148 0.354005 -0.646413 0
M  V30 480 H 43.4568 0.248253 -1.88371 0
M  V30 481 H 41.6068 2.46104 -3.00608 0
M  V30 482 H 43.2788 0.391789 -4.59633 0
M  V30 483 H 41.5218 0.299231 -4.32767 0
M  V30 484 H 42.1928 1.63145 -5.2734 0
M  V30 485 H 44.6688 2.30129 -3.4667 0
M  V30 486 H 43.5448 3.39582 -4.31249 0
M  V30 487 H 43.8058 3.58588 -2.58586 0
M  V30 488 N 42.8649 1.48995 0.513639 0
M  V30 489 C 44.0899 1.61792 1.29762 0
M  V30 490 C 44.5149 0.284475 1.85936 0
M  V30 491 O 43.8729 -0.746185 1.65232 0
M  V30 492 C 43.9209 2.67993 2.41272 0
M  V30 493 O 43.0249 2.26287 3.44772 0
M  V30 494 H 42.3659 0.541963 0.38363 0
M  V30 495 H 44.8959 1.95097 0.616307 0
M  V30 496 H 44.9059 2.89772 2.87221 0
M  V30 497 H 43.5809 3.64791 1.9975 0
M  V30 498 H 42.1579 2.14788 3.04829 0
M  V30 499 N 44.343 -0.763751 1.37857 0
M  V30 500 C 45.275 -1.88664 1.30148 0
M  V30 501 C 46.288 -1.61365 0.215685 0
M  V30 502 O 47.477 -1.72134 0.472459 0
M  V30 503 C 44.577 -3.24075 0.991396 0
M  V30 504 C 43.75 -3.78958 2.18426 0
M  V30 505 C 42.809 -4.92862 1.8432 0
M  V30 506 O 41.835 -5.08027 2.56704 0
M  V30 507 N 43.037 -5.75071 0.792081 0
M  V30 508 H 45.802 -1.95791 2.26905 0
M  V30 509 H 43.363 -0.943226 1.31586 0
M  V30 510 H 45.355 -3.97804 0.743935 0
M  V30 511 H 43.925 -3.12399 0.112122 0
M  V30 512 H 43.145 -2.96913 2.59299 0
M  V30 513 H 44.433 -4.12357 2.98058 0
M  V30 514 H 43.831 -5.65375 0.191595 0
M  V30 515 H 42.388 -6.48991 0.60449 0
M  V30 516 N 45.8211 -1.22559 -0.990812 0
M  V30 517 C 46.7841 -0.998863 -2.0629 0
M  V30 518 C 47.7841 0.0354834 -1.60761 0
M  V30 519 O 48.9741 -0.203231 -1.7301 0
M  V30 520 C 46.1061 -0.509203 -3.37076 0
M  V30 521 H 47.2991 -1.95014 -2.27837 0
M  V30 522 H 44.8521 -1.04456 -1.16269 0
M  V30 523 H 45.5871 0.446335 -3.21214 0
M  V30 524 H 45.3721 -1.25547 -3.71457 0
M  V30 525 H 46.8621 -0.370888 -4.1595 0
M  V30 526 N 47.2992 1.18797 -1.03562 0
M  V30 527 C 48.2292 2.24472 -0.643019 0
M  V30 528 C 49.2102 1.66433 0.351283 0
M  V30 529 O 50.3952 1.92803 0.232505 0
M  V30 530 C 47.5252 3.473 4.24935e-05 0
M  V30 531 C 46.4792 4.18055 -0.917257 0
M  V30 532 C 45.8052 5.34519 -0.138941 0
M  V30 533 C 47.1052 4.72109 -2.23407 0
M  V30 534 H 48.7992 2.57566 -1.52643 0
M  V30 535 H 46.3452 1.23806 -0.735394 0
M  V30 536 H 48.2982 4.20426 0.286383 0
M  V30 537 H 47.0222 3.13424 0.918299 0
M  V30 538 H 45.6812 3.46821 -1.1879 0
M  V30 539 H 45.3292 4.96891 0.781562 0
M  V30 540 H 45.0292 5.82794 -0.750005 0
M  V30 541 H 46.5532 6.10438 0.1405 0
M  V30 542 H 47.9672 5.36955 -2.00879 0
M  V30 543 H 46.3642 5.30897 -2.79765 0
M  V30 544 H 47.4342 3.89807 -2.88407 0
M  V30 545 N 48.7773 0.814389 1.34928 0
M  V30 546 C 50.0543 0.321363 1.92942 0
M  V30 547 C 50.4343 -1.19014 1.74353 0
M  V30 548 O 49.7823 -1.99328 1.11716 0
M  V30 549 C 49.9923 0.741323 3.41036 0
M  V30 550 C 51.3403 0.735266 4.18185 0
M  V30 551 O 52.3643 0.68336 3.49584 0
M  V30 552 O 51.2233 0.800703 5.40602 0
M  V30 553 H 48.3173 0.0858893 0.822528 0
M  V30 554 H 50.8633 0.898609 1.43955 0
M  V30 555 H 49.6353 1.78276 3.4833 0
M  V30 556 H 49.2583 0.139307 3.97356 0
M  V30 557 N 50.2554 -1.46986 0.568584 0
M  V30 558 C 51.5044 -2.01646 0.0465894 0
M  V30 559 C 51.8174 -1.44721 -1.31587 0
M  V30 560 O 53.0234 -1.91113 -1.92842 0
M  V30 561 C 51.4794 -3.59885 0.032752 0
M  V30 562 C 51.0874 -4.25804 1.39266 0
M  V30 563 C 52.8314 -4.22255 -0.436038 0
M  V30 564 C 50.7384 -5.76081 1.33732 0
M  V30 565 H 49.6684 -0.753876 0.013647 0
M  V30 566 H 52.3194 -1.68864 0.718131 0
M  V30 567 H 50.7014 -3.8968 -0.704669 0
M  V30 568 H 51.8754 -4.07637 2.1487 0
M  V30 569 H 50.1904 -3.7547 1.80032 0
M  V30 570 H 52.7874 -5.32394 -0.49602 0
M  V30 571 H 53.1304 -3.90212 -1.45053 0
M  V30 572 H 53.6634 -3.97033 0.246877 0
M  V30 573 H 50.4024 -6.12761 2.32817 0
M  V30 574 H 49.9224 -5.96553 0.623267 0
M  V30 575 H 51.6014 -6.38518 1.0442 0
M  V30 576 N 51.7335 -0.305618 -1.54608 0
M  V30 577 C 52.6635 0.561482 -2.26649 0
M  V30 578 C 53.6445 1.13415 -1.26772 0
M  V30 579 O 54.8295 1.16262 -1.55553 0
M  V30 580 C 51.9595 1.73122 -3.01075 0
M  V30 581 C 50.9135 1.2887 -4.08138 0
M  V30 582 C 50.2395 2.54396 -4.70305 0
M  V30 583 C 51.5395 0.416578 -5.20636 0
M  V30 584 H 53.2335 -0.0393902 -2.99374 0
M  V30 585 H 50.7795 -0.020385 -1.43986 0
M  V30 586 H 52.7325 2.34396 -3.50195 0
M  V30 587 H 51.4565 2.3584 -2.25936 0
M  V30 588 H 50.1155 0.698991 -3.59875 0
M  V30 589 H 49.7635 3.15439 -3.918 0
M  V30 590 H 49.4635 2.25486 -5.42614 0
M  V30 591 H 50.9875 3.16464 -5.2219 0
M  V30 592 H 52.4015 0.935116 -5.65622 0
M  V30 593 H 50.7985 0.221046 -5.99693 0
M  V30 594 H 51.8685 -0.557162 -4.81688 0
M  V30 595 N 53.2116 1.57565 -0.0334293 0
M  V30 596 C 54.4396 1.9628 0.654347 0
M  V30 597 C 54.8546 0.910138 1.65414 0
M  V30 598 O 54.2116 -0.107595 1.82183 0
M  V30 599 C 54.2626 3.35067 1.35693 0
M  V30 600 O 53.9836 4.36296 0.397191 0
M  V30 601 C 55.4846 3.88439 2.13613 0
M  V30 602 H 52.7046 0.646369 0.180132 0
M  V30 603 H 55.2486 2.04282 -0.0944721 0
M  V30 604 H 53.4036 3.2827 2.05712 0
M  V30 605 H 53.8176 5.1678 0.896597 0
M  V30 606 H 55.2916 4.8788 2.58219 0
M  V30 607 H 55.7686 3.22914 2.97696 0
M  V30 608 H 56.3746 3.98516 1.48543 0
M  V30 609 N 54.6897 -0.239769 1.55765 0
M  V30 610 C 55.9197 -0.982743 1.8173 0
M  V30 611 C 56.3277 -1.7917 0.607835 0
M  V30 612 O 55.6707 -1.78525 -0.432973 0
M  V30 613 C 55.7327 -1.96332 3.01155 0
M  V30 614 C 55.3967 -1.34062 4.36894 0
M  V30 615 C 56.3937 -0.739539 5.14613 0
M  V30 616 C 54.0787 -1.35784 4.83599 0
M  V30 617 C 56.0727 -0.163989 6.37189 0
M  V30 618 C 53.7597 -0.778441 6.06122 0
M  V30 619 C 54.7577 -0.182548 6.82756 0
M  V30 620 O 54.4457 0.387887 8.02964 0
M  V30 621 H 54.1777 -0.294481 0.608487 0
M  V30 622 H 56.7317 -0.26572 2.03674 0
M  V30 623 H 54.9617 -2.71884 2.74984 0
M  V30 624 H 56.6507 -2.57032 3.14149 0
M  V30 625 H 57.4167 -0.718687 4.79646 0
M  V30 626 H 53.2957 -1.81105 4.23936 0
M  V30 627 H 56.8397 0.301753 6.96947 0
M  V30 628 H 52.7367 -0.796645 6.40565 0
M  V30 629 H 53.5047 0.28044 8.18019 0
M  V30 630 N 56.1678 -1.49265 -0.50573 0
M  V30 631 C 57.3958 -1.62215 -1.28429 0
M  V30 632 C 57.8108 -0.291697 -1.86533 0
M  V30 633 O 57.1678 0.722233 -1.67601 0
M  V30 634 C 57.2188 -2.68735 -2.41793 0
M  V30 635 O 56.9398 -3.96619 -1.86078 0
M  V30 636 C 58.4408 -2.92346 -3.3324 0
M  V30 637 H 55.6608 -0.546239 -0.389697 0
M  V30 638 H 58.2048 -1.95265 -0.607609 0
M  V30 639 H 56.3598 -2.38476 -3.053 0
M  V30 640 H 56.7738 -4.55256 -2.60465 0
M  V30 641 H 58.2478 -3.70623 -4.09075 0
M  V30 642 H 58.7248 -2.02081 -3.89948 0
M  V30 643 H 59.3308 -3.24003 -2.75503 0
M  V30 644 N 57.6459 0.756429 -1.3826 0
M  V30 645 C 58.5939 1.89149 -1.35372 0
M  V30 646 C 59.5879 1.67691 -0.24004 0
M  V30 647 O 60.7939 1.75294 -0.408919 0
M  V30 648 H 57.1689 0.622271 -0.422236 0
M  V30 649 H 59.1399 1.88701 -2.31159 0
M  V30 650 C 57.8889 3.26599 -1.19284 0
M  V30 651 H 57.2119 3.43695 -2.0424 0
M  V30 652 H 58.6519 4.06274 -1.21316 0
M  V30 653 C 57.1109 3.3675 0.100454 0
M  V30 654 O 57.6409 3.86951 1.07851 0
M  V30 655 N 55.8469 2.90179 0.15633 0
M  V30 656 H 55.3939 2.49517 -0.640253 0
M  V30 657 H 55.3519 2.97352 1.02123 0
M  V30 658 N 59.124 1.23083 0.984299 0
M  V30 659 C 60.071 1.00854 2.07598 0
M  V30 660 C 61.041 -0.0726709 1.65941 0
M  V30 661 O 62.226 0.0786535 1.90638 0
M  V30 662 C 59.366 0.601645 3.39815 0
M  V30 663 C 58.479 1.75456 3.94765 0
M  V30 664 C 57.614 1.29482 5.15177 0
M  V30 665 C 56.653 2.41873 5.62284 0
M  V30 666 N 55.79 1.96885 6.73929 0
M  V30 667 H 60.63 1.943 2.25946 0
M  V30 668 H 58.167 0.968001 1.10762 0
M  V30 669 H 60.125 0.346854 4.15756 0
M  V30 670 H 58.755 -0.295803 3.21442 0
M  V30 671 H 57.807 2.12346 3.15616 0
M  V30 672 H 59.119 2.59965 4.25699 0
M  V30 673 H 58.273 0.997923 5.98437 0
M  V30 674 H 57.012 0.420046 4.85888 0
M  V30 675 H 56.017 2.72342 4.77608 0
M  V30 676 H 57.242 3.29881 5.93595 0
M  V30 677 H 55.188 1.11782 6.46406 0
M  V30 678 H 55.105 2.74956 7.04227 0
M  V30 679 H 56.373 1.70289 7.60672 0
M  V30 680 N 60.6021 -1.18246 1.0419 0
M  V30 681 C 61.5491 -2.2192 0.634037 0
M  V30 682 C 62.5191 -1.62179 -0.358765 0
M  V30 683 O 63.7041 -1.89122 -0.252466 0
M  V30 684 C 60.8441 -3.451 0.00445535 0
M  V30 685 C 59.9571 -4.19174 1.04487 0
M  V30 686 C 59.0921 -5.29813 0.383676 0
M  V30 687 C 58.1311 -5.9566 1.4091 0
M  V30 688 N 57.2681 -6.97834 0.772784 0
M  V30 689 H 62.1081 -2.56164 1.52263 0
M  V30 690 H 59.6451 -1.25843 0.761701 0
M  V30 691 H 61.6031 -4.15485 -0.377919 0
M  V30 692 H 60.2331 -3.11472 -0.847652 0
M  V30 693 H 59.2851 -3.47604 1.54518 0
M  V30 694 H 60.5971 -4.64267 1.82368 0
M  V30 695 H 59.7511 -6.06677 -0.0528366 0
M  V30 696 H 58.4901 -4.85825 -0.427208 0
M  V30 697 H 57.4951 -5.17535 1.85574 0
M  V30 698 H 58.7201 -6.4173 2.22171 0
M  V30 699 H 56.6661 -6.55998 -0.0177708 0
M  V30 700 H 56.5831 -7.41186 1.48928 0
M  V30 701 H 57.8511 -7.78665 0.36071 0
M  V30 702 N 62.0802 -0.821533 -1.34494 0
M  V30 703 C 63.0432 -0.247847 -2.27856 0
M  V30 704 C 64.0432 0.573453 -1.50227 0
M  V30 705 O 65.2332 0.389759 -1.69784 0
M  V30 706 C 62.3652 0.652698 -3.34593 0
M  V30 707 H 63.5582 -1.07146 -2.80107 0
M  V30 708 H 61.1112 -0.593291 -1.44602 0
M  V30 709 H 61.8462 1.49943 -2.87555 0
M  V30 710 H 61.6312 0.065292 -3.92046 0
M  V30 711 H 63.1212 1.04793 -4.04238 0
M  V30 712 N 63.5583 1.46682 -0.576371 0
M  V30 713 C 64.5213 2.28707 0.150239 0
M  V30 714 C 65.5213 1.38035 0.824794 0
M  V30 715 O 66.7113 1.60476 0.677719 0
M  V30 716 C 63.8433 3.18248 1.22192 0
M  V30 717 H 65.0363 2.94423 -0.570521 0
M  V30 718 H 62.5893 1.52688 -0.334078 0
M  V30 719 H 63.3243 2.57265 1.97447 0
M  V30 720 H 63.1093 3.85 0.742812 0
M  V30 721 H 64.5993 3.80001 1.73172 0
M  V30 722 N 65.0364 0.313813 1.54444 0
M  V30 723 C 66.2824 -0.292108 2.00685 0
M  V30 724 C 66.6154 -1.52548 1.20177 0
M  V30 725 O 65.8904 -1.92452 0.281531 0
M  V30 726 C 66.1734 -0.635968 3.5444 0
M  V30 727 C 66.0264 0.607437 4.4568 0
M  V30 728 C 67.3454 -1.45747 4.15266 0
M  V30 729 H 64.4644 -0.104697 0.729526 0
M  V30 730 H 67.1064 0.428457 1.85106 0
M  V30 731 H 65.2564 -1.24986 3.67846 0
M  V30 732 H 66.9284 1.24581 4.44159 0
M  V30 733 H 65.1714 1.23822 4.15753 0
M  V30 734 H 65.8424 0.322515 5.51057 0
M  V30 735 H 68.3184 -0.938645 4.05375 0
M  V30 736 H 67.1944 -1.66683 5.2298 0
M  V30 737 H 67.4554 -2.45063 3.67963 0
M  V30 738 N 66.5145 -1.57545 0.0417849 0
M  V30 739 C 67.4445 -2.14009 -0.933929 0
M  V30 740 C 68.4255 -1.05938 -1.33083 0
M  V30 741 O 69.6105 -1.33833 -1.40721 0
M  V30 742 C 66.7405 -2.67747 -2.21199 0
M  V30 743 C 65.6945 -3.80718 -1.95544 0
M  V30 744 C 65.0205 -4.20935 -3.29724 0
M  V30 745 C 66.3205 -5.06258 -1.28452 0
M  V30 746 H 68.0145 -2.95788 -0.463645 0
M  V30 747 H 65.5605 -1.42285 -0.221573 0
M  V30 748 H 67.5135 -3.05886 -2.89848 0
M  V30 749 H 66.2375 -1.83147 -2.70416 0
M  V30 750 H 64.8965 -3.43037 -1.2931 0
M  V30 751 H 64.5445 -3.33298 -3.76724 0
M  V30 752 H 64.2445 -4.9707 -3.13361 0
M  V30 753 H 65.7685 -4.61666 -3.9962 0
M  V30 754 H 67.1825 -5.41903 -1.8712 0
M  V30 755 H 65.5795 -5.87475 -1.22445 0
M  V30 756 H 66.6495 -4.84207 -0.259219 0
M  V30 757 N 67.9926 0.231505 -1.5589 0
M  V30 758 C 69.2386 0.95877 -1.78705 0
M  V30 759 C 69.5716 1.8438 -0.609725 0
M  V30 760 O 68.8466 1.90521 0.391426 0
M  V30 761 C 69.1296 1.8062 -3.11526 0
M  V30 762 C 68.9826 0.948328 -4.39689 0
M  V30 763 C 70.3016 2.78585 -3.40703 0
M  V30 764 H 67.4206 0.347129 -0.650131 0
M  V30 765 H 70.0626 0.228259 -1.88624 0
M  V30 766 H 68.2126 2.42902 -3.03201 0
M  V30 767 H 69.8846 0.343016 -4.60023 0
M  V30 768 H 68.1276 0.253314 -4.3306 0
M  V30 769 H 68.7986 1.57543 -5.29041 0
M  V30 770 H 71.2746 2.26439 -3.49091 0
M  V30 771 H 70.1506 3.34988 -4.34826 0
M  V30 772 H 70.4116 3.55825 -2.62375 0
M  V30 773 N 69.4707 1.49531 0.497807 0
M  V30 774 C 70.4177 1.66436 1.59899 0
M  V30 775 C 71.3877 0.505793 1.58212 0
M  V30 776 O 72.5727 0.733202 1.7615 0
M  V30 777 C 69.7127 1.7399 2.98029 0
M  V30 778 C 68.8257 3.01172 3.09708 0
M  V30 779 C 67.9607 2.99686 4.38591 0
M  V30 780 C 66.9997 4.21434 4.43914 0
M  V30 781 N 66.1367 4.1784 5.64229 0
M  V30 782 H 70.9767 2.60459 1.44793 0
M  V30 783 H 68.5137 1.29137 0.704423 0
M  V30 784 H 70.4717 1.76352 3.78095 0
M  V30 785 H 69.1017 0.834301 3.11832 0
M  V30 786 H 68.1537 3.08408 2.22685 0
M  V30 787 H 69.4657 3.91165 3.09502 0
M  V30 788 H 68.6197 3.00628 5.2698 0
M  V30 789 H 67.3587 2.07477 4.41367 0
M  V30 790 H 66.3637 4.20733 3.53926 0
M  V30 791 H 67.5887 5.14839 4.42851 0
M  V30 792 H 65.5347 3.28469 5.67841 0
M  V30 793 H 65.4517 5.01571 5.65652 0
M  V30 794 H 66.7197 4.22889 6.54817 0
M  V30 795 N 70.9488 -0.749086 1.3866 0
M  V30 796 C 71.8958 -1.86291 1.36251 0
M  V30 797 C 72.8658 -1.64578 0.224347 0
M  V30 798 O 74.0508 -1.86181 0.417279 0
M  V30 799 C 71.1908 -3.23644 1.19786 0
M  V30 800 C 70.3038 -3.57158 2.43027 0
M  V30 801 C 69.4388 -4.83838 2.19258 0
M  V30 802 C 68.4778 -5.10152 3.38247 0
M  V30 803 N 67.6148 -6.28029 3.13884 0
M  V30 804 H 72.4548 -1.87685 2.3147 0
M  V30 805 H 69.9918 -0.917287 1.14997 0
M  V30 806 H 71.9498 -4.0291 1.08254 0
M  V30 807 H 70.5798 -3.21566 0.282031 0
M  V30 808 H 69.6318 -2.72701 2.65214 0
M  V30 809 H 70.9438 -3.7253 3.31697 0
M  V30 810 H 70.0978 -5.71057 2.04888 0
M  V30 811 H 68.8368 -4.70614 1.2796 0
M  V30 812 H 67.8418 -4.21401 3.53131 0
M  V30 813 H 69.0668 -5.25271 4.30427 0
M  V30 814 H 67.0128 -6.1612 2.25238 0
M  V30 815 H 66.9298 -6.43922 3.96106 0
M  V30 816 H 68.1978 -7.18124 3.03179 0
M  V30 817 N 72.4269 -1.23603 -0.977757 0
M  V30 818 C 73.6729 -1.07129 -1.72195 0
M  V30 819 C 74.0059 0.390501 -1.90233 0
M  V30 820 O 73.2809 1.28902 -1.45653 0
M  V30 821 C 73.5639 -1.80031 -3.11867 0
M  V30 822 C 73.4169 -3.33899 -3.01383 0
M  V30 823 C 74.7359 -1.56492 -4.11337 0
M  V30 824 H 71.8549 -0.390571 -0.624999 0
M  V30 825 H 74.4969 -1.52142 -1.13811 0
M  V30 826 H 72.6469 -1.41768 -3.6171 0
M  V30 827 H 74.3189 -3.81699 -2.59043 0
M  V30 828 H 72.5619 -3.62796 -2.37827 0
M  V30 829 H 73.2329 -3.801 -4.00285 0
M  V30 830 H 75.7089 -1.89757 -3.70313 0
M  V30 831 H 74.5849 -2.09973 -5.07151 0
M  V30 832 H 74.8459 -0.500874 -4.39254 0
M  V30 833 N 73.905 1.17692 -1.04816 0
M  V30 834 C 74.835 2.23777 -0.666791 0
M  V30 835 C 75.816 1.66796 0.33361 0
M  V30 836 O 77.001 1.93039 0.212042 0
M  V30 837 C 74.131 3.47281 -0.0367933 0
M  V30 838 C 73.085 4.17059 -0.961546 0
M  V30 839 C 72.411 5.34342 -0.195626 0
M  V30 840 C 73.711 4.69713 -2.28402 0
M  V30 841 H 75.405 2.55933 -1.55367 0
M  V30 842 H 72.951 1.23019 -0.748484 0
M  V30 843 H 74.904 4.20706 0.241775 0
M  V30 844 H 73.628 3.14381 0.885004 0
M  V30 845 H 72.287 3.45541 -1.22462 0
M  V30 846 H 71.935 4.97692 0.728816 0
M  V30 847 H 71.635 5.81966 -0.811775 0
M  V30 848 H 73.159 6.10553 0.0757473 0
M  V30 849 H 74.573 5.34794 -2.06563 0
M  V30 850 H 72.97 5.279 -2.8538 0
M  V30 851 H 74.04 3.86726 -2.92525 0
M  V30 852 N 75.3831 0.828654 1.34056 0
M  V30 853 C 76.2931 0.256725 2.33191 0
M  V30 854 C 77.3091 -0.611898 1.62886 0
M  V30 855 O 78.4851 -0.51844 1.94613 0
M  V30 856 C 75.5501 -0.567238 3.42028 0
M  V30 857 C 74.6111 0.324458 4.28072 0
M  V30 858 C 73.8441 -0.460274 5.31712 0
M  V30 859 O 74.0671 -1.693 5.44696 0
M  V30 860 O 73.0011 0.160391 6.01686 0
M  V30 861 H 76.8271 1.07739 2.83947 0
M  V30 862 H 74.4121 0.59093 1.37217 0
M  V30 863 H 76.2941 -1.03582 4.08471 0
M  V30 864 H 74.9691 -1.36513 2.93506 0
M  V30 865 H 73.8761 0.840659 3.64532 0
M  V30 866 H 75.2091 1.08685 4.8005 0
M  V30 867 N 76.8612 -1.46375 0.584142 0
M  V30 868 C 78.0862 -2.07268 0.0740405 0
M  V30 869 C 78.5112 -1.42979 -1.22223 0
M  V30 870 O 77.8692 -0.514092 -1.73859 0
M  V30 871 C 77.9172 -3.60518 -0.0767769 0
M  V30 872 O 77.0212 -3.96533 -1.13292 0
M  V30 873 H 76.3622 -0.660961 0.0634524 0
M  V30 874 H 78.8922 -1.87991 0.807492 0
M  V30 875 H 78.9022 -4.07021 -0.282489 0
M  V30 876 H 77.5772 -4.06702 0.86986 0
M  V30 877 H 76.1542 -3.61738 -0.905553 0
M  V30 878 N 78.3393 -0.321999 -1.54275 0
M  V30 879 C 79.3023 0.531975 -2.22941 0
M  V30 880 C 80.3023 1.04478 -1.22234 0
M  V30 881 O 81.4923 0.937452 -1.46825 0
M  V30 882 C 78.6243 1.73874 -2.93224 0
M  V30 883 H 79.8173 -0.0682612 -2.99822 0
M  V30 884 H 77.3703 -0.0730644 -1.56129 0
M  V30 885 H 78.1053 2.37825 -2.20476 0
M  V30 886 H 77.8903 1.37847 -3.6707 0
M  V30 887 H 79.3803 2.34496 -3.45545 0
M  V30 888 N 79.8174 1.5752 -0.0501392 0
M  V30 889 C 81.0664 1.91827 0.623328 0
M  V30 890 C 81.3794 0.930222 1.72065 0
M  V30 891 O 82.5854 1.1653 2.4522 0
M  V30 892 C 81.0414 3.40692 1.16003 0
M  V30 893 C 80.6494 4.479 0.0948811 0
M  V30 894 C 82.3934 3.84034 1.80881 0
M  V30 895 C 80.3004 5.87879 0.644411 0
M  V30 896 H 79.2304 0.715918 0.236596 0
M  V30 897 H 81.8814 1.83115 -0.118861 0
M  V30 898 H 80.2634 3.44405 1.9545 0
M  V30 899 H 81.4374 4.55775 -0.678675 0
M  V30 900 H 79.7524 4.13892 -0.45637 0
M  V30 901 H 82.3494 4.85984 2.22988 0
M  V30 902 H 82.6924 3.20225 2.6601 0
M  V30 903 H 83.2254 3.82833 1.0809 0
M  V30 904 H 79.9644 6.55282 -0.169229 0
M  V30 905 H 79.4844 5.83567 1.38598 0
M  V30 906 H 81.1634 6.37098 1.12763 0
M  V30 907 N 81.2955 -0.223234 1.56011 0
M  V30 908 C 82.2585 -1.26014 1.9145 0
M  V30 909 C 83.2585 -1.3989 0.792937 0
M  V30 910 O 84.4485 -1.38184 1.0607 0
M  V30 911 C 81.5805 -2.63422 2.16383 0
M  V30 912 H 82.7735 -0.95796 2.84189 0
M  V30 913 H 80.3265 -0.463576 1.49267 0
M  V30 914 H 81.0615 -2.98741 1.2619 0
M  V30 915 H 80.8465 -2.54728 2.98088 0
M  V30 916 H 82.3365 -3.38249 2.44903 0
M  V30 917 N 82.7736 -1.49793 -0.48987 0
M  V30 918 C 83.7216 -1.67783 -1.61095 0
M  V30 919 C 84.7156 -0.543683 -1.60438 0
M  V30 920 O 85.9216 -0.723647 -1.64813 0
M  V30 921 H 82.2966 -0.529255 -0.534222 0
M  V30 922 H 84.2676 -2.61861 -1.43078 0
M  V30 923 C 83.0166 -1.77191 -2.99164 0
M  V30 924 H 82.3396 -2.63841 -3.0038 0
M  V30 925 H 83.7796 -1.93809 -3.77113 0
M  V30 926 C 82.2386 -0.519203 -3.32875 0
M  V30 927 O 82.7686 0.350124 -4.00171 0
M  V30 928 N 80.9746 -0.378816 -2.8812 0
M  V30 929 H 80.5216 -1.08725 -2.33531 0
M  V30 930 H 80.4796 0.458239 -3.11043 0
M  V30 931 N 84.2517 0.741722 -1.39055 0
M  V30 932 C 85.2147 1.83733 -1.37021 0
M  V30 933 C 86.2147 1.58542 -0.268534 0
M  V30 934 O 87.4047 1.66067 -0.526076 0
M  V30 935 C 84.5367 3.2141 -1.13617 0
M  V30 936 H 85.7297 1.86941 -2.34506 0
M  V30 937 H 83.2827 0.944676 -1.24521 0
M  V30 938 H 84.0177 3.23865 -0.167863 0
M  V30 939 H 83.8027 3.4109 -1.93391 0
M  V30 940 H 85.2927 4.01477 -1.14918 0
M  V30 941 N 85.7298 1.2412 0.971189 0
M  V30 942 C 86.6398 1.04747 2.09917 0
M  V30 943 C 87.6558 -0.0107162 1.73997 0
M  V30 944 O 88.8318 0.186714 2.00533 0
M  V30 945 C 85.8968 0.650828 3.40537 0
M  V30 946 C 84.9578 1.7851 3.90426 0
M  V30 947 C 84.1908 1.40729 5.14812 0
M  V30 948 O 84.4138 0.29557 5.69634 0
M  V30 949 O 83.3478 2.23168 5.58999 0
M  V30 950 H 87.1738 1.99304 2.29154 0
M  V30 951 H 84.7588 1.02908 1.08307 0
M  V30 952 H 86.6408 0.440992 4.19086 0
M  V30 953 H 85.3158 -0.265649 3.22608 0
M  V30 954 H 84.2228 2.04966 3.12953 0
M  V30 955 H 85.5558 2.68023 4.12825 0
M  V30 956 N 87.2079 -1.17134 1.05439 0
M  V30 957 C 88.1579 -2.1919 0.627675 0
M  V30 958 C 89.1419 -1.57328 -0.337147 0
M  V30 959 O 90.3339 -1.76329 -0.153976 0
M  V30 960 C 87.4629 -3.43299 0.00651435 0
M  V30 961 C 86.5489 -4.12255 0.995312 0
M  V30 962 N 86.9399 -4.56997 2.16765 0
M  V30 963 C 85.2379 -4.38316 0.824336 0
M  V30 964 C 85.9389 -5.10239 2.7934 0
M  V30 965 N 84.9149 -5.02595 2.07122 0
M  V30 966 H 88.7169 -2.5149 1.52086 0
M  V30 967 H 86.2309 -1.33491 0.924868 0
M  V30 968 H 88.2279 -4.15693 -0.316965 0
M  V30 969 H 86.8879 -3.1249 -0.882033 0
M  V30 970 H 87.8989 -4.51006 2.54587 0
M  V30 971 H 84.5759 -4.17498 -0.0129526 0
M  V30 972 H 85.9659 -5.54961 3.78772 0
M  V30 973 N 88.686 -0.835752 -1.33615 0
M  V30 974 C 89.634 -0.255238 -2.31195 0
M  V30 975 C 90.628 0.61107 -1.57995 0
M  V30 976 O 91.834 0.500979 -1.72888 0
M  V30 977 H 88.209 -0.0638085 -0.749288 0
M  V30 978 H 90.18 -1.09283 -2.77669 0
M  V30 979 C 88.929 0.55754 -3.43201 0
M  V30 980 H 88.252 -0.0997553 -3.99676 0
M  V30 981 H 89.692 0.929622 -4.13683 0
M  V30 982 C 88.151 1.73515 -2.88781 0
M  V30 983 O 88.681 2.83376 -2.84712 0
M  V30 984 N 86.887 1.55603 -2.4543 0
M  V30 985 H 86.434 0.662354 -2.48939 0
M  V30 986 H 86.392 2.34545 -2.09371 0
M  V30 987 N 90.1641 1.46063 -0.591896 0
M  V30 988 C 91.4411 1.95595 -0.0137119 0
M  V30 989 C 91.8211 1.5345 1.4497 0
M  V30 990 O 91.1691 0.789543 2.14426 0
M  V30 991 C 91.3791 3.48453 -0.195373 0
M  V30 992 C 92.7271 4.24546 -0.0679765 0
M  V30 993 O 93.7511 3.55982 -0.124681 0
M  V30 994 O 92.6101 5.46467 0.0600579 0
M  V30 995 H 89.7041 0.825795 0.0446279 0
M  V30 996 H 92.2501 1.56303 -0.660859 0
M  V30 997 H 91.0221 3.72045 -1.21235 0
M  V30 998 H 90.6451 3.94597 0.487775 0
M  V30 999 N 91.6422 0.330177 1.54103 0
M  V30 1000 C 92.8902 -0.269871 2.0029 0
M  V30 1001 C 93.2112 -1.52133 1.21986 0
M  V30 1002 O 92.4812 -1.93212 0.323438 0
M  V30 1003 H 91.0612 -0.10271 0.739905 0
M  V30 1004 H 93.7232 0.448249 1.89675 0
M  V30 1005 H 92.8192 -0.52166 3.07709 0
M  V30 1006 N 93.1203 -1.57491 0.0584922 0
M  V30 1007 C 94.0833 -2.1085 -0.898617 0
M  V30 1008 C 95.0833 -1.02964 -1.23511 0
M  V30 1009 O 96.2733 -1.29007 -1.17059 0
M  V30 1010 C 93.4053 -2.59881 -2.20623 0
M  V30 1011 H 94.5983 -2.96715 -0.435936 0
M  V30 1012 H 92.1513 -1.55141 -0.190023 0
M  V30 1013 H 92.8863 -1.77431 -2.71457 0
M  V30 1014 H 92.6713 -3.38727 -1.97501 0
M  V30 1015 H 94.1613 -3.01285 -2.89166 0
M  V30 1016 N 94.5984 0.214957 -1.56127 0
M  V30 1017 C 95.8754 0.963093 -1.70247 0
M  V30 1018 C 96.2554 2.02166 -0.60764 0
M  V30 1019 O 95.6034 2.25244 0.384385 0
M  V30 1020 C 95.8134 1.56756 -3.11815 0
M  V30 1021 C 97.1614 2.0573 -3.7143 0
M  V30 1022 O 98.1854 1.66637 -3.14818 0
M  V30 1023 O 97.0444 2.77603 -4.70743 0
M  V30 1024 H 94.1384 0.450321 -0.693643 0
M  V30 1025 H 96.6844 0.206219 -1.68442 0
M  V30 1026 H 95.4564 0.803533 -3.82961 0
M  V30 1027 H 95.0794 2.3898 -3.17765 0
M  V30 1028 N 96.0765 1.50051 0.48192 0
M  V30 1029 C 97.3255 1.59741 1.23149 0
M  V30 1030 C 97.6385 0.298163 1.93314 0
M  V30 1031 O 98.8445 0.273835 2.70116 0
M  V30 1032 C 97.3005 2.81926 2.23708 0
M  V30 1033 C 96.9085 4.18685 1.59396 0
M  V30 1034 C 98.6525 3.00956 2.99375 0
M  V30 1035 C 96.5595 5.3207 2.58178 0
M  V30 1036 H 95.4895 0.594838 0.46334 0
M  V30 1037 H 98.1405 1.76467 0.503169 0
M  V30 1038 H 96.5225 2.58736 2.99786 0
M  V30 1039 H 97.6965 4.52088 0.891811 0
M  V30 1040 H 96.0115 4.05171 0.960503 0
M  V30 1041 H 98.6085 3.82836 3.73283 0
M  V30 1042 H 98.9515 2.12258 3.58123 0
M  V30 1043 H 99.4845 3.24277 2.30411 0
M  V30 1044 H 96.2235 6.22888 2.04184 0
M  V30 1045 H 95.7435 5.03098 3.26577 0
M  V30 1046 H 97.4225 5.62196 3.20225 0
M  V30 1047 N 97.5546 -0.734337 1.39446 0
M  V30 1048 C 98.8316 -1.48579 1.27215 0
M  V30 1049 C 99.2116 -2.1077 -0.117968 0
M  V30 1050 O 98.5596 -1.98646 -1.12924 0
M  V30 1051 C 98.7696 -2.53667 2.39696 0
M  V30 1052 C 100.118 -3.20031 2.79044 0
M  V30 1053 O 101.142 -2.6398 2.39151 0
M  V30 1054 O 100.001 -4.21455 3.47905 0
M  V30 1055 H 97.0946 -0.659816 0.49857 0
M  V30 1056 H 99.6406 -0.768106 1.51322 0
M  V30 1057 H 98.4126 -2.06096 3.32626 0
M  V30 1058 H 98.0356 -3.32994 2.17258 0
M  V30 1059 N 99.0327 -1.24633 -0.964593 0
M  V30 1060 C 100.31 -0.995809 -1.68354 0
M  V30 1061 C 100.69 0.480964 -2.05548 0
M  V30 1062 O 100.038 1.45599 -1.76105 0
M  V30 1063 C 100.248 -1.92177 -2.91323 0
M  V30 1064 C 101.596 -2.19446 -3.63495 0
M  V30 1065 O 102.62 -1.89855 -3.01386 0
M  V30 1066 O 101.479 -2.69714 -4.75307 0
M  V30 1067 H 98.5727 -0.376854 -0.736146 0
M  V30 1068 H 101.119 -1.35745 -1.0184 0
M  V30 1069 H 99.8907 -2.91938 -2.60553 0
M  V30 1070 H 99.5137 -1.56349 -3.65569 0
M  V30 1071 N 100.511 1.16574 -1.06058 0
M  V30 1072 C 101.441 2.23057 -0.690488 0
M  V30 1073 C 102.422 1.67141 0.315901 0
M  V30 1074 O 103.607 1.93253 0.191556 0
M  V30 1075 C 100.737 3.47222 -0.073625 0
M  V30 1076 C 99.6908 4.16016 -1.00573 0
M  V30 1077 C 99.0168 5.34104 -0.252289 0
M  V30 1078 C 100.317 4.67264 -2.33371 0
M  V30 1079 H 102.011 2.54271 -1.58072 0
M  V30 1080 H 99.5568 1.22218 -0.76149 0
M  V30 1081 H 101.51 4.20939 0.19714 0
M  V30 1082 H 100.234 3.15302 0.85161 0
M  V30 1083 H 98.8928 3.44223 -1.2612 0
M  V30 1084 H 98.5408 4.98437 0.675988 0
M  V30 1085 H 98.2408 5.81072 -0.873455 0
M  V30 1086 H 99.7648 6.10599 0.0109857 0
M  V30 1087 H 101.179 5.32573 -2.12223 0
M  V30 1088 H 99.5758 5.24843 -2.90963 0
M  V30 1089 H 100.646 3.83602 -2.96611 0
M  V30 1090 N 101.989 0.842826 1.3317 0
M  V30 1091 C 102.936 0.276885 2.29133 0
M  V30 1092 C 103.906 -0.609527 1.54512 0
M  V30 1093 O 105.091 -0.546955 1.82792 0
M  V30 1094 C 102.231 -0.538707 3.40869 0
M  V30 1095 C 101.344 0.372169 4.30394 0
M  V30 1096 C 100.479 -0.454908 5.29249 0
M  V30 1097 C 99.5179 0.45411 6.10413 0
M  V30 1098 N 98.6549 -0.335075 7.013 0
M  V30 1099 H 103.495 1.10052 2.76934 0
M  V30 1100 H 101.032 0.554161 1.36262 0
M  V30 1101 H 102.99 -1.02709 4.0436 0
M  V30 1102 H 101.62 -1.32727 2.9425 0
M  V30 1103 H 100.672 0.97888 3.6759 0
M  V30 1104 H 101.984 1.0703 4.87182 0
M  V30 1105 H 101.138 -1.00695 5.98285 0
M  V30 1106 H 99.8769 -1.18646 4.73048 0
M  V30 1107 H 98.8819 1.01813 5.40291 0
M  V30 1108 H 100.107 1.18409 6.68697 0
M  V30 1109 H 98.0529 -1.04994 6.47543 0
M  V30 1110 H 97.9699 0.304262 7.55387 0
M  V30 1111 H 99.2379 -0.869224 7.74638 0
M  V30 1112 N 103.467 -1.45747 0.599634 0
M  V30 1113 C 104.713 -2.02592 0.0918643 0
M  V30 1114 C 105.046 -1.46806 -1.27128 0
M  V30 1115 O 104.321 -0.639658 -1.83681 0
M  V30 1116 C 104.604 -3.60073 0.0443398 0
M  V30 1117 C 104.457 -4.26208 1.43759 0
M  V30 1118 C 105.776 -4.35309 -0.647608 0
M  V30 1119 H 102.895 -0.736175 0.034857 0
M  V30 1120 H 105.537 -1.73694 0.770081 0
M  V30 1121 H 103.687 -3.84823 -0.533224 0
M  V30 1122 H 105.359 -4.12668 2.06162 0
M  V30 1123 H 103.602 -3.84916 2.00056 0
M  V30 1124 H 104.273 -5.35069 1.35665 0
M  V30 1125 H 106.749 -4.15805 -0.156776 0
M  V30 1126 H 105.625 -5.45038 -0.649942 0
M  V30 1127 H 105.886 -4.07598 -1.71219 0
M  V30 1128 N 104.945 -0.338344 -1.53925 0
M  V30 1129 C 106.173 0.261298 -2.05243 0
M  V30 1130 C 106.588 1.44625 -1.21363 0
M  V30 1131 O 105.945 1.80811 -0.247736 0
M  V30 1132 C 105.996 0.681412 -3.5502 0
M  V30 1133 O 105.717 -0.456414 -4.35716 0
M  V30 1134 C 107.218 1.34232 -4.22489 0
M  V30 1135 H 104.438 0.0513685 -0.669031 0
M  V30 1136 H 106.982 -0.488822 -1.98572 0
M  V30 1137 H 105.137 1.38148 -3.61931 0
M  V30 1138 H 105.551 -0.122564 -5.24357 0
M  V30 1139 H 107.025 1.58708 -5.28693 0
M  V30 1140 H 107.502 2.29426 -3.74514 0
M  V30 1141 H 108.108 0.684424 -4.19757 0
M  V30 1142 N 106.423 1.57458 -0.0668435 0
M  V30 1143 C 107.37 2.12439 0.902122 0
M  V30 1144 C 108.34 1.03565 1.2986 0
M  V30 1145 O 109.525 1.312 1.38532 0
M  V30 1146 C 106.665 2.6865 2.16614 0
M  V30 1147 C 105.778 3.91663 1.82274 0
M  V30 1148 C 104.913 4.36134 3.0325 0
M  V30 1149 C 103.952 5.51808 2.64904 0
M  V30 1150 N 103.089 5.9126 3.78624 0
M  V30 1151 H 107.929 2.94934 0.426382 0
M  V30 1152 H 105.466 1.4575 0.198819 0
M  V30 1153 H 107.424 2.99346 2.90599 0
M  V30 1154 H 106.054 1.88928 2.61737 0
M  V30 1155 H 105.106 3.6746 0.983719 0
M  V30 1156 H 106.418 4.75693 1.50059 0
M  V30 1157 H 105.572 4.68465 3.85519 0
M  V30 1158 H 104.311 3.50948 3.38655 0
M  V30 1159 H 103.316 5.19133 1.81055 0
M  V30 1160 H 104.541 6.38722 2.30675 0
M  V30 1161 H 102.487 5.09024 4.138 0
M  V30 1162 H 102.404 6.70018 3.5016 0
M  V30 1163 H 103.672 6.28212 4.61486 0
M  V30 1164 N 107.901 -0.206675 1.56239 0
M  V30 1165 C 109.15 -0.926964 1.79138 0
M  V30 1166 C 109.463 -1.84901 0.638043 0
M  V30 1167 O 110.669 -2.60906 0.751033 0
M  V30 1168 C 109.125 -1.6986 3.17294 0
M  V30 1169 C 108.733 -0.821956 4.40395 0
M  V30 1170 C 110.477 -2.40922 3.4951 0
M  V30 1171 C 108.384 -1.59179 5.69575 0
M  V30 1172 H 107.314 -0.349864 0.667915 0
M  V30 1173 H 109.965 -0.180487 1.8261 0
M  V30 1174 H 108.347 -2.48853 3.08039 0
M  V30 1175 H 109.521 -0.0715019 4.60745 0
M  V30 1176 H 107.836 -0.222741 4.15804 0
M  V30 1177 H 110.433 -2.99047 4.43255 0
M  V30 1178 H 110.776 -3.14542 2.72707 0
M  V30 1179 H 111.309 -1.68905 3.60161 0
M  V30 1180 H 108.048 -0.898589 6.49312 0
M  V30 1181 H 107.568 -2.31648 5.53262 0
M  V30 1182 H 109.247 -2.14862 6.10281 0
M  V30 1183 N 109.379 -1.50304 -0.473955 0
M  V30 1184 C 110.626 -1.6115 -1.22625 0
M  V30 1185 C 110.954 -0.310517 -1.92005 0
M  V30 1186 O 110.209 0.703419 -1.82621 0
M  V30 1187 C 110.508 -2.73938 -2.29549 0
M  V30 1188 C 110.174 -4.14519 -1.7744 0
M  V30 1189 C 108.836 -4.5277 -1.62949 0
M  V30 1190 C 111.188 -5.02392 -1.3875 0
M  V30 1191 C 108.516 -5.76639 -1.08187 0
M  V30 1192 C 110.868 -6.26805 -0.854309 0
M  V30 1193 C 109.532 -6.63861 -0.696011 0
M  V30 1194 H 108.802 -0.589691 -0.448715 0
M  V30 1195 H 111.449 -1.84228 -0.522705 0
M  V30 1196 H 109.754 -2.44937 -3.05799 0
M  V30 1197 H 111.451 -2.79534 -2.87509 0
M  V30 1198 H 108.041 -3.8434 -1.89685 0
M  V30 1199 H 112.225 -4.73474 -1.4878 0
M  V30 1200 H 107.481 -6.04027 -0.946666 0
M  V30 1201 H 111.655 -6.94258 -0.545843 0
M  V30 1202 H 109.282 -7.59722 -0.26952 0
M  V30 1203 N 110.857 0.726932 -1.39834 0
M  V30 1204 C 112.103 1.48884 -1.377 0
M  V30 1205 C 112.436 1.94185 0.0244852 0
M  V30 1206 O 111.711 1.67361 0.990986 0
M  V30 1207 C 111.994 2.72288 -2.3565 0
M  V30 1208 C 111.847 2.32956 -3.84775 0
M  V30 1209 C 113.166 3.74414 -2.31306 0
M  V30 1210 H 110.285 0.540062 -0.5015 0
M  V30 1211 H 112.927 0.830547 -1.70886 0
M  V30 1212 H 111.077 3.28457 -2.07481 0
M  V30 1213 H 112.749 1.82356 -4.23726 0
M  V30 1214 H 110.992 1.65088 -4.01159 0
M  V30 1215 H 111.663 3.21362 -4.4881 0
M  V30 1216 H 114.139 3.27849 -2.56231 0
M  V30 1217 H 113.015 4.58414 -3.01907 0
M  V30 1218 H 113.276 4.21909 -1.32081 0
M  V30 1219 N 112.336 1.25143 0.95797 0
M  V30 1220 C 113.613 1.00472 1.67823 0
M  V30 1221 C 113.993 -0.470056 2.058 0
M  V30 1222 O 113.341 -1.44663 1.76875 0
M  V30 1223 C 113.551 1.9372 2.90299 0
M  V30 1224 C 114.899 2.21371 3.62326 0
M  V30 1225 O 115.923 1.91451 3.00375 0
M  V30 1226 O 114.782 2.72231 4.7387 0
M  V30 1227 H 111.876 0.380752 0.734137 0
M  V30 1228 H 114.422 1.36283 1.01119 0
M  V30 1229 H 113.194 2.93316 2.59001 0
M  V30 1230 H 112.817 1.58286 3.64735 0
M  V30 1231 N 113.814 -1.1601 1.06675 0
M  V30 1232 C 114.724 -2.24156 0.692179 0
M  V30 1233 C 115.74 -1.71507 -0.293513 0
M  V30 1234 O 116.916 -2.009 -0.141861 0
M  V30 1235 C 113.981 -3.46587 0.0884131 0
M  V30 1236 C 113.042 -4.14257 1.12646 0
M  V30 1237 C 112.275 -5.30844 0.551416 0
M  V30 1238 O 112.498 -5.66858 -0.634656 0
M  V30 1239 O 111.432 -5.87848 1.29298 0
M  V30 1240 H 115.258 -2.58513 1.59388 0
M  V30 1241 H 112.843 -1.23599 0.83926 0
M  V30 1242 H 114.725 -4.20679 -0.246361 0
M  V30 1243 H 113.4 -3.13994 -0.786712 0
M  V30 1244 H 112.307 -3.42118 1.51348 0
M  V30 1245 H 113.64 -4.50914 1.97325 0
M  V30 1246 N 115.292 -0.849877 -1.32721 0
M  V30 1247 C 116.54 -0.450032 -1.97026 0
M  V30 1248 C 116.861 0.996604 -1.67609 0
M  V30 1249 O 116.131 1.6958 -0.980786 0
M  V30 1250 H 114.711 -0.163426 -0.728904 0
M  V30 1251 H 117.373 -1.08526 -1.6189 0
M  V30 1252 H 116.469 -0.591146 -3.0645 0
M  V30 1253 N 116.77 1.45427 -0.607355 0
M  V30 1254 C 118.181 1.85756 -0.187535 0
M  V30 1255 C 118.532 1.5077 1.25551 0
M  V30 1256 O 117.657 0.93427 1.95193 0
M  V30 1257 C 118.252 3.37154 -0.333572 0
M  V30 1258 C 116.811 3.76387 0.0315542 0
M  V30 1259 C 115.958 2.69377 -0.658117 0
M  V30 1260 H 118.909 1.36231 -0.81405 0
M  V30 1261 H 118.93 3.78014 0.43428 0
M  V30 1262 H 118.442 3.62586 -1.38393 0
M  V30 1263 H 116.543 3.56571 1.0811 0
M  V30 1264 H 116.656 4.77731 -0.361935 0
M  V30 1265 H 115.02 2.5452 -0.0957873 0
M  V30 1266 H 115.803 2.97646 -1.7106 0
M  V30 1267 N 118.248 0.346503 1.53744 0
M  V30 1268 C 119.473 -0.253074 2.0585 0
M  V30 1269 C 119.898 -1.43202 1.21962 0
M  V30 1270 O 119.256 -1.79783 0.234073 0
M  V30 1271 C 119.304 -0.643193 3.54817 0
M  V30 1272 O 118.408 -1.74286 3.73762 0
M  V30 1273 H 117.749 -0.0413583 0.662711 0
M  V30 1274 H 120.279 0.501574 1.98357 0
M  V30 1275 H 120.289 -0.919526 3.97503 0
M  V30 1276 H 118.964 0.218966 4.15323 0
M  V30 1277 H 117.541 -1.46356 3.42979 0
M  V30 1278 N 119.726 -1.57421 0.075193 0
M  V30 1279 C 120.659 -2.08528 -0.926904 0
M  V30 1280 C 121.637 -0.991171 -1.28898 0
M  V30 1281 O 122.821 -1.26479 -1.39769 0
M  V30 1282 C 119.948 -2.54576 -2.23402 0
M  V30 1283 C 118.994 -3.75454 -2.02327 0
M  V30 1284 S 119.827 -5.19989 -1.27951 0
M  V30 1285 C 120.983 -5.69372 -2.59935 0
M  V30 1286 H 121.216 -2.932 -0.492048 0
M  V30 1287 H 118.749 -1.53785 -0.137651 0
M  V30 1288 H 120.707 -2.81767 -2.98526 0
M  V30 1289 H 119.368 -1.70166 -2.64012 0
M  V30 1290 H 118.561 -4.05675 -2.99071 0
M  V30 1291 H 118.163 -3.48654 -1.35339 0
M  V30 1292 H 120.455 -5.76424 -3.56008 0
M  V30 1293 H 121.398 -6.68207 -2.34319 0
M  V30 1294 H 121.806 -4.97205 -2.67296 0
M  V30 1295 N 121.204 0.198386 -1.56346 0
M  V30 1296 C 122.151 1.24589 -1.94284 0
M  V30 1297 C 123.121 1.454 -0.802997 0
M  V30 1298 O 124.306 1.58588 -1.06087 0
M  V30 1299 C 121.446 2.58631 -2.28482 0
M  V30 1300 C 120.559 2.45426 -3.55514 0
M  V30 1301 C 119.694 3.7215 -3.79049 0
M  V30 1302 C 118.733 3.53763 -4.99518 0
M  V30 1303 N 117.87 4.72491 -5.19323 0
M  V30 1304 H 122.71 0.915356 -2.83593 0
M  V30 1305 H 120.247 0.440629 -1.40346 0
M  V30 1306 H 122.205 3.3672 -2.46324 0
M  V30 1307 H 120.835 2.89734 -1.42317 0
M  V30 1308 H 119.887 1.58652 -3.45737 0
M  V30 1309 H 121.199 2.27772 -4.43758 0
M  V30 1310 H 120.353 4.58679 -3.97113 0
M  V30 1311 H 119.092 3.92754 -2.89129 0
M  V30 1312 H 118.097 2.65619 -4.8138 0
M  V30 1313 H 119.322 3.34607 -5.90944 0
M  V30 1314 H 117.268 4.93365 -4.3235 0
M  V30 1315 H 117.185 4.5765 -6.01741 0
M  V30 1316 H 118.453 5.6038 -5.41843 0
M  V30 1317 N 122.682 1.50554 0.465978 0
M  V30 1318 C 124.098 1.38093 0.800154 0
M  V30 1319 C 124.298 0.440988 1.96615 0
M  V30 1320 O 123.354 -0.114499 2.5224 0
M  V30 1321 C 124.667 2.79565 1.10742 0
M  V30 1322 C 126.215 2.88516 1.21357 0
M  V30 1323 C 126.69 4.30833 1.55393 0
M  V30 1324 N 128.181 4.33807 1.62375 0
M  V30 1325 C 128.916 5.40927 1.90225 0
M  V30 1326 N 128.412 6.58247 2.16062 0
M  V30 1327 N 130.205 5.28376 1.9177 0
M  V30 1328 H 122.356 2.10237 -0.302366 0
M  V30 1329 H 124.619 0.945203 -0.0727746 0
M  V30 1330 H 124.325 3.50208 0.323661 0
M  V30 1331 H 124.199 3.17125 2.04234 0
M  V30 1332 H 126.586 2.1809 1.98799 0
M  V30 1333 H 126.667 2.54492 0.258321 0
M  V30 1334 H 126.311 5.01799 0.784889 0
M  V30 1335 H 126.241 4.62347 2.52076 0
M  V30 1336 H 128.732 3.49212 1.44427 0
M  V30 1337 H 129.045 7.3569 2.36601 0
M  V30 1338 H 127.39 6.61413 2.13444 0
M  V30 1339 H 130.581 4.35715 1.71085 0
M  V30 1340 H 130.754 6.11944 2.13139 0
M  V30 1341 N 124.16 -0.719506 1.40217 0
M  V30 1342 C 125.409 -1.47486 1.37589 0
M  V30 1343 C 125.722 -1.9559 -0.0201568 0
M  V30 1344 O 126.928 -2.70973 -0.169049 0
M  V30 1345 C 125.384 -2.66575 2.41796 0
M  V30 1346 C 124.992 -2.25358 3.87192 0
M  V30 1347 C 126.736 -3.4433 2.48269 0
M  V30 1348 C 124.643 -3.41262 4.83005 0
M  V30 1349 H 123.573 -0.553901 0.511576 0
M  V30 1350 H 126.224 -0.783427 1.65936 0
M  V30 1351 H 124.606 -3.3787 2.06543 0
M  V30 1352 H 125.78 -1.61509 4.31569 0
M  V30 1353 H 124.095 -1.60657 3.84159 0
M  V30 1354 H 126.692 -4.30569 3.17041 0
M  V30 1355 H 127.035 -3.87872 1.51198 0
M  V30 1356 H 127.568 -2.80076 2.82493 0
M  V30 1357 H 124.307 -3.02755 5.81394 0
M  V30 1358 H 123.827 -4.0404 4.43297 0
M  V30 1359 H 125.506 -4.07383 5.02641 0
M  V30 1360 N 125.638 -1.25649 -0.95132 0
M  V30 1361 C 126.571 -1.00644 -2.04807 0
M  V30 1362 C 127.549 0.0654271 -1.62468 0
M  V30 1363 O 128.733 -0.074911 -1.88351 0
M  V30 1364 C 125.86 -0.522052 -3.34653 0
M  V30 1365 C 124.906 -1.58495 -3.95957 0
M  V30 1366 S 125.739 -3.17108 -4.31512 0
M  V30 1367 C 126.895 -2.70412 -5.64471 0
M  V30 1368 H 127.128 -1.93508 -2.25703 0
M  V30 1369 H 124.661 -1.09216 -1.09139 0
M  V30 1370 H 126.619 -0.24923 -4.09743 0
M  V30 1371 H 125.28 0.386146 -3.11717 0
M  V30 1372 H 124.473 -1.1968 -4.89584 0
M  V30 1373 H 124.075 -1.80862 -3.2736 0
M  V30 1374 H 126.367 -2.14245 -6.42733 0
M  V30 1375 H 127.31 -3.62693 -6.08161 0
M  V30 1376 H 127.718 -2.10302 -5.23864 0
M  V30 1377 N 127.117 1.15442 -1.07289 0
M  V30 1378 C 128.528 1.67803 -0.818475 0
M  V30 1379 C 128.879 1.8489 0.656507 0
M  V30 1380 O 128.004 1.55176 1.50829 0
M  V30 1381 C 128.599 3.04805 -1.47917 0
M  V30 1382 C 127.158 3.54245 -1.27229 0
M  V30 1383 C 126.305 2.29986 -1.54925 0
M  V30 1384 H 129.256 0.996646 -1.23502 0
M  V30 1385 H 129.277 3.69702 -0.90005 0
M  V30 1386 H 128.789 2.92336 -2.55267 0
M  V30 1387 H 126.89 3.71956 -0.21899 0
M  V30 1388 H 127.003 4.35723 -1.99203 0
M  V30 1389 H 125.367 2.35496 -0.970242 0
M  V30 1390 H 126.15 2.20105 -2.63455 0
M  V30 1391 N 128.595 0.856903 1.32268 0
M  V30 1392 C 130.011 0.547061 1.49931 0
M  V30 1393 C 130.211 -0.921781 1.7918 0
M  V30 1394 O 129.267 -1.70469 1.8627 0
M  V30 1395 C 130.58 1.43599 2.64196 0
M  V30 1396 C 132.128 1.43665 2.78081 0
M  V30 1397 C 132.603 2.31085 3.95428 0
M  V30 1398 N 134.094 2.28893 4.02694 0
M  V30 1399 C 134.829 2.93262 4.92732 0
M  V30 1400 N 134.325 3.66751 5.87763 0
M  V30 1401 N 136.118 2.82638 4.85873 0
M  V30 1402 H 128.269 1.8075 1.11549 0
M  V30 1403 H 130.532 0.772144 0.549997 0
M  V30 1404 H 130.238 2.48058 2.49319 0
M  V30 1405 H 130.112 1.12502 3.60032 0
M  V30 1406 H 132.499 0.399701 2.92381 0
M  V30 1407 H 132.58 1.7878 1.82952 0
M  V30 1408 H 132.224 3.34849 3.81888 0
M  V30 1409 H 132.154 1.93302 4.89839 0
M  V30 1410 H 134.645 1.75466 3.34694 0
M  V30 1411 H 134.958 4.13027 6.53168 0
M  V30 1412 H 133.303 3.70859 5.87783 0
M  V30 1413 H 136.494 2.24774 4.10602 0
M  V30 1414 H 136.667 3.33084 5.55841 0
M  V30 1415 N 130.073 -1.45103 0.615059 0
M  V30 1416 C 131.036 -2.29025 -0.0895485 0
M  V30 1417 C 132.036 -1.40174 -0.787906 0
M  V30 1418 O 133.226 -1.62217 -0.634933 0
M  V30 1419 C 130.358 -3.21376 -1.13711 0
M  V30 1420 H 131.551 -2.92807 0.648382 0
M  V30 1421 H 129.104 -1.51749 0.374444 0
M  V30 1422 H 129.839 -2.6241 -1.90556 0
M  V30 1423 H 129.624 -3.86834 -0.640475 0
M  V30 1424 H 131.114 -3.84459 -1.63036 0
M  V30 1425 N 131.551 -0.354651 -1.53558 0
M  V30 1426 C 132.498 0.496968 -2.25386 0
M  V30 1427 C 133.468 1.0865 -1.25636 0
M  V30 1428 O 134.653 1.12104 -1.54394 0
M  V30 1429 C 131.793 1.63637 -3.03837 0
M  V30 1430 C 130.906 1.07307 -4.18461 0
M  V30 1431 C 130.041 2.18068 -4.84376 0
M  V30 1432 C 129.08 1.59147 -5.91049 0
M  V30 1433 N 128.217 2.63695 -6.50699 0
M  V30 1434 H 133.057 -0.122075 -2.9775 0
M  V30 1435 H 130.594 -0.0720154 -1.46924 0
M  V30 1436 H 132.552 2.30734 -3.47589 0
M  V30 1437 H 131.182 2.22623 -2.33749 0
M  V30 1438 H 130.234 0.292708 -3.79272 0
M  V30 1439 H 131.546 0.602193 -4.95152 0
M  V30 1440 H 130.7 2.93007 -5.31255 0
M  V30 1441 H 129.439 2.68504 -4.07133 0
M  V30 1442 H 128.444 0.827175 -5.43542 0
M  V30 1443 H 129.669 1.09549 -6.70206 0
M  V30 1444 H 127.615 3.13365 -5.76315 0
M  V30 1445 H 127.532 2.21263 -7.22896 0
M  V30 1446 H 128.8 3.3837 -7.02229 0
M  V30 1447 N 133.029 1.57378 -0.0835403 0
M  V30 1448 C 134.277 1.93547 0.581718 0
M  V30 1449 C 134.598 0.96524 1.69435 0
M  V30 1450 O 133.868 0.0153369 1.95894 0
M  V30 1451 H 132.448 0.714521 0.217874 0
M  V30 1452 H 135.11 1.94366 -0.144158 0
M  V30 1453 H 134.206 2.95665 0.999423 0
M  V30 1454 N 134.507 -0.190092 1.56449 0
M  V30 1455 C 135.923 -0.54113 1.50146 0
M  V30 1456 C 136.123 -1.85603 0.784465 0
M  V30 1457 O 135.179 -2.5024 0.337051 0
M  V30 1458 C 136.492 -0.591241 2.9483 0
M  V30 1459 C 138.04 -0.679732 3.0553 0
M  V30 1460 C 138.515 -0.760908 4.51635 0
M  V30 1461 N 140.006 -0.824302 4.55806 0
M  V30 1462 C 140.741 -0.907365 5.66175 0
M  V30 1463 N 140.237 -0.952422 6.86222 0
M  V30 1464 N 142.03 -0.94494 5.541 0
M  V30 1465 H 134.181 0.67235 2.01478 0
M  V30 1466 H 136.444 0.240127 0.917084 0
M  V30 1467 H 136.15 0.305905 3.50367 0
M  V30 1468 H 136.024 -1.44422 3.48457 0
M  V30 1469 H 138.411 -1.56731 2.50039 0
M  V30 1470 H 138.492 0.199549 2.5502 0
M  V30 1471 H 138.136 0.122336 5.07753 0
M  V30 1472 H 138.066 -1.65606 4.99882 0
M  V30 1473 H 140.557 -0.798526 3.69367 0
M  V30 1474 H 140.87 -1.01645 7.66086 0
M  V30 1475 H 139.215 -0.921014 6.8887 0
M  V30 1476 H 142.406 -0.906612 4.59236 0
M  V30 1477 H 142.579 -1.00622 6.4014 0
M  V30 1478 N 135.985 -1.50799 -0.457987 0
M  V30 1479 C 136.948 -1.7005 -1.53674 0
M  V30 1480 C 137.948 -0.570881 -1.50325 0
M  V30 1481 O 139.138 -0.838126 -1.52712 0
M  V30 1482 C 136.27 -1.73788 -2.93276 0
M  V30 1483 H 137.463 -2.66306 -1.37917 0
M  V30 1484 H 135.016 -1.40477 -0.685271 0
M  V30 1485 H 135.751 -0.792717 -3.14462 0
M  V30 1486 H 135.536 -2.55864 -2.97113 0
M  V30 1487 H 137.026 -1.90591 -3.71571 0
M  V30 1488 N 137.463 0.71206 -1.40597 0
M  V30 1489 C 138.74 1.46536 -1.29563 0
M  V30 1490 C 139.12 2.10931 0.0844217 0
M  V30 1491 O 138.468 2.00418 1.0975 0
M  V30 1492 C 138.678 2.49821 -2.43701 0
M  V30 1493 C 140.026 3.15551 -2.841 0
M  V30 1494 O 141.05 2.60142 -2.4332 0
M  V30 1495 O 139.909 4.15867 -3.54566 0
M  V30 1496 H 137.003 0.651801 -0.509004 0
M  V30 1497 H 139.549 0.743935 -1.52524 0
M  V30 1498 H 138.321 2.00778 -3.35863 0
M  V30 1499 H 137.944 3.29495 -2.22528 0
M  V30 1500 N 138.941 1.26152 0.944643 0
M  V30 1501 C 140.357 1.03189 1.21754 0
M  V30 1502 C 140.557 -0.245112 2.00004 0
M  V30 1503 O 139.613 -0.955176 2.33736 0
M  V30 1504 C 140.926 2.26119 1.98219 0
M  V30 1505 C 142.474 2.30984 2.11224 0
M  V30 1506 C 142.949 3.53597 2.91089 0
M  V30 1507 N 144.44 3.54053 2.98664 0
M  V30 1508 C 145.175 4.45593 3.60881 0
M  V30 1509 N 144.671 5.47416 4.24626 0
M  V30 1510 N 146.464 4.33252 3.58119 0
M  V30 1511 H 138.615 2.08177 0.421437 0
M  V30 1512 H 140.878 0.914723 0.248969 0
M  V30 1513 H 140.584 3.18984 1.48128 0
M  V30 1514 H 140.458 2.3009 2.98895 0
M  V30 1515 H 142.845 1.38635 2.60508 0
M  V30 1516 H 142.926 2.31026 1.09821 0
M  V30 1517 H 142.57 4.46273 2.42493 0
M  V30 1518 H 142.5 3.50802 3.92741 0
M  V30 1519 H 144.991 2.80403 2.53343 0
M  V30 1520 H 145.304 6.13459 4.69987 0
M  V30 1521 H 143.649 5.51278 4.23223 0
M  V30 1522 H 146.84 3.52924 3.0751 0
M  V30 1523 H 147.013 5.04786 4.06319 0
M  V30 1524 N 140.419 -1.14872 1.07899 0
M  V30 1525 C 141.668 -1.85135 0.800499 0
M  V30 1526 C 141.981 -1.83547 -0.676014 0
M  V30 1527 O 143.187 -2.49548 -1.06948 0
M  V30 1528 C 141.643 -3.3231 1.38197 0
M  V30 1529 C 141.251 -3.42329 2.8899 0
M  V30 1530 C 142.995 -4.0772 1.18174 0
M  V30 1531 C 140.902 -4.83684 3.403 0
M  V30 1532 H 139.832 -0.693563 0.29578 0
M  V30 1533 H 142.483 -1.29532 1.29976 0
M  V30 1534 H 140.865 -3.87618 0.810431 0
M  V30 1535 H 142.039 -2.97097 3.52236 0
M  V30 1536 H 140.354 -2.80369 3.07867 0
M  V30 1537 H 142.951 -5.12049 1.5398 0
M  V30 1538 H 143.294 -4.16124 0.12117 0
M  V30 1539 H 143.827 -3.58696 1.71994 0
M  V30 1540 H 140.566 -4.80465 4.45907 0
M  V30 1541 H 140.086 -5.29474 2.81811 0
M  V30 1542 H 141.765 -5.52558 3.36584 0
M  V30 1543 N 141.898 -0.863906 -1.31812 0
M  V30 1544 C 142.828 -0.330843 -2.31144 0
M  V30 1545 C 143.809 0.575005 -1.60087 0
M  V30 1546 O 144.994 0.493304 -1.8783 0
M  V30 1547 C 142.124 0.47374 -3.44054 0
M  V30 1548 C 141.078 -0.338481 -4.26659 0
M  V30 1549 C 140.404 0.591412 -5.31419 0
M  V30 1550 C 141.704 -1.56926 -4.98168 0
M  V30 1551 H 143.398 -1.16086 -2.75979 0
M  V30 1552 H 140.944 -0.559657 -1.32679 0
M  V30 1553 H 142.897 0.857143 -4.12591 0
M  V30 1554 H 141.621 1.33721 -2.9797 0
M  V30 1555 H 140.28 -0.703754 -3.59782 0
M  V30 1556 H 139.928 1.45199 -4.81587 0
M  V30 1557 H 139.628 0.0519022 -5.87577 0
M  V30 1558 H 141.152 0.97179 -6.02817 0
M  V30 1559 H 142.566 -1.25764 -5.59336 0
M  V30 1560 H 140.963 -2.04739 -5.64094 0
M  V30 1561 H 142.033 -2.32544 -4.25501 0
M  V30 1562 N 143.376 1.44774 -0.622745 0
M  V30 1563 C 144.323 2.30635 0.0871679 0
M  V30 1564 C 145.293 1.42994 0.845097 0
M  V30 1565 O 146.478 1.71907 0.827812 0
M  V30 1566 C 143.618 3.28144 1.06844 0
M  V30 1567 C 142.731 4.30888 0.309809 0
M  V30 1568 C 141.866 5.15494 1.28215 0
M  V30 1569 C 140.905 6.09953 0.512198 0
M  V30 1570 N 140.042 6.87287 1.43458 0
M  V30 1571 H 144.882 2.90803 -0.650974 0
M  V30 1572 H 142.419 1.43286 -0.33281 0
M  V30 1573 H 144.377 3.83157 1.65066 0
M  V30 1574 H 143.007 2.69695 1.77382 0
M  V30 1575 H 142.059 3.78414 -0.388181 0
M  V30 1576 H 143.371 4.97955 -0.290254 0
M  V30 1577 H 142.525 5.74983 1.93596 0
M  V30 1578 H 141.264 4.48481 1.91614 0
M  V30 1579 H 140.269 5.49581 -0.155151 0
M  V30 1580 H 141.494 6.78999 -0.116958 0
M  V30 1581 H 139.44 6.2295 2.05594 0
M  V30 1582 H 139.357 7.50763 0.888335 0
M  V30 1583 H 140.625 7.51306 2.07749 0
M  V30 1584 N 144.854 0.36279 1.53368 0
M  V30 1585 C 146.27 0.0116182 1.59596 0
M  V30 1586 C 146.47 -1.47012 1.37803 0
M  V30 1587 O 145.526 -2.23136 1.18181 0
M  V30 1588 C 146.839 0.465052 2.97082 0
M  V30 1589 C 148.387 0.419033 3.10182 0
M  V30 1590 C 148.862 0.848235 4.50077 0
M  V30 1591 N 150.353 0.803183 4.56183 0
M  V30 1592 C 151.088 1.107 5.62613 0
M  V30 1593 N 150.584 1.47996 6.76808 0
M  V30 1594 N 152.377 1.02998 5.52583 0
M  V30 1595 H 144.528 1.32775 1.65785 0
M  V30 1596 H 146.791 0.542518 0.777417 0
M  V30 1597 H 146.497 1.49892 3.18159 0
M  V30 1598 H 146.371 -0.149786 3.76902 0
M  V30 1599 H 148.758 -0.605696 2.88817 0
M  V30 1600 H 148.839 1.06933 2.32377 0
M  V30 1601 H 148.483 1.87107 4.7218 0
M  V30 1602 H 148.413 0.175218 5.26308 0
M  V30 1603 H 150.904 0.52838 3.74188 0
M  V30 1604 H 151.217 1.69613 7.53957 0
M  V30 1605 H 149.562 1.51859 6.78206 0
M  V30 1606 H 152.753 0.737817 4.62249 0
M  V30 1607 H 152.926 1.2701 6.35431 0
M  V30 1608 N 146.332 -1.57332 0.0918853 0
M  V30 1609 C 147.56 -1.98574 -0.581048 0
M  V30 1610 C 147.975 -0.970903 -1.61923 0
M  V30 1611 O 147.332 0.0399054 -1.82456 0
M  V30 1612 C 147.383 -3.39872 -1.23164 0
M  V30 1613 O 147.104 -4.37469 -0.234989 0
M  V30 1614 C 148.605 -3.96099 -1.99049 0
M  V30 1615 H 145.825 -0.65261 -0.156018 0
M  V30 1616 H 148.369 -2.0379 0.170225 0
M  V30 1617 H 146.524 -3.35679 -1.93386 0
M  V30 1618 H 146.938 -5.19751 -0.70418 0
M  V30 1619 H 148.412 -4.97127 -2.39934 0
M  V30 1620 H 148.889 -3.3374 -2.85507 0
M  V30 1621 H 149.495 -4.03755 -1.3365 0
M  V30 1622 N 147.81 0.181792 -1.56548 0
M  V30 1623 C 149.035 0.920019 -1.85877 0
M  V30 1624 C 149.46 1.75494 -0.677021 0
M  V30 1625 O 148.818 1.77399 0.374056 0
M  V30 1626 C 148.866 1.78112 -3.13542 0
M  V30 1627 O 147.97 2.88152 -2.95029 0
M  V30 1628 H 147.311 0.258334 -0.611686 0
M  V30 1629 H 149.841 0.183092 -2.03779 0
M  V30 1630 H 149.851 2.18314 -3.44678 0
M  V30 1631 H 148.526 1.16777 -3.99169 0
M  V30 1632 H 147.103 2.51609 -2.75222 0
M  V30 1633 N 149.288 1.51039 0.449983 0
M  V30 1634 C 150.238 1.67824 1.54335 0
M  V30 1635 C 151.222 0.5324 1.51836 0
M  V30 1636 O 152.414 0.787762 1.58503 0
M  V30 1637 C 149.543 1.7951 2.92628 0
M  V30 1638 C 148.629 2.99838 2.9993 0
M  V30 1639 N 149.02 4.23207 2.77001 0
M  V30 1640 C 147.318 2.98832 3.31082 0
M  V30 1641 C 148.019 5.04361 2.89818 0
M  V30 1642 N 146.995 4.38746 3.2094 0
M  V30 1643 H 150.797 2.60884 1.35339 0
M  V30 1644 H 148.311 1.48513 0.657085 0
M  V30 1645 H 150.308 1.89642 3.7127 0
M  V30 1646 H 148.968 0.876227 3.12654 0
M  V30 1647 H 149.979 4.5236 2.52172 0
M  V30 1648 H 146.656 2.16527 3.56963 0
M  V30 1649 H 148.046 6.12528 2.76151 0
M  V30 1650 N 150.766 -0.704594 1.40972 0
M  V30 1651 C 152.015 -1.46018 1.39146 0
M  V30 1652 C 152.328 -1.956 0.000589254 0
M  V30 1653 O 153.534 -2.71137 -0.1403 0
M  V30 1654 C 151.99 -2.63996 2.4461 0
M  V30 1655 C 151.598 -2.21238 3.89561 0
M  V30 1656 C 153.342 -3.41677 2.51907 0
M  V30 1657 C 151.249 -3.3612 4.86598 0
M  V30 1658 H 150.179 -0.548444 0.517422 0
M  V30 1659 H 152.83 -0.765784 1.66757 0
M  V30 1660 H 151.212 -3.3566 2.10115 0
M  V30 1661 H 152.386 -1.56923 4.33257 0
M  V30 1662 H 150.701 -1.56574 3.85841 0
M  V30 1663 H 153.298 -4.27182 3.2159 0
M  V30 1664 H 153.641 -3.86247 1.55303 0
M  V30 1665 H 154.174 -2.77064 2.85448 0
M  V30 1666 H 150.913 -2.96572 5.84573 0
M  V30 1667 H 150.433 -3.99315 4.47557 0
M  V30 1668 H 152.112 -4.02029 5.06934 0
M  V30 1669 N 152.244 -1.26651 -0.937939 0
M  V30 1670 C 153.472 -1.15173 -1.7188 0
M  V30 1671 C 153.887 0.292668 -1.86518 0
M  V30 1672 O 153.244 1.20014 -1.37488 0
M  V30 1673 C 153.295 -1.81925 -3.12387 0
M  V30 1674 O 153.016 -3.2072 -2.98446 0
M  V30 1675 C 154.517 -1.76442 -4.06673 0
M  V30 1676 H 151.737 -0.400911 -0.538063 0
M  V30 1677 H 154.281 -1.67332 -1.1756 0
M  V30 1678 H 152.436 -1.33696 -3.63599 0
M  V30 1679 H 152.85 -3.53802 -3.872 0
M  V30 1680 H 154.324 -2.27781 -5.02812 0
M  V30 1681 H 154.801 -0.731608 -4.33064 0
M  V30 1682 H 155.407 -2.24238 -3.61382 0
M  V30 1683 N 153.722 1.14298 -1.08507 0
M  V30 1684 C 154.968 1.85633 -0.816581 0
M  V30 1685 C 155.301 1.82784 0.656021 0
M  V30 1686 O 154.576 1.25926 1.48233 0
M  V30 1687 C 154.859 3.34223 -1.34041 0
M  V30 1688 C 154.712 3.45639 -2.87843 0
M  V30 1689 C 156.031 4.29356 -0.9665 0
M  V30 1690 H 153.15 0.67402 -0.298104 0
M  V30 1691 H 155.792 1.34214 -1.34487 0
M  V30 1692 H 153.942 3.78144 -0.89104 0
M  V30 1693 H 155.614 3.10498 -3.41158 0
M  V30 1694 H 153.857 2.86817 -3.25451 0
M  V30 1695 H 154.528 4.50089 -3.19569 0
M  V30 1696 H 157.004 3.93457 -1.35391 0
M  V30 1697 H 155.88 5.3178 -1.3602 0
M  V30 1698 H 156.141 4.41919 0.126362 0
M  V30 1699 N 155.201 0.870884 1.31352 0
M  V30 1700 C 156.447 0.482987 1.96965 0
M  V30 1701 C 156.78 -0.962462 1.68672 0
M  V30 1702 O 156.055 -1.6779 0.98371 0
M  V30 1703 C 156.338 0.741752 3.52378 0
M  V30 1704 C 156.191 2.2368 3.9024 0
M  V30 1705 C 157.51 0.208838 4.39604 0
M  V30 1706 H 154.629 0.176955 0.715441 0
M  V30 1707 H 157.271 1.09229 1.55464 0
M  V30 1708 H 155.421 0.223149 3.87859 0
M  V30 1709 H 157.093 2.82273 3.64856 0
M  V30 1710 H 155.336 2.70901 3.38814 0
M  V30 1711 H 156.007 2.3685 4.98604 0
M  V30 1712 H 158.483 0.652529 4.10952 0
M  V30 1713 H 157.359 0.419336 5.47296 0
M  V30 1714 H 157.62 -0.889275 4.33064 0
M  V30 1715 N 156.679 -1.44442 0.630414 0
M  V30 1716 C 157.925 -2.02351 0.134816 0
M  V30 1717 C 158.258 -1.4947 -1.23986 0
M  V30 1718 O 157.533 -0.678475 -1.82283 0
M  V30 1719 C 157.816 -3.59898 0.120707 0
M  V30 1720 C 157.669 -4.23063 1.52767 0
M  V30 1721 C 158.988 -4.36585 -0.555127 0
M  V30 1722 H 156.107 -0.73527 0.0504646 0
M  V30 1723 H 158.749 -1.72022 0.806751 0
M  V30 1724 H 156.899 -3.85868 -0.451477 0
M  V30 1725 H 158.571 -4.08202 2.14869 0
M  V30 1726 H 156.814 -3.80586 2.08175 0
M  V30 1727 H 157.485 -5.32071 1.46984 0
M  V30 1728 H 159.961 -4.16044 -0.0685429 0
M  V30 1729 H 158.837 -5.46294 -0.534185 0
M  V30 1730 H 159.098 -4.11138 -1.62535 0
M  V30 1731 N 158.157 -0.370918 -1.53173 0
M  V30 1732 C 159.382 0.220293 -2.06227 0
M  V30 1733 C 159.807 1.41243 -1.24225 0
M  V30 1734 O 159.165 1.79387 -0.262645 0
M  V30 1735 C 159.213 0.586663 -3.55796 0
M  V30 1736 O 158.317 1.68317 -3.76488 0
M  V30 1737 H 157.658 0.0308099 -0.663285 0
M  V30 1738 H 160.188 -0.533068 -1.97534 0
M  V30 1739 H 160.198 0.85617 -3.98916 0
M  V30 1740 H 158.873 -0.285013 -4.14922 0
M  V30 1741 H 157.45 1.40881 -3.45264 0
M  V30 1742 N 159.635 1.57281 -0.100228 0
M  V30 1743 C 160.912 1.86014 0.604812 0
M  V30 1744 C 161.292 0.998025 1.86018 0
M  V30 1745 O 160.64 0.0718184 2.28387 0
M  V30 1746 C 160.85 3.36784 0.915278 0
M  V30 1747 C 162.198 4.04957 1.27651 0
M  V30 1748 O 163.222 3.41695 1.00613 0
M  V30 1749 O 162.081 5.16593 1.7831 0
M  V30 1750 H 159.175 0.76942 0.303185 0
M  V30 1751 H 161.721 1.69176 -0.133313 0
M  V30 1752 H 160.493 3.91292 0.0248896 0
M  V30 1753 H 160.116 3.58987 1.70921 0
M  V30 1754 N 161.113 -0.173488 1.56642 0
M  V30 1755 C 162.529 -0.525174 1.50712 0
M  V30 1756 C 162.729 -1.8476 0.804107 0
M  V30 1757 O 161.785 -2.49869 0.363574 0
M  V30 1758 C 163.098 -0.559937 2.95441 0
M  V30 1759 C 164.646 -0.647288 3.06234 0
M  V30 1760 C 165.121 -0.712963 4.52417 0
M  V30 1761 N 166.612 -0.775911 4.56655 0
M  V30 1762 C 167.347 -0.847264 5.67106 0
M  V30 1763 N 166.843 -0.879585 6.87194 0
M  V30 1764 N 168.636 -0.886117 5.55071 0
M  V30 1765 H 160.787 0.693681 2.00753 0
M  V30 1766 H 163.05 0.249841 0.914485 0
M  V30 1767 H 162.756 0.343049 3.50023 0
M  V30 1768 H 162.63 -1.40718 3.49969 0
M  V30 1769 H 165.017 -1.5407 2.51687 0
M  V30 1770 H 165.098 0.226586 2.54794 0
M  V30 1771 H 164.742 0.176183 5.07594 0
M  V30 1772 H 164.672 -1.60295 5.0161 0
M  V30 1773 H 167.163 -0.759304 3.70193 0
M  V30 1774 H 167.476 -0.935144 7.67121 0
M  V30 1775 H 165.821 -0.847898 6.89808 0
M  V30 1776 H 169.012 -0.857853 4.60172 0
M  V30 1777 H 169.185 -0.938263 6.41171 0
M  V30 1778 O 162.63 -1.58328 -0.318489 0
M  V30 1779 H 163.321 -1.67855 -0.96667 0
M  V30 END ATOM
M  V30 BEGIN BOND
M  V30 END BOND
M  V30 END CTAB
M  END
$$$$
