drugbank_target|P61320 Outer-membrane lipoprotein LolB (DB02078)
 OpenBabel12092120503D

  0  0  0     0  0            999 V3000
M  V30 BEGIN CTAB
M  V30 COUNTS 3306 3344 0 0 0
M  V30 BEGIN ATOM
M  V30 1 H -0.908 1.98254 -0.117106 0
M  V30 2 N 0 1.576 0 0
M  V30 3 C 0.933 2.03868 1.02534 0
M  V30 4 C 1.911 0.928543 1.3348 0
M  V30 5 O 3.095 1.19667 1.45644 0
M  V30 6 C 0.222 2.43627 2.35294 0
M  V30 7 C -0.732 3.65373 2.2001 0
M  V30 8 S 0.101 5.13292 1.52614 0
M  V30 9 C 1.257 5.56322 2.86805 0
M  V30 10 H 1.49 2.90518 0.631377 0
M  V30 11 H -0.977 1.52953 0.210867 0
M  V30 12 H 0.981 2.67203 3.11629 0
M  V30 13 H -0.358 1.57376 2.7183 0
M  V30 14 H -1.165 3.90944 3.18086 0
M  V30 15 H -1.563 3.418 1.51819 0
M  V30 16 H 0.729 5.58782 3.83104 0
M  V30 17 H 1.672 6.56266 2.65933 0
M  V30 18 H 2.08 4.83886 2.90714 0
M  V30 19 N 1.4781 -0.272755 1.55222 0
M  V30 20 C 2.8891 -0.84378 1.66545 0
M  V30 21 C 3.2401 -1.87035 0.592641 0
M  V30 22 O 2.3651 -2.14761 -0.265818 0
M  V30 23 C 2.9601 -1.53723 3.01918 0
M  V30 24 C 1.5191 -2.05628 3.15268 0
M  V30 25 C 0.6661 -0.898424 2.62343 0
M  V30 26 H 3.6171 -0.0490998 1.58624 0
M  V30 27 H 3.6381 -2.40421 2.94921 0
M  V30 28 H 3.1501 -0.78983 3.79978 0
M  V30 29 H 1.2511 -2.83329 2.41983 0
M  V30 30 H 1.3641 -2.27142 4.21833 0
M  V30 31 H -0.2719 -1.29186 2.19506 0
M  V30 32 H 0.5111 -0.164528 3.42906 0
M  V30 33 N 2.9562 -1.48159 -0.537278 0
M  V30 34 C 3.8862 -1.65029 -1.6519 0
M  V30 35 C 4.8672 -0.499281 -1.62607 0
M  V30 36 O 6.0522 -0.730972 -1.79918 0
M  V30 37 C 3.1822 -1.68303 -3.03795 0
M  V30 38 C 2.1362 -2.8283 -3.21234 0
M  V30 39 C 1.4622 -2.71189 -4.60826 0
M  V30 40 C 2.7622 -4.24211 -3.04701 0
M  V30 41 H 4.4562 -2.58341 -1.51328 0
M  V30 42 H 2.0022 -1.24325 -0.726585 0
M  V30 43 H 3.9552 -1.78693 -3.81637 0
M  V30 44 H 2.6792 -0.715635 -3.18663 0
M  V30 45 H 1.3382 -2.71983 -2.45807 0
M  V30 46 H 0.9862 -1.72435 -4.7252 0
M  V30 47 H 0.6862 -3.48035 -4.7344 0
M  V30 48 H 2.2102 -2.83537 -5.40777 0
M  V30 49 H 3.6242 -4.3593 -3.72341 0
M  V30 50 H 2.0212 -5.01998 -3.28813 0
M  V30 51 H 3.0912 -4.41184 -2.01209 0
M  V30 52 N 4.4343 0.785586 -1.36625 0
M  V30 53 C 5.8453 1.36101 -1.27803 0
M  V30 54 C 6.1963 1.96035 0.0804875 0
M  V30 55 O 5.3213 1.92834 0.982042 0
M  V30 56 C 5.9163 2.47442 -2.31426 0
M  V30 57 C 4.4753 3.00789 -2.26281 0
M  V30 58 C 3.6223 1.73896 -2.15999 0
M  V30 59 H 6.5733 0.586928 -1.47448 0
M  V30 60 H 6.5943 3.2656 -1.95291 0
M  V30 61 H 6.1063 2.03791 -3.30289 0
M  V30 62 H 4.2073 3.48851 -1.30896 0
M  V30 63 H 4.3203 3.57343 -3.19128 0
M  V30 64 H 2.6843 1.9628 -1.62316 0
M  V30 65 H 3.4673 1.32368 -3.16755 0
M  V30 66 N 5.9124 1.20967 1.01018 0
M  V30 67 C 7.1894 0.93264 1.71934 0
M  V30 68 C 7.5694 -0.55692 2.03621 0
M  V30 69 O 6.9174 -1.52035 1.7058 0
M  V30 70 C 7.1274 1.81233 2.98254 0
M  V30 71 C 8.4754 2.05804 3.71389 0
M  V30 72 O 9.4994 1.78539 3.08225 0
M  V30 73 O 8.3584 2.51888 4.84989 0
M  V30 74 H 5.4524 0.349272 0.749625 0
M  V30 75 H 7.9984 1.31871 1.06808 0
M  V30 76 H 6.7704 2.82067 2.71208 0
M  V30 77 H 6.3934 1.42674 3.7112 0
M  V30 78 N 7.3905 -1.2043 1.01659 0
M  V30 79 C 8.6375 -1.89797 0.705917 0
M  V30 80 C 8.9655 -1.78848 -0.764439 0
M  V30 81 O 8.2205 -1.16694 -1.57102 0
M  V30 82 C 8.5195 -3.40464 1.08714 0
M  V30 83 C 8.1855 -3.71614 2.5537 0
M  V30 84 C 6.8475 -3.79826 2.95441 0
M  V30 85 C 9.1995 -3.85915 3.50313 0
M  V30 86 C 6.5275 -3.99797 4.29394 0
M  V30 87 C 8.8795 -4.07396 4.83954 0
M  V30 88 C 7.5435 -4.13837 5.23732 0
M  V30 89 H 6.8135 -0.694518 0.258313 0
M  V30 90 H 9.4605 -1.42691 1.27717 0
M  V30 91 H 7.7655 -3.89385 0.434309 0
M  V30 92 H 9.4625 -3.92433 0.824461 0
M  V30 93 H 6.0525 -3.65822 2.23321 0
M  V30 94 H 10.2365 -3.78926 3.20513 0
M  V30 95 H 5.4925 -4.03018 4.59768 0
M  V30 96 H 9.6665 -4.17404 5.57447 0
M  V30 97 H 7.2935 -4.29064 6.27541 0
M  V30 98 N 8.8686 -0.792821 -1.36206 0
M  V30 99 C 10.2846 -0.474903 -1.52371 0
M  V30 100 C 10.4846 1.00622 -1.74578 0
M  V30 101 O 9.5406 1.79162 -1.77924 0
M  V30 102 C 10.8536 -1.3083 -2.70747 0
M  V30 103 C 12.4016 -1.30234 -2.84619 0
M  V30 104 C 12.8766 -2.11956 -4.06004 0
M  V30 105 N 14.3676 -2.09419 -4.13156 0
M  V30 106 C 15.1026 -2.69419 -5.06163 0
M  V30 107 N 14.5986 -3.3829 -6.04592 0
M  V30 108 N 16.3916 -2.59134 -4.98804 0
M  V30 109 H 8.5426 -1.75222 -1.20046 0
M  V30 110 H 10.8056 -0.745024 -0.586211 0
M  V30 111 H 10.5116 -2.35881 -2.6087 0
M  V30 112 H 10.3856 -0.95196 -3.6499 0
M  V30 113 H 12.7726 -0.259748 -2.93955 0
M  V30 114 H 12.8536 -1.69847 -1.91274 0
M  V30 115 H 12.4976 -3.16248 -3.97429 0
M  V30 116 H 12.4276 -1.69711 -4.98503 0
M  V30 117 H 14.9186 -1.59297 -3.42685 0
M  V30 118 H 15.2316 -3.81394 -6.7213 0
M  V30 119 H 13.5766 -3.42393 -6.04807 0
M  V30 120 H 16.7676 -2.04927 -4.20859 0
M  V30 121 H 16.9406 -3.06185 -5.711 0
M  V30 122 N 10.3467 1.47872 -0.545128 0
M  V30 123 C 11.2767 2.32661 0.197793 0
M  V30 124 C 12.2577 1.43041 0.920504 0
M  V30 125 O 13.4427 1.71912 0.90333 0
M  V30 126 C 10.5727 3.24569 1.23582 0
M  V30 127 C 9.5267 4.23333 0.630323 0
M  V30 128 C 8.8527 5.0448 1.77211 0
M  V30 129 C 10.1527 5.20704 -0.407974 0
M  V30 130 H 11.8467 2.95024 -0.510045 0
M  V30 131 H 9.3927 1.4187 -0.246731 0
M  V30 132 H 11.3457 3.8272 1.76362 0
M  V30 133 H 10.0697 2.60236 1.97344 0
M  V30 134 H 8.7287 3.6639 0.123922 0
M  V30 135 H 8.3767 4.36561 2.49847 0
M  V30 136 H 8.0767 5.71339 1.37281 0
M  V30 137 H 9.6007 5.65487 2.3034 0
M  V30 138 H 11.0147 5.7329 0.033305 0
M  V30 139 H 9.4117 5.95699 -0.725486 0
M  V30 140 H 10.4817 4.66917 -1.30828 0
M  V30 141 N 11.8248 0.280983 1.55075 0
M  V30 142 C 13.0738 -0.334784 1.98902 0
M  V30 143 C 13.3868 -1.56534 1.17288 0
M  V30 144 O 14.5928 -2.25443 1.51287 0
M  V30 145 C 13.0488 -0.646994 3.54037 0
M  V30 146 C 12.6568 0.564085 4.44435 0
M  V30 147 C 14.4008 -1.22506 4.06439 0
M  V30 148 C 12.3078 0.226137 5.90967 0
M  V30 149 H 11.2378 -0.128866 0.742906 0
M  V30 150 H 13.8888 0.386556 1.79382 0
M  V30 151 H 12.2708 -1.42739 3.6938 0
M  V30 152 H 13.4448 1.34082 4.40861 0
M  V30 153 H 11.7598 1.0594 4.02698 0
M  V30 154 H 14.3568 -1.49182 5.13468 0
M  V30 155 H 14.6998 -2.16085 3.55827 0
M  V30 156 H 15.2328 -0.50682 3.94558 0
M  V30 157 H 11.9718 1.12996 6.45687 0
M  V30 158 H 11.4918 -0.513717 5.97596 0
M  V30 159 H 13.1708 -0.179539 6.46751 0
M  V30 160 N 13.3029 -1.57598 0.00835791 0
M  V30 161 C 14.7189 -1.55764 -0.347822 0
M  V30 162 C 14.9189 -1.01186 -1.74252 0
M  V30 163 O 13.9749 -0.649371 -2.44007 0
M  V30 164 C 15.2879 -2.99927 -0.215407 0
M  V30 165 C 16.8359 -3.11656 -0.289725 0
M  V30 166 C 17.3109 -4.57621 -0.18634 0
M  V30 167 N 18.8019 -4.62557 -0.243978 0
M  V30 168 C 19.5369 -5.73094 -0.18745 0
M  V30 169 N 19.0329 -6.92753 -0.0810331 0
M  V30 170 N 20.8259 -5.61588 -0.239925 0
M  V30 171 H 12.9769 -1.91411 0.92062 0
M  V30 172 H 15.2399 -0.879562 0.353659 0
M  V30 173 H 14.9459 -3.43729 0.744512 0
M  V30 174 H 14.8199 -3.63865 -0.994097 0
M  V30 175 H 17.2069 -2.67779 -1.24009 0
M  V30 176 H 17.2879 -2.5048 0.51898 0
M  V30 177 H 16.9319 -5.02174 0.760519 0
M  V30 178 H 16.8619 -5.16752 -1.01364 0
M  V30 179 H 19.3529 -3.76481 -0.327217 0
M  V30 180 H 19.6659 -7.72787 -0.0440241 0
M  V30 181 H 18.0109 -6.94984 -0.0465419 0
M  V30 182 H 21.2019 -4.66996 -0.321317 0
M  V30 183 H 21.3749 -6.47714 -0.192407 0
M  V30 184 N 14.781 0.264519 -1.55364 0
M  V30 185 C 15.711 1.33121 -1.91836 0
M  V30 186 C 16.692 1.51101 -0.781192 0
M  V30 187 O 17.877 1.64003 -1.04003 0
M  V30 188 C 15.007 2.68921 -2.19769 0
M  V30 189 C 13.961 2.65661 -3.35571 0
M  V30 190 C 13.287 4.05093 -3.49004 0
M  V30 191 C 14.587 2.24187 -4.71739 0
M  V30 192 H 16.281 1.02844 -2.81182 0
M  V30 193 H 13.827 0.493286 -1.35287 0
M  V30 194 H 15.78 3.43663 -2.43872 0
M  V30 195 H 14.504 3.00799 -1.27231 0
M  V30 196 H 13.163 1.93377 -3.1145 0
M  V30 197 H 12.811 4.34206 -2.53917 0
M  V30 198 H 12.511 4.03804 -4.26868 0
M  V30 199 H 14.035 4.81561 -3.75408 0
M  V30 200 H 15.449 2.88654 -4.9533 0
M  V30 201 H 13.846 2.34044 -5.52579 0
M  V30 202 H 14.916 1.19327 -4.69988 0
M  V30 203 N 16.2591 1.48442 0.529413 0
M  V30 204 C 17.1891 1.65902 1.64313 0
M  V30 205 C 18.1701 0.507897 1.6234 0
M  V30 206 O 19.3551 0.740503 1.79528 0
M  V30 207 C 16.4851 1.69911 3.02898 0
M  V30 208 C 15.4391 2.8453 3.19729 0
M  V30 209 C 14.7651 2.73629 4.59381 0
M  V30 210 C 16.0651 4.25821 3.02447 0
M  V30 211 H 17.7591 2.5914 1.49955 0
M  V30 212 H 15.3051 1.24709 0.719982 0
M  V30 213 H 17.2581 1.80715 3.80684 0
M  V30 214 H 15.9821 0.732524 3.18279 0
M  V30 215 H 14.6411 2.73283 2.44361 0
M  V30 216 H 14.2891 1.74938 4.71599 0
M  V30 217 H 13.9891 3.50541 4.71588 0
M  V30 218 H 15.5131 2.86401 5.39265 0
M  V30 219 H 16.9271 4.37898 3.70024 0
M  V30 220 H 15.3241 5.03735 3.26146 0
M  V30 221 H 16.3941 4.42244 1.98867 0
M  V30 222 N 17.7372 -0.778329 1.37039 0
M  V30 223 C 19.1482 -1.35421 1.28523 0
M  V30 224 C 19.4992 -1.96075 -0.0700901 0
M  V30 225 O 18.6242 -1.93352 -0.971801 0
M  V30 226 C 19.2192 -2.46211 2.32735 0
M  V30 227 C 17.7782 -2.99585 2.27873 0
M  V30 228 C 16.9252 -1.72748 2.16918 0
M  V30 229 H 19.8762 -0.5791 1.47757 0
M  V30 230 H 19.8972 -3.2552 1.9702 0
M  V30 231 H 19.4092 -2.02036 3.31365 0
M  V30 232 H 17.5102 -3.48152 1.32745 0
M  V30 233 H 17.6232 -3.55646 3.21018 0
M  V30 234 H 15.9872 -1.95416 1.63354 0
M  V30 235 H 16.7702 -1.30686 3.17452 0
M  V30 236 N 19.2153 -1.21501 -1.00376 0
M  V30 237 C 20.1453 -0.999478 -2.11028 0
M  V30 238 C 21.1263 0.0759671 -1.6993 0
M  V30 239 O 22.3113 -0.0841106 -1.94018 0
M  V30 240 C 19.4413 -0.564709 -3.42678 0
M  V30 241 C 18.3953 -1.58486 -3.97576 0
M  V30 242 C 17.7213 -1.00628 -5.25146 0
M  V30 243 C 19.0213 -2.97204 -4.29496 0
M  V30 244 H 20.7153 -1.92495 -2.29317 0
M  V30 245 H 18.2613 -0.92693 -1.102 0
M  V30 246 H 20.2143 -0.401091 -4.19487 0
M  V30 247 H 18.9383 0.396411 -3.24185 0
M  V30 248 H 17.5973 -1.73606 -3.22888 0
M  V30 249 H 17.2453 -0.0368439 -5.02987 0
M  V30 250 H 16.9453 -1.68771 -5.62841 0
M  V30 251 H 18.4693 -0.854015 -6.04598 0
M  V30 252 H 19.8833 -2.8552 -4.97143 0
M  V30 253 H 18.2803 -3.62372 -4.78338 0
M  V30 254 H 19.3503 -3.47956 -3.3772 0
M  V30 255 N 20.6934 1.19889 -1.02296 0
M  V30 256 C 21.6564 2.21116 -0.603351 0
M  V30 257 C 22.6564 1.5738 0.329884 0
M  V30 258 O 23.8464 1.73802 0.117702 0
M  V30 259 C 20.9784 3.40696 0.117992 0
M  V30 260 H 22.1714 2.59754 -1.49893 0
M  V30 261 H 19.7244 1.33463 -0.813468 0
M  V30 262 H 20.4594 3.07569 1.0282 0
M  V30 263 H 20.2444 3.88188 -0.552511 0
M  V30 264 H 21.7344 4.15692 0.398696 0
M  V30 265 N 22.1715 0.800033 1.35784 0
M  V30 266 C 23.1345 0.211565 2.28221 0
M  V30 267 C 24.1345 -0.59728 1.49296 0
M  V30 268 O 25.3245 -0.416721 1.69142 0
M  V30 269 C 22.4565 -0.705846 3.33513 0
M  V30 270 H 23.6495 1.02677 2.81776 0
M  V30 271 H 21.2025 0.570211 1.45528 0
M  V30 272 H 21.9375 -1.54498 2.85133 0
M  V30 273 H 21.7225 -0.127655 3.91892 0
M  V30 274 H 23.2125 -1.11211 4.02519 0
M  V30 275 N 23.6496 -1.47581 0.552962 0
M  V30 276 C 24.5796 -2.32762 -0.185451 0
M  V30 277 C 25.5606 -1.43527 -0.912905 0
M  V30 278 O 26.7456 -1.72388 -0.894201 0
M  V30 279 C 23.8756 -3.25219 -1.21859 0
M  V30 280 C 22.8296 -4.23661 -0.607864 0
M  V30 281 C 22.1556 -5.05413 -1.74533 0
M  V30 282 C 23.4556 -5.20481 0.435582 0
M  V30 283 H 25.1496 -2.94749 0.525684 0
M  V30 284 H 22.6956 -1.41738 0.254251 0
M  V30 285 H 24.6486 -3.8365 -1.7433 0
M  V30 286 H 23.3726 -2.61279 -1.95961 0
M  V30 287 H 22.0316 -3.66451 -0.104489 0
M  V30 288 H 21.6796 -4.3788 -2.47529 0
M  V30 289 H 21.3796 -5.72059 -1.34249 0
M  V30 290 H 22.9036 -5.66701 -2.27338 0
M  V30 291 H 24.3176 -5.733 -0.00290157 0
M  V30 292 H 22.7146 -5.95305 0.757067 0
M  V30 293 H 23.7846 -4.66217 1.33303 0
M  V30 294 N 25.1277 -0.289203 -1.54924 0
M  V30 295 C 26.3737 0.323998 -2.00195 0
M  V30 296 C 26.7067 1.54441 -1.17735 0
M  V30 297 O 25.9817 1.92875 -0.250878 0
M  V30 298 C 26.2647 0.692276 -3.53383 0
M  V30 299 C 26.1177 -0.536457 -4.46589 0
M  V30 300 C 27.4367 1.52335 -4.12895 0
M  V30 301 H 24.5557 0.116289 -0.727768 0
M  V30 302 H 27.1977 -0.398954 -1.85764 0
M  V30 303 H 25.3477 1.30822 -3.65811 0
M  V30 304 H 27.0197 -1.17499 -4.46085 0
M  V30 305 H 25.2627 -1.17192 -4.1767 0
M  V30 306 H 25.9337 -0.234806 -5.515 0
M  V30 307 H 28.4097 1.00302 -4.0383 0
M  V30 308 H 27.2857 1.74982 -5.20262 0
M  V30 309 H 27.5467 2.50886 -3.64018 0
M  V30 310 N 26.6058 1.57591 -0.0167156 0
M  V30 311 C 27.5358 2.12496 0.967858 0
M  V30 312 C 28.5168 1.03807 1.34752 0
M  V30 313 O 29.7018 1.31577 1.42833 0
M  V30 314 C 26.8318 2.64194 2.25431 0
M  V30 315 C 25.7858 3.77559 2.01576 0
M  V30 316 C 25.1118 4.15636 3.36379 0
M  V30 317 C 26.4118 5.04151 1.36489 0
M  V30 318 H 28.1058 2.95013 0.510643 0
M  V30 319 H 25.6518 1.41915 0.244181 0
M  V30 320 H 27.6048 3.01236 2.94678 0
M  V30 321 H 26.3288 1.78821 2.73296 0
M  V30 322 H 24.9878 3.40937 1.34751 0
M  V30 323 H 24.6358 3.27263 3.81979 0
M  V30 324 H 24.3358 4.92022 3.21229 0
M  V30 325 H 25.8598 4.5525 4.06915 0
M  V30 326 H 27.2738 5.38857 1.95718 0
M  V30 327 H 25.6708 5.85453 1.31776 0
M  V30 328 H 26.7408 4.83733 0.336219 0
M  V30 329 N 28.0839 -0.256276 1.55502 0
M  V30 330 C 29.3119 -1.00342 1.8094 0
M  V30 331 C 29.7269 -1.79307 0.59114 0
M  V30 332 O 29.0839 -1.77114 -0.440081 0
M  V30 333 C 29.1349 -1.94875 3.04476 0
M  V30 334 O 28.8559 -1.19107 4.21598 0
M  V30 335 C 30.3569 -2.81266 3.42644 0
M  V30 336 H 27.5769 -0.295685 0.602338 0
M  V30 337 H 30.1209 -0.281998 2.02546 0
M  V30 338 H 28.2759 -2.62457 2.84947 0
M  V30 339 H 28.6899 -1.82969 4.91551 0
M  V30 340 H 30.1639 -3.43362 4.32211 0
M  V30 341 H 30.6409 -3.51897 2.62802 0
M  V30 342 H 31.2469 -2.1915 3.64491 0
M  V30 343 N 29.562 -1.4872 -0.521534 0
M  V30 344 C 30.525 -1.63379 -1.60748 0
M  V30 345 C 31.525 -0.50661 -1.52611 0
M  V30 346 O 32.715 -0.772601 -1.5613 0
M  V30 347 C 29.847 -1.61192 -3.00383 0
M  V30 348 H 31.04 -2.60217 -1.49087 0
M  V30 349 H 28.593 -1.37444 -0.744235 0
M  V30 350 H 29.328 -0.65863 -3.17541 0
M  V30 351 H 29.113 -2.43032 -3.07698 0
M  V30 352 H 30.603 -1.7466 -3.7932 0
M  V30 353 N 31.0401 0.771051 -1.3745 0
M  V30 354 C 32.2801 1.54264 -1.34096 0
M  V30 355 C 32.6441 1.91858 0.0737639 0
M  V30 356 O 33.8451 2.67797 0.23203 0
M  V30 357 C 32.1161 2.77326 -2.25445 0
M  V30 358 S 33.6751 3.67383 -2.39948 0
M  V30 359 H 30.4931 0.528122 -0.476034 0
M  V30 360 H 33.0951 0.906633 -1.73206 0
M  V30 361 H 31.7991 2.47788 -3.27153 0
M  V30 362 H 31.3301 3.45886 -1.87421 0
M  V30 363 H 33.3451 4.69334 -1.61059 0
M  V30 364 N 32.5182 1.22032 0.997298 0
M  V30 365 C 33.7432 1.06921 1.77715 0
M  V30 366 C 34.1682 -0.376226 1.84299 0
M  V30 367 O 33.5262 -1.27165 1.29223 0
M  V30 368 C 33.5742 1.67996 3.19076 0
M  V30 369 O 32.6782 0.930653 4.01762 0
M  V30 370 H 32.0192 0.375814 0.547412 0
M  V30 371 H 34.5492 1.61737 1.25309 0
M  V30 372 H 34.5592 1.72538 3.69723 0
M  V30 373 H 33.2342 2.73182 3.13599 0
M  V30 374 H 31.8112 0.960917 3.60307 0
M  V30 375 N 33.9963 -1.19345 1.0293 0
M  V30 376 C 35.2423 -1.89318 0.727083 0
M  V30 377 C 35.5753 -1.79446 -0.742483 0
M  V30 378 O 34.8503 -1.1871 -1.54072 0
M  V30 379 C 35.1333 -3.40238 1.17942 0
M  V30 380 C 34.9863 -3.58979 2.71024 0
M  V30 381 C 36.3053 -4.33479 0.760548 0
M  V30 382 H 33.4243 -0.687475 0.265606 0
M  V30 383 H 36.0663 -1.40477 1.2793 0
M  V30 384 H 34.2163 -3.81964 0.709608 0
M  V30 385 H 35.8883 -3.26421 3.25955 0
M  V30 386 H 34.1313 -3.02018 3.11396 0
M  V30 387 H 34.8023 -4.64823 2.9773 0
M  V30 388 H 37.2783 -3.99469 1.16464 0
M  V30 389 H 36.1543 -5.37664 1.10493 0
M  V30 390 H 36.4153 -4.40813 -0.337063 0
M  V30 391 N 35.4744 -0.807222 -1.35358 0
M  V30 392 C 36.7024 -0.400377 -2.02989 0
M  V30 393 C 37.1174 0.988859 -1.60832 0
M  V30 394 O 36.4744 1.63729 -0.806175 0
M  V30 395 C 36.5254 -0.474867 -3.58368 0
M  V30 396 O 36.2464 -1.80933 -3.98992 0
M  V30 397 C 37.7474 -0.0609112 -4.43258 0
M  V30 398 H 34.9674 -0.162587 -0.651004 0
M  V30 399 H 37.5114 -1.09102 -1.72965 0
M  V30 400 H 35.6664 0.167534 -3.87038 0
M  V30 401 H 36.0804 -1.77256 -4.9364 0
M  V30 402 H 37.5544 -0.164145 -5.51756 0
M  V30 403 H 38.0314 0.993831 -4.27808 0
M  V30 404 H 38.6374 -0.676492 -4.19885 0
M  V30 405 N 36.9525 1.47285 -0.560781 0
M  V30 406 C 38.1805 2.06855 -0.0430262 0
M  V30 407 C 38.5955 1.41291 1.25229 0
M  V30 408 O 37.9525 0.510648 1.7521 0
M  V30 409 C 38.0035 3.61178 0.152518 0
M  V30 410 O 37.7245 4.24285 -1.0915 0
M  V30 411 C 39.2255 4.37624 0.707145 0
M  V30 412 H 36.4455 0.669319 -0.0474652 0
M  V30 413 H 38.9895 1.89237 -0.77521 0
M  V30 414 H 37.1445 3.78298 0.834843 0
M  V30 415 H 37.5585 5.16868 -0.891482 0
M  V30 416 H 39.0325 5.46271 0.793244 0
M  V30 417 H 39.5095 4.04152 1.71923 0
M  V30 418 H 40.1155 4.25257 0.0604027 0
M  V30 419 N 38.4306 0.297415 1.54768 0
M  V30 420 C 39.8416 -0.195947 1.85669 0
M  V30 421 C 40.1926 -1.53707 1.21937 0
M  V30 422 O 39.3176 -2.10164 0.515754 0
M  V30 423 C 39.9126 -0.362318 3.36857 0
M  V30 424 C 38.4716 -0.799901 3.67802 0
M  V30 425 C 37.6186 0.0938578 2.77141 0
M  V30 426 H 40.5696 0.518538 1.4999 0
M  V30 427 H 40.5906 -1.19745 3.61167 0
M  V30 428 H 40.1026 0.613921 3.83214 0
M  V30 429 H 38.2036 -1.78682 3.26961 0
M  V30 430 H 38.3166 -0.621773 4.75048 0
M  V30 431 H 36.6806 -0.426254 2.51108 0
M  V30 432 H 37.4636 1.06639 3.26318 0
M  V30 433 N 39.9087 -1.5758 0.0250728 0
M  V30 434 C 40.8557 -2.09973 -0.958129 0
M  V30 435 C 41.8257 -1.00085 -1.3256 0
M  V30 436 O 43.0107 -1.27481 -1.41962 0
M  V30 437 C 40.1507 -2.62812 -2.2366 0
M  V30 438 C 39.2637 -3.86693 -1.92594 0
M  V30 439 C 38.3987 -4.27941 -3.14707 0
M  V30 440 C 37.4377 -5.44591 -2.79442 0
M  V30 441 N 36.5747 -5.81014 -3.94167 0
M  V30 442 H 41.4147 -2.937 -0.504428 0
M  V30 443 H 38.9517 -1.45172 -0.237392 0
M  V30 444 H 40.9097 -2.91536 -2.98434 0
M  V30 445 H 39.5397 -1.81922 -2.66654 0
M  V30 446 H 38.5917 -3.64723 -1.0808 0
M  V30 447 H 39.9037 -4.71547 -1.62619 0
M  V30 448 H 39.0577 -4.58079 -3.97804 0
M  V30 449 H 37.7967 -3.41845 -3.4784 0
M  V30 450 H 36.8017 -5.1415 -1.94755 0
M  V30 451 H 38.0267 -6.32382 -2.47528 0
M  V30 452 H 35.9727 -4.97874 -4.2715 0
M  V30 453 H 35.8897 -6.60498 -3.67801 0
M  V30 454 H 37.1577 -6.15756 -4.7798 0
M  V30 455 N 41.3868 0.248026 -1.55636 0
M  V30 456 C 42.6348 0.974295 -1.77065 0
M  V30 457 C 42.9558 1.85897 -0.588849 0
M  V30 458 O 42.2258 1.91868 0.395407 0
M  V30 459 H 40.8058 0.362733 -0.653019 0
M  V30 460 H 43.4678 0.266244 -1.93073 0
M  V30 461 H 42.5638 1.59667 -2.68166 0
M  V30 462 N 42.8649 1.48995 0.513639 0
M  V30 463 C 44.2759 1.5119 1.09537 0
M  V30 464 C 44.6269 0.290906 1.94031 0
M  V30 465 O 43.7519 -0.60049 2.07902 0
M  V30 466 C 44.3469 2.73964 1.99322 0
M  V30 467 C 42.9059 2.78978 2.52682 0
M  V30 468 C 42.0529 2.44934 1.30009 0
M  V30 469 H 45.0039 1.55875 0.298125 0
M  V30 470 H 45.0249 2.53409 2.83838 0
M  V30 471 H 44.5369 3.62813 1.37799 0
M  V30 472 H 42.6379 1.94378 3.1788 0
M  V30 473 H 42.7509 3.8083 2.90698 0
M  V30 474 H 41.1149 1.9644 1.62122 0
M  V30 475 H 41.8979 3.36043 0.702131 0
M  V30 476 N 44.343 -0.763751 1.37857 0
M  V30 477 C 45.591 -1.51957 1.33243 0
M  V30 478 C 45.912 -1.94835 -0.0801709 0
M  V30 479 O 45.182 -1.66894 -1.02582 0
M  V30 480 H 43.762 -0.563626 0.49024 0
M  V30 481 H 46.424 -0.908504 1.7243 0
M  V30 482 H 45.52 -2.41523 1.97669 0
M  V30 483 N 45.8211 -1.22559 -0.990812 0
M  V30 484 C 46.7681 -0.997519 -2.0813 0
M  V30 485 C 47.7381 0.0814702 -1.659 0
M  V30 486 O 48.9231 -0.0685424 -1.90677 0
M  V30 487 C 46.0631 -0.583615 -3.40129 0
M  V30 488 C 45.1761 -1.7336 -3.9569 0
M  V30 489 C 44.3111 -1.26748 -5.15857 0
M  V30 490 C 43.3501 -2.38888 -5.63559 0
M  V30 491 N 42.4871 -1.93308 -6.74964 0
M  V30 492 H 47.3271 -1.93099 -2.26973 0
M  V30 493 H 44.8641 -0.962114 -1.11273 0
M  V30 494 H 46.8221 -0.324801 -4.15934 0
M  V30 495 H 45.4521 0.312845 -3.2128 0
M  V30 496 H 44.5041 -2.10669 -3.16738 0
M  V30 497 H 45.8161 -2.57704 -4.27071 0
M  V30 498 H 44.9701 -0.966173 -5.98957 0
M  V30 499 H 43.7091 -0.394272 -4.86104 0
M  V30 500 H 42.7141 -2.69805 -4.79046 0
M  V30 501 H 43.9391 -3.26728 -5.95336 0
M  V30 502 H 41.8851 -1.08352 -6.4699 0
M  V30 503 H 41.8021 -2.71217 -7.05675 0
M  V30 504 H 43.0701 -1.66252 -7.61564 0
M  V30 505 N 47.2992 1.18797 -1.03562 0
M  V30 506 C 48.5242 1.9314 -0.755764 0
M  V30 507 C 48.9492 1.7537 0.68022 0
M  V30 508 O 48.3072 1.06046 1.47051 0
M  V30 509 C 48.3552 3.42747 -1.12058 0
M  V30 510 O 47.4592 4.11683 -0.243124 0
M  V30 511 H 46.8002 0.602724 -0.278604 0
M  V30 512 H 49.3302 1.50678 -1.3841 0
M  V30 513 H 49.3402 3.93437 -1.08035 0
M  V30 514 H 48.0152 3.55002 -2.16672 0
M  V30 515 H 46.5922 3.71323 -0.342539 0
M  V30 516 N 48.7773 0.814389 1.34928 0
M  V30 517 C 50.1883 0.458364 1.80986 0
M  V30 518 C 50.5393 -1.02042 1.67577 0
M  V30 519 O 49.6643 -1.79352 1.21086 0
M  V30 520 C 50.2593 0.825212 3.28597 0
M  V30 521 C 48.8183 0.521677 3.72767 0
M  V30 522 C 47.9653 1.04668 2.56788 0
M  V30 523 H 50.9163 1.00533 1.22795 0
M  V30 524 H 50.9373 0.12571 3.80292 0
M  V30 525 H 50.4493 1.90154 3.38324 0
M  V30 526 H 48.5503 -0.545589 3.68584 0
M  V30 527 H 48.6633 1.05977 4.67232 0
M  V30 528 H 47.0273 0.468622 2.50352 0
M  V30 529 H 47.8103 2.12927 2.6929 0
M  V30 530 N 50.2554 -1.46986 0.568584 0
M  V30 531 C 51.5324 -1.95592 -0.0174074 0
M  V30 532 C 51.9124 -1.51124 -1.47393 0
M  V30 533 O 51.2604 -0.755329 -2.15655 0
M  V30 534 C 51.4704 -3.48719 0.139913 0
M  V30 535 C 52.8184 -4.246 0.000426376 0
M  V30 536 O 53.8424 -3.56135 0.0680316 0
M  V30 537 O 52.7014 -5.46302 -0.146988 0
M  V30 538 H 49.7954 -0.82498 -0.0577599 0
M  V30 539 H 52.3414 -1.57335 0.635909 0
M  V30 540 H 51.1134 -3.73927 1.15301 0
M  V30 541 H 50.7364 -3.93771 -0.550491 0
M  V30 542 N 51.7335 -0.305618 -1.54608 0
M  V30 543 C 52.9585 0.307562 -2.05107 0
M  V30 544 C 53.3835 1.46385 -1.18123 0
M  V30 545 O 52.7415 1.8034 -0.186324 0
M  V30 546 C 52.7895 0.73704 -3.52987 0
M  V30 547 O 51.8935 1.84134 -3.6901 0
M  V30 548 H 51.2345 0.0589143 -0.661381 0
M  V30 549 H 53.7645 -0.448807 -1.99617 0
M  V30 550 H 53.7745 1.02459 -3.94925 0
M  V30 551 H 52.4495 -0.108773 -4.15758 0
M  V30 552 H 51.0265 1.55398 -3.38978 0
M  V30 553 N 53.2116 1.57565 -0.0334293 0
M  V30 554 C 54.6226 1.79746 0.504798 0
M  V30 555 C 54.9736 0.944091 1.71992 0
M  V30 556 O 54.0986 0.155694 2.15839 0
M  V30 557 C 54.6936 3.25997 0.922567 0
M  V30 558 C 53.2526 3.49159 1.40588 0
M  V30 559 C 52.3996 2.74785 0.372633 0
M  V30 560 H 55.3506 1.56565 -0.259436 0
M  V30 561 H 55.3716 3.35945 1.78666 0
M  V30 562 H 54.8836 3.88081 0.0379825 0
M  V30 563 H 52.9846 2.92332 2.31025 0
M  V30 564 H 53.0976 4.57873 1.41028 0
M  V30 565 H 51.4616 2.40391 0.841672 0
M  V30 566 H 52.2446 3.39587 -0.503559 0
M  V30 567 N 54.6897 -0.239769 1.55765 0
M  V30 568 C 55.6217 -1.32001 1.87372 0
M  V30 569 C 56.6347 -1.43944 0.760522 0
M  V30 570 O 57.8237 -1.45167 1.0387 0
M  V30 571 C 54.9237 -2.69779 2.05115 0
M  V30 572 C 54.0967 -2.80014 3.36022 0
M  V30 573 C 53.1557 -3.98684 3.4342 0
M  V30 574 O 52.1817 -3.87877 4.16582 0
M  V30 575 N 53.3837 -5.12176 2.73232 0
M  V30 576 H 56.1487 -1.0522 2.80622 0
M  V30 577 H 53.7097 -0.429857 1.56089 0
M  V30 578 H 55.7017 -3.47517 2.07399 0
M  V30 579 H 54.2717 -2.89237 1.18577 0
M  V30 580 H 53.4917 -1.88896 3.45994 0
M  V30 581 H 54.7797 -2.83808 4.22292 0
M  V30 582 H 54.1777 -5.2385 2.13536 0
M  V30 583 H 52.7347 -5.88022 2.81199 0
M  V30 584 N 56.1678 -1.49265 -0.50573 0
M  V30 585 C 57.4138 -1.59723 -1.25937 0
M  V30 586 C 57.7688 -0.278236 -1.90378 0
M  V30 587 O 57.0618 0.72113 -1.77511 0
M  V30 588 C 57.2558 -2.69008 -2.35308 0
M  V30 589 C 57.0848 -4.11405 -1.81592 0
M  V30 590 C 55.8548 -4.78252 -1.63105 0
M  V30 591 C 58.0528 -4.96792 -1.33048 0
M  V30 592 N 56.0348 -6.0498 -1.04269 0
M  V30 593 C 57.4058 -6.13962 -0.863168 0
M  V30 594 C 59.4608 -4.82828 -1.21577 0
M  V30 595 C 58.1638 -7.18705 -0.292489 0
M  V30 596 C 60.1898 -5.87716 -0.65907 0
M  V30 597 C 59.5518 -7.0411 -0.201954 0
M  V30 598 H 55.6508 -0.638864 -0.450973 0
M  V30 599 H 58.2348 -1.86251 -0.567326 0
M  V30 600 H 56.4058 -2.4426 -3.01979 0
M  V30 601 H 58.1378 -2.69013 -3.02348 0
M  V30 602 H 54.8928 -4.34974 -1.87336 0
M  V30 603 H 55.3168 -6.72631 -0.767919 0
M  V30 604 H 59.9588 -3.93159 -1.55518 0
M  V30 605 H 57.6768 -8.08078 0.0591987 0
M  V30 606 H 61.2628 -5.7897 -0.573156 0
M  V30 607 H 60.1428 -7.83885 0.222101 0
M  V30 608 N 57.6459 0.756429 -1.3826 0
M  V30 609 C 59.0619 1.0591 -1.19395 0
M  V30 610 C 59.2619 2.01459 -0.0406567 0
M  V30 611 O 58.3179 2.44909 0.614467 0
M  V30 612 C 59.6309 1.64191 -2.51916 0
M  V30 613 C 61.1789 1.76376 -2.58574 0
M  V30 614 C 61.6539 2.38069 -3.91264 0
M  V30 615 N 63.1449 2.45503 -3.92788 0
M  V30 616 C 63.8799 2.94126 -4.92217 0
M  V30 617 N 63.3759 3.42805 -6.02043 0
M  V30 618 N 65.1689 2.9314 -4.7961 0
M  V30 619 H 57.3199 0.122313 -2.12048 0
M  V30 620 H 59.5829 0.116892 -0.940766 0
M  V30 621 H 59.2889 1.01451 -3.3675 0
M  V30 622 H 59.1629 2.6329 -2.70108 0
M  V30 623 H 61.5499 2.38244 -1.74137 0
M  V30 624 H 61.6309 0.759894 -2.44252 0
M  V30 625 H 61.2749 1.76835 -4.76121 0
M  V30 626 H 61.2049 3.39091 -4.02895 0
M  V30 627 H 63.6959 2.1107 -3.13461 0
M  V30 628 H 64.0089 3.78354 -6.73846 0
M  V30 629 H 62.3539 3.4087 -6.05667 0
M  V30 630 H 65.5449 2.54419 -3.92923 0
M  V30 631 H 65.7179 3.30721 -5.5725 0
M  V30 632 N 59.124 1.23083 0.984299 0
M  V30 633 C 60.056 0.96636 2.07832 0
M  V30 634 C 61.069 -0.0582135 1.62696 0
M  V30 635 O 62.258 0.176843 1.77622 0
M  V30 636 C 59.358 0.433397 3.36117 0
M  V30 637 C 58.531 1.51722 4.10243 0
M  V30 638 C 57.59 0.989821 5.16807 0
M  V30 639 O 56.616 1.67794 5.43906 0
M  V30 640 N 57.818 -0.184367 5.80207 0
M  V30 641 H 60.583 1.90824 2.31098 0
M  V30 642 H 58.144 1.13888 1.1507 0
M  V30 643 H 60.136 0.065699 4.04647 0
M  V30 644 H 58.706 -0.413806 3.09849 0
M  V30 645 H 57.926 2.05786 3.36223 0
M  V30 646 H 59.214 2.24619 4.56534 0
M  V30 647 H 58.612 -0.760062 5.60571 0
M  V30 648 H 57.169 -0.493366 6.4993 0
M  V30 649 N 60.6021 -1.18246 1.0419 0
M  V30 650 C 61.5521 -2.19843 0.604392 0
M  V30 651 C 62.5361 -1.56962 -0.353814 0
M  V30 652 O 63.7281 -1.76156 -0.17267 0
M  V30 653 C 60.8571 -3.43287 -0.0298975 0
M  V30 654 C 59.9431 -4.13288 0.951531 0
M  V30 655 N 60.3341 -4.59271 2.11906 0
M  V30 656 C 58.6321 -4.39165 0.7778 0
M  V30 657 C 59.3331 -5.13173 2.73912 0
M  V30 658 N 58.3091 -5.04763 2.01779 0
M  V30 659 H 62.1111 -2.53089 1.4941 0
M  V30 660 H 59.6251 -1.34465 0.910658 0
M  V30 661 H 61.6221 -4.15334 -0.361037 0
M  V30 662 H 60.2821 -3.11537 -0.915127 0
M  V30 663 H 61.2931 -4.5368 2.49789 0
M  V30 664 H 57.9701 -4.17461 -0.0572331 0
M  V30 665 H 59.3601 -5.58947 3.72864 0
M  V30 666 N 62.0802 -0.821533 -1.34494 0
M  V30 667 C 63.0122 -0.199946 -2.28326 0
M  V30 668 C 64.0252 0.609377 -1.50965 0
M  V30 669 O 65.2142 0.439285 -1.7301 0
M  V30 670 C 62.3142 0.738431 -3.30757 0
M  V30 671 C 61.4872 -0.0277632 -4.37391 0
M  V30 672 C 60.5462 0.831332 -5.19591 0
M  V30 673 O 59.5722 0.276822 -5.68526 0
M  V30 674 N 60.7742 2.15132 -5.39165 0
M  V30 675 H 63.5392 -1.00609 -2.82308 0
M  V30 676 H 61.1002 -0.678366 -1.47003 0
M  V30 677 H 63.0922 1.31773 -3.82646 0
M  V30 678 H 61.6622 1.44533 -2.7718 0
M  V30 679 H 60.8822 -0.788359 -3.86236 0
M  V30 680 H 62.1702 -0.555251 -5.05761 0
M  V30 681 H 61.5682 2.62559 -5.01078 0
M  V30 682 H 60.1252 2.6795 -5.94177 0
M  V30 683 N 63.5583 1.46682 -0.576371 0
M  V30 684 C 64.4903 2.28341 0.198231 0
M  V30 685 C 65.5033 1.38141 0.861453 0
M  V30 686 O 66.6923 1.62797 0.732082 0
M  V30 687 C 63.7923 3.12986 1.29972 0
M  V30 688 C 62.9653 4.31271 0.729639 0
M  V30 689 C 62.0243 4.97363 1.71803 0
M  V30 690 O 61.0503 5.55156 1.25658 0
M  V30 691 N 62.2523 4.93796 3.05198 0
M  V30 692 H 65.0173 2.9546 -0.502324 0
M  V30 693 H 62.5783 1.56525 -0.413715 0
M  V30 694 H 64.5703 3.54066 1.96008 0
M  V30 695 H 63.1403 2.47984 1.90323 0
M  V30 696 H 62.3603 3.94052 -0.108012 0
M  V30 697 H 63.6483 5.07739 0.328438 0
M  V30 698 H 63.0463 4.48077 3.45317 0
M  V30 699 H 61.6033 5.38837 3.6674 0
M  V30 700 N 65.0364 0.313813 1.54444 0
M  V30 701 C 66.3134 -0.345447 1.92525 0
M  V30 702 C 66.6934 -1.70667 1.24242 0
M  V30 703 O 66.0414 -2.25273 0.382654 0
M  V30 704 C 66.2514 -0.44737 3.46121 0
M  V30 705 C 67.5994 -0.712238 4.18584 0
M  V30 706 O 68.6234 -0.530678 3.52225 0
M  V30 707 O 67.4824 -1.06183 5.36085 0
M  V30 708 H 64.5764 -0.195407 0.803583 0
M  V30 709 H 67.1224 0.362813 1.65776 0
M  V30 710 H 65.8944 0.509043 3.87975 0
M  V30 711 H 65.5174 -1.20359 3.78945 0
M  V30 712 N 66.5145 -1.57545 0.0417849 0
M  V30 713 C 67.7605 -1.92601 -0.635021 0
M  V30 714 C 68.0935 -0.919627 -1.71045 0
M  V30 715 O 67.3685 0.0557892 -1.9442 0
M  V30 716 C 67.6515 -3.38085 -1.23979 0
M  V30 717 C 67.5045 -4.49467 -0.173057 0
M  V30 718 C 68.8235 -3.83776 -2.15416 0
M  V30 719 H 65.9425 -0.700397 -0.229374 0
M  V30 720 H 68.5845 -1.89728 0.101633 0
M  V30 721 H 66.7345 -3.40664 -1.86762 0
M  V30 722 H 68.4065 -4.59018 0.458312 0
M  V30 723 H 66.6495 -4.30909 0.499996 0
M  V30 724 H 67.3205 -5.48323 -0.636054 0
M  V30 725 H 69.7965 -3.83013 -1.62605 0
M  V30 726 H 68.6725 -4.8624 -2.54679 0
M  V30 727 H 68.9335 -3.19998 -3.05047 0
M  V30 728 N 67.9926 0.231505 -1.5589 0
M  V30 729 C 69.4086 0.580748 -1.48659 0
M  V30 730 C 69.6086 1.87617 -0.73498 0
M  V30 731 O 68.6646 2.51046 -0.270586 0
M  V30 732 C 69.9776 0.669202 -2.93159 0
M  V30 733 C 71.5256 0.760499 -3.03621 0
M  V30 734 C 72.0006 0.880383 -4.49459 0
M  V30 735 N 73.4916 0.944861 -4.53461 0
M  V30 736 C 74.2266 1.05716 -5.63571 0
M  V30 737 N 73.7226 1.13403 -6.83456 0
M  V30 738 N 75.5156 1.09152 -5.514 0
M  V30 739 H 67.6666 -0.618695 -2.03189 0
M  V30 740 H 69.9296 -0.215728 -0.923128 0
M  V30 741 H 69.6356 -0.212904 -3.51055 0
M  V30 742 H 69.5096 1.5361 -3.44505 0
M  V30 743 H 71.8966 1.63305 -2.45796 0
M  V30 744 H 71.9776 -0.131864 -2.5546 0
M  V30 745 H 71.6216 0.0123284 -5.07899 0
M  V30 746 H 71.5516 1.78802 -4.95316 0
M  V30 747 H 74.0426 0.896176 -3.6712 0
M  V30 748 H 74.3556 1.21921 -7.63122 0
M  V30 749 H 72.7006 1.10333 -6.86186 0
M  V30 750 H 75.8916 1.02805 -4.56671 0
M  V30 751 H 76.0646 1.17558 -6.37247 0
M  V30 752 N 69.4707 1.49531 0.497807 0
M  V30 753 C 70.4187 1.66926 1.61983 0
M  V30 754 C 71.4127 0.535167 1.60724 0
M  V30 755 O 72.6187 0.714896 1.65195 0
M  V30 756 H 68.9937 0.526415 0.537021 0
M  V30 757 H 70.9647 2.61098 1.44465 0
M  V30 758 C 69.7137 1.75602 3.00099 0
M  V30 759 H 69.0367 2.62244 3.01775 0
M  V30 760 H 70.4767 1.91807 3.78135 0
M  V30 761 C 68.9357 0.501543 3.33146 0
M  V30 762 O 69.4657 -0.371342 3.9998 0
M  V30 763 N 67.6717 0.363531 2.88317 0
M  V30 764 H 67.2187 1.07485 2.34104 0
M  V30 765 H 67.1767 -0.474728 3.10795 0
M  V30 766 N 70.9488 -0.749086 1.3866 0
M  V30 767 C 71.8788 -1.8764 1.38973 0
M  V30 768 C 72.8598 -1.68178 0.255004 0
M  V30 769 O 74.0448 -1.88704 0.458754 0
M  V30 770 C 71.1748 -3.25222 1.21851 0
M  V30 771 C 70.1288 -3.59295 2.32575 0
M  V30 772 C 69.4548 -4.95663 2.00555 0
M  V30 773 C 70.7548 -3.63709 3.7485 0
M  V30 774 H 72.4488 -1.87635 2.3331 0
M  V30 775 H 69.9948 -0.901329 1.12303 0
M  V30 776 H 71.9478 -4.03746 1.20695 0
M  V30 777 H 70.6718 -3.25719 0.239775 0
M  V30 778 H 69.3308 -2.83093 2.32925 0
M  V30 779 H 68.9788 -4.92724 1.01154 0
M  V30 780 H 68.6788 -5.19429 2.74714 0
M  V30 781 H 70.2028 -5.7656 2.01024 0
M  V30 782 H 71.6168 -4.32338 3.76506 0
M  V30 783 H 70.0138 -3.98986 4.48252 0
M  V30 784 H 71.0838 -2.63834 4.06841 0
M  V30 785 N 72.4269 -1.23603 -0.977757 0
M  V30 786 C 73.3749 -1.01704 -2.09187 0
M  V30 787 C 74.3689 0.0448214 -1.69341 0
M  V30 788 O 75.5749 -0.108902 -1.7967 0
M  V30 789 H 71.9499 -0.311803 -0.684312 0
M  V30 790 H 73.9209 -1.96207 -2.24823 0
M  V30 791 C 72.6699 -0.627746 -3.41986 0
M  V30 792 H 71.9929 -1.43656 -3.73099 0
M  V30 793 H 73.4329 -0.514053 -4.20872 0
M  V30 794 C 71.8919 0.664238 -3.30287 0
M  V30 795 O 72.4219 1.71268 -3.6336 0
M  V30 796 N 70.6279 0.641156 -2.83439 0
M  V30 797 H 70.1749 -0.212376 -2.56723 0
M  V30 798 H 70.1329 1.50583 -2.75993 0
M  V30 799 N 73.905 1.17692 -1.04816 0
M  V30 800 C 74.837 2.21103 -0.603822 0
M  V30 801 C 75.85 1.59411 0.33046 0
M  V30 802 O 77.039 1.7807 0.12379 0
M  V30 803 C 74.139 3.38623 0.136898 0
M  V30 804 C 73.312 4.29888 -0.807137 0
M  V30 805 C 72.371 5.26088 -0.10836 0
M  V30 806 O 71.397 5.64353 -0.741232 0
M  V30 807 N 72.599 5.68882 1.15558 0
M  V30 808 H 75.364 2.59848 -1.49329 0
M  V30 809 H 72.925 1.32553 -0.929587 0
M  V30 810 H 74.917 4.00009 0.614401 0
M  V30 811 H 73.487 2.98508 0.927993 0
M  V30 812 H 72.707 3.65993 -1.46434 0
M  V30 813 H 73.995 4.87759 -1.44807 0
M  V30 814 H 73.393 5.39861 1.69015 0
M  V30 815 H 71.95 6.32429 1.57722 0
M  V30 816 N 75.3831 0.828654 1.34056 0
M  V30 817 C 76.6131 0.431993 2.02033 0
M  V30 818 C 77.0211 -0.96844 1.62536 0
M  V30 819 O 76.3641 -1.6391 0.829408 0
M  V30 820 C 76.4261 0.461224 3.56529 0
M  V30 821 C 76.0901 1.81599 4.1937 0
M  V30 822 C 77.0871 2.7777 4.39477 0
M  V30 823 C 74.7721 2.10604 4.56017 0
M  V30 824 C 76.7661 4.01115 4.95364 0
M  V30 825 C 74.4531 3.34207 5.11614 0
M  V30 826 C 75.4511 4.2928 5.31232 0
M  V30 827 O 75.1391 5.50699 5.8565 0
M  V30 828 H 74.8711 0.170943 0.654029 0
M  V30 829 H 77.4251 1.11988 1.72185 0
M  V30 830 H 75.6551 -0.283388 3.8566 0
M  V30 831 H 77.3441 0.0838149 4.05813 0
M  V30 832 H 78.1101 2.56659 4.11523 0
M  V30 833 H 73.9891 1.37402 4.40047 0
M  V30 834 H 77.5331 4.75333 5.10592 0
M  V30 835 H 73.4301 3.55179 5.38997 0
M  V30 836 H 74.1981 5.52298 6.04077 0
M  V30 837 N 76.8612 -1.46375 0.584142 0
M  V30 838 C 77.7932 -2.28443 -0.186119 0
M  V30 839 C 78.8062 -1.38596 -0.854115 0
M  V30 840 O 79.9952 -1.63183 -0.723438 0
M  V30 841 C 77.0952 -3.13671 -1.28311 0
M  V30 842 C 76.2682 -4.31652 -0.706758 0
M  V30 843 C 75.3272 -4.98267 -1.69163 0
M  V30 844 O 74.3532 -5.55815 -1.22712 0
M  V30 845 N 75.5552 -4.95408 -3.02575 0
M  V30 846 H 78.3202 -2.9519 0.517986 0
M  V30 847 H 75.8812 -1.56303 0.42201 0
M  V30 848 H 77.8732 -3.55101 -1.94128 0
M  V30 849 H 76.4432 -2.48989 -1.89005 0
M  V30 850 H 75.6632 -3.93989 0.128908 0
M  V30 851 H 76.9512 -5.07906 -0.301506 0
M  V30 852 H 76.3492 -4.49902 -3.42936 0
M  V30 853 H 74.9062 -5.40774 -3.63877 0
M  V30 854 N 78.3393 -0.321999 -1.54275 0
M  V30 855 C 79.5673 0.283052 -2.04955 0
M  V30 856 C 79.9823 1.45904 -1.19823 0
M  V30 857 O 79.3393 1.81063 -0.228545 0
M  V30 858 C 79.3903 0.719028 -3.54277 0
M  V30 859 O 79.1113 -0.410175 -4.36176 0
M  V30 860 C 80.6123 1.38705 -4.21041 0
M  V30 861 H 77.8323 0.0584616 -0.668448 0
M  V30 862 H 80.3763 -0.467734 -1.99079 0
M  V30 863 H 78.5313 1.41979 -3.60445 0
M  V30 864 H 78.9453 -0.0669416 -5.24457 0
M  V30 865 H 80.4193 1.64306 -5.2698 0
M  V30 866 H 80.8963 2.33385 -3.72059 0
M  V30 867 H 81.5023 0.728906 -4.19007 0
M  V30 868 N 79.8174 1.5752 -0.0501392 0
M  V30 869 C 81.2334 1.56631 0.306402 0
M  V30 870 C 81.4334 1.0577 1.71508 0
M  V30 871 O 80.4894 0.713837 2.422 0
M  V30 872 C 81.8024 3.00393 0.135811 0
M  V30 873 C 83.3504 3.12315 0.206993 0
M  V30 874 C 83.8254 4.57954 0.064944 0
M  V30 875 N 85.3164 4.63041 0.121254 0
M  V30 876 C 86.0514 5.73389 0.0354381 0
M  V30 877 N 85.5474 6.92724 -0.102666 0
M  V30 878 N 87.3404 5.62026 0.090946 0
M  V30 879 H 79.4914 1.88903 -0.971046 0
M  V30 880 H 81.7544 0.869876 -0.376855 0
M  V30 881 H 81.4604 3.41635 -0.835384 0
M  V30 882 H 81.3344 3.66373 0.897275 0
M  V30 883 H 83.7214 2.70973 1.16866 0
M  V30 884 H 83.8024 2.49016 -0.585208 0
M  V30 885 H 83.4464 4.99981 -0.893394 0
M  V30 886 H 83.3764 5.19258 0.876277 0
M  V30 887 H 85.8674 3.77216 0.227284 0
M  V30 888 H 86.1804 7.72633 -0.160882 0
M  V30 889 H 84.5254 6.94864 -0.137737 0
M  V30 890 H 87.7164 4.67684 0.197388 0
M  V30 891 H 87.8894 6.47997 0.0206089 0
M  V30 892 N 81.2955 -0.223234 1.56011 0
M  V30 893 C 82.5435 -0.946003 1.78592 0
M  V30 894 C 82.8645 -1.84936 0.618349 0
M  V30 895 O 82.1345 -1.92473 -0.364833 0
M  V30 896 H 80.7145 -0.352298 0.658707 0
M  V30 897 H 83.3765 -0.235494 1.93472 0
M  V30 898 H 82.4725 -1.55381 2.70672 0
M  V30 899 N 82.7736 -1.49793 -0.48987 0
M  V30 900 C 83.7366 -1.66752 -1.57246 0
M  V30 901 C 84.7366 -0.538867 -1.51502 0
M  V30 902 O 85.9266 -0.805545 -1.54456 0
M  V30 903 C 83.0586 -1.67528 -2.96896 0
M  V30 904 H 84.2516 -2.63321 -1.43534 0
M  V30 905 H 81.8046 -1.38992 -0.714914 0
M  V30 906 H 82.5396 -0.725837 -3.16073 0
M  V30 907 H 82.3246 -2.49504 -3.02473 0
M  V30 908 H 83.8146 -1.82667 -3.7553 0
M  V30 909 N 84.2517 0.741722 -1.39055 0
M  V30 910 C 85.4987 1.50114 -1.35912 0
M  V30 911 C 85.8267 1.94443 0.0470937 0
M  V30 912 O 85.0817 1.66612 1.02659 0
M  V30 913 C 85.3807 2.7592 -2.27163 0
M  V30 914 C 85.0467 2.50493 -3.74919 0
M  V30 915 C 83.7087 2.43267 -4.1518 0
M  V30 916 C 86.0607 2.28585 -4.684 0
M  V30 917 C 83.3887 2.12166 -5.46994 0
M  V30 918 C 85.7407 1.99002 -6.00484 0
M  V30 919 C 84.4047 1.90241 -6.39816 0
M  V30 920 H 83.6747 0.549306 -0.497336 0
M  V30 921 H 86.3217 0.851896 -1.71508 0
M  V30 922 H 84.6267 3.45553 -1.84663 0
M  V30 923 H 86.3237 3.33923 -2.22028 0
M  V30 924 H 82.9137 2.56992 -3.43006 0
M  V30 925 H 87.0977 2.33139 -4.38132 0
M  V30 926 H 82.3537 2.03901 -5.76398 0
M  V30 927 H 86.5277 1.81057 -6.72452 0
M  V30 928 H 84.1547 1.65907 -7.41875 0
M  V30 929 N 85.7298 1.2412 0.971189 0
M  V30 930 C 86.6928 1.03156 2.04674 0
M  V30 931 C 87.6928 -0.00990322 1.60797 0
M  V30 932 O 88.8828 0.230729 1.72665 0
M  V30 933 C 86.0148 0.562765 3.36223 0
M  V30 934 H 87.2078 1.98614 2.24705 0
M  V30 935 H 84.7608 1.06293 1.14593 0
M  V30 936 H 85.4958 -0.395176 3.21883 0
M  V30 937 H 85.2808 1.31441 3.69413 0
M  V30 938 H 86.7708 0.437015 4.15307 0
M  V30 939 N 87.2079 -1.17134 1.05439 0
M  V30 940 C 88.4379 -1.91094 0.785274 0
M  V30 941 C 88.8459 -1.77198 -0.663142 0
M  V30 942 O 88.1889 -1.10835 -1.46497 0
M  V30 943 C 88.2509 -3.42594 1.08949 0
M  V30 944 C 87.9149 -3.80274 2.53458 0
M  V30 945 C 88.9119 -3.82912 3.51673 0
M  V30 946 C 86.5969 -4.11162 2.88532 0
M  V30 947 C 88.5909 -4.15913 4.83006 0
M  V30 948 C 86.2779 -4.43831 4.20068 0
M  V30 949 C 87.2759 -4.46185 5.17115 0
M  V30 950 O 86.9639 -4.78083 6.46291 0
M  V30 951 H 86.6959 -0.613073 0.284811 0
M  V30 952 H 89.2499 -1.49461 1.40893 0
M  V30 953 H 87.4799 -3.84534 0.408741 0
M  V30 954 H 89.1689 -3.97817 0.805991 0
M  V30 955 H 89.9349 -3.5917 3.25917 0
M  V30 956 H 85.8139 -4.085 2.13656 0
M  V30 957 H 89.3579 -4.17665 5.5875 0
M  V30 958 H 85.2549 -4.67037 4.45586 0
M  V30 959 H 86.0229 -4.9593 6.51149 0
M  V30 960 N 88.686 -0.835752 -1.33615 0
M  V30 961 C 89.935 -0.426289 -1.97144 0
M  V30 962 C 90.248 1.01912 -1.66953 0
M  V30 963 O 91.454 1.53311 -2.24072 0
M  V30 964 C 89.91 -0.711321 -3.52801 0
M  V30 965 C 89.518 -2.1712 -3.91871 0
M  V30 966 C 91.262 -0.368654 -4.22896 0
M  V30 967 C 89.169 -2.40044 -5.40493 0
M  V30 968 H 88.099 -0.15567 -0.737755 0
M  V30 969 H 90.75 -1.0239 -1.52278 0
M  V30 970 H 89.132 -0.0433766 -3.95976 0
M  V30 971 H 90.306 -2.87936 -3.59763 0
M  V30 972 H 88.621 -2.47654 -3.34749 0
M  V30 973 H 91.218 -0.517601 -5.32189 0
M  V30 974 H 91.561 0.688078 -4.10574 0
M  V30 975 H 92.094 -0.991702 -3.8524 0
M  V30 976 H 88.833 -3.44271 -5.57815 0
M  V30 977 H 88.353 -1.73785 -5.74072 0
M  V30 978 H 90.032 -2.23042 -6.0734 0
M  V30 979 N 90.1641 1.46063 -0.591896 0
M  V30 980 C 91.3891 2.07226 -0.0850314 0
M  V30 981 C 91.8141 1.43625 1.21463 0
M  V30 982 O 91.1721 0.523305 1.73583 0
M  V30 983 C 91.2201 3.60554 0.0576567 0
M  V30 984 O 90.3241 3.97128 1.11188 0
M  V30 985 H 89.6651 0.660615 -0.0669568 0
M  V30 986 H 92.1951 1.8756 -0.81745 0
M  V30 987 H 92.2051 4.07165 0.2609 0
M  V30 988 H 90.8801 4.06235 -0.891416 0
M  V30 989 H 89.4571 3.62213 0.886356 0
M  V30 990 N 91.6422 0.330177 1.54103 0
M  V30 991 C 92.9192 -0.325007 1.92881 0
M  V30 992 C 93.2992 -1.6934 1.26045 0
M  V30 993 O 92.6472 -2.24855 0.406526 0
M  V30 994 C 92.8572 -0.410634 3.46576 0
M  V30 995 C 94.2052 -0.667801 4.19316 0
M  V30 996 O 95.2292 -0.49329 3.52768 0
M  V30 997 O 94.0882 -1.00491 5.37181 0
M  V30 998 H 91.1822 -0.186873 0.80561 0
M  V30 999 H 93.7282 0.380376 1.65382 0
M  V30 1000 H 92.5002 0.550164 3.87413 0
M  V30 1001 H 92.1232 -1.16333 3.802 0
M  V30 1002 N 93.1203 -1.57491 0.0584922 0
M  V30 1003 C 94.0523 -2.08916 -0.942694 0
M  V30 1004 C 95.0653 -1.0185 -1.27006 0
M  V30 1005 O 96.2543 -1.29398 -1.22957 0
M  V30 1006 C 93.3543 -2.52341 -2.26224 0
M  V30 1007 C 92.5273 -3.82827 -2.1157 0
M  V30 1008 C 91.5863 -4.12487 -3.26712 0
M  V30 1009 O 90.6123 -4.82295 -3.02292 0
M  V30 1010 N 91.8143 -3.64978 -4.5141 0
M  V30 1011 H 94.5793 -2.95437 -0.503722 0
M  V30 1012 H 92.1403 -1.61397 -0.12757 0
M  V30 1013 H 94.1323 -2.69254 -3.02133 0
M  V30 1014 H 92.7023 -1.7103 -2.61663 0
M  V30 1015 H 91.9223 -3.75425 -1.20208 0
M  V30 1016 H 93.2103 -4.68263 -1.99015 0
M  V30 1017 H 92.6083 -3.08558 -4.7414 0
M  V30 1018 H 91.1653 -3.87115 -5.2439 0
M  V30 1019 N 94.5984 0.214957 -1.56127 0
M  V30 1020 C 95.5304 1.29004 -1.89448 0
M  V30 1021 C 96.5434 1.42716 -0.783326 0
M  V30 1022 O 97.7324 1.43496 -1.06166 0
M  V30 1023 C 94.8324 2.66482 -2.09381 0
M  V30 1024 C 94.0054 2.74633 -3.40434 0
M  V30 1025 C 93.0644 3.9317 -3.49719 0
M  V30 1026 O 92.0904 3.812 -4.227 0
M  V30 1027 N 93.2924 5.07765 -2.81346 0
M  V30 1028 H 96.0574 1.00743 -2.82261 0
M  V30 1029 H 93.6184 0.40497 -1.56753 0
M  V30 1030 H 95.6104 3.44173 -2.12901 0
M  V30 1031 H 94.1804 2.87314 -1.23163 0
M  V30 1032 H 93.4004 1.83368 -3.48955 0
M  V30 1033 H 94.6884 2.77054 -4.26754 0
M  V30 1034 H 94.0864 5.20386 -2.21843 0
M  V30 1035 H 92.6434 5.83474 -2.90519 0
M  V30 1036 N 96.0765 1.50051 0.48192 0
M  V30 1037 C 97.0235 1.68122 1.58125 0
M  V30 1038 C 97.9935 0.522545 1.57666 0
M  V30 1039 O 99.1785 0.751844 1.75362 0
M  V30 1040 C 96.3185 1.77142 2.96167 0
M  V30 1041 C 95.4315 3.0444 3.06497 0
M  V30 1042 C 94.5665 3.04321 4.35387 0
M  V30 1043 C 93.6055 4.26118 4.3942 0
M  V30 1044 N 92.7425 4.238 5.59766 0
M  V30 1045 H 97.5825 2.6198 1.42022 0
M  V30 1046 H 95.1195 1.29877 0.690687 0
M  V30 1047 H 97.0775 1.80352 3.76203 0
M  V30 1048 H 95.7075 0.867329 3.1093 0
M  V30 1049 H 94.7595 3.10752 2.19402 0
M  V30 1050 H 96.0715 3.94426 3.05336 0
M  V30 1051 H 95.2255 3.062 5.23762 0
M  V30 1052 H 93.9645 2.12147 4.39141 0
M  V30 1053 H 92.9695 4.24463 3.49444 0
M  V30 1054 H 94.1945 5.19507 4.37366 0
M  V30 1055 H 92.1405 3.34474 5.64326 0
M  V30 1056 H 92.0575 5.07542 5.60301 0
M  V30 1057 H 93.3255 4.2981 6.50295 0
M  V30 1058 N 97.5546 -0.734337 1.39446 0
M  V30 1059 C 98.8006 -1.49613 1.36908 0
M  V30 1060 C 99.1336 -1.94169 -0.0347829 0
M  V30 1061 O 98.4086 -1.66833 -0.999847 0
M  V30 1062 C 98.6916 -2.73534 2.34203 0
M  V30 1063 C 98.5446 -2.34993 3.83534 0
M  V30 1064 C 99.8636 -3.75635 2.29317 0
M  V30 1065 H 96.9826 -0.542714 0.498629 0
M  V30 1066 H 99.6246 -0.839597 1.70443 0
M  V30 1067 H 97.7746 -3.29553 2.05736 0
M  V30 1068 H 99.4466 -1.84601 4.22753 0
M  V30 1069 H 97.6896 -1.67213 4.00278 0
M  V30 1070 H 98.3606 -3.23738 4.47099 0
M  V30 1071 H 100.837 -3.29203 2.54489 0
M  V30 1072 H 99.7126 -4.60008 2.99472 0
M  V30 1073 H 99.9736 -4.22603 1.29842 0
M  V30 1074 N 99.0327 -1.24633 -0.964593 0
M  V30 1075 C 100.263 -1.11339 -1.74032 0
M  V30 1076 C 100.671 0.336593 -1.86182 0
M  V30 1077 O 100.014 1.24389 -1.35178 0
M  V30 1078 C 100.076 -1.68284 -3.1768 0
M  V30 1079 C 99.7397 -3.17196 -3.28992 0
M  V30 1080 C 100.737 -4.14308 -3.14078 0
M  V30 1081 C 98.4217 -3.57215 -3.53133 0
M  V30 1082 C 100.416 -5.4942 -3.23135 0
M  V30 1083 C 98.1027 -4.92468 -3.61827 0
M  V30 1084 C 99.1007 -5.8838 -3.46841 0
M  V30 1085 O 98.7887 -7.21173 -3.55197 0
M  V30 1086 H 98.5207 -0.389551 -0.552472 0
M  V30 1087 H 101.075 -1.65282 -1.21946 0
M  V30 1088 H 99.3047 -1.08777 -3.71085 0
M  V30 1089 H 100.994 -1.50234 -3.77074 0
M  V30 1090 H 101.76 -3.84731 -2.95308 0
M  V30 1091 H 97.6387 -2.83063 -3.63863 0
M  V30 1092 H 101.183 -6.24263 -3.11355 0
M  V30 1093 H 97.0797 -5.21714 -3.80111 0
M  V30 1094 H 97.8477 -7.29135 -3.71892 0
M  V30 1095 N 100.511 1.16574 -1.06058 0
M  V30 1096 C 101.474 2.19085 -0.673392 0
M  V30 1097 C 102.474 1.5835 0.279648 0
M  V30 1098 O 103.664 1.74088 0.0623488 0
M  V30 1099 C 100.796 3.40899 0.00954234 0
M  V30 1100 H 101.989 2.54853 -1.58081 0
M  V30 1101 H 99.5418 1.30808 -0.855516 0
M  V30 1102 H 100.277 3.10684 0.929826 0
M  V30 1103 H 100.062 3.86233 -0.67573 0
M  V30 1104 H 101.552 4.1675 0.266245 0
M  V30 1105 N 101.989 0.842826 1.3317 0
M  V30 1106 C 103.405 0.531128 1.50503 0
M  V30 1107 C 103.605 -0.940734 1.78192 0
M  V30 1108 O 102.661 -1.72436 1.84451 0
M  V30 1109 C 103.974 1.40789 2.65705 0
M  V30 1110 C 105.522 1.40708 2.79589 0
M  V30 1111 C 105.997 2.26878 3.97857 0
M  V30 1112 N 107.488 2.24609 4.05099 0
M  V30 1113 C 108.223 2.88019 4.95815 0
M  V30 1114 N 107.719 3.60496 5.9162 0
M  V30 1115 N 109.512 2.77469 4.88843 0
M  V30 1116 H 101.663 1.79557 1.1346 0
M  V30 1117 H 103.926 0.766267 0.558156 0
M  V30 1118 H 103.632 2.454 2.51936 0
M  V30 1119 H 103.506 1.08677 3.61205 0
M  V30 1120 H 105.893 0.368668 2.92788 0
M  V30 1121 H 105.974 1.76829 1.84838 0
M  V30 1122 H 105.618 3.3078 3.85418 0
M  V30 1123 H 105.548 1.88096 4.91861 0
M  V30 1124 H 108.039 1.71906 3.36536 0
M  V30 1125 H 108.352 4.06076 6.57512 0
M  V30 1126 H 106.697 3.64604 5.91683 0
M  V30 1127 H 109.888 2.20406 4.12963 0
M  V30 1128 H 110.061 3.2717 5.59342 0
M  V30 1129 N 103.467 -1.45747 0.599634 0
M  V30 1130 C 104.714 -2.02292 0.0917284 0
M  V30 1131 C 105.042 -1.46906 -1.27472 0
M  V30 1132 O 104.297 -0.630652 -1.8526 0
M  V30 1133 C 104.596 -3.57399 -0.00602758 0
M  V30 1134 C 104.262 -4.31902 1.29503 0
M  V30 1135 C 102.924 -4.51974 1.65144 0
M  V30 1136 C 105.276 -4.74551 2.15525 0
M  V30 1137 C 102.604 -5.11949 2.86574 0
M  V30 1138 C 104.956 -5.35868 3.36196 0
M  V30 1139 C 103.62 -5.54165 3.72099 0
M  V30 1140 H 102.89 -0.740239 0.0335658 0
M  V30 1141 H 105.537 -1.7491 0.779661 0
M  V30 1142 H 103.842 -3.84014 -0.777183 0
M  V30 1143 H 105.539 -3.98846 -0.415038 0
M  V30 1144 H 102.129 -4.16588 1.00761 0
M  V30 1145 H 106.313 -4.58784 1.8929 0
M  V30 1146 H 101.569 -5.24305 3.14507 0
M  V30 1147 H 105.743 -5.6787 4.03109 0
M  V30 1148 H 103.37 -6.00406 4.6628 0
M  V30 1149 N 104.945 -0.338344 -1.53925 0
M  V30 1150 C 106.192 0.259758 -2.00827 0
M  V30 1151 C 106.52 1.50973 -1.22628 0
M  V30 1152 O 105.775 1.93379 -0.300509 0
M  V30 1153 C 106.074 0.62448 -3.51902 0
M  V30 1154 C 105.74 -0.528006 -4.47798 0
M  V30 1155 C 104.402 -0.844298 -4.73735 0
M  V30 1156 C 106.754 -1.30143 -5.0469 0
M  V30 1157 C 104.082 -1.93648 -5.53821 0
M  V30 1158 C 106.434 -2.38382 -5.85967 0
M  V30 1159 C 105.098 -2.70576 -6.10201 0
M  V30 1160 H 104.368 0.0950523 -0.734878 0
M  V30 1161 H 107.015 -0.465182 -1.85764 0
M  V30 1162 H 105.32 1.43006 -3.64769 0
M  V30 1163 H 107.017 1.09905 -3.85645 0
M  V30 1164 H 103.607 -0.271421 -4.2774 0
M  V30 1165 H 107.791 -1.07033 -4.84621 0
M  V30 1166 H 103.047 -2.19021 -5.70824 0
M  V30 1167 H 107.221 -2.98746 -6.29066 0
M  V30 1168 H 104.848 -3.55333 -6.72044 0
M  V30 1169 N 106.423 1.57458 -0.0668435 0
M  V30 1170 C 107.669 1.94401 0.598316 0
M  V30 1171 C 108.024 0.946335 1.67518 0
M  V30 1172 O 107.317 -0.0321442 1.91573 0
M  V30 1173 C 107.511 3.35784 1.22409 0
M  V30 1174 C 107.34 4.49212 0.209367 0
M  V30 1175 C 106.11 5.04887 -0.204218 0
M  V30 1176 C 108.308 5.11335 -0.551431 0
M  V30 1177 N 106.29 6.01854 -1.21016 0
M  V30 1178 C 107.661 6.03754 -1.41 0
M  V30 1179 C 109.716 4.94173 -0.608038 0
M  V30 1180 C 108.419 6.80854 -2.32013 0
M  V30 1181 C 110.445 5.71912 -1.50566 0
M  V30 1182 C 109.807 6.63976 -2.35191 0
M  V30 1183 H 105.906 0.758538 0.190114 0
M  V30 1184 H 108.49 1.94175 -0.142832 0
M  V30 1185 H 106.661 3.36757 1.93518 0
M  V30 1186 H 108.393 3.59976 1.84931 0
M  V30 1187 H 105.148 4.73266 0.177908 0
M  V30 1188 H 105.572 6.55035 -1.71049 0
M  V30 1189 H 110.214 4.22788 0.032022 0
M  V30 1190 H 107.932 7.5152 -2.97057 0
M  V30 1191 H 111.518 5.60656 -1.55423 0
M  V30 1192 H 110.398 7.2308 -3.03522 0
M  V30 1193 N 107.901 -0.206675 1.56239 0
M  V30 1194 C 108.833 -1.27997 1.9013 0
M  V30 1195 C 109.846 -1.42299 0.790883 0
M  V30 1196 O 111.035 -1.42931 1.06925 0
M  V30 1197 C 108.135 -2.65368 2.10792 0
M  V30 1198 C 107.308 -2.72824 3.41886 0
M  V30 1199 C 106.367 -3.9131 3.51799 0
M  V30 1200 O 105.393 -3.78953 4.24716 0
M  V30 1201 N 106.595 -5.06265 2.84035 0
M  V30 1202 H 109.36 -0.992444 2.82791 0
M  V30 1203 H 106.921 -0.396652 1.56966 0
M  V30 1204 H 108.913 -3.43039 2.14724 0
M  V30 1205 H 107.483 -2.86657 1.24685 0
M  V30 1206 H 106.703 -1.81515 3.49923 0
M  V30 1207 H 107.991 -2.74786 4.28217 0
M  V30 1208 H 107.389 -5.19203 2.246 0
M  V30 1209 H 105.946 -5.81925 2.93609 0
M  V30 1210 N 109.379 -1.50304 -0.473955 0
M  V30 1211 C 110.311 -1.65109 -1.58971 0
M  V30 1212 C 111.324 -0.532676 -1.53839 0
M  V30 1213 O 112.513 -0.805751 -1.59279 0
M  V30 1214 C 109.613 -1.61684 -2.97845 0
M  V30 1215 C 108.786 -2.8951 -3.27876 0
M  V30 1216 C 107.845 -2.78768 -4.4629 0
M  V30 1217 O 106.871 -3.52722 -4.46739 0
M  V30 1218 N 108.073 -1.9213 -5.47783 0
M  V30 1219 H 110.838 -2.61347 -1.46689 0
M  V30 1220 H 108.399 -1.47732 -0.662324 0
M  V30 1221 H 110.391 -1.52114 -3.75024 0
M  V30 1222 H 108.961 -0.731925 -3.03911 0
M  V30 1223 H 108.181 -3.13228 -2.39336 0
M  V30 1224 H 109.469 -3.74199 -3.4475 0
M  V30 1225 H 108.867 -1.31353 -5.50239 0
M  V30 1226 H 107.424 -1.88466 -6.23958 0
M  V30 1227 N 110.857 0.726932 -1.39834 0
M  V30 1228 C 112.085 1.51613 -1.40787 0
M  V30 1229 C 112.5 1.88799 -0.00451505 0
M  V30 1230 O 111.857 1.54662 0.968809 0
M  V30 1231 C 111.908 2.79863 -2.28821 0
M  V30 1232 O 111.629 2.44253 -3.63692 0
M  V30 1233 C 113.13 3.73837 -2.38245 0
M  V30 1234 H 110.35 0.468264 -0.480593 0
M  V30 1235 H 112.894 0.897607 -1.83748 0
M  V30 1236 H 111.049 3.38027 -1.89252 0
M  V30 1237 H 111.463 3.26695 -4.1033 0
M  V30 1238 H 112.937 4.60699 -3.04073 0
M  V30 1239 H 113.414 4.16153 -1.40403 0
M  V30 1240 H 114.02 3.21589 -2.78317 0
M  V30 1241 N 112.336 1.25143 0.95797 0
M  V30 1242 C 113.584 1.09476 1.69881 0
M  V30 1243 C 113.905 -0.365502 1.91544 0
M  V30 1244 O 113.175 -1.25985 1.50015 0
M  V30 1245 H 111.755 0.402128 0.629525 0
M  V30 1246 H 114.417 1.57214 1.15194 0
M  V30 1247 H 113.513 1.60046 2.6794 0
M  V30 1248 N 113.814 -1.1601 1.06675 0
M  V30 1249 C 114.746 -2.20115 0.638921 0
M  V30 1250 C 115.759 -1.59916 -0.305057 0
M  V30 1251 O 116.948 -1.78245 -0.0954446 0
M  V30 1252 C 114.048 -3.38798 -0.0830083 0
M  V30 1253 C 113.221 -4.2855 0.875426 0
M  V30 1254 C 112.28 -5.25849 0.192042 0
M  V30 1255 O 111.306 -5.63102 0.830921 0
M  V30 1256 N 112.508 -5.70648 -1.06493 0
M  V30 1257 H 115.273 -2.57439 1.53444 0
M  V30 1258 H 112.834 -1.31057 0.950557 0
M  V30 1259 H 114.826 -4.00936 -0.550685 0
M  V30 1260 H 113.396 -2.99947 -0.880386 0
M  V30 1261 H 112.616 -3.63617 1.52238 0
M  V30 1262 H 113.904 -4.85393 1.52548 0
M  V30 1263 H 113.302 -5.42482 -1.60405 0
M  V30 1264 H 111.859 -6.34859 -1.47641 0
M  V30 1265 N 115.292 -0.849877 -1.32721 0
M  V30 1266 C 116.569 -0.372405 -1.92022 0
M  V30 1267 C 116.949 1.1435 -1.77447 0
M  V30 1268 O 116.297 1.96296 -1.16962 0
M  V30 1269 C 116.507 -0.831482 -3.3895 0
M  V30 1270 C 117.855 -0.845882 -4.16089 0
M  V30 1271 O 118.879 -0.775806 -3.47649 0
M  V30 1272 O 117.738 -0.943753 -5.38289 0
M  V30 1273 H 114.832 -0.107667 -0.819961 0
M  V30 1274 H 117.378 -0.93646 -1.41522 0
M  V30 1275 H 116.15 -1.87448 -3.4348 0
M  V30 1276 H 115.773 -0.24461 -3.96847 0
M  V30 1277 N 116.77 1.45427 -0.607355 0
M  V30 1278 C 118.186 1.57283 -0.270985 0
M  V30 1279 C 118.386 1.59875 1.22647 0
M  V30 1280 O 117.442 1.52893 2.00948 0
M  V30 1281 C 118.755 2.85566 -0.941952 0
M  V30 1282 C 120.303 2.9924 -0.917849 0
M  V30 1283 C 120.778 4.30293 -1.56882 0
M  V30 1284 N 122.269 4.37051 -1.5343 0
M  V30 1285 C 123.004 5.37123 -2.00715 0
M  V30 1286 N 122.5 6.43734 -2.56084 0
M  V30 1287 N 124.293 5.28479 -1.91484 0
M  V30 1288 H 116.444 1.41988 -1.57966 0
M  V30 1289 H 118.707 0.67885 -0.661715 0
M  V30 1290 H 118.413 2.8955 -1.99633 0
M  V30 1291 H 118.287 3.74322 -0.465096 0
M  V30 1292 H 120.674 2.94822 0.127984 0
M  V30 1293 H 120.755 2.11895 -1.43297 0
M  V30 1294 H 120.399 4.35469 -2.61398 0
M  V30 1295 H 120.329 5.16454 -1.02873 0
M  V30 1296 H 122.82 3.60615 -1.12982 0
M  V30 1297 H 123.133 7.16341 -2.89958 0
M  V30 1298 H 121.478 6.44485 -2.60122 0
M  V30 1299 H 124.669 4.44098 -1.47967 0
M  V30 1300 H 124.842 6.0632 -2.28648 0
M  V30 1301 N 118.248 0.346503 1.53744 0
M  V30 1302 C 119.478 -0.250047 2.05081 0
M  V30 1303 C 119.886 -1.44529 1.22098 0
M  V30 1304 O 119.229 -1.81992 0.249917 0
M  V30 1305 C 119.291 -0.725934 3.52094 0
M  V30 1306 C 118.955 0.350053 4.55657 0
M  V30 1307 C 119.952 1.19372 5.0601 0
M  V30 1308 C 117.637 0.504827 4.99757 0
M  V30 1309 C 119.631 2.17768 5.99046 0
M  V30 1310 C 117.318 1.49218 5.92602 0
M  V30 1311 C 118.316 2.32706 6.42135 0
M  V30 1312 O 118.004 3.2976 7.33153 0
M  V30 1313 H 117.736 -0.0515469 0.674032 0
M  V30 1314 H 120.29 0.497559 1.99282 0
M  V30 1315 H 118.52 -1.52483 3.55367 0
M  V30 1316 H 120.209 -1.24336 3.86388 0
M  V30 1317 H 120.975 1.08525 4.72702 0
M  V30 1318 H 116.854 -0.135178 4.60802 0
M  V30 1319 H 120.398 2.82971 6.37631 0
M  V30 1320 H 116.295 1.6012 6.25325 0
M  V30 1321 H 117.063 3.25265 7.51096 0
M  V30 1322 N 119.726 -1.57421 0.075193 0
M  V30 1323 C 121.142 -1.57099 -0.281444 0
M  V30 1324 C 121.342 -1.08486 -1.69803 0
M  V30 1325 O 120.398 -0.752279 -2.41033 0
M  V30 1326 C 121.711 -3.00571 -0.0880041 0
M  V30 1327 C 123.259 -3.12605 -0.157281 0
M  V30 1328 C 123.734 -4.57999 0.0079207 0
M  V30 1329 N 125.225 -4.63176 -0.0475725 0
M  V30 1330 C 125.96 -5.73373 0.0557876 0
M  V30 1331 N 125.456 -6.92473 0.21286 0
M  V30 1332 N 127.249 -5.621 -0.00152098 0
M  V30 1333 H 119.4 -1.87335 1.00098 0
M  V30 1334 H 121.663 -0.86377 0.390646 0
M  V30 1335 H 121.369 -3.40262 0.889629 0
M  V30 1336 H 121.243 -3.67754 -0.838875 0
M  V30 1337 H 123.63 -2.72798 -1.1254 0
M  V30 1338 H 123.711 -2.48053 0.62475 0
M  V30 1339 H 123.355 -4.98496 0.972824 0
M  V30 1340 H 123.285 -5.20586 -0.793556 0
M  V30 1341 H 125.776 -3.7753 -0.167244 0
M  V30 1342 H 126.089 -7.72279 0.283781 0
M  V30 1343 H 124.434 -6.94556 0.248267 0
M  V30 1344 H 127.625 -4.67938 -0.122958 0
M  V30 1345 H 127.798 -6.47948 0.0824844 0
M  V30 1346 N 121.204 0.198386 -1.56346 0
M  V30 1347 C 122.134 1.24865 -1.9731 0
M  V30 1348 C 123.115 1.47651 -0.844576 0
M  V30 1349 O 124.3 1.59444 -1.10866 0
M  V30 1350 C 121.43 2.59358 -2.30977 0
M  V30 1351 C 120.384 2.5119 -3.46537 0
M  V30 1352 C 119.71 3.89926 -3.65871 0
M  V30 1353 C 121.01 2.03977 -4.80823 0
M  V30 1354 H 122.704 0.908252 -2.85291 0
M  V30 1355 H 120.25 0.435462 -1.37258 0
M  V30 1356 H 122.203 3.33011 -2.58228 0
M  V30 1357 H 120.927 2.95132 -1.39874 0
M  V30 1358 H 119.586 1.79993 -3.19371 0
M  V30 1359 H 119.234 4.23046 -2.72105 0
M  V30 1360 H 118.934 3.85336 -4.4361 0
M  V30 1361 H 120.458 4.65205 -3.95495 0
M  V30 1362 H 121.872 2.67386 -5.07127 0
M  V30 1363 H 120.269 2.10397 -5.62008 0
M  V30 1364 H 121.339 0.992861 -4.74626 0
M  V30 1365 N 122.682 1.50554 0.465978 0
M  V30 1366 C 123.612 1.72722 1.57128 0
M  V30 1367 C 124.593 0.576294 1.6004 0
M  V30 1368 O 125.778 0.81598 1.76225 0
M  V30 1369 C 122.908 1.82605 2.95419 0
M  V30 1370 C 121.862 2.97835 3.07373 0
M  V30 1371 C 121.188 2.92867 4.47363 0
M  V30 1372 C 122.488 4.38265 2.84114 0
M  V30 1373 H 124.182 2.65267 1.38829 0
M  V30 1374 H 121.728 1.2765 0.666441 0
M  V30 1375 H 123.681 1.96698 3.72677 0
M  V30 1376 H 122.405 0.866858 3.14886 0
M  V30 1377 H 121.064 2.83401 2.3255 0
M  V30 1378 H 120.712 1.94783 4.63755 0
M  V30 1379 H 120.412 3.70227 4.56296 0
M  V30 1380 H 121.936 3.09015 5.26633 0
M  V30 1381 H 123.35 4.53198 3.51118 0
M  V30 1382 H 121.747 5.17115 3.04487 0
M  V30 1383 H 122.817 4.50281 1.7993 0
M  V30 1384 N 124.16 -0.719506 1.40217 0
M  V30 1385 C 125.09 -1.8465 1.42922 0
M  V30 1386 C 126.071 -1.67599 0.29062 0
M  V30 1387 O 127.256 -1.87688 0.498677 0
M  V30 1388 C 124.386 -3.22565 1.28722 0
M  V30 1389 C 123.34 -3.54281 2.40144 0
M  V30 1390 C 122.666 -4.91298 2.11023 0
M  V30 1391 C 123.966 -3.55676 3.82481 0
M  V30 1392 H 125.66 -1.82644 2.37237 0
M  V30 1393 H 123.206 -0.877305 1.1419 0
M  V30 1394 H 125.159 -4.01095 1.29232 0
M  V30 1395 H 123.883 -3.25137 0.308811 0
M  V30 1396 H 122.542 -2.78088 2.38877 0
M  V30 1397 H 122.19 -4.90468 1.11582 0
M  V30 1398 H 121.89 -5.13485 2.8567 0
M  V30 1399 H 123.414 -5.72166 2.13209 0
M  V30 1400 H 124.828 -4.24254 3.85592 0
M  V30 1401 H 123.225 -3.89388 4.56614 0
M  V30 1402 H 124.295 -2.55144 4.12346 0
M  V30 1403 N 125.638 -1.25649 -0.95132 0
M  V30 1404 C 126.866 -1.13343 -1.73092 0
M  V30 1405 C 127.281 0.312434 -1.86197 0
M  V30 1406 O 126.638 1.21465 -1.36207 0
M  V30 1407 C 126.689 -1.78602 -3.14299 0
M  V30 1408 O 126.41 -3.17537 -3.01831 0
M  V30 1409 C 127.911 -1.72119 -4.08522 0
M  V30 1410 H 125.131 -0.395181 -0.542285 0
M  V30 1411 H 127.675 -1.66076 -1.19328 0
M  V30 1412 H 125.83 -1.29832 -3.64996 0
M  V30 1413 H 126.244 -3.49676 -3.90931 0
M  V30 1414 H 127.718 -2.22435 -5.052 0
M  V30 1415 H 128.195 -0.685635 -4.33815 0
M  V30 1416 H 128.801 -2.20393 -3.63741 0
M  V30 1417 N 127.117 1.15442 -1.07289 0
M  V30 1418 C 128.065 2.22225 -0.686952 0
M  V30 1419 C 129.059 1.66688 0.30193 0
M  V30 1420 O 130.265 1.79236 0.165712 0
M  V30 1421 H 126.64 0.723783 -0.204064 0
M  V30 1422 H 128.611 2.52056 -1.5972 0
M  V30 1423 C 127.36 3.47556 -0.100149 0
M  V30 1424 H 126.683 3.90612 -0.852211 0
M  V30 1425 H 128.123 4.23794 0.132235 0
M  V30 1426 C 126.582 3.16337 1.159 0
M  V30 1427 O 127.112 3.33074 2.24555 0
M  V30 1428 N 125.318 2.70385 1.06491 0
M  V30 1429 H 124.865 2.56966 0.180668 0
M  V30 1430 H 124.823 2.49871 1.90819 0
M  V30 1431 N 128.595 0.856903 1.32268 0
M  V30 1432 C 130.006 0.515711 1.79436 0
M  V30 1433 C 130.357 -0.966586 1.70738 0
M  V30 1434 O 129.482 -1.75409 1.26731 0
M  V30 1435 C 130.077 0.929335 3.25805 0
M  V30 1436 C 128.636 0.640006 3.70919 0
M  V30 1437 C 127.783 1.12784 2.53328 0
M  V30 1438 H 130.734 1.04389 1.19535 0
M  V30 1439 H 130.755 0.246633 3.797 0
M  V30 1440 H 130.267 2.00821 3.32103 0
M  V30 1441 H 128.368 -0.428051 3.70133 0
M  V30 1442 H 128.481 1.20788 4.63624 0
M  V30 1443 H 126.845 0.548033 2.48734 0
M  V30 1444 H 127.628 2.21387 2.62379 0
M  V30 1445 N 130.073 -1.45103 0.615059 0
M  V30 1446 C 131.003 -2.33339 -0.0865619 0
M  V30 1447 C 131.984 -1.4727 -0.851209 0
M  V30 1448 O 133.169 -1.76026 -0.820281 0
M  V30 1449 C 130.299 -3.30095 -1.07956 0
M  V30 1450 C 129.253 -4.25858 -0.427628 0
M  V30 1451 C 128.579 -5.12361 -1.5294 0
M  V30 1452 C 129.879 -5.18165 0.655944 0
M  V30 1453 H 131.573 -2.92254 0.650224 0
M  V30 1454 H 129.119 -1.40532 0.314138 0
M  V30 1455 H 131.072 -3.90698 -1.57901 0
M  V30 1456 H 129.796 -2.69355 -1.84703 0
M  V30 1457 H 128.455 -3.66564 0.0510292 0
M  V30 1458 H 128.103 -4.47984 -2.28734 0
M  V30 1459 H 127.803 -5.77238 -1.09865 0
M  V30 1460 H 129.327 -5.75833 -2.03098 0
M  V30 1461 H 130.741 -5.72796 0.240257 0
M  V30 1462 H 129.138 -5.91559 1.00888 0
M  V30 1463 H 130.208 -4.60144 1.52957 0
M  V30 1464 N 131.551 -0.354651 -1.53558 0
M  V30 1465 C 132.799 0.237972 -2.00694 0
M  V30 1466 C 133.12 1.50173 -1.24391 0
M  V30 1467 O 132.39 1.92673 -0.354135 0
M  V30 1468 H 130.97 0.0909256 -0.741446 0
M  V30 1469 H 133.632 -0.478368 -1.88938 0
M  V30 1470 H 132.728 0.47264 -3.085 0
M  V30 1471 N 133.029 1.57378 -0.0835403 0
M  V30 1472 C 134.254 1.98682 0.594987 0
M  V30 1473 C 134.679 0.961969 1.61641 0
M  V30 1474 O 134.037 -0.0709989 1.81161 0
M  V30 1475 C 134.085 3.38988 1.2296 0
M  V30 1476 O 133.189 3.39208 2.34546 0
M  V30 1477 H 132.53 0.646368 0.152002 0
M  V30 1478 H 135.06 2.03961 -0.161533 0
M  V30 1479 H 135.07 3.76431 1.57366 0
M  V30 1480 H 133.745 4.13107 0.481228 0
M  V30 1481 H 132.322 3.13548 2.01846 0
M  V30 1482 N 134.507 -0.190092 1.56449 0
M  V30 1483 C 135.735 -0.925772 1.85033 0
M  V30 1484 C 136.15 -1.76638 0.666658 0
M  V30 1485 O 135.507 -1.78822 -0.364565 0
M  V30 1486 C 135.558 -1.81786 3.12468 0
M  V30 1487 O 135.279 -1.01118 4.26271 0
M  V30 1488 C 136.78 -2.6648 3.54265 0
M  V30 1489 H 134 -0.269872 0.614337 0
M  V30 1490 H 136.544 -0.195837 2.0356 0
M  V30 1491 H 134.699 -2.50136 2.95822 0
M  V30 1492 H 135.113 -1.61956 4.98869 0
M  V30 1493 H 136.587 -3.24722 4.46385 0
M  V30 1494 H 137.064 -3.40434 2.77491 0
M  V30 1495 H 137.67 -2.03493 3.73458 0
M  V30 1496 N 135.985 -1.50799 -0.457987 0
M  V30 1497 C 136.895 -1.73426 -1.57989 0
M  V30 1498 C 137.911 -0.617745 -1.62665 0
M  V30 1499 O 139.087 -0.897614 -1.80291 0
M  V30 1500 C 136.152 -1.83557 -2.94122 0
M  V30 1501 C 135.213 -3.07345 -2.99729 0
M  V30 1502 C 134.446 -3.16983 -4.29368 0
M  V30 1503 O 134.669 -2.33077 -5.20607 0
M  V30 1504 O 133.603 -4.09812 -4.40837 0
M  V30 1505 H 137.429 -2.68555 -1.41817 0
M  V30 1506 H 135.014 -1.35052 -0.638859 0
M  V30 1507 H 136.896 -1.92326 -3.74952 0
M  V30 1508 H 135.571 -0.916137 -3.10465 0
M  V30 1509 H 134.478 -3.04068 -2.1793 0
M  V30 1510 H 135.811 -3.9891 -2.88326 0
M  V30 1511 N 137.463 0.71206 -1.40597 0
M  V30 1512 C 138.393 1.83889 -1.43899 0
M  V30 1513 C 139.374 1.67442 -0.299504 0
M  V30 1514 O 140.559 1.87421 -0.508624 0
M  V30 1515 C 137.689 3.21877 -1.30431 0
M  V30 1516 C 136.643 3.53002 -2.42019 0
M  V30 1517 C 135.969 4.90172 -2.13626 0
M  V30 1518 C 137.269 3.53643 -3.84362 0
M  V30 1519 H 138.963 1.81383 -2.38203 0
M  V30 1520 H 136.509 0.871237 -1.14654 0
M  V30 1521 H 138.462 4.00404 -1.31357 0
M  V30 1522 H 137.186 3.24968 -0.326049 0
M  V30 1523 H 135.845 2.76818 -2.40349 0
M  V30 1524 H 135.493 4.89869 -1.14182 0
M  V30 1525 H 135.193 5.11962 -2.88389 0
M  V30 1526 H 136.717 5.71028 -2.1624 0
M  V30 1527 H 138.131 4.22203 -3.87837 0
M  V30 1528 H 136.528 3.86961 -4.58673 0
M  V30 1529 H 137.598 2.52954 -4.13693 0
M  V30 1530 N 138.941 1.26152 0.944643 0
M  V30 1531 C 139.851 1.09176 2.07648 0
M  V30 1532 C 140.867 0.0261935 1.7398 0
M  V30 1533 O 142.043 0.229208 2.00091 0
M  V30 1534 C 139.108 0.722915 3.39079 0
M  V30 1535 C 138.169 1.86752 3.86552 0
M  V30 1536 C 137.402 1.51617 5.11711 0
M  V30 1537 O 137.625 0.416331 5.68879 0
M  V30 1538 O 136.559 2.34975 5.54139 0
M  V30 1539 H 140.385 2.0412 2.24875 0
M  V30 1540 H 137.97 1.05182 1.061 0
M  V30 1541 H 139.852 0.529787 4.18056 0
M  V30 1542 H 138.527 -0.197159 3.23099 0
M  V30 1543 H 137.434 2.11558 3.08535 0
M  V30 1544 H 138.767 2.76719 4.07047 0
M  V30 1545 N 140.419 -1.14872 1.07899 0
M  V30 1546 C 141.349 -2.2193 0.725887 0
M  V30 1547 C 142.33 -1.67622 -0.28927 0
M  V30 1548 O 143.515 -1.93533 -0.160787 0
M  V30 1549 C 140.645 -3.47061 0.128856 0
M  V30 1550 C 139.599 -4.14363 1.07178 0
M  V30 1551 C 138.925 -5.33636 0.337229 0
M  V30 1552 C 140.225 -4.63492 2.40775 0
M  V30 1553 H 141.919 -2.51724 1.62097 0
M  V30 1554 H 139.465 -1.20991 0.780838 0
M  V30 1555 H 141.418 -4.21199 -0.130147 0
M  V30 1556 H 140.142 -3.16617 -0.80134 0
M  V30 1557 H 138.801 -3.42173 1.3158 0
M  V30 1558 H 138.449 -4.99449 -0.596606 0
M  V30 1559 H 138.149 -5.79609 0.965788 0
M  V30 1560 H 139.673 -6.10539 0.0861567 0
M  V30 1561 H 141.087 -5.2913 2.20669 0
M  V30 1562 H 139.484 -5.20148 2.99276 0
M  V30 1563 H 140.554 -3.78834 3.02676 0
M  V30 1564 N 141.898 -0.863906 -1.31812 0
M  V30 1565 C 142.846 -0.30422 -2.30602 0
M  V30 1566 C 143.84 0.577419 -1.59255 0
M  V30 1567 O 145.046 0.464194 -1.73912 0
M  V30 1568 H 141.421 -0.0796877 -0.747766 0
M  V30 1569 H 143.392 -1.15148 -2.75288 0
M  V30 1570 C 142.141 0.484617 -3.44306 0
M  V30 1571 H 141.464 -0.18451 -3.99374 0
M  V30 1572 H 142.904 0.841664 -4.15562 0
M  V30 1573 C 141.363 1.6735 -2.92396 0
M  V30 1574 O 141.893 2.77273 -2.90659 0
M  V30 1575 N 140.099 1.50362 -2.48676 0
M  V30 1576 H 139.646 0.609402 -2.50288 0
M  V30 1577 H 139.604 2.30051 -2.14299 0
M  V30 1578 N 143.376 1.44774 -0.622745 0
M  V30 1579 C 144.339 2.29069 0.0774015 0
M  V30 1580 C 145.339 1.4059 0.780461 0
M  V30 1581 O 146.529 1.62551 0.626322 0
M  V30 1582 C 143.661 3.21974 1.12006 0
M  V30 1583 H 144.854 2.92459 -0.663901 0
M  V30 1584 H 142.407 1.51548 -0.382486 0
M  V30 1585 H 143.142 2.63417 1.89162 0
M  V30 1586 H 142.927 3.87168 0.619951 0
M  V30 1587 H 144.417 3.85318 1.60995 0
M  V30 1588 N 144.854 0.36279 1.53368 0
M  V30 1589 C 145.786 -0.519668 2.23231 0
M  V30 1590 C 146.799 -1.04844 1.24546 0
M  V30 1591 O 147.988 -0.955296 1.50786 0
M  V30 1592 C 145.088 -1.72995 2.9142 0
M  V30 1593 C 144.261 -1.33316 4.16588 0
M  V30 1594 C 143.32 -2.40521 4.68013 0
M  V30 1595 O 142.346 -2.03027 5.3176 0
M  V30 1596 N 143.548 -3.72065 4.45587 0
M  V30 1597 H 146.313 0.078751 2.99597 0
M  V30 1598 H 143.874 0.187833 1.60807 0
M  V30 1599 H 145.866 -2.44184 3.22733 0
M  V30 1600 H 144.436 -2.2353 2.18525 0
M  V30 1601 H 143.656 -0.451236 3.91609 0
M  V30 1602 H 144.944 -1.04432 4.97967 0
M  V30 1603 H 144.342 -4.05304 3.94646 0
M  V30 1604 H 142.899 -4.39366 4.81457 0
M  V30 1605 N 146.332 -1.57332 0.0918853 0
M  V30 1606 C 147.743 -1.81496 -0.437739 0
M  V30 1607 C 148.094 -1.00727 -1.6837 0
M  V30 1608 O 147.219 -0.235694 -2.15113 0
M  V30 1609 C 147.814 -3.29197 -0.800939 0
M  V30 1610 C 146.373 -3.54136 -1.27532 0
M  V30 1611 C 145.52 -2.75979 -0.270392 0
M  V30 1612 H 148.471 -1.55494 0.317366 0
M  V30 1613 H 148.492 -3.42344 -1.66074 0
M  V30 1614 H 148.004 -3.87955 0.106078 0
M  V30 1615 H 146.105 -3.00705 -2.20016 0
M  V30 1616 H 146.218 -4.62792 -1.23938 0
M  V30 1617 H 144.582 -2.43349 -0.751872 0
M  V30 1618 H 145.365 -3.37484 0.629248 0
M  V30 1619 N 147.81 0.181792 -1.56548 0
M  V30 1620 C 149.058 0.89832 -1.81038 0
M  V30 1621 C 149.379 1.83232 -0.667164 0
M  V30 1622 O 148.649 1.93372 0.313673 0
M  V30 1623 H 147.229 0.33471 -0.667816 0
M  V30 1624 H 149.891 0.184116 -1.94028 0
M  V30 1625 H 148.987 1.4815 -2.74696 0
M  V30 1626 N 149.288 1.51039 0.449983 0
M  V30 1627 C 150.236 1.71995 1.5659 0
M  V30 1628 C 151.23 0.586029 1.5894 0
M  V30 1629 O 152.436 0.76709 1.62837 0
M  V30 1630 H 148.811 0.543233 0.520001 0
M  V30 1631 H 150.782 2.65562 1.36085 0
M  V30 1632 C 149.531 1.8506 2.9436 0
M  V30 1633 H 148.854 2.71712 2.93279 0
M  V30 1634 H 150.294 2.0374 3.71842 0
M  V30 1635 C 148.753 0.607277 3.31382 0
M  V30 1636 O 149.283 -0.243903 4.00959 0
M  V30 1637 N 147.489 0.455073 2.87015 0
M  V30 1638 H 147.036 1.14879 2.30566 0
M  V30 1639 H 146.994 -0.375611 3.12148 0
M  V30 1640 N 150.766 -0.704594 1.40972 0
M  V30 1641 C 152.012 -1.46675 1.40051 0
M  V30 1642 C 152.345 -1.94199 0.00641102 0
M  V30 1643 O 151.62 -1.68916 -0.964235 0
M  V30 1644 C 151.903 -2.68505 2.39952 0
M  V30 1645 C 151.756 -2.26805 3.88432 0
M  V30 1646 C 153.075 -3.70686 2.37233 0
M  V30 1647 H 150.194 -0.532015 0.510028 0
M  V30 1648 H 152.836 -0.803255 1.72185 0
M  V30 1649 H 150.986 -3.25114 2.1268 0
M  V30 1650 H 152.658 -1.75592 4.26574 0
M  V30 1651 H 150.901 -1.58685 4.03734 0
M  V30 1652 H 151.572 -3.14181 4.53866 0
M  V30 1653 H 154.048 -3.23731 2.61415 0
M  V30 1654 H 152.924 -4.53553 3.09162 0
M  V30 1655 H 153.185 -4.19754 1.38777 0
M  V30 1656 N 152.244 -1.26651 -0.937939 0
M  V30 1657 C 153.176 -1.04283 -2.04102 0
M  V30 1658 C 154.189 -0.00221014 -1.628 0
M  V30 1659 O 155.378 -0.242645 -1.76843 0
M  V30 1660 C 152.478 -0.557846 -3.34277 0
M  V30 1661 C 151.651 -1.66843 -4.04329 0
M  V30 1662 C 150.71 -1.18095 -5.12777 0
M  V30 1663 O 149.736 -1.87865 -5.37304 0
M  V30 1664 N 150.938 -0.0311006 -5.80492 0
M  V30 1665 H 153.703 -1.9927 -2.23856 0
M  V30 1666 H 151.264 -1.1808 -1.10764 0
M  V30 1667 H 153.256 -0.215836 -4.04124 0
M  V30 1668 H 151.826 0.298523 -3.11171 0
M  V30 1669 H 151.046 -2.18123 -3.28353 0
M  V30 1670 H 152.334 -2.41408 -4.47883 0
M  V30 1671 H 151.732 0.551486 -5.63005 0
M  V30 1672 H 150.289 0.251809 -6.51313 0
M  V30 1673 N 153.722 1.14298 -1.08507 0
M  V30 1674 C 154.652 2.21542 -0.737646 0
M  V30 1675 C 155.633 1.67773 0.280377 0
M  V30 1676 O 156.818 1.93616 0.150521 0
M  V30 1677 C 153.948 3.46988 -0.147259 0
M  V30 1678 C 152.902 4.13789 -1.09374 0
M  V30 1679 C 152.228 5.33449 -0.365524 0
M  V30 1680 C 153.528 4.62208 -2.4323 0
M  V30 1681 H 155.222 2.5086 -1.6343 0
M  V30 1682 H 152.768 1.20576 -0.787243 0
M  V30 1683 H 154.721 4.21262 0.107808 0
M  V30 1684 H 153.445 3.17037 0.784538 0
M  V30 1685 H 152.104 3.4147 -1.33393 0
M  V30 1686 H 151.752 4.99759 0.57011 0
M  V30 1687 H 151.452 5.79088 -0.996512 0
M  V30 1688 H 152.976 6.10485 -0.118534 0
M  V30 1689 H 154.39 5.27952 -2.23472 0
M  V30 1690 H 152.787 5.18553 -3.02031 0
M  V30 1691 H 153.857 3.77224 -3.04681 0
M  V30 1692 N 155.201 0.870884 1.31352 0
M  V30 1693 C 156.447 0.482987 1.96965 0
M  V30 1694 C 156.78 -0.962462 1.68672 0
M  V30 1695 O 156.055 -1.6779 0.98371 0
M  V30 1696 C 156.338 0.741752 3.52378 0
M  V30 1697 C 156.191 2.2368 3.9024 0
M  V30 1698 C 157.51 0.208838 4.39604 0
M  V30 1699 H 154.629 0.176955 0.715441 0
M  V30 1700 H 157.271 1.09229 1.55464 0
M  V30 1701 H 155.421 0.223149 3.87859 0
M  V30 1702 H 157.093 2.82273 3.64856 0
M  V30 1703 H 155.336 2.70901 3.38814 0
M  V30 1704 H 156.007 2.3685 4.98604 0
M  V30 1705 H 158.483 0.652529 4.10952 0
M  V30 1706 H 157.359 0.419336 5.47296 0
M  V30 1707 H 157.62 -0.889275 4.33064 0
M  V30 1708 N 156.679 -1.44442 0.630414 0
M  V30 1709 C 157.956 -1.9549 0.0655657 0
M  V30 1710 C 158.336 -1.5724 -1.40851 0
M  V30 1711 O 157.684 -0.846116 -2.12257 0
M  V30 1712 C 157.894 -3.47812 0.287691 0
M  V30 1713 C 159.242 -4.24216 0.180513 0
M  V30 1714 O 160.266 -3.55526 0.219019 0
M  V30 1715 O 159.125 -5.46434 0.0848493 0
M  V30 1716 H 156.219 -0.826688 -0.0227177 0
M  V30 1717 H 158.765 -1.54496 0.702068 0
M  V30 1718 H 157.537 -3.687 1.31056 0
M  V30 1719 H 157.16 -3.95751 -0.382984 0
M  V30 1720 N 158.157 -0.370918 -1.53173 0
M  V30 1721 C 159.105 0.488101 -2.27421 0
M  V30 1722 C 160.099 1.07884 -1.30604 0
M  V30 1723 O 161.305 1.02143 -1.48212 0
M  V30 1724 H 157.68 0.176134 -0.731082 0
M  V30 1725 H 159.651 -0.159815 -2.97972 0
M  V30 1726 C 158.4 1.61306 -3.08019 0
M  V30 1727 H 157.723 1.1678 -3.82364 0
M  V30 1728 H 159.163 2.18872 -3.63141 0
M  V30 1729 C 157.622 2.55848 -2.19188 0
M  V30 1730 O 158.152 3.58799 -1.80626 0
M  V30 1731 N 156.358 2.2516 -1.83715 0
M  V30 1732 H 155.905 1.41476 -2.15273 0
M  V30 1733 H 155.863 2.8867 -1.24567 0
M  V30 1734 N 159.635 1.57281 -0.100228 0
M  V30 1735 C 160.582 2.14305 0.856858 0
M  V30 1736 C 161.552 1.06296 1.27634 0
M  V30 1737 O 162.737 1.34109 1.35718 0
M  V30 1738 C 159.877 2.73184 2.10866 0
M  V30 1739 C 158.99 3.95442 1.73925 0
M  V30 1740 C 158.125 4.42468 2.93931 0
M  V30 1741 C 157.164 5.57303 2.5314 0
M  V30 1742 N 156.301 5.99158 3.65997 0
M  V30 1743 H 161.141 2.95772 0.363726 0
M  V30 1744 H 158.678 1.46139 0.167858 0
M  V30 1745 H 160.636 3.05442 2.84185 0
M  V30 1746 H 159.266 1.94437 2.57671 0
M  V30 1747 H 158.318 3.69464 0.905554 0
M  V30 1748 H 159.63 4.78769 1.39935 0
M  V30 1749 H 158.784 4.76537 3.75496 0
M  V30 1750 H 157.523 3.58052 3.31134 0
M  V30 1751 H 156.528 5.22857 1.70003 0
M  V30 1752 H 157.753 6.43471 2.17075 0
M  V30 1753 H 155.699 5.17687 4.02909 0
M  V30 1754 H 155.616 6.77295 3.35869 0
M  V30 1755 H 156.884 6.3786 4.48057 0
M  V30 1756 N 161.113 -0.173488 1.56642 0
M  V30 1757 C 162.361 -0.888706 1.81512 0
M  V30 1758 C 162.682 -1.82875 0.676872 0
M  V30 1759 O 161.952 -1.93536 -0.303414 0
M  V30 1760 H 160.532 -0.331164 0.669582 0
M  V30 1761 H 163.194 -0.173823 1.94123 0
M  V30 1762 H 162.29 -1.46691 2.75478 0
M  V30 1763 N 162.591 -1.51276 -0.441967 0
M  V30 1764 C 163.523 -1.68444 -1.55433 0
M  V30 1765 C 164.536 -0.565187 -1.52674 0
M  V30 1766 O 165.725 -0.839356 -1.57534 0
M  V30 1767 C 162.825 -1.67966 -2.94348 0
M  V30 1768 C 161.998 -2.964 -3.21661 0
M  V30 1769 C 161.057 -2.88171 -4.40277 0
M  V30 1770 O 160.083 -3.62119 -4.39157 0
M  V30 1771 N 161.285 -2.03706 -5.43584 0
M  V30 1772 H 164.05 -2.644 -1.41112 0
M  V30 1773 H 161.611 -1.49104 -0.630838 0
M  V30 1774 H 163.603 -1.60035 -3.71713 0
M  V30 1775 H 162.173 -0.796225 -3.0229 0
M  V30 1776 H 161.393 -3.18234 -2.32638 0
M  V30 1777 H 162.681 -3.81427 -3.36736 0
M  V30 1778 H 162.079 -1.42995 -5.47329 0
M  V30 1779 H 160.636 -2.01658 -6.1982 0
M  V30 1780 N 164.069 0.697108 -1.41344 0
M  V30 1781 C 165.485 1.00751 -1.2378 0
M  V30 1782 C 165.685 2.01105 -0.126066 0
M  V30 1783 O 164.741 2.47295 0.51004 0
M  V30 1784 C 166.054 1.53359 -2.58653 0
M  V30 1785 C 167.602 1.6525 -2.65822 0
M  V30 1786 C 168.077 2.2126 -4.01009 0
M  V30 1787 N 169.568 2.28622 -4.02847 0
M  V30 1788 C 170.303 2.72984 -5.04249 0
M  V30 1789 N 169.799 3.16962 -6.16041 0
M  V30 1790 N 171.592 2.72534 -4.91611 0
M  V30 1791 H 163.743 0.0322662 -2.12375 0
M  V30 1792 H 166.006 0.0768853 -0.944877 0
M  V30 1793 H 165.712 0.870773 -3.4075 0
M  V30 1794 H 165.586 2.51597 -2.81032 0
M  V30 1795 H 167.973 2.30644 -1.84086 0
M  V30 1796 H 168.054 0.655614 -2.47256 0
M  V30 1797 H 167.698 1.56482 -4.83193 0
M  V30 1798 H 167.628 3.21698 -4.16915 0
M  V30 1799 H 170.119 1.97585 -3.22131 0
M  V30 1800 H 170.432 3.49434 -6.89287 0
M  V30 1801 H 168.777 3.14875 -6.1958 0
M  V30 1802 H 171.968 2.37525 -4.0336 0
M  V30 1803 H 172.141 3.06789 -5.70775 0
M  V30 1804 N 165.547 1.27147 0.931209 0
M  V30 1805 C 166.777 1.15914 1.71019 0
M  V30 1806 C 167.185 -0.287112 1.87009 0
M  V30 1807 O 166.528 -1.20761 1.38429 0
M  V30 1808 C 166.59 1.76647 3.13107 0
M  V30 1809 C 166.254 3.25807 3.20467 0
M  V30 1810 C 167.251 4.22489 3.02983 0
M  V30 1811 C 164.936 3.66452 3.43538 0
M  V30 1812 C 166.93 5.57794 3.08454 0
M  V30 1813 C 164.617 5.01888 3.48643 0
M  V30 1814 C 165.615 5.97369 3.31119 0
M  V30 1815 O 165.303 7.30337 3.35952 0
M  V30 1816 H 165.035 0.404062 0.54195 0
M  V30 1817 H 167.589 1.68457 1.17521 0
M  V30 1818 H 165.819 1.18578 3.68071 0
M  V30 1819 H 167.508 1.60179 3.72958 0
M  V30 1820 H 168.274 3.92425 2.85004 0
M  V30 1821 H 164.153 2.92611 3.5623 0
M  V30 1822 H 167.697 6.32298 2.94694 0
M  V30 1823 H 163.594 5.31609 3.66145 0
M  V30 1824 H 164.362 7.38739 3.5243 0
M  V30 1825 N 167.025 -1.13721 1.09112 0
M  V30 1826 C 168.253 -1.88773 0.846899 0
M  V30 1827 C 168.668 -1.7896 -0.601572 0
M  V30 1828 O 168.025 -1.15394 -1.41388 0
M  V30 1829 C 168.076 -3.3849 1.26913 0
M  V30 1830 O 167.797 -3.48043 2.66079 0
M  V30 1831 C 169.298 -4.30518 1.05682 0
M  V30 1832 H 166.518 -0.59772 0.304914 0
M  V30 1833 H 169.062 -1.43977 1.45227 0
M  V30 1834 H 167.217 -3.80881 0.707723 0
M  V30 1835 H 167.631 -4.4109 2.83795 0
M  V30 1836 H 169.105 -5.3391 1.40156 0
M  V30 1837 H 169.582 -4.392 -0.00563416 0
M  V30 1838 H 170.188 -3.93893 1.60402 0
M  V30 1839 N 168.503 -0.877838 -1.30888 0
M  V30 1840 C 169.466 -0.344265 -2.266 0
M  V30 1841 C 170.466 0.50922 -1.52524 0
M  V30 1842 O 171.656 0.317398 -1.71284 0
M  V30 1843 C 168.788 0.510198 -3.37061 0
M  V30 1844 H 169.981 -1.1893 -2.7531 0
M  V30 1845 H 167.534 -0.654088 -1.41956 0
M  V30 1846 H 168.269 1.37612 -2.93655 0
M  V30 1847 H 168.054 -0.101047 -3.9197 0
M  V30 1848 H 169.544 0.875537 -4.08319 0
M  V30 1849 N 169.982 1.44106 -0.638065 0
M  V30 1850 C 171.259 1.95453 -0.0759321 0
M  V30 1851 C 171.639 1.57984 1.40015 0
M  V30 1852 O 170.987 0.857361 2.11806 0
M  V30 1853 C 171.197 3.47655 -0.306132 0
M  V30 1854 C 172.545 4.24114 -0.203008 0
M  V30 1855 O 173.569 3.55405 -0.237871 0
M  V30 1856 O 172.428 5.46381 -0.113827 0
M  V30 1857 H 169.522 0.826797 0.0183332 0
M  V30 1858 H 172.068 1.54122 -0.710251 0
M  V30 1859 H 170.84 3.68 -1.3301 0
M  V30 1860 H 170.463 3.95949 0.361991 0
M  V30 1861 N 171.46 0.379036 1.52974 0
M  V30 1862 C 172.737 -0.263479 1.93817 0
M  V30 1863 C 173.117 -1.65244 1.31368 0
M  V30 1864 O 172.465 -2.23448 0.477856 0
M  V30 1865 C 172.675 -0.300166 3.47707 0
M  V30 1866 C 174.023 -0.534061 4.21228 0
M  V30 1867 O 175.047 -0.38081 3.54159 0
M  V30 1868 O 173.906 -0.833501 5.40106 0
M  V30 1869 H 171 -0.161149 0.811147 0
M  V30 1870 H 173.546 0.432798 1.64088 0
M  V30 1871 H 172.318 0.673138 3.85467 0
M  V30 1872 H 171.941 -1.04179 3.83709 0
M  V30 1873 N 172.938 -1.57226 0.108567 0
M  V30 1874 C 173.901 -2.13602 -0.831082 0
M  V30 1875 C 174.901 -1.06841 -1.20173 0
M  V30 1876 O 176.091 -1.32666 -1.12895 0
M  V30 1877 C 173.223 -2.66769 -2.12243 0
M  V30 1878 H 174.416 -2.97951 -0.341317 0
M  V30 1879 H 171.969 -1.55667 -0.14057 0
M  V30 1880 H 172.704 -1.85977 -2.65675 0
M  V30 1881 H 172.489 -3.44839 -1.86625 0
M  V30 1882 H 173.979 -3.10332 -2.79435 0
M  V30 1883 N 174.416 0.165178 -1.56732 0
M  V30 1884 C 175.326 1.22423 -2.00125 0
M  V30 1885 C 176.342 1.48084 -0.913619 0
M  V30 1886 O 177.518 1.60112 -1.22172 0
M  V30 1887 C 174.583 2.54197 -2.35764 0
M  V30 1888 C 173.644 2.36343 -3.58386 0
M  V30 1889 C 172.877 3.61834 -3.92316 0
M  V30 1890 O 173.1 4.67267 -3.27135 0
M  V30 1891 O 172.034 3.55579 -4.85641 0
M  V30 1892 H 175.86 0.885886 -2.90492 0
M  V30 1893 H 173.445 0.372518 -1.44681 0
M  V30 1894 H 175.327 3.3192 -2.59629 0
M  V30 1895 H 174.002 2.87598 -1.48557 0
M  V30 1896 H 172.909 1.56632 -3.39731 0
M  V30 1897 H 174.242 2.07865 -4.46154 0
M  V30 1898 N 175.894 1.51508 0.433938 0
M  V30 1899 C 176.804 1.75917 1.5521 0
M  V30 1900 C 177.82 0.643545 1.61662 0
M  V30 1901 O 178.996 0.926183 1.7884 0
M  V30 1902 C 176.061 1.88213 2.91164 0
M  V30 1903 C 175.122 3.12074 2.94802 0
M  V30 1904 C 174.355 3.23774 4.24271 0
M  V30 1905 O 174.578 2.4133 5.16833 0
M  V30 1906 O 173.512 4.16774 4.34262 0
M  V30 1907 H 177.338 2.70777 1.37527 0
M  V30 1908 H 174.923 1.36051 0.617293 0
M  V30 1909 H 176.805 1.98267 3.71845 0
M  V30 1910 H 175.48 0.965413 3.08968 0
M  V30 1911 H 174.387 3.07497 2.13065 0
M  V30 1912 H 175.72 4.03446 2.81943 0
M  V30 1913 N 177.372 -0.689602 1.41712 0
M  V30 1914 C 178.305 -1.81403 1.3845 0
M  V30 1915 C 179.283 -1.60653 0.250874 0
M  V30 1916 O 180.467 -1.83323 0.43874 0
M  V30 1917 C 177.594 -3.18176 1.1611 0
M  V30 1918 C 176.64 -3.57705 2.3227 0
M  V30 1919 S 177.473 -3.61827 3.94767 0
M  V30 1920 C 178.629 -5.01318 3.74742 0
M  V30 1921 H 178.862 -1.83893 2.33603 0
M  V30 1922 H 176.395 -0.858878 1.28307 0
M  V30 1923 H 178.353 -3.97132 1.03907 0
M  V30 1924 H 177.014 -3.13288 0.225668 0
M  V30 1925 H 176.207 -4.57082 2.12349 0
M  V30 1926 H 175.809 -2.86073 2.40911 0
M  V30 1927 H 178.101 -5.88986 3.34817 0
M  V30 1928 H 179.044 -5.26283 4.73743 0
M  V30 1929 H 179.452 -4.73138 3.07898 0
M  V30 1930 N 178.85 -1.27639 -0.924453 0
M  V30 1931 C 180.099 -1.13549 -1.66702 0
M  V30 1932 C 180.412 0.317487 -1.93006 0
M  V30 1933 O 181.618 0.579333 -2.65247 0
M  V30 1934 C 180.074 -1.98426 -3.00259 0
M  V30 1935 C 179.682 -3.484 -2.81641 0
M  V30 1936 C 181.426 -1.92993 -3.78092 0
M  V30 1937 C 179.333 -4.25464 -4.10773 0
M  V30 1938 H 178.263 -0.421351 -0.625283 0
M  V30 1939 H 180.914 -1.52085 -1.02676 0
M  V30 1940 H 179.296 -1.52736 -3.6536 0
M  V30 1941 H 180.47 -4.01973 -2.25287 0
M  V30 1942 H 178.785 -3.55245 -2.17232 0
M  V30 1943 H 181.382 -2.47844 -4.7379 0
M  V30 1944 H 181.725 -0.904281 -4.0636 0
M  V30 1945 H 182.258 -2.36595 -3.19793 0
M  V30 1946 H 178.997 -5.28566 -3.87683 0
M  V30 1947 H 178.517 -3.76667 -4.66779 0
M  V30 1948 H 180.196 -4.34812 -4.79111 0
M  V30 1949 N 180.328 1.1314 -1.09713 0
M  V30 1950 C 181.576 1.84119 -0.833338 0
M  V30 1951 C 181.897 1.84097 0.642904 0
M  V30 1952 O 181.167 1.29881 1.46655 0
M  V30 1953 H 179.747 0.681766 -0.305293 0
M  V30 1954 H 182.409 1.37038 -1.38588 0
M  V30 1955 H 181.505 2.88543 -1.18951 0
M  V30 1956 N 181.806 0.884767 1.30421 0
M  V30 1957 C 182.753 0.349642 2.28136 0
M  V30 1958 C 183.723 -0.560061 1.56373 0
M  V30 1959 O 184.908 -0.488524 1.8444 0
M  V30 1960 C 182.048 -0.42999 3.42411 0
M  V30 1961 C 181.161 0.508907 4.28992 0
M  V30 1962 C 180.296 -0.286301 5.30428 0
M  V30 1963 C 179.335 0.648079 6.08659 0
M  V30 1964 N 178.472 -0.111792 7.02011 0
M  V30 1965 H 183.312 1.18807 2.73293 0
M  V30 1966 H 180.849 0.597231 1.3443 0
M  V30 1967 H 182.807 -0.897923 4.07423 0
M  V30 1968 H 181.437 -1.23299 2.98324 0
M  V30 1969 H 180.489 1.09533 3.64289 0
M  V30 1970 H 181.801 1.22475 4.8353 0
M  V30 1971 H 180.955 -0.816098 6.01186 0
M  V30 1972 H 179.694 -1.03536 4.76583 0
M  V30 1973 H 178.699 1.18951 5.36778 0
M  V30 1974 H 179.924 1.39623 6.64592 0
M  V30 1975 H 177.87 -0.843395 6.50556 0
M  V30 1976 H 177.787 0.544429 7.54037 0
M  V30 1977 H 179.055 -0.622339 7.77012 0
M  V30 1978 N 183.284 -1.43765 0.645699 0
M  V30 1979 C 184.214 -2.33471 -0.0370477 0
M  V30 1980 C 185.195 -1.49042 -0.819779 0
M  V30 1981 O 186.38 -1.77726 -0.782758 0
M  V30 1982 C 183.51 -3.32311 -1.0093 0
M  V30 1983 C 182.464 -4.2667 -0.337201 0
M  V30 1984 C 181.79 -5.1549 -1.42037 0
M  V30 1985 C 183.09 -5.16657 0.765706 0
M  V30 1986 H 184.784 -2.90809 0.712069 0
M  V30 1987 H 182.33 -1.39834 0.343876 0
M  V30 1988 H 184.283 -3.9396 -1.49578 0
M  V30 1989 H 183.007 -2.73213 -1.78948 0
M  V30 1990 H 181.666 -3.66374 0.128771 0
M  V30 1991 H 181.314 -4.52735 -2.1918 0
M  V30 1992 H 181.014 -5.79438 -0.975966 0
M  V30 1993 H 182.538 -5.80012 -1.90838 0
M  V30 1994 H 183.952 -5.72158 0.361702 0
M  V30 1995 H 182.349 -5.89286 1.13413 0
M  V30 1996 H 183.419 -4.56796 1.62683 0
M  V30 1997 N 184.763 -0.387143 -1.52771 0
M  V30 1998 C 185.991 0.195869 -2.05971 0
M  V30 1999 C 186.406 1.40691 -1.25903 0
M  V30 2000 O 185.763 1.79931 -0.305134 0
M  V30 2001 C 185.814 0.56812 -3.57008 0
M  V30 2002 O 185.535 -0.594803 -4.34043 0
M  V30 2003 C 187.036 1.20723 -4.26545 0
M  V30 2004 H 184.256 0.0300578 -0.670326 0
M  V30 2005 H 186.8 -0.551749 -1.96916 0
M  V30 2006 H 184.955 1.26564 -3.66143 0
M  V30 2007 H 185.369 -0.289322 -5.23701 0
M  V30 2008 H 186.843 1.41807 -5.33474 0
M  V30 2009 H 187.32 2.17395 -3.81623 0
M  V30 2010 H 187.926 0.550535 -4.21722 0
M  V30 2011 N 186.241 1.57166 -0.116904 0
M  V30 2012 C 187.489 1.94737 0.540533 0
M  V30 2013 C 187.81 1.00096 1.67349 0
M  V30 2014 O 187.08 0.0568854 1.95817 0
M  V30 2015 H 185.66 0.718981 0.202669 0
M  V30 2016 H 188.322 1.94017 -0.185353 0
M  V30 2017 H 187.418 2.97719 0.936483 0
M  V30 2018 N 187.719 -0.156864 1.56817 0
M  V30 2019 C 188.652 -1.22316 1.9265 0
M  V30 2020 C 189.63 -1.42059 0.791076 0
M  V30 2021 O 190.814 -1.56831 1.04576 0
M  V30 2022 C 187.941 -2.58375 2.18998 0
M  V30 2023 C 186.987 -2.55284 3.41661 0
M  V30 2024 S 187.82 -2.02946 4.95553 0
M  V30 2025 C 188.976 -3.40753 5.25013 0
M  V30 2026 H 189.209 -0.917403 2.82791 0
M  V30 2027 H 186.742 -0.362059 1.50095 0
M  V30 2028 H 188.7 -3.36677 2.34859 0
M  V30 2029 H 187.361 -2.86145 1.29538 0
M  V30 2030 H 186.554 -3.55418 3.57343 0
M  V30 2031 H 186.156 -1.85086 3.24991 0
M  V30 2032 H 188.448 -4.36819 5.17876 0
M  V30 2033 H 189.391 -3.29933 6.26538 0
M  V30 2034 H 189.799 -3.37433 4.52548 0
M  V30 2035 N 189.197 -1.51736 -0.425897 0
M  V30 2036 C 190.608 -1.5732 -1.00536 0
M  V30 2037 C 190.959 -0.403537 -1.92005 0
M  V30 2038 O 190.084 0.478256 -2.11049 0
M  V30 2039 C 190.679 -2.85119 -1.8301 0
M  V30 2040 C 189.238 -2.93236 -2.35987 0
M  V30 2041 C 188.385 -2.52098 -1.15508 0
M  V30 2042 H 191.336 -1.57348 -0.206739 0
M  V30 2043 H 191.357 -2.69526 -2.68581 0
M  V30 2044 H 190.869 -3.7023 -1.16411 0
M  V30 2045 H 188.97 -2.12581 -3.06007 0
M  V30 2046 H 189.083 -3.9713 -2.68001 0
M  V30 2047 H 187.447 -2.05558 -1.50393 0
M  V30 2048 H 188.23 -3.39565 -0.505014 0
M  V30 2049 N 190.675 0.682077 -1.42076 0
M  V30 2050 C 191.924 1.43786 -1.41451 0
M  V30 2051 C 192.237 1.95574 -0.0317074 0
M  V30 2052 O 193.443 2.71326 0.0971462 0
M  V30 2053 C 191.899 2.60071 -2.48779 0
M  V30 2054 C 191.507 2.15013 -3.93031 0
M  V30 2055 C 193.251 3.37626 -2.57311 0
M  V30 2056 C 191.158 3.28336 -4.91883 0
M  V30 2057 H 190.088 0.540143 -0.526082 0
M  V30 2058 H 192.739 0.739157 -1.67955 0
M  V30 2059 H 191.121 3.32275 -2.15429 0
M  V30 2060 H 192.295 1.5001 -4.35699 0
M  V30 2061 H 190.61 1.50416 -3.88284 0
M  V30 2062 H 193.207 4.22012 -3.28345 0
M  V30 2063 H 193.55 3.83727 -1.61429 0
M  V30 2064 H 194.083 2.72488 -2.89819 0
M  V30 2065 H 190.822 2.87234 -5.89217 0
M  V30 2066 H 190.342 3.92145 -4.53853 0
M  V30 2067 H 192.021 3.93913 -5.13265 0
M  V30 2068 N 192.153 1.28127 0.917671 0
M  V30 2069 C 193.564 1.13622 1.48145 0
M  V30 2070 C 193.915 -0.275207 1.9426 0
M  V30 2071 O 193.04 -1.1691 1.82102 0
M  V30 2072 C 193.635 2.05648 2.69248 0
M  V30 2073 C 192.194 1.95219 3.21818 0
M  V30 2074 C 191.341 1.97618 1.94532 0
M  V30 2075 H 194.292 1.40874 0.730772 0
M  V30 2076 H 194.313 1.61818 3.44377 0
M  V30 2077 H 193.825 3.08365 2.35653 0
M  V30 2078 H 191.926 0.955244 3.60147 0
M  V30 2079 H 192.039 2.81976 3.87333 0
M  V30 2080 H 190.403 1.41973 2.11461 0
M  V30 2081 H 191.186 3.02007 1.63238 0
M  V30 2082 N 193.631 -1.12557 1.10312 0
M  V30 2083 C 194.561 -2.20341 0.772798 0
M  V30 2084 C 195.542 -1.68198 -0.25365 0
M  V30 2085 O 196.727 -1.93831 -0.119699 0
M  V30 2086 C 193.857 -3.46709 0.202443 0
M  V30 2087 C 192.811 -4.11996 1.15943 0
M  V30 2088 C 192.137 -5.328 0.450345 0
M  V30 2089 C 193.437 -4.5828 2.50552 0
M  V30 2090 H 195.131 -2.48229 1.674 0
M  V30 2091 H 192.677 -1.19308 0.806326 0
M  V30 2092 H 194.63 -4.2138 -0.0407752 0
M  V30 2093 H 193.354 -3.18245 -0.734001 0
M  V30 2094 H 192.013 -3.39305 1.38808 0
M  V30 2095 H 191.661 -5.00602 -0.490531 0
M  V30 2096 H 191.361 -5.7743 1.08851 0
M  V30 2097 H 192.885 -6.10219 0.215642 0
M  V30 2098 H 194.299 -5.2433 2.31843 0
M  V30 2099 H 192.696 -5.13683 3.10242 0
M  V30 2100 H 193.766 -3.72329 3.10643 0
M  V30 2101 N 195.109 -0.891671 -1.2995 0
M  V30 2102 C 196.057 -0.353066 -2.29905 0
M  V30 2103 C 197.051 0.543509 -1.60444 0
M  V30 2104 O 198.257 0.4272 -1.74857 0
M  V30 2105 H 194.632 -0.095531 -0.745907 0
M  V30 2106 H 196.603 -1.20961 -2.72784 0
M  V30 2107 C 195.352 0.411475 -3.45257 0
M  V30 2108 H 194.675 -0.269182 -3.98893 0
M  V30 2109 H 196.115 0.753328 -4.17254 0
M  V30 2110 C 194.574 1.6111 -2.9588 0
M  V30 2111 O 195.104 2.71045 -2.96475 0
M  V30 2112 N 193.31 1.45054 -2.51809 0
M  V30 2113 H 192.857 0.556175 -2.51524 0
M  V30 2114 H 192.815 2.25453 -2.1913 0
M  V30 2115 N 196.587 1.43421 -0.653314 0
M  V30 2116 C 197.812 2.06678 -0.172846 0
M  V30 2117 C 198.237 1.48648 1.15262 0
M  V30 2118 O 197.595 0.596457 1.71208 0
M  V30 2119 C 197.643 3.60474 -0.0953184 0
M  V30 2120 O 196.747 4.01487 0.942442 0
M  V30 2121 H 196.088 0.657181 -0.0949155 0
M  V30 2122 H 198.618 1.83925 -0.896265 0
M  V30 2123 H 198.628 4.07905 0.0879728 0
M  V30 2124 H 197.303 4.02088 -1.06291 0
M  V30 2125 H 195.88 3.65646 0.731932 0
M  V30 2126 N 198.065 0.39524 1.52563 0
M  V30 2127 C 198.995 -0.428384 2.29537 0
M  V30 2128 C 199.976 -1.05831 1.33169 0
M  V30 2129 O 201.161 -1.06995 1.62067 0
M  V30 2130 C 198.291 -1.55274 3.10656 0
M  V30 2131 C 197.245 -1.04855 4.14957 0
M  V30 2132 C 196.571 -2.26543 4.84337 0
M  V30 2133 C 197.871 -0.112324 5.22179 0
M  V30 2134 H 199.565 0.213867 2.98635 0
M  V30 2135 H 197.111 0.104298 1.43622 0
M  V30 2136 H 199.064 -2.1358 3.63265 0
M  V30 2137 H 197.788 -2.22266 2.39302 0
M  V30 2138 H 196.447 -0.487985 3.63338 0
M  V30 2139 H 196.095 -2.92059 4.09525 0
M  V30 2140 H 195.795 -1.93466 5.54837 0
M  V30 2141 H 197.319 -2.85481 5.39753 0
M  V30 2142 H 198.733 -0.603752 5.70112 0
M  V30 2143 H 197.13 0.128968 5.99961 0
M  V30 2144 H 198.2 0.837052 4.77621 0
M  V30 2145 N 199.544 -1.57102 0.125237 0
M  V30 2146 C 200.96 -1.57915 -0.231322 0
M  V30 2147 C 201.16 -1.13833 -1.66266 0
M  V30 2148 O 200.216 -0.828581 -2.38518 0
M  V30 2149 C 201.529 -3.00699 0.00766489 0
M  V30 2150 C 203.077 -3.12947 -0.0577483 0
M  V30 2151 C 203.552 -4.57742 0.153626 0
M  V30 2152 N 205.043 -4.63092 0.0998073 0
M  V30 2153 C 205.778 -5.72905 0.238174 0
M  V30 2154 N 205.274 -6.91445 0.433057 0
M  V30 2155 N 207.067 -5.6182 0.177308 0
M  V30 2156 H 199.218 -1.84055 1.06007 0
M  V30 2157 H 201.481 -0.850905 0.417929 0
M  V30 2158 H 201.187 -3.3726 0.997431 0
M  V30 2159 H 201.061 -3.70236 -0.721452 0
M  V30 2160 H 203.448 -2.7624 -1.03804 0
M  V30 2161 H 203.529 -2.4594 0.70335 0
M  V30 2162 H 203.173 -4.95149 1.13092 0
M  V30 2163 H 203.103 -5.22848 -0.627534 0
M  V30 2164 H 205.594 -3.77871 -0.047051 0
M  V30 2165 H 205.907 -7.70985 0.529332 0
M  V30 2166 H 204.252 -6.93415 0.469109 0
M  V30 2167 H 207.443 -4.68093 0.0259748 0
M  V30 2168 H 207.616 -6.47357 0.288582 0
M  V30 2169 N 201.022 0.148545 -1.56898 0
M  V30 2170 C 201.954 1.20852 -1.9475 0
M  V30 2171 C 202.967 1.39265 -0.843152 0
M  V30 2172 O 204.156 1.38864 -1.12156 0
M  V30 2173 C 201.256 2.57362 -2.20495 0
M  V30 2174 C 200.429 2.59947 -3.51776 0
M  V30 2175 C 199.488 3.77984 -3.6608 0
M  V30 2176 O 198.514 3.62929 -4.38487 0
M  V30 2177 N 199.716 4.95375 -3.02629 0
M  V30 2178 H 202.481 0.886804 -2.86279 0
M  V30 2179 H 200.042 0.338121 -1.5833 0
M  V30 2180 H 202.034 3.34833 -2.27307 0
M  V30 2181 H 200.604 2.81832 -1.35238 0
M  V30 2182 H 199.824 1.68403 -3.56419 0
M  V30 2183 H 201.112 2.58704 -4.38121 0
M  V30 2184 H 200.51 5.10509 -2.43715 0
M  V30 2185 H 199.067 5.70627 -3.15004 0
M  V30 2186 N 202.5 1.5196 0.417844 0
M  V30 2187 C 203.746 1.66793 1.16411 0
M  V30 2188 C 204.101 0.388758 1.88432 0
M  V30 2189 O 203.394 -0.616409 1.81414 0
M  V30 2190 C 203.588 2.82269 2.19223 0
M  V30 2191 C 203.417 4.21293 1.57297 0
M  V30 2192 C 202.187 4.86948 1.34944 0
M  V30 2193 C 204.385 5.03704 1.03858 0
M  V30 2194 N 202.367 6.1003 0.688195 0
M  V30 2195 C 203.738 6.1795 0.503742 0
M  V30 2196 C 205.793 4.89095 0.932203 0
M  V30 2197 C 204.496 7.19188 -0.127034 0
M  V30 2198 C 206.522 5.90559 0.315293 0
M  V30 2199 C 205.884 7.0409 -0.208906 0
M  V30 2200 H 201.983 0.66407 0.412959 0
M  V30 2201 H 204.567 1.89242 0.457772 0
M  V30 2202 H 202.738 2.61451 2.87225 0
M  V30 2203 H 204.47 2.86183 2.86149 0
M  V30 2204 H 201.225 4.45156 1.61657 0
M  V30 2205 H 201.649 6.75964 0.374449 0
M  V30 2206 H 206.291 4.01557 1.32332 0
M  V30 2207 H 204.009 8.06359 -0.530231 0
M  V30 2208 H 207.595 5.81327 0.234625 0
M  V30 2209 H 206.475 7.81257 -0.67875 0
M  V30 2210 N 203.978 -0.674533 1.42435 0
M  V30 2211 C 205.227 -1.43034 1.42212 0
M  V30 2212 C 205.54 -1.95555 0.0420788 0
M  V30 2213 O 206.746 -2.71374 -0.0827558 0
M  V30 2214 C 205.202 -2.58748 2.50155 0
M  V30 2215 C 204.81 -2.12925 3.94166 0
M  V30 2216 C 206.554 -3.36257 2.59098 0
M  V30 2217 C 204.461 -3.25723 4.93618 0
M  V30 2218 H 203.391 -0.537345 0.528939 0
M  V30 2219 H 206.042 -0.73024 1.68344 0
M  V30 2220 H 204.424 -3.31128 2.17188 0
M  V30 2221 H 205.598 -1.47697 4.36488 0
M  V30 2222 H 203.913 -1.48354 3.89076 0
M  V30 2223 H 206.51 -4.20264 3.30578 0
M  V30 2224 H 206.853 -3.82866 1.63461 0
M  V30 2225 H 207.386 -2.70947 2.9126 0
M  V30 2226 H 204.125 -2.84105 5.90732 0
M  V30 2227 H 203.645 -3.89732 4.55926 0
M  V30 2228 H 205.324 -3.91186 5.15347 0
M  V30 2229 N 205.456 -1.28612 -0.910864 0
M  V30 2230 C 206.386 -1.15326 -2.03032 0
M  V30 2231 C 207.367 -0.0502924 -1.70026 0
M  V30 2232 O 208.552 -0.227797 -1.92859 0
M  V30 2233 C 205.682 -0.817343 -3.37545 0
M  V30 2234 C 204.636 -1.8754 -3.84724 0
M  V30 2235 C 203.962 -1.39305 -5.16235 0
M  V30 2236 C 205.262 -3.28244 -4.06267 0
M  V30 2237 H 206.956 -2.08975 -2.14406 0
M  V30 2238 H 204.502 -1.00612 -1.03021 0
M  V30 2239 H 206.455 -0.711151 -4.15356 0
M  V30 2240 H 205.179 0.154846 -3.26233 0
M  V30 2241 H 203.838 -1.97079 -3.09121 0
M  V30 2242 H 203.486 -0.409846 -5.01328 0
M  V30 2243 H 203.186 -2.10057 -5.48771 0
M  V30 2244 H 204.71 -1.30014 -5.96598 0
M  V30 2245 H 206.124 -3.21611 -4.74594 0
M  V30 2246 H 204.521 -3.96855 -4.5014 0
M  V30 2247 H 205.591 -3.72048 -3.10979 0
M  V30 2248 N 206.934 1.1197 -1.10907 0
M  V30 2249 C 208.182 1.83225 -0.852819 0
M  V30 2250 C 208.503 1.84769 0.623341 0
M  V30 2251 O 207.773 1.3143 1.45269 0
M  V30 2252 H 206.353 0.67849 -0.312507 0
M  V30 2253 H 209.015 1.3556 -1.40033 0
M  V30 2254 H 208.111 2.87265 -1.22005 0
M  V30 2255 N 208.412 0.89855 1.29475 0
M  V30 2256 C 209.342 0.39201 2.30186 0
M  V30 2257 C 210.323 -0.532359 1.61555 0
M  V30 2258 O 211.508 -0.443331 1.89072 0
M  V30 2259 C 208.638 -0.382353 3.45189 0
M  V30 2260 C 207.592 0.451483 4.25612 0
M  V30 2261 C 206.918 -0.450307 5.328 0
M  V30 2262 C 208.218 1.70079 4.93832 0
M  V30 2263 H 209.912 1.23362 2.72804 0
M  V30 2264 H 207.458 0.594638 1.31149 0
M  V30 2265 H 209.411 -0.747451 4.14718 0
M  V30 2266 H 208.135 -1.25774 3.01411 0
M  V30 2267 H 206.794 0.798897 3.57789 0
M  V30 2268 H 206.442 -1.32379 4.85268 0
M  V30 2269 H 206.142 0.103902 5.87508 0
M  V30 2270 H 207.666 -0.811623 6.05182 0
M  V30 2271 H 209.08 1.40549 5.55805 0
M  V30 2272 H 207.477 2.19623 5.58467 0
M  V30 2273 H 208.547 2.43744 4.19186 0
M  V30 2274 N 209.89 -1.43072 0.660911 0
M  V30 2275 C 211.301 -1.84932 0.256348 0
M  V30 2276 C 211.652 -1.55325 -1.19868 0
M  V30 2277 O 210.777 -1.00607 -1.91591 0
M  V30 2278 C 211.372 -3.35684 0.458475 0
M  V30 2279 C 209.931 -3.76245 0.108161 0
M  V30 2280 C 209.078 -2.66749 0.757641 0
M  V30 2281 H 212.029 -1.33116 0.864051 0
M  V30 2282 H 212.05 -3.79365 -0.293683 0
M  V30 2283 H 211.562 -3.572 1.51755 0
M  V30 2284 H 209.663 -3.60338 -0.948014 0
M  V30 2285 H 209.776 -4.76058 0.538992 0
M  V30 2286 H 208.14 -2.53989 0.190185 0
M  V30 2287 H 208.923 -2.91092 1.81989 0
M  V30 2288 N 211.368 -0.403325 -1.52352 0
M  V30 2289 C 212.616 0.174003 -2.0135 0
M  V30 2290 C 212.937 1.46139 -1.29106 0
M  V30 2291 O 212.207 1.91448 -0.415253 0
M  V30 2292 H 210.787 0.0672911 -0.743963 0
M  V30 2293 H 213.449 -0.538235 -1.87321 0
M  V30 2294 H 212.545 0.374254 -3.09848 0
M  V30 2295 N 212.846 1.57033 -0.133567 0
M  V30 2296 C 214.123 1.87256 0.56522 0
M  V30 2297 C 214.503 1.03726 1.83859 0
M  V30 2298 O 213.851 0.120247 2.28183 0
M  V30 2299 C 214.061 3.3865 0.843636 0
M  V30 2300 C 215.409 4.07574 1.19032 0
M  V30 2301 O 216.433 3.43752 0.933429 0
M  V30 2302 O 215.292 5.20259 1.67312 0
M  V30 2303 H 212.386 0.775678 0.286796 0
M  V30 2304 H 214.932 1.68855 -0.169168 0
M  V30 2305 H 213.704 3.91257 -0.0581149 0
M  V30 2306 H 213.327 3.62532 1.63268 0
M  V30 2307 N 214.325 -0.140222 1.56975 0
M  V30 2308 C 215.288 -1.15689 1.97861 0
M  V30 2309 C 216.288 -1.3549 0.865974 0
M  V30 2310 O 217.478 -1.32367 1.13246 0
M  V30 2311 C 214.61 -2.51582 2.30042 0
M  V30 2312 H 215.803 -0.805971 2.88867 0
M  V30 2313 H 213.356 -0.383801 1.51515 0
M  V30 2314 H 214.091 -2.91632 1.41849 0
M  V30 2315 H 213.876 -2.38569 3.11171 0
M  V30 2316 H 215.366 -3.24792 2.62488 0
M  V30 2317 N 215.803 -1.52179 -0.40978 0
M  V30 2318 C 217.031 -1.70054 -1.17853 0
M  V30 2319 C 217.446 -0.409735 -1.843 0
M  V30 2320 O 216.803 0.614183 -1.71855 0
M  V30 2321 C 216.854 -2.83568 -2.24213 0
M  V30 2322 O 216.575 -4.0765 -1.60478 0
M  V30 2323 C 218.076 -3.12947 -3.13973 0
M  V30 2324 H 215.296 -0.569917 -0.354169 0
M  V30 2325 H 217.84 -1.98734 -0.482198 0
M  V30 2326 H 215.995 -2.57409 -2.89516 0
M  V30 2327 H 216.409 -4.70899 -2.30986 0
M  V30 2328 H 217.883 -3.95889 -3.84677 0
M  V30 2329 H 218.36 -2.26472 -3.76307 0
M  V30 2330 H 218.966 -3.40868 -2.5434 0
M  V30 2331 N 217.281 0.66697 -1.42791 0
M  V30 2332 C 218.558 1.4234 -1.34159 0
M  V30 2333 C 218.938 2.11093 0.0172729 0
M  V30 2334 O 218.286 2.03808 1.03318 0
M  V30 2335 C 218.496 2.41942 -2.51526 0
M  V30 2336 C 219.844 3.06353 -2.93995 0
M  V30 2337 O 220.868 2.52269 -2.51473 0
M  V30 2338 O 219.727 4.04376 -3.67617 0
M  V30 2339 H 216.821 0.635277 -0.529483 0
M  V30 2340 H 219.367 0.695034 -1.54814 0
M  V30 2341 H 218.139 1.89991 -3.42081 0
M  V30 2342 H 217.762 3.22249 -2.32898 0
M  V30 2343 N 218.759 1.29093 0.90403 0
M  V30 2344 C 219.989 1.19516 1.68522 0
M  V30 2345 C 220.397 -0.24738 1.87576 0
M  V30 2346 O 219.74 -1.17798 1.40959 0
M  V30 2347 C 219.802 1.83249 3.0929 0
M  V30 2348 C 219.466 3.32531 3.13484 0
M  V30 2349 C 220.463 4.28821 2.93953 0
M  V30 2350 C 218.148 3.73656 3.35688 0
M  V30 2351 C 220.142 5.64212 2.96553 0
M  V30 2352 C 217.829 5.0917 3.37919 0
M  V30 2353 C 218.827 6.04258 3.18373 0
M  V30 2354 O 218.515 7.37298 3.20385 0
M  V30 2355 H 218.247 0.415467 0.533257 0
M  V30 2356 H 220.801 1.70912 1.13922 0
M  V30 2357 H 219.031 1.26358 3.65473 0
M  V30 2358 H 220.72 1.68054 3.69476 0
M  V30 2359 H 221.486 3.98382 2.76616 0
M  V30 2360 H 217.365 3.00101 3.49943 0
M  V30 2361 H 220.909 6.38407 2.81216 0
M  V30 2362 H 216.806 5.39256 3.54787 0
M  V30 2363 H 217.574 7.46048 3.36681 0
M  V30 2364 N 220.237 -1.11381 1.11499 0
M  V30 2365 C 221.184 -2.17439 0.773887 0
M  V30 2366 C 222.154 -1.64132 -0.254899 0
M  V30 2367 O 223.339 -1.90345 -0.13168 0
M  V30 2368 C 220.479 -3.44373 0.223917 0
M  V30 2369 C 219.592 -4.1168 1.30934 0
M  V30 2370 C 218.727 -5.263 0.71984 0
M  V30 2371 C 217.766 -5.85493 1.78507 0
M  V30 2372 N 216.903 -6.91507 1.21502 0
M  V30 2373 H 221.743 -2.45962 1.68246 0
M  V30 2374 H 219.28 -1.20744 0.840191 0
M  V30 2375 H 221.238 -4.17047 -0.112921 0
M  V30 2376 H 219.868 -3.16232 -0.647851 0
M  V30 2377 H 218.92 -3.37073 1.76312 0
M  V30 2378 H 220.232 -4.51729 2.11524 0
M  V30 2379 H 219.386 -6.05785 0.333094 0
M  V30 2380 H 218.125 -4.87559 -0.117377 0
M  V30 2381 H 217.13 -5.04686 2.18111 0
M  V30 2382 H 218.355 -6.26301 2.62533 0
M  V30 2383 H 216.301 -6.54783 0.399455 0
M  V30 2384 H 216.218 -7.30214 1.95763 0
M  V30 2385 H 217.486 -7.74795 0.855181 0
M  V30 2386 N 221.715 -0.905404 -1.28997 0
M  V30 2387 C 222.645 -0.404212 -2.29975 0
M  V30 2388 C 223.626 0.523784 -1.61835 0
M  V30 2389 O 224.811 0.433298 -1.89304 0
M  V30 2390 C 221.941 0.364042 -3.45387 0
M  V30 2391 C 220.895 -0.474048 -4.25367 0
M  V30 2392 C 220.221 0.422045 -5.33032 0
M  V30 2393 C 221.521 -1.72696 -4.92923 0
M  V30 2394 H 223.215 -1.24807 -2.72146 0
M  V30 2395 H 220.761 -0.601585 -1.30832 0
M  V30 2396 H 222.714 0.725447 -4.15109 0
M  V30 2397 H 221.438 1.24174 -3.02074 0
M  V30 2398 H 220.097 -0.81786 -3.57361 0
M  V30 2399 H 219.745 1.29804 -4.85963 0
M  V30 2400 H 219.445 -0.135057 -5.87445 0
M  V30 2401 H 220.969 0.779517 -6.05604 0
M  V30 2402 H 222.383 -1.43495 -5.55051 0
M  V30 2403 H 220.78 -2.22582 -5.57295 0
M  V30 2404 H 221.85 -2.45964 -4.17887 0
M  V30 2405 N 223.193 1.4272 -0.668489 0
M  V30 2406 C 224.47 1.95248 -0.117373 0
M  V30 2407 C 224.85 1.60919 1.36632 0
M  V30 2408 O 224.198 0.902095 2.09939 0
M  V30 2409 C 224.408 3.46927 -0.379806 0
M  V30 2410 C 225.756 4.23588 -0.292923 0
M  V30 2411 O 226.78 3.5482 -0.313204 0
M  V30 2412 O 225.639 5.46017 -0.229697 0
M  V30 2413 H 222.733 0.827 0.00079152 0
M  V30 2414 H 225.279 1.52581 -0.742783 0
M  V30 2415 H 224.051 3.65096 -1.40786 0
M  V30 2416 H 223.674 3.96627 0.277923 0
M  V30 2417 N 224.671 0.411399 1.52136 0
M  V30 2418 C 225.948 -0.222308 1.94333 0
M  V30 2419 C 226.328 -1.6242 1.34844 0
M  V30 2420 O 225.676 -2.22384 0.525145 0
M  V30 2421 C 225.886 -0.226345 3.48265 0
M  V30 2422 C 227.234 -0.444592 4.22266 0
M  V30 2423 O 228.258 -0.305602 3.54887 0
M  V30 2424 O 227.117 -0.718749 5.41753 0
M  V30 2425 H 224.211 -0.143907 0.814383 0
M  V30 2426 H 226.757 0.467506 1.63133 0
M  V30 2427 H 225.529 0.75475 3.83952 0
M  V30 2428 H 225.152 -0.960163 3.85832 0
M  V30 2429 N 226.149 -1.5696 0.141893 0
M  V30 2430 C 227.081 -2.13619 -0.830627 0
M  V30 2431 C 228.094 -1.08439 -1.21428 0
M  V30 2432 O 229.283 -1.35734 -1.15925 0
M  V30 2433 C 226.383 -2.63978 -2.12529 0
M  V30 2434 C 225.556 -3.93504 -1.9098 0
M  V30 2435 C 224.615 -4.29225 -3.04388 0
M  V30 2436 O 223.641 -4.97641 -2.76302 0
M  V30 2437 N 224.843 -3.88393 -4.31429 0
M  V30 2438 H 227.608 -2.97691 -0.34641 0
M  V30 2439 H 225.169 -1.61846 -0.0418375 0
M  V30 2440 H 227.161 -2.84891 -2.87436 0
M  V30 2441 H 225.731 -1.84659 -2.52229 0
M  V30 2442 H 224.951 -3.81269 -1.00139 0
M  V30 2443 H 226.239 -4.78154 -1.73914 0
M  V30 2444 H 225.637 -3.33257 -4.57117 0
M  V30 2445 H 224.194 -4.14368 -5.03133 0
M  V30 2446 N 227.627 0.131896 -1.57047 0
M  V30 2447 C 228.857 0.855219 -1.88068 0
M  V30 2448 C 229.265 1.74557 -0.729817 0
M  V30 2449 O 228.608 1.81083 0.308962 0
M  V30 2450 C 228.67 1.75119 -3.13964 0
M  V30 2451 C 228.334 1.03646 -4.45091 0
M  V30 2452 C 229.331 0.383276 -5.18485 0
M  V30 2453 C 227.016 1.02148 -4.91804 0
M  V30 2454 C 229.01 -0.275347 -6.36805 0
M  V30 2455 C 226.697 0.359047 -6.10044 0
M  V30 2456 C 227.695 -0.288222 -6.82392 0
M  V30 2457 O 227.383 -0.94011 -7.98384 0
M  V30 2458 H 227.115 0.251864 -0.627328 0
M  V30 2459 H 229.669 0.124782 -2.05021 0
M  V30 2460 H 227.899 2.52295 -2.9306 0
M  V30 2461 H 229.588 2.3478 -3.31109 0
M  V30 2462 H 230.354 0.386562 -4.83457 0
M  V30 2463 H 226.233 1.5147 -4.35405 0
M  V30 2464 H 229.777 -0.781148 -6.93213 0
M  V30 2465 H 225.674 0.35348 -6.44531 0
M  V30 2466 H 226.442 -0.84329 -8.14144 0
M  V30 2467 N 229.106 1.52395 0.401703 0
M  V30 2468 C 230.522 1.41363 0.740864 0
M  V30 2469 C 230.722 0.523982 1.94568 0
M  V30 2470 O 229.778 -0.00741204 2.52499 0
M  V30 2471 C 231.091 2.84011 0.987847 0
M  V30 2472 C 232.639 2.93404 1.09011 0
M  V30 2473 C 233.114 4.37036 1.3698 0
M  V30 2474 N 234.605 4.40304 1.43829 0
M  V30 2475 C 235.34 5.48508 1.67112 0
M  V30 2476 N 234.836 6.66819 1.87949 0
M  V30 2477 N 236.629 5.36034 1.69187 0
M  V30 2478 H 228.78 2.08765 -0.391262 0
M  V30 2479 H 231.043 0.941265 -0.112798 0
M  V30 2480 H 230.749 3.51265 0.174835 0
M  V30 2481 H 230.623 3.25502 1.906 0
M  V30 2482 H 233.01 2.26325 1.8937 0
M  V30 2483 H 233.091 2.55359 0.15015 0
M  V30 2484 H 232.735 5.04676 0.571353 0
M  V30 2485 H 232.665 4.72623 2.3224 0
M  V30 2486 H 235.156 3.55024 1.29486 0
M  V30 2487 H 235.469 7.45063 2.05185 0
M  V30 2488 H 233.814 6.6987 1.85199 0
M  V30 2489 H 237.005 4.42579 1.52451 0
M  V30 2490 H 237.178 6.20434 1.86993 0
M  V30 2491 N 230.584 -0.659388 1.43143 0
M  V30 2492 C 231.514 -1.78422 1.50625 0
M  V30 2493 C 232.495 -1.66216 0.361443 0
M  V30 2494 O 233.68 -1.85404 0.577834 0
M  V30 2495 C 230.81 -3.16815 1.42287 0
M  V30 2496 C 229.764 -3.43777 2.54954 0
M  V30 2497 C 229.09 -4.81905 2.31671 0
M  V30 2498 C 230.39 -3.39134 3.97222 0
M  V30 2499 H 232.084 -1.72417 2.44771 0
M  V30 2500 H 229.63 -0.828084 1.17808 0
M  V30 2501 H 231.583 -3.95253 1.46127 0
M  V30 2502 H 230.307 -3.23534 0.446435 0
M  V30 2503 H 228.966 -2.67707 2.50457 0
M  V30 2504 H 228.614 -4.85294 1.32284 0
M  V30 2505 H 228.314 -5.00906 3.07192 0
M  V30 2506 H 229.838 -5.62609 2.37284 0
M  V30 2507 H 231.252 -4.07518 4.03239 0
M  V30 2508 H 229.649 -3.69671 4.72719 0
M  V30 2509 H 230.719 -2.37426 4.22797 0
M  V30 2510 N 232.062 -1.29571 -0.897171 0
M  V30 2511 C 233.287 -1.20705 -1.68656 0
M  V30 2512 C 233.712 0.228582 -1.86706 0
M  V30 2513 O 233.07 1.16494 -1.3892 0
M  V30 2514 C 233.118 -1.9282 -3.04717 0
M  V30 2515 O 232.222 -1.24697 -3.93096 0
M  V30 2516 H 231.563 -0.418126 -0.515816 0
M  V30 2517 H 234.093 -1.71183 -1.12061 0
M  V30 2518 H 234.103 -2.01372 -3.54843 0
M  V30 2519 H 232.778 -2.97239 -2.90899 0
M  V30 2520 H 231.355 -1.2442 -3.51531 0
M  V30 2521 N 233.54 1.10788 -1.12088 0
M  V30 2522 C 234.45 2.20599 -0.798338 0
M  V30 2523 C 235.466 1.72712 0.21135 0
M  V30 2524 O 236.642 2.01348 0.0458477 0
M  V30 2525 C 233.707 3.45771 -0.253674 0
M  V30 2526 C 232.768 4.08411 -1.32283 0
M  V30 2527 C 232.001 5.27608 -0.80406 0
M  V30 2528 O 232.224 5.69241 0.363478 0
M  V30 2529 O 231.158 5.8101 -1.57198 0
M  V30 2530 H 234.984 2.50614 -1.7154 0
M  V30 2531 H 232.569 1.19454 -0.897275 0
M  V30 2532 H 234.451 4.21376 0.0453691 0
M  V30 2533 H 233.126 3.1739 0.636005 0
M  V30 2534 H 232.033 3.34507 -1.67499 0
M  V30 2535 H 233.366 4.40986 -2.18614 0
M  V30 2536 N 235.018 0.912232 1.28515 0
M  V30 2537 C 236.267 0.540504 1.94323 0
M  V30 2538 C 236.58 -0.920044 1.72611 0
M  V30 2539 O 237.786 -1.39986 2.32629 0
M  V30 2540 C 236.242 0.915803 3.48053 0
M  V30 2541 C 235.85 2.39598 3.78546 0
M  V30 2542 C 237.594 0.614588 4.20027 0
M  V30 2543 C 235.501 2.71148 5.25578 0
M  V30 2544 H 234.431 0.198418 0.727424 0
M  V30 2545 H 237.082 1.11094 1.46049 0
M  V30 2546 H 235.464 0.274168 3.9505 0
M  V30 2547 H 236.638 3.08422 3.42364 0
M  V30 2548 H 234.953 2.66749 3.1974 0
M  V30 2549 H 237.55 0.827002 5.28266 0
M  V30 2550 H 237.893 -0.447531 4.13887 0
M  V30 2551 H 238.426 1.21462 3.78803 0
M  V30 2552 H 235.165 3.76207 5.36794 0
M  V30 2553 H 234.685 2.0696 5.62963 0
M  V30 2554 H 236.364 2.58072 5.93302 0
M  V30 2555 N 236.496 -1.42363 0.676048 0
M  V30 2556 C 237.724 -2.05859 0.207268 0
M  V30 2557 C 238.139 -1.50796 -1.13605 0
M  V30 2558 O 237.496 -0.648265 -1.70598 0
M  V30 2559 C 237.547 -3.61248 0.134975 0
M  V30 2560 O 237.268 -4.1427 1.42521 0
M  V30 2561 C 238.769 -4.41859 -0.357151 0
M  V30 2562 H 235.989 -0.663431 0.100503 0
M  V30 2563 H 238.533 -1.82479 0.923136 0
M  V30 2564 H 236.688 -3.83735 -0.531588 0
M  V30 2565 H 237.102 -5.0815 1.29939 0
M  V30 2566 H 238.576 -5.50847 -0.356641 0
M  V30 2567 H 239.053 -4.16536 -1.39264 0
M  V30 2568 H 239.659 -4.24392 0.27772 0
M  V30 2569 N 237.974 -0.419461 -1.51915 0
M  V30 2570 C 239.204 0.151915 -2.06041 0
M  V30 2571 C 239.612 1.38539 -1.28855 0
M  V30 2572 O 238.955 1.80592 -0.336463 0
M  V30 2573 C 239.017 0.557119 -3.55157 0
M  V30 2574 C 238.681 -0.567054 -4.53468 0
M  V30 2575 C 239.678 -1.43379 -4.99738 0
M  V30 2576 C 237.363 -0.742693 -4.96779 0
M  V30 2577 C 239.357 -2.46102 -5.87973 0
M  V30 2578 C 237.044 -1.77322 -5.84808 0
M  V30 2579 C 238.042 -2.63078 -6.30301 0
M  V30 2580 O 237.73 -3.64364 -7.16585 0
M  V30 2581 H 237.462 0.0193293 -0.675724 0
M  V30 2582 H 240.016 -0.592073 -1.96682 0
M  V30 2583 H 238.246 1.35355 -3.62238 0
M  V30 2584 H 239.935 1.05759 -3.9188 0
M  V30 2585 H 240.701 -1.30954 -4.66986 0
M  V30 2586 H 236.58 -0.0848307 -4.60922 0
M  V30 2587 H 240.124 -3.13071 -6.23404 0
M  V30 2588 H 236.021 -1.89773 -6.16974 0
M  V30 2589 H 236.789 -3.60731 -7.34721 0
M  V30 2590 N 239.452 1.56882 -0.150215 0
M  V30 2591 C 240.677 2.01027 0.510184 0
M  V30 2592 C 241.102 1.02966 1.57415 0
M  V30 2593 O 240.46 0.00590158 1.81299 0
M  V30 2594 C 240.508 3.43899 1.08472 0
M  V30 2595 O 239.612 3.4885 2.19948 0
M  V30 2596 H 238.953 0.652233 0.124451 0
M  V30 2597 H 241.483 2.03093 -0.247894 0
M  V30 2598 H 241.493 3.82766 1.41259 0
M  V30 2599 H 240.168 4.14776 0.305582 0
M  V30 2600 H 238.745 3.21827 1.88366 0
M  V30 2601 N 240.93 -0.123565 1.57115 0
M  V30 2602 C 241.862 -1.17739 1.96648 0
M  V30 2603 C 242.875 -1.37906 0.865201 0
M  V30 2604 O 244.064 -1.37062 1.14351 0
M  V30 2605 C 241.164 -2.53821 2.24562 0
M  V30 2606 C 240.337 -2.54317 3.55867 0
M  V30 2607 C 239.396 -3.72112 3.72047 0
M  V30 2608 O 238.422 -3.55907 4.44206 0
M  V30 2609 N 239.624 -4.90498 3.10471 0
M  V30 2610 H 242.389 -0.841147 2.87654 0
M  V30 2611 H 239.95 -0.31289 1.58848 0
M  V30 2612 H 241.942 -3.31175 2.32606 0
M  V30 2613 H 240.512 -2.79645 1.39705 0
M  V30 2614 H 239.732 -1.62711 3.59053 0
M  V30 2615 H 241.02 -2.51701 4.42181 0
M  V30 2616 H 240.418 -5.06567 2.51806 0
M  V30 2617 H 238.975 -5.65544 3.24043 0
M  V30 2618 N 242.408 -1.52605 -0.393616 0
M  V30 2619 C 243.356 -1.77688 -1.50099 0
M  V30 2620 C 244.35 -0.644615 -1.56656 0
M  V30 2621 O 245.556 -0.826997 -1.59877 0
M  V30 2622 H 241.931 -0.562159 -0.499481 0
M  V30 2623 H 243.902 -2.7043 -1.26135 0
M  V30 2624 C 242.651 -1.95858 -2.87289 0
M  V30 2625 H 241.974 -2.8241 -2.82992 0
M  V30 2626 H 243.414 -2.174 -3.64024 0
M  V30 2627 C 241.873 -0.729848 -3.28899 0
M  V30 2628 O 242.403 0.0949217 -4.01588 0
M  V30 2629 N 240.609 -0.561283 -2.85128 0
M  V30 2630 H 240.156 -1.23357 -2.26143 0
M  V30 2631 H 240.114 0.2595 -3.13327 0
M  V30 2632 N 243.887 0.651787 -1.4349 0
M  V30 2633 C 245.135 1.40888 -1.44897 0
M  V30 2634 C 245.456 1.94856 -0.0749086 0
M  V30 2635 O 244.726 1.74518 0.889956 0
M  V30 2636 H 243.306 0.522887 -0.533478 0
M  V30 2637 H 245.968 0.768609 -1.79104 0
M  V30 2638 H 245.064 2.25052 -2.16236 0
M  V30 2639 N 245.365 1.30045 0.890287 0
M  V30 2640 C 246.312 1.15976 1.99545 0
M  V30 2641 C 247.282 0.0506202 1.66023 0
M  V30 2642 O 248.467 0.219847 1.89529 0
M  V30 2643 C 245.607 0.852054 3.34416 0
M  V30 2644 C 244.72 2.04255 3.80662 0
M  V30 2645 C 243.855 1.6734 5.04154 0
M  V30 2646 C 242.894 2.82916 5.42794 0
M  V30 2647 N 242.031 2.46333 6.57468 0
M  V30 2648 H 246.871 2.10524 2.10911 0
M  V30 2649 H 244.408 1.04749 1.03276 0
M  V30 2650 H 246.366 0.654296 4.12037 0
M  V30 2651 H 244.996 -0.0565502 3.2275 0
M  V30 2652 H 244.048 2.35172 2.98995 0
M  V30 2653 H 245.36 2.90826 4.05242 0
M  V30 2654 H 244.514 1.43908 5.89386 0
M  V30 2655 H 243.253 0.779308 4.81433 0
M  V30 2656 H 242.258 3.0702 4.56091 0
M  V30 2657 H 243.483 3.73004 5.6749 0
M  V30 2658 H 241.429 1.59423 6.36334 0
M  V30 2659 H 241.346 3.26436 6.81891 0
M  V30 2660 H 242.614 2.26244 7.45945 0
M  V30 2661 N 246.843 -1.10192 1.12674 0
M  V30 2662 C 247.791 -2.18694 0.792196 0
M  V30 2663 C 248.785 -1.67938 -0.222058 0
M  V30 2664 O 249.991 -1.79822 -0.0800074 0
M  V30 2665 H 246.366 -0.713223 0.238364 0
M  V30 2666 H 248.337 -2.44149 1.71564 0
M  V30 2667 C 247.086 -3.46682 0.265859 0
M  V30 2668 H 246.409 -3.86101 1.03761 0
M  V30 2669 H 247.849 -4.23942 0.0701128 0
M  V30 2670 C 246.308 -3.21506 -1.00675 0
M  V30 2671 O 246.838 -3.43408 -2.08408 0
M  V30 2672 N 245.044 -2.75158 -0.934692 0
M  V30 2673 H 244.591 -2.57535 -0.0578604 0
M  V30 2674 H 244.549 -2.58691 -1.7868 0
M  V30 2675 N 248.321 -0.919034 -1.28029 0
M  V30 2676 C 249.567 -0.565221 -1.95389 0
M  V30 2677 C 249.922 0.882325 -1.70976 0
M  V30 2678 O 249.215 1.61988 -1.02325 0
M  V30 2679 C 249.409 -0.816855 -3.4794 0
M  V30 2680 C 249.238 -2.28731 -3.87185 0
M  V30 2681 C 248.008 -2.93841 -4.11079 0
M  V30 2682 C 250.206 -3.26415 -3.97439 0
M  V30 2683 N 248.188 -4.31129 -4.37037 0
M  V30 2684 C 249.559 -4.48884 -4.27672 0
M  V30 2685 C 251.614 -3.21742 -3.79982 0
M  V30 2686 C 250.317 -5.67268 -4.42266 0
M  V30 2687 C 252.343 -4.39431 -3.95796 0
M  V30 2688 C 251.705 -5.60675 -4.26407 0
M  V30 2689 H 247.804 -0.256797 -0.738633 0
M  V30 2690 H 250.388 -1.18386 -1.54573 0
M  V30 2691 H 248.559 -0.227445 -3.87733 0
M  V30 2692 H 250.291 -0.426542 -4.02446 0
M  V30 2693 H 247.046 -2.44547 -4.05578 0
M  V30 2694 H 247.47 -5.02127 -4.5409 0
M  V30 2695 H 252.112 -2.29079 -3.55363 0
M  V30 2696 H 249.83 -6.60406 -4.65714 0
M  V30 2697 H 253.416 -4.37323 -3.83719 0
M  V30 2698 H 252.296 -6.50223 -4.38383 0
M  V30 2699 N 249.799 1.42003 -0.683588 0
M  V30 2700 C 250.746 2.30798 -0.0107309 0
M  V30 2701 C 251.716 1.4645 0.783688 0
M  V30 2702 O 252.901 1.75263 0.754156 0
M  V30 2703 C 250.041 3.3238 0.928306 0
M  V30 2704 C 249.154 4.31814 0.126776 0
M  V30 2705 C 248.289 5.20468 1.06236 0
M  V30 2706 C 247.328 6.11577 0.253035 0
M  V30 2707 N 246.465 6.92754 1.14179 0
M  V30 2708 H 251.305 2.8778 -0.773727 0
M  V30 2709 H 248.842 1.41745 -0.393283 0
M  V30 2710 H 250.8 3.89813 1.48666 0
M  V30 2711 H 249.43 2.76976 1.65783 0
M  V30 2712 H 248.482 3.76427 -0.54833 0
M  V30 2713 H 249.794 4.96276 -0.501192 0
M  V30 2714 H 248.948 5.82677 1.69035 0
M  V30 2715 H 247.687 4.56204 1.7242 0
M  V30 2716 H 246.692 5.48428 -0.388108 0
M  V30 2717 H 247.917 6.77892 -0.404839 0
M  V30 2718 H 245.863 6.3111 1.78987 0
M  V30 2719 H 245.78 7.53855 0.569111 0
M  V30 2720 H 247.048 7.59441 1.75697 0
M  V30 2721 N 251.277 0.427512 1.51691 0
M  V30 2722 C 252.523 -0.142439 2.02299 0
M  V30 2723 C 252.856 -1.43214 1.31162 0
M  V30 2724 O 252.131 -1.89833 0.423511 0
M  V30 2725 C 252.414 -0.371301 3.58181 0
M  V30 2726 C 252.267 0.936358 4.39946 0
M  V30 2727 C 253.586 -1.14542 4.24933 0
M  V30 2728 H 250.705 -0.0502937 0.735282 0
M  V30 2729 H 253.347 0.564584 1.81418 0
M  V30 2730 H 251.497 -0.973559 3.76104 0
M  V30 2731 H 253.169 1.57184 4.33694 0
M  V30 2732 H 251.412 1.5432 4.05423 0
M  V30 2733 H 252.083 0.730388 5.47147 0
M  V30 2734 H 254.559 -0.635362 4.11221 0
M  V30 2735 H 253.435 -1.27431 5.33903 0
M  V30 2736 H 253.696 -2.17093 3.85127 0
M  V30 2737 N 252.755 -1.56801 0.158532 0
M  V30 2738 C 254.001 -1.96781 -0.490405 0
M  V30 2739 C 254.334 -1.04397 -1.63753 0
M  V30 2740 O 253.609 -0.0885805 -1.94298 0
M  V30 2741 C 253.892 -3.4635 -0.985594 0
M  V30 2742 C 253.745 -4.49512 0.160824 0
M  V30 2743 C 255.064 -3.98697 -1.86355 0
M  V30 2744 H 252.183 -0.715482 -0.176788 0
M  V30 2745 H 254.825 -1.88451 0.242088 0
M  V30 2746 H 252.975 -3.53579 -1.60978 0
M  V30 2747 H 254.647 -4.54353 0.797537 0
M  V30 2748 H 252.89 -4.26013 0.818256 0
M  V30 2749 H 253.561 -5.51531 -0.227569 0
M  V30 2750 H 256.037 -3.94019 -1.33746 0
M  V30 2751 H 254.913 -5.03792 -2.17909 0
M  V30 2752 H 255.174 -3.41744 -2.8047 0
M  V30 2753 N 254.233 0.115231 -1.57178 0
M  V30 2754 C 255.463 0.835224 -1.88964 0
M  V30 2755 C 255.871 1.73774 -0.74829 0
M  V30 2756 O 255.214 1.81401 0.289739 0
M  V30 2757 C 255.276 1.7178 -3.15804 0
M  V30 2758 C 254.94 0.989198 -4.46166 0
M  V30 2759 C 255.937 0.328263 -5.18863 0
M  V30 2760 C 253.622 0.969256 -4.9286 0
M  V30 2761 C 255.616 -0.342873 -6.36477 0
M  V30 2762 C 253.303 0.294324 -6.10391 0
M  V30 2763 C 254.301 -0.360582 -6.82048 0
M  V30 2764 O 253.989 -1.02474 -7.97342 0
M  V30 2765 H 253.721 0.245197 -0.629964 0
M  V30 2766 H 256.275 0.10303 -2.05141 0
M  V30 2767 H 254.505 2.49173 -2.95719 0
M  V30 2768 H 256.194 2.31255 -3.33581 0
M  V30 2769 H 256.96 0.335263 -4.8384 0
M  V30 2770 H 252.839 1.46844 -4.36987 0
M  V30 2771 H 256.383 -0.854629 -6.92345 0
M  V30 2772 H 252.28 0.285099 -6.4487 0
M  V30 2773 H 253.048 -0.929594 -8.13204 0
M  V30 2774 N 255.711 1.52812 0.385517 0
M  V30 2775 C 256.959 1.67694 1.12797 0
M  V30 2776 C 257.28 0.421115 1.90399 0
M  V30 2777 O 256.55 -0.564551 1.87589 0
M  V30 2778 H 255.13 0.618155 0.419396 0
M  V30 2779 H 257.792 1.89938 0.436972 0
M  V30 2780 H 256.888 2.52896 1.82894 0
M  V30 2781 N 257.189 -0.644168 1.43834 0
M  V30 2782 C 258.437 -1.40117 1.45642 0
M  V30 2783 C 258.758 -1.94814 0.0852413 0
M  V30 2784 O 258.028 -1.74988 -0.880688 0
M  V30 2785 H 256.608 -0.52005 0.536243 0
M  V30 2786 H 259.27 -0.7591 1.7951 0
M  V30 2787 H 258.366 -2.23902 2.17427 0
M  V30 2788 N 258.668 -1.30515 -0.883378 0
M  V30 2789 C 259.898 -1.22182 -1.66599 0
M  V30 2790 C 260.306 0.217507 -1.87946 0
M  V30 2791 O 259.649 1.1554 -1.42815 0
M  V30 2792 C 259.711 -1.88146 -3.06335 0
M  V30 2793 C 259.375 -3.37476 -3.08154 0
M  V30 2794 C 260.372 -4.33443 -2.87094 0
M  V30 2795 C 258.057 -3.7895 -3.29701 0
M  V30 2796 C 260.051 -5.68858 -2.8754 0
M  V30 2797 C 257.738 -5.14482 -3.29776 0
M  V30 2798 C 258.736 -6.09246 -3.0872 0
M  V30 2799 O 258.424 -7.42302 -3.08615 0
M  V30 2800 H 258.156 -0.423898 -0.52658 0
M  V30 2801 H 260.71 -1.72703 -1.11188 0
M  V30 2802 H 258.94 -1.32157 -3.63416 0
M  V30 2803 H 260.629 -1.7391 -3.66756 0
M  V30 2804 H 261.395 -4.02733 -2.70243 0
M  V30 2805 H 257.274 -3.05631 -3.45124 0
M  V30 2806 H 260.818 -6.428 -2.71024 0
M  V30 2807 H 256.715 -5.44832 -3.46163 0
M  V30 2808 H 257.483 -7.5131 -3.24769 0
M  V30 2809 N 260.146 1.09593 -1.13257 0
M  V30 2810 C 261.423 1.78293 -0.804432 0
M  V30 2811 C 261.803 1.99004 0.70431 0
M  V30 2812 O 261.151 1.59007 1.641 0
M  V30 2813 C 261.361 3.10707 -1.5894 0
M  V30 2814 C 262.709 3.85443 -1.78099 0
M  V30 2815 O 263.733 3.20454 -1.55525 0
M  V30 2816 O 262.592 5.02108 -2.15753 0
M  V30 2817 H 259.686 0.773156 -0.293528 0
M  V30 2818 H 262.232 1.16164 -1.23709 0
M  V30 2819 H 261.004 2.91106 -2.61482 0
M  V30 2820 H 260.627 3.80558 -1.15157 0
M  V30 2821 N 261.624 0.925811 1.2754 0
M  V30 2822 C 262.852 0.581509 1.9856 0
M  V30 2823 C 263.267 -0.840041 1.69082 0
M  V30 2824 O 262.624 -1.55805 0.950312 0
M  V30 2825 C 262.675 0.795589 3.52637 0
M  V30 2826 O 262.396 2.16121 3.81082 0
M  V30 2827 C 263.897 0.459744 4.4091 0
M  V30 2828 H 261.117 0.220538 0.633722 0
M  V30 2829 H 263.661 1.24232 1.6244 0
M  V30 2830 H 261.816 0.18161 3.86974 0
M  V30 2831 H 262.23 2.2098 4.75676 0
M  V30 2832 H 263.704 0.660244 5.48037 0
M  V30 2833 H 264.181 -0.604625 4.35018 0
M  V30 2834 H 264.787 1.05178 4.12089 0
M  V30 2835 N 263.102 -1.41638 0.69111 0
M  V30 2836 C 264.049 -2.30789 0.0229705 0
M  V30 2837 C 265.019 -1.46863 -0.775911 0
M  V30 2838 O 266.204 -1.75661 -0.74485 0
M  V30 2839 C 263.344 -3.32868 -0.910666 0
M  V30 2840 C 262.457 -4.31875 -0.103874 0
M  V30 2841 C 261.592 -5.21024 -1.03475 0
M  V30 2842 C 260.631 -6.11702 -0.220598 0
M  V30 2843 N 259.768 -6.93349 -1.10504 0
M  V30 2844 H 264.608 -2.87366 0.788978 0
M  V30 2845 H 262.145 -1.41535 0.400794 0
M  V30 2846 H 264.103 -3.90596 -1.46597 0
M  V30 2847 H 262.733 -2.77851 -1.64312 0
M  V30 2848 H 261.785 -3.76131 0.568285 0
M  V30 2849 H 263.097 -4.96003 0.527504 0
M  V30 2850 H 262.251 -5.83565 -1.65943 0
M  V30 2851 H 260.99 -4.57112 -1.69999 0
M  V30 2852 H 259.995 -5.48215 0.417187 0
M  V30 2853 H 261.22 -6.77668 0.440784 0
M  V30 2854 H 259.166 -6.3205 -1.75638 0
M  V30 2855 H 259.083 -7.54146 -0.529125 0
M  V30 2856 H 260.351 -7.60362 -1.71667 0
M  V30 2857 N 264.58 -0.43555 -1.51462 0
M  V30 2858 C 265.808 0.130242 -2.0649 0
M  V30 2859 C 266.223 1.36614 -1.30315 0
M  V30 2860 O 265.58 1.78869 -0.362223 0
M  V30 2861 C 265.631 0.454253 -3.58635 0
M  V30 2862 O 265.352 -0.73259 -4.31931 0
M  V30 2863 C 266.853 1.07091 -4.3017 0
M  V30 2864 H 264.073 0.00871669 -0.670943 0
M  V30 2865 H 266.617 -0.614117 -1.95061 0
M  V30 2866 H 264.772 1.14851 -3.69984 0
M  V30 2867 H 265.186 -0.455787 -5.22516 0
M  V30 2868 H 266.66 1.24764 -5.37716 0
M  V30 2869 H 267.137 2.05144 -3.88346 0
M  V30 2870 H 267.743 0.416089 -4.2326 0
M  V30 2871 N 266.058 1.56714 -0.166846 0
M  V30 2872 C 266.99 2.14914 0.796537 0
M  V30 2873 C 268.003 1.10357 1.19688 0
M  V30 2874 O 269.192 1.37561 1.13751 0
M  V30 2875 C 266.292 2.67326 2.08303 0
M  V30 2876 C 265.465 3.96493 1.84696 0
M  V30 2877 C 264.524 4.34014 2.97521 0
M  V30 2878 O 263.55 5.01973 2.6835 0
M  V30 2879 N 264.752 3.95208 4.25196 0
M  V30 2880 H 267.517 2.98205 0.299006 0
M  V30 2881 H 265.078 1.61892 0.0160839 0
M  V30 2882 H 267.07 2.89428 2.82867 0
M  V30 2883 H 265.64 1.88649 2.4926 0
M  V30 2884 H 264.86 3.82814 0.940602 0
M  V30 2885 H 266.148 4.8086 1.66285 0
M  V30 2886 H 265.546 3.40487 4.51758 0
M  V30 2887 H 264.103 4.2232 4.96477 0
M  V30 2888 N 267.536 -0.106894 1.57237 0
M  V30 2889 C 268.947 -0.662723 1.74542 0
M  V30 2890 C 269.298 -1.7971 0.787319 0
M  V30 2891 O 268.423 -2.16368 -0.0369636 0
M  V30 2892 C 269.018 -1.20896 3.16496 0
M  V30 2893 C 267.577 -1.71096 3.35266 0
M  V30 2894 C 266.724 -0.615642 2.7038 0
M  V30 2895 H 269.675 0.119106 1.58252 0
M  V30 2896 H 269.696 -2.07847 3.18716 0
M  V30 2897 H 269.208 -0.383122 3.86204 0
M  V30 2898 H 267.309 -2.56119 2.70618 0
M  V30 2899 H 267.422 -1.81208 4.43509 0
M  V30 2900 H 265.786 -1.05222 2.31949 0
M  V30 2901 H 266.569 0.199419 3.4272 0
M  V30 2902 N 269.014 -1.53014 -0.377408 0
M  V30 2903 C 269.977 -1.77957 -1.44444 0
M  V30 2904 C 270.977 -0.649763 -1.47087 0
M  V30 2905 O 272.167 -0.917897 -1.48055 0
M  V30 2906 C 269.299 -1.89089 -2.83651 0
M  V30 2907 H 270.492 -2.73243 -1.23606 0
M  V30 2908 H 268.045 -1.43912 -0.609844 0
M  V30 2909 H 268.78 -0.958293 -3.09818 0
M  V30 2910 H 268.565 -2.71254 -2.83132 0
M  V30 2911 H 270.055 -2.1002 -3.60945 0
M  V30 2912 N 270.492 0.636531 -1.44174 0
M  V30 2913 C 271.425 1.76139 -1.45087 0
M  V30 2914 C 272.403 1.59611 -0.310326 0
M  V30 2915 O 273.587 1.81568 -0.506477 0
M  V30 2916 C 270.714 3.13648 -1.27839 0
M  V30 2917 C 269.76 3.48838 -2.45386 0
M  V30 2918 S 270.593 3.46927 -4.07924 0
M  V30 2919 C 271.749 4.87064 -3.9309 0
M  V30 2920 H 271.982 1.75096 -2.40268 0
M  V30 2921 H 269.515 0.810666 -1.31406 0
M  V30 2922 H 271.473 3.93002 -1.18575 0
M  V30 2923 H 270.134 3.12235 -0.341787 0
M  V30 2924 H 269.327 4.48886 -2.29167 0
M  V30 2925 H 268.929 2.76935 -2.51362 0
M  V30 2926 H 271.221 5.76153 -3.56446 0
M  V30 2927 H 272.164 5.08337 -4.92949 0
M  V30 2928 H 272.572 4.61384 -3.25246 0
M  V30 2929 N 271.97 1.30982 0.876444 0
M  V30 2930 C 273.381 1.18277 1.44456 0
M  V30 2931 C 273.732 -0.213265 1.95037 0
M  V30 2932 O 272.857 -1.11057 1.85729 0
M  V30 2933 C 273.452 2.1411 2.62569 0
M  V30 2934 C 272.011 2.05358 3.15444 0
M  V30 2935 C 271.158 2.03706 1.88146 0
M  V30 2936 H 274.109 1.43127 0.685584 0
M  V30 2937 H 274.13 1.72692 3.39054 0
M  V30 2938 H 273.642 3.15706 2.25724 0
M  V30 2939 H 271.743 1.06934 3.56926 0
M  V30 2940 H 271.856 2.94156 3.78166 0
M  V30 2941 H 270.22 1.48629 2.06837 0
M  V30 2942 H 271.003 3.07047 1.53547 0
M  V30 2943 N 273.449 -1.08991 1.13837 0
M  V30 2944 C 274.412 -2.13925 0.822715 0
M  V30 2945 C 275.412 -1.599 -0.1699 0
M  V30 2946 O 276.602 -1.74104 0.0577251 0
M  V30 2947 C 273.734 -3.40155 0.225318 0
M  V30 2948 H 274.927 -2.43358 1.75262 0
M  V30 2949 H 272.48 -1.24603 0.943594 0
M  V30 2950 H 273.215 -3.16352 -0.713594 0
M  V30 2951 H 273 -3.80661 0.940193 0
M  V30 2952 H 274.49 -4.17594 0.0214784 0
M  V30 2953 N 274.927 -0.932562 -1.27047 0
M  V30 2954 C 275.875 -0.42603 -2.28665 0
M  V30 2955 C 276.869 0.49219 -1.62092 0
M  V30 2956 O 278.075 0.371355 -1.76128 0
M  V30 2957 H 274.45 -0.119213 -0.742491 0
M  V30 2958 H 276.421 -1.29579 -2.68797 0
M  V30 2959 C 275.17 0.301426 -3.46391 0
M  V30 2960 H 274.493 -0.39595 -3.97834 0
M  V30 2961 H 275.933 0.6202 -4.1944 0
M  V30 2962 C 274.392 1.51616 -3.00856 0
M  V30 2963 O 274.922 2.61476 -3.04948 0
M  V30 2964 N 273.128 1.36969 -2.56296 0
M  V30 2965 H 272.675 0.475873 -2.53166 0
M  V30 2966 H 272.633 2.18368 -2.26192 0
M  V30 2967 N 276.405 1.4127 -0.698611 0
M  V30 2968 C 277.338 2.28195 0.0153898 0
M  V30 2969 C 278.316 1.42402 0.784883 0
M  V30 2970 O 279.5 1.71828 0.775067 0
M  V30 2971 C 276.627 3.22685 1.02918 0
M  V30 2972 C 275.673 4.25041 0.352501 0
M  V30 2973 S 276.506 5.27757 -0.907322 0
M  V30 2974 C 277.662 6.25812 0.104796 0
M  V30 2975 H 277.895 2.88403 -0.721858 0
M  V30 2976 H 275.428 1.46452 -0.488996 0
M  V30 2977 H 277.386 3.77655 1.60893 0
M  V30 2978 H 276.047 2.61566 1.73902 0
M  V30 2979 H 275.24 4.91437 1.11828 0
M  V30 2980 H 274.842 3.73682 -0.154254 0
M  V30 2981 H 277.134 6.70705 0.957103 0
M  V30 2982 H 278.077 7.06149 -0.525323 0
M  V30 2983 H 278.485 5.62615 0.460931 0
M  V30 2984 N 277.883 0.443576 1.51229 0
M  V30 2985 C 278.793 -0.370721 2.31652 0
M  V30 2986 C 279.809 -1.02186 1.40833 0
M  V30 2987 O 280.985 -1.01586 1.73903 0
M  V30 2988 C 278.05 -1.45376 3.14749 0
M  V30 2989 C 277.111 -0.822099 4.21355 0
M  V30 2990 C 276.344 -1.85353 5.0048 0
M  V30 2991 O 276.567 -3.07656 4.80316 0
M  V30 2992 O 275.501 -1.4406 5.84406 0
M  V30 2993 H 279.327 0.286002 3.0235 0
M  V30 2994 H 276.912 0.20598 1.47973 0
M  V30 2995 H 278.794 -2.08173 3.66391 0
M  V30 2996 H 277.469 -2.09445 2.46809 0
M  V30 2997 H 276.376 -0.155909 3.73775 0
M  V30 2998 H 277.709 -0.224797 4.91686 0
M  V30 2999 N 279.361 -1.56624 0.175154 0
M  V30 3000 C 280.291 -2.21155 -0.749195 0
M  V30 3001 C 281.272 -1.16836 -1.23626 0
M  V30 3002 O 282.457 -1.45277 -1.28873 0
M  V30 3003 C 279.587 -2.8553 -1.97711 0
M  V30 3004 C 278.541 -3.95921 -1.62575 0
M  V30 3005 C 277.867 -4.47365 -2.92864 0
M  V30 3006 C 279.167 -5.15323 -0.850838 0
M  V30 3007 H 280.861 -2.98653 -0.211295 0
M  V30 3008 H 278.407 -1.43651 -0.100188 0
M  V30 3009 H 280.36 -3.2935 -2.62881 0
M  V30 3010 H 279.084 -2.05406 -2.53921 0
M  V30 3011 H 277.743 -3.52762 -0.997719 0
M  V30 3012 H 277.391 -3.64027 -3.47122 0
M  V30 3013 H 277.091 -5.21839 -2.70106 0
M  V30 3014 H 278.615 -4.93873 -3.59056 0
M  V30 3015 H 280.029 -5.55812 -1.40521 0
M  V30 3016 H 278.426 -5.95739 -0.722154 0
M  V30 3017 H 279.496 -4.84661 0.152082 0
M  V30 3018 N 280.839 0.0985539 -1.57292 0
M  V30 3019 C 282.067 0.816318 -1.90115 0
M  V30 3020 C 282.482 1.72451 -0.768509 0
M  V30 3021 O 281.839 1.80643 0.259687 0
M  V30 3022 C 281.89 1.63259 -3.22535 0
M  V30 3023 O 281.611 0.760934 -4.31441 0
M  V30 3024 C 283.112 2.45372 -3.69199 0
M  V30 3025 H 280.332 0.233595 -0.629027 0
M  V30 3026 H 282.876 0.0768229 -2.04356 0
M  V30 3027 H 281.031 2.32463 -3.09903 0
M  V30 3028 H 281.445 1.32595 -5.07463 0
M  V30 3029 H 282.919 2.98144 -4.64558 0
M  V30 3030 H 283.396 3.23677 -2.96867 0
M  V30 3031 H 284.002 1.81373 -3.84687 0
M  V30 3032 N 282.317 1.53212 0.369288 0
M  V30 3033 C 283.594 1.59815 1.12776 0
M  V30 3034 C 283.974 0.403402 2.0721 0
M  V30 3035 O 283.322 -0.606667 2.20299 0
M  V30 3036 C 283.532 2.94664 1.87013 0
M  V30 3037 C 284.88 3.49109 2.41677 0
M  V30 3038 O 285.904 2.96669 1.97144 0
M  V30 3039 O 284.763 4.40775 3.23079 0
M  V30 3040 H 281.857 0.645376 0.517125 0
M  V30 3041 H 284.403 1.65553 0.37285 0
M  V30 3042 H 283.175 3.73061 1.18071 0
M  V30 3043 H 282.798 2.92401 2.69421 0
M  V30 3044 N 283.795 -0.628877 1.44509 0
M  V30 3045 C 285.043 -1.38565 1.4712 0
M  V30 3046 C 285.364 -1.94712 0.105899 0
M  V30 3047 O 284.634 -1.75912 -0.862079 0
M  V30 3048 H 283.214 -0.514333 0.541729 0
M  V30 3049 H 285.876 -0.740018 1.80305 0
M  V30 3050 H 284.972 -2.21583 2.19789 0
M  V30 3051 N 285.273 -1.31445 -0.869486 0
M  V30 3052 C 286.521 -1.20918 -1.61936 0
M  V30 3053 C 286.842 0.232683 -1.93607 0
M  V30 3054 O 286.112 1.15352 -1.58338 0
M  V30 3055 H 284.692 -0.44454 -0.600328 0
M  V30 3056 H 287.354 -1.64776 -1.0409 0
M  V30 3057 H 286.45 -1.78124 -2.56278 0
M  V30 3058 N 286.751 1.08385 -1.14413 0
M  V30 3059 C 287.683 2.1519 -0.789036 0
M  V30 3060 C 288.696 1.61638 0.19417 0
M  V30 3061 O 289.885 1.78479 -0.0275711 0
M  V30 3062 C 286.985 3.38565 -0.15058 0
M  V30 3063 C 286.158 4.21501 -1.16857 0
M  V30 3064 C 285.217 5.23277 -0.553832 0
M  V30 3065 O 284.243 5.56041 -1.21686 0
M  V30 3066 N 285.445 5.76629 0.669296 0
M  V30 3067 H 288.21 2.46257 -1.70814 0
M  V30 3068 H 285.771 1.24198 -1.03858 0
M  V30 3069 H 287.763 4.03777 0.273181 0
M  V30 3070 H 286.333 3.05299 0.671667 0
M  V30 3071 H 285.553 3.52265 -1.76926 0
M  V30 3072 H 286.841 4.73731 -1.85624 0
M  V30 3073 H 286.239 5.52243 1.22654 0
M  V30 3074 H 284.796 6.43521 1.03556 0
M  V30 3075 N 288.23 0.939286 1.26551 0
M  V30 3076 C 289.646 0.641304 1.46149 0
M  V30 3077 C 289.846 -0.805964 1.84679 0
M  V30 3078 O 288.902 -1.58278 1.96734 0
M  V30 3079 C 290.215 1.6011 2.54529 0
M  V30 3080 C 291.763 1.6106 2.68382 0
M  V30 3081 C 292.238 2.55765 3.79932 0
M  V30 3082 N 293.729 2.5404 3.87322 0
M  V30 3083 C 294.464 3.24004 4.73085 0
M  V30 3084 N 293.96 4.03388 5.63249 0
M  V30 3085 N 295.753 3.12965 4.66914 0
M  V30 3086 H 287.904 1.87478 0.998285 0
M  V30 3087 H 290.167 0.805559 0.499779 0
M  V30 3088 H 289.873 2.63412 2.33039 0
M  V30 3089 H 289.747 1.35171 3.52149 0
M  V30 3090 H 292.134 0.584835 2.89247 0
M  V30 3091 H 292.215 1.90053 1.71212 0
M  V30 3092 H 291.859 3.58458 3.5982 0
M  V30 3093 H 291.789 2.24063 4.76554 0
M  V30 3094 H 294.28 1.96396 3.22858 0
M  V30 3095 H 294.593 4.5373 6.25579 0
M  V30 3096 H 292.938 4.07489 5.63008 0
M  V30 3097 H 296.129 2.50432 3.95476 0
M  V30 3098 H 296.302 3.67759 5.33533 0
M  V30 3099 N 289.708 -1.40897 0.706093 0
M  V30 3100 C 290.957 -2.00284 0.238574 0
M  V30 3101 C 291.27 -1.56604 -1.17194 0
M  V30 3102 O 292.476 -2.08624 -1.73748 0
M  V30 3103 C 290.932 -3.57934 0.375623 0
M  V30 3104 C 290.54 -4.10591 1.79217 0
M  V30 3105 C 292.284 -4.24488 -0.0315857 0
M  V30 3106 C 290.191 -5.60712 1.88032 0
M  V30 3107 H 289.121 -0.749144 0.0854398 0
M  V30 3108 H 291.772 -1.61251 0.875813 0
M  V30 3109 H 290.154 -3.94622 -0.330042 0
M  V30 3110 H 291.328 -3.85301 2.52745 0
M  V30 3111 H 289.643 -3.56601 2.15 0
M  V30 3112 H 292.24 -5.34698 0.0136842 0
M  V30 3113 H 292.583 -4.02261 -1.072 0
M  V30 3114 H 293.116 -3.92873 0.624181 0
M  V30 3115 H 289.855 -5.87781 2.90161 0
M  V30 3116 H 289.375 -5.87896 1.18903 0
M  V30 3117 H 291.054 -6.25658 1.64805 0
M  V30 3118 N 291.186 -0.45159 -1.50991 0
M  V30 3119 C 292.133 0.352625 -2.2809 0
M  V30 3120 C 293.103 1.0044 -1.32291 0
M  V30 3121 O 294.288 1.02058 -1.6121 0
M  V30 3122 C 291.428 1.43983 -3.13629 0
M  V30 3123 C 290.541 0.804772 -4.24438 0
M  V30 3124 C 289.676 1.86822 -4.97263 0
M  V30 3125 C 288.715 1.21236 -5.99973 0
M  V30 3126 N 287.852 2.2178 -6.66152 0
M  V30 3127 H 292.692 -0.311186 -2.96371 0
M  V30 3128 H 290.229 -0.165308 -1.46168 0
M  V30 3129 H 292.187 2.08161 -3.61559 0
M  V30 3130 H 290.817 2.07307 -2.47434 0
M  V30 3131 H 289.869 0.0509129 -3.80366 0
M  V30 3132 H 291.181 0.286076 -4.97979 0
M  V30 3133 H 290.335 2.58628 -5.48813 0
M  V30 3134 H 289.074 2.42068 -4.23385 0
M  V30 3135 H 288.079 0.479828 -5.47702 0
M  V30 3136 H 289.304 0.667051 -6.75816 0
M  V30 3137 H 287.25 2.76079 -5.95077 0
M  V30 3138 H 287.167 1.74841 -7.35504 0
M  V30 3139 H 288.435 2.93026 -7.22327 0
M  V30 3140 N 292.664 1.56529 -0.183458 0
M  V30 3141 C 293.594 2.21549 0.737456 0
M  V30 3142 C 294.575 1.17489 1.23005 0
M  V30 3143 O 295.76 1.45959 1.281 0
M  V30 3144 C 292.89 2.86575 1.96194 0
M  V30 3145 C 291.844 3.96778 1.60473 0
M  V30 3146 C 291.17 4.48911 2.90487 0
M  V30 3147 C 292.47 5.15767 0.823497 0
M  V30 3148 H 294.164 2.98761 0.195453 0
M  V30 3149 H 291.71 1.43702 0.0925686 0
M  V30 3150 H 293.663 3.30739 2.61131 0
M  V30 3151 H 292.387 2.06749 2.52828 0
M  V30 3152 H 291.046 3.53286 0.978997 0
M  V30 3153 H 290.694 3.65862 3.45186 0
M  V30 3154 H 290.394 5.23265 2.67335 0
M  V30 3155 H 291.918 4.95771 3.56432 0
M  V30 3156 H 293.332 5.56549 1.37571 0
M  V30 3157 H 291.729 5.96114 0.690551 0
M  V30 3158 H 292.799 4.84574 -0.177782 0
M  V30 3159 N 294.142 -0.090211 1.57342 0
M  V30 3160 C 295.089 -1.10909 2.02405 0
M  V30 3161 C 296.059 -1.39523 0.901252 0
M  V30 3162 O 297.244 -1.50903 1.1676 0
M  V30 3163 C 294.384 -2.42277 2.45755 0
M  V30 3164 C 293.497 -2.20352 3.71576 0
M  V30 3165 C 292.632 -3.45154 4.03785 0
M  V30 3166 C 291.671 -3.18512 5.22701 0
M  V30 3167 N 290.808 -4.35593 5.50639 0
M  V30 3168 H 295.648 -0.71782 2.89225 0
M  V30 3169 H 293.185 -0.342901 1.43048 0
M  V30 3170 H 295.143 -3.18951 2.68935 0
M  V30 3171 H 293.773 -2.79242 1.61938 0
M  V30 3172 H 292.825 -1.34458 3.55844 0
M  V30 3173 H 294.137 -1.96661 4.58395 0
M  V30 3174 H 293.291 -4.30233 4.27767 0
M  V30 3175 H 292.03 -3.71904 3.15498 0
M  V30 3176 H 291.035 -2.31827 4.98534 0
M  V30 3177 H 292.26 -2.93103 6.12591 0
M  V30 3178 H 290.206 -4.6241 4.6531 0
M  V30 3179 H 290.123 -4.1511 6.31838 0
M  V30 3180 H 291.391 -5.21723 5.7916 0
M  V30 3181 N 295.62 -1.53406 -0.361157 0
M  V30 3182 C 296.553 -1.74946 -1.46524 0
M  V30 3183 C 297.531 -0.59795 -1.51206 0
M  V30 3184 O 298.715 -0.831062 -1.69191 0
M  V30 3185 C 295.842 -1.83224 -2.84863 0
M  V30 3186 C 294.888 -3.05233 -2.97885 0
M  V30 3187 S 295.721 -4.6466 -2.66179 0
M  V30 3188 C 296.877 -4.75793 -4.06659 0
M  V30 3189 H 297.11 -2.68319 -1.28033 0
M  V30 3190 H 294.643 -1.44051 -0.555764 0
M  V30 3191 H 296.601 -1.88679 -3.64569 0
M  V30 3192 H 295.262 -0.908948 -3.00661 0
M  V30 3193 H 294.455 -3.07648 -3.9921 0
M  V30 3194 H 294.057 -2.97913 -2.26106 0
M  V30 3195 H 296.349 -4.5612 -5.0096 0
M  V30 3196 H 297.292 -5.7786 -4.09247 0
M  V30 3197 H 297.7 -4.04389 -3.93865 0
M  V30 3198 N 297.098 0.621204 -1.44841 0
M  V30 3199 C 298.375 1.38 -1.38619 0
M  V30 3200 C 298.755 2.11041 -0.0498935 0
M  V30 3201 O 298.103 2.06992 0.967816 0
M  V30 3202 C 298.313 2.33817 -2.59096 0
M  V30 3203 C 299.661 2.96844 -3.03593 0
M  V30 3204 O 300.685 2.44141 -2.59371 0
M  V30 3205 O 299.544 3.92476 -3.80296 0
M  V30 3206 H 296.638 0.61811 -0.549426 0
M  V30 3207 H 299.184 0.645429 -1.56947 0
M  V30 3208 H 297.956 1.79012 -3.47952 0
M  V30 3209 H 297.579 3.14676 -2.43032 0
M  V30 3210 N 298.576 1.31904 0.862503 0
M  V30 3211 C 299.524 1.20125 1.9918 0
M  V30 3212 C 300.518 0.107824 1.69056 0
M  V30 3213 O 301.724 0.270223 1.7796 0
M  V30 3214 H 298.099 0.372148 0.65346 0
M  V30 3215 H 300.07 2.15652 2.06244 0
M  V30 3216 C 298.819 0.933099 3.34946 0
M  V30 3217 H 298.142 1.76664 3.5865 0
M  V30 3218 H 299.582 0.890892 4.14535 0
M  V30 3219 C 298.041 -0.364172 3.34926 0
M  V30 3220 O 298.571 -1.37858 3.77304 0
M  V30 3221 N 296.777 -0.383362 2.8806 0
M  V30 3222 H 296.324 0.442651 2.53768 0
M  V30 3223 H 296.282 -1.25123 2.8843 0
M  V30 3224 N 300.054 -1.07777 1.14986 0
M  V30 3225 C 301.3 -1.80719 0.93339 0
M  V30 3226 C 301.655 -1.8484 -0.534019 0
M  V30 3227 O 300.948 -1.31795 -1.3907 0
M  V30 3228 C 301.142 -3.25495 1.47608 0
M  V30 3229 C 300.971 -3.3548 2.99472 0
M  V30 3230 C 299.741 -3.46293 3.6798 0
M  V30 3231 C 301.939 -3.26596 3.97291 0
M  V30 3232 N 299.921 -3.45136 5.07695 0
M  V30 3233 C 301.292 -3.32506 5.23297 0
M  V30 3234 C 303.347 -3.10376 3.89321 0
M  V30 3235 C 302.05 -3.23866 6.42264 0
M  V30 3236 C 304.076 -3.03069 5.07842 0
M  V30 3237 C 303.438 -3.09587 6.32721 0
M  V30 3238 H 299.537 -0.674814 0.395158 0
M  V30 3239 H 302.121 -1.28681 1.46114 0
M  V30 3240 H 300.292 -3.75963 0.975022 0
M  V30 3241 H 302.024 -3.86535 1.19887 0
M  V30 3242 H 298.779 -3.50456 3.18555 0
M  V30 3243 H 299.203 -3.48097 5.80653 0
M  V30 3244 H 303.845 -3.04194 2.93642 0
M  V30 3245 H 301.563 -3.28807 7.38181 0
M  V30 3246 H 305.149 -2.91629 5.03432 0
M  V30 3247 H 304.029 -3.0397 7.22891 0
M  V30 3248 N 301.532 -0.945985 -1.26051 0
M  V30 3249 C 302.781 -0.591836 -1.92822 0
M  V30 3250 C 303.094 0.873956 -1.7499 0
M  V30 3251 O 304.3 1.33769 -2.36259 0
M  V30 3252 C 302.756 -1.00776 -3.45503 0
M  V30 3253 C 302.364 -2.4955 -3.7206 0
M  V30 3254 C 304.108 -0.725735 -4.1825 0
M  V30 3255 C 302.015 -2.84988 -5.18205 0
M  V30 3256 H 300.945 -0.217635 -0.721908 0
M  V30 3257 H 303.596 -1.14927 -1.43052 0
M  V30 3258 H 301.978 -0.378812 -3.94184 0
M  V30 3259 H 303.152 -3.1739 -3.34066 0
M  V30 3260 H 301.467 -2.75133 -3.12555 0
M  V30 3261 H 304.064 -0.966771 -5.25887 0
M  V30 3262 H 304.407 0.337639 -4.14929 0
M  V30 3263 H 304.94 -1.31463 -3.7545 0
M  V30 3264 H 301.679 -3.90307 -5.26631 0
M  V30 3265 H 301.199 -2.21813 -5.57278 0
M  V30 3266 H 302.878 -2.73712 -5.86252 0
M  V30 3267 N 303.011 1.40521 -0.713556 0
M  V30 3268 C 304.257 2.01221 -0.252564 0
M  V30 3269 C 304.59 1.56444 1.1506 0
M  V30 3270 O 303.865 0.783597 1.78017 0
M  V30 3271 C 304.148 3.58582 -0.330332 0
M  V30 3272 C 304.001 4.13437 -1.77173 0
M  V30 3273 C 305.32 4.39079 0.299641 0
M  V30 3274 H 302.439 0.731077 -0.0932471 0
M  V30 3275 H 305.081 1.67026 -0.905673 0
M  V30 3276 H 303.231 3.87844 0.225737 0
M  V30 3277 H 304.903 3.9498 -2.38303 0
M  V30 3278 H 303.146 3.67801 -2.3001 0
M  V30 3279 H 303.817 5.22597 -1.77755 0
M  V30 3280 H 306.293 4.15735 -0.174139 0
M  V30 3281 H 305.169 5.4848 0.214771 0
M  V30 3282 H 305.43 4.19915 1.38288 0
M  V30 3283 N 304.489 0.459591 1.5075 0
M  V30 3284 C 305.436 -0.340524 2.28274 0
M  V30 3285 C 306.406 -0.997371 1.32822 0
M  V30 3286 O 307.591 -1.01202 1.61749 0
M  V30 3287 C 304.731 -1.42317 3.14388 0
M  V30 3288 C 303.844 -0.782251 4.24859 0
M  V30 3289 C 302.979 -1.84182 4.98247 0
M  V30 3290 C 302.018 -1.18053 6.00608 0
M  V30 3291 N 301.155 -2.18244 6.67319 0
M  V30 3292 H 305.995 0.326899 2.96202 0
M  V30 3293 H 303.532 0.173057 1.46078 0
M  V30 3294 H 305.49 -2.06241 3.62658 0
M  V30 3295 H 304.12 -2.05992 2.4853 0
M  V30 3296 H 303.172 -0.0307404 3.80388 0
M  V30 3297 H 304.484 -0.259663 4.98124 0
M  V30 3298 H 303.638 -2.55714 5.50177 0
M  V30 3299 H 302.377 -2.39819 4.24662 0
M  V30 3300 H 301.382 -0.450776 5.47949 0
M  V30 3301 H 302.607 -0.631202 6.7616 0
M  V30 3302 H 300.553 -2.72919 5.96533 0
M  V30 3303 H 300.47 -1.70938 7.36421 0
M  V30 3304 H 301.738 -2.89191 7.23871 0
M  V30 3305 O 306.006 -1.58029 0.333053 0
M  V30 3306 H 306.697 -1.92392 -0.224736 0
M  V30 END ATOM
M  V30 BEGIN BOND
M  V30 END BOND
M  V30 END CTAB
M  END
$$$$
