drugbank_target|P61457 Pterin-4-alpha-carbinolamine dehydratase (DB04400)
 OpenBabel12092120553D

  0  0  0     0  0            999 V3000
M  V30 BEGIN CTAB
M  V30 COUNTS 1667 1687 0 0 0
M  V30 BEGIN ATOM
M  V30 1 H -0.908 1.98254 -0.117106 0
M  V30 2 N 0 1.576 0 0
M  V30 3 C 0.933 2.03868 1.02534 0
M  V30 4 C 1.911 0.928543 1.3348 0
M  V30 5 O 3.095 1.19667 1.45644 0
M  V30 6 C 0.222 2.43627 2.35294 0
M  V30 7 C -0.732 3.65373 2.2001 0
M  V30 8 S 0.101 5.13292 1.52614 0
M  V30 9 C 1.257 5.56322 2.86805 0
M  V30 10 H 1.49 2.90518 0.631377 0
M  V30 11 H -0.977 1.52953 0.210867 0
M  V30 12 H 0.981 2.67203 3.11629 0
M  V30 13 H -0.358 1.57376 2.7183 0
M  V30 14 H -1.165 3.90944 3.18086 0
M  V30 15 H -1.563 3.418 1.51819 0
M  V30 16 H 0.729 5.58782 3.83104 0
M  V30 17 H 1.672 6.56266 2.65933 0
M  V30 18 H 2.08 4.83886 2.90714 0
M  V30 19 N 1.4781 -0.272755 1.55222 0
M  V30 20 C 2.4411 -1.32041 1.87344 0
M  V30 21 C 3.4411 -1.42342 0.74803 0
M  V30 22 O 4.6311 -1.41488 1.0162 0
M  V30 23 C 1.7631 -2.70173 2.07893 0
M  V30 24 H 2.9561 -1.04789 2.80997 0
M  V30 25 H 0.5091 -0.51083 1.47717 0
M  V30 26 H 1.2441 -3.02605 1.16622 0
M  V30 27 H 1.0291 -2.64082 2.89833 0
M  V30 28 H 2.5191 -3.45869 2.34017 0
M  V30 29 N 2.9562 -1.48159 -0.537278 0
M  V30 30 C 4.2042 -1.55497 -1.29094 0
M  V30 31 C 4.5252 -0.227454 -1.93669 0
M  V30 32 O 3.7952 0.750386 -1.80959 0
M  V30 33 H 2.3752 -0.572832 -0.47945 0
M  V30 34 H 5.0372 -1.84579 -0.625818 0
M  V30 35 H 4.1332 -2.33216 -2.07405 0
M  V30 36 N 4.4343 0.785586 -1.36625 0
M  V30 37 C 5.3813 1.89838 -1.31264 0
M  V30 38 C 6.3513 1.65115 -0.180633 0
M  V30 39 O 7.5363 1.87222 -0.36777 0
M  V30 40 C 4.6763 3.26706 -1.11163 0
M  V30 41 C 3.7893 3.63476 -2.33472 0
M  V30 42 C 2.9243 4.89481 -2.06353 0
M  V30 43 C 1.9633 5.18941 -3.24602 0
M  V30 44 N 1.1003 6.36131 -2.97123 0
M  V30 45 H 5.9403 1.93756 -2.26413 0
M  V30 46 H 3.4773 0.947454 -1.12524 0
M  V30 47 H 5.4353 4.05639 -0.975337 0
M  V30 48 H 4.0653 3.222 -0.196674 0
M  V30 49 H 3.1173 2.79636 -2.57891 0
M  V30 50 H 4.4293 3.81193 -3.21704 0
M  V30 51 H 3.5833 5.76288 -1.89675 0
M  V30 52 H 2.3223 4.73841 -1.15437 0
M  V30 53 H 1.3273 4.30615 -3.41834 0
M  V30 54 H 2.5523 5.36498 -4.16349 0
M  V30 55 H 0.4983 6.21875 -2.08823 0
M  V30 56 H 0.4153 6.54198 -3.78894 0
M  V30 57 H 1.6833 7.2591 -2.84033 0
M  V30 58 N 5.9124 1.20967 1.01018 0
M  V30 59 C 6.8754 0.965918 2.07853 0
M  V30 60 C 7.8754 -0.0610545 1.60684 0
M  V30 61 O 9.0654 0.175681 1.73312 0
M  V30 62 C 6.1974 0.455513 3.37843 0
M  V30 63 H 7.3904 1.91365 2.3091 0
M  V30 64 H 4.9434 1.02594 1.17916 0
M  V30 65 H 5.6784 -0.497381 3.20463 0
M  V30 66 H 5.4634 1.19622 3.73407 0
M  V30 67 H 6.9534 0.304667 4.16487 0
M  V30 68 N 7.3905 -1.2043 1.01659 0
M  V30 69 C 8.3405 -2.21076 0.557623 0
M  V30 70 C 9.3245 -1.56176 -0.387029 0
M  V30 71 O 10.5165 -1.7575 -0.209996 0
M  V30 72 C 7.6455 -3.43146 -0.102707 0
M  V30 73 C 6.7315 -4.15213 0.863652 0
M  V30 74 N 7.1225 -4.63662 2.02117 0
M  V30 75 C 5.4205 -4.40716 0.684472 0
M  V30 76 C 6.1215 -5.18868 2.62966 0
M  V30 77 N 5.0975 -5.0893 1.91027 0
M  V30 78 H 8.8995 -2.56201 1.44008 0
M  V30 79 H 6.4135 -1.36366 0.881931 0
M  V30 80 H 8.4105 -4.14475 -0.449054 0
M  V30 81 H 7.0705 -3.09526 -0.981003 0
M  V30 82 H 8.0815 -4.58877 2.40109 0
M  V30 83 H 4.7585 -4.17245 -0.14577 0
M  V30 84 H 6.1485 -5.6673 3.60924 0
M  V30 85 N 8.8686 -0.792821 -1.36206 0
M  V30 86 C 10.2846 -0.474903 -1.52371 0
M  V30 87 C 10.4846 1.00622 -1.74578 0
M  V30 88 O 9.5406 1.79162 -1.77924 0
M  V30 89 C 10.8536 -1.3083 -2.70747 0
M  V30 90 C 12.4016 -1.30234 -2.84619 0
M  V30 91 C 12.8766 -2.11956 -4.06004 0
M  V30 92 N 14.3676 -2.09419 -4.13156 0
M  V30 93 C 15.1026 -2.69419 -5.06163 0
M  V30 94 N 14.5986 -3.3829 -6.04592 0
M  V30 95 N 16.3916 -2.59134 -4.98804 0
M  V30 96 H 8.5426 -1.75222 -1.20046 0
M  V30 97 H 10.8056 -0.745024 -0.586211 0
M  V30 98 H 10.5116 -2.35881 -2.6087 0
M  V30 99 H 10.3856 -0.95196 -3.6499 0
M  V30 100 H 12.7726 -0.259748 -2.93955 0
M  V30 101 H 12.8536 -1.69847 -1.91274 0
M  V30 102 H 12.4976 -3.16248 -3.97429 0
M  V30 103 H 12.4276 -1.69711 -4.98503 0
M  V30 104 H 14.9186 -1.59297 -3.42685 0
M  V30 105 H 15.2316 -3.81394 -6.7213 0
M  V30 106 H 13.5766 -3.42393 -6.04807 0
M  V30 107 H 16.7676 -2.04927 -4.20859 0
M  V30 108 H 16.9406 -3.06185 -5.711 0
M  V30 109 N 10.3467 1.47872 -0.545128 0
M  V30 110 C 11.2767 2.32661 0.197793 0
M  V30 111 C 12.2577 1.43041 0.920504 0
M  V30 112 O 13.4427 1.71912 0.90333 0
M  V30 113 C 10.5727 3.24569 1.23582 0
M  V30 114 C 9.5267 4.23333 0.630323 0
M  V30 115 C 8.8527 5.0448 1.77211 0
M  V30 116 C 10.1527 5.20704 -0.407974 0
M  V30 117 H 11.8467 2.95024 -0.510045 0
M  V30 118 H 9.3927 1.4187 -0.246731 0
M  V30 119 H 11.3457 3.8272 1.76362 0
M  V30 120 H 10.0697 2.60236 1.97344 0
M  V30 121 H 8.7287 3.6639 0.123922 0
M  V30 122 H 8.3767 4.36561 2.49847 0
M  V30 123 H 8.0767 5.71339 1.37281 0
M  V30 124 H 9.6007 5.65487 2.3034 0
M  V30 125 H 11.0147 5.7329 0.033305 0
M  V30 126 H 9.4117 5.95699 -0.725486 0
M  V30 127 H 10.4817 4.66917 -1.30828 0
M  V30 128 N 11.8248 0.280983 1.55075 0
M  V30 129 C 13.0498 -0.340154 2.04592 0
M  V30 130 C 13.4748 -1.48246 1.15779 0
M  V30 131 O 12.8328 -1.80614 0.15761 0
M  V30 132 C 12.8808 -0.793104 3.5177 0
M  V30 133 O 11.9848 -1.89981 3.66034 0
M  V30 134 H 11.3258 -0.0694289 0.66036 0
M  V30 135 H 13.8558 0.416993 2.00306 0
M  V30 136 H 13.8658 -1.08729 3.93245 0
M  V30 137 H 12.5408 0.0426163 4.15878 0
M  V30 138 H 11.1178 -1.60771 3.36463 0
M  V30 139 N 13.3029 -1.57598 0.00835791 0
M  V30 140 C 14.2659 -2.07884 -0.965242 0
M  V30 141 C 15.2659 -0.989825 -1.26725 0
M  V30 142 O 16.4559 -1.25218 -1.21104 0
M  V30 143 C 13.5879 -2.52731 -2.28779 0
M  V30 144 H 14.7809 -2.95178 -0.530112 0
M  V30 145 H 12.3339 -1.54458 -0.239283 0
M  V30 146 H 13.0689 -1.68705 -2.76964 0
M  V30 147 H 12.8539 -3.32272 -2.08177 0
M  V30 148 H 14.3439 -2.91933 -2.98605 0
M  V30 149 N 14.781 0.264519 -1.55364 0
M  V30 150 C 15.691 1.34902 -1.91934 0
M  V30 151 C 16.707 1.53595 -0.817593 0
M  V30 152 O 17.883 1.67558 -1.11742 0
M  V30 153 C 14.948 2.68676 -2.19121 0
M  V30 154 C 14.009 2.58657 -3.4263 0
M  V30 155 C 13.242 3.86051 -3.68511 0
M  V30 156 O 13.465 4.87126 -2.96757 0
M  V30 157 O 12.399 3.85744 -4.62045 0
M  V30 158 H 16.225 1.06883 -2.8427 0
M  V30 159 H 13.81 0.463775 -1.42019 0
M  V30 160 H 15.692 3.47759 -2.37995 0
M  V30 161 H 14.367 2.96463 -1.29966 0
M  V30 162 H 13.274 1.7792 -3.29082 0
M  V30 163 H 14.607 2.35818 -4.32031 0
M  V30 164 N 16.2591 1.48442 0.529413 0
M  V30 165 C 17.1691 1.6569 1.66084 0
M  V30 166 C 18.1851 0.539432 1.65427 0
M  V30 167 O 19.3611 0.810572 1.84368 0
M  V30 168 C 16.4261 1.69315 3.02545 0
M  V30 169 C 15.4871 2.92694 3.14052 0
M  V30 170 C 14.7201 2.96137 4.44003 0
M  V30 171 O 14.9431 2.07973 5.31134 0
M  V30 172 O 13.8771 3.88312 4.59888 0
M  V30 173 H 17.7031 2.61483 1.54469 0
M  V30 174 H 15.2881 1.3185 0.702567 0
M  V30 175 H 17.1701 1.74217 3.83701 0
M  V30 176 H 15.8451 0.766966 3.14483 0
M  V30 177 H 14.7521 2.93324 2.32189 0
M  V30 178 H 16.0851 3.84699 3.0703 0
M  V30 179 N 17.7372 -0.778329 1.37039 0
M  V30 180 C 19.1532 -1.07796 1.17695 0
M  V30 181 C 19.3532 -2.01498 0.00860115 0
M  V30 182 O 18.4092 -2.43901 -0.653352 0
M  V30 183 C 19.7222 -1.68178 2.49272 0
M  V30 184 C 21.2702 -1.80467 2.55735 0
M  V30 185 C 21.7452 -2.44263 3.87427 0
M  V30 186 N 23.2362 -2.51721 3.88833 0
M  V30 187 C 23.9712 -3.01919 4.87476 0
M  V30 188 N 23.4672 -3.5234 5.96513 0
M  V30 189 N 25.2602 -3.00733 4.74885 0
M  V30 190 H 17.4112 -0.156032 2.11826 0
M  V30 191 H 19.6742 -0.131844 0.938787 0
M  V30 192 H 19.3802 -1.06796 3.35093 0
M  V30 193 H 19.2542 -2.67554 2.65885 0
M  V30 194 H 21.6412 -2.40984 1.70325 0
M  V30 195 H 21.7222 -0.798656 2.43013 0
M  V30 196 H 21.3662 -1.84388 4.73248 0
M  V30 197 H 21.2962 -3.45458 3.9745 0
M  V30 198 H 23.7872 -2.1603 3.10063 0
M  V30 199 H 24.1002 -3.89027 6.67741 0
M  V30 200 H 22.4452 -3.50462 6.00168 0
M  V30 201 H 25.6362 -2.60638 3.88826 0
M  V30 202 H 25.8092 -3.39545 5.51918 0
M  V30 203 N 19.2153 -1.21501 -1.00376 0
M  V30 204 C 20.4923 -0.941745 -1.71437 0
M  V30 205 C 20.8723 0.546114 -2.03914 0
M  V30 206 O 20.2203 1.51128 -1.71384 0
M  V30 207 C 20.4303 -1.82812 -2.97289 0
M  V30 208 C 21.7783 -2.07771 -3.70292 0
M  V30 209 O 22.8023 -1.80171 -3.07273 0
M  V30 210 O 21.6613 -2.54456 -4.83647 0
M  V30 211 H 18.7553 -0.353243 -0.747762 0
M  V30 212 H 21.3013 -1.32436 -1.06108 0
M  V30 213 H 20.0733 -2.83501 -2.69709 0
M  V30 214 H 19.6963 -1.4464 -3.70358 0
M  V30 215 N 20.6934 1.19889 -1.02296 0
M  V30 216 C 21.6254 2.22334 -0.556787 0
M  V30 217 C 22.6384 1.58674 0.364199 0
M  V30 218 O 23.8274 1.77768 0.161533 0
M  V30 219 C 20.9274 3.38257 0.208694 0
M  V30 220 C 20.1004 4.31504 -0.71577 0
M  V30 221 C 19.1594 5.262 0.00325597 0
M  V30 222 O 18.1854 5.65798 -0.621357 0
M  V30 223 N 19.3874 5.66303 1.27599 0
M  V30 224 H 22.1524 2.62957 -1.43784 0
M  V30 225 H 19.7134 1.34495 -0.901261 0
M  V30 226 H 21.7054 3.98616 0.699111 0
M  V30 227 H 20.2754 2.96472 0.991102 0
M  V30 228 H 19.4954 3.69016 -1.38638 0
M  V30 229 H 20.7834 4.9072 -1.34428 0
M  V30 230 H 20.1814 5.36155 1.80429 0
M  V30 231 H 18.7384 6.28942 1.71102 0
M  V30 232 N 22.1715 0.800033 1.35784 0
M  V30 233 C 23.1015 0.220184 2.3246 0
M  V30 234 C 24.0825 -0.65073 1.57161 0
M  V30 235 O 25.2675 -0.582359 1.85263 0
M  V30 236 C 22.3975 -0.637353 3.41402 0
M  V30 237 C 21.3515 0.134531 4.27789 0
M  V30 238 C 20.6775 -0.844285 5.27992 0
M  V30 239 C 21.9775 1.32979 5.05088 0
M  V30 240 H 23.6715 1.02787 2.81203 0
M  V30 241 H 21.2175 0.495717 1.35199 0
M  V30 242 H 23.1705 -1.05302 4.08031 0
M  V30 243 H 21.8945 -1.47785 2.91251 0
M  V30 244 H 20.5535 0.531296 3.6273 0
M  V30 245 H 20.2015 -1.68011 4.74111 0
M  V30 246 H 19.9015 -0.332184 5.8666 0
M  V30 247 H 21.4255 -1.2583 5.97494 0
M  V30 248 H 22.8395 0.98934 5.64699 0
M  V30 249 H 21.2365 1.77593 5.7322 0
M  V30 250 H 22.3065 2.11978 4.36111 0
M  V30 251 N 23.6496 -1.47581 0.552962 0
M  V30 252 C 24.5796 -2.32762 -0.185451 0
M  V30 253 C 25.5606 -1.43527 -0.912905 0
M  V30 254 O 26.7456 -1.72388 -0.894201 0
M  V30 255 C 23.8756 -3.25219 -1.21859 0
M  V30 256 C 22.8296 -4.23661 -0.607864 0
M  V30 257 C 22.1556 -5.05413 -1.74533 0
M  V30 258 C 23.4556 -5.20481 0.435582 0
M  V30 259 H 25.1496 -2.94749 0.525684 0
M  V30 260 H 22.6956 -1.41738 0.254251 0
M  V30 261 H 24.6486 -3.8365 -1.7433 0
M  V30 262 H 23.3726 -2.61279 -1.95961 0
M  V30 263 H 22.0316 -3.66451 -0.104489 0
M  V30 264 H 21.6796 -4.3788 -2.47529 0
M  V30 265 H 21.3796 -5.72059 -1.34249 0
M  V30 266 H 22.9036 -5.66701 -2.27338 0
M  V30 267 H 24.3176 -5.733 -0.00290157 0
M  V30 268 H 22.7146 -5.95305 0.757067 0
M  V30 269 H 23.7846 -4.66217 1.33303 0
M  V30 270 N 25.1277 -0.289203 -1.54924 0
M  V30 271 C 26.5387 0.205791 -1.85562 0
M  V30 272 C 26.8897 1.54351 -1.2112 0
M  V30 273 O 26.0147 2.10435 -0.504601 0
M  V30 274 C 26.6097 0.380177 -3.3666 0
M  V30 275 C 25.1687 0.819395 -3.67373 0
M  V30 276 C 24.3157 -0.079159 -2.77187 0
M  V30 277 H 27.2667 -0.510577 -1.50262 0
M  V30 278 H 27.2877 1.21659 -3.60526 0
M  V30 279 H 26.7997 -0.593589 -3.83534 0
M  V30 280 H 24.9007 1.80413 -3.26009 0
M  V30 281 H 25.0137 0.646957 -4.74712 0
M  V30 282 H 23.3777 0.439565 -2.50878 0
M  V30 283 H 24.1607 -1.04906 -3.26878 0
M  V30 284 N 26.6058 1.57591 -0.0167156 0
M  V30 285 C 27.5538 2.10604 0.987353 0
M  V30 286 C 28.5478 1.02977 1.34507 0
M  V30 287 O 29.7538 1.21425 1.32875 0
M  V30 288 H 26.1288 0.672695 0.336134 0
M  V30 289 H 28.0998 2.93925 0.514817 0
M  V30 290 C 26.8488 2.6382 2.26483 0
M  V30 291 H 26.1718 3.46278 1.99829 0
M  V30 292 H 27.6118 3.04573 2.94977 0
M  V30 293 C 26.0708 1.55992 2.9861 0
M  V30 294 O 26.6008 0.952521 3.90243 0
M  V30 295 N 24.8068 1.28335 2.60727 0
M  V30 296 H 24.3538 1.77914 1.86291 0
M  V30 297 H 24.3118 0.564115 3.09298 0
M  V30 298 N 28.0839 -0.256276 1.55502 0
M  V30 299 C 29.0139 -1.32102 1.92539 0
M  V30 300 C 29.9949 -1.50684 0.789194 0
M  V30 301 O 31.1799 -1.63449 1.04872 0
M  V30 302 C 28.3099 -2.67752 2.21192 0
M  V30 303 C 27.2639 -2.63878 3.36975 0
M  V30 304 C 26.5899 -4.03236 3.51147 0
M  V30 305 C 27.8899 -2.21682 4.72921 0
M  V30 306 H 29.5839 -1.01351 2.81724 0
M  V30 307 H 27.1299 -0.486105 1.35547 0
M  V30 308 H 29.0829 -3.42365 2.45691 0
M  V30 309 H 27.8069 -3.0012 1.28824 0
M  V30 310 H 26.4659 -1.91722 3.12471 0
M  V30 311 H 26.1139 -4.32854 2.56216 0
M  V30 312 H 25.8139 -4.01535 4.29003 0
M  V30 313 H 27.3379 -4.79563 3.77957 0
M  V30 314 H 28.7519 -2.86023 4.96854 0
M  V30 315 H 27.1489 -2.3111 5.53812 0
M  V30 316 H 28.2189 -1.16833 4.70615 0
M  V30 317 N 29.562 -1.4872 -0.521534 0
M  V30 318 C 30.978 -1.35028 -0.850855 0
M  V30 319 C 31.178 -0.367712 -1.98116 0
M  V30 320 O 30.234 0.208037 -2.51642 0
M  V30 321 C 31.547 -2.75263 -1.21041 0
M  V30 322 C 33.095 -2.83813 -1.31981 0
M  V30 323 C 33.57 -4.24769 -1.71276 0
M  V30 324 N 35.061 -4.27482 -1.78363 0
M  V30 325 C 35.796 -5.33494 -2.1017 0
M  V30 326 N 35.292 -6.49775 -2.40343 0
M  V30 327 N 37.085 -5.20894 -2.11248 0
M  V30 328 H 29.236 -2.11214 0.22413 0
M  V30 329 H 31.499 -0.947252 0.0376439 0
M  V30 330 H 31.205 -3.48765 -0.453415 0
M  V30 331 H 31.079 -3.09327 -2.15863 0
M  V30 332 H 33.466 -2.10561 -2.06756 0
M  V30 333 H 33.547 -2.53358 -0.352596 0
M  V30 334 H 33.191 -4.9854 -0.970588 0
M  V30 335 H 33.121 -4.52673 -2.69062 0
M  V30 336 H 35.612 -3.43611 -1.57288 0
M  V30 337 H 35.925 -7.26402 -2.63743 0
M  V30 338 H 34.27 -6.53035 -2.37844 0
M  V30 339 H 37.461 -4.29065 -1.87139 0
M  V30 340 H 37.634 -6.03612 -2.35704 0
M  V30 341 N 31.0401 0.771051 -1.3745 0
M  V30 342 C 32.0031 1.86598 -1.33093 0
M  V30 343 C 33.0031 1.59076 -0.234845 0
M  V30 344 O 34.1931 1.67145 -0.490732 0
M  V30 345 C 31.3251 3.23747 -1.06773 0
M  V30 346 H 32.5181 1.91873 -2.30488 0
M  V30 347 H 30.0711 0.970876 -1.2249 0
M  V30 348 H 30.8061 3.24148 -0.099129 0
M  V30 349 H 30.5911 3.45115 -1.86112 0
M  V30 350 H 32.0811 4.03824 -1.06377 0
M  V30 351 N 32.5182 1.22032 0.997298 0
M  V30 352 C 33.7642 1.04376 1.73878 0
M  V30 353 C 34.0972 -0.420716 1.89588 0
M  V30 354 O 33.3722 -1.31202 1.43583 0
M  V30 355 C 33.6552 1.75047 3.14691 0
M  V30 356 C 33.5082 3.29062 3.06656 0
M  V30 357 C 34.8272 1.49928 4.13775 0
M  V30 358 H 31.9462 0.380578 0.631133 0
M  V30 359 H 34.5882 1.50312 1.16217 0
M  V30 360 H 32.7382 1.35996 3.63919 0
M  V30 361 H 34.4102 3.7753 2.65083 0
M  V30 362 H 32.6532 3.58967 2.43568 0
M  V30 363 H 33.3242 3.73683 4.06282 0
M  V30 364 H 35.8002 1.83842 3.73285 0
M  V30 365 H 34.6762 2.01878 5.10428 0
M  V30 366 H 34.9372 0.430929 4.39995 0
M  V30 367 N 33.9963 -1.19345 1.0293 0
M  V30 368 C 35.2443 -1.88665 0.724574 0
M  V30 369 C 35.5653 -1.80036 -0.749144 0
M  V30 370 O 34.8353 -1.2111 -1.53978 0
M  V30 371 H 33.4153 -0.698406 0.265025 0
M  V30 372 H 36.0773 -1.44885 1.30362 0
M  V30 373 H 35.1733 -2.94987 1.01926 0
M  V30 374 N 35.4744 -0.807222 -1.35358 0
M  V30 375 C 36.7204 -0.397594 -1.99476 0
M  V30 376 C 37.0754 1.02405 -1.62883 0
M  V30 377 O 36.3684 1.70077 -0.882282 0
M  V30 378 C 36.5624 -0.519036 -3.53611 0
M  V30 379 C 36.3914 -1.95094 -4.05177 0
M  V30 380 C 35.1614 -2.57945 -4.34503 0
M  V30 381 C 37.3594 -2.91558 -4.23673 0
M  V30 382 N 35.3414 -3.92539 -4.72003 0
M  V30 383 C 36.7124 -4.11024 -4.64176 0
M  V30 384 C 38.7674 -2.88381 -4.05883 0
M  V30 385 C 37.4704 -5.27745 -4.88751 0
M  V30 386 C 39.4964 -4.04306 -4.31614 0
M  V30 387 C 38.8584 -5.22519 -4.72391 0
M  V30 388 H 34.9574 -0.193274 -0.75774 0
M  V30 389 H 37.5414 -1.0486 -1.6405 0
M  V30 390 H 35.7124 0.101979 -3.88266 0
M  V30 391 H 37.4444 -0.0839321 -4.04613 0
M  V30 392 H 34.1994 -2.09295 -4.24844 0
M  V30 393 H 34.6234 -4.61836 -4.95011 0
M  V30 394 H 39.2654 -1.98137 -3.73499 0
M  V30 395 H 36.9834 -6.1856 -5.20008 0
M  V30 396 H 40.5694 -4.03229 -4.19402 0
M  V30 397 H 39.4494 -6.1073 -4.91913 0
M  V30 398 N 36.9525 1.47285 -0.560781 0
M  V30 399 C 37.9005 2.31756 0.197942 0
M  V30 400 C 38.8945 1.43146 0.905854 0
M  V30 401 O 40.1005 1.59891 0.826733 0
M  V30 402 H 36.4755 0.747438 0.0827049 0
M  V30 403 H 38.4465 2.9359 -0.533629 0
M  V30 404 C 37.1955 3.25874 1.21249 0
M  V30 405 H 36.5185 3.94023 0.67719 0
M  V30 406 H 37.9585 3.87803 1.71419 0
M  V30 407 C 36.4175 2.49651 2.26221 0
M  V30 408 O 36.9475 2.24355 3.33208 0
M  V30 409 N 35.1535 2.10597 2.00243 0
M  V30 410 H 34.7005 2.31369 1.13252 0
M  V30 411 H 34.6585 1.59913 2.70694 0
M  V30 412 N 38.4306 0.297415 1.54768 0
M  V30 413 C 39.3406 -0.58983 2.27064 0
M  V30 414 C 40.3566 -1.15144 1.30453 0
M  V30 415 O 41.5326 -1.17699 1.63428 0
M  V30 416 C 38.5976 -1.74714 2.9946 0
M  V30 417 C 37.6586 -1.21997 4.11601 0
M  V30 418 C 36.8916 -2.32212 4.80535 0
M  V30 419 O 37.1146 -3.52036 4.48806 0
M  V30 420 O 36.0486 -1.99106 5.68014 0
M  V30 421 H 39.8746 -0.00348199 3.037 0
M  V30 422 H 37.4596 0.0640035 1.49263 0
M  V30 423 H 39.3416 -2.42147 3.44881 0
M  V30 424 H 38.0166 -2.32016 2.25722 0
M  V30 425 H 36.9236 -0.511458 3.70587 0
M  V30 426 H 38.2566 -0.692419 4.87305 0
M  V30 427 N 39.9087 -1.5758 0.0250728 0
M  V30 428 C 40.8387 -2.13007 -0.956575 0
M  V30 429 C 41.8197 -1.0452 -1.342 0
M  V30 430 O 43.0047 -1.32332 -1.42133 0
M  V30 431 C 40.1347 -2.65386 -2.24026 0
M  V30 432 C 39.0887 -3.78623 -1.99571 0
M  V30 433 C 38.4147 -4.17414 -3.3417 0
M  V30 434 C 39.7147 -5.04867 -1.33814 0
M  V30 435 H 41.4087 -2.9528 -0.494991 0
M  V30 436 H 38.9547 -1.42042 -0.236651 0
M  V30 437 H 40.9077 -3.02794 -2.93076 0
M  V30 438 H 39.6317 -1.80268 -2.72343 0
M  V30 439 H 38.2907 -3.41646 -1.32941 0
M  V30 440 H 37.9387 -3.29284 -3.80238 0
M  V30 441 H 37.6387 -4.93719 -3.18615 0
M  V30 442 H 39.1627 -4.57402 -4.04495 0
M  V30 443 H 40.5767 -5.39888 -1.92857 0
M  V30 444 H 38.9737 -5.86144 -1.28669 0
M  V30 445 H 40.0437 -4.83904 -0.310561 0
M  V30 446 N 41.3868 0.248026 -1.55636 0
M  V30 447 C 42.2968 1.32859 -1.93354 0
M  V30 448 C 43.3128 1.52719 -0.833838 0
M  V30 449 O 44.4888 1.66363 -1.13513 0
M  V30 450 C 41.5538 2.66337 -2.21958 0
M  V30 451 C 40.6148 2.55008 -3.45354 0
M  V30 452 C 39.8478 3.82121 -3.72584 0
M  V30 453 O 40.0708 4.83951 -3.01907 0
M  V30 454 O 39.0048 3.80822 -4.6611 0
M  V30 455 H 42.8308 1.03862 -2.85388 0
M  V30 456 H 40.4158 0.448686 -1.42503 0
M  V30 457 H 42.2978 3.45216 -2.4167 0
M  V30 458 H 40.9728 2.95068 -1.33103 0
M  V30 459 H 39.8798 1.7442 -3.30951 0
M  V30 460 H 41.2128 2.31222 -4.34508 0
M  V30 461 N 42.8649 1.48995 0.513639 0
M  V30 462 C 44.1129 1.57531 1.26604 0
M  V30 463 C 44.4339 0.258236 1.93283 0
M  V30 464 O 43.7039 -0.721502 1.8213 0
M  V30 465 H 42.2839 0.580387 0.470276 0
M  V30 466 H 44.9459 1.85552 0.596373 0
M  V30 467 H 44.0419 2.36486 2.03669 0
M  V30 468 N 44.343 -0.763751 1.37857 0
M  V30 469 C 45.759 -1.06542 1.18832 0
M  V30 470 C 45.959 -2.01478 0.0299722 0
M  V30 471 O 45.015 -2.4458 -0.627447 0
M  V30 472 C 46.328 -1.65525 2.51042 0
M  V30 473 C 47.876 -1.77745 2.57635 0
M  V30 474 C 48.351 -2.4014 3.89996 0
M  V30 475 N 49.842 -2.47582 3.91481 0
M  V30 476 C 50.577 -2.96732 4.9065 0
M  V30 477 N 50.073 -3.45993 6.00217 0
M  V30 478 N 51.866 -2.95679 4.78048 0
M  V30 479 H 44.017 -0.133556 2.1198 0
M  V30 480 H 46.28 -0.121879 0.940133 0
M  V30 481 H 45.986 -1.03236 3.36207 0
M  V30 482 H 45.86 -2.64719 2.68707 0
M  V30 483 H 48.247 -2.39164 1.72872 0
M  V30 484 H 48.328 -0.772836 2.43846 0
M  V30 485 H 47.972 -1.79358 4.75177 0
M  V30 486 H 47.902 -3.41223 4.01092 0
M  V30 487 H 50.393 -2.1273 3.12337 0
M  V30 488 H 50.706 -3.81922 6.7183 0
M  V30 489 H 49.051 -3.44077 6.03851 0
M  V30 490 H 52.242 -2.56499 3.91568 0
M  V30 491 H 52.415 -3.33672 5.55488 0
M  V30 492 N 45.8211 -1.22559 -0.990812 0
M  V30 493 C 47.0981 -0.959875 -1.70428 0
M  V30 494 C 47.4781 0.524455 -2.04481 0
M  V30 495 O 46.8261 1.49302 -1.72977 0
M  V30 496 C 47.0361 -1.85955 -2.95333 0
M  V30 497 C 48.3841 -2.11687 -3.68068 0
M  V30 498 O 49.4081 -1.8342 -3.05345 0
M  V30 499 O 48.2671 -2.59572 -4.80921 0
M  V30 500 H 45.3611 -0.361154 -0.743974 0
M  V30 501 H 47.9071 -1.33554 -1.04697 0
M  V30 502 H 46.6791 -2.86346 -2.66687 0
M  V30 503 H 46.3021 -1.4856 -3.68803 0
M  V30 504 N 47.2992 1.18797 -1.03562 0
M  V30 505 C 48.2622 2.20464 -0.626769 0
M  V30 506 C 49.2622 1.57721 0.313173 0
M  V30 507 O 50.4522 1.73917 0.0992615 0
M  V30 508 C 47.5842 3.40802 0.0818498 0
M  V30 509 H 48.7772 2.58149 -1.5264 0
M  V30 510 H 46.3302 1.32593 -0.827578 0
M  V30 511 H 47.0652 3.08642 0.995518 0
M  V30 512 H 46.8502 3.8758 -0.593652 0
M  V30 513 H 48.3402 4.16092 0.354584 0
M  V30 514 N 48.7773 0.814389 1.34928 0
M  V30 515 C 50.0263 0.394871 1.97797 0
M  V30 516 C 50.3393 -1.04555 1.65311 0
M  V30 517 O 51.5453 -1.56856 2.21604 0
M  V30 518 C 50.0013 0.655103 3.53888 0
M  V30 519 C 49.6093 2.10858 3.95276 0
M  V30 520 C 51.3533 0.301329 4.23429 0
M  V30 521 C 49.2603 2.31415 5.44244 0
M  V30 522 H 48.1903 0.143913 0.740139 0
M  V30 523 H 50.8413 0.999544 1.53888 0
M  V30 524 H 49.2233 -0.0196253 3.95995 0
M  V30 525 H 50.3973 2.82176 3.64298 0
M  V30 526 H 48.7123 2.42297 3.38646 0
M  V30 527 H 51.3093 0.432869 5.32945 0
M  V30 528 H 51.6523 -0.75331 4.09428 0
M  V30 529 H 52.1853 0.930288 3.86769 0
M  V30 530 H 48.9243 3.35353 5.63222 0
M  V30 531 H 48.4443 1.6463 5.76764 0
M  V30 532 H 50.1233 2.13352 6.10811 0
M  V30 533 N 50.2554 -1.46986 0.568584 0
M  V30 534 C 51.5024 -2.02441 0.0487986 0
M  V30 535 C 51.8304 -1.44169 -1.30559 0
M  V30 536 O 51.0854 -0.591213 -1.86556 0
M  V30 537 C 51.3844 -3.57306 -0.081836 0
M  V30 538 C 51.0504 -4.34552 1.20313 0
M  V30 539 C 49.7124 -4.55376 1.5552 0
M  V30 540 C 52.0644 -4.79016 2.05411 0
M  V30 541 C 49.3924 -5.17913 2.7565 0
M  V30 542 C 51.7444 -5.42879 3.24754 0
M  V30 543 C 50.4084 -5.61933 3.60261 0
M  V30 544 H 49.6784 -0.740785 0.0178567 0
M  V30 545 H 52.3254 -1.76525 0.742384 0
M  V30 546 H 50.6304 -3.8228 -0.858463 0
M  V30 547 H 52.3274 -3.97876 -0.499546 0
M  V30 548 H 48.9174 -4.18631 0.919014 0
M  V30 549 H 53.1014 -4.62696 1.79516 0
M  V30 550 H 48.3574 -5.30858 3.03315 0
M  V30 551 H 52.5314 -5.76293 3.90973 0
M  V30 552 H 50.1584 -6.10161 4.53439 0
M  V30 553 N 51.7335 -0.305618 -1.54608 0
M  V30 554 C 52.6805 0.568421 -2.23691 0
M  V30 555 C 53.6505 1.12592 -1.22116 0
M  V30 556 O 54.8355 1.16959 -1.50749 0
M  V30 557 C 51.9755 1.7322 -2.98477 0
M  V30 558 C 51.0885 1.20566 -4.14835 0
M  V30 559 C 50.2235 2.33368 -4.77193 0
M  V30 560 C 49.2625 1.7787 -5.85686 0
M  V30 561 N 48.3995 2.84263 -6.4198 0
M  V30 562 H 53.2395 -0.0272867 -2.97988 0
M  V30 563 H 50.7765 -0.0252363 -1.47078 0
M  V30 564 H 52.7345 2.41675 -3.40072 0
M  V30 565 H 51.3645 2.29947 -2.26548 0
M  V30 566 H 50.4165 0.413223 -3.78149 0
M  V30 567 H 51.7285 0.759417 -4.92985 0
M  V30 568 H 50.8825 3.09761 -5.21664 0
M  V30 569 H 49.6215 2.8132 -3.98385 0
M  V30 570 H 48.6265 0.99968 -5.40635 0
M  V30 571 H 49.8515 1.30816 -6.66381 0
M  V30 572 H 47.7975 3.31541 -5.66053 0
M  V30 573 H 47.7145 2.44149 -7.15491 0
M  V30 574 H 48.9825 3.6054 -6.91109 0
M  V30 575 N 53.2116 1.57565 -0.0334293 0
M  V30 576 C 54.1436 2.0739 0.975811 0
M  V30 577 C 55.1566 0.998166 1.2861 0
M  V30 578 O 56.3456 1.27426 1.25 0
M  V30 579 C 53.4456 2.4871 2.30209 0
M  V30 580 C 52.6186 3.79413 2.17634 0
M  V30 581 C 51.6776 4.07237 3.33233 0
M  V30 582 O 50.7036 4.77425 3.09927 0
M  V30 583 N 51.9056 3.5775 4.5716 0
M  V30 584 H 54.6706 2.94598 0.55066 0
M  V30 585 H 52.2316 1.61173 0.15323 0
M  V30 586 H 54.2236 2.64413 3.06378 0
M  V30 587 H 52.7936 1.66845 2.64351 0
M  V30 588 H 52.0136 3.73465 1.26165 0
M  V30 589 H 53.3016 4.65038 2.0644 0
M  V30 590 H 52.6996 3.00976 4.78989 0
M  V30 591 H 51.2566 3.78724 5.30482 0
M  V30 592 N 54.6897 -0.239769 1.55765 0
M  V30 593 C 55.9367 -0.966801 1.7793 0
M  V30 594 C 56.2647 -1.85046 0.599015 0
M  V30 595 O 55.5197 -1.91197 -0.417395 0
M  V30 596 C 55.8187 -1.852 3.05672 0
M  V30 597 C 55.4847 -1.1231 4.36689 0
M  V30 598 C 54.1467 -0.921689 4.72291 0
M  V30 599 C 56.4987 -0.607019 5.17653 0
M  V30 600 C 53.8267 -0.191996 5.86386 0
M  V30 601 C 56.1787 0.109241 6.32506 0
M  V30 602 C 54.8427 0.322073 6.66723 0
M  V30 603 H 54.1127 -0.353778 0.651093 0
M  V30 604 H 56.7597 -0.23634 1.90036 0
M  V30 605 H 55.0647 -2.64975 2.8861 0
M  V30 606 H 56.7617 -2.41635 3.20021 0
M  V30 607 H 53.3517 -1.29004 4.08725 0
M  V30 608 H 57.5357 -0.750153 4.90598 0
M  V30 609 H 52.7917 -0.0166949 6.11398 0
M  V30 610 H 56.9657 0.516737 6.9448 0
M  V30 611 H 54.5927 0.88944 7.54979 0
M  V30 612 N 56.1678 -1.49265 -0.50573 0
M  V30 613 C 57.1178 -1.6198 -1.60457 0
M  V30 614 C 58.1018 -0.47568 -1.53708 0
M  V30 615 O 59.2938 -0.728392 -1.61318 0
M  V30 616 C 56.4228 -1.68526 -2.99089 0
M  V30 617 C 55.5088 -2.885 -3.10852 0
M  V30 618 N 55.8998 -4.12635 -2.92517 0
M  V30 619 C 54.1978 -2.86338 -3.41945 0
M  V30 620 C 54.8988 -4.93258 -3.08337 0
M  V30 621 N 53.8748 -4.26533 -3.37003 0
M  V30 622 H 57.6768 -2.55681 -1.44928 0
M  V30 623 H 55.1908 -1.45972 -0.711752 0
M  V30 624 H 57.1878 -1.75732 -3.78053 0
M  V30 625 H 55.8478 -0.759584 -3.1569 0
M  V30 626 H 56.8588 -4.42689 -2.68787 0
M  V30 627 H 53.5358 -2.03129 -3.64753 0
M  V30 628 H 54.9258 -6.01856 -2.98695 0
M  V30 629 N 57.6459 0.756429 -1.3826 0
M  V30 630 C 58.8929 1.51547 -1.34312 0
M  V30 631 C 59.2209 1.94382 0.0677144 0
M  V30 632 O 58.4759 1.65514 1.04421 0
M  V30 633 C 58.7749 2.78313 -2.24224 0
M  V30 634 C 58.4409 2.54455 -3.72241 0
M  V30 635 C 57.1029 2.47657 -4.12576 0
M  V30 636 C 59.4549 2.3354 -4.65949 0
M  V30 637 C 56.7829 2.17956 -5.44713 0
M  V30 638 C 59.1349 2.05359 -5.9834 0
M  V30 639 C 57.7989 1.97016 -6.37762 0
M  V30 640 H 57.0689 0.55455 -0.491482 0
M  V30 641 H 59.7159 0.870039 -1.70595 0
M  V30 642 H 58.0209 3.47492 -1.80987 0
M  V30 643 H 59.7179 3.36259 -2.18474 0
M  V30 644 H 56.3079 2.60616 -3.40261 0
M  V30 645 H 60.4919 2.37772 -4.35635 0
M  V30 646 H 55.7479 2.10003 -5.74203 0
M  V30 647 H 59.9219 1.88179 -6.70494 0
M  V30 648 H 57.5489 1.73766 -7.40074 0
M  V30 649 N 59.124 1.23083 0.984299 0
M  V30 650 C 60.071 1.00854 2.07598 0
M  V30 651 C 61.041 -0.0726709 1.65941 0
M  V30 652 O 62.226 0.0786535 1.90638 0
M  V30 653 C 59.366 0.601645 3.39815 0
M  V30 654 C 58.479 1.75456 3.94765 0
M  V30 655 C 57.614 1.29482 5.15177 0
M  V30 656 C 56.653 2.41873 5.62284 0
M  V30 657 N 55.79 1.96885 6.73929 0
M  V30 658 H 60.63 1.943 2.25946 0
M  V30 659 H 58.167 0.968001 1.10762 0
M  V30 660 H 60.125 0.346854 4.15756 0
M  V30 661 H 58.755 -0.295803 3.21442 0
M  V30 662 H 57.807 2.12346 3.15616 0
M  V30 663 H 59.119 2.59965 4.25699 0
M  V30 664 H 58.273 0.997923 5.98437 0
M  V30 665 H 57.012 0.420046 4.85888 0
M  V30 666 H 56.017 2.72342 4.77608 0
M  V30 667 H 57.242 3.29881 5.93595 0
M  V30 668 H 55.188 1.11782 6.46406 0
M  V30 669 H 55.105 2.74956 7.04227 0
M  V30 670 H 56.373 1.70289 7.60672 0
M  V30 671 N 60.6021 -1.18246 1.0419 0
M  V30 672 C 61.8791 -1.84121 0.660208 0
M  V30 673 C 62.2591 -1.92778 -0.860221 0
M  V30 674 O 61.6071 -1.45464 -1.76217 0
M  V30 675 C 61.8171 -3.22355 1.33747 0
M  V30 676 C 63.1651 -3.98376 1.46906 0
M  V30 677 O 64.1891 -3.31799 1.29568 0
M  V30 678 O 63.0481 -5.17665 1.75171 0
M  V30 679 H 60.1421 -0.794036 0.231161 0
M  V30 680 H 62.6881 -1.25628 1.14087 0
M  V30 681 H 61.4601 -3.10964 2.37522 0
M  V30 682 H 61.0831 -3.88506 0.845515 0
M  V30 683 N 62.0802 -0.821533 -1.34494 0
M  V30 684 C 63.3272 -0.408946 -1.98328 0
M  V30 685 C 63.6552 1.02764 -1.65136 0
M  V30 686 O 62.9102 1.73026 -0.914349 0
M  V30 687 C 63.2092 -0.556512 -3.53041 0
M  V30 688 C 62.8752 -1.95861 -4.0614 0
M  V30 689 C 61.5372 -2.34217 -4.20352 0
M  V30 690 C 63.8892 -2.87523 -4.34718 0
M  V30 691 C 61.2172 -3.63572 -4.6047 0
M  V30 692 C 63.5692 -4.1634 -4.76281 0
M  V30 693 C 62.2332 -4.54675 -4.88699 0
M  V30 694 H 61.5032 -0.149644 -0.725732 0
M  V30 695 H 64.1502 -1.04521 -1.6046 0
M  V30 696 H 62.4552 0.163148 -3.9146 0
M  V30 697 H 64.1522 -0.217826 -4.00408 0
M  V30 698 H 60.7422 -1.65066 -3.95539 0
M  V30 699 H 64.9262 -2.59133 -4.23277 0
M  V30 700 H 60.1822 -3.93101 -4.68275 0
M  V30 701 H 64.3562 -4.87455 -4.97354 0
M  V30 702 H 61.9832 -5.54959 -5.19542 0
M  V30 703 N 63.5583 1.46682 -0.576371 0
M  V30 704 C 64.5063 2.31953 0.17335 0
M  V30 705 C 65.5003 1.44098 0.89062 0
M  V30 706 O 66.7063 1.60759 0.809728 0
M  V30 707 H 63.0813 0.748273 0.0747727 0
M  V30 708 H 65.0523 2.93007 -0.564738 0
M  V30 709 C 63.8013 3.27142 1.17786 0
M  V30 710 H 63.1243 3.94719 0.635361 0
M  V30 711 H 64.5643 3.896 1.67296 0
M  V30 712 C 63.0233 2.52036 2.23561 0
M  V30 713 O 63.5533 2.27877 3.3081 0
M  V30 714 N 61.7593 2.12709 1.97998 0
M  V30 715 H 61.3063 2.32557 1.10792 0
M  V30 716 H 61.2643 1.62776 2.68982 0
M  V30 717 N 65.0364 0.313813 1.54444 0
M  V30 718 C 66.4524 -0.0391619 1.59552 0
M  V30 719 C 66.6524 -1.51322 1.33056 0
M  V30 720 O 65.7084 -2.26782 1.11022 0
M  V30 721 C 67.0214 0.370302 2.98411 0
M  V30 722 C 68.5694 0.320139 3.11358 0
M  V30 723 C 69.0444 0.704617 4.52547 0
M  V30 724 N 70.5354 0.657645 4.58508 0
M  V30 725 C 71.2704 0.927453 5.6585 0
M  V30 726 N 70.7664 1.26389 6.81174 0
M  V30 727 N 72.5594 0.853662 5.5558 0
M  V30 728 H 64.7104 1.27433 1.69925 0
M  V30 729 H 66.9734 0.517511 0.794284 0
M  V30 730 H 66.6794 1.39694 3.22767 0
M  V30 731 H 66.5534 -0.269619 3.76235 0
M  V30 732 H 68.9404 -0.697275 2.86744 0
M  V30 733 H 69.0214 0.99486 2.35661 0
M  V30 734 H 68.6654 1.7199 4.77893 0
M  V30 735 H 68.5954 0.00768843 5.26599 0
M  V30 736 H 71.0864 0.409067 3.75679 0
M  V30 737 H 71.3994 1.4554 7.58972 0
M  V30 738 H 69.7444 1.30206 6.82694 0
M  V30 739 H 72.9354 0.590383 4.64362 0
M  V30 740 H 73.1084 1.0673 6.3915 0
M  V30 741 N 66.5145 -1.57545 0.0417849 0
M  V30 742 C 67.4775 -2.09885 -0.92093 0
M  V30 743 C 68.4775 -1.01648 -1.24596 0
M  V30 744 O 69.6675 -1.27759 -1.1842 0
M  V30 745 C 66.7995 -2.57527 -2.23367 0
M  V30 746 H 67.9925 -2.96236 -0.467382 0
M  V30 747 H 65.5455 -1.5493 -0.206467 0
M  V30 748 H 66.2805 -1.74542 -2.73323 0
M  V30 749 H 66.0655 -3.36613 -2.01083 0
M  V30 750 H 67.5555 -2.98201 -2.92346 0
M  V30 751 N 67.9926 0.231505 -1.5589 0
M  V30 752 C 69.2396 0.957352 -1.78441 0
M  V30 753 C 69.5676 1.84726 -0.60882 0
M  V30 754 O 68.8226 1.91416 0.40725 0
M  V30 755 C 69.1216 1.83577 -3.0665 0
M  V30 756 C 68.7876 1.09993 -4.37278 0
M  V30 757 C 67.4496 0.896629 -4.72773 0
M  V30 758 C 69.8016 0.579558 -5.17968 0
M  V30 759 C 67.1296 0.160896 -5.86479 0
M  V30 760 C 69.4816 -0.142783 -6.32439 0
M  V30 761 C 68.1456 -0.357427 -6.66542 0
M  V30 762 H 67.4156 0.35032 -0.65296 0
M  V30 763 H 70.0626 0.226259 -1.90159 0
M  V30 764 H 68.3676 2.63441 -2.90011 0
M  V30 765 H 70.0646 2.39934 -3.21298 0
M  V30 766 H 66.6546 1.26835 -4.09403 0
M  V30 767 H 70.8386 0.724125 -4.90989 0
M  V30 768 H 66.0946 -0.0157293 -6.11398 0
M  V30 769 H 70.2686 -0.553559 -6.94196 0
M  V30 770 H 67.8956 -0.929466 -7.54497 0
M  V30 771 N 69.4707 1.49531 0.497807 0
M  V30 772 C 70.7187 1.58865 1.24926 0
M  V30 773 C 71.0397 0.278721 1.92998 0
M  V30 774 O 70.3097 -0.702144 1.82885 0
M  V30 775 H 68.8897 0.585343 0.464094 0
M  V30 776 H 71.5517 1.86174 0.57666 0
M  V30 777 H 70.6477 2.38633 2.01149 0
M  V30 778 N 70.9488 -0.749086 1.3866 0
M  V30 779 C 72.1958 -1.50833 1.35114 0
M  V30 780 C 72.5238 -1.94415 -0.0574049 0
M  V30 781 O 71.7788 -1.66065 -1.03541 0
M  V30 782 C 72.0778 -2.7712 2.25697 0
M  V30 783 C 71.7438 -2.52477 3.73585 0
M  V30 784 C 70.4058 -2.45466 4.13884 0
M  V30 785 C 72.7578 -2.31066 4.67181 0
M  V30 786 C 70.0858 -2.15064 5.45861 0
M  V30 787 C 72.4378 -2.02183 5.9942 0
M  V30 788 C 71.1018 -1.93631 6.38798 0
M  V30 789 H 70.3718 -0.551936 0.494416 0
M  V30 790 H 73.0188 -0.860979 1.71054 0
M  V30 791 H 71.3238 -3.46528 1.82827 0
M  V30 792 H 73.0208 -3.35096 2.20254 0
M  V30 793 H 69.6108 -2.58807 3.41638 0
M  V30 794 H 73.7948 -2.35459 4.3689 0
M  V30 795 H 69.0508 -2.06954 5.75308 0
M  V30 796 H 73.2248 -1.8462 6.71482 0
M  V30 797 H 70.8518 -1.69839 7.40985 0
M  V30 798 N 72.4269 -1.23603 -0.977757 0
M  V30 799 C 73.3599 -0.962772 -2.06896 0
M  V30 800 C 74.3379 0.0998743 -1.62293 0
M  V30 801 O 75.5219 -0.0349421 -1.88468 0
M  V30 802 C 72.6489 -0.45095 -3.35685 0
M  V30 803 C 71.6949 -1.50061 -3.99229 0
M  V30 804 S 72.5279 -3.07884 -4.38142 0
M  V30 805 C 73.6839 -2.58378 -5.7008 0
M  V30 806 H 73.9169 -1.88677 -2.29757 0
M  V30 807 H 71.4499 -1.06876 -1.11431 0
M  V30 808 H 73.4079 -0.162261 -4.10179 0
M  V30 809 H 72.0689 0.452179 -3.10828 0
M  V30 810 H 71.2619 -1.09269 -4.92013 0
M  V30 811 H 70.8639 -1.73878 -3.31123 0
M  V30 812 H 73.1559 -2.00563 -6.47133 0
M  V30 813 H 74.0989 -3.49711 -6.15717 0
M  V30 814 H 74.5069 -1.99143 -5.28207 0
M  V30 815 N 73.905 1.17692 -1.04816 0
M  V30 816 C 75.133 1.91786 -0.776254 0
M  V30 817 C 75.548 1.76604 0.667577 0
M  V30 818 O 74.905 1.10067 1.45573 0
M  V30 819 C 74.956 3.42967 -1.14263 0
M  V30 820 O 74.677 3.57678 -2.52978 0
M  V30 821 C 76.178 4.34144 -0.896311 0
M  V30 822 H 73.398 0.608624 -0.282519 0
M  V30 823 H 75.942 1.49268 -1.39783 0
M  V30 824 H 74.097 3.83245 -0.565874 0
M  V30 825 H 74.511 4.51319 -2.67229 0
M  V30 826 H 75.985 5.38744 -1.20244 0
M  V30 827 H 76.462 4.38876 0.168636 0
M  V30 828 H 77.068 3.99574 -1.45672 0
M  V30 829 N 75.3831 0.828654 1.34056 0
M  V30 830 C 76.7991 0.515135 1.51058 0
M  V30 831 C 76.9991 -0.959581 1.77184 0
M  V30 832 O 76.0551 -1.74382 1.82612 0
M  V30 833 C 77.3681 1.37963 2.67183 0
M  V30 834 C 78.9161 1.37735 2.81066 0
M  V30 835 C 79.3911 2.22645 4.00241 0
M  V30 836 N 80.8821 2.203 4.07458 0
M  V30 837 C 81.6171 2.82744 4.98842 0
M  V30 838 N 81.1131 3.54201 5.9541 0
M  V30 839 N 82.9061 2.72268 4.91759 0
M  V30 840 H 75.0571 1.78343 1.15358 0
M  V30 841 H 77.3201 0.760304 0.566252 0
M  V30 842 H 77.0261 2.42714 2.54525 0
M  V30 843 H 76.9001 1.0484 3.62338 0
M  V30 844 H 79.2871 0.337593 2.93163 0
M  V30 845 H 79.3681 1.74859 1.86703 0
M  V30 846 H 79.0121 3.26674 3.88905 0
M  V30 847 H 78.9421 1.82869 4.93829 0
M  V30 848 H 81.4331 1.68327 3.38341 0
M  V30 849 H 81.7461 3.9908 6.61782 0
M  V30 850 H 80.0911 3.58308 5.95517 0
M  V30 851 H 83.2821 2.16014 4.15278 0
M  V30 852 H 83.4551 3.21219 5.62781 0
M  V30 853 N 76.8612 -1.46375 0.584142 0
M  V30 854 C 78.1072 -2.02678 0.0703716 0
M  V30 855 C 78.4402 -1.4545 -1.28678 0
M  V30 856 O 77.7152 -0.62014 -1.84349 0
M  V30 857 C 77.9982 -3.60099 0.00614674 0
M  V30 858 C 77.8512 -4.27709 1.3923 0
M  V30 859 C 79.1702 -4.34598 -0.693742 0
M  V30 860 H 76.2892 -0.736504 0.027047 0
M  V30 861 H 78.9312 -1.74501 0.751615 0
M  V30 862 H 77.0812 -3.84236 -0.574009 0
M  V30 863 H 78.7532 -4.14832 2.01773 0
M  V30 864 H 76.9962 -3.87016 1.95962 0
M  V30 865 H 77.6672 -5.36478 1.29982 0
M  V30 866 H 80.1432 -4.15615 -0.200869 0
M  V30 867 H 79.0192 -5.44318 -0.707714 0
M  V30 868 H 79.2802 -4.05759 -1.75533 0
M  V30 869 N 78.3393 -0.321999 -1.54275 0
M  V30 870 C 79.3023 0.531975 -2.22941 0
M  V30 871 C 80.3023 1.04478 -1.22234 0
M  V30 872 O 81.4923 0.937452 -1.46825 0
M  V30 873 C 78.6243 1.73874 -2.93224 0
M  V30 874 H 79.8173 -0.0682612 -2.99822 0
M  V30 875 H 77.3703 -0.0730644 -1.56129 0
M  V30 876 H 78.1053 2.37825 -2.20476 0
M  V30 877 H 77.8903 1.37847 -3.6707 0
M  V30 878 H 79.3803 2.34496 -3.45545 0
M  V30 879 N 79.8174 1.5752 -0.0501392 0
M  V30 880 C 80.7474 2.14502 0.922566 0
M  V30 881 C 81.7284 1.06642 1.3252 0
M  V30 882 O 82.9134 1.34577 1.4001 0
M  V30 883 C 80.0434 2.68916 2.19776 0
M  V30 884 C 78.9974 3.8175 1.93523 0
M  V30 885 C 78.3234 4.22677 3.27487 0
M  V30 886 C 79.6234 5.06932 1.25765 0
M  V30 887 H 81.3174 2.9603 0.447952 0
M  V30 888 H 78.8634 1.42401 0.214024 0
M  V30 889 H 80.8164 3.07419 2.88222 0
M  V30 890 H 79.5404 1.84578 2.69441 0
M  V30 891 H 78.1994 3.43718 1.27489 0
M  V30 892 H 77.8474 3.35291 3.74952 0
M  V30 893 H 77.5474 4.98725 3.1072 0
M  V30 894 H 79.0714 4.63779 3.97166 0
M  V30 895 H 80.4854 5.42888 1.84244 0
M  V30 896 H 78.8824 5.88116 1.19328 0
M  V30 897 H 79.9524 4.84337 0.233536 0
M  V30 898 N 81.2955 -0.223234 1.56011 0
M  V30 899 C 82.2275 -1.30006 1.88762 0
M  V30 900 C 83.2405 -1.43129 0.775746 0
M  V30 901 O 84.4295 -1.44057 1.05403 0
M  V30 902 C 81.5295 -2.67589 2.07965 0
M  V30 903 C 80.7025 -2.76434 3.38973 0
M  V30 904 C 79.7615 -3.95019 3.47629 0
M  V30 905 O 78.7875 -3.83436 4.20672 0
M  V30 906 N 79.9895 -5.09249 2.78649 0
M  V30 907 H 82.7545 -1.02238 2.81722 0
M  V30 908 H 80.3155 -0.413278 1.56536 0
M  V30 909 H 82.3075 -3.45297 2.11073 0
M  V30 910 H 80.8775 -2.87964 1.21638 0
M  V30 911 H 80.0975 -1.85216 3.47978 0
M  V30 912 H 81.3855 -2.79313 4.25278 0
M  V30 913 H 80.7835 -5.21556 2.19081 0
M  V30 914 H 79.3405 -5.85007 2.8742 0
M  V30 915 N 82.7736 -1.49793 -0.48987 0
M  V30 916 C 83.7366 -1.66752 -1.57246 0
M  V30 917 C 84.7366 -0.538867 -1.51502 0
M  V30 918 O 85.9266 -0.805545 -1.54456 0
M  V30 919 C 83.0586 -1.67528 -2.96896 0
M  V30 920 H 84.2516 -2.63321 -1.43534 0
M  V30 921 H 81.8046 -1.38992 -0.714914 0
M  V30 922 H 82.5396 -0.725837 -3.16073 0
M  V30 923 H 82.3246 -2.49504 -3.02473 0
M  V30 924 H 83.8146 -1.82667 -3.7553 0
M  V30 925 N 84.2517 0.741722 -1.39055 0
M  V30 926 C 85.1617 1.88621 -1.39496 0
M  V30 927 C 86.1777 1.71557 -0.290578 0
M  V30 928 O 87.3537 1.94275 -0.530954 0
M  V30 929 C 84.4187 3.24134 -1.23037 0
M  V30 930 C 83.4797 3.5364 -2.43387 0
M  V30 931 C 82.7127 4.82687 -2.27703 0
M  V30 932 O 82.9357 5.55922 -1.27696 0
M  V30 933 O 81.8697 5.1194 -3.16545 0
M  V30 934 H 85.6957 1.91203 -2.35956 0
M  V30 935 H 83.2807 0.888625 -1.20099 0
M  V30 936 H 85.1627 4.0513 -1.15964 0
M  V30 937 H 83.8377 3.22337 -0.296691 0
M  V30 938 H 82.7447 2.72758 -2.56035 0
M  V30 939 H 84.0777 3.60209 -3.35425 0
M  V30 940 N 85.7298 1.2412 0.971189 0
M  V30 941 C 86.6768 1.0305 2.06517 0
M  V30 942 C 87.6468 -0.0550666 1.66009 0
M  V30 943 O 88.8318 0.0988688 1.90544 0
M  V30 944 C 85.9718 0.637653 3.39158 0
M  V30 945 C 85.0848 1.79633 3.92882 0
M  V30 946 C 84.2198 1.34939 5.13775 0
M  V30 947 C 83.2588 2.47823 5.59687 0
M  V30 948 N 82.3958 2.04022 6.71803 0
M  V30 949 H 87.2358 1.96685 2.23873 0
M  V30 950 H 84.7728 0.979694 1.09729 0
M  V30 951 H 86.7308 0.390931 4.15364 0
M  V30 952 H 85.3608 -0.261693 3.21737 0
M  V30 953 H 84.4128 2.15681 3.13346 0
M  V30 954 H 85.7248 2.64466 4.22918 0
M  V30 955 H 84.8788 1.06134 5.97345 0
M  V30 956 H 83.6178 0.471557 4.85415 0
M  V30 957 H 82.6228 2.77392 4.74693 0
M  V30 958 H 83.8478 3.36158 5.90063 0
M  V30 959 H 81.7938 1.18632 6.45184 0
M  V30 960 H 81.7108 2.82409 7.01271 0
M  V30 961 H 82.9788 1.78347 7.58823 0
M  V30 962 N 87.2079 -1.17134 1.05439 0
M  V30 963 C 88.1379 -2.2342 0.678649 0
M  V30 964 C 89.1189 -1.66971 -0.32476 0
M  V30 965 O 90.3039 -1.93149 -0.201802 0
M  V30 966 C 87.4339 -3.47256 0.0552099 0
M  V30 967 C 86.3879 -4.16543 0.98365 0
M  V30 968 C 85.7139 -5.34231 0.223961 0
M  V30 969 C 87.0139 -4.68495 2.3089 0
M  V30 970 H 88.7079 -2.55105 1.56722 0
M  V30 971 H 86.2539 -1.2262 0.754998 0
M  V30 972 H 88.2069 -4.20828 -0.21946 0
M  V30 973 H 86.9309 -3.14846 -0.868319 0
M  V30 974 H 85.5899 -3.44887 1.24293 0
M  V30 975 H 85.2379 -4.98071 -0.702412 0
M  V30 976 H 84.9379 -5.81527 0.842627 0
M  V30 977 H 86.4619 -6.10585 -0.0433671 0
M  V30 978 H 87.8759 -5.33691 2.09396 0
M  V30 979 H 86.2729 -5.26379 2.88176 0
M  V30 980 H 87.3429 -3.85169 2.94572 0
M  V30 981 N 88.686 -0.835752 -1.33615 0
M  V30 982 C 89.963 -0.352017 -1.92406 0
M  V30 983 C 90.343 1.16225 -1.76224 0
M  V30 984 O 89.691 1.97526 -1.14873 0
M  V30 985 C 89.901 -0.795485 -3.39813 0
M  V30 986 C 91.249 -0.801703 -4.16963 0
M  V30 987 O 92.273 -0.738889 -3.48452 0
M  V30 988 O 91.132 -0.886607 -5.3926 0
M  V30 989 H 88.226 -0.0989641 -0.821057 0
M  V30 990 H 90.772 -0.921397 -1.42507 0
M  V30 991 H 89.544 -1.83795 -3.45449 0
M  V30 992 H 89.167 -0.202505 -3.97084 0
M  V30 993 N 90.1641 1.46063 -0.591896 0
M  V30 994 C 91.1141 2.27458 0.157172 0
M  V30 995 C 92.0981 1.3641 0.853301 0
M  V30 996 O 93.2901 1.60517 0.74588 0
M  V30 997 C 90.4191 3.22956 1.16423 0
M  V30 998 C 89.5051 4.2149 0.469742 0
M  V30 999 N 89.8961 5.03519 -0.479839 0
M  V30 1000 C 88.1941 4.40161 0.719319 0
M  V30 1001 C 88.8951 5.74904 -0.886591 0
M  V30 1002 N 87.8711 5.43097 -0.233731 0
M  V30 1003 H 91.6731 2.88272 -0.572392 0
M  V30 1004 H 89.1871 1.57024 -0.414375 0
M  V30 1005 H 91.1841 3.79986 1.71513 0
M  V30 1006 H 89.8441 2.63701 1.89451 0
M  V30 1007 H 90.8551 5.1078 -0.855823 0
M  V30 1008 H 87.5321 3.92046 1.43548 0
M  V30 1009 H 88.9221 6.50844 -1.66888 0
M  V30 1010 N 91.6422 0.330177 1.54103 0
M  V30 1011 C 92.5922 -0.548456 2.21305 0
M  V30 1012 C 93.5762 -1.07651 1.19583 0
M  V30 1013 O 94.7682 -1.01243 1.45186 0
M  V30 1014 C 91.8972 -1.70559 2.97934 0
M  V30 1015 C 90.9832 -1.19212 4.07 0
M  V30 1016 N 91.3742 -0.398831 5.04225 0
M  V30 1017 C 89.6722 -1.47024 4.2107 0
M  V30 1018 C 90.3732 -0.121761 5.81573 0
M  V30 1019 N 89.3492 -0.709722 5.38947 0
M  V30 1020 H 93.1512 0.0648483 2.93828 0
M  V30 1021 H 90.6652 0.136363 1.61826 0
M  V30 1022 H 92.6622 -2.34688 3.44568 0
M  V30 1023 H 91.3222 -2.32231 2.26934 0
M  V30 1024 H 92.3332 -0.0410869 5.17884 0
M  V30 1025 H 89.0102 -2.09232 3.61287 0
M  V30 1026 H 90.4002 0.517298 6.69906 0
M  V30 1027 N 93.1203 -1.57491 0.0584922 0
M  V30 1028 C 94.5313 -1.80526 -0.476138 0
M  V30 1029 C 94.8823 -0.971334 -1.70469 0
M  V30 1030 O 94.0073 -0.190012 -2.15564 0
M  V30 1031 C 94.6023 -3.27424 -0.870587 0
M  V30 1032 C 93.1613 -3.51351 -1.35015 0
M  V30 1033 C 92.3083 -2.75343 -0.32887 0
M  V30 1034 H 95.2593 -1.56133 0.284312 0
M  V30 1035 H 95.2803 -3.38745 -1.73299 0
M  V30 1036 H 94.7923 -3.88093 0.0237627 0
M  V30 1037 H 92.8933 -2.95971 -2.26345 0
M  V30 1038 H 93.0063 -4.60059 -1.33726 0
M  V30 1039 H 91.3703 -2.417 -0.803321 0
M  V30 1040 H 92.1533 -3.38743 0.557521 0
M  V30 1041 N 94.5984 0.214957 -1.56127 0
M  V30 1042 C 95.5084 1.28727 -1.96129 0
M  V30 1043 C 96.5244 1.50916 -0.866044 0
M  V30 1044 O 97.7004 1.63918 -1.17016 0
M  V30 1045 C 94.7654 2.61569 -2.27558 0
M  V30 1046 C 93.8264 2.47625 -3.50685 0
M  V30 1047 C 93.0594 3.74132 -3.80606 0
M  V30 1048 O 93.2824 4.77438 -3.12104 0
M  V30 1049 O 92.2164 3.70849 -4.74083 0
M  V30 1050 H 96.0424 0.977855 -2.87527 0
M  V30 1051 H 93.6274 0.418358 -1.43423 0
M  V30 1052 H 95.5094 3.40012 -2.48938 0
M  V30 1053 H 94.1844 2.92178 -1.39332 0
M  V30 1054 H 93.0914 1.67361 -3.34576 0
M  V30 1055 H 94.4244 2.21954 -4.39315 0
M  V30 1056 N 96.0765 1.50051 0.48192 0
M  V30 1057 C 97.3225 1.61706 1.2338 0
M  V30 1058 C 97.6775 0.308488 1.89911 0
M  V30 1059 O 96.9705 -0.692798 1.78636 0
M  V30 1060 C 97.1645 2.72717 2.30998 0
M  V30 1061 C 96.9935 4.14242 1.75024 0
M  V30 1062 C 95.7635 4.80786 1.55476 0
M  V30 1063 C 97.9615 4.98846 1.25128 0
M  V30 1064 N 95.9435 6.06563 0.946311 0
M  V30 1065 C 97.3145 6.15258 0.765382 0
M  V30 1066 C 99.3695 4.84702 1.13881 0
M  V30 1067 C 98.0725 7.19079 0.178113 0
M  V30 1068 C 100.098 5.8869 0.565486 0
M  V30 1069 C 99.4605 7.04343 0.0899105 0
M  V30 1070 H 95.5595 0.645958 0.440753 0
M  V30 1071 H 98.1435 1.8713 0.537624 0
M  V30 1072 H 96.3145 2.49033 2.98055 0
M  V30 1073 H 98.0465 2.73789 2.9803 0
M  V30 1074 H 94.8015 4.37899 1.80392 0
M  V30 1075 H 95.2255 6.73767 0.660812 0
M  V30 1076 H 99.8675 3.95583 1.49244 0
M  V30 1077 H 97.5855 8.07882 -0.187749 0
M  V30 1078 H 101.171 5.79808 0.480974 0
M  V30 1079 H 100.051 7.83433 -0.346782 0
M  V30 1080 N 97.5546 -0.734337 1.39446 0
M  V30 1081 C 98.8016 -1.49391 1.36706 0
M  V30 1082 C 99.1296 -1.94465 -0.0367813 0
M  V30 1083 O 98.3846 -1.67154 -1.01774 0
M  V30 1084 C 98.6836 -2.74711 2.28623 0
M  V30 1085 C 98.3496 -2.48501 3.76242 0
M  V30 1086 C 97.0116 -2.41062 4.16464 0
M  V30 1087 C 99.3636 -2.26098 4.69606 0
M  V30 1088 C 96.6916 -2.09262 5.48112 0
M  V30 1089 C 99.0436 -1.95814 6.01531 0
M  V30 1090 C 97.7076 -1.86845 6.40816 0
M  V30 1091 H 96.9776 -0.546661 0.500243 0
M  V30 1092 H 99.6246 -0.842788 1.71957 0
M  V30 1093 H 97.9296 -3.44569 1.86492 0
M  V30 1094 H 99.6266 -3.32741 2.23796 0
M  V30 1095 H 96.2166 -2.55169 3.44364 0
M  V30 1096 H 100.401 -2.30812 4.39363 0
M  V30 1097 H 95.6566 -2.00841 5.77471 0
M  V30 1098 H 99.8306 -1.77488 6.73403 0
M  V30 1099 H 97.4576 -1.6197 7.42745 0
M  V30 1100 N 99.0327 -1.24633 -0.964593 0
M  V30 1101 C 99.9807 -1.03917 -2.08096 0
M  V30 1102 C 100.975 0.0268581 -1.69379 0
M  V30 1103 O 102.181 -0.127952 -1.79545 0
M  V30 1104 H 98.5557 -0.319044 -0.680966 0
M  V30 1105 H 100.527 -1.98581 -2.22729 0
M  V30 1106 C 99.2757 -0.663983 -3.41301 0
M  V30 1107 H 98.5987 -1.47605 -3.71555 0
M  V30 1108 H 100.039 -0.558663 -4.20303 0
M  V30 1109 C 98.4977 0.629169 -3.30973 0
M  V30 1110 O 99.0277 1.67404 -3.65156 0
M  V30 1111 N 97.2337 0.611057 -2.84103 0
M  V30 1112 H 96.7807 -0.239593 -2.56483 0
M  V30 1113 H 96.7387 1.47647 -2.77575 0
M  V30 1114 N 100.511 1.16574 -1.06058 0
M  V30 1115 C 101.757 1.87324 -0.777022 0
M  V30 1116 C 102.09 1.81351 0.694645 0
M  V30 1117 O 101.365 1.22753 1.50871 0
M  V30 1118 C 101.648 3.36991 -1.26922 0
M  V30 1119 C 101.501 3.51667 -2.80447 0
M  V30 1120 C 102.82 4.3131 -0.87521 0
M  V30 1121 H 99.9388 0.680191 -0.28374 0
M  V30 1122 H 102.581 1.37036 -1.3161 0
M  V30 1123 H 100.731 3.79949 -0.81063 0
M  V30 1124 H 102.403 3.17664 -3.34495 0
M  V30 1125 H 100.646 2.93656 -3.19294 0
M  V30 1126 H 101.317 4.56766 -3.0995 0
M  V30 1127 H 103.793 3.9624 -1.27014 0
M  V30 1128 H 102.669 5.34545 -1.2471 0
M  V30 1129 H 102.93 4.41552 0.220071 0
M  V30 1130 N 101.989 0.842826 1.3317 0
M  V30 1131 C 103.219 0.453397 2.01564 0
M  V30 1132 C 103.627 -0.951147 1.63554 0
M  V30 1133 O 102.97 -1.63021 0.846746 0
M  V30 1134 C 103.032 0.499013 3.5602 0
M  V30 1135 C 102.696 1.86037 4.1742 0
M  V30 1136 C 103.693 2.82416 4.36506 0
M  V30 1137 C 101.378 2.15428 4.53757 0
M  V30 1138 C 103.372 4.06346 4.91082 0
M  V30 1139 C 101.059 3.39615 5.0804 0
M  V30 1140 C 102.057 4.3489 5.26649 0
M  V30 1141 O 101.745 5.5688 5.79776 0
M  V30 1142 H 101.477 0.177871 0.652179 0
M  V30 1143 H 104.031 1.13808 1.70988 0
M  V30 1144 H 102.261 -0.242467 3.85939 0
M  V30 1145 H 103.95 0.126852 4.05702 0
M  V30 1146 H 104.716 2.6101 4.08777 0
M  V30 1147 H 100.595 1.42061 4.38565 0
M  V30 1148 H 104.139 4.80722 5.05522 0
M  V30 1149 H 100.036 3.60876 5.352 0
M  V30 1150 H 100.804 5.58674 5.98185 0
M  V30 1151 N 103.467 -1.45747 0.599634 0
M  V30 1152 C 104.415 -2.322 -0.136426 0
M  V30 1153 C 105.409 -1.45497 -0.867583 0
M  V30 1154 O 106.615 -1.62027 -0.78405 0
M  V30 1155 H 102.99 -0.749368 -0.0628588 0
M  V30 1156 H 104.961 -2.92072 0.611281 0
M  V30 1157 C 103.71 -3.28974 -1.12567 0
M  V30 1158 H 103.033 -3.9568 -0.572484 0
M  V30 1159 H 104.473 -3.92212 -1.61077 0
M  V30 1160 C 102.932 -2.55561 -2.19523 0
M  V30 1161 O 103.462 -2.33111 -3.27143 0
M  V30 1162 N 101.668 -2.15832 -1.94589 0
M  V30 1163 H 101.215 -2.3429 -1.07078 0
M  V30 1164 H 101.173 -1.67034 -2.66359 0
M  V30 1165 N 104.945 -0.338344 -1.53925 0
M  V30 1166 C 105.892 0.520845 -2.24846 0
M  V30 1167 C 106.862 1.09976 -1.24477 0
M  V30 1168 O 108.047 1.13735 -1.53196 0
M  V30 1169 C 105.187 1.6685 -3.02084 0
M  V30 1170 C 104.3 1.11739 -4.17299 0
M  V30 1171 C 103.435 2.23193 -4.82036 0
M  V30 1172 C 102.474 1.65407 -5.89328 0
M  V30 1173 N 101.611 2.70582 -6.47866 0
M  V30 1174 H 106.451 -0.0904881 -2.97863 0
M  V30 1175 H 103.988 -0.0564282 -1.46992 0
M  V30 1176 H 105.946 2.34407 -3.45122 0
M  V30 1177 H 104.576 2.2509 -2.31375 0
M  V30 1178 H 103.628 0.332919 -3.7894 0
M  V30 1179 H 104.94 0.654677 -4.94485 0
M  V30 1180 H 104.094 2.98626 -5.28117 0
M  V30 1181 H 102.833 2.72807 -4.04262 0
M  V30 1182 H 101.838 0.884779 -5.42634 0
M  V30 1183 H 103.063 1.16652 -6.69006 0
M  V30 1184 H 101.009 3.1946 -5.72959 0
M  V30 1185 H 100.926 2.28917 -7.20509 0
M  V30 1186 H 102.194 3.45799 -6.98601 0
M  V30 1187 N 106.423 1.57458 -0.0668435 0
M  V30 1188 C 107.669 1.93587 0.6043 0
M  V30 1189 C 108.002 0.946722 1.69561 0
M  V30 1190 O 107.277 -0.0248516 1.94484 0
M  V30 1191 C 107.56 3.40014 1.18585 0
M  V30 1192 C 107.413 4.49685 0.101529 0
M  V30 1193 C 108.732 3.87154 2.09284 0
M  V30 1194 H 105.851 0.703958 0.218202 0
M  V30 1195 H 108.493 1.89542 -0.131804 0
M  V30 1196 H 106.643 3.43592 1.81319 0
M  V30 1197 H 108.315 4.5823 -0.531279 0
M  V30 1198 H 106.558 4.30059 -0.568487 0
M  V30 1199 H 107.229 5.49266 0.54874 0
M  V30 1200 H 109.705 3.85551 1.56491 0
M  V30 1201 H 108.581 4.90231 2.46911 0
M  V30 1202 H 108.842 3.2481 2.99918 0
M  V30 1203 N 107.901 -0.206675 1.56239 0
M  V30 1204 C 108.851 -1.26 1.90021 0
M  V30 1205 C 109.835 -1.41566 0.764721 0
M  V30 1206 O 111.027 -1.44131 1.02739 0
M  V30 1207 C 108.156 -2.6073 2.23326 0
M  V30 1208 C 107.242 -2.49005 3.43304 0
M  V30 1209 N 107.633 -2.06946 4.61527 0
M  V30 1210 C 105.931 -2.79927 3.47213 0
M  V30 1211 C 106.632 -2.06832 5.43687 0
M  V30 1212 N 105.608 -2.47892 4.83788 0
M  V30 1213 H 109.41 -0.925955 2.78932 0
M  V30 1214 H 106.924 -0.415172 1.57003 0
M  V30 1215 H 108.921 -3.36798 2.45708 0
M  V30 1216 H 107.581 -2.94968 1.35735 0
M  V30 1217 H 108.592 -1.77839 4.86409 0
M  V30 1218 H 105.269 -3.18438 2.70006 0
M  V30 1219 H 106.659 -1.76312 6.48354 0
M  V30 1220 N 109.379 -1.50304 -0.473955 0
M  V30 1221 C 110.628 -1.60392 -1.22301 0
M  V30 1222 C 110.941 -0.308411 -1.93153 0
M  V30 1223 O 112.147 -0.288156 -2.69966 0
M  V30 1224 C 110.603 -2.83109 -2.2221 0
M  V30 1225 C 110.211 -4.19524 -1.57173 0
M  V30 1226 C 111.955 -3.0254 -2.97775 0
M  V30 1227 C 109.862 -5.33431 -2.55353 0
M  V30 1228 H 108.792 -0.597286 -0.460179 0
M  V30 1229 H 111.443 -1.76731 -0.493803 0
M  V30 1230 H 109.825 -2.60322 -2.9841 0
M  V30 1231 H 110.999 -4.52554 -0.867824 0
M  V30 1232 H 109.314 -4.05674 -0.939002 0
M  V30 1233 H 111.911 -3.84811 -3.71248 0
M  V30 1234 H 112.254 -2.14154 -3.56992 0
M  V30 1235 H 112.787 -3.25494 -2.28688 0
M  V30 1236 H 109.526 -6.23962 -2.00878 0
M  V30 1237 H 109.046 -5.04823 -3.23904 0
M  V30 1238 H 110.725 -5.63887 -3.17239 0
M  V30 1239 N 110.857 0.726932 -1.39834 0
M  V30 1240 C 112.085 1.51613 -1.40787 0
M  V30 1241 C 112.5 1.88799 -0.00451505 0
M  V30 1242 O 111.857 1.54662 0.968809 0
M  V30 1243 C 111.908 2.79863 -2.28821 0
M  V30 1244 O 111.629 2.44253 -3.63692 0
M  V30 1245 C 113.13 3.73837 -2.38245 0
M  V30 1246 H 110.35 0.468264 -0.480593 0
M  V30 1247 H 112.894 0.897607 -1.83748 0
M  V30 1248 H 111.049 3.38027 -1.89252 0
M  V30 1249 H 111.463 3.26695 -4.1033 0
M  V30 1250 H 112.937 4.60699 -3.04073 0
M  V30 1251 H 113.414 4.16153 -1.40403 0
M  V30 1252 H 114.02 3.21589 -2.78317 0
M  V30 1253 N 112.336 1.25143 0.95797 0
M  V30 1254 C 113.266 1.07711 2.07173 0
M  V30 1255 C 114.247 -0.0128462 1.70095 0
M  V30 1256 O 115.432 0.156061 1.93572 0
M  V30 1257 C 112.562 0.691503 3.40346 0
M  V30 1258 C 111.516 1.73132 3.9142 0
M  V30 1259 C 110.842 1.20049 5.21049 0
M  V30 1260 C 112.142 3.1294 4.1817 0
M  V30 1261 H 113.836 2.00873 2.22014 0
M  V30 1262 H 111.382 0.967191 1.06684 0
M  V30 1263 H 113.335 0.556505 4.17709 0
M  V30 1264 H 112.059 -0.275819 3.25433 0
M  V30 1265 H 110.718 1.8547 3.16222 0
M  V30 1266 H 110.366 0.223499 5.02503 0
M  V30 1267 H 110.066 1.89545 5.56189 0
M  V30 1268 H 111.59 1.07782 6.01012 0
M  V30 1269 H 113.004 3.03775 4.86203 0
M  V30 1270 H 111.401 3.79875 4.64559 0
M  V30 1271 H 112.471 3.6025 3.24573 0
M  V30 1272 N 113.814 -1.1601 1.06675 0
M  V30 1273 C 115.039 -1.91068 0.806706 0
M  V30 1274 C 115.464 -1.77112 -0.633485 0
M  V30 1275 O 114.822 -1.09908 -1.44187 0
M  V30 1276 C 114.87 -3.39655 1.21106 0
M  V30 1277 O 113.974 -4.10893 0.352189 0
M  V30 1278 H 113.315 -0.595125 0.294486 0
M  V30 1279 H 115.845 -1.46955 1.42356 0
M  V30 1280 H 115.855 -3.90434 1.18428 0
M  V30 1281 H 114.53 -3.49132 2.26008 0
M  V30 1282 H 113.107 -3.70285 0.440868 0
M  V30 1283 N 115.292 -0.849877 -1.32721 0
M  V30 1284 C 116.52 -0.464754 -2.01613 0
M  V30 1285 C 116.935 0.937191 -1.63897 0
M  V30 1286 O 116.292 1.61081 -0.857856 0
M  V30 1287 C 116.343 -0.588638 -3.56675 0
M  V30 1288 O 116.064 -1.93535 -3.93034 0
M  V30 1289 C 117.565 -0.2019 -4.4284 0
M  V30 1290 H 114.785 -0.183215 -0.645502 0
M  V30 1291 H 117.329 -1.1455 -1.69407 0
M  V30 1292 H 115.484 0.0443159 -3.87375 0
M  V30 1293 H 115.898 -1.92871 -4.87751 0
M  V30 1294 H 117.372 -0.339599 -5.50954 0
M  V30 1295 H 117.849 0.857224 -4.30753 0
M  V30 1296 H 118.455 -0.809733 -4.17521 0
M  V30 1297 N 116.77 1.45427 -0.607355 0
M  V30 1298 C 117.72 2.27612 0.133038 0
M  V30 1299 C 118.704 1.37307 0.838785 0
M  V30 1300 O 119.896 1.61299 0.728813 0
M  V30 1301 C 117.025 3.24173 1.12991 0
M  V30 1302 C 116.111 4.21965 0.425011 0
M  V30 1303 N 116.502 5.02982 -0.533217 0
M  V30 1304 C 114.8 4.40899 0.672593 0
M  V30 1305 C 115.501 5.73931 -0.947518 0
M  V30 1306 N 114.477 5.42819 -0.291321 0
M  V30 1307 H 118.279 2.87649 -0.602935 0
M  V30 1308 H 115.793 1.56576 -0.431006 0
M  V30 1309 H 117.79 3.81783 1.67473 0
M  V30 1310 H 116.45 2.65696 1.86644 0
M  V30 1311 H 117.461 5.09843 -0.90995 0
M  V30 1312 H 114.138 3.93547 1.39382 0
M  V30 1313 H 115.528 6.49037 -1.73782 0
M  V30 1314 N 118.248 0.346503 1.53744 0
M  V30 1315 C 119.158 -0.517293 2.28826 0
M  V30 1316 C 120.174 -1.10935 1.3405 0
M  V30 1317 O 121.35 -1.1244 1.6709 0
M  V30 1318 C 118.415 -1.65098 3.04866 0
M  V30 1319 C 117.476 -1.0884 4.15274 0
M  V30 1320 C 116.709 -2.16806 4.87679 0
M  V30 1321 O 116.932 -3.3758 4.59778 0
M  V30 1322 O 115.866 -1.80934 5.74061 0
M  V30 1323 H 119.692 0.0931396 3.03557 0
M  V30 1324 H 117.277 0.111458 1.48984 0
M  V30 1325 H 119.159 -2.31053 3.5241 0
M  V30 1326 H 117.834 -2.24717 2.32989 0
M  V30 1327 H 116.741 -0.3933 3.72027 0
M  V30 1328 H 118.074 -0.537036 4.89261 0
M  V30 1329 N 119.726 -1.57421 0.075193 0
M  V30 1330 C 120.966 -1.95495 -0.596757 0
M  V30 1331 C 121.33 -0.954886 -1.66571 0
M  V30 1332 O 122.531 -1.22341 -2.39345 0
M  V30 1333 C 120.802 -3.382 -1.15566 0
M  V30 1334 S 122.361 -3.98254 -1.84226 0
M  V30 1335 H 119.179 -0.683649 -0.195307 0
M  V30 1336 H 121.781 -1.94925 0.149859 0
M  V30 1337 H 120.485 -4.08766 -0.36588 0
M  V30 1338 H 120.016 -3.42321 -1.93856 0
M  V30 1339 H 122.031 -3.85435 -3.12497 0
M  V30 1340 N 121.204 0.198386 -1.56346 0
M  V30 1341 C 122.167 1.22952 -1.93431 0
M  V30 1342 C 123.167 1.38611 -0.815092 0
M  V30 1343 O 124.357 1.36479 -1.08255 0
M  V30 1344 C 121.489 2.59946 -2.20546 0
M  V30 1345 H 122.682 0.912626 -2.85677 0
M  V30 1346 H 120.235 0.43977 -1.49986 0
M  V30 1347 H 120.97 2.96696 -1.30927 0
M  V30 1348 H 120.755 2.49953 -3.02102 0
M  V30 1349 H 122.245 3.3431 -2.50253 0
M  V30 1350 N 122.682 1.50554 0.465978 0
M  V30 1351 C 123.93 1.61479 1.21528 0
M  V30 1352 C 124.251 0.319596 1.92363 0
M  V30 1353 O 123.521 -0.663194 1.84333 0
M  V30 1354 H 122.101 0.595055 0.451573 0
M  V30 1355 H 124.763 1.87355 0.53704 0
M  V30 1356 H 123.859 2.42846 1.96042 0
M  V30 1357 N 124.16 -0.719506 1.40217 0
M  V30 1358 C 125.09 -1.8465 1.42922 0
M  V30 1359 C 126.071 -1.67599 0.29062 0
M  V30 1360 O 127.256 -1.87688 0.498677 0
M  V30 1361 C 124.386 -3.22565 1.28722 0
M  V30 1362 C 123.34 -3.54281 2.40144 0
M  V30 1363 C 122.666 -4.91298 2.11023 0
M  V30 1364 C 123.966 -3.55676 3.82481 0
M  V30 1365 H 125.66 -1.82644 2.37237 0
M  V30 1366 H 123.206 -0.877305 1.1419 0
M  V30 1367 H 125.159 -4.01095 1.29232 0
M  V30 1368 H 123.883 -3.25137 0.308811 0
M  V30 1369 H 122.542 -2.78088 2.38877 0
M  V30 1370 H 122.19 -4.90468 1.11582 0
M  V30 1371 H 121.89 -5.13485 2.8567 0
M  V30 1372 H 123.414 -5.72166 2.13209 0
M  V30 1373 H 124.828 -4.24254 3.85592 0
M  V30 1374 H 123.225 -3.89388 4.56614 0
M  V30 1375 H 124.295 -2.55144 4.12346 0
M  V30 1376 N 125.638 -1.25649 -0.95132 0
M  V30 1377 C 126.863 -1.13443 -1.73624 0
M  V30 1378 C 127.288 0.307565 -1.85568 0
M  V30 1379 O 126.646 1.22282 -1.33854 0
M  V30 1380 C 126.694 -1.79723 -3.12621 0
M  V30 1381 O 125.798 -1.07912 -3.98031 0
M  V30 1382 H 125.139 -0.395872 -0.533086 0
M  V30 1383 H 127.669 -1.66276 -1.1922 0
M  V30 1384 H 127.679 -1.86141 -3.63064 0
M  V30 1385 H 126.354 -2.84633 -3.03244 0
M  V30 1386 H 124.931 -1.09398 -3.56492 0
M  V30 1387 N 127.117 1.15442 -1.07289 0
M  V30 1388 C 128.027 2.23786 -0.704057 0
M  V30 1389 C 129.043 1.7166 0.284413 0
M  V30 1390 O 130.219 2.00972 0.131205 0
M  V30 1391 C 127.284 3.46535 -0.106792 0
M  V30 1392 C 126.345 4.13654 -1.14842 0
M  V30 1393 C 125.578 5.30544 -0.57956 0
M  V30 1394 O 125.801 5.67187 0.604585 0
M  V30 1395 O 124.735 5.87154 -1.32414 0
M  V30 1396 H 128.561 2.57664 -1.60757 0
M  V30 1397 H 126.146 1.23152 -0.845803 0
M  V30 1398 H 128.028 4.20804 0.224048 0
M  V30 1399 H 126.703 3.14407 0.770049 0
M  V30 1400 H 125.61 3.4131 -1.5316 0
M  V30 1401 H 126.943 4.49861 -1.99714 0
M  V30 1402 N 128.595 0.856903 1.32268 0
M  V30 1403 C 130.011 0.547061 1.49931 0
M  V30 1404 C 130.211 -0.921781 1.7918 0
M  V30 1405 O 129.267 -1.70469 1.8627 0
M  V30 1406 C 130.58 1.43599 2.64196 0
M  V30 1407 C 132.128 1.43665 2.78081 0
M  V30 1408 C 132.603 2.31085 3.95428 0
M  V30 1409 N 134.094 2.28893 4.02694 0
M  V30 1410 C 134.829 2.93262 4.92732 0
M  V30 1411 N 134.325 3.66751 5.87763 0
M  V30 1412 N 136.118 2.82638 4.85873 0
M  V30 1413 H 128.269 1.8075 1.11549 0
M  V30 1414 H 130.532 0.772144 0.549997 0
M  V30 1415 H 130.238 2.48058 2.49319 0
M  V30 1416 H 130.112 1.12502 3.60032 0
M  V30 1417 H 132.499 0.399701 2.92381 0
M  V30 1418 H 132.58 1.7878 1.82952 0
M  V30 1419 H 132.224 3.34849 3.81888 0
M  V30 1420 H 132.154 1.93302 4.89839 0
M  V30 1421 H 134.645 1.75466 3.34694 0
M  V30 1422 H 134.958 4.13027 6.53168 0
M  V30 1423 H 133.303 3.70859 5.87783 0
M  V30 1424 H 136.494 2.24774 4.10602 0
M  V30 1425 H 136.667 3.33084 5.55841 0
M  V30 1426 N 130.073 -1.45103 0.615059 0
M  V30 1427 C 131.35 -1.95549 0.0448276 0
M  V30 1428 C 131.73 -1.55737 -1.4251 0
M  V30 1429 O 131.078 -0.823556 -2.13143 0
M  V30 1430 C 131.288 -3.48098 0.250785 0
M  V30 1431 C 132.636 -4.24384 0.135509 0
M  V30 1432 O 133.66 -3.55738 0.181299 0
M  V30 1433 O 132.519 -5.46493 0.0268878 0
M  V30 1434 H 129.613 -0.8264 -0.0314845 0
M  V30 1435 H 132.159 -1.55232 0.685642 0
M  V30 1436 H 130.931 -3.7007 1.27139 0
M  V30 1437 H 130.554 -3.95323 -0.424937 0
M  V30 1438 N 131.551 -0.354651 -1.53558 0
M  V30 1439 C 132.8 0.239504 -2.00273 0
M  V30 1440 C 133.113 1.50759 -1.24623 0
M  V30 1441 O 134.319 2.17968 -1.61871 0
M  V30 1442 C 132.775 0.477341 -3.5672 0
M  V30 1443 C 132.383 -0.775488 -4.41237 0
M  V30 1444 C 134.127 1.02975 -4.11821 0
M  V30 1445 C 132.034 -0.507838 -5.89216 0
M  V30 1446 H 130.964 0.0932743 -0.748208 0
M  V30 1447 H 133.615 -0.471701 -1.77334 0
M  V30 1448 H 131.997 1.24953 -3.7577 0
M  V30 1449 H 133.171 -1.54963 -4.33962 0
M  V30 1450 H 131.486 -1.25033 -3.97185 0
M  V30 1451 H 134.083 1.24513 -5.2 0
M  V30 1452 H 134.426 1.98862 -3.65731 0
M  V30 1453 H 134.959 0.317994 -3.96527 0
M  V30 1454 H 131.698 -1.43674 -6.39561 0
M  V30 1455 H 131.218 0.228011 -5.99366 0
M  V30 1456 H 132.897 -0.129238 -6.46871 0
M  V30 1457 N 133.029 1.57378 -0.0835403 0
M  V30 1458 C 133.977 2.14602 0.89714 0
M  V30 1459 C 134.971 1.08589 1.30018 0
M  V30 1460 O 136.177 1.26952 1.27606 0
M  V30 1461 H 132.552 0.686346 0.3073 0
M  V30 1462 H 134.523 2.95845 0.38969 0
M  V30 1463 C 133.272 2.73188 2.15089 0
M  V30 1464 H 132.595 3.54442 1.84962 0
M  V30 1465 H 134.035 3.1681 2.81793 0
M  V30 1466 C 132.494 1.68517 2.91725 0
M  V30 1467 O 133.024 1.11718 3.85852 0
M  V30 1468 N 131.23 1.39277 2.55049 0
M  V30 1469 H 130.777 1.85655 1.78577 0
M  V30 1470 H 130.735 0.694791 3.06627 0
M  V30 1471 N 134.507 -0.190092 1.56449 0
M  V30 1472 C 135.437 -1.23816 1.97969 0
M  V30 1473 C 136.418 -1.47201 0.852395 0
M  V30 1474 O 137.603 -1.58854 1.1171 0
M  V30 1475 C 134.733 -2.5813 2.3235 0
M  V30 1476 C 133.687 -2.49348 3.47864 0
M  V30 1477 C 133.013 -3.8798 3.67934 0
M  V30 1478 C 134.313 -2.01424 4.81898 0
M  V30 1479 H 136.007 -0.89311 2.85769 0
M  V30 1480 H 133.553 -0.428177 1.37487 0
M  V30 1481 H 135.506 -3.31637 2.59991 0
M  V30 1482 H 134.23 -2.94386 1.41438 0
M  V30 1483 H 132.889 -1.78297 3.20321 0
M  V30 1484 H 132.537 -4.21597 2.74344 0
M  V30 1485 H 132.237 -3.82978 4.45648 0
M  V30 1486 H 133.761 -4.63101 3.97957 0
M  V30 1487 H 135.175 -2.64693 5.08538 0
M  V30 1488 H 133.572 -2.07413 5.63116 0
M  V30 1489 H 134.642 -0.967677 4.75146 0
M  V30 1490 N 135.985 -1.50799 -0.457987 0
M  V30 1491 C 136.948 -1.7005 -1.53674 0
M  V30 1492 C 137.948 -0.570881 -1.50325 0
M  V30 1493 O 139.138 -0.838126 -1.52712 0
M  V30 1494 C 136.27 -1.73788 -2.93276 0
M  V30 1495 H 137.463 -2.66306 -1.37917 0
M  V30 1496 H 135.016 -1.40477 -0.685271 0
M  V30 1497 H 135.751 -0.792717 -3.14462 0
M  V30 1498 H 135.536 -2.55864 -2.97113 0
M  V30 1499 H 137.026 -1.90591 -3.71571 0
M  V30 1500 N 137.463 0.71206 -1.40597 0
M  V30 1501 C 138.688 1.50617 -1.42581 0
M  V30 1502 C 139.113 1.88079 -0.0282102 0
M  V30 1503 O 138.471 1.53511 0.964579 0
M  V30 1504 C 138.519 2.7557 -2.3258 0
M  V30 1505 O 137.623 3.72414 -1.77148 0
M  V30 1506 H 136.964 0.453966 -0.484573 0
M  V30 1507 H 139.494 0.876649 -1.84868 0
M  V30 1508 H 139.504 3.2406 -2.47889 0
M  V30 1509 H 138.179 2.47639 -3.34138 0
M  V30 1510 H 136.756 3.31276 -1.71204 0
M  V30 1511 N 138.941 1.26152 0.944643 0
M  V30 1512 C 140.188 1.11492 1.69044 0
M  V30 1513 C 140.516 -0.342366 1.91463 0
M  V30 1514 O 139.771 -1.26812 1.49054 0
M  V30 1515 C 140.07 1.82541 3.07268 0
M  V30 1516 C 139.736 3.32445 3.04616 0
M  V30 1517 C 138.398 3.73337 3.036 0
M  V30 1518 C 140.75 4.28171 2.97185 0
M  V30 1519 C 138.078 5.08348 2.92915 0
M  V30 1520 C 140.43 5.63218 2.88041 0
M  V30 1521 C 139.094 6.03426 2.85366 0
M  V30 1522 H 138.364 0.407977 0.618576 0
M  V30 1523 H 141.011 1.56551 1.10291 0
M  V30 1524 H 139.316 1.29941 3.69625 0
M  V30 1525 H 141.013 1.68642 3.63815 0
M  V30 1526 H 137.603 2.99915 3.06185 0
M  V30 1527 H 141.787 3.97563 2.97081 0
M  V30 1528 H 137.043 5.38667 2.89219 0
M  V30 1529 H 141.217 6.37078 2.81254 0
M  V30 1530 H 138.844 7.07999 2.76842 0
M  V30 1531 N 140.419 -1.14872 1.07899 0
M  V30 1532 C 141.668 -1.85135 0.800499 0
M  V30 1533 C 141.981 -1.83547 -0.676014 0
M  V30 1534 O 143.187 -2.49548 -1.06948 0
M  V30 1535 C 141.643 -3.3231 1.38197 0
M  V30 1536 C 141.251 -3.42329 2.8899 0
M  V30 1537 C 142.995 -4.0772 1.18174 0
M  V30 1538 C 140.902 -4.83684 3.403 0
M  V30 1539 H 139.832 -0.693563 0.29578 0
M  V30 1540 H 142.483 -1.29532 1.29976 0
M  V30 1541 H 140.865 -3.87618 0.810431 0
M  V30 1542 H 142.039 -2.97097 3.52236 0
M  V30 1543 H 140.354 -2.80369 3.07867 0
M  V30 1544 H 142.951 -5.12049 1.5398 0
M  V30 1545 H 143.294 -4.16124 0.12117 0
M  V30 1546 H 143.827 -3.58696 1.71994 0
M  V30 1547 H 140.566 -4.80465 4.45907 0
M  V30 1548 H 140.086 -5.29474 2.81811 0
M  V30 1549 H 141.765 -5.52558 3.36584 0
M  V30 1550 N 141.898 -0.863906 -1.31812 0
M  V30 1551 C 142.808 -0.318461 -2.32428 0
M  V30 1552 C 143.824 0.568496 -1.64451 0
M  V30 1553 O 145 0.46666 -1.95919 0
M  V30 1554 C 142.065 0.476355 -3.43412 0
M  V30 1555 C 141.126 -0.43784 -4.27061 0
M  V30 1556 C 140.359 0.319138 -5.32745 0
M  V30 1557 O 140.582 1.54799 -5.48993 0
M  V30 1558 O 139.516 -0.319861 -6.01049 0
M  V30 1559 H 143.342 -1.15229 -2.80991 0
M  V30 1560 H 140.927 -0.627103 -1.35602 0
M  V30 1561 H 142.809 0.927156 -4.11074 0
M  V30 1562 H 141.484 1.28683 -2.97022 0
M  V30 1563 H 140.391 -0.937013 -3.62175 0
M  V30 1564 H 141.724 -1.21375 -4.77 0
M  V30 1565 N 143.376 1.44774 -0.622745 0
M  V30 1566 C 144.308 2.28856 0.125485 0
M  V30 1567 C 145.321 1.40811 0.817069 0
M  V30 1568 O 146.51 1.65044 0.679918 0
M  V30 1569 C 143.61 3.16963 1.19949 0
M  V30 1570 C 142.783 4.33374 0.592064 0
M  V30 1571 C 141.842 5.02577 1.55893 0
M  V30 1572 O 140.868 5.58873 1.07933 0
M  V30 1573 N 142.07 5.03256 2.89334 0
M  V30 1574 H 144.835 2.93713 -0.596068 0
M  V30 1575 H 142.396 1.55129 -0.463303 0
M  V30 1576 H 144.388 3.60123 1.84644 0
M  V30 1577 H 142.958 2.53913 1.82337 0
M  V30 1578 H 142.178 3.93509 -0.233322 0
M  V30 1579 H 143.466 5.08527 0.166738 0
M  V30 1580 H 142.864 4.58836 3.30887 0
M  V30 1581 H 141.421 5.50232 3.49412 0
M  V30 1582 N 144.854 0.36279 1.53368 0
M  V30 1583 C 146.1 -0.228113 2.01513 0
M  V30 1584 C 146.433 -1.48648 1.2497 0
M  V30 1585 O 145.708 -1.91459 0.342616 0
M  V30 1586 C 145.991 -0.522884 3.56284 0
M  V30 1587 C 145.844 0.74892 4.43521 0
M  V30 1588 C 147.163 -1.32461 4.19693 0
M  V30 1589 H 144.282 -0.0814343 0.732487 0
M  V30 1590 H 146.924 0.48713 1.83649 0
M  V30 1591 H 145.074 -1.1322 3.71636 0
M  V30 1592 H 146.746 1.38648 4.39971 0
M  V30 1593 H 144.989 1.36986 4.11603 0
M  V30 1594 H 145.66 0.497667 5.49752 0
M  V30 1595 H 148.136 -0.809203 4.08156 0
M  V30 1596 H 147.012 -1.49961 5.28018 0
M  V30 1597 H 147.273 -2.33232 3.75573 0
M  V30 1598 N 146.332 -1.57332 0.0918853 0
M  V30 1599 C 147.295 -2.12708 -0.85369 0
M  V30 1600 C 148.295 -1.05561 -1.213 0
M  V30 1601 O 149.485 -1.31461 -1.14296 0
M  V30 1602 C 146.617 -2.64503 -2.15061 0
M  V30 1603 H 147.81 -2.97573 -0.3729 0
M  V30 1604 H 145.363 -1.55509 -0.157072 0
M  V30 1605 H 146.098 -1.83149 -2.67632 0
M  V30 1606 H 145.883 -3.4284 -1.90272 0
M  V30 1607 H 147.373 -3.07351 -2.82711 0
M  V30 1608 N 147.81 0.181792 -1.56548 0
M  V30 1609 C 149.056 0.901431 -1.81665 0
M  V30 1610 C 149.389 1.82347 -0.668075 0
M  V30 1611 O 148.664 1.91669 0.330615 0
M  V30 1612 C 148.947 1.70618 -3.17115 0
M  V30 1613 C 148.8 0.807964 -4.42484 0
M  V30 1614 C 150.119 2.67605 -3.49393 0
M  V30 1615 H 147.238 0.32627 -0.660846 0
M  V30 1616 H 149.88 0.168134 -1.89255 0
M  V30 1617 H 148.03 2.33133 -3.10775 0
M  V30 1618 H 149.702 0.19649 -4.60881 0
M  V30 1619 H 147.945 0.115411 -4.33646 0
M  V30 1620 H 148.616 1.40632 -5.33785 0
M  V30 1621 H 151.092 2.15218 -3.56118 0
M  V30 1622 H 149.968 3.20985 -4.45264 0
M  V30 1623 H 150.229 3.47298 -2.73563 0
M  V30 1624 N 149.288 1.51039 0.449983 0
M  V30 1625 C 150.513 1.6715 1.22783 0
M  V30 1626 C 150.938 0.363081 1.84563 0
M  V30 1627 O 150.296 -0.675433 1.68249 0
M  V30 1628 C 150.344 2.77985 2.29689 0
M  V30 1629 O 149.448 2.40707 3.34864 0
M  V30 1630 H 148.789 0.557746 0.360299 0
M  V30 1631 H 151.319 1.97535 0.533005 0
M  V30 1632 H 151.329 3.01693 2.74673 0
M  V30 1633 H 150.004 3.72935 1.84098 0
M  V30 1634 H 148.581 2.27523 2.95445 0
M  V30 1635 N 150.766 -0.704594 1.40972 0
M  V30 1636 C 151.699 -1.82861 1.36518 0
M  V30 1637 C 152.677 -1.6091 0.23382 0
M  V30 1638 O 153.861 -1.83778 0.419271 0
M  V30 1639 C 150.988 -3.1939 1.12729 0
M  V30 1640 C 150.034 -3.60148 2.28463 0
M  V30 1641 S 150.867 -3.65994 3.90907 0
M  V30 1642 C 152.023 -5.05264 3.69403 0
M  V30 1643 H 152.256 -1.86361 2.3164 0
M  V30 1644 H 149.789 -0.872439 1.27389 0
M  V30 1645 H 151.747 -3.98211 0.996893 0
M  V30 1646 H 150.408 -3.1351 0.192427 0
M  V30 1647 H 149.601 -4.59309 2.07489 0
M  V30 1648 H 149.203 -2.88612 2.37863 0
M  V30 1649 H 151.495 -5.92504 3.28551 0
M  V30 1650 H 152.438 -5.31278 4.68134 0
M  V30 1651 H 152.846 -4.76377 3.02862 0
M  V30 1652 N 152.244 -1.26651 -0.937939 0
M  V30 1653 C 153.472 -1.15173 -1.7188 0
M  V30 1654 C 153.887 0.292668 -1.86518 0
M  V30 1655 O 153.244 1.20014 -1.37488 0
M  V30 1656 C 153.295 -1.81925 -3.12387 0
M  V30 1657 O 153.016 -3.2072 -2.98446 0
M  V30 1658 C 154.517 -1.76442 -4.06673 0
M  V30 1659 H 151.737 -0.400911 -0.538063 0
M  V30 1660 H 154.281 -1.67332 -1.1756 0
M  V30 1661 H 152.436 -1.33696 -3.63599 0
M  V30 1662 H 152.85 -3.53802 -3.872 0
M  V30 1663 H 154.324 -2.27781 -5.02812 0
M  V30 1664 H 154.801 -0.731608 -4.33064 0
M  V30 1665 H 155.407 -2.24238 -3.61382 0
M  V30 1666 O 153.761 1.07174 -1.20814 0
M  V30 1667 H 154.452 1.67985 -0.964396 0
M  V30 END ATOM
M  V30 BEGIN BOND
M  V30 END BOND
M  V30 END CTAB
M  END
$$$$
