drugbank_target|P61432 UDP-N-acetylenolpyruvoylglucosamine reductase (DB03147)
 OpenBabel12092120263D

  0  0  0     0  0            999 V3000
M  V30 BEGIN CTAB
M  V30 COUNTS 4757 4796 0 0 0
M  V30 BEGIN ATOM
M  V30 1 H -0.908 1.98254 -0.117106 0
M  V30 2 N 0 1.576 0 0
M  V30 3 C 0.933 2.03868 1.02534 0
M  V30 4 C 1.911 0.928543 1.3348 0
M  V30 5 O 3.095 1.19667 1.45644 0
M  V30 6 C 0.222 2.43627 2.35294 0
M  V30 7 C -0.732 3.65373 2.2001 0
M  V30 8 S 0.101 5.13292 1.52614 0
M  V30 9 C 1.257 5.56322 2.86805 0
M  V30 10 H 1.49 2.90518 0.631377 0
M  V30 11 H -0.977 1.52953 0.210867 0
M  V30 12 H 0.981 2.67203 3.11629 0
M  V30 13 H -0.358 1.57376 2.7183 0
M  V30 14 H -1.165 3.90944 3.18086 0
M  V30 15 H -1.563 3.418 1.51819 0
M  V30 16 H 0.729 5.58782 3.83104 0
M  V30 17 H 1.672 6.56266 2.65933 0
M  V30 18 H 2.08 4.83886 2.90714 0
M  V30 19 N 1.4781 -0.272755 1.55222 0
M  V30 20 C 2.7271 -1.00211 1.75045 0
M  V30 21 C 3.0401 -1.87441 0.559046 0
M  V30 22 O 4.2461 -2.63856 0.639698 0
M  V30 23 C 2.7021 -1.83165 3.09804 0
M  V30 24 C 2.3101 -1.008 4.36513 0
M  V30 25 C 4.0541 -2.55529 3.38977 0
M  V30 26 C 1.9611 -1.83194 5.62311 0
M  V30 27 H 0.8911 -0.377878 0.652476 0
M  V30 28 H 3.5421 -0.257776 1.8168 0
M  V30 29 H 1.9241 -2.61694 2.97207 0
M  V30 30 H 3.0981 -0.266855 4.60027 0
M  V30 31 H 1.4131 -0.398897 4.14485 0
M  V30 32 H 4.0101 -3.17578 4.30172 0
M  V30 33 H 4.3531 -3.25825 2.59121 0
M  V30 34 H 4.8861 -1.84029 3.52673 0
M  V30 35 H 1.6251 -1.17318 6.44916 0
M  V30 36 H 1.1451 -2.54905 5.4294 0
M  V30 37 H 2.8241 -2.40552 6.00619 0
M  V30 38 N 2.9562 -1.48159 -0.537278 0
M  V30 39 C 3.9042 -1.62573 -1.66352 0
M  V30 40 C 4.8982 -0.492366 -1.62087 0
M  V30 41 O 6.1042 -0.670847 -1.67032 0
M  V30 42 H 2.4792 -0.511992 -0.550789 0
M  V30 43 H 4.4502 -2.57176 -1.51337 0
M  V30 44 C 3.1992 -1.67583 -3.04649 0
M  V30 45 H 2.5222 -2.54151 -3.08622 0
M  V30 46 H 3.9622 -1.81713 -3.83088 0
M  V30 47 C 2.4212 -0.413039 -3.34358 0
M  V30 48 O 2.9512 0.477259 -3.98855 0
M  V30 49 N 1.1572 -0.286961 -2.8918 0
M  V30 50 H 0.7042 -1.01241 -2.36871 0
M  V30 51 H 0.6622 0.556963 -3.09427 0
M  V30 52 N 4.4343 0.785586 -1.36625 0
M  V30 53 C 5.3813 1.89838 -1.31264 0
M  V30 54 C 6.3513 1.65115 -0.180633 0
M  V30 55 O 7.5363 1.87222 -0.36777 0
M  V30 56 C 4.6763 3.26706 -1.11163 0
M  V30 57 C 3.7893 3.63476 -2.33472 0
M  V30 58 C 2.9243 4.89481 -2.06353 0
M  V30 59 C 1.9633 5.18941 -3.24602 0
M  V30 60 N 1.1003 6.36131 -2.97123 0
M  V30 61 H 5.9403 1.93756 -2.26413 0
M  V30 62 H 3.4773 0.947454 -1.12524 0
M  V30 63 H 5.4353 4.05639 -0.975337 0
M  V30 64 H 4.0653 3.222 -0.196674 0
M  V30 65 H 3.1173 2.79636 -2.57891 0
M  V30 66 H 4.4293 3.81193 -3.21704 0
M  V30 67 H 3.5833 5.76288 -1.89675 0
M  V30 68 H 2.3223 4.73841 -1.15437 0
M  V30 69 H 1.3273 4.30615 -3.41834 0
M  V30 70 H 2.5523 5.36498 -4.16349 0
M  V30 71 H 0.4983 6.21875 -2.08823 0
M  V30 72 H 0.4153 6.54198 -3.78894 0
M  V30 73 H 1.6833 7.2591 -2.84033 0
M  V30 74 N 5.9124 1.20967 1.01018 0
M  V30 75 C 7.1894 0.93264 1.71934 0
M  V30 76 C 7.5694 -0.55692 2.03621 0
M  V30 77 O 6.9174 -1.52035 1.7058 0
M  V30 78 C 7.1274 1.81233 2.98254 0
M  V30 79 C 8.4754 2.05804 3.71389 0
M  V30 80 O 9.4994 1.78539 3.08225 0
M  V30 81 O 8.3584 2.51888 4.84989 0
M  V30 82 H 5.4524 0.349272 0.749625 0
M  V30 83 H 7.9984 1.31871 1.06808 0
M  V30 84 H 6.7704 2.82067 2.71208 0
M  V30 85 H 6.3934 1.42674 3.7112 0
M  V30 86 N 7.3905 -1.2043 1.01659 0
M  V30 87 C 8.6395 -1.89118 0.701237 0
M  V30 88 C 8.9525 -1.79705 -0.772358 0
M  V30 89 O 10.1585 -2.43528 -1.20026 0
M  V30 90 C 8.6145 -3.39168 1.20388 0
M  V30 91 C 8.2225 -3.57166 2.70438 0
M  V30 92 C 9.9665 -4.1341 0.963953 0
M  V30 93 C 7.8735 -5.01042 3.14183 0
M  V30 94 H 6.8035 -0.708267 0.2586 0
M  V30 95 H 9.4545 -1.36239 1.22927 0
M  V30 96 H 7.8365 -3.91369 0.603824 0
M  V30 97 H 9.0105 -3.15351 3.35992 0
M  V30 98 H 7.3255 -2.96294 2.92572 0
M  V30 99 H 9.9225 -5.19491 1.26621 0
M  V30 100 H 10.2655 -4.16181 -0.099578 0
M  V30 101 H 10.7985 -3.67309 1.52738 0
M  V30 102 H 7.5375 -5.03426 4.19812 0
M  V30 103 H 7.0575 -5.43668 2.53348 0
M  V30 104 H 8.7365 -5.69623 3.0682 0
M  V30 105 N 8.8686 -0.792821 -1.36206 0
M  V30 106 C 10.0986 -0.378275 -2.03107 0
M  V30 107 C 10.5066 1.01119 -1.59911 0
M  V30 108 O 9.8496 1.66052 -0.785658 0
M  V30 109 C 9.9116 -0.366535 -3.57627 0
M  V30 110 C 9.5756 -1.70416 -4.24037 0
M  V30 111 C 10.5726 -2.6602 -4.46687 0
M  V30 112 C 8.2576 -1.98439 -4.6144 0
M  V30 113 C 10.2516 -3.8784 -5.05825 0
M  V30 114 C 7.9386 -3.20525 -5.20295 0
M  V30 115 C 8.9366 -4.15044 -5.42427 0
M  V30 116 O 8.6246 -5.34978 -6.00045 0
M  V30 117 H 8.3566 -0.153543 -0.658332 0
M  V30 118 H 10.9106 -1.07383 -1.75094 0
M  V30 119 H 9.1406 0.385539 -3.84773 0
M  V30 120 H 10.8296 0.0238088 -4.05893 0
M  V30 121 H 11.5956 -2.45658 -4.18183 0
M  V30 122 H 7.4746 -1.25686 -4.43536 0
M  V30 123 H 11.0186 -4.61628 -5.23015 0
M  V30 124 H 6.9156 -3.40764 -5.48225 0
M  V30 125 H 7.6836 -5.36088 -6.18508 0
M  V30 126 N 10.3467 1.47872 -0.545128 0
M  V30 127 C 11.2787 2.27869 0.246621 0
M  V30 128 C 12.2917 1.36282 0.890561 0
M  V30 129 O 13.4807 1.61207 0.766449 0
M  V30 130 C 10.5807 3.10159 1.36582 0
M  V30 131 C 9.7537 4.29627 0.820954 0
M  V30 132 C 8.8127 4.93607 1.82314 0
M  V30 133 O 7.8387 5.52366 1.37406 0
M  V30 134 N 9.0407 4.87211 3.15603 0
M  V30 135 H 11.8057 2.96459 -0.439539 0
M  V30 136 H 9.3667 1.57367 -0.380421 0
M  V30 137 H 11.3587 3.49829 2.03474 0
M  V30 138 H 9.9287 2.43891 1.9554 0
M  V30 139 H 9.1487 3.94192 -0.0244032 0
M  V30 140 H 10.4367 5.06928 0.436063 0
M  V30 141 H 9.8347 4.40651 3.54744 0
M  V30 142 H 8.3917 5.30937 3.78087 0
M  V30 143 N 11.8248 0.280983 1.55075 0
M  V30 144 C 12.7878 -0.590896 2.21452 0
M  V30 145 C 13.7878 -1.07682 1.19421 0
M  V30 146 O 14.9778 -0.97605 1.44288 0
M  V30 147 C 12.1098 -1.81587 2.88511 0
M  V30 148 H 13.3028 -0.0112554 2.99898 0
M  V30 149 H 10.8558 0.0316438 1.56268 0
M  V30 150 H 11.5908 -2.43587 2.14093 0
M  V30 151 H 11.3758 -1.4753 3.63287 0
M  V30 152 H 12.8658 -2.43575 3.39206 0
M  V30 153 N 13.3029 -1.57598 0.00835791 0
M  V30 154 C 14.2329 -2.1198 -0.979113 0
M  V30 155 C 15.2139 -1.03091 -1.35301 0
M  V30 156 O 16.3989 -1.30818 -1.43528 0
M  V30 157 C 13.5289 -2.62995 -2.26828 0
M  V30 158 C 12.4829 -3.76485 -2.03576 0
M  V30 159 C 11.8089 -4.13846 -3.38579 0
M  V30 160 C 13.1089 -5.0342 -1.39161 0
M  V30 161 H 14.8029 -2.94738 -0.526281 0
M  V30 162 H 12.3489 -1.41783 -0.251704 0
M  V30 163 H 14.3019 -2.99669 -2.96271 0
M  V30 164 H 13.0259 -1.7737 -2.7424 0
M  V30 165 H 11.6849 -3.40217 -1.36557 0
M  V30 166 H 11.3329 -3.25232 -3.83709 0
M  V30 167 H 11.0329 -4.90312 -3.23834 0
M  V30 168 H 12.5569 -4.53086 -4.09323 0
M  V30 169 H 13.9709 -5.37812 -1.98573 0
M  V30 170 H 12.3679 -5.84746 -1.34878 0
M  V30 171 H 13.4379 -4.83548 -0.361868 0
M  V30 172 N 14.781 0.264519 -1.55364 0
M  V30 173 C 15.713 1.34965 -1.85248 0
M  V30 174 C 16.726 1.45136 -0.737525 0
M  V30 175 O 17.915 1.46801 -1.01547 0
M  V30 176 C 15.015 2.73008 -2.00797 0
M  V30 177 C 14.188 2.85324 -3.31525 0
M  V30 178 C 13.247 4.04097 -3.37034 0
M  V30 179 O 12.273 3.94455 -4.10358 0
M  V30 180 N 13.475 5.16458 -2.65049 0
M  V30 181 H 16.24 1.09672 -2.78913 0
M  V30 182 H 13.801 0.454635 -1.55386 0
M  V30 183 H 15.793 3.50772 -2.01844 0
M  V30 184 H 14.363 2.91087 -1.1396 0
M  V30 185 H 13.583 1.94377 -3.42945 0
M  V30 186 H 14.871 2.9049 -4.17724 0
M  V30 187 H 14.269 5.27181 -2.05175 0
M  V30 188 H 12.826 5.92422 -2.71809 0
M  V30 189 N 16.2591 1.48442 0.529413 0
M  V30 190 C 17.1911 1.59095 1.64989 0
M  V30 191 C 18.2041 0.475212 1.5571 0
M  V30 192 O 19.3931 0.746081 1.6216 0
M  V30 193 C 16.4931 1.50518 3.0364 0
M  V30 194 C 15.6661 2.77142 3.38395 0
M  V30 195 C 14.7251 2.62012 4.56329 0
M  V30 196 O 13.7511 3.35898 4.59522 0
M  V30 197 N 14.9531 1.71667 5.54536 0
M  V30 198 H 17.7181 2.55723 1.56287 0
M  V30 199 H 15.2791 1.45173 0.716697 0
M  V30 200 H 17.2711 1.38091 3.80412 0
M  V30 201 H 15.8411 0.618627 3.06418 0
M  V30 202 H 15.0611 3.0413 2.50796 0
M  V30 203 H 16.3491 3.61146 3.58401 0
M  V30 204 H 15.7471 1.10841 5.54735 0
M  V30 205 H 14.3041 1.65178 6.30523 0
M  V30 206 N 17.7372 -0.778329 1.37039 0
M  V30 207 C 18.6672 -1.90546 1.34962 0
M  V30 208 C 19.6482 -1.68681 0.219274 0
M  V30 209 O 20.8332 -1.89634 0.418624 0
M  V30 210 C 17.9632 -3.27734 1.14925 0
M  V30 211 C 16.9172 -3.64147 2.24902 0
M  V30 212 C 16.2432 -4.99806 1.89996 0
M  V30 213 C 17.5432 -3.71579 3.67051 0
M  V30 214 H 19.2372 -1.92541 2.29277 0
M  V30 215 H 16.7832 -0.924948 1.10366 0
M  V30 216 H 18.7362 -4.06215 1.12104 0
M  V30 217 H 17.4602 -3.26154 0.170631 0
M  V30 218 H 16.1192 -2.8797 2.26868 0
M  V30 219 H 15.7672 -4.94759 0.906796 0
M  V30 220 H 15.4672 -5.25139 2.63634 0
M  V30 221 H 16.9912 -5.80694 1.88749 0
M  V30 222 H 18.4052 -4.40227 3.67251 0
M  V30 223 H 16.8022 -4.08405 4.39688 0
M  V30 224 H 17.8722 -2.72404 4.01154 0
M  V30 225 N 19.2153 -1.21501 -1.00376 0
M  V30 226 C 20.4643 -1.02718 -1.73586 0
M  V30 227 C 20.7773 0.439589 -1.90596 0
M  V30 228 O 21.9833 0.746848 -2.61026 0
M  V30 229 C 20.4393 -1.78929 -3.1227 0
M  V30 230 C 20.0473 -3.29783 -3.03228 0
M  V30 231 C 21.7913 -1.68557 -3.89601 0
M  V30 232 C 19.6983 -3.98479 -4.36999 0
M  V30 233 H 18.6283 -0.380733 -0.650814 0
M  V30 234 H 21.2793 -1.45248 -1.1214 0
M  V30 235 H 19.6613 -1.29192 -3.74333 0
M  V30 236 H 20.8353 -3.86832 -2.50395 0
M  V30 237 H 19.1503 -3.40711 -2.39385 0
M  V30 238 H 21.7473 -2.17211 -4.88593 0
M  V30 239 H 22.0903 -0.644021 -4.11288 0
M  V30 240 H 22.6233 -2.15778 -3.34193 0
M  V30 241 H 19.3623 -5.02841 -4.20513 0
M  V30 242 H 18.8823 -3.46219 -4.89788 0
M  V30 243 H 20.5613 -4.03462 -5.05794 0
M  V30 244 N 20.6934 1.19889 -1.02296 0
M  V30 245 C 22.1044 1.71124 -0.746568 0
M  V30 246 C 22.4554 1.81939 0.734335 0
M  V30 247 O 21.5804 1.48639 1.57275 0
M  V30 248 C 22.1754 3.10804 -1.34857 0
M  V30 249 C 20.7344 3.59323 -1.1209 0
M  V30 250 C 19.8814 2.3635 -1.45031 0
M  V30 251 H 22.8324 1.04813 -1.19163 0
M  V30 252 H 22.8534 3.73186 -0.742437 0
M  V30 253 H 22.3654 3.029 -2.42638 0
M  V30 254 H 20.4664 3.7255 -0.0610337 0
M  V30 255 H 20.5794 4.4378 -1.80544 0
M  V30 256 H 18.9434 2.39399 -0.869487 0
M  V30 257 H 19.7264 2.31081 -2.53883 0
M  V30 258 N 22.1715 0.800033 1.35784 0
M  V30 259 C 23.1195 0.193851 2.31791 0
M  V30 260 C 24.1135 -0.652744 1.56319 0
M  V30 261 O 25.3195 -0.546641 1.71499 0
M  V30 262 H 21.6945 0.04392 0.750716 0
M  V30 263 H 23.6655 1.01883 2.80468 0
M  V30 264 C 22.4145 -0.648338 3.41602 0
M  V30 265 H 21.7375 -0.00624665 3.998 0
M  V30 266 H 23.1775 -1.03898 4.11073 0
M  V30 267 C 21.6365 -1.8111 2.84079 0
M  V30 268 O 22.1665 -2.90825 2.77099 0
M  V30 269 N 20.3725 -1.62056 2.41218 0
M  V30 270 H 19.9195 -0.728123 2.47095 0
M  V30 271 H 19.8775 -2.40013 2.03079 0
M  V30 272 N 23.6496 -1.47581 0.552962 0
M  V30 273 C 24.5596 -2.33743 -0.200353 0
M  V30 274 C 25.5756 -1.47928 -0.916151 0
M  V30 275 O 26.7516 -1.80865 -0.885993 0
M  V30 276 C 23.8166 -3.24536 -1.21973 0
M  V30 277 C 22.8776 -4.26238 -0.511819 0
M  V30 278 C 22.1106 -5.12693 -1.48263 0
M  V30 279 O 22.3336 -5.01525 -2.71714 0
M  V30 280 O 21.2676 -5.93375 -1.00945 0
M  V30 281 H 25.0936 -2.9945 0.506304 0
M  V30 282 H 22.6786 -1.46071 0.313622 0
M  V30 283 H 24.5606 -3.80631 -1.80827 0
M  V30 284 H 23.2356 -2.61462 -1.90839 0
M  V30 285 H 22.1426 -3.73914 0.117799 0
M  V30 286 H 23.4756 -4.92014 0.135308 0
M  V30 287 N 25.1277 -0.289203 -1.54924 0
M  V30 288 C 26.0747 0.592115 -2.23075 0
M  V30 289 C 27.0447 1.13881 -1.20915 0
M  V30 290 O 28.2297 1.18551 -1.495 0
M  V30 291 C 25.3697 1.76376 -2.96623 0
M  V30 292 C 24.4827 1.24959 -4.13533 0
M  V30 293 C 23.6177 2.38416 -4.74691 0
M  V30 294 C 22.6567 1.84072 -5.83767 0
M  V30 295 N 21.7937 2.91057 -6.38929 0
M  V30 296 H 26.6337 0.00432038 -2.98 0
M  V30 297 H 24.1707 -0.00963529 -1.47097 0
M  V30 298 H 26.1287 2.45268 -3.3749 0
M  V30 299 H 24.7587 2.32337 -2.24097 0
M  V30 300 H 23.8107 0.453307 -3.77689 0
M  V30 301 H 25.1227 0.811662 -4.92152 0
M  V30 302 H 24.2767 3.15276 -5.18349 0
M  V30 303 H 23.0157 2.8553 -3.95378 0
M  V30 304 H 22.0207 1.05697 -5.39545 0
M  V30 305 H 23.2457 1.37877 -6.64956 0
M  V30 306 H 21.1917 3.37526 -5.62505 0
M  V30 307 H 21.1087 2.51724 -7.12861 0
M  V30 308 H 22.3767 3.6785 -6.87246 0
M  V30 309 N 26.6058 1.57591 -0.0167156 0
M  V30 310 C 27.8548 1.90461 0.663877 0
M  V30 311 C 28.1678 0.893515 1.73999 0
M  V30 312 O 29.3738 1.11302 2.47637 0
M  V30 313 C 27.8298 3.38155 1.23204 0
M  V30 314 C 27.4378 4.47597 0.189866 0
M  V30 315 C 29.1818 3.80111 1.88986 0
M  V30 316 C 27.0888 5.86379 0.768964 0
M  V30 317 H 26.0188 0.710738 0.251729 0
M  V30 318 H 28.6698 1.83326 -0.0799926 0
M  V30 319 H 27.0518 3.40182 2.02712 0
M  V30 320 H 28.2258 4.57112 -0.581846 0
M  V30 321 H 26.5408 4.14766 -0.368475 0
M  V30 322 H 29.1378 4.81145 2.33247 0
M  V30 323 H 29.4808 3.14511 2.72743 0
M  V30 324 H 30.0138 3.80454 1.16187 0
M  V30 325 H 26.7528 6.55493 -0.0301957 0
M  V30 326 H 26.2728 5.80496 1.50945 0
M  V30 327 H 27.9518 6.34563 1.26251 0
M  V30 328 N 28.0839 -0.256276 1.55502 0
M  V30 329 C 29.0309 -1.31714 1.89526 0
M  V30 330 C 30.0009 -1.4828 0.748479 0
M  V30 331 O 31.1859 -1.62416 1.00128 0
M  V30 332 C 28.3259 -2.66933 2.18725 0
M  V30 333 C 27.4389 -2.58452 3.4616 0
M  V30 334 C 26.5739 -3.85961 3.64976 0
M  V30 335 C 25.6129 -3.72059 4.86044 0
M  V30 336 N 24.7499 -4.9144 5.01429 0
M  V30 337 H 29.5899 -1.01998 2.80001 0
M  V30 338 H 27.1269 -0.492413 1.38613 0
M  V30 339 H 29.0849 -3.4563 2.33657 0
M  V30 340 H 27.7149 -2.94816 1.31466 0
M  V30 341 H 26.7669 -1.71374 3.3961 0
M  V30 342 H 28.0789 -2.44085 4.34999 0
M  V30 343 H 27.2329 -4.73101 3.79816 0
M  V30 344 H 25.9719 -4.03215 2.74353 0
M  V30 345 H 24.9769 -2.83302 4.7119 0
M  V30 346 H 26.2019 -3.56309 5.78118 0
M  V30 347 H 24.1479 -5.09072 4.13741 0
M  V30 348 H 24.0649 -4.79668 5.84341 0
M  V30 349 H 25.3329 -5.80104 5.20672 0
M  V30 350 N 29.562 -1.4872 -0.521534 0
M  V30 351 C 30.808 -1.574 -1.27879 0
M  V30 352 C 31.141 -0.250817 -1.92573 0
M  V30 353 O 30.416 0.743934 -1.79711 0
M  V30 354 C 30.699 -2.71843 -2.36164 0
M  V30 355 C 30.552 -4.13893 -1.76105 0
M  V30 356 C 31.871 -2.82008 -3.37875 0
M  V30 357 H 28.99 -0.572941 -0.463581 0
M  V30 358 H 31.632 -1.80927 -0.580119 0
M  V30 359 H 29.782 -2.51914 -2.95756 0
M  V30 360 H 31.454 -4.45284 -1.20499 0
M  V30 361 H 29.697 -4.20498 -1.06601 0
M  V30 362 H 30.368 -4.89804 -2.5455 0
M  V30 363 H 32.844 -3.00086 -2.88249 0
M  V30 364 H 31.72 -3.63796 -4.11028 0
M  V30 365 H 31.981 -1.90511 -3.98946 0
M  V30 366 N 31.0401 0.771051 -1.3745 0
M  V30 367 C 32.3171 1.519 -1.23231 0
M  V30 368 C 32.6971 2.10383 0.173809 0
M  V30 369 O 32.0451 1.95583 1.18151 0
M  V30 370 C 32.2551 2.59933 -2.32886 0
M  V30 371 C 33.6031 3.27316 -2.70461 0
M  V30 372 O 34.6271 2.70228 -2.32068 0
M  V30 373 O 33.4861 4.30531 -3.36608 0
M  V30 374 H 30.5801 0.672803 -0.480901 0
M  V30 375 H 33.1261 0.807957 -1.49232 0
M  V30 376 H 31.8981 2.14842 -3.27045 0
M  V30 377 H 31.5211 3.38637 -2.08353 0
M  V30 378 N 32.5182 1.22032 0.997298 0
M  V30 379 C 33.4282 1.00271 2.12092 0
M  V30 380 C 34.4442 -0.047621 1.73935 0
M  V30 381 O 35.6202 0.144136 2.00884 0
M  V30 382 C 32.6852 0.578449 3.4184 0
M  V30 383 C 31.7462 1.70189 3.94125 0
M  V30 384 C 30.9792 1.29778 5.17681 0
M  V30 385 O 31.2022 0.174676 5.70132 0
M  V30 386 O 30.1362 2.11261 5.63607 0
M  V30 387 H 33.9622 1.94398 2.3333 0
M  V30 388 H 31.5472 1.00587 1.10465 0
M  V30 389 H 33.4292 0.351998 4.19927 0
M  V30 390 H 32.1042 -0.334019 3.21972 0
M  V30 391 H 31.0112 1.98282 3.1723 0
M  V30 392 H 32.3442 2.59206 4.18417 0
M  V30 393 N 33.9963 -1.19345 1.0293 0
M  V30 394 C 35.4073 -1.70725 0.755633 0
M  V30 395 C 35.7583 -1.82326 -0.724676 0
M  V30 396 O 34.8833 -1.49471 -1.56484 0
M  V30 397 C 35.4783 -3.10084 1.36503 0
M  V30 398 C 34.0373 -3.58723 1.13994 0
M  V30 399 C 33.1843 -2.35577 1.46283 0
M  V30 400 H 36.1353 -1.0418 1.19718 0
M  V30 401 H 36.1563 -3.72787 0.762217 0
M  V30 402 H 35.6683 -3.01609 2.44241 0
M  V30 403 H 33.7693 -3.72512 0.0807901 0
M  V30 404 H 33.8823 -4.42816 1.82894 0
M  V30 405 H 32.2463 -2.38935 0.88217 0
M  V30 406 H 33.0293 -2.29731 2.55105 0
M  V30 407 N 35.4744 -0.807222 -1.35358 0
M  V30 408 C 36.4044 -0.232509 -2.3234 0
M  V30 409 C 37.3854 0.642386 -1.57504 0
M  V30 410 O 38.5704 0.572526 -1.85569 0
M  V30 411 C 35.7004 0.619238 -3.41735 0
M  V30 412 C 34.6544 -0.157215 -4.27711 0
M  V30 413 C 33.9804 0.816273 -5.28433 0
M  V30 414 C 35.2804 -1.35656 -5.04376 0
M  V30 415 H 36.9744 -1.04276 -2.80654 0
M  V30 416 H 34.5204 -0.50288 -1.34934 0
M  V30 417 H 36.4734 1.03137 -4.08584 0
M  V30 418 H 35.1974 1.46239 -2.92031 0
M  V30 419 H 33.8564 -0.550525 -3.62443 0
M  V30 420 H 33.5044 1.65494 -4.74996 0
M  V30 421 H 33.2044 0.301067 -5.86828 0
M  V30 422 H 34.7284 1.22659 -5.98153 0
M  V30 423 H 36.1424 -1.01927 -5.64166 0
M  V30 424 H 34.5394 -1.8063 -5.7227 0
M  V30 425 H 35.6094 -2.14288 -4.34981 0
M  V30 426 N 36.9525 1.47285 -0.560781 0
M  V30 427 C 37.8995 2.30058 0.18491 0
M  V30 428 C 38.8695 1.39281 0.904986 0
M  V30 429 O 40.0545 1.68241 0.899979 0
M  V30 430 C 37.1945 3.23317 1.20666 0
M  V30 431 C 36.3075 4.29186 0.492285 0
M  V30 432 C 35.4425 5.09592 1.49964 0
M  V30 433 C 34.4815 6.07232 0.770439 0
M  V30 434 N 33.6185 6.80584 1.72479 0
M  V30 435 H 38.4585 2.93302 -0.527048 0
M  V30 436 H 35.9955 1.44568 -0.271738 0
M  V30 437 H 37.9535 3.75811 1.81168 0
M  V30 438 H 36.5835 2.61929 1.88661 0
M  V30 439 H 35.6355 3.7972 -0.227333 0
M  V30 440 H 36.9475 4.98738 -0.0787929 0
M  V30 441 H 36.1015 5.66254 2.17809 0
M  V30 442 H 34.8405 4.3995 2.10464 0
M  V30 443 H 33.8455 5.49745 0.0780846 0
M  V30 444 H 35.0705 6.78884 0.171134 0
M  V30 445 H 33.0165 6.1367 2.3183 0
M  V30 446 H 32.9335 7.46319 1.20596 0
M  V30 447 H 34.2015 7.41818 2.39428 0
M  V30 448 N 38.4306 0.297415 1.54768 0
M  V30 449 C 39.8466 -0.0560823 1.59501 0
M  V30 450 C 40.0466 -1.52725 1.31444 0
M  V30 451 O 39.1026 -2.27947 1.08611 0
M  V30 452 C 40.4156 0.338631 2.98787 0
M  V30 453 C 41.9636 0.287097 3.11681 0
M  V30 454 C 42.4386 0.656579 4.53269 0
M  V30 455 N 43.9296 0.608977 4.59179 0
M  V30 456 C 44.6646 0.867385 5.66802 0
M  V30 457 N 44.1606 1.19157 6.82476 0
M  V30 458 N 45.9536 0.794687 5.56454 0
M  V30 459 H 38.1046 1.25624 1.71267 0
M  V30 460 H 40.3676 0.509057 0.799728 0
M  V30 461 H 40.0736 1.36263 3.2423 0
M  V30 462 H 39.9476 -0.309508 3.75928 0
M  V30 463 H 42.3346 -0.727649 2.85988 0
M  V30 464 H 42.4156 0.969809 2.36703 0
M  V30 465 H 42.0596 1.66912 4.7969 0
M  V30 466 H 41.9896 -0.0481649 5.26578 0
M  V30 467 H 44.4806 0.369198 3.76092 0
M  V30 468 H 44.7936 1.37482 7.60473 0
M  V30 469 H 43.1386 1.22958 6.84037 0
M  V30 470 H 46.3296 0.541098 4.64962 0
M  V30 471 H 46.5026 0.999445 6.40246 0
M  V30 472 N 39.9087 -1.5758 0.0250728 0
M  V30 473 C 41.1387 -1.95646 -0.663783 0
M  V30 474 C 41.5467 -0.899935 -1.66427 0
M  V30 475 O 40.8897 0.127191 -1.83259 0
M  V30 476 C 40.9517 -3.29835 -1.43 0
M  V30 477 C 40.6157 -4.53197 -0.588305 0
M  V30 478 C 41.6127 -5.19726 0.13469 0
M  V30 479 C 39.2977 -4.99529 -0.526897 0
M  V30 480 C 41.2917 -6.30902 0.90781 0
M  V30 481 C 38.9787 -6.10589 0.24993 0
M  V30 482 C 39.9767 -6.76134 0.965994 0
M  V30 483 O 39.6647 -7.85062 1.7301 0
M  V30 484 H 39.3967 -0.649282 -0.188174 0
M  V30 485 H 41.9507 -2.05245 0.0799006 0
M  V30 486 H 40.1807 -3.16716 -2.21873 0
M  V30 487 H 41.8697 -3.52833 -2.00658 0
M  V30 488 H 42.6357 -4.84904 0.0965562 0
M  V30 489 H 38.5147 -4.48319 -1.07381 0
M  V30 490 H 42.0587 -6.81995 1.46724 0
M  V30 491 H 37.9557 -6.44849 0.289795 0
M  V30 492 H 38.7237 -8.01708 1.64944 0
M  V30 493 N 41.3868 0.248026 -1.55636 0
M  V30 494 C 42.6148 0.993808 -1.81469 0
M  V30 495 C 43.0298 1.78991 -0.60064 0
M  V30 496 O 42.3868 1.77345 0.430682 0
M  V30 497 C 42.4378 1.93258 -3.05506 0
M  V30 498 O 42.1588 1.16869 -4.22224 0
M  V30 499 C 43.6598 2.79444 -3.4413 0
M  V30 500 H 40.8798 0.292486 -0.603898 0
M  V30 501 H 43.4238 0.271253 -2.02693 0
M  V30 502 H 41.5788 2.60943 -2.86335 0
M  V30 503 H 41.9928 1.80359 -4.92515 0
M  V30 504 H 43.4668 3.41066 -4.34026 0
M  V30 505 H 43.9438 3.50499 -2.64665 0
M  V30 506 H 44.5498 2.17214 -3.65648 0
M  V30 507 N 42.8649 1.48995 0.513639 0
M  V30 508 C 44.0949 1.61297 1.291 0
M  V30 509 C 44.5029 0.278656 1.87137 0
M  V30 510 O 43.8459 -0.744325 1.67945 0
M  V30 511 C 43.9079 2.61326 2.46879 0
M  V30 512 C 43.5719 4.05993 2.09807 0
M  V30 513 C 44.5689 4.93183 1.64519 0
M  V30 514 C 42.2539 4.51642 2.19829 0
M  V30 515 C 44.2479 6.24056 1.2974 0
M  V30 516 C 41.9349 5.82532 1.84662 0
M  V30 517 C 42.9329 6.68562 1.3969 0
M  V30 518 O 42.6209 7.97014 1.04992 0
M  V30 519 H 42.3529 0.546236 0.39825 0
M  V30 520 H 44.9069 1.95673 0.62459 0
M  V30 521 H 43.1369 2.22104 3.16554 0
M  V30 522 H 44.8259 2.6329 3.08923 0
M  V30 523 H 45.5919 4.59147 1.56233 0
M  V30 524 H 41.4709 3.84855 2.53786 0
M  V30 525 H 45.0149 6.91161 0.945659 0
M  V30 526 H 40.9119 6.16099 1.92594 0
M  V30 527 H 41.6799 8.09913 1.18249 0
M  V30 528 N 44.343 -0.763751 1.37857 0
M  V30 529 C 45.571 -1.55293 1.36718 0
M  V30 530 C 45.986 -1.88745 -0.0455434 0
M  V30 531 O 45.343 -1.52039 -1.00947 0
M  V30 532 C 45.394 -2.85831 2.2132 0
M  V30 533 O 45.115 -2.5381 3.57089 0
M  V30 534 C 46.616 -3.80023 2.28249 0
M  V30 535 H 43.836 -0.480841 0.468009 0
M  V30 536 H 46.38 -0.946009 1.81303 0
M  V30 537 H 44.535 -3.42926 1.80223 0
M  V30 538 H 44.949 -3.37459 4.01524 0
M  V30 539 H 46.423 -4.68599 2.91752 0
M  V30 540 H 46.9 -4.1973 1.2932 0
M  V30 541 H 47.506 -3.28855 2.69693 0
M  V30 542 N 45.8211 -1.22559 -0.990812 0
M  V30 543 C 46.7681 -0.997519 -2.0813 0
M  V30 544 C 47.7381 0.0814702 -1.659 0
M  V30 545 O 48.9231 -0.0685424 -1.90677 0
M  V30 546 C 46.0631 -0.583615 -3.40129 0
M  V30 547 C 45.1761 -1.7336 -3.9569 0
M  V30 548 C 44.3111 -1.26748 -5.15857 0
M  V30 549 C 43.3501 -2.38888 -5.63559 0
M  V30 550 N 42.4871 -1.93308 -6.74964 0
M  V30 551 H 47.3271 -1.93099 -2.26973 0
M  V30 552 H 44.8641 -0.962114 -1.11273 0
M  V30 553 H 46.8221 -0.324801 -4.15934 0
M  V30 554 H 45.4521 0.312845 -3.2128 0
M  V30 555 H 44.5041 -2.10669 -3.16738 0
M  V30 556 H 45.8161 -2.57704 -4.27071 0
M  V30 557 H 44.9701 -0.966173 -5.98957 0
M  V30 558 H 43.7091 -0.394272 -4.86104 0
M  V30 559 H 42.7141 -2.69805 -4.79046 0
M  V30 560 H 43.9391 -3.26728 -5.95336 0
M  V30 561 H 41.8851 -1.08352 -6.4699 0
M  V30 562 H 41.8021 -2.71217 -7.05675 0
M  V30 563 H 43.0701 -1.66252 -7.61564 0
M  V30 564 N 47.2992 1.18797 -1.03562 0
M  V30 565 C 48.5272 1.92599 -0.755869 0
M  V30 566 C 48.9422 1.75886 0.686271 0
M  V30 567 O 48.2992 1.08517 1.46732 0
M  V30 568 C 48.3502 3.44159 -1.10619 0
M  V30 569 O 48.0712 3.60341 -2.4917 0
M  V30 570 C 49.5722 4.3507 -0.850214 0
M  V30 571 H 46.7922 0.611587 -0.276048 0
M  V30 572 H 49.3362 1.50742 -1.38192 0
M  V30 573 H 47.4912 3.83823 -0.525194 0
M  V30 574 H 47.9052 4.54128 -2.62427 0
M  V30 575 H 49.3792 5.39989 -1.14523 0
M  V30 576 H 49.8562 4.38673 0.215176 0
M  V30 577 H 50.4622 4.01097 -1.41426 0
M  V30 578 N 48.7773 0.814389 1.34928 0
M  V30 579 C 50.0253 0.397636 1.9815 0
M  V30 580 C 50.3463 -1.04069 1.64908 0
M  V30 581 O 49.6163 -1.72121 0.93548 0
M  V30 582 H 48.1963 0.144043 0.732981 0
M  V30 583 H 50.8583 1.04195 1.6471 0
M  V30 584 H 49.9543 0.509688 3.0791 0
M  V30 585 N 50.2554 -1.46986 0.568584 0
M  V30 586 C 51.5034 -2.02041 0.0487022 0
M  V30 587 C 51.8244 -1.44408 -1.31039 0
M  V30 588 O 51.0944 -0.623477 -1.85714 0
M  V30 589 H 49.6744 -0.746849 0.015014 0
M  V30 590 H 52.3364 -1.80257 0.741168 0
M  V30 591 H 51.4324 -3.12085 -0.0308961 0
M  V30 592 N 51.7335 -0.305618 -1.54608 0
M  V30 593 C 52.6815 0.584119 -2.25146 0
M  V30 594 C 53.6755 1.13326 -1.25911 0
M  V30 595 O 54.8815 1.08337 -1.43747 0
M  V30 596 H 51.2565 0.206983 -0.722954 0
M  V30 597 H 53.2275 -0.033291 -2.98381 0
M  V30 598 C 51.9765 1.74225 -3.009 0
M  V30 599 H 51.2995 1.32892 -3.77067 0
M  V30 600 H 52.7395 2.34077 -3.53531 0
M  V30 601 C 51.1985 2.64914 -2.0814 0
M  V30 602 O 51.7285 3.66137 -1.65246 0
M  V30 603 N 49.9345 2.3275 -1.74 0
M  V30 604 H 49.4815 1.50479 -2.09078 0
M  V30 605 H 49.4395 2.93694 -1.12211 0
M  V30 606 N 53.2116 1.57565 -0.0334293 0
M  V30 607 C 54.1746 2.09393 0.932048 0
M  V30 608 C 55.1746 1.00986 1.25134 0
M  V30 609 O 56.3646 1.27129 1.19096 0
M  V30 610 C 53.4966 2.56338 2.2473 0
M  V30 611 H 54.6896 2.95984 0.483085 0
M  V30 612 H 52.2426 1.54819 0.21468 0
M  V30 613 H 52.9776 1.7309 2.74245 0
M  V30 614 H 52.7626 3.35542 2.02865 0
M  V30 615 H 54.2526 2.96646 2.93923 0
M  V30 616 N 54.6897 -0.239769 1.55765 0
M  V30 617 C 55.9667 -0.990056 1.68693 0
M  V30 618 C 56.3467 -2.03107 0.5754 0
M  V30 619 O 55.6947 -2.24604 -0.42017 0
M  V30 620 C 55.9047 -1.61696 3.09282 0
M  V30 621 C 57.2527 -2.11613 3.6811 0
M  V30 622 O 58.2767 -1.71624 3.12127 0
M  V30 623 O 57.1357 -2.85057 4.66267 0
M  V30 624 H 54.2297 -0.461299 0.686391 0
M  V30 625 H 56.7757 -0.232991 1.68093 0
M  V30 626 H 55.5477 -0.864357 3.81634 0
M  V30 627 H 55.1707 -2.44005 3.13923 0
M  V30 628 N 56.1678 -1.49265 -0.50573 0
M  V30 629 C 57.4148 -1.58513 -1.26015 0
M  V30 630 C 57.7428 -0.26972 -1.92621 0
M  V30 631 O 56.9978 0.741997 -1.81088 0
M  V30 632 C 57.2968 -2.69008 -2.35308 0
M  V30 633 C 56.9628 -4.10662 -1.86192 0
M  V30 634 C 55.6248 -4.49212 -1.72516 0
M  V30 635 C 57.9768 -4.99336 -1.49375 0
M  V30 636 C 55.3048 -5.74214 -1.20394 0
M  V30 637 C 57.6568 -6.24852 -0.987072 0
M  V30 638 C 56.3208 -6.62236 -0.836669 0
M  V30 639 H 55.5908 -0.580041 -0.461122 0
M  V30 640 H 58.2378 -1.83078 -0.561665 0
M  V30 641 H 56.5428 -2.38396 -3.10926 0
M  V30 642 H 58.2398 -2.73373 -2.93374 0
M  V30 643 H 54.8298 -3.8023 -1.97795 0
M  V30 644 H 59.0138 -4.70212 -1.5879 0
M  V30 645 H 54.2698 -6.01883 -1.07458 0
M  V30 646 H 58.4438 -6.92944 -0.692983 0
M  V30 647 H 56.0708 -7.58979 -0.430607 0
M  V30 648 N 57.6459 0.756429 -1.3826 0
M  V30 649 C 58.8759 1.54341 -1.3734 0
M  V30 650 C 59.2839 1.89159 0.0393917 0
M  V30 651 O 58.6269 1.5307 1.01565 0
M  V30 652 C 58.6889 2.87238 -2.16182 0
M  V30 653 C 58.3529 2.74973 -3.65019 0
M  V30 654 C 59.3499 2.44962 -4.58574 0
M  V30 655 C 57.0349 2.92515 -4.08338 0
M  V30 656 C 59.0289 2.32642 -5.93428 0
M  V30 657 C 56.7159 2.79815 -5.43274 0
M  V30 658 C 57.7139 2.49921 -6.35632 0
M  V30 659 O 57.4019 2.37275 -7.68086 0
M  V30 660 H 57.1339 0.484281 -0.471643 0
M  V30 661 H 59.6879 0.944152 -1.82414 0
M  V30 662 H 57.9179 3.49342 -1.65822 0
M  V30 663 H 59.6069 3.48731 -2.07705 0
M  V30 664 H 60.3729 2.31081 -4.26412 0
M  V30 665 H 56.2519 3.14781 -3.368 0
M  V30 666 H 59.7959 2.0923 -6.65484 0
M  V30 667 H 55.6929 2.93269 -5.75034 0
M  V30 668 H 56.4609 2.52509 -7.78577 0
M  V30 669 N 59.124 1.23083 0.984299 0
M  V30 670 C 60.373 1.05466 1.71929 0
M  V30 671 C 60.686 -0.409211 1.91272 0
M  V30 672 O 61.892 -0.705226 2.62181 0
M  V30 673 C 60.348 1.83874 3.09384 0
M  V30 674 C 59.956 3.34566 2.97943 0
M  V30 675 C 61.7 1.74734 3.8687 0
M  V30 676 C 59.607 4.05381 4.30605 0
M  V30 677 H 58.537 0.391039 0.644674 0
M  V30 678 H 61.188 1.47013 1.09815 0
M  V30 679 H 59.57 1.35131 3.72231 0
M  V30 680 H 60.744 3.90767 2.44209 0
M  V30 681 H 59.059 3.44476 2.33934 0
M  V30 682 H 61.656 2.24957 4.85076 0
M  V30 683 H 61.999 0.709372 4.10212 0
M  V30 684 H 62.532 2.21067 3.30717 0
M  V30 685 H 59.271 5.09467 4.1246 0
M  V30 686 H 58.791 3.53967 4.84218 0
M  V30 687 H 60.47 4.11458 4.99311 0
M  V30 688 N 60.6021 -1.18246 1.0419 0
M  V30 689 C 61.8301 -1.92195 0.766072 0
M  V30 690 C 62.2451 -1.76247 -0.676933 0
M  V30 691 O 61.6021 -1.09293 -1.46155 0
M  V30 692 C 61.6531 -3.43568 1.12442 0
M  V30 693 O 61.3741 -3.59015 2.51078 0
M  V30 694 C 62.8751 -4.34613 0.873275 0
M  V30 695 H 60.0951 -0.610114 0.279288 0
M  V30 696 H 62.6391 -1.50007 1.38989 0
M  V30 697 H 60.7941 -3.8354 0.545542 0
M  V30 698 H 61.2081 -4.5273 2.64831 0
M  V30 699 H 62.6821 -5.39374 1.17385 0
M  V30 700 H 63.1591 -4.38781 -0.191909 0
M  V30 701 H 63.7651 -4.00341 1.43551 0
M  V30 702 N 62.0802 -0.821533 -1.34494 0
M  V30 703 C 63.4912 -0.467956 -1.8074 0
M  V30 704 C 63.8422 1.01151 -1.68116 0
M  V30 705 O 62.9672 1.78707 -1.22036 0
M  V30 706 C 63.5622 -0.842627 -3.28154 0
M  V30 707 C 62.1212 -0.541439 -3.72485 0
M  V30 708 C 61.2682 -1.06028 -2.56229 0
M  V30 709 H 64.2192 -1.01183 -1.22261 0
M  V30 710 H 64.2402 -0.145876 -3.8022 0
M  V30 711 H 63.7522 -1.91945 -3.37311 0
M  V30 712 H 61.8532 0.526034 -3.68868 0
M  V30 713 H 61.9662 -1.08453 -4.66663 0
M  V30 714 H 60.3302 -0.481892 -2.501 0
M  V30 715 H 61.1132 -2.14352 -2.68157 0
M  V30 716 N 63.5583 1.46682 -0.576371 0
M  V30 717 C 64.7863 2.06798 -0.0649635 0
M  V30 718 C 65.2013 1.42612 1.23723 0
M  V30 719 O 64.5583 0.529203 1.74659 0
M  V30 720 C 64.6093 3.6132 0.114202 0
M  V30 721 O 64.3303 4.23104 -1.13644 0
M  V30 722 C 65.8313 4.38349 0.66069 0
M  V30 723 H 63.0513 0.668778 -0.0545616 0
M  V30 724 H 65.5953 1.88404 -0.795237 0
M  V30 725 H 63.7503 3.79162 0.794673 0
M  V30 726 H 64.1643 5.15894 -0.946253 0
M  V30 727 H 65.6383 5.47081 0.73526 0
M  V30 728 H 66.1153 4.05953 1.67627 0
M  V30 729 H 66.7213 4.25297 0.0152951 0
M  V30 730 N 65.0364 0.313813 1.54444 0
M  V30 731 C 65.9834 -0.55655 2.23989 0
M  V30 732 C 66.9534 -1.11943 1.22711 0
M  V30 733 O 68.1384 -1.16158 1.51367 0
M  V30 734 C 65.2784 -1.71635 2.99392 0
M  V30 735 C 64.3914 -1.18364 4.15468 0
M  V30 736 C 63.5264 -2.30834 4.78424 0
M  V30 737 C 62.5654 -1.74762 5.86622 0
M  V30 738 N 61.7024 -2.80855 6.43479 0
M  V30 739 H 66.5424 0.0430893 2.97969 0
M  V30 740 H 64.0794 0.0330359 1.47063 0
M  V30 741 H 66.0374 -2.39868 3.41349 0
M  V30 742 H 64.6674 -2.28742 2.27765 0
M  V30 743 H 63.7194 -0.393163 3.78363 0
M  V30 744 H 65.0314 -0.733262 4.93381 0
M  V30 745 H 64.1854 -3.0699 5.23299 0
M  V30 746 H 62.9244 -2.79204 3.99871 0
M  V30 747 H 61.9294 -0.970995 5.41158 0
M  V30 748 H 63.1544 -1.2728 6.67066 0
M  V30 749 H 61.1004 -3.28535 5.67804 0
M  V30 750 H 61.0174 -2.40351 7.16776 0
M  V30 751 H 62.2854 -3.5687 6.93011 0
M  V30 752 N 66.5145 -1.57545 0.0417849 0
M  V30 753 C 67.4625 -2.12148 -0.953723 0
M  V30 754 C 68.4565 -1.05104 -1.32852 0
M  V30 755 O 69.6625 -1.23524 -1.30927 0
M  V30 756 H 66.0375 -0.677957 -0.325389 0
M  V30 757 H 68.0085 -2.94707 -0.467991 0
M  V30 758 C 66.7575 -2.6739 -2.22257 0
M  V30 759 H 66.0805 -3.49413 -1.94295 0
M  V30 760 H 67.5205 -3.09227 -2.90094 0
M  V30 761 C 65.9795 -1.60723 -2.96091 0
M  V30 762 O 66.5095 -1.01449 -3.88679 0
M  V30 763 N 64.7155 -1.32466 -2.58652 0
M  V30 764 H 64.2625 -1.80856 -1.83437 0
M  V30 765 H 64.2205 -0.61325 -3.08361 0
M  V30 766 N 67.9926 0.231505 -1.5589 0
M  V30 767 C 68.9026 1.308 -1.94752 0
M  V30 768 C 69.9186 1.51826 -0.849989 0
M  V30 769 O 71.0946 1.6515 -1.15271 0
M  V30 770 C 68.1596 2.63968 -2.24771 0
M  V30 771 C 67.2206 2.51331 -3.48039 0
M  V30 772 C 66.4536 3.78148 -3.76616 0
M  V30 773 O 66.6766 4.80722 -3.07022 0
M  V30 774 O 65.6106 3.75857 -4.70123 0
M  V30 775 H 69.4366 1.0083 -2.86474 0
M  V30 776 H 67.0216 0.433547 -1.42971 0
M  V30 777 H 68.9036 3.42633 -2.45318 0
M  V30 778 H 67.5786 2.9364 -1.36225 0
M  V30 779 H 66.4856 1.709 -3.32782 0
M  V30 780 H 67.8186 2.26601 -4.36936 0
M  V30 781 N 69.4707 1.49531 0.497807 0
M  V30 782 C 70.3807 1.69176 1.62532 0
M  V30 783 C 71.3967 0.5744 1.64246 0
M  V30 784 O 72.5727 0.849497 1.82608 0
M  V30 785 C 69.6377 1.75695 2.98885 0
M  V30 786 C 68.6987 2.9929 3.07773 0
M  V30 787 C 67.9317 3.05488 4.37622 0
M  V30 788 O 68.1547 2.19192 5.26603 0
M  V30 789 O 67.0887 3.9798 4.51548 0
M  V30 790 H 70.9147 2.647 1.48887 0
M  V30 791 H 68.4997 1.3331 0.674441 0
M  V30 792 H 70.3817 1.82317 3.79919 0
M  V30 793 H 69.0567 0.8335 3.12785 0
M  V30 794 H 67.9637 2.98183 2.25915 0
M  V30 795 H 69.2967 3.91125 2.98801 0
M  V30 796 N 70.9488 -0.749086 1.3866 0
M  V30 797 C 72.1948 -1.51056 1.35314 0
M  V30 798 C 72.5278 -1.94121 -0.0553751 0
M  V30 799 O 71.8028 -1.65763 -1.01749 0
M  V30 800 C 72.0858 -2.76003 2.31288 0
M  V30 801 C 71.9388 -2.39047 3.8102 0
M  V30 802 C 73.2578 -3.78046 2.2532 0
M  V30 803 H 70.3768 -0.547972 0.492844 0
M  V30 804 H 73.0188 -0.857628 1.69543 0
M  V30 805 H 71.1688 -3.31716 2.02229 0
M  V30 806 H 72.8408 -1.89074 4.20771 0
M  V30 807 H 71.0838 -1.71449 3.98482 0
M  V30 808 H 71.7548 -3.28462 4.4364 0
M  V30 809 H 74.2308 -3.31884 2.50983 0
M  V30 810 H 73.1068 -4.63159 2.94576 0
M  V30 811 H 73.3678 -4.23957 1.25352 0
M  V30 812 N 72.4269 -1.23603 -0.977757 0
M  V30 813 C 73.3589 -0.977369 -2.07317 0
M  V30 814 C 74.3719 0.0495845 -1.62724 0
M  V30 815 O 75.5609 -0.186261 -1.77526 0
M  V30 816 C 72.6609 -0.451216 -3.35883 0
M  V30 817 C 71.8339 -1.53896 -4.09432 0
M  V30 818 C 70.8929 -1.01721 -5.16274 0
M  V30 819 O 69.9189 -1.70676 -5.43009 0
M  V30 820 N 71.1209 0.153594 -5.80297 0
M  V30 821 H 73.8859 -1.92047 -2.30082 0
M  V30 822 H 71.4469 -1.14497 -1.14465 0
M  V30 823 H 73.4389 -0.0871574 -4.04606 0
M  V30 824 H 72.0089 0.397368 -3.10064 0
M  V30 825 H 71.2289 -2.07566 -3.35127 0
M  V30 826 H 72.5169 -2.27037 -4.55337 0
M  V30 827 H 71.9149 0.730323 -5.60966 0
M  V30 828 H 70.4719 0.458892 -6.50183 0
M  V30 829 N 73.905 1.17692 -1.04816 0
M  V30 830 C 74.868 2.19787 -0.650117 0
M  V30 831 C 75.868 1.58044 0.296427 0
M  V30 832 O 77.058 1.74012 0.0808097 0
M  V30 833 C 74.19 3.40869 0.0456987 0
M  V30 834 H 75.383 2.56516 -1.5537 0
M  V30 835 H 72.936 1.31708 -0.841594 0
M  V30 836 H 73.671 3.09681 0.962726 0
M  V30 837 H 73.456 3.86928 -0.634727 0
M  V30 838 H 74.946 4.16445 0.310432 0
M  V30 839 N 75.3831 0.828654 1.34056 0
M  V30 840 C 76.6291 0.42008 1.98402 0
M  V30 841 C 76.9621 -1.01564 1.65525 0
M  V30 842 O 76.2371 -1.70834 0.929831 0
M  V30 843 C 76.5201 0.62927 3.54559 0
M  V30 844 C 76.3731 2.11152 3.97159 0
M  V30 845 C 77.6921 0.0688756 4.40046 0
M  V30 846 H 74.8111 0.154104 0.720709 0
M  V30 847 H 77.4531 1.04228 1.5886 0
M  V30 848 H 75.6031 0.0996418 3.88372 0
M  V30 849 H 77.2751 2.70522 3.73651 0
M  V30 850 H 75.5181 2.59985 3.47261 0
M  V30 851 H 76.1891 2.20868 5.05887 0
M  V30 852 H 78.6651 0.521458 4.1282 0
M  V30 853 H 77.5411 0.245006 5.48353 0
M  V30 854 H 77.8021 -1.0266 4.30015 0
M  V30 855 N 76.8612 -1.46375 0.584142 0
M  V30 856 C 78.1072 -2.02678 0.0703716 0
M  V30 857 C 78.4402 -1.4545 -1.28678 0
M  V30 858 O 77.7152 -0.62014 -1.84349 0
M  V30 859 C 77.9982 -3.60099 0.00614674 0
M  V30 860 C 77.8512 -4.27709 1.3923 0
M  V30 861 C 79.1702 -4.34598 -0.693742 0
M  V30 862 H 76.2892 -0.736504 0.027047 0
M  V30 863 H 78.9312 -1.74501 0.751615 0
M  V30 864 H 77.0812 -3.84236 -0.574009 0
M  V30 865 H 78.7532 -4.14832 2.01773 0
M  V30 866 H 76.9962 -3.87016 1.95962 0
M  V30 867 H 77.6672 -5.36478 1.29982 0
M  V30 868 H 80.1432 -4.15615 -0.200869 0
M  V30 869 H 79.0192 -5.44318 -0.707714 0
M  V30 870 H 79.2802 -4.05759 -1.75533 0
M  V30 871 N 78.3393 -0.321999 -1.54275 0
M  V30 872 C 79.2863 0.544664 -2.24281 0
M  V30 873 C 80.2563 1.1129 -1.23303 0
M  V30 874 O 81.4413 1.15354 -1.51981 0
M  V30 875 C 78.5813 1.70045 -3.00298 0
M  V30 876 C 77.6943 1.16159 -4.1609 0
M  V30 877 C 76.8293 2.28293 -4.79641 0
M  V30 878 C 75.8683 1.71648 -5.8754 0
M  V30 879 N 75.0053 2.77438 -6.44959 0
M  V30 880 H 79.8453 -0.0588907 -2.97942 0
M  V30 881 H 77.3823 -0.0408345 -1.47043 0
M  V30 882 H 79.3403 2.38054 -3.42616 0
M  V30 883 H 77.9703 2.27531 -2.28975 0
M  V30 884 H 77.0223 0.373092 -3.78566 0
M  V30 885 H 78.3343 0.707087 -4.93763 0
M  V30 886 H 77.4883 3.0421 -5.2492 0
M  V30 887 H 76.2273 2.77079 -4.01346 0
M  V30 888 H 75.2323 0.942282 -5.41665 0
M  V30 889 H 76.4573 1.23741 -6.67731 0
M  V30 890 H 74.4033 3.25519 -5.69538 0
M  V30 891 H 74.3203 2.36547 -7.1804 0
M  V30 892 H 75.5883 3.53189 -6.94894 0
M  V30 893 N 79.8174 1.5752 -0.0501392 0
M  V30 894 C 81.0474 1.96678 0.632573 0
M  V30 895 C 81.4554 0.926298 1.64974 0
M  V30 896 O 80.7984 -0.09802 1.83438 0
M  V30 897 C 80.8604 3.32068 1.37735 0
M  V30 898 C 80.5244 4.54076 0.516131 0
M  V30 899 C 81.5214 5.19445 -0.217357 0
M  V30 900 C 79.2064 5.00304 0.44736 0
M  V30 901 C 81.2004 6.29378 -1.00807 0
M  V30 902 C 78.8874 6.10114 -0.347038 0
M  V30 903 C 79.8854 6.74512 -1.07344 0
M  V30 904 O 79.5734 7.82211 -1.85477 0
M  V30 905 H 79.3054 0.652193 0.177821 0
M  V30 906 H 81.8594 2.05091 -0.112543 0
M  V30 907 H 80.0894 3.20206 2.16807 0
M  V30 908 H 81.7784 3.55981 1.95019 0
M  V30 909 H 82.5444 4.84689 -0.173688 0
M  V30 910 H 78.4234 4.49971 1.00235 0
M  V30 911 H 81.9674 6.79575 -1.57556 0
M  V30 912 H 77.8644 6.44307 -0.392349 0
M  V30 913 H 78.6324 7.98982 -1.77678 0
M  V30 914 N 81.2955 -0.223234 1.56011 0
M  V30 915 C 82.2585 -1.26014 1.9145 0
M  V30 916 C 83.2585 -1.3989 0.792937 0
M  V30 917 O 84.4485 -1.38184 1.0607 0
M  V30 918 C 81.5805 -2.63422 2.16383 0
M  V30 919 H 82.7735 -0.95796 2.84189 0
M  V30 920 H 80.3265 -0.463576 1.49267 0
M  V30 921 H 81.0615 -2.98741 1.2619 0
M  V30 922 H 80.8465 -2.54728 2.98088 0
M  V30 923 H 82.3365 -3.38249 2.44903 0
M  V30 924 N 82.7736 -1.49793 -0.48987 0
M  V30 925 C 84.0036 -1.6333 -1.26518 0
M  V30 926 C 84.4116 -0.308392 -1.8667 0
M  V30 927 O 83.7546 0.717512 -1.69108 0
M  V30 928 C 83.8166 -2.6522 -2.4269 0
M  V30 929 C 83.4806 -4.09279 -2.03321 0
M  V30 930 C 84.4776 -4.95738 -1.56652 0
M  V30 931 C 82.1626 -4.55082 -2.12616 0
M  V30 932 C 84.1566 -6.26041 -1.19795 0
M  V30 933 C 81.8436 -5.85396 -1.75371 0
M  V30 934 C 82.8416 -6.707 -1.29036 0
M  V30 935 O 82.5296 -7.98584 -0.92299 0
M  V30 936 H 82.2616 -0.552502 -0.389509 0
M  V30 937 H 84.8156 -1.96642 -0.593381 0
M  V30 938 H 83.0456 -2.27112 -3.12981 0
M  V30 939 H 84.7346 -2.68171 -3.04695 0
M  V30 940 H 85.5006 -4.61575 -1.48908 0
M  V30 941 H 81.3796 -3.88844 -2.47631 0
M  V30 942 H 84.9236 -6.92578 -0.835582 0
M  V30 943 H 80.8206 -6.19085 -1.82768 0
M  V30 944 H 81.5886 -8.11692 -1.05349 0
M  V30 945 N 84.2517 0.741722 -1.39055 0
M  V30 946 C 85.1837 1.8657 -1.33133 0
M  V30 947 C 86.1967 1.61001 -0.241329 0
M  V30 948 O 87.3857 1.7136 -0.499784 0
M  V30 949 C 84.4857 3.22457 -1.04283 0
M  V30 950 C 83.6587 3.75435 -2.24427 0
M  V30 951 C 82.7177 4.89867 -1.92138 0
M  V30 952 O 81.7437 5.03879 -2.64754 0
M  V30 953 N 82.9457 5.73738 -0.88347 0
M  V30 954 H 85.7107 1.92156 -2.29991 0
M  V30 955 H 83.2717 0.922172 -1.3307 0
M  V30 956 H 85.2637 3.9657 -0.807128 0
M  V30 957 H 83.8337 3.12181 -0.161807 0
M  V30 958 H 83.0537 2.92751 -2.6399 0
M  V30 959 H 84.3417 4.07563 -3.04581 0
M  V30 960 H 83.7397 5.64999 -0.281517 0
M  V30 961 H 82.2967 6.47947 -0.707662 0
M  V30 962 N 85.7298 1.2412 0.971189 0
M  V30 963 C 86.6778 1.02812 2.08644 0
M  V30 964 C 87.6718 -0.0358403 1.69362 0
M  V30 965 O 88.8778 0.118429 1.7961 0
M  V30 966 H 85.2528 0.315428 0.682649 0
M  V30 967 H 87.2238 1.97397 2.23779 0
M  V30 968 C 85.9728 0.645874 3.41649 0
M  V30 969 H 85.2958 1.45632 3.72332 0
M  V30 970 H 86.7358 0.536366 4.20594 0
M  V30 971 C 85.1948 -0.646713 3.30635 0
M  V30 972 O 85.7248 -1.69338 3.64263 0
M  V30 973 N 83.9308 -0.626115 2.83775 0
M  V30 974 H 83.4778 0.225988 2.56607 0
M  V30 975 H 83.4358 -1.49117 2.76788 0
M  V30 976 N 87.2079 -1.17134 1.05439 0
M  V30 977 C 88.1179 -2.24878 0.668365 0
M  V30 978 C 89.1339 -1.71186 -0.311687 0
M  V30 979 O 90.3099 -2.00738 -0.163161 0
M  V30 980 C 87.3749 -3.46662 0.051648 0
M  V30 981 C 86.4359 -4.15429 1.08246 0
M  V30 982 C 85.6689 -5.31399 0.495082 0
M  V30 983 O 85.8919 -5.66153 -0.694743 0
M  V30 984 O 84.8259 -5.89187 1.23056 0
M  V30 985 H 88.6519 -2.60189 1.56637 0
M  V30 986 H 86.2369 -1.24482 0.826104 0
M  V30 987 H 88.1189 -4.20394 -0.290966 0
M  V30 988 H 86.7939 -3.13142 -0.819971 0
M  V30 989 H 85.7009 -3.43704 1.47711 0
M  V30 990 H 87.0339 -4.52982 1.92532 0
M  V30 991 N 88.686 -0.835752 -1.33615 0
M  V30 992 C 89.935 -0.426289 -1.97144 0
M  V30 993 C 90.248 1.01912 -1.66953 0
M  V30 994 O 91.454 1.53311 -2.24072 0
M  V30 995 C 89.91 -0.711321 -3.52801 0
M  V30 996 C 89.518 -2.1712 -3.91871 0
M  V30 997 C 91.262 -0.368654 -4.22896 0
M  V30 998 C 89.169 -2.40044 -5.40493 0
M  V30 999 H 88.099 -0.15567 -0.737755 0
M  V30 1000 H 90.75 -1.0239 -1.52278 0
M  V30 1001 H 89.132 -0.0433766 -3.95976 0
M  V30 1002 H 90.306 -2.87936 -3.59763 0
M  V30 1003 H 88.621 -2.47654 -3.34749 0
M  V30 1004 H 91.218 -0.517601 -5.32189 0
M  V30 1005 H 91.561 0.688078 -4.10574 0
M  V30 1006 H 92.094 -0.991702 -3.8524 0
M  V30 1007 H 88.833 -3.44271 -5.57815 0
M  V30 1008 H 88.353 -1.73785 -5.74072 0
M  V30 1009 H 90.032 -2.23042 -6.0734 0
M  V30 1010 N 90.1641 1.46063 -0.591896 0
M  V30 1011 C 91.5751 1.85944 -0.167822 0
M  V30 1012 C 91.9261 1.49429 1.27143 0
M  V30 1013 O 91.0511 0.913515 1.96173 0
M  V30 1014 C 91.6461 3.37489 -0.297794 0
M  V30 1015 C 90.2051 3.76332 0.0714732 0
M  V30 1016 C 89.3521 2.7006 -0.629509 0
M  V30 1017 H 92.3031 1.37087 -0.799555 0
M  V30 1018 H 92.3241 3.77532 0.474349 0
M  V30 1019 H 91.8361 3.64034 -1.3454 0
M  V30 1020 H 89.9371 3.55405 1.11886 0
M  V30 1021 H 90.0501 4.78088 -0.311245 0
M  V30 1022 H 88.4141 2.54607 -0.0687867 0
M  V30 1023 H 89.1971 2.99444 -1.67894 0
M  V30 1024 N 91.6422 0.330177 1.54103 0
M  V30 1025 C 92.8882 -0.270806 2.00984 0
M  V30 1026 C 93.2212 -1.51265 1.21789 0
M  V30 1027 O 92.4962 -1.92142 0.301927 0
M  V30 1028 C 92.7792 -0.598339 3.55094 0
M  V30 1029 C 92.6322 0.654674 4.4501 0
M  V30 1030 C 93.9512 -1.41334 4.16789 0
M  V30 1031 H 91.0702 -0.0969531 0.730595 0
M  V30 1032 H 93.7122 0.448066 1.84641 0
M  V30 1033 H 91.8622 -1.21078 3.69151 0
M  V30 1034 H 93.5342 1.29285 4.42813 0
M  V30 1035 H 91.7772 1.28224 4.14416 0
M  V30 1036 H 92.4482 0.380944 5.50684 0
M  V30 1037 H 94.9242 -0.895597 4.06347 0
M  V30 1038 H 93.8002 -1.61127 5.24718 0
M  V30 1039 H 94.0612 -2.41146 3.70541 0
M  V30 1040 N 93.1203 -1.57491 0.0584922 0
M  V30 1041 C 94.3483 -1.97296 -0.623037 0
M  V30 1042 C 94.7633 -0.936338 -1.63946 0
M  V30 1043 O 94.1203 0.0785981 -1.82331 0
M  V30 1044 C 94.1713 -3.37183 -1.30345 0
M  V30 1045 O 93.8923 -4.36872 -0.32773 0
M  V30 1046 C 95.3933 -3.91788 -2.07406 0
M  V30 1047 H 92.6133 -0.649153 -0.169826 0
M  V30 1048 H 95.1573 -2.04106 0.12696 0
M  V30 1049 H 93.3123 -3.31502 -2.00463 0
M  V30 1050 H 93.7263 -5.18141 -0.814269 0
M  V30 1051 H 95.2003 -4.91926 -2.50425 0
M  V30 1052 H 95.6773 -3.27609 -2.92521 0
M  V30 1053 H 96.2833 -4.00829 -1.42184 0
M  V30 1054 N 94.5984 0.214957 -1.56127 0
M  V30 1055 C 95.8284 0.953707 -1.8327 0
M  V30 1056 C 96.2364 1.78181 -0.636262 0
M  V30 1057 O 95.5794 1.79191 0.404516 0
M  V30 1058 C 95.6414 1.91516 -3.0424 0
M  V30 1059 C 95.3054 1.27094 -4.38972 0
M  V30 1060 C 96.3024 0.657575 -5.15725 0
M  V30 1061 C 93.9874 1.28073 -4.85698 0
M  V30 1062 C 95.9814 0.0625968 -6.37369 0
M  V30 1063 C 93.6684 0.681914 -6.07283 0
M  V30 1064 C 94.6664 0.0739046 -6.8296 0
M  V30 1065 O 94.3544 -0.515582 -8.02245 0
M  V30 1066 H 94.0864 0.284764 -0.613095 0
M  V30 1067 H 96.6404 0.233283 -2.04071 0
M  V30 1068 H 94.8704 2.67475 -2.79274 0
M  V30 1069 H 96.5594 2.52001 -3.18198 0
M  V30 1070 H 97.3254 0.642288 -4.80728 0
M  V30 1071 H 93.2044 1.74337 -4.26764 0
M  V30 1072 H 96.7484 -0.412593 -6.96379 0
M  V30 1073 H 92.6454 0.694636 -6.41752 0
M  V30 1074 H 93.4134 -0.410544 -8.1747 0
M  V30 1075 N 96.0765 1.50051 0.48192 0
M  V30 1076 C 97.0065 1.71046 1.58951 0
M  V30 1077 C 97.9875 0.559288 1.60642 0
M  V30 1078 O 99.1725 0.797243 1.77081 0
M  V30 1079 C 96.3025 1.79462 2.97339 0
M  V30 1080 C 95.2565 2.94558 3.10515 0
M  V30 1081 C 94.5825 2.88105 4.50444 0
M  V30 1082 C 95.8825 4.35227 2.88747 0
M  V30 1083 H 97.5765 2.6378 1.41635 0
M  V30 1084 H 95.1225 1.26936 0.679942 0
M  V30 1085 H 97.0755 1.92734 3.74742 0
M  V30 1086 H 95.7995 0.833412 3.15788 0
M  V30 1087 H 94.4585 2.80918 2.35543 0
M  V30 1088 H 94.1065 1.89853 4.65795 0
M  V30 1089 H 93.8065 3.65366 4.60197 0
M  V30 1090 H 95.3305 3.03412 5.29881 0
M  V30 1091 H 96.7445 4.49449 3.55905 0
M  V30 1092 H 95.1415 5.13856 3.09955 0
M  V30 1093 H 96.2115 4.48347 1.84696 0
M  V30 1094 N 97.5546 -0.734337 1.39446 0
M  V30 1095 C 98.8026 -1.49096 1.36436 0
M  V30 1096 C 99.1236 -1.94961 -0.0388255 0
M  V30 1097 O 98.3936 -1.69033 -0.990191 0
M  V30 1098 H 96.9736 -0.5531 0.502085 0
M  V30 1099 H 99.6356 -0.871725 1.74319 0
M  V30 1100 H 98.7316 -2.37276 2.02747 0
M  V30 1101 N 99.0327 -1.24633 -0.964593 0
M  V30 1102 C 99.9807 -1.03917 -2.08096 0
M  V30 1103 C 100.975 0.0268581 -1.69379 0
M  V30 1104 O 102.181 -0.127952 -1.79545 0
M  V30 1105 H 98.5557 -0.319044 -0.680966 0
M  V30 1106 H 100.527 -1.98581 -2.22729 0
M  V30 1107 C 99.2757 -0.663983 -3.41301 0
M  V30 1108 H 98.5987 -1.47605 -3.71555 0
M  V30 1109 H 100.039 -0.558663 -4.20303 0
M  V30 1110 C 98.4977 0.629169 -3.30973 0
M  V30 1111 O 99.0277 1.67404 -3.65156 0
M  V30 1112 N 97.2337 0.611057 -2.84103 0
M  V30 1113 H 96.7807 -0.239593 -2.56483 0
M  V30 1114 H 96.7387 1.47647 -2.77575 0
M  V30 1115 N 100.511 1.16574 -1.06058 0
M  V30 1116 C 101.759 1.86677 -0.77434 0
M  V30 1117 C 102.08 1.81959 0.701147 0
M  V30 1118 O 101.35 1.2515 1.50713 0
M  V30 1119 H 99.9298 0.691134 -0.283449 0
M  V30 1120 H 102.592 1.41378 -1.34158 0
M  V30 1121 H 101.688 2.92181 -1.09711 0
M  V30 1122 N 101.989 0.842826 1.3317 0
M  V30 1123 C 103.214 0.453129 2.02389 0
M  V30 1124 C 103.639 -0.939105 1.6298 0
M  V30 1125 O 102.997 -1.61472 0.8244 0
M  V30 1126 C 103.045 0.586094 3.55805 0
M  V30 1127 O 102.149 -0.386029 4.10589 0
M  V30 1128 H 101.49 0.183664 0.638094 0
M  V30 1129 H 104.02 1.13875 1.69981 0
M  V30 1130 H 104.03 0.469209 4.05293 0
M  V30 1131 H 102.705 1.6014 3.83833 0
M  V30 1132 H 101.282 -0.226371 3.72212 0
M  V30 1133 N 103.467 -1.45747 0.599634 0
M  V30 1134 C 104.415 -2.322 -0.136426 0
M  V30 1135 C 105.409 -1.45497 -0.867583 0
M  V30 1136 O 106.615 -1.62027 -0.78405 0
M  V30 1137 H 102.99 -0.749368 -0.0628588 0
M  V30 1138 H 104.961 -2.92072 0.611281 0
M  V30 1139 C 103.71 -3.28974 -1.12567 0
M  V30 1140 H 103.033 -3.9568 -0.572484 0
M  V30 1141 H 104.473 -3.92212 -1.61077 0
M  V30 1142 C 102.932 -2.55561 -2.19523 0
M  V30 1143 O 103.462 -2.33111 -3.27143 0
M  V30 1144 N 101.668 -2.15832 -1.94589 0
M  V30 1145 H 101.215 -2.3429 -1.07078 0
M  V30 1146 H 101.173 -1.67034 -2.66359 0
M  V30 1147 N 104.945 -0.338344 -1.53925 0
M  V30 1148 C 106.194 0.260732 -2.00008 0
M  V30 1149 C 106.507 1.52073 -1.23017 0
M  V30 1150 O 107.713 2.19672 -1.5955 0
M  V30 1151 C 106.169 0.51515 -3.56194 0
M  V30 1152 C 105.777 -0.728645 -4.42035 0
M  V30 1153 C 107.521 1.07337 -4.10706 0
M  V30 1154 C 105.428 -0.445315 -5.89721 0
M  V30 1155 H 104.358 0.101205 -0.747177 0
M  V30 1156 H 107.009 -0.452866 -1.77824 0
M  V30 1157 H 105.391 1.28932 -3.74423 0
M  V30 1158 H 106.565 -1.50352 -4.35581 0
M  V30 1159 H 104.88 -1.20813 -3.98489 0
M  V30 1160 H 107.477 1.30022 -5.18651 0
M  V30 1161 H 107.82 2.0273 -3.63602 0
M  V30 1162 H 108.353 0.360034 -3.96167 0
M  V30 1163 H 105.092 -1.36883 -6.41049 0
M  V30 1164 H 104.612 0.291569 -5.99091 0
M  V30 1165 H 106.291 -0.0606218 -6.46972 0
M  V30 1166 N 106.423 1.57458 -0.0668435 0
M  V30 1167 C 107.672 1.92477 0.602947 0
M  V30 1168 C 107.985 0.948419 1.71068 0
M  V30 1169 O 109.191 1.19124 2.43971 0
M  V30 1170 C 107.647 3.41903 1.12383 0
M  V30 1171 C 107.255 4.47975 0.04737 0
M  V30 1172 C 108.999 3.85931 1.76797 0
M  V30 1173 C 106.906 5.88529 0.582022 0
M  V30 1174 H 105.836 0.718387 0.22899 0
M  V30 1175 H 108.487 1.82978 -0.138276 0
M  V30 1176 H 106.869 3.46459 1.91787 0
M  V30 1177 H 108.043 4.55029 -0.726978 0
M  V30 1178 H 106.358 4.13384 -0.500243 0
M  V30 1179 H 108.955 4.88322 2.17821 0
M  V30 1180 H 109.298 3.23029 2.62599 0
M  V30 1181 H 109.831 3.83958 1.04024 0
M  V30 1182 H 106.57 6.55065 -0.238721 0
M  V30 1183 H 106.09 5.85004 1.324 0
M  V30 1184 H 107.769 6.38258 1.05999 0
M  V30 1185 N 107.901 -0.206675 1.56239 0
M  V30 1186 C 109.15 -0.926964 1.79138 0
M  V30 1187 C 109.463 -1.84901 0.638043 0
M  V30 1188 O 110.669 -2.60906 0.751033 0
M  V30 1189 C 109.125 -1.6986 3.17294 0
M  V30 1190 C 108.733 -0.821956 4.40395 0
M  V30 1191 C 110.477 -2.40922 3.4951 0
M  V30 1192 C 108.384 -1.59179 5.69575 0
M  V30 1193 H 107.314 -0.349864 0.667915 0
M  V30 1194 H 109.965 -0.180487 1.8261 0
M  V30 1195 H 108.347 -2.48853 3.08039 0
M  V30 1196 H 109.521 -0.0715019 4.60745 0
M  V30 1197 H 107.836 -0.222741 4.15804 0
M  V30 1198 H 110.433 -2.99047 4.43255 0
M  V30 1199 H 110.776 -3.14542 2.72707 0
M  V30 1200 H 111.309 -1.68905 3.60161 0
M  V30 1201 H 108.048 -0.898589 6.49312 0
M  V30 1202 H 107.568 -2.31648 5.53262 0
M  V30 1203 H 109.247 -2.14862 6.10281 0
M  V30 1204 N 109.379 -1.50304 -0.473955 0
M  V30 1205 C 110.795 -1.37667 -0.807466 0
M  V30 1206 C 110.995 -0.430555 -1.96846 0
M  V30 1207 O 110.051 0.127874 -2.52176 0
M  V30 1208 C 111.364 -2.78974 -1.12223 0
M  V30 1209 C 112.912 -2.87868 -1.22885 0
M  V30 1210 C 113.387 -4.30003 -1.57676 0
M  V30 1211 N 114.878 -4.3294 -1.64673 0
M  V30 1212 C 115.613 -5.3991 -1.93091 0
M  V30 1213 N 115.109 -6.57092 -2.1955 0
M  V30 1214 N 116.902 -5.27351 -1.94569 0
M  V30 1215 H 109.053 -2.10394 0.291212 0
M  V30 1216 H 111.316 -0.945575 0.0677609 0
M  V30 1217 H 111.022 -3.50031 -0.342229 0
M  V30 1218 H 110.896 -3.16038 -2.05913 0
M  V30 1219 H 113.283 -2.17032 -1.99953 0
M  V30 1220 H 113.364 -2.54352 -0.271814 0
M  V30 1221 H 113.008 -5.01375 -0.81149 0
M  V30 1222 H 112.938 -4.61004 -2.54525 0
M  V30 1223 H 115.429 -3.48441 -1.46277 0
M  V30 1224 H 115.742 -7.34425 -2.405 0
M  V30 1225 H 114.087 -6.60272 -2.16948 0
M  V30 1226 H 117.278 -4.34801 -1.73394 0
M  V30 1227 H 117.451 -6.10805 -2.16381 0
M  V30 1228 N 110.857 0.726932 -1.39834 0
M  V30 1229 C 111.767 1.87131 -1.41489 0
M  V30 1230 C 112.783 1.71239 -0.308757 0
M  V30 1231 O 113.959 1.93701 -0.551529 0
M  V30 1232 C 111.024 3.22811 -1.26468 0
M  V30 1233 C 110.085 3.51039 -2.47124 0
M  V30 1234 C 109.318 4.80245 -2.3281 0
M  V30 1235 O 109.541 5.54537 -1.33585 0
M  V30 1236 O 108.475 5.08554 -3.21957 0
M  V30 1237 H 112.301 1.8869 -2.3797 0
M  V30 1238 H 109.886 0.875837 -1.21035 0
M  V30 1239 H 111.768 4.03877 -1.20255 0
M  V30 1240 H 110.443 3.22005 -0.330862 0
M  V30 1241 H 109.35 2.70027 -2.58914 0
M  V30 1242 H 110.683 3.56632 -3.39227 0
M  V30 1243 N 112.336 1.25143 0.95797 0
M  V30 1244 C 113.584 1.09476 1.69881 0
M  V30 1245 C 113.905 -0.365502 1.91544 0
M  V30 1246 O 113.175 -1.25985 1.50015 0
M  V30 1247 H 111.755 0.402128 0.629525 0
M  V30 1248 H 114.417 1.57214 1.15194 0
M  V30 1249 H 113.513 1.60046 2.6794 0
M  V30 1250 N 113.814 -1.1601 1.06675 0
M  V30 1251 C 115.062 -1.86264 0.784229 0
M  V30 1252 C 115.383 -1.82328 -0.691488 0
M  V30 1253 O 114.653 -1.25947 -1.50047 0
M  V30 1254 H 113.233 -0.689621 0.28711 0
M  V30 1255 H 115.895 -1.40664 1.34906 0
M  V30 1256 H 114.991 -2.91595 1.11259 0
M  V30 1257 N 115.292 -0.849877 -1.32721 0
M  V30 1258 C 116.541 -0.447175 -1.96681 0
M  V30 1259 C 116.854 1.00135 -1.68025 0
M  V30 1260 O 118.06 1.50926 -2.25685 0
M  V30 1261 C 116.516 -0.7487 -3.52026 0
M  V30 1262 C 116.124 -2.21264 -3.89546 0
M  V30 1263 C 117.868 -0.413487 -4.22481 0
M  V30 1264 C 115.775 -2.45763 -5.37917 0
M  V30 1265 H 114.705 -0.163486 -0.736063 0
M  V30 1266 H 117.356 -1.03999 -1.51183 0
M  V30 1267 H 115.738 -0.0853727 -3.95908 0
M  V30 1268 H 116.912 -2.91736 -3.56689 0
M  V30 1269 H 115.227 -2.5119 -3.32103 0
M  V30 1270 H 117.824 -0.574017 -5.3161 0
M  V30 1271 H 118.167 0.644492 -4.11281 0
M  V30 1272 H 118.7 -1.03251 -3.84167 0
M  V30 1273 H 115.439 -3.50168 -5.54132 0
M  V30 1274 H 114.959 -1.79864 -5.72197 0
M  V30 1275 H 116.638 -2.29471 -6.0494 0
M  V30 1276 N 116.77 1.45427 -0.607355 0
M  V30 1277 C 118.186 1.57283 -0.270985 0
M  V30 1278 C 118.386 1.59875 1.22647 0
M  V30 1279 O 117.442 1.52893 2.00948 0
M  V30 1280 C 118.755 2.85566 -0.941952 0
M  V30 1281 C 120.303 2.9924 -0.917849 0
M  V30 1282 C 120.778 4.30293 -1.56882 0
M  V30 1283 N 122.269 4.37051 -1.5343 0
M  V30 1284 C 123.004 5.37123 -2.00715 0
M  V30 1285 N 122.5 6.43734 -2.56084 0
M  V30 1286 N 124.293 5.28479 -1.91484 0
M  V30 1287 H 116.444 1.41988 -1.57966 0
M  V30 1288 H 118.707 0.67885 -0.661715 0
M  V30 1289 H 118.413 2.8955 -1.99633 0
M  V30 1290 H 118.287 3.74322 -0.465096 0
M  V30 1291 H 120.674 2.94822 0.127984 0
M  V30 1292 H 120.755 2.11895 -1.43297 0
M  V30 1293 H 120.399 4.35469 -2.61398 0
M  V30 1294 H 120.329 5.16454 -1.02873 0
M  V30 1295 H 122.82 3.60615 -1.12982 0
M  V30 1296 H 123.133 7.16341 -2.89958 0
M  V30 1297 H 121.478 6.44485 -2.60122 0
M  V30 1298 H 124.669 4.44098 -1.47967 0
M  V30 1299 H 124.842 6.0632 -2.28648 0
M  V30 1300 N 118.248 0.346503 1.53744 0
M  V30 1301 C 119.496 -0.248612 2.00565 0
M  V30 1302 C 119.817 -1.5083 1.23593 0
M  V30 1303 O 119.087 -1.92858 0.343912 0
M  V30 1304 H 117.667 -0.0948564 0.740953 0
M  V30 1305 H 120.329 0.468341 1.89189 0
M  V30 1306 H 119.425 -0.488994 3.08245 0
M  V30 1307 N 119.726 -1.57421 0.075193 0
M  V30 1308 C 120.975 -1.92794 -0.592731 0
M  V30 1309 C 121.288 -0.957478 -1.70563 0
M  V30 1310 O 122.494 -1.20417 -2.43335 0
M  V30 1311 C 120.95 -3.42495 -1.10569 0
M  V30 1312 C 120.558 -4.47994 -0.0236121 0
M  V30 1313 C 122.302 -3.86864 -1.74748 0
M  V30 1314 C 120.209 -5.88829 -0.550803 0
M  V30 1315 H 119.139 -0.719591 -0.225177 0
M  V30 1316 H 121.79 -1.82902 0.147978 0
M  V30 1317 H 120.172 -3.47471 -1.89947 0
M  V30 1318 H 121.346 -4.54637 0.751099 0
M  V30 1319 H 119.661 -4.13113 0.522159 0
M  V30 1320 H 122.258 -4.8947 -2.15229 0
M  V30 1321 H 122.601 -3.24417 -2.60882 0
M  V30 1322 H 123.134 -3.84504 -1.01986 0
M  V30 1323 H 119.873 -6.54929 0.273457 0
M  V30 1324 H 119.393 -5.85698 -1.29296 0
M  V30 1325 H 121.072 -6.38811 -1.02613 0
M  V30 1326 N 121.204 0.198386 -1.56346 0
M  V30 1327 C 122.45 0.920648 -1.80698 0
M  V30 1328 C 122.783 1.83045 -0.648697 0
M  V30 1329 O 122.058 1.91308 0.350925 0
M  V30 1330 C 122.341 1.73971 -3.15287 0
M  V30 1331 C 122.194 0.85485 -4.41602 0
M  V30 1332 C 123.513 2.71296 -3.46535 0
M  V30 1333 H 120.632 0.333261 -0.657348 0
M  V30 1334 H 123.274 0.188198 -1.89066 0
M  V30 1335 H 121.424 2.36416 -3.08285 0
M  V30 1336 H 123.096 0.245362 -4.60647 0
M  V30 1337 H 121.339 0.161398 -4.335 0
M  V30 1338 H 122.01 1.46286 -5.32264 0
M  V30 1339 H 124.486 2.18983 -3.53816 0
M  V30 1340 H 123.362 3.2569 -4.41834 0
M  V30 1341 H 123.623 3.5018 -2.69864 0
M  V30 1342 N 122.682 1.50554 0.465978 0
M  V30 1343 C 123.931 1.61038 1.21448 0
M  V30 1344 C 124.244 0.31865 1.92987 0
M  V30 1345 O 125.45 0.302469 2.6981 0
M  V30 1346 C 123.906 2.84283 2.20706 0
M  V30 1347 C 123.514 4.20352 1.54946 0
M  V30 1348 C 125.258 3.04115 2.96166 0
M  V30 1349 C 123.165 5.34778 2.5252 0
M  V30 1350 H 122.095 0.599718 0.457005 0
M  V30 1351 H 124.746 1.7699 0.484424 0
M  V30 1352 H 123.128 2.61901 2.97025 0
M  V30 1353 H 124.302 4.53008 0.843811 0
M  V30 1354 H 122.617 4.06167 0.917475 0
M  V30 1355 H 125.214 3.86774 3.69202 0
M  V30 1356 H 125.557 2.16045 3.55852 0
M  V30 1357 H 126.09 3.26702 2.26959 0
M  V30 1358 H 122.829 6.25018 1.97566 0
M  V30 1359 H 122.349 5.06534 3.21222 0
M  V30 1360 H 124.028 5.65561 3.14245 0
M  V30 1361 N 124.16 -0.719506 1.40217 0
M  V30 1362 C 125.385 -1.51371 1.4178 0
M  V30 1363 C 125.81 -1.88091 0.0182355 0
M  V30 1364 O 125.168 -1.52997 -0.972707 0
M  V30 1365 C 125.216 -2.768 2.31115 0
M  V30 1366 O 124.32 -3.73349 1.7517 0
M  V30 1367 H 123.661 -0.456529 0.482159 0
M  V30 1368 H 126.191 -0.88644 1.844 0
M  V30 1369 H 126.201 -3.25371 2.46167 0
M  V30 1370 H 124.876 -2.49407 3.3282 0
M  V30 1371 H 123.453 -3.32179 1.69444 0
M  V30 1372 N 125.638 -1.25649 -0.95132 0
M  V30 1373 C 126.568 -1.08808 -2.06599 0
M  V30 1374 C 127.549 0.00382547 -1.701 0
M  V30 1375 O 128.734 -0.166325 -1.93486 0
M  V30 1376 C 125.864 -0.709542 -3.39975 0
M  V30 1377 C 124.818 -1.75206 -3.90496 0
M  V30 1378 C 124.144 -1.22811 -5.20405 0
M  V30 1379 C 125.444 -3.15153 -4.16504 0
M  V30 1380 H 127.138 -2.02048 -2.20946 0
M  V30 1381 H 124.684 -0.972835 -1.06169 0
M  V30 1382 H 126.637 -0.578649 -4.17408 0
M  V30 1383 H 125.361 0.258556 -3.25575 0
M  V30 1384 H 124.02 -1.87145 -3.15234 0
M  V30 1385 H 123.668 -0.250145 -5.02378 0
M  V30 1386 H 123.368 -1.92492 -5.55176 0
M  V30 1387 H 124.892 -1.10968 -6.00432 0
M  V30 1388 H 126.306 -3.06349 -4.84586 0
M  V30 1389 H 124.703 -3.82333 -4.62538 0
M  V30 1390 H 125.773 -3.61966 -3.22658 0
M  V30 1391 N 127.117 1.15442 -1.07289 0
M  V30 1392 C 128.047 2.22312 -0.714107 0
M  V30 1393 C 129.028 1.67467 0.298155 0
M  V30 1394 O 130.213 1.93445 0.171048 0
M  V30 1395 C 127.343 3.47124 -0.110448 0
M  V30 1396 C 126.297 4.14926 -1.04979 0
M  V30 1397 C 125.623 5.33807 -0.308924 0
M  V30 1398 C 126.923 4.64762 -2.38314 0
M  V30 1399 H 128.617 2.5258 -1.6076 0
M  V30 1400 H 126.163 1.21404 -0.77441 0
M  V30 1401 H 128.116 4.21124 0.152482 0
M  V30 1402 H 126.84 3.16187 0.81812 0
M  V30 1403 H 125.499 3.42866 -1.29764 0
M  V30 1404 H 125.147 4.99126 0.623084 0
M  V30 1405 H 124.847 5.80113 -0.935036 0
M  V30 1406 H 126.371 6.10576 -0.0537771 0
M  V30 1407 H 127.785 5.30292 -2.1786 0
M  V30 1408 H 126.182 5.21728 -2.96514 0
M  V30 1409 H 127.252 3.80434 -3.00663 0
M  V30 1410 N 128.595 0.856903 1.32268 0
M  V30 1411 C 129.82 0.474569 2.01897 0
M  V30 1412 C 130.245 -0.921766 1.63967 0
M  V30 1413 O 129.603 -1.60589 0.84148 0
M  V30 1414 C 129.651 0.623799 3.55164 0
M  V30 1415 O 128.755 -0.342459 4.10976 0
M  V30 1416 H 128.096 0.190422 0.63611 0
M  V30 1417 H 130.626 1.15672 1.68764 0
M  V30 1418 H 130.636 0.512169 4.04773 0
M  V30 1419 H 129.311 1.64202 3.82113 0
M  V30 1420 H 127.888 -0.18688 3.72431 0
M  V30 1421 N 130.073 -1.45103 0.615059 0
M  V30 1422 C 131.003 -2.33339 -0.0865619 0
M  V30 1423 C 131.984 -1.4727 -0.851209 0
M  V30 1424 O 133.169 -1.76026 -0.820281 0
M  V30 1425 C 130.299 -3.30095 -1.07956 0
M  V30 1426 C 129.253 -4.25858 -0.427628 0
M  V30 1427 C 128.579 -5.12361 -1.5294 0
M  V30 1428 C 129.879 -5.18165 0.655944 0
M  V30 1429 H 131.573 -2.92254 0.650224 0
M  V30 1430 H 129.119 -1.40532 0.314138 0
M  V30 1431 H 131.072 -3.90698 -1.57901 0
M  V30 1432 H 129.796 -2.69355 -1.84703 0
M  V30 1433 H 128.455 -3.66564 0.0510292 0
M  V30 1434 H 128.103 -4.47984 -2.28734 0
M  V30 1435 H 127.803 -5.77238 -1.09865 0
M  V30 1436 H 129.327 -5.75833 -2.03098 0
M  V30 1437 H 130.741 -5.72796 0.240257 0
M  V30 1438 H 129.138 -5.91559 1.00888 0
M  V30 1439 H 130.208 -4.60144 1.52957 0
M  V30 1440 N 131.551 -0.354651 -1.53558 0
M  V30 1441 C 132.828 0.294281 -1.93374 0
M  V30 1442 C 133.208 1.67313 -1.28723 0
M  V30 1443 O 132.556 2.24179 -0.442247 0
M  V30 1444 C 132.766 0.355445 -3.47185 0
M  V30 1445 C 134.114 0.601007 -4.20325 0
M  V30 1446 O 135.138 0.437106 -3.53508 0
M  V30 1447 O 133.997 0.919322 -5.38712 0
M  V30 1448 H 131.091 0.174033 -0.808481 0
M  V30 1449 H 133.637 -0.406638 -1.64756 0
M  V30 1450 H 132.409 -0.611729 -3.86489 0
M  V30 1451 H 132.032 1.1027 -3.82003 0
M  V30 1452 N 133.029 1.57378 -0.0835403 0
M  V30 1453 C 133.979 2.09916 0.889905 0
M  V30 1454 C 134.963 1.01151 1.25129 0
M  V30 1455 O 136.155 1.27443 1.2283 0
M  V30 1456 C 133.284 2.67379 2.15322 0
M  V30 1457 C 132.37 3.83167 1.81779 0
M  V30 1458 N 132.761 4.91665 1.18739 0
M  V30 1459 C 131.059 3.92685 2.11459 0
M  V30 1460 C 131.76 5.72409 1.0355 0
M  V30 1461 N 130.736 5.21062 1.54906 0
M  V30 1462 H 134.538 2.91188 0.398378 0
M  V30 1463 H 132.052 1.61956 0.120013 0
M  V30 1464 H 134.049 3.0334 2.8599 0
M  V30 1465 H 132.709 1.87558 2.65051 0
M  V30 1466 H 133.72 5.10784 0.855604 0
M  V30 1467 H 130.397 3.23856 2.63483 0
M  V30 1468 H 131.787 6.69699 0.543425 0
M  V30 1469 N 134.507 -0.190092 1.56449 0
M  V30 1470 C 135.756 -0.907912 1.80111 0
M  V30 1471 C 136.069 -1.84214 0.657619 0
M  V30 1472 O 137.275 -2.60094 0.778663 0
M  V30 1473 C 135.731 -1.66485 3.19078 0
M  V30 1474 C 135.339 -0.7752 4.41242 0
M  V30 1475 C 137.083 -2.37201 3.52045 0
M  V30 1476 C 134.99 -1.53129 5.71231 0
M  V30 1477 H 133.92 -0.34276 0.671589 0
M  V30 1478 H 136.571 -0.161109 1.82791 0
M  V30 1479 H 134.953 -2.45572 3.10661 0
M  V30 1480 H 136.127 -0.0226298 4.60794 0
M  V30 1481 H 134.442 -0.178627 4.16017 0
M  V30 1482 H 137.039 -2.94329 4.46402 0
M  V30 1483 H 137.382 -3.11632 2.76028 0
M  V30 1484 H 137.915 -1.65075 3.61932 0
M  V30 1485 H 134.654 -0.82967 6.50228 0
M  V30 1486 H 134.174 -2.25767 5.55688 0
M  V30 1487 H 135.853 -2.08377 6.12526 0
M  V30 1488 N 135.985 -1.50799 -0.457987 0
M  V30 1489 C 136.895 -1.73426 -1.57989 0
M  V30 1490 C 137.911 -0.617745 -1.62665 0
M  V30 1491 O 139.087 -0.897614 -1.80291 0
M  V30 1492 C 136.152 -1.83557 -2.94122 0
M  V30 1493 C 135.213 -3.07345 -2.99729 0
M  V30 1494 C 134.446 -3.16983 -4.29368 0
M  V30 1495 O 134.669 -2.33077 -5.20607 0
M  V30 1496 O 133.603 -4.09812 -4.40837 0
M  V30 1497 H 137.429 -2.68555 -1.41817 0
M  V30 1498 H 135.014 -1.35052 -0.638859 0
M  V30 1499 H 136.896 -1.92326 -3.74952 0
M  V30 1500 H 135.571 -0.916137 -3.10465 0
M  V30 1501 H 134.478 -3.04068 -2.1793 0
M  V30 1502 H 135.811 -3.9891 -2.88326 0
M  V30 1503 N 137.463 0.71206 -1.40597 0
M  V30 1504 C 138.709 1.47416 -1.39271 0
M  V30 1505 C 139.042 1.942 0.00388791 0
M  V30 1506 O 138.317 1.68403 0.973179 0
M  V30 1507 C 138.6 2.69774 -2.38525 0
M  V30 1508 C 138.453 2.28861 -3.87224 0
M  V30 1509 C 139.772 3.71939 -2.35264 0
M  V30 1510 H 136.891 0.534713 -0.5072 0
M  V30 1511 H 139.533 0.812375 -1.71757 0
M  V30 1512 H 137.683 3.26238 -2.10953 0
M  V30 1513 H 139.355 1.77852 -4.25636 0
M  V30 1514 H 137.598 1.60824 -4.02887 0
M  V30 1515 H 138.269 3.16584 -4.52193 0
M  V30 1516 H 140.745 3.25113 -2.59694 0
M  V30 1517 H 139.621 4.55186 -3.06753 0
M  V30 1518 H 139.882 4.20484 -1.36549 0
M  V30 1519 N 138.941 1.26152 0.944643 0
M  V30 1520 C 140.166 1.14363 1.7302 0
M  V30 1521 C 140.591 -0.29772 1.85729 0
M  V30 1522 O 139.949 -1.2157 1.34501 0
M  V30 1523 C 139.997 1.81378 3.11664 0
M  V30 1524 O 139.101 1.10022 3.97453 0
M  V30 1525 H 138.442 0.398694 0.53098 0
M  V30 1526 H 140.972 1.66906 1.18337 0
M  V30 1527 H 140.982 1.88064 3.62072 0
M  V30 1528 H 139.657 2.86237 3.0173 0
M  V30 1529 H 138.234 1.11287 3.55907 0
M  V30 1530 N 140.419 -1.14872 1.07899 0
M  V30 1531 C 141.696 -1.81928 0.71845 0
M  V30 1532 C 142.076 -1.95417 -0.798455 0
M  V30 1533 O 141.424 -1.50997 -1.715 0
M  V30 1534 C 141.634 -3.17937 1.43935 0
M  V30 1535 C 142.982 -3.93501 1.59506 0
M  V30 1536 O 144.006 -3.27509 1.40058 0
M  V30 1537 O 142.865 -5.1183 1.91551 0
M  V30 1538 H 139.959 -0.78628 0.256305 0
M  V30 1539 H 142.505 -1.21934 1.18026 0
M  V30 1540 H 141.277 -3.0325 2.47295 0
M  V30 1541 H 140.9 -3.85619 0.968687 0
M  V30 1542 N 141.898 -0.863906 -1.31812 0
M  V30 1543 C 143.175 -0.39275 -1.91616 0
M  V30 1544 C 143.555 1.12461 -1.7865 0
M  V30 1545 O 142.903 1.95045 -1.19037 0
M  V30 1546 C 143.113 -0.867385 -3.38049 0
M  V30 1547 C 144.461 -0.889966 -4.15168 0
M  V30 1548 O 145.485 -0.812635 -3.46806 0
M  V30 1549 O 144.344 -1.00079 -5.37258 0
M  V30 1550 H 141.438 -0.116358 -0.818773 0
M  V30 1551 H 143.984 -0.951418 -1.40521 0
M  V30 1552 H 142.756 -1.91081 -3.41473 0
M  V30 1553 H 142.379 -0.286687 -3.96565 0
M  V30 1554 N 143.376 1.44774 -0.622745 0
M  V30 1555 C 144.339 2.29069 0.0774015 0
M  V30 1556 C 145.339 1.4059 0.780461 0
M  V30 1557 O 146.529 1.62551 0.626322 0
M  V30 1558 C 143.661 3.21974 1.12006 0
M  V30 1559 H 144.854 2.92459 -0.663901 0
M  V30 1560 H 142.407 1.51548 -0.382486 0
M  V30 1561 H 143.142 2.63417 1.89162 0
M  V30 1562 H 142.927 3.87168 0.619951 0
M  V30 1563 H 144.417 3.85318 1.60995 0
M  V30 1564 N 144.854 0.36279 1.53368 0
M  V30 1565 C 146.103 -0.22888 2.00397 0
M  V30 1566 C 146.416 -1.50096 1.25421 0
M  V30 1567 O 147.622 -2.17106 1.63025 0
M  V30 1568 C 146.078 -0.458417 3.56969 0
M  V30 1569 C 145.686 0.798877 4.4082 0
M  V30 1570 C 147.43 -1.00789 4.12361 0
M  V30 1571 C 145.337 0.539078 5.88938 0
M  V30 1572 H 144.267 -0.089305 0.748693 0
M  V30 1573 H 146.918 0.481099 1.77081 0
M  V30 1574 H 145.3 -1.22959 3.76427 0
M  V30 1575 H 146.474 1.57262 4.33134 0
M  V30 1576 H 144.789 1.27137 3.96516 0
M  V30 1577 H 147.386 -1.21754 5.20653 0
M  V30 1578 H 147.729 -1.9692 3.66781 0
M  V30 1579 H 148.262 -0.296961 3.9669 0
M  V30 1580 H 145.001 1.47064 6.3879 0
M  V30 1581 H 144.521 -0.196222 5.99479 0
M  V30 1582 H 146.2 0.163542 6.46793 0
M  V30 1583 N 146.332 -1.57332 0.0918853 0
M  V30 1584 C 147.581 -1.93412 -0.572249 0
M  V30 1585 C 147.894 -0.975515 -1.69538 0
M  V30 1586 O 149.1 -1.22991 -2.42045 0
M  V30 1587 C 147.556 -3.43648 -1.0693 0
M  V30 1588 C 147.164 -4.47994 0.0239049 0
M  V30 1589 C 148.908 -3.88695 -1.70635 0
M  V30 1590 C 146.815 -5.89381 -0.488319 0
M  V30 1591 H 145.745 -0.721939 -0.217532 0
M  V30 1592 H 148.396 -1.82735 0.167369 0
M  V30 1593 H 146.778 -3.49466 -1.8625 0
M  V30 1594 H 147.952 -4.53815 0.799277 0
M  V30 1595 H 146.267 -4.12536 0.565946 0
M  V30 1596 H 148.864 -4.91725 -2.10025 0
M  V30 1597 H 149.207 -3.27166 -2.57426 0
M  V30 1598 H 149.74 -3.85564 -0.979023 0
M  V30 1599 H 146.479 -6.54602 0.342906 0
M  V30 1600 H 145.999 -5.87037 -1.23077 0
M  V30 1601 H 147.678 -6.39863 -0.958317 0
M  V30 1602 N 147.81 0.181792 -1.56548 0
M  V30 1603 C 148.773 1.20894 -1.94724 0
M  V30 1604 C 149.773 1.37738 -0.829747 0
M  V30 1605 O 150.963 1.35323 -1.09697 0
M  V30 1606 C 148.095 2.57593 -2.23291 0
M  V30 1607 H 149.288 0.882275 -2.86629 0
M  V30 1608 H 146.841 0.423838 -1.50444 0
M  V30 1609 H 147.576 2.95291 -1.34067 0
M  V30 1610 H 147.361 2.46735 -3.04736 0
M  V30 1611 H 148.851 3.31637 -2.53785 0
M  V30 1612 N 149.288 1.51039 0.449983 0
M  V30 1613 C 150.536 1.62759 1.19808 0
M  V30 1614 C 150.857 0.339981 1.92013 0
M  V30 1615 O 150.127 -0.643606 1.85026 0
M  V30 1616 H 148.707 0.599811 0.445237 0
M  V30 1617 H 151.369 1.87914 0.517138 0
M  V30 1618 H 150.465 2.44911 1.93455 0
M  V30 1619 N 150.766 -0.704594 1.40972 0
M  V30 1620 C 151.991 -1.49858 1.43378 0
M  V30 1621 C 152.416 -1.88061 0.038184 0
M  V30 1622 O 151.774 -1.5402 -0.956425 0
M  V30 1623 C 151.822 -2.74333 2.34038 0
M  V30 1624 O 150.926 -3.7147 1.7912 0
M  V30 1625 H 150.267 -0.45139 0.486974 0
M  V30 1626 H 152.797 -0.866832 1.8533 0
M  V30 1627 H 152.807 -3.22741 2.49604 0
M  V30 1628 H 151.482 -2.45863 3.35446 0
M  V30 1629 H 150.059 -3.30363 1.72958 0
M  V30 1630 N 152.244 -1.26651 -0.937939 0
M  V30 1631 C 153.492 -1.12165 -1.68118 0
M  V30 1632 C 153.813 0.334983 -1.92101 0
M  V30 1633 O 153.083 1.23583 -1.52 0
M  V30 1634 H 151.663 -0.412093 -0.623048 0
M  V30 1635 H 154.325 -1.59027 -1.12678 0
M  V30 1636 H 153.421 -1.64289 -2.6536 0
M  V30 1637 N 153.722 1.14298 -1.08507 0
M  V30 1638 C 154.685 2.17607 -0.719711 0
M  V30 1639 C 155.685 1.58907 0.245997 0
M  V30 1640 O 156.875 1.74181 0.0254081 0
M  V30 1641 C 154.007 3.40842 -0.0627695 0
M  V30 1642 H 155.2 2.51443 -1.63452 0
M  V30 1643 H 152.753 1.28963 -0.88307 0
M  V30 1644 H 153.488 3.12587 0.863716 0
M  V30 1645 H 153.273 3.84713 -0.757504 0
M  V30 1646 H 154.763 4.17221 0.177786 0
M  V30 1647 N 155.201 0.870884 1.31352 0
M  V30 1648 C 156.164 0.332243 2.26779 0
M  V30 1649 C 157.164 -0.517302 1.52252 0
M  V30 1650 O 158.354 -0.326477 1.71113 0
M  V30 1651 C 155.486 -0.528066 3.36785 0
M  V30 1652 H 156.679 1.17469 2.75937 0
M  V30 1653 H 154.232 0.64655 1.423 0
M  V30 1654 H 154.967 -1.39167 2.92922 0
M  V30 1655 H 154.752 0.0802582 3.92018 0
M  V30 1656 H 156.242 -0.897179 4.07849 0
M  V30 1657 N 156.679 -1.44442 0.630414 0
M  V30 1658 C 157.928 -2.01267 0.132073 0
M  V30 1659 C 158.241 -1.50172 -1.25331 0
M  V30 1660 O 159.447 -1.9912 -1.84562 0
M  V30 1661 C 157.903 -3.59422 0.185362 0
M  V30 1662 C 157.511 -4.19514 1.57201 0
M  V30 1663 C 159.255 -4.23724 -0.256553 0
M  V30 1664 C 157.162 -5.69891 1.58045 0
M  V30 1665 H 156.092 -0.752619 0.0456092 0
M  V30 1666 H 158.743 -1.65666 0.789106 0
M  V30 1667 H 157.125 -3.92318 -0.538759 0
M  V30 1668 H 158.299 -3.98156 2.31966 0
M  V30 1669 H 156.614 -3.67496 1.95795 0
M  V30 1670 H 159.211 -5.34019 -0.269767 0
M  V30 1671 H 159.554 -3.96013 -1.28372 0
M  V30 1672 H 160.087 -3.95629 0.41505 0
M  V30 1673 H 156.826 -6.02336 2.58597 0
M  V30 1674 H 156.346 -5.93373 0.875725 0
M  V30 1675 H 158.025 -6.33515 1.31408 0
M  V30 1676 N 158.157 -0.370918 -1.53173 0
M  V30 1677 C 159.406 0.218249 -2.00516 0
M  V30 1678 C 159.719 1.49429 -1.26215 0
M  V30 1679 O 160.925 2.16239 -1.64174 0
M  V30 1680 C 159.381 0.43948 -3.57207 0
M  V30 1681 C 158.989 -0.822244 -4.4039 0
M  V30 1682 C 160.733 0.986012 -4.1289 0
M  V30 1683 C 158.64 -0.570304 -5.88644 0
M  V30 1684 H 157.57 0.0853333 -0.749156 0
M  V30 1685 H 160.221 -0.490483 -1.76823 0
M  V30 1686 H 158.603 1.20961 -3.77074 0
M  V30 1687 H 159.777 -1.59557 -4.32294 0
M  V30 1688 H 158.092 -1.29238 -3.95836 0
M  V30 1689 H 160.689 1.18991 -5.21292 0
M  V30 1690 H 161.032 1.94972 -3.6782 0
M  V30 1691 H 161.565 0.27592 -3.96842 0
M  V30 1692 H 158.304 -1.50449 -6.38001 0
M  V30 1693 H 157.824 0.164427 -5.99575 0
M  V30 1694 H 159.503 -0.19784 -6.46697 0
M  V30 1695 N 159.635 1.57281 -0.100228 0
M  V30 1696 C 160.912 1.86014 0.604812 0
M  V30 1697 C 161.292 0.998025 1.86018 0
M  V30 1698 O 160.64 0.0718184 2.28387 0
M  V30 1699 C 160.85 3.36784 0.915278 0
M  V30 1700 C 162.198 4.04957 1.27651 0
M  V30 1701 O 163.222 3.41695 1.00613 0
M  V30 1702 O 162.081 5.16593 1.7831 0
M  V30 1703 H 159.175 0.76942 0.303185 0
M  V30 1704 H 161.721 1.69176 -0.133313 0
M  V30 1705 H 160.493 3.91292 0.0248896 0
M  V30 1706 H 160.116 3.58987 1.70921 0
M  V30 1707 N 161.113 -0.173488 1.56642 0
M  V30 1708 C 162.359 -0.891784 1.8214 0
M  V30 1709 C 162.692 -1.8199 0.677736 0
M  V30 1710 O 161.967 -1.91842 -0.320446 0
M  V30 1711 C 162.25 -1.68933 3.18015 0
M  V30 1712 C 162.103 -0.784487 4.42906 0
M  V30 1713 C 163.422 -2.65748 3.50808 0
M  V30 1714 H 160.541 -0.322761 0.662567 0
M  V30 1715 H 163.183 -0.158095 1.89341 0
M  V30 1716 H 161.333 -2.31482 3.12007 0
M  V30 1717 H 163.005 -0.172046 4.60979 0
M  V30 1718 H 161.248 -0.0924117 4.33702 0
M  V30 1719 H 161.919 -1.37799 5.34524 0
M  V30 1720 H 164.395 -2.13327 3.57255 0
M  V30 1721 H 163.271 -3.18619 4.4696 0
M  V30 1722 H 163.532 -3.45842 2.75401 0
M  V30 1723 N 162.591 -1.51276 -0.441967 0
M  V30 1724 C 163.816 -1.67799 -1.21895 0
M  V30 1725 C 164.241 -0.372864 -1.84367 0
M  V30 1726 O 163.599 0.666501 -1.68604 0
M  V30 1727 C 163.647 -2.79199 -2.28211 0
M  V30 1728 O 162.751 -2.42479 -3.33583 0
M  V30 1729 H 162.092 -0.559649 -0.357336 0
M  V30 1730 H 164.622 -1.97815 -0.522522 0
M  V30 1731 H 164.632 -3.03146 -2.73069 0
M  V30 1732 H 163.307 -3.73906 -1.82118 0
M  V30 1733 H 161.884 -2.29087 -2.94234 0
M  V30 1734 N 164.069 0.697108 -1.41344 0
M  V30 1735 C 165.485 1.00751 -1.2378 0
M  V30 1736 C 165.685 2.01105 -0.126066 0
M  V30 1737 O 164.741 2.47295 0.51004 0
M  V30 1738 C 166.054 1.53359 -2.58653 0
M  V30 1739 C 167.602 1.6525 -2.65822 0
M  V30 1740 C 168.077 2.2126 -4.01009 0
M  V30 1741 N 169.568 2.28622 -4.02847 0
M  V30 1742 C 170.303 2.72984 -5.04249 0
M  V30 1743 N 169.799 3.16962 -6.16041 0
M  V30 1744 N 171.592 2.72534 -4.91611 0
M  V30 1745 H 163.743 0.0322662 -2.12375 0
M  V30 1746 H 166.006 0.0768853 -0.944877 0
M  V30 1747 H 165.712 0.870773 -3.4075 0
M  V30 1748 H 165.586 2.51597 -2.81032 0
M  V30 1749 H 167.973 2.30644 -1.84086 0
M  V30 1750 H 168.054 0.655614 -2.47256 0
M  V30 1751 H 167.698 1.56482 -4.83193 0
M  V30 1752 H 167.628 3.21698 -4.16915 0
M  V30 1753 H 170.119 1.97585 -3.22131 0
M  V30 1754 H 170.432 3.49434 -6.89287 0
M  V30 1755 H 168.777 3.14875 -6.1958 0
M  V30 1756 H 171.968 2.37525 -4.0336 0
M  V30 1757 H 172.141 3.06789 -5.70775 0
M  V30 1758 N 165.547 1.27147 0.931209 0
M  V30 1759 C 166.793 1.13446 1.68101 0
M  V30 1760 C 167.126 -0.319628 1.91552 0
M  V30 1761 O 166.401 -1.23407 1.50336 0
M  V30 1762 C 166.684 1.91482 3.0497 0
M  V30 1763 C 166.537 3.44855 2.88782 0
M  V30 1764 C 167.856 1.71651 4.05246 0
M  V30 1765 H 164.975 0.413498 0.610072 0
M  V30 1766 H 167.617 1.56261 1.08086 0
M  V30 1767 H 165.767 1.55095 3.56199 0
M  V30 1768 H 167.439 3.9105 2.44698 0
M  V30 1769 H 165.682 3.71373 2.24198 0
M  V30 1770 H 166.353 3.94694 3.85902 0
M  V30 1771 H 168.829 2.0337 3.63015 0
M  V30 1772 H 167.705 2.28651 4.99009 0
M  V30 1773 H 167.966 0.663555 4.37092 0
M  V30 1774 N 167.025 -1.13721 1.09112 0
M  V30 1775 C 167.988 -2.17222 0.731241 0
M  V30 1776 C 168.988 -1.59035 -0.237566 0
M  V30 1777 O 170.178 -1.74192 -0.0161704 0
M  V30 1778 C 167.31 -3.40804 0.0808443 0
M  V30 1779 H 168.503 -2.50573 1.64783 0
M  V30 1780 H 166.056 -1.28493 0.889897 0
M  V30 1781 H 166.791 -3.1304 -0.847127 0
M  V30 1782 H 166.576 -3.84306 0.777896 0
M  V30 1783 H 168.066 -4.1731 -0.155657 0
M  V30 1784 N 168.503 -0.877838 -1.30888 0
M  V30 1785 C 169.919 -0.570844 -1.49042 0
M  V30 1786 C 170.119 0.893159 -1.80624 0
M  V30 1787 O 169.175 1.67485 -1.88958 0
M  V30 1788 C 170.488 -1.47784 -2.61878 0
M  V30 1789 C 172.036 -1.48071 -2.75761 0
M  V30 1790 C 172.511 -2.37347 -3.91702 0
M  V30 1791 N 174.002 -2.35271 -3.99001 0
M  V30 1792 C 174.737 -3.01063 -4.88004 0
M  V30 1793 N 174.233 -3.76055 -5.81854 0
M  V30 1794 N 176.026 -2.90332 -4.81315 0
M  V30 1795 H 168.177 -1.82502 -1.0866 0
M  V30 1796 H 170.44 -0.780797 -0.537644 0
M  V30 1797 H 170.146 -2.51993 -2.45341 0
M  V30 1798 H 170.02 -1.18215 -3.58197 0
M  V30 1799 H 172.407 -0.446166 -2.91708 0
M  V30 1800 H 172.488 -1.81668 -1.80085 0
M  V30 1801 H 172.132 -3.40883 -3.76512 0
M  V30 1802 H 172.062 -2.01071 -4.86701 0
M  V30 1803 H 174.553 -1.80768 -3.3186 0
M  V30 1804 H 174.866 -4.23366 -6.46514 0
M  V30 1805 H 173.211 -3.80163 -5.81808 0
M  V30 1806 H 176.402 -2.31278 -4.06974 0
M  V30 1807 H 176.575 -3.41885 -5.50471 0
M  V30 1808 N 169.982 1.44106 -0.638065 0
M  V30 1809 C 171.259 1.95453 -0.0759321 0
M  V30 1810 C 171.639 1.57984 1.40015 0
M  V30 1811 O 170.987 0.857361 2.11806 0
M  V30 1812 C 171.197 3.47655 -0.306132 0
M  V30 1813 C 172.545 4.24114 -0.203008 0
M  V30 1814 O 173.569 3.55405 -0.237871 0
M  V30 1815 O 172.428 5.46381 -0.113827 0
M  V30 1816 H 169.522 0.826797 0.0183332 0
M  V30 1817 H 172.068 1.54122 -0.710251 0
M  V30 1818 H 170.84 3.68 -1.3301 0
M  V30 1819 H 170.463 3.95949 0.361991 0
M  V30 1820 N 171.46 0.379036 1.52974 0
M  V30 1821 C 172.69 -0.20649 2.05566 0
M  V30 1822 C 173.098 -1.41906 1.25137 0
M  V30 1823 O 172.441 -1.81421 0.288464 0
M  V30 1824 C 172.503 -0.651086 3.53555 0
M  V30 1825 C 172.167 0.446626 4.54812 0
M  V30 1826 C 173.164 1.30079 5.03364 0
M  V30 1827 C 170.849 0.610719 4.98573 0
M  V30 1828 C 172.843 2.30426 5.94292 0
M  V30 1829 C 170.53 1.61754 5.89304 0
M  V30 1830 C 171.528 2.46274 6.37054 0
M  V30 1831 O 171.216 3.45237 7.25994 0
M  V30 1832 H 170.948 -0.0372381 0.674974 0
M  V30 1833 H 173.502 0.539718 1.98182 0
M  V30 1834 H 171.732 -1.44911 3.58522 0
M  V30 1835 H 173.421 -1.16112 3.88938 0
M  V30 1836 H 174.187 1.18527 4.70294 0
M  V30 1837 H 170.066 -0.0374044 4.60985 0
M  V30 1838 H 173.61 2.96432 6.31485 0
M  V30 1839 H 169.507 1.73348 6.21788 0
M  V30 1840 H 170.275 3.41124 7.44027 0
M  V30 1841 N 172.938 -1.57226 0.108567 0
M  V30 1842 C 173.901 -2.13602 -0.831082 0
M  V30 1843 C 174.901 -1.06841 -1.20173 0
M  V30 1844 O 176.091 -1.32666 -1.12895 0
M  V30 1845 C 173.223 -2.66769 -2.12243 0
M  V30 1846 H 174.416 -2.97951 -0.341317 0
M  V30 1847 H 171.969 -1.55667 -0.14057 0
M  V30 1848 H 172.704 -1.85977 -2.65675 0
M  V30 1849 H 172.489 -3.44839 -1.86625 0
M  V30 1850 H 173.979 -3.10332 -2.79435 0
M  V30 1851 N 174.416 0.165178 -1.56732 0
M  V30 1852 C 175.346 1.20651 -1.99914 0
M  V30 1853 C 176.327 1.45827 -0.875705 0
M  V30 1854 O 177.512 1.57057 -1.14223 0
M  V30 1855 C 174.642 2.54401 -2.36427 0
M  V30 1856 C 173.596 2.43782 -3.51787 0
M  V30 1857 C 172.922 3.82078 -3.7406 0
M  V30 1858 C 174.222 1.93732 -4.85041 0
M  V30 1859 H 175.916 0.847534 -2.87154 0
M  V30 1860 H 173.462 0.40625 -1.38151 0
M  V30 1861 H 175.415 3.27458 -2.65234 0
M  V30 1862 H 174.139 2.92098 -1.46103 0
M  V30 1863 H 172.798 1.73178 -3.23117 0
M  V30 1864 H 172.446 4.17179 -2.81017 0
M  V30 1865 H 172.146 3.7584 -4.51684 0
M  V30 1866 H 173.67 4.56712 -4.05274 0
M  V30 1867 H 175.084 2.56569 -5.12684 0
M  V30 1868 H 173.481 1.98428 -5.66345 0
M  V30 1869 H 174.551 0.891962 -4.76626 0
M  V30 1870 N 175.894 1.51508 0.433938 0
M  V30 1871 C 177.122 1.68157 1.20543 0
M  V30 1872 C 177.537 0.380362 1.84929 0
M  V30 1873 O 176.894 -0.641446 1.70856 0
M  V30 1874 C 176.945 2.79965 2.28696 0
M  V30 1875 O 176.666 4.05045 1.66943 0
M  V30 1876 C 178.167 3.07912 3.18912 0
M  V30 1877 H 175.387 0.56421 0.363191 0
M  V30 1878 H 177.931 1.97941 0.513754 0
M  V30 1879 H 176.086 2.5277 2.93574 0
M  V30 1880 H 176.5 4.67165 2.38448 0
M  V30 1881 H 177.974 3.89719 3.90926 0
M  V30 1882 H 178.451 2.20456 3.79863 0
M  V30 1883 H 179.057 3.36779 2.59731 0
M  V30 1884 N 177.372 -0.689602 1.41712 0
M  V30 1885 C 178.62 -1.4468 1.4111 0
M  V30 1886 C 178.941 -1.94986 0.0232196 0
M  V30 1887 O 178.211 -1.72097 -0.935913 0
M  V30 1888 H 176.791 -0.536847 0.519427 0
M  V30 1889 H 179.453 -0.815825 1.77004 0
M  V30 1890 H 178.549 -2.30706 2.10193 0
M  V30 1891 N 178.85 -1.27639 -0.924453 0
M  V30 1892 C 179.78 -1.13166 -2.04244 0
M  V30 1893 C 180.761 -0.032256 -1.70069 0
M  V30 1894 O 181.946 -0.207328 -1.9309 0
M  V30 1895 C 179.076 -0.781496 -3.38393 0
M  V30 1896 C 178.03 -1.83449 -3.86692 0
M  V30 1897 C 177.356 -1.33822 -5.17683 0
M  V30 1898 C 178.656 -3.23917 -4.09726 0
M  V30 1899 H 180.35 -2.06689 -2.1661 0
M  V30 1900 H 177.896 -0.995136 -1.04082 0
M  V30 1901 H 179.849 -0.667057 -4.16087 0
M  V30 1902 H 178.573 0.189439 -3.2605 0
M  V30 1903 H 177.232 -1.93789 -3.11193 0
M  V30 1904 H 176.88 -0.35665 -5.01734 0
M  V30 1905 H 176.58 -2.04224 -5.50968 0
M  V30 1906 H 178.104 -1.23679 -5.97943 0
M  V30 1907 H 179.518 -3.16559 -4.77978 0
M  V30 1908 H 177.915 -3.92059 -4.54324 0
M  V30 1909 H 178.985 -3.68729 -3.14908 0
M  V30 1910 N 180.328 1.1314 -1.09713 0
M  V30 1911 C 181.238 2.22242 -0.751367 0
M  V30 1912 C 182.254 1.72224 0.247938 0
M  V30 1913 O 183.43 2.01205 0.0885463 0
M  V30 1914 C 180.495 3.46231 -0.180274 0
M  V30 1915 C 179.556 4.11125 -1.2359 0
M  V30 1916 C 178.789 5.29195 -0.691966 0
M  V30 1917 O 179.012 5.68342 0.48414 0
M  V30 1918 O 177.946 5.84214 -1.44838 0
M  V30 1919 H 181.772 2.54197 -1.66186 0
M  V30 1920 H 179.357 1.21331 -0.871735 0
M  V30 1921 H 181.239 4.21185 0.134739 0
M  V30 1922 H 179.914 3.1597 0.703185 0
M  V30 1923 H 178.821 3.37985 -1.60366 0
M  V30 1924 H 180.154 4.45524 -2.09211 0
M  V30 1925 N 181.806 0.884767 1.30421 0
M  V30 1926 C 183.053 0.503105 1.96151 0
M  V30 1927 C 183.381 -0.947676 1.69851 0
M  V30 1928 O 182.636 -1.68467 0.995861 0
M  V30 1929 C 182.935 0.724318 3.49983 0
M  V30 1930 C 182.601 2.15015 3.96332 0
M  V30 1931 C 181.263 2.54005 4.08699 0
M  V30 1932 C 183.615 3.07936 4.20505 0
M  V30 1933 C 180.943 3.85128 4.42599 0
M  V30 1934 C 183.295 4.3859 4.55874 0
M  V30 1935 C 181.959 4.77474 4.66449 0
M  V30 1936 H 181.229 0.184099 0.717766 0
M  V30 1937 H 183.876 1.12058 1.55291 0
M  V30 1938 H 182.181 0.0238086 3.91793 0
M  V30 1939 H 183.878 0.408617 3.98913 0
M  V30 1940 H 180.468 1.8375 3.87213 0
M  V30 1941 H 184.652 2.79033 4.10431 0
M  V30 1942 H 179.908 4.14996 4.48986 0
M  V30 1943 H 184.082 5.10629 4.7353 0
M  V30 1944 H 181.709 5.79115 4.92473 0
M  V30 1945 N 183.284 -1.43765 0.645699 0
M  V30 1946 C 184.247 -2.29163 -0.0409488 0
M  V30 1947 C 185.247 -1.41813 -0.757996 0
M  V30 1948 O 186.437 -1.63527 -0.600382 0
M  V30 1949 C 183.569 -3.23716 -1.06869 0
M  V30 1950 H 184.762 -2.91366 0.710345 0
M  V30 1951 H 182.315 -1.5092 0.406547 0
M  V30 1952 H 183.05 -2.66393 -1.84947 0
M  V30 1953 H 182.835 -3.88105 -0.558277 0
M  V30 1954 H 184.325 -3.87831 -1.54845 0
M  V30 1955 N 184.763 -0.387143 -1.52771 0
M  V30 1956 C 186.003 0.195537 -2.03463 0
M  V30 1957 C 186.367 1.44222 -1.26744 0
M  V30 1958 O 187.568 2.10192 -1.67549 0
M  V30 1959 C 185.839 0.459097 -3.54439 0
M  V30 1960 S 187.398 1.01237 -4.26962 0
M  V30 1961 H 184.216 0.0552675 -0.708849 0
M  V30 1962 H 186.818 -0.534992 -1.88037 0
M  V30 1963 H 185.522 -0.455382 -4.07866 0
M  V30 1964 H 185.053 1.21811 -3.74066 0
M  V30 1965 H 187.068 2.29492 -4.39941 0
M  V30 1966 N 186.241 1.57166 -0.116904 0
M  V30 1967 C 187.489 1.94737 0.540533 0
M  V30 1968 C 187.81 1.00096 1.67349 0
M  V30 1969 O 187.08 0.0568854 1.95817 0
M  V30 1970 H 185.66 0.718981 0.202669 0
M  V30 1971 H 188.322 1.94017 -0.185353 0
M  V30 1972 H 187.418 2.97719 0.936483 0
M  V30 1973 N 187.719 -0.156864 1.56817 0
M  V30 1974 C 188.968 -0.869504 1.81996 0
M  V30 1975 C 189.281 -1.82777 0.696545 0
M  V30 1976 O 190.487 -2.58384 0.833658 0
M  V30 1977 C 188.943 -1.59679 3.22538 0
M  V30 1978 C 188.551 -0.681431 4.42787 0
M  V30 1979 C 190.295 -2.2968 3.56997 0
M  V30 1980 C 188.202 -1.40978 5.74351 0
M  V30 1981 H 187.132 -0.328438 0.678708 0
M  V30 1982 H 189.783 -0.1223 1.83092 0
M  V30 1983 H 188.165 -2.38927 3.158 0
M  V30 1984 H 189.339 0.0751166 4.60739 0
M  V30 1985 H 187.654 -0.0903431 4.16302 0
M  V30 1986 H 190.251 -2.84794 4.52544 0
M  V30 1987 H 190.594 -3.05707 2.82576 0
M  V30 1988 H 191.127 -1.57361 3.65352 0
M  V30 1989 H 187.866 -0.691561 6.51842 0
M  V30 1990 H 187.386 -2.13929 5.60352 0
M  V30 1991 H 189.065 -1.95337 6.16808 0
M  V30 1992 N 189.197 -1.51736 -0.425897 0
M  V30 1993 C 190.608 -1.5732 -1.00536 0
M  V30 1994 C 190.959 -0.403537 -1.92005 0
M  V30 1995 O 190.084 0.478256 -2.11049 0
M  V30 1996 C 190.679 -2.85119 -1.8301 0
M  V30 1997 C 189.238 -2.93236 -2.35987 0
M  V30 1998 C 188.385 -2.52098 -1.15508 0
M  V30 1999 H 191.336 -1.57348 -0.206739 0
M  V30 2000 H 191.357 -2.69526 -2.68581 0
M  V30 2001 H 190.869 -3.7023 -1.16411 0
M  V30 2002 H 188.97 -2.12581 -3.06007 0
M  V30 2003 H 189.083 -3.9713 -2.68001 0
M  V30 2004 H 187.447 -2.05558 -1.50393 0
M  V30 2005 H 188.23 -3.39565 -0.505014 0
M  V30 2006 N 190.675 0.682077 -1.42076 0
M  V30 2007 C 191.923 1.4393 -1.41876 0
M  V30 2008 C 192.244 1.94971 -0.0335599 0
M  V30 2009 O 191.514 1.72591 0.926773 0
M  V30 2010 H 190.094 0.534085 -0.522267 0
M  V30 2011 H 192.756 0.806427 -1.77434 0
M  V30 2012 H 191.852 2.29588 -2.11414 0
M  V30 2013 N 192.153 1.28127 0.917671 0
M  V30 2014 C 193.378 1.18007 1.70555 0
M  V30 2015 C 193.803 -0.258257 1.86319 0
M  V30 2016 O 193.161 -1.1869 1.37049 0
M  V30 2017 C 193.209 1.87948 3.07746 0
M  V30 2018 O 192.313 1.18427 3.9503 0
M  V30 2019 H 191.654 0.409867 0.522403 0
M  V30 2020 H 194.184 1.69379 1.1477 0
M  V30 2021 H 194.194 1.95701 3.58001 0
M  V30 2022 H 192.869 2.92573 2.95591 0
M  V30 2023 H 191.446 1.18811 3.53466 0
M  V30 2024 N 193.631 -1.12557 1.10312 0
M  V30 2025 C 194.88 -1.83395 0.839588 0
M  V30 2026 C 195.193 -1.84939 -0.636929 0
M  V30 2027 O 196.399 -2.51761 -1.01631 0
M  V30 2028 C 194.855 -3.29303 1.45215 0
M  V30 2029 C 194.463 -3.36122 2.96186 0
M  V30 2030 C 196.207 -4.05121 1.26796 0
M  V30 2031 C 194.114 -4.76357 3.50483 0
M  V30 2032 H 193.044 -0.687133 0.310425 0
M  V30 2033 H 195.695 -1.26746 1.32694 0
M  V30 2034 H 194.077 -3.85812 0.892469 0
M  V30 2035 H 195.251 -2.89559 3.58458 0
M  V30 2036 H 193.566 -2.73776 3.13745 0
M  V30 2037 H 196.163 -5.08668 1.64806 0
M  V30 2038 H 196.506 -4.15773 0.209409 0
M  V30 2039 H 197.039 -3.54967 1.79563 0
M  V30 2040 H 193.778 -4.70899 4.55998 0
M  V30 2041 H 193.298 -5.23377 2.92978 0
M  V30 2042 H 194.977 -5.45294 3.48228 0
M  V30 2043 N 195.109 -0.891671 -1.2995 0
M  V30 2044 C 196.357 -0.512486 -1.95494 0
M  V30 2045 C 196.678 0.942776 -1.70695 0
M  V30 2046 O 195.948 1.66374 -1.03424 0
M  V30 2047 H 194.528 -0.186533 -0.723336 0
M  V30 2048 H 197.19 -1.13621 -1.58355 0
M  V30 2049 H 196.286 -0.688342 -3.04415 0
M  V30 2050 N 196.587 1.43421 -0.653314 0
M  V30 2051 C 197.835 2.01414 -0.166415 0
M  V30 2052 C 198.156 1.51803 1.22397 0
M  V30 2053 O 197.426 0.730693 1.81763 0
M  V30 2054 H 196.006 0.744703 -0.0585319 0
M  V30 2055 H 198.668 1.75629 -0.845003 0
M  V30 2056 H 197.764 3.11734 -0.151111 0
M  V30 2057 N 198.065 0.39524 1.52563 0
M  V30 2058 C 199.028 -0.425001 2.25225 0
M  V30 2059 C 200.028 -0.985266 1.27079 0
M  V30 2060 O 201.218 -0.866332 1.5113 0
M  V30 2061 C 198.35 -1.59686 3.01186 0
M  V30 2062 H 199.543 0.211233 2.99155 0
M  V30 2063 H 197.096 0.147472 1.55603 0
M  V30 2064 H 197.831 -2.27035 2.31572 0
M  V30 2065 H 197.616 -1.20176 3.73229 0
M  V30 2066 H 199.106 -2.17743 3.5634 0
M  V30 2067 N 199.544 -1.57102 0.125237 0
M  V30 2068 C 200.79 -1.95697 -0.532035 0
M  V30 2069 C 201.123 -1.009 -1.6593 0
M  V30 2070 O 200.398 -0.047347 -1.94442 0
M  V30 2071 C 200.681 -3.44181 -1.05884 0
M  V30 2072 C 200.534 -4.49752 0.0654392 0
M  V30 2073 C 201.853 -3.94655 -1.9477 0
M  V30 2074 H 198.972 -0.711571 -0.191925 0
M  V30 2075 H 201.614 -1.88923 0.20206 0
M  V30 2076 H 199.764 -3.50085 -1.68442 0
M  V30 2077 H 201.436 -4.55943 0.700982 0
M  V30 2078 H 199.679 -4.27653 0.727709 0
M  V30 2079 H 200.35 -5.50924 -0.344505 0
M  V30 2080 H 202.826 -3.91094 -1.42074 0
M  V30 2081 H 201.702 -4.99057 -2.28546 0
M  V30 2082 H 201.963 -3.35718 -2.87656 0
M  V30 2083 N 201.022 0.148545 -1.56898 0
M  V30 2084 C 202.252 0.875118 -1.8715 0
M  V30 2085 C 202.66 1.75322 -0.711262 0
M  V30 2086 O 202.003 1.80745 0.328151 0
M  V30 2087 C 202.065 1.7844 -3.12089 0
M  V30 2088 C 201.729 1.08361 -4.43967 0
M  V30 2089 C 202.726 0.438247 -5.1805 0
M  V30 2090 C 200.411 1.07358 -4.90693 0
M  V30 2091 C 202.405 -0.20779 -6.37061 0
M  V30 2092 C 200.092 0.42373 -6.09629 0
M  V30 2093 C 201.09 -0.215829 -6.82659 0
M  V30 2094 O 200.778 -0.855378 -7.99336 0
M  V30 2095 H 200.51 0.258504 -0.624621 0
M  V30 2096 H 203.064 0.14652 -2.04877 0
M  V30 2097 H 201.294 2.55389 -2.90367 0
M  V30 2098 H 202.983 2.38279 -3.286 0
M  V30 2099 H 203.749 0.437817 -4.8302 0
M  V30 2100 H 199.628 1.5608 -4.33774 0
M  V30 2101 H 203.172 -0.70758 -6.94002 0
M  V30 2102 H 199.069 0.421822 -6.4412 0
M  V30 2103 H 199.837 -0.756892 -8.14993 0
M  V30 2104 N 202.5 1.5196 0.417844 0
M  V30 2105 C 203.433 1.69387 1.52916 0
M  V30 2106 C 204.411 0.541419 1.53321 0
M  V30 2107 O 205.595 0.767695 1.72159 0
M  V30 2108 C 202.722 1.72525 2.91467 0
M  V30 2109 C 201.768 2.93967 3.09008 0
M  V30 2110 S 202.601 4.54461 2.83242 0
M  V30 2111 C 203.757 4.60372 4.24038 0
M  V30 2112 H 203.99 2.63382 1.37903 0
M  V30 2113 H 201.523 1.41889 0.608845 0
M  V30 2114 H 203.481 1.75018 3.7132 0
M  V30 2115 H 202.142 0.796733 3.03827 0
M  V30 2116 H 201.335 2.92619 4.10353 0
M  V30 2117 H 200.937 2.89316 2.37007 0
M  V30 2118 H 203.229 4.37213 5.17544 0
M  V30 2119 H 204.172 5.62273 4.30412 0
M  V30 2120 H 204.58 3.89492 4.08602 0
M  V30 2121 N 203.978 -0.674533 1.42435 0
M  V30 2122 C 204.926 -1.80934 1.46169 0
M  V30 2123 C 205.92 -1.66006 0.3374 0
M  V30 2124 O 207.126 -1.72611 0.510425 0
M  V30 2125 H 203.501 -0.596594 0.457798 0
M  V30 2126 H 205.472 -1.74903 2.41767 0
M  V30 2127 C 204.221 -3.19088 1.38123 0
M  V30 2128 H 203.544 -3.31203 2.23931 0
M  V30 2129 H 204.984 -3.9851 1.44797 0
M  V30 2130 C 203.443 -3.36763 0.0960517 0
M  V30 2131 O 203.973 -3.92581 -0.851073 0
M  V30 2132 N 202.179 -2.90597 0.0131186 0
M  V30 2133 H 201.726 -2.45359 0.784639 0
M  V30 2134 H 201.684 -3.028 -0.846133 0
M  V30 2135 N 205.456 -1.28612 -0.910864 0
M  V30 2136 C 206.419 -1.12803 -1.9952 0
M  V30 2137 C 207.419 -0.0668264 -1.60661 0
M  V30 2138 O 208.609 -0.312847 -1.71368 0
M  V30 2139 C 205.741 -0.72254 -3.33155 0
M  V30 2140 H 206.934 -2.09109 -2.14973 0
M  V30 2141 H 204.487 -1.11639 -1.09391 0
M  V30 2142 H 205.222 0.241152 -3.23402 0
M  V30 2143 H 205.007 -1.48916 -3.62721 0
M  V30 2144 H 206.497 -0.634666 -4.12749 0
M  V30 2145 N 206.934 1.1197 -1.10907 0
M  V30 2146 C 208.182 1.83225 -0.852819 0
M  V30 2147 C 208.503 1.84769 0.623341 0
M  V30 2148 O 207.773 1.3143 1.45269 0
M  V30 2149 H 206.353 0.67849 -0.312507 0
M  V30 2150 H 209.015 1.3556 -1.40033 0
M  V30 2151 H 208.111 2.87265 -1.22005 0
M  V30 2152 N 208.412 0.89855 1.29475 0
M  V30 2153 C 209.375 0.380272 2.26023 0
M  V30 2154 C 210.375 -0.484891 1.53315 0
M  V30 2155 O 211.565 -0.290108 1.71767 0
M  V30 2156 C 208.697 -0.45651 3.3783 0
M  V30 2157 H 209.89 1.23295 2.73383 0
M  V30 2158 H 207.443 0.676589 1.40897 0
M  V30 2159 H 208.178 -1.32922 2.95808 0
M  V30 2160 H 207.963 0.163393 3.91759 0
M  V30 2161 H 209.453 -0.810466 4.0966 0
M  V30 2162 N 209.89 -1.43072 0.660911 0
M  V30 2163 C 211.12 -2.05769 0.185153 0
M  V30 2164 C 211.528 -1.49668 -1.15742 0
M  V30 2165 O 210.871 -0.625649 -1.72717 0
M  V30 2166 C 210.933 -3.59489 0.0278237 0
M  V30 2167 C 210.597 -4.38212 1.2969 0
M  V30 2168 C 211.594 -4.69772 2.22734 0
M  V30 2169 C 209.279 -4.7809 1.54063 0
M  V30 2170 C 211.273 -5.40129 3.38437 0
M  V30 2171 C 208.96 -5.4819 2.70058 0
M  V30 2172 C 209.958 -5.79132 3.62071 0
M  V30 2173 O 209.646 -6.47798 4.76039 0
M  V30 2174 H 209.378 -0.669873 0.0908086 0
M  V30 2175 H 211.932 -1.84436 0.90402 0
M  V30 2176 H 210.162 -3.79426 -0.746489 0
M  V30 2177 H 211.851 -4.03862 -0.406275 0
M  V30 2178 H 212.617 -4.39476 2.05149 0
M  V30 2179 H 208.496 -4.53408 0.833215 0
M  V30 2180 H 212.04 -5.64198 4.10277 0
M  V30 2181 H 207.937 -5.77902 2.87574 0
M  V30 2182 H 208.705 -6.66283 4.75404 0
M  V30 2183 N 211.368 -0.403325 -1.52352 0
M  V30 2184 C 212.616 0.174003 -2.0135 0
M  V30 2185 C 212.937 1.46139 -1.29106 0
M  V30 2186 O 212.207 1.91448 -0.415253 0
M  V30 2187 H 210.787 0.0672911 -0.743963 0
M  V30 2188 H 213.449 -0.538235 -1.87321 0
M  V30 2189 H 212.545 0.374254 -3.09848 0
M  V30 2190 N 212.846 1.57033 -0.133567 0
M  V30 2191 C 214.094 1.953 0.519848 0
M  V30 2192 C 214.415 1.01866 1.66278 0
M  V30 2193 O 213.685 0.0776513 1.95746 0
M  V30 2194 H 212.265 0.721091 0.195032 0
M  V30 2195 H 214.927 1.93809 -0.205921 0
M  V30 2196 H 214.023 2.98695 0.904854 0
M  V30 2197 N 214.325 -0.140222 1.56975 0
M  V30 2198 C 215.235 -1.19223 2.02047 0
M  V30 2199 C 216.251 -1.46612 0.937062 0
M  V30 2200 O 217.427 -1.58148 1.24704 0
M  V30 2201 C 214.492 -2.50414 2.39778 0
M  V30 2202 C 213.553 -2.30612 3.621 0
M  V30 2203 C 212.786 -3.55547 3.98023 0
M  V30 2204 O 213.009 -4.62004 3.34528 0
M  V30 2205 O 211.943 -3.47808 4.91237 0
M  V30 2206 H 215.769 -0.839559 2.91865 0
M  V30 2207 H 213.354 -0.349453 1.45256 0
M  V30 2208 H 215.236 -3.27747 2.64877 0
M  V30 2209 H 213.911 -2.85198 1.53114 0
M  V30 2210 H 212.818 -1.51207 3.4218 0
M  V30 2211 H 214.151 -2.00741 4.49404 0
M  V30 2212 N 215.803 -1.52179 -0.40978 0
M  V30 2213 C 217.049 -1.66453 -1.15851 0
M  V30 2214 C 217.382 -0.392972 -1.90182 0
M  V30 2215 O 216.657 0.608579 -1.84734 0
M  V30 2216 C 216.94 -2.88612 -2.15349 0
M  V30 2217 C 216.793 -4.25815 -1.44918 0
M  V30 2218 C 218.112 -3.06294 -3.16026 0
M  V30 2219 H 215.231 -0.60575 -0.419805 0
M  V30 2220 H 217.873 -1.84732 -0.444314 0
M  V30 2221 H 216.023 -2.73158 -2.76255 0
M  V30 2222 H 217.695 -4.52995 -0.871365 0
M  V30 2223 H 215.938 -4.27247 -0.751159 0
M  V30 2224 H 216.609 -5.07337 -2.17516 0
M  V30 2225 H 219.085 -3.20641 -2.65195 0
M  V30 2226 H 217.961 -3.93283 -3.8291 0
M  V30 2227 H 218.222 -2.19579 -3.83715 0
M  V30 2228 N 217.281 0.66697 -1.42791 0
M  V30 2229 C 218.228 1.7803 -1.4688 0
M  V30 2230 C 219.198 1.6299 -0.319919 0
M  V30 2231 O 220.383 1.83432 -0.525118 0
M  V30 2232 C 217.523 3.1611 -1.38451 0
M  V30 2233 C 216.636 3.42381 -2.63437 0
M  V30 2234 C 215.771 4.70232 -2.47094 0
M  V30 2235 C 214.81 4.89564 -3.67415 0
M  V30 2236 N 213.947 6.08661 -3.49966 0
M  V30 2237 H 218.787 1.7387 -2.42019 0
M  V30 2238 H 216.324 0.84868 -1.20149 0
M  V30 2239 H 218.282 3.95914 -1.31561 0
M  V30 2240 H 216.912 3.19374 -0.469033 0
M  V30 2241 H 215.964 2.56774 -2.80662 0
M  V30 2242 H 217.276 3.52557 -3.52853 0
M  V30 2243 H 216.43 5.5814 -2.37834 0
M  V30 2244 H 215.169 4.62353 -1.5518 0
M  V30 2245 H 214.174 4.00096 -3.77099 0
M  V30 2246 H 215.399 4.99282 -4.6032 0
M  V30 2247 H 213.345 6.0194 -2.60776 0
M  V30 2248 H 213.262 6.19733 -4.32975 0
M  V30 2249 H 214.53 6.99226 -3.44532 0
M  V30 2250 N 218.759 1.29093 0.90403 0
M  V30 2251 C 220.036 1.075 1.63411 0
M  V30 2252 C 220.416 -0.382346 2.07609 0
M  V30 2253 O 219.764 -1.37031 1.82851 0
M  V30 2254 C 219.974 2.05858 2.81822 0
M  V30 2255 C 221.322 2.36539 3.52611 0
M  V30 2256 O 222.346 2.04019 2.91984 0
M  V30 2257 O 221.205 2.92085 4.61897 0
M  V30 2258 H 218.299 0.411547 0.717327 0
M  V30 2259 H 220.845 1.40449 0.952479 0
M  V30 2260 H 219.617 3.04037 2.46327 0
M  V30 2261 H 219.24 1.73613 3.57693 0
M  V30 2262 N 220.237 -1.11381 1.11499 0
M  V30 2263 C 221.477 -1.84763 0.874188 0
M  V30 2264 C 221.841 -1.82726 -0.589496 0
M  V30 2265 O 223.042 -2.51562 -0.947089 0
M  V30 2266 C 221.313 -3.27931 1.42112 0
M  V30 2267 S 222.872 -4.18557 1.31739 0
M  V30 2268 H 219.69 -0.637115 0.315603 0
M  V30 2269 H 222.292 -1.34097 1.42261 0
M  V30 2270 H 220.996 -3.26978 2.48019 0
M  V30 2271 H 220.527 -3.83665 0.869761 0
M  V30 2272 H 222.542 -4.95396 0.282335 0
M  V30 2273 N 221.715 -0.905404 -1.28997 0
M  V30 2274 C 222.964 -0.530191 -1.94607 0
M  V30 2275 C 223.277 0.929185 -1.72121 0
M  V30 2276 O 224.483 1.41218 -2.31883 0
M  V30 2277 C 222.939 -0.897333 -3.48534 0
M  V30 2278 C 222.547 -2.37587 -3.79811 0
M  V30 2279 C 224.291 -0.592304 -4.20347 0
M  V30 2280 C 222.198 -2.68357 -5.27009 0
M  V30 2281 H 221.128 -0.194558 -0.728466 0
M  V30 2282 H 223.779 -1.10318 -1.46636 0
M  V30 2283 H 222.161 -0.253214 -3.9519 0
M  V30 2284 H 223.335 -3.06602 -3.43994 0
M  V30 2285 H 221.65 -2.6505 -3.2115 0
M  V30 2286 H 224.247 -0.798975 -5.28697 0
M  V30 2287 H 224.59 0.469474 -4.13644 0
M  V30 2288 H 225.123 -1.19452 -3.79442 0
M  V30 2289 H 221.862 -3.73355 -5.38782 0
M  V30 2290 H 221.382 -2.03971 -5.64053 0
M  V30 2291 H 223.061 -2.54922 -5.94663 0
M  V30 2292 N 223.193 1.4272 -0.668489 0
M  V30 2293 C 224.47 1.95248 -0.117373 0
M  V30 2294 C 224.85 1.60919 1.36632 0
M  V30 2295 O 224.198 0.902095 2.09939 0
M  V30 2296 C 224.408 3.46927 -0.379806 0
M  V30 2297 C 225.756 4.23588 -0.292923 0
M  V30 2298 O 226.78 3.5482 -0.313204 0
M  V30 2299 O 225.639 5.46017 -0.229697 0
M  V30 2300 H 222.733 0.827 0.00079152 0
M  V30 2301 H 225.279 1.52581 -0.742783 0
M  V30 2302 H 224.051 3.65096 -1.40786 0
M  V30 2303 H 223.674 3.96627 0.277923 0
M  V30 2304 N 224.671 0.411399 1.52136 0
M  V30 2305 C 225.901 -0.16284 2.05957 0
M  V30 2306 C 226.309 -1.3922 1.28119 0
M  V30 2307 O 225.652 -1.80768 0.326881 0
M  V30 2308 C 225.714 -0.575946 3.54856 0
M  V30 2309 C 225.378 0.542998 4.53763 0
M  V30 2310 C 226.375 1.40726 5.00492 0
M  V30 2311 C 224.06 0.716337 4.97166 0
M  V30 2312 C 226.054 2.4298 5.8927 0
M  V30 2313 C 223.741 1.74218 5.8574 0
M  V30 2314 C 224.739 2.59731 6.31687 0
M  V30 2315 O 224.427 3.60558 7.18507 0
M  V30 2316 H 224.159 -0.0229125 0.675612 0
M  V30 2317 H 226.713 0.581634 1.96993 0
M  V30 2318 H 224.943 -1.37274 3.61515 0
M  V30 2319 H 226.632 -1.07836 3.91313 0
M  V30 2320 H 227.398 1.28476 4.67674 0
M  V30 2321 H 223.277 0.0603857 4.6096 0
M  V30 2322 H 226.821 3.0976 6.25055 0
M  V30 2323 H 222.718 1.86498 6.17971 0
M  V30 2324 H 223.486 3.56829 7.36624 0
M  V30 2325 N 226.149 -1.5696 0.141893 0
M  V30 2326 C 227.112 -2.15316 -0.785587 0
M  V30 2327 C 228.112 -1.09366 -1.1788 0
M  V30 2328 O 229.302 -1.35031 -1.10056 0
M  V30 2329 C 226.434 -2.71211 -2.06537 0
M  V30 2330 H 227.627 -2.98608 -0.278041 0
M  V30 2331 H 225.18 -1.5593 -0.107519 0
M  V30 2332 H 225.915 -1.91571 -2.6167 0
M  V30 2333 H 225.7 -3.4872 -1.79268 0
M  V30 2334 H 227.19 -3.16189 -2.72789 0
M  V30 2335 N 227.627 0.131896 -1.57047 0
M  V30 2336 C 228.557 1.16384 -2.02428 0
M  V30 2337 C 229.538 1.43936 -0.90644 0
M  V30 2338 O 230.723 1.54599 -1.17528 0
M  V30 2339 C 227.853 2.49328 -2.4177 0
M  V30 2340 C 226.807 2.36266 -3.56879 0
M  V30 2341 C 226.133 3.74057 -3.8208 0
M  V30 2342 C 227.433 1.834 -4.89042 0
M  V30 2343 H 229.127 0.786433 -2.88887 0
M  V30 2344 H 226.673 0.376855 -1.38981 0
M  V30 2345 H 228.626 3.21759 -2.7212 0
M  V30 2346 H 227.35 2.88934 -1.52266 0
M  V30 2347 H 226.009 1.66286 -3.26718 0
M  V30 2348 H 225.657 4.11125 -2.89803 0
M  V30 2349 H 225.357 3.66174 -4.59554 0
M  V30 2350 H 226.881 4.48012 -4.1487 0
M  V30 2351 H 228.295 2.45636 -5.18011 0
M  V30 2352 H 226.692 1.8637 -5.70426 0
M  V30 2353 H 227.762 0.790662 -4.7841 0
M  V30 2354 N 229.106 1.52395 0.401703 0
M  V30 2355 C 230.346 1.68498 1.15705 0
M  V30 2356 C 230.71 0.409748 1.87577 0
M  V30 2357 O 231.911 0.446983 2.65058 0
M  V30 2358 C 230.182 2.87789 2.11924 0
M  V30 2359 S 231.741 3.24415 2.95466 0
M  V30 2360 H 228.559 0.593267 0.391862 0
M  V30 2361 H 231.161 1.90408 0.443282 0
M  V30 2362 H 229.865 3.7884 1.57824 0
M  V30 2363 H 229.396 2.68175 2.87829 0
M  V30 2364 H 231.411 2.73614 4.13944 0
M  V30 2365 N 230.584 -0.659388 1.43143 0
M  V30 2366 C 231.83 -1.42145 1.44647 0
M  V30 2367 C 232.163 -1.9408 0.0681907 0
M  V30 2368 O 231.438 -1.71899 -0.910007 0
M  V30 2369 C 231.721 -2.60735 2.48373 0
M  V30 2370 C 231.574 -2.14332 3.95451 0
M  V30 2371 C 232.893 -3.62951 2.48906 0
M  V30 2372 H 230.012 -0.51552 0.526696 0
M  V30 2373 H 232.654 -0.748069 1.74654 0
M  V30 2374 H 230.804 -3.18184 2.22916 0
M  V30 2375 H 232.476 -1.61932 4.31944 0
M  V30 2376 H 230.719 -1.4576 4.08578 0
M  V30 2377 H 231.39 -2.99583 4.63631 0
M  V30 2378 H 233.866 -3.1525 2.71582 0
M  V30 2379 H 232.742 -4.43487 3.23435 0
M  V30 2380 H 233.003 -4.15126 1.52061 0
M  V30 2381 N 232.062 -1.29571 -0.897171 0
M  V30 2382 C 233.01 -1.14802 -2.02295 0
M  V30 2383 C 234.004 -0.0629637 -1.69283 0
M  V30 2384 O 235.21 -0.222945 -1.78614 0
M  V30 2385 H 231.585 -0.354692 -0.663097 0
M  V30 2386 H 233.556 -2.10108 -2.11889 0
M  V30 2387 C 232.305 -0.843966 -3.37302 0
M  V30 2388 H 231.628 -1.67093 -3.63208 0
M  V30 2389 H 233.068 -0.780672 -4.16751 0
M  V30 2390 C 231.527 0.452843 -3.33843 0
M  V30 2391 O 232.057 1.47813 -3.73516 0
M  V30 2392 N 230.263 0.459601 -2.86943 0
M  V30 2393 H 229.81 -0.375213 -2.54853 0
M  V30 2394 H 229.768 1.32726 -2.85011 0
M  V30 2395 N 233.54 1.10788 -1.12088 0
M  V30 2396 C 234.45 2.20599 -0.798338 0
M  V30 2397 C 235.466 1.72712 0.21135 0
M  V30 2398 O 236.642 2.01348 0.0458477 0
M  V30 2399 C 233.707 3.45771 -0.253674 0
M  V30 2400 C 232.768 4.08411 -1.32283 0
M  V30 2401 C 232.001 5.27608 -0.80406 0
M  V30 2402 O 232.224 5.69241 0.363478 0
M  V30 2403 O 231.158 5.8101 -1.57198 0
M  V30 2404 H 234.984 2.50614 -1.7154 0
M  V30 2405 H 232.569 1.19454 -0.897275 0
M  V30 2406 H 234.451 4.21376 0.0453691 0
M  V30 2407 H 233.126 3.1739 0.636005 0
M  V30 2408 H 232.033 3.34507 -1.67499 0
M  V30 2409 H 233.366 4.40986 -2.18614 0
M  V30 2410 N 235.018 0.912232 1.28515 0
M  V30 2411 C 235.95 0.35676 2.26406 0
M  V30 2412 C 236.963 -0.503933 1.54804 0
M  V30 2413 O 238.152 -0.319059 1.75625 0
M  V30 2414 C 235.252 -0.508825 3.35058 0
M  V30 2415 C 234.425 0.329007 4.36161 0
M  V30 2416 C 233.484 -0.471422 5.24084 0
M  V30 2417 O 232.51 0.115482 5.69083 0
M  V30 2418 N 233.712 -1.77479 5.52704 0
M  V30 2419 H 236.477 1.19818 2.74707 0
M  V30 2420 H 234.038 0.778022 1.4198 0
M  V30 2421 H 236.03 -1.051 3.90815 0
M  V30 2422 H 234.6 -1.25095 2.86478 0
M  V30 2423 H 233.82 1.05256 3.79888 0
M  V30 2424 H 235.108 0.90234 5.00735 0
M  V30 2425 H 234.506 -2.27417 5.17975 0
M  V30 2426 H 233.063 -2.26382 6.11224 0
M  V30 2427 N 236.496 -1.42363 0.676048 0
M  V30 2428 C 237.744 -2.01123 0.198437 0
M  V30 2429 C 238.065 -1.53731 -1.19966 0
M  V30 2430 O 237.335 -0.759518 -1.80577 0
M  V30 2431 H 235.915 -0.743678 0.0703721 0
M  V30 2432 H 238.577 -1.74263 0.872837 0
M  V30 2433 H 237.673 -3.11454 0.200686 0
M  V30 2434 N 237.974 -0.419461 -1.51915 0
M  V30 2435 C 239.199 0.154572 -2.06823 0
M  V30 2436 C 239.624 1.3722 -1.28656 0
M  V30 2437 O 238.982 1.78461 -0.319583 0
M  V30 2438 C 239.03 0.473172 -3.57482 0
M  V30 2439 O 238.134 1.56255 -3.81652 0
M  V30 2440 H 237.475 0.0096924 -0.663929 0
M  V30 2441 H 240.005 -0.595642 -1.95738 0
M  V30 2442 H 240.015 0.728825 -4.01438 0
M  V30 2443 H 238.69 -0.416873 -4.13805 0
M  V30 2444 H 237.267 1.29825 -3.49571 0
M  V30 2445 N 239.452 1.56882 -0.150215 0
M  V30 2446 C 240.382 2.19935 0.784284 0
M  V30 2447 C 241.363 1.14854 1.25469 0
M  V30 2448 O 242.548 1.43209 1.31168 0
M  V30 2449 C 239.678 2.82349 2.02229 0
M  V30 2450 C 238.632 3.93285 1.68853 0
M  V30 2451 C 237.958 4.42649 2.99944 0
M  V30 2452 C 239.258 5.13904 0.932714 0
M  V30 2453 H 240.952 2.9828 0.258781 0
M  V30 2454 H 238.498 1.43473 0.123029 0
M  V30 2455 H 240.451 3.25126 2.68088 0
M  V30 2456 H 239.175 2.0134 2.57157 0
M  V30 2457 H 237.834 3.5113 1.05371 0
M  V30 2458 H 237.482 3.58458 3.52869 0
M  V30 2459 H 237.182 5.17476 2.78374 0
M  V30 2460 H 238.706 4.88099 3.66868 0
M  V30 2461 H 240.12 5.53506 1.49345 0
M  V30 2462 H 238.517 5.94515 0.81684 0
M  V30 2463 H 239.587 4.84842 -0.0749568 0
M  V30 2464 N 240.93 -0.123565 1.57115 0
M  V30 2465 C 242.179 -0.830704 1.83799 0
M  V30 2466 C 242.492 -1.81259 0.735158 0
M  V30 2467 O 243.698 -2.56558 0.888278 0
M  V30 2468 C 242.154 -1.52802 3.25852 0
M  V30 2469 C 241.762 -0.587356 4.44133 0
M  V30 2470 C 243.506 -2.22056 3.61789 0
M  V30 2471 C 241.413 -1.28764 5.77212 0
M  V30 2472 H 240.343 -0.313967 0.685522 0
M  V30 2473 H 242.994 -0.0834359 1.8331 0
M  V30 2474 H 241.376 -2.32175 3.20797 0
M  V30 2475 H 242.55 0.172829 4.60476 0
M  V30 2476 H 240.865 -0.00201892 4.164 0
M  V30 2477 H 243.462 -2.75131 4.58483 0
M  V30 2478 H 243.805 -2.99644 2.88997 0
M  V30 2479 H 244.338 -1.49576 3.68608 0
M  V30 2480 H 241.077 -0.55314 6.53162 0
M  V30 2481 H 240.597 -2.01995 5.64764 0
M  V30 2482 H 242.276 -1.8221 6.20813 0
M  V30 2483 N 242.408 -1.52605 -0.393616 0
M  V30 2484 C 243.355 -1.77055 -1.48054 0
M  V30 2485 C 244.325 -0.61358 -1.54352 0
M  V30 2486 O 245.51 -0.852806 -1.70681 0
M  V30 2487 C 242.65 -1.94108 -2.85335 0
M  V30 2488 C 241.763 -3.21792 -2.88226 0
M  V30 2489 C 240.898 -3.29188 -4.16904 0
M  V30 2490 C 239.937 -4.51013 -4.13828 0
M  V30 2491 N 239.074 -4.55716 -5.34105 0
M  V30 2492 H 243.914 -2.69815 -1.26506 0
M  V30 2493 H 241.451 -1.33683 -0.61379 0
M  V30 2494 H 243.409 -2.01979 -3.65049 0
M  V30 2495 H 242.039 -1.04713 -3.05344 0
M  V30 2496 H 241.091 -3.23015 -2.00911 0
M  V30 2497 H 242.403 -4.11557 -2.8182 0
M  V30 2498 H 241.557 -3.36216 -5.05018 0
M  V30 2499 H 240.296 -2.37389 -4.26026 0
M  V30 2500 H 239.301 -4.44115 -3.24102 0
M  V30 2501 H 240.526 -5.44123 -4.06333 0
M  V30 2502 H 238.472 -3.66807 -5.43865 0
M  V30 2503 H 238.389 -5.39346 -5.29756 0
M  V30 2504 H 239.657 -4.66993 -6.2413 0
M  V30 2505 N 243.887 0.651787 -1.4349 0
M  V30 2506 C 244.817 1.77621 -1.51569 0
M  V30 2507 C 245.798 1.66022 -0.370253 0
M  V30 2508 O 246.983 1.85095 -0.587658 0
M  V30 2509 C 244.113 3.16056 -1.43966 0
M  V30 2510 C 243.067 3.4242 -2.56774 0
M  V30 2511 C 242.393 4.8067 -2.34223 0
M  V30 2512 C 243.693 3.37023 -3.99015 0
M  V30 2513 H 245.387 1.71117 -2.45681 0
M  V30 2514 H 242.933 0.821825 -1.18246 0
M  V30 2515 H 244.886 3.94472 -1.48221 0
M  V30 2516 H 243.61 3.23293 -0.463586 0
M  V30 2517 H 242.269 2.66375 -2.51873 0
M  V30 2518 H 241.917 4.84585 -1.34856 0
M  V30 2519 H 241.617 4.9927 -3.09844 0
M  V30 2520 H 243.141 5.61342 -2.40265 0
M  V30 2521 H 244.555 4.05374 -4.05395 0
M  V30 2522 H 242.952 3.67159 -4.74673 0
M  V30 2523 H 244.022 2.3518 -4.2405 0
M  V30 2524 N 245.365 1.30045 0.890287 0
M  V30 2525 C 246.593 1.21472 1.67487 0
M  V30 2526 C 247.008 -0.223241 1.87476 0
M  V30 2527 O 246.365 -1.14828 1.41847 0
M  V30 2528 C 246.416 1.93394 3.05419 0
M  V30 2529 O 246.137 3.31576 2.86337 0
M  V30 2530 C 247.638 1.91414 3.99844 0
M  V30 2531 H 244.858 0.420604 0.522813 0
M  V30 2532 H 247.402 1.7158 1.11268 0
M  V30 2533 H 245.557 1.47099 3.58386 0
M  V30 2534 H 245.971 3.67929 3.73802 0
M  V30 2535 H 247.445 2.46285 4.94012 0
M  V30 2536 H 247.922 0.891833 4.3005 0
M  V30 2537 H 248.528 2.37496 3.52811 0
M  V30 2538 N 246.843 -1.10192 1.12674 0
M  V30 2539 C 248.071 -1.85983 0.906527 0
M  V30 2540 C 248.486 -1.80783 -0.544333 0
M  V30 2541 O 247.843 -1.19834 -1.37645 0
M  V30 2542 C 247.894 -3.34281 1.37618 0
M  V30 2543 O 247.615 -3.39401 2.77017 0
M  V30 2544 C 249.116 -4.26938 1.19325 0
M  V30 2545 H 246.336 -0.587716 0.323775 0
M  V30 2546 H 248.88 -1.39284 1.49734 0
M  V30 2547 H 247.035 -3.78436 0.828539 0
M  V30 2548 H 247.449 -4.31838 2.97684 0
M  V30 2549 H 248.923 -5.29181 1.57071 0
M  V30 2550 H 249.4 -4.38995 0.134097 0
M  V30 2551 H 250.006 -3.8859 1.72852 0
M  V30 2552 N 248.321 -0.919034 -1.28029 0
M  V30 2553 C 249.268 -0.410005 -2.27129 0
M  V30 2554 C 250.238 0.518405 -1.57803 0
M  V30 2555 O 251.423 0.439451 -1.8567 0
M  V30 2556 C 248.563 0.339054 -3.4343 0
M  V30 2557 C 247.676 -0.622468 -4.27492 0
M  V30 2558 C 246.811 0.145567 -5.31001 0
M  V30 2559 C 245.85 -0.809226 -6.06727 0
M  V30 2560 N 244.987 -0.0743728 -7.02061 0
M  V30 2561 H 249.827 -1.26011 -2.70047 0
M  V30 2562 H 247.364 -0.632663 -1.328 0
M  V30 2563 H 249.322 0.789586 -4.0966 0
M  V30 2564 H 247.952 1.15346 -3.01488 0
M  V30 2565 H 247.004 -1.19153 -3.61257 0
M  V30 2566 H 248.316 -1.35252 -4.80113 0
M  V30 2567 H 247.47 0.656417 -6.03139 0
M  V30 2568 H 246.209 0.908643 -4.79161 0
M  V30 2569 H 245.214 -1.3314 -5.33436 0
M  V30 2570 H 246.439 -1.57194 -6.60656 0
M  V30 2571 H 244.385 0.670616 -6.52563 0
M  V30 2572 H 244.302 -0.744157 -7.52329 0
M  V30 2573 H 245.57 0.416109 -7.78389 0
M  V30 2574 N 249.799 1.42003 -0.683588 0
M  V30 2575 C 250.709 2.34597 -0.0109075 0
M  V30 2576 C 251.725 1.55576 0.779245 0
M  V30 2577 O 252.901 1.88107 0.719555 0
M  V30 2578 C 249.966 3.34199 0.922588 0
M  V30 2579 C 249.027 4.29115 0.125984 0
M  V30 2580 C 248.26 5.23959 1.01502 0
M  V30 2581 O 248.483 5.23952 2.25456 0
M  V30 2582 O 247.417 6.00053 0.47111 0
M  V30 2583 H 251.243 2.93675 -0.773853 0
M  V30 2584 H 248.828 1.42654 -0.443861 0
M  V30 2585 H 250.71 3.95365 1.45823 0
M  V30 2586 H 249.385 2.77582 1.66523 0
M  V30 2587 H 248.292 3.71335 -0.453969 0
M  V30 2588 H 249.625 4.88798 -0.577736 0
M  V30 2589 N 251.277 0.427512 1.51691 0
M  V30 2590 C 252.207 -0.3796 2.30394 0
M  V30 2591 C 253.188 -1.02982 1.35384 0
M  V30 2592 O 254.373 -1.03534 1.643 0
M  V30 2593 C 251.503 -1.48649 3.1388 0
M  V30 2594 C 250.457 -0.960294 4.17088 0
M  V30 2595 C 249.783 -2.16219 4.89033 0
M  V30 2596 C 251.083 -0.00153679 5.223 0
M  V30 2597 H 252.777 0.277164 2.98114 0
M  V30 2598 H 250.323 0.134739 1.43368 0
M  V30 2599 H 252.276 -2.05826 3.67714 0
M  V30 2600 H 251 -2.1714 2.43962 0
M  V30 2601 H 249.659 -0.410806 3.64291 0
M  V30 2602 H 249.307 -2.83307 4.15628 0
M  V30 2603 H 249.007 -1.81654 5.58816 0
M  V30 2604 H 250.531 -2.73968 5.45687 0
M  V30 2605 H 251.945 -0.482687 5.71264 0
M  V30 2606 H 250.342 0.256199 5.99553 0
M  V30 2607 H 251.412 0.938174 4.75738 0
M  V30 2608 N 252.755 -1.56801 0.158532 0
M  V30 2609 C 253.665 -2.20916 -0.789518 0
M  V30 2610 C 254.681 -1.1969 -1.26294 0
M  V30 2611 O 255.857 -1.52308 -1.31773 0
M  V30 2612 C 252.922 -2.82727 -2.00665 0
M  V30 2613 C 251.983 -3.99114 -1.58134 0
M  V30 2614 C 251.216 -4.57968 -2.74045 0
M  V30 2615 O 251.439 -4.15704 -3.90572 0
M  V30 2616 O 250.373 -5.48047 -2.48855 0
M  V30 2617 H 254.199 -3.02464 -0.273681 0
M  V30 2618 H 251.784 -1.4924 -0.0690548 0
M  V30 2619 H 253.666 -3.21968 -2.71872 0
M  V30 2620 H 252.341 -2.04184 -2.51179 0
M  V30 2621 H 251.248 -3.64567 -0.839155 0
M  V30 2622 H 252.581 -4.79212 -1.12325 0
M  V30 2623 N 254.233 0.115231 -1.57178 0
M  V30 2624 C 255.163 1.1423 -2.03651 0
M  V30 2625 C 256.144 1.42967 -0.921655 0
M  V30 2626 O 257.329 1.53343 -1.19162 0
M  V30 2627 C 254.459 2.4675 -2.44401 0
M  V30 2628 C 253.413 2.32467 -3.59365 0
M  V30 2629 C 252.739 3.69984 -3.86026 0
M  V30 2630 C 254.039 1.78203 -4.90959 0
M  V30 2631 H 255.733 0.755749 -2.89705 0
M  V30 2632 H 253.279 0.362093 -1.39373 0
M  V30 2633 H 255.232 3.18854 -2.75517 0
M  V30 2634 H 253.956 2.87302 -1.55322 0
M  V30 2635 H 252.615 1.62811 -3.28463 0
M  V30 2636 H 252.263 4.08028 -2.94147 0
M  V30 2637 H 251.963 3.61279 -4.63412 0
M  V30 2638 H 253.487 4.43587 -4.19599 0
M  V30 2639 H 254.901 2.40128 -5.20587 0
M  V30 2640 H 253.298 1.8031 -5.72371 0
M  V30 2641 H 254.368 0.739876 -4.79222 0
M  V30 2642 N 255.711 1.52812 0.385517 0
M  V30 2643 C 256.988 1.5861 1.14465 0
M  V30 2644 C 257.368 0.381402 2.07626 0
M  V30 2645 O 256.716 -0.629999 2.19643 0
M  V30 2646 C 256.926 2.92664 1.90128 0
M  V30 2647 C 258.274 3.46526 2.45367 0
M  V30 2648 O 259.298 2.94562 2.0028 0
M  V30 2649 O 258.157 4.37323 3.27736 0
M  V30 2650 H 255.251 0.639855 0.523941 0
M  V30 2651 H 257.797 1.65149 0.390389 0
M  V30 2652 H 256.569 3.71788 1.22022 0
M  V30 2653 H 256.192 2.89527 2.72507 0
M  V30 2654 N 257.189 -0.644168 1.43834 0
M  V30 2655 C 258.419 -1.42939 1.49171 0
M  V30 2656 C 258.827 -1.88874 0.111048 0
M  V30 2657 O 258.17 -1.60656 -0.8908 0
M  V30 2658 C 258.232 -2.69151 2.38324 0
M  V30 2659 C 257.896 -2.45097 3.85715 0
M  V30 2660 C 258.893 -2.07747 4.76589 0
M  V30 2661 C 256.578 -2.59141 4.30292 0
M  V30 2662 C 258.572 -1.8475 6.10038 0
M  V30 2663 C 256.259 -2.35759 5.63792 0
M  V30 2664 C 257.257 -1.9862 6.53482 0
M  V30 2665 O 256.945 -1.75489 7.84512 0
M  V30 2666 H 256.677 -0.445271 0.508635 0
M  V30 2667 H 259.231 -0.79621 1.8934 0
M  V30 2668 H 257.461 -3.3506 1.93058 0
M  V30 2669 H 259.15 -3.31123 2.3476 0
M  V30 2670 H 259.916 -1.96465 4.43426 0
M  V30 2671 H 255.795 -2.87022 3.60749 0
M  V30 2672 H 259.339 -1.55686 6.80006 0
M  V30 2673 H 255.236 -2.46646 5.9652 0
M  V30 2674 H 256.004 -1.89841 7.9618 0
M  V30 2675 N 258.668 -1.30515 -0.883378 0
M  V30 2676 C 260.084 -1.08881 -1.16692 0
M  V30 2677 C 260.284 0.149409 -2.00945 0
M  V30 2678 O 259.34 0.84257 -2.38027 0
M  V30 2679 C 260.653 -2.35319 -1.87204 0
M  V30 2680 C 262.201 -2.40799 -1.99962 0
M  V30 2681 C 262.676 -3.67083 -2.73887 0
M  V30 2682 N 264.167 -3.679 -2.81432 0
M  V30 2683 C 264.902 -4.62303 -3.3921 0
M  V30 2684 N 264.398 -5.67052 -3.98025 0
M  V30 2685 N 266.191 -4.49845 -3.3704 0
M  V30 2686 H 258.342 -2.09951 -0.321633 0
M  V30 2687 H 260.605 -0.92556 -0.205043 0
M  V30 2688 H 260.311 -3.25689 -1.3274 0
M  V30 2689 H 260.185 -2.44089 -2.87577 0
M  V30 2690 H 262.572 -1.50907 -2.53597 0
M  V30 2691 H 262.653 -2.36003 -0.98673 0
M  V30 2692 H 262.297 -4.57334 -2.20925 0
M  V30 2693 H 262.227 -3.69141 -3.75556 0
M  V30 2694 H 264.718 -2.92171 -2.39676 0
M  V30 2695 H 265.031 -6.35184 -4.40183 0
M  V30 2696 H 263.376 -5.70842 -3.96439 0
M  V30 2697 H 266.567 -3.67194 -2.90321 0
M  V30 2698 H 266.74 -5.23597 -3.81772 0
M  V30 2699 N 260.146 1.09593 -1.13257 0
M  V30 2700 C 261.094 2.18271 -0.803783 0
M  V30 2701 C 262.088 1.68054 0.213148 0
M  V30 2702 O 263.294 1.79862 0.0704699 0
M  V30 2703 H 259.669 0.711949 -0.242143 0
M  V30 2704 H 261.64 2.43235 -1.72856 0
M  V30 2705 C 260.389 3.46536 -0.28424 0
M  V30 2706 H 259.712 3.85545 -1.05807 0
M  V30 2707 H 261.152 4.23899 -0.0925945 0
M  V30 2708 C 259.611 3.22036 0.989684 0
M  V30 2709 O 260.141 3.44509 2.06584 0
M  V30 2710 N 258.347 2.7565 0.920086 0
M  V30 2711 H 257.894 2.57562 0.0442019 0
M  V30 2712 H 257.852 2.59635 1.77306 0
M  V30 2713 N 261.624 0.925811 1.2754 0
M  V30 2714 C 262.849 0.580924 1.99098 0
M  V30 2715 C 263.274 -0.833555 1.68622 0
M  V30 2716 O 262.632 -1.55903 0.925422 0
M  V30 2717 C 262.68 0.811186 3.51358 0
M  V30 2718 O 261.784 -0.124129 4.12213 0
M  V30 2719 H 261.125 0.223873 0.625122 0
M  V30 2720 H 263.655 1.24455 1.62395 0
M  V30 2721 H 263.665 0.72601 4.01489 0
M  V30 2722 H 262.34 1.84227 3.72872 0
M  V30 2723 H 260.917 0.0108006 3.72898 0
M  V30 2724 N 263.102 -1.41638 0.69111 0
M  V30 2725 C 264.351 -2.00526 0.217318 0
M  V30 2726 C 264.664 -1.55353 -1.18848 0
M  V30 2727 O 265.87 -2.06769 -1.75951 0
M  V30 2728 C 264.326 -3.58313 0.337639 0
M  V30 2729 C 263.934 -4.12469 1.74852 0
M  V30 2730 C 265.678 -4.24431 -0.0766066 0
M  V30 2731 C 263.585 -5.62675 1.82074 0
M  V30 2732 H 262.515 -0.750008 0.0774893 0
M  V30 2733 H 265.166 -1.6217 0.858661 0
M  V30 2734 H 263.548 -3.9425 -0.371879 0
M  V30 2735 H 264.722 -3.8796 2.48644 0
M  V30 2736 H 263.037 -3.58861 2.11205 0
M  V30 2737 H 265.634 -5.34683 -0.0430284 0
M  V30 2738 H 265.977 -4.01101 -1.1146 0
M  V30 2739 H 266.51 -3.93512 0.582476 0
M  V30 2740 H 263.249 -5.90826 2.83911 0
M  V30 2741 H 262.769 -5.89124 1.12661 0
M  V30 2742 H 264.448 -6.27371 1.58159 0
M  V30 2743 N 264.58 -0.43555 -1.51462 0
M  V30 2744 C 265.829 0.133007 -2.01261 0
M  V30 2745 C 266.142 1.43942 -1.32439 0
M  V30 2746 O 267.348 2.09081 -1.73198 0
M  V30 2747 C 265.804 0.287581 -3.58749 0
M  V30 2748 C 265.412 -1.00829 -4.36506 0
M  V30 2749 C 267.156 0.810004 -4.167 0
M  V30 2750 C 265.063 -0.819454 -5.85695 0
M  V30 2751 H 263.993 0.0534822 -0.752101 0
M  V30 2752 H 266.644 -0.565038 -1.74584 0
M  V30 2753 H 265.026 1.04859 -3.81865 0
M  V30 2754 H 266.2 -1.77749 -4.25138 0
M  V30 2755 H 264.515 -1.45911 -3.89999 0
M  V30 2756 H 267.112 0.967743 -5.2587 0
M  V30 2757 H 267.455 1.79196 -3.75758 0
M  V30 2758 H 267.988 0.107357 -3.97655 0
M  V30 2759 H 264.727 -1.77374 -6.31046 0
M  V30 2760 H 264.247 -0.0900208 -5.99732 0
M  V30 2761 H 265.926 -0.471949 -6.45276 0
M  V30 2762 N 266.058 1.56714 -0.166846 0
M  V30 2763 C 266.99 2.14914 0.796537 0
M  V30 2764 C 268.003 1.10357 1.19688 0
M  V30 2765 O 269.192 1.37561 1.13751 0
M  V30 2766 C 266.292 2.67326 2.08303 0
M  V30 2767 C 265.465 3.96493 1.84696 0
M  V30 2768 C 264.524 4.34014 2.97521 0
M  V30 2769 O 263.55 5.01973 2.6835 0
M  V30 2770 N 264.752 3.95208 4.25196 0
M  V30 2771 H 267.517 2.98205 0.299006 0
M  V30 2772 H 265.078 1.61892 0.0160839 0
M  V30 2773 H 267.07 2.89428 2.82867 0
M  V30 2774 H 265.64 1.88649 2.4926 0
M  V30 2775 H 264.86 3.82814 0.940602 0
M  V30 2776 H 266.148 4.8086 1.66285 0
M  V30 2777 H 265.546 3.40487 4.51758 0
M  V30 2778 H 264.103 4.2232 4.96477 0
M  V30 2779 N 267.536 -0.106894 1.57237 0
M  V30 2780 C 268.483 -1.13049 2.01217 0
M  V30 2781 C 269.453 -1.40471 0.886403 0
M  V30 2782 O 270.638 -1.52133 1.15153 0
M  V30 2783 C 267.778 -2.4487 2.43172 0
M  V30 2784 C 266.891 -2.24281 3.69218 0
M  V30 2785 C 266.026 -3.49417 4.00101 0
M  V30 2786 C 265.065 -3.24038 5.19294 0
M  V30 2787 N 264.202 -4.41409 5.45988 0
M  V30 2788 H 269.042 -0.748456 2.88448 0
M  V30 2789 H 266.579 -0.358054 1.42676 0
M  V30 2790 H 268.537 -3.21786 2.65537 0
M  V30 2791 H 267.167 -2.80944 1.58967 0
M  V30 2792 H 266.219 -1.38224 3.54398 0
M  V30 2793 H 267.531 -2.01512 4.56283 0
M  V30 2794 H 266.685 -4.34746 4.2318 0
M  V30 2795 H 265.424 -3.75229 3.11535 0
M  V30 2796 H 264.429 -2.37102 4.96047 0
M  V30 2797 H 265.654 -2.99584 6.09447 0
M  V30 2798 H 263.6 -4.67319 4.60379 0
M  V30 2799 H 263.517 -4.21788 6.274 0
M  V30 2800 H 264.785 -5.27836 5.73593 0
M  V30 2801 N 269.014 -1.53014 -0.377408 0
M  V30 2802 C 269.924 -1.81557 -1.48574 0
M  V30 2803 C 270.94 -0.703102 -1.59162 0
M  V30 2804 O 272.116 -0.99192 -1.75279 0
M  V30 2805 C 269.181 -1.9889 -2.83978 0
M  V30 2806 C 268.242 -3.22801 -2.83016 0
M  V30 2807 C 267.475 -3.39298 -4.11962 0
M  V30 2808 O 267.698 -2.60345 -5.0752 0
M  V30 2809 O 266.632 -4.32604 -4.18494 0
M  V30 2810 H 270.458 -2.75695 -1.27382 0
M  V30 2811 H 268.043 -1.38248 -0.566373 0
M  V30 2812 H 269.925 -2.11931 -3.6423 0
M  V30 2813 H 268.6 -1.07942 -3.05172 0
M  V30 2814 H 267.507 -3.15193 -2.01505 0
M  V30 2815 H 268.84 -4.13632 -2.66775 0
M  V30 2816 N 270.492 0.636531 -1.44174 0
M  V30 2817 C 271.442 1.74233 -1.47061 0
M  V30 2818 C 272.426 1.57331 -0.337034 0
M  V30 2819 O 273.618 1.67159 -0.581973 0
M  V30 2820 C 270.747 3.12897 -1.41246 0
M  V30 2821 C 269.833 3.35288 -2.59698 0
M  V30 2822 N 270.224 3.2807 -3.84972 0
M  V30 2823 C 268.522 3.66065 -2.54778 0
M  V30 2824 C 269.223 3.51001 -4.63867 0
M  V30 2825 N 268.199 3.73616 -3.94857 0
M  V30 2826 H 272.001 1.67103 -2.41773 0
M  V30 2827 H 269.515 0.838806 -1.3906 0
M  V30 2828 H 271.512 3.92189 -1.41398 0
M  V30 2829 H 270.172 3.21197 -0.47569 0
M  V30 2830 H 271.183 3.07109 -4.17019 0
M  V30 2831 H 267.86 3.81379 -1.6987 0
M  V30 2832 H 269.25 3.51059 -5.72894 0
M  V30 2833 N 271.97 1.30982 0.876444 0
M  V30 2834 C 272.9 1.20668 1.99903 0
M  V30 2835 C 273.881 0.095354 1.69833 0
M  V30 2836 O 275.066 0.27885 1.92188 0
M  V30 2837 C 272.196 0.90655 3.3526 0
M  V30 2838 C 271.15 1.97675 3.79617 0
M  V30 2839 C 270.476 1.52943 5.1236 0
M  V30 2840 C 271.776 3.389 3.97422 0
M  V30 2841 H 273.47 2.14586 2.0879 0
M  V30 2842 H 271.016 1.03308 1.00317 0
M  V30 2843 H 272.969 0.821025 4.13324 0
M  V30 2844 H 271.693 -0.0682969 3.26529 0
M  V30 2845 H 270.352 2.05205 3.03787 0
M  V30 2846 H 270 0.54262 5.00065 0
M  V30 2847 H 269.7 2.24532 5.43009 0
M  V30 2848 H 271.224 1.45786 5.92941 0
M  V30 2849 H 272.638 3.34081 4.659 0
M  V30 2850 H 271.035 4.0865 4.3946 0
M  V30 2851 H 272.105 3.80163 3.01006 0
M  V30 2852 N 273.449 -1.08991 1.13837 0
M  V30 2853 C 274.695 -1.81526 0.90422 0
M  V30 2854 C 275.028 -1.85706 -0.568066 0
M  V30 2855 O 274.303 -1.32855 -1.42056 0
M  V30 2856 C 274.586 -3.27447 1.49835 0
M  V30 2857 C 274.439 -3.31512 3.04006 0
M  V30 2858 C 275.758 -4.24256 1.17025 0
M  V30 2859 H 272.877 -0.659029 0.329923 0
M  V30 2860 H 275.519 -1.27644 1.40737 0
M  V30 2861 H 273.669 -3.73462 1.07044 0
M  V30 2862 H 275.341 -2.93867 3.55584 0
M  V30 2863 H 273.584 -2.70963 3.38765 0
M  V30 2864 H 274.255 -4.34329 3.40679 0
M  V30 2865 H 276.731 -3.86549 1.54009 0
M  V30 2866 H 275.607 -5.24684 1.61237 0
M  V30 2867 H 275.868 -4.42019 0.0846274 0
M  V30 2868 N 274.927 -0.932562 -1.27047 0
M  V30 2869 C 276.173 -0.576412 -1.94436 0
M  V30 2870 C 276.506 0.880891 -1.73072 0
M  V30 2871 O 275.781 1.62905 -1.06264 0
M  V30 2872 C 276.064 -0.909031 -3.48437 0
M  V30 2873 C 275.917 -2.42044 -3.79123 0
M  V30 2874 C 277.236 -0.418341 -4.38107 0
M  V30 2875 H 274.355 -0.210888 -0.706184 0
M  V30 2876 H 276.997 -1.16522 -1.50075 0
M  V30 2877 H 275.147 -0.407947 -3.86352 0
M  V30 2878 H 276.819 -2.99359 -3.50973 0
M  V30 2879 H 275.062 -2.86758 -3.25503 0
M  V30 2880 H 275.733 -2.6037 -4.86736 0
M  V30 2881 H 278.209 -0.847856 -4.0737 0
M  V30 2882 H 277.085 -0.679981 -5.44672 0
M  V30 2883 H 277.346 0.681642 -4.36814 0
M  V30 2884 N 276.405 1.4127 -0.698611 0
M  V30 2885 C 277.335 2.33447 -0.049629 0
M  V30 2886 C 278.316 1.51982 0.763898 0
M  V30 2887 O 279.501 1.80509 0.716257 0
M  V30 2888 C 276.631 3.35828 0.885267 0
M  V30 2889 C 275.585 4.27627 0.178613 0
M  V30 2890 C 274.911 5.20406 1.22807 0
M  V30 2891 C 276.211 5.13459 -0.956933 0
M  V30 2892 H 277.905 2.87966 -0.81951 0
M  V30 2893 H 275.451 1.38461 -0.395538 0
M  V30 2894 H 277.404 3.9924 1.34854 0
M  V30 2895 H 276.128 2.79666 1.68685 0
M  V30 2896 H 274.787 3.65643 -0.26466 0
M  V30 2897 H 274.435 4.60558 2.02226 0
M  V30 2898 H 274.135 5.82661 0.760239 0
M  V30 2899 H 275.659 5.86695 1.69179 0
M  V30 2900 H 277.073 5.70421 -0.573805 0
M  V30 2901 H 275.47 5.8467 -1.35205 0
M  V30 2902 H 276.54 4.50443 -1.79524 0
M  V30 2903 N 277.883 0.443576 1.51229 0
M  V30 2904 C 278.793 -0.370721 2.31652 0
M  V30 2905 C 279.809 -1.02186 1.40833 0
M  V30 2906 O 280.985 -1.01586 1.73903 0
M  V30 2907 C 278.05 -1.45376 3.14749 0
M  V30 2908 C 277.111 -0.822099 4.21355 0
M  V30 2909 C 276.344 -1.85353 5.0048 0
M  V30 2910 O 276.567 -3.07656 4.80316 0
M  V30 2911 O 275.501 -1.4406 5.84406 0
M  V30 2912 H 279.327 0.286002 3.0235 0
M  V30 2913 H 276.912 0.20598 1.47973 0
M  V30 2914 H 278.794 -2.08173 3.66391 0
M  V30 2915 H 277.469 -2.09445 2.46809 0
M  V30 2916 H 276.376 -0.155909 3.73775 0
M  V30 2917 H 277.709 -0.224797 4.91686 0
M  V30 2918 N 279.361 -1.56624 0.175154 0
M  V30 2919 C 280.324 -2.16934 -0.739738 0
M  V30 2920 C 281.324 -1.11842 -1.15533 0
M  V30 2921 O 282.514 -1.37335 -1.07167 0
M  V30 2922 C 279.646 -2.75531 -2.00738 0
M  V30 2923 H 280.839 -2.99131 -0.214639 0
M  V30 2924 H 278.392 -1.56123 -0.0744197 0
M  V30 2925 H 279.127 -1.97078 -2.57548 0
M  V30 2926 H 278.912 -3.52444 -1.71831 0
M  V30 2927 H 280.402 -3.21904 -2.66021 0
M  V30 2928 N 280.839 0.0985539 -1.57292 0
M  V30 2929 C 281.802 1.10402 -2.00858 0
M  V30 2930 C 282.802 1.33146 -0.901593 0
M  V30 2931 O 283.992 1.29318 -1.16716 0
M  V30 2932 C 281.124 2.45394 -2.36632 0
M  V30 2933 H 282.317 0.729099 -2.90902 0
M  V30 2934 H 279.87 0.343495 -1.52479 0
M  V30 2935 H 280.605 2.87769 -1.49531 0
M  V30 2936 H 280.39 2.30235 -3.17387 0
M  V30 2937 H 281.88 3.17718 -2.71007 0
M  V30 2938 N 282.317 1.53212 0.369288 0
M  V30 2939 C 283.564 1.69215 1.11232 0
M  V30 2940 C 283.892 0.442048 1.8941 0
M  V30 2941 O 283.147 -0.575944 1.87033 0
M  V30 2942 C 283.446 2.89101 2.10132 0
M  V30 2943 C 283.112 4.25758 1.48463 0
M  V30 2944 C 281.774 4.6292 1.31372 0
M  V30 2945 C 284.126 5.10757 1.03811 0
M  V30 2946 C 281.454 5.82722 0.68207 0
M  V30 2947 C 283.806 6.31201 0.420487 0
M  V30 2948 C 282.47 6.67079 0.237038 0
M  V30 2949 H 281.74 0.619201 0.407027 0
M  V30 2950 H 284.387 1.87391 0.394552 0
M  V30 2951 H 282.692 2.65421 2.88199 0
M  V30 2952 H 284.389 2.98676 2.6757 0
M  V30 2953 H 280.979 3.96494 1.62758 0
M  V30 2954 H 285.163 4.82599 1.1581 0
M  V30 2955 H 280.419 6.09113 0.528316 0
M  V30 2956 H 284.593 6.96368 0.0662874 0
M  V30 2957 H 282.22 7.59774 -0.254477 0
M  V30 2958 N 283.795 -0.628877 1.44509 0
M  V30 2959 C 285.023 -1.41554 1.50897 0
M  V30 2960 C 285.438 -1.8832 0.134564 0
M  V30 2961 O 284.795 -1.60969 -0.859965 0
M  V30 2962 C 284.846 -2.63435 2.47556 0
M  V30 2963 O 284.567 -2.18619 3.79654 0
M  V30 2964 C 286.068 -3.56537 2.63431 0
M  V30 2965 H 283.288 -0.434044 0.511709 0
M  V30 2966 H 285.832 -0.768895 1.89495 0
M  V30 2967 H 283.987 -3.24187 2.12089 0
M  V30 2968 H 284.401 -2.97652 4.31861 0
M  V30 2969 H 285.875 -4.38657 3.35088 0
M  V30 2970 H 286.352 -4.05493 1.68738 0
M  V30 2971 H 286.958 -3.01653 2.9981 0
M  V30 2972 N 285.273 -1.31445 -0.869486 0
M  V30 2973 C 286.203 -1.21727 -1.99261 0
M  V30 2974 C 287.184 -0.104359 -1.6978 0
M  V30 2975 O 288.369 -0.289038 -1.92037 0
M  V30 2976 C 285.499 -0.924317 -3.34774 0
M  V30 2977 C 284.453 -1.99685 -3.78563 0
M  V30 2978 C 283.779 -1.55658 -5.11541 0
M  V30 2979 C 285.079 -3.41003 -3.95619 0
M  V30 2980 H 286.773 -2.1569 -2.07649 0
M  V30 2981 H 284.319 -1.03839 -0.997675 0
M  V30 2982 H 286.272 -0.842934 -4.12883 0
M  V30 2983 H 284.996 0.0509793 -3.2656 0
M  V30 2984 H 283.655 -2.06813 -3.02694 0
M  V30 2985 H 283.303 -0.569132 -4.9977 0
M  V30 2986 H 283.003 -2.27409 -5.41811 0
M  V30 2987 H 284.527 -1.48928 -5.92159 0
M  V30 2988 H 285.941 -3.36547 -4.64122 0
M  V30 2989 H 284.338 -4.10975 -4.37286 0
M  V30 2990 H 285.408 -3.81754 -2.98985 0
M  V30 2991 N 286.751 1.08385 -1.14413 0
M  V30 2992 C 287.714 2.13486 -0.834048 0
M  V30 2993 C 288.714 1.59988 0.161418 0
M  V30 2994 O 289.904 1.74071 -0.0669575 0
M  V30 2995 C 287.036 3.4003 -0.243354 0
M  V30 2996 H 288.229 2.42425 -1.7655 0
M  V30 2997 H 285.782 1.24101 -0.950189 0
M  V30 2998 H 286.517 3.16726 0.696807 0
M  V30 2999 H 286.302 3.80157 -0.960367 0
M  V30 3000 H 287.792 4.17577 -0.0436242 0
M  V30 3001 N 288.23 0.939286 1.26551 0
M  V30 3002 C 289.641 0.628782 1.75793 0
M  V30 3003 C 289.992 -0.856046 1.7654 0
M  V30 3004 O 289.117 -1.66994 1.3763 0
M  V30 3005 C 289.712 1.13465 3.19235 0
M  V30 3006 C 288.271 0.874601 3.66098 0
M  V30 3007 C 287.418 1.28667 2.45642 0
M  V30 3008 H 290.369 1.1178 1.12654 0
M  V30 3009 H 290.39 0.487609 3.77363 0
M  V30 3010 H 289.902 2.21535 3.1866 0
M  V30 3011 H 288.003 -0.191793 3.72106 0
M  V30 3012 H 288.116 1.50028 4.55004 0
M  V30 3013 H 286.48 0.705109 2.44745 0
M  V30 3014 H 287.263 2.37625 2.47769 0
M  V30 3015 N 289.708 -1.40897 0.706093 0
M  V30 3016 C 290.956 -2.00657 0.241054 0
M  V30 3017 C 291.277 -1.56241 -1.16678 0
M  V30 3018 O 290.547 -0.79765 -1.78926 0
M  V30 3019 H 289.127 -0.742018 0.0861308 0
M  V30 3020 H 291.789 -1.72372 0.909604 0
M  V30 3021 H 290.885 -3.10958 0.266705 0
M  V30 3022 N 291.186 -0.45159 -1.50991 0
M  V30 3023 C 292.133 0.352625 -2.2809 0
M  V30 3024 C 293.103 1.0044 -1.32291 0
M  V30 3025 O 294.288 1.02058 -1.6121 0
M  V30 3026 C 291.428 1.43983 -3.13629 0
M  V30 3027 C 290.541 0.804772 -4.24438 0
M  V30 3028 C 289.676 1.86822 -4.97263 0
M  V30 3029 C 288.715 1.21236 -5.99973 0
M  V30 3030 N 287.852 2.2178 -6.66152 0
M  V30 3031 H 292.692 -0.311186 -2.96371 0
M  V30 3032 H 290.229 -0.165308 -1.46168 0
M  V30 3033 H 292.187 2.08161 -3.61559 0
M  V30 3034 H 290.817 2.07307 -2.47434 0
M  V30 3035 H 289.869 0.0509129 -3.80366 0
M  V30 3036 H 291.181 0.286076 -4.97979 0
M  V30 3037 H 290.335 2.58628 -5.48813 0
M  V30 3038 H 289.074 2.42068 -4.23385 0
M  V30 3039 H 288.079 0.479828 -5.47702 0
M  V30 3040 H 289.304 0.667051 -6.75816 0
M  V30 3041 H 287.25 2.76079 -5.95077 0
M  V30 3042 H 287.167 1.74841 -7.35504 0
M  V30 3043 H 288.435 2.93026 -7.22327 0
M  V30 3044 N 292.664 1.56529 -0.183458 0
M  V30 3045 C 293.597 2.14417 0.781052 0
M  V30 3046 C 294.575 1.07761 1.21763 0
M  V30 3047 O 295.759 1.35807 1.30724 0
M  V30 3048 C 292.886 2.69361 2.05335 0
M  V30 3049 C 291.932 3.885 1.75982 0
M  V30 3050 S 292.765 5.27568 0.918256 0
M  V30 3051 C 293.921 5.85926 2.20095 0
M  V30 3052 H 294.154 2.95893 0.2889 0
M  V30 3053 H 291.687 1.54368 0.0313844 0
M  V30 3054 H 293.645 3.01662 2.78406 0
M  V30 3055 H 292.306 1.87949 2.51663 0
M  V30 3056 H 291.499 4.25314 2.70415 0
M  V30 3057 H 291.101 3.57149 1.10999 0
M  V30 3058 H 293.393 5.99579 3.15453 0
M  V30 3059 H 294.336 6.82761 1.87731 0
M  V30 3060 H 294.744 5.14438 2.32409 0
M  V30 3061 N 294.142 -0.090211 1.57342 0
M  V30 3062 C 295.37 -0.806224 1.90546 0
M  V30 3063 C 295.785 -1.72041 0.777644 0
M  V30 3064 O 295.142 -1.80778 -0.250103 0
M  V30 3065 C 295.193 -1.61546 3.23396 0
M  V30 3066 O 294.914 -0.738043 4.31839 0
M  V30 3067 C 296.415 -2.4341 3.70495 0
M  V30 3068 H 293.635 -0.230256 0.630257 0
M  V30 3069 H 296.179 -0.0659843 2.04394 0
M  V30 3070 H 294.334 -2.30816 3.11131 0
M  V30 3071 H 294.748 -1.29901 5.08159 0
M  V30 3072 H 296.222 -2.95676 4.66133 0
M  V30 3073 H 296.699 -3.22098 2.98579 0
M  V30 3074 H 297.305 -1.79331 3.85643 0
M  V30 3075 N 295.62 -1.53406 -0.361157 0
M  V30 3076 C 296.53 -1.83122 -1.4664 0
M  V30 3077 C 297.546 -0.719943 -1.58407 0
M  V30 3078 O 298.722 -1.01046 -1.74218 0
M  V30 3079 C 295.787 -2.01891 -2.81853 0
M  V30 3080 C 294.848 -3.25784 -2.79577 0
M  V30 3081 C 294.081 -3.43648 -4.0834 0
M  V30 3082 O 294.304 -2.65714 -5.0473 0
M  V30 3083 O 293.238 -4.37018 -4.13883 0
M  V30 3084 H 297.064 -2.7703 -1.24451 0
M  V30 3085 H 294.649 -1.38841 -0.551678 0
M  V30 3086 H 296.531 -2.15782 -3.61962 0
M  V30 3087 H 295.206 -1.11173 -3.0401 0
M  V30 3088 H 294.113 -3.17312 -1.98151 0
M  V30 3089 H 295.446 -4.16439 -2.62373 0
M  V30 3090 N 297.098 0.621204 -1.44841 0
M  V30 3091 C 298.347 1.37658 -1.47422 0
M  V30 3092 C 298.66 1.95264 -0.114629 0
M  V30 3093 O 299.866 2.71494 -0.0180199 0
M  V30 3094 C 298.322 2.49285 -2.59586 0
M  V30 3095 C 297.93 1.98149 -4.01797 0
M  V30 3096 C 299.674 3.26409 -2.71399 0
M  V30 3097 C 297.581 3.07178 -5.05367 0
M  V30 3098 H 296.511 0.517344 -0.548517 0
M  V30 3099 H 299.162 0.667257 -1.70938 0
M  V30 3100 H 297.544 3.22839 -2.29328 0
M  V30 3101 H 298.718 1.31395 -4.41669 0
M  V30 3102 H 297.033 1.33812 -3.94314 0
M  V30 3103 H 299.63 4.07706 -3.45948 0
M  V30 3104 H 299.973 3.76535 -1.77559 0
M  V30 3105 H 300.506 2.5995 -3.01116 0
M  V30 3106 H 297.245 2.61985 -6.00869 0
M  V30 3107 H 296.765 3.72542 -4.70077 0
M  V30 3108 H 298.444 3.71789 -5.29511 0
M  V30 3109 N 298.576 1.31904 0.862503 0
M  V30 3110 C 299.508 1.16005 1.97675 0
M  V30 3111 C 300.521 0.0971234 1.6251 0
M  V30 3112 O 301.71 0.345337 1.75128 0
M  V30 3113 C 298.81 0.751791 3.30456 0
M  V30 3114 C 297.983 1.90133 3.93914 0
M  V30 3115 C 297.042 1.4779 5.05019 0
M  V30 3116 O 296.068 2.18872 5.25437 0
M  V30 3117 N 297.27 0.369491 5.79323 0
M  V30 3118 H 300.035 2.11982 2.11857 0
M  V30 3119 H 297.596 1.24337 1.03691 0
M  V30 3120 H 299.588 0.451084 4.02178 0
M  V30 3121 H 298.158 -0.116593 3.12382 0
M  V30 3122 H 297.378 2.36896 3.15078 0
M  V30 3123 H 298.666 2.67111 4.33047 0
M  V30 3124 H 298.064 -0.222299 5.65263 0
M  V30 3125 H 296.621 0.128354 6.51674 0
M  V30 3126 N 300.054 -1.07777 1.14986 0
M  V30 3127 C 301.017 -2.13041 0.845358 0
M  V30 3128 C 302.017 -1.60071 -0.152931 0
M  V30 3129 O 303.207 -1.74033 0.0761879 0
M  V30 3130 C 300.339 -3.39896 0.261383 0
M  V30 3131 H 301.532 -2.41485 1.77834 0
M  V30 3132 H 299.085 -1.23595 0.956757 0
M  V30 3133 H 299.82 -3.17091 -0.68 0
M  V30 3134 H 299.605 -3.79642 0.980514 0
M  V30 3135 H 301.095 -4.17548 0.0657687 0
M  V30 3136 N 301.532 -0.945985 -1.26051 0
M  V30 3137 C 302.479 -0.45809 -2.26208 0
M  V30 3138 C 303.449 0.484816 -1.58867 0
M  V30 3139 O 304.634 0.399969 -1.86561 0
M  V30 3140 C 301.774 0.266131 -3.44072 0
M  V30 3141 C 300.887 -0.713005 -4.26075 0
M  V30 3142 C 300.022 0.0329013 -5.3119 0
M  V30 3143 C 299.061 -0.93774 -6.04874 0
M  V30 3144 N 298.198 -0.223274 -7.01745 0
M  V30 3145 H 303.038 -1.3171 -2.67313 0
M  V30 3146 H 300.575 -0.66069 -1.31428 0
M  V30 3147 H 302.533 0.702514 -4.11243 0
M  V30 3148 H 301.163 1.08925 -3.03867 0
M  V30 3149 H 300.215 -1.26789 -3.58648 0
M  V30 3150 H 301.527 -1.45406 -4.77136 0
M  V30 3151 H 300.681 0.528335 -6.04395 0
M  V30 3152 H 299.42 0.806801 -4.8098 0
M  V30 3153 H 298.425 -1.44425 -5.30492 0
M  V30 3154 H 299.65 -1.71172 -6.57173 0
M  V30 3155 H 297.596 0.532046 -6.53839 0
M  V30 3156 H 297.513 -0.90357 -7.50581 0
M  V30 3157 H 298.781 0.250907 -7.79096 0
M  V30 3158 N 303.011 1.40521 -0.713556 0
M  V30 3159 C 303.944 2.28198 -0.00881422 0
M  V30 3160 C 304.922 1.43227 0.769735 0
M  V30 3161 O 306.106 1.72641 0.756799 0
M  V30 3162 C 303.233 3.23758 0.994899 0
M  V30 3163 C 302.279 4.25391 0.3074 0
M  V30 3164 S 303.112 5.26765 -0.963247 0
M  V30 3165 C 304.268 6.25888 0.0384143 0
M  V30 3166 H 304.501 2.87622 -0.752407 0
M  V30 3167 H 302.034 1.45925 -0.504502 0
M  V30 3168 H 303.992 3.79341 1.56879 0
M  V30 3169 H 302.653 2.63396 1.71118 0
M  V30 3170 H 301.846 4.92596 1.0661 0
M  V30 3171 H 301.448 3.73497 -0.193879 0
M  V30 3172 H 303.74 6.71683 0.885912 0
M  V30 3173 H 304.683 7.05552 -0.60019 0
M  V30 3174 H 305.091 5.63072 0.401233 0
M  V30 3175 N 304.489 0.459591 1.5075 0
M  V30 3176 C 305.766 -0.160371 1.94941 0
M  V30 3177 C 306.146 -1.58048 1.39943 0
M  V30 3178 O 305.494 -2.206 0.595629 0
M  V30 3179 C 305.704 -0.115432 3.48809 0
M  V30 3180 C 307.052 -0.310026 4.23467 0
M  V30 3181 O 308.076 -0.192543 3.55679 0
M  V30 3182 O 306.935 -0.546031 5.43765 0
M  V30 3183 H 304.029 -0.117925 0.818549 0
M  V30 3184 H 306.575 0.519169 1.61563 0
M  V30 3185 H 305.347 0.87652 3.81357 0
M  V30 3186 H 304.97 -0.836928 3.88692 0
M  V30 3187 N 305.967 -1.56429 0.191757 0
M  V30 3188 C 307.244 -1.89224 -0.495332 0
M  V30 3189 C 307.624 -1.10478 -1.79883 0
M  V30 3190 O 306.972 -0.204852 -2.2758 0
M  V30 3191 C 307.182 -3.41548 -0.717367 0
M  V30 3192 C 308.53 -4.11711 -1.03823 0
M  V30 3193 O 309.554 -3.4698 -0.805204 0
M  V30 3194 O 308.413 -5.2611 -1.47887 0
M  V30 3195 H 305.507 -0.785788 -0.25781 0
M  V30 3196 H 308.053 -1.68111 0.231721 0
M  V30 3197 H 306.825 -3.90772 0.203287 0
M  V30 3198 H 306.448 -3.68342 -1.497 0
M  V30 3199 N 307.445 0.0818655 -1.57387 0
M  V30 3200 C 308.375 1.09885 -2.06028 0
M  V30 3201 C 309.356 1.4098 -0.951774 0
M  V30 3202 O 310.541 1.50781 -1.22387 0
M  V30 3203 C 307.671 2.4151 -2.4958 0
M  V30 3204 C 306.625 2.24792 -3.64215 0
M  V30 3205 C 305.951 3.61712 -3.93787 0
M  V30 3206 C 307.251 1.67749 -4.94629 0
M  V30 3207 H 308.945 0.694128 -2.91243 0
M  V30 3208 H 306.491 0.332448 -1.4011 0
M  V30 3209 H 308.444 3.12939 -2.82219 0
M  V30 3210 H 307.168 2.83943 -1.61381 0
M  V30 3211 H 305.827 1.55807 -3.31843 0
M  V30 3212 H 305.475 4.01697 -3.02735 0
M  V30 3213 H 305.175 3.51368 -4.70971 0
M  V30 3214 H 306.699 4.34587 -4.28913 0
M  V30 3215 H 308.113 2.29032 -5.25564 0
M  V30 3216 H 306.51 1.68128 -5.76067 0
M  V30 3217 H 307.58 0.638059 -4.80684 0
M  V30 3218 N 308.923 1.53595 0.353017 0
M  V30 3219 C 310.151 1.74311 1.1146 0
M  V30 3220 C 310.566 0.477854 1.82653 0
M  V30 3221 O 309.923 -0.549977 1.74016 0
M  V30 3222 C 309.974 2.91694 2.13534 0
M  V30 3223 O 309.695 4.13325 1.45238 0
M  V30 3224 C 311.196 3.24384 3.02142 0
M  V30 3225 H 308.416 0.582669 0.332773 0
M  V30 3226 H 310.96 2.00386 0.408107 0
M  V30 3227 H 309.115 2.67977 2.79763 0
M  V30 3228 H 309.529 4.79148 2.13349 0
M  V30 3229 H 311.003 4.09893 3.69718 0
M  V30 3230 H 311.48 2.40282 3.67643 0
M  V30 3231 H 312.086 3.50073 2.41514 0
M  V30 3232 N 310.401 -0.613514 1.45168 0
M  V30 3233 C 311.311 -1.75296 1.55912 0
M  V30 3234 C 312.327 -1.68244 0.443856 0
M  V30 3235 O 313.503 -1.88706 0.70371 0
M  V30 3236 C 310.568 -3.1174 1.5172 0
M  V30 3237 C 309.629 -3.30291 2.74238 0
M  V30 3238 C 308.862 -4.60226 2.70236 0
M  V30 3239 O 309.085 -5.42168 1.77229 0
M  V30 3240 O 308.019 -4.81361 3.61352 0
M  V30 3241 H 311.845 -1.69183 2.52212 0
M  V30 3242 H 309.43 -0.776886 1.27612 0
M  V30 3243 H 311.312 -3.93044 1.51968 0
M  V30 3244 H 309.987 -3.18357 0.585697 0
M  V30 3245 H 308.894 -2.48598 2.79553 0
M  V30 3246 H 310.227 -3.28547 3.66494 0
M  V30 3247 N 311.879 -1.3236 -0.855495 0
M  V30 3248 C 313.295 -1.11332 -1.14356 0
M  V30 3249 C 313.495 0.106751 -2.01217 0
M  V30 3250 O 312.551 0.791891 -2.39761 0
M  V30 3251 C 313.864 -2.39237 -1.82171 0
M  V30 3252 C 315.412 -2.44986 -1.9481 0
M  V30 3253 C 315.887 -3.7281 -2.66039 0
M  V30 3254 N 317.378 -3.73787 -2.73565 0
M  V30 3255 C 318.113 -4.69394 -3.29327 0
M  V30 3256 N 317.609 -5.75367 -3.85907 0
M  V30 3257 N 319.402 -4.56893 -3.27423 0
M  V30 3258 H 311.553 -2.10586 -0.277027 0
M  V30 3259 H 313.816 -0.929701 -0.185364 0
M  V30 3260 H 313.522 -3.28431 -1.25802 0
M  V30 3261 H 313.396 -2.50134 -2.82335 0
M  V30 3262 H 315.783 -1.56252 -2.50338 0
M  V30 3263 H 315.864 -2.38043 -0.936448 0
M  V30 3264 H 315.508 -4.61918 -2.11174 0
M  V30 3265 H 315.438 -3.77024 -3.67642 0
M  V30 3266 H 317.929 -2.97189 -2.33424 0
M  V30 3267 H 318.242 -6.44378 -4.26611 0
M  V30 3268 H 316.587 -5.79123 -3.84242 0
M  V30 3269 H 319.778 -3.73269 -2.82467 0
M  V30 3270 H 319.951 -5.31577 -3.7058 0
M  V30 3271 N 313.357 1.07166 -1.15556 0
M  V30 3272 C 314.773 1.31899 -0.898603 0
M  V30 3273 C 314.973 1.96333 0.453383 0
M  V30 3274 O 314.029 2.22438 1.19489 0
M  V30 3275 C 315.342 2.20826 -2.04099 0
M  V30 3276 C 316.89 2.34269 -2.07574 0
M  V30 3277 C 317.365 3.26546 -3.21141 0
M  V30 3278 N 318.856 3.34127 -3.20801 0
M  V30 3279 C 319.591 4.05595 -4.05315 0
M  V30 3280 N 319.087 4.79661 -4.99897 0
M  V30 3281 N 320.88 4.01555 -3.93332 0
M  V30 3282 H 313.031 0.637302 -2.02613 0
M  V30 3283 H 315.294 0.343468 -0.883591 0
M  V30 3284 H 315 1.80744 -3.01703 0
M  V30 3285 H 314.874 3.21364 -1.97496 0
M  V30 3286 H 317.261 2.73603 -1.10568 0
M  V30 3287 H 317.342 1.33429 -2.18244 0
M  V30 3288 H 316.986 2.87931 -4.184 0
M  V30 3289 H 316.916 4.27345 -3.07708 0
M  V30 3290 H 319.407 2.81336 -2.52306 0
M  V30 3291 H 319.72 5.31694 -5.60822 0
M  V30 3292 H 318.065 4.78671 -5.03884 0
M  V30 3293 H 321.256 3.42806 -3.18751 0
M  V30 3294 H 321.429 4.56987 -4.5942 0
M  V30 3295 N 314.835 0.952656 1.25548 0
M  V30 3296 C 315.745 0.47782 2.29682 0
M  V30 3297 C 316.761 -0.453859 1.67977 0
M  V30 3298 O 317.937 -0.330587 1.98668 0
M  V30 3299 C 315.002 -0.238655 3.45878 0
M  V30 3300 C 314.063 0.730994 4.23031 0
M  V30 3301 C 313.296 0.0486165 5.33678 0
M  V30 3302 O 313.519 -1.16612 5.58353 0
M  V30 3303 O 312.453 0.733152 5.97418 0
M  V30 3304 H 316.279 1.34312 2.72386 0
M  V30 3305 H 313.864 0.719026 1.30959 0
M  V30 3306 H 315.746 -0.641774 4.16484 0
M  V30 3307 H 314.421 -1.07916 3.05181 0
M  V30 3308 H 313.328 1.18428 3.5486 0
M  V30 3309 H 314.661 1.53946 4.67506 0
M  V30 3310 N 316.313 -1.40141 0.720998 0
M  V30 3311 C 317.538 -2.05618 0.271258 0
M  V30 3312 C 317.963 -1.53978 -1.08039 0
M  V30 3313 O 317.321 -0.677463 -1.68167 0
M  V30 3314 C 317.369 -3.59609 0.267197 0
M  V30 3315 O 316.473 -4.05526 -0.749814 0
M  V30 3316 H 315.814 -0.651904 0.126162 0
M  V30 3317 H 318.344 -1.79439 0.982997 0
M  V30 3318 H 318.354 -4.0786 0.106744 0
M  V30 3319 H 317.029 -3.96559 1.25354 0
M  V30 3320 H 315.606 -3.68722 -0.556644 0
M  V30 3321 N 317.792 -0.46758 -1.50504 0
M  V30 3322 C 318.739 0.328413 -2.28452 0
M  V30 3323 C 319.709 0.990313 -1.33349 0
M  V30 3324 O 320.894 1.00343 -1.62284 0
M  V30 3325 C 318.034 1.40648 -3.15138 0
M  V30 3326 C 317.147 0.759709 -4.25267 0
M  V30 3327 C 316.282 1.81537 -4.99217 0
M  V30 3328 C 315.321 1.14866 -6.01226 0
M  V30 3329 N 314.458 2.14702 -6.68467 0
M  V30 3330 H 319.298 -0.342603 -2.96024 0
M  V30 3331 H 316.835 -0.180801 -1.45985 0
M  V30 3332 H 318.793 2.04315 -3.63746 0
M  V30 3333 H 317.423 2.04671 -2.49619 0
M  V30 3334 H 316.475 0.0105671 -3.80399 0
M  V30 3335 H 317.787 0.233243 -4.98254 0
M  V30 3336 H 316.941 2.52793 -5.51526 0
M  V30 3337 H 315.68 2.37564 -4.25928 0
M  V30 3338 H 314.685 0.42171 -5.4818 0
M  V30 3339 H 315.91 0.595334 -6.76485 0
M  V30 3340 H 313.856 2.69752 -5.97972 0
M  V30 3341 H 313.773 1.6703 -7.37317 0
M  V30 3342 H 315.041 2.85348 -7.25394 0
M  V30 3343 N 319.27 1.56325 -0.20005 0
M  V30 3344 C 320.202 2.16555 0.750771 0
M  V30 3345 C 321.215 1.12871 1.1732 0
M  V30 3346 O 322.404 1.39943 1.10807 0
M  V30 3347 C 319.504 2.71684 2.02586 0
M  V30 3348 C 318.677 4.00321 1.76244 0
M  V30 3349 C 317.736 4.40227 2.88248 0
M  V30 3350 O 316.762 5.07552 2.57642 0
M  V30 3351 N 317.964 4.04138 4.16717 0
M  V30 3352 H 320.729 2.98772 0.235685 0
M  V30 3353 H 318.29 1.6189 -0.0182594 0
M  V30 3354 H 320.282 2.95363 2.76664 0
M  V30 3355 H 318.852 1.93893 2.45202 0
M  V30 3356 H 318.072 3.84723 0.85919 0
M  V30 3357 H 319.36 4.84279 1.56048 0
M  V30 3358 H 318.758 3.49993 4.44434 0
M  V30 3359 H 317.315 4.32756 4.87407 0
M  V30 3360 N 320.748 -0.0735177 1.57428 0
M  V30 3361 C 322.159 -0.625551 1.75908 0
M  V30 3362 C 322.51 -1.78 0.825261 0
M  V30 3363 O 321.635 -2.16398 0.00893964 0
M  V30 3364 C 322.23 -1.14155 3.18989 0
M  V30 3365 C 320.789 -1.63946 3.38819 0
M  V30 3366 C 319.936 -0.558151 2.71625 0
M  V30 3367 H 322.887 0.152647 1.57964 0
M  V30 3368 H 322.908 -2.0104 3.23053 0
M  V30 3369 H 322.42 -0.301116 3.8693 0
M  V30 3370 H 320.521 -2.50321 2.7599 0
M  V30 3371 H 320.634 -1.71759 4.47253 0
M  V30 3372 H 318.998 -1.00278 2.34129 0
M  V30 3373 H 319.781 0.272071 3.4222 0
M  V30 3374 N 322.226 -1.5378 -0.344866 0
M  V30 3375 C 323.156 -1.84662 -1.42906 0
M  V30 3376 C 324.137 -0.701648 -1.54955 0
M  V30 3377 O 325.322 -0.953438 -1.69184 0
M  V30 3378 C 322.452 -2.05503 -2.79974 0
M  V30 3379 C 321.406 -3.21318 -2.82734 0
M  V30 3380 C 320.732 -3.2749 -4.22675 0
M  V30 3381 C 322.032 -4.59456 -2.48389 0
M  V30 3382 H 323.726 -2.75461 -1.17311 0
M  V30 3383 H 321.272 -1.32542 -0.562896 0
M  V30 3384 H 323.225 -2.25691 -3.55867 0
M  V30 3385 H 321.949 -1.11434 -3.07002 0
M  V30 3386 H 320.608 -3.00984 -2.09294 0
M  V30 3387 H 320.256 -2.31019 -4.4681 0
M  V30 3388 H 319.956 -4.05316 -4.25433 0
M  V30 3389 H 321.48 -3.49887 -5.00412 0
M  V30 3390 H 322.894 -4.79667 -3.13995 0
M  V30 3391 H 321.291 -5.39675 -2.62432 0
M  V30 3392 H 322.361 -4.63155 -1.4358 0
M  V30 3393 N 323.704 0.605807 -1.45491 0
M  V30 3394 C 324.614 1.74466 -1.56839 0
M  V30 3395 C 325.63 1.68006 -0.452772 0
M  V30 3396 O 326.806 1.8833 -0.713708 0
M  V30 3397 C 323.871 3.10931 -1.53371 0
M  V30 3398 C 322.932 3.28832 -2.75986 0
M  V30 3399 C 322.165 4.58787 -2.72673 0
M  V30 3400 O 322.388 5.4122 -1.80102 0
M  V30 3401 O 321.322 4.79438 -3.63899 0
M  V30 3402 H 325.148 1.67843 -2.53106 0
M  V30 3403 H 322.733 0.770108 -1.28022 0
M  V30 3404 H 324.615 3.92233 -1.54051 0
M  V30 3405 H 323.29 3.18042 -0.602572 0
M  V30 3406 H 322.197 2.47112 -2.80867 0
M  V30 3407 H 323.53 3.26599 -3.68231 0
M  V30 3408 N 325.182 1.32811 0.848464 0
M  V30 3409 C 326.412 1.26556 1.63301 0
M  V30 3410 C 326.82 -0.1676 1.88456 0
M  V30 3411 O 326.163 -1.11713 1.45828 0
M  V30 3412 C 326.225 1.96202 3.01239 0
M  V30 3413 C 325.889 3.45528 2.99098 0
M  V30 3414 C 326.886 4.40903 2.75501 0
M  V30 3415 C 324.571 3.87558 3.19537 0
M  V30 3416 C 326.565 5.76282 2.72356 0
M  V30 3417 C 324.252 5.23044 3.16019 0
M  V30 3418 C 325.25 6.17217 2.92458 0
M  V30 3419 O 324.938 7.50223 2.88825 0
M  V30 3420 H 324.67 0.43771 0.515156 0
M  V30 3421 H 327.224 1.7559 1.0657 0
M  V30 3422 H 325.454 1.41746 3.59785 0
M  V30 3423 H 327.143 1.83573 3.62016 0
M  V30 3424 H 327.909 4.09756 2.5947 0
M  V30 3425 H 323.788 3.14674 3.369 0
M  V30 3426 H 327.332 6.4976 2.53886 0
M  V30 3427 H 323.229 5.53818 3.31596 0
M  V30 3428 H 323.997 7.59657 3.04735 0
M  V30 3429 N 326.66 -1.06551 1.16123 0
M  V30 3430 C 328.071 -1.60768 0.949232 0
M  V30 3431 C 328.422 -1.89523 -0.507508 0
M  V30 3432 O 327.547 -1.66671 -1.38021 0
M  V30 3433 C 328.142 -2.92086 1.71671 0
M  V30 3434 C 326.701 -3.43015 1.54977 0
M  V30 3435 C 325.848 -2.16947 1.72711 0
M  V30 3436 H 328.799 -0.895354 1.31031 0
M  V30 3437 H 328.82 -3.6138 1.19099 0
M  V30 3438 H 328.332 -2.71127 2.7769 0
M  V30 3439 H 326.433 -3.69039 0.513873 0
M  V30 3440 H 326.546 -4.18516 2.33198 0
M  V30 3441 H 324.91 -2.27041 1.15431 0
M  V30 3442 H 325.693 -1.98473 2.80113 0
M  V30 3443 N 328.138 -0.959301 -1.25041 0
M  V30 3444 C 329.363 -0.633507 -1.97488 0
M  V30 3445 C 329.788 0.788555 -1.70773 0
M  V30 3446 O 329.146 1.53394 -0.966431 0
M  V30 3447 C 329.194 -0.904057 -3.49083 0
M  V30 3448 O 328.298 0.0147939 -4.12397 0
M  V30 3449 H 327.639 -0.240368 -0.618966 0
M  V30 3450 H 330.169 -1.28717 -1.59038 0
M  V30 3451 H 330.179 -0.832203 -3.99423 0
M  V30 3452 H 328.854 -1.94048 -3.67856 0
M  V30 3453 H 327.431 -0.109664 -3.72739 0
M  V30 3454 N 329.616 1.39756 -0.72842 0
M  V30 3455 C 330.856 2.025 -0.278078 0
M  V30 3456 C 331.22 1.5654 1.11173 0
M  V30 3457 O 332.421 2.11435 1.65978 0
M  V30 3458 C 330.692 3.55489 -0.369139 0
M  V30 3459 S 332.251 4.388 0.00232983 0
M  V30 3460 H 329.069 0.702534 -0.109391 0
M  V30 3461 H 331.671 1.70672 -0.95348 0
M  V30 3462 H 330.375 3.86429 -1.38204 0
M  V30 3463 H 329.906 3.92061 0.324308 0
M  V30 3464 H 331.921 4.80954 1.22055 0
M  V30 3465 N 331.094 0.475555 1.50254 0
M  V30 3466 C 332.342 -0.077738 2.0195 0
M  V30 3467 C 332.663 -1.39813 1.35931 0
M  V30 3468 O 331.933 -1.89249 0.506123 0
M  V30 3469 H 330.513 -0.031719 0.746326 0
M  V30 3470 H 333.175 0.626995 1.84539 0
M  V30 3471 H 332.271 -0.225995 3.11281 0
M  V30 3472 N 332.573 -1.56217 0.208337 0
M  V30 3473 C 333.798 -2.02782 -0.435222 0
M  V30 3474 C 334.223 -1.08738 -1.53485 0
M  V30 3475 O 333.581 -0.0731855 -1.81152 0
M  V30 3476 C 333.629 -3.47687 -0.956335 0
M  V30 3477 O 332.733 -3.56773 -2.06849 0
M  V30 3478 H 332.074 -0.656403 -0.100158 0
M  V30 3479 H 334.604 -2.02033 0.3231 0
M  V30 3480 H 334.614 -3.87745 -1.26955 0
M  V30 3481 H 333.289 -4.15624 -0.15143 0
M  V30 3482 H 331.866 -3.28597 -1.76292 0
M  V30 3483 N 334.051 0.0651679 -1.57465 0
M  V30 3484 C 335.297 0.764193 -1.87851 0
M  V30 3485 C 335.63 1.76889 -0.801495 0
M  V30 3486 O 334.905 1.93594 0.187528 0
M  V30 3487 C 335.188 1.46625 -3.28897 0
M  V30 3488 C 335.041 0.477515 -4.47258 0
M  V30 3489 C 336.36 2.4095 -3.68281 0
M  V30 3490 H 333.479 0.276351 -0.683227 0
M  V30 3491 H 336.121 0.0272868 -1.8998 0
M  V30 3492 H 334.271 2.09438 -3.27212 0
M  V30 3493 H 335.943 -0.145922 -4.61069 0
M  V30 3494 H 334.186 -0.206576 -4.33308 0
M  V30 3495 H 334.857 1.0065 -5.42746 0
M  V30 3496 H 337.333 1.88209 -3.71102 0
M  V30 3497 H 336.209 2.87072 -4.67847 0
M  V30 3498 H 336.47 3.26049 -2.98571 0
M  V30 3499 N 335.529 1.53961 0.336706 0
M  V30 3500 C 336.776 1.71536 1.07618 0
M  V30 3501 C 337.104 0.482125 1.8843 0
M  V30 3502 O 336.359 -0.536142 1.88213 0
M  V30 3503 C 336.658 2.93493 2.03953 0
M  V30 3504 C 336.324 4.28811 1.39399 0
M  V30 3505 C 334.986 4.65602 1.21523 0
M  V30 3506 C 337.338 5.12844 0.929541 0
M  V30 3507 C 334.666 5.84037 0.558312 0
M  V30 3508 C 337.018 6.31951 0.286505 0
M  V30 3509 C 335.682 6.67432 0.0954869 0
M  V30 3510 H 334.952 0.627696 0.393801 0
M  V30 3511 H 337.599 1.88186 0.354715 0
M  V30 3512 H 335.904 2.71475 2.82504 0
M  V30 3513 H 337.601 3.04285 2.61174 0
M  V30 3514 H 334.191 3.99858 1.54311 0
M  V30 3515 H 338.375 4.84947 1.05548 0
M  V30 3516 H 333.631 6.10097 0.398995 0
M  V30 3517 H 337.805 6.96352 -0.0814376 0
M  V30 3518 H 335.432 7.59063 -0.415579 0
M  V30 3519 N 337.007 -0.598083 1.45811 0
M  V30 3520 C 337.939 -1.72231 1.51225 0
M  V30 3521 C 338.952 -1.57757 0.402059 0
M  V30 3522 O 340.141 -1.65464 0.669624 0
M  V30 3523 C 337.241 -3.10331 1.3619 0
M  V30 3524 C 336.414 -3.50955 2.61054 0
M  V30 3525 C 335.473 -4.68055 2.40439 0
M  V30 3526 O 334.499 -4.74691 3.14097 0
M  V30 3527 N 335.701 -5.61941 1.45612 0
M  V30 3528 H 338.466 -1.68046 2.48154 0
M  V30 3529 H 336.027 -0.783637 1.41671 0
M  V30 3530 H 338.019 -3.86439 1.20195 0
M  V30 3531 H 336.589 -3.0897 0.475015 0
M  V30 3532 H 335.809 -2.64711 2.92099 0
M  V30 3533 H 337.097 -3.74858 3.44034 0
M  V30 3534 H 336.495 -5.59301 0.848431 0
M  V30 3535 H 335.052 -6.37542 1.35585 0
M  V30 3536 N 338.485 -1.33259 -0.841409 0
M  V30 3537 C 339.901 -1.12538 -1.13169 0
M  V30 3538 C 340.101 0.0854037 -2.01319 0
M  V30 3539 O 339.157 0.766417 -2.40587 0
M  V30 3540 C 340.47 -2.41156 -1.79623 0
M  V30 3541 C 342.018 -2.47038 -1.922 0
M  V30 3542 C 342.493 -3.7561 -2.6207 0
M  V30 3543 N 343.984 -3.76667 -2.69585 0
M  V30 3544 C 344.719 -4.72861 -3.2433 0
M  V30 3545 N 344.215 -5.79428 -3.79783 0
M  V30 3546 N 346.008 -4.6034 -3.22558 0
M  V30 3547 H 338.159 -2.10868 -0.254676 0
M  V30 3548 H 340.422 -0.931615 -0.175493 0
M  V30 3549 H 340.128 -3.29747 -1.22311 0
M  V30 3550 H 340.002 -2.53114 -2.79666 0
M  V30 3551 H 342.389 -1.58898 -2.48667 0
M  V30 3552 H 342.47 -2.39022 -0.911148 0
M  V30 3553 H 342.114 -4.64131 -2.06263 0
M  V30 3554 H 342.044 -3.80902 -3.63622 0
M  V30 3555 H 344.535 -2.99648 -2.30259 0
M  V30 3556 H 344.848 -6.48867 -4.19752 0
M  V30 3557 H 343.193 -5.83166 -3.78078 0
M  V30 3558 H 346.384 -3.76244 -2.78492 0
M  V30 3559 H 346.557 -5.35478 -3.64921 0
M  V30 3560 N 339.963 1.05934 -1.16686 0
M  V30 3561 C 341.374 1.60263 -0.957745 0
M  V30 3562 C 341.725 1.89789 0.49745 0
M  V30 3563 O 340.85 1.67401 1.37135 0
M  V30 3564 C 341.445 2.91172 -1.73218 0
M  V30 3565 C 340.004 3.42188 -1.56794 0
M  V30 3566 C 339.151 2.16028 -1.73859 0
M  V30 3567 H 342.102 0.888392 -1.31504 0
M  V30 3568 H 342.123 3.60744 -1.21014 0
M  V30 3569 H 341.635 2.6965 -2.79124 0
M  V30 3570 H 339.736 3.68762 -0.533437 0
M  V30 3571 H 339.849 4.17273 -2.35414 0
M  V30 3572 H 338.213 2.26426 -1.16633 0
M  V30 3573 H 338.996 1.96985 -2.81161 0
M  V30 3574 N 341.441 0.965919 1.2453 0
M  V30 3575 C 342.852 0.665929 1.7442 0
M  V30 3576 C 343.203 -0.818407 1.78316 0
M  V30 3577 O 342.328 -1.64037 1.41141 0
M  V30 3578 C 342.923 1.20211 3.16757 0
M  V30 3579 C 341.482 0.952059 3.6416 0
M  V30 3580 C 340.629 1.33848 2.42858 0
M  V30 3581 H 343.58 1.14144 1.10258 0
M  V30 3582 H 343.601 0.567544 3.76244 0
M  V30 3583 H 343.113 2.28244 3.13889 0
M  V30 3584 H 341.214 -0.112821 3.72429 0
M  V30 3585 H 341.327 1.59645 4.51719 0
M  V30 3586 H 339.691 0.756864 2.43195 0
M  V30 3587 H 340.474 2.42827 2.42673 0
M  V30 3588 N 342.919 -1.39368 0.735821 0
M  V30 3589 C 344.167 -2.00101 0.283562 0
M  V30 3590 C 344.488 -1.5868 -1.13338 0
M  V30 3591 O 343.758 -0.835423 -1.77193 0
M  V30 3592 H 342.338 -0.740024 0.101851 0
M  V30 3593 H 345 -1.70404 0.945962 0
M  V30 3594 H 344.096 -3.10323 0.332604 0
M  V30 3595 N 344.397 -0.483516 -1.5 0
M  V30 3596 C 345.347 0.32306 -2.257 0
M  V30 3597 C 346.331 0.950755 -1.29805 0
M  V30 3598 O 347.523 0.861247 -1.54634 0
M  V30 3599 C 344.652 1.39724 -3.13579 0
M  V30 3600 C 343.738 0.776663 -4.16928 0
M  V30 3601 N 344.129 -0.1104 -5.0568 0
M  V30 3602 C 342.427 1.03922 -4.33724 0
M  V30 3603 C 343.128 -0.46387 -5.79848 0
M  V30 3604 N 342.104 0.163987 -5.43353 0
M  V30 3605 H 345.906 -0.360086 -2.91686 0
M  V30 3606 H 343.42 -0.298456 -1.59634 0
M  V30 3607 H 345.417 1.98837 -3.66428 0
M  V30 3608 H 344.077 2.08225 -2.49143 0
M  V30 3609 H 345.088 -0.480069 -5.1567 0
M  V30 3610 H 341.765 1.71829 -3.80501 0
M  V30 3611 H 343.155 -1.18854 -6.61304 0
M  V30 3612 N 345.875 1.56104 -0.216619 0
M  V30 3613 C 347.122 1.98172 0.416416 0
M  V30 3614 C 347.45 1.10413 1.60122 0
M  V30 3615 O 346.705 0.147967 1.9514 0
M  V30 3616 C 347.004 3.45923 0.898464 0
M  V30 3617 C 346.67 4.50559 -0.175288 0
M  V30 3618 C 345.332 4.78897 -0.470271 0
M  V30 3619 C 347.684 5.1334 -0.901728 0
M  V30 3620 C 345.012 5.67299 -1.4963 0
M  V30 3621 C 347.364 6.02853 -1.91705 0
M  V30 3622 C 346.028 6.29537 -2.21901 0
M  V30 3623 H 345.298 0.725164 0.152377 0
M  V30 3624 H 347.945 1.88839 -0.318103 0
M  V30 3625 H 346.25 3.52434 1.71165 0
M  V30 3626 H 347.947 3.75841 1.39803 0
M  V30 3627 H 344.537 4.28551 0.0647806 0
M  V30 3628 H 348.721 4.91521 -0.687072 0
M  V30 3629 H 343.977 5.86239 -1.73592 0
M  V30 3630 H 348.151 6.50552 -2.48505 0
M  V30 3631 H 345.778 6.97835 -3.01548 0
M  V30 3632 N 347.353 -0.0568162 1.57498 0
M  V30 3633 C 348.316 -1.05038 2.03715 0
M  V30 3634 C 349.316 -1.30709 0.936577 0
M  V30 3635 O 350.506 -1.26178 1.20103 0
M  V30 3636 C 347.638 -2.39034 2.43055 0
M  V30 3637 H 348.831 -0.651715 2.92733 0
M  V30 3638 H 346.384 -0.302947 1.53336 0
M  V30 3639 H 347.119 -2.83703 1.57108 0
M  V30 3640 H 346.904 -2.21739 3.2338 0
M  V30 3641 H 348.394 -3.10421 2.79336 0
M  V30 3642 N 348.832 -1.54138 -0.328536 0
M  V30 3643 C 350.08 -1.71765 -1.06496 0
M  V30 3644 C 350.401 -0.49149 -1.88704 0
M  V30 3645 O 349.671 0.494539 -1.89555 0
M  V30 3646 H 348.251 -0.633295 -0.396164 0
M  V30 3647 H 350.913 -1.91429 -0.366176 0
M  V30 3648 H 350.009 -2.5951 -1.73381 0
M  V30 3649 N 350.31 0.590341 -1.46126 0
M  V30 3650 C 351.257 1.69994 -1.56111 0
M  V30 3651 C 352.227 1.61065 -0.405867 0
M  V30 3652 O 353.412 1.8039 -0.621613 0
M  V30 3653 C 350.552 3.08326 -1.55013 0
M  V30 3654 C 349.665 3.27936 -2.81215 0
M  V30 3655 C 348.8 4.56473 -2.71673 0
M  V30 3656 C 347.839 4.694 -3.92849 0
M  V30 3657 N 346.976 5.89254 -3.81738 0
M  V30 3658 H 351.816 1.60797 -2.50895 0
M  V30 3659 H 349.353 0.783799 -1.24479 0
M  V30 3660 H 351.311 3.88383 -1.52362 0
M  V30 3661 H 349.941 3.16439 -0.637667 0
M  V30 3662 H 348.993 2.41536 -2.93879 0
M  V30 3663 H 350.305 3.33357 -3.71045 0
M  V30 3664 H 349.459 5.44748 -2.67085 0
M  V30 3665 H 348.198 4.53477 -1.7947 0
M  V30 3666 H 347.203 3.79544 -3.97777 0
M  V30 3667 H 348.428 4.7418 -4.86138 0
M  V30 3668 H 346.374 5.87271 -2.92317 0
M  V30 3669 H 346.291 5.95911 -4.65217 0
M  V30 3670 H 347.559 6.79981 -3.81112 0
M  V30 3671 N 351.788 1.33704 0.83433 0
M  V30 3672 C 352.718 1.26967 1.95963 0
M  V30 3673 C 353.699 0.149337 1.69443 0
M  V30 3674 O 354.884 0.339852 1.91203 0
M  V30 3675 C 352.014 1.01275 3.32206 0
M  V30 3676 C 350.968 2.09652 3.73136 0
M  V30 3677 C 350.294 1.69166 5.07235 0
M  V30 3678 C 351.594 3.51372 3.86439 0
M  V30 3679 H 353.288 2.2112 2.01857 0
M  V30 3680 H 350.834 1.06447 0.969793 0
M  V30 3681 H 352.787 0.952106 4.10503 0
M  V30 3682 H 351.511 0.0356203 3.26581 0
M  V30 3683 H 350.17 2.14766 2.97104 0
M  V30 3684 H 349.818 0.701437 4.98085 0
M  V30 3685 H 349.518 2.41694 5.35591 0
M  V30 3686 H 351.042 1.64576 5.88003 0
M  V30 3687 H 352.456 3.48734 4.55036 0
M  V30 3688 H 350.853 4.22425 4.26236 0
M  V30 3689 H 351.923 3.89546 2.88759 0
M  V30 3690 N 353.266 -1.05314 1.17247 0
M  V30 3691 C 354.515 -1.77685 0.954521 0
M  V30 3692 C 354.828 -1.88616 -0.518025 0
M  V30 3693 O 356.034 -2.57714 -0.854144 0
M  V30 3694 C 354.49 -3.19402 1.65863 0
M  V30 3695 C 354.098 -3.16605 3.16963 0
M  V30 3696 C 355.842 -3.96237 1.52303 0
M  V30 3697 C 353.749 -4.53103 3.80068 0
M  V30 3698 H 352.679 -0.666 0.353496 0
M  V30 3699 H 355.33 -1.1805 1.40486 0
M  V30 3700 H 353.712 -3.79355 1.13602 0
M  V30 3701 H 354.886 -2.66176 3.76148 0
M  V30 3702 H 353.201 -2.53268 3.30521 0
M  V30 3703 H 355.798 -4.97157 1.96822 0
M  V30 3704 H 356.141 -4.136 0.473401 0
M  V30 3705 H 356.674 -3.42829 2.01775 0
M  V30 3706 H 353.413 -4.40946 4.85023 0
M  V30 3707 H 352.933 -5.03686 3.2567 0
M  V30 3708 H 354.612 -5.22045 3.82202 0
M  V30 3709 N 354.744 -0.972509 -1.24016 0
M  V30 3710 C 355.676 -0.464375 -2.24446 0
M  V30 3711 C 356.689 0.4295 -1.57032 0
M  V30 3712 O 357.878 0.234902 -1.76948 0
M  V30 3713 C 354.978 0.348385 -3.37105 0
M  V30 3714 C 354.151 -0.53673 -4.34094 0
M  V30 3715 C 353.21 0.220838 -5.25736 0
M  V30 3716 O 352.236 -0.386867 -5.67884 0
M  V30 3717 N 353.438 1.50907 -5.60542 0
M  V30 3718 H 356.203 -1.32788 -2.68677 0
M  V30 3719 H 353.764 -0.844877 -1.38107 0
M  V30 3720 H 355.756 0.863341 -3.95384 0
M  V30 3721 H 354.326 1.11285 -2.92121 0
M  V30 3722 H 353.546 -1.23261 -3.74433 0
M  V30 3723 H 354.834 -1.14022 -4.95859 0
M  V30 3724 H 354.232 2.02444 -5.28236 0
M  V30 3725 H 352.789 1.96962 -6.21329 0
M  V30 3726 N 356.222 1.38976 -0.743202 0
M  V30 3727 C 357.499 1.94351 -0.220705 0
M  V30 3728 C 357.879 1.67935 1.2791 0
M  V30 3729 O 357.227 1.01211 2.04862 0
M  V30 3730 C 357.437 3.44426 -0.563171 0
M  V30 3731 C 358.785 4.2144 -0.517046 0
M  V30 3732 O 359.809 3.52661 -0.500846 0
M  V30 3733 O 358.668 5.44032 -0.518806 0
M  V30 3734 H 355.762 0.825879 -0.043047 0
M  V30 3735 H 358.308 1.48429 -0.822618 0
M  V30 3736 H 357.08 3.5712 -1.59941 0
M  V30 3737 H 356.703 3.97543 0.0672883 0
M  V30 3738 N 357.7 0.491464 1.49741 0
M  V30 3739 C 358.925 -0.0557177 2.07325 0
M  V30 3740 C 359.35 -1.30925 1.35056 0
M  V30 3741 O 358.708 -1.76733 0.404365 0
M  V30 3742 C 358.756 -0.302074 3.59333 0
M  V30 3743 O 357.86 -1.37868 3.88672 0
M  V30 3744 H 357.201 0.0219956 0.663636 0
M  V30 3745 H 359.731 0.688352 1.92673 0
M  V30 3746 H 359.741 -0.536464 4.04458 0
M  V30 3747 H 358.416 0.61383 4.11345 0
M  V30 3748 H 356.993 -1.12999 3.55367 0
M  V30 3749 N 359.178 -1.55987 0.224894 0
M  V30 3750 C 360.126 -2.21808 -0.700283 0
M  V30 3751 C 361.12 -1.19854 -1.19714 0
M  V30 3752 O 362.326 -1.37925 -1.15658 0
M  V30 3753 H 358.701 -0.711226 -0.244258 0
M  V30 3754 H 360.672 -2.98152 -0.121749 0
M  V30 3755 C 359.421 -2.91444 -1.8962 0
M  V30 3756 H 358.744 -3.69655 -1.52299 0
M  V30 3757 H 360.184 -3.40894 -2.52125 0
M  V30 3758 C 358.643 -1.94098 -2.75368 0
M  V30 3759 O 359.173 -1.46004 -3.74227 0
M  V30 3760 N 357.379 -1.61675 -2.41474 0
M  V30 3761 H 356.926 -2.00979 -1.61137 0
M  V30 3762 H 356.884 -0.968036 -2.99126 0
M  V30 3763 N 360.656 0.0484629 -1.57525 0
M  V30 3764 C 361.586 1.0549 -2.08313 0
M  V30 3765 C 362.567 1.38929 -0.981463 0
M  V30 3766 O 363.752 1.48151 -1.25558 0
M  V30 3767 C 360.882 2.36162 -2.54646 0
M  V30 3768 C 359.836 2.17016 -3.68901 0
M  V30 3769 C 359.162 3.53278 -4.01371 0
M  V30 3770 C 360.462 1.57219 -4.98076 0
M  V30 3771 H 362.156 0.632195 -2.92649 0
M  V30 3772 H 359.702 0.302654 -1.40784 0
M  V30 3773 H 361.655 3.06882 -2.88793 0
M  V30 3774 H 360.379 2.80456 -1.67368 0
M  V30 3775 H 359.038 1.48733 -3.35073 0
M  V30 3776 H 358.686 3.95185 -3.11188 0
M  V30 3777 H 358.386 3.41299 -4.78318 0
M  V30 3778 H 359.91 4.25391 -4.38035 0
M  V30 3779 H 361.324 2.17832 -5.30304 0
M  V30 3780 H 359.721 1.55871 -5.79503 0
M  V30 3781 H 360.791 0.535956 -4.81929 0
M  V30 3782 N 362.134 1.5431 0.320358 0
M  V30 3783 C 363.066 1.80262 1.41556 0
M  V30 3784 C 364.079 0.684723 1.477 0
M  V30 3785 O 365.268 0.961886 1.50366 0
M  V30 3786 C 362.368 1.90825 2.8007 0
M  V30 3787 C 361.541 3.21023 2.97091 0
M  V30 3788 C 360.6 3.22247 4.15985 0
M  V30 3789 O 359.626 3.95871 4.08992 0
M  V30 3790 N 360.828 2.46258 5.25678 0
M  V30 3791 H 363.593 2.74778 1.19655 0
M  V30 3792 H 361.154 1.53646 0.510358 0
M  V30 3793 H 363.146 1.89067 3.57821 0
M  V30 3794 H 361.716 1.03392 2.95006 0
M  V30 3795 H 360.936 3.35715 2.06614 0
M  V30 3796 H 362.224 4.0698 3.05361 0
M  V30 3797 H 361.622 1.86037 5.34235 0
M  V30 3798 H 360.179 2.50275 6.01835 0
M  V30 3799 N 363.613 -0.582584 1.46437 0
M  V30 3800 C 364.861 -1.33814 1.51453 0
M  V30 3801 C 365.182 -1.94277 0.167792 0
M  V30 3802 O 364.452 -1.78566 -0.805677 0
M  V30 3803 H 363.032 -0.496838 0.557818 0
M  V30 3804 H 365.694 -0.682281 1.82568 0
M  V30 3805 H 364.79 -2.14479 2.26728 0
M  V30 3806 N 365.091 -1.34144 -0.827227 0
M  V30 3807 C 366.041 -1.21923 -1.92663 0
M  V30 3808 C 367.025 -0.119294 -1.60457 0
M  V30 3809 O 368.217 -0.348539 -1.73534 0
M  V30 3810 C 365.346 -0.972492 -3.29238 0
M  V30 3811 C 364.432 -2.1154 -3.67576 0
M  V30 3812 N 364.823 -3.36627 -3.77512 0
M  V30 3813 C 363.121 -2.02468 -3.97395 0
M  V30 3814 C 363.822 -4.11658 -4.1099 0
M  V30 3815 N 362.798 -3.40207 -4.23981 0
M  V30 3816 H 366.6 -2.16721 -1.98517 0
M  V30 3817 H 364.114 -1.2632 -1.02064 0
M  V30 3818 H 366.111 -0.865847 -4.0781 0
M  V30 3819 H 364.771 -0.0331509 -3.24683 0
M  V30 3820 H 365.782 -3.71234 -3.61118 0
M  V30 3821 H 362.459 -1.16265 -4.00985 0
M  V30 3822 H 363.849 -5.19657 -4.25918 0
M  V30 3823 N 366.569 1.04691 -1.17803 0
M  V30 3824 C 367.985 1.29963 -0.926379 0
M  V30 3825 C 368.185 1.97251 0.411635 0
M  V30 3826 O 367.241 2.24922 1.14744 0
M  V30 3827 C 368.554 2.16447 -2.08737 0
M  V30 3828 C 370.102 2.29814 -2.12496 0
M  V30 3829 C 370.577 3.19661 -3.27995 0
M  V30 3830 N 372.068 3.27247 -3.27816 0
M  V30 3831 C 372.803 3.96906 -4.13827 0
M  V30 3832 N 372.299 4.6895 -5.09959 0
M  V30 3833 N 374.092 3.93122 -4.01761 0
M  V30 3834 H 366.243 0.594182 -2.0392 0
M  V30 3835 H 368.506 0.324649 -0.890678 0
M  V30 3836 H 368.212 1.74304 -3.05469 0
M  V30 3837 H 368.086 3.17103 -2.04268 0
M  V30 3838 H 370.473 2.71196 -1.16347 0
M  V30 3839 H 370.554 1.2877 -2.21025 0
M  V30 3840 H 370.198 2.78991 -4.24413 0
M  V30 3841 H 370.128 4.20722 -3.16703 0
M  V30 3842 H 372.619 2.75921 -2.58217 0
M  V30 3843 H 372.932 5.19679 -5.71974 0
M  V30 3844 H 371.277 4.67875 -5.13924 0
M  V30 3845 H 374.468 3.35967 -3.2595 0
M  V30 3846 H 374.641 4.47139 -4.6901 0
M  V30 3847 N 368.047 0.979072 1.23499 0
M  V30 3848 C 369.296 0.642751 1.91185 0
M  V30 3849 C 369.609 -0.827253 1.77245 0
M  V30 3850 O 370.815 -1.27458 2.39722 0
M  V30 3851 C 369.271 1.09901 3.42709 0
M  V30 3852 C 368.879 2.59327 3.65313 0
M  V30 3853 C 370.623 0.836371 4.16179 0
M  V30 3854 C 368.53 2.98627 5.10467 0
M  V30 3855 H 367.46 0.236698 0.715884 0
M  V30 3856 H 370.111 1.1868 1.39955 0
M  V30 3857 H 368.493 0.48319 3.93041 0
M  V30 3858 H 369.667 3.26136 3.25533 0
M  V30 3859 H 367.982 2.83323 3.05151 0
M  V30 3860 H 370.579 1.10586 5.23139 0
M  V30 3861 H 370.922 -0.227509 4.15678 0
M  V30 3862 H 371.455 1.41371 3.71832 0
M  V30 3863 H 368.194 4.04133 5.16098 0
M  V30 3864 H 367.714 2.3651 5.51201 0
M  V30 3865 H 369.393 2.89159 5.78788 0
M  V30 3866 N 369.525 -1.3858 0.750561 0
M  V30 3867 C 370.773 -1.99789 0.30477 0
M  V30 3868 C 371.094 -1.59874 -1.11649 0
M  V30 3869 O 370.364 -0.85417 -1.76297 0
M  V30 3870 H 368.944 -0.738902 0.109694 0
M  V30 3871 H 371.606 -1.69391 0.963983 0
M  V30 3872 H 370.702 -3.09952 0.365499 0
M  V30 3873 N 371.003 -0.499398 -1.49478 0
M  V30 3874 C 372.251 0.0455996 -2.02049 0
M  V30 3875 C 372.572 1.37633 -1.38138 0
M  V30 3876 O 371.842 1.8842 -0.536166 0
M  V30 3877 H 370.422 0.0198416 -0.746736 0
M  V30 3878 H 373.084 -0.656274 -1.83519 0
M  V30 3879 H 372.18 0.176445 -3.11601 0
M  V30 3880 N 372.481 1.55866 -0.233164 0
M  V30 3881 C 373.727 1.98897 0.395959 0
M  V30 3882 C 374.06 1.12091 1.58585 0
M  V30 3883 O 373.335 0.181182 1.93654 0
M  V30 3884 C 373.618 3.50658 0.819224 0
M  V30 3885 C 373.471 4.48233 -0.375109 0
M  V30 3886 C 374.79 4.07135 1.67121 0
M  V30 3887 H 371.909 0.723102 0.142451 0
M  V30 3888 H 374.551 1.87082 -0.331725 0
M  V30 3889 H 372.701 3.60857 1.43925 0
M  V30 3890 H 374.373 4.50031 -1.01341 0
M  V30 3891 H 372.616 4.21624 -1.02058 0
M  V30 3892 H 373.287 5.51988 -0.0358328 0
M  V30 3893 H 375.763 3.99952 1.14795 0
M  V30 3894 H 374.639 5.13615 1.93625 0
M  V30 3895 H 374.9 3.54736 2.63846 0
M  V30 3896 N 373.959 -0.0401083 1.57549 0
M  V30 3897 C 374.869 -1.06133 2.0922 0
M  V30 3898 C 375.885 -1.40356 1.0284 0
M  V30 3899 O 377.061 -1.49897 1.34509 0
M  V30 3900 C 374.126 -2.34658 2.55218 0
M  V30 3901 C 373.187 -2.07117 3.76033 0
M  V30 3902 C 372.42 -3.29514 4.19829 0
M  V30 3903 O 372.643 -4.39794 3.63232 0
M  V30 3904 O 371.577 -3.15863 5.12362 0
M  V30 3905 H 375.403 -0.652244 2.96613 0
M  V30 3906 H 372.988 -0.256368 1.47184 0
M  V30 3907 H 374.87 -3.10239 2.85184 0
M  V30 3908 H 373.545 -2.74883 1.70941 0
M  V30 3909 H 372.452 -1.29139 3.51104 0
M  V30 3910 H 373.785 -1.71754 4.61261 0
M  V30 3911 N 375.437 -1.54477 -0.31217 0
M  V30 3912 C 376.683 -1.73483 -1.0503 0
M  V30 3913 C 377.016 -0.513125 -1.87298 0
M  V30 3914 O 376.291 0.489864 -1.8823 0
M  V30 3915 C 376.574 -3.01723 -1.96558 0
M  V30 3916 C 376.427 -4.3417 -1.17545 0
M  V30 3917 C 377.746 -3.25772 -2.95907 0
M  V30 3918 H 374.865 -0.631222 -0.380432 0
M  V30 3919 H 377.507 -1.87184 -0.325932 0
M  V30 3920 H 375.657 -2.90174 -2.58324 0
M  V30 3921 H 377.329 -4.5762 -0.581513 0
M  V30 3922 H 375.572 -4.31159 -0.477925 0
M  V30 3923 H 376.243 -5.20143 -1.84811 0
M  V30 3924 H 378.719 -3.36857 -2.44267 0
M  V30 3925 H 377.595 -4.16838 -3.57123 0
M  V30 3926 H 377.856 -2.43537 -3.68974 0
M  V30 3927 N 376.915 0.57481 -1.46744 0
M  V30 3928 C 378.14 1.36341 -1.56288 0
M  V30 3929 C 378.565 1.86954 -0.207347 0
M  V30 3930 O 377.923 1.62006 0.813871 0
M  V30 3931 C 377.971 2.52147 -2.57787 0
M  V30 3932 O 377.075 3.53834 -2.11838 0
M  V30 3933 H 376.416 0.405713 -0.525636 0
M  V30 3934 H 378.946 0.696453 -1.92382 0
M  V30 3935 H 378.956 2.98958 -2.77648 0
M  V30 3936 H 377.631 2.14663 -3.5622 0
M  V30 3937 H 376.208 3.1345 -2.01999 0
M  V30 3938 N 378.394 1.34581 0.820102 0
M  V30 3939 C 379.622 1.3018 1.60813 0
M  V30 3940 C 380.037 -0.123551 1.88395 0
M  V30 3941 O 379.394 -1.07148 1.47735 0
M  V30 3942 C 379.445 2.09312 2.94739 0
M  V30 3943 O 379.166 3.46288 2.68358 0
M  V30 3944 C 380.667 2.1234 3.89136 0
M  V30 3945 H 377.887 0.447726 0.499782 0
M  V30 3946 H 380.431 1.77237 1.02017 0
M  V30 3947 H 378.586 1.65889 3.50085 0
M  V30 3948 H 379 3.87227 3.53774 0
M  V30 3949 H 380.474 2.72126 4.80262 0
M  V30 3950 H 380.951 1.11854 4.24718 0
M  V30 3951 H 381.557 2.55864 3.39726 0
M  V30 3952 N 379.872 -1.04064 1.18357 0
M  V30 3953 C 380.819 -2.12077 0.910603 0
M  V30 3954 C 381.789 -1.65421 -0.15 0
M  V30 3955 O 382.974 -1.90797 -0.0103614 0
M  V30 3956 C 380.114 -3.42252 0.442472 0
M  V30 3957 C 379.227 -4.0252 1.5685 0
M  V30 3958 C 378.362 -5.20657 1.05309 0
M  V30 3959 C 377.401 -5.72955 2.1538 0
M  V30 3960 N 376.538 -6.8238 1.65233 0
M  V30 3961 H 381.378 -2.34764 1.83548 0
M  V30 3962 H 378.915 -1.15157 0.915279 0
M  V30 3963 H 380.873 -4.16921 0.152534 0
M  V30 3964 H 379.503 -3.19712 -0.445428 0
M  V30 3965 H 378.555 -3.25178 1.97391 0
M  V30 3966 H 379.867 -4.37362 2.39824 0
M  V30 3967 H 379.021 -6.0244 0.717677 0
M  V30 3968 H 377.76 -4.87318 0.19293 0
M  V30 3969 H 376.765 -4.89793 2.49766 0
M  V30 3970 H 377.99 -6.08337 3.01832 0
M  V30 3971 H 375.936 -6.50917 0.815064 0
M  V30 3972 H 375.853 -7.16286 2.41805 0
M  V30 3973 H 377.121 -7.67788 1.34619 0
M  V30 3974 N 381.35 -0.985608 -1.22978 0
M  V30 3975 C 382.3 -0.50118 -2.22423 0
M  V30 3976 C 383.284 0.426649 -1.5514 0
M  V30 3977 O 384.476 0.254656 -1.75159 0
M  V30 3978 C 381.605 0.190003 -3.42774 0
M  V30 3979 C 380.691 -0.757703 -4.17276 0
M  V30 3980 N 381.082 -1.90251 -4.68656 0
M  V30 3981 C 379.38 -0.57209 -4.42316 0
M  V30 3982 C 380.081 -2.49676 -5.25392 0
M  V30 3983 N 379.057 -1.78013 -5.13627 0
M  V30 3984 H 382.859 -1.37441 -2.59783 0
M  V30 3985 H 380.373 -0.846941 -1.38567 0
M  V30 3986 H 382.37 0.55439 -4.13197 0
M  V30 3987 H 381.03 1.05946 -3.06929 0
M  V30 3988 H 382.041 -2.28354 -4.64839 0
M  V30 3989 H 378.718 0.251909 -4.16739 0
M  V30 3990 H 380.108 -3.46384 -5.75732 0
M  V30 3991 N 382.828 1.3818 -0.7579 0
M  V30 3992 C 383.791 2.28764 -0.141286 0
M  V30 3993 C 384.791 1.47388 0.642907 0
M  V30 3994 O 385.981 1.67781 0.468536 0
M  V30 3995 C 383.113 3.31184 0.808069 0
M  V30 3996 H 384.306 2.848 -0.939633 0
M  V30 3997 H 381.859 1.47212 -0.525191 0
M  V30 3998 H 382.594 2.80247 1.63193 0
M  V30 3999 H 382.379 3.91314 0.248104 0
M  V30 4000 H 383.869 3.98909 1.23536 0
M  V30 4001 N 384.306 0.507319 1.49211 0
M  V30 4002 C 385.554 -0.0348839 2.0207 0
M  V30 4003 C 385.875 -1.36898 1.38866 0
M  V30 4004 O 385.145 -1.88133 0.546151 0
M  V30 4005 H 383.725 -0.0158812 0.746831 0
M  V30 4006 H 386.387 0.665998 1.83168 0
M  V30 4007 H 385.483 -0.159917 3.1169 0
M  V30 4008 N 385.784 -1.5574 0.241426 0
M  V30 4009 C 387.031 -1.9881 -0.384836 0
M  V30 4010 C 387.359 -1.12947 -1.58346 0
M  V30 4011 O 386.614 -0.178993 -1.9488 0
M  V30 4012 C 386.913 -3.47308 -0.843317 0
M  V30 4013 C 386.579 -4.50223 0.246946 0
M  V30 4014 C 385.241 -4.78088 0.546399 0
M  V30 4015 C 387.593 -5.11841 0.983282 0
M  V30 4016 C 384.921 -5.64846 1.58636 0
M  V30 4017 C 387.273 -5.99727 2.01272 0
M  V30 4018 C 385.937 -6.25927 2.31888 0
M  V30 4019 H 385.207 -0.727496 -0.140821 0
M  V30 4020 H 387.854 -1.8831 0.348106 0
M  V30 4021 H 386.159 -3.55112 -1.65537 0
M  V30 4022 H 387.856 -3.78017 -1.33806 0
M  V30 4023 H 384.446 -4.286 0.00340639 0
M  V30 4024 H 388.63 -4.90366 0.765182 0
M  V30 4025 H 383.886 -5.83403 1.82896 0
M  V30 4026 H 388.06 -6.46517 2.58823 0
M  V30 4027 H 385.687 -6.92949 3.12611 0
M  V30 4028 N 387.262 0.0317525 -1.57568 0
M  V30 4029 C 388.195 1.06621 -2.0176 0
M  V30 4030 C 389.173 1.35323 -0.901462 0
M  V30 4031 O 390.357 1.48025 -1.16708 0
M  V30 4032 C 387.484 2.40155 -2.38837 0
M  V30 4033 C 386.53 2.27327 -3.60867 0
M  V30 4034 S 387.363 1.62925 -5.10113 0
M  V30 4035 C 388.519 2.97955 -5.5043 0
M  V30 4036 H 388.752 0.689781 -2.89187 0
M  V30 4037 H 386.285 0.24164 -1.52497 0
M  V30 4038 H 388.243 3.1695 -2.6087 0
M  V30 4039 H 386.904 2.74946 -1.51867 0
M  V30 4040 H 386.097 3.25898 -3.84456 0
M  V30 4041 H 385.699 1.58675 -3.38671 0
M  V30 4042 H 387.991 3.94285 -5.5095 0
M  V30 4043 H 388.934 2.79102 -6.50775 0
M  V30 4044 H 389.342 3.00404 -4.77931 0
M  V30 4045 N 388.74 1.54641 0.303973 0
M  V30 4046 C 389.986 1.74038 1.04109 0
M  V30 4047 C 390.319 0.523051 1.87024 0
M  V30 4048 O 389.594 -0.479874 1.88487 0
M  V30 4049 C 389.877 3.02761 1.94955 0
M  V30 4050 C 389.73 4.34787 1.1524 0
M  V30 4051 C 391.049 3.27336 2.94175 0
M  V30 4052 H 388.168 0.63323 0.377079 0
M  V30 4053 H 390.81 1.87354 0.316001 0
M  V30 4054 H 388.96 2.9154 2.56782 0
M  V30 4055 H 390.632 4.57922 0.557236 0
M  V30 4056 H 388.875 4.31407 0.455053 0
M  V30 4057 H 389.546 5.21116 1.8205 0
M  V30 4058 H 392.022 3.38148 2.42477 0
M  V30 4059 H 390.898 4.18726 3.54908 0
M  V30 4060 H 391.159 2.45491 3.67677 0
M  V30 4061 N 390.218 -0.567019 1.47046 0
M  V30 4062 C 391.166 -1.69593 1.59188 0
M  V30 4063 C 392.16 -1.63046 0.459609 0
M  V30 4064 O 393.366 -1.6835 0.637058 0
M  V30 4065 H 389.741 -0.560993 0.500791 0
M  V30 4066 H 391.712 -1.56488 2.54075 0
M  V30 4067 C 390.461 -3.07964 1.61411 0
M  V30 4068 H 389.784 -3.13679 2.47881 0
M  V30 4069 H 391.224 -3.86671 1.73958 0
M  V30 4070 C 389.683 -3.35123 0.34559 0
M  V30 4071 O 390.213 -3.97812 -0.557521 0
M  V30 4072 N 388.419 -2.89699 0.22864 0
M  V30 4073 H 387.966 -2.38863 0.964479 0
M  V30 4074 H 387.924 -3.08242 -0.619192 0
M  V30 4075 N 391.696 -1.35014 -0.812953 0
M  V30 4076 C 392.942 -1.2812 -1.57204 0
M  V30 4077 C 393.275 0.145869 -1.93651 0
M  V30 4078 O 392.55 1.0937 -1.60836 0
M  V30 4079 C 392.833 -2.18162 -2.86492 0
M  V30 4080 C 392.686 -3.69454 -2.56561 0
M  V30 4081 C 394.005 -2.07439 -3.88145 0
M  V30 4082 H 391.124 -0.466746 -0.570366 0
M  V30 4083 H 393.766 -1.65357 -0.935783 0
M  V30 4084 H 391.916 -1.86535 -3.40789 0
M  V30 4085 H 393.588 -4.11493 -2.08497 0
M  V30 4086 H 391.831 -3.9005 -1.89851 0
M  V30 4087 H 392.502 -4.27835 -3.48799 0
M  V30 4088 H 394.978 -2.35228 -3.4323 0
M  V30 4089 H 393.854 -2.7265 -4.76396 0
M  V30 4090 H 394.115 -1.05439 -4.29343 0
M  V30 4091 N 393.175 1.03435 -1.18907 0
M  V30 4092 C 394.452 1.73778 -0.89781 0
M  V30 4093 C 394.832 2.02458 0.597832 0
M  V30 4094 O 394.18 1.67482 1.55441 0
M  V30 4095 C 394.39 3.01845 -1.75187 0
M  V30 4096 C 395.738 3.7546 -1.9828 0
M  V30 4097 O 396.762 3.11759 -1.72293 0
M  V30 4098 O 395.621 4.89966 -2.42065 0
M  V30 4099 H 392.715 0.75651 -0.334098 0
M  V30 4100 H 395.261 1.09444 -1.29693 0
M  V30 4101 H 394.033 2.76836 -2.76545 0
M  V30 4102 H 393.656 3.73919 -1.35167 0
M  V30 4103 N 394.653 0.992116 1.22453 0
M  V30 4104 C 395.601 0.534644 2.26372 0
M  V30 4105 C 396.595 -0.414293 1.64256 0
M  V30 4106 O 397.801 -0.286899 1.77699 0
M  V30 4107 H 394.176 0.154502 0.735957 0
M  V30 4108 H 396.147 1.42256 2.62309 0
M  V30 4109 C 394.896 -0.135815 3.47435 0
M  V30 4110 H 394.219 0.585311 3.95492 0
M  V30 4111 H 395.659 -0.419374 4.21921 0
M  V30 4112 C 394.118 -1.37089 3.07747 0
M  V30 4113 O 394.648 -2.46629 3.17076 0
M  V30 4114 N 392.854 -1.24585 2.62539 0
M  V30 4115 H 392.401 -0.354542 2.55149 0
M  V30 4116 H 392.359 -2.07327 2.36353 0
M  V30 4117 N 396.131 -1.37776 0.765217 0
M  V30 4118 C 397.379 -1.99454 0.325943 0
M  V30 4119 C 397.7 -1.61049 -1.09947 0
M  V30 4120 O 396.97 -0.872821 -1.75381 0
M  V30 4121 H 395.55 -0.737697 0.117525 0
M  V30 4122 H 398.212 -1.68359 0.981895 0
M  V30 4123 H 397.308 -3.09547 0.398353 0
M  V30 4124 N 397.609 -0.515225 -1.4894 0
M  V30 4125 C 398.837 0.0206034 -2.0689 0
M  V30 4126 C 399.252 1.29514 -1.37374 0
M  V30 4127 O 398.609 1.76698 -0.456529 0
M  V30 4128 C 398.66 0.26351 -3.60538 0
M  V30 4129 O 398.381 -0.960517 -4.27441 0
M  V30 4130 C 399.882 0.841383 -4.35242 0
M  V30 4131 H 397.102 -0.0268608 -0.670462 0
M  V30 4132 H 399.646 -0.716651 -1.91532 0
M  V30 4133 H 397.801 0.950777 -3.75552 0
M  V30 4134 H 398.215 -0.73212 -5.19365 0
M  V30 4135 H 399.689 0.96085 -5.43573 0
M  V30 4136 H 400.166 1.8427 -3.98674 0
M  V30 4137 H 400.772 0.191143 -4.2487 0
M  V30 4138 N 399.087 1.5561 -0.249682 0
M  V30 4139 C 400.05 2.20217 0.635394 0
M  V30 4140 C 401.05 1.17227 1.10066 0
M  V30 4141 O 402.24 1.42292 1.00492 0
M  V30 4142 C 399.372 2.84794 1.87363 0
M  V30 4143 H 400.565 2.99814 0.0716752 0
M  V30 4144 H 398.118 1.563 -0.000153234 0
M  V30 4145 H 398.853 2.09142 2.47851 0
M  V30 4146 H 398.638 3.60241 1.5482 0
M  V30 4147 H 400.128 3.3423 2.5036 0
M  V30 4148 N 400.565 -0.0233959 1.57583 0
M  V30 4149 C 401.793 -0.724682 1.93794 0
M  V30 4150 C 402.208 -1.68588 0.849912 0
M  V30 4151 O 401.565 -1.81676 -0.173204 0
M  V30 4152 C 401.616 -1.47684 3.29957 0
M  V30 4153 O 401.337 -0.554222 4.3458 0
M  V30 4154 C 402.838 -2.27477 3.80485 0
M  V30 4155 H 400.058 -0.203317 0.639455 0
M  V30 4156 H 402.602 0.0207653 2.04489 0
M  V30 4157 H 400.757 -2.17412 3.20641 0
M  V30 4158 H 401.171 -1.08232 5.13212 0
M  V30 4159 H 402.645 -2.7564 4.78254 0
M  V30 4160 H 403.122 -3.09144 3.11972 0
M  V30 4161 H 403.728 -1.62813 3.92902 0
M  V30 4162 N 402.043 -1.548 -0.295768 0
M  V30 4163 C 403.32 -1.65014 -1.05023 0
M  V30 4164 C 403.7 -0.501805 -2.05049 0
M  V30 4165 O 403.048 0.500869 -2.22943 0
M  V30 4166 C 403.258 -3.03252 -1.72741 0
M  V30 4167 C 404.606 -3.60242 -2.24746 0
M  V30 4168 O 405.63 -3.05737 -1.82765 0
M  V30 4169 O 404.489 -4.55687 -3.01681 0
M  V30 4170 H 401.583 -0.669314 -0.485744 0
M  V30 4171 H 404.129 -1.67144 -0.293438 0
M  V30 4172 H 402.901 -3.7827 -1.00138 0
M  V30 4173 H 402.524 -3.04922 -2.55163 0
M  V30 4174 N 403.521 0.559213 -1.47345 0
M  V30 4175 C 404.751 1.33999 -1.57251 0
M  V30 4176 C 405.159 1.87905 -0.220978 0
M  V30 4177 O 404.502 1.65577 0.795617 0
M  V30 4178 C 404.564 2.54798 -2.53611 0
M  V30 4179 C 404.228 2.22192 -3.99349 0
M  V30 4180 C 405.225 1.79607 -4.87891 0
M  V30 4181 C 402.91 2.33613 -4.44669 0
M  V30 4182 C 404.904 1.48868 -6.19772 0
M  V30 4183 C 402.591 2.02487 -5.76578 0
M  V30 4184 C 403.589 1.60183 -6.63951 0
M  V30 4185 O 403.277 1.29451 -7.93409 0
M  V30 4186 H 403.009 0.414858 -0.533731 0
M  V30 4187 H 405.563 0.684465 -1.9366 0
M  V30 4188 H 403.793 3.23235 -2.12265 0
M  V30 4189 H 405.482 3.16873 -2.53666 0
M  V30 4190 H 406.248 1.70278 -4.54126 0
M  V30 4191 H 402.127 2.65501 -3.76869 0
M  V30 4192 H 405.671 1.15775 -6.87926 0
M  V30 4193 H 401.568 2.11448 -6.09885 0
M  V30 4194 H 402.336 1.43098 -8.05894 0
M  V30 4195 N 404.999 1.35443 0.805782 0
M  V30 4196 C 405.909 1.30546 1.94923 0
M  V30 4197 C 406.925 0.210233 1.72725 0
M  V30 4198 O 408.101 0.43975 1.9654 0
M  V30 4199 C 405.166 1.07782 3.29521 0
M  V30 4200 C 404.227 2.26625 3.64609 0
M  V30 4201 C 403.46 2.04938 4.92784 0
M  V30 4202 O 403.683 1.01624 5.61274 0
M  V30 4203 O 402.617 2.9232 5.26149 0
M  V30 4204 H 406.443 2.26779 2.02002 0
M  V30 4205 H 404.028 1.15823 0.943682 0
M  V30 4206 H 405.91 0.969392 4.10098 0
M  V30 4207 H 404.585 0.146003 3.23371 0
M  V30 4208 H 403.492 2.43033 2.84404 0
M  V30 4209 H 404.825 3.18257 3.75464 0
M  V30 4210 N 406.477 -1.02803 1.19454 0
M  V30 4211 C 407.425 -2.13213 0.929673 0
M  V30 4212 C 408.419 -1.69011 -0.114806 0
M  V30 4213 O 409.625 -1.79967 0.0345147 0
M  V30 4214 H 406 -0.69662 0.28324 0
M  V30 4215 H 407.971 -2.32744 1.86743 0
M  V30 4216 C 406.72 -3.4429 0.485797 0
M  V30 4217 H 406.043 -3.7872 1.28105 0
M  V30 4218 H 407.483 -4.22638 0.339582 0
M  V30 4219 C 405.942 -3.27258 -0.800244 0
M  V30 4220 O 406.472 -3.55967 -1.86146 0
M  V30 4221 N 404.678 -2.80545 -0.75781 0
M  V30 4222 H 404.225 -2.57382 0.106039 0
M  V30 4223 H 404.183 -2.6953 -1.61867 0
M  V30 4224 N 407.956 -0.998596 -1.21925 0
M  V30 4225 C 408.886 -0.573688 -2.26343 0
M  V30 4226 C 409.867 0.402296 -1.65274 0
M  V30 4227 O 411.052 0.291683 -1.91997 0
M  V30 4228 C 408.182 0.106839 -3.47136 0
M  V30 4229 C 407.136 -0.788269 -4.20678 0
M  V30 4230 C 406.462 0.0254927 -5.34694 0
M  V30 4231 C 407.762 -2.08784 -4.78755 0
M  V30 4232 H 409.456 -1.44651 -2.62138 0
M  V30 4233 H 407.002 -0.696975 -1.26009 0
M  V30 4234 H 408.955 0.415531 -4.19346 0
M  V30 4235 H 407.679 1.01424 -3.10452 0
M  V30 4236 H 406.338 -1.08069 -3.50309 0
M  V30 4237 H 405.986 0.933989 -4.94253 0
M  V30 4238 H 405.686 -0.570437 -5.84825 0
M  V30 4239 H 407.21 0.328147 -6.09718 0
M  V30 4240 H 408.624 -1.84272 -5.42878 0
M  V30 4241 H 407.021 -2.63307 -5.39249 0
M  V30 4242 H 408.091 -2.76284 -3.98491 0
M  V30 4243 N 409.434 1.37368 -0.772513 0
M  V30 4244 C 410.683 1.98918 -0.333861 0
M  V30 4245 C 410.996 1.62017 1.09589 0
M  V30 4246 O 412.202 2.16676 1.63596 0
M  V30 4247 C 410.658 3.55735 -0.545971 0
M  V30 4248 C 410.266 4.01573 -1.98603 0
M  V30 4249 C 412.01 4.24156 -0.170979 0
M  V30 4250 C 409.917 5.51102 -2.1457 0
M  V30 4251 H 408.847 0.744214 -0.121085 0
M  V30 4252 H 411.498 1.56888 -0.95175 0
M  V30 4253 H 409.88 3.95748 0.141387 0
M  V30 4254 H 411.054 3.72803 -2.7084 0
M  V30 4255 H 409.369 3.45937 -2.31769 0
M  V30 4256 H 411.966 5.34024 -0.26878 0
M  V30 4257 H 412.309 4.06917 0.878855 0
M  V30 4258 H 412.842 3.89447 -0.810914 0
M  V30 4259 H 409.581 5.73268 -3.17875 0
M  V30 4260 H 409.101 5.81554 -1.46817 0
M  V30 4261 H 410.78 6.17083 -1.94468 0
M  V30 4262 N 410.912 0.523116 1.48665 0
M  V30 4263 C 411.862 -0.263106 2.26477 0
M  V30 4264 C 412.846 -0.916005 1.32281 0
M  V30 4265 O 414.038 -0.819946 1.56863 0
M  V30 4266 C 411.167 -1.31361 3.17174 0
M  V30 4267 C 410.253 -0.665849 4.1884 0
M  V30 4268 N 410.644 0.244434 5.05209 0
M  V30 4269 C 408.942 -0.923863 4.36326 0
M  V30 4270 C 409.643 0.617443 5.78414 0
M  V30 4271 N 408.619 -0.0198686 5.43596 0
M  V30 4272 H 412.421 0.437295 2.90629 0
M  V30 4273 H 409.935 0.340675 1.58787 0
M  V30 4274 H 411.932 -1.89052 3.71571 0
M  V30 4275 H 410.592 -2.01546 2.54576 0
M  V30 4276 H 411.603 0.616621 5.14216 0
M  V30 4277 H 408.28 -1.6168 3.84923 0
M  V30 4278 H 409.67 1.36346 6.57921 0
M  V30 4279 N 412.39 -1.55475 0.257931 0
M  V30 4280 C 413.62 -2.03314 -0.367026 0
M  V30 4281 C 414.028 -1.13625 -1.51281 0
M  V30 4282 O 413.371 -0.145334 -1.83124 0
M  V30 4283 C 413.433 -3.47362 -0.926284 0
M  V30 4284 C 413.097 -4.56914 0.0886584 0
M  V30 4285 C 414.094 -5.12013 0.902123 0
M  V30 4286 C 411.779 -5.01827 0.217936 0
M  V30 4287 C 413.773 -6.10529 1.83122 0
M  V30 4288 C 411.46 -6.00172 1.15052 0
M  V30 4289 C 412.458 -6.54402 1.95568 0
M  V30 4290 O 412.146 -7.50827 2.87253 0
M  V30 4291 H 411.878 -0.669976 -0.0900443 0
M  V30 4292 H 414.432 -2.01804 0.382673 0
M  V30 4293 H 412.662 -3.46056 -1.72575 0
M  V30 4294 H 414.351 -3.78637 -1.46249 0
M  V30 4295 H 415.117 -4.78139 0.812891 0
M  V30 4296 H 410.996 -4.59272 -0.398721 0
M  V30 4297 H 414.54 -6.52783 2.46008 0
M  V30 4298 H 410.437 -6.33465 1.24064 0
M  V30 4299 H 411.205 -7.68483 2.81739 0
M  V30 4300 N 413.868 0.0150385 -1.57593 0
M  V30 4301 C 415.114 0.704043 -1.90187 0
M  V30 4302 C 415.447 1.74249 -0.857366 0
M  V30 4303 O 414.722 1.94092 0.125843 0
M  V30 4304 C 415.005 1.36087 -3.33395 0
M  V30 4305 C 414.858 0.334981 -4.48551 0
M  V30 4306 C 416.177 2.29112 -3.7576 0
M  V30 4307 H 413.296 0.254475 -0.691673 0
M  V30 4308 H 415.938 -0.0331678 -1.89971 0
M  V30 4309 H 414.088 1.98922 -3.3371 0
M  V30 4310 H 415.76 -0.292534 -4.60372 0
M  V30 4311 H 414.003 -0.344325 -4.32431 0
M  V30 4312 H 414.674 0.833316 -5.45674 0
M  V30 4313 H 417.15 1.76308 -3.76902 0
M  V30 4314 H 416.026 2.72043 -4.76743 0
M  V30 4315 H 416.287 3.16385 -3.08793 0
M  V30 4316 N 415.346 1.54954 0.287554 0
M  V30 4317 C 416.278 1.83224 1.37701 0
M  V30 4318 C 417.291 0.715898 1.46215 0
M  V30 4319 O 418.48 0.993565 1.48292 0
M  V30 4320 C 415.58 1.96723 2.75959 0
M  V30 4321 C 414.753 3.27253 2.90215 0
M  V30 4322 C 413.812 3.30998 4.09056 0
M  V30 4323 O 412.838 4.04457 4.00503 0
M  V30 4324 N 414.04 2.57353 5.20336 0
M  V30 4325 H 416.805 2.77254 1.138 0
M  V30 4326 H 414.366 1.54694 0.477652 0
M  V30 4327 H 416.358 1.96615 3.5373 0
M  V30 4328 H 414.928 1.09626 2.92747 0
M  V30 4329 H 414.148 3.40022 1.99447 0
M  V30 4330 H 415.436 4.13365 2.96659 0
M  V30 4331 H 414.834 1.97327 5.30169 0
M  V30 4332 H 413.391 2.62984 5.96391 0
M  V30 4333 N 416.824 -0.551391 1.4764 0
M  V30 4334 C 417.771 -1.65796 1.60563 0
M  V30 4335 C 418.741 -1.59932 0.448428 0
M  V30 4336 O 419.926 -1.78679 0.669222 0
M  V30 4337 C 417.066 -3.04108 1.63133 0
M  V30 4338 C 416.179 -3.20365 2.89811 0
M  V30 4339 C 415.314 -4.49109 2.8368 0
M  V30 4340 C 414.353 -4.58819 4.05156 0
M  V30 4341 N 413.49 -5.78926 3.97227 0
M  V30 4342 H 418.33 -1.54088 2.5507 0
M  V30 4343 H 415.867 -0.75052 1.26513 0
M  V30 4344 H 417.825 -3.84207 1.62606 0
M  V30 4345 H 416.455 -3.14637 0.721341 0
M  V30 4346 H 415.507 -2.33659 3.00179 0
M  V30 4347 H 416.819 -3.23402 3.79753 0
M  V30 4348 H 415.973 -5.37475 2.81434 0
M  V30 4349 H 414.712 -4.4856 1.91431 0
M  V30 4350 H 413.717 -3.68864 4.077 0
M  V30 4351 H 414.942 -4.61124 4.98539 0
M  V30 4352 H 412.888 -5.79314 3.07785 0
M  V30 4353 H 412.805 -5.83367 4.80853 0
M  V30 4354 H 414.073 -6.69637 3.99007 0
M  V30 4355 N 418.302 -1.35869 -0.798587 0
M  V30 4356 C 419.53 -1.32722 -1.58722 0
M  V30 4357 C 419.945 0.0935631 -1.88568 0
M  V30 4358 O 419.302 1.04784 -1.49421 0
M  V30 4359 C 419.353 -2.13974 -2.91371 0
M  V30 4360 O 419.074 -3.50514 -2.62815 0
M  V30 4361 C 420.575 -2.18504 -3.85708 0
M  V30 4362 H 417.795 -0.45562 -0.492596 0
M  V30 4363 H 420.339 -1.78837 -0.991843 0
M  V30 4364 H 418.494 -1.71438 -3.47402 0
M  V30 4365 H 418.908 -3.92806 -3.47568 0
M  V30 4366 H 420.382 -2.79732 -4.75872 0
M  V30 4367 H 420.859 -1.18597 -4.22885 0
M  V30 4368 H 421.465 -2.61236 -3.35612 0
M  V30 4369 N 419.78 1.02168 -1.19998 0
M  V30 4370 C 421.026 1.75945 -1.00852 0
M  V30 4371 C 421.359 1.88702 0.458828 0
M  V30 4372 O 420.634 1.40911 1.34069 0
M  V30 4373 C 420.917 3.18154 -1.68671 0
M  V30 4374 C 420.77 3.13224 -3.22817 0
M  V30 4375 C 422.089 4.16711 -1.41561 0
M  V30 4376 H 419.208 0.638673 -0.367785 0
M  V30 4377 H 421.85 1.19222 -1.4794 0
M  V30 4378 H 420 3.66586 -1.28636 0
M  V30 4379 H 421.672 2.72635 -3.72112 0
M  V30 4380 H 419.915 2.50751 -3.53986 0
M  V30 4381 H 420.586 4.13728 -3.65422 0
M  V30 4382 H 423.062 3.76913 -1.76284 0
M  V30 4383 H 421.938 5.14391 -1.91553 0
M  V30 4384 H 422.199 4.40774 -0.342193 0
M  V30 4385 N 421.258 1.00505 1.21394 0
M  V30 4386 C 422.205 0.565496 2.23765 0
M  V30 4387 C 423.175 -0.408466 1.60999 0
M  V30 4388 O 424.36 -0.310503 1.88257 0
M  V30 4389 C 421.5 -0.101667 3.4495 0
M  V30 4390 C 420.613 0.915479 4.22188 0
M  V30 4391 C 419.748 0.220574 5.30742 0
M  V30 4392 C 418.787 1.22527 5.99711 0
M  V30 4393 N 417.924 0.557831 6.9988 0
M  V30 4394 H 422.764 1.44314 2.60725 0
M  V30 4395 H 420.301 0.722643 1.28126 0
M  V30 4396 H 422.259 -0.505504 4.14126 0
M  V30 4397 H 420.889 -0.94303 3.08718 0
M  V30 4398 H 419.941 1.43756 3.52191 0
M  V30 4399 H 421.253 1.68005 4.69655 0
M  V30 4400 H 420.407 -0.239368 6.06228 0
M  V30 4401 H 419.146 -0.576401 4.84282 0
M  V30 4402 H 418.151 1.69571 5.22997 0
M  V30 4403 H 419.376 2.02332 6.48258 0
M  V30 4404 H 417.322 -0.219486 6.55633 0
M  V30 4405 H 417.239 1.26065 7.45415 0
M  V30 4406 H 418.507 0.121095 7.79406 0
M  V30 4407 N 422.737 -1.36956 0.779787 0
M  V30 4408 C 423.647 -2.33965 0.172491 0
M  V30 4409 C 424.663 -1.60574 -0.670222 0
M  V30 4410 O 425.839 -1.92617 -0.588263 0
M  V30 4411 C 422.904 -3.39761 -0.690173 0
M  V30 4412 C 421.965 -4.28964 0.169924 0
M  V30 4413 C 421.198 -5.29707 -0.651662 0
M  V30 4414 O 421.421 -5.38238 -1.88827 0
M  V30 4415 O 420.355 -6.01873 -0.0566264 0
M  V30 4416 H 424.181 -2.87647 0.974321 0
M  V30 4417 H 421.766 -1.39258 0.541078 0
M  V30 4418 H 423.648 -4.04471 -1.1824 0
M  V30 4419 H 422.323 -2.88394 -1.47006 0
M  V30 4420 H 421.23 -3.67326 0.708696 0
M  V30 4421 H 422.563 -4.83656 0.913085 0
M  V30 4422 N 424.215 -0.530993 -1.48385 0
M  V30 4423 C 425.162 0.231223 -2.29639 0
M  V30 4424 C 426.132 0.932864 -1.37429 0
M  V30 4425 O 427.317 0.933692 -1.66394 0
M  V30 4426 C 424.457 1.27155 -3.2082 0
M  V30 4427 C 423.57 0.578655 -4.28107 0
M  V30 4428 C 422.705 1.602 -5.06467 0
M  V30 4429 C 421.744 0.892625 -6.05556 0
M  V30 4430 N 420.881 1.86157 -6.76971 0
M  V30 4431 H 425.721 -0.467848 -2.94305 0
M  V30 4432 H 423.258 -0.242556 -1.45086 0
M  V30 4433 H 425.216 1.88703 -3.72085 0
M  V30 4434 H 423.846 1.939 -2.58075 0
M  V30 4435 H 422.898 -0.150782 -3.80101 0
M  V30 4436 H 424.21 0.0217065 -4.98795 0
M  V30 4437 H 423.364 2.29173 -5.61751 0
M  V30 4438 H 422.103 2.19285 -4.35621 0
M  V30 4439 H 421.108 0.188829 -5.49476 0
M  V30 4440 H 422.333 0.307878 -6.78402 0
M  V30 4441 H 420.279 2.44147 -6.08875 0
M  V30 4442 H 420.196 1.35608 -7.43738 0
M  V30 4443 H 421.464 2.54325 -7.36844 0
M  V30 4444 N 425.693 1.55336 -0.266172 0
M  V30 4445 C 426.94 1.99397 0.353158 0
M  V30 4446 C 427.268 1.15451 1.56529 0
M  V30 4447 O 426.523 0.209974 1.9457 0
M  V30 4448 C 426.822 3.48606 0.787957 0
M  V30 4449 C 426.488 4.49773 -0.318541 0
M  V30 4450 C 425.15 4.77158 -0.62239 0
M  V30 4451 C 427.502 5.10212 -1.06459 0
M  V30 4452 C 424.83 5.62251 -1.67602 0
M  V30 4453 C 427.182 5.96449 -2.10788 0
M  V30 4454 C 425.846 6.22158 -2.41817 0
M  V30 4455 H 425.116 0.729644 0.12923 0
M  V30 4456 H 427.763 1.87732 -0.37802 0
M  V30 4457 H 426.068 3.57701 1.59866 0
M  V30 4458 H 427.765 3.80098 1.27775 0
M  V30 4459 H 424.355 4.2854 -0.0715925 0
M  V30 4460 H 428.539 4.89086 -0.843098 0
M  V30 4461 H 423.795 5.80419 -1.92155 0
M  V30 4462 H 427.969 6.42317 -2.69076 0
M  V30 4463 H 425.596 6.87888 -3.23596 0
M  V30 4464 N 427.171 -0.0066808 1.57599 0
M  V30 4465 C 428.419 -0.691552 1.899 0
M  V30 4466 C 428.74 -1.74682 0.866672 0
M  V30 4467 O 428.01 -1.95661 -0.0968189 0
M  V30 4468 H 426.59 -0.258416 0.700878 0
M  V30 4469 H 429.252 0.0326655 1.94873 0
M  V30 4470 H 428.348 -1.16702 2.8946 0
M  V30 4471 N 428.649 -1.55105 -0.279332 0
M  V30 4472 C 429.898 -1.74618 -1.00952 0
M  V30 4473 C 430.211 -0.551096 -1.87676 0
M  V30 4474 O 431.417 -0.628507 -2.64125 0
M  V30 4475 C 429.873 -3.09025 -1.84476 0
M  V30 4476 C 429.481 -4.36081 -1.0265 0
M  V30 4477 C 431.225 -3.37891 -2.56963 0
M  V30 4478 C 429.132 -5.6153 -1.85576 0
M  V30 4479 H 428.062 -0.650868 -0.38064 0
M  V30 4480 H 430.713 -1.81569 -0.265475 0
M  V30 4481 H 429.095 -2.96095 -2.62952 0
M  V30 4482 H 430.269 -4.59909 -0.286354 0
M  V30 4483 H 428.584 -4.14312 -0.416464 0
M  V30 4484 H 431.181 -4.28822 -3.19399 0
M  V30 4485 H 431.524 -2.57737 -3.26921 0
M  V30 4486 H 432.057 -3.5189 -1.85522 0
M  V30 4487 H 428.796 -6.44413 -1.2005 0
M  V30 4488 H 428.316 -5.41854 -2.57204 0
M  V30 4489 H 429.995 -5.99594 -2.43096 0
M  V30 4490 N 430.127 0.543554 -1.4793 0
M  V30 4491 C 431.037 1.67657 -1.64098 0
M  V30 4492 C 432.053 1.65934 -0.523622 0
M  V30 4493 O 433.229 1.85133 -0.792943 0
M  V30 4494 C 430.294 3.04146 -1.66421 0
M  V30 4495 C 429.355 3.16831 -2.89684 0
M  V30 4496 C 428.588 4.46809 -2.91886 0
M  V30 4497 O 428.811 5.33095 -2.02895 0
M  V30 4498 O 427.745 4.63573 -3.83906 0
M  V30 4499 H 431.571 1.56957 -2.59997 0
M  V30 4500 H 429.156 0.715116 -1.31173 0
M  V30 4501 H 431.038 3.85346 -1.70548 0
M  V30 4502 H 429.713 3.152 -0.736923 0
M  V30 4503 H 428.62 2.34977 -2.91095 0
M  V30 4504 H 429.953 3.10687 -3.81752 0
M  V30 4505 N 431.605 1.3629 0.791371 0
M  V30 4506 C 432.535 1.33137 1.91825 0
M  V30 4507 C 433.516 0.203168 1.68882 0
M  V30 4508 O 434.701 0.400509 1.90025 0
M  V30 4509 C 431.831 1.11793 3.28816 0
M  V30 4510 C 430.785 2.21417 3.66277 0
M  V30 4511 C 430.111 1.85218 5.01596 0
M  V30 4512 C 431.411 3.63489 3.75064 0
M  V30 4513 H 433.105 2.2743 1.9472 0
M  V30 4514 H 430.651 1.09479 0.935437 0
M  V30 4515 H 432.604 1.08222 4.07266 0
M  V30 4516 H 431.328 0.139501 3.26302 0
M  V30 4517 H 429.987 2.2411 2.90121 0
M  V30 4518 H 429.635 0.859544 4.95602 0
M  V30 4519 H 429.335 2.58611 5.27631 0
M  V30 4520 H 430.859 1.832 5.82469 0
M  V30 4521 H 432.273 3.63034 4.43711 0
M  V30 4522 H 430.67 4.35771 4.12582 0
M  V30 4523 H 431.74 3.98536 2.76219 0
M  V30 4524 N 433.083 -1.0153 1.20538 0
M  V30 4525 C 434.031 -2.12215 0.952235 0
M  V30 4526 C 435.025 -1.69123 -0.0968735 0
M  V30 4527 O 436.231 -1.7992 0.0536006 0
M  V30 4528 H 432.606 -0.693576 0.290613 0
M  V30 4529 H 434.577 -2.3075 1.89201 0
M  V30 4530 C 433.326 -3.43755 0.522287 0
M  V30 4531 H 432.649 -3.7734 1.32115 0
M  V30 4532 H 434.089 -4.22254 0.384389 0
M  V30 4533 C 432.548 -3.28088 -0.765489 0
M  V30 4534 O 433.078 -3.57921 -1.8236 0
M  V30 4535 N 431.284 -2.81333 -0.728011 0
M  V30 4536 H 430.831 -2.57255 0.133332 0
M  V30 4537 H 430.789 -2.71232 -1.58999 0
M  V30 4538 N 434.561 -1.01147 -1.20859 0
M  V30 4539 C 435.977 -0.725422 -1.42161 0
M  V30 4540 C 436.177 0.696919 -1.89064 0
M  V30 4541 O 435.233 1.46539 -2.05627 0
M  V30 4542 C 436.546 -1.74678 -2.44761 0
M  V30 4543 C 438.094 -1.76433 -2.58535 0
M  V30 4544 C 438.569 -2.77481 -3.64374 0
M  V30 4545 N 440.06 -2.76189 -3.71852 0
M  V30 4546 C 440.795 -3.51035 -4.53389 0
M  V30 4547 N 440.291 -4.35541 -5.38773 0
M  V30 4548 N 442.084 -3.39655 -4.47873 0
M  V30 4549 H 434.235 -1.92979 -0.887282 0
M  V30 4550 H 436.498 -0.833327 -0.451962 0
M  V30 4551 H 436.204 -2.76551 -2.17285 0
M  V30 4552 H 436.078 -1.55472 -3.43669 0
M  V30 4553 H 438.465 -0.75248 -2.85345 0
M  V30 4554 H 438.546 -1.99712 -1.5984 0
M  V30 4555 H 438.19 -3.78827 -3.38308 0
M  V30 4556 H 438.12 -2.51466 -4.6268 0
M  V30 4557 H 440.611 -2.14885 -3.10858 0
M  V30 4558 H 440.924 -4.89432 -5.98061 0
M  V30 4559 H 439.269 -4.39621 -5.38292 0
M  V30 4560 H 442.46 -2.73063 -3.80203 0
M  V30 4561 H 442.633 -3.9824 -5.11184 0
M  V30 4562 N 436.039 1.36541 -0.78704 0
M  V30 4563 C 436.949 2.3387 -0.184896 0
M  V30 4564 C 437.965 1.60927 0.661697 0
M  V30 4565 O 439.141 1.92927 0.57804 0
M  V30 4566 C 436.206 3.40122 0.672145 0
M  V30 4567 C 435.267 4.28867 -0.19267 0
M  V30 4568 C 434.5 5.30045 0.623561 0
M  V30 4569 O 434.723 5.39232 1.8597 0
M  V30 4570 O 433.657 6.01895 0.0247068 0
M  V30 4571 H 437.483 2.87126 -0.989562 0
M  V30 4572 H 435.068 1.38969 -0.548455 0
M  V30 4573 H 436.95 4.05093 1.16094 0
M  V30 4574 H 435.625 2.89169 1.45474 0
M  V30 4575 H 434.532 3.66945 -0.728166 0
M  V30 4576 H 435.865 4.83165 -0.938722 0
M  V30 4577 N 437.518 0.538854 1.48102 0
M  V30 4578 C 438.764 0.00801365 2.02798 0
M  V30 4579 C 439.097 -1.3309 1.41424 0
M  V30 4580 O 438.372 -1.86169 0.563158 0
M  V30 4581 C 438.655 -0.104589 3.59948 0
M  V30 4582 C 438.508 1.26012 4.31788 0
M  V30 4583 C 439.827 -0.827055 4.32259 0
M  V30 4584 H 436.946 0.00438624 0.736987 0
M  V30 4585 H 439.588 0.6976 1.7673 0
M  V30 4586 H 437.738 -0.691893 3.82289 0
M  V30 4587 H 439.41 1.88922 4.2084 0
M  V30 4588 H 437.653 1.83968 3.92859 0
M  V30 4589 H 438.324 1.13424 5.40221 0
M  V30 4590 H 440.8 -0.328578 4.14801 0
M  V30 4591 H 439.676 -0.87476 5.41885 0
M  V30 4592 H 439.937 -1.87927 4.0017 0
M  V30 4593 N 438.996 -1.55193 0.274407 0
M  V30 4594 C 440.412 -1.59401 -0.0797543 0
M  V30 4595 C 440.612 -1.29162 -1.54659 0
M  V30 4596 O 439.668 -1.05215 -2.29534 0
M  V30 4597 C 440.981 -2.99257 0.294238 0
M  V30 4598 C 442.529 -3.12072 0.240796 0
M  V30 4599 C 443.004 -4.54194 0.589218 0
M  V30 4600 N 444.495 -4.60033 0.540744 0
M  V30 4601 C 445.23 -5.68027 0.783147 0
M  V30 4602 N 444.726 -6.8417 1.09013 0
M  V30 4603 N 446.519 -5.57572 0.711993 0
M  V30 4604 H 438.67 -1.73113 1.23067 0
M  V30 4605 H 440.933 -0.807197 0.497129 0
M  V30 4606 H 440.639 -3.26217 1.31435 0
M  V30 4607 H 440.513 -3.75427 -0.365281 0
M  V30 4608 H 442.9 -2.84877 -0.770024 0
M  V30 4609 H 442.981 -2.38117 0.934563 0
M  V30 4610 H 442.625 -4.82115 1.59772 0
M  V30 4611 H 442.555 -5.26448 -0.126331 0
M  V30 4612 H 445.046 -3.76599 0.313327 0
M  V30 4613 H 445.359 -7.6243 1.26178 0
M  V30 4614 H 443.704 -6.85787 1.12789 0
M  V30 4615 H 446.895 -4.65714 0.472014 0
M  V30 4616 H 447.068 -6.41659 0.90429 0
M  V30 4617 N 440.474 -0.00167713 -1.576 0
M  V30 4618 C 441.723 0.682021 -1.89819 0
M  V30 4619 C 442.036 1.74844 -0.876871 0
M  V30 4620 O 443.242 2.48688 -1.08934 0
M  V30 4621 C 441.698 1.26425 -3.36964 0
M  V30 4622 C 441.306 0.232568 -4.47396 0
M  V30 4623 C 443.05 1.92604 -3.78291 0
M  V30 4624 C 440.957 0.824882 -5.85619 0
M  V30 4625 H 439.887 0.258499 -0.708304 0
M  V30 4626 H 442.538 -0.0624957 -1.83394 0
M  V30 4627 H 440.92 2.05949 -3.38232 0
M  V30 4628 H 442.094 -0.5382 -4.57646 0
M  V30 4629 H 440.409 -0.32888 -4.15099 0
M  V30 4630 H 443.006 2.37827 -4.78897 0
M  V30 4631 H 443.349 2.75732 -3.11894 0
M  V30 4632 H 443.882 1.19812 -3.79328 0
M  V30 4633 H 440.621 0.0323542 -6.55492 0
M  V30 4634 H 440.141 1.56477 -5.79029 0
M  V30 4635 H 441.82 1.32301 -6.33329 0
M  V30 4636 N 441.952 1.55251 0.271103 0
M  V30 4637 C 443.201 1.75151 1.00025 0
M  V30 4638 C 443.514 0.561041 1.87381 0
M  V30 4639 O 444.72 0.642506 2.63788 0
M  V30 4640 C 443.176 3.09999 1.82835 0
M  V30 4641 C 442.784 4.3662 1.00336 0
M  V30 4642 C 444.528 3.39249 2.55168 0
M  V30 4643 C 442.435 5.62506 1.82595 0
M  V30 4644 H 441.365 0.652877 0.377183 0
M  V30 4645 H 444.016 1.81708 0.255843 0
M  V30 4646 H 442.398 2.97485 2.61378 0
M  V30 4647 H 443.572 4.60055 0.261959 0
M  V30 4648 H 441.887 4.14527 0.394486 0
M  V30 4649 H 444.484 4.3051 3.1712 0
M  V30 4650 H 444.827 2.59467 3.2555 0
M  V30 4651 H 445.36 3.52869 1.83653 0
M  V30 4652 H 442.099 6.45041 1.16631 0
M  V30 4653 H 441.619 5.43211 2.54327 0
M  V30 4654 H 443.298 6.00875 2.39913 0
M  V30 4655 N 443.43 -0.535701 1.48216 0
M  V30 4656 C 444.678 -1.28928 1.55634 0
M  V30 4657 C 444.999 -1.93645 0.229514 0
M  V30 4658 O 444.269 -1.81038 -0.74846 0
M  V30 4659 H 442.849 -0.47884 0.573342 0
M  V30 4660 H 445.511 -0.623853 1.84646 0
M  V30 4661 H 444.607 -2.07157 2.33436 0
M  V30 4662 N 444.908 -1.36708 -0.784132 0
M  V30 4663 C 445.818 -1.3363 -1.92822 0
M  V30 4664 C 446.834 -0.237686 -1.72369 0
M  V30 4665 O 448.01 -0.470962 -1.95816 0
M  V30 4666 C 445.075 -1.13011 -3.27764 0
M  V30 4667 C 444.136 -2.32397 -3.60957 0
M  V30 4668 C 443.369 -2.12752 -4.89461 0
M  V30 4669 O 443.592 -1.10541 -5.59586 0
M  V30 4670 O 442.526 -3.00653 -5.21432 0
M  V30 4671 H 446.352 -2.29964 -1.98369 0
M  V30 4672 H 443.937 -1.1731 -0.925136 0
M  V30 4673 H 445.819 -1.03451 -4.08504 0
M  V30 4674 H 444.494 -0.19743 -3.23097 0
M  V30 4675 H 443.401 -2.47527 -2.80502 0
M  V30 4676 H 444.734 -3.2419 -3.70354 0
M  V30 4677 N 446.386 1.0089 -1.21074 0
M  V30 4678 C 447.336 2.0799 -0.934034 0
M  V30 4679 C 448.32 1.60529 0.10919 0
M  V30 4680 O 449.512 1.76722 -0.0992198 0
M  V30 4681 C 446.641 3.39693 -0.496334 0
M  V30 4682 C 445.727 3.93833 -1.57341 0
M  V30 4683 N 446.118 4.21388 -2.7976 0
M  V30 4684 C 444.416 4.22067 -1.44137 0
M  V30 4685 C 445.117 4.65156 -3.49292 0
M  V30 4686 N 444.093 4.67895 -2.76722 0
M  V30 4687 H 447.895 2.27213 -1.86417 0
M  V30 4688 H 445.409 1.18927 -1.10589 0
M  V30 4689 H 447.406 4.15962 -0.279471 0
M  V30 4690 H 446.066 3.21879 0.427084 0
M  V30 4691 H 447.077 4.10061 -3.1634 0
M  V30 4692 H 443.754 4.1341 -0.582947 0
M  V30 4693 H 445.144 4.95231 -4.54088 0
M  V30 4694 N 447.864 1.01787 1.20321 0
M  V30 4695 C 449.275 0.739307 1.71438 0
M  V30 4696 C 449.626 -0.742041 1.81627 0
M  V30 4697 O 448.751 -1.57903 1.47971 0
M  V30 4698 C 449.346 1.33538 3.11373 0
M  V30 4699 C 447.905 1.10566 3.59795 0
M  V30 4700 C 447.052 1.44028 2.36962 0
M  V30 4701 H 450.003 1.18718 1.05317 0
M  V30 4702 H 450.024 0.726611 3.73498 0
M  V30 4703 H 449.536 2.41352 3.03926 0
M  V30 4704 H 447.637 0.0452405 3.72573 0
M  V30 4705 H 447.75 1.78661 4.44542 0
M  V30 4706 H 446.114 0.85933 2.39766 0
M  V30 4707 H 446.897 2.52901 2.32155 0
M  V30 4708 N 449.342 -1.36122 0.79427 0
M  V30 4709 C 450.289 -2.29982 0.194101 0
M  V30 4710 C 451.259 -1.52214 -0.664833 0
M  V30 4711 O 452.444 -1.80702 -0.612498 0
M  V30 4712 C 449.584 -3.38706 -0.661244 0
M  V30 4713 C 448.697 -4.31456 0.216766 0
M  V30 4714 C 447.832 -5.27265 -0.645411 0
M  V30 4715 C 446.871 -6.11653 0.233756 0
M  V30 4716 N 446.008 -6.99636 -0.587682 0
M  V30 4717 H 450.848 -2.80722 0.999965 0
M  V30 4718 H 448.385 -1.38172 0.504677 0
M  V30 4719 H 450.343 -4.00394 -1.17219 0
M  V30 4720 H 448.973 -2.89274 -1.43249 0
M  V30 4721 H 448.025 -3.7088 0.845724 0
M  V30 4722 H 449.337 -4.90724 0.893973 0
M  V30 4723 H 448.491 -5.94266 -1.22198 0
M  V30 4724 H 447.23 -4.68463 -1.35623 0
M  V30 4725 H 446.235 -5.4361 0.82269 0
M  V30 4726 H 447.46 -6.72531 0.942247 0
M  V30 4727 H 445.406 -6.43337 -1.2827 0
M  V30 4728 H 445.323 -7.55993 0.0317402 0
M  V30 4729 H 446.591 -7.71001 -1.14792 0
M  V30 4730 N 450.82 -0.546701 -1.47814 0
M  V30 4731 C 451.73 0.21026 -2.33656 0
M  V30 4732 C 452.746 0.922413 -1.47538 0
M  V30 4733 O 453.922 0.893652 -1.80488 0
M  V30 4734 C 450.987 1.23348 -3.24016 0
M  V30 4735 C 450.048 0.529883 -4.26017 0
M  V30 4736 C 449.281 1.50435 -5.12059 0
M  V30 4737 O 449.504 2.73837 -5.00369 0
M  V30 4738 O 448.438 1.03459 -5.92942 0
M  V30 4739 H 452.264 -0.493605 -2.99662 0
M  V30 4740 H 449.849 -0.307427 -1.46203 0
M  V30 4741 H 451.731 1.82438 -3.79861 0
M  V30 4742 H 450.406 1.91945 -2.60651 0
M  V30 4743 H 449.313 -0.101948 -3.73961 0
M  V30 4744 H 450.646 -0.11445 -4.92067 0
M  V30 4745 N 452.299 1.55045 -0.282633 0
M  V30 4746 C 453.524 2.04628 0.337977 0
M  V30 4747 C 453.949 1.15937 1.48123 0
M  V30 4748 O 453.307 0.159532 1.80597 0
M  V30 4749 C 453.355 3.51854 0.78936 0
M  V30 4750 O 452.459 3.66236 1.89592 0
M  V30 4751 H 451.8 0.660434 0.0687261 0
M  V30 4752 H 454.33 2.00261 -0.419124 0
M  V30 4753 H 454.34 3.93361 1.08311 0
M  V30 4754 H 453.015 4.15873 -0.0470419 0
M  V30 4755 H 451.592 3.36633 1.60413 0
M  V30 4756 O 453.816 0.148543 1.60815 0
M  V30 4757 H 454.507 -0.445161 1.88515 0
M  V30 END ATOM
M  V30 BEGIN BOND
M  V30 END BOND
M  V30 END CTAB
M  END
$$$$
