drugbank_target|P61497 Deoxyribodipyrimidine photo-lyase (DB03147; DB03462)
 OpenBabel12092120023D

  0  0  0     0  0            999 V3000
M  V30 BEGIN CTAB
M  V30 COUNTS 6771 6886 0 0 0
M  V30 BEGIN ATOM
M  V30 1 H -0.908 1.98254 -0.117106 0
M  V30 2 N 0 1.576 0 0
M  V30 3 C 0.933 2.03868 1.02534 0
M  V30 4 C 1.911 0.928543 1.3348 0
M  V30 5 O 3.095 1.19667 1.45644 0
M  V30 6 C 0.222 2.43627 2.35294 0
M  V30 7 C -0.732 3.65373 2.2001 0
M  V30 8 S 0.101 5.13292 1.52614 0
M  V30 9 C 1.257 5.56322 2.86805 0
M  V30 10 H 1.49 2.90518 0.631377 0
M  V30 11 H -0.977 1.52953 0.210867 0
M  V30 12 H 0.981 2.67203 3.11629 0
M  V30 13 H -0.358 1.57376 2.7183 0
M  V30 14 H -1.165 3.90944 3.18086 0
M  V30 15 H -1.563 3.418 1.51819 0
M  V30 16 H 0.729 5.58782 3.83104 0
M  V30 17 H 1.672 6.56266 2.65933 0
M  V30 18 H 2.08 4.83886 2.90714 0
M  V30 19 N 1.4781 -0.272755 1.55222 0
M  V30 20 C 2.7261 -1.00234 1.75492 0
M  V30 21 C 3.0471 -1.8681 0.5592 0
M  V30 22 O 2.3171 -1.91215 -0.425882 0
M  V30 23 H 0.8971 -0.373076 0.647166 0
M  V30 24 H 3.5591 -0.296926 1.92625 0
M  V30 25 H 2.6551 -1.63913 2.65592 0
M  V30 26 N 2.9562 -1.48159 -0.537278 0
M  V30 27 C 4.3672 -1.49429 -1.11928 0
M  V30 28 C 4.7182 -0.26 -1.9447 0
M  V30 29 O 3.8432 0.633489 -2.0692 0
M  V30 30 C 4.4382 -2.70758 -2.03656 0
M  V30 31 C 2.9972 -2.74923 -2.57088 0
M  V30 32 C 2.1442 -2.42835 -1.3389 0
M  V30 33 H 5.0952 -1.55381 -0.322886 0
M  V30 34 H 5.1162 -2.48861 -2.87834 0
M  V30 35 H 4.6282 -3.60575 -1.43553 0
M  V30 36 H 2.7292 -1.89296 -3.20933 0
M  V30 37 H 2.8422 -3.76157 -2.9672 0
M  V30 38 H 1.2062 -1.93836 -1.65226 0
M  V30 39 H 1.9892 -3.34884 -0.755504 0
M  V30 40 N 4.4343 0.785586 -1.36625 0
M  V30 41 C 5.3643 1.91259 -1.33949 0
M  V30 42 C 6.3453 1.68795 -0.210325 0
M  V30 43 O 7.5303 1.89854 -0.408561 0
M  V30 44 C 4.6603 3.28339 -1.13186 0
M  V30 45 C 3.6143 3.65335 -2.22967 0
M  V30 46 C 2.9403 5.00806 -1.87342 0
M  V30 47 C 4.2403 3.7352 -3.65075 0
M  V30 48 H 5.9343 1.93755 -2.28253 0
M  V30 49 H 3.4803 0.930788 -1.09874 0
M  V30 50 H 5.4333 4.06804 -1.09948 0
M  V30 51 H 4.1573 3.2624 -0.153332 0
M  V30 52 H 2.8163 2.89169 -2.25337 0
M  V30 53 H 2.4643 4.95233 -0.880545 0
M  V30 54 H 2.1643 5.26529 -2.60846 0
M  V30 55 H 3.6883 5.81687 -1.85667 0
M  V30 56 H 5.1023 4.42168 -3.64911 0
M  V30 57 H 3.4993 4.10731 -4.37516 0
M  V30 58 H 4.5693 2.74527 -3.99703 0
M  V30 59 N 5.9124 1.20967 1.01018 0
M  V30 60 C 6.8424 0.988272 2.11555 0
M  V30 61 C 7.8234 -0.0849778 1.69888 0
M  V30 62 O 9.0084 0.0738202 1.9406 0
M  V30 63 C 6.1384 0.546528 3.42973 0
M  V30 64 C 5.0924 1.56375 3.9841 0
M  V30 65 C 4.4184 0.97842 5.25672 0
M  V30 66 C 5.7184 2.94922 4.31066 0
M  V30 67 H 7.4124 1.91276 2.30334 0
M  V30 68 H 4.9584 0.921073 1.1069 0
M  V30 69 H 6.9114 0.378839 4.19694 0
M  V30 70 H 5.6354 -0.413598 3.23971 0
M  V30 71 H 4.2944 1.71891 3.23804 0
M  V30 72 H 3.9424 0.0101688 5.02999 0
M  V30 73 H 3.6424 1.65784 5.63728 0
M  V30 74 H 5.1664 0.821939 6.05043 0
M  V30 75 H 6.5804 2.8288 4.9865 0
M  V30 76 H 4.9774 3.5983 4.80253 0
M  V30 77 H 6.0474 3.4616 3.39561 0
M  V30 78 N 7.3905 -1.2043 1.01659 0
M  V30 79 C 8.6365 -1.90079 0.706963 0
M  V30 80 C 8.9695 -1.78648 -0.761474 0
M  V30 81 O 8.2445 -1.17069 -1.55323 0
M  V30 82 C 8.5275 -3.41469 1.14327 0
M  V30 83 C 8.3805 -3.61833 2.67201 0
M  V30 84 C 9.6995 -4.34261 0.714529 0
M  V30 85 H 6.8185 -0.690254 0.2583 0
M  V30 86 H 9.4605 -1.41826 1.26433 0
M  V30 87 H 7.6105 -3.82696 0.669056 0
M  V30 88 H 9.2825 -3.2986 3.22475 0
M  V30 89 H 7.5255 -3.05304 3.08175 0
M  V30 90 H 8.1965 -4.67955 2.92783 0
M  V30 91 H 10.6725 -4.00682 1.12221 0
M  V30 92 H 9.5485 -5.38806 1.04784 0
M  V30 93 H 9.8095 -4.40431 -0.383799 0
M  V30 94 N 8.8686 -0.792821 -1.36206 0
M  V30 95 C 10.1146 -0.376415 -1.99887 0
M  V30 96 C 10.4696 1.04127 -1.61788 0
M  V30 97 O 9.7626 1.71004 -0.864193 0
M  V30 98 C 9.9566 -0.481501 -3.54142 0
M  V30 99 C 9.7856 -1.90786 -4.07223 0
M  V30 100 C 8.5556 -2.53322 -4.37214 0
M  V30 101 C 10.7536 -2.87048 -4.26741 0
M  V30 102 N 8.7356 -3.8751 -4.7614 0
M  V30 103 C 10.1066 -4.06077 -4.6851 0
M  V30 104 C 12.1616 -2.8406 -4.08918 0
M  V30 105 C 10.8646 -5.22532 -4.94321 0
M  V30 106 C 12.8906 -3.99705 -4.35878 0
M  V30 107 C 12.2526 -5.1748 -4.77906 0
M  V30 108 H 8.3516 -0.185226 -0.759747 0
M  V30 109 H 10.9356 -1.03114 -1.65153 0
M  V30 110 H 9.1066 0.143154 -3.88136 0
M  V30 111 H 10.8386 -0.0410128 -4.04679 0
M  V30 112 H 7.5936 -2.04777 -4.2704 0
M  V30 113 H 8.0176 -4.5656 -4.99882 0
M  V30 114 H 12.6596 -1.94165 -3.75579 0
M  V30 115 H 10.3776 -6.1301 -5.2654 0
M  V30 116 H 13.9636 -3.98758 -4.23655 0
M  V30 117 H 12.8436 -6.05478 -4.98363 0
M  V30 118 N 10.3467 1.47872 -0.545128 0
M  V30 119 C 11.2967 2.26842 0.229456 0
M  V30 120 C 12.2807 1.33626 0.896267 0
M  V30 121 O 13.4727 1.58063 0.79657 0
M  V30 122 C 10.6017 3.19089 1.26638 0
M  V30 123 C 9.6877 4.19783 0.603598 0
M  V30 124 N 10.0787 5.0479 -0.319405 0
M  V30 125 C 8.3767 4.3765 0.858989 0
M  V30 126 C 9.0777 5.77433 -0.703241 0
M  V30 127 N 8.0537 5.43566 -0.0608309 0
M  V30 128 H 11.8557 2.89947 -0.480391 0
M  V30 129 H 9.3697 1.58263 -0.364209 0
M  V30 130 H 11.3667 3.74337 1.83515 0
M  V30 131 H 10.0267 2.5754 1.97745 0
M  V30 132 H 11.0377 5.13244 -0.692889 0
M  V30 133 H 7.7147 3.87281 1.55948 0
M  V30 134 H 9.1047 6.55824 -1.46098 0
M  V30 135 N 11.8248 0.280983 1.55075 0
M  V30 136 C 13.2408 -0.0729964 1.59433 0
M  V30 137 C 13.4408 -1.5411 1.29817 0
M  V30 138 O 12.4968 -2.29086 1.06187 0
M  V30 139 C 13.8098 0.306921 2.9913 0
M  V30 140 C 15.3578 0.254023 3.11968 0
M  V30 141 C 15.8328 0.608467 4.5394 0
M  V30 142 N 17.3238 0.560241 4.59799 0
M  V30 143 C 18.0588 0.80722 5.6769 0
M  V30 144 N 17.5548 1.11912 6.83701 0
M  V30 145 N 19.3478 0.735623 5.57266 0
M  V30 146 H 11.4988 1.238 1.7259 0
M  V30 147 H 13.7618 0.500547 0.805082 0
M  V30 148 H 13.4678 1.32816 3.25657 0
M  V30 149 H 13.3418 -0.349363 3.75579 0
M  V30 150 H 15.7288 -0.75794 2.852 0
M  V30 151 H 15.8098 0.944649 2.37718 0
M  V30 152 H 15.4538 1.61814 4.81434 0
M  V30 153 H 15.3838 -0.104013 5.26497 0
M  V30 154 H 17.8748 0.329288 3.76463 0
M  V30 155 H 18.1878 1.29409 7.61888 0
M  V30 156 H 16.5328 1.15695 6.85303 0
M  V30 157 H 19.7238 0.491752 4.6551 0
M  V30 158 H 19.8968 0.931482 6.4127 0
M  V30 159 N 13.3029 -1.57598 0.00835791 0
M  V30 160 C 14.5509 -1.90551 -0.6734 0
M  V30 161 C 14.8719 -0.883301 -1.73847 0
M  V30 162 O 14.1419 0.0781442 -1.95744 0
M  V30 163 H 12.7219 -0.703312 -0.251717 0
M  V30 164 H 15.3839 -1.94833 0.0512592 0
M  V30 165 H 14.4799 -2.9056 -1.13935 0
M  V30 166 N 14.781 0.264519 -1.55364 0
M  V30 167 C 16.058 1.01677 -1.67096 0
M  V30 168 C 16.438 2.03996 -0.543015 0
M  V30 169 O 15.786 2.23907 0.45585 0
M  V30 170 C 15.996 1.66596 -3.0667 0
M  V30 171 C 17.344 2.17442 -3.64697 0
M  V30 172 O 18.368 1.76568 -3.09358 0
M  V30 173 O 17.227 2.92439 -4.61673 0
M  V30 174 H 14.321 0.472161 -0.678965 0
M  V30 175 H 16.867 0.259703 -1.67701 0
M  V30 176 H 15.639 0.924962 -3.80211 0
M  V30 177 H 15.262 2.48968 -3.10001 0
M  V30 178 N 16.2591 1.48442 0.529413 0
M  V30 179 C 17.1891 1.65902 1.64313 0
M  V30 180 C 18.1701 0.507897 1.6234 0
M  V30 181 O 19.3551 0.740503 1.79528 0
M  V30 182 C 16.4851 1.69911 3.02898 0
M  V30 183 C 15.4391 2.8453 3.19729 0
M  V30 184 C 14.7651 2.73629 4.59381 0
M  V30 185 C 16.0651 4.25821 3.02447 0
M  V30 186 H 17.7591 2.5914 1.49955 0
M  V30 187 H 15.3051 1.24709 0.719982 0
M  V30 188 H 17.2581 1.80715 3.80684 0
M  V30 189 H 15.9821 0.732524 3.18279 0
M  V30 190 H 14.6411 2.73283 2.44361 0
M  V30 191 H 14.2891 1.74938 4.71599 0
M  V30 192 H 13.9891 3.50541 4.71588 0
M  V30 193 H 15.5131 2.86401 5.39265 0
M  V30 194 H 16.9271 4.37898 3.70024 0
M  V30 195 H 15.3241 5.03735 3.26146 0
M  V30 196 H 16.3941 4.42244 1.98867 0
M  V30 197 N 17.7372 -0.778329 1.37039 0
M  V30 198 C 19.1532 -1.07796 1.17695 0
M  V30 199 C 19.3532 -2.01498 0.00860115 0
M  V30 200 O 18.4092 -2.43901 -0.653352 0
M  V30 201 C 19.7222 -1.68178 2.49272 0
M  V30 202 C 21.2702 -1.80467 2.55735 0
M  V30 203 C 21.7452 -2.44263 3.87427 0
M  V30 204 N 23.2362 -2.51721 3.88833 0
M  V30 205 C 23.9712 -3.01919 4.87476 0
M  V30 206 N 23.4672 -3.5234 5.96513 0
M  V30 207 N 25.2602 -3.00733 4.74885 0
M  V30 208 H 17.4112 -0.156032 2.11826 0
M  V30 209 H 19.6742 -0.131844 0.938787 0
M  V30 210 H 19.3802 -1.06796 3.35093 0
M  V30 211 H 19.2542 -2.67554 2.65885 0
M  V30 212 H 21.6412 -2.40984 1.70325 0
M  V30 213 H 21.7222 -0.798656 2.43013 0
M  V30 214 H 21.3662 -1.84388 4.73248 0
M  V30 215 H 21.2962 -3.45458 3.9745 0
M  V30 216 H 23.7872 -2.1603 3.10063 0
M  V30 217 H 24.1002 -3.89027 6.67741 0
M  V30 218 H 22.4452 -3.50462 6.00168 0
M  V30 219 H 25.6362 -2.60638 3.88826 0
M  V30 220 H 25.8092 -3.39545 5.51918 0
M  V30 221 N 19.2153 -1.21501 -1.00376 0
M  V30 222 C 20.1453 -0.999478 -2.11028 0
M  V30 223 C 21.1263 0.0759671 -1.6993 0
M  V30 224 O 22.3113 -0.0841106 -1.94018 0
M  V30 225 C 19.4413 -0.564709 -3.42678 0
M  V30 226 C 18.3953 -1.58486 -3.97576 0
M  V30 227 C 17.7213 -1.00628 -5.25146 0
M  V30 228 C 19.0213 -2.97204 -4.29496 0
M  V30 229 H 20.7153 -1.92495 -2.29317 0
M  V30 230 H 18.2613 -0.92693 -1.102 0
M  V30 231 H 20.2143 -0.401091 -4.19487 0
M  V30 232 H 18.9383 0.396411 -3.24185 0
M  V30 233 H 17.5973 -1.73606 -3.22888 0
M  V30 234 H 17.2453 -0.0368439 -5.02987 0
M  V30 235 H 16.9453 -1.68771 -5.62841 0
M  V30 236 H 18.4693 -0.854015 -6.04598 0
M  V30 237 H 19.8833 -2.8552 -4.97143 0
M  V30 238 H 18.2803 -3.62372 -4.78338 0
M  V30 239 H 19.3503 -3.47956 -3.3772 0
M  V30 240 N 20.6934 1.19889 -1.02296 0
M  V30 241 C 21.6434 2.20777 -0.56934 0
M  V30 242 C 22.6274 1.56379 0.378741 0
M  V30 243 O 23.8194 1.75859 0.200673 0
M  V30 244 C 20.9484 3.43196 0.0845077 0
M  V30 245 C 20.0344 4.14749 -0.88566 0
M  V30 246 N 20.4254 4.62584 -2.04573 0
M  V30 247 C 18.7234 4.40347 -0.707835 0
M  V30 248 C 19.4244 5.17466 -2.65714 0
M  V30 249 N 18.4004 5.0791 -1.93723 0
M  V30 250 H 22.2024 2.55434 -1.45365 0
M  V30 251 H 19.7164 1.35897 -0.88915 0
M  V30 252 H 21.7134 4.14707 0.427067 0
M  V30 253 H 20.3734 3.10042 0.964574 0
M  V30 254 H 21.3844 4.57597 -2.4254 0
M  V30 255 H 18.0614 4.17317 0.12364 0
M  V30 256 H 19.4514 5.64808 -3.63925 0
M  V30 257 N 22.1715 0.800033 1.35784 0
M  V30 258 C 23.4485 0.30088 1.93272 0
M  V30 259 C 23.8285 -1.20857 1.73081 0
M  V30 260 O 23.1765 -2.00502 1.09596 0
M  V30 261 C 23.3865 0.70511 3.41803 0
M  V30 262 C 24.7345 0.690871 4.18942 0
M  V30 263 O 25.7585 0.646244 3.50289 0
M  V30 264 O 24.6175 0.74332 5.41421 0
M  V30 265 H 21.7115 0.0771605 0.823393 0
M  V30 266 H 24.2575 0.88329 1.449 0
M  V30 267 H 23.0295 1.74571 3.50201 0
M  V30 268 H 22.6525 0.0971541 3.97481 0
M  V30 269 N 23.6496 -1.47581 0.552962 0
M  V30 270 C 24.5996 -2.26961 -0.217423 0
M  V30 271 C 25.5836 -1.34099 -0.889168 0
M  V30 272 O 26.7756 -1.58483 -0.788176 0
M  V30 273 C 23.9046 -3.19756 -1.24944 0
M  V30 274 C 22.9906 -4.20097 -0.581327 0
M  V30 275 N 23.3816 -5.04614 0.346171 0
M  V30 276 C 21.6796 -4.38099 -0.835767 0
M  V30 277 C 22.3806 -5.77052 0.733854 0
M  V30 278 N 21.3566 -5.43526 0.0896567 0
M  V30 279 H 25.1586 -2.89688 0.495761 0
M  V30 280 H 22.6726 -1.58068 0.372597 0
M  V30 281 H 24.6696 -3.75305 -1.81527 0
M  V30 282 H 23.3296 -2.58585 -1.96376 0
M  V30 283 H 24.3406 -5.12869 0.720098 0
M  V30 284 H 21.0176 -3.88102 -1.53892 0
M  V30 285 H 22.4076 -6.5504 1.49574 0
M  V30 286 N 25.1277 -0.289203 -1.54924 0
M  V30 287 C 26.5387 0.205791 -1.85562 0
M  V30 288 C 26.8897 1.54351 -1.2112 0
M  V30 289 O 26.0147 2.10435 -0.504601 0
M  V30 290 C 26.6097 0.380177 -3.3666 0
M  V30 291 C 25.1687 0.819395 -3.67373 0
M  V30 292 C 24.3157 -0.079159 -2.77187 0
M  V30 293 H 27.2667 -0.510577 -1.50262 0
M  V30 294 H 27.2877 1.21659 -3.60526 0
M  V30 295 H 26.7997 -0.593589 -3.83534 0
M  V30 296 H 24.9007 1.80413 -3.26009 0
M  V30 297 H 25.0137 0.646957 -4.74712 0
M  V30 298 H 23.3777 0.439565 -2.50878 0
M  V30 299 H 24.1607 -1.04906 -3.26878 0
M  V30 300 N 26.6058 1.57591 -0.0167156 0
M  V30 301 C 27.5688 2.08393 0.954204 0
M  V30 302 C 28.5688 0.996531 1.26198 0
M  V30 303 O 29.7588 1.25858 1.20438 0
M  V30 304 C 26.8908 2.5394 2.27436 0
M  V30 305 H 28.0838 2.95455 0.514451 0
M  V30 306 H 25.6368 1.54582 0.231089 0
M  V30 307 H 26.3718 1.70171 2.76066 0
M  V30 308 H 26.1568 3.33371 2.06412 0
M  V30 309 H 27.6468 2.93512 2.97053 0
M  V30 310 N 28.0839 -0.256276 1.55502 0
M  V30 311 C 29.0139 -1.32102 1.92539 0
M  V30 312 C 29.9949 -1.50684 0.789194 0
M  V30 313 O 31.1799 -1.63449 1.04872 0
M  V30 314 C 28.3099 -2.67752 2.21192 0
M  V30 315 C 27.2639 -2.63878 3.36975 0
M  V30 316 C 26.5899 -4.03236 3.51147 0
M  V30 317 C 27.8899 -2.21682 4.72921 0
M  V30 318 H 29.5839 -1.01351 2.81724 0
M  V30 319 H 27.1299 -0.486105 1.35547 0
M  V30 320 H 29.0829 -3.42365 2.45691 0
M  V30 321 H 27.8069 -3.0012 1.28824 0
M  V30 322 H 26.4659 -1.91722 3.12471 0
M  V30 323 H 26.1139 -4.32854 2.56216 0
M  V30 324 H 25.8139 -4.01535 4.29003 0
M  V30 325 H 27.3379 -4.79563 3.77957 0
M  V30 326 H 28.7519 -2.86023 4.96854 0
M  V30 327 H 27.1489 -2.3111 5.53812 0
M  V30 328 H 28.2189 -1.16833 4.70615 0
M  V30 329 N 29.562 -1.4872 -0.521534 0
M  V30 330 C 30.492 -1.66771 -1.63431 0
M  V30 331 C 31.473 -0.516499 -1.62069 0
M  V30 332 O 32.658 -0.750013 -1.79132 0
M  V30 333 C 29.788 -1.71515 -3.01993 0
M  V30 334 C 28.742 -2.86222 -3.18216 0
M  V30 335 C 28.068 -2.76061 -4.57924 0
M  V30 336 C 29.368 -4.27419 -3.00184 0
M  V30 337 H 31.062 -2.59932 -1.48579 0
M  V30 338 H 28.608 -1.25089 -0.713358 0
M  V30 339 H 30.561 -1.82731 -3.7972 0
M  V30 340 H 29.285 -0.749393 -3.17886 0
M  V30 341 H 27.944 -2.74575 -2.42908 0
M  V30 342 H 27.592 -1.77437 -4.70665 0
M  V30 343 H 27.292 -3.53037 -4.69722 0
M  V30 344 H 28.816 -2.89256 -5.37739 0
M  V30 345 H 30.23 -4.39855 -3.67697 0
M  V30 346 H 28.627 -5.05458 -3.2347 0
M  V30 347 H 29.697 -4.43293 -1.96518 0
M  V30 348 N 31.0401 0.771051 -1.3745 0
M  V30 349 C 31.9501 1.91538 -1.35464 0
M  V30 350 C 32.9661 1.72134 -0.254123 0
M  V30 351 O 34.1421 1.95358 -0.489626 0
M  V30 352 C 31.2071 3.26671 -1.16134 0
M  V30 353 C 30.2681 3.58723 -2.35831 0
M  V30 354 C 29.5011 4.87409 -2.17413 0
M  V30 355 O 29.7241 5.58506 -1.15876 0
M  V30 356 O 28.6581 5.18539 -3.05615 0
M  V30 357 H 32.4841 1.96165 -2.31847 0
M  V30 358 H 30.0691 0.9139 -1.18187 0
M  V30 359 H 31.9511 4.07499 -1.07345 0
M  V30 360 H 30.6261 3.22894 -0.228251 0
M  V30 361 H 29.5331 2.78127 -2.50192 0
M  V30 362 H 30.8661 3.67243 -3.27709 0
M  V30 363 N 32.5182 1.22032 0.997298 0
M  V30 364 C 33.4812 0.987909 2.06816 0
M  V30 365 C 34.4812 -0.0440084 1.6074 0
M  V30 366 O 35.6712 0.194053 1.73116 0
M  V30 367 C 32.8032 0.49132 3.37341 0
M  V30 368 H 33.9962 1.93803 2.28868 0
M  V30 369 H 31.5492 1.03838 1.16822 0
M  V30 370 H 32.2842 -0.463364 3.20973 0
M  V30 371 H 32.0692 1.23575 3.72118 0
M  V30 372 H 33.5592 0.348824 4.16141 0
M  V30 373 N 33.9963 -1.19345 1.0293 0
M  V30 374 C 34.9263 -2.2481 0.631105 0
M  V30 375 C 35.9073 -1.66245 -0.360104 0
M  V30 376 O 37.0923 -1.92677 -0.242726 0
M  V30 377 C 34.2223 -3.47295 -0.0184607 0
M  V30 378 C 33.1763 -4.18536 0.895073 0
M  V30 379 C 32.5023 -5.34586 0.110592 0
M  V30 380 C 33.8023 -4.73287 2.209 0
M  V30 381 H 35.4963 -2.58372 1.51275 0
M  V30 382 H 33.0423 -1.24194 0.728818 0
M  V30 383 H 34.9953 -4.20268 -0.308675 0
M  V30 384 H 33.7193 -3.12933 -0.934907 0
M  V30 385 H 32.3783 -3.47446 1.16949 0
M  V30 386 H 32.0263 -4.96469 -0.807902 0
M  V30 387 H 31.7263 -5.83183 0.719087 0
M  V30 388 H 33.2503 -6.10355 -0.172871 0
M  V30 389 H 34.6643 -5.38013 1.98028 0
M  V30 390 H 33.0613 -5.32373 2.76946 0
M  V30 391 H 34.1313 -3.91331 2.86336 0
M  V30 392 N 35.4744 -0.807222 -1.35358 0
M  V30 393 C 36.4374 -0.223665 -2.28106 0
M  V30 394 C 37.4374 0.589354 -1.4961 0
M  V30 395 O 38.6274 0.407745 -1.69361 0
M  V30 396 C 35.7594 0.688149 -3.33882 0
M  V30 397 H 36.9524 -1.04169 -2.81227 0
M  V30 398 H 34.5054 -0.577921 -1.45223 0
M  V30 399 H 35.2404 1.52984 -2.85948 0
M  V30 400 H 35.0254 0.10687 -3.91954 0
M  V30 401 H 36.5154 1.09075 -4.03104 0
M  V30 402 N 36.9525 1.47285 -0.560781 0
M  V30 403 C 38.3685 1.58065 -0.22081 0
M  V30 404 C 38.5685 1.55892 1.27671 0
M  V30 405 O 37.6245 1.46422 2.0571 0
M  V30 406 C 38.9375 2.88418 -0.850625 0
M  V30 407 C 40.4855 3.02009 -0.822184 0
M  V30 408 C 40.9605 4.35066 -1.43113 0
M  V30 409 N 42.4515 4.41711 -1.39448 0
M  V30 410 C 43.1865 5.43237 -1.83525 0
M  V30 411 N 42.6825 6.51555 -2.35474 0
M  V30 412 N 44.4755 5.34304 -1.74574 0
M  V30 413 H 36.6265 1.46941 -1.53369 0
M  V30 414 H 38.8895 0.699558 -0.639783 0
M  V30 415 H 38.5955 2.95755 -1.9032 0
M  V30 416 H 38.4695 3.75612 -0.345773 0
M  V30 417 H 40.8565 2.94266 0.221714 0
M  V30 418 H 40.9375 2.16347 -1.36483 0
M  V30 419 H 40.5815 4.43565 -2.47412 0
M  V30 420 H 40.5115 5.19465 -0.863899 0
M  V30 421 H 43.0025 3.64027 -1.01452 0
M  V30 422 H 43.3155 7.25203 -2.67021 0
M  V30 423 H 41.6605 6.52435 -2.39487 0
M  V30 424 H 44.8515 4.48581 -1.33763 0
M  V30 425 H 45.0245 6.13288 -2.09242 0
M  V30 426 N 38.4306 0.297415 1.54768 0
M  V30 427 C 39.6786 -0.312295 1.99673 0
M  V30 428 C 39.9996 -1.54686 1.18732 0
M  V30 429 O 39.2696 -1.93854 0.282382 0
M  V30 430 H 37.8496 -0.118381 0.73756 0
M  V30 431 H 40.5116 0.407915 1.90583 0
M  V30 432 H 39.6076 -0.586813 3.06534 0
M  V30 433 N 39.9087 -1.5758 0.0250728 0
M  V30 434 C 41.3197 -1.79476 -0.514323 0
M  V30 435 C 41.6707 -0.934956 -1.72491 0
M  V30 436 O 40.7957 -0.144245 -2.15919 0
M  V30 437 C 41.3907 -3.25503 -0.939842 0
M  V30 438 C 39.9497 -3.48408 -1.42438 0
M  V30 439 C 39.0967 -2.74583 -0.387201 0
M  V30 440 H 42.0477 -1.567 0.25113 0
M  V30 441 H 42.0687 -3.34992 -1.80445 0
M  V30 442 H 41.5807 -3.88056 -0.0585628 0
M  V30 443 H 39.6817 -2.91103 -2.32572 0
M  V30 444 H 39.7947 -4.57119 -1.43455 0
M  V30 445 H 38.1587 -2.39942 -0.854409 0
M  V30 446 H 38.9417 -3.39849 0.485543 0
M  V30 447 N 41.3868 0.248026 -1.55636 0
M  V30 448 C 42.6328 0.97767 -1.77678 0
M  V30 449 C 42.9658 1.85016 -0.590135 0
M  V30 450 O 42.2408 1.90095 0.411611 0
M  V30 451 C 42.5238 1.83914 -3.09593 0
M  V30 452 C 42.3768 0.99491 -4.38659 0
M  V30 453 C 43.6958 2.82183 -3.37729 0
M  V30 454 H 40.8148 0.354005 -0.646413 0
M  V30 455 H 43.4568 0.248253 -1.88371 0
M  V30 456 H 41.6068 2.46104 -3.00608 0
M  V30 457 H 43.2788 0.391789 -4.59633 0
M  V30 458 H 41.5218 0.299231 -4.32767 0
M  V30 459 H 42.1928 1.63145 -5.2734 0
M  V30 460 H 44.6688 2.30129 -3.4667 0
M  V30 461 H 43.5448 3.39582 -4.31249 0
M  V30 462 H 43.8058 3.58588 -2.58586 0
M  V30 463 N 42.8649 1.48995 0.513639 0
M  V30 464 C 44.1109 1.58076 1.27042 0
M  V30 465 C 44.4439 0.261026 1.92438 0
M  V30 466 O 43.7189 -0.734393 1.80103 0
M  V30 467 C 44.0019 2.73091 2.34719 0
M  V30 468 C 43.8549 4.14821 1.73907 0
M  V30 469 C 45.1739 2.83796 3.36375 0
M  V30 470 H 42.2929 0.575391 0.460536 0
M  V30 471 H 44.9349 1.81232 0.570516 0
M  V30 472 H 43.0849 2.53479 2.94416 0
M  V30 473 H 44.7569 4.45917 1.18135 0
M  V30 474 H 42.9999 4.21058 1.0437 0
M  V30 475 H 43.6709 4.91147 2.51949 0
M  V30 476 H 46.1469 3.01611 2.86653 0
M  V30 477 H 45.0229 3.65971 4.09093 0
M  V30 478 H 45.2839 1.92624 3.9793 0
M  V30 479 N 44.343 -0.763751 1.37857 0
M  V30 480 C 45.591 -1.51957 1.33243 0
M  V30 481 C 45.912 -1.94835 -0.0801709 0
M  V30 482 O 45.182 -1.66894 -1.02582 0
M  V30 483 H 43.762 -0.563626 0.49024 0
M  V30 484 H 46.424 -0.908504 1.7243 0
M  V30 485 H 45.52 -2.41523 1.97669 0
M  V30 486 N 45.8211 -1.22559 -0.990812 0
M  V30 487 C 46.7511 -1.0218 -2.09956 0
M  V30 488 C 47.7321 0.0579394 -1.70001 0
M  V30 489 O 48.9171 -0.104684 -1.93918 0
M  V30 490 C 46.0471 -0.601023 -3.4206 0
M  V30 491 C 45.0011 -1.62694 -3.95872 0
M  V30 492 C 44.3271 -1.06193 -5.24049 0
M  V30 493 C 45.6271 -3.01743 -4.2632 0
M  V30 494 H 47.3211 -1.94916 -2.27262 0
M  V30 495 H 44.8671 -0.938566 -1.09211 0
M  V30 496 H 46.8201 -0.445561 -4.19038 0
M  V30 497 H 45.5441 0.362005 -3.24588 0
M  V30 498 H 44.2031 -1.77021 -3.21028 0
M  V30 499 H 43.8511 -0.0901903 -5.02919 0
M  V30 500 H 43.5511 -1.74732 -5.61019 0
M  V30 501 H 45.0751 -0.918092 -6.03658 0
M  V30 502 H 46.4891 -2.90777 -4.94087 0
M  V30 503 H 44.8861 -3.67425 -4.74467 0
M  V30 504 H 45.9561 -3.51518 -3.34011 0
M  V30 505 N 47.2992 1.18797 -1.03562 0
M  V30 506 C 48.5452 1.8893 -0.737113 0
M  V30 507 C 48.8782 1.79837 0.732956 0
M  V30 508 O 48.1532 1.19525 1.5344 0
M  V30 509 C 48.4362 3.39607 -1.19745 0
M  V30 510 C 48.2892 3.57537 -2.72924 0
M  V30 511 C 49.6082 4.33069 -0.783526 0
M  V30 512 H 46.7272 0.686057 -0.269249 0
M  V30 513 H 49.3692 1.39797 -1.28673 0
M  V30 514 H 47.5192 3.81583 -0.729855 0
M  V30 515 H 49.1912 3.24688 -3.27682 0
M  V30 516 H 47.4342 3.00363 -3.12993 0
M  V30 517 H 48.1052 4.63238 -3.00191 0
M  V30 518 H 50.5812 3.98846 -1.18581 0
M  V30 519 H 49.4572 5.3707 -1.13343 0
M  V30 520 H 49.7182 4.40986 0.313681 0
M  V30 521 N 48.7773 0.814389 1.34928 0
M  V30 522 C 50.0233 0.399013 1.98836 0
M  V30 523 C 50.3563 -1.03314 1.64438 0
M  V30 524 O 49.6313 -1.71811 0.911659 0
M  V30 525 C 49.9143 0.591629 3.55207 0
M  V30 526 C 49.7673 2.06928 3.99376 0
M  V30 527 C 51.0863 0.022199 4.40094 0
M  V30 528 H 48.2053 0.146451 0.722303 0
M  V30 529 H 50.8473 1.02537 1.59957 0
M  V30 530 H 48.9973 0.0584441 3.88456 0
M  V30 531 H 50.6693 2.66544 3.76499 0
M  V30 532 H 48.9123 2.56287 3.49999 0
M  V30 533 H 49.5833 2.1549 5.08201 0
M  V30 534 H 52.0593 0.477643 4.13349 0
M  V30 535 H 50.9353 0.186832 5.48582 0
M  V30 536 H 51.1963 -1.07215 4.28902 0
M  V30 537 N 50.2554 -1.46986 0.568584 0
M  V30 538 C 51.1854 -2.32946 -0.160753 0
M  V30 539 C 52.1664 -1.44487 -0.897631 0
M  V30 540 O 53.3514 -1.73327 -0.875867 0
M  V30 541 C 50.4814 -3.26494 -1.18403 0
M  V30 542 C 49.4354 -4.24282 -0.562895 0
M  V30 543 C 48.7614 -5.07236 -1.69163 0
M  V30 544 C 50.0614 -5.19989 0.490761 0
M  V30 545 H 51.7554 -2.94175 0.556916 0
M  V30 546 H 49.3014 -1.4146 0.26927 0
M  V30 547 H 51.2544 -3.85477 -1.70251 0
M  V30 548 H 49.9784 -2.63343 -1.93179 0
M  V30 549 H 48.6374 -3.66541 -0.0656164 0
M  V30 550 H 48.2854 -4.4048 -2.42871 0
M  V30 551 H 47.9854 -5.7345 -1.28174 0
M  V30 552 H 49.5094 -5.6908 -2.21314 0
M  V30 553 H 50.9234 -5.73271 0.0579047 0
M  V30 554 H 49.3204 -5.94469 0.820165 0
M  V30 555 H 50.3904 -4.64777 1.3824 0
M  V30 556 N 51.7335 -0.305618 -1.54608 0
M  V30 557 C 53.0105 0.355652 -1.92339 0
M  V30 558 C 53.3905 1.71324 -1.23335 0
M  V30 559 O 52.7385 2.25473 -0.370702 0
M  V30 560 C 52.9485 0.46572 -3.45879 0
M  V30 561 C 54.2965 0.734426 -4.182 0
M  V30 562 O 55.3205 0.54935 -3.51938 0
M  V30 563 O 54.1795 1.09024 -5.35515 0
M  V30 564 H 51.2735 0.199666 -0.802535 0
M  V30 565 H 53.8195 -0.354017 -1.65966 0
M  V30 566 H 52.5915 -0.488461 -3.88239 0
M  V30 567 H 52.2145 1.22367 -3.78301 0
M  V30 568 N 53.2116 1.57565 -0.0334293 0
M  V30 569 C 54.6226 1.79746 0.504798 0
M  V30 570 C 54.9736 0.944091 1.71992 0
M  V30 571 O 54.0986 0.155694 2.15839 0
M  V30 572 C 54.6936 3.25997 0.922567 0
M  V30 573 C 53.2526 3.49159 1.40588 0
M  V30 574 C 52.3996 2.74785 0.372633 0
M  V30 575 H 55.3506 1.56565 -0.259436 0
M  V30 576 H 55.3716 3.35945 1.78666 0
M  V30 577 H 54.8836 3.88081 0.0379825 0
M  V30 578 H 52.9846 2.92332 2.31025 0
M  V30 579 H 53.0976 4.57873 1.41028 0
M  V30 580 H 51.4616 2.40391 0.841672 0
M  V30 581 H 52.2446 3.39587 -0.503559 0
M  V30 582 N 54.6897 -0.239769 1.55765 0
M  V30 583 C 55.6377 -1.31668 1.91745 0
M  V30 584 C 56.6317 -1.49462 0.797338 0
M  V30 585 O 57.8377 -1.50852 0.982021 0
M  V30 586 H 54.2127 -0.441048 0.609082 0
M  V30 587 H 56.1837 -0.985923 2.81642 0
M  V30 588 C 54.9327 -2.66368 2.2348 0
M  V30 589 H 54.2557 -2.53478 3.09175 0
M  V30 590 H 55.6957 -3.40578 2.52553 0
M  V30 591 C 54.1547 -3.20002 1.05359 0
M  V30 592 O 54.6847 -4.00538 0.305261 0
M  V30 593 N 52.8907 -2.78126 0.842292 0
M  V30 594 H 52.4377 -2.12742 1.45253 0
M  V30 595 H 52.3957 -3.14354 0.053652 0
M  V30 596 N 56.1678 -1.49265 -0.50573 0
M  V30 597 C 57.1158 -1.66065 -1.62866 0
M  V30 598 C 58.1098 -0.526636 -1.61006 0
M  V30 599 O 59.3158 -0.706126 -1.65571 0
M  V30 600 H 55.6908 -0.52356 -0.539805 0
M  V30 601 H 57.6618 -2.60329 -1.45848 0
M  V30 602 C 56.4108 -1.74008 -3.01026 0
M  V30 603 H 55.7338 -2.6064 -3.03161 0
M  V30 604 H 57.1738 -1.89798 -3.79147 0
M  V30 605 C 55.6328 -0.483868 -3.33407 0
M  V30 606 O 56.1628 0.392548 -3.99777 0
M  V30 607 N 54.3688 -0.348236 -2.88506 0
M  V30 608 H 53.9158 -1.06242 -2.34671 0
M  V30 609 H 53.8738 0.491204 -3.10539 0
M  V30 610 N 57.6459 0.756429 -1.3826 0
M  V30 611 C 58.5759 1.88374 -1.37976 0
M  V30 612 C 59.5569 1.68311 -0.246082 0
M  V30 613 O 60.7419 1.88944 -0.44874 0
M  V30 614 C 57.8719 3.25864 -1.20125 0
M  V30 615 C 56.8259 3.60523 -2.30666 0
M  V30 616 C 56.1519 4.9672 -1.97923 0
M  V30 617 C 57.4519 3.65692 -3.72916 0
M  V30 618 H 59.1459 1.88869 -2.32312 0
M  V30 619 H 56.6919 0.907272 -1.11824 0
M  V30 620 H 58.6449 4.0438 -1.18552 0
M  V30 621 H 57.3689 3.25841 -0.222498 0
M  V30 622 H 56.0279 2.84324 -2.3142 0
M  V30 623 H 55.6759 4.93253 -0.985393 0
M  V30 624 H 55.3759 5.20878 -2.71955 0
M  V30 625 H 56.8999 5.77618 -1.97964 0
M  V30 626 H 58.3139 4.34328 -3.74208 0
M  V30 627 H 56.7109 4.01358 -4.4613 0
M  V30 628 H 57.7809 2.65987 -4.05436 0
M  V30 629 N 59.124 1.23083 0.984299 0
M  V30 630 C 60.071 1.00854 2.07598 0
M  V30 631 C 61.041 -0.0726709 1.65941 0
M  V30 632 O 62.226 0.0786535 1.90638 0
M  V30 633 C 59.366 0.601645 3.39815 0
M  V30 634 C 58.479 1.75456 3.94765 0
M  V30 635 C 57.614 1.29482 5.15177 0
M  V30 636 C 56.653 2.41873 5.62284 0
M  V30 637 N 55.79 1.96885 6.73929 0
M  V30 638 H 60.63 1.943 2.25946 0
M  V30 639 H 58.167 0.968001 1.10762 0
M  V30 640 H 60.125 0.346854 4.15756 0
M  V30 641 H 58.755 -0.295803 3.21442 0
M  V30 642 H 57.807 2.12346 3.15616 0
M  V30 643 H 59.119 2.59965 4.25699 0
M  V30 644 H 58.273 0.997923 5.98437 0
M  V30 645 H 57.012 0.420046 4.85888 0
M  V30 646 H 56.017 2.72342 4.77608 0
M  V30 647 H 57.242 3.29881 5.93595 0
M  V30 648 H 55.188 1.11782 6.46406 0
M  V30 649 H 55.105 2.74956 7.04227 0
M  V30 650 H 56.373 1.70289 7.60672 0
M  V30 651 N 60.6021 -1.18246 1.0419 0
M  V30 652 C 61.8301 -1.92195 0.766072 0
M  V30 653 C 62.2451 -1.76247 -0.676933 0
M  V30 654 O 61.6021 -1.09293 -1.46155 0
M  V30 655 C 61.6531 -3.43568 1.12442 0
M  V30 656 O 61.3741 -3.59015 2.51078 0
M  V30 657 C 62.8751 -4.34613 0.873275 0
M  V30 658 H 60.0951 -0.610114 0.279288 0
M  V30 659 H 62.6391 -1.50007 1.38989 0
M  V30 660 H 60.7941 -3.8354 0.545542 0
M  V30 661 H 61.2081 -4.5273 2.64831 0
M  V30 662 H 62.6821 -5.39374 1.17385 0
M  V30 663 H 63.1591 -4.38781 -0.191909 0
M  V30 664 H 63.7651 -4.00341 1.43551 0
M  V30 665 N 62.0802 -0.821533 -1.34494 0
M  V30 666 C 63.3082 -0.421884 -2.02553 0
M  V30 667 C 63.7232 0.971745 -1.61872 0
M  V30 668 O 63.0802 1.62864 -0.823496 0
M  V30 669 C 63.1312 -0.51285 -3.57844 0
M  V30 670 O 62.8522 -1.85155 -3.97051 0
M  V30 671 C 64.3532 -0.107921 -4.43169 0
M  V30 672 H 61.5732 -0.169482 -0.649243 0
M  V30 673 H 64.1172 -1.1093 -1.71798 0
M  V30 674 H 62.2722 0.126474 -3.87193 0
M  V30 675 H 62.6862 -1.82482 -4.91732 0
M  V30 676 H 64.1602 -0.222657 -5.51551 0
M  V30 677 H 64.6372 0.948401 -4.28838 0
M  V30 678 H 65.2432 -0.720989 -4.19144 0
M  V30 679 N 63.5583 1.46682 -0.576371 0
M  V30 680 C 64.9693 1.86112 -0.148091 0
M  V30 681 C 65.3203 1.48073 1.2872 0
M  V30 682 O 64.4453 0.892656 1.97131 0
M  V30 683 C 65.0403 3.37786 -0.261982 0
M  V30 684 C 63.5993 3.76235 0.111384 0
M  V30 685 C 62.7463 2.70713 -0.60083 0
M  V30 686 H 65.6973 1.37927 -0.78497 0
M  V30 687 H 65.7183 3.77007 0.514364 0
M  V30 688 H 65.2303 3.6544 -1.30671 0
M  V30 689 H 63.3313 3.54198 1.15649 0
M  V30 690 H 63.4443 4.78391 -0.26052 0
M  V30 691 H 61.8083 2.54666 -0.0417783 0
M  V30 692 H 62.5913 3.01208 -1.64708 0
M  V30 693 N 65.0364 0.313813 1.54444 0
M  V30 694 C 66.4524 -0.0391619 1.59552 0
M  V30 695 C 66.6524 -1.51322 1.33056 0
M  V30 696 O 65.7084 -2.26782 1.11022 0
M  V30 697 C 67.0214 0.370302 2.98411 0
M  V30 698 C 68.5694 0.320139 3.11358 0
M  V30 699 C 69.0444 0.704617 4.52547 0
M  V30 700 N 70.5354 0.657645 4.58508 0
M  V30 701 C 71.2704 0.927453 5.6585 0
M  V30 702 N 70.7664 1.26389 6.81174 0
M  V30 703 N 72.5594 0.853662 5.5558 0
M  V30 704 H 64.7104 1.27433 1.69925 0
M  V30 705 H 66.9734 0.517511 0.794284 0
M  V30 706 H 66.6794 1.39694 3.22767 0
M  V30 707 H 66.5534 -0.269619 3.76235 0
M  V30 708 H 68.9404 -0.697275 2.86744 0
M  V30 709 H 69.0214 0.99486 2.35661 0
M  V30 710 H 68.6654 1.7199 4.77893 0
M  V30 711 H 68.5954 0.00768843 5.26599 0
M  V30 712 H 71.0864 0.409067 3.75679 0
M  V30 713 H 71.3994 1.4554 7.58972 0
M  V30 714 H 69.7444 1.30206 6.82694 0
M  V30 715 H 72.9354 0.590383 4.64362 0
M  V30 716 H 73.1084 1.0673 6.3915 0
M  V30 717 N 66.5145 -1.57545 0.0417849 0
M  V30 718 C 67.9305 -1.56467 -0.314704 0
M  V30 719 C 68.1305 -1.04859 -1.72066 0
M  V30 720 O 67.1865 -0.700983 -2.42575 0
M  V30 721 C 68.4995 -3.00317 -0.15174 0
M  V30 722 C 70.0475 -3.12201 -0.223553 0
M  V30 723 C 70.5225 -4.57913 -0.0892295 0
M  V30 724 N 72.0135 -4.6297 -0.145808 0
M  V30 725 C 72.7485 -5.73362 -0.0658459 0
M  V30 726 N 72.2445 -6.92769 0.0659282 0
M  V30 727 N 74.0375 -5.6197 -0.12075 0
M  V30 728 H 66.1885 -1.89416 0.961014 0
M  V30 729 H 68.4515 -0.871862 0.372237 0
M  V30 730 H 68.1575 -3.42073 0.817254 0
M  V30 731 H 68.0315 -3.65892 -0.916692 0
M  V30 732 H 70.4185 -2.70349 -1.18301 0
M  V30 733 H 70.4995 -2.49323 0.571994 0
M  V30 734 H 70.1435 -5.00448 0.866867 0
M  V30 735 H 70.0735 -5.18786 -0.903802 0
M  V30 736 H 72.5645 -3.7709 -0.247286 0
M  V30 737 H 72.8775 -7.72707 0.119905 0
M  V30 738 H 71.2225 -6.94927 0.100885 0
M  V30 739 H 74.4135 -4.67572 -0.222187 0
M  V30 740 H 74.5865 -6.47977 -0.0549735 0
M  V30 741 N 67.9926 0.231505 -1.5589 0
M  V30 742 C 69.4086 0.580748 -1.48659 0
M  V30 743 C 69.6086 1.87617 -0.73498 0
M  V30 744 O 68.6646 2.51046 -0.270586 0
M  V30 745 C 69.9776 0.669202 -2.93159 0
M  V30 746 C 71.5256 0.760499 -3.03621 0
M  V30 747 C 72.0006 0.880383 -4.49459 0
M  V30 748 N 73.4916 0.944861 -4.53461 0
M  V30 749 C 74.2266 1.05716 -5.63571 0
M  V30 750 N 73.7226 1.13403 -6.83456 0
M  V30 751 N 75.5156 1.09152 -5.514 0
M  V30 752 H 67.6666 -0.618695 -2.03189 0
M  V30 753 H 69.9296 -0.215728 -0.923128 0
M  V30 754 H 69.6356 -0.212904 -3.51055 0
M  V30 755 H 69.5096 1.5361 -3.44505 0
M  V30 756 H 71.8966 1.63305 -2.45796 0
M  V30 757 H 71.9776 -0.131864 -2.5546 0
M  V30 758 H 71.6216 0.0123284 -5.07899 0
M  V30 759 H 71.5516 1.78802 -4.95316 0
M  V30 760 H 74.0426 0.896176 -3.6712 0
M  V30 761 H 74.3556 1.21921 -7.63122 0
M  V30 762 H 72.7006 1.10333 -6.86186 0
M  V30 763 H 75.8916 1.02805 -4.56671 0
M  V30 764 H 76.0646 1.17558 -6.37247 0
M  V30 765 N 69.4707 1.49531 0.497807 0
M  V30 766 C 70.4337 1.65916 1.58128 0
M  V30 767 C 71.4337 0.530825 1.51786 0
M  V30 768 O 72.6237 0.797342 1.54881 0
M  V30 769 C 69.7557 1.65951 2.9778 0
M  V30 770 H 70.9487 2.62556 1.44929 0
M  V30 771 H 68.5017 1.38611 0.722275 0
M  V30 772 H 69.2367 0.709065 3.16453 0
M  V30 773 H 69.0217 2.47897 3.03792 0
M  V30 774 H 70.5117 1.80673 3.76493 0
M  V30 775 N 70.9488 -0.749086 1.3866 0
M  V30 776 C 72.1948 -1.50959 1.36319 0
M  V30 777 C 72.5498 -1.92347 -0.0452451 0
M  V30 778 O 71.8428 -1.6289 -1.00884 0
M  V30 779 C 72.0368 -2.7712 2.25697 0
M  V30 780 C 71.8658 -2.48067 3.7509 0
M  V30 781 C 70.6358 -2.41062 4.44091 0
M  V30 782 C 72.8338 -2.14544 4.67414 0
M  V30 783 N 70.8158 -2.04331 5.78897 0
M  V30 784 C 72.1868 -1.88141 5.90765 0
M  V30 785 C 74.2418 -2.00892 4.55573 0
M  V30 786 C 72.9448 -1.49463 7.036 0
M  V30 787 C 74.9708 -1.63616 5.68317 0
M  V30 788 C 74.3328 -1.38088 6.90732 0
M  V30 789 H 70.4318 -0.551804 0.554108 0
M  V30 790 H 73.0158 -0.871886 1.74087 0
M  V30 791 H 71.1868 -3.38693 1.9011 0
M  V30 792 H 72.9188 -3.4321 2.1445 0
M  V30 793 H 69.6738 -2.57685 3.9736 0
M  V30 794 H 70.0978 -1.88598 6.502 0
M  V30 795 H 74.7398 -2.19301 3.61479 0
M  V30 796 H 72.4578 -1.29794 7.97608 0
M  V30 797 H 76.0438 -1.53678 5.61137 0
M  V30 798 H 74.9238 -1.09674 7.76493 0
M  V30 799 N 72.4269 -1.23603 -0.977757 0
M  V30 800 C 73.6739 -1.06971 -1.71941 0
M  V30 801 C 74.0019 0.393009 -1.90488 0
M  V30 802 O 73.2569 1.30719 -1.4564 0
M  V30 803 C 73.5559 -1.7433 -3.11999 0
M  V30 804 C 73.2219 -3.24252 -3.13323 0
M  V30 805 C 71.8839 -3.65156 -3.13392 0
M  V30 806 C 74.2359 -4.20141 -3.08433 0
M  V30 807 C 71.5639 -5.00403 -3.0629 0
M  V30 808 C 73.9159 -5.55384 -3.02873 0
M  V30 809 C 72.5799 -5.95647 -3.01265 0
M  V30 810 H 71.8499 -0.391433 -0.629175 0
M  V30 811 H 74.4969 -1.53572 -1.14403 0
M  V30 812 H 72.8019 -1.20096 -3.7294 0
M  V30 813 H 74.4989 -1.58936 -3.68158 0
M  V30 814 H 71.0889 -2.91692 -3.14029 0
M  V30 815 H 75.2729 -3.89547 -3.07517 0
M  V30 816 H 70.5289 -5.3081 -3.03399 0
M  V30 817 H 74.7029 -6.29398 -2.98046 0
M  V30 818 H 72.3299 -7.0041 -2.95516 0
M  V30 819 N 73.905 1.17692 -1.04816 0
M  V30 820 C 74.835 2.23777 -0.666791 0
M  V30 821 C 75.816 1.66796 0.33361 0
M  V30 822 O 77.001 1.93039 0.212042 0
M  V30 823 C 74.131 3.47281 -0.0367933 0
M  V30 824 C 73.085 4.17059 -0.961546 0
M  V30 825 C 72.411 5.34342 -0.195626 0
M  V30 826 C 73.711 4.69713 -2.28402 0
M  V30 827 H 75.405 2.55933 -1.55367 0
M  V30 828 H 72.951 1.23019 -0.748484 0
M  V30 829 H 74.904 4.20706 0.241775 0
M  V30 830 H 73.628 3.14381 0.885004 0
M  V30 831 H 72.287 3.45541 -1.22462 0
M  V30 832 H 71.935 4.97692 0.728816 0
M  V30 833 H 71.635 5.81966 -0.811775 0
M  V30 834 H 73.159 6.10553 0.0757473 0
M  V30 835 H 74.573 5.34794 -2.06563 0
M  V30 836 H 72.97 5.279 -2.8538 0
M  V30 837 H 74.04 3.86726 -2.92525 0
M  V30 838 N 75.3831 0.828654 1.34056 0
M  V30 839 C 76.2931 0.256725 2.33191 0
M  V30 840 C 77.3091 -0.611898 1.62886 0
M  V30 841 O 78.4851 -0.51844 1.94613 0
M  V30 842 C 75.5501 -0.567238 3.42028 0
M  V30 843 C 74.6111 0.324458 4.28072 0
M  V30 844 C 73.8441 -0.460274 5.31712 0
M  V30 845 O 74.0671 -1.693 5.44696 0
M  V30 846 O 73.0011 0.160391 6.01686 0
M  V30 847 H 76.8271 1.07739 2.83947 0
M  V30 848 H 74.4121 0.59093 1.37217 0
M  V30 849 H 76.2941 -1.03582 4.08471 0
M  V30 850 H 74.9691 -1.36513 2.93506 0
M  V30 851 H 73.8761 0.840659 3.64532 0
M  V30 852 H 75.2091 1.08685 4.8005 0
M  V30 853 N 76.8612 -1.46375 0.584142 0
M  V30 854 C 77.8092 -2.32042 -0.161047 0
M  V30 855 C 78.8032 -1.44569 -0.882966 0
M  V30 856 O 80.0092 -1.61186 -0.801191 0
M  V30 857 H 76.3842 -0.748659 -0.0708033 0
M  V30 858 H 78.3552 -2.92704 0.580269 0
M  V30 859 C 77.1042 -3.27762 -1.1605 0
M  V30 860 H 76.4272 -3.95051 -0.614419 0
M  V30 861 H 77.8672 -3.90481 -1.65228 0
M  V30 862 C 76.3262 -2.53218 -2.22221 0
M  V30 863 O 76.8562 -2.29628 -3.29597 0
M  V30 864 N 75.0622 -2.13756 -1.96868 0
M  V30 865 H 74.6092 -2.33142 -1.09557 0
M  V30 866 H 74.5672 -1.642 -2.68115 0
M  V30 867 N 78.3393 -0.321999 -1.54275 0
M  V30 868 C 79.5853 0.281461 -2.00837 0
M  V30 869 C 79.9183 1.51909 -1.20985 0
M  V30 870 O 79.1933 1.923 -0.291733 0
M  V30 871 C 79.4763 0.617162 -3.54772 0
M  V30 872 C 79.3293 -0.631064 -4.45351 0
M  V30 873 C 80.6483 1.43542 -4.16033 0
M  V30 874 H 77.7673 0.100826 -0.730071 0
M  V30 875 H 80.4093 -0.438268 -1.84876 0
M  V30 876 H 78.5593 1.23034 -3.68504 0
M  V30 877 H 80.2313 -1.26934 -4.43492 0
M  V30 878 H 78.4743 -1.26025 -4.15091 0
M  V30 879 H 79.1453 -0.351735 -5.50878 0
M  V30 880 H 81.6213 0.917134 -4.05867 0
M  V30 881 H 80.4973 1.63907 -5.23856 0
M  V30 882 H 80.7583 2.43108 -3.69257 0
M  V30 883 N 79.8174 1.5752 -0.0501392 0
M  V30 884 C 81.2334 1.56631 0.306402 0
M  V30 885 C 81.4334 1.0577 1.71508 0
M  V30 886 O 80.4894 0.713837 2.422 0
M  V30 887 C 81.8024 3.00393 0.135811 0
M  V30 888 C 83.3504 3.12315 0.206993 0
M  V30 889 C 83.8254 4.57954 0.064944 0
M  V30 890 N 85.3164 4.63041 0.121254 0
M  V30 891 C 86.0514 5.73389 0.0354381 0
M  V30 892 N 85.5474 6.92724 -0.102666 0
M  V30 893 N 87.3404 5.62026 0.090946 0
M  V30 894 H 79.4914 1.88903 -0.971046 0
M  V30 895 H 81.7544 0.869876 -0.376855 0
M  V30 896 H 81.4604 3.41635 -0.835384 0
M  V30 897 H 81.3344 3.66373 0.897275 0
M  V30 898 H 83.7214 2.70973 1.16866 0
M  V30 899 H 83.8024 2.49016 -0.585208 0
M  V30 900 H 83.4464 4.99981 -0.893394 0
M  V30 901 H 83.3764 5.19258 0.876277 0
M  V30 902 H 85.8674 3.77216 0.227284 0
M  V30 903 H 86.1804 7.72633 -0.160882 0
M  V30 904 H 84.5254 6.94864 -0.137737 0
M  V30 905 H 87.7164 4.67684 0.197388 0
M  V30 906 H 87.8894 6.47997 0.0206089 0
M  V30 907 N 81.2955 -0.223234 1.56011 0
M  V30 908 C 82.2585 -1.26014 1.9145 0
M  V30 909 C 83.2585 -1.3989 0.792937 0
M  V30 910 O 84.4485 -1.38184 1.0607 0
M  V30 911 C 81.5805 -2.63422 2.16383 0
M  V30 912 H 82.7735 -0.95796 2.84189 0
M  V30 913 H 80.3265 -0.463576 1.49267 0
M  V30 914 H 81.0615 -2.98741 1.2619 0
M  V30 915 H 80.8465 -2.54728 2.98088 0
M  V30 916 H 82.3365 -3.38249 2.44903 0
M  V30 917 N 82.7736 -1.49793 -0.48987 0
M  V30 918 C 83.7036 -1.70201 -1.59856 0
M  V30 919 C 84.6846 -0.55076 -1.60937 0
M  V30 920 O 85.8696 -0.787841 -1.77501 0
M  V30 921 C 82.9996 -1.77882 -2.98287 0
M  V30 922 C 81.9536 -2.92907 -3.12073 0
M  V30 923 C 81.2796 -2.85712 -4.51965 0
M  V30 924 C 82.5796 -4.3369 -2.91051 0
M  V30 925 H 84.2736 -2.63025 -1.43032 0
M  V30 926 H 81.8196 -1.26574 -0.686664 0
M  V30 927 H 83.7726 -1.90744 -3.75759 0
M  V30 928 H 82.4966 -0.816653 -3.16225 0
M  V30 929 H 81.1556 -2.79665 -2.37029 0
M  V30 930 H 80.8036 -1.8738 -4.66795 0
M  V30 931 H 80.5036 -3.62921 -4.62128 0
M  V30 932 H 82.0276 -3.00598 -5.31482 0
M  V30 933 H 83.4416 -4.47555 -3.58284 0
M  V30 934 H 81.8386 -5.12205 -3.12675 0
M  V30 935 H 82.9086 -4.47362 -1.87071 0
M  V30 936 N 84.2517 0.741722 -1.39055 0
M  V30 937 C 85.6677 1.04638 -1.20512 0
M  V30 938 C 85.8677 2.01405 -0.0620218 0
M  V30 939 O 84.9237 2.45547 0.588457 0
M  V30 940 C 86.2367 1.6151 -2.53643 0
M  V30 941 C 87.7847 1.73623 -2.6043 0
M  V30 942 C 88.2597 2.33906 -3.93767 0
M  V30 943 N 89.7507 2.41323 -3.9537 0
M  V30 944 C 90.4857 2.88888 -4.95309 0
M  V30 945 N 89.9817 3.36401 -6.05645 0
M  V30 946 N 91.7747 2.88037 -4.82692 0
M  V30 947 H 83.9257 0.0998155 -2.12165 0
M  V30 948 H 86.1887 0.106907 -0.941953 0
M  V30 949 H 85.8947 0.978739 -3.37807 0
M  V30 950 H 85.7687 2.60411 -2.72885 0
M  V30 951 H 88.1557 2.36384 -1.76655 0
M  V30 952 H 88.2367 0.733945 -2.45045 0
M  V30 953 H 87.8807 1.71776 -4.7797 0
M  V30 954 H 87.8107 3.34799 -4.06469 0
M  V30 955 H 90.3017 2.07734 -3.15682 0
M  V30 956 H 90.6147 3.71186 -6.77821 0
M  V30 957 H 88.9597 3.34427 -6.09248 0
M  V30 958 H 92.1507 2.50237 -3.95599 0
M  V30 959 H 92.3237 3.24792 -5.60726 0
M  V30 960 N 85.7298 1.2412 0.971189 0
M  V30 961 C 86.6398 1.04747 2.09917 0
M  V30 962 C 87.6558 -0.0107162 1.73997 0
M  V30 963 O 88.8318 0.186714 2.00533 0
M  V30 964 C 85.8968 0.650828 3.40537 0
M  V30 965 C 84.9578 1.7851 3.90426 0
M  V30 966 C 84.1908 1.40729 5.14812 0
M  V30 967 O 84.4138 0.29557 5.69634 0
M  V30 968 O 83.3478 2.23168 5.58999 0
M  V30 969 H 87.1738 1.99304 2.29154 0
M  V30 970 H 84.7588 1.02908 1.08307 0
M  V30 971 H 86.6408 0.440992 4.19086 0
M  V30 972 H 85.3158 -0.265649 3.22608 0
M  V30 973 H 84.2228 2.04966 3.12953 0
M  V30 974 H 85.5558 2.68023 4.12825 0
M  V30 975 N 87.2079 -1.17134 1.05439 0
M  V30 976 C 88.1709 -2.19439 0.661764 0
M  V30 977 C 89.1709 -1.58199 -0.288042 0
M  V30 978 O 90.3609 -1.74053 -0.0715803 0
M  V30 979 C 87.4929 -3.40889 -0.0276209 0
M  V30 980 H 88.6859 -2.55688 1.56728 0
M  V30 981 H 86.2389 -1.31259 0.848567 0
M  V30 982 H 86.9739 -3.10187 -0.94629 0
M  V30 983 H 86.7589 -3.86586 0.655238 0
M  V30 984 H 88.2489 -4.16603 -0.288342 0
M  V30 985 N 88.686 -0.835752 -1.33615 0
M  V30 986 C 89.916 -0.442701 -2.01801 0
M  V30 987 C 90.324 0.959807 -1.63047 0
M  V30 988 O 89.667 1.63468 -0.838088 0
M  V30 989 C 89.729 -0.480125 -3.56279 0
M  V30 990 C 89.393 -1.8382 -4.18401 0
M  V30 991 C 90.39 -2.80097 -4.37998 0
M  V30 992 C 88.075 -2.13019 -4.54894 0
M  V30 993 C 90.069 -4.03736 -4.9323 0
M  V30 994 C 87.756 -3.36916 -5.09834 0
M  V30 995 C 88.754 -4.32091 -5.28948 0
M  V30 996 O 88.442 -5.53797 -5.82721 0
M  V30 997 H 88.174 -0.17441 -0.653114 0
M  V30 998 H 90.728 -1.129 -1.71589 0
M  V30 999 H 88.958 0.262931 -3.85805 0
M  V30 1000 H 90.647 -0.105335 -4.05763 0
M  V30 1001 H 91.413 -2.58838 -4.10156 0
M  V30 1002 H 87.292 -1.39733 -4.39313 0
M  V30 1003 H 90.836 -4.78034 -5.08064 0
M  V30 1004 H 86.733 -3.58033 -5.37106 0
M  V30 1005 H 87.501 -5.55494 -6.0114 0
M  V30 1006 N 90.1641 1.46063 -0.591896 0
M  V30 1007 C 91.5801 1.57561 -0.254288 0
M  V30 1008 C 91.7801 1.58565 1.24336 0
M  V30 1009 O 90.8361 1.50753 2.02558 0
M  V30 1010 C 92.1491 2.86549 -0.911611 0
M  V30 1011 C 93.6971 3.00197 -0.886059 0
M  V30 1012 C 94.1721 4.31933 -1.5231 0
M  V30 1013 N 95.6631 4.38654 -1.48786 0
M  V30 1014 C 96.3981 5.39222 -1.95006 0
M  V30 1015 N 95.8941 6.46414 -2.49241 0
M  V30 1016 N 97.6871 5.3048 -1.85868 0
M  V30 1017 H 89.8381 1.43655 -1.56451 0
M  V30 1018 H 92.1011 0.68583 -0.654478 0
M  V30 1019 H 91.8071 2.91651 -1.96551 0
M  V30 1020 H 91.6811 3.74794 -0.425368 0
M  V30 1021 H 94.0681 2.9467 0.159246 0
M  V30 1022 H 94.1491 2.13403 -1.41041 0
M  V30 1023 H 93.7931 4.38217 -2.56765 0
M  V30 1024 H 93.7231 5.17516 -0.973891 0
M  V30 1025 H 96.2141 3.61793 -1.09151 0
M  V30 1026 H 96.5271 7.19376 -2.82344 0
M  V30 1027 H 94.8721 6.47208 -2.53272 0
M  V30 1028 H 98.0631 4.45643 -1.43248 0
M  V30 1029 H 98.2361 6.08711 -2.22204 0
M  V30 1030 N 91.6422 0.330177 1.54103 0
M  V30 1031 C 92.6052 -0.520144 2.2322 0
M  V30 1032 C 93.6052 -1.03828 1.22786 0
M  V30 1033 O 94.7952 -0.929652 1.4732 0
M  V30 1034 C 91.9272 -1.72317 2.94142 0
M  V30 1035 H 93.1202 0.0841605 2.99782 0
M  V30 1036 H 90.6732 0.0813433 1.56088 0
M  V30 1037 H 91.4082 -2.36653 2.21734 0
M  V30 1038 H 91.1932 -1.35898 3.67796 0
M  V30 1039 H 92.6832 -2.3266 3.46784 0
M  V30 1040 N 93.1203 -1.57491 0.0584922 0
M  V30 1041 C 94.5363 -1.56792 -0.298091 0
M  V30 1042 C 94.7363 -1.06679 -1.70944 0
M  V30 1043 O 93.7923 -0.726672 -2.41818 0
M  V30 1044 C 95.1053 -3.00461 -0.119879 0
M  V30 1045 C 96.6533 -3.1242 -0.190428 0
M  V30 1046 C 97.1283 -4.57982 -0.0406567 0
M  V30 1047 N 98.6193 -4.63099 -0.0966958 0
M  V30 1048 C 99.3543 -5.734 -0.00502943 0
M  V30 1049 N 98.8503 -6.9266 0.139402 0
M  V30 1050 N 100.643 -5.62067 -0.0611391 0
M  V30 1051 H 92.7943 -1.88386 0.98105 0
M  V30 1052 H 95.0573 -0.867865 0.381463 0
M  V30 1053 H 94.7633 -3.41187 0.85349 0
M  V30 1054 H 94.6373 -3.66843 -0.877833 0
M  V30 1055 H 97.0243 -2.71589 -1.15427 0
M  V30 1056 H 97.1053 -2.48702 0.598405 0
M  V30 1057 H 96.7493 -4.995 0.919897 0
M  V30 1058 H 96.6793 -5.19715 -0.848727 0
M  V30 1059 H 99.1703 -3.77331 -0.207277 0
M  V30 1060 H 99.4833 -7.72536 0.201855 0
M  V30 1061 H 97.8283 -6.94781 0.174586 0
M  V30 1062 H 101.019 -4.67782 -0.172583 0
M  V30 1063 H 101.192 -6.47999 0.0137562 0
M  V30 1064 N 94.5984 0.214957 -1.56127 0
M  V30 1065 C 95.8464 0.936518 -1.79091 0
M  V30 1066 C 96.1674 1.84606 -0.628148 0
M  V30 1067 O 95.4374 1.92664 0.35462 0
M  V30 1068 H 94.0174 0.3488 -0.660566 0
M  V30 1069 H 96.6794 0.22523 -1.93594 0
M  V30 1070 H 95.7754 1.53943 -2.71492 0
M  V30 1071 N 96.0765 1.50051 0.48192 0
M  V30 1072 C 97.3245 1.60181 1.23234 0
M  V30 1073 C 97.6455 0.299176 1.92691 0
M  V30 1074 O 96.9155 -0.682708 1.83619 0
M  V30 1075 H 95.4955 0.590232 0.457859 0
M  V30 1076 H 98.1575 1.86775 0.556881 0
M  V30 1077 H 97.2535 2.40753 1.98607 0
M  V30 1078 N 97.5546 -0.734337 1.39446 0
M  V30 1079 C 98.5176 -1.83004 1.37994 0
M  V30 1080 C 99.5176 -1.58397 0.276938 0
M  V30 1081 O 100.708 -1.65785 0.534875 0
M  V30 1082 C 97.8396 -3.20802 1.1532 0
M  V30 1083 H 99.0326 -1.85694 2.35494 0
M  V30 1084 H 96.5856 -0.938059 1.25021 0
M  V30 1085 H 97.3206 -3.23772 0.185036 0
M  V30 1086 H 97.1056 -3.4006 1.95197 0
M  V30 1087 H 98.5956 -4.00862 1.17046 0
M  V30 1088 N 99.0327 -1.24633 -0.964593 0
M  V30 1089 C 99.9627 -1.06611 -2.07741 0
M  V30 1090 C 100.944 0.0218666 -1.70086 0
M  V30 1091 O 102.129 -0.145793 -1.93652 0
M  V30 1092 C 99.2587 -0.673444 -3.40708 0
M  V30 1093 C 98.2127 -1.71054 -3.92332 0
M  V30 1094 C 97.5387 -1.17285 -5.21678 0
M  V30 1095 C 98.8387 -3.10718 -4.19824 0
M  V30 1096 H 100.533 -1.99693 -2.23076 0
M  V30 1097 H 98.0787 -0.96152 -1.07195 0
M  V30 1098 H 100.032 -0.534345 -4.17998 0
M  V30 1099 H 98.7557 0.293073 -3.25282 0
M  V30 1100 H 97.4147 -1.83791 -3.17201 0
M  V30 1101 H 97.0627 -0.196847 -5.02615 0
M  V30 1102 H 96.7627 -1.86592 -5.57187 0
M  V30 1103 H 98.2867 -1.04593 -6.01575 0
M  V30 1104 H 99.7007 -3.01192 -4.87808 0
M  V30 1105 H 98.0977 -3.77406 -4.66567 0
M  V30 1106 H 99.1677 -3.58524 -3.26479 0
M  V30 1107 N 100.511 1.16574 -1.06058 0
M  V30 1108 C 101.757 1.87565 -0.78683 0
M  V30 1109 C 102.112 1.80012 0.679214 0
M  V30 1110 O 101.405 1.20327 1.49104 0
M  V30 1111 C 101.599 3.36195 -1.21275 0
M  V30 1112 C 101.428 3.58216 -2.71866 0
M  V30 1113 C 100.198 3.7444 -3.39298 0
M  V30 1114 C 102.396 3.57134 -3.70081 0
M  V30 1115 N 100.378 3.84389 -4.78663 0
M  V30 1116 C 101.749 3.73038 -4.9522 0
M  V30 1117 C 103.804 3.40332 -3.63426 0
M  V30 1118 C 102.507 3.73879 -6.14497 0
M  V30 1119 C 104.533 3.42466 -4.82153 0
M  V30 1120 C 103.895 3.58887 -6.06118 0
M  V30 1121 H 99.9938 0.704081 -0.340284 0
M  V30 1122 H 102.578 1.39885 -1.35426 0
M  V30 1123 H 100.749 3.82522 -0.673179 0
M  V30 1124 H 102.481 3.94839 -0.887917 0
M  V30 1125 H 99.2358 3.74662 -2.89699 0
M  V30 1126 H 99.6598 3.93138 -5.51155 0
M  V30 1127 H 104.302 3.26566 -2.68541 0
M  V30 1128 H 102.02 3.86427 -7.09718 0
M  V30 1129 H 105.606 3.30712 -4.78666 0
M  V30 1130 H 104.486 3.60454 -6.9645 0
M  V30 1131 N 101.989 0.842826 1.3317 0
M  V30 1132 C 103.235 0.441099 1.97945 0
M  V30 1133 C 103.568 -0.998024 1.66593 0
M  V30 1134 O 102.843 -1.69839 0.947898 0
M  V30 1135 C 103.126 0.666841 3.53872 0
M  V30 1136 C 102.979 2.15352 3.94897 0
M  V30 1137 C 104.298 0.115544 4.39948 0
M  V30 1138 H 101.417 0.161739 0.719034 0
M  V30 1139 H 104.059 1.05907 1.57746 0
M  V30 1140 H 102.209 0.140828 3.88245 0
M  V30 1141 H 103.881 2.7447 3.70761 0
M  V30 1142 H 102.124 2.63653 3.44484 0
M  V30 1143 H 102.795 2.26221 5.03516 0
M  V30 1144 H 105.271 0.565213 4.12243 0
M  V30 1145 H 104.147 0.303152 5.48062 0
M  V30 1146 H 104.408 -0.980935 4.3108 0
M  V30 1147 N 103.467 -1.45747 0.599634 0
M  V30 1148 C 104.397 -2.33235 -0.111306 0
M  V30 1149 C 105.378 -1.46359 -0.866781 0
M  V30 1150 O 106.563 -1.75146 -0.838904 0
M  V30 1151 C 103.693 -3.28932 -1.11451 0
M  V30 1152 C 102.647 -4.25381 -0.472772 0
M  V30 1153 C 101.973 -5.1071 -1.58365 0
M  V30 1154 C 103.273 -5.18831 0.600948 0
M  V30 1155 H 104.967 -2.92927 0.61919 0
M  V30 1156 H 102.513 -1.40857 0.299215 0
M  V30 1157 H 104.466 -3.89002 -1.62036 0
M  V30 1158 H 103.19 -2.67381 -1.8755 0
M  V30 1159 H 101.849 -3.66598 0.0121472 0
M  V30 1160 H 101.497 -4.45533 -2.33473 0
M  V30 1161 H 101.197 -5.7604 -1.15982 0
M  V30 1162 H 102.721 -5.73647 -2.09194 0
M  V30 1163 H 104.135 -5.73019 0.179491 0
M  V30 1164 H 102.532 -5.92595 0.946076 0
M  V30 1165 H 103.602 -4.6174 1.48068 0
M  V30 1166 N 104.945 -0.338344 -1.53925 0
M  V30 1167 C 105.855 0.529421 -2.28548 0
M  V30 1168 C 106.871 1.11645 -1.3346 0
M  V30 1169 O 108.047 1.13325 -1.66492 0
M  V30 1170 C 105.112 1.66713 -3.03987 0
M  V30 1171 C 104.173 1.11041 -4.14691 0
M  V30 1172 C 103.406 2.19389 -4.86522 0
M  V30 1173 O 103.629 3.40013 -4.57982 0
M  V30 1174 O 102.563 1.83976 -5.73094 0
M  V30 1175 H 106.389 -0.0770399 -3.03602 0
M  V30 1176 H 103.974 -0.103555 -1.49041 0
M  V30 1177 H 105.856 2.32918 -3.5118 0
M  V30 1178 H 104.531 2.25949 -2.31794 0
M  V30 1179 H 103.438 0.413024 -3.71813 0
M  V30 1180 H 104.771 0.562975 -4.8897 0
M  V30 1181 N 106.423 1.57458 -0.0668435 0
M  V30 1182 C 107.671 1.92919 0.602214 0
M  V30 1183 C 107.992 0.947215 1.70449 0
M  V30 1184 O 107.262 -0.00544117 1.95899 0
M  V30 1185 H 105.842 0.71217 0.22544 0
M  V30 1186 H 108.504 1.94508 -0.123535 0
M  V30 1187 H 107.6 2.94589 1.03073 0
M  V30 1188 N 107.901 -0.206675 1.56239 0
M  V30 1189 C 108.831 -1.25909 1.96645 0
M  V30 1190 C 109.812 -1.48097 0.836734 0
M  V30 1191 O 110.997 -1.6003 1.10019 0
M  V30 1192 C 108.127 -2.6058 2.29599 0
M  V30 1193 C 107.081 -2.53024 3.452 0
M  V30 1194 C 106.407 -3.91861 3.63798 0
M  V30 1195 C 107.707 -2.06524 4.79734 0
M  V30 1196 H 109.401 -0.923369 2.84806 0
M  V30 1197 H 106.947 -0.442735 1.37025 0
M  V30 1198 H 108.9 -3.34375 2.56459 0
M  V30 1199 H 107.624 -2.95869 1.38307 0
M  V30 1200 H 106.283 -1.81684 3.18412 0
M  V30 1201 H 105.931 -4.24483 2.69857 0
M  V30 1202 H 105.631 -3.87683 4.4156 0
M  V30 1203 H 107.155 -4.67296 3.93022 0
M  V30 1204 H 108.569 -2.70072 5.05702 0
M  V30 1205 H 106.966 -2.13374 5.60885 0
M  V30 1206 H 108.036 -1.01802 4.74093 0
M  V30 1207 N 109.379 -1.50304 -0.473955 0
M  V30 1208 C 110.79 -1.54042 -1.0549 0
M  V30 1209 C 111.141 -0.342248 -1.93192 0
M  V30 1210 O 110.266 0.545157 -2.09421 0
M  V30 1211 C 110.861 -2.79152 -1.91989 0
M  V30 1212 C 109.42 -2.8558 -2.45196 0
M  V30 1213 C 108.567 -2.48295 -1.2347 0
M  V30 1214 H 111.518 -1.5661 -0.256693 0
M  V30 1215 H 111.539 -2.60845 -2.7702 0
M  V30 1216 H 111.051 -3.66339 -1.28131 0
M  V30 1217 H 109.152 -2.02738 -3.12615 0
M  V30 1218 H 109.265 -3.88403 -2.80499 0
M  V30 1219 H 107.629 -2.00669 -1.56856 0
M  V30 1220 H 108.412 -3.37787 -0.612789 0
M  V30 1221 N 110.857 0.726932 -1.39834 0
M  V30 1222 C 112.103 1.48771 -1.38704 0
M  V30 1223 C 112.458 1.92394 0.0146387 0
M  V30 1224 O 111.751 1.64474 0.982797 0
M  V30 1225 C 111.945 2.73495 -2.30077 0
M  V30 1226 C 111.774 2.42068 -3.78989 0
M  V30 1227 C 110.544 2.33966 -4.4787 0
M  V30 1228 C 112.742 2.0708 -4.70768 0
M  V30 1229 N 110.724 1.95095 -5.82075 0
M  V30 1230 C 112.095 1.78719 -5.93683 0
M  V30 1231 C 114.15 1.93618 -4.58712 0
M  V30 1232 C 112.853 1.3825 -7.05889 0
M  V30 1233 C 114.879 1.54553 -5.70848 0
M  V30 1234 C 114.241 1.27082 -6.92842 0
M  V30 1235 H 110.34 0.542919 -0.562817 0
M  V30 1236 H 112.924 0.84408 -1.75452 0
M  V30 1237 H 111.095 3.35625 -1.95474 0
M  V30 1238 H 112.827 3.39755 -2.19883 0
M  V30 1239 H 109.582 2.51331 -4.0141 0
M  V30 1240 H 110.006 1.7823 -6.53118 0
M  V30 1241 H 114.648 2.13522 -3.64922 0
M  V30 1242 H 112.366 1.17088 -7.99572 0
M  V30 1243 H 115.952 1.44731 -5.6351 0
M  V30 1244 H 114.832 0.973069 -7.78139 0
M  V30 1245 N 112.336 1.25143 0.95797 0
M  V30 1246 C 113.246 1.06968 2.08794 0
M  V30 1247 C 114.262 0.00773911 1.73998 0
M  V30 1248 O 115.438 0.207972 2.00323 0
M  V30 1249 C 112.503 0.68691 3.39827 0
M  V30 1250 C 111.564 1.82641 3.88511 0
M  V30 1251 C 110.797 1.46181 5.1329 0
M  V30 1252 O 111.02 0.355971 5.69288 0
M  V30 1253 O 109.954 2.29085 5.566 0
M  V30 1254 H 113.78 2.01723 2.27027 0
M  V30 1255 H 111.365 1.04051 1.07209 0
M  V30 1256 H 113.247 0.485417 4.18595 0
M  V30 1257 H 111.922 -0.231417 3.22872 0
M  V30 1258 H 110.829 2.08274 3.10762 0
M  V30 1259 H 112.162 2.72386 4.09959 0
M  V30 1260 N 113.814 -1.1601 1.06675 0
M  V30 1261 C 114.761 -2.20525 0.680967 0
M  V30 1262 C 115.731 -1.62904 -0.324283 0
M  V30 1263 O 116.916 -1.89615 -0.212294 0
M  V30 1264 C 114.056 -3.45013 0.0776551 0
M  V30 1265 C 113.169 -4.16863 1.13355 0
M  V30 1266 C 112.304 -5.2888 0.49597 0
M  V30 1267 C 111.343 -5.92537 1.53513 0
M  V30 1268 N 110.48 -6.96038 0.920631 0
M  V30 1269 H 115.32 -2.52876 1.57663 0
M  V30 1270 H 112.857 -1.24199 0.788223 0
M  V30 1271 H 114.815 -4.16193 -0.289704 0
M  V30 1272 H 113.445 -3.132 -0.781393 0
M  V30 1273 H 112.497 -3.44248 1.61857 0
M  V30 1274 H 113.809 -4.60294 1.92174 0
M  V30 1275 H 112.963 -6.06653 0.0758604 0
M  V30 1276 H 111.702 -4.86622 -0.324062 0
M  V30 1277 H 110.707 -5.13482 1.9651 0
M  V30 1278 H 111.932 -6.36873 2.35733 0
M  V30 1279 H 109.878 -6.55888 0.12138 0
M  V30 1280 H 109.795 -7.3786 1.64616 0
M  V30 1281 H 111.063 -7.77725 0.525795 0
M  V30 1282 N 115.292 -0.849877 -1.32721 0
M  V30 1283 C 116.538 -0.451591 -1.97708 0
M  V30 1284 C 116.871 0.989175 -1.6712 0
M  V30 1285 O 116.146 1.69334 -0.956891 0
M  V30 1286 C 116.429 -0.685598 -3.53513 0
M  V30 1287 C 116.282 -2.17444 -3.93749 0
M  V30 1288 C 117.601 -0.138874 -4.39881 0
M  V30 1289 H 114.72 -0.16555 -0.718166 0
M  V30 1290 H 117.362 -1.06742 -1.57182 0
M  V30 1291 H 115.512 -0.161416 -3.88165 0
M  V30 1292 H 117.184 -2.76433 -3.693 0
M  V30 1293 H 115.427 -2.65476 -3.43081 0
M  V30 1294 H 116.098 -2.28888 -5.02309 0
M  V30 1295 H 118.574 -0.587068 -4.11938 0
M  V30 1296 H 117.45 -0.332213 -5.47894 0
M  V30 1297 H 117.711 0.95806 -4.31594 0
M  V30 1298 N 116.77 1.45427 -0.607355 0
M  V30 1299 C 118.181 1.85756 -0.187535 0
M  V30 1300 C 118.532 1.5077 1.25551 0
M  V30 1301 O 117.657 0.93427 1.95193 0
M  V30 1302 C 118.252 3.37154 -0.333572 0
M  V30 1303 C 116.811 3.76387 0.0315542 0
M  V30 1304 C 115.958 2.69377 -0.658117 0
M  V30 1305 H 118.909 1.36231 -0.81405 0
M  V30 1306 H 118.93 3.78014 0.43428 0
M  V30 1307 H 118.442 3.62586 -1.38393 0
M  V30 1308 H 116.543 3.56571 1.0811 0
M  V30 1309 H 116.656 4.77731 -0.361935 0
M  V30 1310 H 115.02 2.5452 -0.0957873 0
M  V30 1311 H 115.803 2.97646 -1.7106 0
M  V30 1312 N 118.248 0.346503 1.53744 0
M  V30 1313 C 119.158 -0.517293 2.28826 0
M  V30 1314 C 120.174 -1.10935 1.3405 0
M  V30 1315 O 121.35 -1.1244 1.6709 0
M  V30 1316 C 118.415 -1.65098 3.04866 0
M  V30 1317 C 117.476 -1.0884 4.15274 0
M  V30 1318 C 116.709 -2.16806 4.87679 0
M  V30 1319 O 116.932 -3.3758 4.59778 0
M  V30 1320 O 115.866 -1.80934 5.74061 0
M  V30 1321 H 119.692 0.0931396 3.03557 0
M  V30 1322 H 117.277 0.111458 1.48984 0
M  V30 1323 H 119.159 -2.31053 3.5241 0
M  V30 1324 H 117.834 -2.24717 2.32989 0
M  V30 1325 H 116.741 -0.3933 3.72027 0
M  V30 1326 H 118.074 -0.537036 4.89261 0
M  V30 1327 N 119.726 -1.57421 0.075193 0
M  V30 1328 C 120.689 -2.11791 -0.876203 0
M  V30 1329 C 121.689 -1.04268 -1.22412 0
M  V30 1330 O 122.879 -1.30242 -1.15684 0
M  V30 1331 C 120.011 -2.62207 -2.17854 0
M  V30 1332 H 121.204 -2.9716 -0.40444 0
M  V30 1333 H 118.757 -1.55333 -0.173557 0
M  V30 1334 H 119.492 -1.803 -2.6956 0
M  V30 1335 H 119.277 -3.40802 -1.93897 0
M  V30 1336 H 120.767 -3.04335 -2.85955 0
M  V30 1337 N 121.204 0.198386 -1.56346 0
M  V30 1338 C 122.167 1.22952 -1.93431 0
M  V30 1339 C 123.167 1.38611 -0.815092 0
M  V30 1340 O 124.357 1.36479 -1.08255 0
M  V30 1341 C 121.489 2.59946 -2.20546 0
M  V30 1342 H 122.682 0.912626 -2.85677 0
M  V30 1343 H 120.235 0.43977 -1.49986 0
M  V30 1344 H 120.97 2.96696 -1.30927 0
M  V30 1345 H 120.755 2.49953 -3.02102 0
M  V30 1346 H 122.245 3.3431 -2.50253 0
M  V30 1347 N 122.682 1.50554 0.465978 0
M  V30 1348 C 124.098 1.38093 0.800154 0
M  V30 1349 C 124.298 0.440988 1.96615 0
M  V30 1350 O 123.354 -0.114499 2.5224 0
M  V30 1351 C 124.667 2.79565 1.10742 0
M  V30 1352 C 126.215 2.88516 1.21357 0
M  V30 1353 C 126.69 4.30833 1.55393 0
M  V30 1354 N 128.181 4.33807 1.62375 0
M  V30 1355 C 128.916 5.40927 1.90225 0
M  V30 1356 N 128.412 6.58247 2.16062 0
M  V30 1357 N 130.205 5.28376 1.9177 0
M  V30 1358 H 122.356 2.10237 -0.302366 0
M  V30 1359 H 124.619 0.945203 -0.0727746 0
M  V30 1360 H 124.325 3.50208 0.323661 0
M  V30 1361 H 124.199 3.17125 2.04234 0
M  V30 1362 H 126.586 2.1809 1.98799 0
M  V30 1363 H 126.667 2.54492 0.258321 0
M  V30 1364 H 126.311 5.01799 0.784889 0
M  V30 1365 H 126.241 4.62347 2.52076 0
M  V30 1366 H 128.732 3.49212 1.44427 0
M  V30 1367 H 129.045 7.3569 2.36601 0
M  V30 1368 H 127.39 6.61413 2.13444 0
M  V30 1369 H 130.581 4.35715 1.71085 0
M  V30 1370 H 130.754 6.11944 2.13139 0
M  V30 1371 N 124.16 -0.719506 1.40217 0
M  V30 1372 C 125.576 -1.02707 1.22161 0
M  V30 1373 C 125.776 -2.0128 0.0940557 0
M  V30 1374 O 124.832 -2.46452 -0.549318 0
M  V30 1375 C 126.145 -1.57454 2.56181 0
M  V30 1376 C 127.693 -1.69458 2.63159 0
M  V30 1377 C 128.168 -2.27611 3.97438 0
M  V30 1378 N 129.659 -2.35002 3.99159 0
M  V30 1379 C 130.394 -2.80972 4.99842 0
M  V30 1380 N 129.89 -3.26723 6.10921 0
M  V30 1381 N 131.683 -2.80321 4.87213 0
M  V30 1382 H 123.834 -0.0660492 2.12297 0
M  V30 1383 H 126.097 -0.0919077 0.943534 0
M  V30 1384 H 125.803 -0.924873 3.39321 0
M  V30 1385 H 125.677 -2.56036 2.76993 0
M  V30 1386 H 128.064 -2.33543 1.80393 0
M  V30 1387 H 128.145 -0.694867 2.46181 0
M  V30 1388 H 127.789 -1.6415 4.80643 0
M  V30 1389 H 127.719 -3.2829 4.11744 0
M  V30 1390 H 130.21 -2.02685 3.18947 0
M  V30 1391 H 130.523 -3.60355 6.8364 0
M  V30 1392 H 128.868 -3.24692 6.14492 0
M  V30 1393 H 132.059 -2.43912 3.9953 0
M  V30 1394 H 132.232 -3.15831 5.65822 0
M  V30 1395 N 125.638 -1.25649 -0.95132 0
M  V30 1396 C 126.568 -1.08808 -2.06599 0
M  V30 1397 C 127.549 0.00382547 -1.701 0
M  V30 1398 O 128.734 -0.166325 -1.93486 0
M  V30 1399 C 125.864 -0.709542 -3.39975 0
M  V30 1400 C 124.818 -1.75206 -3.90496 0
M  V30 1401 C 124.144 -1.22811 -5.20405 0
M  V30 1402 C 125.444 -3.15153 -4.16504 0
M  V30 1403 H 127.138 -2.02048 -2.20946 0
M  V30 1404 H 124.684 -0.972835 -1.06169 0
M  V30 1405 H 126.637 -0.578649 -4.17408 0
M  V30 1406 H 125.361 0.258556 -3.25575 0
M  V30 1407 H 124.02 -1.87145 -3.15234 0
M  V30 1408 H 123.668 -0.250145 -5.02378 0
M  V30 1409 H 123.368 -1.92492 -5.55176 0
M  V30 1410 H 124.892 -1.10968 -6.00432 0
M  V30 1411 H 126.306 -3.06349 -4.84586 0
M  V30 1412 H 124.703 -3.82333 -4.62538 0
M  V30 1413 H 125.773 -3.61966 -3.22658 0
M  V30 1414 N 127.117 1.15442 -1.07289 0
M  V30 1415 C 128.064 2.20161 -0.692653 0
M  V30 1416 C 129.034 1.63073 0.31564 0
M  V30 1417 O 130.219 1.89725 0.202235 0
M  V30 1418 C 127.359 3.44967 -0.0959509 0
M  V30 1419 C 126.472 4.16256 -1.15564 0
M  V30 1420 C 125.607 5.28609 -0.524011 0
M  V30 1421 C 124.646 5.91715 -1.56653 0
M  V30 1422 N 123.783 6.9554 -0.957531 0
M  V30 1423 H 128.623 2.52037 -1.59002 0
M  V30 1424 H 126.16 1.2378 -0.794798 0
M  V30 1425 H 128.118 4.16341 0.267628 0
M  V30 1426 H 126.748 3.1361 0.764772 0
M  V30 1427 H 125.8 3.43385 -1.6368 0
M  V30 1428 H 127.112 4.59268 -1.94613 0
M  V30 1429 H 126.266 6.06604 -0.108032 0
M  V30 1430 H 125.005 4.86787 0.29825 0
M  V30 1431 H 124.01 5.12433 -1.9923 0
M  V30 1432 H 125.235 6.35614 -2.39107 0
M  V30 1433 H 123.181 6.55814 -0.156162 0
M  V30 1434 H 123.098 7.36977 -1.68526 0
M  V30 1435 H 124.366 7.77435 -0.567032 0
M  V30 1436 N 128.595 0.856903 1.32268 0
M  V30 1437 C 129.558 0.308171 2.27119 0
M  V30 1438 C 130.558 -0.533421 1.51695 0
M  V30 1439 O 131.748 -0.344607 1.70757 0
M  V30 1440 C 128.88 -0.563757 3.36206 0
M  V30 1441 H 130.073 1.14535 2.77167 0
M  V30 1442 H 127.626 0.631421 1.42978 0
M  V30 1443 H 128.361 -1.42266 2.91429 0
M  V30 1444 H 128.146 0.0386749 3.92081 0
M  V30 1445 H 129.636 -0.940386 4.06874 0
M  V30 1446 N 130.073 -1.45103 0.615059 0
M  V30 1447 C 131.02 -2.30586 -0.0993978 0
M  V30 1448 C 131.99 -1.42544 -0.852669 0
M  V30 1449 O 133.175 -1.71465 -0.836917 0
M  V30 1450 C 130.315 -3.27572 -1.08583 0
M  V30 1451 C 129.428 -4.30717 -0.332656 0
M  V30 1452 C 128.563 -5.14807 -1.30947 0
M  V30 1453 C 127.602 -6.09673 -0.544538 0
M  V30 1454 N 126.739 -6.86517 -1.47101 0
M  V30 1455 H 131.579 -2.91144 0.635542 0
M  V30 1456 H 129.116 -1.4346 0.325206 0
M  V30 1457 H 131.074 -3.82276 -1.67095 0
M  V30 1458 H 129.704 -2.68751 -1.78809 0
M  V30 1459 H 128.756 -3.78615 0.368107 0
M  V30 1460 H 130.068 -4.98102 0.263842 0
M  V30 1461 H 129.222 -5.73948 -1.96643 0
M  V30 1462 H 127.961 -4.47458 -1.9399 0
M  V30 1463 H 126.966 -5.49656 0.126003 0
M  V30 1464 H 128.191 -6.79052 0.080947 0
M  V30 1465 H 126.137 -6.21851 -2.08895 0
M  V30 1466 H 126.054 -7.50281 -0.928137 0
M  V30 1467 H 127.322 -7.50194 -2.11731 0
M  V30 1468 N 131.551 -0.354651 -1.53558 0
M  V30 1469 C 132.514 0.484566 -2.24019 0
M  V30 1470 C 133.514 1.01861 -1.24422 0
M  V30 1471 O 134.704 0.906097 -1.4878 0
M  V30 1472 C 131.836 1.67615 -2.96847 0
M  V30 1473 H 133.029 -0.131843 -2.9961 0
M  V30 1474 H 130.582 -0.106165 -1.55939 0
M  V30 1475 H 131.317 2.33095 -2.25471 0
M  V30 1476 H 131.102 1.30029 -3.69912 0
M  V30 1477 H 132.592 2.27114 -3.50441 0
M  V30 1478 N 133.029 1.57378 -0.0835403 0
M  V30 1479 C 134.275 1.94217 0.583733 0
M  V30 1480 C 134.608 0.964653 1.68547 0
M  V30 1481 O 133.883 -0.00422258 1.945 0
M  V30 1482 C 134.166 3.41253 1.14972 0
M  V30 1483 C 134.019 4.49768 0.0538277 0
M  V30 1484 C 135.338 3.89352 2.05166 0
M  V30 1485 H 132.457 0.706233 0.210724 0
M  V30 1486 H 135.099 1.89392 -0.1519 0
M  V30 1487 H 133.249 3.45496 1.77665 0
M  V30 1488 H 134.921 4.57641 -0.579851 0
M  V30 1489 H 133.164 4.29432 -0.614068 0
M  V30 1490 H 133.835 5.49817 0.490452 0
M  V30 1491 H 136.311 3.87189 1.52393 0
M  V30 1492 H 135.187 4.92822 2.41698 0
M  V30 1493 H 135.448 3.27973 2.96456 0
M  V30 1494 N 134.507 -0.190092 1.56449 0
M  V30 1495 C 135.737 -0.92443 1.84764 0
M  V30 1496 C 136.145 -1.77146 0.664529 0
M  V30 1497 O 135.488 -1.79812 -0.375957 0
M  V30 1498 C 135.55 -1.86651 3.07248 0
M  V30 1499 C 135.214 -1.20094 4.40938 0
M  V30 1500 C 136.211 -0.575445 5.16706 0
M  V30 1501 C 133.896 -1.2033 4.87674 0
M  V30 1502 C 135.89 0.0388111 6.37388 0
M  V30 1503 C 133.577 -0.585214 6.08291 0
M  V30 1504 C 134.575 0.0347578 6.82991 0
M  V30 1505 O 134.263 0.643147 8.01323 0
M  V30 1506 H 133.995 -0.274974 0.617548 0
M  V30 1507 H 136.549 -0.200788 2.04416 0
M  V30 1508 H 134.779 -2.62998 2.83494 0
M  V30 1509 H 136.468 -2.46907 3.22167 0
M  V30 1510 H 137.234 -0.565728 4.81689 0
M  V30 1511 H 133.113 -1.67526 4.29484 0
M  V30 1512 H 136.657 0.523329 6.95634 0
M  V30 1513 H 132.554 -0.592451 6.42775 0
M  V30 1514 H 133.322 0.540545 8.16713 0
M  V30 1515 N 135.985 -1.50799 -0.457987 0
M  V30 1516 C 136.948 -1.7005 -1.53674 0
M  V30 1517 C 137.948 -0.570881 -1.50325 0
M  V30 1518 O 139.138 -0.838126 -1.52712 0
M  V30 1519 C 136.27 -1.73788 -2.93276 0
M  V30 1520 H 137.463 -2.66306 -1.37917 0
M  V30 1521 H 135.016 -1.40477 -0.685271 0
M  V30 1522 H 135.751 -0.792717 -3.14462 0
M  V30 1523 H 135.536 -2.55864 -2.97113 0
M  V30 1524 H 137.026 -1.90591 -3.71571 0
M  V30 1525 N 137.463 0.71206 -1.40597 0
M  V30 1526 C 138.393 1.83889 -1.43899 0
M  V30 1527 C 139.374 1.67442 -0.299504 0
M  V30 1528 O 140.559 1.87421 -0.508624 0
M  V30 1529 C 137.689 3.21877 -1.30431 0
M  V30 1530 C 136.643 3.53002 -2.42019 0
M  V30 1531 C 135.969 4.90172 -2.13626 0
M  V30 1532 C 137.269 3.53643 -3.84362 0
M  V30 1533 H 138.963 1.81383 -2.38203 0
M  V30 1534 H 136.509 0.871237 -1.14654 0
M  V30 1535 H 138.462 4.00404 -1.31357 0
M  V30 1536 H 137.186 3.24968 -0.326049 0
M  V30 1537 H 135.845 2.76818 -2.40349 0
M  V30 1538 H 135.493 4.89869 -1.14182 0
M  V30 1539 H 135.193 5.11962 -2.88389 0
M  V30 1540 H 136.717 5.71028 -2.1624 0
M  V30 1541 H 138.131 4.22203 -3.87837 0
M  V30 1542 H 136.528 3.86961 -4.58673 0
M  V30 1543 H 137.598 2.52954 -4.13693 0
M  V30 1544 N 138.941 1.26152 0.944643 0
M  V30 1545 C 140.169 1.14259 1.72489 0
M  V30 1546 C 140.584 -0.302555 1.8636 0
M  V30 1547 O 139.941 -1.20741 1.36849 0
M  V30 1548 C 139.992 1.80266 3.13347 0
M  V30 1549 O 139.713 3.19133 3.00143 0
M  V30 1550 C 141.214 1.74283 4.07603 0
M  V30 1551 H 138.434 0.398051 0.540181 0
M  V30 1552 H 140.978 1.66706 1.18446 0
M  V30 1553 H 139.133 1.31766 3.64303 0
M  V30 1554 H 139.547 3.51744 3.89071 0
M  V30 1555 H 141.021 2.25111 5.04013 0
M  V30 1556 H 141.498 0.708631 4.33446 0
M  V30 1557 H 142.104 2.22319 3.62567 0
M  V30 1558 N 140.419 -1.14872 1.07899 0
M  V30 1559 C 141.644 -1.90202 0.826926 0
M  V30 1560 C 142.069 -1.77774 -0.614664 0
M  V30 1561 O 141.427 -1.11431 -1.43013 0
M  V30 1562 C 141.475 -3.38352 1.24702 0
M  V30 1563 O 140.579 -4.10497 0.39575 0
M  V30 1564 H 139.92 -0.591968 0.300782 0
M  V30 1565 H 142.45 -1.45437 1.43907 0
M  V30 1566 H 142.46 -3.89156 1.22563 0
M  V30 1567 H 141.135 -3.46715 2.29698 0
M  V30 1568 H 139.712 -3.69796 0.480117 0
M  V30 1569 N 141.898 -0.863906 -1.31812 0
M  V30 1570 C 142.848 -0.286898 -2.26188 0
M  V30 1571 C 143.832 0.572577 -1.50367 0
M  V30 1572 O 145.024 0.420447 -1.71934 0
M  V30 1573 C 142.153 0.515849 -3.39402 0
M  V30 1574 C 141.239 -0.356531 -4.22599 0
M  V30 1575 N 141.63 -1.44716 -4.84656 0
M  V30 1576 C 139.928 -0.147898 -4.45755 0
M  V30 1577 C 140.629 -1.98462 -5.46798 0
M  V30 1578 N 139.605 -1.28247 -5.28255 0
M  V30 1579 H 143.407 -1.12055 -2.717 0
M  V30 1580 H 140.921 -0.711012 -1.46008 0
M  V30 1581 H 142.918 0.945701 -4.06032 0
M  V30 1582 H 141.578 1.34718 -2.95434 0
M  V30 1583 H 142.589 -1.83008 -4.84488 0
M  V30 1584 H 139.266 0.647973 -4.12441 0
M  V30 1585 H 140.656 -2.89932 -6.06126 0
M  V30 1586 N 143.376 1.44774 -0.622745 0
M  V30 1587 C 144.604 2.06487 -0.130722 0
M  V30 1588 C 145.019 1.46476 1.19123 0
M  V30 1589 O 144.376 0.584502 1.72887 0
M  V30 1590 C 144.427 3.615 -0.000807207 0
M  V30 1591 O 144.148 4.19274 -1.27048 0
M  V30 1592 C 145.649 4.40229 0.520898 0
M  V30 1593 H 142.869 0.666704 -0.0758106 0
M  V30 1594 H 145.413 1.85779 -0.854774 0
M  V30 1595 H 143.568 3.81498 0.673643 0
M  V30 1596 H 143.982 5.12622 -1.1099 0
M  V30 1597 H 145.456 5.49144 0.560838 0
M  V30 1598 H 145.933 4.1108 1.54627 0
M  V30 1599 H 146.539 4.25131 -0.120018 0
M  V30 1600 N 144.854 0.36279 1.53368 0
M  V30 1601 C 146.265 -0.117022 1.86333 0
M  V30 1602 C 146.616 -1.48397 1.28347 0
M  V30 1603 O 145.741 -2.07787 0.604428 0
M  V30 1604 C 146.336 -0.21912 3.38091 0
M  V30 1605 C 144.895 -0.643184 3.70864 0
M  V30 1606 C 144.042 0.211318 2.76494 0
M  V30 1607 H 146.993 0.581687 1.47655 0
M  V30 1608 H 147.014 -1.04319 3.6592 0
M  V30 1609 H 146.526 0.775902 3.80265 0
M  V30 1610 H 144.627 -1.64654 3.34245 0
M  V30 1611 H 144.74 -0.41973 4.77258 0
M  V30 1612 H 143.104 -0.319367 2.5269 0
M  V30 1613 H 143.887 1.20383 3.21501 0
M  V30 1614 N 146.332 -1.57332 0.0918853 0
M  V30 1615 C 147.562 -1.98286 -0.580205 0
M  V30 1616 C 147.97 -0.969713 -1.6246 0
M  V30 1617 O 147.313 0.0493501 -1.83634 0
M  V30 1618 C 147.375 -3.35603 -1.28882 0
M  V30 1619 C 147.039 -4.55285 -0.395559 0
M  V30 1620 C 148.036 -5.18687 0.355002 0
M  V30 1621 C 145.721 -5.01314 -0.314556 0
M  V30 1622 C 147.715 -6.26484 1.17458 0
M  V30 1623 C 145.402 -6.08979 0.508677 0
M  V30 1624 C 146.4 -6.71429 1.2519 0
M  V30 1625 O 146.088 -7.77018 2.06151 0
M  V30 1626 H 145.82 -0.656678 -0.160466 0
M  V30 1627 H 148.374 -2.04721 0.16688 0
M  V30 1628 H 146.604 -3.25842 -2.08241 0
M  V30 1629 H 148.293 -3.61026 -1.85512 0
M  V30 1630 H 149.059 -4.84058 0.302134 0
M  V30 1631 H 144.938 -4.5247 -0.882697 0
M  V30 1632 H 148.482 -6.75159 1.75518 0
M  V30 1633 H 144.379 -6.4304 0.563037 0
M  V30 1634 H 145.147 -7.93991 1.98799 0
M  V30 1635 N 147.81 0.181792 -1.56548 0
M  V30 1636 C 149.058 0.89832 -1.81038 0
M  V30 1637 C 149.379 1.83232 -0.667164 0
M  V30 1638 O 148.649 1.93372 0.313673 0
M  V30 1639 H 147.229 0.33471 -0.667816 0
M  V30 1640 H 149.891 0.184116 -1.94028 0
M  V30 1641 H 148.987 1.4815 -2.74696 0
M  V30 1642 N 149.288 1.51039 0.449983 0
M  V30 1643 C 150.704 1.38934 0.785462 0
M  V30 1644 C 150.904 0.461817 1.96136 0
M  V30 1645 O 149.96 -0.0877389 2.52348 0
M  V30 1646 C 151.273 2.80724 1.0777 0
M  V30 1647 C 152.821 2.89787 1.1829 0
M  V30 1648 C 153.296 4.32457 1.50815 0
M  V30 1649 N 154.787 4.35505 1.57764 0
M  V30 1650 C 155.522 5.42914 1.84477 0
M  V30 1651 N 155.018 6.60502 2.09068 0
M  V30 1652 N 156.811 5.3038 1.86155 0
M  V30 1653 H 148.962 2.09904 -0.324647 0
M  V30 1654 H 151.225 0.944378 -0.0827957 0
M  V30 1655 H 150.931 3.50531 0.286498 0
M  V30 1656 H 150.805 3.19273 2.00859 0
M  V30 1657 H 153.192 2.20186 1.96474 0
M  V30 1658 H 153.273 2.54752 0.231314 0
M  V30 1659 H 152.917 5.02603 0.731622 0
M  V30 1660 H 152.847 4.64995 2.47158 0
M  V30 1661 H 155.338 3.50724 1.40715 0
M  V30 1662 H 155.651 7.38158 2.28785 0
M  V30 1663 H 153.996 6.63639 2.06416 0
M  V30 1664 H 157.187 4.37505 1.66454 0
M  V30 1665 H 157.36 6.1417 2.06637 0
M  V30 1666 N 150.766 -0.704594 1.40972 0
M  V30 1667 C 151.996 -1.49138 1.42974 0
M  V30 1668 C 152.404 -1.89175 0.0308406 0
M  V30 1669 O 151.747 -1.56734 -0.958138 0
M  V30 1670 C 151.809 -2.79016 2.26694 0
M  V30 1671 C 151.473 -2.61236 3.74973 0
M  V30 1672 C 152.47 -2.27773 4.67349 0
M  V30 1673 C 150.155 -2.77158 4.18914 0
M  V30 1674 C 152.149 -2.10457 6.01653 0
M  V30 1675 C 149.836 -2.59459 5.53285 0
M  V30 1676 C 150.834 -2.26158 6.4447 0
M  V30 1677 O 150.522 -2.08605 7.76363 0
M  V30 1678 H 150.254 -0.466443 0.489292 0
M  V30 1679 H 152.808 -0.8758 1.85793 0
M  V30 1680 H 151.038 -3.42947 1.78673 0
M  V30 1681 H 152.727 -3.40782 2.20504 0
M  V30 1682 H 153.493 -2.15095 4.34694 0
M  V30 1683 H 149.372 -3.02064 3.48251 0
M  V30 1684 H 152.916 -1.84387 6.72791 0
M  V30 1685 H 148.813 -2.71725 5.85522 0
M  V30 1686 H 149.581 -2.23439 7.87412 0
M  V30 1687 N 152.244 -1.26651 -0.937939 0
M  V30 1688 C 153.66 -1.03834 -1.21205 0
M  V30 1689 C 153.86 0.234502 -2.00131 0
M  V30 1690 O 152.916 0.942767 -2.3424 0
M  V30 1691 C 154.229 -2.27167 -1.97017 0
M  V30 1692 C 155.777 -2.32101 -2.09996 0
M  V30 1693 C 156.252 -3.55136 -2.8921 0
M  V30 1694 N 157.743 -3.55632 -2.96783 0
M  V30 1695 C 158.478 -4.475 -3.58512 0
M  V30 1696 N 157.974 -5.4966 -4.21717 0
M  V30 1697 N 159.767 -4.35145 -3.55816 0
M  V30 1698 H 151.918 -2.08398 -0.410391 0
M  V30 1699 H 154.181 -0.916031 -0.244114 0
M  V30 1700 H 153.887 -3.19765 -1.46434 0
M  V30 1701 H 153.761 -2.31672 -2.97671 0
M  V30 1702 H 156.148 -1.40015 -2.59769 0
M  V30 1703 H 156.229 -2.31605 -1.08594 0
M  V30 1704 H 155.873 -4.47553 -2.40123 0
M  V30 1705 H 155.803 -3.5288 -3.90875 0
M  V30 1706 H 158.294 -2.81743 -2.51852 0
M  V30 1707 H 158.607 -6.15943 -4.66727 0
M  V30 1708 H 156.952 -5.53514 -4.20294 0
M  V30 1709 H 160.143 -3.5455 -3.05634 0
M  V30 1710 H 160.316 -5.06934 -4.03636 0
M  V30 1711 N 153.722 1.14298 -1.08507 0
M  V30 1712 C 154.999 1.81544 -0.728088 0
M  V30 1713 C 155.379 1.95838 0.78808 0
M  V30 1714 O 154.727 1.51904 1.70697 0
M  V30 1715 C 154.937 3.17169 -1.45619 0
M  V30 1716 C 156.285 3.9265 -1.61591 0
M  V30 1717 O 157.309 3.26762 -1.41793 0
M  V30 1718 O 156.168 5.10807 -1.94263 0
M  V30 1719 H 153.262 0.78491 -0.260471 0
M  V30 1720 H 155.808 1.21307 -1.18671 0
M  V30 1721 H 154.58 3.01934 -2.489 0
M  V30 1722 H 154.203 3.851 -0.989124 0
M  V30 1723 N 155.201 0.870884 1.31352 0
M  V30 1724 C 156.449 0.48132 1.96285 0
M  V30 1725 C 156.77 -0.969813 1.69173 0
M  V30 1726 O 156.04 -1.67998 1.00764 0
M  V30 1727 H 154.62 0.175002 0.726212 0
M  V30 1728 H 157.282 1.11087 1.60143 0
M  V30 1729 H 156.378 0.639825 3.05471 0
M  V30 1730 N 156.679 -1.44442 0.630414 0
M  V30 1731 C 158.095 -1.56832 0.295973 0
M  V30 1732 C 158.295 -1.61806 -1.20088 0
M  V30 1733 O 157.351 -1.5607 -1.9849 0
M  V30 1734 C 158.664 -2.84031 0.987264 0
M  V30 1735 C 160.212 -2.97742 0.96534 0
M  V30 1736 C 160.687 -4.27743 1.63708 0
M  V30 1737 N 162.178 -4.34555 1.60364 0
M  V30 1738 C 162.913 -5.33862 2.09234 0
M  V30 1739 N 162.409 -6.39578 2.66292 0
M  V30 1740 N 164.202 -5.25366 1.99867 0
M  V30 1741 H 156.353 -1.39457 1.60205 0
M  V30 1742 H 158.616 -0.668237 0.672431 0
M  V30 1743 H 158.322 -2.86338 2.04215 0
M  V30 1744 H 158.196 -3.73534 0.524588 0
M  V30 1745 H 160.583 -2.94989 -0.0810639 0
M  V30 1746 H 160.664 -2.09589 1.4665 0
M  V30 1747 H 160.308 -4.31255 2.68293 0
M  V30 1748 H 160.238 -5.14752 1.11076 0
M  V30 1749 H 162.729 -3.58772 1.18705 0
M  V30 1750 H 163.042 -7.11637 3.01317 0
M  V30 1751 H 161.387 -6.40265 2.70343 0
M  V30 1752 H 164.578 -4.41688 1.55013 0
M  V30 1753 H 164.751 -6.02606 2.38265 0
M  V30 1754 N 158.157 -0.370918 -1.53173 0
M  V30 1755 C 159.403 0.217423 -2.01631 0
M  V30 1756 C 159.736 1.47983 -1.25756 0
M  V30 1757 O 159.011 1.91274 -0.352764 0
M  V30 1758 C 159.294 0.503982 -3.56556 0
M  V30 1759 C 159.147 -0.77243 -4.43118 0
M  V30 1760 C 160.466 1.30234 -4.20389 0
M  V30 1761 H 157.585 0.0775486 -0.732909 0
M  V30 1762 H 160.227 -0.496863 -1.83388 0
M  V30 1763 H 158.377 1.11248 -3.72231 0
M  V30 1764 H 160.049 -1.4098 -4.39229 0
M  V30 1765 H 158.292 -1.39167 -4.10871 0
M  V30 1766 H 158.963 -0.526815 -5.4948 0
M  V30 1767 H 161.439 0.787546 -4.08579 0
M  V30 1768 H 160.315 1.47158 -5.28806 0
M  V30 1769 H 160.576 2.31237 -3.76805 0
M  V30 1770 N 159.635 1.57281 -0.100228 0
M  V30 1771 C 161.051 1.57527 0.256416 0
M  V30 1772 C 161.251 1.11173 1.68056 0
M  V30 1773 O 160.307 0.79053 2.39806 0
M  V30 1774 C 161.62 3.00673 0.0401747 0
M  V30 1775 C 163.168 3.12815 0.107528 0
M  V30 1776 C 163.643 4.57929 -0.0807834 0
M  V30 1777 N 165.134 4.63193 -0.0261207 0
M  V30 1778 C 165.869 5.73212 -0.146999 0
M  V30 1779 N 165.365 6.92047 -0.322999 0
M  V30 1780 N 167.158 5.62031 -0.0879044 0
M  V30 1781 H 159.309 1.85718 -1.03065 0
M  V30 1782 H 161.572 0.857446 -0.404339 0
M  V30 1783 H 161.278 3.38804 -0.943649 0
M  V30 1784 H 161.152 3.69042 0.780262 0
M  V30 1785 H 163.539 2.74554 1.08186 0
M  V30 1786 H 163.62 2.47028 -0.664134 0
M  V30 1787 H 163.264 4.96886 -1.05201 0
M  V30 1788 H 163.194 5.21783 0.710635 0
M  V30 1789 H 165.685 3.77748 0.107161 0
M  V30 1790 H 165.998 7.7173 -0.406608 0
M  V30 1791 H 164.343 6.94074 -0.358733 0
M  V30 1792 H 167.534 4.68075 0.048498 0
M  V30 1793 H 167.707 6.47734 -0.185557 0
M  V30 1794 N 161.113 -0.173488 1.56642 0
M  V30 1795 C 162.023 -1.23482 1.99473 0
M  V30 1796 C 163.039 -1.48567 0.905752 0
M  V30 1797 O 164.215 -1.60758 1.21321 0
M  V30 1798 C 161.28 -2.55444 2.34413 0
M  V30 1799 C 160.341 -2.38241 3.57127 0
M  V30 1800 C 159.574 -3.63909 3.90392 0
M  V30 1801 O 159.797 -4.68996 3.24653 0
M  V30 1802 O 158.731 -3.58149 4.83749 0
M  V30 1803 H 162.557 -0.901279 2.90018 0
M  V30 1804 H 160.142 -0.380185 1.44482 0
M  V30 1805 H 162.024 -3.33292 2.57865 0
M  V30 1806 H 160.699 -2.88382 1.4703 0
M  V30 1807 H 159.606 -1.58431 3.38896 0
M  V30 1808 H 160.939 -2.10228 4.45045 0
M  V30 1809 N 162.591 -1.51276 -0.441967 0
M  V30 1810 C 163.554 -1.7167 -1.51862 0
M  V30 1811 C 164.554 -0.586793 -1.49711 0
M  V30 1812 O 165.744 -0.854276 -1.51815 0
M  V30 1813 C 162.876 -1.76889 -2.91416 0
M  V30 1814 H 164.069 -2.67754 -1.35084 0
M  V30 1815 H 161.622 -1.41196 -0.670333 0
M  V30 1816 H 162.357 -0.826026 -3.13604 0
M  V30 1817 H 162.142 -2.59001 -2.94382 0
M  V30 1818 H 163.632 -1.94522 -3.69528 0
M  V30 1819 N 164.069 0.697108 -1.41344 0
M  V30 1820 C 164.999 1.82353 -1.45841 0
M  V30 1821 C 165.98 1.67115 -0.317247 0
M  V30 1822 O 167.165 1.86871 -0.528474 0
M  V30 1823 C 164.295 3.20476 -1.33838 0
M  V30 1824 C 163.249 3.50415 -2.4575 0
M  V30 1825 C 162.575 4.87878 -2.18813 0
M  V30 1826 C 163.875 3.49546 -3.88091 0
M  V30 1827 H 165.569 1.78846 -2.40113 0
M  V30 1828 H 163.115 0.859028 -1.15571 0
M  V30 1829 H 165.068 3.98988 -1.35596 0
M  V30 1830 H 163.792 3.24604 -0.360498 0
M  V30 1831 H 162.451 2.74253 -2.43271 0
M  V30 1832 H 162.099 4.8863 -1.19371 0
M  V30 1833 H 161.799 5.08875 -2.93803 0
M  V30 1834 H 163.323 5.68702 -2.22284 0
M  V30 1835 H 164.737 4.18066 -3.92293 0
M  V30 1836 H 163.134 3.82075 -4.62751 0
M  V30 1837 H 164.204 2.48552 -4.16353 0
M  V30 1838 N 165.547 1.27147 0.931209 0
M  V30 1839 C 166.958 1.12044 1.49342 0
M  V30 1840 C 167.309 -0.295795 1.93957 0
M  V30 1841 O 166.434 -1.18835 1.80852 0
M  V30 1842 C 167.029 2.02781 2.71414 0
M  V30 1843 C 165.588 1.91794 3.2387 0
M  V30 1844 C 164.735 1.95543 1.96617 0
M  V30 1845 H 167.686 1.40091 0.745672 0
M  V30 1846 H 167.707 1.58156 3.46074 0
M  V30 1847 H 167.219 3.05848 2.38911 0
M  V30 1848 H 165.32 0.916992 3.6114 0
M  V30 1849 H 165.433 2.77852 3.90302 0
M  V30 1850 H 163.797 1.39722 2.12955 0
M  V30 1851 H 164.58 3.00259 1.66432 0
M  V30 1852 N 167.025 -1.13721 1.09112 0
M  V30 1853 C 168.271 -1.85198 0.826414 0
M  V30 1854 C 168.604 -1.83129 -0.646319 0
M  V30 1855 O 167.879 -1.2671 -1.47563 0
M  V30 1856 C 168.162 -3.33507 1.35812 0
M  V30 1857 C 168.015 -3.44108 2.89672 0
M  V30 1858 C 169.334 -4.28838 0.989256 0
M  V30 1859 H 166.453 -0.67243 0.301675 0
M  V30 1860 H 169.095 -1.33499 1.35197 0
M  V30 1861 H 167.245 -3.77666 0.911082 0
M  V30 1862 H 168.917 -3.08684 3.428 0
M  V30 1863 H 167.16 -2.85087 3.26967 0
M  V30 1864 H 167.831 -4.48388 3.21951 0
M  V30 1865 H 170.307 -3.92734 1.37475 0
M  V30 1866 H 169.183 -5.31051 1.38838 0
M  V30 1867 H 169.444 -4.4198 -0.102924 0
M  V30 1868 N 168.503 -0.877838 -1.30888 0
M  V30 1869 C 169.914 -0.544193 -1.78593 0
M  V30 1870 C 170.265 0.939301 -1.72254 0
M  V30 1871 O 169.39 1.7337 -1.29505 0
M  V30 1872 C 169.985 -0.98105 -3.24285 0
M  V30 1873 C 168.544 -0.698935 -3.69854 0
M  V30 1874 C 167.691 -1.168 -2.51502 0
M  V30 1875 H 170.642 -1.06278 -1.17859 0
M  V30 1876 H 170.663 -0.307009 -3.79259 0
M  V30 1877 H 170.175 -2.06079 -3.28866 0
M  V30 1878 H 168.276 0.369112 -3.70767 0
M  V30 1879 H 168.389 -1.28148 -4.61644 0
M  V30 1880 H 166.753 -0.587535 -2.47831 0
M  V30 1881 H 167.536 -2.25533 -2.58824 0
M  V30 1882 N 169.982 1.44106 -0.638065 0
M  V30 1883 C 170.912 2.33448 0.0494287 0
M  V30 1884 C 171.893 1.48606 0.827672 0
M  V30 1885 O 173.078 1.77308 0.792173 0
M  V30 1886 C 170.208 3.31771 1.02691 0
M  V30 1887 C 169.162 4.26485 0.359823 0
M  V30 1888 C 168.488 5.14729 1.44769 0
M  V30 1889 C 169.788 5.17056 -0.738296 0
M  V30 1890 H 171.482 2.91183 -0.696636 0
M  V30 1891 H 169.028 1.40014 -0.336456 0
M  V30 1892 H 170.981 3.93161 1.51666 0
M  V30 1893 H 169.705 2.7226 1.80395 0
M  V30 1894 H 168.364 3.66437 -0.10934 0
M  V30 1895 H 168.012 4.51566 2.21578 0
M  V30 1896 H 167.712 5.78913 1.00668 0
M  V30 1897 H 169.236 5.78991 1.93911 0
M  V30 1898 H 170.65 5.72342 -0.331354 0
M  V30 1899 H 169.047 5.89879 -1.10286 0
M  V30 1900 H 170.117 4.57652 -1.60258 0
M  V30 1901 N 171.46 0.379036 1.52974 0
M  V30 1902 C 172.41 -0.477772 2.22938 0
M  V30 1903 C 173.394 -1.03792 1.22948 0
M  V30 1904 O 174.586 -0.965725 1.48333 0
M  V30 1905 C 171.715 -1.60994 3.03209 0
M  V30 1906 C 170.801 -1.06203 4.10587 0
M  V30 1907 N 171.192 -0.238214 5.05239 0
M  V30 1908 C 169.49 -1.33554 4.25534 0
M  V30 1909 C 170.191 0.0633235 5.81666 0
M  V30 1910 N 169.167 -0.537901 5.40932 0
M  V30 1911 H 172.969 0.158295 2.93473 0
M  V30 1912 H 170.483 0.187778 1.61311 0
M  V30 1913 H 172.48 -2.23607 3.5186 0
M  V30 1914 H 171.14 -2.24893 2.34207 0
M  V30 1915 H 172.151 0.123695 5.17752 0
M  V30 1916 H 168.828 -1.97632 3.6776 0
M  V30 1917 H 170.218 0.730161 6.67921 0
M  V30 1918 N 172.938 -1.57226 0.108567 0
M  V30 1919 C 173.868 -2.17778 -0.84232 0
M  V30 1920 C 174.849 -1.11487 -1.2847 0
M  V30 1921 O 176.034 -1.39681 -1.34918 0
M  V30 1922 C 173.164 -2.76888 -2.09644 0
M  V30 1923 C 172.118 -3.88669 -1.79221 0
M  V30 1924 C 171.444 -4.34541 -3.11574 0
M  V30 1925 C 172.744 -5.11251 -1.06864 0
M  V30 1926 H 174.438 -2.97489 -0.337774 0
M  V30 1927 H 171.984 -1.43097 -0.161025 0
M  V30 1928 H 173.937 -3.17904 -2.76614 0
M  V30 1929 H 172.661 -1.94451 -2.62405 0
M  V30 1930 H 171.32 -3.48213 -1.14644 0
M  V30 1931 H 170.968 -3.48977 -3.62249 0
M  V30 1932 H 170.668 -5.09914 -2.91996 0
M  V30 1933 H 172.192 -4.782 -3.7968 0
M  V30 1934 H 173.606 -5.49352 -1.63968 0
M  V30 1935 H 172.003 -5.9214 -0.974178 0
M  V30 1936 H 173.073 -4.8487 -0.0536168 0
M  V30 1937 N 174.416 0.165178 -1.56732 0
M  V30 1938 C 175.346 1.20651 -1.99914 0
M  V30 1939 C 176.327 1.45827 -0.875705 0
M  V30 1940 O 177.512 1.57057 -1.14223 0
M  V30 1941 C 174.642 2.54401 -2.36427 0
M  V30 1942 C 173.596 2.43782 -3.51787 0
M  V30 1943 C 172.922 3.82078 -3.7406 0
M  V30 1944 C 174.222 1.93732 -4.85041 0
M  V30 1945 H 175.916 0.847534 -2.87154 0
M  V30 1946 H 173.462 0.40625 -1.38151 0
M  V30 1947 H 175.415 3.27458 -2.65234 0
M  V30 1948 H 174.139 2.92098 -1.46103 0
M  V30 1949 H 172.798 1.73178 -3.23117 0
M  V30 1950 H 172.446 4.17179 -2.81017 0
M  V30 1951 H 172.146 3.7584 -4.51684 0
M  V30 1952 H 173.67 4.56712 -4.05274 0
M  V30 1953 H 175.084 2.56569 -5.12684 0
M  V30 1954 H 173.481 1.98428 -5.66345 0
M  V30 1955 H 174.551 0.891962 -4.76626 0
M  V30 1956 N 175.894 1.51508 0.433938 0
M  V30 1957 C 177.305 1.56784 1.01369 0
M  V30 1958 C 177.656 0.393349 1.92217 0
M  V30 1959 O 176.781 -0.489441 2.10792 0
M  V30 1960 C 177.376 2.84144 1.8452 0
M  V30 1961 C 175.935 2.9198 2.37539 0
M  V30 1962 C 175.082 2.51482 1.16843 0
M  V30 1963 H 178.033 1.57236 0.215081 0
M  V30 1964 H 178.054 2.68098 2.70007 0
M  V30 1965 H 177.566 3.69607 1.18373 0
M  V30 1966 H 175.667 2.10955 3.0713 0
M  V30 1967 H 175.78 3.95704 2.70103 0
M  V30 1968 H 174.144 2.04758 1.51481 0
M  V30 1969 H 174.927 3.39293 0.523015 0
M  V30 1970 N 177.372 -0.689602 1.41712 0
M  V30 1971 C 178.335 -1.78521 1.43746 0
M  V30 1972 C 179.335 -1.57436 0.327191 0
M  V30 1973 O 180.525 -1.64 0.587348 0
M  V30 1974 C 177.657 -3.16971 1.25467 0
M  V30 1975 H 178.85 -1.78108 2.41283 0
M  V30 1976 H 176.403 -0.89781 1.27942 0
M  V30 1977 H 177.138 -3.23019 0.287948 0
M  V30 1978 H 176.923 -3.33678 2.05917 0
M  V30 1979 H 178.413 -3.96935 1.2974 0
M  V30 1980 N 178.85 -1.27639 -0.924453 0
M  V30 1981 C 180.261 -1.12834 -1.48746 0
M  V30 1982 C 180.612 0.285505 -1.94112 0
M  V30 1983 O 179.737 1.17874 -1.81479 0
M  V30 1984 C 180.332 -2.04217 -2.70334 0
M  V30 1985 C 178.891 -1.93509 -3.22848 0
M  V30 1986 C 178.038 -1.96583 -1.95577 0
M  V30 1987 H 180.989 -1.40484 -0.738233 0
M  V30 1988 H 181.01 -1.59989 -3.4523 0
M  V30 1989 H 180.522 -3.07111 -2.37285 0
M  V30 1990 H 178.623 -0.936131 -3.60649 0
M  V30 1991 H 178.736 -2.79917 -3.88823 0
M  V30 1992 H 177.1 -1.4085 -2.12211 0
M  V30 1993 H 177.883 -3.01137 -1.64837 0
M  V30 1994 N 180.328 1.1314 -1.09713 0
M  V30 1995 C 181.278 2.16709 -0.708593 0
M  V30 1996 C 182.262 1.58471 0.278523 0
M  V30 1997 O 183.454 1.76779 0.088427 0
M  V30 1998 C 180.583 3.43039 -0.133923 0
M  V30 1999 C 179.669 4.08277 -1.14763 0
M  V30 2000 N 180.06 4.48637 -2.33577 0
M  V30 2001 C 178.358 4.34954 -0.986446 0
M  V30 2002 C 179.059 4.9952 -2.98085 0
M  V30 2003 N 178.035 4.94561 -2.25632 0
M  V30 2004 H 181.837 2.45672 -1.61315 0
M  V30 2005 H 179.351 1.29967 -0.973775 0
M  V30 2006 H 181.348 4.16583 0.162465 0
M  V30 2007 H 180.008 3.15549 0.765447 0
M  V30 2008 H 181.019 4.41246 -2.7115 0
M  V30 2009 H 177.696 4.17258 -0.142008 0
M  V30 2010 H 179.086 5.40521 -3.99108 0
M  V30 2011 N 181.806 0.884767 1.30421 0
M  V30 2012 C 182.736 0.367574 2.30589 0
M  V30 2013 C 183.717 -0.549464 1.60981 0
M  V30 2014 O 184.902 -0.46336 1.88591 0
M  V30 2015 C 182.032 -0.418944 3.44764 0
M  V30 2016 C 180.986 0.406316 4.26067 0
M  V30 2017 C 180.312 -0.506793 5.32293 0
M  V30 2018 C 181.612 1.64832 4.95608 0
M  V30 2019 H 183.306 1.20462 2.74097 0
M  V30 2020 H 180.852 0.580695 1.31772 0
M  V30 2021 H 182.805 -0.791395 4.13902 0
M  V30 2022 H 181.529 -1.28964 3.0006 0
M  V30 2023 H 180.188 0.760903 3.58617 0
M  V30 2024 H 179.836 -1.37519 4.83836 0
M  V30 2025 H 179.536 0.0415828 5.87585 0
M  V30 2026 H 181.06 -0.875764 6.04287 0
M  V30 2027 H 182.474 1.34646 5.57264 0
M  V30 2028 H 180.871 2.13688 5.60765 0
M  V30 2029 H 181.941 2.39284 4.21748 0
M  V30 2030 N 183.284 -1.43765 0.645699 0
M  V30 2031 C 184.214 -2.33471 -0.0370477 0
M  V30 2032 C 185.195 -1.49042 -0.819779 0
M  V30 2033 O 186.38 -1.77726 -0.782758 0
M  V30 2034 C 183.51 -3.32311 -1.0093 0
M  V30 2035 C 182.464 -4.2667 -0.337201 0
M  V30 2036 C 181.79 -5.1549 -1.42037 0
M  V30 2037 C 183.09 -5.16657 0.765706 0
M  V30 2038 H 184.784 -2.90809 0.712069 0
M  V30 2039 H 182.33 -1.39834 0.343876 0
M  V30 2040 H 184.283 -3.9396 -1.49578 0
M  V30 2041 H 183.007 -2.73213 -1.78948 0
M  V30 2042 H 181.666 -3.66374 0.128771 0
M  V30 2043 H 181.314 -4.52735 -2.1918 0
M  V30 2044 H 181.014 -5.79438 -0.975966 0
M  V30 2045 H 182.538 -5.80012 -1.90838 0
M  V30 2046 H 183.952 -5.72158 0.361702 0
M  V30 2047 H 182.349 -5.89286 1.13413 0
M  V30 2048 H 183.419 -4.56796 1.62683 0
M  V30 2049 N 184.763 -0.387143 -1.52771 0
M  V30 2050 C 186.174 0.0873634 -1.86495 0
M  V30 2051 C 186.525 1.46336 -1.30691 0
M  V30 2052 O 185.65 2.068 -0.637409 0
M  V30 2053 C 186.245 0.165305 -3.38396 0
M  V30 2054 C 184.804 0.584101 -3.7184 0
M  V30 2055 C 183.951 -0.255279 -2.76122 0
M  V30 2056 H 186.902 -0.605104 -1.46711 0
M  V30 2057 H 186.923 0.984848 -3.67534 0
M  V30 2058 H 186.435 -0.836301 -3.78982 0
M  V30 2059 H 184.536 1.59315 -3.36823 0
M  V30 2060 H 184.649 0.343749 -4.77865 0
M  V30 2061 H 183.013 0.279126 -2.53166 0
M  V30 2062 H 183.796 -1.25482 -3.19545 0
M  V30 2063 N 186.241 1.57166 -0.116904 0
M  V30 2064 C 187.652 1.82169 0.408809 0
M  V30 2065 C 188.003 1.03393 1.66746 0
M  V30 2066 O 187.128 0.269886 2.1471 0
M  V30 2067 C 187.723 3.30429 0.748466 0
M  V30 2068 C 186.282 3.5612 1.21882 0
M  V30 2069 C 185.429 2.76374 0.226452 0
M  V30 2070 H 188.38 1.5497 -0.342063 0
M  V30 2071 H 188.401 3.44943 1.60607 0
M  V30 2072 H 187.913 3.87737 -0.167784 0
M  V30 2073 H 186.014 3.04168 2.15204 0
M  V30 2074 H 186.127 4.64705 1.16559 0
M  V30 2075 H 184.491 2.44515 0.713063 0
M  V30 2076 H 185.274 3.3644 -0.682859 0
M  V30 2077 N 187.719 -0.156864 1.56817 0
M  V30 2078 C 188.996 -0.899244 1.73704 0
M  V30 2079 C 189.376 -1.99771 0.682254 0
M  V30 2080 O 188.724 -2.26515 -0.300522 0
M  V30 2081 C 188.934 -1.45075 3.17418 0
M  V30 2082 C 190.282 -1.91802 3.7881 0
M  V30 2083 O 191.306 -1.54838 3.20786 0
M  V30 2084 O 190.165 -2.5994 4.80722 0
M  V30 2085 H 187.259 -0.424267 0.709878 0
M  V30 2086 H 189.805 -0.143561 1.69092 0
M  V30 2087 H 188.577 -0.660846 3.85679 0
M  V30 2088 H 188.2 -2.27021 3.26416 0
M  V30 2089 N 189.197 -1.51736 -0.425897 0
M  V30 2090 C 190.127 -1.76827 -1.52494 0
M  V30 2091 C 191.108 -0.618524 -1.58456 0
M  V30 2092 O 192.293 -0.862416 -1.74 0
M  V30 2093 C 189.423 -1.90374 -2.90474 0
M  V30 2094 C 188.377 -3.0588 -2.99369 0
M  V30 2095 C 187.703 -3.04625 -4.3944 0
M  V30 2096 C 189.003 -4.45644 -2.72394 0
M  V30 2097 H 190.697 -2.68855 -1.31748 0
M  V30 2098 H 188.243 -1.29372 -0.632362 0
M  V30 2099 H 190.196 -2.0651 -3.6733 0
M  V30 2100 H 188.92 -0.95004 -3.12477 0
M  V30 2101 H 187.579 -2.89467 -2.24954 0
M  V30 2102 H 187.227 -2.0701 -4.58428 0
M  V30 2103 H 186.927 -3.82195 -4.46319 0
M  V30 2104 H 188.451 -3.22869 -5.18255 0
M  V30 2105 H 189.865 -4.62348 -3.38979 0
M  V30 2106 H 188.262 -5.25006 -2.9067 0
M  V30 2107 H 189.332 -4.54893 -1.67929 0
M  V30 2108 N 190.675 0.682077 -1.42076 0
M  V30 2109 C 192.086 1.26246 -1.37546 0
M  V30 2110 C 192.437 1.96092 -0.0651481 0
M  V30 2111 O 191.562 1.99587 0.836297 0
M  V30 2112 C 192.157 2.29594 -2.49143 0
M  V30 2113 C 190.716 2.83175 -2.47969 0
M  V30 2114 C 189.863 1.57395 -2.28303 0
M  V30 2115 H 192.814 0.475937 -1.51395 0
M  V30 2116 H 192.835 3.11175 -2.18976 0
M  V30 2117 H 192.347 1.78729 -3.44496 0
M  V30 2118 H 190.448 3.3818 -1.56413 0
M  V30 2119 H 190.561 3.32687 -3.44755 0
M  V30 2120 H 188.925 1.83699 -1.76428 0
M  V30 2121 H 189.708 1.08507 -3.25701 0
M  V30 2122 N 192.153 1.28127 0.917671 0
M  V30 2123 C 193.569 1.05749 1.19538 0
M  V30 2124 C 193.769 -0.202633 2.00479 0
M  V30 2125 O 192.825 -0.905382 2.3571 0
M  V30 2126 C 194.138 2.30273 1.93378 0
M  V30 2127 C 195.686 2.35412 2.06277 0
M  V30 2128 C 196.161 3.59692 2.83524 0
M  V30 2129 N 197.652 3.60309 2.91087 0
M  V30 2130 C 198.387 4.53147 3.51348 0
M  V30 2131 N 197.883 5.563 4.12919 0
M  V30 2132 N 199.676 4.40751 3.48849 0
M  V30 2133 H 191.827 2.09024 0.377184 0
M  V30 2134 H 194.09 0.919798 0.22951 0
M  V30 2135 H 193.796 3.22055 1.41328 0
M  V30 2136 H 193.67 2.36378 2.93947 0
M  V30 2137 H 196.057 1.4413 2.57508 0
M  V30 2138 H 196.138 2.33304 1.04895 0
M  V30 2139 H 195.782 4.51316 2.32973 0
M  V30 2140 H 195.712 3.59054 3.85211 0
M  V30 2141 H 198.203 2.85714 2.47338 0
M  V30 2142 H 198.516 6.2329 4.56869 0
M  V30 2143 H 196.861 5.60131 4.11435 0
M  V30 2144 H 200.052 3.59367 2.99955 0
M  V30 2145 H 200.225 5.13291 3.9552 0
M  V30 2146 N 193.631 -1.12557 1.10312 0
M  V30 2147 C 194.594 -2.16434 0.75424 0
M  V30 2148 C 195.594 -1.59278 -0.220685 0
M  V30 2149 O 196.784 -1.742 0.00230591 0
M  V30 2150 C 193.916 -3.40699 0.116987 0
M  V30 2151 H 195.109 -2.48811 1.67431 0
M  V30 2152 H 192.662 -1.27542 0.903475 0
M  V30 2153 H 193.397 -3.13921 -0.813877 0
M  V30 2154 H 193.182 -3.83459 0.818613 0
M  V30 2155 H 194.672 -4.17451 -0.111387 0
M  V30 2156 N 195.109 -0.891671 -1.2995 0
M  V30 2157 C 196.339 -0.527893 -1.99742 0
M  V30 2158 C 196.747 0.88979 -1.66971 0
M  V30 2159 O 196.09 1.59766 -0.906667 0
M  V30 2160 C 196.152 -0.630804 -3.53922 0
M  V30 2161 C 195.816 -2.01401 -4.10228 0
M  V30 2162 C 196.813 -2.98422 -4.25724 0
M  V30 2163 C 194.498 -2.32121 -4.45449 0
M  V30 2164 C 196.492 -4.24293 -4.75662 0
M  V30 2165 C 194.179 -3.58237 -4.95086 0
M  V30 2166 C 195.177 -4.54137 -5.10146 0
M  V30 2167 O 194.865 -5.78014 -5.58708 0
M  V30 2168 H 194.597 -0.201953 -0.645129 0
M  V30 2169 H 197.151 -1.20076 -1.66646 0
M  V30 2170 H 195.381 0.0990616 -3.86573 0
M  V30 2171 H 197.07 -0.277338 -4.04951 0
M  V30 2172 H 197.836 -2.76001 -3.98809 0
M  V30 2173 H 193.715 -1.5824 -4.32991 0
M  V30 2174 H 197.259 -4.99153 -4.87332 0
M  V30 2175 H 193.156 -3.80491 -5.21437 0
M  V30 2176 H 193.924 -5.8049 -5.77039 0
M  V30 2177 N 196.587 1.43421 -0.653314 0
M  V30 2178 C 198.003 1.56341 -0.320886 0
M  V30 2179 C 198.203 1.63696 1.17499 0
M  V30 2180 O 197.259 1.59208 1.95982 0
M  V30 2181 C 198.572 2.82424 -1.03233 0
M  V30 2182 C 200.12 2.96168 -1.01259 0
M  V30 2183 C 200.595 4.25084 -1.70492 0
M  V30 2184 N 202.086 4.31948 -1.67257 0
M  V30 2185 C 202.821 5.30466 -2.17701 0
M  V30 2186 N 202.317 6.35261 -2.76434 0
M  V30 2187 N 204.11 5.2212 -2.082 0
M  V30 2188 H 196.261 1.3689 -1.62403 0
M  V30 2189 H 198.524 0.657455 -0.682977 0
M  V30 2190 H 198.23 2.83053 -2.08744 0
M  V30 2191 H 198.104 3.72653 -0.583948 0
M  V30 2192 H 200.491 2.9508 0.0341235 0
M  V30 2193 H 200.572 2.07229 -1.49966 0
M  V30 2194 H 200.216 4.26932 -2.7512 0
M  V30 2195 H 200.146 5.1292 -1.19251 0
M  V30 2196 H 202.637 3.56838 -1.24398 0
M  V30 2197 H 202.95 7.06754 -3.12601 0
M  V30 2198 H 201.295 6.35884 -2.80495 0
M  V30 2199 H 204.486 4.39166 -1.62021 0
M  V30 2200 H 204.659 5.98739 -2.47822 0
M  V30 2201 N 198.065 0.39524 1.52563 0
M  V30 2202 C 199.311 -0.185318 2.01952 0
M  V30 2203 C 199.644 -1.45964 1.28095 0
M  V30 2204 O 198.919 -1.90689 0.38315 0
M  V30 2205 C 199.202 -0.447193 3.57312 0
M  V30 2206 C 199.055 0.842828 4.41833 0
M  V30 2207 C 200.374 -1.23529 4.22408 0
M  V30 2208 H 197.493 -0.0658788 0.73405 0
M  V30 2209 H 200.135 0.525975 1.82575 0
M  V30 2210 H 198.285 -1.05312 3.73954 0
M  V30 2211 H 199.957 1.4795 4.36931 0
M  V30 2212 H 198.2 1.45686 4.08605 0
M  V30 2213 H 198.871 0.614165 5.48573 0
M  V30 2214 H 201.347 -0.722445 4.0978 0
M  V30 2215 H 200.223 -1.38727 5.3108 0
M  V30 2216 H 200.484 -2.25213 3.80436 0
M  V30 2217 N 199.544 -1.57102 0.125237 0
M  V30 2218 C 200.774 -1.99472 -0.538015 0
M  V30 2219 C 201.182 -1.00395 -1.60366 0
M  V30 2220 O 200.525 0.0103875 -1.83697 0
M  V30 2221 C 200.587 -3.38262 -1.21734 0
M  V30 2222 C 200.251 -4.56021 -0.298897 0
M  V30 2223 C 201.248 -5.17817 0.464943 0
M  V30 2224 C 198.933 -5.01869 -0.208149 0
M  V30 2225 C 200.927 -6.23852 1.3072 0
M  V30 2226 C 198.614 -6.07763 0.637736 0
M  V30 2227 C 199.612 -6.68622 1.39403 0
M  V30 2228 O 199.3 -7.7247 2.22586 0
M  V30 2229 H 199.032 -0.659934 -0.146501 0
M  V30 2230 H 201.586 -2.04321 0.210267 0
M  V30 2231 H 199.816 -3.30185 -2.01282 0
M  V30 2232 H 201.505 -3.6488 -1.77813 0
M  V30 2233 H 202.271 -4.83308 0.404741 0
M  V30 2234 H 198.15 -4.54241 -0.786522 0
M  V30 2235 H 201.694 -6.71284 1.898 0
M  V30 2236 H 197.591 -6.41701 0.699309 0
M  V30 2237 H 198.359 -7.89595 2.15596 0
M  V30 2238 N 201.022 0.148545 -1.56898 0
M  V30 2239 C 202.25 0.876389 -1.87422 0
M  V30 2240 C 202.665 1.74809 -0.713256 0
M  V30 2241 O 202.022 1.79725 0.317025 0
M  V30 2242 C 202.073 1.73438 -3.17178 0
M  V30 2243 O 201.794 0.897809 -4.28802 0
M  V30 2244 C 203.295 2.56993 -3.61205 0
M  V30 2245 H 200.515 0.253489 -0.621277 0
M  V30 2246 H 203.059 0.141798 -2.04008 0
M  V30 2247 H 201.214 2.42205 -3.0235 0
M  V30 2248 H 201.628 1.48672 -5.02988 0
M  V30 2249 H 203.102 3.12773 -4.54838 0
M  V30 2250 H 203.579 3.32958 -2.86419 0
M  V30 2251 H 204.185 1.9352 -3.78722 0
M  V30 2252 N 202.5 1.5196 0.417844 0
M  V30 2253 C 203.911 1.57851 0.997 0
M  V30 2254 C 204.262 0.413714 1.91789 0
M  V30 2255 O 203.387 -0.467057 2.113 0
M  V30 2256 C 203.982 2.86085 1.81496 0
M  V30 2257 C 202.541 2.94483 2.34428 0
M  V30 2258 C 201.688 2.52707 1.14169 0
M  V30 2259 H 204.639 1.57455 0.198392 0
M  V30 2260 H 204.66 2.70947 2.67148 0
M  V30 2261 H 204.172 3.70842 1.14446 0
M  V30 2262 H 202.273 2.142 3.04875 0
M  V30 2263 H 202.386 3.98546 2.65891 0
M  V30 2264 H 200.75 2.06353 1.49301 0
M  V30 2265 H 201.533 3.39828 0.486999 0
M  V30 2266 N 203.978 -0.674533 1.42435 0
M  V30 2267 C 205.225 -1.43459 1.42919 0
M  V30 2268 C 205.553 -1.94446 0.0457312 0
M  V30 2269 O 204.808 -1.7132 -0.94593 0
M  V30 2270 C 205.107 -2.64767 2.40069 0
M  V30 2271 C 204.773 -2.3232 3.86443 0
M  V30 2272 C 203.435 -2.23182 4.26314 0
M  V30 2273 C 205.787 -2.05977 4.78773 0
M  V30 2274 C 203.115 -1.85827 5.56494 0
M  V30 2275 C 205.467 -1.70125 6.09295 0
M  V30 2276 C 204.131 -1.59498 6.48164 0
M  V30 2277 H 203.401 -0.524952 0.522978 0
M  V30 2278 H 206.048 -0.769097 1.75377 0
M  V30 2279 H 204.353 -3.36349 2.00939 0
M  V30 2280 H 206.05 -3.22949 2.37707 0
M  V30 2281 H 202.64 -2.40334 3.54877 0
M  V30 2282 H 206.824 -2.11969 4.48757 0
M  V30 2283 H 202.08 -1.76168 5.8547 0
M  V30 2284 H 206.254 -1.48767 6.80324 0
M  V30 2285 H 203.881 -1.30322 7.48946 0
M  V30 2286 N 205.456 -1.28612 -0.910864 0
M  V30 2287 C 206.681 -1.1891 -1.69927 0
M  V30 2288 C 207.106 0.248372 -1.86453 0
M  V30 2289 O 206.464 1.17961 -1.37676 0
M  V30 2290 C 206.512 -1.89578 -3.06745 0
M  V30 2291 O 205.616 -1.20521 -3.94396 0
M  V30 2292 H 204.957 -0.412632 -0.520222 0
M  V30 2293 H 207.487 -1.69985 -1.1387 0
M  V30 2294 H 207.497 -1.97597 -3.56958 0
M  V30 2295 H 206.172 -2.94136 -2.94035 0
M  V30 2296 H 204.749 -1.20684 -3.52831 0
M  V30 2297 N 206.934 1.1197 -1.10907 0
M  V30 2298 C 208.35 1.35591 -0.841852 0
M  V30 2299 C 208.55 1.94233 0.536246 0
M  V30 2300 O 207.606 2.1717 1.28816 0
M  V30 2301 C 208.919 2.29284 -1.94549 0
M  V30 2302 C 210.467 2.42862 -1.97451 0
M  V30 2303 C 210.942 3.39873 -3.07002 0
M  V30 2304 N 212.433 3.47433 -3.06341 0
M  V30 2305 C 213.168 4.22421 -3.87748 0
M  V30 2306 N 212.664 5.00432 -4.79103 0
M  V30 2307 N 214.457 4.17876 -3.75946 0
M  V30 2308 H 206.608 0.722664 -1.99728 0
M  V30 2309 H 208.871 0.380635 -0.868229 0
M  V30 2310 H 208.577 1.93378 -2.93765 0
M  V30 2311 H 208.451 3.29452 -1.83688 0
M  V30 2312 H 210.838 2.78046 -0.988645 0
M  V30 2313 H 210.919 1.42566 -2.12388 0
M  V30 2314 H 210.563 3.05417 -4.05811 0
M  V30 2315 H 210.493 4.40011 -2.89306 0
M  V30 2316 H 212.984 2.91784 -2.40147 0
M  V30 2317 H 213.297 5.55002 -5.37766 0
M  V30 2318 H 211.642 4.99612 -4.83128 0
M  V30 2319 H 214.833 3.56016 -3.03924 0
M  V30 2320 H 215.006 4.76061 -4.39624 0
M  V30 2321 N 208.412 0.89855 1.29475 0
M  V30 2322 C 209.342 0.39201 2.30186 0
M  V30 2323 C 210.323 -0.532359 1.61555 0
M  V30 2324 O 211.508 -0.443331 1.89072 0
M  V30 2325 C 208.638 -0.382353 3.45189 0
M  V30 2326 C 207.592 0.451483 4.25612 0
M  V30 2327 C 206.918 -0.450307 5.328 0
M  V30 2328 C 208.218 1.70079 4.93832 0
M  V30 2329 H 209.912 1.23362 2.72804 0
M  V30 2330 H 207.458 0.594638 1.31149 0
M  V30 2331 H 209.411 -0.747451 4.14718 0
M  V30 2332 H 208.135 -1.25774 3.01411 0
M  V30 2333 H 206.794 0.798897 3.57789 0
M  V30 2334 H 206.442 -1.32379 4.85268 0
M  V30 2335 H 206.142 0.103902 5.87508 0
M  V30 2336 H 207.666 -0.811623 6.05182 0
M  V30 2337 H 209.08 1.40549 5.55805 0
M  V30 2338 H 207.477 2.19623 5.58467 0
M  V30 2339 H 208.547 2.43744 4.19186 0
M  V30 2340 N 209.89 -1.43072 0.660911 0
M  V30 2341 C 211.12 -2.05769 0.185153 0
M  V30 2342 C 211.528 -1.49668 -1.15742 0
M  V30 2343 O 210.871 -0.625649 -1.72717 0
M  V30 2344 C 210.933 -3.59489 0.0278237 0
M  V30 2345 C 210.597 -4.38212 1.2969 0
M  V30 2346 C 211.594 -4.69772 2.22734 0
M  V30 2347 C 209.279 -4.7809 1.54063 0
M  V30 2348 C 211.273 -5.40129 3.38437 0
M  V30 2349 C 208.96 -5.4819 2.70058 0
M  V30 2350 C 209.958 -5.79132 3.62071 0
M  V30 2351 O 209.646 -6.47798 4.76039 0
M  V30 2352 H 209.378 -0.669873 0.0908086 0
M  V30 2353 H 211.932 -1.84436 0.90402 0
M  V30 2354 H 210.162 -3.79426 -0.746489 0
M  V30 2355 H 211.851 -4.03862 -0.406275 0
M  V30 2356 H 212.617 -4.39476 2.05149 0
M  V30 2357 H 208.496 -4.53408 0.833215 0
M  V30 2358 H 212.04 -5.64198 4.10277 0
M  V30 2359 H 207.937 -5.77902 2.87574 0
M  V30 2360 H 208.705 -6.66283 4.75404 0
M  V30 2361 N 211.368 -0.403325 -1.52352 0
M  V30 2362 C 212.784 -0.0539281 -1.59509 0
M  V30 2363 C 212.984 1.43307 -1.41652 0
M  V30 2364 O 212.04 2.19924 -1.24056 0
M  V30 2365 C 213.353 -0.543654 -2.95745 0
M  V30 2366 C 214.901 -0.501125 -3.08962 0
M  V30 2367 C 215.376 -0.967267 -4.47669 0
M  V30 2368 N 216.867 -0.923849 -4.53893 0
M  V30 2369 C 217.602 -1.25578 -5.5948 0
M  V30 2370 N 217.098 -1.65889 -6.72646 0
M  V30 2371 N 218.891 -1.17613 -5.49658 0
M  V30 2372 H 211.042 -1.37123 -1.62206 0
M  V30 2373 H 213.305 -0.56294 -0.76276 0
M  V30 2374 H 213.011 -1.58275 -3.14073 0
M  V30 2375 H 212.885 0.0498042 -3.77167 0
M  V30 2376 H 215.272 0.528909 -2.90321 0
M  V30 2377 H 215.353 -1.13056 -2.2946 0
M  V30 2378 H 214.997 -1.9956 -4.67053 0
M  V30 2379 H 214.927 -0.314698 -5.25659 0
M  V30 2380 H 217.418 -0.627403 -3.72655 0
M  V30 2381 H 217.731 -1.89543 -7.49195 0
M  V30 2382 H 216.076 -1.69787 -6.73942 0
M  V30 2383 H 219.267 -0.860115 -4.6013 0
M  V30 2384 H 219.44 -1.43812 -6.3184 0
M  V30 2385 N 212.846 1.57033 -0.133567 0
M  V30 2386 C 214.094 1.953 0.519848 0
M  V30 2387 C 214.415 1.01866 1.66278 0
M  V30 2388 O 213.685 0.0776513 1.95746 0
M  V30 2389 H 212.265 0.721091 0.195032 0
M  V30 2390 H 214.927 1.93809 -0.205921 0
M  V30 2391 H 214.023 2.98695 0.904854 0
M  V30 2392 N 214.325 -0.140222 1.56975 0
M  V30 2393 C 215.288 -1.15689 1.97861 0
M  V30 2394 C 216.288 -1.3549 0.865974 0
M  V30 2395 O 217.478 -1.32367 1.13246 0
M  V30 2396 C 214.61 -2.51582 2.30042 0
M  V30 2397 H 215.803 -0.805971 2.88867 0
M  V30 2398 H 213.356 -0.383801 1.51515 0
M  V30 2399 H 214.091 -2.91632 1.41849 0
M  V30 2400 H 213.876 -2.38569 3.11171 0
M  V30 2401 H 215.366 -3.24792 2.62488 0
M  V30 2402 N 215.803 -1.52179 -0.40978 0
M  V30 2403 C 216.766 -1.74853 -1.48186 0
M  V30 2404 C 217.766 -0.618417 -1.48433 0
M  V30 2405 O 218.956 -0.886286 -1.49969 0
M  V30 2406 C 216.088 -1.8303 -2.87598 0
M  V30 2407 H 217.281 -2.70559 -1.29374 0
M  V30 2408 H 214.834 -1.42586 -0.640233 0
M  V30 2409 H 215.569 -0.89236 -3.11781 0
M  V30 2410 H 215.354 -2.65187 -2.88822 0
M  V30 2411 H 216.844 -2.02316 -3.65319 0
M  V30 2412 N 217.281 0.66697 -1.42791 0
M  V30 2413 C 218.692 1.2478 -1.38877 0
M  V30 2414 C 219.043 1.96012 -0.0859426 0
M  V30 2415 O 218.168 2.00463 0.815081 0
M  V30 2416 C 218.763 2.26938 -2.51564 0
M  V30 2417 C 217.322 2.80529 -2.50959 0
M  V30 2418 C 216.469 1.54965 -2.29959 0
M  V30 2419 H 219.42 0.459853 -1.51892 0
M  V30 2420 H 219.441 3.08834 -2.22265 0
M  V30 2421 H 218.953 1.75065 -3.46372 0
M  V30 2422 H 217.054 3.36502 -1.59991 0
M  V30 2423 H 217.167 3.29012 -3.48265 0
M  V30 2424 H 215.531 1.81817 -1.78366 0
M  V30 2425 H 216.314 1.05047 -3.26833 0
M  V30 2426 N 218.759 1.29093 0.90403 0
M  V30 2427 C 220.17 1.15186 1.46932 0
M  V30 2428 C 220.521 -0.254587 1.94541 0
M  V30 2429 O 219.646 -1.14972 1.83332 0
M  V30 2430 C 220.241 2.08492 2.67051 0
M  V30 2431 C 218.8 1.98621 3.19729 0
M  V30 2432 C 217.947 1.9967 1.92425 0
M  V30 2433 H 220.898 1.41641 0.715789 0
M  V30 2434 H 220.919 1.65461 3.42641 0
M  V30 2435 H 220.431 3.10847 2.3237 0
M  V30 2436 H 218.532 0.993389 3.59114 0
M  V30 2437 H 218.645 2.86068 3.8432 0
M  V30 2438 H 217.009 1.44208 2.09943 0
M  V30 2439 H 217.792 3.03721 1.60026 0
M  V30 2440 N 220.237 -1.11381 1.11499 0
M  V30 2441 C 221.167 -2.19509 0.796125 0
M  V30 2442 C 222.148 -1.68458 -0.235796 0
M  V30 2443 O 223.333 -1.93947 -0.0991344 0
M  V30 2444 C 220.463 -3.46475 0.239205 0
M  V30 2445 C 219.417 -4.10744 1.20307 0
M  V30 2446 C 218.743 -5.32293 0.50683 0
M  V30 2447 C 220.043 -4.55597 2.55399 0
M  V30 2448 H 221.737 -2.46439 1.70024 0
M  V30 2449 H 219.283 -1.18446 0.818935 0
M  V30 2450 H 221.236 -4.214 0.00392006 0
M  V30 2451 H 219.96 -3.19006 -0.700206 0
M  V30 2452 H 218.619 -3.37813 1.42399 0
M  V30 2453 H 218.267 -5.01095 -0.437408 0
M  V30 2454 H 217.967 -5.76243 1.1497 0
M  V30 2455 H 219.491 -6.09956 0.280351 0
M  V30 2456 H 220.905 -5.21841 2.37391 0
M  V30 2457 H 219.302 -5.10363 3.15673 0
M  V30 2458 H 220.372 -3.69013 3.14575 0
M  V30 2459 N 221.715 -0.905404 -1.28997 0
M  V30 2460 C 223.126 -0.581953 -1.77398 0
M  V30 2461 C 223.477 0.902552 -1.74208 0
M  V30 2462 O 222.602 1.70584 -1.33154 0
M  V30 2463 C 223.197 -1.04961 -3.22131 0
M  V30 2464 C 221.756 -0.777229 -3.68288 0
M  V30 2465 C 220.903 -1.22109 -2.48967 0
M  V30 2466 H 223.854 -1.08754 -1.15578 0
M  V30 2467 H 223.875 -0.387387 -3.78523 0
M  V30 2468 H 223.387 -2.13008 -3.24421 0
M  V30 2469 H 221.488 0.290383 -3.71467 0
M  V30 2470 H 221.601 -1.37911 -4.58822 0
M  V30 2471 H 219.965 -0.639971 -2.46529 0
M  V30 2472 H 220.748 -2.30972 -2.53982 0
M  V30 2473 N 223.193 1.4272 -0.668489 0
M  V30 2474 C 224.604 1.84793 -0.266151 0
M  V30 2475 C 224.955 1.55959 1.19043 0
M  V30 2476 O 224.08 1.01622 1.91055 0
M  V30 2477 C 224.675 3.35436 -0.476271 0
M  V30 2478 C 223.234 3.76182 -0.128113 0
M  V30 2479 C 222.381 2.66344 -0.771777 0
M  V30 2480 H 225.332 1.32656 -0.871098 0
M  V30 2481 H 225.353 3.79515 0.273561 0
M  V30 2482 H 224.865 3.5639 -1.53647 0
M  V30 2483 H 222.966 3.60836 0.928891 0
M  V30 2484 H 223.079 4.75766 -0.564231 0
M  V30 2485 H 221.443 2.53885 -0.203652 0
M  V30 2486 H 222.226 2.90123 -1.83531 0
M  V30 2487 N 224.671 0.411399 1.52136 0
M  V30 2488 C 226.082 -0.0576826 1.86611 0
M  V30 2489 C 226.433 -1.44238 1.33003 0
M  V30 2490 O 225.558 -2.05759 0.670228 0
M  V30 2491 C 226.153 -0.111448 3.38617 0
M  V30 2492 C 224.712 -0.52487 3.72723 0
M  V30 2493 C 223.859 0.299176 2.75681 0
M  V30 2494 H 226.81 0.628368 1.4573 0
M  V30 2495 H 226.831 -0.926252 3.69054 0
M  V30 2496 H 226.343 0.896488 3.77604 0
M  V30 2497 H 224.444 -1.53936 3.39315 0
M  V30 2498 H 224.557 -0.267681 4.78352 0
M  V30 2499 H 222.921 -0.238814 2.53578 0
M  V30 2500 H 223.704 1.3055 3.17508 0
M  V30 2501 N 226.149 -1.5696 0.141893 0
M  V30 2502 C 227.059 -2.20066 -0.812905 0
M  V30 2503 C 228.075 -1.18344 -1.27557 0
M  V30 2504 O 229.251 -1.50902 -1.33381 0
M  V30 2505 C 226.316 -2.80583 -2.03652 0
M  V30 2506 C 225.377 -3.97414 -1.62359 0
M  V30 2507 C 224.61 -4.55036 -2.78887 0
M  V30 2508 O 224.833 -4.11538 -3.94959 0
M  V30 2509 O 223.767 -5.45376 -2.54653 0
M  V30 2510 H 227.593 -3.02157 -0.305746 0
M  V30 2511 H 225.178 -1.49159 -0.0848799 0
M  V30 2512 H 227.06 -3.19067 -2.75272 0
M  V30 2513 H 225.735 -2.01508 -2.5333 0
M  V30 2514 H 224.642 -3.63656 -0.877775 0
M  V30 2515 H 225.975 -4.77994 -1.17401 0
M  V30 2516 N 227.627 0.131896 -1.57047 0
M  V30 2517 C 228.59 1.14638 -1.98471 0
M  V30 2518 C 229.59 1.35029 -0.873148 0
M  V30 2519 O 230.78 1.31764 -1.13946 0
M  V30 2520 C 227.912 2.50358 -2.31373 0
M  V30 2521 H 229.105 0.79064 -2.8929 0
M  V30 2522 H 226.658 0.375761 -1.51716 0
M  V30 2523 H 227.393 2.90876 -1.43393 0
M  V30 2524 H 227.178 2.36915 -3.12432 0
M  V30 2525 H 228.668 3.23395 -2.64207 0
M  V30 2526 N 229.106 1.52395 0.401703 0
M  V30 2527 C 230.036 1.79231 1.49661 0
M  V30 2528 C 231.017 0.643654 1.57452 0
M  V30 2529 O 232.202 0.889989 1.72606 0
M  V30 2530 C 229.332 1.94971 2.87409 0
M  V30 2531 C 228.286 3.10604 2.94465 0
M  V30 2532 C 227.612 3.11577 4.34538 0
M  V30 2533 C 228.912 4.49921 2.6527 0
M  V30 2534 H 230.606 2.70917 1.27454 0
M  V30 2535 H 228.152 1.30362 0.6117 0
M  V30 2536 H 230.105 2.12328 3.63999 0
M  V30 2537 H 228.829 0.999632 3.10926 0
M  V30 2538 H 227.488 2.93009 2.20321 0
M  V30 2539 H 227.136 2.14277 4.55076 0
M  V30 2540 H 226.836 3.89247 4.40183 0
M  V30 2541 H 228.36 3.31073 5.13053 0
M  V30 2542 H 229.774 4.67683 3.31581 0
M  V30 2543 H 228.171 5.29564 2.82281 0
M  V30 2544 H 229.241 4.57507 1.60671 0
M  V30 2545 N 230.584 -0.659388 1.43143 0
M  V30 2546 C 231.995 -1.24041 1.39537 0
M  V30 2547 C 232.346 -1.95963 0.0963364 0
M  V30 2548 O 231.471 -2.00892 -0.804438 0
M  V30 2549 C 232.066 -2.25601 2.52764 0
M  V30 2550 C 230.625 -2.79195 2.52443 0
M  V30 2551 C 229.772 -1.53743 2.30778 0
M  V30 2552 H 232.723 -0.451792 1.52133 0
M  V30 2553 H 232.744 -3.07651 2.23899 0
M  V30 2554 H 232.256 -1.73226 3.47296 0
M  V30 2555 H 230.357 -3.35649 1.61773 0
M  V30 2556 H 230.47 -3.2716 3.50004 0
M  V30 2557 H 228.834 -1.80869 1.79328 0
M  V30 2558 H 229.617 -1.03312 3.27386 0
M  V30 2559 N 232.062 -1.29571 -0.897171 0
M  V30 2560 C 233.009 -1.14916 -2.00158 0
M  V30 2561 C 233.979 -0.0418149 -1.66047 0
M  V30 2562 O 235.164 -0.209793 -1.89643 0
M  V30 2563 C 232.304 -0.834307 -3.34863 0
M  V30 2564 C 231.417 -2.02234 -3.8174 0
M  V30 2565 C 230.552 -1.64664 -5.05034 0
M  V30 2566 C 229.591 -2.80033 -5.44286 0
M  V30 2567 N 228.728 -2.42843 -6.58765 0
M  V30 2568 H 233.568 -2.09403 -2.12025 0
M  V30 2569 H 231.105 -1.042 -1.0383 0
M  V30 2570 H 233.063 -0.632436 -4.12379 0
M  V30 2571 H 231.693 0.0736656 -3.22716 0
M  V30 2572 H 230.745 -2.33583 -3.00238 0
M  V30 2573 H 232.057 -2.88673 -4.06779 0
M  V30 2574 H 231.211 -1.4078 -5.9014 0
M  V30 2575 H 229.95 -0.753766 -4.8184 0
M  V30 2576 H 228.955 -3.04596 -4.57713 0
M  V30 2577 H 230.18 -3.69989 -5.6946 0
M  V30 2578 H 228.126 -1.56046 -6.3717 0
M  V30 2579 H 228.043 -3.22815 -6.83613 0
M  V30 2580 H 229.311 -2.22285 -7.47134 0
M  V30 2581 N 233.54 1.10788 -1.12088 0
M  V30 2582 C 234.788 1.8231 -0.872205 0
M  V30 2583 C 235.109 1.85419 0.603709 0
M  V30 2584 O 234.379 1.32963 1.43867 0
M  V30 2585 H 232.959 0.675137 -0.319686 0
M  V30 2586 H 235.621 1.34068 -1.41463 0
M  V30 2587 H 234.717 2.85955 -1.25045 0
M  V30 2588 N 235.018 0.912232 1.28515 0
M  V30 2589 C 236.429 0.591352 1.77087 0
M  V30 2590 C 236.78 -0.8933 1.74684 0
M  V30 2591 O 235.905 -1.69876 1.34056 0
M  V30 2592 C 236.5 1.06668 3.2157 0
M  V30 2593 C 235.059 0.79675 3.67871 0
M  V30 2594 C 234.206 1.23427 2.48316 0
M  V30 2595 H 237.157 1.09365 1.15 0
M  V30 2596 H 237.178 0.407455 3.78312 0
M  V30 2597 H 236.69 2.14726 3.23287 0
M  V30 2598 H 234.791 -0.270679 3.71616 0
M  V30 2599 H 234.904 1.40343 4.58084 0
M  V30 2600 H 233.268 0.653036 2.46186 0
M  V30 2601 H 234.051 2.32316 2.52753 0
M  V30 2602 N 236.496 -1.42363 0.676048 0
M  V30 2603 C 237.406 -2.346 -0.00153389 0
M  V30 2604 C 238.422 -1.5516 -0.787485 0
M  V30 2605 O 239.598 -1.87723 -0.729521 0
M  V30 2606 C 236.663 -3.33705 -0.940298 0
M  V30 2607 C 235.724 -4.29042 -0.148739 0
M  V30 2608 C 234.957 -5.23413 -1.04279 0
M  V30 2609 O 235.18 -5.22749 -2.28232 0
M  V30 2610 O 234.114 -5.99795 -0.502925 0
M  V30 2611 H 237.94 -2.94082 0.758268 0
M  V30 2612 H 235.525 -1.42888 0.436289 0
M  V30 2613 H 237.407 -3.94586 -1.47917 0
M  V30 2614 H 236.082 -2.76695 -1.67993 0
M  V30 2615 H 234.989 -3.71571 0.43427 0
M  V30 2616 H 236.322 -4.89097 0.551805 0
M  V30 2617 N 237.974 -0.419461 -1.51915 0
M  V30 2618 C 238.884 0.407528 -2.31033 0
M  V30 2619 C 239.9 1.04413 -1.3919 0
M  V30 2620 O 241.076 1.0434 -1.72265 0
M  V30 2621 C 238.141 1.50365 -3.12396 0
M  V30 2622 C 237.202 0.889029 -4.19994 0
M  V30 2623 C 236.435 1.93291 -4.97468 0
M  V30 2624 O 236.658 3.15259 -4.75361 0
M  V30 2625 O 235.592 1.53339 -5.8204 0
M  V30 2626 H 239.418 -0.237865 -3.02767 0
M  V30 2627 H 237.003 -0.182413 -1.48282 0
M  V30 2628 H 238.885 2.13975 -3.63032 0
M  V30 2629 H 237.56 2.13345 -2.43445 0
M  V30 2630 H 236.467 0.215353 -3.7348 0
M  V30 2631 H 237.8 0.302991 -4.91267 0
M  V30 2632 N 239.452 1.56882 -0.150215 0
M  V30 2633 C 240.7 1.9584 0.499105 0
M  V30 2634 C 241.021 1.03623 1.65188 0
M  V30 2635 O 240.291 0.0984084 1.95653 0
M  V30 2636 H 238.871 0.723119 0.187373 0
M  V30 2637 H 241.533 1.9358 -0.226466 0
M  V30 2638 H 240.629 2.99638 0.873122 0
M  V30 2639 N 240.93 -0.123565 1.57115 0
M  V30 2640 C 241.84 -1.17074 2.033 0
M  V30 2641 C 242.856 -1.4561 0.952559 0
M  V30 2642 O 244.032 -1.56817 1.26374 0
M  V30 2643 C 241.097 -2.47857 2.42421 0
M  V30 2644 C 240.158 -2.26758 3.64526 0
M  V30 2645 C 239.391 -3.51305 4.01771 0
M  V30 2646 O 239.614 -4.5843 3.39409 0
M  V30 2647 O 238.548 -3.42578 4.94898 0
M  V30 2648 H 242.374 -0.808555 2.92739 0
M  V30 2649 H 239.959 -0.334027 1.45618 0
M  V30 2650 H 241.841 -3.2492 2.68338 0
M  V30 2651 H 240.516 -2.83558 1.5613 0
M  V30 2652 H 239.423 -1.47569 3.43765 0
M  V30 2653 H 240.756 -1.95963 4.51508 0
M  V30 2654 N 242.408 -1.52605 -0.393616 0
M  V30 2655 C 243.657 -1.66649 -1.13627 0
M  V30 2656 C 243.97 -0.410364 -1.91247 0
M  V30 2657 O 245.176 -0.430854 -2.68059 0
M  V30 2658 C 243.632 -2.9449 -2.06891 0
M  V30 2659 C 243.24 -4.27266 -1.34714 0
M  V30 2660 C 244.984 -3.17899 -2.81319 0
M  V30 2661 C 242.891 -5.46217 -2.26717 0
M  V30 2662 H 241.821 -0.62084 -0.427871 0
M  V30 2663 H 244.472 -1.791 -0.399428 0
M  V30 2664 H 242.854 -2.75774 -2.84191 0
M  V30 2665 H 244.028 -4.56518 -0.626714 0
M  V30 2666 H 242.343 -4.10081 -0.722643 0
M  V30 2667 H 244.94 -4.03949 -3.50328 0
M  V30 2668 H 245.283 -2.32777 -3.45139 0
M  V30 2669 H 245.816 -3.37159 -2.11113 0
M  V30 2670 H 242.555 -6.33733 -1.67521 0
M  V30 2671 H 242.075 -5.21283 -2.96689 0
M  V30 2672 H 243.754 -5.7991 -2.86903 0
M  V30 2673 N 243.887 0.651787 -1.4349 0
M  V30 2674 C 245.298 1.233 -1.40193 0
M  V30 2675 C 245.649 1.9591 -0.106727 0
M  V30 2676 O 244.774 2.01316 0.793773 0
M  V30 2677 C 245.369 2.24257 -2.53957 0
M  V30 2678 C 243.928 2.77852 -2.5392 0
M  V30 2679 C 243.075 1.52517 -2.3159 0
M  V30 2680 H 246.026 0.443717 -1.52371 0
M  V30 2681 H 246.047 3.0646 -2.25528 0
M  V30 2682 H 245.559 1.71382 -3.4821 0
M  V30 2683 H 243.66 3.34786 -1.63551 0
M  V30 2684 H 243.773 3.25299 -3.51735 0
M  V30 2685 H 242.137 1.79915 -1.80285 0
M  V30 2686 H 242.92 1.01574 -3.27929 0
M  V30 2687 N 245.365 1.30045 0.890287 0
M  V30 2688 C 246.781 1.08261 1.17268 0
M  V30 2689 C 246.981 -0.160063 2.00863 0
M  V30 2690 O 246.037 -0.855181 2.37577 0
M  V30 2691 C 247.35 2.34323 1.8845 0
M  V30 2692 C 248.898 2.39735 2.01237 0
M  V30 2693 C 249.373 3.65625 2.7583 0
M  V30 2694 N 250.864 3.66402 2.83379 0
M  V30 2695 C 251.599 4.60498 3.41657 0
M  V30 2696 N 251.095 5.64933 4.01026 0
M  V30 2697 N 252.888 4.48051 3.39421 0
M  V30 2698 H 245.039 2.09777 0.332762 0
M  V30 2699 H 247.302 0.92446 0.209948 0
M  V30 2700 H 247.008 3.2498 1.34465 0
M  V30 2701 H 246.882 2.4256 2.88867 0
M  V30 2702 H 249.269 1.4956 2.54393 0
M  V30 2703 H 249.35 2.35476 0.999232 0
M  V30 2704 H 248.994 4.56156 2.23347 0
M  V30 2705 H 248.924 3.67144 3.77509 0
M  V30 2706 H 251.415 2.90896 2.41222 0
M  V30 2707 H 251.728 6.32841 4.43545 0
M  V30 2708 H 250.073 5.68732 3.99461 0
M  V30 2709 H 253.264 3.65649 2.92264 0
M  V30 2710 H 253.437 5.21565 3.84544 0
M  V30 2711 N 246.843 -1.10192 1.12674 0
M  V30 2712 C 247.753 -2.20172 0.810026 0
M  V30 2713 C 248.769 -1.72821 -0.202188 0
M  V30 2714 O 249.945 -2.01369 -0.0351691 0
M  V30 2715 C 247.01 -3.45631 0.272007 0
M  V30 2716 C 246.071 -4.07704 1.34447 0
M  V30 2717 C 245.304 -5.27175 0.832029 0
M  V30 2718 O 245.527 -5.69425 -0.333284 0
M  V30 2719 O 244.461 -5.80168 1.60277 0
M  V30 2720 H 248.287 -2.49701 1.72867 0
M  V30 2721 H 245.872 -1.18977 0.903597 0
M  V30 2722 H 247.754 -4.21394 -0.0230219 0
M  V30 2723 H 246.429 -3.17723 -0.619164 0
M  V30 2724 H 245.336 -3.33614 1.6927 0
M  V30 2725 H 246.669 -4.3982 2.2095 0
M  V30 2726 N 248.321 -0.919034 -1.28029 0
M  V30 2727 C 249.598 -0.473668 -1.89778 0
M  V30 2728 C 249.978 1.04783 -1.83259 0
M  V30 2729 O 249.326 1.8982 -1.27202 0
M  V30 2730 C 249.536 -1.00998 -3.34066 0
M  V30 2731 C 250.884 -1.06525 -4.1102 0
M  V30 2732 O 251.908 -0.958996 -3.43048 0
M  V30 2733 O 250.767 -1.22776 -5.3253 0
M  V30 2734 H 247.861 -0.15098 -0.813101 0
M  V30 2735 H 250.407 -1.01016 -1.36359 0
M  V30 2736 H 249.179 -2.05392 -3.33061 0
M  V30 2737 H 248.802 -0.454626 -3.94992 0
M  V30 2738 N 249.799 1.42003 -0.683588 0
M  V30 2739 C 251.21 1.84501 -0.285736 0
M  V30 2740 C 251.561 1.57213 1.17382 0
M  V30 2741 O 250.686 1.03642 1.89966 0
M  V30 2742 C 251.281 3.34912 -0.511821 0
M  V30 2743 C 249.84 3.76025 -0.168005 0
M  V30 2744 C 248.987 2.6551 -0.799983 0
M  V30 2745 H 251.938 1.31724 -0.885119 0
M  V30 2746 H 251.959 3.79784 0.233292 0
M  V30 2747 H 251.471 3.54741 -1.57418 0
M  V30 2748 H 249.572 3.61801 0.890567 0
M  V30 2749 H 249.685 4.75141 -0.614661 0
M  V30 2750 H 248.049 2.53654 -0.230568 0
M  V30 2751 H 248.832 2.8816 -1.86597 0
M  V30 2752 N 251.277 0.427512 1.51691 0
M  V30 2753 C 252.525 -0.141948 2.01601 0
M  V30 2754 C 252.846 -1.44067 1.31414 0
M  V30 2755 O 252.116 -1.90763 0.445658 0
M  V30 2756 H 250.696 -0.0554468 0.744939 0
M  V30 2757 H 253.358 0.567968 1.86441 0
M  V30 2758 H 252.454 -0.324913 3.10404 0
M  V30 2759 N 252.755 -1.56801 0.158532 0
M  V30 2760 C 253.685 -2.20347 -0.772609 0
M  V30 2761 C 254.666 -1.15518 -1.24859 0
M  V30 2762 O 255.851 -1.43902 -1.30406 0
M  V30 2763 C 252.981 -2.83417 -2.00729 0
M  V30 2764 C 251.935 -3.94174 -1.66765 0
M  V30 2765 C 251.261 -4.44233 -2.97592 0
M  V30 2766 C 252.561 -5.14392 -0.905447 0
M  V30 2767 H 254.255 -2.98413 -0.242959 0
M  V30 2768 H 251.801 -1.43537 -0.115419 0
M  V30 2769 H 253.754 -3.26543 -2.6636 0
M  V30 2770 H 252.478 -2.02701 -2.56086 0
M  V30 2771 H 251.137 -3.51684 -1.03508 0
M  V30 2772 H 250.785 -3.60325 -3.50963 0
M  V30 2773 H 250.485 -5.18945 -2.75626 0
M  V30 2774 H 252.009 -4.90037 -3.64274 0
M  V30 2775 H 253.423 -5.5429 -1.46408 0
M  V30 2776 H 251.82 -5.9494 -0.7853 0
M  V30 2777 H 252.89 -4.84795 0.100668 0
M  V30 2778 N 254.233 0.115231 -1.57178 0
M  V30 2779 C 255.644 0.67197 -1.74188 0
M  V30 2780 C 255.995 1.80125 -0.777777 0
M  V30 2781 O 255.12 2.16346 0.0484376 0
M  V30 2782 C 255.715 1.22573 -3.1585 0
M  V30 2783 C 254.274 1.72872 -3.34353 0
M  V30 2784 C 253.421 0.629972 -2.70049 0
M  V30 2785 H 256.372 -0.110712 -1.58313 0
M  V30 2786 H 256.393 2.09535 -3.17609 0
M  V30 2787 H 255.905 0.403598 -3.85996 0
M  V30 2788 H 254.006 2.5755 -2.69256 0
M  V30 2789 H 254.119 1.83557 -4.42542 0
M  V30 2790 H 252.483 1.0645 -2.31388 0
M  V30 2791 H 253.266 -0.181241 -3.42821 0
M  V30 2792 N 255.711 1.52812 0.385517 0
M  V30 2793 C 256.641 1.80808 1.47752 0
M  V30 2794 C 257.622 0.660318 1.5676 0
M  V30 2795 O 258.807 0.908246 1.71652 0
M  V30 2796 C 255.937 1.98008 2.85324 0
M  V30 2797 C 254.891 3.13709 2.91154 0
M  V30 2798 C 254.217 3.16169 4.31209 0
M  V30 2799 C 255.517 4.52709 2.60483 0
M  V30 2800 H 257.211 2.72253 1.24573 0
M  V30 2801 H 254.757 1.31003 0.597839 0
M  V30 2802 H 256.71 2.16176 3.61726 0
M  V30 2803 H 255.434 1.03255 3.09848 0
M  V30 2804 H 254.093 2.95329 2.17201 0
M  V30 2805 H 253.741 2.19092 4.52778 0
M  V30 2806 H 253.441 3.93894 4.36029 0
M  V30 2807 H 254.965 3.36496 5.09512 0
M  V30 2808 H 256.379 4.71173 3.26602 0
M  V30 2809 H 254.776 5.32528 2.76648 0
M  V30 2810 H 255.846 4.59186 1.55809 0
M  V30 2811 N 257.189 -0.644168 1.43834 0
M  V30 2812 C 258.6 -1.22554 1.40845 0
M  V30 2813 C 258.951 -1.9585 0.117115 0
M  V30 2814 O 258.076 -2.01734 -0.783086 0
M  V30 2815 C 258.671 -2.22907 2.55143 0
M  V30 2816 C 257.23 -2.76501 2.5539 0
M  V30 2817 C 256.377 -1.51287 2.32396 0
M  V30 2818 H 259.328 -0.43563 1.52604 0
M  V30 2819 H 259.349 -3.05259 2.2715 0
M  V30 2820 H 258.861 -1.69533 3.49114 0
M  V30 2821 H 256.962 -3.33914 1.65324 0
M  V30 2822 H 257.075 -3.23429 3.53455 0
M  V30 2823 H 255.439 -1.78957 1.81236 0
M  V30 2824 H 256.222 -0.998336 3.28463 0
M  V30 2825 N 258.668 -1.30515 -0.883378 0
M  V30 2826 C 259.578 -1.18959 -2.02203 0
M  V30 2827 C 260.594 -0.109172 -1.73657 0
M  V30 2828 O 261.77 -0.324413 -1.9877 0
M  V30 2829 C 258.835 -0.883871 -3.35244 0
M  V30 2830 C 257.896 -2.04982 -3.77201 0
M  V30 2831 C 257.129 -1.75859 -5.03894 0
M  V30 2832 O 257.352 -0.687276 -5.66244 0
M  V30 2833 O 256.286 -2.61146 -5.42297 0
M  V30 2834 H 260.112 -2.14616 -2.1488 0
M  V30 2835 H 257.697 -1.10124 -1.0096 0
M  V30 2836 H 259.579 -0.728644 -4.15053 0
M  V30 2837 H 258.254 0.0427798 -3.23672 0
M  V30 2838 H 257.161 -2.26038 -2.9809 0
M  V30 2839 H 258.494 -2.95825 -3.93381 0
M  V30 2840 N 260.146 1.09593 -1.13257 0
M  V30 2841 C 261.557 1.63229 -0.906274 0
M  V30 2842 C 261.908 1.8811 0.557578 0
M  V30 2843 O 261.033 1.62953 1.42391 0
M  V30 2844 C 261.628 2.96535 -1.63867 0
M  V30 2845 C 260.187 3.47003 -1.45828 0
M  V30 2846 C 259.334 2.2145 -1.66898 0
M  V30 2847 H 262.285 0.92978 -1.28611 0
M  V30 2848 H 262.306 3.64411 -1.09476 0
M  V30 2849 H 261.818 2.78394 -2.70404 0
M  V30 2850 H 259.919 3.70272 -0.415848 0
M  V30 2851 H 260.032 4.24551 -2.2202 0
M  V30 2852 H 258.396 2.30022 -1.09371 0
M  V30 2853 H 259.179 2.0583 -2.74752 0
M  V30 2854 N 261.624 0.925811 1.2754 0
M  V30 2855 C 262.872 0.564138 1.94067 0
M  V30 2856 C 263.193 -0.897188 1.73134 0
M  V30 2857 O 262.463 -1.63573 1.07799 0
M  V30 2858 H 261.043 0.205645 0.718136 0
M  V30 2859 H 263.705 1.1778 1.55287 0
M  V30 2860 H 262.801 0.76881 3.02483 0
M  V30 2861 N 263.102 -1.41638 0.69111 0
M  V30 2862 C 264.012 -2.34588 0.0233487 0
M  V30 2863 C 265.028 -1.55987 -0.770984 0
M  V30 2864 O 266.204 -1.88486 -0.709569 0
M  V30 2865 C 263.269 -3.34684 -0.904851 0
M  V30 2866 C 262.33 -4.29176 -0.103225 0
M  V30 2867 C 261.563 -5.2449 -0.987216 0
M  V30 2868 O 261.786 -5.2514 -2.22674 0
M  V30 2869 O 260.72 -6.00295 -0.439281 0
M  V30 2870 H 264.546 -2.93261 0.789416 0
M  V30 2871 H 262.131 -1.42417 0.45142 0
M  V30 2872 H 264.013 -3.96133 -1.43724 0
M  V30 2873 H 262.688 -2.78461 -1.65049 0
M  V30 2874 H 261.595 -3.71089 0.473655 0
M  V30 2875 H 262.928 -4.88484 0.60365 0
M  V30 2876 N 264.58 -0.43555 -1.51462 0
M  V30 2877 C 265.49 0.383001 -2.31453 0
M  V30 2878 C 266.506 1.02931 -1.4029 0
M  V30 2879 O 267.682 1.02507 -1.73362 0
M  V30 2880 C 264.747 1.47043 -3.13973 0
M  V30 2881 C 263.808 0.844433 -4.20913 0
M  V30 2882 C 263.041 1.88004 -4.9949 0
M  V30 2883 O 263.264 3.10199 -4.78678 0
M  V30 2884 O 262.198 1.47157 -5.83634 0
M  V30 2885 H 266.024 -0.269964 -3.02498 0
M  V30 2886 H 263.609 -0.19813 -1.4808 0
M  V30 2887 H 265.491 2.10113 -3.65281 0
M  V30 2888 H 264.166 2.10751 -2.45695 0
M  V30 2889 H 263.073 0.175729 -3.73687 0
M  V30 2890 H 264.406 0.250869 -4.9156 0
M  V30 2891 N 266.058 1.56714 -0.166846 0
M  V30 2892 C 267.021 2.16539 0.751232 0
M  V30 2893 C 268.021 1.11228 1.16125 0
M  V30 2894 O 269.211 1.36765 1.07894 0
M  V30 2895 C 266.343 2.74462 2.02196 0
M  V30 2896 H 267.536 2.99013 0.230499 0
M  V30 2897 H 265.089 1.56081 0.0826982 0
M  V30 2898 H 265.824 1.95709 2.58589 0
M  V30 2899 H 265.609 3.51527 1.73698 0
M  V30 2900 H 267.099 3.20489 2.67725 0
M  V30 2901 N 267.536 -0.106894 1.57237 0
M  V30 2902 C 268.499 -1.11466 2.0027 0
M  V30 2903 C 269.499 -1.33623 0.894519 0
M  V30 2904 O 270.689 -1.29935 1.16028 0
M  V30 2905 C 267.821 -2.46646 2.35327 0
M  V30 2906 H 269.014 -0.744516 2.90512 0
M  V30 2907 H 266.567 -0.351576 1.52295 0
M  V30 2908 H 267.302 -2.88558 1.48003 0
M  V30 2909 H 267.087 -2.31915 3.16161 0
M  V30 2910 H 268.577 -3.19151 2.69318 0
M  V30 2911 N 269.014 -1.53014 -0.377408 0
M  V30 2912 C 269.944 -1.81589 -1.46791 0
M  V30 2913 C 270.925 -0.668622 -1.56408 0
M  V30 2914 O 272.11 -0.917337 -1.71168 0
M  V30 2915 C 269.24 -1.99519 -2.8427 0
M  V30 2916 C 268.194 -3.15249 -2.89486 0
M  V30 2917 C 267.52 -3.18451 -4.29527 0
M  V30 2918 C 268.82 -4.54084 -2.58079 0
M  V30 2919 H 270.514 -2.7291 -1.23127 0
M  V30 2920 H 268.06 -1.31319 -0.590883 0
M  V30 2921 H 270.013 -2.18092 -3.60575 0
M  V30 2922 H 268.737 -1.04897 -3.09296 0
M  V30 2923 H 267.396 -2.96477 -2.15631 0
M  V30 2924 H 267.044 -2.2149 -4.5161 0
M  V30 2925 H 266.744 -3.962 -4.33934 0
M  V30 2926 H 268.268 -3.39193 -5.07721 0
M  V30 2927 H 269.682 -4.72899 -3.24098 0
M  V30 2928 H 268.079 -5.33987 -2.7382 0
M  V30 2929 H 269.149 -4.60006 -1.53372 0
M  V30 2930 N 270.492 0.636531 -1.44174 0
M  V30 2931 C 271.455 1.73063 -1.50273 0
M  V30 2932 C 272.455 1.56113 -0.385397 0
M  V30 2933 O 273.645 1.61707 -0.64781 0
M  V30 2934 C 270.777 3.12096 -1.37145 0
M  V30 2935 H 271.97 1.69031 -2.47727 0
M  V30 2936 H 269.523 0.849706 -1.31186 0
M  V30 2937 H 270.258 3.21728 -0.407636 0
M  V30 2938 H 270.043 3.25805 -2.18159 0
M  V30 2939 H 271.533 3.91846 -1.44382 0
M  V30 2940 N 271.97 1.30982 0.876444 0
M  V30 2941 C 273.218 1.20058 1.62575 0
M  V30 2942 C 273.539 -0.242947 1.93481 0
M  V30 2943 O 272.809 -1.1619 1.57724 0
M  V30 2944 H 271.389 0.44135 0.602677 0
M  V30 2945 H 274.051 1.64222 1.04962 0
M  V30 2946 H 273.147 1.76762 2.57219 0
M  V30 2947 N 273.449 -1.08991 1.13837 0
M  V30 2948 C 274.379 -2.17771 0.842507 0
M  V30 2949 C 275.36 -1.6892 -0.20001 0
M  V30 2950 O 276.545 -1.94113 -0.0579731 0
M  V30 2951 C 273.675 -3.4589 0.312644 0
M  V30 2952 C 272.629 -4.08099 1.28992 0
M  V30 2953 C 271.955 -5.31098 0.619623 0
M  V30 2954 C 273.255 -4.50077 2.65005 0
M  V30 2955 H 274.949 -2.42777 1.75213 0
M  V30 2956 H 272.495 -1.16682 0.843875 0
M  V30 2957 H 274.448 -4.21297 0.0933043 0
M  V30 2958 H 273.172 -3.20419 -0.632382 0
M  V30 2959 H 271.831 -3.34717 1.49533 0
M  V30 2960 H 271.479 -5.0191 -0.33102 0
M  V30 2961 H 271.179 -5.73674 1.27167 0
M  V30 2962 H 272.703 -6.09224 0.409669 0
M  V30 2963 H 274.117 -5.16688 2.48407 0
M  V30 2964 H 272.514 -5.03553 3.26427 0
M  V30 2965 H 273.584 -3.62257 3.22332 0
M  V30 2966 N 274.927 -0.932562 -1.27047 0
M  V30 2967 C 276.343 -0.633544 -1.46487 0
M  V30 2968 C 276.543 0.815746 -1.84249 0
M  V30 2969 O 275.599 1.59319 -1.95892 0
M  V30 2970 C 276.912 -1.58758 -2.55375 0
M  V30 2971 C 278.46 -1.59634 -2.69232 0
M  V30 2972 C 278.935 -2.53747 -3.81283 0
M  V30 2973 N 280.426 -2.51982 -3.88664 0
M  V30 2974 C 281.161 -3.21491 -4.74796 0
M  V30 2975 N 280.657 -4.00395 -5.65381 0
M  V30 2976 N 282.45 -3.10485 -4.68568 0
M  V30 2977 H 274.601 -1.86946 -1.00821 0
M  V30 2978 H 276.864 -0.802897 -0.504044 0
M  V30 2979 H 276.57 -2.62172 -2.34432 0
M  V30 2980 H 276.444 -1.33301 -3.52861 0
M  V30 2981 H 278.831 -0.569488 -2.89553 0
M  V30 2982 H 278.912 -1.89142 -1.72218 0
M  V30 2983 H 278.556 -3.56545 -3.61715 0
M  V30 2984 H 278.486 -2.21532 -4.77735 0
M  V30 2985 H 280.977 -1.94681 -3.23895 0
M  V30 2986 H 281.29 -4.50406 -6.27976 0
M  V30 2987 H 279.635 -4.04498 -5.65161 0
M  V30 2988 H 282.826 -2.48331 -3.96799 0
M  V30 2989 H 282.999 -3.64925 -5.35475 0
M  V30 2990 N 276.405 1.4127 -0.698611 0
M  V30 2991 C 277.368 2.29158 -0.044132 0
M  V30 2992 C 278.368 1.44529 0.704841 0
M  V30 2993 O 279.558 1.65643 0.539276 0
M  V30 2994 C 276.69 3.27459 0.947809 0
M  V30 2995 H 277.883 2.88529 -0.817994 0
M  V30 2996 H 275.436 1.49307 -0.46228 0
M  V30 2997 H 276.171 2.73073 1.74933 0
M  V30 2998 H 275.956 3.8991 0.41385 0
M  V30 2999 H 277.446 3.93311 1.40344 0
M  V30 3000 N 277.883 0.443576 1.51229 0
M  V30 3001 C 279.13 -0.120796 2.02139 0
M  V30 3002 C 279.458 -1.42166 1.32736 0
M  V30 3003 O 278.713 -1.90849 0.43301 0
M  V30 3004 C 279.012 -0.380579 3.55368 0
M  V30 3005 C 278.678 0.83523 4.43097 0
M  V30 3006 C 277.34 1.16864 4.66794 0
M  V30 3007 C 279.692 1.64601 4.94526 0
M  V30 3008 C 277.02 2.31339 5.39165 0
M  V30 3009 C 279.372 2.78181 5.68153 0
M  V30 3010 C 278.036 3.11969 5.90112 0
M  V30 3011 H 277.306 -0.0442023 0.73968 0
M  V30 3012 H 279.953 0.592046 1.82118 0
M  V30 3013 H 278.258 -1.17538 3.73754 0
M  V30 3014 H 279.955 -0.830777 3.923 0
M  V30 3015 H 276.545 0.565437 4.24854 0
M  V30 3016 H 280.729 1.40163 4.76097 0
M  V30 3017 H 275.985 2.57823 5.5438 0
M  V30 3018 H 280.159 3.41371 6.06992 0
M  V30 3019 H 277.786 4.00784 6.45969 0
M  V30 3020 N 279.361 -1.56624 0.175154 0
M  V30 3021 C 280.291 -2.21155 -0.749195 0
M  V30 3022 C 281.272 -1.16836 -1.23626 0
M  V30 3023 O 282.457 -1.45277 -1.28873 0
M  V30 3024 C 279.587 -2.8553 -1.97711 0
M  V30 3025 C 278.541 -3.95921 -1.62575 0
M  V30 3026 C 277.867 -4.47365 -2.92864 0
M  V30 3027 C 279.167 -5.15323 -0.850838 0
M  V30 3028 H 280.861 -2.98653 -0.211295 0
M  V30 3029 H 278.407 -1.43651 -0.100188 0
M  V30 3030 H 280.36 -3.2935 -2.62881 0
M  V30 3031 H 279.084 -2.05406 -2.53921 0
M  V30 3032 H 277.743 -3.52762 -0.997719 0
M  V30 3033 H 277.391 -3.64027 -3.47122 0
M  V30 3034 H 277.091 -5.21839 -2.70106 0
M  V30 3035 H 278.615 -4.93873 -3.59056 0
M  V30 3036 H 280.029 -5.55812 -1.40521 0
M  V30 3037 H 278.426 -5.95739 -0.722154 0
M  V30 3038 H 279.496 -4.84661 0.152082 0
M  V30 3039 N 280.839 0.0985539 -1.57292 0
M  V30 3040 C 281.749 1.13824 -2.05137 0
M  V30 3041 C 282.765 1.44076 -0.975604 0
M  V30 3042 O 283.941 1.54786 -1.28853 0
M  V30 3043 C 281.006 2.43969 -2.46333 0
M  V30 3044 C 280.067 2.2093 -3.68087 0
M  V30 3045 C 279.3 3.44869 -4.0731 0
M  V30 3046 O 279.523 4.52972 -3.46659 0
M  V30 3047 O 278.457 3.34661 -5.00285 0
M  V30 3048 H 282.283 0.761881 -2.93988 0
M  V30 3049 H 279.868 0.310818 -1.46131 0
M  V30 3050 H 281.75 3.20609 -2.73473 0
M  V30 3051 H 280.425 2.81038 -1.60621 0
M  V30 3052 H 279.332 1.42081 -3.46069 0
M  V30 3053 H 280.665 1.88755 -4.54568 0
M  V30 3054 N 282.317 1.53212 0.369288 0
M  V30 3055 C 283.28 1.7872 1.43498 0
M  V30 3056 C 284.28 0.657554 1.46741 0
M  V30 3057 O 285.47 0.925736 1.47566 0
M  V30 3058 C 282.602 1.90591 2.82645 0
M  V30 3059 H 283.795 2.73894 1.22156 0
M  V30 3060 H 281.348 1.44233 0.602203 0
M  V30 3061 H 282.083 0.974709 3.09306 0
M  V30 3062 H 281.868 2.72751 2.8169 0
M  V30 3063 H 283.358 2.11931 3.59826 0
M  V30 3064 N 283.795 -0.628877 1.44509 0
M  V30 3065 C 284.742 -1.74074 1.51549 0
M  V30 3066 C 285.712 -1.62084 0.363021 0
M  V30 3067 O 286.897 -1.81975 0.573567 0
M  V30 3068 C 284.037 -3.12328 1.46784 0
M  V30 3069 C 283.15 -3.35277 2.72422 0
M  V30 3070 C 282.285 -4.63515 2.59475 0
M  V30 3071 C 281.324 -4.7965 3.80266 0
M  V30 3072 N 280.461 -5.99168 3.65981 0
M  V30 3073 H 285.301 -1.67392 2.46544 0
M  V30 3074 H 282.838 -0.816527 1.22357 0
M  V30 3075 H 284.796 -3.92286 1.42012 0
M  V30 3076 H 283.426 -3.18018 0.553544 0
M  V30 3077 H 282.478 -2.49242 2.87372 0
M  V30 3078 H 283.79 -3.43078 3.62076 0
M  V30 3079 H 282.944 -5.51638 2.52548 0
M  V30 3080 H 281.683 -4.58076 1.67384 0
M  V30 3081 H 280.688 -3.89957 3.87574 0
M  V30 3082 H 281.913 -4.86902 4.73395 0
M  V30 3083 H 279.859 -5.94814 2.76644 0
M  V30 3084 H 279.776 -6.08035 4.49254 0
M  V30 3085 H 281.044 -6.89846 3.6295 0
M  V30 3086 N 285.273 -1.31445 -0.869486 0
M  V30 3087 C 286.203 -1.21727 -1.99261 0
M  V30 3088 C 287.184 -0.104359 -1.6978 0
M  V30 3089 O 288.369 -0.289038 -1.92037 0
M  V30 3090 C 285.499 -0.924317 -3.34774 0
M  V30 3091 C 284.453 -1.99685 -3.78563 0
M  V30 3092 C 283.779 -1.55658 -5.11541 0
M  V30 3093 C 285.079 -3.41003 -3.95619 0
M  V30 3094 H 286.773 -2.1569 -2.07649 0
M  V30 3095 H 284.319 -1.03839 -0.997675 0
M  V30 3096 H 286.272 -0.842934 -4.12883 0
M  V30 3097 H 284.996 0.0509793 -3.2656 0
M  V30 3098 H 283.655 -2.06813 -3.02694 0
M  V30 3099 H 283.303 -0.569132 -4.9977 0
M  V30 3100 H 283.003 -2.27409 -5.41811 0
M  V30 3101 H 284.527 -1.48928 -5.92159 0
M  V30 3102 H 285.941 -3.36547 -4.64122 0
M  V30 3103 H 284.338 -4.10975 -4.37286 0
M  V30 3104 H 285.408 -3.81754 -2.98985 0
M  V30 3105 N 286.751 1.08385 -1.14413 0
M  V30 3106 C 288.162 1.62258 -0.923535 0
M  V30 3107 C 288.513 1.88691 0.537595 0
M  V30 3108 O 287.638 1.64454 1.40655 0
M  V30 3109 C 288.233 2.94781 -1.67002 0
M  V30 3110 C 286.792 3.45437 -1.495 0
M  V30 3111 C 285.939 2.19668 -1.69238 0
M  V30 3112 H 288.89 0.916086 -1.2959 0
M  V30 3113 H 288.911 3.63229 -1.13334 0
M  V30 3114 H 288.423 2.7551 -2.73342 0
M  V30 3115 H 286.524 3.6981 -0.455097 0
M  V30 3116 H 286.637 4.22173 -2.2651 0
M  V30 3117 H 285.001 2.28849 -1.11804 0
M  V30 3118 H 285.784 2.02905 -2.7692 0
M  V30 3119 N 288.23 0.939286 1.26551 0
M  V30 3120 C 289.646 0.641304 1.46149 0
M  V30 3121 C 289.846 -0.805964 1.84679 0
M  V30 3122 O 288.902 -1.58278 1.96734 0
M  V30 3123 C 290.215 1.6011 2.54529 0
M  V30 3124 C 291.763 1.6106 2.68382 0
M  V30 3125 C 292.238 2.55765 3.79932 0
M  V30 3126 N 293.729 2.5404 3.87322 0
M  V30 3127 C 294.464 3.24004 4.73085 0
M  V30 3128 N 293.96 4.03388 5.63249 0
M  V30 3129 N 295.753 3.12965 4.66914 0
M  V30 3130 H 287.904 1.87478 0.998285 0
M  V30 3131 H 290.167 0.805559 0.499779 0
M  V30 3132 H 289.873 2.63412 2.33039 0
M  V30 3133 H 289.747 1.35171 3.52149 0
M  V30 3134 H 292.134 0.584835 2.89247 0
M  V30 3135 H 292.215 1.90053 1.71212 0
M  V30 3136 H 291.859 3.58458 3.5982 0
M  V30 3137 H 291.789 2.24063 4.76554 0
M  V30 3138 H 294.28 1.96396 3.22858 0
M  V30 3139 H 294.593 4.5373 6.25579 0
M  V30 3140 H 292.938 4.07489 5.63008 0
M  V30 3141 H 296.129 2.50432 3.95476 0
M  V30 3142 H 296.302 3.67759 5.33533 0
M  V30 3143 N 289.708 -1.40897 0.706093 0
M  V30 3144 C 290.938 -2.05075 0.250523 0
M  V30 3145 C 291.346 -1.53275 -1.10921 0
M  V30 3146 O 290.689 -0.680281 -1.7064 0
M  V30 3147 C 290.751 -3.59219 0.142178 0
M  V30 3148 C 290.415 -4.33864 1.43566 0
M  V30 3149 C 291.412 -4.62448 2.37566 0
M  V30 3150 C 289.097 -4.72946 1.69195 0
M  V30 3151 C 291.091 -5.29088 3.5545 0
M  V30 3152 C 288.778 -5.3932 2.87362 0
M  V30 3153 C 289.776 -5.6732 3.80312 0
M  V30 3154 O 289.464 -6.32325 4.96408 0
M  V30 3155 H 289.196 -0.666645 0.112074 0
M  V30 3156 H 291.75 -1.81467 0.962239 0
M  V30 3157 H 289.98 -3.81609 -0.6254 0
M  V30 3158 H 291.669 -4.0495 -0.277584 0
M  V30 3159 H 292.435 -4.32727 2.19027 0
M  V30 3160 H 288.314 -4.50527 0.977042 0
M  V30 3161 H 291.858 -5.50859 4.28018 0
M  V30 3162 H 287.755 -5.68461 3.05814 0
M  V30 3163 H 288.523 -6.50821 4.9636 0
M  V30 3164 N 291.186 -0.45159 -1.50991 0
M  V30 3165 C 292.149 0.341117 -2.26647 0
M  V30 3166 C 293.149 0.937422 -1.30649 0
M  V30 3167 O 294.339 0.809644 -1.54241 0
M  V30 3168 C 291.471 1.48398 -3.06905 0
M  V30 3169 H 292.664 -0.322117 -2.98165 0
M  V30 3170 H 290.217 -0.205122 -1.54948 0
M  V30 3171 H 290.952 2.18284 -2.39838 0
M  V30 3172 H 290.737 1.06241 -3.77432 0
M  V30 3173 H 292.227 2.04367 -3.64176 0
M  V30 3174 N 292.664 1.56529 -0.183458 0
M  V30 3175 C 293.574 2.22144 0.754272 0
M  V30 3176 C 294.59 1.21684 1.24374 0
M  V30 3177 O 295.766 1.54385 1.29333 0
M  V30 3178 C 292.831 2.85884 1.96141 0
M  V30 3179 C 291.892 4.01579 1.51765 0
M  V30 3180 C 291.125 4.6227 2.66725 0
M  V30 3181 O 291.348 4.21865 3.83909 0
M  V30 3182 O 290.282 5.51936 2.40104 0
M  V30 3183 H 294.108 3.02861 0.225527 0
M  V30 3184 H 291.693 1.49331 0.0453032 0
M  V30 3185 H 293.575 3.26253 2.66715 0
M  V30 3186 H 292.25 2.08154 2.47899 0
M  V30 3187 H 291.157 3.65856 0.781049 0
M  V30 3188 H 292.49 4.80938 1.04686 0
M  V30 3189 N 294.142 -0.090211 1.57342 0
M  V30 3190 C 295.052 -1.12735 2.05738 0
M  V30 3191 C 296.068 -1.43557 0.983231 0
M  V30 3192 O 297.244 -1.54101 1.29672 0
M  V30 3193 C 294.309 -2.42659 2.47624 0
M  V30 3194 C 293.37 -2.18975 3.69254 0
M  V30 3195 C 292.603 -3.42704 4.09133 0
M  V30 3196 O 292.826 -4.51127 3.49057 0
M  V30 3197 O 291.76 -3.32003 5.02053 0
M  V30 3198 H 295.586 -0.746279 2.94388 0
M  V30 3199 H 293.171 -0.303064 1.46294 0
M  V30 3200 H 295.053 -3.19155 2.7517 0
M  V30 3201 H 293.728 -2.80182 1.62109 0
M  V30 3202 H 292.635 -1.40244 3.46818 0
M  V30 3203 H 293.968 -1.86342 4.55563 0
M  V30 3204 N 295.62 -1.53406 -0.361157 0
M  V30 3205 C 297.036 -1.43277 -0.703124 0
M  V30 3206 C 297.236 -0.575384 -1.9311 0
M  V30 3207 O 296.292 -0.0595362 -2.5243 0
M  V30 3208 C 297.605 -2.8653 -0.9122 0
M  V30 3209 C 299.153 -2.96191 -1.01193 0
M  V30 3210 C 299.628 -4.40514 -1.25345 0
M  V30 3211 N 301.119 -4.43962 -1.32105 0
M  V30 3212 C 301.854 -5.52746 -1.5251 0
M  V30 3213 N 301.35 -6.71567 -1.70203 0
M  V30 3214 N 303.143 -5.40331 -1.54916 0
M  V30 3215 H 295.294 -2.07654 0.446475 0
M  V30 3216 H 297.557 -0.937944 0.137715 0
M  V30 3217 H 297.263 -3.51605 -0.0816414 0
M  V30 3218 H 297.137 -3.30441 -1.81903 0
M  V30 3219 H 299.524 -2.31266 -1.83303 0
M  V30 3220 H 299.605 -2.55667 -0.0823929 0
M  V30 3221 H 299.249 -5.06014 -0.437346 0
M  V30 3222 H 299.179 -4.78614 -2.19627 0
M  V30 3223 H 301.67 -3.58332 -1.20028 0
M  V30 3224 H 301.983 -7.50241 -1.85359 0
M  V30 3225 H 300.328 -6.74545 -1.67373 0
M  V30 3226 H 303.519 -4.46465 -1.40663 0
M  V30 3227 H 303.692 -6.25173 -1.70477 0
M  V30 3228 N 297.098 0.621204 -1.44841 0
M  V30 3229 C 298.375 1.38 -1.38619 0
M  V30 3230 C 298.755 2.11041 -0.0498935 0
M  V30 3231 O 298.103 2.06992 0.967816 0
M  V30 3232 C 298.313 2.33817 -2.59096 0
M  V30 3233 C 299.661 2.96844 -3.03593 0
M  V30 3234 O 300.685 2.44141 -2.59371 0
M  V30 3235 O 299.544 3.92476 -3.80296 0
M  V30 3236 H 296.638 0.61811 -0.549426 0
M  V30 3237 H 299.184 0.645429 -1.56947 0
M  V30 3238 H 297.956 1.79012 -3.47952 0
M  V30 3239 H 297.579 3.14676 -2.43032 0
M  V30 3240 N 298.576 1.31904 0.862503 0
M  V30 3241 C 299.992 1.10724 1.14945 0
M  V30 3242 C 300.192 -0.117421 2.01158 0
M  V30 3243 O 299.248 -0.804595 2.39338 0
M  V30 3244 C 300.561 2.38267 1.83437 0
M  V30 3245 C 302.109 2.43949 1.96106 0
M  V30 3246 C 302.584 3.71394 2.68013 0
M  V30 3247 N 304.075 3.72331 2.75543 0
M  V30 3248 C 304.81 4.67641 3.31812 0
M  V30 3249 N 304.306 5.73313 3.88953 0
M  V30 3250 N 306.099 4.5515 3.29841 0
M  V30 3251 H 298.25 2.10436 0.288191 0
M  V30 3252 H 300.513 0.928705 0.190292 0
M  V30 3253 H 300.219 3.27759 1.27542 0
M  V30 3254 H 300.093 2.48633 2.83657 0
M  V30 3255 H 302.48 1.54922 2.51164 0
M  V30 3256 H 302.561 2.37543 0.949059 0
M  V30 3257 H 302.205 4.60791 2.13621 0
M  V30 3258 H 302.135 3.75069 3.69636 0
M  V30 3259 H 304.626 2.95947 2.34997 0
M  V30 3260 H 304.939 6.42107 4.30022 0
M  V30 3261 H 303.284 5.77077 3.87308 0
M  V30 3262 H 306.475 3.71766 2.84443 0
M  V30 3263 H 306.648 5.29604 3.73394 0
M  V30 3264 N 300.054 -1.07777 1.14986 0
M  V30 3265 C 300.984 -2.16865 0.865557 0
M  V30 3266 C 301.965 -1.69123 -0.182083 0
M  V30 3267 O 303.15 -1.94164 -0.0373815 0
M  V30 3268 C 300.28 -3.45539 0.349313 0
M  V30 3269 C 299.234 -4.06708 1.33313 0
M  V30 3270 C 298.56 -5.30411 0.675918 0
M  V30 3271 C 299.86 -4.47241 2.69764 0
M  V30 3272 H 301.554 -2.40905 1.77778 0
M  V30 3273 H 299.1 -1.15781 0.856203 0
M  V30 3274 H 301.053 -4.21174 0.137983 0
M  V30 3275 H 299.777 -3.21072 -0.598362 0
M  V30 3276 H 298.436 -3.33112 1.53075 0
M  V30 3277 H 298.084 -5.02232 -0.277767 0
M  V30 3278 H 297.784 -5.72293 1.33244 0
M  V30 3279 H 299.308 -6.08755 0.474262 0
M  V30 3280 H 300.722 -5.14025 2.53873 0
M  V30 3281 H 299.119 -5.00062 3.3175 0
M  V30 3282 H 300.189 -3.58818 3.26156 0
M  V30 3283 N 301.532 -0.945985 -1.26051 0
M  V30 3284 C 302.809 -0.513816 -1.88731 0
M  V30 3285 C 303.189 1.00872 -1.8544 0
M  V30 3286 O 302.537 1.8708 -1.312 0
M  V30 3287 C 302.747 -1.08062 -3.31849 0
M  V30 3288 C 304.095 -1.1522 -4.08668 0
M  V30 3289 O 305.119 -1.03155 -3.40936 0
M  V30 3290 O 303.978 -1.34044 -5.29806 0
M  V30 3291 H 301.072 -0.168193 -0.809716 0
M  V30 3292 H 303.618 -1.03886 -1.34186 0
M  V30 3293 H 302.39 -2.1241 -3.2863 0
M  V30 3294 H 302.013 -0.538307 -3.93939 0
M  V30 3295 N 303.011 1.40521 -0.713556 0
M  V30 3296 C 304.259 2.00527 -0.251692 0
M  V30 3297 C 304.58 1.56857 1.15848 0
M  V30 3298 O 303.85 0.807127 1.785 0
M  V30 3299 H 302.43 0.741551 -0.0900646 0
M  V30 3300 H 305.092 1.71887 -0.918733 0
M  V30 3301 H 304.188 3.10813 -0.283192 0
M  V30 3302 N 304.489 0.459591 1.5075 0
M  V30 3303 C 305.399 -0.34613 2.32033 0
M  V30 3304 C 306.415 -1.00686 1.41909 0
M  V30 3305 O 307.591 -0.997361 1.7497 0
M  V30 3306 C 304.656 -1.42029 3.16273 0
M  V30 3307 C 303.717 -0.777362 4.22203 0
M  V30 3308 C 302.95 -1.80034 5.02418 0
M  V30 3309 O 303.173 -3.02544 4.83553 0
M  V30 3310 O 302.107 -1.37853 5.85901 0
M  V30 3311 H 305.933 0.318054 3.0203 0
M  V30 3312 H 303.518 0.221663 1.47746 0
M  V30 3313 H 305.4 -2.04275 3.68578 0
M  V30 3314 H 304.075 -2.06815 2.49016 0
M  V30 3315 H 302.982 -0.116256 3.73919 0
M  V30 3316 H 304.315 -0.172634 4.91897 0
M  V30 3317 N 305.967 -1.56429 0.191757 0
M  V30 3318 C 307.215 -1.97095 -0.447006 0
M  V30 3319 C 307.536 -1.07967 -1.62383 0
M  V30 3320 O 306.806 -0.150248 -1.95323 0
M  V30 3321 H 305.386 -0.727832 -0.168135 0
M  V30 3322 H 308.048 -1.92911 0.27771 0
M  V30 3323 H 307.144 -3.01848 -0.793371 0
M  V30 3324 N 307.445 0.0818655 -1.57387 0
M  V30 3325 C 308.693 0.781368 -1.86384 0
M  V30 3326 C 309.014 1.78618 -0.782342 0
M  V30 3327 O 308.284 1.94976 0.190061 0
M  V30 3328 H 306.864 0.291562 -0.687751 0
M  V30 3329 H 309.526 0.060348 -1.94807 0
M  V30 3330 H 308.622 1.3038 -2.83562 0
M  V30 3331 N 308.923 1.53595 0.353017 0
M  V30 3332 C 310.148 1.7462 1.11904 0
M  V30 3333 C 310.573 0.479721 1.8188 0
M  V30 3334 O 309.931 -0.567066 1.72204 0
M  V30 3335 C 309.979 2.92029 2.11545 0
M  V30 3336 O 309.083 2.61516 3.18878 0
M  V30 3337 H 308.424 0.579531 0.324099 0
M  V30 3338 H 310.954 2.00525 0.406301 0
M  V30 3339 H 310.964 3.18551 2.5493 0
M  V30 3340 H 309.639 3.83888 1.60008 0
M  V30 3341 H 308.216 2.45852 2.80377 0
M  V30 3342 N 310.401 -0.613514 1.45168 0
M  V30 3343 C 311.817 -0.933629 1.29443 0
M  V30 3344 C 312.017 -2.00028 0.243101 0
M  V30 3345 O 311.073 -2.49848 -0.364992 0
M  V30 3346 C 312.386 -1.38018 2.67155 0
M  V30 3347 C 313.934 -1.49471 2.75004 0
M  V30 3348 C 314.409 -1.97503 4.13227 0
M  V30 3349 N 315.9 -2.04746 4.15491 0
M  V30 3350 C 316.635 -2.43121 5.19307 0
M  V30 3351 N 316.131 -2.80506 6.33473 0
M  V30 3352 N 317.924 -2.43408 5.06664 0
M  V30 3353 H 310.075 0.0916097 2.12202 0
M  V30 3354 H 312.338 -0.0216655 0.947752 0
M  V30 3355 H 312.044 -0.670625 3.45247 0
M  V30 3356 H 311.918 -2.34784 2.95222 0
M  V30 3357 H 314.305 -2.19519 1.9722 0
M  V30 3358 H 314.386 -0.510342 2.50657 0
M  V30 3359 H 314.03 -1.28045 4.91495 0
M  V30 3360 H 313.96 -2.96843 4.34962 0
M  V30 3361 H 316.451 -1.78468 3.33103 0
M  V30 3362 H 316.764 -3.08652 7.08487 0
M  V30 3363 H 315.109 -2.78216 6.36884 0
M  V30 3364 H 318.3 -2.13604 4.16523 0
M  V30 3365 H 318.473 -2.72989 5.87691 0
M  V30 3366 N 311.879 -1.3236 -0.855495 0
M  V30 3367 C 312.809 -1.23833 -1.97958 0
M  V30 3368 C 313.79 -0.122361 -1.69659 0
M  V30 3369 O 314.975 -0.30939 -1.9172 0
M  V30 3370 C 312.105 -0.959772 -3.33775 0
M  V30 3371 C 311.059 -2.03689 -3.76424 0
M  V30 3372 C 310.385 -1.61075 -5.09862 0
M  V30 3373 C 311.685 -3.4518 -3.9198 0
M  V30 3374 H 313.379 -2.1788 -2.0535 0
M  V30 3375 H 310.925 -1.04891 -0.986605 0
M  V30 3376 H 312.878 -0.886678 -4.11966 0
M  V30 3377 H 311.602 0.0163404 -3.26596 0
M  V30 3378 H 310.261 -2.10012 -3.00484 0
M  V30 3379 H 309.909 -0.622107 -4.99138 0
M  V30 3380 H 309.609 -2.33143 -5.39368 0
M  V30 3381 H 311.133 -1.55201 -5.90546 0
M  V30 3382 H 312.547 -3.4145 -4.60526 0
M  V30 3383 H 310.944 -4.1559 -4.32903 0
M  V30 3384 H 312.014 -3.84903 -2.94919 0
M  V30 3385 N 313.357 1.07166 -1.15556 0
M  V30 3386 C 314.582 1.84053 -0.955988 0
M  V30 3387 C 315.007 1.81586 0.490739 0
M  V30 3388 O 314.365 1.21018 1.34997 0
M  V30 3389 C 314.413 3.28957 -1.47714 0
M  V30 3390 O 313.517 4.06795 -0.677593 0
M  V30 3391 H 312.858 0.569842 -0.340847 0
M  V30 3392 H 315.388 1.35178 -1.53584 0
M  V30 3393 H 315.398 3.79788 -1.4908 0
M  V30 3394 H 314.073 3.30068 -2.53037 0
M  V30 3395 H 312.65 3.6561 -0.733721 0
M  V30 3396 N 314.835 0.952656 1.25548 0
M  V30 3397 C 316.246 0.647392 1.75116 0
M  V30 3398 C 316.597 -0.837274 1.77438 0
M  V30 3399 O 315.722 -1.65525 1.39393 0
M  V30 3400 C 316.317 1.16845 3.18014 0
M  V30 3401 C 314.876 0.913382 3.6515 0
M  V30 3402 C 314.023 1.31265 2.44264 0
M  V30 3403 H 316.974 1.12968 1.11462 0
M  V30 3404 H 316.995 0.527606 3.76824 0
M  V30 3405 H 316.507 2.24902 3.16292 0
M  V30 3406 H 314.608 -0.152316 3.72289 0
M  V30 3407 H 314.721 1.54845 4.53387 0
M  V30 3408 H 313.085 0.731028 2.43984 0
M  V30 3409 H 313.868 2.40239 2.45234 0
M  V30 3410 N 316.313 -1.40141 0.720998 0
M  V30 3411 C 317.543 -2.04798 0.27226 0
M  V30 3412 C 317.951 -1.54442 -1.09289 0
M  V30 3413 O 317.294 -0.698342 -1.69908 0
M  V30 3414 C 317.356 -3.59048 0.18027 0
M  V30 3415 C 317.02 -4.32317 1.48159 0
M  V30 3416 C 318.017 -4.59902 2.42458 0
M  V30 3417 C 315.702 -4.71125 1.74202 0
M  V30 3418 C 317.696 -5.25288 3.61042 0
M  V30 3419 C 315.383 -5.36242 2.93066 0
M  V30 3420 C 316.381 -5.63254 3.86308 0
M  V30 3421 O 316.069 -6.27024 5.03086 0
M  V30 3422 H 315.801 -0.665419 0.119139 0
M  V30 3423 H 318.355 -1.80436 0.981432 0
M  V30 3424 H 316.585 -3.82251 -0.58489 0
M  V30 3425 H 318.274 -4.05221 -0.234618 0
M  V30 3426 H 319.04 -4.30379 2.23604 0
M  V30 3427 H 314.919 -4.49466 1.02477 0
M  V30 3428 H 318.463 -5.46289 4.33837 0
M  V30 3429 H 314.36 -5.65185 3.11826 0
M  V30 3430 H 315.128 -6.4552 5.03235 0
M  V30 3431 N 317.792 -0.46758 -1.50504 0
M  V30 3432 C 319.039 0.0886219 -2.02306 0
M  V30 3433 C 319.367 1.40037 -1.34981 0
M  V30 3434 O 318.622 1.90136 -0.463318 0
M  V30 3435 C 318.921 0.323995 -3.55928 0
M  V30 3436 C 318.587 -0.905618 -4.41712 0
M  V30 3437 C 317.249 -1.24275 -4.64875 0
M  V30 3438 C 319.601 -1.72448 -4.91845 0
M  V30 3439 C 316.929 -2.39888 -5.35417 0
M  V30 3440 C 319.281 -2.87185 -5.63656 0
M  V30 3441 C 317.945 -3.21317 -5.85074 0
M  V30 3442 H 317.215 0.0324291 -0.74029 0
M  V30 3443 H 319.862 -0.620945 -1.81153 0
M  V30 3444 H 318.167 1.11577 -3.75577 0
M  V30 3445 H 319.864 0.76826 -3.93572 0
M  V30 3446 H 316.454 -0.632956 -4.239 0
M  V30 3447 H 320.638 -1.4772 -4.73806 0
M  V30 3448 H 315.894 -2.66611 -5.50208 0
M  V30 3449 H 320.068 -3.50985 -6.01484 0
M  V30 3450 H 317.695 -4.1101 -6.39511 0
M  V30 3451 N 319.27 1.56325 -0.20005 0
M  V30 3452 C 320.233 2.18084 0.705132 0
M  V30 3453 C 321.233 1.13666 1.1374 0
M  V30 3454 O 322.423 1.39023 1.04968 0
M  V30 3455 C 319.555 2.78689 1.96329 0
M  V30 3456 H 320.748 2.99435 0.167023 0
M  V30 3457 H 318.301 1.56221 0.0495725 0
M  V30 3458 H 319.036 2.0115 2.5438 0
M  V30 3459 H 318.821 3.55133 1.66202 0
M  V30 3460 H 320.311 3.26096 2.60866 0
M  V30 3461 N 320.748 -0.0735177 1.57428 0
M  V30 3462 C 321.678 -1.0879 2.06608 0
M  V30 3463 C 322.659 -1.40473 0.959237 0
M  V30 3464 O 323.844 -1.5013 1.23185 0
M  V30 3465 C 320.974 -2.40183 2.50857 0
M  V30 3466 C 319.928 -2.22858 3.65402 0
M  V30 3467 C 319.254 -3.59619 3.957 0
M  V30 3468 C 320.554 -1.65123 4.95511 0
M  V30 3469 H 322.248 -0.678673 2.91607 0
M  V30 3470 H 319.794 -0.325013 1.40284 0
M  V30 3471 H 321.747 -3.11437 2.83874 0
M  V30 3472 H 320.471 -2.83083 1.62885 0
M  V30 3473 H 319.13 -1.54045 3.32664 0
M  V30 3474 H 318.778 -4.00086 3.04861 0
M  V30 3475 H 318.478 -3.48866 4.72828 0
M  V30 3476 H 320.002 -4.32306 4.31212 0
M  V30 3477 H 321.416 -2.26241 5.26771 0
M  V30 3478 H 319.813 -1.65071 5.7695 0
M  V30 3479 H 320.883 -0.612559 4.81015 0
M  V30 3480 N 322.226 -1.5378 -0.344866 0
M  V30 3481 C 323.474 -1.70625 -1.08311 0
M  V30 3482 C 323.795 -0.471447 -1.89215 0
M  V30 3483 O 323.065 0.514616 -1.8902 0
M  V30 3484 H 321.645 -0.629058 -0.402859 0
M  V30 3485 H 324.307 -1.9103 -0.386459 0
M  V30 3486 H 323.403 -2.57656 -1.76124 0
M  V30 3487 N 323.704 0.605807 -1.45491 0
M  V30 3488 C 324.95 1.36679 -1.49823 0
M  V30 3489 C 325.283 1.93693 -0.140175 0
M  V30 3490 O 324.558 1.75158 0.845581 0
M  V30 3491 C 324.841 2.51337 -2.57879 0
M  V30 3492 C 324.694 1.99508 -4.03134 0
M  V30 3493 C 326.013 3.53463 -2.62205 0
M  V30 3494 H 323.132 0.495617 -0.545466 0
M  V30 3495 H 325.774 0.682732 -1.7731 0
M  V30 3496 H 323.924 3.09691 -2.34571 0
M  V30 3497 H 325.596 1.45789 -4.37656 0
M  V30 3498 H 323.839 1.30496 -4.13707 0
M  V30 3499 H 324.51 2.82169 -4.74431 0
M  V30 3500 H 326.986 3.04953 -2.83095 0
M  V30 3501 H 325.862 4.31178 -3.39672 0
M  V30 3502 H 326.123 4.09197 -1.67363 0
M  V30 3503 N 325.182 1.32811 0.848464 0
M  V30 3504 C 326.112 1.24882 1.97299 0
M  V30 3505 C 327.093 0.131357 1.69592 0
M  V30 3506 O 328.278 0.319553 1.91553 0
M  V30 3507 C 325.408 0.97746 3.33261 0
M  V30 3508 C 324.362 2.05682 3.75338 0
M  V30 3509 C 323.688 1.63777 5.09 0
M  V30 3510 C 324.988 3.47254 3.90144 0
M  V30 3511 H 326.682 2.18966 2.04191 0
M  V30 3512 H 324.228 1.05413 0.981029 0
M  V30 3513 H 326.181 0.908513 4.1149 0
M  V30 3514 H 324.905 0.000980011 3.266 0
M  V30 3515 H 323.564 2.11603 2.99366 0
M  V30 3516 H 323.212 0.648569 4.98801 0
M  V30 3517 H 322.912 2.36 5.38124 0
M  V30 3518 H 324.436 1.5833 5.89715 0
M  V30 3519 H 325.85 3.43888 4.58709 0
M  V30 3520 H 324.247 4.1788 4.30693 0
M  V30 3521 H 325.317 3.86462 2.92874 0
M  V30 3522 N 326.66 -1.06551 1.16123 0
M  V30 3523 C 327.885 -1.83544 0.965735 0
M  V30 3524 C 328.31 -1.81843 -0.481102 0
M  V30 3525 O 327.668 -1.21732 -1.34354 0
M  V30 3526 C 327.716 -3.28169 1.49457 0
M  V30 3527 O 326.82 -4.0643 0.699157 0
M  V30 3528 H 326.161 -0.568026 0.343864 0
M  V30 3529 H 328.691 -1.34362 1.54299 0
M  V30 3530 H 328.701 -3.78992 1.51092 0
M  V30 3531 H 327.376 -3.28722 2.54784 0
M  V30 3532 H 325.953 -3.65216 0.7531 0
M  V30 3533 N 328.138 -0.959301 -1.25041 0
M  V30 3534 C 329.549 -0.65667 -1.74771 0
M  V30 3535 C 329.9 0.827852 -1.77879 0
M  V30 3536 O 329.025 1.64783 -1.40269 0
M  V30 3537 C 329.62 -1.1853 -3.1739 0
M  V30 3538 C 328.179 -0.932734 -3.6466 0
M  V30 3539 C 327.326 -1.32558 -2.43564 0
M  V30 3540 H 330.277 -1.13558 -1.10862 0
M  V30 3541 H 330.298 -0.547582 -3.76539 0
M  V30 3542 H 329.81 -2.26576 -3.15095 0
M  V30 3543 H 327.911 0.13257 -3.72364 0
M  V30 3544 H 328.024 -1.57248 -4.52559 0
M  V30 3545 H 326.388 -0.743956 -2.43593 0
M  V30 3546 H 327.171 -2.41537 -2.43957 0
M  V30 3547 N 329.616 1.39756 -0.72842 0
M  V30 3548 C 331.032 1.5442 -0.403308 0
M  V30 3549 C 331.232 1.69694 1.08656 0
M  V30 3550 O 330.288 1.69373 1.87267 0
M  V30 3551 C 331.601 2.76555 -1.18058 0
M  V30 3552 C 333.149 2.90384 -1.16815 0
M  V30 3553 C 333.624 4.15449 -1.92785 0
M  V30 3554 N 335.115 4.22475 -1.89918 0
M  V30 3555 C 335.85 5.1818 -2.45514 0
M  V30 3556 N 335.346 6.19714 -3.09719 0
M  V30 3557 N 337.139 5.1035 -2.35584 0
M  V30 3558 H 329.29 1.28089 -1.69431 0
M  V30 3559 H 331.553 0.620327 -0.716867 0
M  V30 3560 H 331.259 2.7159 -2.23455 0
M  V30 3561 H 331.133 3.69033 -0.780662 0
M  V30 3562 H 333.52 2.94846 -0.12234 0
M  V30 3563 H 333.601 1.98988 -1.6074 0
M  V30 3564 H 333.245 4.11749 -2.97364 0
M  V30 3565 H 333.175 5.05877 -1.46272 0
M  V30 3566 H 335.666 3.49743 -1.43138 0
M  V30 3567 H 335.979 6.8919 -3.49625 0
M  V30 3568 H 334.324 6.20121 -3.13807 0
M  V30 3569 H 337.515 4.2996 -1.85072 0
M  V30 3570 H 337.688 5.84761 -2.79211 0
M  V30 3571 N 331.094 0.475555 1.50254 0
M  V30 3572 C 332.024 -0.30611 2.31485 0
M  V30 3573 C 333.005 -0.986228 1.38591 0
M  V30 3574 O 334.19 -0.982541 1.67511 0
M  V30 3575 C 331.32 -1.38588 3.1845 0
M  V30 3576 C 330.274 -0.827115 4.19932 0
M  V30 3577 C 329.6 -2.00551 4.95665 0
M  V30 3578 C 330.9 0.16463 5.2204 0
M  V30 3579 H 332.594 0.371866 2.97082 0
M  V30 3580 H 330.14 0.180282 1.42867 0
M  V30 3581 H 332.093 -1.94023 3.74076 0
M  V30 3582 H 330.817 -2.09269 2.50747 0
M  V30 3583 H 329.476 -0.294702 3.65414 0
M  V30 3584 H 329.124 -2.6994 4.2443 0
M  V30 3585 H 328.824 -1.63784 5.64313 0
M  V30 3586 H 330.348 -2.56468 5.54127 0
M  V30 3587 H 331.762 -0.300699 5.72511 0
M  V30 3588 H 330.159 0.446813 5.98434 0
M  V30 3589 H 331.229 1.08905 4.72512 0
M  V30 3590 N 332.573 -1.56217 0.208337 0
M  V30 3591 C 333.536 -2.18455 -0.693557 0
M  V30 3592 C 334.536 -1.14268 -1.13135 0
M  V30 3593 O 335.726 -1.39577 -1.0423 0
M  V30 3594 C 332.858 -2.79727 -1.94848 0
M  V30 3595 H 334.051 -2.99519 -0.15114 0
M  V30 3596 H 331.604 -1.56245 -0.041287 0
M  V30 3597 H 332.339 -2.02497 -2.53309 0
M  V30 3598 H 332.124 -3.56009 -1.64316 0
M  V30 3599 H 333.614 -3.27475 -2.59133 0
M  V30 3600 N 334.051 0.0651679 -1.57465 0
M  V30 3601 C 335.014 1.06117 -2.03155 0
M  V30 3602 C 336.014 1.31204 -0.929632 0
M  V30 3603 O 337.204 1.26813 -1.19432 0
M  V30 3604 C 334.336 2.4032 -2.41783 0
M  V30 3605 H 335.529 0.667231 -2.92383 0
M  V30 3606 H 333.082 0.311075 -1.53173 0
M  V30 3607 H 333.817 2.84532 -1.55601 0
M  V30 3608 H 333.602 2.23451 -3.22199 0
M  V30 3609 H 335.092 3.11898 -2.77685 0
M  V30 3610 N 335.529 1.53961 0.336706 0
M  V30 3611 C 336.775 1.7273 1.07406 0
M  V30 3612 C 337.13 0.488095 1.86106 0
M  V30 3613 O 336.423 -0.519379 1.84426 0
M  V30 3614 C 336.617 2.93493 2.03953 0
M  V30 3615 C 336.446 4.29039 1.34744 0
M  V30 3616 C 335.216 4.93416 1.08942 0
M  V30 3617 C 337.414 5.08501 0.770115 0
M  V30 3618 N 335.396 6.12821 0.363864 0
M  V30 3619 C 336.767 6.19752 0.175472 0
M  V30 3620 C 338.822 4.93349 0.671633 0
M  V30 3621 C 337.525 7.17503 -0.508081 0
M  V30 3622 C 339.551 5.914 0.0018076 0
M  V30 3623 C 338.913 7.01993 -0.581835 0
M  V30 3624 H 335.012 0.685026 0.377177 0
M  V30 3625 H 337.596 1.91403 0.356815 0
M  V30 3626 H 335.767 2.76308 2.72962 0
M  V30 3627 H 337.499 3.00949 2.70577 0
M  V30 3628 H 334.254 4.53099 1.37833 0
M  V30 3629 H 334.678 6.76998 0.0156092 0
M  V30 3630 H 339.32 4.08007 1.1086 0
M  V30 3631 H 337.038 8.02414 -0.956918 0
M  V30 3632 H 340.624 5.81753 -0.0738538 0
M  V30 3633 H 339.504 7.76561 -1.09192 0
M  V30 3634 N 337.007 -0.598083 1.45811 0
M  V30 3635 C 337.917 -1.73632 1.57763 0
M  V30 3636 C 338.933 -1.67763 0.461676 0
M  V30 3637 O 340.109 -1.87949 0.723685 0
M  V30 3638 C 337.174 -3.10114 1.55018 0
M  V30 3639 C 336.235 -3.27364 2.77726 0
M  V30 3640 C 335.468 -4.57334 2.75102 0
M  V30 3641 O 335.691 -5.40258 1.8297 0
M  V30 3642 O 334.625 -4.77502 3.66437 0
M  V30 3643 H 338.451 -1.66498 2.53992 0
M  V30 3644 H 336.036 -0.763308 1.28429 0
M  V30 3645 H 337.918 -3.9141 1.56129 0
M  V30 3646 H 336.593 -3.17718 0.619431 0
M  V30 3647 H 335.5 -2.45619 2.82174 0
M  V30 3648 H 336.833 -3.24641 3.69958 0
M  V30 3649 N 338.485 -1.33259 -0.841409 0
M  V30 3650 C 339.448 -1.23221 -1.9326 0
M  V30 3651 C 340.448 -0.151895 -1.60081 0
M  V30 3652 O 341.638 -0.403246 -1.69468 0
M  V30 3653 C 338.77 -0.898123 -3.28856 0
M  V30 3654 H 339.963 -2.2021 -2.03587 0
M  V30 3655 H 337.516 -1.17281 -1.03319 0
M  V30 3656 H 338.251 0.0693841 -3.24226 0
M  V30 3657 H 338.036 -1.67934 -3.54317 0
M  V30 3658 H 339.526 -0.852563 -4.08805 0
M  V30 3659 N 339.963 1.05934 -1.16686 0
M  V30 3660 C 340.873 2.17014 -0.891183 0
M  V30 3661 C 341.889 1.73453 0.137907 0
M  V30 3662 O 343.065 2.01361 -0.039592 0
M  V30 3663 C 340.13 3.44384 -0.400099 0
M  V30 3664 C 339.191 4.02433 -1.49486 0
M  V30 3665 C 338.424 5.23723 -1.02711 0
M  V30 3666 O 338.647 5.7027 0.121716 0
M  V30 3667 O 337.581 5.7382 -1.81699 0
M  V30 3668 H 341.407 2.43113 -1.82015 0
M  V30 3669 H 338.992 1.15541 -0.947132 0
M  V30 3670 H 340.874 4.21189 -0.133392 0
M  V30 3671 H 339.549 3.19802 0.500817 0
M  V30 3672 H 338.456 3.27102 -1.81535 0
M  V30 3673 H 339.789 4.31317 -2.37121 0
M  V30 3674 N 341.441 0.965919 1.2453 0
M  V30 3675 C 342.857 0.67216 1.44756 0
M  V30 3676 C 343.057 -0.766609 1.86347 0
M  V30 3677 O 342.113 -1.5407 2.00047 0
M  V30 3678 C 343.426 1.65473 2.51076 0
M  V30 3679 C 344.974 1.66716 2.64905 0
M  V30 3680 C 345.449 2.63766 3.74421 0
M  V30 3681 N 346.94 2.62198 3.81846 0
M  V30 3682 C 347.675 3.33966 4.66106 0
M  V30 3683 N 347.171 4.15245 5.54566 0
M  V30 3684 N 348.964 3.22799 4.60171 0
M  V30 3685 H 341.115 1.89553 0.958293 0
M  V30 3686 H 343.378 0.815979 0.482579 0
M  V30 3687 H 343.084 2.68296 2.27399 0
M  V30 3688 H 342.958 1.4261 3.49202 0
M  V30 3689 H 345.345 0.646057 2.87941 0
M  V30 3690 H 345.426 1.93642 1.67142 0
M  V30 3691 H 345.07 3.6601 3.52135 0
M  V30 3692 H 345 2.34121 4.71694 0
M  V30 3693 H 347.491 2.032 3.18619 0
M  V30 3694 H 347.804 4.66898 6.15814 0
M  V30 3695 H 346.149 4.1934 5.54237 0
M  V30 3696 H 349.34 2.58764 3.90075 0
M  V30 3697 H 349.513 3.78994 5.25612 0
M  V30 3698 N 342.919 -1.39368 0.735821 0
M  V30 3699 C 344.335 -1.54204 0.411492 0
M  V30 3700 C 344.535 -1.70268 -1.07755 0
M  V30 3701 O 343.591 -1.70364 -1.86366 0
M  V30 3702 C 344.904 -2.75925 1.19523 0
M  V30 3703 C 346.452 -2.89761 1.18354 0
M  V30 3704 C 346.927 -4.14421 1.94986 0
M  V30 3705 N 348.418 -4.21462 1.92156 0
M  V30 3706 C 349.153 -5.16871 2.48258 0
M  V30 3707 N 348.649 -6.18063 3.13001 0
M  V30 3708 N 350.442 -5.09093 2.38287 0
M  V30 3709 H 342.593 -1.27189 1.70108 0
M  V30 3710 H 344.856 -0.616517 0.720147 0
M  V30 3711 H 344.562 -2.70401 2.24892 0
M  V30 3712 H 344.436 -3.68614 0.800222 0
M  V30 3713 H 346.823 -2.94777 0.137975 0
M  V30 3714 H 346.904 -1.98133 1.61793 0
M  V30 3715 H 346.548 -4.10166 2.99543 0
M  V30 3716 H 346.478 -5.05095 1.48953 0
M  V30 3717 H 348.969 -3.48979 1.44991 0
M  V30 3718 H 349.282 -6.87326 3.53275 0
M  V30 3719 H 347.627 -6.18448 3.17091 0
M  V30 3720 H 350.818 -4.28973 1.8735 0
M  V30 3721 H 350.991 -5.83272 2.82308 0
M  V30 3722 N 344.397 -0.483516 -1.5 0
M  V30 3723 C 345.645 0.067027 -2.01989 0
M  V30 3724 C 345.966 1.3909 -1.36671 0
M  V30 3725 O 345.236 1.88978 -0.516152 0
M  V30 3726 H 343.816 0.0277606 -0.746484 0
M  V30 3727 H 346.478 -0.636773 -1.84204 0
M  V30 3728 H 345.574 0.209484 -3.11396 0
M  V30 3729 N 345.875 1.56104 -0.216619 0
M  V30 3730 C 347.123 1.97781 0.415593 0
M  V30 3731 C 347.444 1.10536 1.60645 0
M  V30 3732 O 346.714 0.181303 1.95059 0
M  V30 3733 H 345.294 0.730415 0.156534 0
M  V30 3734 H 347.956 1.92445 -0.308366 0
M  V30 3735 H 347.052 3.03072 0.74525 0
M  V30 3736 N 347.353 -0.0568162 1.57498 0
M  V30 3737 C 348.263 -1.08346 2.08083 0
M  V30 3738 C 349.279 -1.41439 1.01346 0
M  V30 3739 O 350.455 -1.51316 1.32912 0
M  V30 3740 C 347.52 -2.37352 2.52715 0
M  V30 3741 C 346.581 -2.11093 3.73816 0
M  V30 3742 C 345.814 -3.33949 4.1631 0
M  V30 3743 O 346.037 -4.43622 3.58547 0
M  V30 3744 O 344.971 -3.21279 5.08983 0
M  V30 3745 H 348.797 -0.683667 2.95905 0
M  V30 3746 H 346.382 -0.271965 1.46904 0
M  V30 3747 H 348.264 -3.13246 2.81877 0
M  V30 3748 H 346.939 -2.76681 1.68016 0
M  V30 3749 H 345.846 -1.32856 3.49714 0
M  V30 3750 H 347.179 -1.76637 4.59413 0
M  V30 3751 N 348.832 -1.54138 -0.328536 0
M  V30 3752 C 350.08 -1.71765 -1.06496 0
M  V30 3753 C 350.401 -0.49149 -1.88704 0
M  V30 3754 O 349.671 0.494539 -1.89555 0
M  V30 3755 H 348.251 -0.633295 -0.396164 0
M  V30 3756 H 350.913 -1.91429 -0.366176 0
M  V30 3757 H 350.009 -2.5951 -1.73381 0
M  V30 3758 N 350.31 0.590341 -1.46126 0
M  V30 3759 C 351.273 1.68194 -1.55703 0
M  V30 3760 C 352.273 1.54808 -0.434868 0
M  V30 3761 O 353.463 1.59564 -0.698928 0
M  V30 3762 C 350.595 3.07575 -1.47005 0
M  V30 3763 H 351.788 1.61064 -2.52979 0
M  V30 3764 H 349.341 0.807541 -1.33823 0
M  V30 3765 H 350.076 3.20268 -0.509785 0
M  V30 3766 H 349.861 3.187 -2.28414 0
M  V30 3767 H 351.351 3.87055 -1.56776 0
M  V30 3768 N 351.788 1.33704 0.83433 0
M  V30 3769 C 353.204 1.13137 1.12571 0
M  V30 3770 C 353.404 -0.0747261 2.01361 0
M  V30 3771 O 352.46 -0.753647 2.4099 0
M  V30 3772 C 353.773 2.42105 1.78342 0
M  V30 3773 C 355.321 2.48054 1.90888 0
M  V30 3774 C 355.796 3.76995 2.60075 0
M  V30 3775 N 357.287 3.78092 2.67584 0
M  V30 3776 C 358.022 4.74574 3.21818 0
M  V30 3777 N 357.518 5.81434 3.76705 0
M  V30 3778 N 359.311 4.62044 3.20112 0
M  V30 3779 H 351.462 2.11 0.243489 0
M  V30 3780 H 353.725 0.932532 0.17055 0
M  V30 3781 H 353.431 3.30391 1.20561 0
M  V30 3782 H 353.305 2.54594 2.7832 0
M  V30 3783 H 355.692 1.60215 2.47821 0
M  V30 3784 H 355.773 2.39502 0.898459 0
M  V30 3785 H 355.417 4.65219 2.03799 0
M  V30 3786 H 355.347 3.82825 3.61597 0
M  V30 3787 H 357.838 3.00865 2.28667 0
M  V30 3788 H 358.151 6.51084 4.16305 0
M  V30 3789 H 356.496 5.85163 3.7498 0
M  V30 3790 H 359.687 3.77716 2.76493 0
M  V30 3791 H 359.86 5.37406 3.62076 0
M  V30 3792 N 353.266 -1.05314 1.17247 0
M  V30 3793 C 354.213 -2.13031 0.888058 0
M  V30 3794 C 355.183 -1.65253 -0.167537 0
M  V30 3795 O 356.368 -1.90775 -0.0305974 0
M  V30 3796 C 353.508 -3.42702 0.406147 0
M  V30 3797 C 352.621 -4.04161 1.52572 0
M  V30 3798 C 351.756 -5.21744 0.997808 0
M  V30 3799 C 350.795 -5.75207 2.09291 0
M  V30 3800 N 349.932 -6.84094 1.57986 0
M  V30 3801 H 354.772 -2.36698 1.81048 0
M  V30 3802 H 352.309 -1.16121 0.903013 0
M  V30 3803 H 354.267 -4.17059 0.108305 0
M  V30 3804 H 352.897 -3.19222 -0.479313 0
M  V30 3805 H 351.949 -3.27253 1.93931 0
M  V30 3806 H 353.261 -4.39881 2.35172 0
M  V30 3807 H 352.415 -6.03168 0.653739 0
M  V30 3808 H 351.154 -4.87495 0.141232 0
M  V30 3809 H 350.159 -4.92414 2.44557 0
M  V30 3810 H 351.384 -6.11505 2.95362 0
M  V30 3811 H 349.33 -6.51745 0.74598 0
M  V30 3812 H 349.247 -7.18811 2.34195 0
M  V30 3813 H 350.515 -7.69172 1.26468 0
M  V30 3814 N 354.744 -0.972509 -1.24016 0
M  V30 3815 C 355.99 -0.647583 -1.92816 0
M  V30 3816 C 356.345 0.809015 -1.74564 0
M  V30 3817 O 355.638 1.57502 -1.09103 0
M  V30 3818 C 355.832 -0.963694 -3.44162 0
M  V30 3819 C 355.661 -2.44947 -3.77135 0
M  V30 3820 C 354.431 -3.11012 -3.98246 0
M  V30 3821 C 356.629 -3.42978 -3.83237 0
M  V30 3822 N 354.611 -4.49277 -4.18358 0
M  V30 3823 C 355.982 -4.66619 -4.08248 0
M  V30 3824 C 358.037 -3.37569 -3.65994 0
M  V30 3825 C 356.74 -5.85516 -4.17808 0
M  V30 3826 C 358.766 -4.55822 -3.76802 0
M  V30 3827 C 358.128 -5.78256 -4.02243 0
M  V30 3828 H 354.227 -0.287894 -0.727077 0
M  V30 3829 H 356.811 -1.24835 -1.49413 0
M  V30 3830 H 354.982 -0.391692 -3.8642 0
M  V30 3831 H 356.714 -0.596849 -4.00275 0
M  V30 3832 H 353.469 -2.61529 -3.94841 0
M  V30 3833 H 353.893 -5.20935 -4.32384 0
M  V30 3834 H 358.535 -2.43945 -3.45327 0
M  V30 3835 H 356.253 -6.79564 -4.37285 0
M  V30 3836 H 359.839 -4.53204 -3.64825 0
M  V30 3837 H 358.719 -6.68231 -4.10411 0
M  V30 3838 N 356.222 1.38976 -0.743202 0
M  V30 3839 C 357.468 2.0064 -0.295189 0
M  V30 3840 C 357.801 1.5885 1.11716 0
M  V30 3841 O 357.076 0.821181 1.76315 0
M  V30 3842 C 357.359 3.578 -0.406318 0
M  V30 3843 C 357.212 4.09586 -1.85903 0
M  V30 3844 C 358.531 4.39616 0.206439 0
M  V30 3845 H 355.65 0.728935 -0.108733 0
M  V30 3846 H 358.292 1.65067 -0.940897 0
M  V30 3847 H 356.442 3.88235 0.143419 0
M  V30 3848 H 358.114 3.89837 -2.46627 0
M  V30 3849 H 356.357 3.6284 -2.3776 0
M  V30 3850 H 357.028 5.18708 -1.888 0
M  V30 3851 H 359.504 4.15273 -0.262283 0
M  V30 3852 H 358.38 5.48812 0.0983819 0
M  V30 3853 H 358.641 4.22754 1.2935 0
M  V30 3854 N 357.7 0.491464 1.49741 0
M  V30 3855 C 358.663 -0.280906 2.27472 0
M  V30 3856 C 359.663 -0.902454 1.33088 0
M  V30 3857 O 360.853 -0.768465 1.56334 0
M  V30 3858 C 357.985 -1.40209 3.10732 0
M  V30 3859 H 359.178 0.401056 2.97206 0
M  V30 3860 H 356.731 0.246131 1.5435 0
M  V30 3861 H 357.466 -2.11849 2.45541 0
M  V30 3862 H 357.251 -0.961969 3.80117 0
M  V30 3863 H 358.741 -1.9464 3.69466 0
M  V30 3864 N 359.178 -1.55987 0.224894 0
M  V30 3865 C 360.088 -2.24066 -0.69511 0
M  V30 3866 C 361.104 -1.24939 -1.21104 0
M  V30 3867 O 362.28 -1.5776 -1.25195 0
M  V30 3868 C 359.345 -2.90983 -1.88493 0
M  V30 3869 C 358.406 -4.05462 -1.41064 0
M  V30 3870 C 357.639 -4.69179 -2.54375 0
M  V30 3871 O 357.862 -4.31895 -3.72589 0
M  V30 3872 O 356.796 -5.58108 -2.25386 0
M  V30 3873 H 360.622 -3.03353 -0.145149 0
M  V30 3874 H 358.207 -1.49399 -0.00569476 0
M  V30 3875 H 360.089 -3.33209 -2.57972 0
M  V30 3876 H 358.764 -2.14653 -2.42293 0
M  V30 3877 H 357.671 -3.67798 -0.683774 0
M  V30 3878 H 359.004 -4.83545 -0.918985 0
M  V30 3879 N 360.656 0.0484629 -1.57525 0
M  V30 3880 C 361.586 1.0549 -2.08313 0
M  V30 3881 C 362.567 1.38929 -0.981463 0
M  V30 3882 O 363.752 1.48151 -1.25558 0
M  V30 3883 C 360.882 2.36162 -2.54646 0
M  V30 3884 C 359.836 2.17016 -3.68901 0
M  V30 3885 C 359.162 3.53278 -4.01371 0
M  V30 3886 C 360.462 1.57219 -4.98076 0
M  V30 3887 H 362.156 0.632195 -2.92649 0
M  V30 3888 H 359.702 0.302654 -1.40784 0
M  V30 3889 H 361.655 3.06882 -2.88793 0
M  V30 3890 H 360.379 2.80456 -1.67368 0
M  V30 3891 H 359.038 1.48733 -3.35073 0
M  V30 3892 H 358.686 3.95185 -3.11188 0
M  V30 3893 H 358.386 3.41299 -4.78318 0
M  V30 3894 H 359.91 4.25391 -4.38035 0
M  V30 3895 H 361.324 2.17832 -5.30304 0
M  V30 3896 H 359.721 1.55871 -5.79503 0
M  V30 3897 H 360.791 0.535956 -4.81929 0
M  V30 3898 N 362.134 1.5431 0.320358 0
M  V30 3899 C 363.064 1.86912 1.3995 0
M  V30 3900 C 364.045 0.726211 1.53819 0
M  V30 3901 O 365.23 0.980233 1.67646 0
M  V30 3902 C 362.36 2.09932 2.7667 0
M  V30 3903 C 361.314 3.25776 2.77586 0
M  V30 3904 C 360.64 3.34173 4.17412 0
M  V30 3905 C 361.94 4.6335 2.41048 0
M  V30 3906 H 363.634 2.77292 1.12914 0
M  V30 3907 H 361.18 1.33421 0.541738 0
M  V30 3908 H 363.133 2.31324 3.52232 0
M  V30 3909 H 361.857 1.16304 3.0519 0
M  V30 3910 H 360.516 3.04276 2.04479 0
M  V30 3911 H 360.164 2.38098 4.43078 0
M  V30 3912 H 359.864 4.12033 4.18931 0
M  V30 3913 H 361.388 3.57803 4.94782 0
M  V30 3914 H 362.802 4.84602 3.06324 0
M  V30 3915 H 361.199 5.43782 2.53813 0
M  V30 3916 H 362.269 4.65381 1.36193 0
M  V30 3917 N 363.613 -0.582584 1.46437 0
M  V30 3918 C 364.859 -1.34064 1.52965 0
M  V30 3919 C 365.214 -1.91566 0.178968 0
M  V30 3920 O 364.507 -1.73526 -0.812365 0
M  V30 3921 C 364.701 -2.48964 2.56421 0
M  V30 3922 C 364.53 -2.02717 4.01417 0
M  V30 3923 C 363.3 -1.87728 4.69134 0
M  V30 3924 C 365.498 -1.58675 4.8921 0
M  V30 3925 N 363.48 -1.35554 5.98747 0
M  V30 3926 C 364.851 -1.18093 6.08649 0
M  V30 3927 C 366.906 -1.46494 4.75861 0
M  V30 3928 C 365.609 -0.665427 7.16215 0
M  V30 3929 C 367.635 -0.96347 5.83499 0
M  V30 3930 C 366.997 -0.567432 7.02111 0
M  V30 3931 H 363.096 -0.483551 0.614575 0
M  V30 3932 H 365.68 -0.663309 1.83053 0
M  V30 3933 H 363.851 -3.1426 2.28244 0
M  V30 3934 H 365.583 -3.15913 2.52944 0
M  V30 3935 H 362.338 -2.09678 4.24655 0
M  V30 3936 H 362.762 -1.11628 6.67734 0
M  V30 3937 H 367.404 -1.75731 3.8455 0
M  V30 3938 H 365.122 -0.360639 8.07295 0
M  V30 3939 H 368.708 -0.873129 5.75211 0
M  V30 3940 H 367.588 -0.185389 7.83981 0
M  V30 3941 N 365.091 -1.34144 -0.827227 0
M  V30 3942 C 366.507 -1.13732 -1.11969 0
M  V30 3943 C 366.707 0.0640463 -2.01398 0
M  V30 3944 O 365.763 0.740856 -2.41387 0
M  V30 3945 C 367.076 -2.43047 -1.77055 0
M  V30 3946 C 368.624 -2.49063 -1.89569 0
M  V30 3947 C 369.099 -3.78369 -2.58072 0
M  V30 3948 N 370.59 -3.79505 -2.65575 0
M  V30 3949 C 371.325 -4.76274 -3.19297 0
M  V30 3950 N 370.821 -5.83424 -3.73616 0
M  V30 3951 N 372.614 -4.63735 -3.17658 0
M  V30 3952 H 364.765 -2.11126 -0.232296 0
M  V30 3953 H 367.028 -0.933424 -0.165602 0
M  V30 3954 H 366.734 -3.31025 -1.18807 0
M  V30 3955 H 366.608 -2.56066 -2.76966 0
M  V30 3956 H 368.995 -1.61527 -2.46968 0
M  V30 3957 H 369.076 -2.39975 -0.885745 0
M  V30 3958 H 368.72 -4.66293 -2.01329 0
M  V30 3959 H 368.65 -3.84737 -3.59562 0
M  V30 3960 H 371.141 -3.02074 -2.27068 0
M  V30 3961 H 371.454 -6.53282 -4.12846 0
M  V30 3962 H 369.799 -5.87143 -3.71871 0
M  V30 3963 H 372.99 -3.79177 -2.74486 0
M  V30 3964 H 373.163 -5.39318 -3.59221 0
M  V30 3965 N 366.569 1.04691 -1.17803 0
M  V30 3966 C 367.846 1.7472 -0.879328 0
M  V30 3967 C 368.226 2.01812 0.619271 0
M  V30 3968 O 367.574 1.65824 1.57209 0
M  V30 3969 C 367.784 3.03686 -1.71976 0
M  V30 3970 C 369.132 3.77542 -1.94286 0
M  V30 3971 O 370.156 3.13569 -1.68976 0
M  V30 3972 O 369.015 4.92506 -2.36855 0
M  V30 3973 H 366.109 0.760011 -0.326056 0
M  V30 3974 H 368.655 1.10813 -1.28525 0
M  V30 3975 H 367.427 2.79754 -2.73594 0
M  V30 3976 H 367.05 3.75332 -1.31194 0
M  V30 3977 N 368.047 0.979072 1.23499 0
M  V30 3978 C 369.294 0.647219 1.91878 0
M  V30 3979 C 369.622 -0.819074 1.76413 0
M  V30 3980 O 368.877 -1.60616 1.11808 0
M  V30 3981 C 369.176 0.981932 3.43646 0
M  V30 3982 C 368.842 2.43822 3.79291 0
M  V30 3983 C 367.504 2.83622 3.88731 0
M  V30 3984 C 369.856 3.3828 3.96505 0
M  V30 3985 C 367.184 4.16897 4.12812 0
M  V30 3986 C 369.536 4.71197 4.22085 0
M  V30 3987 C 368.2 5.10758 4.29747 0
M  V30 3988 H 367.47 0.236834 0.702133 0
M  V30 3989 H 370.117 1.23268 1.46551 0
M  V30 3990 H 368.422 0.314365 3.90537 0
M  V30 3991 H 370.119 0.703395 3.94783 0
M  V30 3992 H 366.709 2.11966 3.72516 0
M  V30 3993 H 370.893 3.0871 3.88603 0
M  V30 3994 H 366.149 4.47157 4.16966 0
M  V30 3995 H 370.323 5.44348 4.34348 0
M  V30 3996 H 367.95 6.1405 4.48159 0
M  V30 3997 N 369.525 -1.3858 0.750561 0
M  V30 3998 C 370.75 -2.04997 0.314812 0
M  V30 3999 C 371.175 -1.56235 -1.04749 0
M  V30 4000 O 370.533 -0.712981 -1.66692 0
M  V30 4001 C 370.581 -3.58961 0.343415 0
M  V30 4002 O 369.685 -4.07025 -0.663628 0
M  V30 4003 H 369.026 -0.649081 0.139962 0
M  V30 4004 H 371.556 -1.77313 1.02084 0
M  V30 4005 H 371.566 -4.07542 0.193233 0
M  V30 4006 H 370.241 -3.93811 1.33738 0
M  V30 4007 H 368.818 -3.6982 -0.478307 0
M  V30 4008 N 371.003 -0.499398 -1.49478 0
M  V30 4009 C 372.233 0.0424839 -2.06556 0
M  V30 4010 C 372.641 1.31514 -1.36018 0
M  V30 4011 O 371.984 1.78555 -0.431718 0
M  V30 4012 C 372.046 0.368074 -3.57611 0
M  V30 4013 C 371.71 -0.806631 -4.49825 0
M  V30 4014 C 372.707 -1.69667 -4.91436 0
M  V30 4015 C 370.392 -1.00498 -4.92144 0
M  V30 4016 C 372.386 -2.76923 -5.74101 0
M  V30 4017 C 370.073 -2.08072 -5.74586 0
M  V30 4018 C 371.071 -2.96119 -6.15469 0
M  V30 4019 O 370.759 -4.01836 -6.96264 0
M  V30 4020 H 370.491 -0.0165165 -0.675798 0
M  V30 4021 H 373.045 -0.695497 -1.93267 0
M  V30 4022 H 371.275 1.15963 -3.68903 0
M  V30 4023 H 372.964 0.848381 -3.96935 0
M  V30 4024 H 373.73 -1.55524 -4.59388 0
M  V30 4025 H 369.609 -0.329036 -4.59824 0
M  V30 4026 H 373.153 -3.45676 -6.05932 0
M  V30 4027 H 369.05 -2.22211 -6.06047 0
M  V30 4028 H 369.818 -3.9917 -7.14567 0
M  V30 4029 N 372.481 1.55866 -0.233164 0
M  V30 4030 C 373.431 2.17442 0.685774 0
M  V30 4031 C 374.415 1.12617 1.14918 0
M  V30 4032 O 375.607 1.3857 1.10124 0
M  V30 4033 C 372.736 2.86685 1.88856 0
M  V30 4034 C 371.822 3.98749 1.4443 0
M  V30 4035 N 372.213 5.00744 0.713364 0
M  V30 4036 C 370.511 4.11052 1.73068 0
M  V30 4037 C 371.212 5.79673 0.485205 0
M  V30 4038 N 370.188 5.33454 1.04536 0
M  V30 4039 H 373.99 2.93659 0.119022 0
M  V30 4040 H 371.504 1.62362 -0.0348995 0
M  V30 4041 H 373.501 3.29218 2.55776 0
M  V30 4042 H 372.161 2.11967 2.45967 0
M  V30 4043 H 373.172 5.16613 0.364861 0
M  V30 4044 H 369.849 3.47495 2.31416 0
M  V30 4045 H 371.239 6.71829 -0.097365 0
M  V30 4046 N 373.959 -0.0401083 1.57549 0
M  V30 4047 C 374.889 -1.04384 2.08869 0
M  V30 4048 C 375.87 -1.38407 0.988817 0
M  V30 4049 O 377.055 -1.47483 1.26342 0
M  V30 4050 C 374.185 -2.34808 2.55895 0
M  V30 4051 C 373.139 -2.15057 3.70047 0
M  V30 4052 C 372.465 -3.51145 4.03239 0
M  V30 4053 C 373.765 -1.54576 4.98902 0
M  V30 4054 H 375.459 -0.616666 2.92981 0
M  V30 4055 H 373.005 -0.295184 1.40942 0
M  V30 4056 H 374.958 -3.05346 2.90417 0
M  V30 4057 H 373.682 -2.79565 1.68853 0
M  V30 4058 H 372.341 -1.46954 3.35857 0
M  V30 4059 H 371.989 -3.93529 3.13279 0
M  V30 4060 H 371.689 -3.38758 4.80122 0
M  V30 4061 H 373.213 -4.23062 4.40285 0
M  V30 4062 H 374.627 -2.15017 5.31451 0
M  V30 4063 H 373.024 -1.52796 5.80322 0
M  V30 4064 H 374.094 -0.51039 4.82206 0
M  V30 4065 N 375.437 -1.54477 -0.31217 0
M  V30 4066 C 376.367 -1.87652 -1.38957 0
M  V30 4067 C 377.348 -0.734358 -1.53431 0
M  V30 4068 O 378.533 -0.98911 -1.67123 0
M  V30 4069 C 375.663 -2.11396 -2.75552 0
M  V30 4070 C 374.617 -3.27243 -2.75855 0
M  V30 4071 C 373.943 -3.36382 -4.15633 0
M  V30 4072 C 375.243 -4.64622 -2.38587 0
M  V30 4073 H 376.937 -2.77887 -1.11442 0
M  V30 4074 H 374.483 -1.33707 -0.534655 0
M  V30 4075 H 376.436 -2.33189 -3.51 0
M  V30 4076 H 375.16 -1.17921 -3.04569 0
M  V30 4077 H 373.819 -3.05356 -2.02863 0
M  V30 4078 H 373.467 -2.40445 -4.41809 0
M  V30 4079 H 373.167 -4.14249 -4.1674 0
M  V30 4080 H 374.691 -3.60422 -4.92877 0
M  V30 4081 H 376.105 -4.86219 -3.03749 0
M  V30 4082 H 374.502 -5.45121 -2.50925 0
M  V30 4083 H 375.572 -4.66097 -1.33723 0
M  V30 4084 N 376.915 0.57481 -1.46744 0
M  V30 4085 C 378.145 1.35659 -1.55821 0
M  V30 4086 C 378.553 1.88129 -0.201036 0
M  V30 4087 O 377.896 1.64723 0.813134 0
M  V30 4088 C 377.958 2.57473 -2.50894 0
M  V30 4089 C 377.622 2.26415 -3.9697 0
M  V30 4090 C 378.619 1.84771 -4.85958 0
M  V30 4091 C 376.304 2.38316 -4.42166 0
M  V30 4092 C 378.298 1.55434 -6.18158 0
M  V30 4093 C 375.985 2.08591 -5.74398 0
M  V30 4094 C 376.983 1.67216 -6.62214 0
M  V30 4095 O 376.671 1.37859 -7.91991 0
M  V30 4096 H 376.403 0.420496 -0.529301 0
M  V30 4097 H 378.957 0.704967 -1.92923 0
M  V30 4098 H 377.187 3.25468 -2.08824 0
M  V30 4099 H 378.876 3.19546 -2.50291 0
M  V30 4100 H 379.642 1.75085 -4.52295 0
M  V30 4101 H 375.521 2.69483 -3.74032 0
M  V30 4102 H 379.065 1.23065 -6.86659 0
M  V30 4103 H 374.962 2.17905 -6.07608 0
M  V30 4104 H 375.73 1.51638 -8.04331 0
M  V30 4105 N 378.394 1.34581 0.820102 0
M  V30 4106 C 379.344 1.22943 1.92013 0
M  V30 4107 C 380.328 0.127802 1.60392 0
M  V30 4108 O 381.52 0.357737 1.73347 0
M  V30 4109 C 378.649 0.989938 3.28717 0
M  V30 4110 C 377.735 2.13486 3.66449 0
M  V30 4111 N 378.126 3.38625 3.75722 0
M  V30 4112 C 376.424 2.04573 3.96315 0
M  V30 4113 C 377.125 4.13832 4.08801 0
M  V30 4114 N 376.101 3.42451 4.22171 0
M  V30 4115 H 379.903 2.17771 1.97365 0
M  V30 4116 H 377.417 1.2686 1.01392 0
M  V30 4117 H 379.414 0.887462 4.07345 0
M  V30 4118 H 378.074 0.0503691 3.24661 0
M  V30 4119 H 379.085 3.73143 3.59144 0
M  V30 4120 H 375.762 1.1839 4.00362 0
M  V30 4121 H 377.152 5.21909 4.23156 0
M  V30 4122 N 379.872 -1.04064 1.18357 0
M  V30 4123 C 381.119 -1.77265 0.978947 0
M  V30 4124 C 381.447 -1.88189 -0.491428 0
M  V30 4125 O 380.702 -1.38653 -1.38108 0
M  V30 4126 C 381.001 -3.20634 1.57888 0
M  V30 4127 C 380.667 -3.29743 3.07539 0
M  V30 4128 C 379.329 -3.31937 3.48384 0
M  V30 4129 C 381.681 -3.29841 4.03552 0
M  V30 4130 C 379.009 -3.3187 4.83818 0
M  V30 4131 C 381.361 -3.31313 5.38901 0
M  V30 4132 C 380.025 -3.31799 5.79194 0
M  V30 4133 H 379.295 -0.648659 0.358222 0
M  V30 4134 H 381.942 -1.22225 1.47422 0
M  V30 4135 H 380.247 -3.78675 1.00561 0
M  V30 4136 H 381.944 -3.75917 1.39598 0
M  V30 4137 H 378.534 -3.28757 2.74986 0
M  V30 4138 H 382.718 -3.27337 3.73047 0
M  V30 4139 H 377.974 -3.30562 5.14333 0
M  V30 4140 H 382.148 -3.30338 6.13066 0
M  V30 4141 H 379.775 -3.315 6.84114 0
M  V30 4142 N 381.35 -0.985608 -1.22978 0
M  V30 4143 C 382.761 -0.693593 -1.73338 0
M  V30 4144 C 383.112 0.789935 -1.79595 0
M  V30 4145 O 382.237 1.61771 -1.43733 0
M  V30 4146 C 382.832 -1.25235 -3.14804 0
M  V30 4147 C 381.391 -1.00987 -3.626 0
M  V30 4148 C 380.538 -1.37695 -2.40698 0
M  V30 4149 H 383.489 -1.15884 -1.08428 0
M  V30 4150 H 383.51 -0.627329 -3.75293 0
M  V30 4151 H 383.022 -2.33209 -3.10218 0
M  V30 4152 H 381.123 0.0535565 -3.72562 0
M  V30 4153 H 381.236 -1.66812 -4.49122 0
M  V30 4154 H 379.6 -0.795459 -2.4196 0
M  V30 4155 H 380.383 -2.46657 -2.38779 0
M  V30 4156 N 382.828 1.3818 -0.7579 0
M  V30 4157 C 384.074 2.0078 -0.325423 0
M  V30 4158 C 384.429 1.59085 1.08211 0
M  V30 4159 O 383.722 0.820394 1.73148 0
M  V30 4160 C 383.916 3.55252 -0.391218 0
M  V30 4161 C 383.745 4.11947 -1.8036 0
M  V30 4162 C 382.515 4.43519 -2.42113 0
M  V30 4163 C 384.713 4.33908 -2.76095 0
M  V30 4164 N 382.695 4.85847 -3.75267 0
M  V30 4165 C 384.066 4.78692 -3.94023 0
M  V30 4166 C 386.121 4.16015 -2.73561 0
M  V30 4167 C 384.824 5.07459 -5.09782 0
M  V30 4168 C 386.85 4.45909 -3.88483 0
M  V30 4169 C 386.212 4.90921 -5.0515 0
M  V30 4170 H 382.311 0.764215 -0.165831 0
M  V30 4171 H 384.895 1.67724 -0.988776 0
M  V30 4172 H 383.066 3.87646 0.241886 0
M  V30 4173 H 384.798 4.04653 0.061989 0
M  V30 4174 H 381.553 4.32113 -1.93842 0
M  V30 4175 H 381.977 5.11339 -4.4369 0
M  V30 4176 H 386.619 3.80399 -1.84544 0
M  V30 4177 H 384.337 5.4197 -5.99412 0
M  V30 4178 H 387.923 4.33666 -3.87847 0
M  V30 4179 H 386.803 5.1361 -5.92599 0
M  V30 4180 N 384.306 0.507319 1.49211 0
M  V30 4181 C 385.239 -0.314509 2.26022 0
M  V30 4182 C 386.217 -0.964849 1.30879 0
M  V30 4183 O 387.401 -0.993707 1.6018 0
M  V30 4184 C 384.528 -1.44346 3.06402 0
M  V30 4185 C 383.574 -0.90685 4.16748 0
M  V30 4186 S 384.407 0.207392 5.35098 0
M  V30 4187 C 385.563 -0.924573 6.19033 0
M  V30 4188 H 385.796 0.337416 2.95379 0
M  V30 4189 H 383.329 0.292718 1.516 0
M  V30 4190 H 385.287 -2.09029 3.53295 0
M  V30 4191 H 383.948 -2.06702 2.36502 0
M  V30 4192 H 383.141 -1.75309 4.72528 0
M  V30 4193 H 382.743 -0.33712 3.72478 0
M  V30 4194 H 385.035 -1.82839 6.52362 0
M  V30 4195 H 385.978 -0.405248 7.06939 0
M  V30 4196 H 386.386 -1.19476 5.51712 0
M  V30 4197 N 385.784 -1.5574 0.241426 0
M  V30 4198 C 386.747 -2.19877 -0.647063 0
M  V30 4199 C 387.747 -1.16642 -1.10686 0
M  V30 4200 O 388.937 -1.41757 -1.01245 0
M  V30 4201 C 386.069 -2.83797 -1.88871 0
M  V30 4202 H 387.262 -2.99772 -0.087574 0
M  V30 4203 H 384.815 -1.56298 -0.00813574 0
M  V30 4204 H 385.55 -2.07824 -2.48957 0
M  V30 4205 H 385.335 -3.59414 -1.56728 0
M  V30 4206 H 386.825 -3.32898 -2.52129 0
M  V30 4207 N 387.262 0.0317525 -1.57568 0
M  V30 4208 C 388.172 1.05021 -2.0978 0
M  V30 4209 C 389.188 1.39809 -1.03583 0
M  V30 4210 O 390.364 1.49182 -1.35302 0
M  V30 4211 C 387.429 2.33301 -2.56459 0
M  V30 4212 C 386.49 2.0512 -3.77127 0
M  V30 4213 C 385.723 3.27283 -4.2157 0
M  V30 4214 O 385.946 4.37861 -3.65559 0
M  V30 4215 O 384.88 3.13141 -5.14029 0
M  V30 4216 H 388.706 0.636505 -2.96955 0
M  V30 4217 H 386.291 0.248559 -1.47318 0
M  V30 4218 H 388.173 3.08722 -2.86825 0
M  V30 4219 H 386.848 2.73973 -1.72397 0
M  V30 4220 H 385.755 1.27276 -3.51784 0
M  V30 4221 H 387.088 1.69305 -4.62165 0
M  V30 4222 N 388.74 1.54641 0.303973 0
M  V30 4223 C 390.156 1.45788 0.649463 0
M  V30 4224 C 390.356 0.64666 1.90842 0
M  V30 4225 O 389.412 0.153183 2.52035 0
M  V30 4226 C 390.725 2.89718 0.805227 0
M  V30 4227 C 392.273 2.99742 0.901305 0
M  V30 4228 C 392.748 4.44863 1.08909 0
M  V30 4229 N 394.239 4.48559 1.15536 0
M  V30 4230 C 394.974 5.58026 1.3189 0
M  V30 4231 N 394.47 6.77422 1.45161 0
M  V30 4232 N 396.263 5.45708 1.34755 0
M  V30 4233 H 388.414 2.05854 -0.523237 0
M  V30 4234 H 390.677 0.932186 -0.172431 0
M  V30 4235 H 390.383 3.51666 -0.0489108 0
M  V30 4236 H 390.257 3.36964 1.69513 0
M  V30 4237 H 392.644 2.3791 1.74593 0
M  V30 4238 H 392.725 2.55797 -0.0125531 0
M  V30 4239 H 392.369 5.07288 0.249241 0
M  V30 4240 H 392.299 4.86436 2.01713 0
M  V30 4241 H 394.79 3.6254 1.06646 0
M  V30 4242 H 395.103 7.56604 1.57387 0
M  V30 4243 H 393.448 6.80292 1.42223 0
M  V30 4244 H 396.639 4.51378 1.23996 0
M  V30 4245 H 396.812 6.3107 1.47157 0
M  V30 4246 N 390.218 -0.567019 1.47046 0
M  V30 4247 C 391.629 -1.14916 1.47143 0
M  V30 4248 C 391.98 -1.94954 0.220767 0
M  V30 4249 O 391.105 -2.05602 -0.67505 0
M  V30 4250 C 391.7 -2.09069 2.666 0
M  V30 4251 C 390.259 -2.62575 2.69687 0
M  V30 4252 C 389.406 -1.38755 2.40088 0
M  V30 4253 H 392.357 -0.354126 1.54699 0
M  V30 4254 H 392.378 -2.92789 2.43011 0
M  V30 4255 H 391.89 -1.50789 3.57609 0
M  V30 4256 H 389.991 -3.24681 1.82792 0
M  V30 4257 H 390.104 -3.04239 3.70102 0
M  V30 4258 H 388.468 -1.69098 1.90468 0
M  V30 4259 H 389.251 -0.822822 3.33293 0
M  V30 4260 N 391.696 -1.35014 -0.812953 0
M  V30 4261 C 392.626 -1.30069 -1.93919 0
M  V30 4262 C 393.607 -0.176275 -1.69184 0
M  V30 4263 O 394.792 -0.370227 -1.90638 0
M  V30 4264 C 391.922 -1.06547 -3.30552 0
M  V30 4265 C 390.876 -2.15561 -3.69753 0
M  V30 4266 C 390.202 -1.77214 -5.04479 0
M  V30 4267 C 391.502 -3.57476 -3.808 0
M  V30 4268 H 393.196 -2.24303 -1.98314 0
M  V30 4269 H 390.742 -1.07977 -0.952736 0
M  V30 4270 H 392.695 -1.01729 -4.08937 0
M  V30 4271 H 391.419 -0.0875719 -3.26483 0
M  V30 4272 H 390.078 -2.19466 -2.9365 0
M  V30 4273 H 389.726 -0.780589 -4.96906 0
M  V30 4274 H 389.426 -2.50184 -5.31678 0
M  V30 4275 H 390.95 -1.7391 -5.8531 0
M  V30 4276 H 392.364 -3.55929 -4.4943 0
M  V30 4277 H 390.761 -4.29152 -4.19462 0
M  V30 4278 H 391.831 -3.94091 -2.82525 0
M  V30 4279 N 393.175 1.03435 -1.18907 0
M  V30 4280 C 394.452 1.73778 -0.89781 0
M  V30 4281 C 394.832 2.02458 0.597832 0
M  V30 4282 O 394.18 1.67482 1.55441 0
M  V30 4283 C 394.39 3.01845 -1.75187 0
M  V30 4284 C 395.738 3.7546 -1.9828 0
M  V30 4285 O 396.762 3.11759 -1.72293 0
M  V30 4286 O 395.621 4.89966 -2.42065 0
M  V30 4287 H 392.715 0.75651 -0.334098 0
M  V30 4288 H 395.261 1.09444 -1.29693 0
M  V30 4289 H 394.033 2.76836 -2.76545 0
M  V30 4290 H 393.656 3.73919 -1.35167 0
M  V30 4291 N 394.653 0.992116 1.22453 0
M  V30 4292 C 396.064 0.702776 1.72968 0
M  V30 4293 C 396.415 -0.780399 1.80012 0
M  V30 4294 O 395.54 -1.61007 1.44589 0
M  V30 4295 C 396.135 1.26903 3.14135 0
M  V30 4296 C 394.694 1.02909 3.62059 0
M  V30 4297 C 393.841 1.38969 2.39964 0
M  V30 4298 H 396.792 1.16457 1.07812 0
M  V30 4299 H 396.813 0.647223 3.74955 0
M  V30 4300 H 396.325 2.34851 3.08977 0
M  V30 4301 H 394.426 -0.0337979 3.72585 0
M  V30 4302 H 394.539 1.69191 4.48231 0
M  V30 4303 H 392.903 0.808279 2.41535 0
M  V30 4304 H 393.686 2.4792 2.37467 0
M  V30 4305 N 396.131 -1.37776 0.765217 0
M  V30 4306 C 397.547 -1.53297 0.444108 0
M  V30 4307 C 397.747 -1.72515 -1.04119 0
M  V30 4308 O 396.803 -1.74278 -1.82711 0
M  V30 4309 C 398.116 -2.73328 1.25349 0
M  V30 4310 C 399.664 -2.87185 1.24473 0
M  V30 4311 C 400.139 -4.10191 2.03733 0
M  V30 4312 N 401.63 -4.17291 2.01053 0
M  V30 4313 C 402.365 -5.11488 2.59166 0
M  V30 4314 N 401.861 -6.11285 3.26041 0
M  V30 4315 N 403.654 -5.03924 2.49032 0
M  V30 4316 H 395.805 -1.23552 1.72768 0
M  V30 4317 H 398.068 -0.601103 0.733062 0
M  V30 4318 H 397.774 -2.6557 2.30577 0
M  V30 4319 H 397.648 -3.66834 0.87823 0
M  V30 4320 H 400.035 -2.94418 0.20047 0
M  V30 4321 H 400.116 -1.94657 1.65959 0
M  V30 4322 H 399.76 -4.0372 3.08176 0
M  V30 4323 H 399.69 -5.01821 1.59633 0
M  V30 4324 H 402.181 -3.45825 1.5236 0
M  V30 4325 H 402.494 -6.79678 3.67774 0
M  V30 4326 H 400.839 -6.11583 3.30138 0
M  V30 4327 H 404.03 -4.24902 1.96407 0
M  V30 4328 H 404.203 -5.77152 2.94617 0
M  V30 4329 N 397.609 -0.515225 -1.4894 0
M  V30 4330 C 398.856 0.024215 -2.02486 0
M  V30 4331 C 399.184 1.35671 -1.39368 0
M  V30 4332 O 398.439 1.88566 -0.523574 0
M  V30 4333 C 398.738 0.210595 -3.56779 0
M  V30 4334 C 398.404 -1.04569 -4.38607 0
M  V30 4335 C 397.066 -1.39002 -4.60686 0
M  V30 4336 C 399.418 -1.88008 -4.86109 0
M  V30 4337 C 396.746 -2.568 -5.27514 0
M  V30 4338 C 399.098 -3.04972 -5.54234 0
M  V30 4339 C 397.762 -3.39768 -5.74555 0
M  V30 4340 H 397.032 0.00886088 -0.740947 0
M  V30 4341 H 399.679 -0.678263 -1.79086 0
M  V30 4342 H 397.984 0.99572 -3.78936 0
M  V30 4343 H 399.681 0.642659 -3.95817 0
M  V30 4344 H 396.271 -0.767497 -4.21672 0
M  V30 4345 H 400.455 -1.62719 -4.68867 0
M  V30 4346 H 395.711 -2.8398 -5.41447 0
M  V30 4347 H 399.885 -3.69943 -5.90013 0
M  V30 4348 H 397.512 -4.31148 -6.26112 0
M  V30 4349 N 399.087 1.5561 -0.249682 0
M  V30 4350 C 400.019 2.18834 0.681496 0
M  V30 4351 C 401.032 1.16546 1.1367 0
M  V30 4352 O 402.221 1.43397 1.06299 0
M  V30 4353 C 399.321 2.77992 1.9384 0
M  V30 4354 C 398.494 4.05725 1.63419 0
M  V30 4355 C 397.553 4.49174 2.74096 0
M  V30 4356 O 396.579 5.15492 2.41364 0
M  V30 4357 N 397.781 4.17191 4.03649 0
M  V30 4358 H 400.546 2.9937 0.140514 0
M  V30 4359 H 398.107 1.6175 -0.0697541 0
M  V30 4360 H 400.099 3.04015 2.67127 0
M  V30 4361 H 398.669 2.01596 2.38909 0
M  V30 4362 H 397.889 3.87261 0.736358 0
M  V30 4363 H 399.177 4.88999 1.40562 0
M  V30 4364 H 398.575 3.63955 4.33074 0
M  V30 4365 H 397.132 4.48043 4.73393 0
M  V30 4366 N 400.565 -0.0233959 1.57583 0
M  V30 4367 C 401.528 -1.00693 2.05897 0
M  V30 4368 C 402.528 -1.28693 0.964092 0
M  V30 4369 O 403.718 -1.23602 1.22753 0
M  V30 4370 C 400.85 -2.33825 2.4807 0
M  V30 4371 H 402.043 -0.589476 2.9405 0
M  V30 4372 H 399.596 -0.270354 1.53944 0
M  V30 4373 H 400.331 -2.80307 1.6309 0
M  V30 4374 H 400.116 -2.1483 3.2801 0
M  V30 4375 H 401.606 -3.04426 2.85857 0
M  V30 4376 N 402.043 -1.548 -0.295768 0
M  V30 4377 C 403.29 -1.74329 -1.03032 0
M  V30 4378 C 403.618 -0.531915 -1.87085 0
M  V30 4379 O 402.873 0.486052 -1.89568 0
M  V30 4380 C 403.172 -2.98797 -1.961 0
M  V30 4381 C 402.838 -4.32356 -1.2798 0
M  V30 4382 C 401.5 -4.68661 -1.09135 0
M  V30 4383 C 403.852 -5.15128 -0.793243 0
M  V30 4384 C 401.18 -5.85312 -0.403269 0
M  V30 4385 C 403.532 -6.32488 -0.118854 0
M  V30 4386 C 402.196 -6.6745 0.0815043 0
M  V30 4387 H 401.466 -0.637916 -0.37702 0
M  V30 4388 H 404.113 -1.8906 -0.304696 0
M  V30 4389 H 402.418 -2.78869 -2.75207 0
M  V30 4390 H 404.115 -3.11102 -2.53015 0
M  V30 4391 H 400.705 -4.03808 -1.43655 0
M  V30 4392 H 404.889 -4.87575 -0.92653 0
M  V30 4393 H 400.145 -6.1094 -0.237098 0
M  V30 4394 H 404.319 -6.95892 0.266035 0
M  V30 4395 H 401.946 -7.57695 0.616685 0
M  V30 4396 N 403.521 0.559213 -1.47345 0
M  V30 4397 C 404.932 1.14134 -1.47751 0
M  V30 4398 C 405.283 1.94834 -0.231103 0
M  V30 4399 O 404.408 2.05957 0.664137 0
M  V30 4400 C 405.003 2.07653 -2.67705 0
M  V30 4401 C 403.562 2.61141 -2.71076 0
M  V30 4402 C 402.709 1.3748 -2.40821 0
M  V30 4403 H 405.66 0.345917 -1.54884 0
M  V30 4404 H 405.681 2.91497 -2.44561 0
M  V30 4405 H 405.193 1.4889 -3.58404 0
M  V30 4406 H 403.294 3.23707 -1.84511 0
M  V30 4407 H 403.407 3.02272 -3.7171 0
M  V30 4408 H 401.771 1.68086 -1.91362 0
M  V30 4409 H 402.554 0.805135 -3.33725 0
M  V30 4410 N 404.999 1.35443 0.805782 0
M  V30 4411 C 406.245 1.2996 1.56467 0
M  V30 4412 C 406.6 -0.124742 1.91995 0
M  V30 4413 O 405.893 -1.07533 1.58579 0
M  V30 4414 C 406.087 2.14045 2.86216 0
M  V30 4415 C 405.916 3.64512 2.63365 0
M  V30 4416 C 404.686 4.33744 2.59219 0
M  V30 4417 C 406.884 4.58142 2.33688 0
M  V30 4418 N 404.866 5.69953 2.28094 0
M  V30 4419 C 406.237 5.8248 2.12408 0
M  V30 4420 C 408.292 4.46877 2.19558 0
M  V30 4421 C 406.995 6.96818 1.78429 0
M  V30 4422 C 409.021 5.61065 1.86976 0
M  V30 4423 C 408.383 6.84431 1.66532 0
M  V30 4424 H 404.482 0.530817 0.574245 0
M  V30 4425 H 407.066 1.70333 0.943126 0
M  V30 4426 H 405.237 1.75942 3.46264 0
M  V30 4427 H 406.969 2.00075 3.51784 0
M  V30 4428 H 403.724 3.86365 2.73896 0
M  V30 4429 H 404.148 6.41845 2.15323 0
M  V30 4430 H 408.79 3.52102 2.34061 0
M  V30 4431 H 406.508 7.91559 1.62664 0
M  V30 4432 H 410.094 5.54302 1.7675 0
M  V30 4433 H 408.974 7.71294 1.41688 0
M  V30 4434 N 406.477 -1.02803 1.19454 0
M  V30 4435 C 407.409 -2.11181 0.890807 0
M  V30 4436 C 408.422 -1.6238 -0.116829 0
M  V30 4437 O 409.611 -1.78144 0.112694 0
M  V30 4438 C 406.711 -3.37461 0.311942 0
M  V30 4439 C 405.884 -4.15446 1.36834 0
M  V30 4440 C 404.943 -5.20039 0.802864 0
M  V30 4441 O 403.969 -5.49602 1.48077 0
M  V30 4442 N 405.171 -5.79165 -0.393417 0
M  V30 4443 H 407.936 -2.37827 1.82369 0
M  V30 4444 H 405.497 -1.19101 1.09666 0
M  V30 4445 H 407.489 -4.0462 -0.0802225 0
M  V30 4446 H 406.059 -3.08156 -0.52524 0
M  V30 4447 H 405.279 -3.43423 1.93531 0
M  V30 4448 H 406.567 -4.64335 2.08015 0
M  V30 4449 H 405.965 -5.57466 -0.961658 0
M  V30 4450 H 404.522 -6.47729 -0.727351 0
M  V30 4451 N 407.956 -0.998596 -1.21925 0
M  V30 4452 C 408.866 -0.562736 -2.27751 0
M  V30 4453 C 409.882 0.391203 -1.69545 0
M  V30 4454 O 411.058 0.256625 -1.99758 0
M  V30 4455 C 408.123 0.11012 -3.46525 0
M  V30 4456 C 407.184 -0.887495 -4.20026 0
M  V30 4457 C 406.417 -0.246654 -5.3313 0
M  V30 4458 O 406.64 0.958088 -5.62296 0
M  V30 4459 O 405.574 -0.954374 -5.94286 0
M  V30 4460 H 409.4 -1.44329 -2.67213 0
M  V30 4461 H 406.985 -0.767135 -1.28201 0
M  V30 4462 H 408.867 0.486756 -4.18579 0
M  V30 4463 H 407.542 0.965154 -3.08976 0
M  V30 4464 H 406.449 -1.31517 -3.5022 0
M  V30 4465 H 407.782 -1.71191 -4.6147 0
M  V30 4466 N 409.434 1.37368 -0.772513 0
M  V30 4467 C 410.711 1.93839 -0.26188 0
M  V30 4468 C 411.091 1.7061 1.24319 0
M  V30 4469 O 410.439 1.05534 2.02669 0
M  V30 4470 C 410.649 3.43154 -0.636102 0
M  V30 4471 C 411.997 4.20249 -0.606324 0
M  V30 4472 O 413.021 3.5152 -0.575538 0
M  V30 4473 O 411.88 5.42809 -0.634086 0
M  V30 4474 H 408.974 0.82478 -0.0605555 0
M  V30 4475 H 411.52 1.4665 -0.853917 0
M  V30 4476 H 410.292 3.53647 -1.6748 0
M  V30 4477 H 409.915 3.97596 -0.0170516 0
M  V30 4478 N 410.912 0.523116 1.48665 0
M  V30 4479 C 411.822 -0.247406 2.33292 0
M  V30 4480 C 412.838 -0.945769 1.46052 0
M  V30 4481 O 414.014 -0.922253 1.79043 0
M  V30 4482 C 411.079 -1.28487 3.22012 0
M  V30 4483 C 410.14 -0.597592 4.2512 0
M  V30 4484 C 409.373 -1.58563 5.09601 0
M  V30 4485 O 409.596 -2.81763 4.95949 0
M  V30 4486 O 408.53 -1.12879 5.91221 0
M  V30 4487 H 412.356 0.445869 3.00409 0
M  V30 4488 H 409.941 0.284128 1.46673 0
M  V30 4489 H 411.823 -1.88459 3.7691 0
M  V30 4490 H 410.498 -1.96068 2.57564 0
M  V30 4491 H 409.405 0.0424407 3.74076 0
M  V30 4492 H 410.738 0.0361517 4.92187 0
M  V30 4493 N 412.39 -1.55475 0.257931 0
M  V30 4494 C 413.353 -2.20551 -0.623706 0
M  V30 4495 C 414.353 -1.17809 -1.09443 0
M  V30 4496 O 415.543 -1.42823 -0.997362 0
M  V30 4497 C 412.675 -2.85784 -1.8585 0
M  V30 4498 H 413.868 -2.99848 -0.0557743 0
M  V30 4499 H 411.421 -1.56298 0.0084422 0
M  V30 4500 H 412.156 -2.10453 -2.46739 0
M  V30 4501 H 411.941 -3.61057 -1.52907 0
M  V30 4502 H 413.431 -3.35553 -2.48584 0
M  V30 4503 N 413.868 0.0150385 -1.57593 0
M  V30 4504 C 414.798 1.01047 -2.10503 0
M  V30 4505 C 415.779 1.36816 -1.01071 0
M  V30 4506 O 416.964 1.45455 -1.28672 0
M  V30 4507 C 414.094 2.30708 -2.59598 0
M  V30 4508 C 413.048 2.09142 -3.73421 0
M  V30 4509 C 412.374 3.44685 -4.08774 0
M  V30 4510 C 413.674 1.46619 -5.01298 0
M  V30 4511 H 415.368 0.569978 -2.93925 0
M  V30 4512 H 412.914 0.272724 -1.41394 0
M  V30 4513 H 414.867 3.00687 -2.95238 0
M  V30 4514 H 413.591 2.76843 -1.73279 0
M  V30 4515 H 412.25 1.41592 -3.38153 0
M  V30 4516 H 411.898 3.88495 -3.195 0
M  V30 4517 H 411.598 3.31077 -4.8545 0
M  V30 4518 H 413.122 4.16004 -4.4696 0
M  V30 4519 H 414.536 2.06535 -5.34805 0
M  V30 4520 H 412.933 1.43544 -5.82679 0
M  V30 4521 H 414.003 0.433611 -4.82957 0
M  V30 4522 N 415.346 1.54954 0.287554 0
M  V30 4523 C 416.593 1.74873 1.02106 0
M  V30 4524 C 416.921 0.541829 1.86801 0
M  V30 4525 O 416.176 -0.475992 1.89823 0
M  V30 4526 C 416.475 2.99833 1.94512 0
M  V30 4527 C 416.141 4.33029 1.25686 0
M  V30 4528 C 414.803 4.69233 1.06649 0
M  V30 4529 C 417.155 5.15542 0.765913 0
M  V30 4530 C 414.483 5.85518 0.372222 0
M  V30 4531 C 416.835 6.32542 0.0853101 0
M  V30 4532 C 415.499 6.67398 -0.1169 0
M  V30 4533 H 414.769 0.639906 0.373632 0
M  V30 4534 H 417.416 1.89219 0.294665 0
M  V30 4535 H 415.721 2.80325 2.73725 0
M  V30 4536 H 417.418 3.1244 2.51361 0
M  V30 4537 H 414.008 4.04564 1.41512 0
M  V30 4538 H 418.192 4.88059 0.90066 0
M  V30 4539 H 413.448 6.11057 0.204695 0
M  V30 4540 H 417.622 6.95741 -0.302936 0
M  V30 4541 H 415.249 7.57357 -0.656859 0
M  V30 4542 N 416.824 -0.551391 1.4764 0
M  V30 4543 C 417.756 -1.67333 1.56628 0
M  V30 4544 C 418.769 -1.56398 0.452045 0
M  V30 4545 O 419.958 -1.6325 0.721926 0
M  V30 4546 C 417.058 -3.05841 1.45994 0
M  V30 4547 C 416.231 -3.42472 2.72088 0
M  V30 4548 C 415.29 -4.60168 2.55209 0
M  V30 4549 O 414.316 -4.64458 3.2904 0
M  V30 4550 N 415.518 -5.57024 1.63416 0
M  V30 4551 H 418.283 -1.60066 2.53375 0
M  V30 4552 H 415.844 -0.738169 1.44093 0
M  V30 4553 H 417.836 -3.8242 1.32428 0
M  V30 4554 H 416.406 -3.07302 0.573071 0
M  V30 4555 H 415.626 -2.55284 3.00373 0
M  V30 4556 H 416.914 -3.63723 3.55785 0
M  V30 4557 H 416.312 -5.56319 1.02594 0
M  V30 4558 H 414.869 -6.32906 1.558 0
M  V30 4559 N 418.302 -1.35869 -0.798587 0
M  V30 4560 C 419.265 -1.29307 -1.89242 0
M  V30 4561 C 420.265 -0.202747 -1.59517 0
M  V30 4562 O 421.455 -0.456957 -1.681 0
M  V30 4563 C 418.587 -1.00229 -3.25833 0
M  V30 4564 H 419.78 -2.26576 -1.96478 0
M  V30 4565 H 417.333 -1.20509 -0.995358 0
M  V30 4566 H 418.068 -0.033801 -3.24282 0
M  V30 4567 H 417.853 -1.79121 -3.48795 0
M  V30 4568 H 419.343 -0.98219 -4.05885 0
M  V30 4569 N 419.78 1.02168 -1.19998 0
M  V30 4570 C 421.026 1.7606 -1.01855 0
M  V30 4571 C 421.381 1.87178 0.445222 0
M  V30 4572 O 420.674 1.3828 1.32624 0
M  V30 4573 C 420.868 3.18081 -1.62969 0
M  V30 4574 C 420.697 3.20809 -3.15137 0
M  V30 4575 C 419.467 3.28342 -3.84083 0
M  V30 4576 C 421.665 3.07268 -4.1242 0
M  V30 4577 N 419.647 3.2052 -5.23584 0
M  V30 4578 C 421.018 3.0716 -5.38566 0
M  V30 4579 C 423.073 2.91448 -4.03686 0
M  V30 4580 C 421.776 2.92853 -6.56985 0
M  V30 4581 C 423.802 2.78494 -5.21723 0
M  V30 4582 C 423.164 2.79046 -6.46771 0
M  V30 4583 H 419.263 0.655192 -0.426905 0
M  V30 4584 H 421.847 1.21564 -1.52087 0
M  V30 4585 H 420.018 3.70882 -1.15329 0
M  V30 4586 H 421.75 3.80375 -1.38192 0
M  V30 4587 H 418.505 3.34859 -3.34913 0
M  V30 4588 H 418.929 3.19997 -5.96599 0
M  V30 4589 H 423.571 2.89838 -3.07821 0
M  V30 4590 H 421.289 2.93213 -7.53028 0
M  V30 4591 H 424.875 2.67278 -5.16773 0
M  V30 4592 H 423.755 2.69134 -7.36571 0
M  V30 4593 N 421.258 1.00505 1.21394 0
M  V30 4594 C 422.488 0.705584 1.94178 0
M  V30 4595 C 422.896 -0.735846 1.74304 0
M  V30 4596 O 422.239 -1.50954 1.04683 0
M  V30 4597 C 422.301 0.94689 3.46806 0
M  V30 4598 C 421.965 2.37517 3.90429 0
M  V30 4599 C 422.962 3.35539 3.97127 0
M  V30 4600 C 420.647 2.71284 4.22742 0
M  V30 4601 C 422.641 4.65395 4.3553 0
M  V30 4602 C 420.328 4.01356 4.60822 0
M  V30 4603 C 421.326 4.98223 4.67186 0
M  V30 4604 O 421.014 6.25969 5.04399 0
M  V30 4605 H 420.746 0.259216 0.624326 0
M  V30 4606 H 423.3 1.34592 1.55159 0
M  V30 4607 H 421.53 0.249386 3.85895 0
M  V30 4608 H 423.219 0.640804 4.0081 0
M  V30 4609 H 423.985 3.10786 3.7234 0
M  V30 4610 H 419.864 1.96581 4.16985 0
M  V30 4611 H 423.408 5.41002 4.40412 0
M  V30 4612 H 419.305 4.25893 4.85063 0
M  V30 4613 H 420.073 6.30085 5.22431 0
M  V30 4614 N 422.737 -1.36956 0.779787 0
M  V30 4615 C 423.647 -2.33965 0.172491 0
M  V30 4616 C 424.663 -1.60574 -0.670222 0
M  V30 4617 O 425.839 -1.92617 -0.588263 0
M  V30 4618 C 422.904 -3.39761 -0.690173 0
M  V30 4619 C 421.965 -4.28964 0.169924 0
M  V30 4620 C 421.198 -5.29707 -0.651662 0
M  V30 4621 O 421.421 -5.38238 -1.88827 0
M  V30 4622 O 420.355 -6.01873 -0.0566264 0
M  V30 4623 H 424.181 -2.87647 0.974321 0
M  V30 4624 H 421.766 -1.39258 0.541078 0
M  V30 4625 H 423.648 -4.04471 -1.1824 0
M  V30 4626 H 422.323 -2.88394 -1.47006 0
M  V30 4627 H 421.23 -3.67326 0.708696 0
M  V30 4628 H 422.563 -4.83656 0.913085 0
M  V30 4629 N 424.215 -0.530993 -1.48385 0
M  V30 4630 C 425.463 0.00273189 -2.021 0
M  V30 4631 C 425.784 1.34672 -1.41027 0
M  V30 4632 O 425.054 1.8724 -0.576012 0
M  V30 4633 H 423.634 0.00399774 -0.746989 0
M  V30 4634 H 426.296 -0.695054 -1.82085 0
M  V30 4635 H 425.392 0.11031 -3.11905 0
M  V30 4636 N 425.693 1.55336 -0.266172 0
M  V30 4637 C 426.64 2.22172 0.625165 0
M  V30 4638 C 427.61 1.19211 1.15663 0
M  V30 4639 O 428.795 1.47723 1.20758 0
M  V30 4640 C 425.935 2.93972 1.8076 0
M  V30 4641 C 425.048 4.11632 1.31084 0
M  V30 4642 C 424.183 4.71099 2.45436 0
M  V30 4643 C 423.222 5.8097 1.92718 0
M  V30 4644 N 422.359 6.34538 3.00509 0
M  V30 4645 H 427.199 2.9796 0.0485582 0
M  V30 4646 H 424.736 1.47095 0.0122024 0
M  V30 4647 H 426.694 3.33811 2.50251 0
M  V30 4648 H 425.324 2.20623 2.35638 0
M  V30 4649 H 424.376 3.76975 0.509326 0
M  V30 4650 H 425.688 4.90893 0.884633 0
M  V30 4651 H 424.842 5.13612 3.22936 0
M  V30 4652 H 423.581 3.91096 2.91368 0
M  V30 4653 H 422.586 5.37916 1.13695 0
M  V30 4654 H 423.811 6.62836 1.47733 0
M  V30 4655 H 421.757 5.57433 3.45839 0
M  V30 4656 H 421.674 7.09046 2.62279 0
M  V30 4657 H 422.942 6.81709 3.78011 0
M  V30 4658 N 427.171 -0.0066808 1.57599 0
M  V30 4659 C 428.399 -0.704087 1.94551 0
M  V30 4660 C 428.814 -1.67677 0.867746 0
M  V30 4661 O 428.171 -1.8185 -0.153925 0
M  V30 4662 C 428.222 -1.44177 3.31505 0
M  V30 4663 O 427.943 -0.508097 4.35144 0
M  V30 4664 C 429.444 -2.23429 3.82876 0
M  V30 4665 H 426.664 -0.196523 0.641576 0
M  V30 4666 H 429.208 0.042453 2.04456 0
M  V30 4667 H 427.363 -2.13999 3.22929 0
M  V30 4668 H 427.777 -1.02782 5.14331 0
M  V30 4669 H 429.251 -2.70552 4.8115 0
M  V30 4670 H 429.728 -3.05818 3.15233 0
M  V30 4671 H 430.334 -1.58636 3.94607 0
M  V30 4672 N 428.649 -1.55105 -0.279332 0
M  V30 4673 C 429.897 -1.75066 -1.00977 0
M  V30 4674 C 430.218 -0.551276 -1.87045 0
M  V30 4675 O 429.488 0.433984 -1.91032 0
M  V30 4676 H 428.068 -0.645578 -0.375816 0
M  V30 4677 H 430.73 -1.92497 -0.305089 0
M  V30 4678 H 429.826 -2.64894 -1.65038 0
M  V30 4679 N 430.127 0.543554 -1.4793 0
M  V30 4680 C 431.373 1.30201 -1.55485 0
M  V30 4681 C 431.706 1.92925 -0.222201 0
M  V30 4682 O 430.981 1.78586 0.77053 0
M  V30 4683 C 431.264 2.40174 -2.68307 0
M  V30 4684 C 431.117 1.8223 -4.11233 0
M  V30 4685 C 432.436 3.42024 -2.76961 0
M  V30 4686 H 429.555 0.472036 -0.565996 0
M  V30 4687 H 432.197 0.606914 -1.80046 0
M  V30 4688 H 430.347 2.99463 -2.47495 0
M  V30 4689 H 432.019 1.27096 -4.43446 0
M  V30 4690 H 430.262 1.12832 -4.18869 0
M  V30 4691 H 430.933 2.61793 -4.85972 0
M  V30 4692 H 433.409 2.92672 -2.95774 0
M  V30 4693 H 432.285 4.16383 -3.57654 0
M  V30 4694 H 432.546 4.0173 -1.84568 0
M  V30 4695 N 431.605 1.3629 0.791371 0
M  V30 4696 C 433.016 1.27225 1.36641 0
M  V30 4697 C 433.367 -0.0887968 1.95999 0
M  V30 4698 O 432.492 -0.990207 1.92416 0
M  V30 4699 C 433.087 2.30375 2.48421 0
M  V30 4700 C 431.646 2.25004 3.01746 0
M  V30 4701 C 430.793 2.15259 1.7481 0
M  V30 4702 H 433.744 1.47198 0.593173 0
M  V30 4703 H 433.765 1.93905 3.27385 0
M  V30 4704 H 433.277 3.29422 2.05189 0
M  V30 4705 H 431.378 1.29417 3.49403 0
M  V30 4706 H 431.491 3.1761 3.58693 0
M  V30 4707 H 429.855 1.61482 1.96966 0
M  V30 4708 H 430.638 3.16191 1.33709 0
M  V30 4709 N 433.083 -1.0153 1.20538 0
M  V30 4710 C 434.013 -2.11972 0.979295 0
M  V30 4711 C 434.994 -1.6985 -0.0921787 0
M  V30 4712 O 436.179 -1.94089 0.0655932 0
M  V30 4713 C 433.309 -3.43201 0.531984 0
M  V30 4714 C 432.263 -3.9907 1.54685 0
M  V30 4715 C 431.589 -5.26082 0.956127 0
M  V30 4716 C 432.889 -4.32313 2.93092 0
M  V30 4717 H 434.583 -2.31143 1.90298 0
M  V30 4718 H 432.129 -1.11079 0.916372 0
M  V30 4719 H 434.082 -4.1985 0.361044 0
M  V30 4720 H 432.806 -3.23792 -0.427327 0
M  V30 4721 H 431.465 -3.2453 1.70517 0
M  V30 4722 H 431.113 -5.02999 -0.0111538 0
M  V30 4723 H 430.813 -5.64426 1.63393 0
M  V30 4724 H 432.337 -6.05386 0.796284 0
M  V30 4725 H 433.751 -4.99845 2.80763 0
M  V30 4726 H 432.148 -4.81774 3.57791 0
M  V30 4727 H 433.218 -3.41025 3.44717 0
M  V30 4728 N 434.561 -1.01147 -1.20859 0
M  V30 4729 C 435.807 -0.698899 -1.90377 0
M  V30 4730 C 436.14 0.76904 -1.78324 0
M  V30 4731 O 435.415 1.55817 -1.16409 0
M  V30 4732 C 435.698 -1.12878 -3.41951 0
M  V30 4733 C 435.551 -2.65665 -3.62963 0
M  V30 4734 C 436.87 -0.696114 -4.3456 0
M  V30 4735 H 433.989 -0.255372 -0.691342 0
M  V30 4736 H 436.631 -1.25831 -1.42361 0
M  V30 4737 H 434.781 -0.652827 -3.82976 0
M  V30 4738 H 436.453 -3.21074 -3.31224 0
M  V30 4739 H 434.696 -3.06878 -3.06608 0
M  V30 4740 H 435.367 -2.90797 -4.69192 0
M  V30 4741 H 437.843 -1.10521 -4.01154 0
M  V30 4742 H 436.719 -1.025 -5.39245 0
M  V30 4743 H 436.98 0.402465 -4.40264 0
M  V30 4744 N 436.039 1.36541 -0.78704 0
M  V30 4745 C 437.316 1.9355 -0.282424 0
M  V30 4746 C 437.696 1.71919 1.22503 0
M  V30 4747 O 437.044 1.07677 2.01539 0
M  V30 4748 C 437.254 3.4246 -0.672462 0
M  V30 4749 C 438.602 4.19582 -0.650863 0
M  V30 4750 O 439.626 3.50889 -0.612789 0
M  V30 4751 O 438.485 5.42106 -0.691623 0
M  V30 4752 H 435.579 0.824091 -0.0693 0
M  V30 4753 H 438.125 1.45736 -0.869423 0
M  V30 4754 H 436.897 3.51851 -1.71221 0
M  V30 4755 H 436.52 3.97556 -0.0592211 0
M  V30 4756 N 437.518 0.538854 1.48102 0
M  V30 4757 C 438.481 -0.208395 2.28251 0
M  V30 4758 C 439.481 -0.859656 1.35892 0
M  V30 4759 O 440.671 -0.71834 1.58699 0
M  V30 4760 C 437.803 -1.30252 3.15035 0
M  V30 4761 H 438.996 0.495407 2.9578 0
M  V30 4762 H 436.549 0.295112 1.53489 0
M  V30 4763 H 437.284 -2.0393 2.52157 0
M  V30 4764 H 437.069 -0.840551 3.82985 0
M  V30 4765 H 438.559 -1.82787 3.75471 0
M  V30 4766 N 438.996 -1.55193 0.274407 0
M  V30 4767 C 439.959 -2.212 -0.600279 0
M  V30 4768 C 440.959 -1.18963 -1.08187 0
M  V30 4769 O 442.149 -1.43873 -0.982158 0
M  V30 4770 C 439.281 -2.87739 -1.82809 0
M  V30 4771 H 440.474 -2.9989 -0.0239682 0
M  V30 4772 H 438.027 -1.5628 0.0250192 0
M  V30 4773 H 438.762 -2.13058 -2.44493 0
M  V30 4774 H 438.547 -3.62658 -1.49069 0
M  V30 4775 H 440.037 -3.38171 -2.45011 0
M  V30 4776 N 440.474 -0.00167713 -1.576 0
M  V30 4777 C 441.407 1.02317 -2.03977 0
M  V30 4778 C 442.385 1.33381 -0.929963 0
M  V30 4779 O 443.569 1.45517 -1.19822 0
M  V30 4780 C 440.696 2.35035 -2.43878 0
M  V30 4781 C 439.742 2.19621 -3.65607 0
M  V30 4782 S 440.575 1.52068 -5.13455 0
M  V30 4783 C 441.731 2.86212 -5.56627 0
M  V30 4784 H 441.964 0.628285 -2.90585 0
M  V30 4785 H 439.497 0.209239 -1.52976 0
M  V30 4786 H 441.455 3.11345 -2.67534 0
M  V30 4787 H 440.116 2.71663 -1.57665 0
M  V30 4788 H 439.309 3.1767 -3.91282 0
M  V30 4789 H 438.911 1.51455 -3.41961 0
M  V30 4790 H 441.203 3.82509 -5.59189 0
M  V30 4791 H 442.146 2.65235 -6.56549 0
M  V30 4792 H 442.554 2.90199 -4.84195 0
M  V30 4793 N 441.952 1.55251 0.271103 0
M  V30 4794 C 443.368 1.47133 0.618393 0
M  V30 4795 C 443.568 0.686994 1.89427 0
M  V30 4796 O 442.624 0.206609 2.51653 0
M  V30 4797 C 443.937 2.91361 0.743593 0
M  V30 4798 C 445.485 3.01587 0.837522 0
M  V30 4799 C 445.96 4.47073 0.994483 0
M  V30 4800 N 447.451 4.50909 1.05996 0
M  V30 4801 C 448.186 5.60698 1.20024 0
M  V30 4802 N 447.682 6.80348 1.30759 0
M  V30 4803 N 449.475 5.48444 1.23149 0
M  V30 4804 H 441.626 2.04698 -0.566784 0
M  V30 4805 H 443.889 0.928319 -0.192165 0
M  V30 4806 H 443.595 3.51483 -0.123493 0
M  V30 4807 H 443.469 3.40484 1.62328 0
M  V30 4808 H 445.856 2.4156 1.69507 0
M  V30 4809 H 445.937 2.55713 -0.0668086 0
M  V30 4810 H 445.581 5.07703 0.141582 0
M  V30 4811 H 445.511 4.90605 1.91349 0
M  V30 4812 H 448.002 3.6472 0.989316 0
M  V30 4813 H 448.315 7.59772 1.41303 0
M  V30 4814 H 446.66 6.83156 1.27761 0
M  V30 4815 H 449.851 4.53907 1.14394 0
M  V30 4816 H 450.024 6.34049 1.33738 0
M  V30 4817 N 443.43 -0.535701 1.48216 0
M  V30 4818 C 444.34 -1.66785 1.64985 0
M  V30 4819 C 445.356 -1.65654 0.532414 0
M  V30 4820 O 446.532 -1.8471 0.80275 0
M  V30 4821 C 443.597 -3.0326 1.68031 0
M  V30 4822 C 442.658 -3.1529 2.9136 0
M  V30 4823 C 441.891 -4.45255 2.94252 0
M  V30 4824 O 442.114 -5.32011 2.05719 0
M  V30 4825 O 441.048 -4.6153 3.86359 0
M  V30 4826 H 444.874 -1.55576 2.60825 0
M  V30 4827 H 442.459 -0.70815 1.31551 0
M  V30 4828 H 444.341 -3.84436 1.72589 0
M  V30 4829 H 443.016 -3.14805 0.753628 0
M  V30 4830 H 441.923 -2.3343 2.92337 0
M  V30 4831 H 443.256 -3.08658 3.83394 0
M  V30 4832 N 444.908 -1.36708 -0.784132 0
M  V30 4833 C 445.838 -1.34153 -1.91116 0
M  V30 4834 C 446.819 -0.212121 -1.68772 0
M  V30 4835 O 448.004 -0.410581 -1.8981 0
M  V30 4836 C 445.134 -1.13535 -3.28218 0
M  V30 4837 C 444.088 -2.23356 -3.65097 0
M  V30 4838 C 443.414 -1.87875 -5.00607 0
M  V30 4839 C 444.714 -3.65473 -3.73131 0
M  V30 4840 H 446.408 -2.28459 -1.93512 0
M  V30 4841 H 443.954 -1.09973 -0.929618 0
M  V30 4842 H 445.907 -1.10381 -4.06687 0
M  V30 4843 H 444.631 -0.156804 -3.26223 0
M  V30 4844 H 443.29 -2.25645 -2.88929 0
M  V30 4845 H 442.938 -0.885814 -4.95139 0
M  V30 4846 H 442.638 -2.61406 -5.26252 0
M  V30 4847 H 444.162 -1.86286 -5.81489 0
M  V30 4848 H 445.576 -3.65382 -4.41779 0
M  V30 4849 H 443.973 -4.37953 -4.10265 0
M  V30 4850 H 445.043 -3.99995 -2.74102 0
M  V30 4851 N 446.386 1.0089 -1.21074 0
M  V30 4852 C 447.336 2.0799 -0.934034 0
M  V30 4853 C 448.32 1.60529 0.10919 0
M  V30 4854 O 449.512 1.76722 -0.0992198 0
M  V30 4855 C 446.641 3.39693 -0.496334 0
M  V30 4856 C 445.727 3.93833 -1.57341 0
M  V30 4857 N 446.118 4.21388 -2.7976 0
M  V30 4858 C 444.416 4.22067 -1.44137 0
M  V30 4859 C 445.117 4.65156 -3.49292 0
M  V30 4860 N 444.093 4.67895 -2.76722 0
M  V30 4861 H 447.895 2.27213 -1.86417 0
M  V30 4862 H 445.409 1.18927 -1.10589 0
M  V30 4863 H 447.406 4.15962 -0.279471 0
M  V30 4864 H 446.066 3.21879 0.427084 0
M  V30 4865 H 447.077 4.10061 -3.1634 0
M  V30 4866 H 443.754 4.1341 -0.582947 0
M  V30 4867 H 445.144 4.95231 -4.54088 0
M  V30 4868 N 447.864 1.01787 1.20321 0
M  V30 4869 C 448.827 0.593972 2.2137 0
M  V30 4870 C 449.827 -0.336553 1.57239 0
M  V30 4871 O 451.017 -0.125069 1.7375 0
M  V30 4872 C 448.149 -0.132433 3.40643 0
M  V30 4873 H 449.342 1.48791 2.60387 0
M  V30 4874 H 446.895 0.807803 1.33807 0
M  V30 4875 H 447.63 -1.04123 3.0713 0
M  V30 4876 H 447.415 0.53605 3.88418 0
M  V30 4877 H 448.905 -0.416314 4.1552 0
M  V30 4878 N 449.342 -1.36122 0.79427 0
M  V30 4879 C 450.57 -2.03362 0.380989 0
M  V30 4880 C 450.985 -1.59881 -1.00416 0
M  V30 4881 O 450.342 -0.790515 -1.6449 0
M  V30 4882 C 450.393 -3.58804 0.440649 0
M  V30 4883 O 450.114 -4.007 1.77118 0
M  V30 4884 C 451.615 -4.43296 0.0186117 0
M  V30 4885 H 448.835 -0.652526 0.156367 0
M  V30 4886 H 451.379 -1.73998 1.07447 0
M  V30 4887 H 449.534 -3.8686 -0.204458 0
M  V30 4888 H 449.948 -4.95309 1.72538 0
M  V30 4889 H 451.422 -5.51887 0.111488 0
M  V30 4890 H 451.899 -4.2684 -1.03461 0
M  V30 4891 H 452.505 -4.20512 0.636395 0
M  V30 4892 N 450.82 -0.546701 -1.47814 0
M  V30 4893 C 452.068 -0.0187037 -2.02091 0
M  V30 4894 C 452.389 1.33168 -1.42447 0
M  V30 4895 O 451.659 1.86619 -0.595839 0
M  V30 4896 H 450.239 -0.00392531 -0.74699 0
M  V30 4897 H 452.901 -0.714327 -1.81338 0
M  V30 4898 H 451.997 0.0772219 -3.12004 0
M  V30 4899 N 452.299 1.55045 -0.282633 0
M  V30 4900 C 453.546 1.9976 0.33199 0
M  V30 4901 C 453.874 1.17105 1.55295 0
M  V30 4902 O 453.129 0.230599 1.94337 0
M  V30 4903 C 453.428 3.49422 0.750938 0
M  V30 4904 C 453.094 4.4941 -0.366228 0
M  V30 4905 C 451.756 4.76471 -0.672964 0
M  V30 4906 C 454.108 5.09054 -1.11864 0
M  V30 4907 C 451.436 5.60442 -1.73556 0
M  V30 4908 C 453.788 5.9418 -2.17102 0
M  V30 4909 C 452.452 6.19558 -2.48402 0
M  V30 4910 H 451.722 0.730974 0.121484 0
M  V30 4911 H 454.369 1.8732 -0.39791 0
M  V30 4912 H 452.674 3.59377 1.56063 0
M  V30 4913 H 454.371 3.81432 1.23736 0
M  V30 4914 H 450.961 4.2844 -0.117041 0
M  V30 4915 H 455.145 4.88165 -0.894925 0
M  V30 4916 H 450.401 5.78349 -1.983 0
M  V30 4917 H 454.575 6.39427 -2.75873 0
M  V30 4918 H 452.202 6.84417 -3.30874 0
M  V30 4919 N 453.777 0.010035 1.57597 0
M  V30 4920 C 454.707 -0.976857 2.12084 0
M  V30 4921 C 455.688 -1.35191 1.03235 0
M  V30 4922 O 456.873 -1.43389 1.3097 0
M  V30 4923 C 454.003 -2.26548 2.63236 0
M  V30 4924 C 452.957 -2.03175 3.76701 0
M  V30 4925 C 452.283 -3.38138 4.14206 0
M  V30 4926 C 453.583 -1.38625 5.03568 0
M  V30 4927 H 455.277 -0.523145 2.94794 0
M  V30 4928 H 452.823 -0.250195 1.4181 0
M  V30 4929 H 454.776 -2.95952 2.99984 0
M  V30 4930 H 453.5 -2.74051 1.77661 0
M  V30 4931 H 452.159 -1.36195 3.40362 0
M  V30 4932 H 451.807 -3.83363 3.25641 0
M  V30 4933 H 451.507 -3.23312 4.90656 0
M  V30 4934 H 453.031 -4.08841 4.53521 0
M  V30 4935 H 454.445 -1.98 5.38023 0
M  V30 4936 H 452.842 -1.34256 5.84889 0
M  V30 4937 H 453.912 -0.356722 4.83586 0
M  V30 4938 N 455.255 -1.55392 -0.262866 0
M  V30 4939 C 456.48 -1.80847 -1.01533 0
M  V30 4940 C 456.905 -0.584946 -1.78774 0
M  V30 4941 O 456.263 0.465701 -1.75217 0
M  V30 4942 C 456.311 -3.03866 -1.94159 0
M  V30 4943 O 455.415 -2.79662 -3.03089 0
M  V30 4944 H 454.756 -0.597441 -0.289759 0
M  V30 4945 H 457.286 -2.02553 -0.288698 0
M  V30 4946 H 457.296 -3.32872 -2.35924 0
M  V30 4947 H 455.971 -3.92564 -1.37354 0
M  V30 4948 H 454.548 -2.61781 -2.65566 0
M  V30 4949 N 456.733 0.527833 -1.48498 0
M  V30 4950 C 457.681 1.65313 -1.63628 0
M  V30 4951 C 458.675 1.6177 -0.502676 0
M  V30 4952 O 459.881 1.66601 -0.681469 0
M  V30 4953 H 456.256 0.547518 -0.515488 0
M  V30 4954 H 458.227 1.49696 -2.58135 0
M  V30 4955 C 456.976 3.03576 -1.6952 0
M  V30 4956 H 456.299 3.06997 -2.56111 0
M  V30 4957 H 457.739 3.81923 -1.84149 0
M  V30 4958 C 456.198 3.34089 -0.43432 0
M  V30 4959 O 456.728 3.99151 0.451852 0
M  V30 4960 N 454.934 2.88991 -0.305368 0
M  V30 4961 H 454.481 2.36222 -1.02747 0
M  V30 4962 H 454.439 3.09776 0.537249 0
M  V30 4963 N 458.211 1.37122 0.776871 0
M  V30 4964 C 459.627 1.1781 1.07671 0
M  V30 4965 C 459.827 0.0107454 2.01497 0
M  V30 4966 O 458.883 -0.650756 2.4397 0
M  V30 4967 C 460.196 2.49451 1.67913 0
M  V30 4968 C 461.744 2.55927 1.80195 0
M  V30 4969 C 462.219 3.87686 2.43851 0
M  V30 4970 N 463.71 3.891 2.51307 0
M  V30 4971 C 464.445 4.87797 3.014 0
M  V30 4972 N 463.941 5.96888 3.51705 0
M  V30 4973 N 465.734 4.75205 3.00227 0
M  V30 4974 H 457.885 2.11843 0.153778 0
M  V30 4975 H 460.148 0.938927 0.130844 0
M  V30 4976 H 459.854 3.35207 1.06439 0
M  V30 4977 H 459.728 2.66169 2.67271 0
M  V30 4978 H 462.115 1.70582 2.40803 0
M  V30 4979 H 462.196 2.43097 0.796069 0
M  V30 4980 H 461.84 4.73444 1.83884 0
M  V30 4981 H 461.77 3.97817 3.45035 0
M  V30 4982 H 464.261 3.10293 2.157 0
M  V30 4983 H 464.574 6.68155 3.88316 0
M  V30 4984 H 462.919 6.0054 3.49824 0
M  V30 4985 H 466.11 3.89103 2.60224 0
M  V30 4986 H 466.283 5.52279 3.38957 0
M  V30 4987 N 459.689 -1.00246 1.21608 0
M  V30 4988 C 460.652 -2.07233 0.979133 0
M  V30 4989 C 461.652 -1.6072 -0.0508219 0
M  V30 4990 O 462.842 -1.73196 0.186712 0
M  V30 4991 C 459.974 -3.37546 0.477016 0
M  V30 4992 H 461.167 -2.29687 1.92831 0
M  V30 4993 H 458.72 -1.17261 1.03342 0
M  V30 4994 H 459.455 -3.20773 -0.476966 0
M  V30 4995 H 459.24 -3.72638 1.21997 0
M  V30 4996 H 460.73 -4.16285 0.331181 0
M  V30 4997 N 461.167 -1.02423 -1.1978 0
M  V30 4998 C 462.583 -0.740459 -1.41384 0
M  V30 4999 C 462.783 0.676827 -1.89793 0
M  V30 5000 O 461.839 1.4435 -2.0717 0
M  V30 5001 C 463.152 -1.77264 -2.42895 0
M  V30 5002 C 464.7 -1.79165 -2.56649 0
M  V30 5003 C 465.175 -2.8133 -3.6141 0
M  V30 5004 N 466.666 -2.80118 -3.68901 0
M  V30 5005 C 467.401 -3.55824 -4.49641 0
M  V30 5006 N 466.897 -4.41231 -5.34123 0
M  V30 5007 N 468.69 -3.44387 -4.44246 0
M  V30 5008 H 460.841 -1.9391 -0.866764 0
M  V30 5009 H 463.104 -0.838074 -0.443098 0
M  V30 5010 H 462.81 -2.7884 -2.14339 0
M  V30 5011 H 462.684 -1.59108 -3.42001 0
M  V30 5012 H 465.071 -0.782702 -2.84531 0
M  V30 5013 H 465.152 -2.01396 -1.57713 0
M  V30 5014 H 464.796 -3.82394 -3.34271 0
M  V30 5015 H 464.726 -2.56359 -4.59986 0
M  V30 5016 H 467.217 -2.1817 -3.08562 0
M  V30 5017 H 467.53 -4.95747 -5.92836 0
M  V30 5018 H 465.875 -4.45306 -5.33599 0
M  V30 5019 H 469.066 -2.7708 -3.77285 0
M  V30 5020 H 469.239 -4.0364 -5.06931 0
M  V30 5021 N 462.645 1.35699 -0.801477 0
M  V30 5022 C 463.578 2.2768 -0.153922 0
M  V30 5023 C 464.556 1.47832 0.67709 0
M  V30 5024 O 465.74 1.77104 0.645474 0
M  V30 5025 C 462.867 3.2943 0.786986 0
M  V30 5026 C 461.913 4.26485 0.0362447 0
M  V30 5027 S 462.746 5.19573 -1.2963 0
M  V30 5028 C 463.902 6.24866 -0.359705 0
M  V30 5029 H 464.135 2.82254 -0.9338 0
M  V30 5030 H 461.668 1.42421 -0.596283 0
M  V30 5031 H 463.626 3.8855 1.32436 0
M  V30 5032 H 462.287 2.73745 1.54021 0
M  V30 5033 H 461.48 4.98378 0.750668 0
M  V30 5034 H 461.082 3.71508 -0.431017 0
M  V30 5035 H 463.374 6.75957 0.456954 0
M  V30 5036 H 464.317 7.00307 -1.04768 0
M  V30 5037 H 464.725 5.64484 0.0423274 0
M  V30 5038 N 464.123 0.554532 1.47522 0
M  V30 5039 C 465.071 -0.207765 2.3167 0
M  V30 5040 C 466.065 -0.911914 1.4276 0
M  V30 5041 O 467.271 -0.833504 1.59539 0
M  V30 5042 H 463.646 -0.0858726 0.747081 0
M  V30 5043 H 465.617 0.521178 2.93813 0
M  V30 5044 C 464.366 -1.2263 3.25357 0
M  V30 5045 H 463.689 -0.693887 3.93732 0
M  V30 5046 H 465.129 -1.73062 3.87073 0
M  V30 5047 C 463.588 -2.27278 2.4869 0
M  V30 5048 O 464.118 -3.34156 2.22941 0
M  V30 5049 N 462.324 -2.01134 2.09746 0
M  V30 5050 H 461.871 -1.14232 2.30887 0
M  V30 5051 H 461.829 -2.71369 1.58765 0
M  V30 5052 N 465.601 -1.54893 0.290851 0
M  V30 5053 C 466.564 -2.21824 -0.576784 0
M  V30 5054 C 467.564 -1.20104 -1.06919 0
M  V30 5055 O 468.754 -1.44906 -0.966843 0
M  V30 5056 C 465.886 -2.89662 -1.79747 0
M  V30 5057 H 467.079 -2.99899 0.00784051 0
M  V30 5058 H 464.632 -1.56245 0.0415934 0
M  V30 5059 H 465.367 -2.15639 -2.42219 0
M  V30 5060 H 465.152 -3.64219 -1.45214 0
M  V30 5061 H 466.642 -3.4075 -2.4141 0
M  V30 5062 N 467.08 -0.0183926 -1.57589 0
M  V30 5063 C 468.043 0.951986 -2.08494 0
M  V30 5064 C 469.043 1.26092 -0.997874 0
M  V30 5065 O 470.233 1.20304 -1.25987 0
M  V30 5066 C 467.365 2.27165 -2.54182 0
M  V30 5067 H 468.558 0.511307 -2.95509 0
M  V30 5068 H 466.111 0.229444 -1.54607 0
M  V30 5069 H 466.846 2.75884 -1.70465 0
M  V30 5070 H 466.631 2.06057 -3.33591 0
M  V30 5071 H 468.121 2.9674 -2.93828 0
M  V30 5072 N 468.558 1.5553 0.254621 0
M  V30 5073 C 469.49 1.86104 1.33783 0
M  V30 5074 C 470.503 0.746752 1.44663 0
M  V30 5075 O 471.692 1.0248 1.46151 0
M  V30 5076 C 468.792 2.02532 2.71724 0
M  V30 5077 C 467.965 3.33335 2.83208 0
M  V30 5078 C 467.024 3.396 4.01943 0
M  V30 5079 O 466.05 4.12862 3.91834 0
M  V30 5080 N 467.252 2.68332 5.1476 0
M  V30 5081 H 470.017 2.79605 1.07893 0
M  V30 5082 H 467.578 1.55672 0.444732 0
M  V30 5083 H 469.57 2.04074 3.4948 0
M  V30 5084 H 468.14 1.15811 2.90356 0
M  V30 5085 H 467.36 3.44176 1.92189 0
M  V30 5086 H 468.648 4.19565 2.87824 0
M  V30 5087 H 468.046 2.08528 5.25864 0
M  V30 5088 H 466.603 2.75575 5.90679 0
M  V30 5089 N 470.036 -0.519951 1.48776 0
M  V30 5090 C 471.283 -1.27522 1.57303 0
M  V30 5091 C 471.611 -1.92869 0.251328 0
M  V30 5092 O 470.866 -1.80372 -0.759243 0
M  V30 5093 C 471.165 -2.37864 2.6675 0
M  V30 5094 C 470.831 -1.90103 4.08867 0
M  V30 5095 C 469.493 -1.76795 4.47546 0
M  V30 5096 C 471.845 -1.54133 4.97888 0
M  V30 5097 C 469.173 -1.25868 5.73039 0
M  V30 5098 C 471.525 -1.04665 6.23881 0
M  V30 5099 C 470.189 -0.899823 6.61407 0
M  V30 5100 H 469.459 -0.466636 0.575614 0
M  V30 5101 H 472.106 -0.579109 1.82534 0
M  V30 5102 H 470.411 -3.13186 2.35418 0
M  V30 5103 H 472.108 -2.95969 2.70561 0
M  V30 5104 H 468.698 -2.01414 3.78326 0
M  V30 5105 H 472.882 -1.6327 4.68675 0
M  V30 5106 H 468.138 -1.13196 6.0083 0
M  V30 5107 H 472.312 -0.759074 6.92251 0
M  V30 5108 H 469.939 -0.503011 7.58534 0
M  V30 5109 N 471.514 -1.37532 -0.769588 0
M  V30 5110 C 472.477 -1.33292 -1.86456 0
M  V30 5111 C 473.477 -0.236537 -1.59051 0
M  V30 5112 O 474.667 -0.492511 -1.67093 0
M  V30 5113 C 471.799 -1.07118 -3.23633 0
M  V30 5114 H 472.992 -2.30692 -1.91628 0
M  V30 5115 H 470.545 -1.22593 -0.969572 0
M  V30 5116 H 471.28 -0.102578 -3.24138 0
M  V30 5117 H 471.065 -1.86479 -3.44917 0
M  V30 5118 H 472.555 -1.06806 -4.03711 0
M  V30 5119 N 472.992 0.995999 -1.22138 0
M  V30 5120 C 474.238 1.73767 -1.04561 0
M  V30 5121 C 474.571 1.89633 0.418698 0
M  V30 5122 O 473.846 1.43723 1.3105 0
M  V30 5123 C 474.129 3.14505 -1.75382 0
M  V30 5124 C 473.982 3.06306 -3.29388 0
M  V30 5125 C 475.301 4.13615 -1.50369 0
M  V30 5126 H 472.42 0.630728 -0.38125 0
M  V30 5127 H 475.062 1.16057 -1.50435 0
M  V30 5128 H 473.212 3.63775 -1.36383 0
M  V30 5129 H 474.884 2.64681 -3.77812 0
M  V30 5130 H 473.127 2.43186 -3.59226 0
M  V30 5131 H 473.798 4.05884 -3.74116 0
M  V30 5132 H 476.274 3.73089 -1.84239 0
M  V30 5133 H 475.15 5.10212 -2.02421 0
M  V30 5134 H 475.411 4.39949 -0.435611 0
M  V30 5135 N 474.47 1.03057 1.19235 0
M  V30 5136 C 475.417 0.612832 2.22515 0
M  V30 5137 C 476.387 -0.374224 1.61829 0
M  V30 5138 O 477.572 -0.270501 1.88873 0
M  V30 5139 C 474.712 -0.028475 3.45088 0
M  V30 5140 C 473.825 1.00483 4.20151 0
M  V30 5141 C 472.96 0.333102 5.30155 0
M  V30 5142 C 471.999 1.3522 5.96977 0
M  V30 5143 N 471.136 0.70616 6.9854 0
M  V30 5144 H 475.976 1.49812 2.57605 0
M  V30 5145 H 473.513 0.749658 1.26564 0
M  V30 5146 H 475.471 -0.417548 4.15105 0
M  V30 5147 H 474.101 -0.877334 3.10649 0
M  V30 5148 H 473.153 1.51194 3.49062 0
M  V30 5149 H 474.465 1.77929 4.65986 0
M  V30 5150 H 473.619 -0.110725 6.06599 0
M  V30 5151 H 472.358 -0.473547 4.85396 0
M  V30 5152 H 471.363 1.80627 5.19282 0
M  V30 5153 H 472.588 2.16037 6.4382 0
M  V30 5154 H 470.534 -0.0803667 6.55951 0
M  V30 5155 H 470.451 1.41848 7.42573 0
M  V30 5156 H 471.719 0.286391 7.78974 0
M  V30 5157 N 475.948 -1.35272 0.808662 0
M  V30 5158 C 476.898 -2.27181 0.193124 0
M  V30 5159 C 477.882 -1.47871 -0.634265 0
M  V30 5160 O 479.074 -1.70048 -0.491182 0
M  V30 5161 C 476.203 -3.36979 -0.655751 0
M  V30 5162 C 475.289 -4.23712 0.181481 0
M  V30 5163 N 475.68 -4.90225 1.24551 0
M  V30 5164 C 473.978 -4.45985 -0.0365493 0
M  V30 5165 C 474.679 -5.54537 1.75682 0
M  V30 5166 N 473.655 -5.33107 1.06294 0
M  V30 5167 H 477.457 -2.76101 1.00724 0
M  V30 5168 H 474.971 -1.48823 0.650029 0
M  V30 5169 H 476.968 -4.01774 -1.11279 0
M  V30 5170 H 475.628 -2.89611 -1.46819 0
M  V30 5171 H 476.639 -4.91641 1.62818 0
M  V30 5172 H 473.316 -4.09409 -0.817964 0
M  V30 5173 H 474.706 -6.17597 2.64621 0
M  V30 5174 N 477.426 -0.562348 -1.47226 0
M  V30 5175 C 478.356 0.170627 -2.32876 0
M  V30 5176 C 479.337 0.903748 -1.44106 0
M  V30 5177 O 480.522 0.883206 -1.72954 0
M  V30 5178 C 477.652 1.19786 -3.25989 0
M  V30 5179 C 476.606 0.580875 -4.2404 0
M  V30 5180 C 475.932 1.71311 -5.06514 0
M  V30 5181 C 477.232 -0.468714 -5.20193 0
M  V30 5182 H 478.926 -0.544441 -2.94408 0
M  V30 5183 H 476.472 -0.263271 -1.41573 0
M  V30 5184 H 478.425 1.71884 -3.84752 0
M  V30 5185 H 477.149 1.94294 -2.62521 0
M  V30 5186 H 475.808 0.0811538 -3.6651 0
M  V30 5187 H 475.456 2.44736 -4.39447 0
M  V30 5188 H 475.156 1.30604 -5.72902 0
M  V30 5189 H 476.68 2.23725 -5.68137 0
M  V30 5190 H 478.094 -0.0336028 -5.7329 0
M  V30 5191 H 476.491 -0.794957 -5.94811 0
M  V30 5192 H 477.561 -1.36269 -4.65359 0
M  V30 5193 N 478.904 1.54736 -0.299062 0
M  V30 5194 C 479.834 2.26409 0.571085 0
M  V30 5195 C 480.815 1.2629 1.13951 0
M  V30 5196 O 482 1.55059 1.16921 0
M  V30 5197 C 479.13 3.00338 1.74396 0
M  V30 5198 C 478.084 4.07588 1.30599 0
M  V30 5199 C 477.41 4.69222 2.56387 0
M  V30 5200 C 478.71 5.20455 0.438645 0
M  V30 5201 H 480.404 2.99388 -0.0266991 0
M  V30 5202 H 477.95 1.43993 -0.0142812 0
M  V30 5203 H 479.903 3.49198 2.35878 0
M  V30 5204 H 478.627 2.24934 2.36796 0
M  V30 5205 H 477.286 3.59575 0.71424 0
M  V30 5206 H 476.934 3.9046 3.17097 0
M  V30 5207 H 476.634 5.41653 2.27784 0
M  V30 5208 H 478.158 5.20844 3.18675 0
M  V30 5209 H 479.572 5.65221 0.959085 0
M  V30 5210 H 477.969 5.99594 0.246466 0
M  V30 5211 H 479.039 4.8192 -0.536738 0
M  V30 5212 N 480.382 0.0267497 1.57577 0
M  V30 5213 C 481.312 -0.954308 2.13108 0
M  V30 5214 C 482.293 -1.34088 1.04663 0
M  V30 5215 O 483.478 -1.41992 1.32484 0
M  V30 5216 C 480.608 -2.23744 2.65624 0
M  V30 5217 C 479.562 -1.99168 3.78835 0
M  V30 5218 C 478.888 -3.33726 4.17769 0
M  V30 5219 C 480.188 -1.33277 5.0501 0
M  V30 5220 H 481.882 -0.491848 2.95332 0
M  V30 5221 H 479.428 -0.23514 1.42067 0
M  V30 5222 H 481.381 -2.92754 3.03106 0
M  V30 5223 H 480.105 -2.72151 1.80558 0
M  V30 5224 H 478.764 -1.32577 3.41788 0
M  V30 5225 H 478.412 -3.79888 3.29688 0
M  V30 5226 H 478.112 -3.18089 4.94058 0
M  V30 5227 H 479.636 -4.04008 4.57832 0
M  V30 5228 H 481.05 -1.92283 5.40093 0
M  V30 5229 H 479.447 -1.28045 5.8628 0
M  V30 5230 H 480.517 -0.305411 4.83937 0
M  V30 5231 N 481.861 -1.55662 -0.24637 0
M  V30 5232 C 483.272 -1.67953 -0.81539 0
M  V30 5233 C 483.623 -0.624302 -1.86002 0
M  V30 5234 O 482.748 0.229328 -2.15181 0
M  V30 5235 C 483.343 -3.04484 -1.48576 0
M  V30 5236 C 481.902 -3.18713 -2.00248 0
M  V30 5237 C 481.049 -2.6383 -0.853766 0
M  V30 5238 H 484 -1.58685 -0.0221692 0
M  V30 5239 H 484.021 -2.98959 -2.3538 0
M  V30 5240 H 483.533 -3.81264 -0.725222 0
M  V30 5241 H 481.634 -2.46757 -2.79181 0
M  V30 5242 H 481.747 -4.25628 -2.1995 0
M  V30 5243 H 480.111 -2.21667 -1.25442 0
M  V30 5244 H 480.894 -3.43135 -0.106302 0
M  V30 5245 N 483.339 0.512053 -1.4905 0
M  V30 5246 C 484.585 1.26613 -1.59187 0
M  V30 5247 C 484.94 1.90494 -0.270163 0
M  V30 5248 O 484.233 1.77204 0.728648 0
M  V30 5249 C 484.427 2.36446 -2.68008 0
M  V30 5250 C 484.256 1.83334 -4.10632 0
M  V30 5251 C 483.026 1.65131 -4.77556 0
M  V30 5252 C 485.224 1.35153 -4.96224 0
M  V30 5253 N 483.206 1.06833 -6.04533 0
M  V30 5254 C 484.577 0.889186 -6.13591 0
M  V30 5255 C 486.632 1.23623 -4.82309 0
M  V30 5256 C 485.335 0.322953 -7.18575 0
M  V30 5257 C 487.361 0.683978 -5.87431 0
M  V30 5258 C 486.723 0.2318 -7.04018 0
M  V30 5259 H 482.822 0.453678 -0.636946 0
M  V30 5260 H 485.406 0.575217 -1.86009 0
M  V30 5261 H 483.577 3.03012 -2.42978 0
M  V30 5262 H 485.309 3.03485 -2.67729 0
M  V30 5263 H 482.064 1.89178 -4.34176 0
M  V30 5264 H 482.488 0.796425 -6.72299 0
M  V30 5265 H 487.13 1.57184 -3.92496 0
M  V30 5266 H 484.848 -0.024943 -8.08096 0
M  V30 5267 H 488.434 0.597694 -5.78722 0
M  V30 5268 H 487.314 -0.188869 -7.83973 0
M  V30 5269 N 484.817 1.37938 0.762283 0
M  V30 5270 C 485.764 1.34467 1.87583 0
M  V30 5271 C 486.734 0.208633 1.64785 0
M  V30 5272 O 487.919 0.399494 1.86571 0
M  V30 5273 C 485.059 1.16692 3.24772 0
M  V30 5274 C 484.172 2.39608 3.59461 0
M  V30 5275 C 483.307 2.14631 4.85908 0
M  V30 5276 C 482.346 3.33364 5.13357 0
M  V30 5277 N 481.483 3.07877 6.30996 0
M  V30 5278 H 486.323 2.29669 1.89885 0
M  V30 5279 H 483.86 1.14116 0.928219 0
M  V30 5280 H 485.818 1.04405 4.03925 0
M  V30 5281 H 484.448 0.251333 3.2182 0
M  V30 5282 H 483.5 2.626 2.75219 0
M  V30 5283 H 484.812 3.28128 3.75678 0
M  V30 5284 H 483.966 1.99429 5.72986 0
M  V30 5285 H 482.705 1.23463 4.71814 0
M  V30 5286 H 481.71 3.49094 4.24751 0
M  V30 5287 H 482.935 4.25395 5.29354 0
M  V30 5288 H 480.881 2.19348 6.18241 0
M  V30 5289 H 480.798 3.89944 6.47673 0
M  V30 5290 H 482.066 2.96313 7.20985 0
M  V30 5291 N 486.295 -0.989507 1.22664 0
M  V30 5292 C 487.711 -1.25395 0.987331 0
M  V30 5293 C 487.911 -1.9899 -0.317056 0
M  V30 5294 O 486.967 -2.30141 -1.03882 0
M  V30 5295 C 488.28 -2.06242 2.18826 0
M  V30 5296 C 489.828 -2.19413 2.23219 0
M  V30 5297 C 490.303 -3.03648 3.42873 0
M  V30 5298 N 491.794 -3.11234 3.43056 0
M  V30 5299 C 492.529 -3.7671 4.32293 0
M  V30 5300 N 492.025 -4.44085 5.31752 0
M  V30 5301 N 493.818 -3.73505 4.2006 0
M  V30 5302 H 485.969 -0.496212 2.06522 0
M  V30 5303 H 488.232 -0.281784 0.905153 0
M  V30 5304 H 487.938 -1.59531 3.13437 0
M  V30 5305 H 487.812 -3.06996 2.19165 0
M  V30 5306 H 490.199 -2.65336 1.29154 0
M  V30 5307 H 490.28 -1.18078 2.26917 0
M  V30 5308 H 489.924 -2.58424 4.37241 0
M  V30 5309 H 489.854 -4.05132 3.36416 0
M  V30 5310 H 492.345 -2.63287 2.71088 0
M  V30 5311 H 492.658 -4.91797 5.96117 0
M  V30 5312 H 491.003 -4.42822 5.35662 0
M  V30 5313 H 494.194 -3.20033 3.41609 0
M  V30 5314 H 494.367 -4.24253 4.8981 0
M  V30 5315 N 487.773 -1.03688 -1.18687 0
M  V30 5316 C 489.013 -0.746858 -1.90267 0
M  V30 5317 C 489.377 0.712075 -1.78307 0
M  V30 5318 O 490.578 1.11553 -2.44559 0
M  V30 5319 C 488.849 -1.19543 -3.36815 0
M  V30 5320 S 490.408 -1.03047 -4.26529 0
M  V30 5321 H 487.226 -0.271663 -0.657054 0
M  V30 5322 H 489.828 -1.32838 -1.43437 0
M  V30 5323 H 488.532 -2.2527 -3.43047 0
M  V30 5324 H 488.063 -0.607533 -3.88681 0
M  V30 5325 H 490.078 0.0543232 -4.9617 0
M  V30 5326 N 489.251 1.34841 -0.815825 0
M  V30 5327 C 490.161 2.33425 -0.234462 0
M  V30 5328 C 491.177 1.62295 0.627413 0
M  V30 5329 O 492.353 1.94109 0.536987 0
M  V30 5330 C 489.418 3.41471 0.599849 0
M  V30 5331 C 488.479 4.28362 -0.283596 0
M  V30 5332 C 487.712 5.31248 0.51099 0
M  V30 5333 O 487.935 5.43056 1.7449 0
M  V30 5334 O 486.869 6.01812 -0.10297 0
M  V30 5335 H 490.695 2.84962 -1.05024 0
M  V30 5336 H 488.28 1.37774 -0.577809 0
M  V30 5337 H 490.162 4.07464 1.07475 0
M  V30 5338 H 488.837 2.9219 1.39308 0
M  V30 5339 H 487.744 3.65318 -0.805836 0
M  V30 5340 H 489.077 4.81066 -1.041 0
M  V30 5341 N 490.729 0.570148 1.46925 0
M  V30 5342 C 491.639 -0.173061 2.33961 0
M  V30 5343 C 492.655 -0.898825 1.48987 0
M  V30 5344 O 493.831 -0.864825 1.81887 0
M  V30 5345 C 490.896 -1.18177 3.25937 0
M  V30 5346 C 489.957 -0.462041 4.26806 0
M  V30 5347 C 489.19 -1.4227 5.14388 0
M  V30 5348 O 489.413 -2.65842 5.04662 0
M  V30 5349 O 488.347 -0.940127 5.94513 0
M  V30 5350 H 492.173 0.541216 2.98839 0
M  V30 5351 H 489.758 0.330647 1.45695 0
M  V30 5352 H 491.64 -1.76372 3.82715 0
M  V30 5353 H 490.315 -1.87774 2.63671 0
M  V30 5354 H 489.222 0.161429 3.73752 0
M  V30 5355 H 490.555 0.192719 4.91823 0
M  V30 5356 N 492.207 -1.54576 0.307264 0
M  V30 5357 C 493.17 -2.22423 -0.553224 0
M  V30 5358 C 494.17 -1.21231 -1.05639 0
M  V30 5359 O 495.36 -1.45923 -0.951419 0
M  V30 5360 C 492.492 -2.91552 -1.76664 0
M  V30 5361 H 493.685 -2.99874 0.0396484 0
M  V30 5362 H 491.238 -1.56192 0.0581629 0
M  V30 5363 H 491.973 -2.18196 -2.39918 0
M  V30 5364 H 491.758 -3.65738 -1.41343 0
M  V30 5365 H 493.248 -3.43292 -2.37783 0
M  V30 5366 N 493.685 -0.035106 -1.57561 0
M  V30 5367 C 494.932 0.642229 -1.92046 0
M  V30 5368 C 495.26 1.7179 -0.91206 0
M  V30 5369 O 494.515 1.95544 0.0781153 0
M  V30 5370 C 494.814 1.29149 -3.3325 0
M  V30 5371 C 494.48 0.345604 -4.49574 0
M  V30 5372 C 493.142 0.0852775 -4.81124 0
M  V30 5373 C 495.494 -0.303569 -5.20315 0
M  V30 5374 C 492.822 -0.831927 -5.80772 0
M  V30 5375 C 495.174 -1.20886 -6.20942 0
M  V30 5376 C 493.838 -1.47802 -6.50931 0
M  V30 5377 H 493.108 0.235008 -0.702746 0
M  V30 5378 H 495.755 -0.0981529 -1.91248 0
M  V30 5379 H 494.06 2.10676 -3.30337 0
M  V30 5380 H 495.757 1.82223 -3.57205 0
M  V30 5381 H 492.347 0.558683 -4.24943 0
M  V30 5382 H 496.531 -0.115515 -4.96166 0
M  V30 5383 H 491.787 -1.0481 -6.02349 0
M  V30 5384 H 495.961 -1.71804 -6.74875 0
M  V30 5385 H 493.588 -2.19039 -7.2796 0
M  V30 5386 N 495.163 1.55791 0.238111 0
M  V30 5387 C 496.579 1.48411 0.587045 0
M  V30 5388 C 496.779 0.72702 1.87927 0
M  V30 5389 O 495.835 0.259942 2.51158 0
M  V30 5390 C 497.148 2.92873 0.681623 0
M  V30 5391 C 498.696 3.03295 0.773363 0
M  V30 5392 C 499.171 4.49082 0.899428 0
M  V30 5393 N 500.662 4.53056 0.964075 0
M  V30 5394 C 501.397 5.63117 1.08104 0
M  V30 5395 N 500.893 6.82969 1.16299 0
M  V30 5396 N 502.686 5.50933 1.11488 0
M  V30 5397 H 494.837 2.0345 -0.610076 0
M  V30 5398 H 497.1 0.924034 -0.211813 0
M  V30 5399 H 496.806 3.51142 -0.19802 0
M  V30 5400 H 496.68 3.43851 1.55069 0
M  V30 5401 H 499.067 2.45101 1.64346 0
M  V30 5402 H 499.148 2.55513 -0.121034 0
M  V30 5403 H 498.792 5.07889 0.0338586 0
M  V30 5404 H 498.722 4.94553 1.809 0
M  V30 5405 H 501.213 3.66737 0.91173 0
M  V30 5406 H 501.526 7.62598 1.25155 0
M  V30 5407 H 499.871 6.85712 1.13241 0
M  V30 5408 H 503.062 4.56231 1.0474 0
M  V30 5409 H 503.235 6.36743 1.20259 0
M  V30 5410 N 496.642 -0.504142 1.49319 0
M  V30 5411 C 497.592 -1.60284 1.62151 0
M  V30 5412 C 498.576 -1.53657 0.477315 0
M  V30 5413 O 499.768 -1.6124 0.730108 0
M  V30 5414 C 496.897 -2.98909 1.68844 0
M  V30 5415 C 495.983 -3.10544 2.8883 0
M  V30 5416 N 496.374 -2.92078 4.12946 0
M  V30 5417 C 494.672 -3.4164 2.86702 0
M  V30 5418 C 495.373 -3.07812 4.93585 0
M  V30 5419 N 494.349 -3.36549 4.26891 0
M  V30 5420 H 498.151 -1.44656 2.55835 0
M  V30 5421 H 495.665 -0.710198 1.46048 0
M  V30 5422 H 497.662 -3.77865 1.76134 0
M  V30 5423 H 496.322 -3.15609 0.762943 0
M  V30 5424 H 497.333 -2.68316 4.42975 0
M  V30 5425 H 494.01 -3.64537 2.03517 0
M  V30 5426 H 495.4 -2.98054 6.02174 0
M  V30 5427 N 498.12 -1.38341 -0.754957 0
M  V30 5428 C 499.05 -1.38176 -1.88227 0
M  V30 5429 C 500.031 -0.247873 -1.68284 0
M  V30 5430 O 501.216 -0.45075 -1.88896 0
M  V30 5431 C 498.346 -1.20471 -3.25736 0
M  V30 5432 C 497.3 -2.3105 -3.60278 0
M  V30 5433 C 496.626 -1.98452 -4.96509 0
M  V30 5434 C 497.926 -3.73305 -3.65295 0
M  V30 5435 H 499.62 -2.32512 -1.88622 0
M  V30 5436 H 497.166 -1.1192 -0.906082 0
M  V30 5437 H 499.119 -1.18982 -4.04254 0
M  V30 5438 H 497.843 -0.225965 -3.25817 0
M  V30 5439 H 496.502 -2.31723 -2.84078 0
M  V30 5440 H 496.15 -0.990641 -4.93148 0
M  V30 5441 H 495.85 -2.7251 -5.20588 0
M  V30 5442 H 497.374 -1.98578 -5.77407 0
M  V30 5443 H 498.788 -3.7467 -4.3393 0
M  V30 5444 H 497.185 -4.46557 -4.00883 0
M  V30 5445 H 498.255 -4.05719 -2.65556 0
M  V30 5446 N 499.598 0.982988 -1.23187 0
M  V30 5447 C 500.528 2.09301 -1.03515 0
M  V30 5448 C 501.509 1.70035 0.0471136 0
M  V30 5449 O 502.694 1.93847 -0.117029 0
M  V30 5450 C 499.824 3.4167 -0.622791 0
M  V30 5451 C 498.778 3.94828 -1.65211 0
M  V30 5452 C 498.104 5.23362 -1.09527 0
M  V30 5453 C 499.404 4.2439 -3.04451 0
M  V30 5454 H 501.098 2.26016 -1.96359 0
M  V30 5455 H 498.644 1.08611 -0.945501 0
M  V30 5456 H 500.597 4.18746 -0.472233 0
M  V30 5457 H 499.321 3.24811 0.341329 0
M  V30 5458 H 497.98 3.19895 -1.79061 0
M  V30 5459 H 497.628 5.02852 -0.122211 0
M  V30 5460 H 497.328 5.59895 -1.783 0
M  V30 5461 H 498.852 6.03062 -0.956511 0
M  V30 5462 H 500.266 4.92225 -2.93917 0
M  V30 5463 H 498.663 4.72118 -3.70438 0
M  V30 5464 H 499.733 3.31765 -3.53638 0
M  V30 5465 N 501.076 1.04316 1.18135 0
M  V30 5466 C 502.006 0.657299 2.24058 0
M  V30 5467 C 502.987 -0.340678 1.66654 0
M  V30 5468 O 504.172 -0.220223 1.92947 0
M  V30 5469 C 501.302 0.0220715 3.47293 0
M  V30 5470 C 500.256 0.943857 4.17463 0
M  V30 5471 C 499.582 0.172973 5.3442 0
M  V30 5472 C 500.882 2.26409 4.70677 0
M  V30 5473 H 502.576 1.5428 2.56589 0
M  V30 5474 H 500.122 0.743263 1.23335 0
M  V30 5475 H 502.075 -0.259607 4.206 0
M  V30 5476 H 500.799 -0.898323 3.14003 0
M  V30 5477 H 499.458 1.20996 3.46057 0
M  V30 5478 H 499.106 -0.749907 4.97379 0
M  V30 5479 H 498.806 0.787098 5.82304 0
M  V30 5480 H 500.33 -0.101628 6.10515 0
M  V30 5481 H 501.744 2.04294 5.35665 0
M  V30 5482 H 500.141 2.8314 5.29105 0
M  V30 5483 H 501.211 2.90883 3.87962 0
M  V30 5484 N 502.554 -1.34406 0.822964 0
M  V30 5485 C 503.831 -1.92733 0.333641 0
M  V30 5486 C 504.211 -1.75107 -1.17901 0
M  V30 5487 O 503.559 -1.12983 -1.98613 0
M  V30 5488 C 503.769 -3.40557 0.763023 0
M  V30 5489 C 505.117 -4.17709 0.761879 0
M  V30 5490 O 506.141 -3.49141 0.705606 0
M  V30 5491 O 505 -5.40082 0.835109 0
M  V30 5492 H 502.094 -0.821964 0.0911249 0
M  V30 5493 H 504.64 -1.4338 0.907757 0
M  V30 5494 H 503.412 -3.47187 1.8049 0
M  V30 5495 H 503.035 -3.97259 0.164605 0
M  V30 5496 N 504.032 -0.577932 -1.46621 0
M  V30 5497 C 505.28 -0.061566 -2.02006 0
M  V30 5498 C 505.601 1.30117 -1.4524 0
M  V30 5499 O 504.871 1.85313 -0.63529 0
M  V30 5500 H 503.451 -0.0197692 -0.746738 0
M  V30 5501 H 506.113 -0.752631 -1.79782 0
M  V30 5502 H 505.209 0.0110238 -3.12098 0
M  V30 5503 N 505.51 1.54411 -0.315457 0
M  V30 5504 C 506.787 1.92562 0.343398 0
M  V30 5505 C 507.167 1.24423 1.70535 0
M  V30 5506 O 506.515 0.385051 2.25232 0
M  V30 5507 C 506.725 3.46168 0.443687 0
M  V30 5508 C 508.073 4.18659 0.707783 0
M  V30 5509 O 509.097 3.52281 0.52693 0
M  V30 5510 O 507.956 5.36198 1.05612 0
M  V30 5511 H 505.05 0.80379 0.194552 0
M  V30 5512 H 507.596 1.65738 -0.364577 0
M  V30 5513 H 506.368 3.8792 -0.513172 0
M  V30 5514 H 505.991 3.79073 1.19956 0
M  V30 5515 N 506.988 0.0434614 1.5754 0
M  V30 5516 C 508.404 -0.313039 1.565 0
M  V30 5517 C 508.604 -1.71954 1.05043 0
M  V30 5518 O 507.66 -2.425 0.703564 0
M  V30 5519 C 508.973 -0.148544 3.00333 0
M  V30 5520 C 510.521 -0.220231 3.12224 0
M  V30 5521 C 510.996 -0.0843565 4.57922 0
M  V30 5522 N 512.487 -0.140881 4.62986 0
M  V30 5523 C 513.222 -0.0597443 5.73369 0
M  V30 5524 N 512.718 0.0733004 6.92761 0
M  V30 5525 N 514.511 -0.11477 5.61983 0
M  V30 5526 H 506.662 0.96303 1.89313 0
M  V30 5527 H 508.925 0.373164 0.871466 0
M  V30 5528 H 508.631 0.820894 3.41986 0
M  V30 5529 H 508.505 -0.912798 3.65989 0
M  V30 5530 H 510.892 -1.18014 2.70475 0
M  V30 5531 H 510.973 0.574646 2.49262 0
M  V30 5532 H 510.617 0.872192 5.00355 0
M  V30 5533 H 510.547 -0.898281 5.18882 0
M  V30 5534 H 513.038 -0.243273 3.77116 0
M  V30 5535 H 513.351 0.128128 7.72694 0
M  V30 5536 H 511.696 0.10828 6.94916 0
M  V30 5537 H 514.887 -0.217212 4.67596 0
M  V30 5538 H 515.06 -0.0480779 6.47982 0
M  V30 5539 N 508.466 -1.55915 -0.229846 0
M  V30 5540 C 509.429 -1.90914 -1.26824 0
M  V30 5541 C 510.429 -0.786999 -1.40225 0
M  V30 5542 O 511.619 -1.05484 -1.38632 0
M  V30 5543 C 508.751 -2.15264 -2.64337 0
M  V30 5544 H 509.944 -2.8378 -0.969998 0
M  V30 5545 H 507.497 -1.49069 -0.4699 0
M  V30 5546 H 508.232 -1.24923 -2.99274 0
M  V30 5547 H 508.017 -2.97005 -2.55989 0
M  V30 5548 H 509.507 -2.43467 -3.39284 0
M  V30 5549 N 509.944 0.496216 -1.49584 0
M  V30 5550 C 511.19 1.25189 -1.59548 0
M  V30 5551 C 511.523 1.9212 -0.283466 0
M  V30 5552 O 510.798 1.80947 0.713324 0
M  V30 5553 C 511.081 2.31516 -2.75812 0
M  V30 5554 C 510.934 1.69054 -4.16822 0
M  V30 5555 C 512.253 3.3304 -2.87702 0
M  V30 5556 H 509.372 0.45379 -0.580727 0
M  V30 5557 H 512.014 0.549327 -1.81886 0
M  V30 5558 H 510.164 2.91438 -2.56897 0
M  V30 5559 H 511.836 1.12923 -4.47265 0
M  V30 5560 H 510.079 0.994485 -4.22247 0
M  V30 5561 H 510.75 2.462 -4.94054 0
M  V30 5562 H 513.226 2.83114 -3.04936 0
M  V30 5563 H 512.102 4.04794 -3.7072 0
M  V30 5564 H 512.363 3.95655 -1.97255 0
M  V30 5565 N 511.423 1.38739 0.74761 0
M  V30 5566 C 512.371 1.36573 1.88283 0
M  V30 5567 C 513.365 0.250712 1.67534 0
M  V30 5568 O 514.571 0.420073 1.7503 0
M  V30 5569 H 510.946 0.42619 0.619569 0
M  V30 5570 H 512.917 2.32356 1.87226 0
M  V30 5571 C 511.666 1.21361 3.25832 0
M  V30 5572 H 510.989 2.06424 3.42388 0
M  V30 5573 H 512.429 1.23901 4.05493 0
M  V30 5574 C 510.888 -0.0790099 3.36807 0
M  V30 5575 O 511.418 -1.05385 3.8763 0
M  V30 5576 N 509.624 -0.13785 2.90273 0
M  V30 5577 H 509.171 0.656128 2.49104 0
M  V30 5578 H 509.129 -1.00228 2.97996 0
M  V30 5579 N 512.901 -0.976442 1.23707 0
M  V30 5580 C 513.831 -2.08749 1.04624 0
M  V30 5581 C 514.812 -1.70057 -0.0380956 0
M  V30 5582 O 515.997 -1.93782 0.127308 0
M  V30 5583 C 513.127 -3.41335 0.640902 0
M  V30 5584 C 512.081 -3.93947 1.67302 0
M  V30 5585 C 511.407 -5.22774 1.12301 0
M  V30 5586 C 512.707 -4.22769 3.06697 0
M  V30 5587 H 514.401 -2.24972 1.97555 0
M  V30 5588 H 511.947 -1.08108 0.951247 0
M  V30 5589 H 513.9 -4.18489 0.494434 0
M  V30 5590 H 512.624 -3.24988 -0.324099 0
M  V30 5591 H 511.283 -3.18941 1.80755 0
M  V30 5592 H 510.931 -5.0278 0.148877 0
M  V30 5593 H 510.631 -5.58942 1.81267 0
M  V30 5594 H 512.155 -6.02546 0.988479 0
M  V30 5595 H 513.569 -4.90659 2.96524 0
M  V30 5596 H 511.966 -4.70147 3.72937 0
M  V30 5597 H 513.036 -3.29885 3.55392 0
M  V30 5598 N 514.379 -1.04941 -1.1758 0
M  V30 5599 C 515.311 -0.606174 -2.21039 0
M  V30 5600 C 516.324 0.328763 -1.59446 0
M  V30 5601 O 517.513 0.121895 -1.78083 0
M  V30 5602 C 514.613 0.133294 -3.38638 0
M  V30 5603 C 513.786 -0.811711 -4.29802 0
M  V30 5604 C 512.845 -0.113958 -5.26077 0
M  V30 5605 O 511.871 -0.747237 -5.64274 0
M  V30 5606 N 513.073 1.14953 -5.69004 0
M  V30 5607 H 515.838 -1.49606 -2.59689 0
M  V30 5608 H 513.399 -0.930997 -1.32454 0
M  V30 5609 H 515.391 0.610144 -4.00074 0
M  V30 5610 H 513.961 0.924816 -2.98607 0
M  V30 5611 H 513.181 -1.46824 -3.65837 0
M  V30 5612 H 514.469 -1.45326 -4.87604 0
M  V30 5613 H 513.867 1.68441 -5.40041 0
M  V30 5614 H 512.424 1.57049 -6.32597 0
M  V30 5615 N 515.857 1.33968 -0.830081 0
M  V30 5616 C 517.105 1.97672 -0.420734 0
M  V30 5617 C 517.426 1.66111 1.02138 0
M  V30 5618 O 516.696 0.955503 1.71017 0
M  V30 5619 H 515.276 0.73125 -0.152587 0
M  V30 5620 H 517.938 1.63483 -1.0611 0
M  V30 5621 H 517.034 3.07294 -0.545588 0
M  V30 5622 N 517.335 0.585699 1.46312 0
M  V30 5623 C 518.581 0.0808731 2.03239 0
M  V30 5624 C 518.936 -1.26609 1.44872 0
M  V30 5625 O 518.229 -1.81779 0.60556 0
M  V30 5626 C 518.423 -0.0401312 3.57377 0
M  V30 5627 C 518.252 1.29356 4.30694 0
M  V30 5628 C 517.022 1.86849 4.69484 0
M  V30 5629 C 519.22 2.21742 4.64042 0
M  V30 5630 N 517.202 3.13926 5.27564 0
M  V30 5631 C 518.573 3.33408 5.22723 0
M  V30 5632 C 520.628 2.21386 4.45974 0
M  V30 5633 C 519.331 4.44852 5.65242 0
M  V30 5634 C 521.357 3.31862 4.89511 0
M  V30 5635 C 520.719 4.42248 5.48266 0
M  V30 5636 H 516.818 0.072443 0.778637 0
M  V30 5637 H 519.402 0.779254 1.78426 0
M  V30 5638 H 517.573 -0.707686 3.81898 0
M  V30 5639 H 519.305 -0.549615 4.00951 0
M  V30 5640 H 516.06 1.40307 4.52339 0
M  V30 5641 H 516.484 3.78775 5.61122 0
M  V30 5642 H 521.126 1.37314 3.99881 0
M  V30 5643 H 518.844 5.29665 6.10312 0
M  V30 5644 H 522.43 3.32708 4.7728 0
M  V30 5645 H 521.31 5.26323 5.81338 0
M  V30 5646 N 518.813 -1.54241 0.323641 0
M  V30 5647 C 519.745 -2.21836 -0.576311 0
M  V30 5648 C 520.758 -1.21837 -1.07979 0
M  V30 5649 O 521.947 -1.48306 -0.99336 0
M  V30 5650 C 519.047 -2.86923 -1.80356 0
M  V30 5651 C 518.22 -4.1306 -1.43875 0
M  V30 5652 C 517.279 -4.6174 -2.52353 0
M  V30 5653 O 516.305 -5.26421 -2.16494 0
M  V30 5654 N 517.507 -4.35974 -3.83284 0
M  V30 5655 H 520.272 -2.997 0.00247987 0
M  V30 5656 H 517.833 -1.61233 0.146848 0
M  V30 5657 H 519.825 -3.16414 -2.52318 0
M  V30 5658 H 518.395 -2.12765 -2.29019 0
M  V30 5659 H 517.615 -3.90334 -0.550752 0
M  V30 5660 H 518.903 -4.95148 -1.17071 0
M  V30 5661 H 518.301 -3.84203 -4.15216 0
M  V30 5662 H 516.858 -4.70119 -4.51477 0
M  V30 5663 N 520.291 -0.0518155 -1.57515 0
M  V30 5664 C 521.537 0.616839 -1.93821 0
M  V30 5665 C 521.892 1.68413 -0.930307 0
M  V30 5666 O 521.185 1.91534 0.0504231 0
M  V30 5667 C 521.379 1.25607 -3.34601 0
M  V30 5668 C 521.208 0.252222 -4.48992 0
M  V30 5669 C 519.978 -0.156031 -5.05059 0
M  V30 5670 C 522.176 -0.502613 -5.11838 0
M  V30 5671 N 520.158 -1.15267 -6.02981 0
M  V30 5672 C 521.529 -1.35232 -6.05072 0
M  V30 5673 C 523.584 -0.560855 -4.94731 0
M  V30 5674 C 522.287 -2.25505 -6.83037 0
M  V30 5675 C 524.313 -1.45102 -5.73323 0
M  V30 5676 C 523.675 -2.28845 -6.6619 0
M  V30 5677 H 519.774 0.197344 -0.75669 0
M  V30 5678 H 522.358 -0.124297 -1.94303 0
M  V30 5679 H 520.529 1.96723 -3.34895 0
M  V30 5680 H 522.261 1.88358 -3.58195 0
M  V30 5681 H 519.016 0.22306 -4.73074 0
M  V30 5682 H 519.44 -1.64791 -6.56638 0
M  V30 5683 H 524.082 0.0723639 -4.22738 0
M  V30 5684 H 521.8 -2.89872 -7.54321 0
M  V30 5685 H 525.386 -1.50066 -5.62113 0
M  V30 5686 H 524.266 -2.96608 -7.25943 0
M  V30 5687 N 521.769 1.56035 0.221574 0
M  V30 5688 C 522.732 1.91584 1.2581 0
M  V30 5689 C 523.732 0.794425 1.39805 0
M  V30 5690 O 524.922 1.06217 1.38071 0
M  V30 5691 C 522.054 2.16663 2.63192 0
M  V30 5692 H 523.247 2.8429 0.954935 0
M  V30 5693 H 520.8 1.49316 0.461988 0
M  V30 5694 H 521.535 1.26508 2.98607 0
M  V30 5695 H 521.32 2.98358 2.5441 0
M  V30 5696 H 522.81 2.45262 3.37988 0
M  V30 5697 N 523.247 -0.488276 1.49845 0
M  V30 5698 C 524.495 -1.23911 1.59657 0
M  V30 5699 C 524.816 -1.92816 0.291005 0
M  V30 5700 O 524.086 -1.83328 -0.690485 0
M  V30 5701 H 522.666 -0.460357 0.588286 0
M  V30 5702 H 525.328 -0.564794 1.86537 0
M  V30 5703 H 524.424 -1.99625 2.39909 0
M  V30 5704 N 524.725 -1.39134 -0.740242 0
M  V30 5705 C 525.973 -1.35803 -1.49673 0
M  V30 5706 C 526.294 0.0470897 -1.94943 0
M  V30 5707 O 525.564 0.997347 -1.68611 0
M  V30 5708 H 524.144 -0.499736 -0.555224 0
M  V30 5709 H 526.806 -1.73947 -0.879107 0
M  V30 5710 H 525.902 -2.0174 -2.38133 0
M  V30 5711 N 526.204 0.969867 -1.24223 0
M  V30 5712 C 527.134 2.08191 -1.05729 0
M  V30 5713 C 528.115 1.70075 0.0290765 0
M  V30 5714 O 529.3 1.93712 -0.137583 0
M  V30 5715 C 526.43 3.40991 -0.658995 0
M  V30 5716 C 525.384 3.93054 -1.69389 0
M  V30 5717 C 524.71 5.22171 -1.15072 0
M  V30 5718 C 526.01 4.21137 -3.08935 0
M  V30 5719 H 527.704 2.23921 -1.98746 0
M  V30 5720 H 525.25 1.07602 -0.956967 0
M  V30 5721 H 527.203 4.18221 -0.51662 0
M  V30 5722 H 525.927 3.25155 0.30686 0
M  V30 5723 H 524.586 3.17977 -1.82444 0
M  V30 5724 H 524.234 5.02694 -0.175539 0
M  V30 5725 H 523.934 5.57973 -1.84229 0
M  V30 5726 H 525.458 6.02013 -1.02042 0
M  V30 5727 H 526.872 4.8908 -2.99121 0
M  V30 5728 H 525.269 4.68163 -3.75425 0
M  V30 5729 H 526.339 3.27996 -3.57137 0
M  V30 5730 N 527.682 1.05563 1.17022 0
M  V30 5731 C 528.93 0.76642 1.87004 0
M  V30 5732 C 529.251 -0.708854 1.8166 0
M  V30 5733 O 528.521 -1.51242 1.2451 0
M  V30 5734 H 527.101 0.280516 0.692329 0
M  V30 5735 H 529.763 1.33557 1.41945 0
M  V30 5736 H 528.859 1.08472 2.92644 0
M  V30 5737 N 529.16 -1.33526 0.837174 0
M  V30 5738 C 530.406 -1.9813 0.432704 0
M  V30 5739 C 530.739 -1.66168 -1.00508 0
M  V30 5740 O 530.014 -0.94069 -1.70239 0
M  V30 5741 C 530.297 -3.54151 0.651834 0
M  V30 5742 C 530.15 -3.95806 2.13676 0
M  V30 5743 C 531.469 -4.39993 0.0968937 0
M  V30 5744 H 528.588 -0.719713 0.15869 0
M  V30 5745 H 531.23 -1.58193 1.05237 0
M  V30 5746 H 529.38 -3.88301 0.124369 0
M  V30 5747 H 531.052 -3.71921 2.72896 0
M  V30 5748 H 529.295 -3.45599 2.62191 0
M  V30 5749 H 529.966 -5.0447 2.24084 0
M  V30 5750 H 532.442 -4.12479 0.547733 0
M  V30 5751 H 531.318 -5.48186 0.279917 0
M  V30 5752 H 531.579 -4.3066 -0.9992 0
M  V30 5753 N 530.638 -0.59345 -1.46 0
M  V30 5754 C 531.915 -0.0157933 -1.95594 0
M  V30 5755 C 532.295 1.44807 -1.53604 0
M  V30 5756 O 531.643 2.14342 -0.791824 0
M  V30 5757 C 531.853 -0.199081 -3.48432 0
M  V30 5758 C 533.201 -0.0724943 -4.24538 0
M  V30 5759 O 534.225 -0.128469 -3.55968 0
M  V30 5760 O 533.084 0.0542426 -5.46473 0
M  V30 5761 H 530.178 0.043749 -0.825842 0
M  V30 5762 H 532.724 -0.662522 -1.56233 0
M  V30 5763 H 531.496 -1.21631 -3.71916 0
M  V30 5764 H 531.119 0.483576 -3.94648 0
M  V30 5765 N 532.116 1.54067 -0.331816 0
M  V30 5766 C 533.079 2.23275 0.517768 0
M  V30 5767 C 534.079 1.22897 1.03697 0
M  V30 5768 O 535.269 1.47419 0.928084 0
M  V30 5769 C 532.401 2.94326 1.72004 0
M  V30 5770 H 533.594 2.99773 -0.0873507 0
M  V30 5771 H 531.147 1.56079 -0.0830042 0
M  V30 5772 H 531.882 2.21986 2.36417 0
M  V30 5773 H 531.667 3.67941 1.35507 0
M  V30 5774 H 533.157 3.47031 2.32291 0
M  V30 5775 N 533.594 0.0601682 1.57485 0
M  V30 5776 C 534.557 -0.896373 2.10945 0
M  V30 5777 C 535.557 -1.23402 1.03095 0
M  V30 5778 O 536.747 -1.16921 1.29132 0
M  V30 5779 C 533.879 -2.20346 2.60116 0
M  V30 5780 H 535.072 -0.432778 2.96761 0
M  V30 5781 H 532.625 -0.188372 1.55161 0
M  V30 5782 H 533.36 -2.71268 1.7772 0
M  V30 5783 H 533.145 -1.9714 3.38937 0
M  V30 5784 H 534.635 -2.88846 3.01592 0
M  V30 5785 N 535.072 -1.5615 -0.213296 0
M  V30 5786 C 536.483 -1.69645 -0.779582 0
M  V30 5787 C 536.834 -0.663615 -1.84636 0
M  V30 5788 O 535.959 0.183633 -2.15619 0
M  V30 5789 C 536.554 -3.07567 -1.42084 0
M  V30 5790 C 535.113 -3.22889 -1.93442 0
M  V30 5791 C 534.26 -2.65581 -0.797612 0
M  V30 5792 H 537.211 -1.58696 0.0114951 0
M  V30 5793 H 537.232 -3.03884 -2.28986 0
M  V30 5794 H 536.744 -3.82716 -0.644187 0
M  V30 5795 H 534.845 -2.52623 -2.73884 0
M  V30 5796 H 534.958 -4.30197 -2.10872 0
M  V30 5797 H 533.322 -2.24278 -1.20712 0
M  V30 5798 H 534.105 -3.43284 -0.033494 0
M  V30 5799 N 536.55 0.480323 -1.50102 0
M  V30 5800 C 537.78 1.25475 -1.64133 0
M  V30 5801 C 538.188 1.8647 -0.320272 0
M  V30 5802 O 537.531 1.69561 0.70673 0
M  V30 5803 C 537.593 2.40996 -2.6676 0
M  V30 5804 C 537.257 2.00711 -4.10565 0
M  V30 5805 C 538.254 1.53492 -4.96725 0
M  V30 5806 C 535.939 2.09714 -4.56427 0
M  V30 5807 C 537.933 1.15806 -6.26792 0
M  V30 5808 C 535.62 1.7164 -5.86501 0
M  V30 5809 C 536.618 1.24763 -6.71508 0
M  V30 5810 O 536.306 0.872122 -7.99155 0
M  V30 5811 H 536.038 0.385983 -0.554971 0
M  V30 5812 H 538.592 0.580848 -1.97016 0
M  V30 5813 H 536.822 3.11528 -2.291 0
M  V30 5814 H 538.511 3.02981 -2.70106 0
M  V30 5815 H 539.277 1.45966 -4.62514 0
M  V30 5816 H 535.156 2.4515 -3.90413 0
M  V30 5817 H 538.7 0.791465 -6.93096 0
M  V30 5818 H 534.597 1.78822 -6.20236 0
M  V30 5819 H 535.365 1.00178 -8.12346 0
M  V30 5820 N 538.028 1.39524 0.732853 0
M  V30 5821 C 539.275 1.36865 1.49246 0
M  V30 5822 C 539.603 -0.0347118 1.94469 0
M  V30 5823 O 538.858 -1.01596 1.67262 0
M  V30 5824 C 539.157 2.28916 2.74468 0
M  V30 5825 C 538.823 3.76506 2.481 0
M  V30 5826 C 537.485 4.16721 2.40619 0
M  V30 5827 C 539.837 4.69846 2.25598 0
M  V30 5828 C 537.165 5.48334 2.08679 0
M  V30 5829 C 539.517 6.01739 1.95174 0
M  V30 5830 C 538.181 6.41015 1.86163 0
M  V30 5831 H 537.451 0.500824 0.546129 0
M  V30 5832 H 540.098 1.72047 0.840958 0
M  V30 5833 H 538.403 1.86859 3.4437 0
M  V30 5834 H 540.1 2.2415 3.32502 0
M  V30 5835 H 536.69 3.44635 2.54803 0
M  V30 5836 H 540.874 4.39608 2.30344 0
M  V30 5837 H 536.13 5.77685 2.00226 0
M  V30 5838 H 540.304 6.73591 1.76771 0
M  V30 5839 H 537.931 7.42917 1.61179 0
M  V30 5840 N 539.506 -0.963266 1.24736 0
M  V30 5841 C 540.922 -1.23273 1.01371 0
M  V30 5842 C 541.122 -1.99618 -0.274776 0
M  V30 5843 O 540.178 -2.32293 -0.989769 0
M  V30 5844 C 541.491 -2.01554 2.23152 0
M  V30 5845 C 543.039 -2.14629 2.27823 0
M  V30 5846 C 543.514 -2.96307 3.49237 0
M  V30 5847 N 545.005 -3.03887 3.49581 0
M  V30 5848 C 545.74 -3.67456 4.40186 0
M  V30 5849 N 545.236 -4.32706 5.41052 0
M  V30 5850 N 547.029 -3.64511 4.27888 0
M  V30 5851 H 539.18 -0.452294 2.07528 0
M  V30 5852 H 541.443 -0.262521 0.910926 0
M  V30 5853 H 541.149 -1.52847 3.1675 0
M  V30 5854 H 541.023 -3.02278 2.25628 0
M  V30 5855 H 543.41 -2.62537 1.34753 0
M  V30 5856 H 543.491 -1.13238 2.2937 0
M  V30 5857 H 543.135 -2.49091 4.42624 0
M  V30 5858 H 543.065 -3.97905 3.44933 0
M  V30 5859 H 545.556 -2.57477 2.76611 0
M  V30 5860 H 545.869 -4.79042 6.06415 0
M  V30 5861 H 544.214 -4.31361 5.44934 0
M  V30 5862 H 547.405 -3.12715 3.4832 0
M  V30 5863 H 547.578 -4.13768 4.98698 0
M  V30 5864 N 540.985 -1.06182 -1.16461 0
M  V30 5865 C 542.231 -0.779015 -1.87241 0
M  V30 5866 C 542.564 0.692715 -1.81425 0
M  V30 5867 O 541.839 1.5074 -1.22913 0
M  V30 5868 C 542.122 -1.2728 -3.36856 0
M  V30 5869 C 541.975 -2.80821 -3.51368 0
M  V30 5870 C 543.294 -0.879799 -4.31216 0
M  V30 5871 H 540.413 -0.284464 -0.679889 0
M  V30 5872 H 543.055 -1.31755 -1.36896 0
M  V30 5873 H 541.205 -0.814673 -3.79862 0
M  V30 5874 H 542.877 -3.34833 -3.17308 0
M  V30 5875 H 541.12 -3.19606 -2.93316 0
M  V30 5876 H 541.791 -3.10435 -4.56436 0
M  V30 5877 H 544.267 -1.27436 -3.96105 0
M  V30 5878 H 543.143 -1.25278 -5.34412 0
M  V30 5879 H 543.404 0.215372 -4.41575 0
M  V30 5880 N 542.463 1.3308 -0.844243 0
M  V30 5881 C 543.71 1.97605 -0.44255 0
M  V30 5882 C 544.038 1.66856 0.999458 0
M  V30 5883 O 543.293 0.943586 1.7145 0
M  V30 5884 C 543.592 3.52045 -0.616354 0
M  V30 5885 C 543.258 4.02757 -2.02726 0
M  V30 5886 C 541.92 4.16316 -2.41317 0
M  V30 5887 C 544.272 4.29776 -2.9486 0
M  V30 5888 C 541.6 4.54232 -3.71335 0
M  V30 5889 C 543.952 4.69146 -4.24364 0
M  V30 5890 C 542.616 4.80911 -4.62904 0
M  V30 5891 H 541.886 0.723088 -0.161941 0
M  V30 5892 H 544.533 1.58663 -1.0723 0
M  V30 5893 H 542.838 3.91681 0.0966812 0
M  V30 5894 H 544.535 3.99981 -0.285756 0
M  V30 5895 H 541.125 3.9268 -1.71756 0
M  V30 5896 H 545.309 4.18818 -2.6628 0
M  V30 5897 H 540.565 4.61535 -4.00993 0
M  V30 5898 H 544.739 4.89008 -4.95827 0
M  V30 5899 H 542.366 5.10048 -5.63698 0
M  V30 5900 N 543.941 0.601185 1.45683 0
M  V30 5901 C 544.889 -0.133955 2.32214 0
M  V30 5902 C 545.883 -0.866034 1.45589 0
M  V30 5903 O 547.089 -0.782326 1.6211 0
M  V30 5904 H 543.464 -0.0620613 0.749435 0
M  V30 5905 H 545.435 0.614389 2.92007 0
M  V30 5906 C 544.184 -1.12216 3.29094 0
M  V30 5907 H 543.507 -0.568273 3.95741 0
M  V30 5908 H 544.947 -1.60659 3.92383 0
M  V30 5909 C 543.406 -2.19251 2.55794 0
M  V30 5910 O 543.936 -3.26894 2.33459 0
M  V30 5911 N 542.142 -1.9436 2.16039 0
M  V30 5912 H 541.689 -1.06829 2.34404 0
M  V30 5913 H 541.647 -2.66181 1.67318 0
M  V30 5914 N 545.419 -1.53889 0.339982 0
M  V30 5915 C 546.83 -1.86139 -0.144671 0
M  V30 5916 C 547.181 -1.2613 -1.50285 0
M  V30 5917 O 546.306 -0.573515 -2.08662 0
M  V30 5918 C 546.901 -3.37728 -0.269285 0
M  V30 5919 C 545.46 -3.69868 -0.698168 0
M  V30 5920 C 544.607 -2.76777 0.170249 0
M  V30 5921 H 547.558 -1.48503 0.559704 0
M  V30 5922 H 547.579 -3.64331 -1.0974 0
M  V30 5923 H 547.091 -3.81375 0.719366 0
M  V30 5924 H 545.192 -3.31764 -1.69597 0
M  V30 5925 H 545.305 -4.76582 -0.490533 0
M  V30 5926 H 543.669 -2.52188 -0.356844 0
M  V30 5927 H 544.452 -3.23253 1.15597 0
M  V30 5928 N 546.897 -0.0685191 -1.57451 0
M  V30 5929 C 548.143 0.602239 -1.93652 0
M  V30 5930 C 548.476 1.6946 -0.948526 0
M  V30 5931 O 547.751 1.94487 0.022782 0
M  V30 5932 C 548.034 1.18223 -3.4014 0
M  V30 5933 C 547.887 0.0967431 -4.49696 0
M  V30 5934 C 549.206 2.08872 -3.87377 0
M  V30 5935 H 546.325 0.217453 -0.70419 0
M  V30 5936 H 548.967 -0.133821 -1.89528 0
M  V30 5937 H 547.117 1.80953 -3.43785 0
M  V30 5938 H 548.789 -0.536155 -4.58174 0
M  V30 5939 H 547.032 -0.573063 -4.29998 0
M  V30 5940 H 547.703 0.542894 -5.49324 0
M  V30 5941 H 550.179 1.56081 -3.85717 0
M  V30 5942 H 549.055 2.46389 -4.90493 0
M  V30 5943 H 549.316 2.99572 -3.25129 0
M  V30 5944 N 548.375 1.56261 0.205012 0
M  V30 5945 C 549.305 1.96779 1.257 0
M  V30 5946 C 550.286 0.838309 1.48008 0
M  V30 5947 O 551.471 1.10189 1.59913 0
M  V30 5948 C 548.601 2.29876 2.60335 0
M  V30 5949 C 547.555 3.45469 2.52656 0
M  V30 5950 C 546.881 3.64215 3.91473 0
M  V30 5951 C 548.181 4.79954 2.06014 0
M  V30 5952 H 549.875 2.84904 0.920338 0
M  V30 5953 H 547.421 1.37072 0.441277 0
M  V30 5954 H 549.374 2.56814 3.34102 0
M  V30 5955 H 548.098 1.38622 2.95722 0
M  V30 5956 H 546.757 3.18605 1.81345 0
M  V30 5957 H 546.405 2.70309 4.24196 0
M  V30 5958 H 546.105 4.41973 3.87213 0
M  V30 5959 H 547.629 3.93519 4.66878 0
M  V30 5960 H 549.043 5.05989 2.69533 0
M  V30 5961 H 547.44 5.61111 2.12777 0
M  V30 5962 H 548.51 4.74201 1.01297 0
M  V30 5963 N 549.853 -0.472356 1.50355 0
M  V30 5964 C 550.785 -1.58795 1.65278 0
M  V30 5965 C 551.798 -1.53782 0.534313 0
M  V30 5966 O 552.987 -1.59193 0.807446 0
M  V30 5967 C 550.087 -2.97672 1.62001 0
M  V30 5968 C 549.26 -3.27568 2.89859 0
M  V30 5969 C 548.319 -4.45993 2.79242 0
M  V30 5970 O 547.345 -4.46364 3.53197 0
M  V30 5971 N 548.547 -5.47578 1.92713 0
M  V30 5972 H 551.312 -1.46411 2.61503 0
M  V30 5973 H 548.873 -0.660751 1.47803 0
M  V30 5974 H 550.865 -3.74862 1.52513 0
M  V30 5975 H 549.435 -3.03832 0.735159 0
M  V30 5976 H 548.655 -2.39003 3.13483 0
M  V30 5977 H 549.943 -3.44352 3.74565 0
M  V30 5978 H 549.341 -5.50099 1.31939 0
M  V30 5979 H 547.898 -6.23757 1.8913 0
M  V30 5980 N 551.331 -1.39911 -0.725443 0
M  V30 5981 C 552.579 -1.37382 -1.48224 0
M  V30 5982 C 552.9 0.0264107 -1.94982 0
M  V30 5983 O 552.17 0.979408 -1.6966 0
M  V30 5984 H 550.75 -0.505596 -0.549892 0
M  V30 5985 H 553.412 -1.7487 -0.860608 0
M  V30 5986 H 552.508 -2.04254 -2.3598 0
M  V30 5987 N 552.809 0.956637 -1.25245 0
M  V30 5988 C 553.719 2.0868 -1.0719 0
M  V30 5989 C 554.735 1.73997 -0.00959074 0
M  V30 5990 O 555.911 2.00301 -0.210104 0
M  V30 5991 C 552.976 3.39754 -0.690526 0
M  V30 5992 C 552.037 3.88316 -1.83055 0
M  V30 5993 C 551.27 5.13134 -1.46728 0
M  V30 5994 O 551.493 5.6925 -0.362029 0
M  V30 5995 O 550.427 5.56356 -2.29677 0
M  V30 5996 H 554.253 2.26813 -2.01965 0
M  V30 5997 H 551.838 1.07098 -1.04165 0
M  V30 5998 H 553.72 4.18543 -0.489871 0
M  V30 5999 H 552.395 3.22896 0.227981 0
M  V30 6000 H 551.302 3.1054 -2.08604 0
M  V30 6001 H 552.635 4.09669 -2.72822 0
M  V30 6002 N 554.287 1.06798 1.15896 0
M  V30 6003 C 555.703 0.792423 1.38538 0
M  V30 6004 C 555.903 -0.60592 1.92174 0
M  V30 6005 O 554.959 -1.36561 2.12385 0
M  V30 6006 C 556.272 1.86157 2.36149 0
M  V30 6007 C 557.82 1.88567 2.49823 0
M  V30 6008 C 558.295 2.9455 3.5072 0
M  V30 6009 N 559.786 2.93616 3.58251 0
M  V30 6010 C 560.521 3.72267 4.36125 0
M  V30 6011 N 560.017 4.60751 5.17379 0
M  V30 6012 N 561.81 3.60637 4.31158 0
M  V30 6013 H 553.961 1.96993 0.794198 0
M  V30 6014 H 556.224 0.853942 0.411688 0
M  V30 6015 H 555.93 2.86603 2.03843 0
M  V30 6016 H 555.804 1.71692 3.3586 0
M  V30 6017 H 558.191 0.887765 2.8143 0
M  V30 6018 H 558.272 2.0711 1.5013 0
M  V30 6019 H 557.916 3.94537 3.19849 0
M  V30 6020 H 557.846 2.73255 4.50155 0
M  V30 6021 H 560.337 2.29472 3.00252 0
M  V30 6022 H 560.65 5.17408 5.74028 0
M  V30 6023 H 558.995 4.64803 5.16704 0
M  V30 6024 H 562.186 2.90892 3.66742 0
M  V30 6025 H 562.359 4.22176 4.91601 0
M  V30 6026 N 555.766 -1.3263 0.851289 0
M  V30 6027 C 556.716 -2.26451 0.265302 0
M  V30 6028 C 557.7 -1.49814 -0.586899 0
M  V30 6029 O 558.892 -1.71525 -0.436834 0
M  V30 6030 C 556.021 -3.38895 -0.548212 0
M  V30 6031 C 555.107 -4.2292 0.316189 0
M  V30 6032 N 555.498 -4.86014 1.40084 0
M  V30 6033 C 553.796 -4.45876 0.105356 0
M  V30 6034 C 554.497 -5.48667 1.93235 0
M  V30 6035 N 553.473 -5.29455 1.232 0
M  V30 6036 H 557.275 -2.72757 1.09457 0
M  V30 6037 H 554.789 -1.4668 0.697047 0
M  V30 6038 H 556.786 -4.05111 -0.984402 0
M  V30 6039 H 555.446 -2.94135 -1.37531 0
M  V30 6040 H 556.457 -4.86212 1.78377 0
M  V30 6041 H 553.134 -4.11804 -0.687299 0
M  V30 6042 H 554.524 -6.08865 2.84135 0
M  V30 6043 N 557.244 -0.608902 -1.45362 0
M  V30 6044 C 558.521 -0.0365378 -1.95566 0
M  V30 6045 C 558.901 1.43169 -1.55131 0
M  V30 6046 O 558.249 2.1349 -0.814513 0
M  V30 6047 C 558.459 -0.236026 -3.48201 0
M  V30 6048 C 559.807 -0.117518 -4.24437 0
M  V30 6049 O 560.831 -0.166217 -3.55812 0
M  V30 6050 O 559.69 -0.00372127 -5.465 0
M  V30 6051 H 556.784 0.0349874 -0.82626 0
M  V30 6052 H 559.33 -0.679055 -1.55521 0
M  V30 6053 H 558.102 -1.25569 -3.70605 0
M  V30 6054 H 557.725 0.441691 -3.95139 0
M  V30 6055 N 558.722 1.53707 -0.348139 0
M  V30 6056 C 560.133 1.86213 0.134797 0
M  V30 6057 C 560.484 1.26925 1.49614 0
M  V30 6058 O 559.609 0.584573 2.08355 0
M  V30 6059 C 560.204 3.37866 0.251371 0
M  V30 6060 C 558.763 3.70233 0.678543 0
M  V30 6061 C 557.91 2.76683 -0.184925 0
M  V30 6062 H 560.861 1.48204 -0.567571 0
M  V30 6063 H 560.882 3.64908 1.07806 0
M  V30 6064 H 560.394 3.80988 -0.739581 0
M  V30 6065 H 558.495 3.32659 1.67835 0
M  V30 6066 H 558.608 4.76836 0.465251 0
M  V30 6067 H 556.972 2.52374 0.343465 0
M  V30 6068 H 557.755 3.22635 -1.1731 0
M  V30 6069 N 560.2 0.0768682 1.57412 0
M  V30 6070 C 561.11 -0.903207 2.16516 0
M  V30 6071 C 562.126 -1.32341 1.12968 0
M  V30 6072 O 563.302 -1.39507 1.45258 0
M  V30 6073 C 560.367 -2.1508 2.71922 0
M  V30 6074 C 559.428 -1.78653 3.90361 0
M  V30 6075 C 558.661 -2.97465 4.43114 0
M  V30 6076 O 558.884 -4.11638 3.94854 0
M  V30 6077 O 557.818 -2.76987 5.3438 0
M  V30 6078 H 561.644 -0.430427 3.00634 0
M  V30 6079 H 559.229 -0.146485 1.4868 0
M  V30 6080 H 561.111 -2.8823 3.07411 0
M  V30 6081 H 559.786 -2.61446 1.9086 0
M  V30 6082 H 558.693 -1.0274 3.59716 0
M  V30 6083 H 560.026 -1.37066 4.7273 0
M  V30 6084 N 561.678 -1.56367 -0.196722 0
M  V30 6085 C 562.926 -1.80172 -0.915554 0
M  V30 6086 C 563.247 -0.649649 -1.8386 0
M  V30 6087 O 562.517 0.332111 -1.93064 0
M  V30 6088 H 561.097 -0.664592 -0.341067 0
M  V30 6089 H 563.759 -1.93844 -0.202622 0
M  V30 6090 H 562.855 -2.7327 -1.50764 0
M  V30 6091 N 563.156 0.464375 -1.50603 0
M  V30 6092 C 564.572 0.798684 -1.38178 0
M  V30 6093 C 564.772 1.96568 -0.44308 0
M  V30 6094 O 563.828 2.52252 0.111814 0
M  V30 6095 C 565.141 1.10444 -2.79683 0
M  V30 6096 C 566.689 1.2105 -2.88645 0
M  V30 6097 C 567.164 1.54934 -4.30998 0
M  V30 6098 N 568.655 1.61913 -4.3398 0
M  V30 6099 C 569.39 1.8965 -5.41129 0
M  V30 6100 N 568.886 2.15361 -6.58477 0
M  V30 6101 N 570.679 1.91207 -5.28579 0
M  V30 6102 H 562.83 -0.304603 -2.10204 0
M  V30 6103 H 565.093 -0.0737804 -0.945125 0
M  V30 6104 H 564.799 0.319934 -3.50242 0
M  V30 6105 H 564.673 2.03896 -3.17342 0
M  V30 6106 H 567.06 1.98567 -2.18301 0
M  V30 6107 H 567.141 0.255613 -2.5452 0
M  V30 6108 H 566.785 0.779549 -5.01882 0
M  V30 6109 H 566.715 2.51584 -4.62615 0
M  V30 6110 H 569.206 1.44055 -3.49366 0
M  V30 6111 H 569.519 2.35818 -7.35941 0
M  V30 6112 H 567.864 2.1274 -6.6164 0
M  V30 6113 H 571.055 1.70622 -4.35897 0
M  V30 6114 H 571.228 2.12488 -6.12171 0
M  V30 6115 N 564.634 1.40294 0.718013 0
M  V30 6116 C 565.88 1.39648 1.47885 0
M  V30 6117 C 566.235 -0.0023879 1.924 0
M  V30 6118 O 565.528 -0.972304 1.65096 0
M  V30 6119 C 565.722 2.31814 2.72024 0
M  V30 6120 C 565.551 3.80523 2.3965 0
M  V30 6121 C 564.321 4.49351 2.3111 0
M  V30 6122 C 566.519 4.72077 2.04079 0
M  V30 6123 N 564.501 5.83305 1.91385 0
M  V30 6124 C 565.872 5.94809 1.74935 0
M  V30 6125 C 567.927 4.59935 1.90694 0
M  V30 6126 C 566.63 7.06755 1.33753 0
M  V30 6127 C 568.656 5.7182 1.50915 0
M  V30 6128 C 568.018 6.93637 1.22668 0
M  V30 6129 H 564.117 0.566263 0.539324 0
M  V30 6130 H 566.701 1.75986 0.832891 0
M  V30 6131 H 564.872 1.97607 3.34374 0
M  V30 6132 H 566.604 2.22042 3.38348 0
M  V30 6133 H 563.359 4.03002 2.4877 0
M  V30 6134 H 563.783 6.54239 1.74068 0
M  V30 6135 H 568.425 3.66274 2.11194 0
M  V30 6136 H 566.143 8.00302 1.11995 0
M  V30 6137 H 569.729 5.64421 1.4114 0
M  V30 6138 H 568.609 7.78743 0.923502 0
M  V30 6139 N 566.112 -0.949982 1.2575 0
M  V30 6140 C 567.042 -2.06483 1.09028 0
M  V30 6141 C 568.023 -1.701 -0.00201532 0
M  V30 6142 O 569.208 -1.93469 0.168383 0
M  V30 6143 C 566.338 -3.39899 0.71316 0
M  V30 6144 C 565.292 -3.90309 1.75621 0
M  V30 6145 C 564.618 -5.20274 1.23365 0
M  V30 6146 C 565.918 -4.16169 3.15596 0
M  V30 6147 H 567.612 -2.20731 2.02283 0
M  V30 6148 H 565.158 -1.06066 0.973964 0
M  V30 6149 H 567.111 -4.17346 0.58309 0
M  V30 6150 H 565.835 -3.25602 -0.255091 0
M  V30 6151 H 564.494 -3.15035 1.8748 0
M  V30 6152 H 564.142 -5.02351 0.255491 0
M  V30 6153 H 563.842 -5.54971 1.93082 0
M  V30 6154 H 565.366 -6.00314 1.11607 0
M  V30 6155 H 566.78 -4.84259 3.06864 0
M  V30 6156 H 565.177 -4.62131 3.82825 0
M  V30 6157 H 566.247 -3.22273 3.6231 0
M  V30 6158 N 567.59 -1.07411 -1.15328 0
M  V30 6159 C 568.537 -0.694995 -2.20087 0
M  V30 6160 C 569.507 0.313904 -1.63107 0
M  V30 6161 O 570.692 0.200216 -1.89747 0
M  V30 6162 C 567.832 -0.0996218 -3.44956 0
M  V30 6163 C 566.945 -1.16007 -4.16133 0
M  V30 6164 C 566.08 -0.529636 -5.28553 0
M  V30 6165 C 565.119 -1.57283 -5.91548 0
M  V30 6166 N 564.256 -0.964932 -6.95438 0
M  V30 6167 H 569.096 -1.5927 -2.51867 0
M  V30 6168 H 566.633 -0.796115 -1.23695 0
M  V30 6169 H 568.591 0.263197 -4.16369 0
M  V30 6170 H 567.221 0.761435 -3.13691 0
M  V30 6171 H 566.273 -1.64045 -3.4321 0
M  V30 6172 H 567.585 -1.95101 -4.59061 0
M  V30 6173 H 566.739 -0.114487 -6.06592 0
M  V30 6174 H 565.478 0.29307 -4.86819 0
M  V30 6175 H 564.483 -1.99775 -5.12221 0
M  V30 6176 H 565.708 -2.39783 -6.35359 0
M  V30 6177 H 563.654 -0.16314 -6.55797 0
M  V30 6178 H 563.571 -1.69311 -7.36797 0
M  V30 6179 H 564.839 -0.575305 -7.77374 0
M  V30 6180 N 569.068 1.32177 -0.85831 0
M  V30 6181 C 570.484 1.49873 -0.548656 0
M  V30 6182 C 570.684 1.79278 0.919874 0
M  V30 6183 O 569.74 1.86451 1.70271 0
M  V30 6184 C 571.053 2.64043 -1.4388 0
M  V30 6185 C 572.601 2.77928 -1.43961 0
M  V30 6186 C 573.076 3.95182 -2.31506 0
M  V30 6187 N 574.567 4.0245 -2.29321 0
M  V30 6188 C 575.302 4.9242 -2.93786 0
M  V30 6189 N 574.798 5.87373 -3.67376 0
M  V30 6190 N 576.591 4.85572 -2.83155 0
M  V30 6191 H 568.742 1.11357 -1.80868 0
M  V30 6192 H 571.005 0.549175 -0.772729 0
M  V30 6193 H 570.711 2.49055 -2.48324 0
M  V30 6194 H 570.585 3.59912 -1.12885 0
M  V30 6195 H 572.972 2.92338 -0.402813 0
M  V30 6196 H 573.053 1.82762 -1.78974 0
M  V30 6197 H 572.697 3.81531 -3.35256 0
M  V30 6198 H 572.627 4.89633 -1.93823 0
M  V30 6199 H 575.118 3.34507 -1.75822 0
M  V30 6200 H 575.431 6.52728 -4.13722 0
M  V30 6201 H 573.776 5.87388 -3.71484 0
M  V30 6202 H 576.967 4.10363 -2.25211 0
M  V30 6203 H 577.14 5.55486 -3.33676 0
M  V30 6204 N 570.547 0.616602 1.45037 0
M  V30 6205 C 571.793 0.123965 2.03022 0
M  V30 6206 C 572.148 -1.23508 1.47525 0
M  V30 6207 O 571.441 -1.80453 0.643981 0
M  V30 6208 C 571.635 0.0356829 3.57382 0
M  V30 6209 C 571.464 1.38462 4.27853 0
M  V30 6210 C 570.234 1.96766 4.65415 0
M  V30 6211 C 572.432 2.31536 4.59234 0
M  V30 6212 N 570.414 3.25046 5.20786 0
M  V30 6213 C 571.785 3.4442 5.15533 0
M  V30 6214 C 573.84 2.30796 4.41178 0
M  V30 6215 C 572.543 4.56742 5.55679 0
M  V30 6216 C 574.569 3.42171 4.82362 0
M  V30 6217 C 573.931 4.53778 5.38762 0
M  V30 6218 H 570.03 0.0889428 0.776925 0
M  V30 6219 H 572.614 0.816925 1.76733 0
M  V30 6220 H 570.785 -0.62652 3.83314 0
M  V30 6221 H 572.517 -0.464443 4.02026 0
M  V30 6222 H 569.272 1.4987 4.49261 0
M  V30 6223 H 569.696 3.90592 5.52962 0
M  V30 6224 H 574.338 1.45765 3.96878 0
M  V30 6225 H 572.056 5.42491 5.9894 0
M  V30 6226 H 575.642 3.42757 4.70116 0
M  V30 6227 H 574.522 5.38536 5.70043 0
M  V30 6228 N 572.025 -1.5352 0.356285 0
M  V30 6229 C 572.988 -2.24071 -0.482182 0
M  V30 6230 C 573.988 -1.24531 -1.01729 0
M  V30 6231 O 575.178 -1.48876 -0.904513 0
M  V30 6232 C 572.31 -2.97025 -1.67299 0
M  V30 6233 H 573.503 -2.99596 0.135031 0
M  V30 6234 H 571.056 -1.55928 0.107825 0
M  V30 6235 H 571.791 -2.25719 -2.32855 0
M  V30 6236 H 571.576 -3.7005 -1.29636 0
M  V30 6237 H 573.066 -3.50683 -2.26741 0
M  V30 6238 N 573.503 -0.0852151 -1.57369 0
M  V30 6239 C 574.914 0.445428 -1.81309 0
M  V30 6240 C 575.265 1.68795 -1.00013 0
M  V30 6241 O 574.39 2.15211 -0.226573 0
M  V30 6242 C 574.985 0.814887 -3.28854 0
M  V30 6243 C 573.544 1.29032 -3.53592 0
M  V30 6244 C 572.691 0.282089 -2.75861 0
M  V30 6245 H 575.642 -0.310771 -1.55627 0
M  V30 6246 H 575.663 1.67524 -3.41637 0
M  V30 6247 H 575.175 -0.0896309 -3.87996 0
M  V30 6248 H 573.276 2.21289 -2.9977 0
M  V30 6249 H 573.389 1.25898 -4.62262 0
M  V30 6250 H 571.753 0.762182 -2.43029 0
M  V30 6251 H 572.536 -0.614936 -3.37748 0
M  V30 6252 N 574.981 1.5647 0.188427 0
M  V30 6253 C 575.891 1.98285 1.2538 0
M  V30 6254 C 576.907 0.891535 1.49424 0
M  V30 6255 O 578.083 1.19782 1.61908 0
M  V30 6256 C 575.148 2.31965 2.57669 0
M  V30 6257 C 574.209 3.54838 2.41638 0
M  V30 6258 C 573.442 3.86901 3.67618 0
M  V30 6259 O 573.665 3.20163 4.72072 0
M  V30 6260 O 572.599 4.80309 3.62749 0
M  V30 6261 H 576.425 2.89145 0.928912 0
M  V30 6262 H 574.01 1.44112 0.393955 0
M  V30 6263 H 575.892 2.54673 3.35737 0
M  V30 6264 H 574.567 1.44271 2.89771 0
M  V30 6265 H 573.474 3.37369 1.61658 0
M  V30 6266 H 574.807 4.43019 2.14465 0
M  V30 6267 N 576.459 -0.456382 1.50847 0
M  V30 6268 C 577.689 -1.22848 1.66108 0
M  V30 6269 C 578.097 -1.85936 0.349897 0
M  V30 6270 O 577.44 -1.70664 -0.679665 0
M  V30 6271 C 577.502 -2.36722 2.70561 0
M  V30 6272 C 577.166 -1.94154 4.13707 0
M  V30 6273 C 578.163 -1.4557 4.99105 0
M  V30 6274 C 575.848 -2.02426 4.59705 0
M  V30 6275 C 577.842 -1.0582 6.28555 0
M  V30 6276 C 575.529 -1.62287 5.89157 0
M  V30 6277 C 576.527 -1.14064 6.73408 0
M  V30 6278 O 576.215 -0.744873 8.00442 0
M  V30 6279 H 575.947 -0.377105 0.561042 0
M  V30 6280 H 578.501 -0.549431 1.97915 0
M  V30 6281 H 576.731 -3.07844 2.34027 0
M  V30 6282 H 578.42 -2.98646 2.74892 0
M  V30 6283 H 579.186 -1.38589 4.64777 0
M  V30 6284 H 575.065 -2.38908 3.94264 0
M  V30 6285 H 578.609 -0.6811 6.94267 0
M  V30 6286 H 574.506 -1.68932 6.23003 0
M  V30 6287 H 575.274 -0.87242 8.13837 0
M  V30 6288 N 577.937 -1.40673 -0.710563 0
M  V30 6289 C 579.348 -1.34975 -1.28991 0
M  V30 6290 C 579.699 -0.0256272 -1.96183 0
M  V30 6291 O 578.824 0.876339 -1.97862 0
M  V30 6292 C 579.419 -2.44467 -2.34567 0
M  V30 6293 C 577.978 -2.42213 -2.88114 0
M  V30 6294 C 577.125 -2.25085 -1.61963 0
M  V30 6295 H 580.076 -1.50406 -0.506343 0
M  V30 6296 H 580.097 -2.12663 -3.15523 0
M  V30 6297 H 579.609 -3.40825 -1.85634 0
M  V30 6298 H 577.71 -1.49568 -3.41263 0
M  V30 6299 H 577.823 -3.37983 -3.39565 0
M  V30 6300 H 576.187 -1.72691 -1.87216 0
M  V30 6301 H 576.97 -3.23449 -1.15047 0
M  V30 6302 N 579.415 0.9433 -1.26252 0
M  V30 6303 C 580.64 1.72898 -1.14547 0
M  V30 6304 C 581.065 1.85761 0.295743 0
M  V30 6305 O 580.423 1.3463 1.21427 0
M  V30 6306 C 580.471 3.11471 -1.8171 0
M  V30 6307 O 579.575 3.97336 -1.10445 0
M  V30 6308 H 578.916 0.530555 -0.399259 0
M  V30 6309 H 581.446 1.18159 -1.67032 0
M  V30 6310 H 581.456 3.61872 -1.88449 0
M  V30 6311 H 580.131 3.01425 -2.86558 0
M  V30 6312 H 578.708 3.55788 -1.11666 0
M  V30 6313 N 580.893 1.08022 1.14757 0
M  V30 6314 C 582.123 0.827646 1.89298 0
M  V30 6315 C 582.531 -0.623506 1.78631 0
M  V30 6316 O 581.874 -1.43991 1.14071 0
M  V30 6317 C 581.936 1.16553 3.40082 0
M  V30 6318 C 581.6 2.61866 3.74533 0
M  V30 6319 C 582.597 3.60116 3.74984 0
M  V30 6320 C 580.282 2.97619 4.04633 0
M  V30 6321 C 582.276 4.92151 4.05051 0
M  V30 6322 C 579.963 4.2985 4.34364 0
M  V30 6323 C 580.961 5.26926 4.34555 0
M  V30 6324 O 580.649 6.5678 4.63568 0
M  V30 6325 H 580.381 0.298396 0.606577 0
M  V30 6326 H 582.935 1.44187 1.46285 0
M  V30 6327 H 581.165 0.494296 3.83528 0
M  V30 6328 H 582.854 0.894407 3.95923 0
M  V30 6329 H 583.62 3.33837 3.51821 0
M  V30 6330 H 579.499 2.22702 4.03639 0
M  V30 6331 H 583.043 5.67915 4.05115 0
M  V30 6332 H 578.94 4.55879 4.56995 0
M  V30 6333 H 579.708 6.62035 4.81303 0
M  V30 6334 N 582.371 -1.3172 0.865308 0
M  V30 6335 C 583.334 -2.26918 0.322627 0
M  V30 6336 C 584.334 -1.52031 -0.523751 0
M  V30 6337 O 585.524 -1.70973 -0.333727 0
M  V30 6338 C 582.656 -3.36558 -0.542338 0
M  V30 6339 H 583.849 -2.76432 1.16298 0
M  V30 6340 H 581.402 -1.42573 0.640512 0
M  V30 6341 H 582.137 -2.92329 -1.40407 0
M  V30 6342 H 581.922 -3.92048 0.0636395 0
M  V30 6343 H 583.412 -4.07465 -0.91446 0
M  V30 6344 N 583.85 -0.624285 -1.44708 0
M  V30 6345 C 585.26 -0.2092 -1.85524 0
M  V30 6346 C 585.611 1.23783 -1.52225 0
M  V30 6347 O 584.736 1.94089 -0.956986 0
M  V30 6348 C 585.332 -0.372897 -3.36742 0
M  V30 6349 C 583.891 -0.012374 -3.76398 0
M  V30 6350 C 583.038 -0.68951 -2.68591 0
M  V30 6351 H 585.989 -0.829894 -1.35272 0
M  V30 6352 H 586.01 0.390134 -3.78495 0
M  V30 6353 H 585.522 -1.42615 -3.60947 0
M  V30 6354 H 583.623 1.03941 -3.57809 0
M  V30 6355 H 583.736 -0.417663 -4.77276 0
M  V30 6356 H 582.1 -0.125484 -2.54391 0
M  V30 6357 H 582.883 -1.74522 -2.9563 0
M  V30 6358 N 585.328 1.53329 -0.364422 0
M  V30 6359 C 586.275 2.25698 0.482607 0
M  V30 6360 C 587.245 1.26325 1.07848 0
M  V30 6361 O 588.43 1.55104 1.11119 0
M  V30 6362 C 585.57 3.04873 1.61699 0
M  V30 6363 C 584.683 4.19135 1.0464 0
M  V30 6364 C 583.818 4.85754 2.14979 0
M  V30 6365 C 582.857 5.9205 1.5538 0
M  V30 6366 N 581.994 6.52365 2.59547 0
M  V30 6367 H 586.834 2.97666 -0.141032 0
M  V30 6368 H 584.371 1.46875 -0.0813692 0
M  V30 6369 H 586.329 3.49051 2.28516 0
M  V30 6370 H 584.959 2.35162 2.2113 0
M  V30 6371 H 584.011 3.79451 0.268553 0
M  V30 6372 H 585.323 4.95525 0.570653 0
M  V30 6373 H 584.477 5.3311 2.89619 0
M  V30 6374 H 583.216 4.08834 2.65906 0
M  V30 6375 H 582.221 5.44058 0.792549 0
M  V30 6376 H 583.446 6.7089 1.0528 0
M  V30 6377 H 581.392 5.78298 3.09689 0
M  V30 6378 H 581.309 7.2429 2.16655 0
M  V30 6379 H 582.577 7.0437 3.33892 0
M  V30 6380 N 586.806 0.0935595 1.57322 0
M  V30 6381 C 588.083 -0.612692 1.85756 0
M  V30 6382 C 588.463 -1.86439 0.99013 0
M  V30 6383 O 587.811 -2.28416 0.0621362 0
M  V30 6384 C 588.021 -0.929547 3.36393 0
M  V30 6385 C 589.369 -1.29366 4.04413 0
M  V30 6386 O 590.393 -1.02061 3.41265 0
M  V30 6387 O 589.252 -1.80498 5.15832 0
M  V30 6388 H 586.346 -0.306444 0.768128 0
M  V30 6389 H 588.892 0.126141 1.69231 0
M  V30 6390 H 587.664 -0.0414766 3.91278 0
M  V30 6391 H 587.287 -1.72441 3.5826 0
M  V30 6392 N 588.284 -1.56567 -0.180126 0
M  V30 6393 C 589.695 -1.7126 -0.743422 0
M  V30 6394 C 590.046 -0.70263 -1.83187 0
M  V30 6395 O 589.171 0.137856 -2.1596 0
M  V30 6396 C 589.766 -3.10512 -1.35528 0
M  V30 6397 C 588.325 -3.26919 -1.8655 0
M  V30 6398 C 587.472 -2.67213 -0.741099 0
M  V30 6399 H 590.423 -1.58636 0.0451543 0
M  V30 6400 H 590.444 -3.08673 -2.22489 0
M  V30 6401 H 589.956 -3.83997 -0.562862 0
M  V30 6402 H 588.057 -2.58376 -2.68464 0
M  V30 6403 H 588.17 -4.34574 -2.01699 0
M  V30 6404 H 586.534 -2.26788 -1.15927 0
M  V30 6405 H 587.317 -3.43277 0.0393291 0
M  V30 6406 N 589.762 0.448376 -1.51087 0
M  V30 6407 C 591.008 1.20049 -1.6345 0
M  V30 6408 C 591.341 1.91121 -0.344444 0
M  V30 6409 O 590.616 1.83125 0.655396 0
M  V30 6410 C 590.899 2.22624 -2.83038 0
M  V30 6411 C 590.752 1.55708 -4.21989 0
M  V30 6412 C 592.071 3.23718 -2.98152 0
M  V30 6413 H 589.19 0.435085 -0.59487 0
M  V30 6414 H 591.832 0.491183 -1.83541 0
M  V30 6415 H 589.982 2.83117 -2.66039 0
M  V30 6416 H 591.654 0.986367 -4.50631 0
M  V30 6417 H 589.897 0.859647 -4.25197 0
M  V30 6418 H 590.568 2.30357 -5.01637 0
M  V30 6419 H 593.044 2.73269 -3.13788 0
M  V30 6420 H 591.92 3.92795 -3.83411 0
M  V30 6421 H 592.181 3.89179 -2.09743 0
M  V30 6422 N 591.24 1.41047 0.703093 0
M  V30 6423 C 592.486 1.40207 1.46526 0
M  V30 6424 C 592.819 0.00847763 1.94198 0
M  V30 6425 O 592.094 -0.962437 1.69019 0
M  V30 6426 C 592.377 2.40238 2.6825 0
M  V30 6427 C 592.23 3.88674 2.26391 0
M  V30 6428 C 593.549 2.37627 3.70434 0
M  V30 6429 H 590.668 0.510594 0.531472 0
M  V30 6430 H 593.31 1.72271 0.801422 0
M  V30 6431 H 591.46 2.13026 3.24888 0
M  V30 6432 H 593.132 4.2676 1.75138 0
M  V30 6433 H 591.375 4.03903 1.58255 0
M  V30 6434 H 592.046 4.542 3.13698 0
M  V30 6435 H 594.522 2.61759 3.23452 0
M  V30 6436 H 593.398 3.09645 4.53223 0
M  V30 6437 H 593.659 1.39223 4.19606 0
M  V30 6438 N 592.718 -0.936591 1.26751 0
M  V30 6439 C 593.995 -1.66094 1.03306 0
M  V30 6440 C 594.375 -2.06568 -0.435058 0
M  V30 6441 O 593.723 -1.79305 -1.41641 0
M  V30 6442 C 593.933 -2.86969 1.98619 0
M  V30 6443 C 595.281 -3.58516 2.27489 0
M  V30 6444 O 596.305 -2.97082 1.96522 0
M  V30 6445 O 595.164 -4.69181 2.80235 0
M  V30 6446 H 592.258 -0.727568 0.393158 0
M  V30 6447 H 594.804 -0.987914 1.3798 0
M  V30 6448 H 593.576 -2.53985 2.9767 0
M  V30 6449 H 593.199 -3.61996 1.64454 0
M  V30 6450 N 594.196 -1.08629 -1.14182 0
M  V30 6451 C 595.126 -0.740003 -2.21464 0
M  V30 6452 C 596.107 0.278591 -1.67803 0
M  V30 6453 O 597.292 0.148461 -1.93632 0
M  V30 6454 C 594.422 -0.150952 -3.46972 0
M  V30 6455 C 593.376 -1.09815 -4.13672 0
M  V30 6456 C 592.702 -0.3712 -5.3341 0
M  V30 6457 C 594.002 -2.43722 -4.61949 0
M  V30 6458 H 595.696 -1.63697 -2.50686 0
M  V30 6459 H 593.242 -0.788526 -1.20492 0
M  V30 6460 H 595.195 0.103325 -4.21273 0
M  V30 6461 H 593.919 0.781164 -3.1712 0
M  V30 6462 H 592.578 -1.33756 -3.41328 0
M  V30 6463 H 592.226 0.564792 -4.99819 0
M  V30 6464 H 591.926 -1.00267 -5.78982 0
M  V30 6465 H 593.45 -0.12503 -6.10472 0
M  V30 6466 H 594.864 -2.24034 -5.27714 0
M  V30 6467 H 593.261 -3.02582 -5.18232 0
M  V30 6468 H 594.331 -3.05082 -3.76899 0
M  V30 6469 N 595.674 1.31259 -0.872281 0
M  V30 6470 C 596.584 2.32221 -0.333255 0
M  V30 6471 C 597.6 1.6481 0.558013 0
M  V30 6472 O 598.776 1.96212 0.454175 0
M  V30 6473 C 595.841 3.43708 0.454479 0
M  V30 6474 C 594.902 4.26774 -0.465024 0
M  V30 6475 C 594.135 5.32937 0.28521 0
M  V30 6476 O 594.358 5.49968 1.513 0
M  V30 6477 O 593.292 6.00834 -0.358126 0
M  V30 6478 H 597.118 2.80252 -1.17016 0
M  V30 6479 H 594.703 1.352 -0.635724 0
M  V30 6480 H 596.585 4.11656 0.900963 0
M  V30 6481 H 595.26 2.97836 1.26789 0
M  V30 6482 H 594.167 3.61571 -0.960055 0
M  V30 6483 H 595.5 4.76217 -1.2441 0
M  V30 6484 N 597.152 0.631951 1.44375 0
M  V30 6485 C 598.062 -0.073674 2.34484 0
M  V30 6486 C 599.078 -0.834825 1.52665 0
M  V30 6487 O 600.254 -0.786902 1.85391 0
M  V30 6488 C 597.319 -1.04247 3.30656 0
M  V30 6489 C 596.38 -0.280602 4.28382 0
M  V30 6490 C 595.613 -1.20325 5.19959 0
M  V30 6491 O 595.836 -2.44199 5.15484 0
M  V30 6492 O 594.77 -0.687128 5.97965 0
M  V30 6493 H 598.596 0.667477 2.96274 0
M  V30 6494 H 596.181 0.392144 1.44162 0
M  V30 6495 H 598.063 -1.59981 3.89851 0
M  V30 6496 H 596.738 -1.76422 2.71398 0
M  V30 6497 H 595.645 0.319804 3.72731 0
M  V30 6498 H 596.978 0.401144 4.90563 0
M  V30 6499 N 598.631 -1.53133 0.372548 0
M  V30 6500 C 599.594 -2.24569 -0.458389 0
M  V30 6501 C 600.594 -1.25603 -1.00402 0
M  V30 6502 O 601.784 -1.49827 -0.888672 0
M  V30 6503 C 598.916 -2.98783 -1.6414 0
M  V30 6504 H 600.109 -2.99436 0.166799 0
M  V30 6505 H 597.662 -1.55805 0.124357 0
M  V30 6506 H 598.397 -2.28176 -2.30448 0
M  V30 6507 H 598.182 -3.71404 -1.25704 0
M  V30 6508 H 599.672 -3.53068 -2.23008 0
M  V30 6509 N 600.109 -0.101901 -1.5727 0
M  V30 6510 C 601.525 0.254739 -1.57554 0
M  V30 6511 C 601.725 1.67937 -1.11352 0
M  V30 6512 O 600.781 2.39722 -0.793081 0
M  V30 6513 C 602.094 0.036975 -3.00677 0
M  V30 6514 C 603.642 0.104199 -3.12827 0
M  V30 6515 C 604.117 -0.0856565 -4.5792 0
M  V30 6516 N 605.608 -0.0310498 -4.6319 0
M  V30 6517 C 606.343 -0.153099 -5.73196 0
M  V30 6518 N 605.839 -0.330364 -6.92012 0
M  V30 6519 N 607.632 -0.0938854 -5.62022 0
M  V30 6520 H 599.783 -1.03263 -1.85609 0
M  V30 6521 H 602.046 -0.405251 -0.857016 0
M  V30 6522 H 601.752 -0.947254 -3.38703 0
M  V30 6523 H 601.626 0.776335 -3.69124 0
M  V30 6524 H 604.013 1.07894 -2.74669 0
M  V30 6525 H 604.094 -0.666762 -2.46957 0
M  V30 6526 H 603.738 -1.05729 -4.96773 0
M  V30 6527 H 603.668 0.705082 -5.21858 0
M  V30 6528 H 606.159 0.103141 -3.77759 0
M  V30 6529 H 606.472 -0.41482 -7.71686 0
M  V30 6530 H 604.817 -0.366119 -6.94035 0
M  V30 6531 H 608.008 0.0435168 -4.6808 0
M  V30 6532 H 608.181 -0.19245 -6.47714 0
M  V30 6533 N 601.587 1.56661 0.17182 0
M  V30 6534 C 603.003 1.50768 0.52357 0
M  V30 6535 C 603.203 0.806072 1.84675 0
M  V30 6536 O 602.259 0.366233 2.4983 0
M  V30 6537 C 603.572 2.955 0.556793 0
M  V30 6538 C 605.12 3.06303 0.644029 0
M  V30 6539 C 605.595 4.52492 0.708148 0
M  V30 6540 N 607.086 4.56737 0.771051 0
M  V30 6541 C 607.821 5.67196 0.841229 0
M  V30 6542 N 607.317 6.87287 0.872272 0
M  V30 6543 N 609.11 5.55165 0.88021 0
M  V30 6544 H 601.261 2.00679 -0.695817 0
M  V30 6545 H 603.524 0.914219 -0.250814 0
M  V30 6546 H 603.23 3.49986 -0.346774 0
M  V30 6547 H 603.104 3.50119 1.40346 0
M  V30 6548 H 605.491 2.51851 1.53802 0
M  V30 6549 H 605.572 2.5477 -0.229297 0
M  V30 6550 H 605.216 5.07575 -0.181585 0
M  V30 6551 H 605.146 5.01781 1.59761 0
M  V30 6552 H 607.637 3.70274 0.755364 0
M  V30 6553 H 607.95 7.6722 0.92698 0
M  V30 6554 H 606.295 6.89898 0.840557 0
M  V30 6555 H 609.486 4.60263 0.852956 0
M  V30 6556 H 609.659 6.41271 0.931439 0
M  V30 6557 N 603.065 -0.440357 1.51323 0
M  V30 6558 C 604.481 -0.7766 1.39431 0
M  V30 6559 C 604.681 -1.95838 0.474296 0
M  V30 6560 O 603.737 -2.52398 -0.0716692 0
M  V30 6561 C 605.05 -1.05981 2.81405 0
M  V30 6562 C 606.598 -1.16442 2.90534 0
M  V30 6563 C 607.073 -1.48058 4.33408 0
M  V30 6564 N 608.564 -1.54988 4.36501 0
M  V30 6565 C 609.299 -1.81017 5.44078 0
M  V30 6566 N 608.795 -2.04858 6.61819 0
M  V30 6567 N 610.588 -1.82774 5.31554 0
M  V30 6568 H 602.739 0.338006 2.09693 0
M  V30 6569 H 605.002 0.0888072 0.943831 0
M  V30 6570 H 604.708 -0.264173 3.50706 0
M  V30 6571 H 604.582 -1.98822 3.20546 0
M  V30 6572 H 606.969 -1.95068 2.21432 0
M  V30 6573 H 607.05 -0.215088 2.54894 0
M  V30 6574 H 606.694 -0.699605 5.03059 0
M  V30 6575 H 606.624 -2.44192 4.66559 0
M  V30 6576 H 609.115 -1.38479 3.51613 0
M  V30 6577 H 609.428 -2.2408 7.396 0
M  V30 6578 H 607.773 -2.02187 6.6494 0
M  V30 6579 H 610.964 -1.63665 4.38556 0
M  V30 6580 H 611.137 -2.02722 6.15474 0
M  V30 6581 N 604.543 -1.41418 -0.695603 0
M  V30 6582 C 605.773 -1.43921 -1.48224 0
M  V30 6583 C 606.181 -0.0428855 -1.89151 0
M  V30 6584 O 605.524 0.948138 -1.5734 0
M  V30 6585 C 605.586 -2.28466 -2.77567 0
M  V30 6586 C 605.25 -3.76629 -2.58844 0
M  V30 6587 C 606.247 -4.6879 -2.24793 0
M  V30 6588 C 603.932 -4.2067 -2.74485 0
M  V30 6589 C 605.926 -6.02981 -2.06622 0
M  V30 6590 C 603.613 -5.54926 -2.55931 0
M  V30 6591 C 604.611 -6.45897 -2.2205 0
M  V30 6592 O 604.299 -7.77675 -2.03657 0
M  V30 6593 H 604.031 -0.492252 -0.463318 0
M  V30 6594 H 606.585 -1.86347 -0.863952 0
M  V30 6595 H 604.815 -1.80853 -3.41802 0
M  V30 6596 H 606.504 -2.2267 -3.39371 0
M  V30 6597 H 607.27 -4.36055 -2.12323 0
M  V30 6598 H 603.149 -3.50167 -2.9984 0
M  V30 6599 H 606.693 -6.73951 -1.80099 0
M  V30 6600 H 602.59 -5.8724 -2.67991 0
M  V30 6601 H 603.358 -7.88819 -2.1842 0
M  V30 6602 N 606.021 0.929856 -1.27246 0
M  V30 6603 C 606.951 2.04722 -1.12299 0
M  V30 6604 C 607.932 1.70082 -0.0250464 0
M  V30 6605 O 609.117 1.93176 -0.199141 0
M  V30 6606 C 606.247 3.38721 -0.767145 0
M  V30 6607 C 605.201 3.87466 -1.81808 0
M  V30 6608 C 604.527 5.18246 -1.31626 0
M  V30 6609 C 605.827 4.11095 -3.22177 0
M  V30 6610 H 607.521 2.17485 -2.05769 0
M  V30 6611 H 605.067 1.04503 -0.990715 0
M  V30 6612 H 607.02 4.16366 -0.649413 0
M  V30 6613 H 605.744 3.25967 0.203259 0
M  V30 6614 H 604.403 3.12012 -1.92468 0
M  V30 6615 H 604.051 5.01881 -0.335378 0
M  V30 6616 H 603.751 5.51829 -2.01887 0
M  V30 6617 H 605.275 5.98462 -1.21143 0
M  V30 6618 H 606.689 4.79316 -3.1453 0
M  V30 6619 H 605.086 4.55982 -3.90129 0
M  V30 6620 H 606.156 3.16468 -3.67391 0
M  V30 6621 N 607.499 1.09233 1.13605 0
M  V30 6622 C 608.915 0.82163 1.36826 0
M  V30 6623 C 609.115 -0.565021 1.93416 0
M  V30 6624 O 608.171 -1.32026 2.15234 0
M  V30 6625 C 609.484 1.91124 2.32147 0
M  V30 6626 C 611.032 1.93824 2.45767 0
M  V30 6627 C 611.507 3.01923 3.44393 0
M  V30 6628 N 612.998 3.01149 3.51942 0
M  V30 6629 C 613.733 3.81434 4.2813 0
M  V30 6630 N 613.229 4.71621 5.07489 0
M  V30 6631 N 615.022 3.69702 4.23411 0
M  V30 6632 H 607.173 1.98633 0.752234 0
M  V30 6633 H 609.436 0.862482 0.393482 0
M  V30 6634 H 609.142 2.90862 1.97717 0
M  V30 6635 H 609.016 1.78777 3.32142 0
M  V30 6636 H 611.403 0.94726 2.79483 0
M  V30 6637 H 611.484 2.10248 1.45703 0
M  V30 6638 H 611.128 4.01232 3.11408 0
M  V30 6639 H 611.058 2.82742 4.44257 0
M  V30 6640 H 613.549 2.35789 2.95317 0
M  V30 6641 H 613.862 5.29468 5.62924 0
M  V30 6642 H 612.207 4.75658 5.06729 0
M  V30 6643 H 615.398 2.98606 3.60489 0
M  V30 6644 H 615.571 4.32509 4.82535 0
M  V30 6645 N 608.977 -1.30795 0.87923 0
M  V30 6646 C 609.907 -2.30742 0.357796 0
M  V30 6647 C 610.888 -1.60747 -0.556283 0
M  V30 6648 O 612.073 -1.88393 -0.47135 0
M  V30 6649 C 609.203 -3.44583 -0.433555 0
M  V30 6650 C 608.157 -4.26235 0.388251 0
M  V30 6651 C 607.483 -5.32073 -0.529352 0
M  V30 6652 C 608.783 -4.96303 1.62729 0
M  V30 6653 H 610.477 -2.74605 1.19299 0
M  V30 6654 H 608.023 -1.32017 0.575104 0
M  V30 6655 H 609.976 -4.13563 -0.808934 0
M  V30 6656 H 608.7 -2.99511 -1.30234 0
M  V30 6657 H 607.359 -3.58936 0.745695 0
M  V30 6658 H 607.007 -4.83249 -1.39569 0
M  V30 6659 H 606.707 -5.87598 0.0166741 0
M  V30 6660 H 608.231 -6.0391 -0.901373 0
M  V30 6661 H 609.645 -5.5783 1.32283 0
M  V30 6662 H 608.042 -5.61666 2.11309 0
M  V30 6663 H 609.112 -4.22758 2.37494 0
M  V30 6664 N 610.455 -0.639598 -1.44038 0
M  V30 6665 C 611.418 0.0506628 -2.29144 0
M  V30 6666 C 612.418 0.764001 -1.41491 0
M  V30 6667 O 613.608 0.607309 -1.63271 0
M  V30 6668 C 610.74 1.0824 -3.2326 0
M  V30 6669 H 611.933 -0.697987 -2.91664 0
M  V30 6670 H 609.486 -0.400146 -1.51091 0
M  V30 6671 H 610.221 1.86075 -2.65606 0
M  V30 6672 H 610.006 0.574725 -3.87865 0
M  V30 6673 H 611.496 1.56487 -3.87171 0
M  V30 6674 N 611.933 1.52934 -0.380664 0
M  V30 6675 C 613.349 1.59571 -0.0302429 0
M  V30 6676 C 613.549 1.39509 1.45394 0
M  V30 6677 O 612.605 1.20777 2.21741 0
M  V30 6678 C 613.918 2.96519 -0.499691 0
M  V30 6679 C 615.466 3.09672 -0.455204 0
M  V30 6680 C 615.941 4.49056 -0.900703 0
M  V30 6681 N 617.432 4.55215 -0.856367 0
M  V30 6682 C 618.167 5.61282 -1.17259 0
M  V30 6683 N 617.663 6.75035 -1.55885 0
M  V30 6684 N 619.456 5.51343 -1.0944 0
M  V30 6685 H 611.607 1.64224 -1.347 0
M  V30 6686 H 613.87 0.771033 -0.551554 0
M  V30 6687 H 613.576 3.16388 -1.53595 0
M  V30 6688 H 613.45 3.77052 0.105789 0
M  V30 6689 H 615.837 2.89504 0.571949 0
M  V30 6690 H 615.918 2.31113 -1.09638 0
M  V30 6691 H 615.562 4.69964 -1.92604 0
M  V30 6692 H 615.492 5.26068 -0.236629 0
M  V30 6693 H 617.983 3.73546 -0.572013 0
M  V30 6694 H 618.296 7.51926 -1.784 0
M  V30 6695 H 616.641 6.76388 -1.59764 0
M  V30 6696 H 619.832 4.61356 -0.791713 0
M  V30 6697 H 620.005 6.33905 -1.34417 0
M  V30 6698 N 613.412 0.11024 1.57214 0
M  V30 6699 C 614.689 -0.592956 1.86396 0
M  V30 6700 C 615.069 -1.85379 1.00985 0
M  V30 6701 O 614.417 -2.28337 0.0863592 0
M  V30 6702 C 614.627 -0.893816 3.3736 0
M  V30 6703 C 615.975 -1.25069 4.05762 0
M  V30 6704 O 616.999 -0.984356 3.42329 0
M  V30 6705 O 615.858 -1.75017 5.17718 0
M  V30 6706 H 612.952 -0.29828 0.771335 0
M  V30 6707 H 615.498 0.144083 1.69087 0
M  V30 6708 H 614.27 2.6031e-05 3.913 0
M  V30 6709 H 613.893 -1.68631 3.60068 0
M  V30 6710 N 614.89 -1.56749 -0.16351 0
M  V30 6711 C 615.82 -2.00042 -1.20438 0
M  V30 6712 C 616.801 -0.877256 -1.45733 0
M  V30 6713 O 617.986 -1.1439 -1.56935 0
M  V30 6714 C 615.116 -2.36697 -2.54149 0
M  V30 6715 C 614.07 -3.52046 -2.43408 0
M  V30 6716 C 613.396 -3.74466 -3.81679 0
M  V30 6717 C 614.696 -4.85247 -1.93216 0
M  V30 6718 H 616.39 -2.87244 -0.844477 0
M  V30 6719 H 613.936 -1.38194 -0.40478 0
M  V30 6720 H 615.889 -2.65582 -3.27176 0
M  V30 6721 H 614.613 -1.46414 -2.91943 0
M  V30 6722 H 613.272 -3.23301 -1.72834 0
M  V30 6723 H 612.92 -2.81461 -4.1688 0
M  V30 6724 H 612.62 -4.52084 -3.75359 0
M  V30 6725 H 614.144 -4.0576 -4.5628 0
M  V30 6726 H 615.558 -5.12957 -2.56023 0
M  V30 6727 H 613.955 -5.66556 -1.97825 0
M  V30 6728 H 615.025 -4.7672 -0.88689 0
M  V30 6729 N 616.368 0.432326 -1.51554 0
M  V30 6730 C 617.331 1.50765 -1.72634 0
M  V30 6731 C 618.331 1.49334 -0.596314 0
M  V30 6732 O 619.521 1.51268 -0.863925 0
M  V30 6733 C 616.653 2.90284 -1.7874 0
M  V30 6734 H 617.846 1.33377 -2.68609 0
M  V30 6735 H 615.399 0.661329 -1.4162 0
M  V30 6736 H 616.134 3.13071 -0.845977 0
M  V30 6737 H 615.919 2.92727 -2.6087 0
M  V30 6738 H 617.409 3.68282 -1.96871 0
M  V30 6739 N 617.846 1.41785 0.688094 0
M  V30 6740 C 619.262 1.24419 0.999608 0
M  V30 6741 C 619.462 0.138868 2.01021 0
M  V30 6742 O 618.518 -0.494283 2.47615 0
M  V30 6743 C 619.831 2.59625 1.51709 0
M  V30 6744 C 621.379 2.66869 1.63554 0
M  V30 6745 C 621.854 4.0241 2.18702 0
M  V30 6746 N 623.345 4.04295 2.26053 0
M  V30 6747 C 624.08 5.05977 2.69768 0
M  V30 6748 N 623.576 6.18047 3.13033 0
M  V30 6749 N 625.369 4.93336 2.69398 0
M  V30 6750 H 617.52 2.12392 0.0187427 0
M  V30 6751 H 619.783 0.945347 0.0708673 0
M  V30 6752 H 619.489 3.41297 0.849059 0
M  V30 6753 H 619.363 2.82628 2.49803 0
M  V30 6754 H 621.75 1.8555 2.29467 0
M  V30 6755 H 621.831 2.47668 0.639857 0
M  V30 6756 H 621.475 4.8418 1.53402 0
M  V30 6757 H 621.405 4.18955 3.19037 0
M  V30 6758 H 623.896 3.23383 1.9553 0
M  V30 6759 H 624.209 6.91498 3.45038 0
M  V30 6760 H 622.554 6.21572 3.10923 0
M  V30 6761 H 625.745 4.04865 2.34952 0
M  V30 6762 H 625.918 5.72717 3.03148 0
M  V30 6763 N 619.324 -0.923095 1.27737 0
M  V30 6764 C 620.572 -1.66797 1.14119 0
M  V30 6765 C 620.893 -1.92479 -0.312541 0
M  V30 6766 O 620.163 -1.53432 -1.218 0
M  V30 6767 H 618.743 -0.618196 0.419336 0
M  V30 6768 H 621.405 -1.10815 1.60331 0
M  V30 6769 H 620.501 -2.63424 1.67374 0
M  V30 6770 O 620.841 -1.22056 -1.05757 0
M  V30 6771 H 621.532 -0.983935 -1.66848 0
M  V30 END ATOM
M  V30 BEGIN BOND
M  V30 END BOND
M  V30 END CTAB
M  END
$$$$
