drugbank_target|P61587 Rho-related GTP-binding protein RhoE (DB04137)
 OpenBabel12092120563D

  0  0  0     0  0            999 V3000
M  V30 BEGIN CTAB
M  V30 COUNTS 3838 3870 0 0 0
M  V30 BEGIN ATOM
M  V30 1 H -0.908 1.98254 -0.117106 0
M  V30 2 N 0 1.576 0 0
M  V30 3 C 0.933 2.03868 1.02534 0
M  V30 4 C 1.911 0.928543 1.3348 0
M  V30 5 O 3.095 1.19667 1.45644 0
M  V30 6 C 0.222 2.43627 2.35294 0
M  V30 7 C -0.732 3.65373 2.2001 0
M  V30 8 S 0.101 5.13292 1.52614 0
M  V30 9 C 1.257 5.56322 2.86805 0
M  V30 10 H 1.49 2.90518 0.631377 0
M  V30 11 H -0.977 1.52953 0.210867 0
M  V30 12 H 0.981 2.67203 3.11629 0
M  V30 13 H -0.358 1.57376 2.7183 0
M  V30 14 H -1.165 3.90944 3.18086 0
M  V30 15 H -1.563 3.418 1.51819 0
M  V30 16 H 0.729 5.58782 3.83104 0
M  V30 17 H 1.672 6.56266 2.65933 0
M  V30 18 H 2.08 4.83886 2.90714 0
M  V30 19 N 1.4781 -0.272755 1.55222 0
M  V30 20 C 2.4251 -1.33716 1.88119 0
M  V30 21 C 3.3951 -1.49066 0.73271 0
M  V30 22 O 4.5801 -1.63469 0.984002 0
M  V30 23 C 1.7201 -2.69238 2.15882 0
M  V30 24 C 0.8331 -2.62108 3.43399 0
M  V30 25 C -0.0319 -3.89811 3.60861 0
M  V30 26 C -0.9929 -3.77193 4.8207 0
M  V30 27 N -1.8559 -4.9673 4.96189 0
M  V30 28 H 2.9841 -1.04962 2.78903 0
M  V30 29 H 0.5211 -0.507088 1.38083 0
M  V30 30 H 2.4791 -3.48089 2.29978 0
M  V30 31 H 1.1091 -2.96194 1.28331 0
M  V30 32 H 0.1611 -1.74967 3.37773 0
M  V30 33 H 1.4731 -2.48685 4.32386 0
M  V30 34 H 0.6271 -4.77103 3.74777 0
M  V30 35 H -0.6339 -4.06102 2.7006 0
M  V30 36 H -1.6289 -2.88284 4.68159 0
M  V30 37 H -0.4039 -3.62421 5.74307 0
M  V30 38 H -2.4579 -5.13431 4.08319 0
M  V30 39 H -2.5409 -4.85839 5.79221 0
M  V30 40 H -1.2729 -5.85594 5.1449 0
M  V30 41 N 2.9562 -1.48159 -0.537278 0
M  V30 42 C 3.8662 -1.64807 -1.6696 0
M  V30 43 C 4.8822 -0.530651 -1.65711 0
M  V30 44 O 6.0582 -0.800784 -1.84796 0
M  V30 45 C 3.1232 -1.67708 -3.03438 0
M  V30 46 C 2.1842 -2.91025 -3.156 0
M  V30 47 C 1.4172 -2.93778 -4.45567 0
M  V30 48 O 1.6402 -2.05153 -5.3223 0
M  V30 49 O 0.5742 -3.85868 -4.61941 0
M  V30 50 H 4.4002 -2.6066 -1.55853 0
M  V30 51 H 1.9852 -1.31475 -0.709549 0
M  V30 52 H 3.8672 -1.7218 -3.84619 0
M  V30 53 H 2.5422 -0.750278 -3.14885 0
M  V30 54 H 1.4492 -2.92089 -2.33741 0
M  V30 55 H 2.7822 -3.83065 -3.09066 0
M  V30 56 N 4.4343 0.785586 -1.36625 0
M  V30 57 C 5.8503 1.08419 -1.17122 0
M  V30 58 C 6.0503 2.015 0.00208491 0
M  V30 59 O 5.1063 2.43551 0.666278 0
M  V30 60 C 6.4193 1.69498 -2.48377 0
M  V30 61 C 7.9673 1.81821 -2.54775 0
M  V30 62 C 8.4423 2.46315 -3.86126 0
M  V30 63 N 9.9333 2.53779 -3.87492 0
M  V30 64 C 10.6683 3.045 -4.85868 0
M  V30 65 N 10.1643 3.55499 -5.94637 0
M  V30 66 N 11.9573 3.03247 -4.73284 0
M  V30 67 H 4.1083 0.167264 -2.1174 0
M  V30 68 H 6.3713 0.13682 -0.938075 0
M  V30 69 H 6.0773 1.08571 -3.34522 0
M  V30 70 H 5.9513 2.6896 -2.64462 0
M  V30 71 H 8.3383 2.41884 -1.69045 0
M  V30 72 H 8.4193 0.811532 -2.42586 0
M  V30 73 H 8.0633 1.86895 -4.72263 0
M  V30 74 H 7.9933 3.47561 -3.95612 0
M  V30 75 H 10.4843 2.17672 -3.08913 0
M  V30 76 H 10.7973 3.92562 -6.65669 0
M  V30 77 H 9.1423 3.5364 -5.98301 0
M  V30 78 H 12.3333 2.62696 -3.87438 0
M  V30 79 H 12.5063 3.42467 -5.50109 0
M  V30 80 N 5.9124 1.20967 1.01018 0
M  V30 81 C 7.3284 0.965905 1.27053 0
M  V30 82 C 7.5284 -0.350785 1.98423 0
M  V30 83 O 6.5844 -1.07773 2.28344 0
M  V30 84 C 7.8974 2.15294 2.09926 0
M  V30 85 C 9.4454 2.19463 2.23171 0
M  V30 86 C 9.9204 3.3767 3.09424 0
M  V30 87 N 11.4114 3.37724 3.17012 0
M  V30 88 C 12.1464 4.25837 3.83993 0
M  V30 89 N 11.6424 5.24138 4.53047 0
M  V30 90 N 13.4354 4.1366 3.80581 0
M  V30 91 H 5.5864 2.0565 0.531194 0
M  V30 92 H 7.8494 0.90024 0.297106 0
M  V30 93 H 7.5554 3.10684 1.64828 0
M  V30 94 H 7.4294 2.13923 3.10672 0
M  V30 95 H 9.8164 1.24632 2.6749 0
M  V30 96 H 9.8974 2.2488 1.21912 0
M  V30 97 H 9.5414 4.32791 2.65808 0
M  V30 98 H 9.4714 3.29491 4.10784 0
M  V30 99 H 11.9624 2.6658 2.6785 0
M  V30 100 H 12.2754 5.87684 5.01844 0
M  V30 101 H 10.6204 5.28068 4.5185 0
M  V30 102 H 13.8114 3.36127 3.25785 0
M  V30 103 H 13.9844 4.82538 4.32505 0
M  V30 104 N 7.3905 -1.2043 1.01659 0
M  V30 105 C 8.3535 -2.21433 0.591616 0
M  V30 106 C 9.3535 -1.57203 -0.338226 0
M  V30 107 O 10.5435 -1.73737 -0.126918 0
M  V30 108 C 7.6755 -3.40628 -0.136058 0
M  V30 109 H 8.8685 -2.60545 1.48514 0
M  V30 110 H 6.4215 -1.33893 0.806379 0
M  V30 111 H 7.1565 -3.07019 -1.04449 0
M  V30 112 H 6.9415 -3.88475 0.531917 0
M  V30 113 H 8.4315 -4.15475 -0.420735 0
M  V30 114 N 8.8686 -0.792821 -1.36206 0
M  V30 115 C 10.0936 -0.377701 -2.03932 0
M  V30 116 C 10.5186 0.998947 -1.59382 0
M  V30 117 O 9.8766 1.64421 -0.763903 0
M  V30 118 C 9.9246 -0.453635 -3.57735 0
M  V30 119 O 9.0286 0.538151 -4.08874 0
M  V30 120 H 8.3696 -0.159855 -0.644471 0
M  V30 121 H 10.8996 -1.07488 -1.7409 0
M  V30 122 H 10.9096 -0.318464 -4.06755 0
M  V30 123 H 9.5846 -1.45784 -3.89512 0
M  V30 124 H 8.1616 0.364359 -3.71116 0
M  V30 125 N 10.3467 1.47872 -0.545128 0
M  V30 126 C 11.2787 2.27869 0.246621 0
M  V30 127 C 12.2917 1.36282 0.890561 0
M  V30 128 O 13.4807 1.61207 0.766449 0
M  V30 129 C 10.5807 3.10159 1.36582 0
M  V30 130 C 9.7537 4.29627 0.820954 0
M  V30 131 C 8.8127 4.93607 1.82314 0
M  V30 132 O 7.8387 5.52366 1.37406 0
M  V30 133 N 9.0407 4.87211 3.15603 0
M  V30 134 H 11.8057 2.96459 -0.439539 0
M  V30 135 H 9.3667 1.57367 -0.380421 0
M  V30 136 H 11.3587 3.49829 2.03474 0
M  V30 137 H 9.9287 2.43891 1.9554 0
M  V30 138 H 9.1487 3.94192 -0.0244032 0
M  V30 139 H 10.4367 5.06928 0.436063 0
M  V30 140 H 9.8347 4.40651 3.54744 0
M  V30 141 H 8.3917 5.30937 3.78087 0
M  V30 142 N 11.8248 0.280983 1.55075 0
M  V30 143 C 12.7718 -0.603937 2.22758 0
M  V30 144 C 13.7418 -1.1452 1.20309 0
M  V30 145 O 14.9268 -1.19343 1.48869 0
M  V30 146 C 12.0668 -1.77947 2.95684 0
M  V30 147 C 11.1798 -1.2715 4.12864 0
M  V30 148 C 10.3148 -2.4093 4.7342 0
M  V30 149 C 9.3538 -1.87165 5.82783 0
M  V30 150 N 8.4908 -2.94441 6.37377 0
M  V30 151 H 13.3308 -0.020124 2.97993 0
M  V30 152 H 10.8678 0.00183425 1.471 0
M  V30 153 H 12.8258 -2.47055 3.36184 0
M  V30 154 H 11.4558 -2.33522 2.22861 0
M  V30 155 H 10.5078 -0.473331 3.77444 0
M  V30 156 H 11.8198 -0.837751 4.91715 0
M  V30 157 H 10.9738 -3.18021 5.1667 0
M  V30 158 H 9.7128 -2.87623 3.93859 0
M  V30 159 H 8.7178 -1.08556 5.38976 0
M  V30 160 H 9.9428 -1.41401 6.64216 0
M  V30 161 H 7.8888 -3.40505 5.60707 0
M  V30 162 H 7.8058 -2.55501 7.11516 0
M  V30 163 H 9.0738 -3.71489 6.85285 0
M  V30 164 N 13.3029 -1.57598 0.00835791 0
M  V30 165 C 14.2329 -2.1198 -0.979113 0
M  V30 166 C 15.2139 -1.03091 -1.35301 0
M  V30 167 O 16.3989 -1.30818 -1.43528 0
M  V30 168 C 13.5289 -2.62995 -2.26828 0
M  V30 169 C 12.4829 -3.76485 -2.03576 0
M  V30 170 C 11.8089 -4.13846 -3.38579 0
M  V30 171 C 13.1089 -5.0342 -1.39161 0
M  V30 172 H 14.8029 -2.94738 -0.526281 0
M  V30 173 H 12.3489 -1.41783 -0.251704 0
M  V30 174 H 14.3019 -2.99669 -2.96271 0
M  V30 175 H 13.0259 -1.7737 -2.7424 0
M  V30 176 H 11.6849 -3.40217 -1.36557 0
M  V30 177 H 11.3329 -3.25232 -3.83709 0
M  V30 178 H 11.0329 -4.90312 -3.23834 0
M  V30 179 H 12.5569 -4.53086 -4.09323 0
M  V30 180 H 13.9709 -5.37812 -1.98573 0
M  V30 181 H 12.3679 -5.84746 -1.34878 0
M  V30 182 H 13.4379 -4.83548 -0.361868 0
M  V30 183 N 14.781 0.264519 -1.55364 0
M  V30 184 C 16.006 1.01726 -1.80739 0
M  V30 185 C 16.431 1.78836 -0.583044 0
M  V30 186 O 15.789 1.75167 0.467566 0
M  V30 187 C 15.837 1.94482 -3.03659 0
M  V30 188 O 14.941 3.03386 -2.7934 0
M  V30 189 H 14.282 0.290395 -0.597132 0
M  V30 190 H 16.812 0.290854 -2.02522 0
M  V30 191 H 16.822 2.36278 -3.32621 0
M  V30 192 H 15.497 1.37772 -3.92418 0
M  V30 193 H 14.074 2.65844 -2.61498 0
M  V30 194 N 16.2591 1.48442 0.529413 0
M  V30 195 C 17.4841 1.60406 1.31471 0
M  V30 196 C 17.9091 0.264738 1.86228 0
M  V30 197 O 17.2671 -0.763668 1.64432 0
M  V30 198 C 17.3151 2.65419 2.44101 0
M  V30 199 O 16.4191 2.22618 3.47153 0
M  V30 200 H 15.7601 0.537863 0.389357 0
M  V30 201 H 18.2901 1.94432 0.636965 0
M  V30 202 H 18.3001 2.86709 2.90279 0
M  V30 203 H 16.9751 3.62652 2.03608 0
M  V30 204 H 15.5521 2.11543 3.0709 0
M  V30 205 N 17.7372 -0.778329 1.37039 0
M  V30 206 C 18.6842 -1.89139 1.32269 0
M  V30 207 C 19.6542 -1.65017 0.189387 0
M  V30 208 O 20.8392 -1.87024 0.377693 0
M  V30 209 C 17.9792 -3.26112 1.12894 0
M  V30 210 C 17.0922 -3.62233 2.35396 0
M  V30 211 C 16.2272 -4.8838 2.08946 0
M  V30 212 C 15.2662 -5.17212 3.2735 0
M  V30 213 N 14.4032 -6.34546 3.00492 0
M  V30 214 H 19.2432 -1.92552 2.27437 0
M  V30 215 H 16.7802 -0.941473 1.13025 0
M  V30 216 H 18.7382 -4.05116 0.996835 0
M  V30 217 H 17.3682 -3.22091 0.213758 0
M  V30 218 H 16.4202 -2.78265 2.5937 0
M  V30 219 H 17.7322 -3.79481 3.23721 0
M  V30 220 H 16.8862 -5.75274 1.92729 0
M  V30 221 H 15.6252 -4.73222 1.17949 0
M  V30 222 H 14.6302 -4.28796 3.44113 0
M  V30 223 H 15.8552 -5.34283 4.19188 0
M  V30 224 H 13.8012 -6.20759 2.12118 0
M  V30 225 H 13.7182 -6.52179 3.82358 0
M  V30 226 H 14.9862 -7.24394 2.87879 0
M  V30 227 N 19.2153 -1.21501 -1.00376 0
M  V30 228 C 20.4403 -1.05977 -1.78279 0
M  V30 229 C 20.8653 0.385994 -1.84097 0
M  V30 230 O 20.2233 1.27849 -1.28547 0
M  V30 231 C 20.2713 -1.66302 -3.19963 0
M  V30 232 O 19.3753 -0.909333 -4.0225 0
M  V30 233 H 18.7163 -0.372906 -0.549397 0
M  V30 234 H 21.2463 -1.6107 -1.26165 0
M  V30 235 H 21.2563 -1.70574 -3.70632 0
M  V30 236 H 19.9313 -2.71515 -3.15043 0
M  V30 237 H 18.5083 -0.941795 -3.60811 0
M  V30 238 N 20.6934 1.19889 -1.02296 0
M  V30 239 C 21.9424 1.88743 -0.711257 0
M  V30 240 C 22.2554 1.80112 0.762817 0
M  V30 241 O 23.4614 2.44161 1.18733 0
M  V30 242 C 21.9174 3.38525 -1.22185 0
M  V30 243 C 21.5254 3.55727 -2.72328 0
M  V30 244 C 23.2694 4.12893 -0.985864 0
M  V30 245 C 21.1764 4.99369 -3.16835 0
M  V30 246 H 20.1064 0.706885 -0.262353 0
M  V30 247 H 22.7574 1.35586 -1.23648 0
M  V30 248 H 21.1394 3.91044 -0.624571 0
M  V30 249 H 22.3134 3.13564 -3.3766 0
M  V30 250 H 20.6284 2.94739 -2.9414 0
M  V30 251 H 23.2254 5.18813 -1.29374 0
M  V30 252 H 23.5684 4.16228 0.0775055 0
M  V30 253 H 24.1014 3.66494 -1.54684 0
M  V30 254 H 20.8404 5.01193 -4.22476 0
M  V30 255 H 20.3604 5.42317 -2.56228 0
M  V30 256 H 22.0394 5.67988 -3.09837 0
M  V30 257 N 22.1715 0.800033 1.35784 0
M  V30 258 C 23.1045 0.151499 2.27697 0
M  V30 259 C 24.0825 -0.678663 1.4776 0
M  V30 260 O 25.2665 -0.647358 1.77035 0
M  V30 261 C 22.3935 -0.790492 3.29346 0
M  V30 262 C 21.4395 -0.0407832 4.26481 0
M  V30 263 S 22.2725 1.29077 5.19711 0
M  V30 264 C 23.4285 0.353055 6.24903 0
M  V30 265 H 23.6615 0.930796 2.82353 0
M  V30 266 H 21.1945 0.594767 1.42485 0
M  V30 267 H 23.1525 -1.3285 3.88409 0
M  V30 268 H 21.8135 -1.54312 2.73581 0
M  V30 269 H 21.0065 -0.755971 4.98298 0
M  V30 270 H 20.6085 0.427063 3.71554 0
M  V30 271 H 22.9005 -0.464147 6.75908 0
M  V30 272 H 23.8435 1.04023 7.00418 0
M  V30 273 H 24.2515 -0.0483344 5.64479 0
M  V30 274 N 23.6496 -1.47581 0.552962 0
M  V30 275 C 24.9266 -1.95563 -0.0381515 0
M  V30 276 C 25.3066 -1.49552 -1.48988 0
M  V30 277 O 24.6546 -0.732414 -2.16444 0
M  V30 278 C 24.8646 -3.48848 0.102919 0
M  V30 279 C 26.2126 -4.24577 -0.0446082 0
M  V30 280 O 27.2366 -3.56187 0.0302548 0
M  V30 281 O 26.0956 -5.46116 -0.204923 0
M  V30 282 H 23.1896 -0.824321 -0.0665067 0
M  V30 283 H 25.7356 -1.58001 0.619186 0
M  V30 284 H 24.5076 -3.75129 1.11328 0
M  V30 285 H 24.1306 -3.93165 -0.592224 0
M  V30 286 N 25.1277 -0.289203 -1.54924 0
M  V30 287 C 26.5387 0.205791 -1.85562 0
M  V30 288 C 26.8897 1.54351 -1.2112 0
M  V30 289 O 26.0147 2.10435 -0.504601 0
M  V30 290 C 26.6097 0.380177 -3.3666 0
M  V30 291 C 25.1687 0.819395 -3.67373 0
M  V30 292 C 24.3157 -0.079159 -2.77187 0
M  V30 293 H 27.2667 -0.510577 -1.50262 0
M  V30 294 H 27.2877 1.21659 -3.60526 0
M  V30 295 H 26.7997 -0.593589 -3.83534 0
M  V30 296 H 24.9007 1.80413 -3.26009 0
M  V30 297 H 25.0137 0.646957 -4.74712 0
M  V30 298 H 23.3777 0.439565 -2.50878 0
M  V30 299 H 24.1607 -1.04906 -3.26878 0
M  V30 300 N 26.6058 1.57591 -0.0167156 0
M  V30 301 C 27.5538 2.10604 0.987353 0
M  V30 302 C 28.5478 1.02977 1.34507 0
M  V30 303 O 29.7538 1.21425 1.32875 0
M  V30 304 H 26.1288 0.672695 0.336134 0
M  V30 305 H 28.0998 2.93925 0.514817 0
M  V30 306 C 26.8488 2.6382 2.26483 0
M  V30 307 H 26.1718 3.46278 1.99829 0
M  V30 308 H 27.6118 3.04573 2.94977 0
M  V30 309 C 26.0708 1.55992 2.9861 0
M  V30 310 O 26.6008 0.952521 3.90243 0
M  V30 311 N 24.8068 1.28335 2.60727 0
M  V30 312 H 24.3538 1.77914 1.86291 0
M  V30 313 H 24.3118 0.564115 3.09298 0
M  V30 314 N 28.0839 -0.256276 1.55502 0
M  V30 315 C 29.0159 -1.33981 1.85962 0
M  V30 316 C 30.0289 -1.44743 0.745212 0
M  V30 317 O 31.2179 -1.4626 1.02324 0
M  V30 318 C 28.3179 -2.7194 2.02242 0
M  V30 319 C 27.4909 -2.83562 3.33033 0
M  V30 320 C 26.5499 -4.02304 3.39172 0
M  V30 321 O 25.5759 -3.92273 4.12444 0
M  V30 322 N 26.7779 -5.15045 2.67784 0
M  V30 323 H 29.5429 -1.08191 2.7949 0
M  V30 324 H 27.1039 -0.446388 1.55624 0
M  V30 325 H 29.0959 -3.49697 2.03701 0
M  V30 326 H 27.6659 -2.90479 1.15502 0
M  V30 327 H 26.8859 -1.92555 3.43971 0
M  V30 328 H 28.1739 -2.88271 4.19258 0
M  V30 329 H 27.5719 -5.26085 2.07968 0
M  V30 330 H 26.1289 -5.90972 2.74947 0
M  V30 331 N 29.562 -1.4872 -0.521534 0
M  V30 332 C 30.51 -1.64328 -1.64618 0
M  V30 333 C 31.504 -0.50953 -1.61555 0
M  V30 334 O 32.71 -0.688525 -1.66311 0
M  V30 335 H 29.085 -0.517805 -0.545328 0
M  V30 336 H 31.056 -2.58767 -1.48601 0
M  V30 337 C 29.805 -1.70805 -3.02855 0
M  V30 338 H 29.128 -2.5741 -3.05909 0
M  V30 339 H 30.568 -1.85766 -3.81139 0
M  V30 340 C 29.027 -0.448479 -3.33902 0
M  V30 341 O 29.557 0.434928 -3.99339 0
M  V30 342 N 27.763 -0.317616 -2.88859 0
M  V30 343 H 27.31 -1.03748 -2.35784 0
M  V30 344 H 27.268 0.524113 -3.10001 0
M  V30 345 N 31.0401 0.771051 -1.3745 0
M  V30 346 C 32.2861 1.5319 -1.32894 0
M  V30 347 C 32.6191 1.94008 0.0862511 0
M  V30 348 O 31.8941 1.64124 1.04373 0
M  V30 349 C 32.1771 2.79648 -2.26868 0
M  V30 350 C 32.0301 2.45079 -3.77169 0
M  V30 351 C 33.3491 3.81583 -2.19277 0
M  V30 352 H 30.4681 0.555744 -0.484064 0
M  V30 353 H 33.1101 0.884492 -1.68157 0
M  V30 354 H 31.2601 3.34891 -1.96926 0
M  V30 355 H 32.9321 1.95745 -4.1771 0
M  V30 356 H 31.1751 1.77767 -3.95704 0
M  V30 357 H 31.8461 3.35478 -4.38359 0
M  V30 358 H 34.3221 3.35835 -2.45671 0
M  V30 359 H 33.1981 4.67787 -2.87171 0
M  V30 360 H 33.4591 4.25897 -1.18592 0
M  V30 361 N 32.5182 1.22032 0.997298 0
M  V30 362 C 33.4652 0.986467 2.08656 0
M  V30 363 C 34.4352 -0.0902671 1.65855 0
M  V30 364 O 35.6202 0.0584294 1.90711 0
M  V30 365 C 32.7602 0.565569 3.40434 0
M  V30 366 C 31.8732 1.71259 3.96604 0
M  V30 367 C 31.0082 1.24011 5.16522 0
M  V30 368 C 30.0472 2.35896 5.64818 0
M  V30 369 N 29.1842 1.89726 6.7598 0
M  V30 370 H 34.0242 1.91892 2.27994 0
M  V30 371 H 31.5612 0.956199 1.11782 0
M  V30 372 H 33.5192 0.302738 4.161 0
M  V30 373 H 32.1492 -0.329879 3.2111 0
M  V30 374 H 31.2012 2.08986 3.17851 0
M  V30 375 H 32.5132 2.55436 4.28432 0
M  V30 376 H 31.6672 0.934395 5.99461 0
M  V30 377 H 30.4062 0.368487 4.86306 0
M  V30 378 H 29.4112 2.67261 4.8047 0
M  V30 379 H 30.6362 3.23567 5.97061 0
M  V30 380 H 28.5822 1.0492 6.47555 0
M  V30 381 H 28.4992 2.67471 7.07103 0
M  V30 382 H 29.7672 1.62211 7.62435 0
M  V30 383 N 33.9963 -1.19345 1.0293 0
M  V30 384 C 35.2363 -1.90738 0.734727 0
M  V30 385 C 35.6003 -1.7785 -0.723414 0
M  V30 386 O 36.8013 -2.43844 -1.13108 0
M  V30 387 C 35.0723 -3.37569 1.17396 0
M  V30 388 S 36.6313 -4.27176 1.00329 0
M  V30 389 H 33.4493 -0.658771 0.267474 0
M  V30 390 H 36.0513 -1.4428 1.31922 0
M  V30 391 H 34.7553 -3.44475 2.23081 0
M  V30 392 H 34.2863 -3.8906 0.582772 0
M  V30 393 H 36.3013 -4.96126 -0.0859152 0
M  V30 394 N 35.4744 -0.807222 -1.35358 0
M  V30 395 C 36.4214 -0.216037 -2.29787 0
M  V30 396 C 37.3914 0.650278 -1.52842 0
M  V30 397 O 38.5764 0.595227 -1.81278 0
M  V30 398 C 35.7164 0.628893 -3.39321 0
M  V30 399 C 34.8294 -0.257927 -4.31229 0
M  V30 400 C 33.9644 0.595069 -5.27856 0
M  V30 401 C 33.0034 -0.292111 -6.11403 0
M  V30 402 N 32.1404 0.520895 -7.00165 0
M  V30 403 H 36.9804 -1.02671 -2.79755 0
M  V30 404 H 34.5174 -0.517839 -1.37684 0
M  V30 405 H 36.4754 1.13393 -4.01494 0
M  V30 406 H 35.1054 1.40482 -2.90628 0
M  V30 407 H 34.1574 -0.881076 -3.70056 0
M  V30 408 H 35.4694 -0.940759 -4.89848 0
M  V30 409 H 34.6234 1.16522 -5.95405 0
M  V30 410 H 33.3624 1.31146 -4.69736 0
M  V30 411 H 32.3674 -0.874525 -5.428 0
M  V30 412 H 33.5924 -1.00638 -6.71602 0
M  V30 413 H 31.5384 1.22125 -6.44532 0
M  V30 414 H 31.4554 -0.103877 -7.55929 0
M  V30 415 H 32.7234 1.0743 -7.72062 0
M  V30 416 N 36.9525 1.47285 -0.560781 0
M  V30 417 C 38.2015 2.01668 -0.035895 0
M  V30 418 C 38.5145 1.44021 1.32353 0
M  V30 419 O 39.7205 1.90088 1.93853 0
M  V30 420 C 38.1765 3.59897 -0.0136659 0
M  V30 421 C 37.7845 4.26536 -1.37006 0
M  V30 422 C 39.5285 4.22017 0.458425 0
M  V30 423 C 37.4355 5.76782 -1.30675 0
M  V30 424 H 36.3655 0.753938 -0.00964879 0
M  V30 425 H 39.0165 1.69243 -0.709166 0
M  V30 426 H 37.3985 3.89301 0.725325 0
M  V30 427 H 38.5725 4.0877 -2.12705 0
M  V30 428 H 36.8875 3.76419 -1.78038 0
M  V30 429 H 39.4845 5.32124 0.524247 0
M  V30 430 H 39.8275 3.89437 1.4712 0
M  V30 431 H 40.3605 3.97159 -0.225818 0
M  V30 432 H 37.0995 6.13988 -2.29564 0
M  V30 433 H 36.6195 5.96875 -0.591622 0
M  V30 434 H 38.2985 6.39063 -1.01033 0
M  V30 435 N 38.4306 0.297415 1.54768 0
M  V30 436 C 39.6766 -0.313376 2.00364 0
M  V30 437 C 40.0096 -1.53815 1.18553 0
M  V30 438 O 39.2846 -1.92739 0.261103 0
M  V30 439 C 39.5676 -0.673525 3.53745 0
M  V30 440 C 39.4206 0.560133 4.46299 0
M  V30 441 C 40.7396 -1.50143 4.13697 0
M  V30 442 H 37.8586 -0.112428 0.728374 0
M  V30 443 H 40.5006 0.4088 1.8555 0
M  V30 444 H 38.6506 -1.28881 3.665 0
M  V30 445 H 40.3226 1.19863 4.45455 0
M  V30 446 H 38.5656 1.19405 4.17043 0
M  V30 447 H 39.2366 0.26405 5.51368 0
M  V30 448 H 41.7126 -0.981588 4.04356 0
M  V30 449 H 40.5886 -1.72221 5.21182 0
M  V30 450 H 40.8496 -2.48952 3.65343 0
M  V30 451 N 39.9087 -1.5758 0.0250728 0
M  V30 452 C 41.1547 -1.91917 -0.655413 0
M  V30 453 C 41.4877 -0.901433 -1.72011 0
M  V30 454 O 40.7627 0.0764069 -1.9435 0
M  V30 455 C 41.0457 -3.36751 -1.27558 0
M  V30 456 C 40.8987 -4.49258 -0.220719 0
M  V30 457 C 42.2177 -3.81469 -2.19475 0
M  V30 458 H 39.3367 -0.697925 -0.23679 0
M  V30 459 H 41.9787 -1.89825 0.0815036 0
M  V30 460 H 40.1287 -3.38664 -1.90365 0
M  V30 461 H 41.8007 -4.59478 0.409601 0
M  V30 462 H 40.0437 -4.31415 0.454264 0
M  V30 463 H 40.7147 -5.47618 -0.694175 0
M  V30 464 H 43.1907 -3.81266 -1.66659 0
M  V30 465 H 42.0667 -4.83512 -2.59822 0
M  V30 466 H 42.3277 -3.16744 -3.08424 0
M  V30 467 N 41.3868 0.248026 -1.55636 0
M  V30 468 C 42.6328 0.97767 -1.77678 0
M  V30 469 C 42.9658 1.85016 -0.590135 0
M  V30 470 O 42.2408 1.90095 0.411611 0
M  V30 471 C 42.5238 1.83914 -3.09593 0
M  V30 472 C 42.3768 0.99491 -4.38659 0
M  V30 473 C 43.6958 2.82183 -3.37729 0
M  V30 474 H 40.8148 0.354005 -0.646413 0
M  V30 475 H 43.4568 0.248253 -1.88371 0
M  V30 476 H 41.6068 2.46104 -3.00608 0
M  V30 477 H 43.2788 0.391789 -4.59633 0
M  V30 478 H 41.5218 0.299231 -4.32767 0
M  V30 479 H 42.1928 1.63145 -5.2734 0
M  V30 480 H 44.6688 2.30129 -3.4667 0
M  V30 481 H 43.5448 3.39582 -4.31249 0
M  V30 482 H 43.8058 3.58588 -2.58586 0
M  V30 483 N 42.8649 1.48995 0.513639 0
M  V30 484 C 44.1129 1.57531 1.26604 0
M  V30 485 C 44.4339 0.258236 1.93283 0
M  V30 486 O 43.7039 -0.721502 1.8213 0
M  V30 487 H 42.2839 0.580387 0.470276 0
M  V30 488 H 44.9459 1.85552 0.596373 0
M  V30 489 H 44.0419 2.36486 2.03669 0
M  V30 490 N 44.343 -0.763751 1.37857 0
M  V30 491 C 45.62 -1.51244 1.24035 0
M  V30 492 C 46 -2.10472 -0.162649 0
M  V30 493 O 45.348 -1.96206 -1.17112 0
M  V30 494 C 45.558 -2.58694 2.34261 0
M  V30 495 C 46.906 -3.25878 2.72193 0
M  V30 496 O 47.93 -2.68993 2.33497 0
M  V30 497 O 46.789 -4.2874 3.38887 0
M  V30 498 H 43.883 -0.670243 0.484462 0
M  V30 499 H 46.429 -0.800031 1.49658 0
M  V30 500 H 45.201 -2.13105 3.2818 0
M  V30 501 H 44.824 -3.37527 2.10146 0
M  V30 502 N 45.8211 -1.22559 -0.990812 0
M  V30 503 C 47.0461 -1.07862 -1.77145 0
M  V30 504 C 47.4711 0.366447 -1.84496 0
M  V30 505 O 46.8291 1.26478 -1.29896 0
M  V30 506 C 46.8771 -1.69686 -3.18181 0
M  V30 507 O 45.9811 -0.951946 -4.01263 0
M  V30 508 H 45.3221 -0.378712 -0.545411 0
M  V30 509 H 47.8521 -1.62399 -1.2445 0
M  V30 510 H 47.8621 -1.74496 -3.68802 0
M  V30 511 H 46.5371 -2.74841 -3.12146 0
M  V30 512 H 45.1141 -0.980011 -3.59792 0
M  V30 513 N 47.2992 1.18797 -1.03562 0
M  V30 514 C 48.2312 2.21731 -0.580337 0
M  V30 515 C 49.2442 1.59051 0.347349 0
M  V30 516 O 50.4332 1.77929 0.142669 0
M  V30 517 C 47.5332 3.38459 0.172805 0
M  V30 518 C 46.7062 4.3072 -0.761496 0
M  V30 519 C 45.7652 5.26174 -0.0525547 0
M  V30 520 O 44.7912 5.65108 -0.681333 0
M  V30 521 N 45.9932 5.67624 1.21586 0
M  V30 522 H 48.7582 2.61417 -1.46565 0
M  V30 523 H 46.3192 1.33531 -0.915476 0
M  V30 524 H 48.3112 3.99335 0.656793 0
M  V30 525 H 46.8812 2.97507 0.959602 0
M  V30 526 H 46.1012 3.67525 -1.42544 0
M  V30 527 H 47.3892 4.89267 -1.39626 0
M  V30 528 H 46.7872 5.38038 1.74732 0
M  V30 529 H 45.3442 6.30721 1.64421 0
M  V30 530 N 48.7773 0.814389 1.34928 0
M  V30 531 C 50.0173 0.404165 2.00364 0
M  V30 532 C 50.3813 -1.01166 1.63185 0
M  V30 533 O 51.5823 -1.52431 2.21401 0
M  V30 534 C 49.8533 0.590718 3.52484 0
M  V30 535 S 51.4123 0.272075 4.37956 0
M  V30 536 H 48.2303 0.15311 0.694319 0
M  V30 537 H 50.8323 1.05834 1.64376 0
M  V30 538 H 49.5363 1.62099 3.77031 0
M  V30 539 H 49.0673 -0.0785013 3.93322 0
M  V30 540 H 51.0823 -0.917405 4.87645 0
M  V30 541 N 50.2554 -1.46986 0.568584 0
M  V30 542 C 51.5034 -2.02041 0.0487022 0
M  V30 543 C 51.8244 -1.44408 -1.31039 0
M  V30 544 O 51.0944 -0.623477 -1.85714 0
M  V30 545 H 49.6744 -0.746849 0.015014 0
M  V30 546 H 52.3364 -1.80257 0.741168 0
M  V30 547 H 51.4324 -3.12085 -0.0308961 0
M  V30 548 N 51.7335 -0.305618 -1.54608 0
M  V30 549 C 52.6805 0.568421 -2.23691 0
M  V30 550 C 53.6505 1.12592 -1.22116 0
M  V30 551 O 54.8355 1.16959 -1.50749 0
M  V30 552 C 51.9755 1.7322 -2.98477 0
M  V30 553 C 51.0885 1.20566 -4.14835 0
M  V30 554 C 50.2235 2.33368 -4.77193 0
M  V30 555 C 49.2625 1.7787 -5.85686 0
M  V30 556 N 48.3995 2.84263 -6.4198 0
M  V30 557 H 53.2395 -0.0272867 -2.97988 0
M  V30 558 H 50.7765 -0.0252363 -1.47078 0
M  V30 559 H 52.7345 2.41675 -3.40072 0
M  V30 560 H 51.3645 2.29947 -2.26548 0
M  V30 561 H 50.4165 0.413223 -3.78149 0
M  V30 562 H 51.7285 0.759417 -4.92985 0
M  V30 563 H 50.8825 3.09761 -5.21664 0
M  V30 564 H 49.6215 2.8132 -3.98385 0
M  V30 565 H 48.6265 0.99968 -5.40635 0
M  V30 566 H 49.8515 1.30816 -6.66381 0
M  V30 567 H 47.7975 3.31541 -5.66053 0
M  V30 568 H 47.7145 2.44149 -7.15491 0
M  V30 569 H 48.9825 3.6054 -6.91109 0
M  V30 570 N 53.2116 1.57565 -0.0334293 0
M  V30 571 C 54.4396 1.9628 0.654347 0
M  V30 572 C 54.8546 0.910138 1.65414 0
M  V30 573 O 54.2116 -0.107595 1.82183 0
M  V30 574 C 54.2626 3.35067 1.35693 0
M  V30 575 O 53.9836 4.36296 0.397191 0
M  V30 576 C 55.4846 3.88439 2.13613 0
M  V30 577 H 52.7046 0.646369 0.180132 0
M  V30 578 H 55.2486 2.04282 -0.0944721 0
M  V30 579 H 53.4036 3.2827 2.05712 0
M  V30 580 H 53.8176 5.1678 0.896597 0
M  V30 581 H 55.2916 4.8788 2.58219 0
M  V30 582 H 55.7686 3.22914 2.97696 0
M  V30 583 H 56.3746 3.98516 1.48543 0
M  V30 584 N 54.6897 -0.239769 1.55765 0
M  V30 585 C 55.6527 -1.28038 1.90103 0
M  V30 586 C 56.6527 -1.40723 0.778055 0
M  V30 587 O 57.8427 -1.39301 1.04599 0
M  V30 588 C 54.9747 -2.65702 2.13577 0
M  V30 589 H 56.1677 -0.988048 2.83157 0
M  V30 590 H 53.7207 -0.479382 1.48767 0
M  V30 591 H 54.4557 -3.00063 1.23015 0
M  V30 592 H 54.2407 -2.57875 2.95369 0
M  V30 593 H 55.7307 -3.40828 2.41301 0
M  V30 594 N 56.1678 -1.49265 -0.50573 0
M  V30 595 C 57.0978 -1.68495 -1.61653 0
M  V30 596 C 58.0788 -0.53366 -1.61512 0
M  V30 597 O 59.2638 -0.76897 -1.78327 0
M  V30 598 C 56.3938 -1.74709 -3.00157 0
M  V30 599 C 55.3478 -2.89581 -3.15162 0
M  V30 600 C 54.6738 -2.80903 -4.5497 0
M  V30 601 C 55.9738 -4.30578 -2.95634 0
M  V30 602 H 57.6678 -2.61493 -1.45814 0
M  V30 603 H 55.2138 -1.25838 -0.70005 0
M  V30 604 H 57.1668 -1.86748 -3.77761 0
M  V30 605 H 55.8908 -0.783067 -3.17074 0
M  V30 606 H 54.5498 -2.77136 -2.39982 0
M  V30 607 H 54.1978 -1.82419 -4.68756 0
M  V30 608 H 53.8978 -3.57999 -4.65951 0
M  V30 609 H 55.4218 -2.94944 -5.34641 0
M  V30 610 H 56.8358 -4.4373 -3.63011 0
M  V30 611 H 55.2328 -5.0886 -3.18091 0
M  V30 612 H 56.3028 -4.45352 -1.91806 0
M  V30 613 N 57.6459 0.756429 -1.3826 0
M  V30 614 C 58.5759 1.88374 -1.37976 0
M  V30 615 C 59.5569 1.68311 -0.246082 0
M  V30 616 O 60.7419 1.88944 -0.44874 0
M  V30 617 C 57.8719 3.25864 -1.20125 0
M  V30 618 C 56.8259 3.60523 -2.30666 0
M  V30 619 C 56.1519 4.9672 -1.97923 0
M  V30 620 C 57.4519 3.65692 -3.72916 0
M  V30 621 H 59.1459 1.88869 -2.32312 0
M  V30 622 H 56.6919 0.907272 -1.11824 0
M  V30 623 H 58.6449 4.0438 -1.18552 0
M  V30 624 H 57.3689 3.25841 -0.222498 0
M  V30 625 H 56.0279 2.84324 -2.3142 0
M  V30 626 H 55.6759 4.93253 -0.985393 0
M  V30 627 H 55.3759 5.20878 -2.71955 0
M  V30 628 H 56.8999 5.77618 -1.97964 0
M  V30 629 H 58.3139 4.34328 -3.74208 0
M  V30 630 H 56.7109 4.01358 -4.4613 0
M  V30 631 H 57.7809 2.65987 -4.05436 0
M  V30 632 N 59.124 1.23083 0.984299 0
M  V30 633 C 60.074 0.975749 2.06066 0
M  V30 634 C 61.058 -0.0768251 1.60716 0
M  V30 635 O 62.25 0.134805 1.76486 0
M  V30 636 C 59.379 0.564673 3.38624 0
M  V30 637 C 58.465 1.65244 3.90583 0
M  V30 638 N 58.856 2.88193 4.15666 0
M  V30 639 C 57.154 1.52612 4.19077 0
M  V30 640 C 57.855 3.58593 4.58024 0
M  V30 641 N 56.831 2.86093 4.62225 0
M  V30 642 H 60.633 1.90957 2.23411 0
M  V30 643 H 58.147 1.12963 1.16675 0
M  V30 644 H 60.144 0.36322 4.15315 0
M  V30 645 H 58.804 -0.362147 3.22674 0
M  V30 646 H 59.815 3.24537 4.03604 0
M  V30 647 H 56.492 0.666121 4.12152 0
M  V30 648 H 57.882 4.63974 4.85982 0
M  V30 649 N 60.6021 -1.18246 1.0419 0
M  V30 650 C 61.8481 -1.88536 0.747122 0
M  V30 651 C 62.1811 -1.80223 -0.723409 0
M  V30 652 O 61.4561 -1.20337 -1.52804 0
M  V30 653 C 61.7391 -3.38968 1.21544 0
M  V30 654 C 61.5921 -3.56084 2.74816 0
M  V30 655 C 62.9111 -4.32648 0.806482 0
M  V30 656 H 60.0301 -0.684619 0.272883 0
M  V30 657 H 62.6721 -1.39113 1.29413 0
M  V30 658 H 60.8221 -3.8119 0.750081 0
M  V30 659 H 62.4941 -3.22946 3.29399 0
M  V30 660 H 60.7371 -2.98699 3.14582 0
M  V30 661 H 61.4081 -4.61639 3.02644 0
M  V30 662 H 63.8841 -3.98211 1.20695 0
M  V30 663 H 62.7601 -5.36462 1.1619 0
M  V30 664 H 63.0211 -4.41146 -0.29029 0
M  V30 665 N 62.0802 -0.821533 -1.34494 0
M  V30 666 C 63.3272 -0.408946 -1.98328 0
M  V30 667 C 63.6552 1.02764 -1.65136 0
M  V30 668 O 62.9102 1.73026 -0.914349 0
M  V30 669 C 63.2092 -0.556512 -3.53041 0
M  V30 670 C 62.8752 -1.95861 -4.0614 0
M  V30 671 C 61.5372 -2.34217 -4.20352 0
M  V30 672 C 63.8892 -2.87523 -4.34718 0
M  V30 673 C 61.2172 -3.63572 -4.6047 0
M  V30 674 C 63.5692 -4.1634 -4.76281 0
M  V30 675 C 62.2332 -4.54675 -4.88699 0
M  V30 676 H 61.5032 -0.149644 -0.725732 0
M  V30 677 H 64.1502 -1.04521 -1.6046 0
M  V30 678 H 62.4552 0.163148 -3.9146 0
M  V30 679 H 64.1522 -0.217826 -4.00408 0
M  V30 680 H 60.7422 -1.65066 -3.95539 0
M  V30 681 H 64.9262 -2.59133 -4.23277 0
M  V30 682 H 60.1822 -3.93101 -4.68275 0
M  V30 683 H 64.3562 -4.87455 -4.97354 0
M  V30 684 H 61.9832 -5.54959 -5.19542 0
M  V30 685 N 63.5583 1.46682 -0.576371 0
M  V30 686 C 64.5213 2.28707 0.150239 0
M  V30 687 C 65.5213 1.38035 0.824794 0
M  V30 688 O 66.7113 1.60476 0.677719 0
M  V30 689 C 63.8433 3.18248 1.22192 0
M  V30 690 H 65.0363 2.94423 -0.570521 0
M  V30 691 H 62.5893 1.52688 -0.334078 0
M  V30 692 H 63.3243 2.57265 1.97447 0
M  V30 693 H 63.1093 3.85 0.742812 0
M  V30 694 H 64.5993 3.80001 1.73172 0
M  V30 695 N 65.0364 0.313813 1.54444 0
M  V30 696 C 65.9834 -0.55655 2.23989 0
M  V30 697 C 66.9534 -1.11943 1.22711 0
M  V30 698 O 68.1384 -1.16158 1.51367 0
M  V30 699 C 65.2784 -1.71635 2.99392 0
M  V30 700 C 64.3914 -1.18364 4.15468 0
M  V30 701 C 63.5264 -2.30834 4.78424 0
M  V30 702 C 62.5654 -1.74762 5.86622 0
M  V30 703 N 61.7024 -2.80855 6.43479 0
M  V30 704 H 66.5424 0.0430893 2.97969 0
M  V30 705 H 64.0794 0.0330359 1.47063 0
M  V30 706 H 66.0374 -2.39868 3.41349 0
M  V30 707 H 64.6674 -2.28742 2.27765 0
M  V30 708 H 63.7194 -0.393163 3.78363 0
M  V30 709 H 65.0314 -0.733262 4.93381 0
M  V30 710 H 64.1854 -3.0699 5.23299 0
M  V30 711 H 62.9244 -2.79204 3.99871 0
M  V30 712 H 61.9294 -0.970995 5.41158 0
M  V30 713 H 63.1544 -1.2728 6.67066 0
M  V30 714 H 61.1004 -3.28535 5.67804 0
M  V30 715 H 61.0174 -2.40351 7.16776 0
M  V30 716 H 62.2854 -3.5687 6.93011 0
M  V30 717 N 66.5145 -1.57545 0.0417849 0
M  V30 718 C 67.7915 -1.83642 -0.673433 0
M  V30 719 C 68.1715 -0.928298 -1.89594 0
M  V30 720 O 67.5195 0.0129955 -2.28496 0
M  V30 721 C 67.7295 -3.33155 -1.03964 0
M  V30 722 C 69.0775 -3.99941 -1.42592 0
M  V30 723 O 70.1015 -3.37725 -1.13226 0
M  V30 724 O 68.9605 -5.09619 -1.9736 0
M  V30 725 H 66.0545 -0.757638 -0.331533 0
M  V30 726 H 68.6005 -1.69554 0.070433 0
M  V30 727 H 67.3725 -3.9093 -0.170098 0
M  V30 728 H 66.9955 -3.52396 -1.84126 0
M  V30 729 N 67.9926 0.231505 -1.5589 0
M  V30 730 C 69.2326 0.964533 -1.80211 0
M  V30 731 C 69.5966 1.81926 -0.613744 0
M  V30 732 O 70.7976 2.58526 -0.736045 0
M  V30 733 C 69.0686 1.78956 -3.09369 0
M  V30 734 S 70.6276 2.57959 -3.54969 0
M  V30 735 H 67.4456 0.324173 -0.632798 0
M  V30 736 H 70.0476 0.230985 -1.94131 0
M  V30 737 H 68.7516 1.15161 -3.93911 0
M  V30 738 H 68.2826 2.56559 -2.9823 0
M  V30 739 H 70.2976 3.81309 -3.17519 0
M  V30 740 N 69.4707 1.49531 0.497807 0
M  V30 741 C 70.7177 1.59179 1.25173 0
M  V30 742 C 71.0457 0.279932 1.92475 0
M  V30 743 O 70.3007 -0.732383 1.81479 0
M  V30 744 C 70.5997 2.70252 2.33878 0
M  V30 745 C 70.2657 4.11644 1.84012 0
M  V30 746 C 68.9277 4.50121 1.70132 0
M  V30 747 C 71.2797 5.00121 1.46725 0
M  V30 748 C 68.6077 5.74845 1.17348 0
M  V30 749 C 70.9597 6.25366 0.95392 0
M  V30 750 C 69.6237 6.6267 0.801538 0
M  V30 751 H 68.8937 0.582478 0.45804 0
M  V30 752 H 71.5407 1.83373 0.551948 0
M  V30 753 H 69.8457 2.40041 3.09657 0
M  V30 754 H 71.5427 2.74925 2.9192 0
M  V30 755 H 68.1327 3.81274 1.95775 0
M  V30 756 H 72.3167 4.71048 1.56294 0
M  V30 757 H 67.5727 6.02444 1.04264 0
M  V30 758 H 71.7467 6.93301 0.656225 0
M  V30 759 H 69.3737 7.59197 0.390351 0
M  V30 760 N 70.9488 -0.749086 1.3866 0
M  V30 761 C 72.3598 -1.32664 1.31366 0
M  V30 762 C 72.7108 -1.96179 -0.028484 0
M  V30 763 O 71.8358 -1.9537 -0.93057 0
M  V30 764 C 72.4308 -2.41219 2.37905 0
M  V30 765 C 70.9898 -2.94684 2.34176 0
M  V30 766 C 70.1368 -1.68108 2.20533 0
M  V30 767 H 73.0878 -0.547628 1.48952 0
M  V30 768 H 73.1088 -3.21268 2.0388 0
M  V30 769 H 72.6208 -1.94962 3.35576 0
M  V30 770 H 70.7218 -3.45258 1.401 0
M  V30 771 H 70.8348 -3.48757 3.2849 0
M  V30 772 H 69.1988 -1.91907 1.67463 0
M  V30 773 H 69.9818 -1.23923 3.20153 0
M  V30 774 N 72.4269 -1.23603 -0.977757 0
M  V30 775 C 73.3369 -1.03632 -2.1047 0
M  V30 776 C 74.3529 0.0199435 -1.73989 0
M  V30 777 O 75.5289 -0.176076 -2.00629 0
M  V30 778 C 72.5939 -0.63276 -3.40877 0
M  V30 779 C 71.6549 -1.76437 -3.91367 0
M  V30 780 C 70.8879 -1.37997 -5.15551 0
M  V30 781 O 71.1109 -0.265357 -5.69782 0
M  V30 782 O 70.0449 -2.20201 -5.60174 0
M  V30 783 H 73.8709 -1.98086 -2.30208 0
M  V30 784 H 71.4559 -1.02332 -1.08851 0
M  V30 785 H 73.3379 -0.418761 -4.19314 0
M  V30 786 H 72.0129 0.282754 -3.22463 0
M  V30 787 H 70.9199 -2.03304 -3.14036 0
M  V30 788 H 72.2529 -2.6583 -4.14241 0
M  V30 789 N 73.905 1.17692 -1.04816 0
M  V30 790 C 74.853 2.23632 -0.63966 0
M  V30 791 C 75.847 1.6601 0.337219 0
M  V30 792 O 77.053 1.78844 0.203693 0
M  V30 793 H 73.428 0.727949 -0.188665 0
M  V30 794 H 75.399 2.55387 -1.54337 0
M  V30 795 C 74.148 3.4769 -0.0264051 0
M  V30 796 H 73.471 3.92331 -0.769164 0
M  V30 797 H 74.911 4.23418 0.222098 0
M  V30 798 C 73.37 3.13807 1.22584 0
M  V30 799 O 73.9 3.28236 2.31569 0
M  V30 800 N 72.106 2.68065 1.12202 0
M  V30 801 H 71.653 2.56525 0.235133 0
M  V30 802 H 71.611 2.45767 1.96076 0
M  V30 803 N 75.3831 0.828654 1.34056 0
M  V30 804 C 76.6131 0.431993 2.02033 0
M  V30 805 C 77.0211 -0.96844 1.62536 0
M  V30 806 O 76.3641 -1.6391 0.829408 0
M  V30 807 C 76.4261 0.461224 3.56529 0
M  V30 808 C 76.0901 1.81599 4.1937 0
M  V30 809 C 77.0871 2.7777 4.39477 0
M  V30 810 C 74.7721 2.10604 4.56017 0
M  V30 811 C 76.7661 4.01115 4.95364 0
M  V30 812 C 74.4531 3.34207 5.11614 0
M  V30 813 C 75.4511 4.2928 5.31232 0
M  V30 814 O 75.1391 5.50699 5.8565 0
M  V30 815 H 74.8711 0.170943 0.654029 0
M  V30 816 H 77.4251 1.11988 1.72185 0
M  V30 817 H 75.6551 -0.283388 3.8566 0
M  V30 818 H 77.3441 0.0838149 4.05813 0
M  V30 819 H 78.1101 2.56659 4.11523 0
M  V30 820 H 73.9891 1.37402 4.40047 0
M  V30 821 H 77.5331 4.75333 5.10592 0
M  V30 822 H 73.4301 3.55179 5.38997 0
M  V30 823 H 74.1981 5.52298 6.04077 0
M  V30 824 N 76.8612 -1.46375 0.584142 0
M  V30 825 C 78.1072 -2.02678 0.0703716 0
M  V30 826 C 78.4402 -1.4545 -1.28678 0
M  V30 827 O 77.7152 -0.62014 -1.84349 0
M  V30 828 C 77.9982 -3.60099 0.00614674 0
M  V30 829 C 77.8512 -4.27709 1.3923 0
M  V30 830 C 79.1702 -4.34598 -0.693742 0
M  V30 831 H 76.2892 -0.736504 0.027047 0
M  V30 832 H 78.9312 -1.74501 0.751615 0
M  V30 833 H 77.0812 -3.84236 -0.574009 0
M  V30 834 H 78.7532 -4.14832 2.01773 0
M  V30 835 H 76.9962 -3.87016 1.95962 0
M  V30 836 H 77.6672 -5.36478 1.29982 0
M  V30 837 H 80.1432 -4.15615 -0.200869 0
M  V30 838 H 79.0192 -5.44318 -0.707714 0
M  V30 839 H 79.2802 -4.05759 -1.75533 0
M  V30 840 N 78.3393 -0.321999 -1.54275 0
M  V30 841 C 79.7503 0.166384 -1.85957 0
M  V30 842 C 80.1013 1.51747 -1.24367 0
M  V30 843 O 79.2263 2.09317 -0.549124 0
M  V30 844 C 79.8213 0.308681 -3.37391 0
M  V30 845 C 78.3803 0.741286 -3.69028 0
M  V30 846 C 77.5273 -0.137937 -2.76957 0
M  V30 847 H 80.4783 -0.542335 -1.49146 0
M  V30 848 H 80.4993 1.13984 -3.63026 0
M  V30 849 H 80.0113 -0.674809 -3.82188 0
M  V30 850 H 78.1123 1.73458 -3.29762 0
M  V30 851 H 78.2253 0.546118 -4.75977 0
M  V30 852 H 76.5893 0.386251 -2.51754 0
M  V30 853 H 77.3723 -1.11816 -3.2458 0
M  V30 854 N 79.8174 1.5752 -0.0501392 0
M  V30 855 C 81.0454 1.96963 0.633492 0
M  V30 856 C 81.4604 0.927631 1.6444 0
M  V30 857 O 80.8174 -0.0882665 1.82286 0
M  V30 858 C 80.8684 3.36487 1.32132 0
M  V30 859 O 80.5894 4.36693 0.350894 0
M  V30 860 C 82.0904 3.90682 2.09481 0
M  V30 861 H 79.3104 0.648244 0.173266 0
M  V30 862 H 81.8544 2.0417 -0.116134 0
M  V30 863 H 80.0094 3.30434 2.02218 0
M  V30 864 H 80.4234 5.17702 0.841735 0
M  V30 865 H 81.8974 4.90591 2.5303 0
M  V30 866 H 82.3744 3.26053 2.94255 0
M  V30 867 H 82.9804 4.00069 1.44307 0
M  V30 868 N 81.2955 -0.223234 1.56011 0
M  V30 869 C 82.5415 -0.949279 1.79211 0
M  V30 870 C 82.8745 -1.84054 0.619494 0
M  V30 871 O 82.1495 -1.90726 -0.381317 0
M  V30 872 C 82.4325 -1.78965 3.12479 0
M  V30 873 C 82.2855 -0.924997 4.40186 0
M  V30 874 C 83.6045 -2.76774 3.42175 0
M  V30 875 H 80.7235 -0.343676 0.651963 0
M  V30 876 H 83.3655 -0.218253 1.88742 0
M  V30 877 H 81.5155 -2.41291 3.04485 0
M  V30 878 H 83.1875 -0.318615 4.60198 0
M  V30 879 H 81.4305 -0.230344 4.33188 0
M  V30 880 H 82.1015 -1.54735 5.29869 0
M  V30 881 H 84.5775 -2.24584 3.50287 0
M  V30 882 H 83.4535 -3.32678 4.36597 0
M  V30 883 H 83.7145 -3.54429 2.64258 0
M  V30 884 N 82.7736 -1.49793 -0.48987 0
M  V30 885 C 84.0206 -1.59841 -1.24327 0
M  V30 886 C 84.3486 -0.290135 -1.92324 0
M  V30 887 O 83.6036 0.722749 -1.81865 0
M  V30 888 C 83.9026 -2.71488 -2.32441 0
M  V30 889 C 83.5686 -4.12614 -1.81826 0
M  V30 890 C 82.2306 -4.51017 -1.67742 0
M  V30 891 C 84.5826 -5.00892 -1.4407 0
M  V30 892 C 81.9106 -5.75459 -1.14297 0
M  V30 893 C 84.2626 -6.25863 -0.920742 0
M  V30 894 C 82.9266 -6.63086 -0.766383 0
M  V30 895 H 82.1966 -0.584899 -0.454944 0
M  V30 896 H 84.8436 -1.83663 -0.542215 0
M  V30 897 H 83.1486 -2.4168 -3.0838 0
M  V30 898 H 84.8456 -2.76469 -2.90458 0
M  V30 899 H 81.4356 -3.82307 -1.93751 0
M  V30 900 H 85.6196 -4.7187 -1.53794 0
M  V30 901 H 80.8756 -6.02989 -1.01068 0
M  V30 902 H 85.0496 -6.9364 -0.619448 0
M  V30 903 H 82.6766 -7.59393 -0.350083 0
M  V30 904 N 84.2517 0.741722 -1.39055 0
M  V30 905 C 85.1617 1.88621 -1.39496 0
M  V30 906 C 86.1777 1.71557 -0.290578 0
M  V30 907 O 87.3537 1.94275 -0.530954 0
M  V30 908 C 84.4187 3.24134 -1.23037 0
M  V30 909 C 83.4797 3.5364 -2.43387 0
M  V30 910 C 82.7127 4.82687 -2.27703 0
M  V30 911 O 82.9357 5.55922 -1.27696 0
M  V30 912 O 81.8697 5.1194 -3.16545 0
M  V30 913 H 85.6957 1.91203 -2.35956 0
M  V30 914 H 83.2807 0.888625 -1.20099 0
M  V30 915 H 85.1627 4.0513 -1.15964 0
M  V30 916 H 83.8377 3.22337 -0.296691 0
M  V30 917 H 82.7447 2.72758 -2.56035 0
M  V30 918 H 84.0777 3.60209 -3.35425 0
M  V30 919 N 85.7298 1.2412 0.971189 0
M  V30 920 C 86.6778 1.02812 2.08644 0
M  V30 921 C 87.6718 -0.0358403 1.69362 0
M  V30 922 O 88.8778 0.118429 1.7961 0
M  V30 923 H 85.2528 0.315428 0.682649 0
M  V30 924 H 87.2238 1.97397 2.23779 0
M  V30 925 C 85.9728 0.645874 3.41649 0
M  V30 926 H 85.2958 1.45632 3.72332 0
M  V30 927 H 86.7358 0.536366 4.20594 0
M  V30 928 C 85.1948 -0.646713 3.30635 0
M  V30 929 O 85.7248 -1.69338 3.64263 0
M  V30 930 N 83.9308 -0.626115 2.83775 0
M  V30 931 H 83.4778 0.225988 2.56607 0
M  V30 932 H 83.4358 -1.49117 2.76788 0
M  V30 933 N 87.2079 -1.17134 1.05439 0
M  V30 934 C 88.4379 -1.91094 0.785274 0
M  V30 935 C 88.8459 -1.77198 -0.663142 0
M  V30 936 O 88.1889 -1.10835 -1.46497 0
M  V30 937 C 88.2509 -3.42594 1.08949 0
M  V30 938 C 87.9149 -3.80274 2.53458 0
M  V30 939 C 88.9119 -3.82912 3.51673 0
M  V30 940 C 86.5969 -4.11162 2.88532 0
M  V30 941 C 88.5909 -4.15913 4.83006 0
M  V30 942 C 86.2779 -4.43831 4.20068 0
M  V30 943 C 87.2759 -4.46185 5.17115 0
M  V30 944 O 86.9639 -4.78083 6.46291 0
M  V30 945 H 86.6959 -0.613073 0.284811 0
M  V30 946 H 89.2499 -1.49461 1.40893 0
M  V30 947 H 87.4799 -3.84534 0.408741 0
M  V30 948 H 89.1689 -3.97817 0.805991 0
M  V30 949 H 89.9349 -3.5917 3.25917 0
M  V30 950 H 85.8139 -4.085 2.13656 0
M  V30 951 H 89.3579 -4.17665 5.5875 0
M  V30 952 H 85.2549 -4.67037 4.45586 0
M  V30 953 H 86.0229 -4.9593 6.51149 0
M  V30 954 N 88.686 -0.835752 -1.33615 0
M  V30 955 C 89.914 -0.443344 -2.02094 0
M  V30 956 C 90.329 0.954522 -1.62894 0
M  V30 957 O 89.686 1.61982 -0.840723 0
M  V30 958 C 89.737 -0.550775 -3.5728 0
M  V30 959 O 89.458 -1.89356 -3.95065 0
M  V30 960 C 90.959 -0.154919 -4.43029 0
M  V30 961 H 88.179 -0.176359 -0.647409 0
M  V30 962 H 90.723 -1.12746 -1.70612 0
M  V30 963 H 88.878 0.0853997 -3.87306 0
M  V30 964 H 89.292 -1.87687 -4.89769 0
M  V30 965 H 90.766 -0.281144 -5.51284 0
M  V30 966 H 91.243 0.902863 -4.2982 0
M  V30 967 H 91.849 -0.765404 -4.18356 0
M  V30 968 N 90.1641 1.46063 -0.591896 0
M  V30 969 C 91.1271 2.28854 0.125973 0
M  V30 970 C 92.1271 1.38903 0.810107 0
M  V30 971 O 93.3171 1.61186 0.66066 0
M  V30 972 C 90.4491 3.19526 1.1881 0
M  V30 973 H 91.6421 2.93802 -0.601717 0
M  V30 974 H 89.1951 1.52325 -0.350254 0
M  V30 975 H 89.9301 2.59345 1.94707 0
M  V30 976 H 89.7151 3.85766 0.701936 0
M  V30 977 H 91.2051 3.81817 1.69132 0
M  V30 978 N 91.6422 0.330177 1.54103 0
M  V30 979 C 92.8672 -0.274893 2.0557 0
M  V30 980 C 93.2922 -1.44487 1.20437 0
M  V30 981 O 92.6502 -1.80021 0.214991 0
M  V30 982 C 92.6982 -0.68079 3.54115 0
M  V30 983 O 91.8022 -1.7824 3.71893 0
M  V30 984 H 91.1432 -0.0483849 0.662235 0
M  V30 985 H 93.6732 0.480508 1.98878 0
M  V30 986 H 93.6832 -0.961635 3.96505 0
M  V30 987 H 92.3582 0.174903 4.15532 0
M  V30 988 H 90.9352 -1.49985 3.41407 0
M  V30 989 N 93.1203 -1.57491 0.0584922 0
M  V30 990 C 94.3673 -1.92978 -0.613648 0
M  V30 991 C 94.6953 -0.937461 -1.70417 0
M  V30 992 O 93.9503 0.049078 -1.95638 0
M  V30 993 C 94.2493 -3.3513 -1.24188 0
M  V30 994 C 93.9153 -4.50037 -0.278826 0
M  V30 995 C 92.5773 -4.81198 -0.0138447 0
M  V30 996 C 94.9293 -5.19807 0.380777 0
M  V30 997 C 92.2573 -5.79473 0.918052 0
M  V30 998 C 94.6093 -6.19079 1.30091 0
M  V30 999 C 93.2733 -6.48665 1.57449 0
M  V30 1000 H 92.5433 -0.706157 -0.22455 0
M  V30 1001 H 95.1903 -1.91082 0.126533 0
M  V30 1002 H 93.4953 -3.33429 -2.05749 0
M  V30 1003 H 95.1923 -3.59871 -1.769 0
M  V30 1004 H 91.7823 -4.25726 -0.495539 0
M  V30 1005 H 95.9663 -4.95939 0.189158 0
M  V30 1006 H 91.2223 -6.00727 1.1374 0
M  V30 1007 H 95.3963 -6.7225 1.81804 0
M  V30 1008 H 93.0233 -7.24628 2.29822 0
M  V30 1009 N 94.5984 0.214957 -1.56127 0
M  V30 1010 C 95.5084 1.28727 -1.96129 0
M  V30 1011 C 96.5244 1.50916 -0.866044 0
M  V30 1012 O 97.7004 1.63918 -1.17016 0
M  V30 1013 C 94.7654 2.61569 -2.27558 0
M  V30 1014 C 93.8264 2.47625 -3.50685 0
M  V30 1015 C 93.0594 3.74132 -3.80606 0
M  V30 1016 O 93.2824 4.77438 -3.12104 0
M  V30 1017 O 92.2164 3.70849 -4.74083 0
M  V30 1018 H 96.0424 0.977855 -2.87527 0
M  V30 1019 H 93.6274 0.418358 -1.43423 0
M  V30 1020 H 95.5094 3.40012 -2.48938 0
M  V30 1021 H 94.1844 2.92178 -1.39332 0
M  V30 1022 H 93.0914 1.67361 -3.34576 0
M  V30 1023 H 94.4244 2.21954 -4.39315 0
M  V30 1024 N 96.0765 1.50051 0.48192 0
M  V30 1025 C 97.3255 1.59741 1.23149 0
M  V30 1026 C 97.6385 0.298163 1.93314 0
M  V30 1027 O 98.8445 0.273835 2.70116 0
M  V30 1028 C 97.3005 2.81926 2.23708 0
M  V30 1029 C 96.9085 4.18685 1.59396 0
M  V30 1030 C 98.6525 3.00956 2.99375 0
M  V30 1031 C 96.5595 5.3207 2.58178 0
M  V30 1032 H 95.4895 0.594838 0.46334 0
M  V30 1033 H 98.1405 1.76467 0.503169 0
M  V30 1034 H 96.5225 2.58736 2.99786 0
M  V30 1035 H 97.6965 4.52088 0.891811 0
M  V30 1036 H 96.0115 4.05171 0.960503 0
M  V30 1037 H 98.6085 3.82836 3.73283 0
M  V30 1038 H 98.9515 2.12258 3.58123 0
M  V30 1039 H 99.4845 3.24277 2.30411 0
M  V30 1040 H 96.2235 6.22888 2.04184 0
M  V30 1041 H 95.7435 5.03098 3.26577 0
M  V30 1042 H 97.4225 5.62196 3.20225 0
M  V30 1043 N 97.5546 -0.734337 1.39446 0
M  V30 1044 C 98.8316 -1.48579 1.27215 0
M  V30 1045 C 99.2116 -2.1077 -0.117968 0
M  V30 1046 O 98.5596 -1.98646 -1.12924 0
M  V30 1047 C 98.7696 -2.53667 2.39696 0
M  V30 1048 C 100.118 -3.20031 2.79044 0
M  V30 1049 O 101.142 -2.6398 2.39151 0
M  V30 1050 O 100.001 -4.21455 3.47905 0
M  V30 1051 H 97.0946 -0.659816 0.49857 0
M  V30 1052 H 99.6406 -0.768106 1.51322 0
M  V30 1053 H 98.4126 -2.06096 3.32626 0
M  V30 1054 H 98.0356 -3.32994 2.17258 0
M  V30 1055 N 99.0327 -1.24633 -0.964593 0
M  V30 1056 C 100.261 -1.11501 -1.74285 0
M  V30 1057 C 100.676 0.332165 -1.85855 0
M  V30 1058 O 100.033 1.22903 -1.34911 0
M  V30 1059 C 100.084 -1.75258 -3.16175 0
M  V30 1060 O 99.8047 -3.14318 -3.05182 0
M  V30 1061 C 101.306 -1.67776 -4.10324 0
M  V30 1062 H 98.5257 -0.389407 -0.546446 0
M  V30 1063 H 101.07 -1.64801 -1.21083 0
M  V30 1064 H 99.2247 -1.25954 -3.66353 0
M  V30 1065 H 99.6387 -3.4551 -3.94618 0
M  V30 1066 H 101.113 -2.17064 -5.0753 0
M  V30 1067 H 101.59 -0.639584 -4.34518 0
M  V30 1068 H 102.196 -2.16522 -3.66058 0
M  V30 1069 N 100.511 1.16574 -1.06058 0
M  V30 1070 C 101.443 2.2045 -0.627239 0
M  V30 1071 C 102.456 1.59752 0.313534 0
M  V30 1072 O 103.645 1.78192 0.104896 0
M  V30 1073 C 100.745 3.3875 0.100974 0
M  V30 1074 C 99.9178 4.29008 -0.852687 0
M  V30 1075 C 98.9768 5.25944 -0.164152 0
M  V30 1076 O 98.0028 5.63535 -0.801047 0
M  V30 1077 N 99.2048 5.70075 1.09518 0
M  V30 1078 H 101.97 2.58249 -1.52077 0
M  V30 1079 H 99.5308 1.3156 -0.943594 0
M  V30 1080 H 101.523 4.00638 0.57194 0
M  V30 1081 H 100.093 2.99476 0.89628 0
M  V30 1082 H 99.3128 3.64419 -1.50308 0
M  V30 1083 H 100.601 4.86195 -1.49972 0
M  V30 1084 H 99.9988 5.41624 1.6328 0
M  V30 1085 H 98.5558 6.34067 1.51006 0
M  V30 1086 N 101.989 0.842826 1.3317 0
M  V30 1087 C 103.405 0.531128 1.50503 0
M  V30 1088 C 103.605 -0.940734 1.78192 0
M  V30 1089 O 102.661 -1.72436 1.84451 0
M  V30 1090 C 103.974 1.40789 2.65705 0
M  V30 1091 C 105.522 1.40708 2.79589 0
M  V30 1092 C 105.997 2.26878 3.97857 0
M  V30 1093 N 107.488 2.24609 4.05099 0
M  V30 1094 C 108.223 2.88019 4.95815 0
M  V30 1095 N 107.719 3.60496 5.9162 0
M  V30 1096 N 109.512 2.77469 4.88843 0
M  V30 1097 H 101.663 1.79557 1.1346 0
M  V30 1098 H 103.926 0.766267 0.558156 0
M  V30 1099 H 103.632 2.454 2.51936 0
M  V30 1100 H 103.506 1.08677 3.61205 0
M  V30 1101 H 105.893 0.368668 2.92788 0
M  V30 1102 H 105.974 1.76829 1.84838 0
M  V30 1103 H 105.618 3.3078 3.85418 0
M  V30 1104 H 105.548 1.88096 4.91861 0
M  V30 1105 H 108.039 1.71906 3.36536 0
M  V30 1106 H 108.352 4.06076 6.57512 0
M  V30 1107 H 106.697 3.64604 5.91683 0
M  V30 1108 H 109.888 2.20406 4.12963 0
M  V30 1109 H 110.061 3.2717 5.59342 0
M  V30 1110 N 103.467 -1.45747 0.599634 0
M  V30 1111 C 104.716 -2.01502 0.0893511 0
M  V30 1112 C 105.029 -1.4748 -1.28488 0
M  V30 1113 O 106.235 -1.95161 -1.88745 0
M  V30 1114 C 104.691 -3.59735 0.109082 0
M  V30 1115 C 104.299 -4.22754 1.48267 0
M  V30 1116 C 106.043 -4.23085 -0.346374 0
M  V30 1117 C 103.95 -5.73115 1.45921 0
M  V30 1118 H 102.88 -0.753417 0.0296347 0
M  V30 1119 H 105.531 -1.67303 0.753788 0
M  V30 1120 H 103.913 -3.91087 -0.621854 0
M  V30 1121 H 105.087 -4.02987 2.23468 0
M  V30 1122 H 103.402 -3.71567 1.87955 0
M  V30 1123 H 105.999 -5.33327 -0.38298 0
M  V30 1124 H 106.342 -3.93201 -1.36743 0
M  V30 1125 H 106.875 -3.9642 0.331038 0
M  V30 1126 H 103.614 -6.07685 2.45762 0
M  V30 1127 H 103.134 -5.95097 0.749665 0
M  V30 1128 H 104.813 -6.3616 1.17941 0
M  V30 1129 N 104.945 -0.338344 -1.53925 0
M  V30 1130 C 105.855 0.529421 -2.28548 0
M  V30 1131 C 106.871 1.11645 -1.3346 0
M  V30 1132 O 108.047 1.13325 -1.66492 0
M  V30 1133 C 105.112 1.66713 -3.03987 0
M  V30 1134 C 104.173 1.11041 -4.14691 0
M  V30 1135 C 103.406 2.19389 -4.86522 0
M  V30 1136 O 103.629 3.40013 -4.57982 0
M  V30 1137 O 102.563 1.83976 -5.73094 0
M  V30 1138 H 106.389 -0.0770399 -3.03602 0
M  V30 1139 H 103.974 -0.103555 -1.49041 0
M  V30 1140 H 105.856 2.32918 -3.5118 0
M  V30 1141 H 104.531 2.25949 -2.31794 0
M  V30 1142 H 103.438 0.413024 -3.71813 0
M  V30 1143 H 104.771 0.562975 -4.8897 0
M  V30 1144 N 106.423 1.57458 -0.0668435 0
M  V30 1145 C 107.353 2.15468 0.899764 0
M  V30 1146 C 108.334 1.08042 1.31381 0
M  V30 1147 O 109.519 1.36054 1.38574 0
M  V30 1148 C 106.649 2.71232 2.16911 0
M  V30 1149 C 105.603 3.83781 1.89463 0
M  V30 1150 C 104.929 4.26127 3.22986 0
M  V30 1151 C 106.229 5.08238 1.20381 0
M  V30 1152 H 107.923 2.96488 0.416529 0
M  V30 1153 H 105.469 1.4262 0.198908 0
M  V30 1154 H 107.422 3.10458 2.84945 0
M  V30 1155 H 106.146 1.87426 2.67468 0
M  V30 1156 H 104.805 3.45051 1.23836 0
M  V30 1157 H 104.453 3.39249 3.71374 0
M  V30 1158 H 104.153 5.01993 3.05413 0
M  V30 1159 H 105.677 4.67966 3.92225 0
M  V30 1160 H 107.091 5.44811 1.78475 0
M  V30 1161 H 105.488 5.89349 1.13083 0
M  V30 1162 H 106.558 4.84558 0.182153 0
M  V30 1163 N 107.901 -0.206675 1.56239 0
M  V30 1164 C 109.126 -0.949474 1.8439 0
M  V30 1165 C 109.551 -1.76549 0.649016 0
M  V30 1166 O 108.909 -1.76782 -0.402231 0
M  V30 1167 C 108.957 -1.83078 3.10668 0
M  V30 1168 O 108.061 -2.9281 2.90407 0
M  V30 1169 H 107.402 -0.268033 0.607499 0
M  V30 1170 H 109.932 -0.215488 2.03462 0
M  V30 1171 H 109.942 -2.2377 3.41161 0
M  V30 1172 H 108.617 -1.23112 3.97261 0
M  V30 1173 H 107.194 -2.55956 2.71184 0
M  V30 1174 N 109.379 -1.50304 -0.473955 0
M  V30 1175 C 110.309 -1.71886 -1.58042 0
M  V30 1176 C 111.29 -0.567799 -1.60344 0
M  V30 1177 O 112.475 -0.806623 -1.76656 0
M  V30 1178 C 109.605 -1.81036 -2.96384 0
M  V30 1179 C 108.559 -2.962 -3.08949 0
M  V30 1180 C 107.885 -2.9049 -4.48909 0
M  V30 1181 C 109.185 -4.36752 -2.86434 0
M  V30 1182 H 110.879 -2.64527 -1.40234 0
M  V30 1183 H 108.425 -1.27295 -0.673201 0
M  V30 1184 H 110.378 -1.94719 -3.73714 0
M  V30 1185 H 109.102 -0.850147 -3.15341 0
M  V30 1186 H 107.761 -2.82164 -2.3405 0
M  V30 1187 H 107.409 -1.92321 -4.64781 0
M  V30 1188 H 107.109 -3.67802 -4.58253 0
M  V30 1189 H 108.633 -3.06218 -5.28264 0
M  V30 1190 H 110.047 -4.5133 -3.53517 0
M  V30 1191 H 108.444 -5.15493 -3.07225 0
M  V30 1192 H 109.514 -4.49321 -1.82316 0
M  V30 1193 N 110.857 0.726932 -1.39834 0
M  V30 1194 C 112.103 1.48771 -1.38704 0
M  V30 1195 C 112.458 1.92394 0.0146387 0
M  V30 1196 O 111.751 1.64474 0.982797 0
M  V30 1197 C 111.945 2.73495 -2.30077 0
M  V30 1198 C 111.774 2.42068 -3.78989 0
M  V30 1199 C 110.544 2.33966 -4.4787 0
M  V30 1200 C 112.742 2.0708 -4.70768 0
M  V30 1201 N 110.724 1.95095 -5.82075 0
M  V30 1202 C 112.095 1.78719 -5.93683 0
M  V30 1203 C 114.15 1.93618 -4.58712 0
M  V30 1204 C 112.853 1.3825 -7.05889 0
M  V30 1205 C 114.879 1.54553 -5.70848 0
M  V30 1206 C 114.241 1.27082 -6.92842 0
M  V30 1207 H 110.34 0.542919 -0.562817 0
M  V30 1208 H 112.924 0.84408 -1.75452 0
M  V30 1209 H 111.095 3.35625 -1.95474 0
M  V30 1210 H 112.827 3.39755 -2.19883 0
M  V30 1211 H 109.582 2.51331 -4.0141 0
M  V30 1212 H 110.006 1.7823 -6.53118 0
M  V30 1213 H 114.648 2.13522 -3.64922 0
M  V30 1214 H 112.366 1.17088 -7.99572 0
M  V30 1215 H 115.952 1.44731 -5.6351 0
M  V30 1216 H 114.832 0.973069 -7.78139 0
M  V30 1217 N 112.336 1.25143 0.95797 0
M  V30 1218 C 113.613 1.00472 1.67823 0
M  V30 1219 C 113.993 -0.470056 2.058 0
M  V30 1220 O 113.341 -1.44663 1.76875 0
M  V30 1221 C 113.551 1.9372 2.90299 0
M  V30 1222 C 114.899 2.21371 3.62326 0
M  V30 1223 O 115.923 1.91451 3.00375 0
M  V30 1224 O 114.782 2.72231 4.7387 0
M  V30 1225 H 111.876 0.380752 0.734137 0
M  V30 1226 H 114.422 1.36283 1.01119 0
M  V30 1227 H 113.194 2.93316 2.59001 0
M  V30 1228 H 112.817 1.58286 3.64735 0
M  V30 1229 N 113.814 -1.1601 1.06675 0
M  V30 1230 C 115.042 -1.90527 0.806667 0
M  V30 1231 C 115.457 -1.77643 -0.639396 0
M  V30 1232 O 114.814 -1.12369 -1.43803 0
M  V30 1233 C 114.865 -3.41106 1.19705 0
M  V30 1234 O 114.586 -3.53608 2.58636 0
M  V30 1235 C 116.087 -4.32663 0.965266 0
M  V30 1236 H 113.307 -0.604053 0.292166 0
M  V30 1237 H 115.851 -1.47026 1.4214 0
M  V30 1238 H 114.006 -3.82296 0.626774 0
M  V30 1239 H 114.42 -4.47011 2.74375 0
M  V30 1240 H 115.894 -5.36763 1.288 0
M  V30 1241 H 116.371 -4.39089 -0.0987936 0
M  V30 1242 H 116.977 -3.97206 1.52011 0
M  V30 1243 N 115.292 -0.849877 -1.32721 0
M  V30 1244 C 116.517 -0.463856 -2.02146 0
M  V30 1245 C 116.942 0.930449 -1.63476 0
M  V30 1246 O 116.3 1.61033 -0.832952 0
M  V30 1247 C 116.348 -0.604955 -3.55489 0
M  V30 1248 O 115.452 0.36425 -4.10788 0
M  V30 1249 H 114.793 -0.187046 -0.637111 0
M  V30 1250 H 117.323 -1.14775 -1.69375 0
M  V30 1251 H 117.333 -0.490696 -4.05038 0
M  V30 1252 H 116.008 -1.62174 -3.82978 0
M  V30 1253 H 114.585 0.206628 -3.72327 0
M  V30 1254 N 116.77 1.45427 -0.607355 0
M  V30 1255 C 118.018 2.01841 -0.102253 0
M  V30 1256 C 118.339 1.47832 1.27164 0
M  V30 1257 O 117.609 0.672497 1.83995 0
M  V30 1258 H 116.189 0.746188 -0.0348101 0
M  V30 1259 H 118.851 1.78229 -0.7887 0
M  V30 1260 H 117.947 3.12057 -0.0518585 0
M  V30 1261 N 118.248 0.346503 1.53744 0
M  V30 1262 C 119.473 -0.253074 2.0585 0
M  V30 1263 C 119.898 -1.43202 1.21962 0
M  V30 1264 O 119.256 -1.79783 0.234073 0
M  V30 1265 C 119.304 -0.643193 3.54817 0
M  V30 1266 O 118.408 -1.74286 3.73762 0
M  V30 1267 H 117.749 -0.0413583 0.662711 0
M  V30 1268 H 120.279 0.501574 1.98357 0
M  V30 1269 H 120.289 -0.919526 3.97503 0
M  V30 1270 H 118.964 0.218966 4.15323 0
M  V30 1271 H 117.541 -1.46356 3.42979 0
M  V30 1272 N 119.726 -1.57421 0.075193 0
M  V30 1273 C 121.137 -1.81021 -0.456964 0
M  V30 1274 C 121.488 -0.98936 -1.69429 0
M  V30 1275 O 120.613 -0.212865 -2.15351 0
M  V30 1276 C 121.208 -3.28329 -0.83581 0
M  V30 1277 C 119.767 -3.52764 -1.31281 0
M  V30 1278 C 118.914 -2.75676 -0.299648 0
M  V30 1279 H 121.865 -1.55822 0.300856 0
M  V30 1280 H 121.886 -3.40564 -1.69696 0
M  V30 1281 H 121.398 -3.88046 0.0649238 0
M  V30 1282 H 119.499 -2.98355 -2.23193 0
M  V30 1283 H 119.612 -4.61451 -1.28839 0
M  V30 1284 H 117.976 -2.42538 -0.777641 0
M  V30 1285 H 118.759 -3.38132 0.593417 0
M  V30 1286 N 121.204 0.198386 -1.56346 0
M  V30 1287 C 122.434 0.934215 -1.84271 0
M  V30 1288 C 122.842 1.77496 -0.655125 0
M  V30 1289 O 122.185 1.7961 0.385488 0
M  V30 1290 C 122.247 1.88278 -3.06254 0
M  V30 1291 C 121.911 1.22431 -4.40295 0
M  V30 1292 C 122.908 0.602839 -5.16393 0
M  V30 1293 C 120.593 1.22915 -4.87029 0
M  V30 1294 C 122.587 -0.0050083 -6.374 0
M  V30 1295 C 120.274 0.617465 -6.07973 0
M  V30 1296 C 121.272 0.00146341 -6.83 0
M  V30 1297 O 120.96 -0.600642 -8.01653 0
M  V30 1298 H 120.692 0.278245 -0.616081 0
M  V30 1299 H 123.246 0.211626 -2.04307 0
M  V30 1300 H 121.476 2.64498 -2.82095 0
M  V30 1301 H 123.165 2.48612 -3.20853 0
M  V30 1302 H 123.931 0.591265 -4.81382 0
M  V30 1303 H 119.81 1.69801 -4.28589 0
M  V30 1304 H 123.354 -0.48643 -6.95902 0
M  V30 1305 H 119.251 0.62653 -6.42452 0
M  V30 1306 H 120.019 -0.497225 -8.16988 0
M  V30 1307 N 122.682 1.50554 0.465978 0
M  V30 1308 C 123.912 1.65323 1.23903 0
M  V30 1309 C 124.32 0.338051 1.86155 0
M  V30 1310 O 123.663 -0.690518 1.70228 0
M  V30 1311 C 123.725 2.69048 2.3844 0
M  V30 1312 C 123.389 4.12462 1.96784 0
M  V30 1313 C 124.386 4.98168 1.48745 0
M  V30 1314 C 122.071 4.58407 2.05349 0
M  V30 1315 C 124.065 6.27868 1.0982 0
M  V30 1316 C 121.752 5.88112 1.66035 0
M  V30 1317 C 122.75 6.72668 1.18349 0
M  V30 1318 O 122.438 7.99951 0.795825 0
M  V30 1319 H 122.17 0.558629 0.38067 0
M  V30 1320 H 124.724 1.97561 0.562022 0
M  V30 1321 H 122.954 2.32062 3.09328 0
M  V30 1322 H 124.643 2.72985 3.0039 0
M  V30 1323 H 125.409 4.63885 1.41546 0
M  V30 1324 H 121.288 3.92735 2.41414 0
M  V30 1325 H 124.832 6.93819 0.725293 0
M  V30 1326 H 120.729 6.21914 1.72895 0
M  V30 1327 H 121.497 8.13265 0.924222 0
M  V30 1328 N 124.16 -0.719506 1.40217 0
M  V30 1329 C 125.437 -1.47221 1.28784 0
M  V30 1330 C 125.817 -2.10883 -0.0956067 0
M  V30 1331 O 125.165 -1.99833 -1.10811 0
M  V30 1332 C 125.375 -2.5111 2.42373 0
M  V30 1333 C 126.723 -3.17053 2.82423 0
M  V30 1334 O 127.747 -2.61429 2.41937 0
M  V30 1335 O 126.606 -4.17742 3.52355 0
M  V30 1336 H 123.7 -0.654491 0.50554 0
M  V30 1337 H 126.246 -0.752014 1.52128 0
M  V30 1338 H 125.018 -2.02556 3.34793 0
M  V30 1339 H 124.641 -3.3067 2.20778 0
M  V30 1340 N 125.638 -1.25649 -0.95132 0
M  V30 1341 C 126.586 -1.06118 -2.06982 0
M  V30 1342 C 127.58 0.00889169 -1.69398 0
M  V30 1343 O 128.786 -0.146988 -1.79399 0
M  V30 1344 H 125.161 -0.326248 -0.677544 0
M  V30 1345 H 127.132 -2.00932 -2.2061 0
M  V30 1346 C 125.881 -0.700145 -3.40578 0
M  V30 1347 H 125.204 -1.51537 -3.69968 0
M  V30 1348 H 126.644 -0.603211 -4.19687 0
M  V30 1349 C 125.103 0.59403 -3.31622 0
M  V30 1350 O 125.633 1.63522 -3.66911 0
M  V30 1351 N 123.839 0.58089 -2.84735 0
M  V30 1352 H 123.386 -0.266783 -2.56215 0
M  V30 1353 H 123.344 1.44695 -2.79125 0
M  V30 1354 N 127.117 1.15442 -1.07289 0
M  V30 1355 C 128.363 1.86489 -0.796846 0
M  V30 1356 C 128.696 1.82078 0.675371 0
M  V30 1357 O 127.971 1.24346 1.4956 0
M  V30 1358 C 128.254 3.35626 -1.30489 0
M  V30 1359 C 128.107 3.48673 -2.84161 0
M  V30 1360 C 129.426 4.30357 -0.920907 0
M  V30 1361 H 126.545 0.677144 -0.290939 0
M  V30 1362 H 129.187 1.35633 -1.33056 0
M  V30 1363 H 127.337 3.79068 -0.850883 0
M  V30 1364 H 129.009 3.14099 -3.37846 0
M  V30 1365 H 127.252 2.90253 -3.22391 0
M  V30 1366 H 127.923 4.53453 -3.14777 0
M  V30 1367 H 130.399 3.94871 -1.3121 0
M  V30 1368 H 129.275 5.33193 -1.30372 0
M  V30 1369 H 129.536 4.4176 0.173226 0
M  V30 1370 N 128.595 0.856903 1.32268 0
M  V30 1371 C 130.011 0.547061 1.49931 0
M  V30 1372 C 130.211 -0.921781 1.7918 0
M  V30 1373 O 129.267 -1.70469 1.8627 0
M  V30 1374 C 130.58 1.43599 2.64196 0
M  V30 1375 C 132.128 1.43665 2.78081 0
M  V30 1376 C 132.603 2.31085 3.95428 0
M  V30 1377 N 134.094 2.28893 4.02694 0
M  V30 1378 C 134.829 2.93262 4.92732 0
M  V30 1379 N 134.325 3.66751 5.87763 0
M  V30 1380 N 136.118 2.82638 4.85873 0
M  V30 1381 H 128.269 1.8075 1.11549 0
M  V30 1382 H 130.532 0.772144 0.549997 0
M  V30 1383 H 130.238 2.48058 2.49319 0
M  V30 1384 H 130.112 1.12502 3.60032 0
M  V30 1385 H 132.499 0.399701 2.92381 0
M  V30 1386 H 132.58 1.7878 1.82952 0
M  V30 1387 H 132.224 3.34849 3.81888 0
M  V30 1388 H 132.154 1.93302 4.89839 0
M  V30 1389 H 134.645 1.75466 3.34694 0
M  V30 1390 H 134.958 4.13027 6.53168 0
M  V30 1391 H 133.303 3.70859 5.87783 0
M  V30 1392 H 136.494 2.24774 4.10602 0
M  V30 1393 H 136.667 3.33084 5.55841 0
M  V30 1394 N 130.073 -1.45103 0.615059 0
M  V30 1395 C 131.484 -1.85654 0.197383 0
M  V30 1396 C 131.835 -1.51433 -1.24749 0
M  V30 1397 O 130.96 -0.944608 -1.94695 0
M  V30 1398 C 131.555 -3.36972 0.351448 0
M  V30 1399 C 130.114 -3.76398 -0.011593 0
M  V30 1400 C 129.261 -2.69024 0.672394 0
M  V30 1401 H 132.212 -1.35797 0.821263 0
M  V30 1402 H 132.233 -3.78239 -0.414227 0
M  V30 1403 H 131.745 -3.61847 1.40314 0
M  V30 1404 H 129.846 -3.5714 -1.06217 0
M  V30 1405 H 129.959 -4.77532 0.387265 0
M  V30 1406 H 128.323 -2.54465 0.109284 0
M  V30 1407 H 129.106 -2.96735 1.72636 0
M  V30 1408 N 131.551 -0.354651 -1.53558 0
M  V30 1409 C 132.481 0.489091 -2.2832 0
M  V30 1410 C 133.462 1.09324 -1.30316 0
M  V30 1411 O 134.647 1.11255 -1.59173 0
M  V30 1412 C 131.777 1.63456 -3.0643 0
M  V30 1413 C 130.731 1.1582 -4.12031 0
M  V30 1414 C 130.057 2.39305 -4.7816 0
M  V30 1415 C 131.357 0.250731 -5.21698 0
M  V30 1416 H 133.051 -0.134614 -2.99097 0
M  V30 1417 H 130.597 -0.0661826 -1.43848 0
M  V30 1418 H 132.55 2.23136 -3.57475 0
M  V30 1419 H 131.274 2.28533 -2.33325 0
M  V30 1420 H 129.933 0.584146 -3.61916 0
M  V30 1421 H 129.581 3.02814 -4.01637 0
M  V30 1422 H 129.281 2.08109 -5.49513 0
M  V30 1423 H 130.805 2.99691 -5.31994 0
M  V30 1424 H 132.219 0.754695 -5.68311 0
M  V30 1425 H 130.616 0.0301468 -6.00092 0
M  V30 1426 H 131.686 -0.710125 -4.79672 0
M  V30 1427 N 133.029 1.57378 -0.0835403 0
M  V30 1428 C 134.254 1.98682 0.594987 0
M  V30 1429 C 134.679 0.961969 1.61641 0
M  V30 1430 O 134.037 -0.0709989 1.81161 0
M  V30 1431 C 134.085 3.38988 1.2296 0
M  V30 1432 O 133.189 3.39208 2.34546 0
M  V30 1433 H 132.53 0.646368 0.152002 0
M  V30 1434 H 135.06 2.03961 -0.161533 0
M  V30 1435 H 135.07 3.76431 1.57366 0
M  V30 1436 H 133.745 4.13107 0.481228 0
M  V30 1437 H 132.322 3.13548 2.01846 0
M  V30 1438 N 134.507 -0.190092 1.56449 0
M  V30 1439 C 135.737 -0.92443 1.84764 0
M  V30 1440 C 136.145 -1.77146 0.664529 0
M  V30 1441 O 135.488 -1.79812 -0.375957 0
M  V30 1442 C 135.55 -1.86651 3.07248 0
M  V30 1443 C 135.214 -1.20094 4.40938 0
M  V30 1444 C 136.211 -0.575445 5.16706 0
M  V30 1445 C 133.896 -1.2033 4.87674 0
M  V30 1446 C 135.89 0.0388111 6.37388 0
M  V30 1447 C 133.577 -0.585214 6.08291 0
M  V30 1448 C 134.575 0.0347578 6.82991 0
M  V30 1449 O 134.263 0.643147 8.01323 0
M  V30 1450 H 133.995 -0.274974 0.617548 0
M  V30 1451 H 136.549 -0.200788 2.04416 0
M  V30 1452 H 134.779 -2.62998 2.83494 0
M  V30 1453 H 136.468 -2.46907 3.22167 0
M  V30 1454 H 137.234 -0.565728 4.81689 0
M  V30 1455 H 133.113 -1.67526 4.29484 0
M  V30 1456 H 136.657 0.523329 6.95634 0
M  V30 1457 H 132.554 -0.592451 6.42775 0
M  V30 1458 H 133.322 0.540545 8.16713 0
M  V30 1459 N 135.985 -1.50799 -0.457987 0
M  V30 1460 C 137.396 -1.55152 -1.0385 0
M  V30 1461 C 137.747 -0.362719 -1.92818 0
M  V30 1462 O 136.872 0.522915 -2.09987 0
M  V30 1463 C 137.467 -2.81173 -1.89017 0
M  V30 1464 C 136.026 -2.88164 -2.42154 0
M  V30 1465 C 135.173 -2.49591 -1.20829 0
M  V30 1466 H 138.124 -1.56874 -0.240068 0
M  V30 1467 H 138.145 -2.63769 -2.74238 0
M  V30 1468 H 137.657 -3.67677 -1.24238 0
M  V30 1469 H 135.758 -2.06042 -3.10447 0
M  V30 1470 H 135.871 -3.91356 -2.76364 0
M  V30 1471 H 134.235 -2.02322 -1.54719 0
M  V30 1472 H 135.018 -3.38418 -0.576927 0
M  V30 1473 N 137.463 0.71206 -1.40597 0
M  V30 1474 C 138.74 1.46536 -1.29563 0
M  V30 1475 C 139.12 2.10931 0.0844217 0
M  V30 1476 O 138.468 2.00418 1.0975 0
M  V30 1477 C 138.678 2.49821 -2.43701 0
M  V30 1478 C 140.026 3.15551 -2.841 0
M  V30 1479 O 141.05 2.60142 -2.4332 0
M  V30 1480 O 139.909 4.15867 -3.54566 0
M  V30 1481 H 137.003 0.651801 -0.509004 0
M  V30 1482 H 139.549 0.743935 -1.52524 0
M  V30 1483 H 138.321 2.00778 -3.35863 0
M  V30 1484 H 137.944 3.29495 -2.22528 0
M  V30 1485 N 138.941 1.26152 0.944643 0
M  V30 1486 C 140.166 1.14363 1.7302 0
M  V30 1487 C 140.591 -0.29772 1.85729 0
M  V30 1488 O 139.949 -1.2157 1.34501 0
M  V30 1489 C 139.997 1.81378 3.11664 0
M  V30 1490 O 139.101 1.10022 3.97453 0
M  V30 1491 H 138.442 0.398694 0.53098 0
M  V30 1492 H 140.972 1.66906 1.18337 0
M  V30 1493 H 140.982 1.88064 3.62072 0
M  V30 1494 H 139.657 2.86237 3.0173 0
M  V30 1495 H 138.234 1.11287 3.55907 0
M  V30 1496 N 140.419 -1.14872 1.07899 0
M  V30 1497 C 141.696 -1.81928 0.71845 0
M  V30 1498 C 142.076 -1.95417 -0.798455 0
M  V30 1499 O 141.424 -1.50997 -1.715 0
M  V30 1500 C 141.634 -3.17937 1.43935 0
M  V30 1501 C 142.982 -3.93501 1.59506 0
M  V30 1502 O 144.006 -3.27509 1.40058 0
M  V30 1503 O 142.865 -5.1183 1.91551 0
M  V30 1504 H 139.959 -0.78628 0.256305 0
M  V30 1505 H 142.505 -1.21934 1.18026 0
M  V30 1506 H 141.277 -3.0325 2.47295 0
M  V30 1507 H 140.9 -3.85619 0.968687 0
M  V30 1508 N 141.898 -0.863906 -1.31812 0
M  V30 1509 C 142.861 -0.320212 -2.26952 0
M  V30 1510 C 143.861 0.525369 -1.51975 0
M  V30 1511 O 145.051 0.335547 -1.70938 0
M  V30 1512 C 142.183 0.545919 -3.365 0
M  V30 1513 H 143.376 -1.16004 -2.76556 0
M  V30 1514 H 140.929 -0.638995 -1.42641 0
M  V30 1515 H 141.664 1.40718 -2.92179 0
M  V30 1516 H 141.449 -0.0594674 -3.92055 0
M  V30 1517 H 142.939 0.918796 -4.07367 0
M  V30 1518 N 143.376 1.44774 -0.622745 0
M  V30 1519 C 144.622 2.0242 -0.124083 0
M  V30 1520 C 144.955 1.4881 1.24777 0
M  V30 1521 O 144.23 0.668799 1.8264 0
M  V30 1522 C 144.513 3.59957 -0.101619 0
M  V30 1523 C 144.366 4.23867 -1.50521 0
M  V30 1524 C 145.685 4.36284 0.578272 0
M  V30 1525 H 142.804 0.735528 -0.0465645 0
M  V30 1526 H 145.446 1.72447 -0.797617 0
M  V30 1527 H 143.596 3.85623 0.471934 0
M  V30 1528 H 145.268 4.09336 -2.12701 0
M  V30 1529 H 143.511 3.81684 -2.06154 0
M  V30 1530 H 144.182 5.32843 -1.4416 0
M  V30 1531 H 146.658 4.16001 0.0906057 0
M  V30 1532 H 145.534 5.46004 0.563149 0
M  V30 1533 H 145.795 4.10271 1.64713 0
M  V30 1534 N 144.854 0.36279 1.53368 0
M  V30 1535 C 145.784 -0.476976 2.28576 0
M  V30 1536 C 146.765 -1.08631 1.30894 0
M  V30 1537 O 147.95 -1.10409 1.59761 0
M  V30 1538 C 145.08 -1.61828 3.07293 0
M  V30 1539 C 144.034 -1.13633 4.1264 0
M  V30 1540 C 143.36 -2.36766 4.79423 0
M  V30 1541 C 144.66 -0.223061 5.21823 0
M  V30 1542 H 146.354 0.150474 2.99022 0
M  V30 1543 H 143.9 0.0738103 1.43811 0
M  V30 1544 H 145.853 -2.21237 3.58653 0
M  V30 1545 H 144.577 -2.27292 2.34533 0
M  V30 1546 H 143.236 -0.564945 3.62221 0
M  V30 1547 H 142.884 -3.0068 4.03238 0
M  V30 1548 H 142.584 -2.05192 5.50609 0
M  V30 1549 H 144.108 -2.96865 5.33576 0
M  V30 1550 H 145.522 -0.724545 5.68703 0
M  V30 1551 H 143.919 0.001678 6.001 0
M  V30 1552 H 144.989 0.735553 4.79289 0
M  V30 1553 N 146.332 -1.57332 0.0918853 0
M  V30 1554 C 147.581 -1.93412 -0.572249 0
M  V30 1555 C 147.894 -0.975515 -1.69538 0
M  V30 1556 O 149.1 -1.22991 -2.42045 0
M  V30 1557 C 147.556 -3.43648 -1.0693 0
M  V30 1558 C 147.164 -4.47994 0.0239049 0
M  V30 1559 C 148.908 -3.88695 -1.70635 0
M  V30 1560 C 146.815 -5.89381 -0.488319 0
M  V30 1561 H 145.745 -0.721939 -0.217532 0
M  V30 1562 H 148.396 -1.82735 0.167369 0
M  V30 1563 H 146.778 -3.49466 -1.8625 0
M  V30 1564 H 147.952 -4.53815 0.799277 0
M  V30 1565 H 146.267 -4.12536 0.565946 0
M  V30 1566 H 148.864 -4.91725 -2.10025 0
M  V30 1567 H 149.207 -3.27166 -2.57426 0
M  V30 1568 H 149.74 -3.85564 -0.979023 0
M  V30 1569 H 146.479 -6.54602 0.342906 0
M  V30 1570 H 145.999 -5.87037 -1.23077 0
M  V30 1571 H 147.678 -6.39863 -0.958317 0
M  V30 1572 N 147.81 0.181792 -1.56548 0
M  V30 1573 C 149.05 0.906711 -1.83189 0
M  V30 1574 C 149.414 1.79882 -0.671312 0
M  V30 1575 O 150.615 2.56054 -0.81792 0
M  V30 1576 C 148.886 1.69023 -3.14906 0
M  V30 1577 S 150.445 2.46535 -3.62996 0
M  V30 1578 H 147.263 0.303877 -0.642791 0
M  V30 1579 H 149.865 0.169107 -1.94767 0
M  V30 1580 H 148.569 1.02571 -3.97376 0
M  V30 1581 H 148.1 2.46941 -3.06241 0
M  V30 1582 H 150.115 3.71014 -3.29489 0
M  V30 1583 N 149.288 1.51039 0.449983 0
M  V30 1584 C 150.535 1.63081 1.20045 0
M  V30 1585 C 150.863 0.341024 1.91487 0
M  V30 1586 O 150.118 -0.674276 1.83717 0
M  V30 1587 C 150.417 2.77556 2.25161 0
M  V30 1588 C 150.083 4.17289 1.70823 0
M  V30 1589 C 148.745 4.55305 1.55725 0
M  V30 1590 C 151.097 5.04536 1.3074 0
M  V30 1591 C 148.425 5.78287 0.989999 0
M  V30 1592 C 150.777 6.28085 0.754482 0
M  V30 1593 C 149.441 6.64885 0.590308 0
M  V30 1594 H 148.711 0.596755 0.439277 0
M  V30 1595 H 151.358 1.85037 0.49333 0
M  V30 1596 H 149.663 2.49771 3.01863 0
M  V30 1597 H 151.36 2.84073 2.83026 0
M  V30 1598 H 147.95 3.8731 1.83546 0
M  V30 1599 H 152.134 4.75782 1.41229 0
M  V30 1600 H 147.39 6.05456 0.850451 0
M  V30 1601 H 151.564 6.95038 0.435324 0
M  V30 1602 H 149.191 7.60055 0.14862 0
M  V30 1603 N 150.766 -0.704594 1.40972 0
M  V30 1604 C 152.043 -1.45847 1.30338 0
M  V30 1605 C 152.423 -2.10973 -0.0732344 0
M  V30 1606 O 151.771 -2.00997 -1.08685 0
M  V30 1607 C 151.981 -2.48525 2.45023 0
M  V30 1608 C 153.329 -3.1404 2.8577 0
M  V30 1609 O 154.353 -2.58848 2.44696 0
M  V30 1610 O 153.212 -4.13981 3.56766 0
M  V30 1611 H 150.306 -0.649092 0.512454 0
M  V30 1612 H 152.852 -0.735836 1.52917 0
M  V30 1613 H 151.624 -1.98994 3.36923 0
M  V30 1614 H 151.247 -3.2831 2.24272 0
M  V30 1615 N 152.244 -1.26651 -0.937939 0
M  V30 1616 C 153.493 -1.11775 -1.67897 0
M  V30 1617 C 153.806 0.33794 -1.92659 0
M  V30 1618 O 155.012 0.607434 -2.64618 0
M  V30 1619 C 153.468 -1.9523 -3.02346 0
M  V30 1620 C 153.076 -3.45393 -2.8532 0
M  V30 1621 C 154.82 -1.88972 -3.80118 0
M  V30 1622 C 152.727 -4.21083 -4.15263 0
M  V30 1623 H 151.657 -0.414696 -0.629717 0
M  V30 1624 H 154.308 -1.50988 -1.04283 0
M  V30 1625 H 152.69 -1.48853 -3.66959 0
M  V30 1626 H 153.864 -3.99561 -2.29537 0
M  V30 1627 H 152.179 -3.52921 -2.20988 0
M  V30 1628 H 154.776 -2.42805 -4.76392 0
M  V30 1629 H 155.119 -0.86113 -4.07296 0
M  V30 1630 H 155.652 -2.33189 -3.22285 0
M  V30 1631 H 152.391 -5.24425 -3.93267 0
M  V30 1632 H 151.911 -3.71695 -4.70747 0
M  V30 1633 H 153.59 -4.29706 -4.83696 0
M  V30 1634 N 153.722 1.14298 -1.08507 0
M  V30 1635 C 154.947 1.8976 -0.837001 0
M  V30 1636 C 155.372 1.78097 0.605228 0
M  V30 1637 O 154.73 1.12188 1.4242 0
M  V30 1638 C 154.778 3.37685 -1.26495 0
M  V30 1639 O 153.882 4.10281 -0.417514 0
M  V30 1640 H 153.223 0.590365 -0.303917 0
M  V30 1641 H 155.753 1.44672 -1.44676 0
M  V30 1642 H 155.763 3.88501 -1.24625 0
M  V30 1643 H 154.438 3.45492 -2.31534 0
M  V30 1644 H 153.015 3.69536 -0.499722 0
M  V30 1645 N 155.201 0.870884 1.31352 0
M  V30 1646 C 156.617 0.562932 1.49343 0
M  V30 1647 C 156.817 -0.902725 1.80148 0
M  V30 1648 O 155.873 -1.68484 1.88067 0
M  V30 1649 C 157.186 1.46393 2.62659 0
M  V30 1650 C 158.734 1.46607 2.76542 0
M  V30 1651 C 159.209 2.35266 3.92955 0
M  V30 1652 N 160.7 2.33151 4.00243 0
M  V30 1653 C 161.435 2.98471 4.89594 0
M  V30 1654 N 160.931 3.72964 5.8384 0
M  V30 1655 N 162.724 2.87775 4.82848 0
M  V30 1656 H 154.875 1.81923 1.09626 0
M  V30 1657 H 157.138 0.777934 0.541777 0
M  V30 1658 H 156.844 2.50689 2.46674 0
M  V30 1659 H 156.718 1.16314 3.58819 0
M  V30 1660 H 159.105 0.43069 2.9194 0
M  V30 1661 H 159.186 1.8071 1.81046 0
M  V30 1662 H 158.83 3.38881 3.78315 0
M  V30 1663 H 158.76 1.98487 4.87761 0
M  V30 1664 H 161.251 1.79006 3.32814 0
M  V30 1665 H 161.564 4.19932 6.4875 0
M  V30 1666 H 159.909 3.77073 5.83816 0
M  V30 1667 H 163.1 2.29116 4.08195 0
M  V30 1668 H 163.273 3.38961 5.52277 0
M  V30 1669 N 156.679 -1.44442 0.630414 0
M  V30 1670 C 158.09 -1.85434 0.217063 0
M  V30 1671 C 158.441 -1.52748 -1.23136 0
M  V30 1672 O 157.566 -0.965205 -1.93682 0
M  V30 1673 C 158.161 -3.36581 0.387168 0
M  V30 1674 C 156.72 -3.76389 0.0283297 0
M  V30 1675 C 155.867 -2.68296 0.700889 0
M  V30 1676 H 158.818 -1.34919 0.83562 0
M  V30 1677 H 158.839 -3.78657 -0.374086 0
M  V30 1678 H 158.351 -3.60339 1.44144 0
M  V30 1679 H 156.452 -3.58246 -1.02423 0
M  V30 1680 H 156.565 -4.77095 0.437892 0
M  V30 1681 H 154.929 -2.54335 0.136267 0
M  V30 1682 H 155.712 -2.94887 1.75774 0
M  V30 1683 N 158.157 -0.370918 -1.53173 0
M  V30 1684 C 159.067 0.480823 -2.2962 0
M  V30 1685 C 160.083 1.08789 -1.35798 0
M  V30 1686 O 161.259 1.09768 -1.68858 0
M  V30 1687 C 158.324 1.60227 -3.07454 0
M  V30 1688 C 157.385 1.0222 -4.16953 0
M  V30 1689 C 156.618 2.0902 -4.91066 0
M  V30 1690 O 156.841 3.30222 -4.65091 0
M  V30 1691 O 155.775 1.71778 -5.76867 0
M  V30 1692 H 159.601 -0.141421 -3.03371 0
M  V30 1693 H 157.186 -0.135146 -1.48787 0
M  V30 1694 H 159.068 2.25417 -3.56041 0
M  V30 1695 H 157.743 2.20982 -2.36535 0
M  V30 1696 H 156.65 0.334064 -3.72605 0
M  V30 1697 H 157.983 0.459131 -4.90054 0
M  V30 1698 N 159.635 1.57281 -0.100228 0
M  V30 1699 C 160.863 1.98879 0.570509 0
M  V30 1700 C 161.278 0.979476 1.61405 0
M  V30 1701 O 160.635 -0.0302288 1.82475 0
M  V30 1702 C 160.686 3.4052 1.2136 0
M  V30 1703 O 160.407 4.37588 0.211786 0
M  V30 1704 C 161.908 3.97149 1.96945 0
M  V30 1705 H 159.128 0.653428 0.152555 0
M  V30 1706 H 161.672 2.03697 -0.18103 0
M  V30 1707 H 159.827 3.367 1.91603 0
M  V30 1708 H 160.241 5.20118 0.676607 0
M  V30 1709 H 161.715 4.98393 2.37294 0
M  V30 1710 H 162.192 3.3525 2.83733 0
M  V30 1711 H 162.798 4.04458 1.31506 0
M  V30 1712 N 161.113 -0.173488 1.56642 0
M  V30 1713 C 162.043 -1.2171 1.99271 0
M  V30 1714 C 163.024 -1.46289 0.867959 0
M  V30 1715 O 164.209 -1.5766 1.13388 0
M  V30 1716 C 161.339 -2.55651 2.35074 0
M  V30 1717 C 160.293 -2.45645 3.50489 0
M  V30 1718 C 159.619 -3.84056 3.72028 0
M  V30 1719 C 160.919 -1.96302 4.84007 0
M  V30 1720 H 162.613 -0.86275 2.867 0
M  V30 1721 H 160.159 -0.413571 1.37933 0
M  V30 1722 H 162.112 -3.2886 2.63494 0
M  V30 1723 H 160.836 -2.92869 1.44552 0
M  V30 1724 H 159.495 -1.7489 3.22194 0
M  V30 1725 H 159.143 -4.18664 2.788 0
M  V30 1726 H 158.843 -3.7823 4.49684 0
M  V30 1727 H 160.367 -4.58854 4.02846 0
M  V30 1728 H 161.781 -2.59284 5.11317 0
M  V30 1729 H 160.178 -2.01429 5.65284 0
M  V30 1730 H 161.248 -0.917226 4.76146 0
M  V30 1731 N 162.591 -1.51276 -0.441967 0
M  V30 1732 C 163.868 -1.54252 -1.20273 0
M  V30 1733 C 164.248 -0.30408 -2.08898 0
M  V30 1734 O 163.596 0.711084 -2.17154 0
M  V30 1735 C 163.806 -2.85406 -2.00859 0
M  V30 1736 C 165.154 -3.37181 -2.58059 0
M  V30 1737 O 166.178 -2.86925 -2.11074 0
M  V30 1738 O 165.037 -4.24858 -3.43741 0
M  V30 1739 H 162.131 -0.619969 -0.547328 0
M  V30 1740 H 164.677 -1.63586 -0.451413 0
M  V30 1741 H 163.449 -3.67003 -1.35736 0
M  V30 1742 H 163.072 -2.79213 -2.83065 0
M  V30 1743 N 164.069 0.697108 -1.41344 0
M  V30 1744 C 165.294 1.49096 -1.44171 0
M  V30 1745 C 165.719 1.88038 -0.0481568 0
M  V30 1746 O 165.077 1.54525 0.948243 0
M  V30 1747 C 165.125 2.73088 -2.3549 0
M  V30 1748 O 164.229 3.70514 -1.81088 0
M  V30 1749 H 163.57 0.448801 -0.489361 0
M  V30 1750 H 166.1 0.856992 -1.85787 0
M  V30 1751 H 166.11 3.21413 -2.51312 0
M  V30 1752 H 164.785 2.44081 -3.36745 0
M  V30 1753 H 163.362 3.29441 -1.74708 0
M  V30 1754 N 165.547 1.27147 0.931209 0
M  V30 1755 C 166.793 1.13446 1.68101 0
M  V30 1756 C 167.126 -0.319628 1.91552 0
M  V30 1757 O 166.401 -1.23407 1.50336 0
M  V30 1758 C 166.684 1.91482 3.0497 0
M  V30 1759 C 166.537 3.44855 2.88782 0
M  V30 1760 C 167.856 1.71651 4.05246 0
M  V30 1761 H 164.975 0.413498 0.610072 0
M  V30 1762 H 167.617 1.56261 1.08086 0
M  V30 1763 H 165.767 1.55095 3.56199 0
M  V30 1764 H 167.439 3.9105 2.44698 0
M  V30 1765 H 165.682 3.71373 2.24198 0
M  V30 1766 H 166.353 3.94694 3.85902 0
M  V30 1767 H 168.829 2.0337 3.63015 0
M  V30 1768 H 167.705 2.28651 4.99009 0
M  V30 1769 H 167.966 0.663555 4.37092 0
M  V30 1770 N 167.025 -1.13721 1.09112 0
M  V30 1771 C 167.955 -2.21148 0.749385 0
M  V30 1772 C 168.936 -1.6792 -0.271475 0
M  V30 1773 O 170.121 -1.93693 -0.140251 0
M  V30 1774 C 167.251 -3.46905 0.165659 0
M  V30 1775 C 166.205 -4.13203 1.11567 0
M  V30 1776 C 165.531 -5.33248 0.393809 0
M  V30 1777 C 166.831 -4.60912 2.45678 0
M  V30 1778 H 168.525 -2.4999 1.64758 0
M  V30 1779 H 166.071 -1.20156 0.793626 0
M  V30 1780 H 168.024 -4.21313 -0.085466 0
M  V30 1781 H 166.748 -3.17449 -0.767714 0
M  V30 1782 H 165.407 -3.40758 1.35202 0
M  V30 1783 H 165.055 -5.00054 -0.543599 0
M  V30 1784 H 164.755 -5.78552 1.02721 0
M  V30 1785 H 166.279 -6.10413 0.150908 0
M  V30 1786 H 167.693 -5.26759 2.26269 0
M  V30 1787 H 166.09 -5.16944 3.04776 0
M  V30 1788 H 167.16 -3.75603 3.06677 0
M  V30 1789 N 168.503 -0.877838 -1.30888 0
M  V30 1790 C 169.45 -0.337538 -2.28318 0
M  V30 1791 C 170.42 0.568346 -1.56074 0
M  V30 1792 O 171.605 0.498298 -1.84178 0
M  V30 1793 C 168.745 0.448142 -3.42178 0
M  V30 1794 C 167.858 -0.48615 -4.29256 0
M  V30 1795 C 166.993 0.314427 -5.30269 0
M  V30 1796 C 166.032 -0.615791 -6.08995 0
M  V30 1797 N 165.169 0.14902 -7.01942 0
M  V30 1798 H 170.009 -1.17356 -2.73919 0
M  V30 1799 H 167.546 -0.590094 -1.34745 0
M  V30 1800 H 169.504 0.919517 -4.06941 0
M  V30 1801 H 168.134 1.24879 -2.97666 0
M  V30 1802 H 167.186 -1.076 -3.64865 0
M  V30 1803 H 168.498 -1.19909 -4.84173 0
M  V30 1804 H 167.652 0.847969 -6.00745 0
M  V30 1805 H 166.391 1.06062 -4.76027 0
M  V30 1806 H 165.396 -1.16102 -5.37401 0
M  V30 1807 H 166.621 -1.36097 -6.65323 0
M  V30 1808 H 164.567 0.877884 -6.50099 0
M  V30 1809 H 164.484 -0.504433 -7.54315 0
M  V30 1810 H 165.752 0.663537 -7.76671 0
M  V30 1811 N 169.982 1.44106 -0.638065 0
M  V30 1812 C 170.929 2.30715 0.062701 0
M  V30 1813 C 171.899 1.43882 0.829883 0
M  V30 1814 O 173.084 1.72775 0.809532 0
M  V30 1815 C 170.224 3.29258 1.03358 0
M  V30 1816 C 169.337 4.31192 0.26409 0
M  V30 1817 C 168.472 5.16825 1.22741 0
M  V30 1818 C 167.511 6.10462 0.447475 0
M  V30 1819 N 166.648 6.8877 1.36161 0
M  V30 1820 H 171.488 2.90096 -0.681781 0
M  V30 1821 H 169.025 1.42925 -0.347988 0
M  V30 1822 H 170.983 3.84886 1.60992 0
M  V30 1823 H 169.613 2.71562 1.74511 0
M  V30 1824 H 168.665 3.77981 -0.428295 0
M  V30 1825 H 169.977 4.97619 -0.343052 0
M  V30 1826 H 169.131 5.77004 1.87487 0
M  V30 1827 H 167.87 4.50488 1.86847 0
M  V30 1828 H 166.875 5.49386 -0.213433 0
M  V30 1829 H 168.1 6.78837 -0.188968 0
M  V30 1830 H 166.046 6.25096 1.98975 0
M  V30 1831 H 165.963 7.51663 0.808656 0
M  V30 1832 H 167.231 7.53467 1.99769 0
M  V30 1833 N 171.46 0.379036 1.52974 0
M  V30 1834 C 172.706 -0.199244 2.02422 0
M  V30 1835 C 173.061 -1.4532 1.26095 0
M  V30 1836 O 172.354 -1.88377 0.34996 0
M  V30 1837 C 172.548 -0.53096 3.53434 0
M  V30 1838 C 172.377 0.689298 4.44386 0
M  V30 1839 C 171.147 1.20546 4.9071 0
M  V30 1840 C 173.345 1.55856 4.90116 0
M  V30 1841 N 171.327 2.38434 5.65705 0
M  V30 1842 C 172.698 2.58396 5.63588 0
M  V30 1843 C 174.753 1.57986 4.7217 0
M  V30 1844 C 173.456 3.62939 6.21022 0
M  V30 1845 C 175.482 2.6143 5.30479 0
M  V30 1846 C 174.844 3.62693 6.03849 0
M  V30 1847 H 170.943 -0.0352671 0.781204 0
M  V30 1848 H 173.527 0.526614 1.87443 0
M  V30 1849 H 171.698 -1.22588 3.68547 0
M  V30 1850 H 173.43 -1.0955 3.89591 0
M  V30 1851 H 170.185 0.768022 4.67331 0
M  V30 1852 H 170.609 2.98055 6.07859 0
M  V30 1853 H 175.251 0.810475 4.14959 0
M  V30 1854 H 172.969 4.40751 6.77321 0
M  V30 1855 H 176.555 2.63949 5.18481 0
M  V30 1856 H 175.435 4.41424 6.48163 0
M  V30 1857 N 172.938 -1.57226 0.108567 0
M  V30 1858 C 173.885 -2.14756 -0.845481 0
M  V30 1859 C 174.855 -1.06971 -1.27068 0
M  V30 1860 O 176.04 -1.34827 -1.35005 0
M  V30 1861 C 173.18 -2.74298 -2.09415 0
M  V30 1862 C 172.293 -3.96358 -1.71826 0
M  V30 1863 C 171.428 -4.44021 -2.9158 0
M  V30 1864 C 170.467 -5.58637 -2.50181 0
M  V30 1865 N 169.604 -6.01091 -3.62814 0
M  V30 1866 H 174.444 -2.95961 -0.348035 0
M  V30 1867 H 171.981 -1.46226 -0.160106 0
M  V30 1868 H 173.939 -3.06945 -2.82561 0
M  V30 1869 H 172.569 -1.95801 -2.56636 0
M  V30 1870 H 171.621 -3.69939 -0.885947 0
M  V30 1871 H 172.933 -4.79504 -1.37394 0
M  V30 1872 H 172.087 -4.78522 -3.72963 0
M  V30 1873 H 170.826 -3.59803 -3.29231 0
M  V30 1874 H 169.831 -5.23751 -1.67228 0
M  V30 1875 H 171.056 -6.44613 -2.13659 0
M  V30 1876 H 169.002 -5.19817 -4.00158 0
M  V30 1877 H 168.919 -6.79066 -3.32273 0
M  V30 1878 H 170.187 -6.40227 -4.44668 0
M  V30 1879 N 174.416 0.165178 -1.56732 0
M  V30 1880 C 175.664 0.879068 -1.8198 0
M  V30 1881 C 175.985 1.82514 -0.686561 0
M  V30 1882 O 175.255 1.93694 0.293146 0
M  V30 1883 H 173.835 0.327608 -0.671329 0
M  V30 1884 H 176.497 0.163526 -1.94213 0
M  V30 1885 H 175.593 1.45228 -2.76252 0
M  V30 1886 N 175.894 1.51508 0.433938 0
M  V30 1887 C 176.804 1.75917 1.5521 0
M  V30 1888 C 177.82 0.643545 1.61662 0
M  V30 1889 O 178.996 0.926183 1.7884 0
M  V30 1890 C 176.061 1.88213 2.91164 0
M  V30 1891 C 175.122 3.12074 2.94802 0
M  V30 1892 C 174.355 3.23774 4.24271 0
M  V30 1893 O 174.578 2.4133 5.16833 0
M  V30 1894 O 173.512 4.16774 4.34262 0
M  V30 1895 H 177.338 2.70777 1.37527 0
M  V30 1896 H 174.923 1.36051 0.617293 0
M  V30 1897 H 176.805 1.98267 3.71845 0
M  V30 1898 H 175.48 0.965413 3.08968 0
M  V30 1899 H 174.387 3.07497 2.13065 0
M  V30 1900 H 175.72 4.03446 2.81943 0
M  V30 1901 N 177.372 -0.689602 1.41712 0
M  V30 1902 C 178.621 -1.44534 1.40686 0
M  V30 1903 C 178.934 -1.95588 0.0213352 0
M  V30 1904 O 180.14 -2.71271 -0.111534 0
M  V30 1905 C 178.596 -2.61387 2.47396 0
M  V30 1906 C 178.204 -2.17094 3.91885 0
M  V30 1907 C 179.948 -3.38986 2.55517 0
M  V30 1908 C 177.855 -3.3094 4.90135 0
M  V30 1909 H 176.785 -0.542925 0.52321 0
M  V30 1910 H 179.436 -0.748054 1.6756 0
M  V30 1911 H 177.818 -3.33412 2.13664 0
M  V30 1912 H 178.992 -1.52318 4.34897 0
M  V30 1913 H 177.307 -1.52473 3.8748 0
M  V30 1914 H 179.904 -4.23747 3.26102 0
M  V30 1915 H 180.247 -3.84578 1.59391 0
M  V30 1916 H 180.78 -2.74021 2.8837 0
M  V30 1917 H 177.519 -2.90355 5.87685 0
M  V30 1918 H 177.039 -3.94546 4.51767 0
M  V30 1919 H 178.718 -3.9663 5.11169 0
M  V30 1920 N 178.85 -1.27639 -0.924453 0
M  V30 1921 C 179.782 -1.06442 -2.02985 0
M  V30 1922 C 180.795 -0.0194771 -1.62788 0
M  V30 1923 O 181.984 -0.261388 -1.76576 0
M  V30 1924 C 179.084 -0.59327 -3.33667 0
M  V30 1925 C 178.257 -1.71123 -4.02537 0
M  V30 1926 C 177.316 -1.23527 -5.11495 0
M  V30 1927 O 176.342 -1.93553 -5.35281 0
M  V30 1928 N 177.544 -0.0926678 -5.80426 0
M  V30 1929 H 180.309 -2.01633 -2.2173 0
M  V30 1930 H 177.87 -1.19248 -1.09505 0
M  V30 1931 H 179.862 -0.258686 -4.03872 0
M  V30 1932 H 178.432 0.265502 -3.1147 0
M  V30 1933 H 177.652 -2.21593 -3.26022 0
M  V30 1934 H 178.94 -2.46145 -4.45298 0
M  V30 1935 H 178.338 0.491741 -5.63559 0
M  V30 1936 H 176.895 0.182714 -6.51544 0
M  V30 1937 N 180.328 1.1314 -1.09713 0
M  V30 1938 C 181.238 2.22242 -0.751367 0
M  V30 1939 C 182.254 1.72224 0.247938 0
M  V30 1940 O 183.43 2.01205 0.0885463 0
M  V30 1941 C 180.495 3.46231 -0.180274 0
M  V30 1942 C 179.556 4.11125 -1.2359 0
M  V30 1943 C 178.789 5.29195 -0.691966 0
M  V30 1944 O 179.012 5.68342 0.48414 0
M  V30 1945 O 177.946 5.84214 -1.44838 0
M  V30 1946 H 181.772 2.54197 -1.66186 0
M  V30 1947 H 179.357 1.21331 -0.871735 0
M  V30 1948 H 181.239 4.21185 0.134739 0
M  V30 1949 H 179.914 3.1597 0.703185 0
M  V30 1950 H 178.821 3.37985 -1.60366 0
M  V30 1951 H 180.154 4.45524 -2.09211 0
M  V30 1952 N 181.806 0.884767 1.30421 0
M  V30 1953 C 183.053 0.503105 1.96151 0
M  V30 1954 C 183.381 -0.947676 1.69851 0
M  V30 1955 O 182.636 -1.68467 0.995861 0
M  V30 1956 C 182.935 0.724318 3.49983 0
M  V30 1957 C 182.601 2.15015 3.96332 0
M  V30 1958 C 181.263 2.54005 4.08699 0
M  V30 1959 C 183.615 3.07936 4.20505 0
M  V30 1960 C 180.943 3.85128 4.42599 0
M  V30 1961 C 183.295 4.3859 4.55874 0
M  V30 1962 C 181.959 4.77474 4.66449 0
M  V30 1963 H 181.229 0.184099 0.717766 0
M  V30 1964 H 183.876 1.12058 1.55291 0
M  V30 1965 H 182.181 0.0238086 3.91793 0
M  V30 1966 H 183.878 0.408617 3.98913 0
M  V30 1967 H 180.468 1.8375 3.87213 0
M  V30 1968 H 184.652 2.79033 4.10431 0
M  V30 1969 H 179.908 4.14996 4.48986 0
M  V30 1970 H 184.082 5.10629 4.7353 0
M  V30 1971 H 181.709 5.79115 4.92473 0
M  V30 1972 N 183.284 -1.43765 0.645699 0
M  V30 1973 C 184.524 -2.03776 0.159542 0
M  V30 1974 C 184.888 -1.49792 -1.2011 0
M  V30 1975 O 186.089 -2.01398 -1.78023 0
M  V30 1976 C 184.36 -3.57036 0.161251 0
M  V30 1977 S 185.919 -4.3804 -0.258159 0
M  V30 1978 H 182.737 -0.707717 0.0682454 0
M  V30 1979 H 185.339 -1.75941 0.852352 0
M  V30 1980 H 184.043 -3.9383 1.15439 0
M  V30 1981 H 183.574 -3.89503 -0.552339 0
M  V30 1982 H 185.589 -4.7302 -1.49889 0
M  V30 1983 N 184.763 -0.387143 -1.52771 0
M  V30 1984 C 186.174 0.0873634 -1.86495 0
M  V30 1985 C 186.525 1.46336 -1.30691 0
M  V30 1986 O 185.65 2.068 -0.637409 0
M  V30 1987 C 186.245 0.165305 -3.38396 0
M  V30 1988 C 184.804 0.584101 -3.7184 0
M  V30 1989 C 183.951 -0.255279 -2.76122 0
M  V30 1990 H 186.902 -0.605104 -1.46711 0
M  V30 1991 H 186.923 0.984848 -3.67534 0
M  V30 1992 H 186.435 -0.836301 -3.78982 0
M  V30 1993 H 184.536 1.59315 -3.36823 0
M  V30 1994 H 184.649 0.343749 -4.77865 0
M  V30 1995 H 183.013 0.279126 -2.53166 0
M  V30 1996 H 183.796 -1.25482 -3.19545 0
M  V30 1997 N 186.241 1.57166 -0.116904 0
M  V30 1998 C 187.189 2.16457 0.851418 0
M  V30 1999 C 188.183 1.11323 1.27686 0
M  V30 2000 O 189.389 1.2963 1.24884 0
M  V30 2001 H 185.764 0.69271 0.292672 0
M  V30 2002 H 187.735 2.96605 0.32685 0
M  V30 2003 C 186.484 2.77689 2.09246 0
M  V30 2004 H 185.807 3.58285 1.77402 0
M  V30 2005 H 187.247 3.22716 2.7501 0
M  V30 2006 C 185.706 1.74667 2.88085 0
M  V30 2007 O 186.236 1.19877 3.83396 0
M  V30 2008 N 184.442 1.44656 2.52038 0
M  V30 2009 H 183.989 1.89402 1.74599 0
M  V30 2010 H 183.947 0.759675 3.05084 0
M  V30 2011 N 187.719 -0.156864 1.56817 0
M  V30 2012 C 188.947 -0.886316 1.86955 0
M  V30 2013 C 189.362 -1.75185 0.703975 0
M  V30 2014 O 188.719 -1.79555 -0.326552 0
M  V30 2015 C 188.77 -1.75117 3.16253 0
M  V30 2016 O 188.491 -0.920537 4.2832 0
M  V30 2017 C 189.992 -2.58905 3.59837 0
M  V30 2018 H 187.212 -0.25678 0.619923 0
M  V30 2019 H 189.756 -0.152615 2.0393 0
M  V30 2020 H 187.911 -2.43805 3.01062 0
M  V30 2021 H 188.325 -1.51337 5.02192 0
M  V30 2022 H 189.799 -3.1518 4.53172 0
M  V30 2023 H 190.276 -3.34472 2.84649 0
M  V30 2024 H 190.882 -1.95526 3.7769 0
M  V30 2025 N 189.197 -1.51736 -0.425897 0
M  V30 2026 C 190.144 -1.73875 -1.51776 0
M  V30 2027 C 191.114 -0.580702 -1.55618 0
M  V30 2028 O 192.299 -0.81641 -1.72451 0
M  V30 2029 C 189.439 -1.88012 -2.89388 0
M  V30 2030 C 188.552 -3.15606 -2.94986 0
M  V30 2031 C 187.687 -3.20271 -4.23793 0
M  V30 2032 C 186.726 -4.42134 -4.23302 0
M  V30 2033 N 185.863 -4.44284 -5.43651 0
M  V30 2034 H 190.703 -2.67071 -1.32201 0
M  V30 2035 H 188.24 -1.32351 -0.642008 0
M  V30 2036 H 190.198 -1.9419 -3.69251 0
M  V30 2037 H 188.828 -0.98213 -3.07496 0
M  V30 2038 H 187.88 -3.18681 -2.07717 0
M  V30 2039 H 189.192 -4.05486 -2.90486 0
M  V30 2040 H 188.346 -3.25428 -5.12036 0
M  V30 2041 H 187.085 -2.28299 -4.30965 0
M  V30 2042 H 186.09 -4.3714 -3.3345 0
M  V30 2043 H 187.315 -5.35382 -4.17783 0
M  V30 2044 H 185.261 -3.55188 -5.51523 0
M  V30 2045 H 185.178 -5.27988 -5.41078 0
M  V30 2046 H 186.446 -4.53649 -6.33895 0
M  V30 2047 N 190.675 0.682077 -1.42076 0
M  V30 2048 C 191.608 1.80666 -1.3941 0
M  V30 2049 C 192.586 1.60518 -0.25939 0
M  V30 2050 O 193.77 1.83088 -0.448456 0
M  V30 2051 C 190.897 3.17556 -1.17796 0
M  V30 2052 C 189.943 3.56468 -2.34164 0
M  V30 2053 S 190.776 3.59729 -3.96681 0
M  V30 2054 C 191.932 4.99323 -3.77395 0
M  V30 2055 H 192.165 1.82652 -2.34575 0
M  V30 2056 H 189.698 0.852062 -1.2876 0
M  V30 2057 H 191.656 3.96575 -1.06012 0
M  V30 2058 H 190.317 3.13164 -0.242279 0
M  V30 2059 H 189.51 4.5595 -2.1477 0
M  V30 2060 H 189.112 2.84792 -2.42425 0
M  V30 2061 H 191.404 5.87202 -3.37935 0
M  V30 2062 H 192.347 5.23763 -4.76527 0
M  V30 2063 H 192.755 4.71498 -3.10403 0
M  V30 2064 N 192.153 1.28127 0.917671 0
M  V30 2065 C 193.083 1.14248 2.03641 0
M  V30 2066 C 194.064 0.0412748 1.7005 0
M  V30 2067 O 195.249 0.217566 1.92977 0
M  V30 2068 C 192.379 0.799431 3.37974 0
M  V30 2069 C 191.333 1.85497 3.85713 0
M  V30 2070 C 190.659 1.36565 5.16966 0
M  V30 2071 C 191.959 3.26085 4.08002 0
M  V30 2072 H 193.653 2.07835 2.15511 0
M  V30 2073 H 191.199 1.00064 1.03553 0
M  V30 2074 H 193.152 0.689114 4.15727 0
M  V30 2075 H 191.876 -0.172145 3.26146 0
M  V30 2076 H 190.535 1.95437 3.10161 0
M  V30 2077 H 190.183 0.383253 5.01538 0
M  V30 2078 H 189.883 2.07143 5.49878 0
M  V30 2079 H 191.407 1.26848 5.97279 0
M  V30 2080 H 192.821 3.19089 4.76293 0
M  V30 2081 H 191.218 3.94462 4.52238 0
M  V30 2082 H 192.288 3.70394 3.12948 0
M  V30 2083 N 193.631 -1.12557 1.10312 0
M  V30 2084 C 194.561 -2.20341 0.772798 0
M  V30 2085 C 195.542 -1.68198 -0.25365 0
M  V30 2086 O 196.727 -1.93831 -0.119699 0
M  V30 2087 C 193.857 -3.46709 0.202443 0
M  V30 2088 C 192.811 -4.11996 1.15943 0
M  V30 2089 C 192.137 -5.328 0.450345 0
M  V30 2090 C 193.437 -4.5828 2.50552 0
M  V30 2091 H 195.131 -2.48229 1.674 0
M  V30 2092 H 192.677 -1.19308 0.806326 0
M  V30 2093 H 194.63 -4.2138 -0.0407752 0
M  V30 2094 H 193.354 -3.18245 -0.734001 0
M  V30 2095 H 192.013 -3.39305 1.38808 0
M  V30 2096 H 191.661 -5.00602 -0.490531 0
M  V30 2097 H 191.361 -5.7743 1.08851 0
M  V30 2098 H 192.885 -6.10219 0.215642 0
M  V30 2099 H 194.299 -5.2433 2.31843 0
M  V30 2100 H 192.696 -5.13683 3.10242 0
M  V30 2101 H 193.766 -3.72329 3.10643 0
M  V30 2102 N 195.109 -0.891671 -1.2995 0
M  V30 2103 C 196.355 -0.514261 -1.96171 0
M  V30 2104 C 196.688 0.935506 -1.70182 0
M  V30 2105 O 195.963 1.66204 -1.01028 0
M  V30 2106 C 196.246 -0.797719 -3.51153 0
M  V30 2107 C 196.099 -2.2986 -3.86632 0
M  V30 2108 C 197.418 -0.278749 -4.39216 0
M  V30 2109 H 194.537 -0.188314 -0.712535 0
M  V30 2110 H 197.179 -1.11689 -1.53706 0
M  V30 2111 H 195.329 -0.284826 -3.87455 0
M  V30 2112 H 197.001 -2.88042 -3.60319 0
M  V30 2113 H 195.244 -2.76257 -3.34462 0
M  V30 2114 H 195.915 -2.44753 -4.94773 0
M  V30 2115 H 198.391 -0.717825 -4.09862 0
M  V30 2116 H 197.267 -0.506353 -5.46559 0
M  V30 2117 H 197.528 0.820266 -4.34424 0
M  V30 2118 N 196.587 1.43421 -0.653314 0
M  V30 2119 C 197.835 2.01414 -0.166415 0
M  V30 2120 C 198.156 1.51803 1.22397 0
M  V30 2121 O 197.426 0.730693 1.81763 0
M  V30 2122 H 196.006 0.744703 -0.0585319 0
M  V30 2123 H 198.668 1.75629 -0.845003 0
M  V30 2124 H 197.764 3.11734 -0.151111 0
M  V30 2125 N 198.065 0.39524 1.52563 0
M  V30 2126 C 199.305 -0.184744 2.03563 0
M  V30 2127 C 199.669 -1.43548 1.27507 0
M  V30 2128 O 200.87 -2.093 1.68662 0
M  V30 2129 C 199.141 -0.440294 3.54678 0
M  V30 2130 S 200.7 -0.989712 4.27493 0
M  V30 2131 H 197.518 -0.0515075 0.709132 0
M  V30 2132 H 200.12 0.544957 1.87751 0
M  V30 2133 H 198.824 0.477005 4.07618 0
M  V30 2134 H 198.355 -1.19825 3.74707 0
M  V30 2135 H 200.37 -2.27155 4.41152 0
M  V30 2136 N 199.544 -1.57102 0.125237 0
M  V30 2137 C 200.491 -2.15641 -0.822655 0
M  V30 2138 C 201.461 -1.08313 -1.25927 0
M  V30 2139 O 202.646 -1.36251 -1.33567 0
M  V30 2140 C 199.786 -2.76504 -2.06494 0
M  V30 2141 C 198.899 -3.98158 -1.67612 0
M  V30 2142 C 198.034 -4.47088 -2.86854 0
M  V30 2143 C 197.073 -5.6126 -2.44242 0
M  V30 2144 N 196.21 -6.04905 -3.56419 0
M  V30 2145 H 201.05 -2.96313 -0.316625 0
M  V30 2146 H 198.587 -1.46388 -0.144588 0
M  V30 2147 H 200.545 -3.09925 -2.79289 0
M  V30 2148 H 199.175 -1.98512 -2.54545 0
M  V30 2149 H 198.227 -3.70858 -0.846661 0
M  V30 2150 H 199.539 -4.80934 -1.32301 0
M  V30 2151 H 198.693 -4.82451 -3.67867 0
M  V30 2152 H 197.432 -3.63275 -3.25396 0
M  V30 2153 H 196.437 -5.25495 -1.61663 0
M  V30 2154 H 197.662 -6.46843 -2.0681 0
M  V30 2155 H 195.608 -5.24032 -3.94623 0
M  V30 2156 H 195.525 -6.82552 -3.25051 0
M  V30 2157 H 196.793 -6.44907 -4.37853 0
M  V30 2158 N 201.022 0.148545 -1.56898 0
M  V30 2159 C 202.247 0.880385 -1.87787 0
M  V30 2160 C 202.672 1.74018 -0.714093 0
M  V30 2161 O 202.03 1.78153 0.336343 0
M  V30 2162 C 202.078 1.71422 -3.17249 0
M  V30 2163 O 201.182 2.8183 -3.01074 0
M  V30 2164 H 200.523 0.245301 -0.617028 0
M  V30 2165 H 203.053 0.139826 -2.04122 0
M  V30 2166 H 203.063 2.10954 -3.49231 0
M  V30 2167 H 201.738 1.08284 -4.01556 0
M  V30 2168 H 200.315 2.45715 -2.80497 0
M  V30 2169 N 202.5 1.5196 0.417844 0
M  V30 2170 C 203.777 1.56146 1.17803 0
M  V30 2171 C 204.157 0.337275 2.08388 0
M  V30 2172 O 203.505 -0.676447 2.18258 0
M  V30 2173 C 203.715 2.88566 1.96293 0
M  V30 2174 C 205.063 3.41244 2.52662 0
M  V30 2175 O 206.087 2.90247 2.06483 0
M  V30 2176 O 204.946 4.30273 3.36938 0
M  V30 2177 H 202.04 0.628598 0.537395 0
M  V30 2178 H 204.586 1.64283 0.425331 0
M  V30 2179 H 203.358 3.69116 1.2988 0
M  V30 2180 H 202.981 2.83681 2.78587 0
M  V30 2181 N 203.978 -0.674533 1.42435 0
M  V30 2182 C 204.908 -1.80009 1.48724 0
M  V30 2183 C 205.889 -1.6659 0.343793 0
M  V30 2184 O 207.074 -1.86007 0.558137 0
M  V30 2185 C 204.204 -3.18306 1.38919 0
M  V30 2186 C 203.158 -3.46461 2.51294 0
M  V30 2187 C 202.484 -4.84335 2.26547 0
M  V30 2188 C 203.784 -3.43328 3.93603 0
M  V30 2189 H 205.478 -1.75004 2.42928 0
M  V30 2190 H 203.024 -0.840533 1.16923 0
M  V30 2191 H 204.977 -3.9678 1.41927 0
M  V30 2192 H 203.701 -3.2399 0.412094 0
M  V30 2193 H 202.36 -2.70348 2.47604 0
M  V30 2194 H 202.008 -4.86669 1.2713 0
M  V30 2195 H 201.708 -5.04136 3.01861 0
M  V30 2196 H 203.232 -5.65094 2.31304 0
M  V30 2197 H 204.646 -4.11772 3.98894 0
M  V30 2198 H 203.043 -3.74664 4.68771 0
M  V30 2199 H 204.113 -2.41897 4.20255 0
M  V30 2200 N 205.456 -1.28612 -0.910864 0
M  V30 2201 C 206.872 -1.06381 -1.18976 0
M  V30 2202 C 207.072 0.191998 -2.00583 0
M  V30 2203 O 206.128 0.892869 -2.36187 0
M  V30 2204 C 207.441 -2.31295 -1.92154 0
M  V30 2205 C 208.989 -2.36503 -2.05025 0
M  V30 2206 C 209.464 -3.61191 -2.81612 0
M  V30 2207 N 210.955 -3.61847 -2.89172 0
M  V30 2208 C 211.69 -4.55004 -3.4894 0
M  V30 2209 N 211.186 -5.58482 -4.09963 0
M  V30 2210 N 212.979 -4.42594 -3.46506 0
M  V30 2211 H 205.13 -2.09221 -0.366094 0
M  V30 2212 H 207.393 -0.921003 -0.224629 0
M  V30 2213 H 207.099 -3.228 -1.39618 0
M  V30 2214 H 206.973 -2.37934 -2.9269 0
M  V30 2215 H 209.36 -1.45494 -2.5674 0
M  V30 2216 H 209.441 -2.33857 -1.03657 0
M  V30 2217 H 209.085 -4.52545 -2.30576 0
M  V30 2218 H 209.015 -3.61092 -3.83302 0
M  V30 2219 H 211.506 -2.87022 -2.45819 0
M  V30 2220 H 211.819 -6.25704 -4.53557 0
M  V30 2221 H 210.164 -5.62305 -4.08459 0
M  V30 2222 H 213.355 -3.60953 -2.98045 0
M  V30 2223 H 213.528 -5.15381 -3.92793 0
M  V30 2224 N 206.934 1.1197 -1.10907 0
M  V30 2225 C 208.162 1.87402 -0.876824 0
M  V30 2226 C 208.577 1.79894 0.573025 0
M  V30 2227 O 207.934 1.17629 1.39534 0
M  V30 2228 C 207.985 3.36428 -1.32282 0
M  V30 2229 O 207.706 3.43765 -2.71582 0
M  V30 2230 C 209.207 4.28783 -1.12518 0
M  V30 2231 H 206.427 0.592793 -0.314384 0
M  V30 2232 H 208.971 1.41649 -1.47499 0
M  V30 2233 H 207.126 3.79706 -0.768229 0
M  V30 2234 H 207.54 4.3652 -2.90776 0
M  V30 2235 H 209.014 5.31613 -1.48633 0
M  V30 2236 H 209.491 4.39153 -0.0642394 0
M  V30 2237 H 210.097 3.91291 -1.66648 0
M  V30 2238 N 208.412 0.89855 1.29475 0
M  V30 2239 C 209.689 0.443416 1.90508 0
M  V30 2240 C 210.069 -1.07685 1.81569 0
M  V30 2241 O 209.417 -1.9182 1.24166 0
M  V30 2242 C 209.627 0.956708 3.35631 0
M  V30 2243 C 210.975 0.999728 4.12663 0
M  V30 2244 O 211.999 0.904299 3.4453 0
M  V30 2245 O 210.858 1.14289 5.34416 0
M  V30 2246 H 207.952 0.138025 0.815401 0
M  V30 2247 H 210.498 0.98834 1.37949 0
M  V30 2248 H 209.27 2.00067 3.36287 0
M  V30 2249 H 208.893 0.391728 3.95666 0
M  V30 2250 N 209.89 -1.43072 0.660911 0
M  V30 2251 C 211.136 -2.0202 0.177708 0
M  V30 2252 C 211.469 -1.52066 -1.20787 0
M  V30 2253 O 210.744 -0.716987 -1.80802 0
M  V30 2254 C 211.027 -3.59561 0.197019 0
M  V30 2255 C 210.88 -4.19727 1.61706 0
M  V30 2256 C 212.199 -4.37664 -0.462396 0
M  V30 2257 H 209.318 -0.734034 0.0660494 0
M  V30 2258 H 211.96 -1.70272 0.843058 0
M  V30 2259 H 210.11 -3.86739 -0.369527 0
M  V30 2260 H 211.782 -4.03553 2.23479 0
M  V30 2261 H 210.025 -3.76084 2.16201 0
M  V30 2262 H 210.696 -5.28834 1.58237 0
M  V30 2263 H 213.172 -4.16095 0.0197215 0
M  V30 2264 H 212.048 -5.47305 -0.418188 0
M  V30 2265 H 212.309 -4.14493 -1.53778 0
M  V30 2266 N 211.368 -0.403325 -1.52352 0
M  V30 2267 C 212.593 0.176499 -2.06648 0
M  V30 2268 C 213.018 1.38577 -1.27193 0
M  V30 2269 O 212.376 1.7879 -0.300637 0
M  V30 2270 C 212.424 0.511061 -3.5696 0
M  V30 2271 O 211.528 1.60294 -3.79973 0
M  V30 2272 H 210.869 0.0167337 -0.663789 0
M  V30 2273 H 213.399 -0.574848 -1.96359 0
M  V30 2274 H 213.409 0.771362 -4.00642 0
M  V30 2275 H 212.084 -0.37296 -4.14224 0
M  V30 2276 H 210.661 1.33526 -3.48174 0
M  V30 2277 N 212.846 1.57033 -0.133567 0
M  V30 2278 C 214.074 2.00044 0.528195 0
M  V30 2279 C 214.489 1.01349 1.59291 0
M  V30 2280 O 213.846 0.00848369 1.82498 0
M  V30 2281 C 213.897 3.43018 1.1411 0
M  V30 2282 O 213.618 4.37939 0.11892 0
M  V30 2283 C 215.119 4.01237 1.88477 0
M  V30 2284 H 212.339 0.656517 0.138661 0
M  V30 2285 H 214.883 2.03267 -0.224196 0
M  V30 2286 H 213.038 3.40688 1.84418 0
M  V30 2287 H 213.452 5.21436 0.56613 0
M  V30 2288 H 214.926 5.03314 2.26669 0
M  V30 2289 H 215.403 3.41193 2.76558 0
M  V30 2290 H 216.009 4.07156 1.22898 0
M  V30 2291 N 214.325 -0.140222 1.56975 0
M  V30 2292 C 215.255 -1.17456 2.01808 0
M  V30 2293 C 216.236 -1.44415 0.898794 0
M  V30 2294 O 217.421 -1.5522 1.16707 0
M  V30 2295 C 214.551 -2.50607 2.40444 0
M  V30 2296 C 213.505 -2.38155 3.55621 0
M  V30 2297 C 212.831 -3.76078 3.80091 0
M  V30 2298 C 214.131 -1.85991 4.88062 0
M  V30 2299 H 215.825 -0.801743 2.88466 0
M  V30 2300 H 213.371 -0.38422 1.38779 0
M  V30 2301 H 215.324 -3.23197 2.7041 0
M  V30 2302 H 214.048 -2.89737 1.50732 0
M  V30 2303 H 212.707 -1.68016 3.25832 0
M  V30 2304 H 212.355 -4.12656 2.87618 0
M  V30 2305 H 212.055 -3.68606 4.57606 0
M  V30 2306 H 213.579 -4.50206 4.12488 0
M  V30 2307 H 214.993 -2.4838 5.16701 0
M  V30 2308 H 213.39 -1.89393 5.6943 0
M  V30 2309 H 214.46 -0.816023 4.77984 0
M  V30 2310 N 215.803 -1.52179 -0.40978 0
M  V30 2311 C 217.049 -1.66453 -1.15851 0
M  V30 2312 C 217.382 -0.392972 -1.90182 0
M  V30 2313 O 216.657 0.608579 -1.84734 0
M  V30 2314 C 216.94 -2.88612 -2.15349 0
M  V30 2315 C 216.793 -4.25815 -1.44918 0
M  V30 2316 C 218.112 -3.06294 -3.16026 0
M  V30 2317 H 215.231 -0.60575 -0.419805 0
M  V30 2318 H 217.873 -1.84732 -0.444314 0
M  V30 2319 H 216.023 -2.73158 -2.76255 0
M  V30 2320 H 217.695 -4.52995 -0.871365 0
M  V30 2321 H 215.938 -4.27247 -0.751159 0
M  V30 2322 H 216.609 -5.07337 -2.17516 0
M  V30 2323 H 219.085 -3.20641 -2.65195 0
M  V30 2324 H 217.961 -3.93283 -3.8291 0
M  V30 2325 H 218.222 -2.19579 -3.83715 0
M  V30 2326 N 217.281 0.66697 -1.42791 0
M  V30 2327 C 218.191 1.80962 -1.49299 0
M  V30 2328 C 219.207 1.69775 -0.381108 0
M  V30 2329 O 220.383 1.91188 -0.633188 0
M  V30 2330 C 217.448 3.17156 -1.40045 0
M  V30 2331 C 216.509 3.40242 -2.6179 0
M  V30 2332 C 215.742 4.69939 -2.52969 0
M  V30 2333 O 215.965 5.48372 -1.56985 0
M  V30 2334 O 214.899 4.94441 -3.43237 0
M  V30 2335 H 218.725 1.78427 -2.45759 0
M  V30 2336 H 216.31 0.823713 -1.24641 0
M  V30 2337 H 218.192 3.98413 -1.37276 0
M  V30 2338 H 216.867 3.20312 -0.467138 0
M  V30 2339 H 215.774 2.58802 -2.70134 0
M  V30 2340 H 217.107 3.41923 -3.54047 0
M  V30 2341 N 218.759 1.29093 0.90403 0
M  V30 2342 C 219.689 1.16401 2.02418 0
M  V30 2343 C 220.67 0.0593085 1.69997 0
M  V30 2344 O 221.855 0.238021 1.92736 0
M  V30 2345 C 218.985 0.835233 3.37107 0
M  V30 2346 C 217.939 1.89578 3.83724 0
M  V30 2347 C 217.265 1.42041 5.15489 0
M  V30 2348 C 218.565 3.30394 4.04521 0
M  V30 2349 H 220.259 2.10109 2.13295 0
M  V30 2350 H 217.805 1.01157 1.02486 0
M  V30 2351 H 219.758 0.733169 4.14973 0
M  V30 2352 H 218.482 -0.137543 3.2631 0
M  V30 2353 H 217.141 1.98715 3.08071 0
M  V30 2354 H 216.789 0.436426 5.01103 0
M  V30 2355 H 216.489 2.12964 5.4765 0
M  V30 2356 H 218.013 1.33176 5.959 0
M  V30 2357 H 219.427 3.24123 4.72882 0
M  V30 2358 H 217.824 3.99237 4.48029 0
M  V30 2359 H 218.894 3.73692 3.09002 0
M  V30 2360 N 220.237 -1.11381 1.11499 0
M  V30 2361 C 221.462 -1.87475 0.887019 0
M  V30 2362 C 221.887 -1.79639 -0.557796 0
M  V30 2363 O 221.245 -1.15924 -1.39396 0
M  V30 2364 C 221.293 -3.34213 1.35403 0
M  V30 2365 O 220.397 -4.0903 0.526146 0
M  V30 2366 H 219.738 -0.582099 0.319463 0
M  V30 2367 H 222.268 -1.40785 1.48461 0
M  V30 2368 H 222.278 -3.8506 1.34881 0
M  V30 2369 H 220.953 -3.39232 2.40612 0
M  V30 2370 H 219.53 -3.68082 0.597522 0
M  V30 2371 N 221.715 -0.905404 -1.28997 0
M  V30 2372 C 222.663 -0.377431 -2.29517 0
M  V30 2373 C 223.657 0.526461 -1.61012 0
M  V30 2374 O 224.863 0.40863 -1.753 0
M  V30 2375 H 221.238 -0.103437 -0.744852 0
M  V30 2376 H 223.209 -1.23848 -2.71485 0
M  V30 2377 C 221.958 0.374833 -3.45674 0
M  V30 2378 H 221.281 -0.311474 -3.98585 0
M  V30 2379 H 222.721 0.70903 -4.1803 0
M  V30 2380 C 221.18 1.57963 -2.97572 0
M  V30 2381 O 221.71 2.67886 -2.99333 0
M  V30 2382 N 219.916 1.42375 -2.53333 0
M  V30 2383 H 219.463 0.529466 -2.521 0
M  V30 2384 H 219.421 2.23117 -2.21509 0
M  V30 2385 N 223.193 1.4272 -0.668489 0
M  V30 2386 C 224.143 2.27971 0.0363806 0
M  V30 2387 C 225.127 1.40741 0.779794 0
M  V30 2388 O 226.319 1.64245 0.659745 0
M  V30 2389 C 223.448 3.28673 0.991398 0
M  V30 2390 C 222.534 4.23388 0.245658 0
M  V30 2391 N 222.925 5.00267 -0.746069 0
M  V30 2392 C 221.223 4.43355 0.484988 0
M  V30 2393 C 221.924 5.69396 -1.19009 0
M  V30 2394 N 220.9 5.41095 -0.521287 0
M  V30 2395 H 224.702 2.84833 -0.724394 0
M  V30 2396 H 222.216 1.54607 -0.497028 0
M  V30 2397 H 224.213 3.88543 1.51129 0
M  V30 2398 H 222.873 2.73373 1.75207 0
M  V30 2399 H 223.884 5.05525 -1.12537 0
M  V30 2400 H 220.561 3.99104 1.22565 0
M  V30 2401 H 221.951 6.41083 -2.01153 0
M  V30 2402 N 224.671 0.411399 1.52136 0
M  V30 2403 C 226.087 0.0623865 1.59478 0
M  V30 2404 C 226.287 -1.42554 1.4241 0
M  V30 2405 O 225.343 -2.19263 1.2522 0
M  V30 2406 C 226.656 0.559331 2.95452 0
M  V30 2407 C 228.204 0.517503 3.08692 0
M  V30 2408 C 228.679 0.990994 4.4715 0
M  V30 2409 N 230.17 0.947908 4.53397 0
M  V30 2410 C 230.905 1.28544 5.58806 0
M  V30 2411 N 230.401 1.69454 6.71757 0
M  V30 2412 N 232.194 1.20526 5.49026 0
M  V30 2413 H 224.345 1.37982 1.61477 0
M  V30 2414 H 226.608 0.566977 0.759764 0
M  V30 2415 H 226.314 1.59938 3.1323 0
M  V30 2416 H 226.188 -0.0298014 3.77188 0
M  V30 2417 H 228.575 -0.513505 2.90598 0
M  V30 2418 H 228.656 1.14272 2.28857 0
M  V30 2419 H 228.3 2.02034 4.65988 0
M  V30 2420 H 228.23 0.34257 5.25485 0
M  V30 2421 H 230.721 0.647157 3.72317 0
M  V30 2422 H 231.034 1.93513 7.48179 0
M  V30 2423 H 229.379 1.73359 6.73032 0
M  V30 2424 H 232.57 0.884505 4.59667 0
M  V30 2425 H 232.743 1.47161 6.31069 0
M  V30 2426 N 226.149 -1.5696 0.141893 0
M  V30 2427 C 227.081 -2.13619 -0.830627 0
M  V30 2428 C 228.094 -1.08439 -1.21428 0
M  V30 2429 O 229.283 -1.35734 -1.15925 0
M  V30 2430 C 226.383 -2.63978 -2.12529 0
M  V30 2431 C 225.556 -3.93504 -1.9098 0
M  V30 2432 C 224.615 -4.29225 -3.04388 0
M  V30 2433 O 223.641 -4.97641 -2.76302 0
M  V30 2434 N 224.843 -3.88393 -4.31429 0
M  V30 2435 H 227.608 -2.97691 -0.34641 0
M  V30 2436 H 225.169 -1.61846 -0.0418375 0
M  V30 2437 H 227.161 -2.84891 -2.87436 0
M  V30 2438 H 225.731 -1.84659 -2.52229 0
M  V30 2439 H 224.951 -3.81269 -1.00139 0
M  V30 2440 H 226.239 -4.78154 -1.73914 0
M  V30 2441 H 225.637 -3.33257 -4.57117 0
M  V30 2442 H 224.194 -4.14368 -5.03133 0
M  V30 2443 N 227.627 0.131896 -1.57047 0
M  V30 2444 C 228.855 0.856461 -1.88341 0
M  V30 2445 C 229.27 1.74042 -0.731757 0
M  V30 2446 O 228.627 1.80051 0.297945 0
M  V30 2447 C 228.678 1.70064 -3.18999 0
M  V30 2448 O 228.399 0.852278 -4.2973 0
M  V30 2449 C 229.9 2.53148 -3.63911 0
M  V30 2450 H 227.12 0.246885 -0.62393 0
M  V30 2451 H 229.664 0.120152 -2.04147 0
M  V30 2452 H 227.819 2.38984 -3.04902 0
M  V30 2453 H 228.233 1.43329 -5.04537 0
M  V30 2454 H 229.707 3.07931 -4.58129 0
M  V30 2455 H 230.184 3.29901 -2.89935 0
M  V30 2456 H 230.79 1.89492 -3.80753 0
M  V30 2457 N 229.106 1.52395 0.401703 0
M  V30 2458 C 230.517 1.58899 0.980202 0
M  V30 2459 C 230.868 0.434032 1.91339 0
M  V30 2460 O 229.993 -0.444619 2.11783 0
M  V30 2461 C 230.588 2.87994 1.78451 0
M  V30 2462 C 229.147 2.96953 2.31292 0
M  V30 2463 C 228.294 2.53903 1.11483 0
M  V30 2464 H 231.245 1.57657 0.18168 0
M  V30 2465 H 231.266 2.73765 2.64259 0
M  V30 2466 H 230.778 3.72035 1.10506 0
M  V30 2467 H 228.879 2.17422 3.02586 0
M  V30 2468 H 228.992 4.01344 2.61649 0
M  V30 2469 H 227.356 2.07925 1.47104 0
M  V30 2470 H 228.139 3.40326 0.450928 0
M  V30 2471 N 230.584 -0.659388 1.43143 0
M  V30 2472 C 231.83 -1.42145 1.44647 0
M  V30 2473 C 232.163 -1.9408 0.0681907 0
M  V30 2474 O 231.438 -1.71899 -0.910007 0
M  V30 2475 C 231.721 -2.60735 2.48373 0
M  V30 2476 C 231.574 -2.14332 3.95451 0
M  V30 2477 C 232.893 -3.62951 2.48906 0
M  V30 2478 H 230.012 -0.51552 0.526696 0
M  V30 2479 H 232.654 -0.748069 1.74654 0
M  V30 2480 H 230.804 -3.18184 2.22916 0
M  V30 2481 H 232.476 -1.61932 4.31944 0
M  V30 2482 H 230.719 -1.4576 4.08578 0
M  V30 2483 H 231.39 -2.99583 4.63631 0
M  V30 2484 H 233.866 -3.1525 2.71582 0
M  V30 2485 H 232.742 -4.43487 3.23435 0
M  V30 2486 H 233.003 -4.15126 1.52061 0
M  V30 2487 N 232.062 -1.29571 -0.897171 0
M  V30 2488 C 233.287 -1.20705 -1.68656 0
M  V30 2489 C 233.712 0.228582 -1.86706 0
M  V30 2490 O 233.07 1.16494 -1.3892 0
M  V30 2491 C 233.118 -1.9282 -3.04717 0
M  V30 2492 O 232.222 -1.24697 -3.93096 0
M  V30 2493 H 231.563 -0.418126 -0.515816 0
M  V30 2494 H 234.093 -1.71183 -1.12061 0
M  V30 2495 H 234.103 -2.01372 -3.54843 0
M  V30 2496 H 232.778 -2.97239 -2.90899 0
M  V30 2497 H 231.355 -1.2442 -3.51531 0
M  V30 2498 N 233.54 1.10788 -1.12088 0
M  V30 2499 C 234.77 1.86191 -0.895351 0
M  V30 2500 C 235.178 1.80763 0.558702 0
M  V30 2501 O 234.521 1.19188 1.39785 0
M  V30 2502 C 234.583 3.35659 -1.28737 0
M  V30 2503 C 234.247 3.64849 -2.75198 0
M  V30 2504 C 235.244 3.61757 -3.734 0
M  V30 2505 C 232.929 3.93641 -3.12013 0
M  V30 2506 C 234.923 3.87045 -5.06434 0
M  V30 2507 C 232.61 4.18585 -4.4523 0
M  V30 2508 C 233.608 4.15277 -5.42249 0
M  V30 2509 O 233.296 4.3959 -6.73065 0
M  V30 2510 H 233.028 0.595425 -0.32007 0
M  V30 2511 H 235.582 1.40992 -1.49367 0
M  V30 2512 H 233.812 3.81497 -0.63224 0
M  V30 2513 H 235.501 3.92441 -1.03656 0
M  V30 2514 H 236.267 3.39557 -3.46303 0
M  V30 2515 H 232.146 3.95348 -2.37109 0
M  V30 2516 H 235.69 3.84378 -5.82151 0
M  V30 2517 H 231.587 4.40264 -4.72057 0
M  V30 2518 H 232.355 4.57123 -6.78956 0
M  V30 2519 N 235.018 0.912232 1.28515 0
M  V30 2520 C 236.295 0.463597 1.90027 0
M  V30 2521 C 236.675 -1.05753 1.82701 0
M  V30 2522 O 236.023 -1.90492 1.26194 0
M  V30 2523 C 236.233 0.992253 3.34597 0
M  V30 2524 C 237.581 1.04344 4.11579 0
M  V30 2525 O 238.605 0.94079 3.43551 0
M  V30 2526 O 237.464 1.1995 5.33174 0
M  V30 2527 H 234.558 0.146666 0.813891 0
M  V30 2528 H 237.104 1.00292 1.36893 0
M  V30 2529 H 235.876 2.03623 3.34146 0
M  V30 2530 H 235.499 0.433672 3.95228 0
M  V30 2531 N 236.496 -1.42363 0.676048 0
M  V30 2532 C 237.428 -2.29164 -0.0404605 0
M  V30 2533 C 238.441 -1.43747 -0.764245 0
M  V30 2534 O 239.63 -1.67453 -0.618195 0
M  V30 2535 C 236.73 -3.21196 -1.08103 0
M  V30 2536 C 235.903 -4.35273 -0.430812 0
M  V30 2537 C 234.962 -5.08017 -1.37133 0
M  V30 2538 O 233.988 -5.62494 -0.87116 0
M  V30 2539 N 235.19 -5.13647 -2.70456 0
M  V30 2540 H 237.955 -2.91298 0.704667 0
M  V30 2541 H 235.516 -1.53303 0.520559 0
M  V30 2542 H 237.508 -3.66728 -1.71152 0
M  V30 2543 H 236.078 -2.60505 -1.72788 0
M  V30 2544 H 235.298 -3.92372 0.379209 0
M  V30 2545 H 236.586 -5.08795 0.0221132 0
M  V30 2546 H 235.984 -4.708 -3.1363 0
M  V30 2547 H 234.541 -5.62821 -3.28749 0
M  V30 2548 N 237.974 -0.419461 -1.51915 0
M  V30 2549 C 239.222 0.152637 -2.01523 0
M  V30 2550 C 239.543 1.44762 -1.30649 0
M  V30 2551 O 238.813 1.90997 -0.435535 0
M  V30 2552 H 237.393 0.0593966 -0.744635 0
M  V30 2553 H 240.055 -0.558073 -1.86739 0
M  V30 2554 H 239.151 0.341369 -3.10227 0
M  V30 2555 N 239.452 1.56882 -0.150215 0
M  V30 2556 C 240.415 2.1573 0.774157 0
M  V30 2557 C 241.415 1.0999 1.17298 0
M  V30 2558 O 242.605 1.35613 1.09338 0
M  V30 2559 C 239.737 2.72302 2.05096 0
M  V30 2560 H 240.93 2.98752 0.262201 0
M  V30 2561 H 238.483 1.55985 0.099248 0
M  V30 2562 H 239.218 1.92956 2.6065 0
M  V30 2563 H 239.003 3.49665 1.77416 0
M  V30 2564 H 240.493 3.17632 2.71109 0
M  V30 2565 N 240.93 -0.123565 1.57115 0
M  V30 2566 C 241.878 -1.17082 2.00984 0
M  V30 2567 C 242.872 -1.43136 0.906009 0
M  V30 2568 O 244.078 -1.43152 1.09121 0
M  V30 2569 H 240.453 -0.394653 0.64012 0
M  V30 2570 H 242.424 -0.774292 2.88179 0
M  V30 2571 C 241.173 -2.49057 2.42623 0
M  V30 2572 H 240.496 -2.29846 3.27125 0
M  V30 2573 H 241.936 -3.20906 2.7712 0
M  V30 2574 C 240.395 -3.11305 1.28805 0
M  V30 2575 O 240.925 -3.97171 0.60153 0
M  V30 2576 N 239.131 -2.71111 1.04628 0
M  V30 2577 H 238.678 -2.01382 1.60634 0
M  V30 2578 H 238.636 -3.1309 0.286685 0
M  V30 2579 N 242.408 -1.52605 -0.393616 0
M  V30 2580 C 243.341 -1.71798 -1.50202 0
M  V30 2581 C 244.319 -0.565743 -1.52441 0
M  V30 2582 O 245.503 -0.794987 -1.70916 0
M  V30 2583 C 242.63 -1.7714 -2.88685 0
M  V30 2584 C 241.676 -2.98845 -3.04292 0
M  V30 2585 S 242.509 -4.58909 -2.75976 0
M  V30 2586 C 243.665 -4.6706 -4.1666 0
M  V30 2587 H 243.898 -2.65542 -1.33696 0
M  V30 2588 H 241.431 -1.42839 -0.586195 0
M  V30 2589 H 243.389 -1.80903 -3.68489 0
M  V30 2590 H 242.05 -0.844969 -3.02521 0
M  V30 2591 H 241.243 -2.99111 -4.05646 0
M  V30 2592 H 240.845 -2.9305 -2.32374 0
M  V30 2593 H 243.137 -4.45391 -5.10523 0
M  V30 2594 H 244.08 -5.6905 -4.21412 0
M  V30 2595 H 244.488 -3.95944 -4.02354 0
M  V30 2596 N 243.887 0.651787 -1.4349 0
M  V30 2597 C 244.85 1.74647 -1.48429 0
M  V30 2598 C 245.85 1.56513 -0.368817 0
M  V30 2599 O 247.04 1.62385 -0.630623 0
M  V30 2600 C 244.172 3.13533 -1.33827 0
M  V30 2601 H 245.365 1.71649 -2.4592 0
M  V30 2602 H 242.918 0.863573 -1.30277 0
M  V30 2603 H 243.653 3.22142 -0.37349 0
M  V30 2604 H 243.438 3.28101 -2.14691 0
M  V30 2605 H 244.928 3.93356 -1.40218 0
M  V30 2606 N 245.365 1.30045 0.890287 0
M  V30 2607 C 246.312 1.15976 1.99545 0
M  V30 2608 C 247.282 0.0506202 1.66023 0
M  V30 2609 O 248.467 0.219847 1.89529 0
M  V30 2610 C 245.607 0.852054 3.34416 0
M  V30 2611 C 244.72 2.04255 3.80662 0
M  V30 2612 C 243.855 1.6734 5.04154 0
M  V30 2613 C 242.894 2.82916 5.42794 0
M  V30 2614 N 242.031 2.46333 6.57468 0
M  V30 2615 H 246.871 2.10524 2.10911 0
M  V30 2616 H 244.408 1.04749 1.03276 0
M  V30 2617 H 246.366 0.654296 4.12037 0
M  V30 2618 H 244.996 -0.0565502 3.2275 0
M  V30 2619 H 244.048 2.35172 2.98995 0
M  V30 2620 H 245.36 2.90826 4.05242 0
M  V30 2621 H 244.514 1.43908 5.89386 0
M  V30 2622 H 243.253 0.779308 4.81433 0
M  V30 2623 H 242.258 3.0702 4.56091 0
M  V30 2624 H 243.483 3.73004 5.6749 0
M  V30 2625 H 241.429 1.59423 6.36334 0
M  V30 2626 H 241.346 3.26436 6.81891 0
M  V30 2627 H 242.614 2.26244 7.45945 0
M  V30 2628 N 246.843 -1.10192 1.12674 0
M  V30 2629 C 247.775 -2.16418 0.754701 0
M  V30 2630 C 248.788 -1.61309 -0.21986 0
M  V30 2631 O 249.977 -1.785 -0.000826841 0
M  V30 2632 C 247.077 -3.38762 0.096698 0
M  V30 2633 C 246.25 -4.23307 1.10136 0
M  V30 2634 C 245.309 -5.24092 0.470513 0
M  V30 2635 O 244.335 -5.57906 1.12824 0
M  V30 2636 N 245.537 -5.75491 -0.760948 0
M  V30 2637 H 248.302 -2.48943 1.66875 0
M  V30 2638 H 245.863 -1.25834 1.01869 0
M  V30 2639 H 247.855 -4.03291 -0.337384 0
M  V30 2640 H 246.425 -3.04192 -0.720153 0
M  V30 2641 H 245.645 -3.55036 1.71299 0
M  V30 2642 H 246.933 -4.76624 1.78064 0
M  V30 2643 H 246.331 -5.50222 -1.31424 0
M  V30 2644 H 244.888 -6.41792 -1.13781 0
M  V30 2645 N 248.321 -0.919034 -1.28029 0
M  V30 2646 C 249.57 -0.550802 -1.94034 0
M  V30 2647 C 249.883 0.910877 -1.73096 0
M  V30 2648 O 251.089 1.3875 -2.33368 0
M  V30 2649 C 249.545 -0.934249 -3.47563 0
M  V30 2650 C 249.153 -2.41602 -3.7727 0
M  V30 2651 C 250.897 -0.636854 -4.19696 0
M  V30 2652 C 248.804 -2.73932 -5.24133 0
M  V30 2653 H 247.734 -0.202273 -0.726362 0
M  V30 2654 H 250.385 -1.11867 -1.45458 0
M  V30 2655 H 248.767 -0.295115 -3.94899 0
M  V30 2656 H 249.941 -3.10233 -3.40723 0
M  V30 2657 H 248.256 -2.68441 -3.18321 0
M  V30 2658 H 250.853 -0.855005 -5.2782 0
M  V30 2659 H 251.196 0.425575 -4.14119 0
M  V30 2660 H 251.729 -1.23469 -3.78154 0
M  V30 2661 H 248.468 -3.79049 -5.34792 0
M  V30 2662 H 247.988 -2.09942 -5.61858 0
M  V30 2663 H 249.667 -2.61215 -5.91925 0
M  V30 2664 N 249.799 1.42003 -0.683588 0
M  V30 2665 C 251.047 2.01015 -0.209101 0
M  V30 2666 C 251.368 1.54365 1.19149 0
M  V30 2667 O 250.638 0.769083 1.80172 0
M  V30 2668 H 249.218 0.743294 -0.074315 0
M  V30 2669 H 251.88 1.73798 -0.882066 0
M  V30 2670 H 250.976 3.11343 -0.2172 0
M  V30 2671 N 251.277 0.427512 1.51691 0
M  V30 2672 C 252.24 -0.377132 2.26076 0
M  V30 2673 C 253.24 -0.958089 1.29141 0
M  V30 2674 O 254.43 -0.83408 1.52934 0
M  V30 2675 C 251.562 -1.53262 3.04506 0
M  V30 2676 H 252.755 0.27464 2.9864 0
M  V30 2677 H 250.308 0.180445 1.55255 0
M  V30 2678 H 251.043 -2.22072 2.36335 0
M  V30 2679 H 250.828 -1.12232 3.75694 0
M  V30 2680 H 252.318 -2.10135 3.60878 0
M  V30 2681 N 252.755 -1.56801 0.158532 0
M  V30 2682 C 253.718 -2.16138 -0.762705 0
M  V30 2683 C 254.718 -1.1061 -1.16713 0
M  V30 2684 O 255.908 -1.36191 -1.08617 0
M  V30 2685 C 253.04 -2.73386 -2.03649 0
M  V30 2686 H 254.233 -2.98886 -0.246354 0
M  V30 2687 H 251.786 -1.56035 -0.0909744 0
M  V30 2688 H 252.521 -1.94335 -2.59623 0
M  V30 2689 H 252.306 -3.50601 -1.75559 0
M  V30 2690 H 253.796 -3.19065 -2.6942 0
M  V30 2691 N 254.233 0.115231 -1.57178 0
M  V30 2692 C 255.461 0.836437 -1.89239 0
M  V30 2693 C 255.876 1.73256 -0.750175 0
M  V30 2694 O 255.233 1.80357 0.278832 0
M  V30 2695 C 255.284 1.66671 -3.20785 0
M  V30 2696 O 255.005 0.806652 -4.3061 0
M  V30 2697 C 256.506 2.49274 -3.66575 0
M  V30 2698 H 253.726 0.240253 -0.626514 0
M  V30 2699 H 256.27 0.0984932 -2.04263 0
M  V30 2700 H 254.425 2.35737 -3.0742 0
M  V30 2701 H 254.839 1.37969 -5.06028 0
M  V30 2702 H 256.313 3.03055 -4.6137 0
M  V30 2703 H 256.79 3.26807 -2.93417 0
M  V30 2704 H 257.396 1.85443 -3.82741 0
M  V30 2705 N 255.711 1.52812 0.385517 0
M  V30 2706 C 256.941 1.71658 1.14966 0
M  V30 2707 C 257.349 0.436253 1.84102 0
M  V30 2708 O 256.692 -0.599313 1.73649 0
M  V30 2709 C 256.754 2.81309 2.23843 0
M  V30 2710 C 256.418 4.22313 1.74644 0
M  V30 2711 C 257.415 5.05352 1.22129 0
M  V30 2712 C 255.1 4.68648 1.80761 0
M  V30 2713 C 257.094 6.32807 0.763838 0
M  V30 2714 C 254.781 5.96086 1.34627 0
M  V30 2715 C 255.779 6.77996 0.825264 0
M  V30 2716 O 255.467 8.03045 0.370669 0
M  V30 2717 H 255.199 0.578022 0.350523 0
M  V30 2718 H 257.753 2.00263 0.456509 0
M  V30 2719 H 255.983 2.48133 2.96592 0
M  V30 2720 H 257.672 2.88524 2.85497 0
M  V30 2721 H 258.438 4.70736 1.16758 0
M  V30 2722 H 254.317 4.04979 2.20256 0
M  V30 2723 H 257.861 6.96689 0.356494 0
M  V30 2724 H 253.758 6.30205 1.39686 0
M  V30 2725 H 254.526 8.17021 0.491829 0
M  V30 2726 N 257.189 -0.644168 1.43834 0
M  V30 2727 C 258.438 -1.39985 1.45214 0
M  V30 2728 C 258.751 -1.95421 0.0835494 0
M  V30 2729 O 259.957 -2.71488 -0.0251748 0
M  V30 2730 C 258.413 -2.53384 2.55587 0
M  V30 2731 C 258.021 -2.04517 3.98594 0
M  V30 2732 C 259.765 -3.30685 2.66172 0
M  V30 2733 C 257.672 -3.1518 5.00416 0
M  V30 2734 H 256.602 -0.526005 0.540218 0
M  V30 2735 H 259.253 -0.694367 1.69855 0
M  V30 2736 H 257.635 -3.26446 2.24163 0
M  V30 2737 H 258.809 -1.38405 4.39523 0
M  V30 2738 H 257.124 -1.40068 3.92135 0
M  V30 2739 H 259.721 -4.13158 3.39418 0
M  V30 2740 H 260.064 -3.79312 1.71546 0
M  V30 2741 H 260.597 -2.64708 2.96942 0
M  V30 2742 H 257.336 -2.71511 5.96625 0
M  V30 2743 H 256.856 -3.79974 4.64091 0
M  V30 2744 H 258.535 -3.80166 5.23529 0
M  V30 2745 N 258.668 -1.30515 -0.883378 0
M  V30 2746 C 259.578 -1.18959 -2.02203 0
M  V30 2747 C 260.594 -0.109172 -1.73657 0
M  V30 2748 O 261.77 -0.324413 -1.9877 0
M  V30 2749 C 258.835 -0.883871 -3.35244 0
M  V30 2750 C 257.896 -2.04982 -3.77201 0
M  V30 2751 C 257.129 -1.75859 -5.03894 0
M  V30 2752 O 257.352 -0.687276 -5.66244 0
M  V30 2753 O 256.286 -2.61146 -5.42297 0
M  V30 2754 H 260.112 -2.14616 -2.1488 0
M  V30 2755 H 257.697 -1.10124 -1.0096 0
M  V30 2756 H 259.579 -0.728644 -4.15053 0
M  V30 2757 H 258.254 0.0427798 -3.23672 0
M  V30 2758 H 257.161 -2.26038 -2.9809 0
M  V30 2759 H 258.494 -2.95825 -3.93381 0
M  V30 2760 N 260.146 1.09593 -1.13257 0
M  V30 2761 C 261.386 1.83349 -0.903472 0
M  V30 2762 C 261.75 1.83641 0.560351 0
M  V30 2763 O 262.951 2.53037 0.906947 0
M  V30 2764 C 261.222 3.25629 -1.47311 0
M  V30 2765 S 262.781 4.16408 -1.38382 0
M  V30 2766 H 259.599 0.632014 -0.325699 0
M  V30 2767 H 262.201 1.31817 -1.44376 0
M  V30 2768 H 260.905 3.22991 -2.53189 0
M  V30 2769 H 260.436 3.82233 -0.930689 0
M  V30 2770 H 262.451 4.94884 -0.361113 0
M  V30 2771 N 261.624 0.925811 1.2754 0
M  V30 2772 C 262.849 0.580924 1.99098 0
M  V30 2773 C 263.274 -0.833555 1.68622 0
M  V30 2774 O 262.632 -1.55903 0.925422 0
M  V30 2775 C 262.68 0.811186 3.51358 0
M  V30 2776 O 261.784 -0.124129 4.12213 0
M  V30 2777 H 261.125 0.223873 0.625122 0
M  V30 2778 H 263.655 1.24455 1.62395 0
M  V30 2779 H 263.665 0.72601 4.01489 0
M  V30 2780 H 262.34 1.84227 3.72872 0
M  V30 2781 H 260.917 0.0108006 3.72898 0
M  V30 2782 N 263.102 -1.41638 0.69111 0
M  V30 2783 C 264.065 -2.29178 0.0319786 0
M  V30 2784 C 265.065 -1.44153 -0.712496 0
M  V30 2785 O 266.255 -1.65354 -0.548053 0
M  V30 2786 C 263.387 -3.26952 -0.965161 0
M  V30 2787 H 264.58 -2.88959 0.802681 0
M  V30 2788 H 262.133 -1.4955 0.454356 0
M  V30 2789 H 262.868 -2.72142 -1.76378 0
M  V30 2790 H 262.653 -3.89685 -0.434522 0
M  V30 2791 H 264.143 -3.92561 -1.42428 0
M  V30 2792 N 264.58 -0.43555 -1.51462 0
M  V30 2793 C 265.51 0.367376 -2.30592 0
M  V30 2794 C 266.491 1.02263 -1.35928 0
M  V30 2795 O 267.676 1.02661 -1.64847 0
M  V30 2796 C 264.806 1.46983 -3.14664 0
M  V30 2797 C 263.76 0.938161 -4.17591 0
M  V30 2798 C 263.086 2.13622 -4.90173 0
M  V30 2799 C 264.386 -0.0261621 -5.22293 0
M  V30 2800 H 266.08 -0.292969 -2.97963 0
M  V30 2801 H 263.626 -0.14234 -1.43295 0
M  V30 2802 H 265.579 2.03873 -3.688 0
M  V30 2803 H 264.303 2.15843 -2.4511 0
M  V30 2804 H 262.962 0.391481 -3.64504 0
M  V30 2805 H 262.61 2.81098 -4.17124 0
M  V30 2806 H 262.31 1.78688 -5.59772 0
M  V30 2807 H 263.834 2.7107 -5.47132 0
M  V30 2808 H 265.248 0.452384 -5.71512 0
M  V30 2809 H 263.645 -0.287992 -5.99409 0
M  V30 2810 H 264.715 -0.963391 -4.75233 0
M  V30 2811 N 266.058 1.56714 -0.166846 0
M  V30 2812 C 266.99 2.14914 0.796537 0
M  V30 2813 C 268.003 1.10357 1.19688 0
M  V30 2814 O 269.192 1.37561 1.13751 0
M  V30 2815 C 266.292 2.67326 2.08303 0
M  V30 2816 C 265.465 3.96493 1.84696 0
M  V30 2817 C 264.524 4.34014 2.97521 0
M  V30 2818 O 263.55 5.01973 2.6835 0
M  V30 2819 N 264.752 3.95208 4.25196 0
M  V30 2820 H 267.517 2.98205 0.299006 0
M  V30 2821 H 265.078 1.61892 0.0160839 0
M  V30 2822 H 267.07 2.89428 2.82867 0
M  V30 2823 H 265.64 1.88649 2.4926 0
M  V30 2824 H 264.86 3.82814 0.940602 0
M  V30 2825 H 266.148 4.8086 1.66285 0
M  V30 2826 H 265.546 3.40487 4.51758 0
M  V30 2827 H 264.103 4.2232 4.96477 0
M  V30 2828 N 267.536 -0.106894 1.57237 0
M  V30 2829 C 268.761 -0.830287 1.90055 0
M  V30 2830 C 269.186 -1.72064 0.75998 0
M  V30 2831 O 268.544 -1.78982 -0.288991 0
M  V30 2832 C 268.592 -1.6295 3.21683 0
M  V30 2833 O 267.696 -2.73748 3.08441 0
M  V30 2834 H 267.037 -0.228855 0.623315 0
M  V30 2835 H 269.567 -0.085658 2.04421 0
M  V30 2836 H 269.577 -2.01621 3.54701 0
M  V30 2837 H 268.252 -0.975989 4.04286 0
M  V30 2838 H 266.829 -2.38192 2.86913 0
M  V30 2839 N 269.014 -1.53014 -0.377408 0
M  V30 2840 C 269.924 -1.81557 -1.48574 0
M  V30 2841 C 270.94 -0.703102 -1.59162 0
M  V30 2842 O 272.116 -0.99192 -1.75279 0
M  V30 2843 C 269.181 -1.9889 -2.83978 0
M  V30 2844 C 268.242 -3.22801 -2.83016 0
M  V30 2845 C 267.475 -3.39298 -4.11962 0
M  V30 2846 O 267.698 -2.60345 -5.0752 0
M  V30 2847 O 266.632 -4.32604 -4.18494 0
M  V30 2848 H 270.458 -2.75695 -1.27382 0
M  V30 2849 H 268.043 -1.38248 -0.566373 0
M  V30 2850 H 269.925 -2.11931 -3.6423 0
M  V30 2851 H 268.6 -1.07942 -3.05172 0
M  V30 2852 H 267.507 -3.15193 -2.01505 0
M  V30 2853 H 268.84 -4.13632 -2.66775 0
M  V30 2854 N 270.492 0.636531 -1.44174 0
M  V30 2855 C 271.44 1.76995 -1.50915 0
M  V30 2856 C 272.434 1.65053 -0.381295 0
M  V30 2857 O 273.64 1.71197 -0.55601 0
M  V30 2858 H 270.015 0.584247 -0.473455 0
M  V30 2859 H 271.986 1.68432 -2.4632 0
M  V30 2860 C 270.735 3.15314 -1.46534 0
M  V30 2861 H 270.058 3.25149 -2.32633 0
M  V30 2862 H 271.498 3.9453 -1.55312 0
M  V30 2863 C 269.957 3.3639 -0.185305 0
M  V30 2864 O 270.487 3.94699 0.746688 0
M  V30 2865 N 268.693 2.9046 -0.0901606 0
M  V30 2866 H 268.24 2.43193 -0.849416 0
M  V30 2867 H 268.198 3.04937 0.765553 0
M  V30 2868 N 271.97 1.30982 0.876444 0
M  V30 2869 C 273.195 1.23373 1.66715 0
M  V30 2870 C 273.62 -0.19885 1.87046 0
M  V30 2871 O 272.978 -1.1427 1.40756 0
M  V30 2872 C 273.026 1.97644 3.01611 0
M  V30 2873 O 272.13 1.30935 3.91062 0
M  V30 2874 H 271.471 0.426279 0.509099 0
M  V30 2875 H 274.001 1.72944 1.09323 0
M  V30 2876 H 274.011 2.06992 3.51594 0
M  V30 2877 H 272.686 3.01829 2.86133 0
M  V30 2878 H 271.263 1.29996 3.49507 0
M  V30 2879 N 273.449 -1.08991 1.13837 0
M  V30 2880 C 274.695 -1.81526 0.90422 0
M  V30 2881 C 275.028 -1.85706 -0.568066 0
M  V30 2882 O 274.303 -1.32855 -1.42056 0
M  V30 2883 C 274.586 -3.27447 1.49835 0
M  V30 2884 C 274.439 -3.31512 3.04006 0
M  V30 2885 C 275.758 -4.24256 1.17025 0
M  V30 2886 H 272.877 -0.659029 0.329923 0
M  V30 2887 H 275.519 -1.27644 1.40737 0
M  V30 2888 H 273.669 -3.73462 1.07044 0
M  V30 2889 H 275.341 -2.93867 3.55584 0
M  V30 2890 H 273.584 -2.70963 3.38765 0
M  V30 2891 H 274.255 -4.34329 3.40679 0
M  V30 2892 H 276.731 -3.86549 1.54009 0
M  V30 2893 H 275.607 -5.24684 1.61237 0
M  V30 2894 H 275.868 -4.42019 0.0846274 0
M  V30 2895 N 274.927 -0.932562 -1.27047 0
M  V30 2896 C 276.343 -0.633544 -1.46487 0
M  V30 2897 C 276.543 0.815746 -1.84249 0
M  V30 2898 O 275.599 1.59319 -1.95892 0
M  V30 2899 C 276.912 -1.58758 -2.55375 0
M  V30 2900 C 278.46 -1.59634 -2.69232 0
M  V30 2901 C 278.935 -2.53747 -3.81283 0
M  V30 2902 N 280.426 -2.51982 -3.88664 0
M  V30 2903 C 281.161 -3.21491 -4.74796 0
M  V30 2904 N 280.657 -4.00395 -5.65381 0
M  V30 2905 N 282.45 -3.10485 -4.68568 0
M  V30 2906 H 274.601 -1.86946 -1.00821 0
M  V30 2907 H 276.864 -0.802897 -0.504044 0
M  V30 2908 H 276.57 -2.62172 -2.34432 0
M  V30 2909 H 276.444 -1.33301 -3.52861 0
M  V30 2910 H 278.831 -0.569488 -2.89553 0
M  V30 2911 H 278.912 -1.89142 -1.72218 0
M  V30 2912 H 278.556 -3.56545 -3.61715 0
M  V30 2913 H 278.486 -2.21532 -4.77735 0
M  V30 2914 H 280.977 -1.94681 -3.23895 0
M  V30 2915 H 281.29 -4.50406 -6.27976 0
M  V30 2916 H 279.635 -4.04498 -5.65161 0
M  V30 2917 H 282.826 -2.48331 -3.96799 0
M  V30 2918 H 282.999 -3.64925 -5.35475 0
M  V30 2919 N 276.405 1.4127 -0.698611 0
M  V30 2920 C 277.682 1.94955 -0.158762 0
M  V30 2921 C 278.062 1.63781 1.33188 0
M  V30 2922 O 277.41 0.946423 2.07979 0
M  V30 2923 C 277.62 3.46044 -0.453309 0
M  V30 2924 C 278.968 4.22872 -0.382707 0
M  V30 2925 O 279.992 3.54076 -0.388396 0
M  V30 2926 O 278.851 5.45407 -0.345463 0
M  V30 2927 H 275.945 0.82683 -0.0167505 0
M  V30 2928 H 278.491 1.50971 -0.77498 0
M  V30 2929 H 277.263 3.62028 -1.48498 0
M  V30 2930 H 276.886 3.97128 0.19373 0
M  V30 2931 N 277.883 0.443576 1.51229 0
M  V30 2932 C 279.132 -0.122332 2.01329 0
M  V30 2933 C 279.445 -1.43237 1.33201 0
M  V30 2934 O 280.651 -2.0816 1.74304 0
M  V30 2935 C 279.107 -0.268551 3.58897 0
M  V30 2936 C 278.715 1.03142 4.35965 0
M  V30 2937 C 280.459 -0.787894 4.17124 0
M  V30 2938 C 278.366 0.850504 5.85252 0
M  V30 2939 H 277.296 -0.0494929 0.752374 0
M  V30 2940 H 279.947 0.574289 1.74282 0
M  V30 2941 H 278.329 -1.02832 3.82415 0
M  V30 2942 H 279.503 1.80001 4.24189 0
M  V30 2943 H 277.818 1.47977 3.89219 0
M  V30 2944 H 280.415 -0.939841 5.26375 0
M  V30 2945 H 280.758 -1.77201 3.76703 0
M  V30 2946 H 281.291 -0.0862669 3.97706 0
M  V30 2947 H 278.03 1.80718 6.30096 0
M  V30 2948 H 277.55 0.121825 5.99676 0
M  V30 2949 H 279.229 0.506163 6.45017 0
M  V30 2950 N 279.361 -1.56624 0.175154 0
M  V30 2951 C 280.608 -1.96999 -0.468811 0
M  V30 2952 C 280.936 -1.06129 -1.62994 0
M  V30 2953 O 280.191 -0.0961771 -1.95464 0
M  V30 2954 C 280.49 -3.43419 -0.989864 0
M  V30 2955 C 280.156 -4.50866 0.0557687 0
M  V30 2956 C 278.818 -4.79975 0.343134 0
M  V30 2957 C 281.17 -5.15551 0.765308 0
M  V30 2958 C 278.498 -5.71066 1.34536 0
M  V30 2959 C 280.85 -6.07724 1.75654 0
M  V30 2960 C 279.514 -6.35199 2.05132 0
M  V30 2961 H 278.784 -0.720869 -0.17155 0
M  V30 2962 H 281.431 -1.89616 0.267924 0
M  V30 2963 H 279.736 -3.47772 -1.80449 0
M  V30 2964 H 281.433 -3.72002 -1.49719 0
M  V30 2965 H 278.023 -4.28229 -0.178381 0
M  V30 2966 H 282.207 -4.9317 0.556513 0
M  V30 2967 H 277.463 -5.90635 1.57988 0
M  V30 2968 H 281.637 -6.56912 2.31169 0
M  V30 2969 H 279.264 -7.05584 2.8294 0
M  V30 2970 N 280.839 0.0985539 -1.57292 0
M  V30 2971 C 281.789 1.1261 -1.9825 0
M  V30 2972 C 282.773 1.35961 -0.860426 0
M  V30 2973 O 283.965 1.36711 -1.12424 0
M  V30 2974 C 281.094 2.44727 -2.40757 0
M  V30 2975 C 280.18 2.24764 -3.59642 0
M  V30 2976 N 280.571 1.74661 -4.74687 0
M  V30 2977 C 278.869 2.55344 -3.65672 0
M  V30 2978 C 279.57 1.68887 -5.56644 0
M  V30 2979 N 278.546 2.13976 -4.99715 0
M  V30 2980 H 282.348 0.731604 -2.84648 0
M  V30 2981 H 279.862 0.306029 -1.59491 0
M  V30 2982 H 281.859 3.19072 -2.68326 0
M  V30 2983 H 280.519 2.84917 -1.55733 0
M  V30 2984 H 281.53 1.43908 -4.97505 0
M  V30 2985 H 278.207 2.99081 -2.91302 0
M  V30 2986 H 279.597 1.3123 -6.5896 0
M  V30 2987 N 282.317 1.53212 0.369288 0
M  V30 2988 C 283.563 1.69466 1.11397 0
M  V30 2989 C 283.896 0.443257 1.89074 0
M  V30 2990 O 283.171 -0.559386 1.86282 0
M  V30 2991 C 283.454 2.9422 2.07621 0
M  V30 2992 C 283.307 4.29508 1.33577 0
M  V30 2993 C 284.626 3.14565 3.07794 0
M  V30 2994 H 281.745 0.616667 0.403597 0
M  V30 2995 H 284.387 1.85845 0.395179 0
M  V30 2996 H 282.537 2.80387 2.68916 0
M  V30 2997 H 284.209 4.55147 0.750955 0
M  V30 2998 H 282.452 4.29088 0.637618 0
M  V30 2999 H 283.123 5.12926 2.03989 0
M  V30 3000 H 285.599 3.2756 2.56601 0
M  V30 3001 H 284.475 4.03297 3.72348 0
M  V30 3002 H 284.736 2.29675 3.77759 0
M  V30 3003 N 283.795 -0.628877 1.44509 0
M  V30 3004 C 284.758 -1.72263 1.51188 0
M  V30 3005 C 285.758 -1.55907 0.39367 0
M  V30 3006 O 286.948 -1.61361 0.656377 0
M  V30 3007 C 284.08 -3.11365 1.38798 0
M  V30 3008 H 285.273 -1.67714 2.4862 0
M  V30 3009 H 282.826 -0.842737 1.31634 0
M  V30 3010 H 283.561 -3.21507 0.424693 0
M  V30 3011 H 283.346 -3.24644 2.19884 0
M  V30 3012 H 284.836 -3.91075 1.46458 0
M  V30 3013 N 285.273 -1.31445 -0.869486 0
M  V30 3014 C 286.501 -1.24122 -1.65534 0
M  V30 3015 C 286.916 0.193387 -1.87807 0
M  V30 3016 O 286.273 1.12557 -1.43656 0
M  V30 3017 C 286.324 -1.98229 -3.02304 0
M  V30 3018 O 286.045 -3.3609 -2.81026 0
M  V30 3019 C 287.546 -1.97751 -3.96749 0
M  V30 3020 H 284.766 -0.428868 -0.516055 0
M  V30 3021 H 287.31 -1.73328 -1.08525 0
M  V30 3022 H 285.465 -1.52782 -3.56001 0
M  V30 3023 H 285.879 -3.7383 -3.67902 0
M  V30 3024 H 287.353 -2.54114 -4.90031 0
M  V30 3025 H 287.83 -0.960137 -4.28577 0
M  V30 3026 H 288.436 -2.43079 -3.48988 0
M  V30 3027 N 286.751 1.08385 -1.14413 0
M  V30 3028 C 287.681 2.17321 -0.854044 0
M  V30 3029 C 288.662 1.69024 0.191049 0
M  V30 3030 O 289.847 1.94141 0.0476779 0
M  V30 3031 C 286.977 3.45719 -0.330983 0
M  V30 3032 C 285.931 4.07409 -1.31155 0
M  V30 3033 C 285.257 5.30762 -0.64778 0
M  V30 3034 C 286.557 4.48665 -2.67388 0
M  V30 3035 H 288.251 2.41845 -1.76498 0
M  V30 3036 H 285.797 1.16233 -0.850051 0
M  V30 3037 H 287.75 4.21241 -0.115645 0
M  V30 3038 H 286.474 3.2075 0.615381 0
M  V30 3039 H 285.133 3.33919 -1.51306 0
M  V30 3040 H 284.781 5.02078 0.304398 0
M  V30 3041 H 284.481 5.72992 -1.30207 0
M  V30 3042 H 286.005 6.08998 -0.441972 0
M  V30 3043 H 287.419 5.15364 -2.51143 0
M  V30 3044 H 285.816 5.01814 -3.29093 0
M  V30 3045 H 286.886 3.60543 -3.24248 0
M  V30 3046 N 288.23 0.939286 1.26551 0
M  V30 3047 C 289.193 0.451987 2.24699 0
M  V30 3048 C 290.193 -0.435869 1.5478 0
M  V30 3049 O 291.383 -0.235314 1.72603 0
M  V30 3050 C 288.515 -0.348801 3.39111 0
M  V30 3051 H 289.708 1.3193 2.69322 0
M  V30 3052 H 287.261 0.721072 1.38673 0
M  V30 3053 H 287.996 -1.23444 2.99887 0
M  V30 3054 H 287.781 0.287945 3.91041 0
M  V30 3055 H 289.271 -0.679726 4.12031 0
M  V30 3056 N 289.708 -1.40897 0.706093 0
M  V30 3057 C 290.948 -2.02916 0.245827 0
M  V30 3058 C 291.312 -1.54751 -1.13649 0
M  V30 3059 O 292.513 -2.08768 -1.69321 0
M  V30 3060 C 290.784 -3.56031 0.312537 0
M  V30 3061 S 292.343 -4.38741 -0.0721388 0
M  V30 3062 H 289.161 -0.704186 0.0982007 0
M  V30 3063 H 291.763 -1.72168 0.926207 0
M  V30 3064 H 290.467 -3.88579 1.32039 0
M  V30 3065 H 289.998 -3.91495 -0.386641 0
M  V30 3066 H 292.013 -4.78952 -1.29692 0
M  V30 3067 N 291.186 -0.45159 -1.50991 0
M  V30 3068 C 292.432 0.110237 -2.025 0
M  V30 3069 C 292.765 1.41109 -1.33424 0
M  V30 3070 O 292.04 1.89135 -0.453659 0
M  V30 3071 C 292.323 0.314271 -3.58726 0
M  V30 3072 C 292.176 -1.00623 -4.38401 0
M  V30 3073 C 293.495 1.07767 -4.26702 0
M  V30 3074 H 290.614 0.0385897 -0.735989 0
M  V30 3075 H 293.256 -0.593374 -1.80497 0
M  V30 3076 H 291.406 0.913601 -3.77605 0
M  V30 3077 H 293.078 -1.64064 -4.31139 0
M  V30 3078 H 291.321 -1.6075 -4.02917 0
M  V30 3079 H 291.992 -0.817341 -5.45915 0
M  V30 3080 H 294.468 0.56986 -4.12179 0
M  V30 3081 H 293.344 1.18921 -5.35863 0
M  V30 3082 H 293.605 2.10939 -3.88532 0
M  V30 3083 N 292.664 1.56529 -0.183458 0
M  V30 3084 C 293.612 2.19873 0.758845 0
M  V30 3085 C 294.606 1.16638 1.22849 0
M  V30 3086 O 295.812 1.3481 1.19274 0
M  V30 3087 H 292.187 0.7045 0.263029 0
M  V30 3088 H 294.158 2.97724 0.200755 0
M  V30 3089 C 292.907 2.86314 1.9728 0
M  V30 3090 H 292.23 3.65487 1.62047 0
M  V30 3091 H 293.67 3.3409 2.61075 0
M  V30 3092 C 292.129 1.86729 2.80418 0
M  V30 3093 O 292.659 1.36031 3.77966 0
M  V30 3094 N 290.865 1.55216 2.45675 0
M  V30 3095 H 290.412 1.96636 1.66409 0
M  V30 3096 H 290.37 0.888388 3.01588 0
M  V30 3097 N 294.142 -0.090211 1.57342 0
M  V30 3098 C 295.089 -1.10909 2.02405 0
M  V30 3099 C 296.059 -1.39523 0.901252 0
M  V30 3100 O 297.244 -1.50903 1.1676 0
M  V30 3101 C 294.384 -2.42277 2.45755 0
M  V30 3102 C 293.497 -2.20352 3.71576 0
M  V30 3103 C 292.632 -3.45154 4.03785 0
M  V30 3104 C 291.671 -3.18512 5.22701 0
M  V30 3105 N 290.808 -4.35593 5.50639 0
M  V30 3106 H 295.648 -0.71782 2.89225 0
M  V30 3107 H 293.185 -0.342901 1.43048 0
M  V30 3108 H 295.143 -3.18951 2.68935 0
M  V30 3109 H 293.773 -2.79242 1.61938 0
M  V30 3110 H 292.825 -1.34458 3.55844 0
M  V30 3111 H 294.137 -1.96661 4.58395 0
M  V30 3112 H 293.291 -4.30233 4.27767 0
M  V30 3113 H 292.03 -3.71904 3.15498 0
M  V30 3114 H 291.035 -2.31827 4.98534 0
M  V30 3115 H 292.26 -2.93103 6.12591 0
M  V30 3116 H 290.206 -4.6241 4.6531 0
M  V30 3117 H 290.123 -4.1511 6.31838 0
M  V30 3118 H 291.391 -5.21723 5.7916 0
M  V30 3119 N 295.62 -1.53406 -0.361157 0
M  V30 3120 C 296.848 -1.73717 -1.12383 0
M  V30 3121 C 297.263 -0.468161 -1.82904 0
M  V30 3122 O 296.62 0.559198 -1.73722 0
M  V30 3123 C 296.671 -2.90558 -2.15078 0
M  V30 3124 O 296.392 -4.12549 -1.47428 0
M  V30 3125 C 297.893 -3.22777 -3.03858 0
M  V30 3126 H 295.113 -0.580896 -0.335858 0
M  V30 3127 H 297.657 -2.00167 -0.418728 0
M  V30 3128 H 295.812 -2.66489 -2.8118 0
M  V30 3129 H 296.226 -4.78009 -2.15887 0
M  V30 3130 H 297.7 -4.07927 -3.71887 0
M  V30 3131 H 298.177 -2.38329 -3.68912 0
M  V30 3132 H 298.783 -3.48787 -2.43367 0
M  V30 3133 N 297.098 0.621204 -1.44841 0
M  V30 3134 C 298.046 1.75385 -1.52784 0
M  V30 3135 C 299.04 1.64639 -0.398779 0
M  V30 3136 O 300.246 1.70598 -0.574137 0
M  V30 3137 H 296.621 0.579193 -0.479625 0
M  V30 3138 H 298.592 1.6581 -2.48092 0
M  V30 3139 C 297.341 3.13742 -1.4987 0
M  V30 3140 H 296.664 3.22663 -2.36069 0
M  V30 3141 H 298.104 3.92861 -1.59487 0
M  V30 3142 C 296.563 3.36175 -0.220973 0
M  V30 3143 O 297.093 3.95469 0.704782 0
M  V30 3144 N 295.299 2.90348 -0.120963 0
M  V30 3145 H 294.846 2.42278 -0.875162 0
M  V30 3146 H 294.804 3.05732 0.733168 0
M  V30 3147 N 298.576 1.31904 0.862503 0
M  V30 3148 C 299.523 1.20182 1.9704 0
M  V30 3149 C 300.493 0.0858247 1.65878 0
M  V30 3150 O 301.678 0.26 1.8902 0
M  V30 3151 C 298.818 0.922797 3.32533 0
M  V30 3152 C 297.931 2.12284 3.76244 0
M  V30 3153 C 297.066 1.77996 5.00491 0
M  V30 3154 C 296.105 2.94366 5.36671 0
M  V30 3155 N 295.242 2.60223 6.52095 0
M  V30 3156 H 300.082 2.14951 2.06398 0
M  V30 3157 H 297.619 1.06917 1.01031 0
M  V30 3158 H 299.577 0.741548 4.10557 0
M  V30 3159 H 298.207 0.0119227 3.22798 0
M  V30 3160 H 297.259 2.41461 2.9394 0
M  V30 3161 H 298.571 2.99357 3.98982 0
M  V30 3162 H 297.725 1.56377 5.862 0
M  V30 3163 H 296.464 0.881252 4.79672 0
M  V30 3164 H 295.469 3.16625 4.49476 0
M  V30 3165 H 296.694 3.84957 5.59451 0
M  V30 3166 H 294.64 1.72884 6.32809 0
M  V30 3167 H 294.557 3.40827 6.74814 0
M  V30 3168 H 295.825 2.42016 7.40978 0
M  V30 3169 N 300.054 -1.07777 1.14986 0
M  V30 3170 C 301.002 -2.16964 0.838406 0
M  V30 3171 C 301.996 -1.68372 -0.186386 0
M  V30 3172 O 303.202 -1.79951 -0.0418465 0
M  V30 3173 H 299.577 -0.708006 0.253439 0
M  V30 3174 H 301.548 -2.40454 1.76704 0
M  V30 3175 C 300.297 -3.4604 0.339335 0
M  V30 3176 H 299.62 -3.83813 1.11927 0
M  V30 3177 H 301.06 -4.23698 0.160021 0
M  V30 3178 C 299.519 -3.23569 -0.938325 0
M  V30 3179 O 300.049 -3.47752 -2.01077 0
M  V30 3180 N 298.255 -2.77079 -0.876117 0
M  V30 3181 H 297.802 -2.576 -0.00322037 0
M  V30 3182 H 297.76 -2.62422 -1.73153 0
M  V30 3183 N 301.532 -0.945985 -1.26051 0
M  V30 3184 C 302.778 -0.597002 -1.93814 0
M  V30 3185 C 303.111 0.862484 -1.73997 0
M  V30 3186 O 302.386 1.61769 -1.07986 0
M  V30 3187 C 302.669 -0.945937 -3.47454 0
M  V30 3188 C 302.522 -2.46052 -3.76535 0
M  V30 3189 C 303.841 -0.464785 -4.37639 0
M  V30 3190 H 300.96 -0.218366 -0.703907 0
M  V30 3191 H 303.602 -1.18107 -1.48831 0
M  V30 3192 H 301.752 -0.448902 -3.85898 0
M  V30 3193 H 303.424 -3.03065 -3.47778 0
M  V30 3194 H 301.667 -2.90194 -3.22444 0
M  V30 3195 H 302.338 -2.65517 -4.83947 0
M  V30 3196 H 304.814 -0.891016 -4.06448 0
M  V30 3197 H 303.69 -0.737712 -5.4392 0
M  V30 3198 H 303.951 0.635274 -4.37512 0
M  V30 3199 N 303.011 1.40521 -0.713556 0
M  V30 3200 C 303.958 2.30723 -0.059684 0
M  V30 3201 C 304.928 1.48079 0.752448 0
M  V30 3202 O 306.113 1.76823 0.71681 0
M  V30 3203 C 303.253 3.34274 0.857594 0
M  V30 3204 C 302.366 4.31986 0.0351536 0
M  V30 3205 C 301.501 5.22605 0.951724 0
M  V30 3206 C 300.54 6.11976 0.123253 0
M  V30 3207 N 299.677 6.9502 0.99459 0
M  V30 3208 H 304.517 2.86074 -0.834596 0
M  V30 3209 H 302.054 1.40879 -0.42326 0
M  V30 3210 H 304.012 3.92879 1.40364 0
M  V30 3211 H 302.642 2.8043 1.59871 0
M  V30 3212 H 301.694 3.7518 -0.628052 0
M  V30 3213 H 303.006 4.95101 -0.606347 0
M  V30 3214 H 302.16 5.86131 1.56638 0
M  V30 3215 H 300.899 4.59759 1.62705 0
M  V30 3216 H 299.904 5.47482 -0.50435 0
M  V30 3217 H 301.129 6.76881 -0.548539 0
M  V30 3218 H 299.075 6.34764 1.6556 0
M  V30 3219 H 298.992 7.54892 0.40908 0
M  V30 3220 H 300.26 7.62997 1.59549 0
M  V30 3221 N 304.489 0.459591 1.5075 0
M  V30 3222 C 305.905 0.113092 1.59199 0
M  V30 3223 C 306.105 -1.37951 1.46874 0
M  V30 3224 O 305.161 -2.15168 1.32132 0
M  V30 3225 C 306.474 0.653043 2.93523 0
M  V30 3226 C 308.022 0.615449 3.0689 0
M  V30 3227 C 308.497 1.13275 4.43771 0
M  V30 3228 N 309.988 1.09167 4.50152 0
M  V30 3229 C 310.723 1.46256 5.54434 0
M  V30 3230 N 310.219 1.90739 6.66026 0
M  V30 3231 N 312.012 1.37932 5.44914 0
M  V30 3232 H 304.163 1.43049 1.57005 0
M  V30 3233 H 306.426 0.590861 0.741341 0
M  V30 3234 H 306.132 1.69822 3.07983 0
M  V30 3235 H 306.006 0.0902132 3.77092 0
M  V30 3236 H 308.393 -0.420793 2.92084 0
M  V30 3237 H 308.474 1.21495 2.25106 0
M  V30 3238 H 308.118 2.16757 4.59324 0
M  V30 3239 H 308.048 0.509576 5.24129 0
M  V30 3240 H 310.539 0.76528 3.7007 0
M  V30 3241 H 310.852 2.17218 7.41644 0
M  V30 3242 H 309.197 1.94683 6.67176 0
M  V30 3243 H 312.388 1.0303 4.56621 0
M  V30 3244 H 312.561 1.67164 6.26067 0
M  V30 3245 N 305.967 -1.56429 0.191757 0
M  V30 3246 C 306.915 -2.20273 -0.747174 0
M  V30 3247 C 307.909 -1.17288 -1.22229 0
M  V30 3248 O 309.115 -1.35441 -1.18557 0
M  V30 3249 H 305.49 -0.705885 -0.259289 0
M  V30 3250 H 307.461 -2.97826 -0.184963 0
M  V30 3251 C 306.21 -2.87356 -1.95759 0
M  V30 3252 H 305.533 -3.66341 -1.60106 0
M  V30 3253 H 306.973 -3.3547 -2.59299 0
M  V30 3254 C 305.432 -1.88213 -2.79423 0
M  V30 3255 O 305.962 -1.38033 -3.7724 0
M  V30 3256 N 304.168 -1.56516 -2.44849 0
M  V30 3257 H 303.715 -1.97516 -1.65364 0
M  V30 3258 H 303.673 -0.904369 -3.01112 0
M  V30 3259 N 307.445 0.0818655 -1.57387 0
M  V30 3260 C 308.392 1.09834 -2.0299 0
M  V30 3261 C 309.362 1.39043 -0.908639 0
M  V30 3262 O 310.547 1.50282 -1.17559 0
M  V30 3263 C 307.687 2.40971 -2.47037 0
M  V30 3264 C 306.8 2.18379 -3.7274 0
M  V30 3265 C 305.935 3.43008 -4.0561 0
M  V30 3266 C 304.974 3.15736 -5.24383 0
M  V30 3267 N 304.111 4.32667 -5.52941 0
M  V30 3268 H 308.951 0.702472 -2.89602 0
M  V30 3269 H 306.488 0.33531 -1.43227 0
M  V30 3270 H 308.446 3.1752 -2.70623 0
M  V30 3271 H 307.076 2.78379 -1.63417 0
M  V30 3272 H 306.128 1.32569 -3.56552 0
M  V30 3273 H 307.44 1.94227 -4.59431 0
M  V30 3274 H 306.594 4.27958 -4.30043 0
M  V30 3275 H 305.333 3.70225 -3.17466 0
M  V30 3276 H 304.338 2.2918 -4.99757 0
M  V30 3277 H 305.563 2.8985 -6.14136 0
M  V30 3278 H 303.509 4.59935 -4.67756 0
M  V30 3279 H 303.426 4.11753 -6.34031 0
M  V30 3280 H 304.694 5.18644 -5.81918 0
M  V30 3281 N 308.923 1.53595 0.353017 0
M  V30 3282 C 310.148 1.7462 1.11904 0
M  V30 3283 C 310.573 0.479721 1.8188 0
M  V30 3284 O 309.931 -0.567066 1.72204 0
M  V30 3285 C 309.979 2.92029 2.11545 0
M  V30 3286 O 309.083 2.61516 3.18878 0
M  V30 3287 H 308.424 0.579531 0.324099 0
M  V30 3288 H 310.954 2.00525 0.406301 0
M  V30 3289 H 310.964 3.18551 2.5493 0
M  V30 3290 H 309.639 3.83888 1.60008 0
M  V30 3291 H 308.216 2.45852 2.80377 0
M  V30 3292 N 310.401 -0.613514 1.45168 0
M  V30 3293 C 311.333 -1.73825 1.4939 0
M  V30 3294 C 312.346 -1.58175 0.385304 0
M  V30 3295 O 313.535 -1.66165 0.652036 0
M  V30 3296 C 310.635 -3.11758 1.32891 0
M  V30 3297 C 309.808 -3.53704 2.57317 0
M  V30 3298 C 308.867 -4.70579 2.35462 0
M  V30 3299 O 307.893 -4.77996 3.09044 0
M  V30 3300 N 309.095 -5.63454 1.39644 0
M  V30 3301 H 311.86 -1.70669 2.46358 0
M  V30 3302 H 309.421 -0.79862 1.40832 0
M  V30 3303 H 311.413 -3.87692 1.1609 0
M  V30 3304 H 309.983 -3.09456 0.442218 0
M  V30 3305 H 309.203 -2.67794 2.89275 0
M  V30 3306 H 310.491 -3.78486 3.40038 0
M  V30 3307 H 309.889 -5.6017 0.789062 0
M  V30 3308 H 308.446 -6.38944 1.28816 0
M  V30 3309 N 311.879 -1.3236 -0.855495 0
M  V30 3310 C 313.295 -1.11332 -1.14356 0
M  V30 3311 C 313.495 0.106751 -2.01217 0
M  V30 3312 O 312.551 0.791891 -2.39761 0
M  V30 3313 C 313.864 -2.39237 -1.82171 0
M  V30 3314 C 315.412 -2.44986 -1.9481 0
M  V30 3315 C 315.887 -3.7281 -2.66039 0
M  V30 3316 N 317.378 -3.73787 -2.73565 0
M  V30 3317 C 318.113 -4.69394 -3.29327 0
M  V30 3318 N 317.609 -5.75367 -3.85907 0
M  V30 3319 N 319.402 -4.56893 -3.27423 0
M  V30 3320 H 311.553 -2.10586 -0.277027 0
M  V30 3321 H 313.816 -0.929701 -0.185364 0
M  V30 3322 H 313.522 -3.28431 -1.25802 0
M  V30 3323 H 313.396 -2.50134 -2.82335 0
M  V30 3324 H 315.783 -1.56252 -2.50338 0
M  V30 3325 H 315.864 -2.38043 -0.936448 0
M  V30 3326 H 315.508 -4.61918 -2.11174 0
M  V30 3327 H 315.438 -3.77024 -3.67642 0
M  V30 3328 H 317.929 -2.97189 -2.33424 0
M  V30 3329 H 318.242 -6.44378 -4.26611 0
M  V30 3330 H 316.587 -5.79123 -3.84242 0
M  V30 3331 H 319.778 -3.73269 -2.82467 0
M  V30 3332 H 319.951 -5.31577 -3.7058 0
M  V30 3333 N 313.357 1.07166 -1.15556 0
M  V30 3334 C 314.32 2.12589 -0.856644 0
M  V30 3335 C 315.32 1.6015 0.14444 0
M  V30 3336 O 316.51 1.7399 -0.0854163 0
M  V30 3337 C 313.642 3.39753 -0.279405 0
M  V30 3338 H 314.835 2.40539 -1.79112 0
M  V30 3339 H 312.388 1.23086 -0.963298 0
M  V30 3340 H 313.123 3.17447 0.663174 0
M  V30 3341 H 312.908 3.79117 -1.00063 0
M  V30 3342 H 314.398 4.17507 -0.0879113 0
M  V30 3343 N 314.835 0.952656 1.25548 0
M  V30 3344 C 316.063 0.623496 1.97282 0
M  V30 3345 C 316.478 -0.803987 1.70826 0
M  V30 3346 O 315.835 -1.53755 0.983147 0
M  V30 3347 C 315.886 0.870209 3.5087 0
M  V30 3348 O 315.607 2.24156 3.76412 0
M  V30 3349 C 317.108 0.553164 4.39835 0
M  V30 3350 H 314.328 0.233931 0.628902 0
M  V30 3351 H 316.872 1.27649 1.59768 0
M  V30 3352 H 315.027 0.263652 3.86502 0
M  V30 3353 H 315.441 2.31021 4.70882 0
M  V30 3354 H 316.915 0.776342 5.46513 0
M  V30 3355 H 317.392 -0.512215 4.36203 0
M  V30 3356 H 317.998 1.13896 4.09766 0
M  V30 3357 N 316.313 -1.40141 0.720998 0
M  V30 3358 C 317.26 -2.30688 0.071919 0
M  V30 3359 C 318.23 -1.48476 -0.744584 0
M  V30 3360 O 319.415 -1.77201 -0.707423 0
M  V30 3361 C 316.555 -3.34724 -0.839855 0
M  V30 3362 C 315.668 -4.31998 -0.0122438 0
M  V30 3363 C 314.803 -5.23102 -0.923995 0
M  V30 3364 C 313.842 -6.12033 -0.0907969 0
M  V30 3365 N 312.979 -6.95537 -0.957718 0
M  V30 3366 H 317.819 -2.85628 0.849755 0
M  V30 3367 H 315.356 -1.40653 0.430726 0
M  V30 3368 H 317.314 -3.93618 -1.38279 0
M  V30 3369 H 315.944 -2.81274 -1.58381 0
M  V30 3370 H 314.996 -3.74841 0.64794 0
M  V30 3371 H 316.308 -4.94772 0.632595 0
M  V30 3372 H 315.462 -5.86953 -1.53527 0
M  V30 3373 H 314.201 -4.60615 -1.60264 0
M  V30 3374 H 313.206 -5.47207 0.533377 0
M  V30 3375 H 314.431 -6.76581 0.584428 0
M  V30 3376 H 312.377 -6.35633 -1.62192 0
M  V30 3377 H 312.294 -7.55099 -0.36904 0
M  V30 3378 H 313.562 -7.63832 -1.555 0
M  V30 3379 N 317.792 -0.46758 -1.50504 0
M  V30 3380 C 319.208 -0.121533 -1.59137 0
M  V30 3381 C 319.408 1.3717 -1.47603 0
M  V30 3382 O 318.464 2.14464 -1.33272 0
M  V30 3383 C 319.777 -0.6686 -2.93173 0
M  V30 3384 C 321.325 -0.631716 -3.06559 0
M  V30 3385 C 321.8 -1.15627 -4.43164 0
M  V30 3386 N 323.291 -1.11553 -4.49567 0
M  V30 3387 C 324.026 -1.49195 -5.5365 0
M  V30 3388 N 323.522 -1.94269 -6.65005 0
M  V30 3389 N 325.315 -1.4082 -5.44175 0
M  V30 3390 H 317.466 -1.4388 -1.56245 0
M  V30 3391 H 319.729 -0.594784 -0.738198 0
M  V30 3392 H 319.435 -1.71453 -3.07078 0
M  V30 3393 H 319.309 -0.11021 -3.77039 0
M  V30 3394 H 321.696 0.405297 -2.92304 0
M  V30 3395 H 321.777 -1.22687 -2.24458 0
M  V30 3396 H 321.421 -2.1919 -4.58168 0
M  V30 3397 H 321.351 -0.537365 -5.23851 0
M  V30 3398 H 323.842 -0.784895 -3.69659 0
M  V30 3399 H 324.155 -2.21148 -7.40482 0
M  V30 3400 H 322.5 -1.98219 -6.66134 0
M  V30 3401 H 325.691 -1.0545 -4.56068 0
M  V30 3402 H 325.864 -1.70481 -6.25172 0
M  V30 3403 N 319.27 1.56325 -0.20005 0
M  V30 3404 C 320.519 1.96895 0.437652 0
M  V30 3405 C 320.832 1.08999 1.62415 0
M  V30 3406 O 322.038 1.39372 2.32997 0
M  V30 3407 C 320.494 3.50198 0.830025 0
M  V30 3408 C 320.102 4.46765 -0.332461 0
M  V30 3409 C 321.846 3.99526 1.43453 0
M  V30 3410 C 319.753 5.91344 0.0811468 0
M  V30 3411 H 318.683 0.735209 0.167282 0
M  V30 3412 H 321.334 1.81148 -0.292853 0
M  V30 3413 H 319.716 3.61467 1.61734 0
M  V30 3414 H 320.89 4.47231 -1.11 0
M  V30 3415 H 319.205 4.07657 -0.848789 0
M  V30 3416 H 321.802 5.05025 1.75652 0
M  V30 3417 H 322.145 3.44122 2.34277 0
M  V30 3418 H 322.678 3.91393 0.71109 0
M  V30 3419 H 319.417 6.50685 -0.793033 0
M  V30 3420 H 318.937 5.94121 0.823445 0
M  V30 3421 H 320.616 6.44945 0.515252 0
M  V30 3422 N 320.748 -0.0735177 1.57428 0
M  V30 3423 C 321.973 -0.789787 1.91774 0
M  V30 3424 C 322.398 -1.70413 0.796306 0
M  V30 3425 O 321.756 -1.79555 -0.250961 0
M  V30 3426 C 321.804 -1.5609 3.25067 0
M  V30 3427 O 320.908 -2.67144 3.14178 0
M  V30 3428 H 320.249 -0.215582 0.628029 0
M  V30 3429 H 322.779 -0.0422781 2.04556 0
M  V30 3430 H 322.789 -1.94052 3.58898 0
M  V30 3431 H 321.464 -0.890015 4.06265 0
M  V30 3432 H 320.041 -2.32052 2.91901 0
M  V30 3433 N 322.226 -1.5378 -0.344866 0
M  V30 3434 C 323.176 -1.78057 -1.42407 0
M  V30 3435 C 324.16 -0.635732 -1.47808 0
M  V30 3436 O 325.352 -0.89508 -1.527 0
M  V30 3437 C 322.481 -1.99242 -2.79566 0
M  V30 3438 C 321.567 -3.19787 -2.78562 0
M  V30 3439 N 321.958 -4.41284 -2.47189 0
M  V30 3440 C 320.256 -3.2093 -3.0971 0
M  V30 3441 C 320.957 -5.23128 -2.54385 0
M  V30 3442 N 319.933 -4.59813 -2.89953 0
M  V30 3443 H 323.735 -2.69588 -1.17046 0
M  V30 3444 H 321.249 -1.52687 -0.553217 0
M  V30 3445 H 323.246 -2.14768 -3.57324 0
M  V30 3446 H 321.906 -1.08953 -3.05875 0
M  V30 3447 H 322.917 -4.68657 -2.20411 0
M  V30 3448 H 319.594 -2.40603 -3.41199 0
M  V30 3449 H 320.984 -6.30096 -2.333 0
M  V30 3450 N 323.704 0.605807 -1.45491 0
M  V30 3451 C 324.637 1.73022 -1.48791 0
M  V30 3452 C 325.615 1.58917 -0.344112 0
M  V30 3453 O 326.799 1.80453 -0.544876 0
M  V30 3454 C 323.926 3.10865 -1.34463 0
M  V30 3455 C 322.972 3.43554 -2.5273 0
M  V30 3456 S 323.805 3.38196 -4.15191 0
M  V30 3457 C 324.961 4.78616 -4.03333 0
M  V30 3458 H 325.194 1.69961 -2.43928 0
M  V30 3459 H 322.727 0.782611 -1.33096 0
M  V30 3460 H 324.685 3.90398 -1.26884 0
M  V30 3461 H 323.346 3.1144 -0.40794 0
M  V30 3462 H 322.539 4.43924 -2.38637 0
M  V30 3463 H 322.141 2.71541 -2.5718 0
M  V30 3464 H 324.433 5.68463 -3.68587 0
M  V30 3465 H 325.376 4.97767 -5.03621 0
M  V30 3466 H 325.784 4.54381 -3.34959 0
M  V30 3467 N 325.182 1.32811 0.848464 0
M  V30 3468 C 326.593 1.21315 1.41914 0
M  V30 3469 C 326.944 -0.171847 1.95446 0
M  V30 3470 O 326.069 -1.07093 1.88043 0
M  V30 3471 C 326.664 2.19631 2.57968 0
M  V30 3472 C 325.223 2.12003 3.11017 0
M  V30 3473 C 324.37 2.07651 1.83783 0
M  V30 3474 H 327.321 1.44549 0.655071 0
M  V30 3475 H 327.342 1.79845 3.35315 0
M  V30 3476 H 326.854 3.20423 2.18976 0
M  V30 3477 H 324.955 1.14481 3.54577 0
M  V30 3478 H 325.068 3.02111 3.71841 0
M  V30 3479 H 323.432 1.52983 2.03638 0
M  V30 3480 H 324.215 3.10235 1.47 0
M  V30 3481 N 326.66 -1.06551 1.16123 0
M  V30 3482 C 327.885 -1.83544 0.965735 0
M  V30 3483 C 328.31 -1.81843 -0.481102 0
M  V30 3484 O 327.668 -1.21732 -1.34354 0
M  V30 3485 C 327.716 -3.28169 1.49457 0
M  V30 3486 O 326.82 -4.0643 0.699157 0
M  V30 3487 H 326.161 -0.568026 0.343864 0
M  V30 3488 H 328.691 -1.34362 1.54299 0
M  V30 3489 H 328.701 -3.78992 1.51092 0
M  V30 3490 H 327.376 -3.28722 2.54784 0
M  V30 3491 H 325.953 -3.65216 0.7531 0
M  V30 3492 N 328.138 -0.959301 -1.25041 0
M  V30 3493 C 329.554 -0.664474 -1.4511 0
M  V30 3494 C 329.754 0.776481 -1.85938 0
M  V30 3495 O 328.81 1.55128 -1.99227 0
M  V30 3496 C 330.123 -1.64139 -2.5195 0
M  V30 3497 C 331.671 -1.65309 -2.65786 0
M  V30 3498 C 332.146 -2.61777 -3.75815 0
M  V30 3499 N 333.637 -2.60169 -3.83231 0
M  V30 3500 C 334.372 -3.31489 -4.6787 0
M  V30 3501 N 333.868 -4.12298 -5.56761 0
M  V30 3502 N 335.661 -3.20354 -4.61876 0
M  V30 3503 H 327.812 -1.89043 -0.968332 0
M  V30 3504 H 330.075 -0.813408 -0.4869 0
M  V30 3505 H 329.781 -2.67086 -2.28819 0
M  V30 3506 H 329.655 -1.40756 -3.49954 0
M  V30 3507 H 332.042 -0.630778 -2.8828 0
M  V30 3508 H 332.123 -1.92753 -1.68167 0
M  V30 3509 H 331.767 -3.64137 -3.54071 0
M  V30 3510 H 331.697 -2.31616 -4.72929 0
M  V30 3511 H 334.188 -2.01507 -3.19692 0
M  V30 3512 H 334.501 -4.63625 -6.18281 0
M  V30 3513 H 332.846 -4.16395 -5.56454 0
M  V30 3514 H 336.037 -2.56692 -3.91442 0
M  V30 3515 H 336.21 -3.76201 -5.27614 0
M  V30 3516 N 329.616 1.39756 -0.72842 0
M  V30 3517 C 331.027 1.83498 -0.344289 0
M  V30 3518 C 331.378 1.60868 1.12321 0
M  V30 3519 O 330.503 1.09634 1.86573 0
M  V30 3520 C 331.098 3.33114 -0.618112 0
M  V30 3521 C 329.657 3.753 -0.287549 0
M  V30 3522 C 328.804 2.62831 -0.884048 0
M  V30 3523 H 331.755 1.28842 -0.926578 0
M  V30 3524 H 331.776 3.80334 0.112349 0
M  V30 3525 H 331.288 3.49553 -1.68625 0
M  V30 3526 H 329.389 3.64451 0.775012 0
M  V30 3527 H 329.502 4.72945 -0.765512 0
M  V30 3528 H 327.866 2.52792 -0.311149 0
M  V30 3529 H 328.649 2.82078 -1.95671 0
M  V30 3530 N 331.094 0.475555 1.50254 0
M  V30 3531 C 332.004 -0.321501 2.32387 0
M  V30 3532 C 333.02 -0.991755 1.42969 0
M  V30 3533 O 334.196 -0.978747 1.76018 0
M  V30 3534 C 331.261 -1.38667 3.17762 0
M  V30 3535 C 330.322 -0.732538 4.23004 0
M  V30 3536 C 329.555 -1.74695 5.04299 0
M  V30 3537 O 329.778 -2.97399 4.86734 0
M  V30 3538 O 328.712 -1.31631 5.8733 0
M  V30 3539 H 332.538 0.350071 3.01676 0
M  V30 3540 H 330.123 0.237321 1.47503 0
M  V30 3541 H 332.005 -2.00354 3.70724 0
M  V30 3542 H 330.68 -2.04163 2.51196 0
M  V30 3543 H 329.587 -0.0765902 3.74022 0
M  V30 3544 H 330.92 -0.120452 4.92053 0
M  V30 3545 N 332.573 -1.56217 0.208337 0
M  V30 3546 C 333.503 -2.22694 -0.702116 0
M  V30 3547 C 334.484 -1.19432 -1.2112 0
M  V30 3548 O 335.669 -1.47978 -1.25762 0
M  V30 3549 C 332.799 -2.8966 -1.9161 0
M  V30 3550 C 331.753 -3.9928 -1.5414 0
M  V30 3551 C 331.079 -4.53476 -2.83308 0
M  V30 3552 C 332.379 -5.17012 -0.741339 0
M  V30 3553 H 334.073 -2.99034 -0.147898 0
M  V30 3554 H 331.619 -1.43831 -0.0696951 0
M  V30 3555 H 333.572 -3.34852 -2.55836 0
M  V30 3556 H 332.296 -2.10746 -2.49507 0
M  V30 3557 H 330.955 -3.54799 -0.922668 0
M  V30 3558 H 330.603 -3.71308 -3.39322 0
M  V30 3559 H 330.303 -5.27451 -2.58976 0
M  V30 3560 H 331.827 -5.01378 -3.485 0
M  V30 3561 H 333.241 -5.58667 -1.28699 0
M  V30 3562 H 331.638 -5.97137 -0.595627 0
M  V30 3563 H 332.708 -4.8423 0.254851 0
M  V30 3564 N 334.051 0.0651679 -1.57465 0
M  V30 3565 C 335.276 0.779605 -1.9219 0
M  V30 3566 C 335.701 1.69988 -0.805333 0
M  V30 3567 O 335.059 1.79685 0.241435 0
M  V30 3568 C 335.107 1.54364 -3.2589 0
M  V30 3569 O 334.211 2.65474 -3.1559 0
M  V30 3570 H 333.552 0.212249 -0.629163 0
M  V30 3571 H 336.082 0.0314294 -2.04576 0
M  V30 3572 H 336.092 1.92146 -3.59922 0
M  V30 3573 H 334.767 0.868457 -4.06732 0
M  V30 3574 H 333.344 2.30501 -2.93128 0
M  V30 3575 N 335.529 1.53961 0.336706 0
M  V30 3576 C 336.492 1.81724 1.39675 0
M  V30 3577 C 337.492 0.688532 1.45313 0
M  V30 3578 O 338.682 0.956829 1.45569 0
M  V30 3579 C 335.814 1.96543 2.78538 0
M  V30 3580 H 337.007 2.76424 1.16318 0
M  V30 3581 H 334.56 1.45478 0.571474 0
M  V30 3582 H 335.295 1.0401 3.07168 0
M  V30 3583 H 335.08 2.78665 2.75841 0
M  V30 3584 H 336.57 2.19516 3.5525 0
M  V30 3585 N 337.007 -0.598083 1.45811 0
M  V30 3586 C 338.253 -1.35882 1.50545 0
M  V30 3587 C 338.586 -1.93616 0.150445 0
M  V30 3588 O 337.861 -1.75604 -0.83628 0
M  V30 3589 C 338.144 -2.49966 2.59208 0
M  V30 3590 C 337.997 -1.97367 4.04186 0
M  V30 3591 C 339.316 -3.52068 2.64076 0
M  V30 3592 H 336.435 -0.492717 0.548087 0
M  V30 3593 H 339.077 -0.673319 1.77669 0
M  V30 3594 H 337.227 -3.08443 2.3621 0
M  V30 3595 H 338.899 -1.43466 4.38423 0
M  V30 3596 H 337.142 -1.283 4.14393 0
M  V30 3597 H 337.813 -2.79649 4.75921 0
M  V30 3598 H 340.289 -3.03448 2.84708 0
M  V30 3599 H 339.165 -4.2937 3.41954 0
M  V30 3600 H 339.426 -4.08304 1.69531 0
M  V30 3601 N 338.485 -1.33259 -0.841409 0
M  V30 3602 C 339.448 -1.23221 -1.9326 0
M  V30 3603 C 340.448 -0.151895 -1.60081 0
M  V30 3604 O 341.638 -0.403246 -1.69468 0
M  V30 3605 C 338.77 -0.898123 -3.28856 0
M  V30 3606 H 339.963 -2.2021 -2.03587 0
M  V30 3607 H 337.516 -1.17281 -1.03319 0
M  V30 3608 H 338.251 0.0693841 -3.24226 0
M  V30 3609 H 338.036 -1.67934 -3.54317 0
M  V30 3610 H 339.526 -0.852563 -4.08805 0
M  V30 3611 N 339.963 1.05934 -1.16686 0
M  V30 3612 C 341.191 1.8249 -0.974929 0
M  V30 3613 C 341.606 1.82679 0.476861 0
M  V30 3614 O 340.963 1.2486 1.33103 0
M  V30 3615 C 341.014 3.28943 -1.49929 0
M  V30 3616 O 340.735 3.28886 -2.89423 0
M  V30 3617 C 342.236 4.22215 -1.35089 0
M  V30 3618 H 339.456 0.575295 -0.345365 0
M  V30 3619 H 342 1.33631 -1.548 0
M  V30 3620 H 340.155 3.751 -0.968423 0
M  V30 3621 H 340.569 4.20493 -3.13506 0
M  V30 3622 H 342.043 5.22987 -1.76603 0
M  V30 3623 H 342.52 4.38195 -0.296935 0
M  V30 3624 H 343.126 3.81907 -1.87155 0
M  V30 3625 N 341.441 0.965919 1.2453 0
M  V30 3626 C 342.718 0.543777 1.87889 0
M  V30 3627 C 343.098 -0.97909 1.87021 0
M  V30 3628 O 342.446 -1.84969 1.3416 0
M  V30 3629 C 342.656 1.13327 3.30088 0
M  V30 3630 C 344.004 1.21707 4.06783 0
M  V30 3631 O 345.028 1.08566 3.39252 0
M  V30 3632 O 343.887 1.42456 5.27606 0
M  V30 3633 H 340.981 0.181054 0.806938 0
M  V30 3634 H 343.527 1.06007 1.32516 0
M  V30 3635 H 342.299 2.17612 3.25209 0
M  V30 3636 H 341.922 0.600911 3.93033 0
M  V30 3637 N 342.919 -1.39368 0.735821 0
M  V30 3638 C 343.849 -2.33234 0.111506 0
M  V30 3639 C 344.83 -1.53954 -0.723334 0
M  V30 3640 O 346.015 -1.82344 -0.668147 0
M  V30 3641 C 343.145 -3.38057 -0.795917 0
M  V30 3642 C 342.099 -4.2795 -0.065172 0
M  V30 3643 C 341.425 -5.23479 -1.08967 0
M  V30 3644 C 342.725 -5.10741 1.09273 0
M  V30 3645 H 344.419 -2.85692 0.895571 0
M  V30 3646 H 341.965 -1.37364 0.432109 0
M  V30 3647 H 343.918 -4.02675 -1.24221 0
M  V30 3648 H 342.642 -2.8404 -1.61211 0
M  V30 3649 H 341.301 -3.64813 0.361511 0
M  V30 3650 H 340.949 -4.65758 -1.89944 0
M  V30 3651 H 340.649 -5.84472 -0.605489 0
M  V30 3652 H 342.173 -5.90974 -1.53565 0
M  V30 3653 H 343.587 -5.68699 0.724841 0
M  V30 3654 H 341.984 -5.8088 1.50659 0
M  V30 3655 H 343.054 -4.45525 1.91404 0
M  V30 3656 N 344.397 -0.483516 -1.5 0
M  V30 3657 C 345.813 -0.138404 -1.58999 0
M  V30 3658 C 346.013 1.35597 -1.4905 0
M  V30 3659 O 345.069 2.13039 -1.35539 0
M  V30 3660 C 346.382 -0.699658 -2.92447 0
M  V30 3661 C 347.93 -0.664195 -3.05872 0
M  V30 3662 C 348.405 -1.20321 -4.41913 0
M  V30 3663 N 349.896 -1.16315 -4.48358 0
M  V30 3664 C 350.631 -1.55058 -5.52037 0
M  V30 3665 N 350.127 -2.01311 -6.62907 0
M  V30 3666 N 351.92 -1.46584 -5.42651 0
M  V30 3667 H 344.071 -1.45529 -1.5471 0
M  V30 3668 H 346.334 -0.60258 -0.731848 0
M  V30 3669 H 346.04 -1.747 -3.05242 0
M  V30 3670 H 345.914 -0.150194 -3.76901 0
M  V30 3671 H 348.301 0.374272 -2.92717 0
M  V30 3672 H 348.382 -1.25061 -2.23144 0
M  V30 3673 H 348.026 -2.24037 -4.55818 0
M  V30 3674 H 347.956 -0.592896 -5.23252 0
M  V30 3675 H 350.447 -0.824058 -3.68806 0
M  V30 3676 H 350.76 -2.2899 -7.38095 0
M  V30 3677 H 349.105 -2.05273 -6.63994 0
M  V30 3678 H 352.296 -1.10281 -4.54924 0
M  V30 3679 H 352.469 -1.77103 -6.23329 0
M  V30 3680 N 345.875 1.56104 -0.216619 0
M  V30 3681 C 346.822 2.2007 0.695531 0
M  V30 3682 C 347.792 1.15471 1.19397 0
M  V30 3683 O 348.977 1.43807 1.25396 0
M  V30 3684 C 346.117 2.88073 1.90021 0
M  V30 3685 C 345.23 4.07253 1.44113 0
M  V30 3686 C 344.365 4.63052 2.603 0
M  V30 3687 C 343.404 5.74545 2.11103 0
M  V30 3688 N 342.541 6.24656 3.20545 0
M  V30 3689 H 347.381 2.97655 0.143327 0
M  V30 3690 H 344.918 1.46982 0.0589934 0
M  V30 3691 H 346.876 3.25681 2.60745 0
M  V30 3692 H 345.506 2.13015 2.42538 0
M  V30 3693 H 344.558 3.75164 0.628999 0
M  V30 3694 H 345.87 4.8783 1.04036 0
M  V30 3695 H 345.024 5.03078 3.39113 0
M  V30 3696 H 343.763 3.81628 3.03663 0
M  V30 3697 H 342.768 5.34027 1.3075 0
M  V30 3698 H 343.993 6.57801 1.68746 0
M  V30 3699 H 341.939 5.46148 3.63399 0
M  V30 3700 H 341.856 7.00343 2.84704 0
M  V30 3701 H 343.124 6.69338 3.99508 0
M  V30 3702 N 347.353 -0.0568162 1.57498 0
M  V30 3703 C 348.63 -0.786954 1.79071 0
M  V30 3704 C 349.01 -1.95028 0.80792 0
M  V30 3705 O 348.358 -2.27968 -0.155858 0
M  V30 3706 C 348.568 -1.24594 3.26002 0
M  V30 3707 C 349.916 -1.67323 3.90241 0
M  V30 3708 O 350.94 -1.34124 3.29984 0
M  V30 3709 O 349.799 -2.28842 4.9628 0
M  V30 3710 H 346.893 -0.378262 0.735423 0
M  V30 3711 H 349.439 -0.035734 1.69662 0
M  V30 3712 H 348.211 -0.41423 3.89101 0
M  V30 3713 H 347.834 -2.05803 3.40192 0
M  V30 3714 N 348.832 -1.54138 -0.328536 0
M  V30 3715 C 349.779 -1.83176 -1.40411 0
M  V30 3716 C 350.749 -0.678494 -1.5161 0
M  V30 3717 O 351.934 -0.92443 -1.6691 0
M  V30 3718 C 349.074 -2.06035 -2.76846 0
M  V30 3719 C 348.187 -3.33727 -2.74318 0
M  V30 3720 C 347.322 -3.46574 -4.02567 0
M  V30 3721 C 346.361 -4.68159 -3.94327 0
M  V30 3722 N 345.498 -4.77959 -5.14296 0
M  V30 3723 H 350.338 -2.74938 -1.14948 0
M  V30 3724 H 347.875 -1.36166 -0.556538 0
M  V30 3725 H 349.833 -2.1728 -3.56153 0
M  V30 3726 H 348.463 -1.1757 -3.00628 0
M  V30 3727 H 347.515 -3.31246 -1.8703 0
M  V30 3728 H 348.827 -4.23139 -2.64111 0
M  V30 3729 H 347.981 -3.57333 -4.90304 0
M  V30 3730 H 346.72 -2.55245 -4.15574 0
M  V30 3731 H 345.725 -4.57461 -3.04974 0
M  V30 3732 H 346.95 -5.60868 -3.82889 0
M  V30 3733 H 344.896 -3.89544 -5.27818 0
M  V30 3734 H 344.813 -5.6133 -5.06404 0
M  V30 3735 H 346.081 -4.93044 -6.03761 0
M  V30 3736 N 350.31 0.590341 -1.46126 0
M  V30 3737 C 351.273 1.68194 -1.55703 0
M  V30 3738 C 352.273 1.54808 -0.434868 0
M  V30 3739 O 353.463 1.59564 -0.698928 0
M  V30 3740 C 350.595 3.07575 -1.47005 0
M  V30 3741 H 351.788 1.61064 -2.52979 0
M  V30 3742 H 349.341 0.807541 -1.33823 0
M  V30 3743 H 350.076 3.20268 -0.509785 0
M  V30 3744 H 349.861 3.187 -2.28414 0
M  V30 3745 H 351.351 3.87055 -1.56776 0
M  V30 3746 N 351.788 1.33704 0.83433 0
M  V30 3747 C 352.735 1.24335 1.94447 0
M  V30 3748 C 353.705 0.120991 1.65659 0
M  V30 3749 O 354.89 0.300035 1.88426 0
M  V30 3750 C 352.03 0.993124 3.30501 0
M  V30 3751 C 351.143 2.20217 3.71657 0
M  V30 3752 C 350.278 1.88572 4.96602 0
M  V30 3753 C 349.317 3.05683 5.30306 0
M  V30 3754 N 348.454 2.73997 6.46429 0
M  V30 3755 H 353.294 2.1928 2.01792 0
M  V30 3756 H 350.831 1.09035 0.987404 0
M  V30 3757 H 352.789 0.828467 4.08892 0
M  V30 3758 H 351.419 0.0803902 3.227 0
M  V30 3759 H 350.471 2.47642 2.88752 0
M  V30 3760 H 351.783 3.07752 3.92543 0
M  V30 3761 H 350.937 1.68776 5.82752 0
M  V30 3762 H 349.676 0.982799 4.77695 0
M  V30 3763 H 348.681 3.26088 4.42659 0
M  V30 3764 H 349.906 3.96737 5.51159 0
M  V30 3765 H 347.852 1.86268 6.28999 0
M  V30 3766 H 347.769 3.55064 6.67432 0
M  V30 3767 H 349.037 2.57679 7.35678 0
M  V30 3768 N 353.266 -1.05314 1.17247 0
M  V30 3769 C 354.491 -1.82509 0.985148 0
M  V30 3770 C 354.916 -1.82343 -0.461788 0
M  V30 3771 O 354.274 -1.23151 -1.33055 0
M  V30 3772 C 354.322 -3.26566 1.52929 0
M  V30 3773 O 353.426 -4.05666 0.742225 0
M  V30 3774 H 352.767 -0.564347 0.349869 0
M  V30 3775 H 355.297 -1.32718 1.55715 0
M  V30 3776 H 355.307 -3.77369 1.55103 0
M  V30 3777 H 353.982 -3.26001 2.58256 0
M  V30 3778 H 352.559 -3.64397 0.791794 0
M  V30 3779 N 354.744 -0.972509 -1.24016 0
M  V30 3780 C 355.984 -0.644951 -1.93958 0
M  V30 3781 C 356.348 0.80559 -1.74282 0
M  V30 3782 O 357.549 1.2436 -2.38302 0
M  V30 3783 C 355.82 -1.01521 -3.42678 0
M  V30 3784 S 357.379 -0.802927 -4.31391 0
M  V30 3785 H 354.197 -0.236452 -0.670531 0
M  V30 3786 H 356.799 -1.25048 -1.50277 0
M  V30 3787 H 355.503 -2.06769 -3.54506 0
M  V30 3788 H 355.034 -0.400648 -3.91355 0
M  V30 3789 H 357.049 0.317256 -4.95185 0
M  V30 3790 N 356.222 1.38976 -0.743202 0
M  V30 3791 C 357.45 2.04636 -0.30525 0
M  V30 3792 C 357.865 1.56044 1.06281 0
M  V30 3793 O 357.222 0.728921 1.67311 0
M  V30 3794 C 357.273 3.60193 -0.307177 0
M  V30 3795 O 356.994 4.06998 -1.62124 0
M  V30 3796 C 358.495 4.4306 0.145928 0
M  V30 3797 H 355.715 0.65788 -0.132041 0
M  V30 3798 H 358.259 1.77866 -1.00915 0
M  V30 3799 H 356.414 3.85835 0.347898 0
M  V30 3800 H 356.828 5.01371 -1.54036 0
M  V30 3801 H 358.302 5.51921 0.0934183 0
M  V30 3802 H 358.779 4.22706 1.19231 0
M  V30 3803 H 359.385 4.22584 -0.479886 0
M  V30 3804 N 357.7 0.491464 1.49741 0
M  V30 3805 C 358.946 -0.0565092 2.02721 0
M  V30 3806 C 359.279 -1.37522 1.37118 0
M  V30 3807 O 358.554 -1.87866 0.503645 0
M  V30 3808 C 358.837 -0.219051 3.59433 0
M  V30 3809 C 358.69 1.12211 4.35579 0
M  V30 3810 C 360.009 -0.964157 4.29409 0
M  V30 3811 H 357.128 -0.0190627 0.736753 0
M  V30 3812 H 359.77 0.641021 1.7886 0
M  V30 3813 H 357.92 -0.813165 3.79895 0
M  V30 3814 H 359.592 1.75437 4.26637 0
M  V30 3815 H 357.835 1.71377 3.98513 0
M  V30 3816 H 358.506 0.961794 5.43556 0
M  V30 3817 H 360.982 -0.460378 4.13545 0
M  V30 3818 H 359.858 -1.04671 5.38828 0
M  V30 3819 H 360.119 -2.00563 3.93988 0
M  V30 3820 N 359.178 -1.55987 0.224894 0
M  V30 3821 C 360.111 -2.16413 -0.723929 0
M  V30 3822 C 361.089 -1.10952 -1.18863 0
M  V30 3823 O 362.273 -1.39225 -1.27077 0
M  V30 3824 C 359.4 -2.74711 -1.98121 0
M  V30 3825 C 358.446 -3.9303 -1.6562 0
M  V30 3826 S 359.279 -5.29817 -0.778058 0
M  V30 3827 C 360.435 -5.91555 -2.04483 0
M  V30 3828 H 360.668 -2.96555 -0.210347 0
M  V30 3829 H 358.201 -1.54397 0.00955457 0
M  V30 3830 H 360.159 -3.08938 -2.70311 0
M  V30 3831 H 358.82 -1.94555 -2.46591 0
M  V30 3832 H 358.013 -4.32334 -2.59043 0
M  V30 3833 H 357.615 -3.59966 -1.01491 0
M  V30 3834 H 359.907 -6.07732 -2.99446 0
M  V30 3835 H 360.85 -6.87498 -1.69563 0
M  V30 3836 H 361.258 -5.20419 -2.18688 0
M  V30 3837 O 360.695 -0.0887553 -1.61256 0
M  V30 3838 H 361.386 0.514821 -1.86733 0
M  V30 END ATOM
M  V30 BEGIN BOND
M  V30 END BOND
M  V30 END CTAB
M  END
$$$$
