drugbank_target|P61604 10 kDa heat shock protein, mitochondrial (DB12695)
 OpenBabel12092121073D

  0  0  0     0  0            999 V3000
M  V30 BEGIN CTAB
M  V30 COUNTS 1573 1584 0 0 0
M  V30 BEGIN ATOM
M  V30 1 H -0.908 1.98254 -0.117106 0
M  V30 2 N 0 1.576 0 0
M  V30 3 C 0.933 2.03868 1.02534 0
M  V30 4 C 1.911 0.928543 1.3348 0
M  V30 5 O 3.095 1.19667 1.45644 0
M  V30 6 C 0.222 2.43627 2.35294 0
M  V30 7 C -0.732 3.65373 2.2001 0
M  V30 8 S 0.101 5.13292 1.52614 0
M  V30 9 C 1.257 5.56322 2.86805 0
M  V30 10 H 1.49 2.90518 0.631377 0
M  V30 11 H -0.977 1.52953 0.210867 0
M  V30 12 H 0.981 2.67203 3.11629 0
M  V30 13 H -0.358 1.57376 2.7183 0
M  V30 14 H -1.165 3.90944 3.18086 0
M  V30 15 H -1.563 3.418 1.51819 0
M  V30 16 H 0.729 5.58782 3.83104 0
M  V30 17 H 1.672 6.56266 2.65933 0
M  V30 18 H 2.08 4.83886 2.90714 0
M  V30 19 N 1.4781 -0.272755 1.55222 0
M  V30 20 C 2.4411 -1.32041 1.87344 0
M  V30 21 C 3.4411 -1.42342 0.74803 0
M  V30 22 O 4.6311 -1.41488 1.0162 0
M  V30 23 C 1.7631 -2.70173 2.07893 0
M  V30 24 H 2.9561 -1.04789 2.80997 0
M  V30 25 H 0.5091 -0.51083 1.47717 0
M  V30 26 H 1.2441 -3.02605 1.16622 0
M  V30 27 H 1.0291 -2.64082 2.89833 0
M  V30 28 H 2.5191 -3.45869 2.34017 0
M  V30 29 N 2.9562 -1.48159 -0.537278 0
M  V30 30 C 4.2042 -1.55497 -1.29094 0
M  V30 31 C 4.5252 -0.227454 -1.93669 0
M  V30 32 O 3.7952 0.750386 -1.80959 0
M  V30 33 H 2.3752 -0.572832 -0.47945 0
M  V30 34 H 5.0372 -1.84579 -0.625818 0
M  V30 35 H 4.1332 -2.33216 -2.07405 0
M  V30 36 N 4.4343 0.785586 -1.36625 0
M  V30 37 C 5.3663 1.90711 -1.2713 0
M  V30 38 C 6.3793 1.61688 -0.189986 0
M  V30 39 O 7.5683 1.72864 -0.445014 0
M  V30 40 C 4.6683 3.25611 -0.939713 0
M  V30 41 C 3.8413 3.82385 -2.12369 0
M  V30 42 C 2.9003 4.95732 -1.76456 0
M  V30 43 O 1.9263 5.12047 -2.48589 0
M  V30 44 N 3.1283 5.76258 -0.700492 0
M  V30 45 H 5.8933 1.99376 -2.23762 0
M  V30 46 H 3.4543 0.964041 -1.30069 0
M  V30 47 H 5.4463 3.98937 -0.680554 0
M  V30 48 H 4.0163 3.12538 -0.0624074 0
M  V30 49 H 3.2363 3.01001 -2.54543 0
M  V30 50 H 4.5243 4.17047 -2.9146 0
M  V30 51 H 3.9223 5.65609 -0.101624 0
M  V30 52 H 2.4793 6.4987 -0.501165 0
M  V30 53 N 5.9124 1.20967 1.01018 0
M  V30 54 C 6.8754 0.965918 2.07853 0
M  V30 55 C 7.8754 -0.0610545 1.60684 0
M  V30 56 O 9.0654 0.175681 1.73312 0
M  V30 57 C 6.1974 0.455513 3.37843 0
M  V30 58 H 7.3904 1.91365 2.3091 0
M  V30 59 H 4.9434 1.02594 1.17916 0
M  V30 60 H 5.6784 -0.497381 3.20463 0
M  V30 61 H 5.4634 1.19622 3.73407 0
M  V30 62 H 6.9534 0.304667 4.16487 0
M  V30 63 N 7.3905 -1.2043 1.01659 0
M  V30 64 C 8.6375 -1.89797 0.705917 0
M  V30 65 C 8.9655 -1.78848 -0.764439 0
M  V30 66 O 8.2205 -1.16694 -1.57102 0
M  V30 67 C 8.5195 -3.40464 1.08714 0
M  V30 68 C 8.1855 -3.71614 2.5537 0
M  V30 69 C 6.8475 -3.79826 2.95441 0
M  V30 70 C 9.1995 -3.85915 3.50313 0
M  V30 71 C 6.5275 -3.99797 4.29394 0
M  V30 72 C 8.8795 -4.07396 4.83954 0
M  V30 73 C 7.5435 -4.13837 5.23732 0
M  V30 74 H 6.8135 -0.694518 0.258313 0
M  V30 75 H 9.4605 -1.42691 1.27717 0
M  V30 76 H 7.7655 -3.89385 0.434309 0
M  V30 77 H 9.4625 -3.92433 0.824461 0
M  V30 78 H 6.0525 -3.65822 2.23321 0
M  V30 79 H 10.2365 -3.78926 3.20513 0
M  V30 80 H 5.4925 -4.03018 4.59768 0
M  V30 81 H 9.6665 -4.17404 5.57447 0
M  V30 82 H 7.2935 -4.29064 6.27541 0
M  V30 83 N 8.8686 -0.792821 -1.36206 0
M  V30 84 C 10.2846 -0.474903 -1.52371 0
M  V30 85 C 10.4846 1.00622 -1.74578 0
M  V30 86 O 9.5406 1.79162 -1.77924 0
M  V30 87 C 10.8536 -1.3083 -2.70747 0
M  V30 88 C 12.4016 -1.30234 -2.84619 0
M  V30 89 C 12.8766 -2.11956 -4.06004 0
M  V30 90 N 14.3676 -2.09419 -4.13156 0
M  V30 91 C 15.1026 -2.69419 -5.06163 0
M  V30 92 N 14.5986 -3.3829 -6.04592 0
M  V30 93 N 16.3916 -2.59134 -4.98804 0
M  V30 94 H 8.5426 -1.75222 -1.20046 0
M  V30 95 H 10.8056 -0.745024 -0.586211 0
M  V30 96 H 10.5116 -2.35881 -2.6087 0
M  V30 97 H 10.3856 -0.95196 -3.6499 0
M  V30 98 H 12.7726 -0.259748 -2.93955 0
M  V30 99 H 12.8536 -1.69847 -1.91274 0
M  V30 100 H 12.4976 -3.16248 -3.97429 0
M  V30 101 H 12.4276 -1.69711 -4.98503 0
M  V30 102 H 14.9186 -1.59297 -3.42685 0
M  V30 103 H 15.2316 -3.81394 -6.7213 0
M  V30 104 H 13.5766 -3.42393 -6.04807 0
M  V30 105 H 16.7676 -2.04927 -4.20859 0
M  V30 106 H 16.9406 -3.06185 -5.711 0
M  V30 107 N 10.3467 1.47872 -0.545128 0
M  V30 108 C 11.2937 2.29849 0.2093 0
M  V30 109 C 12.2637 1.38313 0.919707 0
M  V30 110 O 13.4487 1.67277 0.917772 0
M  V30 111 C 10.5887 3.22019 1.24088 0
M  V30 112 C 9.7017 4.2864 0.537778 0
M  V30 113 C 8.8367 5.07973 1.5536 0
M  V30 114 C 7.8757 6.06381 0.8348 0
M  V30 115 N 7.0127 6.78717 1.79688 0
M  V30 116 H 11.8527 2.93845 -0.49591 0
M  V30 117 H 9.3897 1.44848 -0.256389 0
M  V30 118 H 11.3477 3.73868 1.85144 0
M  V30 119 H 9.9777 2.59914 1.91428 0
M  V30 120 H 9.0297 3.7994 -0.187046 0
M  V30 121 H 10.3417 4.98793 -0.0258907 0
M  V30 122 H 9.4957 5.63912 2.23803 0
M  V30 123 H 8.2347 4.37693 2.15118 0
M  V30 124 H 7.2397 5.49631 0.136388 0
M  V30 125 H 8.4647 6.78665 0.24313 0
M  V30 126 H 6.4107 6.11177 2.38326 0
M  V30 127 H 6.3277 7.44998 1.28505 0
M  V30 128 H 7.5957 7.39237 2.47282 0
M  V30 129 N 11.8248 0.280983 1.55075 0
M  V30 130 C 13.0718 -0.334115 1.99725 0
M  V30 131 C 13.3998 -1.5542 1.1694 0
M  V30 132 O 12.6548 -1.94361 0.228531 0
M  V30 133 C 12.9538 -0.754656 3.49342 0
M  V30 134 C 12.6198 0.361445 4.49449 0
M  V30 135 C 11.2818 0.667893 4.76542 0
M  V30 136 C 13.6338 1.11322 5.09173 0
M  V30 137 C 10.9618 1.7296 5.60626 0
M  V30 138 C 13.3138 2.1647 5.9441 0
M  V30 139 C 11.9778 2.47742 6.19822 0
M  V30 140 H 11.2478 -0.122261 0.730844 0
M  V30 141 H 13.8948 0.395917 1.87363 0
M  V30 142 H 12.1998 -1.56446 3.5921 0
M  V30 143 H 13.8968 -1.24142 3.813 0
M  V30 144 H 10.4868 0.112481 4.28452 0
M  V30 145 H 14.6708 0.88973 4.8826 0
M  V30 146 H 9.9268 1.97684 5.78559 0
M  V30 147 H 14.1008 2.75193 6.3972 0
M  V30 148 H 11.7278 3.30145 6.84769 0
M  V30 149 N 13.3029 -1.57598 0.00835791 0
M  V30 150 C 14.2329 -2.1198 -0.979113 0
M  V30 151 C 15.2139 -1.03091 -1.35301 0
M  V30 152 O 16.3989 -1.30818 -1.43528 0
M  V30 153 C 13.5289 -2.62995 -2.26828 0
M  V30 154 C 12.4829 -3.76485 -2.03576 0
M  V30 155 C 11.8089 -4.13846 -3.38579 0
M  V30 156 C 13.1089 -5.0342 -1.39161 0
M  V30 157 H 14.8029 -2.94738 -0.526281 0
M  V30 158 H 12.3489 -1.41783 -0.251704 0
M  V30 159 H 14.3019 -2.99669 -2.96271 0
M  V30 160 H 13.0259 -1.7737 -2.7424 0
M  V30 161 H 11.6849 -3.40217 -1.36557 0
M  V30 162 H 11.3329 -3.25232 -3.83709 0
M  V30 163 H 11.0329 -4.90312 -3.23834 0
M  V30 164 H 12.5569 -4.53086 -4.09323 0
M  V30 165 H 13.9709 -5.37812 -1.98573 0
M  V30 166 H 12.3679 -5.84746 -1.34878 0
M  V30 167 H 13.4379 -4.83548 -0.361868 0
M  V30 168 N 14.781 0.264519 -1.55364 0
M  V30 169 C 16.192 0.834936 -1.6699 0
M  V30 170 C 16.543 1.86718 -0.602552 0
M  V30 171 O 15.668 2.14899 0.254425 0
M  V30 172 C 16.263 1.5212 -3.02729 0
M  V30 173 C 14.822 2.03954 -3.16354 0
M  V30 174 C 13.969 0.884498 -2.62815 0
M  V30 175 H 16.92 0.0406869 -1.58648 0
M  V30 176 H 16.941 2.38853 -2.96191 0
M  V30 177 H 16.453 0.769668 -3.80392 0
M  V30 178 H 14.554 2.82041 -2.43482 0
M  V30 179 H 14.667 2.24902 -4.23032 0
M  V30 180 H 13.031 1.2802 -2.20188 0
M  V30 181 H 13.814 0.14634 -3.42988 0
M  V30 182 N 16.2591 1.48442 0.529413 0
M  V30 183 C 17.1891 1.65902 1.64313 0
M  V30 184 C 18.1701 0.507897 1.6234 0
M  V30 185 O 19.3551 0.740503 1.79528 0
M  V30 186 C 16.4851 1.69911 3.02898 0
M  V30 187 C 15.4391 2.8453 3.19729 0
M  V30 188 C 14.7651 2.73629 4.59381 0
M  V30 189 C 16.0651 4.25821 3.02447 0
M  V30 190 H 17.7591 2.5914 1.49955 0
M  V30 191 H 15.3051 1.24709 0.719982 0
M  V30 192 H 17.2581 1.80715 3.80684 0
M  V30 193 H 15.9821 0.732524 3.18279 0
M  V30 194 H 14.6411 2.73283 2.44361 0
M  V30 195 H 14.2891 1.74938 4.71599 0
M  V30 196 H 13.9891 3.50541 4.71588 0
M  V30 197 H 15.5131 2.86401 5.39265 0
M  V30 198 H 16.9271 4.37898 3.70024 0
M  V30 199 H 15.3241 5.03735 3.26146 0
M  V30 200 H 16.3941 4.42244 1.98867 0
M  V30 201 N 17.7372 -0.778329 1.37039 0
M  V30 202 C 18.9842 -1.53665 1.31884 0
M  V30 203 C 19.3122 -1.9425 -0.0986303 0
M  V30 204 O 18.5672 -1.63832 -1.07041 0
M  V30 205 C 18.8662 -2.81845 2.19768 0
M  V30 206 C 18.5322 -2.60345 3.68146 0
M  V30 207 C 17.1942 -2.5419 4.08584 0
M  V30 208 C 19.5462 -2.40923 4.62175 0
M  V30 209 C 16.8742 -2.26594 5.41177 0
M  V30 210 C 19.2262 -2.14852 5.94997 0
M  V30 211 C 17.8902 -2.07137 6.34547 0
M  V30 212 H 17.1602 -0.562299 0.482598 0
M  V30 213 H 19.8072 -0.897069 1.69189 0
M  V30 214 H 18.1122 -3.50328 1.75436 0
M  V30 215 H 19.8092 -3.39692 2.13097 0
M  V30 216 H 16.3992 -2.65996 3.36072 0
M  V30 217 H 20.5832 -2.44673 4.31797 0
M  V30 218 H 15.8392 -2.19111 5.70789 0
M  V30 219 H 20.0132 -1.98822 6.67415 0
M  V30 220 H 17.6402 -1.85518 7.37216 0
M  V30 221 N 19.2153 -1.21501 -1.00376 0
M  V30 222 C 20.4923 -0.941745 -1.71437 0
M  V30 223 C 20.8723 0.546114 -2.03914 0
M  V30 224 O 20.2203 1.51128 -1.71384 0
M  V30 225 C 20.4303 -1.82812 -2.97289 0
M  V30 226 C 21.7783 -2.07771 -3.70292 0
M  V30 227 O 22.8023 -1.80171 -3.07273 0
M  V30 228 O 21.6613 -2.54456 -4.83647 0
M  V30 229 H 18.7553 -0.353243 -0.747762 0
M  V30 230 H 21.3013 -1.32436 -1.06108 0
M  V30 231 H 20.0733 -2.83501 -2.69709 0
M  V30 232 H 19.6963 -1.4464 -3.70358 0
M  V30 233 N 20.6934 1.19889 -1.02296 0
M  V30 234 C 22.1094 1.41462 -0.738954 0
M  V30 235 C 22.3094 1.89721 0.678846 0
M  V30 236 O 21.3654 2.07016 1.4457 0
M  V30 237 C 22.6784 2.43083 -1.77005 0
M  V30 238 C 24.2264 2.5684 -1.78892 0
M  V30 239 C 24.7014 3.61709 -2.80945 0
M  V30 240 N 26.1924 3.69199 -2.79725 0
M  V30 241 C 26.9274 4.50019 -3.55345 0
M  V30 242 N 26.4234 5.34592 -4.40662 0
M  V30 243 N 28.2164 4.44612 -3.43914 0
M  V30 244 H 20.3674 0.868827 -1.93817 0
M  V30 245 H 22.6304 0.44399 -0.837602 0
M  V30 246 H 22.3364 2.14636 -2.78612 0
M  V30 247 H 22.2104 3.4217 -1.58744 0
M  V30 248 H 24.5974 2.84614 -0.779674 0
M  V30 249 H 24.6784 1.57927 -2.01228 0
M  V30 250 H 24.3224 3.34678 -3.82038 0
M  V30 251 H 24.2524 4.60259 -2.5587 0
M  V30 252 H 26.7434 3.08794 -2.17842 0
M  V30 253 H 27.0564 5.93363 -4.95116 0
M  V30 254 H 25.4014 5.34073 -4.44737 0
M  V30 255 H 28.5924 3.7758 -2.76679 0
M  V30 256 H 28.7654 5.0736 -4.031 0
M  V30 257 N 22.1715 0.800033 1.35784 0
M  V30 258 C 23.4175 0.377901 1.99248 0
M  V30 259 C 23.7505 -1.05052 1.63333 0
M  V30 260 O 23.0255 -1.72768 0.893385 0
M  V30 261 C 23.3085 0.553922 3.55814 0
M  V30 262 C 23.1615 2.0268 4.01548 0
M  V30 263 C 24.4805 -0.0244802 4.40093 0
M  V30 264 H 21.5995 0.138782 0.723815 0
M  V30 265 H 24.2415 1.00835 1.61035 0
M  V30 266 H 22.3915 0.0172398 3.88496 0
M  V30 267 H 24.0635 2.62536 3.79305 0
M  V30 268 H 22.3065 2.5256 3.52698 0
M  V30 269 H 22.9775 2.10087 5.10458 0
M  V30 270 H 25.4535 0.433775 4.13833 0
M  V30 271 H 24.3295 0.128637 5.48749 0
M  V30 272 H 24.5905 -1.11758 4.27741 0
M  V30 273 N 23.6496 -1.47581 0.552962 0
M  V30 274 C 24.5796 -2.32762 -0.185451 0
M  V30 275 C 25.5606 -1.43527 -0.912905 0
M  V30 276 O 26.7456 -1.72388 -0.894201 0
M  V30 277 C 23.8756 -3.25219 -1.21859 0
M  V30 278 C 22.8296 -4.23661 -0.607864 0
M  V30 279 C 22.1556 -5.05413 -1.74533 0
M  V30 280 C 23.4556 -5.20481 0.435582 0
M  V30 281 H 25.1496 -2.94749 0.525684 0
M  V30 282 H 22.6956 -1.41738 0.254251 0
M  V30 283 H 24.6486 -3.8365 -1.7433 0
M  V30 284 H 23.3726 -2.61279 -1.95961 0
M  V30 285 H 22.0316 -3.66451 -0.104489 0
M  V30 286 H 21.6796 -4.3788 -2.47529 0
M  V30 287 H 21.3796 -5.72059 -1.34249 0
M  V30 288 H 22.9036 -5.66701 -2.27338 0
M  V30 289 H 24.3176 -5.733 -0.00290157 0
M  V30 290 H 22.7146 -5.95305 0.757067 0
M  V30 291 H 23.7846 -4.66217 1.33303 0
M  V30 292 N 25.1277 -0.289203 -1.54924 0
M  V30 293 C 26.3737 0.323998 -2.00195 0
M  V30 294 C 26.7067 1.54441 -1.17735 0
M  V30 295 O 25.9817 1.92875 -0.250878 0
M  V30 296 C 26.2647 0.692276 -3.53383 0
M  V30 297 C 26.1177 -0.536457 -4.46589 0
M  V30 298 C 27.4367 1.52335 -4.12895 0
M  V30 299 H 24.5557 0.116289 -0.727768 0
M  V30 300 H 27.1977 -0.398954 -1.85764 0
M  V30 301 H 25.3477 1.30822 -3.65811 0
M  V30 302 H 27.0197 -1.17499 -4.46085 0
M  V30 303 H 25.2627 -1.17192 -4.1767 0
M  V30 304 H 25.9337 -0.234806 -5.515 0
M  V30 305 H 28.4097 1.00302 -4.0383 0
M  V30 306 H 27.2857 1.74982 -5.20262 0
M  V30 307 H 27.5467 2.50886 -3.64018 0
M  V30 308 N 26.6058 1.57591 -0.0167156 0
M  V30 309 C 27.5158 2.1291 0.98521 0
M  V30 310 C 28.5318 1.07834 1.36557 0
M  V30 311 O 29.7078 1.39826 1.44951 0
M  V30 312 C 26.7728 2.63512 2.25305 0
M  V30 313 C 25.8338 3.83256 1.93426 0
M  V30 314 C 25.0668 4.31435 3.14165 0
M  V30 315 O 25.2898 3.78851 4.26413 0
M  V30 316 O 24.2238 5.23416 2.97186 0
M  V30 317 H 28.0498 2.98772 0.544888 0
M  V30 318 H 25.6348 1.48012 0.203141 0
M  V30 319 H 27.5168 2.96183 2.99756 0
M  V30 320 H 26.1918 1.8074 2.68542 0
M  V30 321 H 25.0988 3.55531 1.16398 0
M  V30 322 H 26.4318 4.67153 1.55013 0
M  V30 323 N 28.0839 -0.256276 1.55502 0
M  V30 324 C 29.4999 -0.604325 1.47716 0
M  V30 325 C 29.6999 -1.88763 0.705039 0
M  V30 326 O 28.7559 -2.51445 0.230613 0
M  V30 327 C 30.0689 -0.715756 2.92057 0
M  V30 328 C 31.6169 -0.808706 3.02372 0
M  V30 329 C 32.0919 -0.951777 4.48001 0
M  V30 330 N 33.5829 -1.01688 4.519 0
M  V30 331 C 34.3179 -1.14668 5.61817 0
M  V30 332 N 33.8139 -1.24261 6.81565 0
M  V30 333 N 35.6069 -1.1791 5.49594 0
M  V30 334 H 27.7579 0.586291 2.04148 0
M  V30 335 H 30.0209 0.201015 0.926443 0
M  V30 336 H 29.7269 0.157027 3.51349 0
M  V30 337 H 29.6009 -1.59071 3.42018 0
M  V30 338 H 31.9879 -1.67195 2.43166 0
M  V30 339 H 32.0689 0.0912063 2.55637 0
M  V30 340 H 31.7129 -0.0931291 5.07815 0
M  V30 341 H 31.6429 -1.86659 4.92408 0
M  V30 342 H 34.1339 -0.954468 3.65648 0
M  V30 343 H 34.4469 -1.34046 7.61086 0
M  V30 344 H 32.7919 -1.21236 6.84344 0
M  V30 345 H 35.9829 -1.10057 4.54978 0
M  V30 346 H 36.1559 -1.27681 6.35296 0
M  V30 347 N 29.562 -1.4872 -0.521534 0
M  V30 348 C 30.787 -1.61101 -1.30618 0
M  V30 349 C 31.212 -0.274611 -1.86085 0
M  V30 350 O 30.57 0.754937 -1.64834 0
M  V30 351 C 30.618 -2.66709 -2.4269 0
M  V30 352 O 29.722 -2.24456 -3.45967 0
M  V30 353 H 29.063 -0.539921 -0.386499 0
M  V30 354 H 31.593 -1.94767 -0.626645 0
M  V30 355 H 31.603 -2.88245 -2.88754 0
M  V30 356 H 30.278 -3.63727 -2.01682 0
M  V30 357 H 28.855 -2.13168 -3.05964 0
M  V30 358 N 31.0401 0.771051 -1.3745 0
M  V30 359 C 32.0031 1.86598 -1.33093 0
M  V30 360 C 33.0031 1.59076 -0.234845 0
M  V30 361 O 34.1931 1.67145 -0.490732 0
M  V30 362 C 31.3251 3.23747 -1.06773 0
M  V30 363 H 32.5181 1.91873 -2.30488 0
M  V30 364 H 30.0711 0.970876 -1.2249 0
M  V30 365 H 30.8061 3.24148 -0.099129 0
M  V30 366 H 30.5911 3.45115 -1.86112 0
M  V30 367 H 32.0811 4.03824 -1.06377 0
M  V30 368 N 32.5182 1.22032 0.997298 0
M  V30 369 C 33.4812 0.987909 2.06816 0
M  V30 370 C 34.4812 -0.0440084 1.6074 0
M  V30 371 O 35.6712 0.194053 1.73116 0
M  V30 372 C 32.8032 0.49132 3.37341 0
M  V30 373 H 33.9962 1.93803 2.28868 0
M  V30 374 H 31.5492 1.03838 1.16822 0
M  V30 375 H 32.2842 -0.463364 3.20973 0
M  V30 376 H 32.0692 1.23575 3.72118 0
M  V30 377 H 33.5592 0.348824 4.16141 0
M  V30 378 N 33.9963 -1.19345 1.0293 0
M  V30 379 C 34.9063 -2.26245 0.620515 0
M  V30 380 C 35.9223 -1.70486 -0.347928 0
M  V30 381 O 37.0983 -2.00347 -0.205704 0
M  V30 382 C 34.1633 -3.46693 -0.0218957 0
M  V30 383 C 33.2243 -4.17632 0.994102 0
M  V30 384 C 32.4573 -5.32329 0.382253 0
M  V30 385 O 32.6803 -5.64552 -0.814676 0
M  V30 386 O 31.6143 -5.91664 1.10531 0
M  V30 387 H 35.4403 -2.63453 1.51083 0
M  V30 388 H 33.0253 -1.26207 0.799513 0
M  V30 389 H 34.9073 -4.19683 -0.380072 0
M  V30 390 H 33.5823 -3.11333 -0.886209 0
M  V30 391 H 32.4893 -3.4676 1.40387 0
M  V30 392 H 33.8223 -4.56964 1.8288 0
M  V30 393 N 35.4744 -0.807222 -1.35358 0
M  V30 394 C 36.7024 -0.400377 -2.02989 0
M  V30 395 C 37.1174 0.988859 -1.60832 0
M  V30 396 O 36.4744 1.63729 -0.806175 0
M  V30 397 C 36.5254 -0.474867 -3.58368 0
M  V30 398 O 36.2464 -1.80933 -3.98992 0
M  V30 399 C 37.7474 -0.0609112 -4.43258 0
M  V30 400 H 34.9674 -0.162587 -0.651004 0
M  V30 401 H 37.5114 -1.09102 -1.72965 0
M  V30 402 H 35.6664 0.167534 -3.87038 0
M  V30 403 H 36.0804 -1.77256 -4.9364 0
M  V30 404 H 37.5544 -0.164145 -5.51756 0
M  V30 405 H 38.0314 0.993831 -4.27808 0
M  V30 406 H 38.6374 -0.676492 -4.19885 0
M  V30 407 N 36.9525 1.47285 -0.560781 0
M  V30 408 C 38.1985 2.02764 -0.0381184 0
M  V30 409 C 38.5315 1.43384 1.30976 0
M  V30 410 O 37.8065 0.590733 1.85312 0
M  V30 411 C 38.0895 3.60064 0.0511427 0
M  V30 412 C 37.9425 4.2987 -1.32408 0
M  V30 413 C 39.2615 4.33439 0.762795 0
M  V30 414 H 36.3805 0.736841 -0.0153264 0
M  V30 415 H 39.0225 1.75675 -0.723759 0
M  V30 416 H 37.1725 3.83274 0.635065 0
M  V30 417 H 38.8445 4.17989 -1.95148 0
M  V30 418 H 37.0875 3.90085 -1.8978 0
M  V30 419 H 37.7585 5.38478 -1.21431 0
M  V30 420 H 40.2345 4.15243 0.266965 0
M  V30 421 H 39.1105 5.43124 0.794221 0
M  V30 422 H 39.3715 4.02915 1.81966 0
M  V30 423 N 38.4306 0.297415 1.54768 0
M  V30 424 C 39.6586 -0.315623 2.04478 0
M  V30 425 C 40.0736 -1.47792 1.17486 0
M  V30 426 O 39.4306 -1.81404 0.19971 0
M  V30 427 C 39.4816 -0.7753 3.53088 0
M  V30 428 O 39.2026 0.340732 4.36773 0
M  V30 429 C 40.7036 -1.45386 4.18781 0
M  V30 430 H 37.9236 -0.0690887 0.667434 0
M  V30 431 H 40.4676 0.436003 1.99798 0
M  V30 432 H 38.6226 -1.47696 3.58141 0
M  V30 433 H 39.0366 -0.0165035 5.24497 0
M  V30 434 H 40.5106 -1.72669 5.24299 0
M  V30 435 H 40.9876 -2.39275 3.68299 0
M  V30 436 H 41.5936 -0.795475 4.17795 0
M  V30 437 N 39.9087 -1.5758 0.0250728 0
M  V30 438 C 40.8557 -2.09973 -0.958129 0
M  V30 439 C 41.8257 -1.00085 -1.3256 0
M  V30 440 O 43.0107 -1.27481 -1.41962 0
M  V30 441 C 40.1507 -2.62812 -2.2366 0
M  V30 442 C 39.2637 -3.86693 -1.92594 0
M  V30 443 C 38.3987 -4.27941 -3.14707 0
M  V30 444 C 37.4377 -5.44591 -2.79442 0
M  V30 445 N 36.5747 -5.81014 -3.94167 0
M  V30 446 H 41.4147 -2.937 -0.504428 0
M  V30 447 H 38.9517 -1.45172 -0.237392 0
M  V30 448 H 40.9097 -2.91536 -2.98434 0
M  V30 449 H 39.5397 -1.81922 -2.66654 0
M  V30 450 H 38.5917 -3.64723 -1.0808 0
M  V30 451 H 39.9037 -4.71547 -1.62619 0
M  V30 452 H 39.0577 -4.58079 -3.97804 0
M  V30 453 H 37.7967 -3.41845 -3.4784 0
M  V30 454 H 36.8017 -5.1415 -1.94755 0
M  V30 455 H 38.0267 -6.32382 -2.47528 0
M  V30 456 H 35.9727 -4.97874 -4.2715 0
M  V30 457 H 35.8897 -6.60498 -3.67801 0
M  V30 458 H 37.1577 -6.15756 -4.7798 0
M  V30 459 N 41.3868 0.248026 -1.55636 0
M  V30 460 C 42.6348 0.974295 -1.77065 0
M  V30 461 C 42.9558 1.85897 -0.588849 0
M  V30 462 O 42.2258 1.91868 0.395407 0
M  V30 463 H 40.8058 0.362733 -0.653019 0
M  V30 464 H 43.4678 0.266244 -1.93073 0
M  V30 465 H 42.5638 1.59667 -2.68166 0
M  V30 466 N 42.8649 1.48995 0.513639 0
M  V30 467 C 44.1129 1.57531 1.26604 0
M  V30 468 C 44.4339 0.258236 1.93283 0
M  V30 469 O 43.7039 -0.721502 1.8213 0
M  V30 470 H 42.2839 0.580387 0.470276 0
M  V30 471 H 44.9459 1.85552 0.596373 0
M  V30 472 H 44.0419 2.36486 2.03669 0
M  V30 473 N 44.343 -0.763751 1.37857 0
M  V30 474 C 45.592 -1.51789 1.32827 0
M  V30 475 C 45.905 -1.95426 -0.0823719 0
M  V30 476 O 47.111 -2.70298 -0.255172 0
M  V30 477 C 45.567 -2.74133 2.33193 0
M  V30 478 C 45.175 -2.37562 3.79827 0
M  V30 479 C 46.919 -3.52054 2.37188 0
M  V30 480 C 44.826 -3.56456 4.71904 0
M  V30 481 H 43.756 -0.569896 0.493695 0
M  V30 482 H 46.407 -0.835822 1.63359 0
M  V30 483 H 44.789 -3.4427 1.9569 0
M  V30 484 H 45.963 -1.75157 4.26212 0
M  V30 485 H 44.278 -1.72798 3.78853 0
M  V30 486 H 46.875 -4.40437 3.03182 0
M  V30 487 H 47.218 -3.92486 1.38782 0
M  V30 488 H 47.751 -2.88921 2.7344 0
M  V30 489 H 44.49 -3.21099 5.71468 0
M  V30 490 H 44.01 -4.17938 4.30218 0
M  V30 491 H 45.689 -4.23168 4.89426 0
M  V30 492 N 45.8211 -1.22559 -0.990812 0
M  V30 493 C 46.7541 -0.940773 -2.07905 0
M  V30 494 C 47.7321 0.117082 -1.62178 0
M  V30 495 O 48.9161 -0.0149506 -1.88494 0
M  V30 496 C 46.0431 -0.415321 -3.36144 0
M  V30 497 C 45.0891 -1.45818 -4.00799 0
M  V30 498 S 45.9221 -3.03219 -4.41382 0
M  V30 499 C 47.0781 -2.52317 -5.72789 0
M  V30 500 H 47.3111 -1.8623 -2.31745 0
M  V30 501 H 44.8441 -1.05688 -1.12558 0
M  V30 502 H 46.8021 -0.118747 -4.10328 0
M  V30 503 H 45.4631 0.485121 -3.10331 0
M  V30 504 H 44.6561 -1.04044 -4.93144 0
M  V30 505 H 44.2581 -1.70356 -3.32949 0
M  V30 506 H 46.5501 -1.93688 -6.49224 0
M  V30 507 H 47.4931 -3.43161 -6.19392 0
M  V30 508 H 47.9011 -1.93529 -5.30289 0
M  V30 509 N 47.2992 1.18797 -1.03562 0
M  V30 510 C 48.2292 2.24472 -0.643019 0
M  V30 511 C 49.2102 1.66433 0.351283 0
M  V30 512 O 50.3952 1.92803 0.232505 0
M  V30 513 C 47.5252 3.473 4.24935e-05 0
M  V30 514 C 46.4792 4.18055 -0.917257 0
M  V30 515 C 45.8052 5.34519 -0.138941 0
M  V30 516 C 47.1052 4.72109 -2.23407 0
M  V30 517 H 48.7992 2.57566 -1.52643 0
M  V30 518 H 46.3452 1.23806 -0.735394 0
M  V30 519 H 48.2982 4.20426 0.286383 0
M  V30 520 H 47.0222 3.13424 0.918299 0
M  V30 521 H 45.6812 3.46821 -1.1879 0
M  V30 522 H 45.3292 4.96891 0.781562 0
M  V30 523 H 45.0292 5.82794 -0.750005 0
M  V30 524 H 46.5532 6.10438 0.1405 0
M  V30 525 H 47.9672 5.36955 -2.00879 0
M  V30 526 H 46.3642 5.30897 -2.79765 0
M  V30 527 H 47.4342 3.89807 -2.88407 0
M  V30 528 N 48.7773 0.814389 1.34928 0
M  V30 529 C 50.1883 0.458364 1.80986 0
M  V30 530 C 50.5393 -1.02042 1.67577 0
M  V30 531 O 49.6643 -1.79352 1.21086 0
M  V30 532 C 50.2593 0.825212 3.28597 0
M  V30 533 C 48.8183 0.521677 3.72767 0
M  V30 534 C 47.9653 1.04668 2.56788 0
M  V30 535 H 50.9163 1.00533 1.22795 0
M  V30 536 H 50.9373 0.12571 3.80292 0
M  V30 537 H 50.4493 1.90154 3.38324 0
M  V30 538 H 48.5503 -0.545589 3.68584 0
M  V30 539 H 48.6633 1.05977 4.67232 0
M  V30 540 H 47.0273 0.468622 2.50352 0
M  V30 541 H 47.8103 2.12927 2.6929 0
M  V30 542 N 50.2554 -1.46986 0.568584 0
M  V30 543 C 51.1654 -2.33942 -0.17555 0
M  V30 544 C 52.1814 -1.48891 -0.90041 0
M  V30 545 O 53.3574 -1.81794 -0.86676 0
M  V30 546 C 50.4224 -3.25811 -1.18524 0
M  V30 547 C 49.4834 -4.26757 -0.466582 0
M  V30 548 C 48.7164 -5.14236 -1.42817 0
M  V30 549 O 48.9394 -5.04379 -2.66379 0
M  V30 550 O 47.8734 -5.94412 -0.946453 0
M  V30 551 H 51.6994 -2.98896 0.538036 0
M  V30 552 H 49.2844 -1.4573 0.329097 0
M  V30 553 H 51.1664 -3.82527 -1.76779 0
M  V30 554 H 49.8414 -2.63471 -1.88055 0
M  V30 555 H 48.7484 -3.73769 0.157451 0
M  V30 556 H 50.0814 -4.91843 0.187485 0
M  V30 557 N 51.7335 -0.305618 -1.54608 0
M  V30 558 C 52.6805 0.568421 -2.23691 0
M  V30 559 C 53.6505 1.12592 -1.22116 0
M  V30 560 O 54.8355 1.16959 -1.50749 0
M  V30 561 C 51.9755 1.7322 -2.98477 0
M  V30 562 C 51.0885 1.20566 -4.14835 0
M  V30 563 C 50.2235 2.33368 -4.77193 0
M  V30 564 C 49.2625 1.7787 -5.85686 0
M  V30 565 N 48.3995 2.84263 -6.4198 0
M  V30 566 H 53.2395 -0.0272867 -2.97988 0
M  V30 567 H 50.7765 -0.0252363 -1.47078 0
M  V30 568 H 52.7345 2.41675 -3.40072 0
M  V30 569 H 51.3645 2.29947 -2.26548 0
M  V30 570 H 50.4165 0.413223 -3.78149 0
M  V30 571 H 51.7285 0.759417 -4.92985 0
M  V30 572 H 50.8825 3.09761 -5.21664 0
M  V30 573 H 49.6215 2.8132 -3.98385 0
M  V30 574 H 48.6265 0.99968 -5.40635 0
M  V30 575 H 49.8515 1.30816 -6.66381 0
M  V30 576 H 47.7975 3.31541 -5.66053 0
M  V30 577 H 47.7145 2.44149 -7.15491 0
M  V30 578 H 48.9825 3.6054 -6.91109 0
M  V30 579 N 53.2116 1.57565 -0.0334293 0
M  V30 580 C 54.4366 1.96689 0.657895 0
M  V30 581 C 54.8616 0.910057 1.64619 0
M  V30 582 O 54.2196 -0.128598 1.80843 0
M  V30 583 C 54.2676 3.34905 1.33683 0
M  V30 584 O 53.3716 3.31574 2.45219 0
M  V30 585 H 52.7126 0.641205 0.172489 0
M  V30 586 H 55.2426 2.04372 -0.0965621 0
M  V30 587 H 55.2526 3.71234 1.69262 0
M  V30 588 H 53.9276 4.11366 0.612411 0
M  V30 589 H 52.5046 3.06968 2.11719 0
M  V30 590 N 54.6897 -0.239769 1.55765 0
M  V30 591 C 55.6217 -1.32001 1.87372 0
M  V30 592 C 56.6347 -1.43944 0.760522 0
M  V30 593 O 57.8237 -1.45167 1.0387 0
M  V30 594 C 54.9237 -2.69779 2.05115 0
M  V30 595 C 54.0967 -2.80014 3.36022 0
M  V30 596 C 53.1557 -3.98684 3.4342 0
M  V30 597 O 52.1817 -3.87877 4.16582 0
M  V30 598 N 53.3837 -5.12176 2.73232 0
M  V30 599 H 56.1487 -1.0522 2.80622 0
M  V30 600 H 53.7097 -0.429857 1.56089 0
M  V30 601 H 55.7017 -3.47517 2.07399 0
M  V30 602 H 54.2717 -2.89237 1.18577 0
M  V30 603 H 53.4917 -1.88896 3.45994 0
M  V30 604 H 54.7797 -2.83808 4.22292 0
M  V30 605 H 54.1777 -5.2385 2.13536 0
M  V30 606 H 52.7347 -5.88022 2.81199 0
M  V30 607 N 56.1678 -1.49265 -0.50573 0
M  V30 608 C 57.4158 -1.582 -1.25766 0
M  V30 609 C 57.7368 -0.268482 -1.93143 0
M  V30 610 O 57.0068 0.711833 -1.8251 0
M  V30 611 H 55.5868 -0.582873 -0.467191 0
M  V30 612 H 58.2488 -1.85865 -0.586525 0
M  V30 613 H 57.3448 -2.37563 -2.02412 0
M  V30 614 N 57.6459 0.756429 -1.3826 0
M  V30 615 C 58.5929 1.87011 -1.35261 0
M  V30 616 C 59.5629 1.64695 -0.215616 0
M  V30 617 O 60.7479 1.864 -0.407399 0
M  V30 618 C 57.8879 3.24275 -1.18068 0
M  V30 619 C 57.0009 3.58442 -2.41129 0
M  V30 620 C 56.1359 4.84994 -2.16689 0
M  V30 621 C 55.1749 5.11939 -3.35537 0
M  V30 622 N 54.3119 6.29685 -3.10549 0
M  V30 623 H 59.1519 1.8891 -2.30472 0
M  V30 624 H 56.6889 0.923373 -1.14509 0
M  V30 625 H 58.6469 4.03479 -1.06116 0
M  V30 626 H 57.2769 3.21711 -0.264973 0
M  V30 627 H 56.3289 2.74103 -2.63764 0
M  V30 628 H 57.6409 3.74283 -3.29717 0
M  V30 629 H 56.7949 5.72135 -2.01857 0
M  V30 630 H 55.5339 4.71286 -1.25462 0
M  V30 631 H 54.5389 4.23268 -3.50891 0
M  V30 632 H 55.7639 5.27546 -4.27635 0
M  V30 633 H 53.7099 6.17306 -2.21967 0
M  V30 634 H 53.6269 6.46014 -3.92686 0
M  V30 635 H 54.8949 7.19722 -2.99367 0
M  V30 636 N 59.124 1.23083 0.984299 0
M  V30 637 C 60.37 1.06214 1.72761 0
M  V30 638 C 60.703 -0.400584 1.90024 0
M  V30 639 O 59.978 -1.29672 1.44967 0
M  V30 640 C 60.261 1.78375 3.12817 0
M  V30 641 C 60.114 3.32296 3.03149 0
M  V30 642 C 61.433 1.54309 4.12161 0
M  V30 643 H 58.552 0.387251 0.627061 0
M  V30 644 H 61.194 1.51536 1.14616 0
M  V30 645 H 59.344 1.39848 3.62457 0
M  V30 646 H 61.016 3.8032 2.61064 0
M  V30 647 H 59.259 3.6153 2.39747 0
M  V30 648 H 59.93 3.77972 4.02295 0
M  V30 649 H 62.406 1.87791 3.71314 0
M  V30 650 H 61.282 2.07281 5.08258 0
M  V30 651 H 61.543 0.477572 4.39513 0
M  V30 652 N 60.6021 -1.18246 1.0419 0
M  V30 653 C 61.5321 -2.24127 0.654914 0
M  V30 654 C 62.5131 -1.66617 -0.342451 0
M  V30 655 O 63.6981 -1.92924 -0.222277 0
M  V30 656 C 60.8281 -3.47295 0.0183757 0
M  V30 657 C 59.7821 -4.17563 0.939414 0
M  V30 658 C 59.1081 -5.34438 0.167286 0
M  V30 659 C 60.4081 -4.70917 2.25908 0
M  V30 660 H 62.1021 -2.56753 1.54007 0
M  V30 661 H 59.6481 -1.23414 0.74195 0
M  V30 662 H 61.6011 -4.20572 -0.264082 0
M  V30 663 H 60.3251 -3.13907 -0.901664 0
M  V30 664 H 58.9841 -3.46186 1.20628 0
M  V30 665 H 58.6321 -4.97298 -0.7552 0
M  V30 666 H 58.3321 -5.82388 0.780901 0
M  V30 667 H 59.8561 -6.10504 -0.108125 0
M  V30 668 H 61.2701 -5.35882 2.03724 0
M  V30 669 H 59.6671 -5.29406 2.82577 0
M  V30 670 H 60.7371 -3.88272 2.9047 0
M  V30 671 N 62.0802 -0.821533 -1.34494 0
M  V30 672 C 63.0122 -0.199946 -2.28326 0
M  V30 673 C 64.0252 0.609377 -1.50965 0
M  V30 674 O 65.2142 0.439285 -1.7301 0
M  V30 675 C 62.3142 0.738431 -3.30757 0
M  V30 676 C 61.4872 -0.0277632 -4.37391 0
M  V30 677 C 60.5462 0.831332 -5.19591 0
M  V30 678 O 59.5722 0.276822 -5.68526 0
M  V30 679 N 60.7742 2.15132 -5.39165 0
M  V30 680 H 63.5392 -1.00609 -2.82308 0
M  V30 681 H 61.1002 -0.678366 -1.47003 0
M  V30 682 H 63.0922 1.31773 -3.82646 0
M  V30 683 H 61.6622 1.44533 -2.7718 0
M  V30 684 H 60.8822 -0.788359 -3.86236 0
M  V30 685 H 62.1702 -0.555251 -5.05761 0
M  V30 686 H 61.5682 2.62559 -5.01078 0
M  V30 687 H 60.1252 2.6795 -5.94177 0
M  V30 688 N 63.5583 1.46682 -0.576371 0
M  V30 689 C 64.5213 2.28707 0.150239 0
M  V30 690 C 65.5213 1.38035 0.824794 0
M  V30 691 O 66.7113 1.60476 0.677719 0
M  V30 692 C 63.8433 3.18248 1.22192 0
M  V30 693 H 65.0363 2.94423 -0.570521 0
M  V30 694 H 62.5893 1.52688 -0.334078 0
M  V30 695 H 63.3243 2.57265 1.97447 0
M  V30 696 H 63.1093 3.85 0.742812 0
M  V30 697 H 64.5993 3.80001 1.73172 0
M  V30 698 N 65.0364 0.313813 1.54444 0
M  V30 699 C 66.2644 -0.293918 2.04802 0
M  V30 700 C 66.6794 -1.46537 1.19047 0
M  V30 701 O 66.0364 -1.81182 0.218939 0
M  V30 702 C 66.0874 -0.737806 3.53891 0
M  V30 703 O 65.8084 0.387038 4.36387 0
M  V30 704 C 67.3094 -1.40936 4.203 0
M  V30 705 H 64.5294 -0.0620057 0.668129 0
M  V30 706 H 67.0734 0.457169 1.99324 0
M  V30 707 H 65.2284 -1.43889 3.59687 0
M  V30 708 H 65.6424 0.0391274 5.24485 0
M  V30 709 H 67.1164 -1.67099 5.26101 0
M  V30 710 H 67.5934 -2.35355 3.70816 0
M  V30 711 H 68.1994 -0.751117 4.18615 0
M  V30 712 N 66.5145 -1.57545 0.0417849 0
M  V30 713 C 67.7605 -1.92601 -0.635021 0
M  V30 714 C 68.0935 -0.919627 -1.71045 0
M  V30 715 O 67.3685 0.0557892 -1.9442 0
M  V30 716 C 67.6515 -3.38085 -1.23979 0
M  V30 717 C 67.5045 -4.49467 -0.173057 0
M  V30 718 C 68.8235 -3.83776 -2.15416 0
M  V30 719 H 65.9425 -0.700397 -0.229374 0
M  V30 720 H 68.5845 -1.89728 0.101633 0
M  V30 721 H 66.7345 -3.40664 -1.86762 0
M  V30 722 H 68.4065 -4.59018 0.458312 0
M  V30 723 H 66.6495 -4.30909 0.499996 0
M  V30 724 H 67.3205 -5.48323 -0.636054 0
M  V30 725 H 69.7965 -3.83013 -1.62605 0
M  V30 726 H 68.6725 -4.8624 -2.54679 0
M  V30 727 H 68.9335 -3.19998 -3.05047 0
M  V30 728 N 67.9926 0.231505 -1.5589 0
M  V30 729 C 69.2386 0.95877 -1.78705 0
M  V30 730 C 69.5716 1.8438 -0.609725 0
M  V30 731 O 68.8466 1.90521 0.391426 0
M  V30 732 C 69.1296 1.8062 -3.11526 0
M  V30 733 C 68.9826 0.948328 -4.39689 0
M  V30 734 C 70.3016 2.78585 -3.40703 0
M  V30 735 H 67.4206 0.347129 -0.650131 0
M  V30 736 H 70.0626 0.228259 -1.88624 0
M  V30 737 H 68.2126 2.42902 -3.03201 0
M  V30 738 H 69.8846 0.343016 -4.60023 0
M  V30 739 H 68.1276 0.253314 -4.3306 0
M  V30 740 H 68.7986 1.57543 -5.29041 0
M  V30 741 H 71.2746 2.26439 -3.49091 0
M  V30 742 H 70.1506 3.34988 -4.34826 0
M  V30 743 H 70.4116 3.55825 -2.62375 0
M  V30 744 N 69.4707 1.49531 0.497807 0
M  V30 745 C 70.4337 1.65916 1.58128 0
M  V30 746 C 71.4337 0.530825 1.51786 0
M  V30 747 O 72.6237 0.797342 1.54881 0
M  V30 748 C 69.7557 1.65951 2.9778 0
M  V30 749 H 70.9487 2.62556 1.44929 0
M  V30 750 H 68.5017 1.38611 0.722275 0
M  V30 751 H 69.2367 0.709065 3.16453 0
M  V30 752 H 69.0217 2.47897 3.03792 0
M  V30 753 H 70.5117 1.80673 3.76493 0
M  V30 754 N 70.9488 -0.749086 1.3866 0
M  V30 755 C 72.1948 -1.51056 1.35314 0
M  V30 756 C 72.5278 -1.94121 -0.0553751 0
M  V30 757 O 71.8028 -1.65763 -1.01749 0
M  V30 758 C 72.0858 -2.76003 2.31288 0
M  V30 759 C 71.9388 -2.39047 3.8102 0
M  V30 760 C 73.2578 -3.78046 2.2532 0
M  V30 761 H 70.3768 -0.547972 0.492844 0
M  V30 762 H 73.0188 -0.857628 1.69543 0
M  V30 763 H 71.1688 -3.31716 2.02229 0
M  V30 764 H 72.8408 -1.89074 4.20771 0
M  V30 765 H 71.0838 -1.71449 3.98482 0
M  V30 766 H 71.7548 -3.28462 4.4364 0
M  V30 767 H 74.2308 -3.31884 2.50983 0
M  V30 768 H 73.1068 -4.63159 2.94576 0
M  V30 769 H 73.3678 -4.23957 1.25352 0
M  V30 770 N 72.4269 -1.23603 -0.977757 0
M  V30 771 C 73.6749 -1.06759 -1.71601 0
M  V30 772 C 73.9959 0.395929 -1.90938 0
M  V30 773 O 73.2659 1.28356 -1.47992 0
M  V30 774 H 71.8459 -0.392062 -0.635843 0
M  V30 775 H 74.5079 -1.55362 -1.1768 0
M  V30 776 H 73.6039 -1.55763 -2.70452 0
M  V30 777 N 73.905 1.17692 -1.04816 0
M  V30 778 C 75.13 1.92327 -0.776207 0
M  V30 779 C 75.555 1.76082 0.661581 0
M  V30 780 O 74.913 1.076 1.45917 0
M  V30 781 C 74.961 3.41539 -1.15687 0
M  V30 782 O 74.065 4.11402 -0.286775 0
M  V30 783 H 73.406 0.599735 -0.284981 0
M  V30 784 H 75.936 1.49201 -1.4 0
M  V30 785 H 75.946 3.92269 -1.12202 0
M  V30 786 H 74.621 3.52684 -2.20425 0
M  V30 787 H 73.198 3.70939 -0.381903 0
M  V30 788 N 75.3831 0.828654 1.34056 0
M  V30 789 C 76.6311 0.41863 1.97717 0
M  V30 790 C 76.9521 -1.02314 1.66002 0
M  V30 791 O 76.2221 -1.71119 0.953683 0
M  V30 792 H 74.8021 0.151809 0.731412 0
M  V30 793 H 77.4641 1.05936 1.63596 0
M  V30 794 H 76.5601 0.542318 3.07352 0
M  V30 795 N 76.8612 -1.46375 0.584142 0
M  V30 796 C 78.0862 -2.07268 0.0740405 0
M  V30 797 C 78.5112 -1.42979 -1.22223 0
M  V30 798 O 77.8692 -0.514092 -1.73859 0
M  V30 799 C 77.9172 -3.60518 -0.0767769 0
M  V30 800 O 77.0212 -3.96533 -1.13292 0
M  V30 801 H 76.3622 -0.660961 0.0634524 0
M  V30 802 H 78.8922 -1.87991 0.807492 0
M  V30 803 H 78.9022 -4.07021 -0.282489 0
M  V30 804 H 77.5772 -4.06702 0.86986 0
M  V30 805 H 76.1542 -3.61738 -0.905553 0
M  V30 806 N 78.3393 -0.321999 -1.54275 0
M  V30 807 C 79.2863 0.544664 -2.24281 0
M  V30 808 C 80.2563 1.1129 -1.23303 0
M  V30 809 O 81.4413 1.15354 -1.51981 0
M  V30 810 C 78.5813 1.70045 -3.00298 0
M  V30 811 C 77.6943 1.16159 -4.1609 0
M  V30 812 C 76.8293 2.28293 -4.79641 0
M  V30 813 C 75.8683 1.71648 -5.8754 0
M  V30 814 N 75.0053 2.77438 -6.44959 0
M  V30 815 H 79.8453 -0.0588907 -2.97942 0
M  V30 816 H 77.3823 -0.0408345 -1.47043 0
M  V30 817 H 79.3403 2.38054 -3.42616 0
M  V30 818 H 77.9703 2.27531 -2.28975 0
M  V30 819 H 77.0223 0.373092 -3.78566 0
M  V30 820 H 78.3343 0.707087 -4.93763 0
M  V30 821 H 77.4883 3.0421 -5.2492 0
M  V30 822 H 76.2273 2.77079 -4.01346 0
M  V30 823 H 75.2323 0.942282 -5.41665 0
M  V30 824 H 76.4573 1.23741 -6.67731 0
M  V30 825 H 74.4033 3.25519 -5.69538 0
M  V30 826 H 74.3203 2.36547 -7.1804 0
M  V30 827 H 75.5883 3.53189 -6.94894 0
M  V30 828 N 79.8174 1.5752 -0.0501392 0
M  V30 829 C 81.0654 1.9227 0.622642 0
M  V30 830 C 81.3864 0.929083 1.71444 0
M  V30 831 O 80.6564 -0.0262186 1.95882 0
M  V30 832 H 79.2364 0.709739 0.232981 0
M  V30 833 H 81.8984 1.94628 -0.102898 0
M  V30 834 H 80.9944 2.93479 1.06191 0
M  V30 835 N 81.2955 -0.223234 1.56011 0
M  V30 836 C 82.2425 -1.27664 1.92277 0
M  V30 837 C 83.2125 -1.46659 0.779763 0
M  V30 838 O 84.3975 -1.60256 1.03551 0
M  V30 839 C 81.5375 -2.62234 2.24338 0
M  V30 840 C 80.6505 -2.51051 3.51564 0
M  V30 841 C 79.7855 -3.78133 3.7308 0
M  V30 842 C 78.8245 -3.61665 4.93827 0
M  V30 843 N 77.9615 -4.80693 5.11741 0
M  V30 844 H 82.8015 -0.960358 2.82101 0
M  V30 845 H 80.3385 -0.462901 1.39627 0
M  V30 846 H 82.2965 -3.40596 2.40936 0
M  V30 847 H 80.9265 -2.91961 1.3769 0
M  V30 848 H 79.9785 -1.64132 3.43169 0
M  V30 849 H 81.2905 -2.34803 4.40079 0
M  V30 850 H 80.4445 -4.64938 3.89766 0
M  V30 851 H 79.1835 -3.97304 2.82844 0
M  V30 852 H 78.1885 -2.73244 4.77093 0
M  V30 853 H 79.4135 -3.43966 5.85546 0
M  V30 854 H 77.3595 -5.00181 4.24446 0
M  V30 855 H 77.2765 -4.67165 5.94384 0
M  V30 856 H 78.5445 -5.6893 5.3286 0
M  V30 857 N 82.7736 -1.49793 -0.48987 0
M  V30 858 C 84.0216 -1.59525 -1.24081 0
M  V30 859 C 84.3426 -0.288953 -1.92847 0
M  V30 860 O 83.6126 0.692436 -1.83254 0
M  V30 861 H 82.1926 -0.587796 -0.460983 0
M  V30 862 H 84.8546 -1.86477 -0.566778 0
M  V30 863 H 83.9506 -2.39696 -1.99881 0
M  V30 864 N 84.2517 0.741722 -1.39055 0
M  V30 865 C 85.4997 1.49818 -1.35643 0
M  V30 866 C 85.8207 1.94938 0.0491642 0
M  V30 867 O 85.0907 1.68505 0.999141 0
M  V30 868 H 83.6707 0.555755 -0.499144 0
M  V30 869 H 86.3327 0.880957 -1.73854 0
M  V30 870 H 85.4287 2.38348 -2.01486 0
M  V30 871 N 85.7298 1.2412 0.971189 0
M  V30 872 C 86.6398 1.04747 2.09917 0
M  V30 873 C 87.6558 -0.0107162 1.73997 0
M  V30 874 O 88.8318 0.186714 2.00533 0
M  V30 875 C 85.8968 0.650828 3.40537 0
M  V30 876 C 84.9578 1.7851 3.90426 0
M  V30 877 C 84.1908 1.40729 5.14812 0
M  V30 878 O 84.4138 0.29557 5.69634 0
M  V30 879 O 83.3478 2.23168 5.58999 0
M  V30 880 H 87.1738 1.99304 2.29154 0
M  V30 881 H 84.7588 1.02908 1.08307 0
M  V30 882 H 86.6408 0.440992 4.19086 0
M  V30 883 H 85.3158 -0.265649 3.22608 0
M  V30 884 H 84.2228 2.04966 3.12953 0
M  V30 885 H 85.5558 2.68023 4.12825 0
M  V30 886 N 87.2079 -1.17134 1.05439 0
M  V30 887 C 88.4569 -1.86791 0.761049 0
M  V30 888 C 88.7699 -1.82072 -0.714795 0
M  V30 889 O 89.9759 -2.47223 -1.12218 0
M  V30 890 C 88.4319 -3.35166 1.31117 0
M  V30 891 C 88.0399 -3.48381 2.81664 0
M  V30 892 C 89.7839 -4.10134 1.09499 0
M  V30 893 C 87.6909 -4.90793 3.29964 0
M  V30 894 H 86.6209 -0.699681 0.281002 0
M  V30 895 H 89.2719 -1.3226 1.27199 0
M  V30 896 H 87.6539 -3.8925 0.72803 0
M  V30 897 H 88.8279 -3.04502 3.45855 0
M  V30 898 H 87.1429 -2.86836 3.01851 0
M  V30 899 H 89.7399 -5.152 1.43084 0
M  V30 900 H 90.0829 -4.16287 0.0328772 0
M  V30 901 H 90.6159 -3.62264 1.64346 0
M  V30 902 H 87.3549 -4.89816 4.35616 0
M  V30 903 H 86.8749 -5.35333 2.70516 0
M  V30 904 H 88.5539 -5.59573 3.24787 0
M  V30 905 N 88.686 -0.835752 -1.33615 0
M  V30 906 C 89.618 -0.224151 -2.28101 0
M  V30 907 C 90.631 0.593331 -1.51603 0
M  V30 908 O 91.82 0.420911 -1.73466 0
M  V30 909 C 88.92 0.703309 -3.31522 0
M  V30 910 C 88.093 -0.0741528 -4.37337 0
M  V30 911 C 87.152 0.776176 -5.20444 0
M  V30 912 O 86.178 0.216506 -5.68788 0
M  V30 913 N 87.38 2.09401 -5.41416 0
M  V30 914 H 90.145 -1.03598 -2.81225 0
M  V30 915 H 87.706 -0.69392 -1.46275 0
M  V30 916 H 89.698 1.27707 -3.84022 0
M  V30 917 H 88.268 1.41585 -2.78698 0
M  V30 918 H 87.488 -0.82928 -3.85378 0
M  V30 919 H 88.776 -0.608863 -5.05144 0
M  V30 920 H 88.174 2.57229 -5.03835 0
M  V30 921 H 86.731 2.61633 -5.96985 0
M  V30 922 N 90.1641 1.46063 -0.591896 0
M  V30 923 C 91.5751 1.85944 -0.167822 0
M  V30 924 C 91.9261 1.49429 1.27143 0
M  V30 925 O 91.0511 0.913515 1.96173 0
M  V30 926 C 91.6461 3.37489 -0.297794 0
M  V30 927 C 90.2051 3.76332 0.0714732 0
M  V30 928 C 89.3521 2.7006 -0.629509 0
M  V30 929 H 92.3031 1.37087 -0.799555 0
M  V30 930 H 92.3241 3.77532 0.474349 0
M  V30 931 H 91.8361 3.64034 -1.3454 0
M  V30 932 H 89.9371 3.55405 1.11886 0
M  V30 933 H 90.0501 4.78088 -0.311245 0
M  V30 934 H 88.4141 2.54607 -0.0687867 0
M  V30 935 H 89.1971 2.99444 -1.67894 0
M  V30 936 N 91.6422 0.330177 1.54103 0
M  V30 937 C 92.8882 -0.270806 2.00984 0
M  V30 938 C 93.2212 -1.51265 1.21789 0
M  V30 939 O 92.4962 -1.92142 0.301927 0
M  V30 940 C 92.7792 -0.598339 3.55094 0
M  V30 941 C 92.6322 0.654674 4.4501 0
M  V30 942 C 93.9512 -1.41334 4.16789 0
M  V30 943 H 91.0702 -0.0969531 0.730595 0
M  V30 944 H 93.7122 0.448066 1.84641 0
M  V30 945 H 91.8622 -1.21078 3.69151 0
M  V30 946 H 93.5342 1.29285 4.42813 0
M  V30 947 H 91.7772 1.28224 4.14416 0
M  V30 948 H 92.4482 0.380944 5.50684 0
M  V30 949 H 94.9242 -0.895597 4.06347 0
M  V30 950 H 93.8002 -1.61127 5.24718 0
M  V30 951 H 94.0612 -2.41146 3.70541 0
M  V30 952 N 93.1203 -1.57491 0.0584922 0
M  V30 953 C 94.3453 -1.97711 -0.62652 0
M  V30 954 C 94.7703 -0.936132 -1.63151 0
M  V30 955 O 94.1283 0.099811 -1.81025 0
M  V30 956 C 94.1763 -3.36989 -1.28338 0
M  V30 957 O 93.2803 -3.35433 -2.39913 0
M  V30 958 H 92.6213 -0.643868 -0.162266 0
M  V30 959 H 95.1513 -2.04193 0.129064 0
M  V30 960 H 95.1613 -3.73879 -1.63335 0
M  V30 961 H 93.8363 -4.12289 -0.546889 0
M  V30 962 H 92.4133 -3.10298 -2.06809 0
M  V30 963 N 94.5984 0.214957 -1.56127 0
M  V30 964 C 95.8444 0.939762 -1.79712 0
M  V30 965 C 96.1774 1.83723 -0.629247 0
M  V30 966 O 95.4524 1.90925 0.371197 0
M  V30 967 C 95.7354 1.77306 -3.13424 0
M  V30 968 C 95.5884 0.90164 -4.40671 0
M  V30 969 C 96.9074 2.74956 -3.43638 0
M  V30 970 H 94.0264 0.340214 -0.653776 0
M  V30 971 H 96.6684 0.20824 -1.88855 0
M  V30 972 H 94.8184 2.39673 -3.0576 0
M  V30 973 H 96.4904 0.294206 -4.60361 0
M  V30 974 H 94.7334 0.207368 -4.33304 0
M  V30 975 H 95.4044 1.51923 -5.30682 0
M  V30 976 H 97.8804 2.22724 -3.51473 0
M  V30 977 H 96.7564 3.30358 -4.38355 0
M  V30 978 H 97.0174 3.53023 -2.66134 0
M  V30 979 N 96.0765 1.50051 0.48192 0
M  V30 980 C 97.0235 1.68122 1.58125 0
M  V30 981 C 97.9935 0.522545 1.57666 0
M  V30 982 O 99.1785 0.751844 1.75362 0
M  V30 983 C 96.3185 1.77142 2.96167 0
M  V30 984 C 95.4315 3.0444 3.06497 0
M  V30 985 C 94.5665 3.04321 4.35387 0
M  V30 986 C 93.6055 4.26118 4.3942 0
M  V30 987 N 92.7425 4.238 5.59766 0
M  V30 988 H 97.5825 2.6198 1.42022 0
M  V30 989 H 95.1195 1.29877 0.690687 0
M  V30 990 H 97.0775 1.80352 3.76203 0
M  V30 991 H 95.7075 0.867329 3.1093 0
M  V30 992 H 94.7595 3.10752 2.19402 0
M  V30 993 H 96.0715 3.94426 3.05336 0
M  V30 994 H 95.2255 3.062 5.23762 0
M  V30 995 H 93.9645 2.12147 4.39141 0
M  V30 996 H 92.9695 4.24463 3.49444 0
M  V30 997 H 94.1945 5.19507 4.37366 0
M  V30 998 H 92.1405 3.34474 5.64326 0
M  V30 999 H 92.0575 5.07542 5.60301 0
M  V30 1000 H 93.3255 4.2981 6.50295 0
M  V30 1001 N 97.5546 -0.734337 1.39446 0
M  V30 1002 C 98.8006 -1.49613 1.36908 0
M  V30 1003 C 99.1336 -1.94169 -0.0347829 0
M  V30 1004 O 98.4086 -1.66833 -0.999847 0
M  V30 1005 C 98.6916 -2.73534 2.34203 0
M  V30 1006 C 98.5446 -2.34993 3.83534 0
M  V30 1007 C 99.8636 -3.75635 2.29317 0
M  V30 1008 H 96.9826 -0.542714 0.498629 0
M  V30 1009 H 99.6246 -0.839597 1.70443 0
M  V30 1010 H 97.7746 -3.29553 2.05736 0
M  V30 1011 H 99.4466 -1.84601 4.22753 0
M  V30 1012 H 97.6896 -1.67213 4.00278 0
M  V30 1013 H 98.3606 -3.23738 4.47099 0
M  V30 1014 H 100.837 -3.29203 2.54489 0
M  V30 1015 H 99.7126 -4.60008 2.99472 0
M  V30 1016 H 99.9736 -4.22603 1.29842 0
M  V30 1017 N 99.0327 -1.24633 -0.964593 0
M  V30 1018 C 100.281 -1.08573 -1.70459 0
M  V30 1019 C 100.602 0.375655 -1.91347 0
M  V30 1020 O 99.8717 1.26779 -1.49345 0
M  V30 1021 H 98.4517 -0.398784 -0.631649 0
M  V30 1022 H 101.114 -1.56601 -1.16026 0
M  V30 1023 H 100.21 -1.58623 -2.68785 0
M  V30 1024 N 100.511 1.16574 -1.06058 0
M  V30 1025 C 101.788 1.83048 -0.689416 0
M  V30 1026 C 102.168 1.94122 0.829443 0
M  V30 1027 O 101.516 1.48249 1.7388 0
M  V30 1028 C 101.726 3.20186 -1.38859 0
M  V30 1029 C 103.074 3.95989 -1.53226 0
M  V30 1030 O 104.098 3.29696 -1.3483 0
M  V30 1031 O 102.957 5.14813 -1.83384 0
M  V30 1032 H 100.051 0.790258 -0.243764 0
M  V30 1033 H 102.597 1.23797 -1.16071 0
M  V30 1034 H 101.369 3.07146 -2.4244 0
M  V30 1035 H 100.992 3.87112 -0.907216 0
M  V30 1036 N 101.989 0.842826 1.3317 0
M  V30 1037 C 102.936 0.276885 2.29133 0
M  V30 1038 C 103.906 -0.609527 1.54512 0
M  V30 1039 O 105.091 -0.546955 1.82792 0
M  V30 1040 C 102.231 -0.538707 3.40869 0
M  V30 1041 C 101.344 0.372169 4.30394 0
M  V30 1042 C 100.479 -0.454908 5.29249 0
M  V30 1043 C 99.5179 0.45411 6.10413 0
M  V30 1044 N 98.6549 -0.335075 7.013 0
M  V30 1045 H 103.495 1.10052 2.76934 0
M  V30 1046 H 101.032 0.554161 1.36262 0
M  V30 1047 H 102.99 -1.02709 4.0436 0
M  V30 1048 H 101.62 -1.32727 2.9425 0
M  V30 1049 H 100.672 0.97888 3.6759 0
M  V30 1050 H 101.984 1.0703 4.87182 0
M  V30 1051 H 101.138 -1.00695 5.98285 0
M  V30 1052 H 99.8769 -1.18646 4.73048 0
M  V30 1053 H 98.8819 1.01813 5.40291 0
M  V30 1054 H 100.107 1.18409 6.68697 0
M  V30 1055 H 98.0529 -1.04994 6.47543 0
M  V30 1056 H 97.9699 0.304262 7.55387 0
M  V30 1057 H 99.2379 -0.869224 7.74638 0
M  V30 1058 N 103.467 -1.45747 0.599634 0
M  V30 1059 C 104.713 -2.02592 0.0918643 0
M  V30 1060 C 105.046 -1.46806 -1.27128 0
M  V30 1061 O 104.321 -0.639658 -1.83681 0
M  V30 1062 C 104.604 -3.60073 0.0443398 0
M  V30 1063 C 104.457 -4.26208 1.43759 0
M  V30 1064 C 105.776 -4.35309 -0.647608 0
M  V30 1065 H 102.895 -0.736175 0.034857 0
M  V30 1066 H 105.537 -1.73694 0.770081 0
M  V30 1067 H 103.687 -3.84823 -0.533224 0
M  V30 1068 H 105.359 -4.12668 2.06162 0
M  V30 1069 H 103.602 -3.84916 2.00056 0
M  V30 1070 H 104.273 -5.35069 1.35665 0
M  V30 1071 H 106.749 -4.15805 -0.156776 0
M  V30 1072 H 105.625 -5.45038 -0.649942 0
M  V30 1073 H 105.886 -4.07598 -1.71219 0
M  V30 1074 N 104.945 -0.338344 -1.53925 0
M  V30 1075 C 105.875 0.51328 -2.27789 0
M  V30 1076 C 106.856 1.107 -1.29149 0
M  V30 1077 O 108.041 1.12937 -1.57984 0
M  V30 1078 C 105.171 1.66697 -3.04679 0
M  V30 1079 C 104.125 1.20183 -4.1078 0
M  V30 1080 C 103.451 2.44363 -4.75595 0
M  V30 1081 C 104.751 0.30605 -5.21403 0
M  V30 1082 H 106.445 -0.102883 -2.99223 0
M  V30 1083 H 103.991 -0.0509219 -1.4391 0
M  V30 1084 H 105.944 2.26915 -3.55088 0
M  V30 1085 H 104.668 2.30995 -2.30887 0
M  V30 1086 H 103.327 0.622499 -3.61276 0
M  V30 1087 H 102.975 3.07057 -3.98403 0
M  V30 1088 H 102.675 2.13925 -5.47275 0
M  V30 1089 H 104.199 3.05317 -5.28786 0
M  V30 1090 H 105.613 0.814929 -5.67478 0
M  V30 1091 H 104.01 0.0937929 -6.00027 0
M  V30 1092 H 105.08 -0.65921 -4.80398 0
M  V30 1093 N 106.423 1.57458 -0.0668435 0
M  V30 1094 C 107.353 2.15468 0.899764 0
M  V30 1095 C 108.334 1.08042 1.31381 0
M  V30 1096 O 109.519 1.36054 1.38574 0
M  V30 1097 C 106.649 2.71232 2.16911 0
M  V30 1098 C 105.603 3.83781 1.89463 0
M  V30 1099 C 104.929 4.26127 3.22986 0
M  V30 1100 C 106.229 5.08238 1.20381 0
M  V30 1101 H 107.923 2.96488 0.416529 0
M  V30 1102 H 105.469 1.4262 0.198908 0
M  V30 1103 H 107.422 3.10458 2.84945 0
M  V30 1104 H 106.146 1.87426 2.67468 0
M  V30 1105 H 104.805 3.45051 1.23836 0
M  V30 1106 H 104.453 3.39249 3.71374 0
M  V30 1107 H 104.153 5.01993 3.05413 0
M  V30 1108 H 105.677 4.67966 3.92225 0
M  V30 1109 H 107.091 5.44811 1.78475 0
M  V30 1110 H 105.488 5.89349 1.13083 0
M  V30 1111 H 106.558 4.84558 0.182153 0
M  V30 1112 N 107.901 -0.206675 1.56239 0
M  V30 1113 C 109.312 -0.772383 1.69974 0
M  V30 1114 C 109.663 -1.84353 0.671436 0
M  V30 1115 O 108.788 -2.15695 -0.174491 0
M  V30 1116 C 109.383 -1.40779 3.08167 0
M  V30 1117 C 107.942 -1.92072 3.23706 0
M  V30 1118 C 107.089 -0.786347 2.65917 0
M  V30 1119 H 110.04 0.0182223 1.5869 0
M  V30 1120 H 110.061 -2.27696 3.04852 0
M  V30 1121 H 109.573 -0.627958 3.82986 0
M  V30 1122 H 107.674 -2.7281 2.53782 0
M  V30 1123 H 107.787 -2.09046 4.31087 0
M  V30 1124 H 106.151 -1.1976 2.24788 0
M  V30 1125 H 106.934 -0.0189416 3.43295 0
M  V30 1126 N 109.379 -1.50304 -0.473955 0
M  V30 1127 C 110.289 -1.7174 -1.5982 0
M  V30 1128 C 111.305 -0.600457 -1.63311 0
M  V30 1129 O 112.481 -0.878441 -1.81233 0
M  V30 1130 C 109.546 -1.80427 -2.96052 0
M  V30 1131 C 108.607 -3.04148 -3.02972 0
M  V30 1132 C 107.84 -3.12411 -4.32706 0
M  V30 1133 O 108.063 -2.27542 -5.23049 0
M  V30 1134 O 106.997 -4.05113 -4.45159 0
M  V30 1135 H 110.823 -2.67035 -1.44657 0
M  V30 1136 H 108.408 -1.34366 -0.653148 0
M  V30 1137 H 110.29 -1.88338 -3.7697 0
M  V30 1138 H 108.965 -0.883156 -3.11419 0
M  V30 1139 H 107.872 -3.0174 -2.21142 0
M  V30 1140 H 109.205 -3.95829 -2.92541 0
M  V30 1141 N 110.857 0.726932 -1.39834 0
M  V30 1142 C 112.087 1.51393 -1.40583 0
M  V30 1143 C 112.495 1.892 -0.000740625 0
M  V30 1144 O 111.838 1.55189 0.982951 0
M  V30 1145 C 111.9 2.82588 -2.22226 0
M  V30 1146 C 111.564 2.67169 -3.70769 0
M  V30 1147 C 112.561 2.3518 -4.63666 0
M  V30 1148 C 110.246 2.83788 -4.14451 0
M  V30 1149 C 112.24 2.20002 -5.98229 0
M  V30 1150 C 109.927 2.68229 -5.49087 0
M  V30 1151 C 110.925 2.36382 -6.4079 0
M  V30 1152 O 110.613 2.2093 -7.72946 0
M  V30 1153 H 110.345 0.474168 -0.48181 0
M  V30 1154 H 112.899 0.905247 -1.84376 0
M  V30 1155 H 111.129 3.45746 -1.73195 0
M  V30 1156 H 112.818 3.44247 -2.15055 0
M  V30 1157 H 113.584 2.21984 -4.31217 0
M  V30 1158 H 109.463 3.07566 -3.43401 0
M  V30 1159 H 113.007 1.95067 -6.69772 0
M  V30 1160 H 108.904 2.81006 -5.81125 0
M  V30 1161 H 109.672 2.35937 -7.83757 0
M  V30 1162 N 112.336 1.25143 0.95797 0
M  V30 1163 C 113.584 1.09476 1.69881 0
M  V30 1164 C 113.905 -0.365502 1.91544 0
M  V30 1165 O 113.175 -1.25985 1.50015 0
M  V30 1166 H 111.755 0.402128 0.629525 0
M  V30 1167 H 114.417 1.57214 1.15194 0
M  V30 1168 H 113.513 1.60046 2.6794 0
M  V30 1169 N 113.814 -1.1601 1.06675 0
M  V30 1170 C 115.062 -1.86264 0.784229 0
M  V30 1171 C 115.383 -1.82328 -0.691488 0
M  V30 1172 O 114.653 -1.25947 -1.50047 0
M  V30 1173 H 113.233 -0.689621 0.28711 0
M  V30 1174 H 115.895 -1.40664 1.34906 0
M  V30 1175 H 114.991 -2.91595 1.11259 0
M  V30 1176 N 115.292 -0.849877 -1.32721 0
M  V30 1177 C 116.52 -0.464754 -2.01613 0
M  V30 1178 C 116.935 0.937191 -1.63897 0
M  V30 1179 O 116.292 1.61081 -0.857856 0
M  V30 1180 C 116.343 -0.588638 -3.56675 0
M  V30 1181 O 116.064 -1.93535 -3.93034 0
M  V30 1182 C 117.565 -0.2019 -4.4284 0
M  V30 1183 H 114.785 -0.183215 -0.645502 0
M  V30 1184 H 117.329 -1.1455 -1.69407 0
M  V30 1185 H 115.484 0.0443159 -3.87375 0
M  V30 1186 H 115.898 -1.92871 -4.87751 0
M  V30 1187 H 117.372 -0.339599 -5.50954 0
M  V30 1188 H 117.849 0.857224 -4.30753 0
M  V30 1189 H 118.455 -0.809733 -4.17521 0
M  V30 1190 N 116.77 1.45427 -0.607355 0
M  V30 1191 C 117.717 2.3053 0.111625 0
M  V30 1192 C 118.687 1.4209 0.860216 0
M  V30 1193 O 119.872 1.71019 0.845998 0
M  V30 1194 C 117.012 3.26992 1.10319 0
M  V30 1195 C 116.125 4.30535 0.355493 0
M  V30 1196 C 115.26 5.14105 1.33676 0
M  V30 1197 C 114.299 6.09376 0.576862 0
M  V30 1198 N 113.436 6.85727 1.5074 0
M  V30 1199 H 118.276 2.91477 -0.620093 0
M  V30 1200 H 115.813 1.43631 -0.317594 0
M  V30 1201 H 117.771 3.81385 1.6912 0
M  V30 1202 H 116.401 2.67799 1.80232 0
M  V30 1203 H 115.453 3.78805 -0.348023 0
M  V30 1204 H 116.765 4.98235 -0.237423 0
M  V30 1205 H 115.919 5.72897 1.99684 0
M  V30 1206 H 114.658 4.46423 1.9636 0
M  V30 1207 H 113.663 5.49715 -0.0968519 0
M  V30 1208 H 114.888 6.79085 -0.0449341 0
M  V30 1209 H 112.834 6.20735 2.12189 0
M  V30 1210 H 112.751 7.49778 0.967913 0
M  V30 1211 H 114.019 7.4906 2.15706 0
M  V30 1212 N 118.248 0.346503 1.53744 0
M  V30 1213 C 119.494 -0.249473 2.0126 0
M  V30 1214 C 119.827 -1.49965 1.23386 0
M  V30 1215 O 119.102 -1.91811 0.32229 0
M  V30 1216 C 119.385 -0.560643 3.55709 0
M  V30 1217 C 119.238 0.701836 4.44291 0
M  V30 1218 C 120.557 -1.36905 4.18264 0
M  V30 1219 H 117.676 -0.0891987 0.731582 0
M  V30 1220 H 120.318 0.467624 1.84156 0
M  V30 1221 H 118.468 -1.17156 3.70414 0
M  V30 1222 H 120.14 1.33974 4.41417 0
M  V30 1223 H 118.383 1.32612 4.13033 0
M  V30 1224 H 119.054 0.43933 5.50249 0
M  V30 1225 H 121.53 -0.852448 4.07275 0
M  V30 1226 H 120.406 -1.55553 5.26398 0
M  V30 1227 H 120.667 -2.37203 3.73078 0
M  V30 1228 N 119.726 -1.57421 0.075193 0
M  V30 1229 C 120.972 -1.93905 -0.594025 0
M  V30 1230 C 121.305 -0.955701 -1.69056 0
M  V30 1231 O 120.58 0.0145373 -1.94495 0
M  V30 1232 C 120.863 -3.40638 -1.1678 0
M  V30 1233 C 120.716 -4.49733 -0.0776792 0
M  V30 1234 C 122.035 -3.88259 -2.07228 0
M  V30 1235 H 119.154 -0.705105 -0.214466 0
M  V30 1236 H 121.796 -1.8947 0.141854 0
M  V30 1237 H 119.946 -3.44549 -1.79494 0
M  V30 1238 H 121.618 -4.57942 0.555573 0
M  V30 1239 H 119.861 -4.29751 0.591286 0
M  V30 1240 H 120.532 -5.49549 -0.519603 0
M  V30 1241 H 123.008 -3.86376 -1.54445 0
M  V30 1242 H 121.884 -4.91533 -2.44308 0
M  V30 1243 H 122.145 -3.26396 -2.98191 0
M  V30 1244 N 121.204 0.198386 -1.56346 0
M  V30 1245 C 122.134 1.24865 -1.9731 0
M  V30 1246 C 123.115 1.47651 -0.844576 0
M  V30 1247 O 124.3 1.59444 -1.10866 0
M  V30 1248 C 121.43 2.59358 -2.30977 0
M  V30 1249 C 120.384 2.5119 -3.46537 0
M  V30 1250 C 119.71 3.89926 -3.65871 0
M  V30 1251 C 121.01 2.03977 -4.80823 0
M  V30 1252 H 122.704 0.908252 -2.85291 0
M  V30 1253 H 120.25 0.435462 -1.37258 0
M  V30 1254 H 122.203 3.33011 -2.58228 0
M  V30 1255 H 120.927 2.95132 -1.39874 0
M  V30 1256 H 119.586 1.79993 -3.19371 0
M  V30 1257 H 119.234 4.23046 -2.72105 0
M  V30 1258 H 118.934 3.85336 -4.4361 0
M  V30 1259 H 120.458 4.65205 -3.95495 0
M  V30 1260 H 121.872 2.67386 -5.07127 0
M  V30 1261 H 120.269 2.10397 -5.62008 0
M  V30 1262 H 121.339 0.992861 -4.74626 0
M  V30 1263 N 122.682 1.50554 0.465978 0
M  V30 1264 C 123.959 1.5232 1.22712 0
M  V30 1265 C 124.339 0.270807 2.09356 0
M  V30 1266 O 123.687 -0.745541 2.15995 0
M  V30 1267 C 123.897 2.82175 2.05374 0
M  V30 1268 C 125.245 3.33033 2.6339 0
M  V30 1269 O 126.269 2.83531 2.15612 0
M  V30 1270 O 125.128 4.19336 3.50456 0
M  V30 1271 H 122.222 0.611183 0.557122 0
M  V30 1272 H 124.768 1.62847 0.477381 0
M  V30 1273 H 123.54 3.64797 1.41558 0
M  V30 1274 H 123.163 2.74675 2.87471 0
M  V30 1275 N 124.16 -0.719506 1.40217 0
M  V30 1276 C 125.437 -1.47221 1.28784 0
M  V30 1277 C 125.817 -2.10883 -0.0956067 0
M  V30 1278 O 125.165 -1.99833 -1.10811 0
M  V30 1279 C 125.375 -2.5111 2.42373 0
M  V30 1280 C 126.723 -3.17053 2.82423 0
M  V30 1281 O 127.747 -2.61429 2.41937 0
M  V30 1282 O 126.606 -4.17742 3.52355 0
M  V30 1283 H 123.7 -0.654491 0.50554 0
M  V30 1284 H 126.246 -0.752014 1.52128 0
M  V30 1285 H 125.018 -2.02556 3.34793 0
M  V30 1286 H 124.641 -3.3067 2.20778 0
M  V30 1287 N 125.638 -1.25649 -0.95132 0
M  V30 1288 C 126.585 -1.06323 -2.04851 0
M  V30 1289 C 127.555 0.0286491 -1.66075 0
M  V30 1290 O 128.74 -0.12917 -1.90362 0
M  V30 1291 C 125.88 -0.691529 -3.381 0
M  V30 1292 C 124.993 -1.85861 -3.89974 0
M  V30 1293 C 124.128 -1.43096 -5.11563 0
M  V30 1294 C 123.167 -2.56696 -5.55674 0
M  V30 1295 N 122.304 -2.14684 -6.68472 0
M  V30 1296 H 127.144 -2.00222 -2.20715 0
M  V30 1297 H 124.681 -0.997027 -1.08156 0
M  V30 1298 H 126.639 -0.456963 -4.1469 0
M  V30 1299 H 125.269 0.210474 -3.22113 0
M  V30 1300 H 124.321 -2.20639 -3.09875 0
M  V30 1301 H 125.633 -2.71161 -4.18657 0
M  V30 1302 H 124.787 -1.15624 -5.9558 0
M  V30 1303 H 123.526 -0.548722 -4.84603 0
M  V30 1304 H 122.531 -2.84909 -4.7022 0
M  V30 1305 H 123.756 -3.45503 -5.8464 0
M  V30 1306 H 121.702 -1.28881 -6.43215 0
M  V30 1307 H 121.619 -2.9353 -6.96689 0
M  V30 1308 H 122.887 -1.90397 -7.5589 0
M  V30 1309 N 127.117 1.15442 -1.07289 0
M  V30 1310 C 128.394 1.82306 -0.708792 0
M  V30 1311 C 128.774 1.94991 0.808807 0
M  V30 1312 O 128.122 1.50085 1.72298 0
M  V30 1313 C 128.332 3.18695 -1.42247 0
M  V30 1314 C 129.68 3.94341 -1.57417 0
M  V30 1315 O 130.704 3.28247 -1.38319 0
M  V30 1316 O 129.563 5.12839 -1.88834 0
M  V30 1317 H 126.657 0.787628 -0.252132 0
M  V30 1318 H 129.203 1.22559 -1.17377 0
M  V30 1319 H 127.975 3.04557 -2.45684 0
M  V30 1320 H 127.598 3.86128 -0.948223 0
M  V30 1321 N 128.595 0.856903 1.32268 0
M  V30 1322 C 129.825 0.47475 2.01071 0
M  V30 1323 C 130.233 -0.933746 1.64553 0
M  V30 1324 O 129.576 -1.62114 0.863989 0
M  V30 1325 C 129.638 0.536746 3.55471 0
M  V30 1326 C 129.302 1.90453 4.15423 0
M  V30 1327 C 130.299 2.87029 4.33486 0
M  V30 1328 C 127.984 2.20229 4.51447 0
M  V30 1329 C 129.978 4.11532 4.86744 0
M  V30 1330 C 127.665 3.44984 5.0441 0
M  V30 1331 C 128.663 4.40452 5.22007 0
M  V30 1332 O 128.351 5.62998 5.73837 0
M  V30 1333 H 128.083 0.184778 0.650256 0
M  V30 1334 H 130.637 1.15615 1.69771 0
M  V30 1335 H 128.867 -0.20152 3.86175 0
M  V30 1336 H 130.556 0.169875 4.05544 0
M  V30 1337 H 131.322 2.6533 4.05986 0
M  V30 1338 H 127.201 1.46705 4.37034 0
M  V30 1339 H 130.745 4.86056 5.00395 0
M  V30 1340 H 126.642 3.66532 5.31342 0
M  V30 1341 H 127.41 5.64987 5.92226 0
M  V30 1342 N 130.073 -1.45103 0.615059 0
M  V30 1343 C 131.32 -2.02183 0.113179 0
M  V30 1344 C 131.648 -1.48249 -1.25906 0
M  V30 1345 O 130.903 -0.650265 -1.84581 0
M  V30 1346 C 131.202 -3.57386 0.0318797 0
M  V30 1347 C 130.868 -4.30505 1.34077 0
M  V30 1348 C 129.53 -4.50197 1.69929 0
M  V30 1349 C 131.882 -4.72238 2.20546 0
M  V30 1350 C 129.21 -5.08881 2.91988 0
M  V30 1351 C 131.562 -5.32272 3.41861 0
M  V30 1352 C 130.226 -5.50187 3.77956 0
M  V30 1353 H 129.496 -0.739842 0.0414151 0
M  V30 1354 H 132.143 -1.74073 0.798168 0
M  V30 1355 H 130.448 -3.84817 -0.736409 0
M  V30 1356 H 132.145 -3.99264 -0.372712 0
M  V30 1357 H 128.735 -4.15496 1.05173 0
M  V30 1358 H 132.919 -4.56751 1.94146 0
M  V30 1359 H 128.175 -5.20939 3.2005 0
M  V30 1360 H 132.349 -5.63563 4.09109 0
M  V30 1361 H 129.976 -5.95427 4.72622 0
M  V30 1362 N 131.551 -0.354651 -1.53558 0
M  V30 1363 C 132.481 0.489091 -2.2832 0
M  V30 1364 C 133.462 1.09324 -1.30316 0
M  V30 1365 O 134.647 1.11255 -1.59173 0
M  V30 1366 C 131.777 1.63456 -3.0643 0
M  V30 1367 C 130.731 1.1582 -4.12031 0
M  V30 1368 C 130.057 2.39305 -4.7816 0
M  V30 1369 C 131.357 0.250731 -5.21698 0
M  V30 1370 H 133.051 -0.134614 -2.99097 0
M  V30 1371 H 130.597 -0.0661826 -1.43848 0
M  V30 1372 H 132.55 2.23136 -3.57475 0
M  V30 1373 H 131.274 2.28533 -2.33325 0
M  V30 1374 H 129.933 0.584146 -3.61916 0
M  V30 1375 H 129.581 3.02814 -4.01637 0
M  V30 1376 H 129.281 2.08109 -5.49513 0
M  V30 1377 H 130.805 2.99691 -5.31994 0
M  V30 1378 H 132.219 0.754695 -5.68311 0
M  V30 1379 H 130.616 0.0301468 -6.00092 0
M  V30 1380 H 131.686 -0.710125 -4.79672 0
M  V30 1381 N 133.029 1.57378 -0.0835403 0
M  V30 1382 C 134.276 1.9393 0.58287 0
M  V30 1383 C 134.604 0.964455 1.68904 0
M  V30 1384 O 133.859 -0.0179474 1.95692 0
M  V30 1385 C 134.158 3.37063 1.1884 0
M  V30 1386 C 133.824 4.50424 0.207194 0
M  V30 1387 C 132.486 4.81159 -0.0627115 0
M  V30 1388 C 134.838 5.19136 -0.463426 0
M  V30 1389 C 132.166 5.77939 -1.01012 0
M  V30 1390 C 134.518 6.16931 -1.39924 0
M  V30 1391 C 133.182 6.46078 -1.67749 0
M  V30 1392 H 132.452 0.70964 0.213287 0
M  V30 1393 H 135.099 1.90856 -0.156916 0
M  V30 1394 H 133.404 3.3666 2.00418 0
M  V30 1395 H 135.101 3.6264 1.71153 0
M  V30 1396 H 131.691 4.2646 0.427747 0
M  V30 1397 H 135.875 4.95576 -0.268034 0
M  V30 1398 H 131.131 5.98842 -1.23283 0
M  V30 1399 H 135.305 6.69273 -1.92476 0
M  V30 1400 H 132.932 7.2088 -2.41321 0
M  V30 1401 N 134.507 -0.190092 1.56449 0
M  V30 1402 C 135.923 -0.54113 1.50146 0
M  V30 1403 C 136.123 -1.85603 0.784465 0
M  V30 1404 O 135.179 -2.5024 0.337051 0
M  V30 1405 C 136.492 -0.591241 2.9483 0
M  V30 1406 C 138.04 -0.679732 3.0553 0
M  V30 1407 C 138.515 -0.760908 4.51635 0
M  V30 1408 N 140.006 -0.824302 4.55806 0
M  V30 1409 C 140.741 -0.907365 5.66175 0
M  V30 1410 N 140.237 -0.952422 6.86222 0
M  V30 1411 N 142.03 -0.94494 5.541 0
M  V30 1412 H 134.181 0.67235 2.01478 0
M  V30 1413 H 136.444 0.240127 0.917084 0
M  V30 1414 H 136.15 0.305905 3.50367 0
M  V30 1415 H 136.024 -1.44422 3.48457 0
M  V30 1416 H 138.411 -1.56731 2.50039 0
M  V30 1417 H 138.492 0.199549 2.5502 0
M  V30 1418 H 138.136 0.122336 5.07753 0
M  V30 1419 H 138.066 -1.65606 4.99882 0
M  V30 1420 H 140.557 -0.798526 3.69367 0
M  V30 1421 H 140.87 -1.01645 7.66086 0
M  V30 1422 H 139.215 -0.921014 6.8887 0
M  V30 1423 H 142.406 -0.906612 4.59236 0
M  V30 1424 H 142.579 -1.00622 6.4014 0
M  V30 1425 N 135.985 -1.50799 -0.457987 0
M  V30 1426 C 137.262 -1.52968 -1.21902 0
M  V30 1427 C 137.642 -0.281906 -2.09209 0
M  V30 1428 O 136.99 0.734076 -2.16388 0
M  V30 1429 C 137.2 -2.8326 -2.03875 0
M  V30 1430 C 138.548 -3.34425 -2.6162 0
M  V30 1431 O 139.572 -2.8467 -2.14106 0
M  V30 1432 O 138.431 -4.21188 -3.48228 0
M  V30 1433 H 135.525 -0.614129 -0.553873 0
M  V30 1434 H 138.071 -1.63098 -0.468739 0
M  V30 1435 H 136.843 -3.65543 -1.39621 0
M  V30 1436 H 136.466 -2.76195 -2.8601 0
M  V30 1437 N 137.463 0.71206 -1.40597 0
M  V30 1438 C 138.711 1.46907 -1.38791 0
M  V30 1439 C 139.032 1.94998 0.00780391 0
M  V30 1440 O 138.302 1.70587 0.963174 0
M  V30 1441 H 136.882 0.545043 -0.51082 0
M  V30 1442 H 139.544 0.843882 -1.75683 0
M  V30 1443 H 138.64 2.34021 -2.06496 0
M  V30 1444 N 138.941 1.26152 0.944643 0
M  V30 1445 C 140.218 1.02247 1.66748 0
M  V30 1446 C 140.598 -0.448202 2.06287 0
M  V30 1447 O 139.946 -1.42779 1.78399 0
M  V30 1448 C 140.156 1.96788 2.88228 0
M  V30 1449 C 141.504 2.25201 3.59958 0
M  V30 1450 O 142.528 1.94626 2.98327 0
M  V30 1451 O 141.387 2.77242 4.70956 0
M  V30 1452 H 138.481 0.388517 0.730057 0
M  V30 1453 H 141.027 1.37348 0.99668 0
M  V30 1454 H 139.799 2.96047 2.55875 0
M  V30 1455 H 139.422 1.62145 3.63035 0
M  V30 1456 N 140.419 -1.14872 1.07899 0
M  V30 1457 C 141.668 -1.85135 0.800499 0
M  V30 1458 C 141.981 -1.83547 -0.676014 0
M  V30 1459 O 143.187 -2.49548 -1.06948 0
M  V30 1460 C 141.643 -3.3231 1.38197 0
M  V30 1461 C 141.251 -3.42329 2.8899 0
M  V30 1462 C 142.995 -4.0772 1.18174 0
M  V30 1463 C 140.902 -4.83684 3.403 0
M  V30 1464 H 139.832 -0.693563 0.29578 0
M  V30 1465 H 142.483 -1.29532 1.29976 0
M  V30 1466 H 140.865 -3.87618 0.810431 0
M  V30 1467 H 142.039 -2.97097 3.52236 0
M  V30 1468 H 140.354 -2.80369 3.07867 0
M  V30 1469 H 142.951 -5.12049 1.5398 0
M  V30 1470 H 143.294 -4.16124 0.12117 0
M  V30 1471 H 143.827 -3.58696 1.71994 0
M  V30 1472 H 140.566 -4.80465 4.45907 0
M  V30 1473 H 140.086 -5.29474 2.81811 0
M  V30 1474 H 141.765 -5.52558 3.36584 0
M  V30 1475 N 141.898 -0.863906 -1.31812 0
M  V30 1476 C 142.828 -0.330843 -2.31144 0
M  V30 1477 C 143.809 0.575005 -1.60087 0
M  V30 1478 O 144.994 0.493304 -1.8783 0
M  V30 1479 C 142.124 0.47374 -3.44054 0
M  V30 1480 C 141.078 -0.338481 -4.26659 0
M  V30 1481 C 140.404 0.591412 -5.31419 0
M  V30 1482 C 141.704 -1.56926 -4.98168 0
M  V30 1483 H 143.398 -1.16086 -2.75979 0
M  V30 1484 H 140.944 -0.559657 -1.32679 0
M  V30 1485 H 142.897 0.857143 -4.12591 0
M  V30 1486 H 141.621 1.33721 -2.9797 0
M  V30 1487 H 140.28 -0.703754 -3.59782 0
M  V30 1488 H 139.928 1.45199 -4.81587 0
M  V30 1489 H 139.628 0.0519022 -5.87577 0
M  V30 1490 H 141.152 0.97179 -6.02817 0
M  V30 1491 H 142.566 -1.25764 -5.59336 0
M  V30 1492 H 140.963 -2.04739 -5.64094 0
M  V30 1493 H 142.033 -2.32544 -4.25501 0
M  V30 1494 N 143.376 1.44774 -0.622745 0
M  V30 1495 C 144.624 2.01721 -0.123655 0
M  V30 1496 C 144.945 1.49172 1.25589 0
M  V30 1497 O 144.215 0.691974 1.83272 0
M  V30 1498 H 142.795 0.745777 -0.0427225 0
M  V30 1499 H 145.457 1.77382 -0.807559 0
M  V30 1500 H 144.553 3.11984 -0.0849534 0
M  V30 1501 N 144.854 0.36279 1.53368 0
M  V30 1502 C 145.801 -0.485008 2.25646 0
M  V30 1503 C 146.771 -1.07982 1.2621 0
M  V30 1504 O 147.956 -1.11284 1.54986 0
M  V30 1505 C 145.096 -1.62023 3.04701 0
M  V30 1506 C 144.209 -1.05086 4.19024 0
M  V30 1507 C 143.344 -2.15496 4.85525 0
M  V30 1508 C 142.383 -1.5601 5.91884 0
M  V30 1509 N 141.52 -2.60241 6.52088 0
M  V30 1510 H 146.36 0.137864 2.97681 0
M  V30 1511 H 143.897 0.0798061 1.46883 0
M  V30 1512 H 145.855 -2.28887 3.48807 0
M  V30 1513 H 144.485 -2.2138 2.34927 0
M  V30 1514 H 143.537 -0.27259 3.79422 0
M  V30 1515 H 144.849 -0.575926 4.95464 0
M  V30 1516 H 144.003 -2.90186 5.32801 0
M  V30 1517 H 142.742 -2.66341 4.08551 0
M  V30 1518 H 141.747 -0.798338 5.43973 0
M  V30 1519 H 142.972 -1.05994 6.70777 0
M  V30 1520 H 140.918 -3.10304 5.77968 0
M  V30 1521 H 140.835 -2.17426 7.24059 0
M  V30 1522 H 142.103 -3.34641 7.04014 0
M  V30 1523 N 146.332 -1.57332 0.0918853 0
M  V30 1524 C 147.562 -1.98286 -0.580205 0
M  V30 1525 C 147.97 -0.969713 -1.6246 0
M  V30 1526 O 147.313 0.0493501 -1.83634 0
M  V30 1527 C 147.375 -3.35603 -1.28882 0
M  V30 1528 C 147.039 -4.55285 -0.395559 0
M  V30 1529 C 148.036 -5.18687 0.355002 0
M  V30 1530 C 145.721 -5.01314 -0.314556 0
M  V30 1531 C 147.715 -6.26484 1.17458 0
M  V30 1532 C 145.402 -6.08979 0.508677 0
M  V30 1533 C 146.4 -6.71429 1.2519 0
M  V30 1534 O 146.088 -7.77018 2.06151 0
M  V30 1535 H 145.82 -0.656678 -0.160466 0
M  V30 1536 H 148.374 -2.04721 0.16688 0
M  V30 1537 H 146.604 -3.25842 -2.08241 0
M  V30 1538 H 148.293 -3.61026 -1.85512 0
M  V30 1539 H 149.059 -4.84058 0.302134 0
M  V30 1540 H 144.938 -4.5247 -0.882697 0
M  V30 1541 H 148.482 -6.75159 1.75518 0
M  V30 1542 H 144.379 -6.4304 0.563037 0
M  V30 1543 H 145.147 -7.93991 1.98799 0
M  V30 1544 N 147.81 0.181792 -1.56548 0
M  V30 1545 C 149.056 0.901431 -1.81665 0
M  V30 1546 C 149.389 1.82347 -0.668075 0
M  V30 1547 O 148.664 1.91669 0.330615 0
M  V30 1548 C 148.947 1.70618 -3.17115 0
M  V30 1549 C 148.8 0.807964 -4.42484 0
M  V30 1550 C 150.119 2.67605 -3.49393 0
M  V30 1551 H 147.238 0.32627 -0.660846 0
M  V30 1552 H 149.88 0.168134 -1.89255 0
M  V30 1553 H 148.03 2.33133 -3.10775 0
M  V30 1554 H 149.702 0.19649 -4.60881 0
M  V30 1555 H 147.945 0.115411 -4.33646 0
M  V30 1556 H 148.616 1.40632 -5.33785 0
M  V30 1557 H 151.092 2.15218 -3.56118 0
M  V30 1558 H 149.968 3.20985 -4.45264 0
M  V30 1559 H 150.229 3.47298 -2.73563 0
M  V30 1560 N 149.288 1.51039 0.449983 0
M  V30 1561 C 150.565 1.53612 1.21089 0
M  V30 1562 C 150.945 0.292997 2.09057 0
M  V30 1563 O 150.293 -0.72259 2.16774 0
M  V30 1564 C 150.503 2.84337 2.0237 0
M  V30 1565 C 151.851 3.35807 2.59843 0
M  V30 1566 O 152.875 2.85802 2.12593 0
M  V30 1567 O 151.734 4.23029 3.45989 0
M  V30 1568 H 148.828 0.617057 0.550608 0
M  V30 1569 H 151.374 1.63344 0.460082 0
M  V30 1570 H 150.146 3.66278 1.37681 0
M  V30 1571 H 149.769 2.77708 2.84542 0
M  V30 1572 O 150.805 -0.595668 1.50113 0
M  V30 1573 H 151.496 -1.25045 1.47931 0
M  V30 END ATOM
M  V30 BEGIN BOND
M  V30 END BOND
M  V30 END CTAB
M  END
$$$$
