drugbank_target|P61769 Beta-2-microglobulin (DB02740; DB04464; DB09130)
 OpenBabel12092120393D

  0  0  0     0  0            999 V3000
M  V30 BEGIN CTAB
M  V30 COUNTS 1918 1941 0 0 0
M  V30 BEGIN ATOM
M  V30 1 H -0.908 1.98254 -0.117106 0
M  V30 2 N 0 1.576 0 0
M  V30 3 C 0.933 2.03868 1.02534 0
M  V30 4 C 1.911 0.928543 1.3348 0
M  V30 5 O 3.095 1.19667 1.45644 0
M  V30 6 C 0.222 2.43627 2.35294 0
M  V30 7 C -0.732 3.65373 2.2001 0
M  V30 8 S 0.101 5.13292 1.52614 0
M  V30 9 C 1.257 5.56322 2.86805 0
M  V30 10 H 1.49 2.90518 0.631377 0
M  V30 11 H -0.977 1.52953 0.210867 0
M  V30 12 H 0.981 2.67203 3.11629 0
M  V30 13 H -0.358 1.57376 2.7183 0
M  V30 14 H -1.165 3.90944 3.18086 0
M  V30 15 H -1.563 3.418 1.51819 0
M  V30 16 H 0.729 5.58782 3.83104 0
M  V30 17 H 1.672 6.56266 2.65933 0
M  V30 18 H 2.08 4.83886 2.90714 0
M  V30 19 N 1.4781 -0.272755 1.55222 0
M  V30 20 C 2.7031 -1.02683 1.80197 0
M  V30 21 C 3.1281 -1.79142 0.573551 0
M  V30 22 O 2.4861 -1.74917 -0.476849 0
M  V30 23 C 2.5341 -1.9609 3.02624 0
M  V30 24 O 1.6381 -3.04863 2.77727 0
M  V30 25 H 0.9791 -0.293557 0.595584 0
M  V30 26 H 3.5091 -0.30159 2.02365 0
M  V30 27 H 3.5191 -2.38039 3.31363 0
M  V30 28 H 2.1941 -1.39851 3.91682 0
M  V30 29 H 0.7711 -2.67228 2.60084 0
M  V30 30 N 2.9562 -1.48159 -0.537278 0
M  V30 31 C 4.3722 -1.34118 -0.865129 0
M  V30 32 C 4.5722 -0.346678 -1.98495 0
M  V30 33 O 3.6282 0.234715 -2.51407 0
M  V30 34 C 4.9412 -2.73963 -1.23954 0
M  V30 35 C 6.4892 -2.82397 -1.34984 0
M  V30 36 C 6.9642 -4.22928 -1.75772 0
M  V30 37 N 8.4552 -4.25566 -1.82887 0
M  V30 38 C 9.1902 -5.31235 -2.15817 0
M  V30 39 N 8.6862 -6.47189 -2.47222 0
M  V30 40 N 10.4792 -5.18624 -2.16761 0
M  V30 41 H 2.6302 -2.1144 0.201715 0
M  V30 42 H 4.8932 -0.947598 0.0275949 0
M  V30 43 H 4.5992 -3.48264 -0.490381 0
M  V30 44 H 4.4732 -3.0702 -2.19132 0
M  V30 45 H 6.8602 -2.08356 -2.08978 0
M  V30 46 H 6.9412 -2.5297 -0.379448 0
M  V30 47 H 6.5852 -4.97482 -1.02341 0
M  V30 48 H 6.5152 -4.49794 -2.73848 0
M  V30 49 H 9.0062 -3.41924 -1.60924 0
M  V30 50 H 9.3192 -7.23564 -2.71433 0
M  V30 51 H 7.6642 -6.50476 -2.44757 0
M  V30 52 H 10.8552 -4.27056 -1.91679 0
M  V30 53 H 11.0282 -6.01078 -2.42093 0
M  V30 54 N 4.4343 0.785586 -1.36625 0
M  V30 55 C 5.6593 1.57963 -1.34397 0
M  V30 56 C 6.0843 1.87964 0.071526 0
M  V30 57 O 5.4423 1.48182 1.0446 0
M  V30 58 C 5.4903 2.87511 -2.17646 0
M  V30 59 O 4.5943 3.81281 -1.57158 0
M  V30 60 H 3.9353 0.479014 -0.459828 0
M  V30 61 H 6.4653 0.973411 -1.79961 0
M  V30 62 H 6.4753 3.36745 -2.30362 0
M  V30 63 H 5.1503 2.65002 -3.20541 0
M  V30 64 H 3.7273 3.39885 -1.53403 0
M  V30 65 N 5.9124 1.20967 1.01018 0
M  V30 66 C 7.1584 1.02526 1.74975 0
M  V30 67 C 7.4914 -0.4408 1.89131 0
M  V30 68 O 6.7664 -1.32718 1.42184 0
M  V30 69 C 7.0494 1.71699 3.1653 0
M  V30 70 C 6.9024 3.25791 3.10129 0
M  V30 71 C 8.2214 1.45531 4.15342 0
M  V30 72 H 5.3404 0.373863 0.635134 0
M  V30 73 H 7.9824 1.49071 1.17805 0
M  V30 74 H 6.1324 1.32128 3.65341 0
M  V30 75 H 7.8044 3.74697 2.69072 0
M  V30 76 H 6.0474 3.56363 2.47362 0
M  V30 77 H 6.7184 3.69353 4.10222 0
M  V30 78 H 9.1944 1.79872 3.75213 0
M  V30 79 H 8.0704 1.96453 5.1254 0
M  V30 80 H 8.3314 0.384237 4.40427 0
M  V30 81 N 7.3905 -1.2043 1.01659 0
M  V30 82 C 8.3535 -2.21433 0.591616 0
M  V30 83 C 9.3535 -1.57203 -0.338226 0
M  V30 84 O 10.5435 -1.73737 -0.126918 0
M  V30 85 C 7.6755 -3.40628 -0.136058 0
M  V30 86 H 8.8685 -2.60545 1.48514 0
M  V30 87 H 6.4215 -1.33893 0.806379 0
M  V30 88 H 7.1565 -3.07019 -1.04449 0
M  V30 89 H 6.9415 -3.88475 0.531917 0
M  V30 90 H 8.4315 -4.15475 -0.420735 0
M  V30 91 N 8.8686 -0.792821 -1.36206 0
M  V30 92 C 9.7986 -0.207853 -2.32573 0
M  V30 93 C 10.7796 0.659055 -1.56813 0
M  V30 94 O 11.9646 0.592176 -1.84951 0
M  V30 95 C 9.0946 0.655449 -3.41059 0
M  V30 96 C 8.0486 -0.111842 -4.27854 0
M  V30 97 C 7.3746 0.872274 -5.27537 0
M  V30 98 C 8.6746 -1.30299 -5.05786 0
M  V30 99 H 10.3686 -1.01294 -2.81744 0
M  V30 100 H 7.9146 -0.48854 -1.3546 0
M  V30 101 H 9.8676 1.07464 -4.07467 0
M  V30 102 H 8.5916 1.49328 -2.90463 0
M  V30 103 H 7.2506 -0.512053 -3.63006 0
M  V30 104 H 6.8986 1.70523 -4.73214 0
M  V30 105 H 6.5986 0.363291 -5.86476 0
M  V30 106 H 8.1226 1.28996 -5.96818 0
M  V30 107 H 9.5366 -0.959379 -5.65216 0
M  V30 108 H 7.9336 -1.7455 -5.74154 0
M  V30 109 H 9.0036 -2.09663 -4.37229 0
M  V30 110 N 10.3467 1.47872 -0.545128 0
M  V30 111 C 11.3097 2.28337 0.198717 0
M  V30 112 C 12.3097 1.36255 0.853888 0
M  V30 113 O 13.4997 1.59003 0.711606 0
M  V30 114 C 10.6317 3.15585 1.28915 0
M  V30 115 H 11.8247 2.95567 -0.507941 0
M  V30 116 H 9.3777 1.53362 -0.301616 0
M  V30 117 H 10.1127 2.53019 2.02859 0
M  V30 118 H 9.8977 3.83337 0.824309 0
M  V30 119 H 11.3877 3.76243 1.81194 0
M  V30 120 N 11.8248 0.280983 1.55075 0
M  V30 121 C 13.0708 -0.33461 2.00021 0
M  V30 122 C 13.4038 -1.55063 1.16915 0
M  V30 123 O 12.6788 -1.93006 0.240646 0
M  V30 124 C 12.9618 -0.711007 3.53011 0
M  V30 125 C 12.8148 0.512766 4.46868 0
M  V30 126 C 14.1338 -1.54522 4.12081 0
M  V30 127 H 11.2528 -0.120147 0.727141 0
M  V30 128 H 13.8948 0.389097 1.85973 0
M  V30 129 H 12.0448 -1.32761 3.65112 0
M  V30 130 H 13.7168 1.15131 4.46702 0
M  V30 131 H 11.9598 1.14975 4.18286 0
M  V30 132 H 12.6308 0.205556 5.51617 0
M  V30 133 H 15.1068 -1.02442 4.03293 0
M  V30 134 H 13.9828 -1.77739 5.19327 0
M  V30 135 H 14.2438 -2.52813 3.62682 0
M  V30 136 N 13.3029 -1.57598 0.00835791 0
M  V30 137 C 14.2329 -2.1198 -0.979113 0
M  V30 138 C 15.2139 -1.03091 -1.35301 0
M  V30 139 O 16.3989 -1.30818 -1.43528 0
M  V30 140 C 13.5289 -2.62995 -2.26828 0
M  V30 141 C 12.4829 -3.76485 -2.03576 0
M  V30 142 C 11.8089 -4.13846 -3.38579 0
M  V30 143 C 13.1089 -5.0342 -1.39161 0
M  V30 144 H 14.8029 -2.94738 -0.526281 0
M  V30 145 H 12.3489 -1.41783 -0.251704 0
M  V30 146 H 14.3019 -2.99669 -2.96271 0
M  V30 147 H 13.0259 -1.7737 -2.7424 0
M  V30 148 H 11.6849 -3.40217 -1.36557 0
M  V30 149 H 11.3329 -3.25232 -3.83709 0
M  V30 150 H 11.0329 -4.90312 -3.23834 0
M  V30 151 H 12.5569 -4.53086 -4.09323 0
M  V30 152 H 13.9709 -5.37812 -1.98573 0
M  V30 153 H 12.3679 -5.84746 -1.34878 0
M  V30 154 H 13.4379 -4.83548 -0.361868 0
M  V30 155 N 14.781 0.264519 -1.55364 0
M  V30 156 C 15.744 1.31046 -1.88042 0
M  V30 157 C 16.744 1.41943 -0.755569 0
M  V30 158 O 17.934 1.40947 -1.02369 0
M  V30 159 C 15.066 2.69067 -2.09323 0
M  V30 160 H 16.259 1.03297 -2.81549 0
M  V30 161 H 13.812 0.502989 -1.47986 0
M  V30 162 H 14.547 3.01982 -1.18226 0
M  V30 163 H 14.332 2.62542 -2.91229 0
M  V30 164 H 15.822 3.44623 -2.35848 0
M  V30 165 N 16.2591 1.48442 0.529413 0
M  V30 166 C 17.1891 1.65902 1.64313 0
M  V30 167 C 18.1701 0.507897 1.6234 0
M  V30 168 O 19.3551 0.740503 1.79528 0
M  V30 169 C 16.4851 1.69911 3.02898 0
M  V30 170 C 15.4391 2.8453 3.19729 0
M  V30 171 C 14.7651 2.73629 4.59381 0
M  V30 172 C 16.0651 4.25821 3.02447 0
M  V30 173 H 17.7591 2.5914 1.49955 0
M  V30 174 H 15.3051 1.24709 0.719982 0
M  V30 175 H 17.2581 1.80715 3.80684 0
M  V30 176 H 15.9821 0.732524 3.18279 0
M  V30 177 H 14.6411 2.73283 2.44361 0
M  V30 178 H 14.2891 1.74938 4.71599 0
M  V30 179 H 13.9891 3.50541 4.71588 0
M  V30 180 H 15.5131 2.86401 5.39265 0
M  V30 181 H 16.9271 4.37898 3.70024 0
M  V30 182 H 15.3241 5.03735 3.26146 0
M  V30 183 H 16.3941 4.42244 1.98867 0
M  V30 184 N 17.7372 -0.778329 1.37039 0
M  V30 185 C 18.6672 -1.90546 1.34962 0
M  V30 186 C 19.6482 -1.68681 0.219274 0
M  V30 187 O 20.8332 -1.89634 0.418624 0
M  V30 188 C 17.9632 -3.27734 1.14925 0
M  V30 189 C 16.9172 -3.64147 2.24902 0
M  V30 190 C 16.2432 -4.99806 1.89996 0
M  V30 191 C 17.5432 -3.71579 3.67051 0
M  V30 192 H 19.2372 -1.92541 2.29277 0
M  V30 193 H 16.7832 -0.924948 1.10366 0
M  V30 194 H 18.7362 -4.06215 1.12104 0
M  V30 195 H 17.4602 -3.26154 0.170631 0
M  V30 196 H 16.1192 -2.8797 2.26868 0
M  V30 197 H 15.7672 -4.94759 0.906796 0
M  V30 198 H 15.4672 -5.25139 2.63634 0
M  V30 199 H 16.9912 -5.80694 1.88749 0
M  V30 200 H 18.4052 -4.40227 3.67251 0
M  V30 201 H 16.8022 -4.08405 4.39688 0
M  V30 202 H 17.8722 -2.72404 4.01154 0
M  V30 203 N 19.2153 -1.21501 -1.00376 0
M  V30 204 C 20.4403 -1.05977 -1.78279 0
M  V30 205 C 20.8653 0.385994 -1.84097 0
M  V30 206 O 20.2233 1.27849 -1.28547 0
M  V30 207 C 20.2713 -1.66302 -3.19963 0
M  V30 208 O 19.3753 -0.909333 -4.0225 0
M  V30 209 H 18.7163 -0.372906 -0.549397 0
M  V30 210 H 21.2463 -1.6107 -1.26165 0
M  V30 211 H 21.2563 -1.70574 -3.70632 0
M  V30 212 H 19.9313 -2.71515 -3.15043 0
M  V30 213 H 18.5083 -0.941795 -3.60811 0
M  V30 214 N 20.6934 1.19889 -1.02296 0
M  V30 215 C 21.6234 2.25141 -0.619174 0
M  V30 216 C 22.6044 1.66051 0.368915 0
M  V30 217 O 23.7894 1.92546 0.252941 0
M  V30 218 C 20.9194 3.4728 0.0368783 0
M  V30 219 C 19.8734 4.19005 -0.872865 0
M  V30 220 C 19.1994 5.34637 -0.0822402 0
M  V30 221 C 20.4994 4.74452 -2.18387 0
M  V30 222 H 22.1934 2.59171 -1.49903 0
M  V30 223 H 19.7394 1.24579 -0.722222 0
M  V30 224 H 21.6924 4.20098 0.330958 0
M  V30 225 H 20.4164 3.12433 0.95149 0
M  V30 226 H 19.0754 3.48061 -1.15105 0
M  V30 227 H 18.7234 4.96034 0.83422 0
M  V30 228 H 18.4234 5.83557 -0.688149 0
M  V30 229 H 19.9474 6.10255 0.205238 0
M  V30 230 H 21.3614 5.39055 -1.95172 0
M  V30 231 H 19.7584 5.33834 -2.74119 0
M  V30 232 H 20.8284 3.92844 -2.84257 0
M  V30 233 N 22.1715 0.800033 1.35784 0
M  V30 234 C 23.3965 0.388511 2.03729 0
M  V30 235 C 23.8215 -0.990481 1.5991 0
M  V30 236 O 23.1795 -1.64013 0.772612 0
M  V30 237 C 23.2275 0.4726 3.5749 0
M  V30 238 O 22.3315 -0.51646 4.09153 0
M  V30 239 H 21.6725 0.163271 0.643614 0
M  V30 240 H 24.2025 1.0841 1.73518 0
M  V30 241 H 24.2125 0.34003 4.06581 0
M  V30 242 H 22.8875 1.47848 3.88734 0
M  V30 243 H 21.4645 -0.344673 3.71304 0
M  V30 244 N 23.6496 -1.47581 0.552962 0
M  V30 245 C 24.8976 -2.02082 0.0272703 0
M  V30 246 C 25.2186 -1.4301 -1.32563 0
M  V30 247 O 24.4886 -0.603745 -1.86365 0
M  V30 248 H 23.0686 -0.746966 0.00709182 0
M  V30 249 H 25.7306 -1.81033 0.722008 0
M  V30 250 H 24.8266 -3.12034 -0.0639951 0
M  V30 251 N 25.1277 -0.289203 -1.54924 0
M  V30 252 C 26.0577 0.58549 -2.2604 0
M  V30 253 C 27.0387 1.14753 -1.25562 0
M  V30 254 O 28.2237 1.17906 -1.54311 0
M  V30 255 C 25.3537 1.76305 -2.99222 0
M  V30 256 C 24.3077 1.33191 -4.06748 0
M  V30 257 C 23.6337 2.5937 -4.6758 0
M  V30 258 C 24.9337 0.471775 -5.20165 0
M  V30 259 H 26.6277 -0.00763532 -2.99399 0
M  V30 260 H 24.1737 -0.00511229 -1.43999 0
M  V30 261 H 26.1267 2.38097 -3.47689 0
M  V30 262 H 24.8507 2.38223 -2.23422 0
M  V30 263 H 23.5097 0.737121 -3.59113 0
M  V30 264 H 23.1577 3.19576 -3.88433 0
M  V30 265 H 22.8577 2.31228 -5.40192 0
M  V30 266 H 24.3817 3.21985 -5.18804 0
M  V30 267 H 25.7957 0.995056 -5.64599 0
M  V30 268 H 24.1927 0.284639 -5.99425 0
M  V30 269 H 25.2627 -0.506041 -4.82252 0
M  V30 270 N 26.6058 1.57591 -0.0167156 0
M  V30 271 C 27.5158 2.1291 0.98521 0
M  V30 272 C 28.5318 1.07834 1.36557 0
M  V30 273 O 29.7078 1.39826 1.44951 0
M  V30 274 C 26.7728 2.63512 2.25305 0
M  V30 275 C 25.8338 3.83256 1.93426 0
M  V30 276 C 25.0668 4.31435 3.14165 0
M  V30 277 O 25.2898 3.78851 4.26413 0
M  V30 278 O 24.2238 5.23416 2.97186 0
M  V30 279 H 28.0498 2.98772 0.544888 0
M  V30 280 H 25.6348 1.48012 0.203141 0
M  V30 281 H 27.5168 2.96183 2.99756 0
M  V30 282 H 26.1918 1.8074 2.68542 0
M  V30 283 H 25.0988 3.55531 1.16398 0
M  V30 284 H 26.4318 4.67153 1.55013 0
M  V30 285 N 28.0839 -0.256276 1.55502 0
M  V30 286 C 29.0469 -1.30047 1.88734 0
M  V30 287 C 30.0469 -1.4154 0.763086 0
M  V30 288 O 31.2369 -1.40403 1.03115 0
M  V30 289 C 28.3689 -2.67953 2.10747 0
M  V30 290 H 29.5619 -1.01802 2.82093 0
M  V30 291 H 27.1149 -0.495134 1.4825 0
M  V30 292 H 27.8499 -3.01351 1.19825 0
M  V30 293 H 27.6349 -2.60993 2.92617 0
M  V30 294 H 29.1249 -3.43368 2.37673 0
M  V30 295 N 29.562 -1.4872 -0.521534 0
M  V30 296 C 30.811 -1.56419 -1.27341 0
M  V30 297 C 31.124 -0.246805 -1.94037 0
M  V30 298 O 32.33 -0.202122 -2.70747 0
M  V30 299 C 30.786 -2.75896 -2.31105 0
M  V30 300 C 30.394 -4.14311 -1.70441 0
M  V30 301 C 32.138 -2.92913 -3.07249 0
M  V30 302 C 30.045 -5.25038 -2.72194 0
M  V30 303 H 28.975 -0.582344 -0.478949 0
M  V30 304 H 31.626 -1.75071 -0.549779 0
M  V30 305 H 30.008 -2.50697 -3.06541 0
M  V30 306 H 31.182 -4.49564 -1.01136 0
M  V30 307 H 29.497 -4.02482 -1.06759 0
M  V30 308 H 32.094 -3.72805 -3.83302 0
M  V30 309 H 32.437 -2.02689 -3.63625 0
M  V30 310 H 32.97 -3.18054 -2.38928 0
M  V30 311 H 29.709 -6.17255 -2.20627 0
M  V30 312 H 29.229 -4.94263 -3.39801 0
M  V30 313 H 30.908 -5.53508 -3.35019 0
M  V30 314 N 31.0401 0.771051 -1.3745 0
M  V30 315 C 31.9721 1.89352 -1.29146 0
M  V30 316 C 32.9851 1.61477 -0.207124 0
M  V30 317 O 34.1741 1.72382 -0.463324 0
M  V30 318 C 31.2741 3.24596 -0.974195 0
M  V30 319 C 30.4471 3.80111 -2.16413 0
M  V30 320 C 29.5061 4.93832 -1.81703 0
M  V30 321 O 28.5321 5.09382 -2.54006 0
M  V30 322 N 29.7341 5.75483 -0.761573 0
M  V30 323 H 32.4991 1.96991 -2.25864 0
M  V30 324 H 30.0601 0.950191 -1.31084 0
M  V30 325 H 32.0521 3.98193 -0.722828 0
M  V30 326 H 30.6221 3.12454 -0.0955527 0
M  V30 327 H 29.8421 2.98284 -2.57721 0
M  V30 328 H 31.1301 4.13932 -2.95867 0
M  V30 329 H 30.5281 5.65469 -0.161609 0
M  V30 330 H 29.0851 6.49302 -0.570064 0
M  V30 331 N 32.5182 1.22032 0.997298 0
M  V30 332 C 33.9342 0.979326 1.26021 0
M  V30 333 C 34.1342 -0.32972 1.98784 0
M  V30 334 O 33.1902 -1.05345 2.29475 0
M  V30 335 C 34.5032 2.17509 2.07631 0
M  V30 336 C 36.0512 2.21817 2.2083 0
M  V30 337 C 36.5262 3.40933 3.05825 0
M  V30 338 N 38.0172 3.41067 3.13412 0
M  V30 339 C 38.7522 4.29885 3.79455 0
M  V30 340 N 38.2482 5.28914 4.47462 0
M  V30 341 N 40.0412 4.17673 3.76173 0
M  V30 342 H 32.1922 2.06202 0.509352 0
M  V30 343 H 34.4552 0.90334 0.287541 0
M  V30 344 H 34.1612 3.12415 1.61524 0
M  V30 345 H 34.0352 2.17206 3.08385 0
M  V30 346 H 36.4222 1.27462 2.66153 0
M  V30 347 H 36.5032 2.2616 1.1952 0
M  V30 348 H 36.1472 4.35586 2.61203 0
M  V30 349 H 36.0772 3.33829 4.07266 0
M  V30 350 H 38.5682 2.69406 2.65007 0
M  V30 351 H 38.8812 5.92973 4.95583 0
M  V30 352 H 37.2262 5.32831 4.46224 0
M  V30 353 H 40.4172 3.39564 3.22202 0
M  V30 354 H 40.5902 4.87098 4.27363 0
M  V30 355 N 33.9963 -1.19345 1.0293 0
M  V30 356 C 35.2243 -1.92997 0.745644 0
M  V30 357 C 35.6393 -1.75519 -0.695589 0
M  V30 358 O 34.9963 -1.07737 -1.47306 0
M  V30 359 C 35.0473 -3.44741 1.08792 0
M  V30 360 O 34.7683 -3.61658 2.47256 0
M  V30 361 C 36.2693 -4.35515 0.827129 0
M  V30 362 H 33.4893 -0.613042 0.272801 0
M  V30 363 H 36.0333 -1.51473 1.3739 0
M  V30 364 H 34.1883 -3.84097 0.504832 0
M  V30 365 H 34.6023 -4.55514 2.60015 0
M  V30 366 H 36.0763 -5.40589 1.11658 0
M  V30 367 H 36.5533 -4.38552 -0.238436 0
M  V30 368 H 37.1593 -4.01841 1.39297 0
M  V30 369 N 35.4744 -0.807222 -1.35358 0
M  V30 370 C 36.8854 -0.44876 -1.81226 0
M  V30 371 C 37.2364 1.02929 -1.67033 0
M  V30 372 O 36.3614 1.79991 -1.20133 0
M  V30 373 C 36.9564 -0.807774 -3.2903 0
M  V30 374 C 35.5154 -0.501901 -3.73039 0
M  V30 375 C 34.6624 -1.03304 -2.57339 0
M  V30 376 H 37.6134 -0.998808 -1.23327 0
M  V30 377 H 37.6344 -0.10554 -3.80354 0
M  V30 378 H 37.1464 -1.88357 -3.39328 0
M  V30 379 H 35.2474 0.565128 -3.68289 0
M  V30 380 H 35.3604 -1.03497 -4.67787 0
M  V30 381 H 33.7244 -0.455339 -2.50597 0
M  V30 382 H 34.5074 -2.11496 -2.70415 0
M  V30 383 N 36.9525 1.47285 -0.560781 0
M  V30 384 C 37.8995 2.30058 0.18491 0
M  V30 385 C 38.8695 1.39281 0.904986 0
M  V30 386 O 40.0545 1.68241 0.899979 0
M  V30 387 C 37.1945 3.23317 1.20666 0
M  V30 388 C 36.3075 4.29186 0.492285 0
M  V30 389 C 35.4425 5.09592 1.49964 0
M  V30 390 C 34.4815 6.07232 0.770439 0
M  V30 391 N 33.6185 6.80584 1.72479 0
M  V30 392 H 38.4585 2.93302 -0.527048 0
M  V30 393 H 35.9955 1.44568 -0.271738 0
M  V30 394 H 37.9535 3.75811 1.81168 0
M  V30 395 H 36.5835 2.61929 1.88661 0
M  V30 396 H 35.6355 3.7972 -0.227333 0
M  V30 397 H 36.9475 4.98738 -0.0787929 0
M  V30 398 H 36.1015 5.66254 2.17809 0
M  V30 399 H 34.8405 4.3995 2.10464 0
M  V30 400 H 33.8455 5.49745 0.0780846 0
M  V30 401 H 35.0705 6.78884 0.171134 0
M  V30 402 H 33.0165 6.1367 2.3183 0
M  V30 403 H 32.9335 7.46319 1.20596 0
M  V30 404 H 34.2015 7.41818 2.39428 0
M  V30 405 N 38.4306 0.297415 1.54768 0
M  V30 406 C 39.6796 -0.313669 1.99246 0
M  V30 407 C 39.9926 -1.55281 1.18942 0
M  V30 408 O 41.1986 -2.23825 1.5367 0
M  V30 409 C 39.6546 -0.609407 3.54703 0
M  V30 410 C 39.2626 0.611192 4.43811 0
M  V30 411 C 41.0066 -1.18188 4.07715 0
M  V30 412 C 38.9136 0.288805 5.90694 0
M  V30 413 H 37.8436 -0.120979 0.744231 0
M  V30 414 H 40.4946 0.40556 1.78962 0
M  V30 415 H 38.8766 -1.38813 3.70873 0
M  V30 416 H 40.0506 1.3875 4.39414 0
M  V30 417 H 38.3656 1.10205 4.01552 0
M  V30 418 H 40.9626 -1.43727 5.15021 0
M  V30 419 H 41.3056 -2.12299 3.58099 0
M  V30 420 H 41.8386 -0.464944 3.95074 0
M  V30 421 H 38.5776 1.19838 6.44453 0
M  V30 422 H 38.0976 -0.450305 5.98107 0
M  V30 423 H 39.7766 -0.110933 6.46905 0
M  V30 424 N 39.9087 -1.5758 0.0250728 0
M  V30 425 C 40.8407 -2.06869 -0.986796 0
M  V30 426 C 41.8537 -0.991332 -1.29137 0
M  V30 427 O 43.0427 -1.26761 -1.25674 0
M  V30 428 C 40.1427 -2.47486 -2.31525 0
M  V30 429 C 39.3157 -3.78253 -2.19643 0
M  V30 430 C 38.3747 -4.05464 -3.35388 0
M  V30 431 O 37.4007 -4.75774 -3.12454 0
M  V30 432 N 38.6027 -3.55321 -4.59051 0
M  V30 433 H 41.3677 -2.94302 -0.566276 0
M  V30 434 H 38.9287 -1.6109 -0.161776 0
M  V30 435 H 40.9207 -2.62785 -3.07776 0
M  V30 436 H 39.4907 -1.65441 -2.65232 0
M  V30 437 H 38.7107 -3.7279 -1.28144 0
M  V30 438 H 39.9987 -4.63936 -2.08903 0
M  V30 439 H 39.3967 -2.98431 -4.80578 0
M  V30 440 H 37.9537 -3.75905 -5.32483 0
M  V30 441 N 41.3868 0.248026 -1.55636 0
M  V30 442 C 42.6328 0.97767 -1.77678 0
M  V30 443 C 42.9658 1.85016 -0.590135 0
M  V30 444 O 42.2408 1.90095 0.411611 0
M  V30 445 C 42.5238 1.83914 -3.09593 0
M  V30 446 C 42.3768 0.99491 -4.38659 0
M  V30 447 C 43.6958 2.82183 -3.37729 0
M  V30 448 H 40.8148 0.354005 -0.646413 0
M  V30 449 H 43.4568 0.248253 -1.88371 0
M  V30 450 H 41.6068 2.46104 -3.00608 0
M  V30 451 H 43.2788 0.391789 -4.59633 0
M  V30 452 H 41.5218 0.299231 -4.32767 0
M  V30 453 H 42.1928 1.63145 -5.2734 0
M  V30 454 H 44.6688 2.30129 -3.4667 0
M  V30 455 H 43.5448 3.39582 -4.31249 0
M  V30 456 H 43.8058 3.58588 -2.58586 0
M  V30 457 N 42.8649 1.48995 0.513639 0
M  V30 458 C 44.0949 1.61297 1.291 0
M  V30 459 C 44.5029 0.278656 1.87137 0
M  V30 460 O 43.8459 -0.744325 1.67945 0
M  V30 461 C 43.9079 2.61326 2.46879 0
M  V30 462 C 43.5719 4.05993 2.09807 0
M  V30 463 C 44.5689 4.93183 1.64519 0
M  V30 464 C 42.2539 4.51642 2.19829 0
M  V30 465 C 44.2479 6.24056 1.2974 0
M  V30 466 C 41.9349 5.82532 1.84662 0
M  V30 467 C 42.9329 6.68562 1.3969 0
M  V30 468 O 42.6209 7.97014 1.04992 0
M  V30 469 H 42.3529 0.546236 0.39825 0
M  V30 470 H 44.9069 1.95673 0.62459 0
M  V30 471 H 43.1369 2.22104 3.16554 0
M  V30 472 H 44.8259 2.6329 3.08923 0
M  V30 473 H 45.5919 4.59147 1.56233 0
M  V30 474 H 41.4709 3.84855 2.53786 0
M  V30 475 H 45.0149 6.91161 0.945659 0
M  V30 476 H 40.9119 6.16099 1.92594 0
M  V30 477 H 41.6799 8.09913 1.18249 0
M  V30 478 N 44.343 -0.763751 1.37857 0
M  V30 479 C 45.568 -1.55805 1.36893 0
M  V30 480 C 45.993 -1.88054 -0.0416135 0
M  V30 481 O 45.351 -1.49825 -1.02089 0
M  V30 482 C 45.399 -2.84012 2.22192 0
M  V30 483 O 44.503 -3.78732 1.63204 0
M  V30 484 H 43.844 -0.471638 0.46739 0
M  V30 485 H 46.374 -0.944657 1.81487 0
M  V30 486 H 46.384 -3.33037 2.35691 0
M  V30 487 H 45.059 -2.59869 3.24716 0
M  V30 488 H 43.636 -3.37402 1.58791 0
M  V30 489 N 45.8211 -1.22559 -0.990812 0
M  V30 490 C 47.2371 -0.985996 -1.255 0
M  V30 491 C 47.4371 0.319173 -1.98956 0
M  V30 492 O 46.4931 1.04127 -2.3003 0
M  V30 493 C 47.8061 -2.18607 -2.06474 0
M  V30 494 C 49.3541 -2.22985 -2.19651 0
M  V30 495 C 49.8291 -3.4255 -3.04012 0
M  V30 496 N 51.3201 -3.42725 -3.11599 0
M  V30 497 C 52.0551 -4.31892 -3.7717 0
M  V30 498 N 51.5511 -5.31279 -4.44651 0
M  V30 499 N 53.3441 -4.19662 -3.73952 0
M  V30 500 H 45.4951 -2.06469 -0.49841 0
M  V30 501 H 47.7581 -0.904853 -0.282747 0
M  V30 502 H 47.4641 -3.13267 -1.59865 0
M  V30 503 H 47.3381 -2.18838 -3.07229 0
M  V30 504 H 49.7251 -1.28871 -2.65474 0
M  V30 505 H 49.8061 -2.26791 -1.18319 0
M  V30 506 H 49.4501 -4.36965 -2.58889 0
M  V30 507 H 49.3801 -3.35984 -4.0549 0
M  V30 508 H 51.8711 -2.70807 -2.63575 0
M  V30 509 H 52.1841 -5.95593 -4.92431 0
M  V30 510 H 50.5291 -5.3519 -4.43392 0
M  V30 511 H 53.7201 -3.41268 -3.20396 0
M  V30 512 H 53.8931 -4.89358 -4.24774 0
M  V30 513 N 47.2992 1.18797 -1.03562 0
M  V30 514 C 48.2492 2.20161 -0.592724 0
M  V30 515 C 49.2332 1.56772 0.362133 0
M  V30 516 O 50.4252 1.76062 0.182009 0
M  V30 517 C 47.5542 3.43266 0.0481024 0
M  V30 518 C 46.6402 4.13786 -0.9296 0
M  V30 519 N 47.0312 4.60388 -2.09467 0
M  V30 520 C 45.3292 4.39572 -0.754499 0
M  V30 521 C 46.0302 5.14619 -2.71187 0
M  V30 522 N 45.0062 5.05826 -1.991 0
M  V30 523 H 48.8082 2.53877 -1.48066 0
M  V30 524 H 46.3222 1.34946 -0.903514 0
M  V30 525 H 48.3192 4.15136 0.383058 0
M  V30 526 H 46.9792 3.11048 0.931636 0
M  V30 527 H 47.9902 4.54999 -2.47379 0
M  V30 528 H 44.6672 4.17425 0.0793713 0
M  V30 529 H 46.0572 5.60917 -3.69895 0
M  V30 530 N 48.7773 0.814389 1.34928 0
M  V30 531 C 50.1883 0.458364 1.80986 0
M  V30 532 C 50.5393 -1.02042 1.67577 0
M  V30 533 O 49.6643 -1.79352 1.21086 0
M  V30 534 C 50.2593 0.825212 3.28597 0
M  V30 535 C 48.8183 0.521677 3.72767 0
M  V30 536 C 47.9653 1.04668 2.56788 0
M  V30 537 H 50.9163 1.00533 1.22795 0
M  V30 538 H 50.9373 0.12571 3.80292 0
M  V30 539 H 50.4493 1.90154 3.38324 0
M  V30 540 H 48.5503 -0.545589 3.68584 0
M  V30 541 H 48.6633 1.05977 4.67232 0
M  V30 542 H 47.0273 0.468622 2.50352 0
M  V30 543 H 47.8103 2.12927 2.6929 0
M  V30 544 N 50.2554 -1.46986 0.568584 0
M  V30 545 C 51.2184 -2.28624 -0.162366 0
M  V30 546 C 52.2184 -1.37596 -0.832103 0
M  V30 547 O 53.4084 -1.60115 -0.68622 0
M  V30 548 C 50.5404 -3.17596 -1.23878 0
M  V30 549 H 51.7334 -2.94722 0.554899 0
M  V30 550 H 49.2864 -1.52863 0.325976 0
M  V30 551 H 50.0214 -2.56214 -1.98808 0
M  V30 552 H 49.8064 -3.846 -0.763219 0
M  V30 553 H 51.2964 -3.79078 -1.75185 0
M  V30 554 N 51.7335 -0.305618 -1.54608 0
M  V30 555 C 52.6435 0.57778 -2.27374 0
M  V30 556 C 53.6595 1.14451 -1.31061 0
M  V30 557 O 54.8355 1.16831 -1.6405 0
M  V30 558 C 51.9005 1.73123 -3.00382 0
M  V30 559 C 50.9615 1.19812 -4.12242 0
M  V30 560 C 50.1945 2.2966 -4.81759 0
M  V30 561 O 50.4175 3.49651 -4.50666 0
M  V30 562 O 49.3515 1.96091 -5.69062 0
M  V30 563 H 53.1775 -0.012624 -3.03697 0
M  V30 564 H 50.7625 -0.0719184 -1.49227 0
M  V30 565 H 52.6445 2.40315 -3.4616 0
M  V30 566 H 51.3195 2.30815 -2.26949 0
M  V30 567 H 50.2265 0.491798 -3.70853 0
M  V30 568 H 51.5595 0.666566 -4.87666 0
M  V30 569 N 53.2116 1.57565 -0.0334293 0
M  V30 570 C 54.1596 2.1164 0.96496 0
M  V30 571 C 55.1536 1.04398 1.33407 0
M  V30 572 O 56.3596 1.22828 1.3158 0
M  V30 573 H 52.7346 0.676222 0.32898 0
M  V30 574 H 54.7056 2.94455 0.483614 0
M  V30 575 C 53.4546 2.66207 2.23672 0
M  V30 576 H 52.7776 3.48378 1.96145 0
M  V30 577 H 54.2176 3.07685 2.9173 0
M  V30 578 C 52.6766 1.59151 2.96939 0
M  V30 579 O 53.2066 0.993858 3.89211 0
M  V30 580 N 51.4126 1.31093 2.59351 0
M  V30 581 H 50.9596 1.7988 1.84393 0
M  V30 582 H 50.9176 0.596889 3.08682 0
M  V30 583 N 54.6897 -0.239769 1.55765 0
M  V30 584 C 55.9377 -0.964892 1.77579 0
M  V30 585 C 56.2587 -1.85582 0.598699 0
M  V30 586 O 55.5287 -1.92075 -0.385226 0
M  V30 587 H 54.1087 -0.359265 0.654933 0
M  V30 588 H 56.7707 -0.256001 1.93211 0
M  V30 589 H 55.8667 -1.58243 2.69009 0
M  V30 590 N 56.1678 -1.49265 -0.50573 0
M  V30 591 C 57.1148 -1.65585 -1.6078 0
M  V30 592 C 58.0848 -0.497396 -1.58478 0
M  V30 593 O 59.2698 -0.72385 -1.76536 0
M  V30 594 C 56.4098 -1.72408 -2.98948 0
M  V30 595 C 55.5228 -2.99525 -3.11301 0
M  V30 596 C 54.6578 -2.97356 -4.40174 0
M  V30 597 C 53.6968 -4.19074 -4.46143 0
M  V30 598 N 52.8338 -4.14841 -5.66437 0
M  V30 599 H 57.6738 -2.59688 -1.46172 0
M  V30 600 H 55.2108 -1.28761 -0.711261 0
M  V30 601 H 57.1688 -1.74344 -3.79025 0
M  V30 602 H 55.7988 -0.817753 -3.1227 0
M  V30 603 H 54.8508 -3.07222 -2.24318 0
M  V30 604 H 56.1628 -3.89518 -3.11572 0
M  V30 605 H 55.3168 -2.97829 -5.28567 0
M  V30 606 H 54.0558 -2.05133 -4.42461 0
M  V30 607 H 53.0608 -4.1885 -3.56153 0
M  V30 608 H 54.2858 -5.12483 -4.45575 0
M  V30 609 H 52.2318 -3.25453 -5.69575 0
M  V30 610 H 52.1488 -4.98564 -5.68304 0
M  V30 611 H 53.4168 -4.1941 -6.57051 0
M  V30 612 N 57.6459 0.756429 -1.3826 0
M  V30 613 C 58.8709 1.55077 -1.37717 0
M  V30 614 C 59.2959 1.88073 0.03164 0
M  V30 615 O 58.6539 1.50364 1.01293 0
M  V30 616 C 58.7019 2.8283 -2.23695 0
M  V30 617 O 57.8059 3.77862 -1.6521 0
M  V30 618 H 57.1469 0.469152 -0.469885 0
M  V30 619 H 59.6769 0.935019 -1.81985 0
M  V30 620 H 59.6869 3.31783 -2.37453 0
M  V30 621 H 58.3619 2.58144 -3.2609 0
M  V30 622 H 56.9389 3.36555 -1.60578 0
M  V30 623 N 59.124 1.23083 0.984299 0
M  V30 624 C 60.072 1.00593 2.09723 0
M  V30 625 C 61.066 -0.0538014 1.69315 0
M  V30 626 O 62.272 0.0993719 1.79725 0
M  V30 627 H 58.647 0.30817 0.685956 0
M  V30 628 H 60.618 1.95012 2.2586 0
M  V30 629 C 59.367 0.609601 3.42314 0
M  V30 630 H 58.69 1.41675 3.73856 0
M  V30 631 H 60.13 0.491726 4.21139 0
M  V30 632 C 58.589 -0.681745 3.2993 0
M  V30 633 O 59.119 -1.73192 3.62446 0
M  V30 634 N 57.325 -0.656178 2.83095 0
M  V30 635 H 56.872 0.198759 2.56832 0
M  V30 636 H 56.83 -1.52044 2.75191 0
M  V30 637 N 60.6021 -1.18246 1.0419 0
M  V30 638 C 61.8491 -1.88257 0.746017 0
M  V30 639 C 62.1771 -1.80429 -0.726331 0
M  V30 640 O 61.4321 -1.2 -1.54591 0
M  V30 641 C 61.7311 -3.38082 1.15911 0
M  V30 642 C 61.3971 -3.66114 2.63195 0
M  V30 643 C 60.0591 -3.73474 3.03432 0
M  V30 644 C 62.4111 -3.78398 3.5842 0
M  V30 645 C 59.7391 -3.90599 4.37778 0
M  V30 646 C 62.0911 -3.97039 4.92487 0
M  V30 647 C 60.7551 -4.02635 5.32392 0
M  V30 648 H 60.0251 -0.688883 0.272987 0
M  V30 649 H 62.6721 -1.3995 1.30715 0
M  V30 650 H 60.9771 -3.88377 0.516806 0
M  V30 651 H 62.6741 -3.90596 0.907516 0
M  V30 652 H 59.2641 -3.61003 2.3103 0
M  V30 653 H 63.4481 -3.72042 3.28479 0
M  V30 654 H 58.7041 -3.93175 4.68213 0
M  V30 655 H 62.8781 -4.05486 5.66175 0
M  V30 656 H 60.5051 -4.15657 6.36501 0
M  V30 657 N 62.0802 -0.821533 -1.34494 0
M  V30 658 C 63.0102 -0.257138 -2.3208 0
M  V30 659 C 63.9912 0.625645 -1.58176 0
M  V30 660 O 65.1762 0.552811 -1.86166 0
M  V30 661 C 62.3062 0.582958 -3.42372 0
M  V30 662 C 61.2602 -0.202571 -4.2752 0
M  V30 663 C 60.5862 0.760179 -5.29269 0
M  V30 664 C 61.8862 -1.40998 -5.02908 0
M  V30 665 H 63.5802 -1.07247 -2.79532 0
M  V30 666 H 61.1262 -0.517163 -1.34393 0
M  V30 667 H 63.0792 0.987972 -4.09655 0
M  V30 668 H 61.8032 1.43133 -2.93565 0
M  V30 669 H 60.4622 -0.588936 -3.61838 0
M  V30 670 H 60.1102 1.60447 -4.76724 0
M  V30 671 H 59.8102 0.238809 -5.87115 0
M  V30 672 H 61.3342 1.16308 -5.9942 0
M  V30 673 H 62.7482 -1.07905 -5.63054 0
M  V30 674 H 61.1452 -1.86689 -5.70322 0
M  V30 675 H 62.2152 -2.1889 -4.32684 0
M  V30 676 N 63.5583 1.46682 -0.576371 0
M  V30 677 C 64.5063 2.31953 0.17335 0
M  V30 678 C 65.5003 1.44098 0.89062 0
M  V30 679 O 66.7063 1.60759 0.809728 0
M  V30 680 H 63.0813 0.748273 0.0747727 0
M  V30 681 H 65.0523 2.93007 -0.564738 0
M  V30 682 C 63.8013 3.27142 1.17786 0
M  V30 683 H 63.1243 3.94719 0.635361 0
M  V30 684 H 64.5643 3.896 1.67296 0
M  V30 685 C 63.0233 2.52036 2.23561 0
M  V30 686 O 63.5533 2.27877 3.3081 0
M  V30 687 N 61.7593 2.12709 1.97998 0
M  V30 688 H 61.3063 2.32557 1.10792 0
M  V30 689 H 61.2643 1.62776 2.68982 0
M  V30 690 N 65.0364 0.313813 1.54444 0
M  V30 691 C 66.2764 -0.292389 2.02298 0
M  V30 692 C 66.6404 -1.50105 1.19719 0
M  V30 693 O 67.8414 -2.17947 1.5733 0
M  V30 694 C 66.1124 -0.627682 3.51845 0
M  V30 695 S 67.6714 -1.21493 4.21646 0
M  V30 696 H 64.4894 -0.0890247 0.705405 0
M  V30 697 H 67.0914 0.444668 1.90376 0
M  V30 698 H 65.7954 0.260265 4.09574 0
M  V30 699 H 65.3264 -1.39519 3.67829 0
M  V30 700 H 67.3414 -2.5022 4.28491 0
M  V30 701 N 66.5145 -1.57545 0.0417849 0
M  V30 702 C 67.7445 -1.96339 -0.642995 0
M  V30 703 C 68.1525 -0.917536 -1.65463 0
M  V30 704 O 67.4955 0.107747 -1.83384 0
M  V30 705 C 67.5575 -3.31333 -1.39494 0
M  V30 706 C 67.2215 -4.53796 -0.540204 0
M  V30 707 C 68.2185 -5.19553 0.189806 0
M  V30 708 C 65.9035 -5.0006 -0.473886 0
M  V30 709 C 67.8975 -6.29904 0.974674 0
M  V30 710 C 65.5845 -6.10289 0.314677 0
M  V30 711 C 66.5825 -6.75072 1.03765 0
M  V30 712 O 66.2705 -7.83183 1.81327 0
M  V30 713 H 66.0025 -0.651241 -0.181277 0
M  V30 714 H 68.5565 -2.05148 0.101665 0
M  V30 715 H 66.7865 -3.19052 -2.18502 0
M  V30 716 H 68.4755 -3.54942 -1.96904 0
M  V30 717 H 69.2415 -4.84774 0.147981 0
M  V30 718 H 65.1205 -4.49433 -1.0262 0
M  V30 719 H 68.6645 -6.80401 1.5395 0
M  V30 720 H 64.5615 -6.44506 0.358174 0
M  V30 721 H 65.3295 -7.99913 1.73438 0
M  V30 722 N 67.9926 0.231505 -1.5589 0
M  V30 723 C 69.2386 0.95877 -1.78705 0
M  V30 724 C 69.5716 1.8438 -0.609725 0
M  V30 725 O 68.8466 1.90521 0.391426 0
M  V30 726 C 69.1296 1.8062 -3.11526 0
M  V30 727 C 68.9826 0.948328 -4.39689 0
M  V30 728 C 70.3016 2.78585 -3.40703 0
M  V30 729 H 67.4206 0.347129 -0.650131 0
M  V30 730 H 70.0626 0.228259 -1.88624 0
M  V30 731 H 68.2126 2.42902 -3.03201 0
M  V30 732 H 69.8846 0.343016 -4.60023 0
M  V30 733 H 68.1276 0.253314 -4.3306 0
M  V30 734 H 68.7986 1.57543 -5.29041 0
M  V30 735 H 71.2746 2.26439 -3.49091 0
M  V30 736 H 70.1506 3.34988 -4.34826 0
M  V30 737 H 70.4116 3.55825 -2.62375 0
M  V30 738 N 69.4707 1.49531 0.497807 0
M  V30 739 C 70.6957 1.63159 1.28039 0
M  V30 740 C 71.1207 0.30418 1.85624 0
M  V30 741 O 70.4787 -0.728618 1.66015 0
M  V30 742 C 70.5267 2.70537 2.38416 0
M  V30 743 O 69.6307 2.29931 3.42353 0
M  V30 744 H 68.9717 0.546001 0.377861 0
M  V30 745 H 71.5017 1.9574 0.59558 0
M  V30 746 H 71.5117 2.92802 2.84132 0
M  V30 747 H 70.1867 3.6689 1.95869 0
M  V30 748 H 68.7637 2.18009 3.02533 0
M  V30 749 N 70.9488 -0.749086 1.3866 0
M  V30 750 C 72.1968 -1.50535 1.34847 0
M  V30 751 C 72.5178 -1.94909 -0.0595016 0
M  V30 752 O 71.7878 -1.67973 -1.00806 0
M  V30 753 H 70.3678 -0.558395 0.49619 0
M  V30 754 H 73.0298 -0.890165 1.73384 0
M  V30 755 H 72.1258 -2.39413 2.00219 0
M  V30 756 N 72.4269 -1.23603 -0.977757 0
M  V30 757 C 73.6739 -1.06971 -1.71941 0
M  V30 758 C 74.0019 0.393009 -1.90488 0
M  V30 759 O 73.2569 1.30719 -1.4564 0
M  V30 760 C 73.5559 -1.7433 -3.11999 0
M  V30 761 C 73.2219 -3.24252 -3.13323 0
M  V30 762 C 71.8839 -3.65156 -3.13392 0
M  V30 763 C 74.2359 -4.20141 -3.08433 0
M  V30 764 C 71.5639 -5.00403 -3.0629 0
M  V30 765 C 73.9159 -5.55384 -3.02873 0
M  V30 766 C 72.5799 -5.95647 -3.01265 0
M  V30 767 H 71.8499 -0.391433 -0.629175 0
M  V30 768 H 74.4969 -1.53572 -1.14403 0
M  V30 769 H 72.8019 -1.20096 -3.7294 0
M  V30 770 H 74.4989 -1.58936 -3.68158 0
M  V30 771 H 71.0889 -2.91692 -3.14029 0
M  V30 772 H 75.2729 -3.89547 -3.07517 0
M  V30 773 H 70.5289 -5.3081 -3.03399 0
M  V30 774 H 74.7029 -6.29398 -2.98046 0
M  V30 775 H 72.3299 -7.0041 -2.95516 0
M  V30 776 N 73.905 1.17692 -1.04816 0
M  V30 777 C 74.855 2.1952 -0.616042 0
M  V30 778 C 75.839 1.57147 0.345485 0
M  V30 779 O 77.031 1.76245 0.163325 0
M  V30 780 C 74.16 3.43298 0.0116917 0
M  V30 781 C 73.246 4.12777 -0.973435 0
M  V30 782 N 73.637 4.5814 -2.14339 0
M  V30 783 C 71.935 4.38747 -0.80108 0
M  V30 784 C 72.636 5.11713 -2.7663 0
M  V30 785 N 71.612 5.03686 -2.04453 0
M  V30 786 H 75.414 2.52293 -1.5075 0
M  V30 787 H 72.928 1.3398 -0.917776 0
M  V30 788 H 74.925 4.15519 0.339006 0
M  V30 789 H 73.585 3.12018 0.898593 0
M  V30 790 H 74.596 4.52349 -2.52191 0
M  V30 791 H 71.273 4.17485 0.0350934 0
M  V30 792 H 72.663 5.56962 -3.75823 0
M  V30 793 N 75.3831 0.828654 1.34056 0
M  V30 794 C 76.7941 0.477534 1.8049 0
M  V30 795 C 77.1451 -1.00258 1.6865 0
M  V30 796 O 76.2701 -1.78057 1.22982 0
M  V30 797 C 76.8651 0.860018 3.27703 0
M  V30 798 C 75.4241 0.561185 3.72193 0
M  V30 799 C 74.5711 1.07385 2.55663 0
M  V30 800 H 77.5221 1.0183 1.21722 0
M  V30 801 H 77.5431 0.166038 3.80138 0
M  V30 802 H 77.0551 1.93731 3.36288 0
M  V30 803 H 75.1561 -0.506465 3.69142 0
M  V30 804 H 75.2691 1.10926 4.66082 0
M  V30 805 H 73.6331 0.495149 2.49841 0
M  V30 806 H 74.4161 2.15771 2.67016 0
M  V30 807 N 76.8612 -1.46375 0.584142 0
M  V30 808 C 78.0862 -2.07268 0.0740405 0
M  V30 809 C 78.5112 -1.42979 -1.22223 0
M  V30 810 O 77.8692 -0.514092 -1.73859 0
M  V30 811 C 77.9172 -3.60518 -0.0767769 0
M  V30 812 O 77.0212 -3.96533 -1.13292 0
M  V30 813 H 76.3622 -0.660961 0.0634524 0
M  V30 814 H 78.8922 -1.87991 0.807492 0
M  V30 815 H 78.9022 -4.07021 -0.282489 0
M  V30 816 H 77.5772 -4.06702 0.86986 0
M  V30 817 H 76.1542 -3.61738 -0.905553 0
M  V30 818 N 78.3393 -0.321999 -1.54275 0
M  V30 819 C 79.6163 0.335232 -1.92706 0
M  V30 820 C 79.9963 1.70006 -1.25145 0
M  V30 821 O 79.3443 2.25067 -0.394596 0
M  V30 822 C 79.5543 0.429008 -3.46353 0
M  V30 823 C 80.9023 0.690029 -4.18956 0
M  V30 824 O 81.9263 0.511992 -3.52501 0
M  V30 825 O 80.7853 1.03338 -5.36641 0
M  V30 826 H 77.8793 0.191143 -0.804608 0
M  V30 827 H 80.4253 -0.3716 -1.65581 0
M  V30 828 H 79.1973 -0.529611 -3.87699 0
M  V30 829 H 78.8203 1.18348 -3.79578 0
M  V30 830 N 79.8174 1.5752 -0.0501392 0
M  V30 831 C 81.0664 1.91827 0.623328 0
M  V30 832 C 81.3794 0.930222 1.72065 0
M  V30 833 O 82.5854 1.1653 2.4522 0
M  V30 834 C 81.0414 3.40692 1.16003 0
M  V30 835 C 80.6494 4.479 0.0948811 0
M  V30 836 C 82.3934 3.84034 1.80881 0
M  V30 837 C 80.3004 5.87879 0.644411 0
M  V30 838 H 79.2304 0.715918 0.236596 0
M  V30 839 H 81.8814 1.83115 -0.118861 0
M  V30 840 H 80.2634 3.44405 1.9545 0
M  V30 841 H 81.4374 4.55775 -0.678675 0
M  V30 842 H 79.7524 4.13892 -0.45637 0
M  V30 843 H 82.3494 4.85984 2.22988 0
M  V30 844 H 82.6924 3.20225 2.6601 0
M  V30 845 H 83.2254 3.82833 1.0809 0
M  V30 846 H 79.9644 6.55282 -0.169229 0
M  V30 847 H 79.4844 5.83567 1.38598 0
M  V30 848 H 81.1634 6.37098 1.12763 0
M  V30 849 N 81.2955 -0.223234 1.56011 0
M  V30 850 C 82.2055 -1.29766 1.95443 0
M  V30 851 C 83.2215 -1.51373 0.858028 0
M  V30 852 O 84.3975 -1.64536 1.16146 0
M  V30 853 C 81.4625 -2.62772 2.26167 0
M  V30 854 C 80.5235 -2.49482 3.49367 0
M  V30 855 C 79.7565 -3.76145 3.78616 0
M  V30 856 O 79.9795 -4.79087 3.09568 0
M  V30 857 O 78.9135 -3.73358 4.72109 0
M  V30 858 H 82.7395 -0.99309 2.87004 0
M  V30 859 H 80.3245 -0.425958 1.43199 0
M  V30 860 H 82.2065 -3.41327 2.47131 0
M  V30 861 H 80.8815 -2.92913 1.37781 0
M  V30 862 H 79.7885 -1.69133 3.33684 0
M  V30 863 H 81.1215 -2.2428 4.38131 0
M  V30 864 N 82.7736 -1.49793 -0.48987 0
M  V30 865 C 84.0196 -1.60078 -1.24511 0
M  V30 866 C 84.3526 -0.291608 -1.91998 0
M  V30 867 O 83.6276 0.705647 -1.81248 0
M  V30 868 C 83.9106 -2.76791 -2.30345 0
M  V30 869 C 83.7636 -4.17535 -1.67286 0
M  V30 870 C 85.0826 -2.89111 -3.31817 0
M  V30 871 H 82.2016 -0.582645 -0.451324 0
M  V30 872 H 84.8436 -1.82117 -0.541612 0
M  V30 873 H 82.9936 -2.5813 -2.90346 0
M  V30 874 H 84.6656 -4.4774 -1.11026 0
M  V30 875 H 82.9086 -4.22665 -0.976577 0
M  V30 876 H 83.5796 -4.95094 -2.44103 0
M  V30 877 H 86.0556 -3.06133 -2.81819 0
M  V30 878 H 84.9316 -3.72433 -4.03219 0
M  V30 879 H 85.1926 -1.9893 -3.94815 0
M  V30 880 N 84.2517 0.741722 -1.39055 0
M  V30 881 C 85.5287 1.49252 -1.26425 0
M  V30 882 C 85.9087 2.10705 0.129144 0
M  V30 883 O 85.2567 1.98045 1.13976 0
M  V30 884 C 85.4667 2.54934 -2.38347 0
M  V30 885 C 86.8147 3.21506 -2.77343 0
M  V30 886 O 87.8387 2.65245 -2.37747 0
M  V30 887 O 86.6977 4.23294 -3.45665 0
M  V30 888 H 83.7917 0.662451 -0.495064 0
M  V30 889 H 86.3377 0.776121 -1.50912 0
M  V30 890 H 85.1097 2.07857 -3.31529 0
M  V30 891 H 84.7327 3.34141 -2.15489 0
M  V30 892 N 85.7298 1.2412 0.971189 0
M  V30 893 C 86.6598 1.05508 2.08304 0
M  V30 894 C 87.6408 -0.0308864 1.70072 0
M  V30 895 O 88.8258 0.135521 1.93727 0
M  V30 896 C 85.9558 0.655365 3.4106 0
M  V30 897 C 84.9098 1.68971 3.93234 0
M  V30 898 C 84.2358 1.14516 5.22293 0
M  V30 899 C 85.5358 3.08487 4.21465 0
M  V30 900 H 87.2298 1.98507 2.24132 0
M  V30 901 H 84.7758 0.955821 1.07704 0
M  V30 902 H 86.7288 0.51217 4.18276 0
M  V30 903 H 85.4528 -0.31032 3.25122 0
M  V30 904 H 84.1118 1.82106 3.18171 0
M  V30 905 H 83.7598 0.170189 5.02712 0
M  V30 906 H 83.4598 1.83635 5.58168 0
M  V30 907 H 84.9838 1.01401 6.02121 0
M  V30 908 H 86.3978 2.98601 4.89398 0
M  V30 909 H 84.7948 3.74926 4.68562 0
M  V30 910 H 85.8648 3.56787 3.28376 0
M  V30 911 N 87.2079 -1.17134 1.05439 0
M  V30 912 C 88.1379 -2.2342 0.678649 0
M  V30 913 C 89.1189 -1.66971 -0.32476 0
M  V30 914 O 90.3039 -1.93149 -0.201802 0
M  V30 915 C 87.4339 -3.47256 0.0552099 0
M  V30 916 C 86.3879 -4.16543 0.98365 0
M  V30 917 C 85.7139 -5.34231 0.223961 0
M  V30 918 C 87.0139 -4.68495 2.3089 0
M  V30 919 H 88.7079 -2.55105 1.56722 0
M  V30 920 H 86.2539 -1.2262 0.754998 0
M  V30 921 H 88.2069 -4.20828 -0.21946 0
M  V30 922 H 86.9309 -3.14846 -0.868319 0
M  V30 923 H 85.5899 -3.44887 1.24293 0
M  V30 924 H 85.2379 -4.98071 -0.702412 0
M  V30 925 H 84.9379 -5.81527 0.842627 0
M  V30 926 H 86.4619 -6.10585 -0.0433671 0
M  V30 927 H 87.8759 -5.33691 2.09396 0
M  V30 928 H 86.2729 -5.26379 2.88176 0
M  V30 929 H 87.3429 -3.85169 2.94572 0
M  V30 930 N 88.686 -0.835752 -1.33615 0
M  V30 931 C 89.633 -0.26473 -2.29277 0
M  V30 932 C 90.603 0.617712 -1.54187 0
M  V30 933 O 91.788 0.556641 -1.825 0
M  V30 934 C 88.928 0.556777 -3.40579 0
M  V30 935 C 88.041 -0.349339 -4.30585 0
M  V30 936 C 87.176 0.482969 -5.29 0
M  V30 937 C 86.215 -0.421732 -6.10645 0
M  V30 938 N 85.352 0.372262 -7.01112 0
M  V30 939 H 90.192 -1.08582 -2.77514 0
M  V30 940 H 87.729 -0.546927 -1.36554 0
M  V30 941 H 89.687 1.04852 -4.03809 0
M  V30 942 H 88.317 1.34286 -2.93542 0
M  V30 943 H 87.369 -0.959372 -3.68104 0
M  V30 944 H 88.681 -1.04445 -4.87742 0
M  V30 945 H 87.835 1.03866 -5.97743 0
M  V30 946 H 86.574 1.21153 -4.72412 0
M  V30 947 H 85.579 -0.989464 -5.40823 0
M  V30 948 H 86.804 -1.14861 -6.69316 0
M  V30 949 H 84.75 1.08426 -6.46977 0
M  V30 950 H 84.667 -0.264198 -7.55538 0
M  V30 951 H 85.935 0.910293 -7.74167 0
M  V30 952 N 90.1641 1.46063 -0.591896 0
M  V30 953 C 91.1121 2.32124 0.148739 0
M  V30 954 C 92.1061 1.45035 0.875286 0
M  V30 955 O 93.3121 1.61609 0.792632 0
M  V30 956 H 89.6871 0.749024 0.066832 0
M  V30 957 H 91.6581 2.92392 -0.595783 0
M  V30 958 C 90.4071 3.28373 1.1431 0
M  V30 959 H 89.7301 3.95371 0.59346 0
M  V30 960 H 91.1701 3.91352 1.63155 0
M  V30 961 C 89.6291 2.54393 2.20875 0
M  V30 962 O 90.1591 2.31373 3.28374 0
M  V30 963 N 88.3651 2.14797 1.95731 0
M  V30 964 H 87.9121 2.33719 1.08319 0
M  V30 965 H 87.8701 1.65619 2.67241 0
M  V30 966 N 91.6422 0.330177 1.54103 0
M  V30 967 C 92.8902 -0.269871 2.0029 0
M  V30 968 C 93.2112 -1.52133 1.21986 0
M  V30 969 O 92.4812 -1.93212 0.323438 0
M  V30 970 H 91.0612 -0.10271 0.739905 0
M  V30 971 H 93.7232 0.448249 1.89675 0
M  V30 972 H 92.8192 -0.52166 3.07709 0
M  V30 973 N 93.1203 -1.57491 0.0584922 0
M  V30 974 C 94.0303 -2.15448 -0.928414 0
M  V30 975 C 95.0463 -1.11416 -1.3365 0
M  V30 976 O 96.2223 -1.4362 -1.41193 0
M  V30 977 C 93.2873 -2.69393 -2.18239 0
M  V30 978 C 92.3483 -3.88249 -1.83196 0
M  V30 979 C 91.5813 -4.39613 -3.02616 0
M  V30 980 O 91.8043 -3.90023 -4.16219 0
M  V30 981 O 90.7383 -5.31111 -2.83204 0
M  V30 982 H 94.5643 -3.00112 -0.465483 0
M  V30 983 H 92.1493 -1.48499 -0.163826 0
M  V30 984 H 94.0313 -3.04026 -2.91798 0
M  V30 985 H 92.7063 -1.87796 -2.63656 0
M  V30 986 H 91.6133 -3.58492 -1.06931 0
M  V30 987 H 92.9463 -4.71098 -1.42573 0
M  V30 988 N 94.5984 0.214957 -1.56127 0
M  V30 989 C 96.0144 0.564948 -1.49267 0
M  V30 990 C 96.2144 1.86827 -0.754838 0
M  V30 991 O 95.2704 2.50745 -0.297198 0
M  V30 992 C 96.5834 0.638071 -2.93852 0
M  V30 993 C 98.1314 0.728253 -3.0441 0
M  V30 994 C 98.6064 0.832663 -4.50367 0
M  V30 995 N 100.097 0.896712 -4.54437 0
M  V30 996 C 100.832 0.997324 -5.6466 0
M  V30 997 N 100.328 1.06147 -6.8462 0
M  V30 998 N 102.121 1.03297 -5.52527 0
M  V30 999 H 94.2724 -0.640211 -2.02522 0
M  V30 1000 H 96.5354 -0.225507 -0.920788 0
M  V30 1001 H 96.2414 -0.250126 -3.50809 0
M  V30 1002 H 96.1154 1.49947 -3.46115 0
M  V30 1003 H 98.5024 1.60689 -2.47514 0
M  V30 1004 H 98.5834 -0.158952 -2.55306 0
M  V30 1005 H 98.2274 -0.0415417 -5.07883 0
M  V30 1006 H 98.1574 1.73538 -4.97184 0
M  V30 1007 H 100.648 0.857188 -3.6805 0
M  V30 1008 H 100.961 1.1382 -7.64372 0
M  V30 1009 H 99.3064 1.03049 -6.87318 0
M  V30 1010 H 102.497 0.979558 -4.57736 0
M  V30 1011 H 102.67 1.10793 -6.38458 0
M  V30 1012 N 96.0765 1.50051 0.48192 0
M  V30 1013 C 97.3255 1.59741 1.23149 0
M  V30 1014 C 97.6385 0.298163 1.93314 0
M  V30 1015 O 98.8445 0.273835 2.70116 0
M  V30 1016 C 97.3005 2.81926 2.23708 0
M  V30 1017 C 96.9085 4.18685 1.59396 0
M  V30 1018 C 98.6525 3.00956 2.99375 0
M  V30 1019 C 96.5595 5.3207 2.58178 0
M  V30 1020 H 95.4895 0.594838 0.46334 0
M  V30 1021 H 98.1405 1.76467 0.503169 0
M  V30 1022 H 96.5225 2.58736 2.99786 0
M  V30 1023 H 97.6965 4.52088 0.891811 0
M  V30 1024 H 96.0115 4.05171 0.960503 0
M  V30 1025 H 98.6085 3.82836 3.73283 0
M  V30 1026 H 98.9515 2.12258 3.58123 0
M  V30 1027 H 99.4845 3.24277 2.30411 0
M  V30 1028 H 96.2235 6.22888 2.04184 0
M  V30 1029 H 95.7435 5.03098 3.26577 0
M  V30 1030 H 97.4225 5.62196 3.20225 0
M  V30 1031 N 97.5546 -0.734337 1.39446 0
M  V30 1032 C 98.4646 -1.87879 1.40495 0
M  V30 1033 C 99.4806 -1.714 0.299672 0
M  V30 1034 O 100.657 -1.93991 0.541249 0
M  V30 1035 C 97.7216 -3.23477 1.24754 0
M  V30 1036 C 96.7826 -3.52344 2.45259 0
M  V30 1037 C 96.0156 -4.81473 2.30259 0
M  V30 1038 O 96.2386 -5.55237 1.30643 0
M  V30 1039 O 95.1726 -5.10254 3.19256 0
M  V30 1040 H 98.9986 -1.89949 2.36966 0
M  V30 1041 H 96.5836 -0.882243 1.20569 0
M  V30 1042 H 98.4656 -4.04509 1.18111 0
M  V30 1043 H 97.1406 -3.22176 0.313781 0
M  V30 1044 H 96.0476 -2.71396 2.57478 0
M  V30 1045 H 97.3806 -3.58426 3.37331 0
M  V30 1046 N 99.0327 -1.24633 -0.964593 0
M  V30 1047 C 99.9797 -1.04144 -2.05968 0
M  V30 1048 C 100.95 0.046262 -1.66036 0
M  V30 1049 O 102.135 -0.108972 -1.90489 0
M  V30 1050 C 99.2747 -0.65563 -3.38815 0
M  V30 1051 C 98.3877 -1.81714 -3.91923 0
M  V30 1052 C 97.5227 -1.37662 -5.13052 0
M  V30 1053 C 96.5617 -2.50788 -5.58365 0
M  V30 1054 N 95.6987 -2.07582 -6.70712 0
M  V30 1055 H 100.539 -1.9787 -2.22827 0
M  V30 1056 H 98.0757 -0.9855 -1.09208 0
M  V30 1057 H 100.034 -0.412954 -4.15151 0
M  V30 1058 H 98.6637 0.244627 -3.21872 0
M  V30 1059 H 97.7157 -2.1734 -3.12198 0
M  V30 1060 H 99.0277 -2.66705 -4.21509 0
M  V30 1061 H 98.1817 -1.093 -5.96773 0
M  V30 1062 H 96.9207 -0.497293 -4.85158 0
M  V30 1063 H 95.9257 -2.79906 -4.73215 0
M  V30 1064 H 97.1507 -3.39283 -5.88272 0
M  V30 1065 H 95.0967 -1.22051 -6.44546 0
M  V30 1066 H 95.0137 -2.86125 -6.99763 0
M  V30 1067 H 96.2817 -1.82369 -7.57867 0
M  V30 1068 N 100.511 1.16574 -1.06058 0
M  V30 1069 C 101.757 1.87324 -0.777022 0
M  V30 1070 C 102.09 1.81351 0.694645 0
M  V30 1071 O 101.365 1.22753 1.50871 0
M  V30 1072 C 101.648 3.36991 -1.26922 0
M  V30 1073 C 101.501 3.51667 -2.80447 0
M  V30 1074 C 102.82 4.3131 -0.87521 0
M  V30 1075 H 99.9388 0.680191 -0.28374 0
M  V30 1076 H 102.581 1.37036 -1.3161 0
M  V30 1077 H 100.731 3.79949 -0.81063 0
M  V30 1078 H 102.403 3.17664 -3.34495 0
M  V30 1079 H 100.646 2.93656 -3.19294 0
M  V30 1080 H 101.317 4.56766 -3.0995 0
M  V30 1081 H 103.793 3.9624 -1.27014 0
M  V30 1082 H 102.669 5.34545 -1.2471 0
M  V30 1083 H 102.93 4.41552 0.220071 0
M  V30 1084 N 101.989 0.842826 1.3317 0
M  V30 1085 C 102.899 0.281444 2.32906 0
M  V30 1086 C 103.915 -0.594587 1.63526 0
M  V30 1087 O 105.091 -0.49777 1.95152 0
M  V30 1088 C 102.156 -0.530929 3.42611 0
M  V30 1089 C 101.217 0.369843 4.27704 0
M  V30 1090 C 100.45 -0.403853 5.3217 0
M  V30 1091 O 100.673 -1.63513 5.46461 0
M  V30 1092 O 99.6069 0.224199 6.01482 0
M  V30 1093 H 103.433 1.10744 2.82789 0
M  V30 1094 H 101.018 0.60545 1.36582 0
M  V30 1095 H 102.9 -0.992437 4.09547 0
M  V30 1096 H 101.575 -1.33392 2.94938 0
M  V30 1097 H 100.482 0.879275 3.6362 0
M  V30 1098 H 101.815 1.13771 4.78871 0
M  V30 1099 N 103.467 -1.45747 0.599634 0
M  V30 1100 C 104.417 -2.27538 -0.145107 0
M  V30 1101 C 105.401 -1.3686 -0.846055 0
M  V30 1102 O 106.593 -1.6091 -0.737357 0
M  V30 1103 C 103.722 -3.23569 -1.14708 0
M  V30 1104 C 102.808 -4.21734 -0.447383 0
M  V30 1105 N 103.199 -5.03257 0.506535 0
M  V30 1106 C 101.497 -4.40536 -0.695966 0
M  V30 1107 C 102.198 -5.74426 0.917068 0
M  V30 1108 N 101.174 -5.42966 0.26253 0
M  V30 1109 H 104.976 -2.87965 0.587672 0
M  V30 1110 H 102.49 -1.56803 0.422697 0
M  V30 1111 H 104.487 -3.8089 -1.69495 0
M  V30 1112 H 103.147 -2.64702 -1.8805 0
M  V30 1113 H 104.158 -5.10319 0.882899 0
M  V30 1114 H 100.835 -3.92802 -1.41467 0
M  V30 1115 H 102.225 -6.4995 1.70338 0
M  V30 1116 N 104.945 -0.338344 -1.53925 0
M  V30 1117 C 106.17 0.263987 -2.05713 0
M  V30 1118 C 106.595 1.43847 -1.21201 0
M  V30 1119 O 105.953 1.79904 -0.224535 0
M  V30 1120 C 106.001 0.662 -3.54471 0
M  V30 1121 O 105.105 1.76265 -3.72833 0
M  V30 1122 H 104.446 0.0448722 -0.662482 0
M  V30 1123 H 106.976 -0.491048 -1.9862 0
M  V30 1124 H 106.986 0.940594 -3.9701 0
M  V30 1125 H 105.661 -0.196937 -4.15433 0
M  V30 1126 H 104.238 1.48173 -3.42198 0
M  V30 1127 N 106.423 1.57458 -0.0668435 0
M  V30 1128 C 107.7 1.8469 0.644132 0
M  V30 1129 C 108.08 0.958343 1.88093 0
M  V30 1130 O 107.428 0.0233579 2.28488 0
M  V30 1131 C 107.638 3.34767 0.986509 0
M  V30 1132 C 108.986 4.02159 1.36212 0
M  V30 1133 O 110.01 3.39484 1.07839 0
M  V30 1134 O 108.869 5.12694 1.89227 0
M  V30 1135 H 105.963 0.762816 0.319437 0
M  V30 1136 H 108.509 1.6942 -0.0973986 0
M  V30 1137 H 107.281 3.91151 0.107883 0
M  V30 1138 H 106.904 3.55281 1.78497 0
M  V30 1139 N 107.901 -0.206675 1.56239 0
M  V30 1140 C 108.831 -1.25909 1.96645 0
M  V30 1141 C 109.812 -1.48097 0.836734 0
M  V30 1142 O 110.997 -1.6003 1.10019 0
M  V30 1143 C 108.127 -2.6058 2.29599 0
M  V30 1144 C 107.081 -2.53024 3.452 0
M  V30 1145 C 106.407 -3.91861 3.63798 0
M  V30 1146 C 107.707 -2.06524 4.79734 0
M  V30 1147 H 109.401 -0.923369 2.84806 0
M  V30 1148 H 106.947 -0.442735 1.37025 0
M  V30 1149 H 108.9 -3.34375 2.56459 0
M  V30 1150 H 107.624 -2.95869 1.38307 0
M  V30 1151 H 106.283 -1.81684 3.18412 0
M  V30 1152 H 105.931 -4.24483 2.69857 0
M  V30 1153 H 105.631 -3.87683 4.4156 0
M  V30 1154 H 107.155 -4.67296 3.93022 0
M  V30 1155 H 108.569 -2.70072 5.05702 0
M  V30 1156 H 106.966 -2.13374 5.60885 0
M  V30 1157 H 108.036 -1.01802 4.74093 0
M  V30 1158 N 109.379 -1.50304 -0.473955 0
M  V30 1159 C 110.604 -1.65175 -1.25427 0
M  V30 1160 C 111.029 -0.333673 -1.85117 0
M  V30 1161 O 110.387 0.702114 -1.67153 0
M  V30 1162 C 110.435 -2.74295 -2.34082 0
M  V30 1163 O 109.539 -2.35349 -3.38651 0
M  V30 1164 H 108.88 -0.551944 -0.369126 0
M  V30 1165 H 111.41 -1.96662 -0.564364 0
M  V30 1166 H 111.42 -2.97285 -2.79438 0
M  V30 1167 H 110.095 -3.69959 -1.90008 0
M  V30 1168 H 108.672 -2.22794 -2.99027 0
M  V30 1169 N 110.857 0.726932 -1.39834 0
M  V30 1170 C 112.104 1.48664 -1.37496 0
M  V30 1171 C 112.432 1.94482 0.0264678 0
M  V30 1172 O 111.687 1.67692 1.00886 0
M  V30 1173 C 111.986 2.73495 -2.30077 0
M  V30 1174 C 111.652 2.46502 -3.77555 0
M  V30 1175 C 110.314 2.3885 -4.17737 0
M  V30 1176 C 112.666 2.23604 -4.70798 0
M  V30 1177 C 109.994 2.06352 -5.49214 0
M  V30 1178 C 112.346 1.92622 -6.02561 0
M  V30 1179 C 111.01 1.83444 -6.41798 0
M  V30 1180 H 110.28 0.544001 -0.503135 0
M  V30 1181 H 112.927 0.833657 -1.72402 0
M  V30 1182 H 111.232 3.43575 -1.88317 0
M  V30 1183 H 112.929 3.31549 -2.25558 0
M  V30 1184 H 109.519 2.5334 -3.45712 0
M  V30 1185 H 113.703 2.28479 -4.40581 0
M  V30 1186 H 108.959 1.97776 -5.78528 0
M  V30 1187 H 113.133 1.73914 -6.74334 0
M  V30 1188 H 110.76 1.58029 -7.43593 0
M  V30 1189 N 112.336 1.25143 0.95797 0
M  V30 1190 C 113.561 1.12521 1.74223 0
M  V30 1191 C 113.986 -0.317402 1.85403 0
M  V30 1192 O 113.344 -1.2299 1.33204 0
M  V30 1193 C 113.392 1.78062 3.1357 0
M  V30 1194 O 112.496 1.058 3.98598 0
M  V30 1195 H 111.837 0.39304 0.535178 0
M  V30 1196 H 114.367 1.65641 1.201 0
M  V30 1197 H 114.377 1.84213 3.64046 0
M  V30 1198 H 113.052 2.83021 3.04749 0
M  V30 1199 H 111.629 1.07506 3.57067 0
M  V30 1200 N 113.814 -1.1601 1.06675 0
M  V30 1201 C 114.761 -2.20525 0.680967 0
M  V30 1202 C 115.731 -1.62904 -0.324283 0
M  V30 1203 O 116.916 -1.89615 -0.212294 0
M  V30 1204 C 114.056 -3.45013 0.0776551 0
M  V30 1205 C 113.169 -4.16863 1.13355 0
M  V30 1206 C 112.304 -5.2888 0.49597 0
M  V30 1207 C 111.343 -5.92537 1.53513 0
M  V30 1208 N 110.48 -6.96038 0.920631 0
M  V30 1209 H 115.32 -2.52876 1.57663 0
M  V30 1210 H 112.857 -1.24199 0.788223 0
M  V30 1211 H 114.815 -4.16193 -0.289704 0
M  V30 1212 H 113.445 -3.132 -0.781393 0
M  V30 1213 H 112.497 -3.44248 1.61857 0
M  V30 1214 H 113.809 -4.60294 1.92174 0
M  V30 1215 H 112.963 -6.06653 0.0758604 0
M  V30 1216 H 111.702 -4.86622 -0.324062 0
M  V30 1217 H 110.707 -5.13482 1.9651 0
M  V30 1218 H 111.932 -6.36873 2.35733 0
M  V30 1219 H 109.878 -6.55888 0.12138 0
M  V30 1220 H 109.795 -7.3786 1.64616 0
M  V30 1221 H 111.063 -7.77725 0.525795 0
M  V30 1222 N 115.292 -0.849877 -1.32721 0
M  V30 1223 C 116.569 -0.372405 -1.92022 0
M  V30 1224 C 116.949 1.1435 -1.77447 0
M  V30 1225 O 116.297 1.96296 -1.16962 0
M  V30 1226 C 116.507 -0.831482 -3.3895 0
M  V30 1227 C 117.855 -0.845882 -4.16089 0
M  V30 1228 O 118.879 -0.775806 -3.47649 0
M  V30 1229 O 117.738 -0.943753 -5.38289 0
M  V30 1230 H 114.832 -0.107667 -0.819961 0
M  V30 1231 H 117.378 -0.93646 -1.41522 0
M  V30 1232 H 116.15 -1.87448 -3.4348 0
M  V30 1233 H 115.773 -0.24461 -3.96847 0
M  V30 1234 N 116.77 1.45427 -0.607355 0
M  V30 1235 C 118.016 2.03097 -0.111035 0
M  V30 1236 C 118.371 1.46735 1.24445 0
M  V30 1237 O 117.664 0.632478 1.8086 0
M  V30 1238 C 117.858 3.57398 -0.0129263 0
M  V30 1239 C 117.687 4.28726 -1.35735 0
M  V30 1240 C 116.457 4.66659 -1.93798 0
M  V30 1241 C 118.655 4.60699 -2.28607 0
M  V30 1242 N 116.637 5.22845 -3.21723 0
M  V30 1243 C 118.008 5.17716 -3.41131 0
M  V30 1244 C 120.063 4.42638 -2.27982 0
M  V30 1245 C 118.766 5.58576 -4.53194 0
M  V30 1246 C 120.792 4.84531 -3.39093 0
M  V30 1247 C 120.154 5.4164 -4.50339 0
M  V30 1248 H 116.253 0.777476 -0.083994 0
M  V30 1249 H 118.837 1.77249 -0.805655 0
M  V30 1250 H 117.008 3.82907 0.650914 0
M  V30 1251 H 118.74 4.01722 0.490033 0
M  V30 1252 H 115.495 4.50207 -1.47007 0
M  V30 1253 H 115.919 5.55438 -3.87063 0
M  V30 1254 H 120.561 3.97798 -1.43235 0
M  V30 1255 H 118.279 6.02382 -5.38667 0
M  V30 1256 H 121.865 4.72289 -3.39757 0
M  V30 1257 H 120.745 5.73461 -5.34895 0
M  V30 1258 N 118.248 0.346503 1.53744 0
M  V30 1259 C 119.473 -0.253074 2.0585 0
M  V30 1260 C 119.898 -1.43202 1.21962 0
M  V30 1261 O 119.256 -1.79783 0.234073 0
M  V30 1262 C 119.304 -0.643193 3.54817 0
M  V30 1263 O 118.408 -1.74286 3.73762 0
M  V30 1264 H 117.749 -0.0413583 0.662711 0
M  V30 1265 H 120.279 0.501574 1.98357 0
M  V30 1266 H 120.289 -0.919526 3.97503 0
M  V30 1267 H 118.964 0.218966 4.15323 0
M  V30 1268 H 117.541 -1.46356 3.42979 0
M  V30 1269 N 119.726 -1.57421 0.075193 0
M  V30 1270 C 120.973 -1.93618 -0.593146 0
M  V30 1271 C 121.301 -0.955484 -1.69413 0
M  V30 1272 O 120.556 0.0283251 -1.9568 0
M  V30 1273 C 120.855 -3.36428 -1.20626 0
M  V30 1274 C 120.521 -4.50307 -0.231078 0
M  V30 1275 C 119.183 -4.81186 0.0371936 0
M  V30 1276 C 121.535 -5.19374 0.435888 0
M  V30 1277 C 118.863 -5.78466 0.979461 0
M  V30 1278 C 121.215 -6.17665 1.3665 0
M  V30 1279 C 119.879 -6.46958 1.6432 0
M  V30 1280 H 119.149 -0.708499 -0.217047 0
M  V30 1281 H 121.796 -1.90937 0.146793 0
M  V30 1282 H 120.101 -3.35592 -2.02201 0
M  V30 1283 H 121.798 -3.61727 -1.73073 0
M  V30 1284 H 118.388 -4.26227 -0.450357 0
M  V30 1285 H 122.572 -4.95711 0.241748 0
M  V30 1286 H 117.828 -5.99487 1.20106 0
M  V30 1287 H 122.002 -6.70284 1.88924 0
M  V30 1288 H 119.629 -7.2215 2.37494 0
M  V30 1289 N 121.204 0.198386 -1.56346 0
M  V30 1290 C 122.434 0.934215 -1.84271 0
M  V30 1291 C 122.842 1.77496 -0.655125 0
M  V30 1292 O 122.185 1.7961 0.385488 0
M  V30 1293 C 122.247 1.88278 -3.06254 0
M  V30 1294 C 121.911 1.22431 -4.40295 0
M  V30 1295 C 122.908 0.602839 -5.16393 0
M  V30 1296 C 120.593 1.22915 -4.87029 0
M  V30 1297 C 122.587 -0.0050083 -6.374 0
M  V30 1298 C 120.274 0.617465 -6.07973 0
M  V30 1299 C 121.272 0.00146341 -6.83 0
M  V30 1300 O 120.96 -0.600642 -8.01653 0
M  V30 1301 H 120.692 0.278245 -0.616081 0
M  V30 1302 H 123.246 0.211626 -2.04307 0
M  V30 1303 H 121.476 2.64498 -2.82095 0
M  V30 1304 H 123.165 2.48612 -3.20853 0
M  V30 1305 H 123.931 0.591265 -4.81382 0
M  V30 1306 H 119.81 1.69801 -4.28589 0
M  V30 1307 H 123.354 -0.48643 -6.95902 0
M  V30 1308 H 119.251 0.62653 -6.42452 0
M  V30 1309 H 120.019 -0.497225 -8.16988 0
M  V30 1310 N 122.682 1.50554 0.465978 0
M  V30 1311 C 123.612 1.72722 1.57128 0
M  V30 1312 C 124.593 0.576294 1.6004 0
M  V30 1313 O 125.778 0.81598 1.76225 0
M  V30 1314 C 122.908 1.82605 2.95419 0
M  V30 1315 C 121.862 2.97835 3.07373 0
M  V30 1316 C 121.188 2.92867 4.47363 0
M  V30 1317 C 122.488 4.38265 2.84114 0
M  V30 1318 H 124.182 2.65267 1.38829 0
M  V30 1319 H 121.728 1.2765 0.666441 0
M  V30 1320 H 123.681 1.96698 3.72677 0
M  V30 1321 H 122.405 0.866858 3.14886 0
M  V30 1322 H 121.064 2.83401 2.3255 0
M  V30 1323 H 120.712 1.94783 4.63755 0
M  V30 1324 H 120.412 3.70227 4.56296 0
M  V30 1325 H 121.936 3.09015 5.26633 0
M  V30 1326 H 123.35 4.53198 3.51118 0
M  V30 1327 H 121.747 5.17115 3.04487 0
M  V30 1328 H 122.817 4.50281 1.7993 0
M  V30 1329 N 124.16 -0.719506 1.40217 0
M  V30 1330 C 125.09 -1.8465 1.42922 0
M  V30 1331 C 126.071 -1.67599 0.29062 0
M  V30 1332 O 127.256 -1.87688 0.498677 0
M  V30 1333 C 124.386 -3.22565 1.28722 0
M  V30 1334 C 123.34 -3.54281 2.40144 0
M  V30 1335 C 122.666 -4.91298 2.11023 0
M  V30 1336 C 123.966 -3.55676 3.82481 0
M  V30 1337 H 125.66 -1.82644 2.37237 0
M  V30 1338 H 123.206 -0.877305 1.1419 0
M  V30 1339 H 125.159 -4.01095 1.29232 0
M  V30 1340 H 123.883 -3.25137 0.308811 0
M  V30 1341 H 122.542 -2.78088 2.38877 0
M  V30 1342 H 122.19 -4.90468 1.11582 0
M  V30 1343 H 121.89 -5.13485 2.8567 0
M  V30 1344 H 123.414 -5.72166 2.13209 0
M  V30 1345 H 124.828 -4.24254 3.85592 0
M  V30 1346 H 123.225 -3.89388 4.56614 0
M  V30 1347 H 124.295 -2.55144 4.12346 0
M  V30 1348 N 125.638 -1.25649 -0.95132 0
M  V30 1349 C 126.868 -1.13179 -1.72841 0
M  V30 1350 C 127.276 0.316827 -1.86528 0
M  V30 1351 O 126.619 1.22948 -1.3649 0
M  V30 1352 C 126.681 -1.71644 -3.15878 0
M  V30 1353 C 126.345 -3.20667 -3.25609 0
M  V30 1354 C 127.342 -4.17616 -3.09666 0
M  V30 1355 C 125.027 -3.6094 -3.49324 0
M  V30 1356 C 127.021 -5.52817 -3.17289 0
M  V30 1357 C 124.708 -4.96278 -3.56584 0
M  V30 1358 C 125.706 -5.92025 -3.40581 0
M  V30 1359 O 125.394 -7.24899 -3.47528 0
M  V30 1360 H 125.126 -0.395389 -0.54831 0
M  V30 1361 H 127.68 -1.66566 -1.20187 0
M  V30 1362 H 125.91 -1.12707 -3.69911 0
M  V30 1363 H 127.599 -1.54225 -3.75459 0
M  V30 1364 H 128.365 -3.87842 -2.91211 0
M  V30 1365 H 124.244 -2.86907 -3.6084 0
M  V30 1366 H 127.788 -6.2753 -3.04716 0
M  V30 1367 H 123.685 -5.25716 -3.74556 0
M  V30 1368 H 124.453 -7.33039 -3.64138 0
M  V30 1369 N 127.117 1.15442 -1.07289 0
M  V30 1370 C 128.347 1.89821 -0.815576 0
M  V30 1371 C 128.755 1.7823 0.634867 0
M  V30 1372 O 128.098 1.13152 1.44715 0
M  V30 1373 C 128.16 3.40817 -1.14385 0
M  V30 1374 C 127.824 3.76193 -2.59476 0
M  V30 1375 C 128.821 3.77269 -3.57721 0
M  V30 1376 C 126.506 4.0652 -2.95037 0
M  V30 1377 C 128.5 4.08176 -4.89562 0
M  V30 1378 C 126.187 4.37092 -4.27076 0
M  V30 1379 C 127.185 4.37902 -5.24148 0
M  V30 1380 O 126.873 4.67741 -6.53815 0
M  V30 1381 H 126.605 0.608465 -0.294528 0
M  V30 1382 H 129.159 1.472 -1.43252 0
M  V30 1383 H 127.389 3.83835 -0.469865 0
M  V30 1384 H 129.078 3.96485 -0.869179 0
M  V30 1385 H 129.844 3.5394 -3.3159 0
M  V30 1386 H 125.723 4.05049 -2.20128 0
M  V30 1387 H 129.267 4.08723 -5.65324 0
M  V30 1388 H 125.164 4.59889 -4.5296 0
M  V30 1389 H 125.932 4.85509 -6.58957 0
M  V30 1390 N 128.595 0.856903 1.32268 0
M  V30 1391 C 129.823 0.475439 2.01363 0
M  V30 1392 C 130.238 -0.928486 1.64392 0
M  V30 1393 O 129.595 -1.60624 0.866387 0
M  V30 1394 C 129.646 0.607545 3.56358 0
M  V30 1395 O 129.367 1.95617 3.92002 0
M  V30 1396 C 130.868 0.225382 4.42727 0
M  V30 1397 H 128.088 0.186636 0.644521 0
M  V30 1398 H 130.632 1.15446 1.68797 0
M  V30 1399 H 128.787 -0.0237719 3.87393 0
M  V30 1400 H 129.201 1.95455 4.86721 0
M  V30 1401 H 130.675 0.368813 5.50767 0
M  V30 1402 H 131.152 -0.834369 4.31202 0
M  V30 1403 H 131.758 0.831864 4.17085 0
M  V30 1404 N 130.073 -1.45103 0.615059 0
M  V30 1405 C 130.983 -2.34382 -0.101034 0
M  V30 1406 C 131.999 -1.51681 -0.852585 0
M  V30 1407 O 133.175 -1.8446 -0.808484 0
M  V30 1408 C 130.24 -3.29417 -1.08099 0
M  V30 1409 C 129.301 -4.28025 -0.330577 0
M  V30 1410 C 128.534 -5.1852 -1.26385 0
M  V30 1411 O 128.757 -5.12598 -2.50198 0
M  V30 1412 O 127.691 -5.97122 -0.756866 0
M  V30 1413 H 131.517 -2.97033 0.632855 0
M  V30 1414 H 129.102 -1.4461 0.375293 0
M  V30 1415 H 130.984 -3.87958 -1.6452 0
M  V30 1416 H 129.659 -2.69321 -1.79577 0
M  V30 1417 H 128.566 -3.73078 0.276283 0
M  V30 1418 H 129.899 -4.90997 0.343866 0
M  V30 1419 N 131.551 -0.354651 -1.53558 0
M  V30 1420 C 132.798 0.238443 -2.01091 0
M  V30 1421 C 133.126 1.49663 -1.24222 0
M  V30 1422 O 132.381 1.93049 -0.321003 0
M  V30 1423 C 132.68 0.587121 -3.52545 0
M  V30 1424 C 132.346 -0.575472 -4.47213 0
M  V30 1425 C 131.008 -0.894497 -4.72813 0
M  V30 1426 C 133.36 -1.35489 -5.03281 0
M  V30 1427 C 130.688 -1.99511 -5.51736 0
M  V30 1428 C 133.04 -2.44583 -5.83405 0
M  V30 1429 C 131.704 -2.77033 -6.07296 0
M  V30 1430 H 130.974 0.0872526 -0.735845 0
M  V30 1431 H 133.621 -0.484859 -1.8526 0
M  V30 1432 H 131.926 1.39129 -3.66265 0
M  V30 1433 H 133.623 1.05809 -3.86789 0
M  V30 1434 H 130.213 -0.316774 -4.27428 0
M  V30 1435 H 134.397 -1.12167 -4.83459 0
M  V30 1436 H 129.653 -2.25063 -5.68469 0
M  V30 1437 H 133.827 -3.05401 -6.25862 0
M  V30 1438 H 131.454 -3.6244 -6.68237 0
M  V30 1439 N 133.029 1.57378 -0.0835403 0
M  V30 1440 C 134.257 1.98263 0.59157 0
M  V30 1441 C 134.672 0.962302 1.62435 0
M  V30 1442 O 134.029 -0.049581 1.82433 0
M  V30 1443 C 134.08 3.39214 1.24965 0
M  V30 1444 O 133.801 4.37339 0.258186 0
M  V30 1445 C 135.302 3.95038 2.01147 0
M  V30 1446 H 132.522 0.651773 0.159477 0
M  V30 1447 H 135.066 2.03878 -0.159415 0
M  V30 1448 H 133.221 3.34649 1.95164 0
M  V30 1449 H 133.635 5.19371 0.731734 0
M  V30 1450 H 135.109 4.95848 2.42567 0
M  V30 1451 H 135.586 3.32222 2.87272 0
M  V30 1452 H 136.192 4.0304 1.35789 0
M  V30 1453 N 134.507 -0.190092 1.56449 0
M  V30 1454 C 135.918 -0.754312 1.70784 0
M  V30 1455 C 136.269 -1.83631 0.690951 0
M  V30 1456 O 135.394 -2.15868 -0.151604 0
M  V30 1457 C 135.989 -1.37503 3.09642 0
M  V30 1458 C 134.548 -1.88628 3.25725 0
M  V30 1459 C 133.695 -0.758098 2.66736 0
M  V30 1460 H 136.646 0.0350524 1.58661 0
M  V30 1461 H 136.667 -2.2445 3.0725 0
M  V30 1462 H 136.179 -0.587302 3.83631 0
M  V30 1463 H 134.28 -2.70103 2.56661 0
M  V30 1464 H 134.393 -2.04462 4.3328 0
M  V30 1465 H 132.757 -1.17369 2.26046 0
M  V30 1466 H 133.54 0.0174705 3.43296 0
M  V30 1467 N 135.985 -1.50799 -0.457987 0
M  V30 1468 C 137.213 -1.66218 -1.23203 0
M  V30 1469 C 137.628 -0.350894 -1.85511 0
M  V30 1470 O 136.985 0.668546 -1.69814 0
M  V30 1471 C 137.036 -2.76291 -2.33121 0
M  V30 1472 O 136.757 -4.02338 -1.73366 0
M  V30 1473 C 138.258 -3.028 -3.2377 0
M  V30 1474 H 135.478 -0.558361 -0.372121 0
M  V30 1475 H 138.022 -1.97099 -0.545179 0
M  V30 1476 H 136.177 -2.48068 -2.97558 0
M  V30 1477 H 136.591 -4.63312 -2.4585 0
M  V30 1478 H 138.065 -3.8345 -3.97077 0
M  V30 1479 H 138.542 -2.14385 -3.83322 0
M  V30 1480 H 139.148 -3.32604 -2.65056 0
M  V30 1481 N 137.463 0.71206 -1.40597 0
M  V30 1482 C 138.373 1.8562 -1.43466 0
M  V30 1483 C 139.389 1.70902 -0.326902 0
M  V30 1484 O 140.565 1.93105 -0.572043 0
M  V30 1485 C 137.63 3.21451 -1.29884 0
M  V30 1486 C 136.691 3.48398 -2.50833 0
M  V30 1487 C 135.924 4.77749 -2.3789 0
M  V30 1488 O 136.147 5.53089 -1.39459 0
M  V30 1489 O 135.081 5.05111 -3.27333 0
M  V30 1490 H 138.907 1.86155 -2.39958 0
M  V30 1491 H 136.492 0.86295 -1.21957 0
M  V30 1492 H 138.374 4.02579 -1.24531 0
M  V30 1493 H 137.049 3.21636 -0.364997 0
M  V30 1494 H 135.956 2.67265 -2.61763 0
M  V30 1495 H 137.289 3.53014 -3.4299 0
M  V30 1496 N 138.941 1.26152 0.944643 0
M  V30 1497 C 139.888 1.07408 2.04285 0
M  V30 1498 C 140.858 -0.0198413 1.66088 0
M  V30 1499 O 142.043 0.139264 1.90291 0
M  V30 1500 C 139.183 0.70945 3.37729 0
M  V30 1501 C 138.296 1.87926 3.88983 0
M  V30 1502 C 137.431 1.45807 5.10797 0
M  V30 1503 C 136.47 2.5964 5.54305 0
M  V30 1504 N 135.607 2.18226 6.67324 0
M  V30 1505 H 140.447 2.01389 2.1965 0
M  V30 1506 H 137.984 1.00275 1.07626 0
M  V30 1507 H 139.942 0.478948 4.14442 0
M  V30 1508 H 138.572 -0.193389 3.2222 0
M  V30 1509 H 137.624 2.22279 3.08701 0
M  V30 1510 H 138.936 2.73377 4.17213 0
M  V30 1511 H 138.09 1.18781 5.94959 0
M  V30 1512 H 136.829 0.574414 4.84305 0
M  V30 1513 H 135.834 2.87399 4.68702 0
M  V30 1514 H 137.059 3.48599 5.828 0
M  V30 1515 H 135.005 1.3229 6.42523 0
M  V30 1516 H 134.922 2.97221 6.95123 0
M  V30 1517 H 136.19 1.94403 7.54869 0
M  V30 1518 N 140.419 -1.14872 1.07899 0
M  V30 1519 C 141.696 -1.81928 0.71845 0
M  V30 1520 C 142.076 -1.95417 -0.798455 0
M  V30 1521 O 141.424 -1.50997 -1.715 0
M  V30 1522 C 141.634 -3.17937 1.43935 0
M  V30 1523 C 142.982 -3.93501 1.59506 0
M  V30 1524 O 144.006 -3.27509 1.40058 0
M  V30 1525 O 142.865 -5.1183 1.91551 0
M  V30 1526 H 139.959 -0.78628 0.256305 0
M  V30 1527 H 142.505 -1.21934 1.18026 0
M  V30 1528 H 141.277 -3.0325 2.47295 0
M  V30 1529 H 140.9 -3.85619 0.968687 0
M  V30 1530 N 141.898 -0.863906 -1.31812 0
M  V30 1531 C 142.808 -0.318461 -2.32428 0
M  V30 1532 C 143.824 0.568496 -1.64451 0
M  V30 1533 O 145 0.46666 -1.95919 0
M  V30 1534 C 142.065 0.476355 -3.43412 0
M  V30 1535 C 141.126 -0.43784 -4.27061 0
M  V30 1536 C 140.359 0.319138 -5.32745 0
M  V30 1537 O 140.582 1.54799 -5.48993 0
M  V30 1538 O 139.516 -0.319861 -6.01049 0
M  V30 1539 H 143.342 -1.15229 -2.80991 0
M  V30 1540 H 140.927 -0.627103 -1.35602 0
M  V30 1541 H 142.809 0.927156 -4.11074 0
M  V30 1542 H 141.484 1.28683 -2.97022 0
M  V30 1543 H 140.391 -0.937013 -3.62175 0
M  V30 1544 H 141.724 -1.21375 -4.77 0
M  V30 1545 N 143.376 1.44774 -0.622745 0
M  V30 1546 C 144.606 2.06187 -0.130532 0
M  V30 1547 C 145.014 1.46547 1.19669 0
M  V30 1548 O 144.357 0.579636 1.74316 0
M  V30 1549 C 144.419 3.59437 0.0674983 0
M  V30 1550 C 144.083 4.41496 -1.18026 0
M  V30 1551 C 145.08 4.75512 -2.102 0
M  V30 1552 C 142.765 4.82007 -1.41333 0
M  V30 1553 C 144.759 5.48912 -3.23998 0
M  V30 1554 C 142.446 5.55157 -2.55429 0
M  V30 1555 C 143.444 5.88528 -3.46589 0
M  V30 1556 O 143.132 6.60191 -4.58697 0
M  V30 1557 H 142.864 0.672045 -0.0730162 0
M  V30 1558 H 145.418 1.86768 -0.854802 0
M  V30 1559 H 143.648 3.77314 0.846825 0
M  V30 1560 H 145.337 4.02642 0.513209 0
M  V30 1561 H 146.103 4.4476 -1.93425 0
M  V30 1562 H 141.982 4.55457 -0.712709 0
M  V30 1563 H 145.526 5.74877 -3.95174 0
M  V30 1564 H 141.423 5.85324 -2.72151 0
M  V30 1565 H 142.191 6.78654 -4.57571 0
M  V30 1566 N 144.854 0.36279 1.53368 0
M  V30 1567 C 145.817 -0.472679 2.24273 0
M  V30 1568 C 146.817 -1.012 1.24961 0
M  V30 1569 O 148.007 -0.898194 1.49259 0
M  V30 1570 C 145.139 -1.66039 2.97731 0
M  V30 1571 H 146.332 0.14773 2.99536 0
M  V30 1572 H 143.885 0.114434 1.55881 0
M  V30 1573 H 144.62 -2.31896 2.26704 0
M  V30 1574 H 144.405 -1.28066 3.70596 0
M  V30 1575 H 145.895 -2.25252 3.51641 0
M  V30 1576 N 146.332 -1.57332 0.0918853 0
M  V30 1577 C 147.572 -1.96117 -0.575988 0
M  V30 1578 C 147.936 -0.972499 -1.65549 0
M  V30 1579 O 149.137 -1.24872 -2.38034 0
M  V30 1580 C 147.408 -3.39407 -1.11973 0
M  V30 1581 S 148.967 -4.00185 -1.79992 0
M  V30 1582 H 145.785 -0.685682 -0.188045 0
M  V30 1583 H 148.387 -1.94755 0.170525 0
M  V30 1584 H 147.091 -4.09131 -0.322504 0
M  V30 1585 H 146.622 -3.44358 -1.90214 0
M  V30 1586 H 148.637 -3.88728 -3.08391 0
M  V30 1587 N 147.81 0.181792 -1.56548 0
M  V30 1588 C 149.226 0.53316 -1.50431 0
M  V30 1589 C 149.426 1.85184 -0.794297 0
M  V30 1590 O 148.482 2.50058 -0.350318 0
M  V30 1591 C 149.795 0.575597 -2.9514 0
M  V30 1592 C 151.343 0.663519 -3.05886 0
M  V30 1593 C 151.818 0.736946 -4.52032 0
M  V30 1594 N 153.309 0.800118 -4.56237 0
M  V30 1595 C 154.044 0.877327 -5.66649 0
M  V30 1596 N 153.54 0.916016 -6.86718 0
M  V30 1597 N 155.333 0.915542 -5.54594 0
M  V30 1598 H 147.484 -0.683025 -2.01118 0
M  V30 1599 H 149.747 -0.244988 -0.915797 0
M  V30 1600 H 149.453 -0.324482 -3.502 0
M  V30 1601 H 149.327 1.42572 -3.49218 0
M  V30 1602 H 151.714 1.55403 -2.50867 0
M  V30 1603 H 151.795 -0.21307 -2.54911 0
M  V30 1604 H 151.439 -0.149262 -5.07681 0
M  V30 1605 H 151.369 1.62953 -5.00753 0
M  V30 1606 H 153.86 0.778926 -3.69785 0
M  V30 1607 H 154.173 0.975813 -7.66614 0
M  V30 1608 H 152.518 0.884469 -6.89349 0
M  V30 1609 H 155.709 0.882245 -4.59711 0
M  V30 1610 H 155.882 0.972253 -6.40665 0
M  V30 1611 N 149.288 1.51039 0.449983 0
M  V30 1612 C 150.534 1.63322 1.20223 0
M  V30 1613 C 150.867 0.34241 1.91158 0
M  V30 1614 O 150.142 -0.657344 1.83055 0
M  V30 1615 C 150.425 2.82801 2.22925 0
M  V30 1616 C 150.278 4.21823 1.56157 0
M  V30 1617 C 151.597 2.97807 3.24035 0
M  V30 1618 H 148.716 0.594407 0.435718 0
M  V30 1619 H 151.358 1.83489 0.493136 0
M  V30 1620 H 149.508 2.65738 2.834 0
M  V30 1621 H 151.18 4.50526 0.991162 0
M  V30 1622 H 149.423 4.25105 0.864172 0
M  V30 1623 H 150.094 5.01391 2.30891 0
M  V30 1624 H 152.57 3.13497 2.73603 0
M  V30 1625 H 151.446 3.82992 3.93202 0
M  V30 1626 H 151.707 2.09328 3.89402 0
M  V30 1627 N 150.766 -0.704594 1.40972 0
M  V30 1628 C 151.714 -1.83994 1.42299 0
M  V30 1629 C 152.708 -1.66684 0.302111 0
M  V30 1630 O 153.914 -1.73655 0.473697 0
M  V30 1631 H 150.289 -0.606171 0.44504 0
M  V30 1632 H 152.26 -1.79992 2.38003 0
M  V30 1633 C 151.009 -3.21946 1.31323 0
M  V30 1634 H 150.332 -3.35878 2.16855 0
M  V30 1635 H 151.772 -4.01491 1.36311 0
M  V30 1636 C 150.231 -3.36891 0.0245977 0
M  V30 1637 O 150.761 -3.90687 -0.934153 0
M  V30 1638 N 148.967 -2.90559 -0.0485243 0
M  V30 1639 H 148.514 -2.46968 0.732419 0
M  V30 1640 H 148.472 -3.00937 -0.910171 0
M  V30 1641 N 152.244 -1.26651 -0.937939 0
M  V30 1642 C 153.194 -1.05156 -2.02302 0
M  V30 1643 C 154.178 0.0171233 -1.60891 0
M  V30 1644 O 155.37 -0.200213 -1.75864 0
M  V30 1645 C 152.499 -0.689962 -3.36295 0
M  V30 1646 C 151.585 -1.79626 -3.84181 0
M  V30 1647 N 151.976 -3.03422 -4.04684 0
M  V30 1648 C 150.274 -1.6806 -4.13124 0
M  V30 1649 C 150.975 -3.75345 -4.444 0
M  V30 1650 N 149.951 -3.03051 -4.51288 0
M  V30 1651 H 153.753 -1.99117 -2.1617 0
M  V30 1652 H 151.267 -1.17216 -1.12402 0
M  V30 1653 H 153.264 -0.517112 -4.13681 0
M  V30 1654 H 151.924 0.242139 -3.23796 0
M  V30 1655 H 152.935 -3.39293 -3.91281 0
M  V30 1656 H 149.612 -0.818629 -4.09396 0
M  V30 1657 H 151.002 -4.81691 -4.68427 0
M  V30 1658 N 153.722 1.14298 -1.08507 0
M  V30 1659 C 154.968 1.85633 -0.816581 0
M  V30 1660 C 155.301 1.82784 0.656021 0
M  V30 1661 O 154.576 1.25926 1.48233 0
M  V30 1662 C 154.859 3.34223 -1.34041 0
M  V30 1663 C 154.712 3.45639 -2.87843 0
M  V30 1664 C 156.031 4.29356 -0.9665 0
M  V30 1665 H 153.15 0.67402 -0.298104 0
M  V30 1666 H 155.792 1.34214 -1.34487 0
M  V30 1667 H 153.942 3.78144 -0.89104 0
M  V30 1668 H 155.614 3.10498 -3.41158 0
M  V30 1669 H 153.857 2.86817 -3.25451 0
M  V30 1670 H 154.528 4.50089 -3.19569 0
M  V30 1671 H 157.004 3.93457 -1.35391 0
M  V30 1672 H 155.88 5.3178 -1.3602 0
M  V30 1673 H 156.141 4.41919 0.126362 0
M  V30 1674 N 155.201 0.870884 1.31352 0
M  V30 1675 C 156.429 0.49677 2.00848 0
M  V30 1676 C 156.844 -0.910998 1.65367 0
M  V30 1677 O 156.201 -1.59696 0.883374 0
M  V30 1678 C 156.252 0.645308 3.55694 0
M  V30 1679 O 155.973 1.99764 3.89905 0
M  V30 1680 C 157.474 0.272326 4.42463 0
M  V30 1681 H 154.694 0.193462 0.642506 0
M  V30 1682 H 157.238 1.1723 1.67563 0
M  V30 1683 H 155.393 0.0173176 3.87396 0
M  V30 1684 H 155.807 2.00607 4.84621 0
M  V30 1685 H 157.281 0.427208 5.50344 0
M  V30 1686 H 157.758 -0.788587 4.32062 0
M  V30 1687 H 158.364 0.876054 4.1618 0
M  V30 1688 N 156.679 -1.44442 0.630414 0
M  V30 1689 C 157.609 -2.33418 -0.0618083 0
M  V30 1690 C 158.59 -1.48165 -0.835541 0
M  V30 1691 O 159.775 -1.76886 -0.801564 0
M  V30 1692 C 156.905 -3.31222 -1.04449 0
M  V30 1693 C 155.859 -4.26288 -0.382436 0
M  V30 1694 C 155.185 -5.13954 -1.47497 0
M  V30 1695 C 156.485 -5.1744 0.710865 0
M  V30 1696 H 158.179 -2.91548 0.681184 0
M  V30 1697 H 155.725 -1.40191 0.329026 0
M  V30 1698 H 157.678 -3.92351 -1.53748 0
M  V30 1699 H 156.402 -2.71299 -1.81836 0
M  V30 1700 H 155.061 -3.6649 0.0899054 0
M  V30 1701 H 154.709 -4.50385 -2.2397 0
M  V30 1702 H 154.409 -5.7837 -1.03737 0
M  V30 1703 H 155.933 -5.77955 -1.96979 0
M  V30 1704 H 157.347 -5.72509 0.300996 0
M  V30 1705 H 155.744 -5.90455 1.07156 0
M  V30 1706 H 156.814 -4.58496 1.57829 0
M  V30 1707 N 158.157 -0.370918 -1.53173 0
M  V30 1708 C 159.382 0.220293 -2.06227 0
M  V30 1709 C 159.807 1.41243 -1.24225 0
M  V30 1710 O 159.165 1.79387 -0.262645 0
M  V30 1711 C 159.213 0.586663 -3.55796 0
M  V30 1712 O 158.317 1.68317 -3.76488 0
M  V30 1713 H 157.658 0.0308099 -0.663285 0
M  V30 1714 H 160.188 -0.533068 -1.97534 0
M  V30 1715 H 160.198 0.85617 -3.98916 0
M  V30 1716 H 158.873 -0.285013 -4.14922 0
M  V30 1717 H 157.45 1.40881 -3.45264 0
M  V30 1718 N 159.635 1.57281 -0.100228 0
M  V30 1719 C 160.567 2.11342 0.886972 0
M  V30 1720 C 161.58 1.05182 1.24261 0
M  V30 1721 O 162.769 1.32613 1.19483 0
M  V30 1722 C 159.869 2.5825 2.19454 0
M  V30 1723 C 159.042 3.88302 2.01346 0
M  V30 1724 C 158.101 4.21004 3.15661 0
M  V30 1725 O 157.127 4.9014 2.89398 0
M  V30 1726 N 158.329 3.76818 4.41575 0
M  V30 1727 H 161.094 2.96668 0.425216 0
M  V30 1728 H 158.655 1.61678 0.0847334 0
M  V30 1729 H 160.647 2.7717 2.94888 0
M  V30 1730 H 159.217 1.77907 2.57037 0
M  V30 1731 H 158.437 3.7848 1.10212 0
M  V30 1732 H 159.725 4.73375 1.8653 0
M  V30 1733 H 159.123 3.2102 4.65792 0
M  V30 1734 H 157.68 4.00882 5.13942 0
M  V30 1735 N 161.113 -0.173488 1.56642 0
M  V30 1736 C 162.524 -0.736155 1.71574 0
M  V30 1737 C 162.875 -1.82888 0.710389 0
M  V30 1738 O 162 -2.16017 -0.1287 0
M  V30 1739 C 162.595 -1.34211 3.11083 0
M  V30 1740 C 161.154 -1.85162 3.27707 0
M  V30 1741 C 160.301 -0.729765 2.67525 0
M  V30 1742 H 163.252 0.0518786 1.58615 0
M  V30 1743 H 163.273 -2.21178 3.09613 0
M  V30 1744 H 162.785 -0.546579 3.84232 0
M  V30 1745 H 160.886 -2.67366 2.59512 0
M  V30 1746 H 160.999 -1.99855 4.35425 0
M  V30 1747 H 159.363 -1.14965 2.27278 0
M  V30 1748 H 160.146 0.0538806 3.43258 0
M  V30 1749 N 162.591 -1.51276 -0.441967 0
M  V30 1750 C 163.538 -1.72256 -1.53612 0
M  V30 1751 C 164.508 -0.564164 -1.56225 0
M  V30 1752 O 165.693 -0.798074 -1.73307 0
M  V30 1753 C 162.833 -1.84932 -2.91366 0
M  V30 1754 C 161.946 -3.12459 -2.98317 0
M  V30 1755 C 161.081 -3.15758 -4.27166 0
M  V30 1756 C 160.12 -4.37619 -4.27967 0
M  V30 1757 N 159.257 -4.38493 -5.48333 0
M  V30 1758 H 164.097 -2.65654 -1.35026 0
M  V30 1759 H 161.634 -1.31662 -0.656009 0
M  V30 1760 H 163.592 -1.90263 -3.7129 0
M  V30 1761 H 162.222 -0.949461 -3.08521 0
M  V30 1762 H 161.274 -3.1646 -2.11086 0
M  V30 1763 H 162.586 -4.02382 -2.94771 0
M  V30 1764 H 161.74 -3.19979 -5.15459 0
M  V30 1765 H 160.479 -2.23715 -4.33362 0
M  V30 1766 H 159.484 -4.33579 -3.38067 0
M  V30 1767 H 160.709 -5.30921 -4.23438 0
M  V30 1768 H 158.655 -3.49318 -5.55259 0
M  V30 1769 H 158.572 -5.22219 -5.46647 0
M  V30 1770 H 159.84 -4.469 -6.38671 0
M  V30 1771 N 164.069 0.697108 -1.41344 0
M  V30 1772 C 165.318 1.45279 -1.39918 0
M  V30 1773 C 165.631 1.95597 -0.0109624 0
M  V30 1774 O 166.837 2.71208 0.125919 0
M  V30 1775 C 165.293 2.62695 -2.46007 0
M  V30 1776 C 164.901 2.19169 -3.90729 0
M  V30 1777 C 166.645 3.40336 -2.53715 0
M  V30 1778 C 164.552 3.33535 -4.88373 0
M  V30 1779 H 163.482 0.545692 -0.520323 0
M  V30 1780 H 166.133 0.756929 -1.67161 0
M  V30 1781 H 164.515 3.34541 -2.11892 0
M  V30 1782 H 165.689 1.54623 -4.34083 0
M  V30 1783 H 164.004 1.54525 -3.86666 0
M  V30 1784 H 166.601 4.2547 -3.2385 0
M  V30 1785 H 166.944 3.85418 -1.5735 0
M  V30 1786 H 167.477 2.75546 -2.86913 0
M  V30 1787 H 164.216 2.93468 -5.86137 0
M  V30 1788 H 163.736 3.96936 -4.49668 0
M  V30 1789 H 165.415 3.99335 -5.09059 0
M  V30 1790 N 165.547 1.27147 0.931209 0
M  V30 1791 C 166.793 1.13446 1.68101 0
M  V30 1792 C 167.126 -0.319628 1.91552 0
M  V30 1793 O 166.401 -1.23407 1.50336 0
M  V30 1794 C 166.684 1.91482 3.0497 0
M  V30 1795 C 166.537 3.44855 2.88782 0
M  V30 1796 C 167.856 1.71651 4.05246 0
M  V30 1797 H 164.975 0.413498 0.610072 0
M  V30 1798 H 167.617 1.56261 1.08086 0
M  V30 1799 H 165.767 1.55095 3.56199 0
M  V30 1800 H 167.439 3.9105 2.44698 0
M  V30 1801 H 165.682 3.71373 2.24198 0
M  V30 1802 H 166.353 3.94694 3.85902 0
M  V30 1803 H 168.829 2.0337 3.63015 0
M  V30 1804 H 167.705 2.28651 4.99009 0
M  V30 1805 H 167.966 0.663555 4.37092 0
M  V30 1806 N 167.025 -1.13721 1.09112 0
M  V30 1807 C 167.972 -2.19031 0.727591 0
M  V30 1808 C 168.942 -1.63555 -0.289656 0
M  V30 1809 O 170.127 -1.90023 -0.172026 0
M  V30 1810 C 167.267 -3.4477 0.15082 0
M  V30 1811 C 166.38 -4.14365 1.22172 0
M  V30 1812 C 165.515 -5.27709 0.608042 0
M  V30 1813 C 164.554 -5.89147 1.66047 0
M  V30 1814 N 163.691 -6.93929 1.06806 0
M  V30 1815 H 168.531 -2.49475 1.62991 0
M  V30 1816 H 166.068 -1.22499 0.81439 0
M  V30 1817 H 168.026 -4.16714 -0.201358 0
M  V30 1818 H 166.656 -3.14787 -0.714783 0
M  V30 1819 H 165.708 -3.40737 1.69122 0
M  V30 1820 H 167.02 -4.56114 2.01895 0
M  V30 1821 H 166.174 -6.06355 0.204523 0
M  V30 1822 H 164.913 -4.872 -0.220769 0
M  V30 1823 H 163.918 -5.09198 2.07357 0
M  V30 1824 H 165.143 -6.31729 2.49189 0
M  V30 1825 H 163.089 -6.55483 0.260476 0
M  V30 1826 H 163.006 -7.34202 1.8023 0
M  V30 1827 H 164.274 -7.76434 0.690644 0
M  V30 1828 N 168.503 -0.877838 -1.30888 0
M  V30 1829 C 169.749 -0.502773 -1.97088 0
M  V30 1830 C 170.104 0.936274 -1.68082 0
M  V30 1831 O 169.397 1.65162 -0.971196 0
M  V30 1832 C 169.591 -0.705748 -3.50363 0
M  V30 1833 C 169.42 -2.16297 -3.94266 0
M  V30 1834 C 168.19 -2.80614 -4.20219 0
M  V30 1835 C 170.388 -3.13606 -4.07622 0
M  V30 1836 N 168.37 -4.17007 -4.50532 0
M  V30 1837 C 169.741 -4.35051 -4.41736 0
M  V30 1838 C 171.796 -3.09491 -3.90026 0
M  V30 1839 C 170.499 -5.52911 -4.60089 0
M  V30 1840 C 172.525 -4.26616 -4.09576 0
M  V30 1841 C 171.887 -5.46825 -4.44029 0
M  V30 1842 H 167.986 -0.233168 -0.746429 0
M  V30 1843 H 170.57 -1.13408 -1.58261 0
M  V30 1844 H 168.741 -0.103976 -3.88261 0
M  V30 1845 H 170.473 -0.298291 -4.03599 0
M  V30 1846 H 167.228 -2.3152 -4.13153 0
M  V30 1847 H 167.652 -4.87426 -4.69834 0
M  V30 1848 H 172.294 -2.17657 -3.62471 0
M  V30 1849 H 170.012 -6.45255 -4.86489 0
M  V30 1850 H 173.598 -4.24894 -3.97438 0
M  V30 1851 H 172.478 -6.35947 -4.58848 0
M  V30 1852 N 169.982 1.44106 -0.638065 0
M  V30 1853 C 171.259 1.95453 -0.0759321 0
M  V30 1854 C 171.639 1.57984 1.40015 0
M  V30 1855 O 170.987 0.857361 2.11806 0
M  V30 1856 C 171.197 3.47655 -0.306132 0
M  V30 1857 C 172.545 4.24114 -0.203008 0
M  V30 1858 O 173.569 3.55405 -0.237871 0
M  V30 1859 O 172.428 5.46381 -0.113827 0
M  V30 1860 H 169.522 0.826797 0.0183332 0
M  V30 1861 H 172.068 1.54122 -0.710251 0
M  V30 1862 H 170.84 3.68 -1.3301 0
M  V30 1863 H 170.463 3.95949 0.361991 0
M  V30 1864 N 171.46 0.379036 1.52974 0
M  V30 1865 C 172.876 0.0285448 1.59574 0
M  V30 1866 C 173.076 -1.45542 1.39355 0
M  V30 1867 O 172.132 -2.2187 1.20541 0
M  V30 1868 C 173.445 0.496535 2.96572 0
M  V30 1869 C 174.993 0.451909 3.0972 0
M  V30 1870 C 175.468 0.895924 4.49152 0
M  V30 1871 N 176.959 0.851522 4.55306 0
M  V30 1872 C 177.694 1.16661 5.61407 0
M  V30 1873 N 177.19 1.55166 6.752 0
M  V30 1874 N 178.983 1.08853 5.51459 0
M  V30 1875 H 171.134 1.34525 1.64367 0
M  V30 1876 H 173.397 0.550733 0.771619 0
M  V30 1877 H 173.103 1.53258 3.16552 0
M  V30 1878 H 172.977 -0.109802 3.7704 0
M  V30 1879 H 175.364 -0.575029 2.89443 0
M  V30 1880 H 175.445 1.09392 2.3123 0
M  V30 1881 H 175.089 1.92104 4.70168 0
M  V30 1882 H 175.019 0.23103 5.26093 0
M  V30 1883 H 177.51 0.568038 3.73606 0
M  V30 1884 H 177.823 1.776 7.52116 0
M  V30 1885 H 176.168 1.59044 6.76557 0
M  V30 1886 H 179.359 0.786803 4.6144 0
M  V30 1887 H 179.532 1.33742 6.34048 0
M  V30 1888 N 172.938 -1.57226 0.108567 0
M  V30 1889 C 174.215 -1.86333 -0.594939 0
M  V30 1890 C 174.595 -1.00788 -1.85486 0
M  V30 1891 O 173.943 -0.0839293 -2.28346 0
M  V30 1892 C 174.153 -3.37265 -0.897405 0
M  V30 1893 C 175.501 -4.05629 -1.25501 0
M  V30 1894 O 176.525 -3.42224 -0.987998 0
M  V30 1895 O 175.384 -5.17531 -1.75567 0
M  V30 1896 H 172.478 -0.771018 -0.2991 0
M  V30 1897 H 175.024 -1.69102 0.142283 0
M  V30 1898 H 173.796 -3.913 -0.00413806 0
M  V30 1899 H 173.419 -3.59889 -1.69014 0
M  V30 1900 N 174.416 0.165178 -1.56732 0
M  V30 1901 C 175.349 1.23336 -1.91998 0
M  V30 1902 C 176.327 1.42476 -0.783531 0
M  V30 1903 O 177.511 1.57384 -1.03743 0
M  V30 1904 C 174.638 2.59533 -2.17625 0
M  V30 1905 C 173.684 2.57093 -3.40302 0
M  V30 1906 S 174.517 2.05571 -4.9447 0
M  V30 1907 C 175.673 3.43532 -5.23198 0
M  V30 1908 H 175.906 0.932387 -2.82301 0
M  V30 1909 H 173.439 0.370013 -1.49901 0
M  V30 1910 H 175.397 3.37918 -2.3307 0
M  V30 1911 H 174.058 2.86827 -1.28019 0
M  V30 1912 H 173.251 3.57308 -3.55453 0
M  V30 1913 H 172.853 1.86806 -3.24005 0
M  V30 1914 H 175.145 4.39559 -5.15552 0
M  V30 1915 H 176.088 3.33251 -6.2478 0
M  V30 1916 H 176.496 3.39828 -4.50752 0
M  V30 1917 O 175.933 1.58495 0.310088 0
M  V30 1918 H 176.624 1.68365 0.957755 0
M  V30 END ATOM
M  V30 BEGIN BOND
M  V30 END BOND
M  V30 END CTAB
M  END
$$$$
