drugbank_target|P61888 Glucose-1-phosphate thymidylyltransferase 2 (DB02452)
 OpenBabel12092120023D

  0  0  0     0  0            999 V3000
M  V30 BEGIN CTAB
M  V30 COUNTS 4613 4665 0 0 0
M  V30 BEGIN ATOM
M  V30 1 H -0.908 1.98254 -0.117106 0
M  V30 2 N 0 1.576 0 0
M  V30 3 C 0.933 2.03868 1.02534 0
M  V30 4 C 1.911 0.928543 1.3348 0
M  V30 5 O 3.095 1.19667 1.45644 0
M  V30 6 C 0.222 2.43627 2.35294 0
M  V30 7 C -0.732 3.65373 2.2001 0
M  V30 8 S 0.101 5.13292 1.52614 0
M  V30 9 C 1.257 5.56322 2.86805 0
M  V30 10 H 1.49 2.90518 0.631377 0
M  V30 11 H -0.977 1.52953 0.210867 0
M  V30 12 H 0.981 2.67203 3.11629 0
M  V30 13 H -0.358 1.57376 2.7183 0
M  V30 14 H -1.165 3.90944 3.18086 0
M  V30 15 H -1.563 3.418 1.51819 0
M  V30 16 H 0.729 5.58782 3.83104 0
M  V30 17 H 1.672 6.56266 2.65933 0
M  V30 18 H 2.08 4.83886 2.90714 0
M  V30 19 N 1.4781 -0.272755 1.55222 0
M  V30 20 C 2.4251 -1.33716 1.88119 0
M  V30 21 C 3.3951 -1.49066 0.73271 0
M  V30 22 O 4.5801 -1.63469 0.984002 0
M  V30 23 C 1.7201 -2.69238 2.15882 0
M  V30 24 C 0.8331 -2.62108 3.43399 0
M  V30 25 C -0.0319 -3.89811 3.60861 0
M  V30 26 C -0.9929 -3.77193 4.8207 0
M  V30 27 N -1.8559 -4.9673 4.96189 0
M  V30 28 H 2.9841 -1.04962 2.78903 0
M  V30 29 H 0.5211 -0.507088 1.38083 0
M  V30 30 H 2.4791 -3.48089 2.29978 0
M  V30 31 H 1.1091 -2.96194 1.28331 0
M  V30 32 H 0.1611 -1.74967 3.37773 0
M  V30 33 H 1.4731 -2.48685 4.32386 0
M  V30 34 H 0.6271 -4.77103 3.74777 0
M  V30 35 H -0.6339 -4.06102 2.7006 0
M  V30 36 H -1.6289 -2.88284 4.68159 0
M  V30 37 H -0.4039 -3.62421 5.74307 0
M  V30 38 H -2.4579 -5.13431 4.08319 0
M  V30 39 H -2.5409 -4.85839 5.79221 0
M  V30 40 H -1.2729 -5.85594 5.1449 0
M  V30 41 N 2.9562 -1.48159 -0.537278 0
M  V30 42 C 4.2042 -1.55497 -1.29094 0
M  V30 43 C 4.5252 -0.227454 -1.93669 0
M  V30 44 O 3.7952 0.750386 -1.80959 0
M  V30 45 H 2.3752 -0.572832 -0.47945 0
M  V30 46 H 5.0372 -1.84579 -0.625818 0
M  V30 47 H 4.1332 -2.33216 -2.07405 0
M  V30 48 N 4.4343 0.785586 -1.36625 0
M  V30 49 C 5.6833 1.53883 -1.30396 0
M  V30 50 C 5.9963 1.95271 0.113452 0
M  V30 51 O 7.2023 2.69858 0.298142 0
M  V30 52 C 5.6583 2.77808 -2.28802 0
M  V30 53 C 5.2663 2.43574 -3.75999 0
M  V30 54 C 7.0103 3.55783 -2.31558 0
M  V30 55 C 4.9173 3.63919 -4.66173 0
M  V30 56 H 3.8473 0.577678 -0.484566 0
M  V30 57 H 6.4983 0.861705 -1.62009 0
M  V30 58 H 4.8803 3.47339 -1.90188 0
M  V30 59 H 6.0543 1.81916 -4.23371 0
M  V30 60 H 4.3693 1.78803 -3.76056 0
M  V30 61 H 6.9663 4.45205 -2.96137 0
M  V30 62 H 7.3093 3.94644 -1.3252 0
M  V30 63 H 7.8423 2.93235 -2.68809 0
M  V30 64 H 4.5813 3.3015 -5.66287 0
M  V30 65 H 4.1013 4.2473 -4.23515 0
M  V30 66 H 5.7803 4.30901 -4.82632 0
M  V30 67 N 5.9124 1.20967 1.01018 0
M  V30 68 C 7.1614 1.01796 1.74128 0
M  V30 69 C 7.4744 -0.449691 1.90361 0
M  V30 70 O 8.6804 -0.76068 2.60626 0
M  V30 71 C 7.1364 1.7727 3.13215 0
M  V30 72 C 6.7444 3.28171 3.04972 0
M  V30 73 C 8.4884 1.66489 3.90489 0
M  V30 74 C 6.3954 3.96156 4.39107 0
M  V30 75 H 5.3254 0.377276 0.652824 0
M  V30 76 H 7.9764 1.44651 1.12909 0
M  V30 77 H 6.3584 1.27205 3.75013 0
M  V30 78 H 7.5324 3.85499 2.52443 0
M  V30 79 H 5.8474 3.39437 2.41188 0
M  V30 80 H 8.4444 2.14617 4.89738 0
M  V30 81 H 8.7874 0.6222 4.11624 0
M  V30 82 H 9.3204 2.14003 3.35332 0
M  V30 83 H 6.0594 5.00604 4.23174 0
M  V30 84 H 5.5794 3.43617 4.91617 0
M  V30 85 H 7.2584 4.00774 5.07926 0
M  V30 86 N 7.3905 -1.2043 1.01659 0
M  V30 87 C 8.3205 -2.25466 0.607226 0
M  V30 88 C 9.3015 -1.65853 -0.377716 0
M  V30 89 O 10.4865 -1.92409 -0.263149 0
M  V30 90 C 7.6165 -3.47256 -0.0552949 0
M  V30 91 C 6.5705 -4.19462 0.850632 0
M  V30 92 C 5.8965 -5.34673 0.0538859 0
M  V30 93 C 7.1965 -4.75603 2.15868 0
M  V30 94 H 8.8905 -2.59962 1.48526 0
M  V30 95 H 6.4365 -1.2496 0.715605 0
M  V30 96 H 8.3895 -4.19917 -0.353233 0
M  V30 97 H 7.1135 -3.11924 -0.968045 0
M  V30 98 H 5.7725 -3.48667 1.13257 0
M  V30 99 H 5.4205 -4.95585 -0.860514 0
M  V30 100 H 5.1205 -5.83913 0.657192 0
M  V30 101 H 6.6445 -6.10138 -0.237598 0
M  V30 102 H 8.0585 -5.40083 1.92311 0
M  V30 103 H 6.4555 -5.3528 2.71284 0
M  V30 104 H 7.5255 -3.94346 2.82169 0
M  V30 105 N 8.8686 -0.792821 -1.36206 0
M  V30 106 C 9.8316 -0.199459 -2.2833 0
M  V30 107 C 10.8316 0.605189 -1.48977 0
M  V30 108 O 12.0216 0.425685 -1.68919 0
M  V30 109 C 9.1536 0.723523 -3.33134 0
M  V30 110 H 10.3466 -1.01181 -2.82316 0
M  V30 111 H 7.8996 -0.562485 -1.45828 0
M  V30 112 H 8.6346 1.56008 -2.84309 0
M  V30 113 H 8.4196 0.148436 -3.91819 0
M  V30 114 H 9.9096 1.13344 -4.01924 0
M  V30 115 N 10.3467 1.47872 -0.545128 0
M  V30 116 C 11.5947 2.02093 -0.016553 0
M  V30 117 C 11.9157 1.42305 1.3332 0
M  V30 118 O 11.1857 0.593853 1.86682 0
M  V30 119 H 9.7657 0.746993 -0.00313038 0
M  V30 120 H 12.4277 1.81414 -0.712397 0
M  V30 121 H 11.5237 3.11996 0.0805422 0
M  V30 122 N 11.8248 0.280983 1.55075 0
M  V30 123 C 13.0728 -0.333455 1.9933 0
M  V30 124 C 13.3938 -1.55937 1.17085 0
M  V30 125 O 12.6638 -1.94143 0.261805 0
M  V30 126 H 11.2438 -0.126197 0.736263 0
M  V30 127 H 13.9058 0.387678 1.91005 0
M  V30 128 H 13.0018 -0.619292 3.05894 0
M  V30 129 N 13.3029 -1.57598 0.00835791 0
M  V30 130 C 14.5279 -1.95617 -0.689103 0
M  V30 131 C 14.9529 -0.883753 -1.66046 0
M  V30 132 O 14.3109 0.157352 -1.80616 0
M  V30 133 C 14.3589 -3.32736 -1.38994 0
M  V30 134 O 13.4629 -3.27631 -2.50463 0
M  V30 135 H 12.8039 -0.638379 -0.182668 0
M  V30 136 H 15.3339 -2.045 0.064036 0
M  V30 137 H 15.3439 -3.68494 -1.75147 0
M  V30 138 H 14.0189 -4.1034 -0.677778 0
M  V30 139 H 12.5959 -3.03561 -2.16576 0
M  V30 140 N 14.781 0.264519 -1.55364 0
M  V30 141 C 16.029 0.993021 -1.76021 0
M  V30 142 C 16.35 1.86511 -0.569099 0
M  V30 143 O 15.62 1.91438 0.415735 0
M  V30 144 H 14.2 0.369639 -0.649135 0
M  V30 145 H 16.862 0.286707 -1.9278 0
M  V30 146 H 15.958 1.62502 -2.66457 0
M  V30 147 N 16.2591 1.48442 0.529413 0
M  V30 148 C 17.4871 1.60151 1.30994 0
M  V30 149 C 17.9021 0.261985 1.86973 0
M  V30 150 O 17.2591 -0.748805 1.66431 0
M  V30 151 C 17.3101 2.64854 2.46038 0
M  V30 152 O 17.0311 3.93608 1.92365 0
M  V30 153 C 18.5321 2.87007 3.37849 0
M  V30 154 H 15.7521 0.539971 0.398338 0
M  V30 155 H 18.2961 1.94273 0.638597 0
M  V30 156 H 16.4511 2.33589 3.09055 0
M  V30 157 H 16.8651 4.51055 2.67675 0
M  V30 158 H 18.3391 3.64068 4.14919 0
M  V30 159 H 18.8161 1.95852 3.93114 0
M  V30 160 H 19.4221 3.19579 2.80623 0
M  V30 161 N 17.7372 -0.778329 1.37039 0
M  V30 162 C 19.1532 -1.07796 1.17695 0
M  V30 163 C 19.3532 -2.01498 0.00860115 0
M  V30 164 O 18.4092 -2.43901 -0.653352 0
M  V30 165 C 19.7222 -1.68178 2.49272 0
M  V30 166 C 21.2702 -1.80467 2.55735 0
M  V30 167 C 21.7452 -2.44263 3.87427 0
M  V30 168 N 23.2362 -2.51721 3.88833 0
M  V30 169 C 23.9712 -3.01919 4.87476 0
M  V30 170 N 23.4672 -3.5234 5.96513 0
M  V30 171 N 25.2602 -3.00733 4.74885 0
M  V30 172 H 17.4112 -0.156032 2.11826 0
M  V30 173 H 19.6742 -0.131844 0.938787 0
M  V30 174 H 19.3802 -1.06796 3.35093 0
M  V30 175 H 19.2542 -2.67554 2.65885 0
M  V30 176 H 21.6412 -2.40984 1.70325 0
M  V30 177 H 21.7222 -0.798656 2.43013 0
M  V30 178 H 21.3662 -1.84388 4.73248 0
M  V30 179 H 21.2962 -3.45458 3.9745 0
M  V30 180 H 23.7872 -2.1603 3.10063 0
M  V30 181 H 24.1002 -3.89027 6.67741 0
M  V30 182 H 22.4452 -3.50462 6.00168 0
M  V30 183 H 25.6362 -2.60638 3.88826 0
M  V30 184 H 25.8092 -3.39545 5.51918 0
M  V30 185 N 19.2153 -1.21501 -1.00376 0
M  V30 186 C 20.1453 -0.999478 -2.11028 0
M  V30 187 C 21.1263 0.0759671 -1.6993 0
M  V30 188 O 22.3113 -0.0841106 -1.94018 0
M  V30 189 C 19.4413 -0.564709 -3.42678 0
M  V30 190 C 18.3953 -1.58486 -3.97576 0
M  V30 191 C 17.7213 -1.00628 -5.25146 0
M  V30 192 C 19.0213 -2.97204 -4.29496 0
M  V30 193 H 20.7153 -1.92495 -2.29317 0
M  V30 194 H 18.2613 -0.92693 -1.102 0
M  V30 195 H 20.2143 -0.401091 -4.19487 0
M  V30 196 H 18.9383 0.396411 -3.24185 0
M  V30 197 H 17.5973 -1.73606 -3.22888 0
M  V30 198 H 17.2453 -0.0368439 -5.02987 0
M  V30 199 H 16.9453 -1.68771 -5.62841 0
M  V30 200 H 18.4693 -0.854015 -6.04598 0
M  V30 201 H 19.8833 -2.8552 -4.97143 0
M  V30 202 H 18.2803 -3.62372 -4.78338 0
M  V30 203 H 19.3503 -3.47956 -3.3772 0
M  V30 204 N 20.6934 1.19889 -1.02296 0
M  V30 205 C 21.6434 2.20777 -0.56934 0
M  V30 206 C 22.6274 1.56379 0.378741 0
M  V30 207 O 23.8194 1.75859 0.200673 0
M  V30 208 C 20.9484 3.43196 0.0845077 0
M  V30 209 C 20.0344 4.14749 -0.88566 0
M  V30 210 N 20.4254 4.62584 -2.04573 0
M  V30 211 C 18.7234 4.40347 -0.707835 0
M  V30 212 C 19.4244 5.17466 -2.65714 0
M  V30 213 N 18.4004 5.0791 -1.93723 0
M  V30 214 H 22.2024 2.55434 -1.45365 0
M  V30 215 H 19.7164 1.35897 -0.88915 0
M  V30 216 H 21.7134 4.14707 0.427067 0
M  V30 217 H 20.3734 3.10042 0.964574 0
M  V30 218 H 21.3844 4.57597 -2.4254 0
M  V30 219 H 18.0614 4.17317 0.12364 0
M  V30 220 H 19.4514 5.64808 -3.63925 0
M  V30 221 N 22.1715 0.800033 1.35784 0
M  V30 222 C 23.5825 0.439142 1.81462 0
M  V30 223 C 23.9335 -1.03813 1.66485 0
M  V30 224 O 23.0585 -1.80626 1.19177 0
M  V30 225 C 23.6535 0.790314 3.29453 0
M  V30 226 C 22.2125 0.482111 3.733 0
M  V30 227 C 21.3595 1.01938 2.57883 0
M  V30 228 H 24.3105 0.992254 1.23855 0
M  V30 229 H 24.3315 0.0853677 3.80404 0
M  V30 230 H 23.8435 1.86554 3.40322 0
M  V30 231 H 21.9445 -0.584652 3.67984 0
M  V30 232 H 22.0575 1.01015 4.6833 0
M  V30 233 H 20.4215 0.442043 2.50835 0
M  V30 234 H 21.2045 2.10059 2.71533 0
M  V30 235 N 23.6496 -1.47581 0.552962 0
M  V30 236 C 24.8986 -2.01684 0.0251995 0
M  V30 237 C 25.2116 -1.43317 -1.33115 0
M  V30 238 O 26.4176 -1.89057 -1.94858 0
M  V30 239 C 24.8736 -3.599 -0.00542052 0
M  V30 240 C 24.4816 -4.27257 1.34742 0
M  V30 241 C 26.2256 -4.21768 -0.4808 0
M  V30 242 C 24.1326 -5.77467 1.27614 0
M  V30 243 H 23.0626 -0.753979 0.00565033 0
M  V30 244 H 25.7136 -1.69616 0.70018 0
M  V30 245 H 24.0956 -3.88911 -0.745961 0
M  V30 246 H 25.2696 -4.09893 2.10534 0
M  V30 247 H 23.5846 -3.77358 1.76039 0
M  V30 248 H 26.1816 -5.31838 -0.55246 0
M  V30 249 H 26.5246 -3.88651 -1.49184 0
M  V30 250 H 27.0576 -3.97273 0.204752 0
M  V30 251 H 23.7966 -6.15196 2.26304 0
M  V30 252 H 23.3166 -5.9718 0.55996 0
M  V30 253 H 24.9956 -6.3959 0.976421 0
M  V30 254 N 25.1277 -0.289203 -1.54924 0
M  V30 255 C 26.3557 0.326463 -2.04308 0
M  V30 256 C 26.7707 1.48413 -1.16701 0
M  V30 257 O 26.1277 1.81507 -0.190087 0
M  V30 258 C 26.1787 0.794014 -3.52672 0
M  V30 259 O 25.8997 -0.317564 -4.36948 0
M  V30 260 C 27.4007 1.47605 -4.18004 0
M  V30 261 H 24.6207 0.0726272 -0.667058 0
M  V30 262 H 27.1647 -0.425401 -2.00026 0
M  V30 263 H 25.3197 1.49593 -3.57352 0
M  V30 264 H 25.7337 0.0443186 -5.24481 0
M  V30 265 H 27.2077 1.75447 -5.23376 0
M  V30 266 H 27.6847 2.41224 -3.67025 0
M  V30 267 H 28.2907 0.81762 -4.17367 0
M  V30 268 N 26.6058 1.57591 -0.0167156 0
M  V30 269 C 28.0218 1.55946 0.339557 0
M  V30 270 C 28.2218 1.02109 1.73713 0
M  V30 271 O 27.2778 0.662303 2.43659 0
M  V30 272 C 28.5908 3.00037 0.199499 0
M  V30 273 C 30.1388 3.11805 0.273193 0
M  V30 274 C 30.6138 4.57713 0.162068 0
M  V30 275 N 32.1048 4.6268 0.219444 0
M  V30 276 C 32.8398 5.73185 0.157054 0
M  V30 277 N 32.3358 6.92786 0.0442936 0
M  V30 278 N 34.1288 5.61707 0.21014 0
M  V30 279 H 26.2798 1.90921 -0.930758 0
M  V30 280 H 28.5428 0.877674 -0.358319 0
M  V30 281 H 28.2488 3.4333 -0.76273 0
M  V30 282 H 28.1228 3.64387 0.974786 0
M  V30 283 H 30.5098 2.68433 1.22587 0
M  V30 284 H 30.5908 2.50201 -0.532256 0
M  V30 285 H 30.2348 5.01763 -0.78714 0
M  V30 286 H 30.1648 5.17283 0.986222 0
M  V30 287 H 32.6558 3.76649 0.307246 0
M  V30 288 H 32.9688 7.728 0.00304069 0
M  V30 289 H 31.3138 6.94999 0.00968457 0
M  V30 290 H 34.5048 4.6716 0.296546 0
M  V30 291 H 34.6778 6.47807 0.158054 0
M  V30 292 N 28.0839 -0.256276 1.55502 0
M  V30 293 C 29.3319 -0.983672 1.76545 0
M  V30 294 C 29.6529 -1.86206 0.578982 0
M  V30 295 O 28.9229 -1.91656 -0.405577 0
M  V30 296 H 27.5029 -0.366191 0.651086 0
M  V30 297 H 30.1649 -0.276479 1.92929 0
M  V30 298 H 29.2609 -1.61087 2.67315 0
M  V30 299 N 29.562 -1.4872 -0.521534 0
M  V30 300 C 30.808 -1.574 -1.27879 0
M  V30 301 C 31.141 -0.250817 -1.92573 0
M  V30 302 O 30.416 0.743934 -1.79711 0
M  V30 303 C 30.699 -2.71843 -2.36164 0
M  V30 304 C 30.552 -4.13893 -1.76105 0
M  V30 305 C 31.871 -2.82008 -3.37875 0
M  V30 306 H 28.99 -0.572941 -0.463581 0
M  V30 307 H 31.632 -1.80927 -0.580119 0
M  V30 308 H 29.782 -2.51914 -2.95756 0
M  V30 309 H 31.454 -4.45284 -1.20499 0
M  V30 310 H 29.697 -4.20498 -1.06601 0
M  V30 311 H 30.368 -4.89804 -2.5455 0
M  V30 312 H 32.844 -3.00086 -2.88249 0
M  V30 313 H 31.72 -3.63796 -4.11028 0
M  V30 314 H 31.981 -1.90511 -3.98946 0
M  V30 315 N 31.0401 0.771051 -1.3745 0
M  V30 316 C 32.2651 1.56529 -1.36065 0
M  V30 317 C 32.6901 1.88029 0.0515859 0
M  V30 318 O 32.0481 1.49282 1.02882 0
M  V30 319 C 32.0961 2.85187 -2.20683 0
M  V30 320 O 31.2001 3.79593 -1.61193 0
M  V30 321 H 30.5411 0.47411 -0.464883 0
M  V30 322 H 33.0711 0.954269 -1.80983 0
M  V30 323 H 33.0811 3.34283 -2.33921 0
M  V30 324 H 31.7561 2.61588 -3.23334 0
M  V30 325 H 30.3331 3.38239 -1.56999 0
M  V30 326 N 32.5182 1.22032 0.997298 0
M  V30 327 C 33.4652 0.986467 2.08656 0
M  V30 328 C 34.4352 -0.0902671 1.65855 0
M  V30 329 O 35.6202 0.0584294 1.90711 0
M  V30 330 C 32.7602 0.565569 3.40434 0
M  V30 331 C 31.8732 1.71259 3.96604 0
M  V30 332 C 31.0082 1.24011 5.16522 0
M  V30 333 C 30.0472 2.35896 5.64818 0
M  V30 334 N 29.1842 1.89726 6.7598 0
M  V30 335 H 34.0242 1.91892 2.27994 0
M  V30 336 H 31.5612 0.956199 1.11782 0
M  V30 337 H 33.5192 0.302738 4.161 0
M  V30 338 H 32.1492 -0.329879 3.2111 0
M  V30 339 H 31.2012 2.08986 3.17851 0
M  V30 340 H 32.5132 2.55436 4.28432 0
M  V30 341 H 31.6672 0.934395 5.99461 0
M  V30 342 H 30.4062 0.368487 4.86306 0
M  V30 343 H 29.4112 2.67261 4.8047 0
M  V30 344 H 30.6362 3.23567 5.97061 0
M  V30 345 H 28.5822 1.0492 6.47555 0
M  V30 346 H 28.4992 2.67471 7.07103 0
M  V30 347 H 29.7672 1.62211 7.62435 0
M  V30 348 N 33.9963 -1.19345 1.0293 0
M  V30 349 C 34.9283 -2.22036 0.56857 0
M  V30 350 C 35.9413 -1.58865 -0.355779 0
M  V30 351 O 37.1303 -1.77851 -0.152103 0
M  V30 352 C 34.2303 -3.38363 -0.190752 0
M  V30 353 C 33.4033 -4.31118 0.738643 0
M  V30 354 C 32.4623 -5.26194 0.0246497 0
M  V30 355 O 31.4883 -5.65461 0.651354 0
M  V30 356 N 32.6903 -5.66971 -1.24594 0
M  V30 357 H 35.4553 -2.6219 1.45177 0
M  V30 358 H 33.0163 -1.34015 0.908381 0
M  V30 359 H 35.0083 -3.98981 -0.677961 0
M  V30 360 H 33.5783 -2.96994 -0.975366 0
M  V30 361 H 32.7983 -3.68276 1.40593 0
M  V30 362 H 34.0863 -4.90001 1.37029 0
M  V30 363 H 33.4843 -5.37104 -1.77583 0
M  V30 364 H 32.0413 -6.2984 -1.67764 0
M  V30 365 N 35.4744 -0.807222 -1.35358 0
M  V30 366 C 36.4044 -0.232509 -2.3234 0
M  V30 367 C 37.3854 0.642386 -1.57504 0
M  V30 368 O 38.5704 0.572526 -1.85569 0
M  V30 369 C 35.7004 0.619238 -3.41735 0
M  V30 370 C 34.6544 -0.157215 -4.27711 0
M  V30 371 C 33.9804 0.816273 -5.28433 0
M  V30 372 C 35.2804 -1.35656 -5.04376 0
M  V30 373 H 36.9744 -1.04276 -2.80654 0
M  V30 374 H 34.5204 -0.50288 -1.34934 0
M  V30 375 H 36.4734 1.03137 -4.08584 0
M  V30 376 H 35.1974 1.46239 -2.92031 0
M  V30 377 H 33.8564 -0.550525 -3.62443 0
M  V30 378 H 33.5044 1.65494 -4.74996 0
M  V30 379 H 33.2044 0.301067 -5.86828 0
M  V30 380 H 34.7284 1.22659 -5.98153 0
M  V30 381 H 36.1424 -1.01927 -5.64166 0
M  V30 382 H 34.5394 -1.8063 -5.7227 0
M  V30 383 H 35.6094 -2.14288 -4.34981 0
M  V30 384 N 36.9525 1.47285 -0.560781 0
M  V30 385 C 37.8825 2.32857 0.173105 0
M  V30 386 C 38.8635 1.44009 0.905281 0
M  V30 387 O 40.0485 1.7286 0.885046 0
M  V30 388 C 37.1785 3.25861 1.20133 0
M  V30 389 C 36.1325 4.23978 0.585388 0
M  V30 390 C 35.4585 5.06332 1.7185 0
M  V30 391 C 36.7585 5.20242 -0.463178 0
M  V30 392 H 38.4525 2.94466 -0.541307 0
M  V30 393 H 35.9985 1.41601 -0.261764 0
M  V30 394 H 37.9515 3.84569 1.72293 0
M  V30 395 H 36.6755 2.62315 1.94573 0
M  V30 396 H 35.3345 3.66501 0.085054 0
M  V30 397 H 34.9825 4.39186 2.45203 0
M  V30 398 H 34.6825 5.72762 1.31213 0
M  V30 399 H 36.2065 5.67899 2.24329 0
M  V30 400 H 37.6205 5.73293 -0.027502 0
M  V30 401 H 36.0175 5.94896 -0.788627 0
M  V30 402 H 37.0875 4.65504 -1.35773 0
M  V30 403 N 38.4306 0.297415 1.54768 0
M  V30 404 C 39.8416 -0.195947 1.85669 0
M  V30 405 C 40.1926 -1.53707 1.21937 0
M  V30 406 O 39.3176 -2.10164 0.515754 0
M  V30 407 C 39.9126 -0.362318 3.36857 0
M  V30 408 C 38.4716 -0.799901 3.67802 0
M  V30 409 C 37.6186 0.0938578 2.77141 0
M  V30 410 H 40.5696 0.518538 1.4999 0
M  V30 411 H 40.5906 -1.19745 3.61167 0
M  V30 412 H 40.1026 0.613921 3.83214 0
M  V30 413 H 38.2036 -1.78682 3.26961 0
M  V30 414 H 38.3166 -0.621773 4.75048 0
M  V30 415 H 36.6806 -0.426254 2.51108 0
M  V30 416 H 37.4636 1.06639 3.26318 0
M  V30 417 N 39.9087 -1.5758 0.0250728 0
M  V30 418 C 41.1577 -1.90811 -0.653767 0
M  V30 419 C 41.4707 -0.90273 -1.73523 0
M  V30 420 O 42.6767 -1.12614 -2.47043 0
M  V30 421 C 41.1327 -3.38804 -1.21409 0
M  V30 422 C 40.7407 -4.47692 -0.166126 0
M  V30 423 C 42.4847 -3.81108 -1.86967 0
M  V30 424 C 40.3917 -5.86779 -0.737856 0
M  V30 425 H 39.3217 -0.712063 -0.247956 0
M  V30 426 H 41.9727 -1.83281 0.0897137 0
M  V30 427 H 40.3547 -3.41252 -2.00905 0
M  V30 428 H 41.5287 -4.56797 0.606079 0
M  V30 429 H 39.8437 -4.14565 0.390466 0
M  V30 430 H 42.4407 -4.82375 -2.30692 0
M  V30 431 H 42.7837 -3.15953 -2.71071 0
M  V30 432 H 43.3167 -3.81065 -1.14167 0
M  V30 433 H 40.0557 -6.55468 0.0649577 0
M  V30 434 H 39.5757 -5.81288 -1.47864 0
M  V30 435 H 41.2547 -6.35223 -1.22884 0
M  V30 436 N 41.3868 0.248026 -1.55636 0
M  V30 437 C 42.6168 0.992367 -1.81206 0
M  V30 438 C 43.0248 1.7949 -0.598324 0
M  V30 439 O 42.3678 1.78292 0.442434 0
M  V30 440 C 42.4298 1.97926 -3.00109 0
M  V30 441 C 42.0938 1.36377 -4.36177 0
M  V30 442 C 43.0908 0.76682 -5.14214 0
M  V30 443 C 40.7758 1.38347 -4.82872 0
M  V30 444 C 42.7698 0.197778 -6.37093 0
M  V30 445 C 40.4568 0.810574 -6.057 0
M  V30 446 C 41.4548 0.218754 -6.8265 0
M  V30 447 O 41.1428 -0.345298 -8.03158 0
M  V30 448 H 40.8748 0.297704 -0.606917 0
M  V30 449 H 43.4288 0.276517 -2.0353 0
M  V30 450 H 41.6588 2.73339 -2.73538 0
M  V30 451 H 43.3478 2.58694 -3.12781 0
M  V30 452 H 44.1138 0.744114 -4.79258 0
M  V30 453 H 39.9928 1.8335 -4.2297 0
M  V30 454 H 43.5368 -0.264788 -6.97097 0
M  V30 455 H 39.4338 0.830604 -6.40134 0
M  V30 456 H 40.2018 -0.237055 -8.18157 0
M  V30 457 N 42.8649 1.48995 0.513639 0
M  V30 458 C 44.1419 1.48338 1.27495 0
M  V30 459 C 44.5219 0.204065 2.10111 0
M  V30 460 O 43.8699 -0.813881 2.13514 0
M  V30 461 C 44.0799 2.75498 2.14247 0
M  V30 462 C 45.4279 3.24484 2.73852 0
M  V30 463 O 46.4519 2.76528 2.24523 0
M  V30 464 O 45.3109 4.07974 3.6362 0
M  V30 465 H 42.4049 0.593149 0.576284 0
M  V30 466 H 44.9509 1.61246 0.528948 0
M  V30 467 H 43.7229 3.60109 1.53092 0
M  V30 468 H 43.3459 2.6539 2.96064 0
M  V30 469 N 44.343 -0.763751 1.37857 0
M  V30 470 C 45.29 -1.87726 1.34267 0
M  V30 471 C 46.26 -1.64807 0.206879 0
M  V30 472 O 47.445 -1.86613 0.397508 0
M  V30 473 C 44.585 -3.24896 1.16346 0
M  V30 474 C 43.698 -3.59716 2.39225 0
M  V30 475 C 42.833 -4.86137 2.14114 0
M  V30 476 C 41.872 -5.13711 3.32817 0
M  V30 477 N 41.009 -6.31323 3.07206 0
M  V30 478 H 45.849 -1.90129 2.29466 0
M  V30 479 H 43.386 -0.929433 1.14017 0
M  V30 480 H 45.344 -4.04036 1.03975 0
M  V30 481 H 43.974 -3.21847 0.247909 0
M  V30 482 H 43.026 -2.75498 2.62307 0
M  V30 483 H 44.338 -3.76027 3.27728 0
M  V30 484 H 43.492 -5.73198 1.9882 0
M  V30 485 H 42.231 -4.71945 1.22961 0
M  V30 486 H 41.236 -4.25123 3.48641 0
M  V30 487 H 42.461 -5.29807 4.24832 0
M  V30 488 H 40.407 -6.18474 2.1869 0
M  V30 489 H 40.324 -6.48087 3.89254 0
M  V30 490 H 41.592 -7.213 2.95546 0
M  V30 491 N 45.8211 -1.22559 -0.990812 0
M  V30 492 C 47.2321 -1.04791 -1.54518 0
M  V30 493 C 47.5831 0.387998 -1.92325 0
M  V30 494 O 46.7081 1.27328 -1.74976 0
M  V30 495 C 47.3031 -1.896 -2.80779 0
M  V30 496 C 45.8621 -1.76124 -3.32652 0
M  V30 497 C 45.0091 -1.8594 -2.05722 0
M  V30 498 H 47.9601 -1.36374 -0.811662 0
M  V30 499 H 47.9811 -1.41464 -3.53225 0
M  V30 500 H 47.4931 -2.94101 -2.53231 0
M  V30 501 H 45.5941 -0.743643 -3.65104 0
M  V30 502 H 45.7071 -2.58913 -4.03114 0
M  V30 503 H 44.0711 -1.29403 -2.19379 0
M  V30 504 H 44.8541 -2.91976 -1.80568 0
M  V30 505 N 47.2992 1.18797 -1.03562 0
M  V30 506 C 48.2322 2.2105 -0.56676 0
M  V30 507 C 49.2102 1.57704 0.395993 0
M  V30 508 O 50.3942 1.85908 0.311498 0
M  V30 509 C 47.5212 3.38259 0.172704 0
M  V30 510 C 46.5672 4.19987 -0.74252 0
M  V30 511 S 47.4002 4.87199 -2.22254 0
M  V30 512 C 48.5562 6.07813 -1.49379 0
M  V30 513 H 48.7892 2.60478 -1.43312 0
M  V30 514 H 46.3222 1.29151 -0.846133 0
M  V30 515 H 48.2802 4.06191 0.593191 0
M  V30 516 H 46.9412 2.97252 1.01488 0
M  V30 517 H 46.1342 5.03709 -0.171265 0
M  V30 518 H 45.7362 3.57408 -1.10163 0
M  V30 519 H 48.0282 6.72948 -0.784056 0
M  V30 520 H 48.9712 6.69435 -2.30786 0
M  V30 521 H 49.3792 5.55781 -0.988331 0
M  V30 522 N 48.7773 0.814389 1.34928 0
M  V30 523 C 50.0263 0.394871 1.97797 0
M  V30 524 C 50.3393 -1.04555 1.65311 0
M  V30 525 O 51.5453 -1.56856 2.21604 0
M  V30 526 C 50.0013 0.655103 3.53888 0
M  V30 527 C 49.6093 2.10858 3.95276 0
M  V30 528 C 51.3533 0.301329 4.23429 0
M  V30 529 C 49.2603 2.31415 5.44244 0
M  V30 530 H 48.1903 0.143913 0.740139 0
M  V30 531 H 50.8413 0.999544 1.53888 0
M  V30 532 H 49.2233 -0.0196253 3.95995 0
M  V30 533 H 50.3973 2.82176 3.64298 0
M  V30 534 H 48.7123 2.42297 3.38646 0
M  V30 535 H 51.3093 0.432869 5.32945 0
M  V30 536 H 51.6523 -0.75331 4.09428 0
M  V30 537 H 52.1853 0.930288 3.86769 0
M  V30 538 H 48.9243 3.35353 5.63222 0
M  V30 539 H 48.4443 1.6463 5.76764 0
M  V30 540 H 50.1233 2.13352 6.10811 0
M  V30 541 N 50.2554 -1.46986 0.568584 0
M  V30 542 C 51.4854 -2.0653 0.0539173 0
M  V30 543 C 51.8934 -1.42004 -1.25026 0
M  V30 544 O 51.2364 -0.514541 -1.76347 0
M  V30 545 C 51.2984 -3.58938 -0.200854 0
M  V30 546 C 50.9624 -4.45572 1.01559 0
M  V30 547 C 51.9594 -4.82986 1.92407 0
M  V30 548 C 49.6444 -4.8692 1.23346 0
M  V30 549 C 51.6384 -5.60559 3.03402 0
M  V30 550 C 49.3254 -5.64255 2.34649 0
M  V30 551 C 50.3234 -6.00986 3.24507 0
M  V30 552 O 50.0114 -6.76761 4.33878 0
M  V30 553 H 49.7434 -0.674292 0.0480234 0
M  V30 554 H 52.2974 -1.89812 0.784896 0
M  V30 555 H 50.5274 -3.73911 -0.986279 0
M  V30 556 H 52.2164 -4.0046 -0.662294 0
M  V30 557 H 52.9824 -4.51633 1.76785 0
M  V30 558 H 48.8614 -4.57789 0.543178 0
M  V30 559 H 52.4054 -5.89147 3.73565 0
M  V30 560 H 48.3024 -5.95021 2.5024 0
M  V30 561 H 49.0704 -6.95168 4.32068 0
M  V30 562 N 51.7335 -0.305618 -1.54608 0
M  V30 563 C 52.9635 0.304333 -2.04346 0
M  V30 564 C 53.3715 1.47715 -1.18224 0
M  V30 565 O 52.7145 1.82591 -0.201577 0
M  V30 566 C 52.7765 0.819031 -3.50046 0
M  V30 567 C 52.4405 -0.22912 -4.56425 0
M  V30 568 C 53.4375 -1.05914 -5.08997 0
M  V30 569 C 51.1225 -0.372148 -5.0092 0
M  V30 570 C 53.1165 -2.01809 -6.04609 0
M  V30 571 C 50.8035 -1.33454 -5.9635 0
M  V30 572 C 51.8015 -2.15599 -6.48079 0
M  V30 573 O 51.4895 -3.10205 -7.41639 0
M  V30 574 H 51.2215 0.0693996 -0.672428 0
M  V30 575 H 53.7755 -0.444548 -2.00532 0
M  V30 576 H 52.0055 1.61852 -3.51199 0
M  V30 577 H 53.6945 1.34537 -3.82955 0
M  V30 578 H 54.4605 -0.959538 -4.75413 0
M  V30 579 H 50.3395 0.257304 -4.60281 0
M  V30 580 H 53.8835 -2.65966 -6.44909 0
M  V30 581 H 49.7805 -1.43485 -6.29351 0
M  V30 582 H 50.5485 -3.05237 -7.59455 0
M  V30 583 N 53.2116 1.57565 -0.0334293 0
M  V30 584 C 54.6226 1.79746 0.504798 0
M  V30 585 C 54.9736 0.944091 1.71992 0
M  V30 586 O 54.0986 0.155694 2.15839 0
M  V30 587 C 54.6936 3.25997 0.922567 0
M  V30 588 C 53.2526 3.49159 1.40588 0
M  V30 589 C 52.3996 2.74785 0.372633 0
M  V30 590 H 55.3506 1.56565 -0.259436 0
M  V30 591 H 55.3716 3.35945 1.78666 0
M  V30 592 H 54.8836 3.88081 0.0379825 0
M  V30 593 H 52.9846 2.92332 2.31025 0
M  V30 594 H 53.0976 4.57873 1.41028 0
M  V30 595 H 51.4616 2.40391 0.841672 0
M  V30 596 H 52.2446 3.39587 -0.503559 0
M  V30 597 N 54.6897 -0.239769 1.55765 0
M  V30 598 C 55.6197 -1.30052 1.9393 0
M  V30 599 C 56.6007 -1.49839 0.805132 0
M  V30 600 O 57.7857 -1.62328 1.06599 0
M  V30 601 C 54.9157 -2.65391 2.2402 0
M  V30 602 C 53.8697 -2.60289 3.39755 0
M  V30 603 C 53.1957 -3.99489 3.55405 0
M  V30 604 C 54.4957 -2.16654 4.75246 0
M  V30 605 H 56.1897 -0.983573 2.82783 0
M  V30 606 H 53.7357 -0.471701 1.36055 0
M  V30 607 H 55.6887 -3.3974 2.49308 0
M  V30 608 H 54.4127 -2.98736 1.32 0
M  V30 609 H 53.0717 -1.88398 3.14487 0
M  V30 610 H 52.7197 -4.30112 2.60793 0
M  V30 611 H 52.4197 -3.96962 4.33238 0
M  V30 612 H 53.9437 -4.75528 3.83022 0
M  V30 613 H 55.3577 -2.80737 4.99859 0
M  V30 614 H 53.7547 -2.25223 5.56232 0
M  V30 615 H 54.8247 -1.11835 4.71827 0
M  V30 616 N 56.1678 -1.49265 -0.50573 0
M  V30 617 C 57.3928 -1.62478 -1.28902 0
M  V30 618 C 57.8178 -0.294332 -1.85783 0
M  V30 619 O 57.1758 0.737412 -1.65626 0
M  V30 620 C 57.2238 -2.69268 -2.39848 0
M  V30 621 O 56.3278 -2.28113 -3.43567 0
M  V30 622 H 55.6688 -0.54399 -0.380751 0
M  V30 623 H 58.1988 -1.95421 -0.605952 0
M  V30 624 H 58.2088 -2.91291 -2.85681 0
M  V30 625 H 56.8838 -3.65846 -1.97812 0
M  V30 626 H 55.4608 -2.16401 -3.03685 0
M  V30 627 N 57.6459 0.756429 -1.3826 0
M  V30 628 C 58.8919 1.51772 -1.34511 0
M  V30 629 C 59.2249 1.94089 0.0656691 0
M  V30 630 O 58.4999 1.65221 1.02626 0
M  V30 631 C 58.7829 2.77226 -2.29821 0
M  V30 632 C 58.6359 2.41065 -3.79747 0
M  V30 633 C 59.9549 3.79236 -2.23312 0
M  V30 634 H 57.0739 0.550578 -0.489931 0
M  V30 635 H 59.7159 0.866607 -1.69086 0
M  V30 636 H 57.8659 3.32784 -2.00467 0
M  V30 637 H 59.5379 1.91303 -4.19763 0
M  V30 638 H 57.7809 1.7356 -3.97567 0
M  V30 639 H 58.4519 3.3081 -4.41892 0
M  V30 640 H 60.9279 3.3321 -2.49219 0
M  V30 641 H 59.8039 4.64714 -2.92116 0
M  V30 642 H 60.0649 4.24615 -1.23102 0
M  V30 643 N 59.124 1.23083 0.984299 0
M  V30 644 C 60.054 1.03292 2.09411 0
M  V30 645 C 61.035 -0.048923 1.7003 0
M  V30 646 O 62.22 0.114967 1.93859 0
M  V30 647 C 59.35 0.619155 3.41736 0
M  V30 648 C 58.304 1.64791 3.95004 0
M  V30 649 C 57.63 1.0897 5.23478 0
M  V30 650 C 58.93 3.03999 4.24714 0
M  V30 651 H 60.624 1.96119 2.26225 0
M  V30 652 H 58.17 0.944344 1.08711 0
M  V30 653 H 60.123 0.467777 4.18796 0
M  V30 654 H 58.847 -0.344786 3.24775 0
M  V30 655 H 57.506 1.78721 3.20085 0
M  V30 656 H 57.154 0.11686 5.02864 0
M  V30 657 H 56.854 1.77704 5.60085 0
M  V30 658 H 58.378 0.950093 6.03163 0
M  V30 659 H 59.792 2.93393 4.92538 0
M  V30 660 H 58.189 3.69936 4.72512 0
M  V30 661 H 59.259 3.53285 3.32142 0
M  V30 662 N 60.6021 -1.18246 1.0419 0
M  V30 663 C 61.5351 -2.20746 0.578474 0
M  V30 664 C 62.5131 -1.57912 -0.387624 0
M  V30 665 O 63.6971 -1.86071 -0.301634 0
M  V30 666 C 60.8241 -3.38346 -0.154762 0
M  V30 667 C 59.8701 -4.19587 0.764782 0
M  V30 668 S 60.7031 -4.86014 2.24835 0
M  V30 669 C 61.8591 -6.07012 1.526 0
M  V30 670 H 62.0921 -2.59715 1.44691 0
M  V30 671 H 59.6251 -1.287 0.85297 0
M  V30 672 H 61.5831 -4.065 -0.571641 0
M  V30 673 H 60.2441 -2.97786 -0.999105 0
M  V30 674 H 59.4371 -5.03611 0.197976 0
M  V30 675 H 59.0391 -3.56818 1.12057 0
M  V30 676 H 61.3311 -6.72523 0.819733 0
M  V30 677 H 62.2741 -6.68202 2.34333 0
M  V30 678 H 62.6821 -5.55249 1.01779 0
M  V30 679 N 62.0802 -0.821533 -1.34494 0
M  V30 680 C 63.0102 -0.257138 -2.3208 0
M  V30 681 C 63.9912 0.625645 -1.58176 0
M  V30 682 O 65.1762 0.552811 -1.86166 0
M  V30 683 C 62.3062 0.582958 -3.42372 0
M  V30 684 C 61.2602 -0.202571 -4.2752 0
M  V30 685 C 60.5862 0.760179 -5.29269 0
M  V30 686 C 61.8862 -1.40998 -5.02908 0
M  V30 687 H 63.5802 -1.07247 -2.79532 0
M  V30 688 H 61.1262 -0.517163 -1.34393 0
M  V30 689 H 63.0792 0.987972 -4.09655 0
M  V30 690 H 61.8032 1.43133 -2.93565 0
M  V30 691 H 60.4622 -0.588936 -3.61838 0
M  V30 692 H 60.1102 1.60447 -4.76724 0
M  V30 693 H 59.8102 0.238809 -5.87115 0
M  V30 694 H 61.3342 1.16308 -5.9942 0
M  V30 695 H 62.7482 -1.07905 -5.63054 0
M  V30 696 H 61.1452 -1.86689 -5.70322 0
M  V30 697 H 62.2152 -2.1889 -4.32684 0
M  V30 698 N 63.5583 1.46682 -0.576371 0
M  V30 699 C 64.5213 2.28707 0.150239 0
M  V30 700 C 65.5213 1.38035 0.824794 0
M  V30 701 O 66.7113 1.60476 0.677719 0
M  V30 702 C 63.8433 3.18248 1.22192 0
M  V30 703 H 65.0363 2.94423 -0.570521 0
M  V30 704 H 62.5893 1.52688 -0.334078 0
M  V30 705 H 63.3243 2.57265 1.97447 0
M  V30 706 H 63.1093 3.85 0.742812 0
M  V30 707 H 64.5993 3.80001 1.73172 0
M  V30 708 N 65.0364 0.313813 1.54444 0
M  V30 709 C 66.2844 -0.291099 1.99993 0
M  V30 710 C 66.6054 -1.53418 1.20366 0
M  V30 711 O 65.8754 -1.93544 0.302927 0
M  V30 712 H 64.4554 -0.110552 0.738774 0
M  V30 713 H 67.1174 0.428106 1.9014 0
M  V30 714 H 66.2134 -0.554268 3.07139 0
M  V30 715 N 66.5145 -1.57545 0.0417849 0
M  V30 716 C 67.7635 -1.91494 -0.633492 0
M  V30 717 C 68.0765 -0.921084 -1.72556 0
M  V30 718 O 69.2825 -1.15228 -2.45835 0
M  V30 719 C 67.7385 -3.40072 -1.17808 0
M  V30 720 C 67.3465 -4.47843 -0.118633 0
M  V30 721 C 69.0905 -3.8307 -1.82915 0
M  V30 722 C 66.9975 -5.87529 -0.675578 0
M  V30 723 H 65.9275 -0.714653 -0.24039 0
M  V30 724 H 68.5785 -1.83175 0.109148 0
M  V30 725 H 66.9605 -3.43364 -1.97274 0
M  V30 726 H 68.1345 -4.56128 0.654494 0
M  V30 727 H 66.4495 -4.14128 0.434414 0
M  V30 728 H 69.0465 -4.84794 -2.25563 0
M  V30 729 H 69.3895 -3.1881 -2.67705 0
M  V30 730 H 69.9225 -3.82255 -1.10119 0
M  V30 731 H 66.6615 -6.55362 0.134475 0
M  V30 732 H 66.1815 -5.82824 -1.4169 0
M  V30 733 H 67.8605 -6.36491 -1.1614 0
M  V30 734 N 67.9926 0.231505 -1.5589 0
M  V30 735 C 69.4086 0.580748 -1.48659 0
M  V30 736 C 69.6086 1.87617 -0.73498 0
M  V30 737 O 68.6646 2.51046 -0.270586 0
M  V30 738 C 69.9776 0.669202 -2.93159 0
M  V30 739 C 71.5256 0.760499 -3.03621 0
M  V30 740 C 72.0006 0.880383 -4.49459 0
M  V30 741 N 73.4916 0.944861 -4.53461 0
M  V30 742 C 74.2266 1.05716 -5.63571 0
M  V30 743 N 73.7226 1.13403 -6.83456 0
M  V30 744 N 75.5156 1.09152 -5.514 0
M  V30 745 H 67.6666 -0.618695 -2.03189 0
M  V30 746 H 69.9296 -0.215728 -0.923128 0
M  V30 747 H 69.6356 -0.212904 -3.51055 0
M  V30 748 H 69.5096 1.5361 -3.44505 0
M  V30 749 H 71.8966 1.63305 -2.45796 0
M  V30 750 H 71.9776 -0.131864 -2.5546 0
M  V30 751 H 71.6216 0.0123284 -5.07899 0
M  V30 752 H 71.5516 1.78802 -4.95316 0
M  V30 753 H 74.0426 0.896176 -3.6712 0
M  V30 754 H 74.3556 1.21921 -7.63122 0
M  V30 755 H 72.7006 1.10333 -6.86186 0
M  V30 756 H 75.8916 1.02805 -4.56671 0
M  V30 757 H 76.0646 1.17558 -6.37247 0
M  V30 758 N 69.4707 1.49531 0.497807 0
M  V30 759 C 70.3807 1.69176 1.62532 0
M  V30 760 C 71.3967 0.5744 1.64246 0
M  V30 761 O 72.5727 0.849497 1.82608 0
M  V30 762 C 69.6377 1.75695 2.98885 0
M  V30 763 C 68.6987 2.9929 3.07773 0
M  V30 764 C 67.9317 3.05488 4.37622 0
M  V30 765 O 68.1547 2.19192 5.26603 0
M  V30 766 O 67.0887 3.9798 4.51548 0
M  V30 767 H 70.9147 2.647 1.48887 0
M  V30 768 H 68.4997 1.3331 0.674441 0
M  V30 769 H 70.3817 1.82317 3.79919 0
M  V30 770 H 69.0567 0.8335 3.12785 0
M  V30 771 H 67.9637 2.98183 2.25915 0
M  V30 772 H 69.2967 3.91125 2.98801 0
M  V30 773 N 70.9488 -0.749086 1.3866 0
M  V30 774 C 72.1978 -1.50371 1.3443 0
M  V30 775 C 72.5108 -1.95503 -0.0616397 0
M  V30 776 O 73.7168 -2.70554 -0.226489 0
M  V30 777 C 72.1728 -2.71644 2.36088 0
M  V30 778 C 71.7808 -2.3352 3.82325 0
M  V30 779 C 73.5248 -3.49518 2.40909 0
M  V30 780 C 71.4318 -3.51431 4.75658 0
M  V30 781 H 70.3618 -0.564628 0.499712 0
M  V30 782 H 73.0128 -0.818449 1.64237 0
M  V30 783 H 71.3948 -3.42175 1.9933 0
M  V30 784 H 72.5688 -1.70627 4.28046 0
M  V30 785 H 70.8838 -1.6877 3.80665 0
M  V30 786 H 73.4808 -4.37197 3.07836 0
M  V30 787 H 73.8238 -3.90992 1.42937 0
M  V30 788 H 74.3568 -2.86005 2.76489 0
M  V30 789 H 71.0958 -3.15019 5.74842 0
M  V30 790 H 70.6158 -4.13352 4.34627 0
M  V30 791 H 72.2948 -4.17953 4.93887 0
M  V30 792 N 72.4269 -1.23603 -0.977757 0
M  V30 793 C 73.3569 -1.04401 -2.0886 0
M  V30 794 C 74.3379 0.0399052 -1.70053 0
M  V30 795 O 75.5229 -0.125246 -1.93796 0
M  V30 796 C 72.6529 -0.637269 -3.41403 0
M  V30 797 C 71.6069 -1.66883 -3.94124 0
M  V30 798 C 70.9329 -1.11745 -5.22893 0
M  V30 799 C 72.2329 -3.06247 -4.23096 0
M  V30 800 H 73.9269 -1.97316 -2.25182 0
M  V30 801 H 71.4729 -0.950096 -1.08209 0
M  V30 802 H 73.4259 -0.48998 -4.18542 0
M  V30 803 H 72.1499 0.327557 -3.24953 0
M  V30 804 H 70.8089 -1.80416 -3.19133 0
M  V30 805 H 70.4569 -0.143527 -5.02795 0
M  V30 806 H 70.1569 -1.80672 -5.59134 0
M  V30 807 H 71.6809 -0.982067 -6.02651 0
M  V30 808 H 73.0949 -2.96001 -4.90975 0
M  V30 809 H 71.4919 -3.72436 -4.70544 0
M  V30 810 H 72.5619 -3.55041 -3.30263 0
M  V30 811 N 73.905 1.17692 -1.04816 0
M  V30 812 C 75.154 1.87192 -0.751132 0
M  V30 813 C 75.467 1.8169 0.724441 0
M  V30 814 O 76.673 2.46625 1.13527 0
M  V30 815 C 75.129 3.35857 -1.29338 0
M  V30 816 C 74.737 3.4987 -2.79812 0
M  V30 817 C 76.481 4.10709 -1.07322 0
M  V30 818 C 74.388 4.92536 -3.27356 0
M  V30 819 H 73.318 0.701162 -0.277288 0
M  V30 820 H 75.969 1.32932 -1.26496 0
M  V30 821 H 74.351 3.89631 -0.707376 0
M  V30 822 H 75.525 3.06332 -3.44235 0
M  V30 823 H 73.84 2.88433 -3.00325 0
M  V30 824 H 76.437 5.15952 -1.4035 0
M  V30 825 H 76.78 4.16299 -0.0108001 0
M  V30 826 H 77.313 3.6313 -1.62423 0
M  V30 827 H 74.052 4.92119 -4.33012 0
M  V30 828 H 73.572 5.3676 -2.67673 0
M  V30 829 H 75.251 5.61288 -3.21815 0
M  V30 830 N 75.3831 0.828654 1.34056 0
M  V30 831 C 76.6321 0.415828 1.97367 0
M  V30 832 C 76.9451 -1.02796 1.6641 0
M  V30 833 O 78.1511 -1.54497 2.23255 0
M  V30 834 C 76.6071 0.692601 3.53173 0
M  V30 835 C 76.2151 2.15038 3.93017 0
M  V30 836 C 77.9591 0.346222 4.23086 0
M  V30 837 C 75.8661 2.37174 5.41758 0
M  V30 838 H 74.7961 0.151755 0.738571 0
M  V30 839 H 77.4471 1.01581 1.52819 0
M  V30 840 H 75.8291 0.0223764 3.95994 0
M  V30 841 H 77.0031 2.86024 3.61285 0
M  V30 842 H 75.3181 2.45875 3.36057 0
M  V30 843 H 77.9151 0.48937 5.32456 0
M  V30 844 H 78.2581 -0.709842 4.10204 0
M  V30 845 H 78.7911 0.971258 3.85761 0
M  V30 846 H 75.5301 3.41308 5.59633 0
M  V30 847 H 75.0501 1.70738 5.74986 0
M  V30 848 H 76.7291 2.19818 6.08514 0
M  V30 849 N 76.8612 -1.46375 0.584142 0
M  V30 850 C 78.0892 -2.06761 0.0759296 0
M  V30 851 C 78.5042 -1.43266 -1.22965 0
M  V30 852 O 77.8612 -0.538458 -1.74376 0
M  V30 853 C 77.9122 -3.61375 -0.0950384 0
M  V30 854 O 77.6332 -4.22495 1.15887 0
M  V30 855 C 79.1342 -4.38693 -0.637434 0
M  V30 856 H 76.3542 -0.668479 0.0581075 0
M  V30 857 H 78.8982 -1.8798 0.805218 0
M  V30 858 H 77.0532 -3.79578 -0.774554 0
M  V30 859 H 77.4672 -5.15385 0.973598 0
M  V30 860 H 78.9412 -5.47464 -0.706237 0
M  V30 861 H 79.4182 -4.06836 -1.65472 0
M  V30 862 H 80.0242 -4.25299 0.00725967 0
M  V30 863 N 78.3393 -0.321999 -1.54275 0
M  V30 864 C 79.5673 0.283052 -2.04955 0
M  V30 865 C 79.9823 1.45904 -1.19823 0
M  V30 866 O 79.3393 1.81063 -0.228545 0
M  V30 867 C 79.3903 0.719028 -3.54277 0
M  V30 868 O 79.1113 -0.410175 -4.36176 0
M  V30 869 C 80.6123 1.38705 -4.21041 0
M  V30 870 H 77.8323 0.0584616 -0.668448 0
M  V30 871 H 80.3763 -0.467734 -1.99079 0
M  V30 872 H 78.5313 1.41979 -3.60445 0
M  V30 873 H 78.9453 -0.0669416 -5.24457 0
M  V30 874 H 80.4193 1.64306 -5.2698 0
M  V30 875 H 80.8963 2.33385 -3.72059 0
M  V30 876 H 81.5023 0.728906 -4.19007 0
M  V30 877 N 79.8174 1.5752 -0.0501392 0
M  V30 878 C 81.2284 1.80271 0.485705 0
M  V30 879 C 81.5794 0.96228 1.70981 0
M  V30 880 O 80.7044 0.178578 2.15662 0
M  V30 881 C 81.2994 3.26957 0.887938 0
M  V30 882 C 79.8584 3.5063 1.36877 0
M  V30 883 C 79.0054 2.75165 0.343468 0
M  V30 884 H 81.9564 1.56281 -0.276028 0
M  V30 885 H 81.9774 3.37821 1.75093 0
M  V30 886 H 81.4894 3.881 -0.0031809 0
M  V30 887 H 79.5904 2.94766 2.27911 0
M  V30 888 H 79.7034 4.59343 1.36164 0
M  V30 889 H 78.0674 2.4127 0.816128 0
M  V30 890 H 78.8504 3.39034 -0.539548 0
M  V30 891 N 81.2955 -0.223234 1.56011 0
M  V30 892 C 82.2055 -1.29766 1.95443 0
M  V30 893 C 83.2215 -1.51373 0.858028 0
M  V30 894 O 84.3975 -1.64536 1.16146 0
M  V30 895 C 81.4625 -2.62772 2.26167 0
M  V30 896 C 80.5235 -2.49482 3.49367 0
M  V30 897 C 79.7565 -3.76145 3.78616 0
M  V30 898 O 79.9795 -4.79087 3.09568 0
M  V30 899 O 78.9135 -3.73358 4.72109 0
M  V30 900 H 82.7395 -0.99309 2.87004 0
M  V30 901 H 80.3245 -0.425958 1.43199 0
M  V30 902 H 82.2065 -3.41327 2.47131 0
M  V30 903 H 80.8815 -2.92913 1.37781 0
M  V30 904 H 79.7885 -1.69133 3.33684 0
M  V30 905 H 81.1215 -2.2428 4.38131 0
M  V30 906 N 82.7736 -1.49793 -0.48987 0
M  V30 907 C 84.0506 -1.50348 -1.25119 0
M  V30 908 C 84.4306 -0.237466 -2.0976 0
M  V30 909 O 83.7786 0.77981 -2.14782 0
M  V30 910 C 83.9886 -2.78872 -2.09837 0
M  V30 911 C 85.3366 -3.288 -2.68655 0
M  V30 912 O 86.3606 -2.80065 -2.20096 0
M  V30 913 O 85.2196 -4.13707 -3.57083 0
M  V30 914 H 82.3136 -0.602242 -0.566775 0
M  V30 915 H 84.8596 -1.62067 -0.503229 0
M  V30 916 H 83.6316 -3.62499 -1.47343 0
M  V30 917 H 83.2546 -2.70066 -2.91805 0
M  V30 918 N 84.2517 0.741722 -1.39055 0
M  V30 919 C 85.1987 1.85566 -1.37237 0
M  V30 920 C 86.1687 1.64457 -0.233072 0
M  V30 921 O 87.3537 1.85957 -0.427147 0
M  V30 922 C 84.4937 3.23004 -1.215 0
M  V30 923 C 83.6067 3.55864 -2.44918 0
M  V30 924 C 82.7417 4.82669 -2.21821 0
M  V30 925 C 81.7807 5.08351 -3.40948 0
M  V30 926 N 80.9177 6.26356 -3.17211 0
M  V30 927 H 85.7577 1.86455 -2.32462 0
M  V30 928 H 83.2947 0.911176 -1.15482 0
M  V30 929 H 85.2527 4.02331 -1.10389 0
M  V30 930 H 83.8827 3.21411 -0.29908 0
M  V30 931 H 82.9347 2.7129 -2.66657 0
M  V30 932 H 84.2467 3.70765 -3.33668 0
M  V30 933 H 83.4007 5.69962 -2.07914 0
M  V30 934 H 82.1397 4.69929 -1.30454 0
M  V30 935 H 81.1447 4.19522 -3.55361 0
M  V30 936 H 82.3697 5.22981 -4.33207 0
M  V30 937 H 80.3157 6.14917 -2.28502 0
M  V30 938 H 80.2327 6.41813 -3.99515 0
M  V30 939 H 81.5007 7.16506 -3.06984 0
M  V30 940 N 85.7298 1.2412 0.971189 0
M  V30 941 C 86.9778 1.07668 1.71032 0
M  V30 942 C 87.2988 -0.385797 1.91146 0
M  V30 943 O 86.5688 -1.27569 1.4867 0
M  V30 944 H 85.1488 0.395429 0.633755 0
M  V30 945 H 87.8108 1.55984 1.16855 0
M  V30 946 H 86.9068 1.57195 2.69622 0
M  V30 947 N 87.2079 -1.17134 1.05439 0
M  V30 948 C 88.4379 -1.91094 0.785274 0
M  V30 949 C 88.8459 -1.77198 -0.663142 0
M  V30 950 O 88.1889 -1.10835 -1.46497 0
M  V30 951 C 88.2509 -3.42594 1.08949 0
M  V30 952 C 87.9149 -3.80274 2.53458 0
M  V30 953 C 88.9119 -3.82912 3.51673 0
M  V30 954 C 86.5969 -4.11162 2.88532 0
M  V30 955 C 88.5909 -4.15913 4.83006 0
M  V30 956 C 86.2779 -4.43831 4.20068 0
M  V30 957 C 87.2759 -4.46185 5.17115 0
M  V30 958 O 86.9639 -4.78083 6.46291 0
M  V30 959 H 86.6959 -0.613073 0.284811 0
M  V30 960 H 89.2499 -1.49461 1.40893 0
M  V30 961 H 87.4799 -3.84534 0.408741 0
M  V30 962 H 89.1689 -3.97817 0.805991 0
M  V30 963 H 89.9349 -3.5917 3.25917 0
M  V30 964 H 85.8139 -4.085 2.13656 0
M  V30 965 H 89.3579 -4.17665 5.5875 0
M  V30 966 H 85.2549 -4.67037 4.45586 0
M  V30 967 H 86.0229 -4.9593 6.51149 0
M  V30 968 N 88.686 -0.835752 -1.33615 0
M  V30 969 C 89.933 -0.429959 -1.97883 0
M  V30 970 C 90.261 1.01006 -1.66217 0
M  V30 971 O 89.516 1.72047 -0.93265 0
M  V30 972 C 89.815 -0.593925 -3.52431 0
M  V30 973 C 89.481 -2.00158 -4.04039 0
M  V30 974 C 88.143 -2.38662 -4.17844 0
M  V30 975 C 90.495 -2.92117 -4.31644 0
M  V30 976 C 87.823 -3.68435 -4.56588 0
M  V30 977 C 90.175 -4.21368 -4.71838 0
M  V30 978 C 88.839 -4.59833 -4.83849 0
M  V30 979 H 88.109 -0.157333 -0.724104 0
M  V30 980 H 90.756 -1.06217 -1.59343 0
M  V30 981 H 89.061 0.121619 -3.91611 0
M  V30 982 H 90.758 -0.260282 -4.00154 0
M  V30 983 H 87.348 -1.69252 -3.93766 0
M  V30 984 H 91.532 -2.63608 -4.20505 0
M  V30 985 H 86.788 -3.98046 -4.64079 0
M  V30 986 H 90.962 -4.92703 -4.92155 0
M  V30 987 H 88.589 -5.60438 -5.13627 0
M  V30 988 N 90.1641 1.46063 -0.591896 0
M  V30 989 C 91.0961 2.28539 0.174001 0
M  V30 990 C 92.1091 1.39047 0.846753 0
M  V30 991 O 93.2981 1.63564 0.714774 0
M  V30 992 C 90.3981 3.14347 1.26645 0
M  V30 993 C 89.5711 4.32021 0.683856 0
M  V30 994 C 88.6301 4.99157 1.66518 0
M  V30 995 O 87.6561 5.56458 1.19763 0
M  V30 996 N 88.8581 4.97005 2.99943 0
M  V30 997 H 91.6231 2.94911 -0.533633 0
M  V30 998 H 89.1841 1.56077 -0.430294 0
M  V30 999 H 91.1761 3.56125 1.92242 0
M  V30 1000 H 89.7461 2.49988 1.87682 0
M  V30 1001 H 88.9661 3.93915 -0.1498 0
M  V30 1002 H 90.2541 5.08059 0.274567 0
M  V30 1003 H 89.6521 4.51714 3.40545 0
M  V30 1004 H 88.2091 5.42696 3.61004 0
M  V30 1005 N 91.6422 0.330177 1.54103 0
M  V30 1006 C 93.0582 -0.0222371 1.59585 0
M  V30 1007 C 93.2582 -1.49902 1.34654 0
M  V30 1008 O 92.3142 -2.25592 1.13421 0
M  V30 1009 C 93.6272 0.401932 2.98002 0
M  V30 1010 C 95.1752 0.353145 3.11001 0
M  V30 1011 C 95.6502 0.752576 4.51775 0
M  V30 1012 N 97.1412 0.706239 4.57784 0
M  V30 1013 C 97.8762 0.987417 5.64834 0
M  V30 1014 N 97.3722 1.33607 6.79795 0
M  V30 1015 N 99.1652 0.91254 5.54643 0
M  V30 1016 H 91.3162 1.29228 1.68564 0
M  V30 1017 H 93.5792 0.525906 0.78875 0
M  V30 1018 H 93.2852 1.4311 3.21267 0
M  V30 1019 H 93.1592 -0.229699 3.765 0
M  V30 1020 H 95.5462 -0.666822 2.87467 0
M  V30 1021 H 95.6272 1.0198 2.34593 0
M  V30 1022 H 95.2712 1.77049 4.76042 0
M  V30 1023 H 95.2012 0.0635409 5.26562 0
M  V30 1024 H 97.6922 0.44889 3.75224 0
M  V30 1025 H 98.0052 1.53582 7.57385 0
M  V30 1026 H 96.3502 1.37439 6.81275 0
M  V30 1027 H 99.5412 0.639601 4.6371 0
M  V30 1028 H 99.7142 1.13503 6.37982 0
M  V30 1029 N 93.1203 -1.57491 0.0584922 0
M  V30 1030 C 94.0503 -2.14988 -0.911178 0
M  V30 1031 C 95.0313 -1.07343 -1.31952 0
M  V30 1032 O 96.2163 -1.35318 -1.39294 0
M  V30 1033 C 93.3463 -2.70078 -2.18347 0
M  V30 1034 C 92.3003 -3.82771 -1.91495 0
M  V30 1035 C 91.6263 -4.24408 -3.25241 0
M  V30 1036 C 92.9263 -5.07592 -1.23075 0
M  V30 1037 H 94.6203 -2.96263 -0.432246 0
M  V30 1038 H 92.1663 -1.42512 -0.206469 0
M  V30 1039 H 94.1193 -3.08943 -2.86587 0
M  V30 1040 H 92.8433 -1.86005 -2.68458 0
M  V30 1041 H 91.5023 -3.44389 -1.25664 0
M  V30 1042 H 91.1503 -3.37275 -3.73168 0
M  V30 1043 H 90.8503 -5.00366 -3.08071 0
M  V30 1044 H 92.3743 -4.65879 -3.94701 0
M  V30 1045 H 93.7883 -5.43857 -1.81362 0
M  V30 1046 H 92.1853 -5.88741 -1.16207 0
M  V30 1047 H 93.2553 -4.84454 -0.207847 0
M  V30 1048 N 94.5984 0.214957 -1.56127 0
M  V30 1049 C 95.5284 1.2695 -1.95974 0
M  V30 1050 C 96.5094 1.48539 -0.828868 0
M  V30 1051 O 97.6944 1.60611 -1.09168 0
M  V30 1052 C 94.8244 2.61794 -2.28214 0
M  V30 1053 C 93.7784 2.54851 -3.43853 0
M  V30 1054 C 93.1044 3.93785 -3.61715 0
M  V30 1055 C 94.4044 2.09065 -4.78632 0
M  V30 1056 H 96.0984 0.93846 -2.84312 0
M  V30 1057 H 93.6444 0.449996 -1.36788 0
M  V30 1058 H 95.5974 3.35731 -2.54682 0
M  V30 1059 H 94.3214 2.96599 -1.36736 0
M  V30 1060 H 92.9804 1.8337 -3.17444 0
M  V30 1061 H 92.6284 4.25908 -2.67602 0
M  V30 1062 H 92.3284 3.90019 -4.39498 0
M  V30 1063 H 93.8524 4.69374 -3.90539 0
M  V30 1064 H 95.2664 2.7275 -5.04262 0
M  V30 1065 H 93.6634 2.16346 -5.59745 0
M  V30 1066 H 94.7334 1.04315 -4.73547 0
M  V30 1067 N 96.0765 1.50051 0.48192 0
M  V30 1068 C 97.3245 1.60181 1.23234 0
M  V30 1069 C 97.6455 0.299176 1.92691 0
M  V30 1070 O 96.9155 -0.682708 1.83619 0
M  V30 1071 H 95.4955 0.590232 0.457859 0
M  V30 1072 H 98.1575 1.86775 0.556881 0
M  V30 1073 H 97.2535 2.40753 1.98607 0
M  V30 1074 N 97.5546 -0.734337 1.39446 0
M  V30 1075 C 98.8316 -1.48579 1.27215 0
M  V30 1076 C 99.2116 -2.1077 -0.117968 0
M  V30 1077 O 98.5596 -1.98646 -1.12924 0
M  V30 1078 C 98.7696 -2.53667 2.39696 0
M  V30 1079 C 100.118 -3.20031 2.79044 0
M  V30 1080 O 101.142 -2.6398 2.39151 0
M  V30 1081 O 100.001 -4.21455 3.47905 0
M  V30 1082 H 97.0946 -0.659816 0.49857 0
M  V30 1083 H 99.6406 -0.768106 1.51322 0
M  V30 1084 H 98.4126 -2.06096 3.32626 0
M  V30 1085 H 98.0356 -3.32994 2.17258 0
M  V30 1086 N 99.0327 -1.24633 -0.964593 0
M  V30 1087 C 100.281 -1.08573 -1.70459 0
M  V30 1088 C 100.602 0.375655 -1.91347 0
M  V30 1089 O 99.8717 1.26779 -1.49345 0
M  V30 1090 H 98.4517 -0.398784 -0.631649 0
M  V30 1091 H 101.114 -1.56601 -1.16026 0
M  V30 1092 H 100.21 -1.58623 -2.68785 0
M  V30 1093 N 100.511 1.16574 -1.06058 0
M  V30 1094 C 101.736 1.91493 -0.796562 0
M  V30 1095 C 102.161 1.76773 0.642868 0
M  V30 1096 O 101.519 1.09142 1.44768 0
M  V30 1097 C 101.567 3.40293 -1.19303 0
M  V30 1098 O 100.671 4.11074 -0.330394 0
M  V30 1099 H 100.012 0.596678 -0.291326 0
M  V30 1100 H 102.542 1.47708 -1.41575 0
M  V30 1101 H 102.552 3.91057 -1.16356 0
M  V30 1102 H 101.227 3.50326 -2.24153 0
M  V30 1103 H 99.8038 3.70513 -0.421225 0
M  V30 1104 N 101.989 0.842826 1.3317 0
M  V30 1105 C 102.899 0.281444 2.32906 0
M  V30 1106 C 103.915 -0.594587 1.63526 0
M  V30 1107 O 105.091 -0.49777 1.95152 0
M  V30 1108 C 102.156 -0.530929 3.42611 0
M  V30 1109 C 101.217 0.369843 4.27704 0
M  V30 1110 C 100.45 -0.403853 5.3217 0
M  V30 1111 O 100.673 -1.63513 5.46461 0
M  V30 1112 O 99.6069 0.224199 6.01482 0
M  V30 1113 H 103.433 1.10744 2.82789 0
M  V30 1114 H 101.018 0.60545 1.36582 0
M  V30 1115 H 102.9 -0.992437 4.09547 0
M  V30 1116 H 101.575 -1.33392 2.94938 0
M  V30 1117 H 100.482 0.879275 3.6362 0
M  V30 1118 H 101.815 1.13771 4.78871 0
M  V30 1119 N 103.467 -1.45747 0.599634 0
M  V30 1120 C 104.714 -2.02292 0.0917284 0
M  V30 1121 C 105.042 -1.46906 -1.27472 0
M  V30 1122 O 104.297 -0.630652 -1.8526 0
M  V30 1123 C 104.596 -3.57399 -0.00602758 0
M  V30 1124 C 104.262 -4.31902 1.29503 0
M  V30 1125 C 102.924 -4.51974 1.65144 0
M  V30 1126 C 105.276 -4.74551 2.15525 0
M  V30 1127 C 102.604 -5.11949 2.86574 0
M  V30 1128 C 104.956 -5.35868 3.36196 0
M  V30 1129 C 103.62 -5.54165 3.72099 0
M  V30 1130 H 102.89 -0.740239 0.0335658 0
M  V30 1131 H 105.537 -1.7491 0.779661 0
M  V30 1132 H 103.842 -3.84014 -0.777183 0
M  V30 1133 H 105.539 -3.98846 -0.415038 0
M  V30 1134 H 102.129 -4.16588 1.00761 0
M  V30 1135 H 106.313 -4.58784 1.8929 0
M  V30 1136 H 101.569 -5.24305 3.14507 0
M  V30 1137 H 105.743 -5.6787 4.03109 0
M  V30 1138 H 103.37 -6.00406 4.6628 0
M  V30 1139 N 104.945 -0.338344 -1.53925 0
M  V30 1140 C 106.193 0.259245 -2.0043 0
M  V30 1141 C 106.514 1.51484 -1.22791 0
M  V30 1142 O 105.784 1.93037 -0.33368 0
M  V30 1143 H 104.364 0.0987845 -0.740439 0
M  V30 1144 H 107.026 -0.458302 -1.89435 0
M  V30 1145 H 106.122 0.505334 -3.07982 0
M  V30 1146 N 106.423 1.57458 -0.0668435 0
M  V30 1147 C 107.672 1.92477 0.602947 0
M  V30 1148 C 107.985 0.948419 1.71068 0
M  V30 1149 O 109.191 1.19124 2.43971 0
M  V30 1150 C 107.647 3.41903 1.12383 0
M  V30 1151 C 107.255 4.47975 0.04737 0
M  V30 1152 C 108.999 3.85931 1.76797 0
M  V30 1153 C 106.906 5.88529 0.582022 0
M  V30 1154 H 105.836 0.718387 0.22899 0
M  V30 1155 H 108.487 1.82978 -0.138276 0
M  V30 1156 H 106.869 3.46459 1.91787 0
M  V30 1157 H 108.043 4.55029 -0.726978 0
M  V30 1158 H 106.358 4.13384 -0.500243 0
M  V30 1159 H 108.955 4.88322 2.17821 0
M  V30 1160 H 109.298 3.23029 2.62599 0
M  V30 1161 H 109.831 3.83958 1.04024 0
M  V30 1162 H 106.57 6.55065 -0.238721 0
M  V30 1163 H 106.09 5.85004 1.324 0
M  V30 1164 H 107.769 6.38258 1.05999 0
M  V30 1165 N 107.901 -0.206675 1.56239 0
M  V30 1166 C 108.833 -1.27997 1.9013 0
M  V30 1167 C 109.846 -1.42299 0.790883 0
M  V30 1168 O 111.035 -1.42931 1.06925 0
M  V30 1169 C 108.135 -2.65368 2.10792 0
M  V30 1170 C 107.308 -2.72824 3.41886 0
M  V30 1171 C 106.367 -3.9131 3.51799 0
M  V30 1172 O 105.393 -3.78953 4.24716 0
M  V30 1173 N 106.595 -5.06265 2.84035 0
M  V30 1174 H 109.36 -0.992444 2.82791 0
M  V30 1175 H 106.921 -0.396652 1.56966 0
M  V30 1176 H 108.913 -3.43039 2.14724 0
M  V30 1177 H 107.483 -2.86657 1.24685 0
M  V30 1178 H 106.703 -1.81515 3.49923 0
M  V30 1179 H 107.991 -2.74786 4.28217 0
M  V30 1180 H 107.389 -5.19203 2.246 0
M  V30 1181 H 105.946 -5.81925 2.93609 0
M  V30 1182 N 109.379 -1.50304 -0.473955 0
M  V30 1183 C 110.309 -1.71886 -1.58042 0
M  V30 1184 C 111.29 -0.567799 -1.60344 0
M  V30 1185 O 112.475 -0.806623 -1.76656 0
M  V30 1186 C 109.605 -1.81036 -2.96384 0
M  V30 1187 C 108.559 -2.962 -3.08949 0
M  V30 1188 C 107.885 -2.9049 -4.48909 0
M  V30 1189 C 109.185 -4.36752 -2.86434 0
M  V30 1190 H 110.879 -2.64527 -1.40234 0
M  V30 1191 H 108.425 -1.27295 -0.673201 0
M  V30 1192 H 110.378 -1.94719 -3.73714 0
M  V30 1193 H 109.102 -0.850147 -3.15341 0
M  V30 1194 H 107.761 -2.82164 -2.3405 0
M  V30 1195 H 107.409 -1.92321 -4.64781 0
M  V30 1196 H 107.109 -3.67802 -4.58253 0
M  V30 1197 H 108.633 -3.06218 -5.28264 0
M  V30 1198 H 110.047 -4.5133 -3.53517 0
M  V30 1199 H 108.444 -5.15493 -3.07225 0
M  V30 1200 H 109.514 -4.49321 -1.82316 0
M  V30 1201 N 110.857 0.726932 -1.39834 0
M  V30 1202 C 111.767 1.87131 -1.41489 0
M  V30 1203 C 112.783 1.71239 -0.308757 0
M  V30 1204 O 113.959 1.93701 -0.551529 0
M  V30 1205 C 111.024 3.22811 -1.26468 0
M  V30 1206 C 110.085 3.51039 -2.47124 0
M  V30 1207 C 109.318 4.80245 -2.3281 0
M  V30 1208 O 109.541 5.54537 -1.33585 0
M  V30 1209 O 108.475 5.08554 -3.21957 0
M  V30 1210 H 112.301 1.8869 -2.3797 0
M  V30 1211 H 109.886 0.875837 -1.21035 0
M  V30 1212 H 111.768 4.03877 -1.20255 0
M  V30 1213 H 110.443 3.22005 -0.330862 0
M  V30 1214 H 109.35 2.70027 -2.58914 0
M  V30 1215 H 110.683 3.56632 -3.39227 0
M  V30 1216 N 112.336 1.25143 0.95797 0
M  V30 1217 C 113.566 1.12261 1.73439 0
M  V30 1218 C 113.974 -0.326715 1.86358 0
M  V30 1219 O 113.317 -1.2367 1.35836 0
M  V30 1220 C 113.379 1.69966 3.16784 0
M  V30 1221 C 113.043 3.18936 3.27305 0
M  V30 1222 C 114.04 4.15968 3.11877 0
M  V30 1223 C 111.725 3.59083 3.51234 0
M  V30 1224 C 113.719 5.51126 3.20217 0
M  V30 1225 C 111.406 4.9438 3.5921 0
M  V30 1226 C 112.404 5.90211 3.43716 0
M  V30 1227 O 112.092 7.23046 3.51368 0
M  V30 1228 H 111.824 0.392476 0.550399 0
M  V30 1229 H 114.378 1.65927 1.21068 0
M  V30 1230 H 112.608 1.10744 3.70503 0
M  V30 1231 H 114.297 1.52232 3.76272 0
M  V30 1232 H 115.063 3.86292 2.93264 0
M  V30 1233 H 110.942 2.84989 3.62356 0
M  V30 1234 H 114.486 6.25905 3.0804 0
M  V30 1235 H 110.383 5.23723 3.77339 0
M  V30 1236 H 111.151 7.31097 3.6802 0
M  V30 1237 N 113.814 -1.1601 1.06675 0
M  V30 1238 C 114.777 -2.18724 0.685001 0
M  V30 1239 C 115.777 -1.58496 -0.271246 0
M  V30 1240 O 116.967 -1.74119 -0.0531156 0
M  V30 1241 C 114.099 -3.40899 0.00853648 0
M  V30 1242 H 115.292 -2.54011 1.59431 0
M  V30 1243 H 112.845 -1.30352 0.862441 0
M  V30 1244 H 113.58 -3.11173 -0.913337 0
M  V30 1245 H 113.365 -3.8587 0.696204 0
M  V30 1246 H 114.855 -4.16886 -0.24414 0
M  V30 1247 N 115.292 -0.849877 -1.32721 0
M  V30 1248 C 116.202 -0.293791 -2.32753 0
M  V30 1249 C 117.218 0.585906 -1.63839 0
M  V30 1250 O 118.394 0.487413 -1.95413 0
M  V30 1251 C 115.459 0.512752 -3.42887 0
M  V30 1252 C 114.52 -0.39252 -4.27502 0
M  V30 1253 C 113.753 0.375625 -5.32377 0
M  V30 1254 O 113.976 1.60613 -5.4732 0
M  V30 1255 O 112.91 -0.256094 -6.01355 0
M  V30 1256 H 116.736 -1.12242 -2.82197 0
M  V30 1257 H 114.321 -0.612685 -1.36259 0
M  V30 1258 H 116.203 0.970704 -4.10067 0
M  V30 1259 H 114.878 1.31826 -2.95641 0
M  V30 1260 H 113.785 -0.898547 -3.63149 0
M  V30 1261 H 115.118 -1.16309 -4.7826 0
M  V30 1262 N 116.77 1.45427 -0.607355 0
M  V30 1263 C 117.702 2.2871 0.149752 0
M  V30 1264 C 118.715 1.39937 0.831958 0
M  V30 1265 O 119.904 1.64313 0.697385 0
M  V30 1266 C 117.004 3.15673 1.23304 0
M  V30 1267 C 116.177 4.32722 0.637996 0
M  V30 1268 C 115.236 5.00895 1.61215 0
M  V30 1269 O 114.262 5.57697 1.13854 0
M  V30 1270 N 115.464 5.00159 2.94655 0
M  V30 1271 H 118.229 2.94328 -0.564882 0
M  V30 1272 H 115.79 1.55612 -0.446823 0
M  V30 1273 H 117.782 3.58144 1.88454 0
M  V30 1274 H 116.352 2.51965 1.8502 0
M  V30 1275 H 115.572 3.93734 -0.191572 0
M  V30 1276 H 116.86 5.08321 0.220665 0
M  V30 1277 H 116.258 4.553 3.35735 0
M  V30 1278 H 114.815 5.46495 3.55228 0
M  V30 1279 N 118.248 0.346503 1.53744 0
M  V30 1280 C 119.659 -0.136779 1.86198 0
M  V30 1281 C 120.01 -1.49749 1.26766 0
M  V30 1282 O 119.135 -2.08417 0.582355 0
M  V30 1283 C 119.73 -0.254966 3.37839 0
M  V30 1284 C 118.289 -0.682482 3.70161 0
M  V30 1285 C 117.436 0.181981 2.76702 0
M  V30 1286 H 120.387 0.565994 1.48264 0
M  V30 1287 H 120.408 -1.08195 3.64793 0
M  V30 1288 H 119.92 0.735526 3.81066 0
M  V30 1289 H 118.021 -1.68189 3.3248 0
M  V30 1290 H 118.134 -0.470326 4.76786 0
M  V30 1291 H 116.498 -0.34615 2.52337 0
M  V30 1292 H 117.281 1.16966 3.2276 0
M  V30 1293 N 119.726 -1.57421 0.075193 0
M  V30 1294 C 120.951 -1.98364 -0.605515 0
M  V30 1295 C 121.376 -0.953383 -1.62149 0
M  V30 1296 O 120.734 0.0806053 -1.81121 0
M  V30 1297 C 120.782 -3.38332 -1.24756 0
M  V30 1298 O 119.886 -3.37959 -2.36342 0
M  V30 1299 H 119.227 -0.645553 -0.155428 0
M  V30 1300 H 121.757 -2.04044 0.150714 0
M  V30 1301 H 121.767 -3.75591 -1.5936 0
M  V30 1302 H 120.442 -4.12846 -0.503129 0
M  V30 1303 H 119.019 -3.12474 -2.03506 0
M  V30 1304 N 121.204 0.198386 -1.56346 0
M  V30 1305 C 122.615 0.763358 -1.70381 0
M  V30 1306 C 122.966 1.83995 -0.681203 0
M  V30 1307 O 122.091 2.15785 0.16305 0
M  V30 1308 C 122.686 1.39143 -3.08909 0
M  V30 1309 C 121.245 1.90352 -3.2472 0
M  V30 1310 C 120.392 0.772233 -2.6633 0
M  V30 1311 H 123.343 -0.0266377 -1.58678 0
M  V30 1312 H 123.364 2.26076 -3.06055 0
M  V30 1313 H 122.876 0.607638 -3.83314 0
M  V30 1314 H 120.977 2.71461 -2.55225 0
M  V30 1315 H 121.09 2.06757 -4.3219 0
M  V30 1316 H 119.454 1.18566 -2.2542 0
M  V30 1317 H 120.237 0.00073556 -3.433 0
M  V30 1318 N 122.682 1.50554 0.465978 0
M  V30 1319 C 123.959 1.5232 1.22712 0
M  V30 1320 C 124.339 0.270807 2.09356 0
M  V30 1321 O 123.687 -0.745541 2.15995 0
M  V30 1322 C 123.897 2.82175 2.05374 0
M  V30 1323 C 125.245 3.33033 2.6339 0
M  V30 1324 O 126.269 2.83531 2.15612 0
M  V30 1325 O 125.128 4.19336 3.50456 0
M  V30 1326 H 122.222 0.611183 0.557122 0
M  V30 1327 H 124.768 1.62847 0.477381 0
M  V30 1328 H 123.54 3.64797 1.41558 0
M  V30 1329 H 123.163 2.74675 2.87471 0
M  V30 1330 N 124.16 -0.719506 1.40217 0
M  V30 1331 C 125.408 -1.47641 1.3801 0
M  V30 1332 C 125.729 -1.94992 -0.018145 0
M  V30 1333 O 124.999 -1.70073 -0.972207 0
M  V30 1334 H 123.579 -0.547744 0.507923 0
M  V30 1335 H 126.241 -0.853187 1.75233 0
M  V30 1336 H 125.337 -2.35112 2.05253 0
M  V30 1337 N 125.638 -1.25649 -0.95132 0
M  V30 1338 C 126.568 -1.08808 -2.06599 0
M  V30 1339 C 127.549 0.00382547 -1.701 0
M  V30 1340 O 128.734 -0.166325 -1.93486 0
M  V30 1341 C 125.864 -0.709542 -3.39975 0
M  V30 1342 C 124.818 -1.75206 -3.90496 0
M  V30 1343 C 124.144 -1.22811 -5.20405 0
M  V30 1344 C 125.444 -3.15153 -4.16504 0
M  V30 1345 H 127.138 -2.02048 -2.20946 0
M  V30 1346 H 124.684 -0.972835 -1.06169 0
M  V30 1347 H 126.637 -0.578649 -4.17408 0
M  V30 1348 H 125.361 0.258556 -3.25575 0
M  V30 1349 H 124.02 -1.87145 -3.15234 0
M  V30 1350 H 123.668 -0.250145 -5.02378 0
M  V30 1351 H 123.368 -1.92492 -5.55176 0
M  V30 1352 H 124.892 -1.10968 -6.00432 0
M  V30 1353 H 126.306 -3.06349 -4.84586 0
M  V30 1354 H 124.703 -3.82333 -4.62538 0
M  V30 1355 H 125.773 -3.61966 -3.22658 0
M  V30 1356 N 127.117 1.15442 -1.07289 0
M  V30 1357 C 128.08 2.18358 -0.696591 0
M  V30 1358 C 129.08 1.58637 0.262837 0
M  V30 1359 O 130.27 1.74145 0.0438809 0
M  V30 1360 C 127.402 3.4089 -0.0266151 0
M  V30 1361 H 128.595 2.53162 -1.60776 0
M  V30 1362 H 126.148 1.29893 -0.869342 0
M  V30 1363 H 126.883 3.11653 0.896822 0
M  V30 1364 H 126.668 3.85495 -0.716657 0
M  V30 1365 H 128.158 4.17009 0.222028 0
M  V30 1366 N 128.595 0.856903 1.32268 0
M  V30 1367 C 129.527 0.260412 2.27716 0
M  V30 1368 C 130.54 -0.569137 1.52528 0
M  V30 1369 O 131.729 -0.39326 1.74114 0
M  V30 1370 C 128.829 -0.650477 3.32599 0
M  V30 1371 C 128.002 0.14372 4.37164 0
M  V30 1372 C 127.061 -0.69328 5.21613 0
M  V30 1373 O 126.087 -0.12599 5.69061 0
M  V30 1374 N 127.289 -2.00761 5.44679 0
M  V30 1375 H 130.054 1.08059 2.79541 0
M  V30 1376 H 127.615 0.717103 1.45152 0
M  V30 1377 H 129.607 -1.21581 3.86005 0
M  V30 1378 H 128.177 -1.37133 2.80915 0
M  V30 1379 H 127.397 0.890486 3.8401 0
M  V30 1380 H 128.685 0.68915 5.04111 0
M  V30 1381 H 128.083 -2.49181 5.07863 0
M  V30 1382 H 126.64 -2.52103 6.01072 0
M  V30 1383 N 130.073 -1.45103 0.615059 0
M  V30 1384 C 131.036 -2.29025 -0.0895485 0
M  V30 1385 C 132.036 -1.40174 -0.787906 0
M  V30 1386 O 133.226 -1.62217 -0.634933 0
M  V30 1387 C 130.358 -3.21376 -1.13711 0
M  V30 1388 H 131.551 -2.92807 0.648382 0
M  V30 1389 H 129.104 -1.51749 0.374444 0
M  V30 1390 H 129.839 -2.6241 -1.90556 0
M  V30 1391 H 129.624 -3.86834 -0.640475 0
M  V30 1392 H 131.114 -3.84459 -1.63036 0
M  V30 1393 N 131.551 -0.354651 -1.53558 0
M  V30 1394 C 132.798 0.238443 -2.01091 0
M  V30 1395 C 133.126 1.49663 -1.24222 0
M  V30 1396 O 132.381 1.93049 -0.321003 0
M  V30 1397 C 132.68 0.587121 -3.52545 0
M  V30 1398 C 132.346 -0.575472 -4.47213 0
M  V30 1399 C 131.008 -0.894497 -4.72813 0
M  V30 1400 C 133.36 -1.35489 -5.03281 0
M  V30 1401 C 130.688 -1.99511 -5.51736 0
M  V30 1402 C 133.04 -2.44583 -5.83405 0
M  V30 1403 C 131.704 -2.77033 -6.07296 0
M  V30 1404 H 130.974 0.0872526 -0.735845 0
M  V30 1405 H 133.621 -0.484859 -1.8526 0
M  V30 1406 H 131.926 1.39129 -3.66265 0
M  V30 1407 H 133.623 1.05809 -3.86789 0
M  V30 1408 H 130.213 -0.316774 -4.27428 0
M  V30 1409 H 134.397 -1.12167 -4.83459 0
M  V30 1410 H 129.653 -2.25063 -5.68469 0
M  V30 1411 H 133.827 -3.05401 -6.25862 0
M  V30 1412 H 131.454 -3.6244 -6.68237 0
M  V30 1413 N 133.029 1.57378 -0.0835403 0
M  V30 1414 C 134.278 1.93106 0.582498 0
M  V30 1415 C 134.591 0.96651 1.70053 0
M  V30 1416 O 135.797 1.21705 2.42693 0
M  V30 1417 C 134.253 3.43076 1.08751 0
M  V30 1418 C 133.861 4.48 -0.000146404 0
M  V30 1419 C 135.605 3.87785 1.72694 0
M  V30 1420 C 133.512 5.89113 0.519568 0
M  V30 1421 H 132.442 0.720775 0.221358 0
M  V30 1422 H 135.093 1.82821 -0.157675 0
M  V30 1423 H 133.475 3.48474 1.88101 0
M  V30 1424 H 134.649 4.54233 -0.775199 0
M  V30 1425 H 132.964 4.1283 -0.54406 0
M  V30 1426 H 135.561 4.90604 2.1263 0
M  V30 1427 H 135.904 3.25796 2.59158 0
M  V30 1428 H 136.437 3.8504 0.999457 0
M  V30 1429 H 133.176 6.54775 -0.308186 0
M  V30 1430 H 132.696 5.86376 1.26188 0
M  V30 1431 H 134.375 6.39346 0.992237 0
M  V30 1432 N 134.507 -0.190092 1.56449 0
M  V30 1433 C 135.756 -0.907912 1.80111 0
M  V30 1434 C 136.069 -1.84214 0.657619 0
M  V30 1435 O 137.275 -2.60094 0.778663 0
M  V30 1436 C 135.731 -1.66485 3.19078 0
M  V30 1437 C 135.339 -0.7752 4.41242 0
M  V30 1438 C 137.083 -2.37201 3.52045 0
M  V30 1439 C 134.99 -1.53129 5.71231 0
M  V30 1440 H 133.92 -0.34276 0.671589 0
M  V30 1441 H 136.571 -0.161109 1.82791 0
M  V30 1442 H 134.953 -2.45572 3.10661 0
M  V30 1443 H 136.127 -0.0226298 4.60794 0
M  V30 1444 H 134.442 -0.178627 4.16017 0
M  V30 1445 H 137.039 -2.94329 4.46402 0
M  V30 1446 H 137.382 -3.11632 2.76028 0
M  V30 1447 H 137.915 -1.65075 3.61932 0
M  V30 1448 H 134.654 -0.82967 6.50228 0
M  V30 1449 H 134.174 -2.25767 5.55688 0
M  V30 1450 H 135.853 -2.08377 6.12526 0
M  V30 1451 N 135.985 -1.50799 -0.457987 0
M  V30 1452 C 137.233 -1.62121 -1.2067 0
M  V30 1453 C 137.554 -0.329793 -1.92191 0
M  V30 1454 O 136.824 0.653409 -1.84682 0
M  V30 1455 H 135.404 -0.597441 -0.448411 0
M  V30 1456 H 138.066 -1.87637 -0.527096 0
M  V30 1457 H 137.162 -2.43882 -1.94751 0
M  V30 1458 N 137.463 0.71206 -1.40597 0
M  V30 1459 C 138.373 1.8562 -1.43466 0
M  V30 1460 C 139.389 1.70902 -0.326902 0
M  V30 1461 O 140.565 1.93105 -0.572043 0
M  V30 1462 C 137.63 3.21451 -1.29884 0
M  V30 1463 C 136.691 3.48398 -2.50833 0
M  V30 1464 C 135.924 4.77749 -2.3789 0
M  V30 1465 O 136.147 5.53089 -1.39459 0
M  V30 1466 O 135.081 5.05111 -3.27333 0
M  V30 1467 H 138.907 1.86155 -2.39958 0
M  V30 1468 H 136.492 0.86295 -1.21957 0
M  V30 1469 H 138.374 4.02579 -1.24531 0
M  V30 1470 H 137.049 3.21636 -0.364997 0
M  V30 1471 H 135.956 2.67265 -2.61763 0
M  V30 1472 H 137.289 3.53014 -3.4299 0
M  V30 1473 N 138.941 1.26152 0.944643 0
M  V30 1474 C 140.169 1.14259 1.72489 0
M  V30 1475 C 140.584 -0.302555 1.8636 0
M  V30 1476 O 139.941 -1.20741 1.36849 0
M  V30 1477 C 139.992 1.80266 3.13347 0
M  V30 1478 O 139.713 3.19133 3.00143 0
M  V30 1479 C 141.214 1.74283 4.07603 0
M  V30 1480 H 138.434 0.398051 0.540181 0
M  V30 1481 H 140.978 1.66706 1.18446 0
M  V30 1482 H 139.133 1.31766 3.64303 0
M  V30 1483 H 139.547 3.51744 3.89071 0
M  V30 1484 H 141.021 2.25111 5.04013 0
M  V30 1485 H 141.498 0.708631 4.33446 0
M  V30 1486 H 142.104 2.22319 3.62567 0
M  V30 1487 N 140.419 -1.14872 1.07899 0
M  V30 1488 C 141.666 -1.85789 0.805532 0
M  V30 1489 C 141.994 -1.82649 -0.668561 0
M  V30 1490 O 141.249 -1.24858 -1.50695 0
M  V30 1491 C 141.548 -3.34223 1.26609 0
M  V30 1492 C 141.214 -3.57555 2.74709 0
M  V30 1493 C 139.876 -3.63631 3.1516 0
M  V30 1494 C 142.228 -3.66803 3.70277 0
M  V30 1495 C 139.556 -3.76473 4.49983 0
M  V30 1496 C 141.908 -3.8117 5.04869 0
M  V30 1497 C 140.572 -3.85494 5.44932 0
M  V30 1498 H 139.842 -0.679849 0.294765 0
M  V30 1499 H 142.489 -1.3572 1.35101 0
M  V30 1500 H 140.794 -3.86536 0.640103 0
M  V30 1501 H 142.491 -3.87511 1.03132 0
M  V30 1502 H 139.081 -3.5347 2.42398 0
M  V30 1503 H 143.265 -3.61404 3.40149 0
M  V30 1504 H 138.521 -3.7808 4.80484 0
M  V30 1505 H 142.695 -3.87268 5.78789 0
M  V30 1506 H 140.322 -3.95197 6.49403 0
M  V30 1507 N 141.898 -0.863906 -1.31812 0
M  V30 1508 C 142.828 -0.330843 -2.31144 0
M  V30 1509 C 143.809 0.575005 -1.60087 0
M  V30 1510 O 144.994 0.493304 -1.8783 0
M  V30 1511 C 142.124 0.47374 -3.44054 0
M  V30 1512 C 141.078 -0.338481 -4.26659 0
M  V30 1513 C 140.404 0.591412 -5.31419 0
M  V30 1514 C 141.704 -1.56926 -4.98168 0
M  V30 1515 H 143.398 -1.16086 -2.75979 0
M  V30 1516 H 140.944 -0.559657 -1.32679 0
M  V30 1517 H 142.897 0.857143 -4.12591 0
M  V30 1518 H 141.621 1.33721 -2.9797 0
M  V30 1519 H 140.28 -0.703754 -3.59782 0
M  V30 1520 H 139.928 1.45199 -4.81587 0
M  V30 1521 H 139.628 0.0519022 -5.87577 0
M  V30 1522 H 141.152 0.97179 -6.02817 0
M  V30 1523 H 142.566 -1.25764 -5.59336 0
M  V30 1524 H 140.963 -2.04739 -5.64094 0
M  V30 1525 H 142.033 -2.32544 -4.25501 0
M  V30 1526 N 143.376 1.44774 -0.622745 0
M  V30 1527 C 144.324 2.32387 0.0994683 0
M  V30 1528 C 145.318 1.46859 0.844326 0
M  V30 1529 O 146.524 1.63254 0.758174 0
M  V30 1530 H 142.899 0.750273 0.0509291 0
M  V30 1531 H 144.87 2.91062 -0.65767 0
M  V30 1532 C 143.619 3.30723 1.07319 0
M  V30 1533 H 142.942 3.96541 0.509462 0
M  V30 1534 H 144.382 3.94725 1.54817 0
M  V30 1535 C 142.841 2.59021 2.15429 0
M  V30 1536 O 143.371 2.38286 3.23393 0
M  V30 1537 N 141.577 2.189 1.91131 0
M  V30 1538 H 141.124 2.35964 1.03337 0
M  V30 1539 H 141.082 1.71251 2.63668 0
M  V30 1540 N 144.854 0.36279 1.53368 0
M  V30 1541 C 146.102 -0.227326 2.00817 0
M  V30 1542 C 146.423 -1.49511 1.25186 0
M  V30 1543 O 145.693 -1.92482 0.364348 0
M  V30 1544 H 144.273 -0.0869923 0.741917 0
M  V30 1545 H 146.935 0.488381 1.88682 0
M  V30 1546 H 146.031 -0.456273 3.08747 0
M  V30 1547 N 146.332 -1.57332 0.0918853 0
M  V30 1548 C 147.242 -2.17368 -0.882505 0
M  V30 1549 C 148.258 -1.14226 -1.31257 0
M  V30 1550 O 149.434 -1.46582 -1.38115 0
M  V30 1551 C 146.499 -2.73962 -2.12476 0
M  V30 1552 C 145.56 -3.92048 -1.7492 0
M  V30 1553 C 144.793 -4.45933 -2.93223 0
M  V30 1554 O 145.016 -3.98764 -4.07852 0
M  V30 1555 O 143.95 -5.36999 -2.71875 0
M  V30 1556 H 147.776 -3.01031 -0.40172 0
M  V30 1557 H 145.361 -1.48813 -0.132291 0
M  V30 1558 H 147.243 -3.10147 -2.85283 0
M  V30 1559 H 145.918 -1.93347 -2.59613 0
M  V30 1560 H 144.825 -3.6068 -0.993025 0
M  V30 1561 H 146.158 -4.74017 -1.32548 0
M  V30 1562 N 147.81 0.181792 -1.56548 0
M  V30 1563 C 149.221 0.745244 -1.71181 0
M  V30 1564 C 149.572 1.83262 -0.70068 0
M  V30 1565 O 148.697 2.15946 0.140154 0
M  V30 1566 C 149.292 1.35859 -3.10367 0
M  V30 1567 C 147.851 1.86898 -3.2672 0
M  V30 1568 C 146.998 0.743942 -2.67134 0
M  V30 1569 H 149.949 -0.0434661 -1.5864 0
M  V30 1570 H 149.97 2.22817 -3.08436 0
M  V30 1571 H 149.482 0.566948 -3.83937 0
M  V30 1572 H 147.583 2.68738 -2.5809 0
M  V30 1573 H 147.696 2.02162 -4.34359 0
M  V30 1574 H 146.06 1.16169 -2.26665 0
M  V30 1575 H 146.843 -0.035676 -3.43281 0
M  V30 1576 N 149.288 1.51039 0.449983 0
M  V30 1577 C 150.513 1.6715 1.22783 0
M  V30 1578 C 150.938 0.363081 1.84563 0
M  V30 1579 O 150.296 -0.675433 1.68249 0
M  V30 1580 C 150.344 2.77985 2.29689 0
M  V30 1581 O 149.448 2.40707 3.34864 0
M  V30 1582 H 148.789 0.557746 0.360299 0
M  V30 1583 H 151.319 1.97535 0.533005 0
M  V30 1584 H 151.329 3.01693 2.74673 0
M  V30 1585 H 150.004 3.72935 1.84098 0
M  V30 1586 H 148.581 2.27523 2.95445 0
M  V30 1587 N 150.766 -0.704594 1.40972 0
M  V30 1588 C 152.006 -1.47691 1.41304 0
M  V30 1589 C 152.37 -1.91992 0.0178582 0
M  V30 1590 O 153.571 -2.68599 -0.103996 0
M  V30 1591 C 151.842 -2.66254 2.38419 0
M  V30 1592 S 153.401 -3.55516 2.57204 0
M  V30 1593 H 150.219 -0.504808 0.500689 0
M  V30 1594 H 152.821 -0.822962 1.77335 0
M  V30 1595 H 151.525 -2.31897 3.38603 0
M  V30 1596 H 151.056 -3.3655 2.03711 0
M  V30 1597 H 153.071 -4.61115 1.83268 0
M  V30 1598 N 152.244 -1.26651 -0.937939 0
M  V30 1599 C 153.174 -1.10993 -2.05433 0
M  V30 1600 C 154.155 -0.0142161 -1.70094 0
M  V30 1601 O 155.34 -0.186837 -1.93299 0
M  V30 1602 C 152.47 -0.745561 -3.39203 0
M  V30 1603 C 151.424 -1.79337 -3.88616 0
M  V30 1604 C 150.75 -1.28324 -5.19073 0
M  V30 1605 C 152.05 -3.19553 -4.13138 0
M  V30 1606 H 153.744 -2.0438 -2.1879 0
M  V30 1607 H 151.29 -0.984041 -1.05131 0
M  V30 1608 H 153.243 -0.622888 -4.16771 0
M  V30 1609 H 151.967 0.22401 -3.25831 0
M  V30 1610 H 150.626 -1.90477 -3.13231 0
M  V30 1611 H 150.274 -0.303414 -5.02084 0
M  V30 1612 H 149.974 -1.98369 -5.53103 0
M  V30 1613 H 151.498 -1.1733 -5.99221 0
M  V30 1614 H 152.912 -3.11471 -4.81309 0
M  V30 1615 H 151.309 -3.87218 -4.58457 0
M  V30 1616 H 152.379 -3.65368 -3.18801 0
M  V30 1617 N 153.722 1.14298 -1.08507 0
M  V30 1618 C 154.968 1.85633 -0.816581 0
M  V30 1619 C 155.301 1.82784 0.656021 0
M  V30 1620 O 154.576 1.25926 1.48233 0
M  V30 1621 C 154.859 3.34223 -1.34041 0
M  V30 1622 C 154.712 3.45639 -2.87843 0
M  V30 1623 C 156.031 4.29356 -0.9665 0
M  V30 1624 H 153.15 0.67402 -0.298104 0
M  V30 1625 H 155.792 1.34214 -1.34487 0
M  V30 1626 H 153.942 3.78144 -0.89104 0
M  V30 1627 H 155.614 3.10498 -3.41158 0
M  V30 1628 H 153.857 2.86817 -3.25451 0
M  V30 1629 H 154.528 4.50089 -3.19569 0
M  V30 1630 H 157.004 3.93457 -1.35391 0
M  V30 1631 H 155.88 5.3178 -1.3602 0
M  V30 1632 H 156.141 4.41919 0.126362 0
M  V30 1633 N 155.201 0.870884 1.31352 0
M  V30 1634 C 156.131 0.343096 2.30966 0
M  V30 1635 C 157.112 -0.566507 1.60389 0
M  V30 1636 O 158.297 -0.483336 1.88089 0
M  V30 1637 C 155.427 -0.455487 3.443 0
M  V30 1638 C 154.381 0.361103 4.26474 0
M  V30 1639 C 153.707 -0.563221 5.31725 0
M  V30 1640 C 155.007 1.59566 4.97329 0
M  V30 1641 H 156.701 1.17548 2.75359 0
M  V30 1642 H 154.247 0.566686 1.32381 0
M  V30 1643 H 156.2 -0.83525 4.13039 0
M  V30 1644 H 154.924 -1.32139 2.98675 0
M  V30 1645 H 153.583 0.722825 3.59403 0
M  V30 1646 H 153.231 -1.42643 4.82351 0
M  V30 1647 H 152.931 -0.0207409 5.87596 0
M  V30 1648 H 154.455 -0.939808 6.03324 0
M  V30 1649 H 155.869 1.28728 5.58661 0
M  V30 1650 H 154.266 2.07728 5.63 0
M  V30 1651 H 155.336 2.34798 4.24262 0
M  V30 1652 N 156.679 -1.44442 0.630414 0
M  V30 1653 C 157.927 -2.01653 0.134351 0
M  V30 1654 C 158.248 -1.49836 -1.24796 0
M  V30 1655 O 157.518 -0.701684 -1.82902 0
M  V30 1656 H 156.098 -0.74554 0.0466769 0
M  V30 1657 H 158.76 -1.76952 0.816955 0
M  V30 1658 H 157.856 -3.11935 0.101498 0
M  V30 1659 N 158.157 -0.370918 -1.53173 0
M  V30 1660 C 159.434 0.273754 -1.93675 0
M  V30 1661 C 159.814 1.65938 -1.3049 0
M  V30 1662 O 159.162 2.23698 -0.465999 0
M  V30 1663 C 159.372 0.318602 -3.47543 0
M  V30 1664 C 160.72 0.556392 -4.20939 0
M  V30 1665 O 161.744 0.399587 -3.53952 0
M  V30 1666 O 160.603 0.862133 -5.39657 0
M  V30 1667 H 157.697 0.165448 -0.810281 0
M  V30 1668 H 160.243 -0.42409 -1.64315 0
M  V30 1669 H 159.015 -0.652687 -3.85818 0
M  V30 1670 H 158.638 1.06212 -3.83151 0
M  V30 1671 N 159.635 1.57281 -0.100228 0
M  V30 1672 C 160.583 2.15542 0.874328 0
M  V30 1673 C 161.577 1.09962 1.28859 0
M  V30 1674 O 162.783 1.28298 1.26252 0
M  V30 1675 H 159.158 0.689567 0.300003 0
M  V30 1676 H 161.129 2.96241 0.35829 0
M  V30 1677 C 159.878 2.75454 2.1218 0
M  V30 1678 H 159.201 3.56384 1.81193 0
M  V30 1679 H 160.641 3.19781 2.78417 0
M  V30 1680 C 159.1 1.71602 2.89921 0
M  V30 1681 O 159.63 1.15804 3.84646 0
M  V30 1682 N 157.836 1.41975 2.53558 0
M  V30 1683 H 157.383 1.87539 1.76598 0
M  V30 1684 H 157.341 0.727274 3.05873 0
M  V30 1685 N 161.113 -0.173488 1.56642 0
M  V30 1686 C 162.362 -0.888758 1.81063 0
M  V30 1687 C 162.675 -1.83506 0.67712 0
M  V30 1688 O 163.881 -2.59254 0.806206 0
M  V30 1689 C 162.337 -1.63091 3.20826 0
M  V30 1690 C 161.945 -0.728357 4.4204 0
M  V30 1691 C 163.689 -2.33454 3.54541 0
M  V30 1692 C 161.596 -1.47062 5.72823 0
M  V30 1693 H 160.526 -0.335618 0.675186 0
M  V30 1694 H 163.177 -0.141712 1.82952 0
M  V30 1695 H 161.559 -2.42263 3.13248 0
M  V30 1696 H 162.733 0.0262449 4.60793 0
M  V30 1697 H 161.048 -0.134492 4.16183 0
M  V30 1698 H 163.645 -2.89578 4.49498 0
M  V30 1699 H 163.988 -3.08687 2.79317 0
M  V30 1700 H 164.521 -1.61227 3.63663 0
M  V30 1701 H 161.26 -0.760658 6.51072 0
M  V30 1702 H 160.78 -2.1986 5.58052 0
M  V30 1703 H 162.459 -2.01868 6.14702 0
M  V30 1704 N 162.591 -1.51276 -0.441967 0
M  V30 1705 C 163.838 -1.63715 -1.19179 0
M  V30 1706 C 164.166 -0.351175 -1.91303 0
M  V30 1707 O 163.421 0.664524 -1.84072 0
M  V30 1708 C 163.72 -2.78746 -2.23686 0
M  V30 1709 C 163.386 -4.18189 -1.68607 0
M  V30 1710 C 162.048 -4.56125 -1.53308 0
M  V30 1711 C 164.4 -5.05222 -1.28062 0
M  V30 1712 C 161.728 -5.78804 -0.959317 0
M  V30 1713 C 164.08 -6.28476 -0.721162 0
M  V30 1714 C 162.744 -6.65188 -0.55504 0
M  V30 1715 H 162.014 -0.599076 -0.436106 0
M  V30 1716 H 164.661 -1.85296 -0.48351 0
M  V30 1717 H 162.966 -2.51369 -3.00535 0
M  V30 1718 H 164.663 -2.8557 -2.81515 0
M  V30 1719 H 161.253 -3.88277 -1.8149 0
M  V30 1720 H 165.437 -4.76524 -1.38704 0
M  V30 1721 H 160.693 -6.05899 -0.81833 0
M  V30 1722 H 164.867 -6.95259 -0.398458 0
M  V30 1723 H 162.494 -7.60123 -0.108311 0
M  V30 1724 N 164.069 0.697108 -1.41344 0
M  V30 1725 C 165.316 1.45714 -1.40619 0
M  V30 1726 C 165.644 1.94494 -0.0147907 0
M  V30 1727 O 164.899 1.69794 0.973066 0
M  V30 1728 C 165.198 2.68553 -2.35826 0
M  V30 1729 C 164.864 2.38438 -3.82698 0
M  V30 1730 C 163.526 2.29936 -4.22709 0
M  V30 1731 C 165.878 2.13567 -4.75435 0
M  V30 1732 C 163.206 1.94656 -5.53467 0
M  V30 1733 C 165.558 1.79797 -6.06511 0
M  V30 1734 C 164.222 1.69789 -6.45545 0
M  V30 1735 H 163.492 0.533206 -0.51456 0
M  V30 1736 H 166.139 0.796901 -1.74131 0
M  V30 1737 H 164.444 3.39503 -1.95563 0
M  V30 1738 H 166.141 3.2669 -2.32539 0
M  V30 1739 H 162.731 2.4595 -3.51008 0
M  V30 1740 H 166.915 2.19082 -4.45328 0
M  V30 1741 H 162.171 1.8546 -5.82593 0
M  V30 1742 H 166.345 1.59572 -6.77872 0
M  V30 1743 H 163.972 1.4222 -7.46778 0
M  V30 1744 N 165.547 1.27147 0.931209 0
M  V30 1745 C 166.795 1.13055 1.6752 0
M  V30 1746 C 167.116 -0.324791 1.92276 0
M  V30 1747 O 166.386 -1.22775 1.52654 0
M  V30 1748 H 164.966 0.415391 0.620854 0
M  V30 1749 H 167.628 1.59623 1.11833 0
M  V30 1750 H 166.724 1.65694 2.64485 0
M  V30 1751 N 167.025 -1.13721 1.09112 0
M  V30 1752 C 167.957 -2.1871 0.685467 0
M  V30 1753 C 168.97 -1.60527 -0.271068 0
M  V30 1754 O 170.159 -1.78407 -0.0576148 0
M  V30 1755 C 167.259 -3.38898 -0.0111255 0
M  V30 1756 C 166.432 -4.26597 0.966131 0
M  V30 1757 C 165.491 -5.25324 0.303539 0
M  V30 1758 O 164.517 -5.61213 0.950177 0
M  V30 1759 N 165.719 -5.72779 -0.943651 0
M  V30 1760 H 168.484 -2.54126 1.58871 0
M  V30 1761 H 166.045 -1.29012 0.978143 0
M  V30 1762 H 168.037 -4.02014 -0.465517 0
M  V30 1763 H 166.607 -3.01747 -0.816565 0
M  V30 1764 H 165.827 -3.60306 1.59917 0
M  V30 1765 H 167.115 -4.82048 1.6281 0
M  V30 1766 H 166.513 -5.45762 -1.48862 0
M  V30 1767 H 165.07 -6.37847 -1.34142 0
M  V30 1768 N 168.503 -0.877838 -1.30888 0
M  V30 1769 C 169.751 -0.491723 -1.96027 0
M  V30 1770 C 170.072 0.960827 -1.69685 0
M  V30 1771 O 169.342 1.67462 -1.01654 0
M  V30 1772 H 167.922 -0.17885 -0.725273 0
M  V30 1773 H 170.584 -1.11935 -1.59551 0
M  V30 1774 H 169.68 -0.656016 -3.05128 0
M  V30 1775 N 169.982 1.44106 -0.638065 0
M  V30 1776 C 171.229 2.01978 -0.14533 0
M  V30 1777 C 171.557 1.50234 1.23532 0
M  V30 1778 O 170.812 0.679548 1.83523 0
M  V30 1779 C 171.111 3.5729 -0.0887327 0
M  V30 1780 C 170.777 4.28317 -1.40909 0
M  V30 1781 C 169.439 4.47437 -1.77069 0
M  V30 1782 C 171.791 4.6867 -2.28031 0
M  V30 1783 C 169.119 5.04171 -3.00047 0
M  V30 1784 C 171.471 5.26766 -3.50286 0
M  V30 1785 C 170.135 5.44104 -3.86661 0
M  V30 1786 H 169.405 0.739089 -0.0531801 0
M  V30 1787 H 172.052 1.72781 -0.825761 0
M  V30 1788 H 170.357 3.8594 0.675095 0
M  V30 1789 H 172.054 3.99807 0.309145 0
M  V30 1790 H 168.644 4.1377 -1.1177 0
M  V30 1791 H 172.828 4.53604 -2.01388 0
M  V30 1792 H 168.084 5.15782 -3.28298 0
M  V30 1793 H 172.258 5.56983 -4.18023 0
M  V30 1794 H 169.885 5.87832 -4.82034 0
M  V30 1795 N 171.46 0.379036 1.52974 0
M  V30 1796 C 172.685 -0.209353 2.06341 0
M  V30 1797 C 173.11 -1.40583 1.24972 0
M  V30 1798 O 172.468 -1.79246 0.272155 0
M  V30 1799 C 172.516 -0.567786 3.56102 0
M  V30 1800 O 171.62 -1.66318 3.77375 0
M  V30 1801 H 170.961 -0.0272919 0.663439 0
M  V30 1802 H 173.491 0.543536 1.97248 0
M  V30 1803 H 173.501 -0.835003 3.99364 0
M  V30 1804 H 172.176 0.307013 4.14765 0
M  V30 1805 H 170.753 -1.39048 3.46006 0
M  V30 1806 N 172.938 -1.57226 0.108567 0
M  V30 1807 C 174.349 -1.8195 -0.418464 0
M  V30 1808 C 174.7 -1.02508 -1.67292 0
M  V30 1809 O 173.825 -0.258496 -2.14851 0
M  V30 1810 C 174.42 -3.30028 -0.765979 0
M  V30 1811 C 172.979 -3.55469 -1.23769 0
M  V30 1812 C 172.126 -2.7625 -0.241106 0
M  V30 1813 H 175.077 -1.55149 0.33384 0
M  V30 1814 H 175.098 -3.44086 -1.62434 0
M  V30 1815 H 174.61 -3.87821 0.147219 0
M  V30 1816 H 172.711 -3.03022 -2.16814 0
M  V30 1817 H 172.824 -4.6408 -1.19022 0
M  V30 1818 H 171.188 -2.44133 -0.72602 0
M  V30 1819 H 171.971 -3.36797 0.665007 0
M  V30 1820 N 174.416 0.165178 -1.56732 0
M  V30 1821 C 175.363 1.2044 -1.96883 0
M  V30 1822 C 176.333 1.43664 -0.833657 0
M  V30 1823 O 177.518 1.56302 -1.09427 0
M  V30 1824 C 174.658 2.53727 -2.33916 0
M  V30 1825 C 173.771 2.3783 -3.6064 0
M  V30 1826 C 172.906 3.64026 -3.86857 0
M  V30 1827 C 171.945 3.43088 -5.06909 0
M  V30 1828 N 171.082 4.61369 -5.29229 0
M  V30 1829 H 175.922 0.854996 -2.85471 0
M  V30 1830 H 173.459 0.41076 -1.41249 0
M  V30 1831 H 175.417 3.31419 -2.53411 0
M  V30 1832 H 174.047 2.8665 -1.48431 0
M  V30 1833 H 173.099 1.51282 -3.49024 0
M  V30 1834 H 174.411 2.18308 -4.4849 0
M  V30 1835 H 173.565 4.50152 -4.06753 0
M  V30 1836 H 172.304 3.86533 -2.97394 0
M  V30 1837 H 171.309 2.55349 -4.86906 0
M  V30 1838 H 172.534 3.21997 -5.97909 0
M  V30 1839 H 170.48 4.84084 -4.42718 0
M  V30 1840 H 170.397 4.44783 -6.11313 0
M  V30 1841 H 171.665 5.48761 -5.53608 0
M  V30 1842 N 175.894 1.51508 0.433938 0
M  V30 1843 C 176.824 1.76016 1.53429 0
M  V30 1844 C 177.805 0.610112 1.58782 0
M  V30 1845 O 178.99 0.853177 1.74455 0
M  V30 1846 C 176.12 1.88831 2.9148 0
M  V30 1847 C 175.074 3.04288 3.00987 0
M  V30 1848 C 174.4 3.0229 4.4105 0
M  V30 1849 C 175.7 4.44193 2.74754 0
M  V30 1850 H 177.394 2.68152 1.33171 0
M  V30 1851 H 174.94 1.29035 0.639214 0
M  V30 1852 H 176.893 2.04559 3.6842 0
M  V30 1853 H 175.617 0.933455 3.12976 0
M  V30 1854 H 174.276 2.8827 2.26486 0
M  V30 1855 H 173.924 2.04576 4.59519 0
M  V30 1856 H 173.624 3.79822 4.4834 0
M  V30 1857 H 175.148 3.20116 5.1996 0
M  V30 1858 H 176.562 4.60544 3.41426 0
M  V30 1859 H 174.959 5.23457 2.9345 0
M  V30 1860 H 176.029 4.53996 1.70339 0
M  V30 1861 N 177.372 -0.689602 1.41712 0
M  V30 1862 C 178.788 -1.00093 1.24312 0
M  V30 1863 C 178.988 -2.01036 0.136729 0
M  V30 1864 O 178.044 -2.47562 -0.496918 0
M  V30 1865 C 179.357 -1.51985 2.59463 0
M  V30 1866 C 180.905 -1.63838 2.66695 0
M  V30 1867 C 181.38 -2.1913 4.02177 0
M  V30 1868 N 182.871 -2.26483 4.04054 0
M  V30 1869 C 183.606 -2.70306 5.0569 0
M  V30 1870 N 183.102 -3.13691 6.17713 0
M  V30 1871 N 184.895 -2.69923 4.9305 0
M  V30 1872 H 177.046 -0.0210029 2.1239 0
M  V30 1873 H 179.309 -0.0718733 0.945272 0
M  V30 1874 H 179.015 -0.85269 3.41207 0
M  V30 1875 H 178.889 -2.50103 2.82362 0
M  V30 1876 H 181.276 -2.29664 1.85306 0
M  V30 1877 H 181.357 -0.642492 2.476 0
M  V30 1878 H 181.001 -1.53918 4.84016 0
M  V30 1879 H 180.931 -3.19482 4.18615 0
M  V30 1880 H 183.422 -1.95874 3.23174 0
M  V30 1881 H 183.735 -3.45773 6.9113 0
M  V30 1882 H 182.08 -3.11585 6.21241 0
M  V30 1883 H 185.271 -2.35382 4.04614 0
M  V30 1884 H 185.444 -3.03758 5.72394 0
M  V30 1885 N 178.85 -1.27639 -0.924453 0
M  V30 1886 C 179.8 -1.07295 -2.01176 0
M  V30 1887 C 180.784 5.77352e-05 -1.609 0
M  V30 1888 O 181.976 -0.218855 -1.75642 0
M  V30 1889 C 179.105 -0.725592 -3.35544 0
M  V30 1890 C 178.191 -1.83691 -3.82254 0
M  V30 1891 N 178.582 -3.07697 -4.01443 0
M  V30 1892 C 176.88 -1.72433 -4.11319 0
M  V30 1893 C 177.581 -3.80037 -4.40394 0
M  V30 1894 N 176.557 -3.0782 -4.48049 0
M  V30 1895 H 180.359 -2.01399 -2.14046 0
M  V30 1896 H 177.873 -1.18401 -1.11153 0
M  V30 1897 H 179.87 -0.560959 -4.13109 0
M  V30 1898 H 178.53 0.207782 -3.24034 0
M  V30 1899 H 179.541 -3.43424 -3.8766 0
M  V30 1900 H 176.218 -0.862005 -4.08504 0
M  V30 1901 H 177.608 -4.86632 -4.63291 0
M  V30 1902 N 180.328 1.1314 -1.09713 0
M  V30 1903 C 181.574 1.84757 -0.836224 0
M  V30 1904 C 181.907 1.8347 0.636598 0
M  V30 1905 O 181.182 1.27491 1.46889 0
M  V30 1906 C 181.465 3.32782 -1.37578 0
M  V30 1907 C 181.318 3.42567 -2.91493 0
M  V30 1908 C 182.637 4.28307 -1.01198 0
M  V30 1909 H 179.756 0.67082 -0.305236 0
M  V30 1910 H 182.398 1.3278 -1.35903 0
M  V30 1911 H 180.548 3.77177 -0.931097 0
M  V30 1912 H 182.22 3.06862 -3.44432 0
M  V30 1913 H 180.463 2.83349 -3.28475 0
M  V30 1914 H 181.134 4.46674 -3.24324 0
M  V30 1915 H 183.61 3.91999 -1.39556 0
M  V30 1916 H 182.486 5.30307 -1.41653 0
M  V30 1917 H 182.747 4.42029 0.0794833 0
M  V30 1918 N 181.806 0.884767 1.30421 0
M  V30 1919 C 182.769 0.356277 2.26414 0
M  V30 1920 C 183.769 -0.501124 1.52792 0
M  V30 1921 O 184.959 -0.30831 1.7145 0
M  V30 1922 C 182.091 -0.492316 3.37326 0
M  V30 1923 H 183.284 1.20389 2.74675 0
M  V30 1924 H 180.837 0.661607 1.41607 0
M  V30 1925 H 181.572 -1.36052 2.94381 0
M  V30 1926 H 181.357 0.121832 3.91911 0
M  V30 1927 H 182.847 -0.853871 4.08777 0
M  V30 1928 N 183.284 -1.43765 0.645699 0
M  V30 1929 C 184.247 -2.29163 -0.0409488 0
M  V30 1930 C 185.247 -1.41813 -0.757996 0
M  V30 1931 O 186.437 -1.63527 -0.600382 0
M  V30 1932 C 183.569 -3.23716 -1.06869 0
M  V30 1933 H 184.762 -2.91366 0.710345 0
M  V30 1934 H 182.315 -1.5092 0.406547 0
M  V30 1935 H 183.05 -2.66393 -1.84947 0
M  V30 1936 H 182.835 -3.88105 -0.558277 0
M  V30 1937 H 184.325 -3.87831 -1.54845 0
M  V30 1938 N 184.763 -0.387143 -1.52771 0
M  V30 1939 C 186.179 -0.037007 -1.59557 0
M  V30 1940 C 186.379 1.44801 -1.40124 0
M  V30 1941 O 185.435 2.21227 -1.21716 0
M  V30 1942 C 186.748 -0.512256 -2.96305 0
M  V30 1943 C 188.296 -0.468328 -3.09476 0
M  V30 1944 C 188.771 -0.919731 -4.4867 0
M  V30 1945 N 190.262 -0.875656 -4.54848 0
M  V30 1946 C 190.997 -1.19637 -5.6078 0
M  V30 1947 N 190.493 -1.58745 -6.74368 0
M  V30 1948 N 192.286 -1.11776 -5.50874 0
M  V30 1949 H 184.437 -1.35395 -1.63652 0
M  V30 1950 H 186.7 -0.554818 -0.768688 0
M  V30 1951 H 186.406 -1.54935 -3.15734 0
M  V30 1952 H 186.28 0.089805 -3.77093 0
M  V30 1953 H 188.667 0.559671 -2.89744 0
M  V30 1954 H 188.748 -1.10616 -2.30646 0
M  V30 1955 H 188.392 -1.94595 -4.69143 0
M  V30 1956 H 188.322 -0.258927 -5.25963 0
M  V30 1957 H 190.813 -0.587843 -3.733 0
M  V30 1958 H 191.126 -1.81586 -7.51163 0
M  V30 1959 H 189.471 -1.6263 -6.75705 0
M  V30 1960 H 192.662 -0.811264 -4.61016 0
M  V30 1961 H 192.835 -1.37103 -6.3333 0
M  V30 1962 N 186.241 1.57166 -0.116904 0
M  V30 1963 C 187.469 1.99473 0.549383 0
M  V30 1964 C 187.884 0.996541 1.60357 0
M  V30 1965 O 187.241 -0.0108731 1.82497 0
M  V30 1966 C 187.292 3.41788 1.17741 0
M  V30 1967 O 187.013 4.37788 0.165362 0
M  V30 1968 C 188.514 3.99216 1.92722 0
M  V30 1969 H 185.734 0.655009 0.145616 0
M  V30 1970 H 188.278 2.03494 -0.202625 0
M  V30 1971 H 186.433 3.38713 1.88021 0
M  V30 1972 H 186.847 5.20806 0.621403 0
M  V30 1973 H 188.321 5.00882 2.31995 0
M  V30 1974 H 188.798 3.3824 2.80161 0
M  V30 1975 H 189.404 4.0583 1.27209 0
M  V30 1976 N 187.719 -0.156864 1.56817 0
M  V30 1977 C 188.629 -1.2136 2.00771 0
M  V30 1978 C 189.645 -1.47598 0.921459 0
M  V30 1979 O 190.821 -1.59462 1.2302 0
M  V30 1980 C 187.886 -2.52943 2.37109 0
M  V30 1981 C 186.947 -2.34439 3.59634 0
M  V30 1982 C 186.18 -3.59748 3.94229 0
M  V30 1983 O 186.403 -4.65526 3.29609 0
M  V30 1984 O 185.337 -3.52998 4.8752 0
M  V30 1985 H 189.163 -0.870468 2.90958 0
M  V30 1986 H 186.748 -0.36484 1.44877 0
M  V30 1987 H 188.63 -3.30538 2.61386 0
M  V30 1988 H 187.305 -2.86806 1.5008 0
M  V30 1989 H 186.212 -1.54828 3.40557 0
M  V30 1990 H 187.545 -2.05496 4.4725 0
M  V30 1991 N 189.197 -1.51736 -0.425897 0
M  V30 1992 C 190.445 -1.64644 -1.17204 0
M  V30 1993 C 190.766 -0.370486 -1.91448 0
M  V30 1994 O 190.036 0.614088 -1.86026 0
M  V30 1995 H 188.616 -0.606819 -0.435638 0
M  V30 1996 H 191.278 -1.88713 -0.487177 0
M  V30 1997 H 190.374 -2.47958 -1.89534 0
M  V30 1998 N 190.675 0.682077 -1.42076 0
M  V30 1999 C 191.638 1.77756 -1.44691 0
M  V30 2000 C 192.638 1.5726 -0.335535 0
M  V30 2001 O 193.828 1.63686 -0.596037 0
M  V30 2002 C 190.96 3.16301 -1.27146 0
M  V30 2003 H 192.153 1.76826 -2.42224 0
M  V30 2004 H 189.706 0.891012 -1.28416 0
M  V30 2005 H 190.441 3.22862 -0.305075 0
M  V30 2006 H 190.226 3.32581 -2.07683 0
M  V30 2007 H 191.716 3.96241 -1.31843 0
M  V30 2008 N 192.153 1.28127 0.917671 0
M  V30 2009 C 193.381 1.17892 1.70026 0
M  V30 2010 C 193.796 -0.262958 1.8696 0
M  V30 2011 O 193.153 -1.17811 1.3938 0
M  V30 2012 C 193.204 1.86872 3.09453 0
M  V30 2013 O 192.925 3.25428 2.93306 0
M  V30 2014 C 194.426 1.8289 4.03815 0
M  V30 2015 H 191.646 0.40942 0.531617 0
M  V30 2016 H 194.19 1.69181 1.14883 0
M  V30 2017 H 192.345 1.39464 3.61426 0
M  V30 2018 H 192.759 3.59918 3.81523 0
M  V30 2019 H 194.233 2.35751 4.99125 0
M  V30 2020 H 194.71 0.800412 4.31845 0
M  V30 2021 H 195.316 2.29959 3.57769 0
M  V30 2022 N 193.631 -1.12557 1.10312 0
M  V30 2023 C 194.877 -1.84311 0.846011 0
M  V30 2024 C 195.21 -1.83805 -0.626859 0
M  V30 2025 O 194.485 -1.28268 -1.46211 0
M  V30 2026 C 194.768 -3.32048 1.39341 0
M  V30 2027 C 194.621 -3.41016 2.93305 0
M  V30 2028 C 195.94 -4.27764 1.03468 0
M  V30 2029 H 193.059 -0.669192 0.30879 0
M  V30 2030 H 195.701 -1.32057 1.36605 0
M  V30 2031 H 193.851 -3.76678 0.951087 0
M  V30 2032 H 195.523 -3.05031 3.46055 0
M  V30 2033 H 193.766 -2.81603 3.29973 0
M  V30 2034 H 194.437 -4.44948 3.26689 0
M  V30 2035 H 196.913 -3.91253 1.41633 0
M  V30 2036 H 195.789 -5.29549 1.44463 0
M  V30 2037 H 196.05 -4.42064 -0.0560404 0
M  V30 2038 N 195.109 -0.891671 -1.2995 0
M  V30 2039 C 196.356 -0.513501 -1.95881 0
M  V30 2040 C 196.684 0.938655 -1.70351 0
M  V30 2041 O 195.939 1.67936 -1.00478 0
M  V30 2042 C 196.238 -0.742868 -3.49594 0
M  V30 2043 C 195.904 -2.17114 -3.95186 0
M  V30 2044 C 194.566 -2.56169 -4.07346 0
M  V30 2045 C 196.918 -3.10162 -4.18866 0
M  V30 2046 C 194.246 -3.87469 -4.4055 0
M  V30 2047 C 196.598 -4.41001 -4.53542 0
M  V30 2048 C 195.262 -4.79941 -4.63911 0
M  V30 2049 H 194.532 -0.187903 -0.71678 0
M  V30 2050 H 197.179 -1.1288 -1.54694 0
M  V30 2051 H 195.484 -0.044586 -3.91775 0
M  V30 2052 H 197.181 -0.429767 -3.9869 0
M  V30 2053 H 193.771 -1.85801 -3.86233 0
M  V30 2054 H 197.955 -2.81206 -4.08946 0
M  V30 2055 H 193.211 -4.17371 -4.46779 0
M  V30 2056 H 197.385 -5.13133 -4.70815 0
M  V30 2057 H 195.012 -5.81719 -4.89395 0
M  V30 2058 N 196.587 1.43421 -0.653314 0
M  V30 2059 C 197.835 2.01414 -0.166415 0
M  V30 2060 C 198.156 1.51803 1.22397 0
M  V30 2061 O 197.426 0.730693 1.81763 0
M  V30 2062 H 196.006 0.744703 -0.0585319 0
M  V30 2063 H 198.668 1.75629 -0.845003 0
M  V30 2064 H 197.764 3.11734 -0.151111 0
M  V30 2065 N 198.065 0.39524 1.52563 0
M  V30 2066 C 199.295 -0.184675 2.05773 0
M  V30 2067 C 199.703 -1.40571 1.26635 0
M  V30 2068 O 199.046 -1.81105 0.30769 0
M  V30 2069 C 199.108 -0.613551 3.54226 0
M  V30 2070 C 198.772 0.49484 4.54313 0
M  V30 2071 C 199.769 1.3541 5.01956 0
M  V30 2072 C 197.454 0.663565 4.97898 0
M  V30 2073 C 199.448 2.36716 5.91814 0
M  V30 2074 C 197.135 1.67996 5.87555 0
M  V30 2075 C 198.133 2.53017 6.34406 0
M  V30 2076 O 197.821 3.52917 7.22291 0
M  V30 2077 H 197.553 -0.030077 0.675331 0
M  V30 2078 H 200.107 0.560708 1.97599 0
M  V30 2079 H 198.337 -1.411 3.60038 0
M  V30 2080 H 200.026 -1.11981 3.90148 0
M  V30 2081 H 200.792 1.23509 4.6901 0
M  V30 2082 H 196.671 0.0114913 4.60999 0
M  V30 2083 H 200.215 3.03113 6.28306 0
M  V30 2084 H 196.112 1.79933 6.19915 0
M  V30 2085 H 196.88 3.48996 7.40367 0
M  V30 2086 N 199.544 -1.57102 0.125237 0
M  V30 2087 C 200.476 -2.12726 -0.853237 0
M  V30 2088 C 201.489 -1.07145 -1.22571 0
M  V30 2089 O 202.678 -1.34497 -1.17358 0
M  V30 2090 C 199.778 -2.61709 -2.15317 0
M  V30 2091 C 198.951 -3.91456 -1.95143 0
M  V30 2092 C 198.01 -4.25973 -3.08923 0
M  V30 2093 O 197.036 -4.94682 -2.81564 0
M  V30 2094 N 198.238 -3.83795 -4.35524 0
M  V30 2095 H 201.003 -2.97307 -0.377964 0
M  V30 2096 H 198.564 -1.61792 -0.0590011 0
M  V30 2097 H 200.556 -2.81826 -2.90441 0
M  V30 2098 H 199.126 -1.81974 -2.54174 0
M  V30 2099 H 198.346 -3.80185 -1.04177 0
M  V30 2100 H 199.634 -4.76283 -1.78976 0
M  V30 2101 H 199.032 -3.2839 -4.60626 0
M  V30 2102 H 197.589 -4.09008 -5.07499 0
M  V30 2103 N 201.022 0.148545 -1.56898 0
M  V30 2104 C 202.268 0.862694 -1.83536 0
M  V30 2105 C 202.601 1.80889 -0.706604 0
M  V30 2106 O 201.876 1.92328 0.289885 0
M  V30 2107 C 202.159 1.63853 -3.20662 0
M  V30 2108 C 202.012 0.713925 -4.44098 0
M  V30 2109 C 203.331 2.60133 -3.54991 0
M  V30 2110 H 200.45 0.312179 -0.667618 0
M  V30 2111 H 203.092 0.127953 -1.89569 0
M  V30 2112 H 201.242 2.26489 -3.1565 0
M  V30 2113 H 202.914 0.098686 -4.61194 0
M  V30 2114 H 201.157 0.0234019 -4.33794 0
M  V30 2115 H 201.828 1.29278 -5.36648 0
M  V30 2116 H 204.304 2.07616 -3.60603 0
M  V30 2117 H 203.18 3.11468 -4.51972 0
M  V30 2118 H 203.441 3.41417 -2.80868 0
M  V30 2119 N 202.5 1.5196 0.417844 0
M  V30 2120 C 203.433 1.69387 1.52916 0
M  V30 2121 C 204.411 0.541419 1.53321 0
M  V30 2122 O 205.595 0.767695 1.72159 0
M  V30 2123 C 202.722 1.72525 2.91467 0
M  V30 2124 C 201.768 2.93967 3.09008 0
M  V30 2125 S 202.601 4.54461 2.83242 0
M  V30 2126 C 203.757 4.60372 4.24038 0
M  V30 2127 H 203.99 2.63382 1.37903 0
M  V30 2128 H 201.523 1.41889 0.608845 0
M  V30 2129 H 203.481 1.75018 3.7132 0
M  V30 2130 H 202.142 0.796733 3.03827 0
M  V30 2131 H 201.335 2.92619 4.10353 0
M  V30 2132 H 200.937 2.89316 2.37007 0
M  V30 2133 H 203.229 4.37213 5.17544 0
M  V30 2134 H 204.172 5.62273 4.30412 0
M  V30 2135 H 204.58 3.89492 4.08602 0
M  V30 2136 N 203.978 -0.674533 1.42435 0
M  V30 2137 C 205.255 -1.4305 1.33402 0
M  V30 2138 C 205.635 -2.11081 -0.0284674 0
M  V30 2139 O 204.983 -2.03257 -1.04397 0
M  V30 2140 C 205.193 -2.43272 2.50239 0
M  V30 2141 C 206.541 -3.07907 2.92367 0
M  V30 2142 O 207.565 -2.53599 2.50132 0
M  V30 2143 O 206.424 -4.0632 3.65467 0
M  V30 2144 H 203.518 -0.638076 0.526106 0
M  V30 2145 H 206.064 -0.703235 1.54443 0
M  V30 2146 H 204.836 -1.91803 3.41068 0
M  V30 2147 H 204.459 -3.23479 2.31186 0
M  V30 2148 N 205.456 -1.28612 -0.910864 0
M  V30 2149 C 206.867 -1.14406 -1.47541 0
M  V30 2150 C 207.218 0.264901 -1.94403 0
M  V30 2151 O 206.343 1.15942 -1.82719 0
M  V30 2152 C 206.938 -2.07073 -2.68153 0
M  V30 2153 C 205.497 -1.96923 -3.20778 0
M  V30 2154 C 204.644 -1.98646 -1.93481 0
M  V30 2155 H 207.595 -1.41259 -0.723291 0
M  V30 2156 H 207.616 -1.63642 -3.43514 0
M  V30 2157 H 207.128 -3.09611 -2.34015 0
M  V30 2158 H 205.229 -0.97433 -3.59635 0
M  V30 2159 H 205.342 -2.84026 -3.85832 0
M  V30 2160 H 203.706 -1.43093 -2.10705 0
M  V30 2161 H 204.489 -3.02868 -1.61634 0
M  V30 2162 N 206.934 1.1197 -1.10907 0
M  V30 2163 C 207.844 2.21433 -0.774896 0
M  V30 2164 C 208.86 1.72478 0.229657 0
M  V30 2165 O 210.036 2.01288 0.0672008 0
M  V30 2166 C 207.101 3.4602 -0.216986 0
M  V30 2167 C 206.162 4.09791 -1.27944 0
M  V30 2168 C 205.395 5.28431 -0.748055 0
M  V30 2169 O 205.618 5.68823 0.423833 0
M  V30 2170 O 204.552 5.82644 -1.51027 0
M  V30 2171 H 208.378 2.5242 -1.68873 0
M  V30 2172 H 205.963 1.20399 -0.884555 0
M  V30 2173 H 207.845 4.21304 0.090059 0
M  V30 2174 H 206.52 3.16698 0.669633 0
M  V30 2175 H 205.427 3.36265 -1.63941 0
M  V30 2176 H 206.76 4.4328 -2.13925 0
M  V30 2177 N 208.412 0.89855 1.29475 0
M  V30 2178 C 209.828 0.594483 1.48115 0
M  V30 2179 C 210.028 -0.86431 1.82022 0
M  V30 2180 O 209.084 -1.64457 1.91599 0
M  V30 2181 C 210.397 1.51932 2.59494 0
M  V30 2182 C 211.945 1.5244 2.7337 0
M  V30 2183 C 212.42 2.43548 3.87877 0
M  V30 2184 N 213.911 2.41589 3.95208 0
M  V30 2185 C 214.646 3.08789 4.83153 0
M  V30 2186 N 214.142 3.85265 5.75798 0
M  V30 2187 N 215.935 2.97952 4.76635 0
M  V30 2188 H 208.086 1.84207 1.05742 0
M  V30 2189 H 210.349 0.789251 0.525154 0
M  V30 2190 H 210.055 2.55865 2.41301 0
M  V30 2191 H 209.929 1.23899 3.56271 0
M  V30 2192 H 212.316 0.492518 2.90961 0
M  V30 2193 H 212.397 1.8451 1.77172 0
M  V30 2194 H 212.041 3.46829 3.71041 0
M  V30 2195 H 211.971 2.08788 4.83441 0
M  V30 2196 H 214.462 1.86025 3.28943 0
M  V30 2197 H 214.775 4.33598 6.39697 0
M  V30 2198 H 213.12 3.89371 5.75687 0
M  V30 2199 H 216.311 2.37723 4.03244 0
M  V30 2200 H 216.484 3.50599 5.44962 0
M  V30 2201 N 209.89 -1.43072 0.660911 0
M  V30 2202 C 211.137 -2.01721 0.177445 0
M  V30 2203 C 211.465 -1.5218 -1.21126 0
M  V30 2204 O 210.72 -0.708659 -1.82419 0
M  V30 2205 C 211.019 -3.57103 0.145563 0
M  V30 2206 C 210.685 -4.26021 1.47705 0
M  V30 2207 C 209.347 -4.44563 1.84165 0
M  V30 2208 C 211.699 -4.64983 2.35458 0
M  V30 2209 C 209.027 -4.99334 3.0803 0
M  V30 2210 C 211.379 -5.21127 3.58622 0
M  V30 2211 C 210.043 -5.37884 3.95268 0
M  V30 2212 H 209.313 -0.73815 0.0649317 0
M  V30 2213 H 211.96 -1.71446 0.853144 0
M  V30 2214 H 210.265 -3.86965 -0.61361 0
M  V30 2215 H 211.962 -4.00248 -0.2455 0
M  V30 2216 H 208.552 -4.11939 1.18339 0
M  V30 2217 H 212.736 -4.50343 2.08579 0
M  V30 2218 H 207.992 -5.10493 3.36462 0
M  V30 2219 H 212.166 -5.50262 4.26831 0
M  V30 2220 H 209.793 -5.80089 4.91325 0
M  V30 2221 N 211.368 -0.403325 -1.52352 0
M  V30 2222 C 212.616 0.174003 -2.0135 0
M  V30 2223 C 212.937 1.46139 -1.29106 0
M  V30 2224 O 212.207 1.91448 -0.415253 0
M  V30 2225 H 210.787 0.0672911 -0.743963 0
M  V30 2226 H 213.449 -0.538235 -1.87321 0
M  V30 2227 H 212.545 0.374254 -3.09848 0
M  V30 2228 N 212.846 1.57033 -0.133567 0
M  V30 2229 C 214.092 1.95976 0.521649 0
M  V30 2230 C 214.425 1.01779 1.65393 0
M  V30 2231 O 213.7 0.0576581 1.94415 0
M  V30 2232 C 213.983 3.44738 1.04057 0
M  V30 2233 C 213.836 4.49711 -0.0892897 0
M  V30 2234 C 215.155 3.95682 1.92675 0
M  V30 2235 H 212.274 0.712579 0.188149 0
M  V30 2236 H 214.916 1.88813 -0.212076 0
M  V30 2237 H 213.066 3.50973 1.66583 0
M  V30 2238 H 214.738 4.55565 -0.725152 0
M  V30 2239 H 212.981 4.27261 -0.750378 0
M  V30 2240 H 213.652 5.51099 0.315284 0
M  V30 2241 H 216.128 3.91841 1.39998 0
M  V30 2242 H 215.004 5.00262 2.25897 0
M  V30 2243 H 215.265 3.37239 2.85872 0
M  V30 2244 N 214.325 -0.140222 1.56975 0
M  V30 2245 C 215.571 -0.852949 1.83991 0
M  V30 2246 C 215.904 -1.80512 0.716187 0
M  V30 2247 O 215.179 -1.92479 -0.279681 0
M  V30 2248 C 215.462 -1.6215 3.21527 0
M  V30 2249 C 215.315 -0.690363 4.4447 0
M  V30 2250 C 216.634 -2.58247 3.56366 0
M  V30 2251 H 213.753 -0.308634 0.669264 0
M  V30 2252 H 216.395 -0.117898 1.89634 0
M  V30 2253 H 214.545 -2.24812 3.16847 0
M  V30 2254 H 216.217 -0.0742264 4.6124 0
M  V30 2255 H 214.46 -0.000396433 4.338 0
M  V30 2256 H 215.131 -1.2643 5.37326 0
M  V30 2257 H 217.607 -2.05701 3.61699 0
M  V30 2258 H 216.483 -3.09067 4.53617 0
M  V30 2259 H 216.744 -3.39923 2.82674 0
M  V30 2260 N 215.803 -1.52179 -0.40978 0
M  V30 2261 C 216.713 -1.78364 -1.52392 0
M  V30 2262 C 217.729 -0.669183 -1.60617 0
M  V30 2263 O 218.905 -0.954518 -1.77344 0
M  V30 2264 C 215.97 -1.92822 -2.88133 0
M  V30 2265 C 215.031 -3.16725 -2.898 0
M  V30 2266 C 214.264 -3.30483 -4.19067 0
M  V30 2267 O 214.487 -2.49522 -5.12928 0
M  V30 2268 O 213.421 -4.2363 -4.27576 0
M  V30 2269 H 217.247 -2.72931 -1.33201 0
M  V30 2270 H 214.832 -1.37016 -0.59557 0
M  V30 2271 H 216.714 -2.04157 -3.68643 0
M  V30 2272 H 215.389 -1.01444 -3.07393 0
M  V30 2273 H 214.296 -3.10848 -2.08146 0
M  V30 2274 H 215.629 -4.07881 -2.75489 0
M  V30 2275 N 217.281 0.66697 -1.42791 0
M  V30 2276 C 218.528 1.42699 -1.43678 0
M  V30 2277 C 218.856 1.94419 -0.0560425 0
M  V30 2278 O 218.111 1.7182 0.936831 0
M  V30 2279 C 218.41 2.6349 -2.4147 0
M  V30 2280 C 218.076 2.30267 -3.8767 0
M  V30 2281 C 216.738 2.20918 -4.27491 0
M  V30 2282 C 219.09 2.03435 -4.79858 0
M  V30 2283 C 216.418 1.82873 -5.57471 0
M  V30 2284 C 218.77 1.66892 -6.10188 0
M  V30 2285 C 217.434 1.56058 -6.49001 0
M  V30 2286 H 216.704 0.522171 -0.525755 0
M  V30 2287 H 219.351 0.759785 -1.75783 0
M  V30 2288 H 217.656 3.35279 -2.0272 0
M  V30 2289 H 219.353 3.21684 -2.39417 0
M  V30 2290 H 215.943 2.38449 -3.56146 0
M  V30 2291 H 220.127 2.09586 -4.49875 0
M  V30 2292 H 215.383 1.7306 -5.86396 0
M  V30 2293 H 219.557 1.45157 -6.81104 0
M  V30 2294 H 217.184 1.26348 -7.49627 0
M  V30 2295 N 218.759 1.29093 0.90403 0
M  V30 2296 C 220.036 1.075 1.63411 0
M  V30 2297 C 220.416 -0.382346 2.07609 0
M  V30 2298 O 219.764 -1.37031 1.82851 0
M  V30 2299 C 219.974 2.05858 2.81822 0
M  V30 2300 C 221.322 2.36539 3.52611 0
M  V30 2301 O 222.346 2.04019 2.91984 0
M  V30 2302 O 221.205 2.92085 4.61897 0
M  V30 2303 H 218.299 0.411547 0.717327 0
M  V30 2304 H 220.845 1.40449 0.952479 0
M  V30 2305 H 219.617 3.04037 2.46327 0
M  V30 2306 H 219.24 1.73613 3.57693 0
M  V30 2307 N 220.237 -1.11381 1.11499 0
M  V30 2308 C 221.514 -1.7955 0.775965 0
M  V30 2309 C 221.894 -1.97859 -0.73588 0
M  V30 2310 O 221.242 -1.56376 -1.66609 0
M  V30 2311 C 221.452 -3.13196 1.53977 0
M  V30 2312 C 222.8 -3.88227 1.71944 0
M  V30 2313 O 223.824 -3.22887 1.50407 0
M  V30 2314 O 222.683 -5.05477 2.07738 0
M  V30 2315 H 219.777 -0.777728 0.28119 0
M  V30 2316 H 222.323 -1.18118 1.21845 0
M  V30 2317 H 221.095 -2.95229 2.56818 0
M  V30 2318 H 220.718 -3.82342 1.09088 0
M  V30 2319 N 221.715 -0.905404 -1.28997 0
M  V30 2320 C 222.663 -0.377431 -2.29517 0
M  V30 2321 C 223.657 0.526461 -1.61012 0
M  V30 2322 O 224.863 0.40863 -1.753 0
M  V30 2323 H 221.238 -0.103437 -0.744852 0
M  V30 2324 H 223.209 -1.23848 -2.71485 0
M  V30 2325 C 221.958 0.374833 -3.45674 0
M  V30 2326 H 221.281 -0.311474 -3.98585 0
M  V30 2327 H 222.721 0.70903 -4.1803 0
M  V30 2328 C 221.18 1.57963 -2.97572 0
M  V30 2329 O 221.71 2.67886 -2.99333 0
M  V30 2330 N 219.916 1.42375 -2.53333 0
M  V30 2331 H 219.463 0.529466 -2.521 0
M  V30 2332 H 219.421 2.23117 -2.21509 0
M  V30 2333 N 223.193 1.4272 -0.668489 0
M  V30 2334 C 224.44 2.01624 -0.18814 0
M  V30 2335 C 224.768 1.5282 1.20317 0
M  V30 2336 O 224.023 0.718323 1.8204 0
M  V30 2337 C 224.322 3.57021 -0.164499 0
M  V30 2338 C 223.988 4.25232 -1.49962 0
M  V30 2339 C 222.65 4.4358 -1.8652 0
M  V30 2340 C 225.002 4.63727 -2.37921 0
M  V30 2341 C 222.33 4.97694 -3.10674 0
M  V30 2342 C 224.682 5.19218 -3.6138 0
M  V30 2343 C 223.346 5.3578 -3.98115 0
M  V30 2344 H 222.616 0.737795 -0.0688454 0
M  V30 2345 H 225.263 1.70991 -0.862225 0
M  V30 2346 H 223.568 3.87285 0.593079 0
M  V30 2347 H 225.265 4.00372 0.224271 0
M  V30 2348 H 221.855 4.11306 -1.20522 0
M  V30 2349 H 226.039 4.4923 -2.10964 0
M  V30 2350 H 221.295 5.08702 -3.39164 0
M  V30 2351 H 225.469 5.4799 -4.29743 0
M  V30 2352 H 223.096 5.77475 -4.94395 0
M  V30 2353 N 224.671 0.411399 1.52136 0
M  V30 2354 C 226.087 0.0623865 1.59478 0
M  V30 2355 C 226.287 -1.42554 1.4241 0
M  V30 2356 O 225.343 -2.19263 1.2522 0
M  V30 2357 C 226.656 0.559331 2.95452 0
M  V30 2358 C 228.204 0.517503 3.08692 0
M  V30 2359 C 228.679 0.990994 4.4715 0
M  V30 2360 N 230.17 0.947908 4.53397 0
M  V30 2361 C 230.905 1.28544 5.58806 0
M  V30 2362 N 230.401 1.69454 6.71757 0
M  V30 2363 N 232.194 1.20526 5.49026 0
M  V30 2364 H 224.345 1.37982 1.61477 0
M  V30 2365 H 226.608 0.566977 0.759764 0
M  V30 2366 H 226.314 1.59938 3.1323 0
M  V30 2367 H 226.188 -0.0298014 3.77188 0
M  V30 2368 H 228.575 -0.513505 2.90598 0
M  V30 2369 H 228.656 1.14272 2.28857 0
M  V30 2370 H 228.3 2.02034 4.65988 0
M  V30 2371 H 228.23 0.34257 5.25485 0
M  V30 2372 H 230.721 0.647157 3.72317 0
M  V30 2373 H 231.034 1.93513 7.48179 0
M  V30 2374 H 229.379 1.73359 6.73032 0
M  V30 2375 H 232.57 0.884505 4.59667 0
M  V30 2376 H 232.743 1.47161 6.31069 0
M  V30 2377 N 226.149 -1.5696 0.141893 0
M  V30 2378 C 227.112 -2.15316 -0.785587 0
M  V30 2379 C 228.112 -1.09366 -1.1788 0
M  V30 2380 O 229.302 -1.35031 -1.10056 0
M  V30 2381 C 226.434 -2.71211 -2.06537 0
M  V30 2382 H 227.627 -2.98608 -0.278041 0
M  V30 2383 H 225.18 -1.5593 -0.107519 0
M  V30 2384 H 225.915 -1.91571 -2.6167 0
M  V30 2385 H 225.7 -3.4872 -1.79268 0
M  V30 2386 H 227.19 -3.16189 -2.72789 0
M  V30 2387 N 227.627 0.131896 -1.57047 0
M  V30 2388 C 228.876 0.84044 -1.83356 0
M  V30 2389 C 229.189 1.81646 -0.725535 0
M  V30 2390 O 230.395 2.57025 -0.874659 0
M  V30 2391 C 228.851 1.54528 -3.25037 0
M  V30 2392 C 228.459 0.610902 -4.43815 0
M  V30 2393 C 230.203 2.23972 -3.60606 0
M  V30 2394 C 228.11 1.31823 -5.76521 0
M  V30 2395 H 227.04 0.317599 -0.683847 0
M  V30 2396 H 229.691 0.0931561 -1.83263 0
M  V30 2397 H 228.073 2.33873 -3.19561 0
M  V30 2398 H 229.247 -0.148407 -4.60561 0
M  V30 2399 H 227.562 0.0241016 -4.16393 0
M  V30 2400 H 230.159 2.77558 -4.57018 0
M  V30 2401 H 230.502 3.01173 -2.87403 0
M  V30 2402 H 231.035 1.51529 -3.6781 0
M  V30 2403 H 227.774 0.587771 -6.52859 0
M  V30 2404 H 227.294 2.04987 -5.63685 0
M  V30 2405 H 228.973 1.855 -6.19838 0
M  V30 2406 N 229.106 1.52395 0.401703 0
M  V30 2407 C 230.331 1.70972 1.17403 0
M  V30 2408 C 230.756 0.421615 1.83314 0
M  V30 2409 O 230.114 -0.621564 1.70312 0
M  V30 2410 C 230.162 2.85151 2.20728 0
M  V30 2411 O 229.266 2.51238 3.27037 0
M  V30 2412 H 228.607 0.568927 0.342372 0
M  V30 2413 H 231.137 1.99131 0.469891 0
M  V30 2414 H 231.147 3.10279 2.64936 0
M  V30 2415 H 229.822 3.78603 1.7214 0
M  V30 2416 H 228.399 2.36808 2.88057 0
M  V30 2417 N 230.584 -0.659388 1.43143 0
M  V30 2418 C 231.514 -1.78422 1.50625 0
M  V30 2419 C 232.495 -1.66216 0.361443 0
M  V30 2420 O 233.68 -1.85404 0.577834 0
M  V30 2421 C 230.81 -3.16815 1.42287 0
M  V30 2422 C 229.764 -3.43777 2.54954 0
M  V30 2423 C 229.09 -4.81905 2.31671 0
M  V30 2424 C 230.39 -3.39134 3.97222 0
M  V30 2425 H 232.084 -1.72417 2.44771 0
M  V30 2426 H 229.63 -0.828084 1.17808 0
M  V30 2427 H 231.583 -3.95253 1.46127 0
M  V30 2428 H 230.307 -3.23534 0.446435 0
M  V30 2429 H 228.966 -2.67707 2.50457 0
M  V30 2430 H 228.614 -4.85294 1.32284 0
M  V30 2431 H 228.314 -5.00906 3.07192 0
M  V30 2432 H 229.838 -5.62609 2.37284 0
M  V30 2433 H 231.252 -4.07518 4.03239 0
M  V30 2434 H 229.649 -3.69671 4.72719 0
M  V30 2435 H 230.719 -2.37426 4.22797 0
M  V30 2436 N 232.062 -1.29571 -0.897171 0
M  V30 2437 C 232.972 -1.16808 -2.03453 0
M  V30 2438 C 233.988 -0.0907471 -1.73763 0
M  V30 2439 O 235.164 -0.303312 -1.99103 0
M  V30 2440 C 232.229 -0.848264 -3.36163 0
M  V30 2441 C 231.29 -2.0097 -3.79354 0
M  V30 2442 C 230.523 -1.70505 -5.05731 0
M  V30 2443 O 230.746 -0.62718 -5.66941 0
M  V30 2444 O 229.68 -2.5538 -5.45036 0
M  V30 2445 H 233.506 -2.12325 -2.17144 0
M  V30 2446 H 231.091 -1.09047 -1.02123 0
M  V30 2447 H 232.973 -0.684581 -4.15802 0
M  V30 2448 H 231.648 0.0771071 -3.23608 0
M  V30 2449 H 230.555 -2.22863 -3.00471 0
M  V30 2450 H 231.888 -2.91636 -3.96496 0
M  V30 2451 N 233.54 1.10788 -1.12088 0
M  V30 2452 C 234.45 2.20599 -0.798338 0
M  V30 2453 C 235.466 1.72712 0.21135 0
M  V30 2454 O 236.642 2.01348 0.0458477 0
M  V30 2455 C 233.707 3.45771 -0.253674 0
M  V30 2456 C 232.768 4.08411 -1.32283 0
M  V30 2457 C 232.001 5.27608 -0.80406 0
M  V30 2458 O 232.224 5.69241 0.363478 0
M  V30 2459 O 231.158 5.8101 -1.57198 0
M  V30 2460 H 234.984 2.50614 -1.7154 0
M  V30 2461 H 232.569 1.19454 -0.897275 0
M  V30 2462 H 234.451 4.21376 0.0453691 0
M  V30 2463 H 233.126 3.1739 0.636005 0
M  V30 2464 H 232.033 3.34507 -1.67499 0
M  V30 2465 H 233.366 4.40986 -2.18614 0
M  V30 2466 N 235.018 0.912232 1.28515 0
M  V30 2467 C 235.965 0.397954 2.27343 0
M  V30 2468 C 236.935 -0.526766 1.57526 0
M  V30 2469 O 238.12 -0.449292 1.85435 0
M  V30 2470 C 235.26 -0.357263 3.43246 0
M  V30 2471 C 234.373 0.599788 4.27816 0
M  V30 2472 C 233.508 -0.173725 5.30916 0
M  V30 2473 C 232.547 0.777039 6.07148 0
M  V30 2474 N 231.684 0.0371398 7.0209 0
M  V30 2475 H 236.524 1.24577 2.70711 0
M  V30 2476 H 234.061 0.625612 1.33133 0
M  V30 2477 H 236.019 -0.8113 4.09236 0
M  V30 2478 H 234.649 -1.16943 3.00872 0
M  V30 2479 H 233.701 1.17235 3.61884 0
M  V30 2480 H 235.013 1.32704 4.80823 0
M  V30 2481 H 234.167 -0.688394 6.02782 0
M  V30 2482 H 232.906 -0.934041 4.78672 0
M  V30 2483 H 231.911 1.3031 5.34134 0
M  V30 2484 H 233.136 1.53689 6.61481 0
M  V30 2485 H 231.082 -0.705213 6.52198 0
M  V30 2486 H 230.999 0.704249 7.52713 0
M  V30 2487 H 232.267 -0.457383 7.78157 0
M  V30 2488 N 236.496 -1.42363 0.676048 0
M  V30 2489 C 237.907 -1.84649 0.275948 0
M  V30 2490 C 238.258 -1.56588 -1.18214 0
M  V30 2491 O 237.383 -1.02634 -1.90513 0
M  V30 2492 C 237.978 -3.35178 0.494053 0
M  V30 2493 C 236.537 -3.76109 0.148061 0
M  V30 2494 C 235.684 -2.65931 0.785891 0
M  V30 2495 H 238.635 -1.32192 0.878121 0
M  V30 2496 H 238.656 -3.79655 -0.25343 0
M  V30 2497 H 238.168 -3.55571 1.55535 0
M  V30 2498 H 236.269 -3.61323 -0.909742 0
M  V30 2499 H 236.382 -4.7546 0.589454 0
M  V30 2500 H 234.746 -2.53773 0.217113 0
M  V30 2501 H 235.529 -2.89146 1.85067 0
M  V30 2502 N 237.974 -0.419461 -1.51915 0
M  V30 2503 C 238.921 0.400927 -2.27291 0
M  V30 2504 C 239.891 1.03224 -1.30131 0
M  V30 2505 O 241.076 1.05455 -1.59009 0
M  V30 2506 C 238.216 1.50603 -3.10504 0
M  V30 2507 C 237.329 0.89462 -4.22635 0
M  V30 2508 C 236.464 1.97328 -4.93189 0
M  V30 2509 C 235.503 1.33935 -5.97267 0
M  V30 2510 N 234.64 2.3586 -6.61298 0
M  V30 2511 H 239.48 -0.248251 -2.96964 0
M  V30 2512 H 237.017 -0.134266 -1.46486 0
M  V30 2513 H 238.975 2.15783 -3.57062 0
M  V30 2514 H 237.605 2.12509 -2.42981 0
M  V30 2515 H 236.657 0.131583 -3.80172 0
M  V30 2516 H 237.969 0.391641 -4.9726 0
M  V30 2517 H 237.123 2.70211 -5.43204 0
M  V30 2518 H 235.862 2.50994 -4.18155 0
M  V30 2519 H 234.867 0.595896 -5.46561 0
M  V30 2520 H 236.092 0.810252 -6.74249 0
M  V30 2521 H 234.038 2.88639 -5.89087 0
M  V30 2522 H 233.955 1.90403 -7.3163 0
M  V30 2523 H 235.223 3.08282 -7.15949 0
M  V30 2524 N 239.452 1.56882 -0.150215 0
M  V30 2525 C 240.384 2.14057 0.819286 0
M  V30 2526 C 241.397 1.09082 1.20851 0
M  V30 2527 O 242.586 1.36347 1.15203 0
M  V30 2528 C 239.686 2.65102 2.11127 0
M  V30 2529 C 238.859 3.94511 1.88891 0
M  V30 2530 C 237.918 4.30834 3.02107 0
M  V30 2531 O 236.944 4.99099 2.73659 0
M  V30 2532 N 238.146 3.90676 4.29363 0
M  V30 2533 H 240.911 2.97871 0.330618 0
M  V30 2534 H 238.472 1.61866 0.0332538 0
M  V30 2535 H 240.464 2.86411 2.85921 0
M  V30 2536 H 239.034 1.85994 2.51247 0
M  V30 2537 H 238.254 3.81795 0.981152 0
M  V30 2538 H 239.542 4.7907 1.71376 0
M  V30 2539 H 238.94 3.35677 4.55343 0
M  V30 2540 H 237.497 4.1703 5.00928 0
M  V30 2541 N 240.93 -0.123565 1.57115 0
M  V30 2542 C 242.341 -0.681198 1.73829 0
M  V30 2543 C 242.692 -1.80535 0.768214 0
M  V30 2544 O 241.817 -2.16317 -0.0599103 0
M  V30 2545 C 242.412 -1.24246 3.15196 0
M  V30 2546 C 240.971 -1.74643 3.33432 0
M  V30 2547 C 240.118 -0.644284 2.69711 0
M  V30 2548 H 243.069 0.102315 1.5837 0
M  V30 2549 H 243.09 -2.11216 3.16493 0
M  V30 2550 H 242.602 -0.424062 3.85776 0
M  V30 2551 H 240.703 -2.58974 2.67886 0
M  V30 2552 H 240.816 -1.85902 4.41562 0
M  V30 2553 H 239.18 -1.07676 2.3082 0
M  V30 2554 H 239.963 0.163058 3.42913 0
M  V30 2555 N 242.408 -1.52605 -0.393616 0
M  V30 2556 C 243.355 -1.77055 -1.48054 0
M  V30 2557 C 244.325 -0.61358 -1.54352 0
M  V30 2558 O 245.51 -0.852806 -1.70681 0
M  V30 2559 C 242.65 -1.94108 -2.85335 0
M  V30 2560 C 241.763 -3.21792 -2.88226 0
M  V30 2561 C 240.898 -3.29188 -4.16904 0
M  V30 2562 C 239.937 -4.51013 -4.13828 0
M  V30 2563 N 239.074 -4.55716 -5.34105 0
M  V30 2564 H 243.914 -2.69815 -1.26506 0
M  V30 2565 H 241.451 -1.33683 -0.61379 0
M  V30 2566 H 243.409 -2.01979 -3.65049 0
M  V30 2567 H 242.039 -1.04713 -3.05344 0
M  V30 2568 H 241.091 -3.23015 -2.00911 0
M  V30 2569 H 242.403 -4.11557 -2.8182 0
M  V30 2570 H 241.557 -3.36216 -5.05018 0
M  V30 2571 H 240.296 -2.37389 -4.26026 0
M  V30 2572 H 239.301 -4.44115 -3.24102 0
M  V30 2573 H 240.526 -5.44123 -4.06333 0
M  V30 2574 H 238.472 -3.66807 -5.43865 0
M  V30 2575 H 238.389 -5.39346 -5.29756 0
M  V30 2576 H 239.657 -4.66993 -6.2413 0
M  V30 2577 N 243.887 0.651787 -1.4349 0
M  V30 2578 C 245.112 1.44434 -1.48841 0
M  V30 2579 C 245.537 1.8779 -0.107955 0
M  V30 2580 O 244.895 1.57464 0.898602 0
M  V30 2581 C 244.943 2.65458 -2.44059 0
M  V30 2582 O 244.047 3.64566 -1.92784 0
M  V30 2583 H 243.388 0.433005 -0.503391 0
M  V30 2584 H 245.918 0.797451 -1.88419 0
M  V30 2585 H 245.928 3.13255 -2.6141 0
M  V30 2586 H 244.603 2.33244 -3.4434 0
M  V30 2587 H 243.18 3.23716 -1.851 0
M  V30 2588 N 245.365 1.30045 0.890287 0
M  V30 2589 C 246.313 1.15873 2.01683 0
M  V30 2590 C 247.307 0.0719403 1.69247 0
M  V30 2591 O 248.513 0.232414 1.78493 0
M  V30 2592 H 244.888 0.358203 0.661207 0
M  V30 2593 H 246.859 2.11229 2.10772 0
M  V30 2594 C 245.608 0.861842 3.36849 0
M  V30 2595 H 244.931 1.69016 3.62317 0
M  V30 2596 H 246.371 0.802762 4.16331 0
M  V30 2597 C 244.83 -0.435132 3.34078 0
M  V30 2598 O 245.36 -1.4583 3.74295 0
M  V30 2599 N 243.566 -0.444377 2.87182 0
M  V30 2600 H 243.113 0.388723 2.5465 0
M  V30 2601 H 243.071 -1.31213 2.85711 0
M  V30 2602 N 246.843 -1.10192 1.12674 0
M  V30 2603 C 248.089 -1.82658 0.894847 0
M  V30 2604 C 248.444 -1.83666 -0.573107 0
M  V30 2605 O 247.737 -1.28816 -1.41835 0
M  V30 2606 C 247.931 -3.28552 1.4067 0
M  V30 2607 C 247.76 -3.41756 2.92289 0
M  V30 2608 C 246.53 -3.54021 3.60551 0
M  V30 2609 C 248.728 -3.34949 3.90274 0
M  V30 2610 N 246.71 -3.55827 5.0026 0
M  V30 2611 C 248.081 -3.43531 5.16127 0
M  V30 2612 C 250.136 -3.18565 3.8265 0
M  V30 2613 C 248.839 -3.37416 6.3525 0
M  V30 2614 C 250.865 -3.13772 5.01299 0
M  V30 2615 C 250.227 -3.22938 6.26012 0
M  V30 2616 H 246.326 -0.683044 0.380756 0
M  V30 2617 H 248.91 -1.31752 1.43351 0
M  V30 2618 H 247.081 -3.77946 0.895055 0
M  V30 2619 H 248.813 -3.88991 1.11661 0
M  V30 2620 H 245.568 -3.57135 3.1105 0
M  V30 2621 H 245.992 -3.60335 5.73138 0
M  V30 2622 H 250.634 -3.10354 2.87124 0
M  V30 2623 H 248.352 -3.44391 7.3104 0
M  V30 2624 H 251.938 -3.02242 4.97133 0
M  V30 2625 H 250.818 -3.19235 7.16281 0
M  V30 2626 N 248.321 -0.919034 -1.28029 0
M  V30 2627 C 249.284 -0.416182 -2.2539 0
M  V30 2628 C 250.284 0.460438 -1.54067 0
M  V30 2629 O 251.474 0.262744 -1.72207 0
M  V30 2630 C 248.606 0.402707 -3.38513 0
M  V30 2631 H 249.799 -1.27629 -2.71387 0
M  V30 2632 H 247.352 -0.698919 -1.39803 0
M  V30 2633 H 248.087 1.282 -2.97885 0
M  V30 2634 H 247.872 -0.225698 -3.9145 0
M  V30 2635 H 249.362 0.745191 -4.10897 0
M  V30 2636 N 249.799 1.42003 -0.683588 0
M  V30 2637 C 251.045 2.01712 -0.209825 0
M  V30 2638 C 251.378 1.53968 1.18353 0
M  V30 2639 O 250.653 0.745661 1.79639 0
M  V30 2640 C 250.936 3.59202 -0.254197 0
M  V30 2641 C 250.789 4.17102 -1.68363 0
M  V30 2642 C 252.108 4.38344 0.392709 0
M  V30 2643 H 249.227 0.732891 -0.0777189 0
M  V30 2644 H 251.869 1.68909 -0.87004 0
M  V30 2645 H 250.019 3.87278 0.307954 0
M  V30 2646 H 251.691 3.99946 -2.29871 0
M  V30 2647 H 249.934 3.72597 -2.22157 0
M  V30 2648 H 250.605 5.26249 -1.6663 0
M  V30 2649 H 253.081 4.16011 -0.0859162 0
M  V30 2650 H 251.957 5.47901 0.331063 0
M  V30 2651 H 252.218 4.16887 1.47164 0
M  V30 2652 N 251.277 0.427512 1.51691 0
M  V30 2653 C 252.505 -0.141191 2.06418 0
M  V30 2654 C 252.92 -1.37303 1.29589 0
M  V30 2655 O 252.277 -1.79059 0.352732 0
M  V30 2656 C 252.328 -0.473266 3.58389 0
M  V30 2657 O 252.049 0.709673 4.32314 0
M  V30 2658 C 253.55 -1.09371 4.29596 0
M  V30 2659 H 250.77 -0.0122747 0.670888 0
M  V30 2660 H 253.314 0.603764 1.95384 0
M  V30 2661 H 251.469 -1.16812 3.69369 0
M  V30 2662 H 251.883 0.42807 5.2275 0
M  V30 2663 H 253.357 -1.27613 5.37046 0
M  V30 2664 H 253.834 -2.072 3.87253 0
M  V30 2665 H 254.44 -0.43853 4.23033 0
M  V30 2666 N 252.755 -1.56801 0.158532 0
M  V30 2667 C 254.003 -1.96102 -0.488712 0
M  V30 2668 C 254.324 -1.04498 -1.64636 0
M  V30 2669 O 253.594 -0.108783 -1.95598 0
M  V30 2670 H 252.174 -0.724102 -0.183535 0
M  V30 2671 H 254.836 -1.93457 0.236728 0
M  V30 2672 H 253.932 -3.00097 -0.857219 0
M  V30 2673 N 254.233 0.115231 -1.57178 0
M  V30 2674 C 255.163 1.1423 -2.03651 0
M  V30 2675 C 256.144 1.42967 -0.921655 0
M  V30 2676 O 257.329 1.53343 -1.19162 0
M  V30 2677 C 254.459 2.4675 -2.44401 0
M  V30 2678 C 253.413 2.32467 -3.59365 0
M  V30 2679 C 252.739 3.69984 -3.86026 0
M  V30 2680 C 254.039 1.78203 -4.90959 0
M  V30 2681 H 255.733 0.755749 -2.89705 0
M  V30 2682 H 253.279 0.362093 -1.39373 0
M  V30 2683 H 255.232 3.18854 -2.75517 0
M  V30 2684 H 253.956 2.87302 -1.55322 0
M  V30 2685 H 252.615 1.62811 -3.28463 0
M  V30 2686 H 252.263 4.08028 -2.94147 0
M  V30 2687 H 251.963 3.61279 -4.63412 0
M  V30 2688 H 253.487 4.43587 -4.19599 0
M  V30 2689 H 254.901 2.40128 -5.20587 0
M  V30 2690 H 253.298 1.8031 -5.72371 0
M  V30 2691 H 254.368 0.739876 -4.79222 0
M  V30 2692 N 255.711 1.52812 0.385517 0
M  V30 2693 C 256.941 1.71658 1.14966 0
M  V30 2694 C 257.349 0.436253 1.84102 0
M  V30 2695 O 256.692 -0.599313 1.73649 0
M  V30 2696 C 256.754 2.81309 2.23843 0
M  V30 2697 C 256.418 4.22313 1.74644 0
M  V30 2698 C 257.415 5.05352 1.22129 0
M  V30 2699 C 255.1 4.68648 1.80761 0
M  V30 2700 C 257.094 6.32807 0.763838 0
M  V30 2701 C 254.781 5.96086 1.34627 0
M  V30 2702 C 255.779 6.77996 0.825264 0
M  V30 2703 O 255.467 8.03045 0.370669 0
M  V30 2704 H 255.199 0.578022 0.350523 0
M  V30 2705 H 257.753 2.00263 0.456509 0
M  V30 2706 H 255.983 2.48133 2.96592 0
M  V30 2707 H 257.672 2.88524 2.85497 0
M  V30 2708 H 258.438 4.70736 1.16758 0
M  V30 2709 H 254.317 4.04979 2.20256 0
M  V30 2710 H 257.861 6.96689 0.356494 0
M  V30 2711 H 253.758 6.30205 1.39686 0
M  V30 2712 H 254.526 8.17021 0.491829 0
M  V30 2713 N 257.189 -0.644168 1.43834 0
M  V30 2714 C 258.436 -1.40395 1.4593 0
M  V30 2715 C 258.764 -1.94305 0.0869658 0
M  V30 2716 O 258.019 -1.73288 -0.909378 0
M  V30 2717 C 258.318 -2.59615 2.45631 0
M  V30 2718 C 257.984 -2.2407 3.91284 0
M  V30 2719 C 256.646 -2.14089 4.30952 0
M  V30 2720 C 258.998 -1.95775 4.83034 0
M  V30 2721 C 256.326 -1.73981 5.6031 0
M  V30 2722 C 258.678 -1.57163 6.12766 0
M  V30 2723 C 257.342 -1.45713 6.51402 0
M  V30 2724 H 256.612 -0.513741 0.533995 0
M  V30 2725 H 259.259 -0.731724 1.76969 0
M  V30 2726 H 257.564 -3.32011 2.08028 0
M  V30 2727 H 259.261 -3.17834 2.44504 0
M  V30 2728 H 255.851 -2.32753 3.59895 0
M  V30 2729 H 260.035 -2.02403 4.53152 0
M  V30 2730 H 255.291 -1.63709 5.89075 0
M  V30 2731 H 259.465 -1.34303 6.83327 0
M  V30 2732 H 257.092 -1.14406 7.51542 0
M  V30 2733 N 258.668 -1.30515 -0.883378 0
M  V30 2734 C 259.898 -1.22182 -1.66599 0
M  V30 2735 C 260.306 0.217507 -1.87946 0
M  V30 2736 O 259.649 1.1554 -1.42815 0
M  V30 2737 C 259.711 -1.88146 -3.06335 0
M  V30 2738 C 259.375 -3.37476 -3.08154 0
M  V30 2739 C 260.372 -4.33443 -2.87094 0
M  V30 2740 C 258.057 -3.7895 -3.29701 0
M  V30 2741 C 260.051 -5.68858 -2.8754 0
M  V30 2742 C 257.738 -5.14482 -3.29776 0
M  V30 2743 C 258.736 -6.09246 -3.0872 0
M  V30 2744 O 258.424 -7.42302 -3.08615 0
M  V30 2745 H 258.156 -0.423898 -0.52658 0
M  V30 2746 H 260.71 -1.72703 -1.11188 0
M  V30 2747 H 258.94 -1.32157 -3.63416 0
M  V30 2748 H 260.629 -1.7391 -3.66756 0
M  V30 2749 H 261.395 -4.02733 -2.70243 0
M  V30 2750 H 257.274 -3.05631 -3.45124 0
M  V30 2751 H 260.818 -6.428 -2.71024 0
M  V30 2752 H 256.715 -5.44832 -3.46163 0
M  V30 2753 H 257.483 -7.5131 -3.24769 0
M  V30 2754 N 260.146 1.09593 -1.13257 0
M  V30 2755 C 261.423 1.78293 -0.804432 0
M  V30 2756 C 261.803 1.99004 0.70431 0
M  V30 2757 O 261.151 1.59007 1.641 0
M  V30 2758 C 261.361 3.10707 -1.5894 0
M  V30 2759 C 262.709 3.85443 -1.78099 0
M  V30 2760 O 263.733 3.20454 -1.55525 0
M  V30 2761 O 262.592 5.02108 -2.15753 0
M  V30 2762 H 259.686 0.773156 -0.293528 0
M  V30 2763 H 262.232 1.16164 -1.23709 0
M  V30 2764 H 261.004 2.91106 -2.61482 0
M  V30 2765 H 260.627 3.80558 -1.15157 0
M  V30 2766 N 261.624 0.925811 1.2754 0
M  V30 2767 C 262.849 0.580924 1.99098 0
M  V30 2768 C 263.274 -0.833555 1.68622 0
M  V30 2769 O 262.632 -1.55903 0.925422 0
M  V30 2770 C 262.68 0.811186 3.51358 0
M  V30 2771 O 261.784 -0.124129 4.12213 0
M  V30 2772 H 261.125 0.223873 0.625122 0
M  V30 2773 H 263.655 1.24455 1.62395 0
M  V30 2774 H 263.665 0.72601 4.01489 0
M  V30 2775 H 262.34 1.84227 3.72872 0
M  V30 2776 H 260.917 0.0108006 3.72898 0
M  V30 2777 N 263.102 -1.41638 0.69111 0
M  V30 2778 C 264.049 -2.30789 0.0229705 0
M  V30 2779 C 265.019 -1.46863 -0.775911 0
M  V30 2780 O 266.204 -1.75661 -0.74485 0
M  V30 2781 C 263.344 -3.32868 -0.910666 0
M  V30 2782 C 262.457 -4.31875 -0.103874 0
M  V30 2783 C 261.592 -5.21024 -1.03475 0
M  V30 2784 C 260.631 -6.11702 -0.220598 0
M  V30 2785 N 259.768 -6.93349 -1.10504 0
M  V30 2786 H 264.608 -2.87366 0.788978 0
M  V30 2787 H 262.145 -1.41535 0.400794 0
M  V30 2788 H 264.103 -3.90596 -1.46597 0
M  V30 2789 H 262.733 -2.77851 -1.64312 0
M  V30 2790 H 261.785 -3.76131 0.568285 0
M  V30 2791 H 263.097 -4.96003 0.527504 0
M  V30 2792 H 262.251 -5.83565 -1.65943 0
M  V30 2793 H 260.99 -4.57112 -1.69999 0
M  V30 2794 H 259.995 -5.48215 0.417187 0
M  V30 2795 H 261.22 -6.77668 0.440784 0
M  V30 2796 H 259.166 -6.3205 -1.75638 0
M  V30 2797 H 259.083 -7.54146 -0.529125 0
M  V30 2798 H 260.351 -7.60362 -1.71667 0
M  V30 2799 N 264.58 -0.43555 -1.51462 0
M  V30 2800 C 265.826 0.131709 -2.02372 0
M  V30 2801 C 266.159 1.42516 -1.3192 0
M  V30 2802 O 265.434 1.89606 -0.433573 0
M  V30 2803 C 265.717 0.352301 -3.58373 0
M  V30 2804 C 265.57 -0.959676 -4.39443 0
M  V30 2805 C 266.889 1.12286 -4.25535 0
M  V30 2806 H 264.008 0.0463936 -0.735538 0
M  V30 2807 H 266.65 -0.574197 -1.81116 0
M  V30 2808 H 264.8 0.9536 -3.76615 0
M  V30 2809 H 266.472 -1.59482 -4.32855 0
M  V30 2810 H 264.715 -1.56468 -4.04599 0
M  V30 2811 H 265.386 -0.759394 -5.46752 0
M  V30 2812 H 267.862 0.613545 -4.11552 0
M  V30 2813 H 266.738 1.24598 -5.34571 0
M  V30 2814 H 266.999 2.15048 -3.86273 0
M  V30 2815 N 266.058 1.56714 -0.166846 0
M  V30 2816 C 267.304 1.97039 0.479962 0
M  V30 2817 C 267.637 1.05264 1.63197 0
M  V30 2818 O 266.912 0.0988833 1.94248 0
M  V30 2819 C 267.195 3.46867 0.967212 0
M  V30 2820 C 267.048 4.49421 -0.18466 0
M  V30 2821 C 268.367 3.9968 1.84238 0
M  V30 2822 H 265.486 0.71641 0.172992 0
M  V30 2823 H 268.128 1.8832 -0.252079 0
M  V30 2824 H 266.278 3.54428 1.59101 0
M  V30 2825 H 267.95 4.53924 -0.821621 0
M  V30 2826 H 266.193 4.25573 -0.840837 0
M  V30 2827 H 266.864 5.51644 0.198317 0
M  V30 2828 H 269.34 3.94723 1.31655 0
M  V30 2829 H 268.216 5.04941 2.15234 0
M  V30 2830 H 268.477 3.43226 2.78654 0
M  V30 2831 N 267.536 -0.106894 1.57237 0
M  V30 2832 C 268.446 -1.14911 2.0453 0
M  V30 2833 C 269.462 -1.44592 0.96795 0
M  V30 2834 O 270.638 -1.55468 1.2803 0
M  V30 2835 C 267.703 -2.45272 2.45036 0
M  V30 2836 C 266.764 -2.22879 3.66911 0
M  V30 2837 C 265.997 -3.47024 4.05475 0
M  V30 2838 O 266.22 -4.54804 3.44252 0
M  V30 2839 O 265.154 -3.3731 4.98504 0
M  V30 2840 H 268.98 -0.777461 2.9358 0
M  V30 2841 H 266.565 -0.318563 1.45964 0
M  V30 2842 H 268.447 -3.22055 2.71769 0
M  V30 2843 H 267.122 -2.81886 1.59129 0
M  V30 2844 H 266.029 -1.43915 3.45311 0
M  V30 2845 H 267.362 -1.91163 4.53561 0
M  V30 2846 N 269.014 -1.53014 -0.377408 0
M  V30 2847 C 270.244 -1.72265 -1.14054 0
M  V30 2848 C 270.652 -0.44601 -1.83868 0
M  V30 2849 O 269.995 0.590095 -1.73964 0
M  V30 2850 C 270.057 -2.82492 -2.22348 0
M  V30 2851 C 269.721 -4.23233 -1.72402 0
M  V30 2852 C 270.718 -5.05992 -1.19448 0
M  V30 2853 C 268.403 -4.696 -1.78273 0
M  V30 2854 C 270.397 -6.33203 -0.730268 0
M  V30 2855 C 268.084 -5.96792 -1.31464 0
M  V30 2856 C 269.082 -6.78424 -0.789297 0
M  V30 2857 O 268.77 -8.0323 -0.328077 0
M  V30 2858 H 268.502 -0.579873 -0.347453 0
M  V30 2859 H 271.056 -2.00502 -0.445882 0
M  V30 2860 H 269.286 -2.49702 -2.95272 0
M  V30 2861 H 270.975 -2.90034 -2.83963 0
M  V30 2862 H 271.741 -4.71349 -1.14259 0
M  V30 2863 H 267.62 -4.06142 -2.18106 0
M  V30 2864 H 271.164 -6.96868 -0.319542 0
M  V30 2865 H 267.061 -6.30937 -1.36342 0
M  V30 2866 H 267.829 -8.1727 -0.448493 0
M  V30 2867 N 270.492 0.636531 -1.44174 0
M  V30 2868 C 271.455 1.73063 -1.50273 0
M  V30 2869 C 272.455 1.56113 -0.385397 0
M  V30 2870 O 273.645 1.61707 -0.64781 0
M  V30 2871 C 270.777 3.12096 -1.37145 0
M  V30 2872 H 271.97 1.69031 -2.47727 0
M  V30 2873 H 269.523 0.849706 -1.31186 0
M  V30 2874 H 270.258 3.21728 -0.407636 0
M  V30 2875 H 270.043 3.25805 -2.18159 0
M  V30 2876 H 271.533 3.91846 -1.44382 0
M  V30 2877 N 271.97 1.30982 0.876444 0
M  V30 2878 C 272.917 1.18085 1.98304 0
M  V30 2879 C 273.887 0.0682263 1.6596 0
M  V30 2880 O 275.072 0.239937 1.89285 0
M  V30 2881 C 272.212 0.887475 3.33493 0
M  V30 2882 C 271.325 2.08281 3.78475 0
M  V30 2883 C 270.46 1.72678 5.0235 0
M  V30 2884 C 269.499 2.88657 5.39762 0
M  V30 2885 N 268.636 2.53292 6.54819 0
M  V30 2886 H 273.476 2.1275 2.08666 0
M  V30 2887 H 271.013 1.05839 1.02159 0
M  V30 2888 H 272.971 0.697961 4.1132 0
M  V30 2889 H 271.601 -0.022315 3.22792 0
M  V30 2890 H 270.653 2.3833 2.96484 0
M  V30 2891 H 271.965 2.95108 4.02135 0
M  V30 2892 H 271.119 1.50151 5.87826 0
M  V30 2893 H 269.858 0.830327 4.8058 0
M  V30 2894 H 268.863 3.1184 4.52809 0
M  V30 2895 H 270.088 3.79002 5.63502 0
M  V30 2896 H 268.034 1.66163 6.34607 0
M  V30 2897 H 267.951 3.3365 6.7839 0
M  V30 2898 H 269.219 2.34143 7.43503 0
M  V30 2899 N 273.449 -1.08991 1.13837 0
M  V30 2900 C 274.381 -2.15606 0.777612 0
M  V30 2901 C 275.394 -1.61533 -0.202739 0
M  V30 2902 O 276.583 -1.78491 0.0181055 0
M  V30 2903 C 273.683 -3.3864 0.132623 0
M  V30 2904 C 272.856 -4.22115 1.1462 0
M  V30 2905 C 271.915 -5.23564 0.526074 0
M  V30 2906 O 270.941 -5.56678 1.18735 0
M  V30 2907 N 272.143 -5.76266 -0.699866 0
M  V30 2908 H 274.908 -2.47159 1.69506 0
M  V30 2909 H 272.469 -1.24747 1.03198 0
M  V30 2910 H 274.461 -4.03626 -0.29459 0
M  V30 2911 H 273.031 -3.04938 -0.687849 0
M  V30 2912 H 272.251 -3.53199 1.75055 0
M  V30 2913 H 273.539 -4.74709 1.83109 0
M  V30 2914 H 272.937 -5.51585 -1.25581 0
M  V30 2915 H 271.494 -6.42963 -1.06968 0
M  V30 2916 N 274.927 -0.932562 -1.27047 0
M  V30 2917 C 276.173 -0.576412 -1.94436 0
M  V30 2918 C 276.506 0.880891 -1.73072 0
M  V30 2919 O 275.781 1.62905 -1.06264 0
M  V30 2920 C 276.064 -0.909031 -3.48437 0
M  V30 2921 C 275.917 -2.42044 -3.79123 0
M  V30 2922 C 277.236 -0.418341 -4.38107 0
M  V30 2923 H 274.355 -0.210888 -0.706184 0
M  V30 2924 H 276.997 -1.16522 -1.50075 0
M  V30 2925 H 275.147 -0.407947 -3.86352 0
M  V30 2926 H 276.819 -2.99359 -3.50973 0
M  V30 2927 H 275.062 -2.86758 -3.25503 0
M  V30 2928 H 275.733 -2.6037 -4.86736 0
M  V30 2929 H 278.209 -0.847856 -4.0737 0
M  V30 2930 H 277.085 -0.679981 -5.44672 0
M  V30 2931 H 277.346 0.681642 -4.36814 0
M  V30 2932 N 276.405 1.4127 -0.698611 0
M  V30 2933 C 277.352 2.30773 -0.0352094 0
M  V30 2934 C 278.322 1.47273 0.768111 0
M  V30 2935 O 279.507 1.76053 0.735524 0
M  V30 2936 C 276.647 3.33346 0.893 0
M  V30 2937 C 275.76 4.31924 0.0809695 0
M  V30 2938 C 274.895 5.21566 1.0071 0
M  V30 2939 C 273.934 6.11811 0.188155 0
M  V30 2940 N 273.071 6.93926 1.06825 0
M  V30 2941 H 277.911 2.86943 -0.804207 0
M  V30 2942 H 275.448 1.4132 -0.408294 0
M  V30 2943 H 277.406 3.91368 1.44523 0
M  V30 2944 H 276.036 2.78719 1.62836 0
M  V30 2945 H 275.088 3.75825 -0.588224 0
M  V30 2946 H 276.4 4.95716 -0.553801 0
M  V30 2947 H 275.554 5.84437 1.62845 0
M  V30 2948 H 274.293 4.58008 1.67572 0
M  V30 2949 H 273.298 5.47986 -0.446254 0
M  V30 2950 H 274.523 6.77425 -0.476716 0
M  V30 2951 H 272.469 6.32973 1.72283 0
M  V30 2952 H 272.386 7.54416 0.489123 0
M  V30 2953 H 273.654 7.61262 1.67632 0
M  V30 2954 N 277.883 0.443576 1.51229 0
M  V30 2955 C 279.294 -0.0180867 1.86691 0
M  V30 2956 C 279.645 -1.41384 1.36033 0
M  V30 2957 O 278.77 -2.04291 0.713722 0
M  V30 2958 C 279.365 -0.039597 3.38777 0
M  V30 2959 C 277.924 -0.445692 3.73752 0
M  V30 2960 C 277.071 0.357584 2.74985 0
M  V30 2961 H 280.022 0.659138 1.44364 0
M  V30 2962 H 280.043 -0.847761 3.70936 0
M  V30 2963 H 279.555 0.976382 3.75617 0
M  V30 2964 H 277.656 -1.46704 3.42503 0
M  V30 2965 H 277.769 -0.166155 4.78812 0
M  V30 2966 H 276.133 -0.184973 2.54027 0
M  V30 2967 H 276.916 1.37256 3.14668 0
M  V30 2968 N 279.361 -1.56624 0.175154 0
M  V30 2969 C 280.586 -2.01813 -0.478137 0
M  V30 2970 C 281.011 -1.05457 -1.55757 0
M  V30 2971 O 280.369 -0.0347439 -1.81267 0
M  V30 2972 C 280.417 -3.45581 -1.02987 0
M  V30 2973 O 279.521 -3.52305 -2.14371 0
M  V30 2974 H 278.862 -0.65413 -0.114059 0
M  V30 2975 H 281.392 -2.02673 0.280173 0
M  V30 2976 H 281.402 -3.84965 -1.35151 0
M  V30 2977 H 280.077 -4.1521 -0.239556 0
M  V30 2978 H 278.654 -3.24783 -1.83222 0
M  V30 2979 N 280.839 0.0985539 -1.57292 0
M  V30 2980 C 281.749 1.13824 -2.05137 0
M  V30 2981 C 282.765 1.44076 -0.975604 0
M  V30 2982 O 283.941 1.54786 -1.28853 0
M  V30 2983 C 281.006 2.43969 -2.46333 0
M  V30 2984 C 280.067 2.2093 -3.68087 0
M  V30 2985 C 279.3 3.44869 -4.0731 0
M  V30 2986 O 279.523 4.52972 -3.46659 0
M  V30 2987 O 278.457 3.34661 -5.00285 0
M  V30 2988 H 282.283 0.761881 -2.93988 0
M  V30 2989 H 279.868 0.310818 -1.46131 0
M  V30 2990 H 281.75 3.20609 -2.73473 0
M  V30 2991 H 280.425 2.81038 -1.60621 0
M  V30 2992 H 279.332 1.42081 -3.46069 0
M  V30 2993 H 280.665 1.88755 -4.54568 0
M  V30 2994 N 282.317 1.53212 0.369288 0
M  V30 2995 C 283.733 1.42902 0.710712 0
M  V30 2996 C 283.933 0.565135 1.93413 0
M  V30 2997 O 282.989 0.0461484 2.52458 0
M  V30 2998 C 284.302 2.86042 0.927382 0
M  V30 2999 C 285.85 2.9565 1.02762 0
M  V30 3000 C 286.325 4.39843 1.27679 0
M  V30 3001 N 287.816 4.43256 1.34457 0
M  V30 3002 C 288.551 5.51929 1.55439 0
M  V30 3003 N 288.047 6.70655 1.73762 0
M  V30 3004 N 289.84 5.39502 1.57779 0
M  V30 3005 H 281.991 2.07888 -0.435457 0
M  V30 3006 H 284.254 0.938661 -0.132739 0
M  V30 3007 H 283.96 3.51557 0.100287 0
M  V30 3008 H 283.834 3.29472 1.83653 0
M  V30 3009 H 286.221 2.30291 1.84527 0
M  V30 3010 H 286.302 2.5562 0.0959504 0
M  V30 3011 H 285.946 5.05774 0.464175 0
M  V30 3012 H 285.876 4.77443 2.22162 0
M  V30 3013 H 288.367 3.5769 1.21926 0
M  V30 3014 H 288.68 7.49248 1.89335 0
M  V30 3015 H 287.025 6.73648 1.70948 0
M  V30 3016 H 290.216 4.45713 1.43029 0
M  V30 3017 H 290.389 6.2426 1.7379 0
M  V30 3018 N 283.795 -0.628877 1.44509 0
M  V30 3019 C 285.043 -1.38565 1.4712 0
M  V30 3020 C 285.364 -1.94712 0.105899 0
M  V30 3021 O 284.634 -1.75912 -0.862079 0
M  V30 3022 H 283.214 -0.514333 0.541729 0
M  V30 3023 H 285.876 -0.740018 1.80305 0
M  V30 3024 H 284.972 -2.21583 2.19789 0
M  V30 3025 N 285.273 -1.31445 -0.869486 0
M  V30 3026 C 286.183 -1.21097 -2.0093 0
M  V30 3027 C 287.199 -0.127584 -1.73532 0
M  V30 3028 O 288.375 -0.345477 -1.98415 0
M  V30 3029 C 285.44 -0.919378 -3.34288 0
M  V30 3030 C 284.501 -2.08971 -3.75006 0
M  V30 3031 C 283.734 -1.81194 -5.02001 0
M  V30 3032 O 283.957 -0.747296 -5.65484 0
M  V30 3033 O 282.891 -2.66883 -5.39497 0
M  V30 3034 H 286.717 -2.16883 -2.12592 0
M  V30 3035 H 284.302 -1.11189 -0.997868 0
M  V30 3036 H 286.184 -0.772625 -4.14257 0
M  V30 3037 H 284.859 0.00844772 -3.23699 0
M  V30 3038 H 283.766 -2.29187 -2.95676 0
M  V30 3039 H 285.099 -2.9998 -3.90221 0
M  V30 3040 N 286.751 1.08385 -1.14413 0
M  V30 3041 C 287.681 2.17321 -0.854044 0
M  V30 3042 C 288.662 1.69024 0.191049 0
M  V30 3043 O 289.847 1.94141 0.0476779 0
M  V30 3044 C 286.977 3.45719 -0.330983 0
M  V30 3045 C 285.931 4.07409 -1.31155 0
M  V30 3046 C 285.257 5.30762 -0.64778 0
M  V30 3047 C 286.557 4.48665 -2.67388 0
M  V30 3048 H 288.251 2.41845 -1.76498 0
M  V30 3049 H 285.797 1.16233 -0.850051 0
M  V30 3050 H 287.75 4.21241 -0.115645 0
M  V30 3051 H 286.474 3.2075 0.615381 0
M  V30 3052 H 285.133 3.33919 -1.51306 0
M  V30 3053 H 284.781 5.02078 0.304398 0
M  V30 3054 H 284.481 5.72992 -1.30207 0
M  V30 3055 H 286.005 6.08998 -0.441972 0
M  V30 3056 H 287.419 5.15364 -2.51143 0
M  V30 3057 H 285.816 5.01814 -3.29093 0
M  V30 3058 H 286.886 3.60543 -3.24248 0
M  V30 3059 N 288.23 0.939286 1.26551 0
M  V30 3060 C 289.14 0.453432 2.30176 0
M  V30 3061 C 290.156 -0.471649 1.67486 0
M  V30 3062 O 291.332 -0.35164 1.98306 0
M  V30 3063 C 288.397 -0.275326 3.45605 0
M  V30 3064 C 287.458 0.686084 4.23782 0
M  V30 3065 C 286.691 -0.00798994 5.33699 0
M  V30 3066 O 286.914 -1.22528 5.57085 0
M  V30 3067 O 285.848 0.669746 5.98162 0
M  V30 3068 H 289.674 1.31416 2.73795 0
M  V30 3069 H 287.259 0.705095 1.31715 0
M  V30 3070 H 289.141 -0.685911 4.1578 0
M  V30 3071 H 287.816 -1.11147 3.0402 0
M  V30 3072 H 286.723 1.14658 3.56096 0
M  V30 3073 H 288.056 1.48979 4.69112 0
M  V30 3074 N 289.708 -1.40897 0.706093 0
M  V30 3075 C 290.957 -2.00284 0.238574 0
M  V30 3076 C 291.27 -1.56604 -1.17194 0
M  V30 3077 O 292.476 -2.08624 -1.73748 0
M  V30 3078 C 290.932 -3.57934 0.375623 0
M  V30 3079 C 290.54 -4.10591 1.79217 0
M  V30 3080 C 292.284 -4.24488 -0.0315857 0
M  V30 3081 C 290.191 -5.60712 1.88032 0
M  V30 3082 H 289.121 -0.749144 0.0854398 0
M  V30 3083 H 291.772 -1.61251 0.875813 0
M  V30 3084 H 290.154 -3.94622 -0.330042 0
M  V30 3085 H 291.328 -3.85301 2.52745 0
M  V30 3086 H 289.643 -3.56601 2.15 0
M  V30 3087 H 292.24 -5.34698 0.0136842 0
M  V30 3088 H 292.583 -4.02261 -1.072 0
M  V30 3089 H 293.116 -3.92873 0.624181 0
M  V30 3090 H 289.855 -5.87781 2.90161 0
M  V30 3091 H 289.375 -5.87896 1.18903 0
M  V30 3092 H 291.054 -6.25658 1.64805 0
M  V30 3093 N 291.186 -0.45159 -1.50991 0
M  V30 3094 C 292.414 0.108334 -2.06616 0
M  V30 3095 C 292.829 1.35224 -1.31757 0
M  V30 3096 O 292.186 1.78475 -0.381174 0
M  V30 3097 C 292.237 0.41619 -3.59096 0
M  V30 3098 O 291.958 -0.778361 -4.3113 0
M  V30 3099 C 293.459 1.02523 -4.31282 0
M  V30 3100 H 290.679 0.00159995 -0.670998 0
M  V30 3101 H 293.223 -0.634771 -1.94399 0
M  V30 3102 H 291.378 1.10921 -3.71181 0
M  V30 3103 H 291.792 -0.511181 -5.22003 0
M  V30 3104 H 293.266 1.19053 -5.39009 0
M  V30 3105 H 293.743 2.01013 -3.905 0
M  V30 3106 H 294.349 0.371173 -4.23677 0
M  V30 3107 N 292.664 1.56529 -0.183458 0
M  V30 3108 C 293.889 2.02064 0.467428 0
M  V30 3109 C 294.314 1.06282 1.55196 0
M  V30 3110 O 293.672 0.0443565 1.81246 0
M  V30 3111 C 293.72 3.46122 1.01153 0
M  V30 3112 O 292.824 3.53437 2.12499 0
M  V30 3113 H 292.165 0.654726 0.110588 0
M  V30 3114 H 294.695 2.02521 -0.290917 0
M  V30 3115 H 294.705 3.85676 1.33108 0
M  V30 3116 H 293.38 4.15331 0.217533 0
M  V30 3117 H 291.957 3.2575 1.81497 0
M  V30 3118 N 294.142 -0.090211 1.57342 0
M  V30 3119 C 295.391 -0.791531 1.8552 0
M  V30 3120 C 295.704 -1.79659 0.773441 0
M  V30 3121 O 296.91 -2.54616 0.942497 0
M  V30 3122 C 295.366 -1.45856 3.2902 0
M  V30 3123 C 294.974 -0.493017 4.45279 0
M  V30 3124 C 296.718 -2.14332 3.66418 0
M  V30 3125 C 294.625 -1.16491 5.79814 0
M  V30 3126 H 293.555 -0.299356 0.692027 0
M  V30 3127 H 296.206 -0.0445343 1.83446 0
M  V30 3128 H 294.588 -2.25318 3.2565 0
M  V30 3129 H 295.762 0.270464 4.60006 0
M  V30 3130 H 294.077 0.0863061 4.16311 0
M  V30 3131 H 296.674 -2.65344 4.64216 0
M  V30 3132 H 297.017 -2.93447 2.95287 0
M  V30 3133 H 297.55 -1.41724 3.71698 0
M  V30 3134 H 294.289 -0.41447 6.54188 0
M  V30 3135 H 293.809 -1.8997 5.68921 0
M  V30 3136 H 295.488 -1.69001 6.24538 0
M  V30 3137 N 295.62 -1.53406 -0.361157 0
M  V30 3138 C 296.568 -1.80832 -1.46296 0
M  V30 3139 C 297.562 -0.677699 -1.55253 0
M  V30 3140 O 298.768 -0.860723 -1.58087 0
M  V30 3141 H 295.143 -0.572627 -0.487445 0
M  V30 3142 H 297.114 -2.73045 -1.20371 0
M  V30 3143 C 295.863 -2.01907 -2.8307 0
M  V30 3144 H 295.186 -2.88349 -2.76938 0
M  V30 3145 H 296.626 -2.25072 -3.59331 0
M  V30 3146 C 295.085 -0.799449 -3.27277 0
M  V30 3147 O 295.615 0.00971761 -4.01699 0
M  V30 3148 N 293.821 -0.621637 -2.83873 0
M  V30 3149 H 293.368 -1.28126 -2.23476 0
M  V30 3150 H 293.326 0.19298 -3.13807 0
M  V30 3151 N 297.098 0.621204 -1.44841 0
M  V30 3152 C 298.03 1.74615 -1.48466 0
M  V30 3153 C 299.043 1.58377 -0.37691 0
M  V30 3154 O 300.232 1.66508 -0.643215 0
M  V30 3155 C 297.332 3.12459 -1.31236 0
M  V30 3156 C 296.505 3.55064 -2.55438 0
M  V30 3157 C 295.564 4.71821 -2.32963 0
M  V30 3158 O 294.59 4.79628 -3.06505 0
M  V30 3159 N 295.792 5.64186 -1.36654 0
M  V30 3160 H 298.557 1.71973 -2.45449 0
M  V30 3161 H 296.118 0.806077 -1.40407 0
M  V30 3162 H 298.11 3.88302 -1.14032 0
M  V30 3163 H 296.68 3.09686 -0.4258 0
M  V30 3164 H 295.9 2.69324 -2.87851 0
M  V30 3165 H 297.188 3.80284 -3.38026 0
M  V30 3166 H 296.586 5.6058 -0.759344 0
M  V30 3167 H 295.143 6.39618 -1.25425 0
M  V30 3168 N 298.576 1.31904 0.862503 0
M  V30 3169 C 299.509 1.14514 1.97388 0
M  V30 3170 C 300.487 0.0466493 1.62533 0
M  V30 3171 O 301.671 0.204484 1.87388 0
M  V30 3172 C 298.798 0.751347 3.30261 0
M  V30 3173 C 297.844 1.85395 3.84098 0
M  V30 3174 S 298.677 3.46081 4.08642 0
M  V30 3175 C 299.833 3.08655 5.44502 0
M  V30 3176 H 300.066 2.08597 2.11836 0
M  V30 3177 H 297.599 1.16475 1.01356 0
M  V30 3178 H 299.557 0.530901 4.07052 0
M  V30 3179 H 298.218 -0.170493 3.13637 0
M  V30 3180 H 297.411 1.53122 4.80177 0
M  V30 3181 H 297.013 2.02984 3.14123 0
M  V30 3182 H 299.305 2.58012 6.26447 0
M  V30 3183 H 300.248 4.03726 5.81731 0
M  V30 3184 H 300.656 2.45891 5.08132 0
M  V30 3185 N 300.054 -1.07777 1.14986 0
M  V30 3186 C 301.284 -1.83752 0.944402 0
M  V30 3187 C 301.692 -1.8218 -0.51058 0
M  V30 3188 O 301.035 -1.22852 -1.36576 0
M  V30 3189 C 301.097 -3.32128 1.37592 0
M  V30 3190 C 300.761 -3.57425 2.84775 0
M  V30 3191 C 301.758 -3.5173 3.8286 0
M  V30 3192 C 299.443 -3.8523 3.2234 0
M  V30 3193 C 301.437 -3.73482 5.16517 0
M  V30 3194 C 299.124 -4.06634 4.56171 0
M  V30 3195 C 300.122 -4.00754 5.53069 0
M  V30 3196 O 299.81 -4.2159 6.84483 0
M  V30 3197 H 299.542 -0.58673 0.335744 0
M  V30 3198 H 302.096 -1.36982 1.53052 0
M  V30 3199 H 300.326 -3.79686 0.733165 0
M  V30 3200 H 302.015 -3.89555 1.14024 0
M  V30 3201 H 302.781 -3.30256 3.55184 0
M  V30 3202 H 298.66 -3.88923 2.47508 0
M  V30 3203 H 302.204 -3.68808 5.92137 0
M  V30 3204 H 298.101 -4.27593 4.83564 0
M  V30 3205 H 298.869 -4.38961 6.90837 0
M  V30 3206 N 301.532 -0.945985 -1.26051 0
M  V30 3207 C 302.462 -0.477172 -2.28572 0
M  V30 3208 C 303.443 0.472032 -1.63419 0
M  V30 3209 O 304.628 0.372853 -1.90587 0
M  V30 3210 C 301.758 0.253975 -3.4637 0
M  V30 3211 C 300.712 -0.609135 -4.23643 0
M  V30 3212 C 300.038 0.252252 -5.34105 0
M  V30 3213 C 301.338 -1.8829 -4.8718 0
M  V30 3214 H 303.032 -1.33402 -2.68038 0
M  V30 3215 H 300.578 -0.642904 -1.28852 0
M  V30 3216 H 302.531 0.593016 -4.17207 0
M  V30 3217 H 301.255 1.145 -3.05871 0
M  V30 3218 H 299.914 -0.931138 -3.54578 0
M  V30 3219 H 299.562 1.14278 -4.89846 0
M  V30 3220 H 299.262 -0.32188 -5.86718 0
M  V30 3221 H 300.786 0.586454 -6.07777 0
M  V30 3222 H 302.2 -1.61081 -5.50205 0
M  V30 3223 H 300.597 -2.40199 -5.49931 0
M  V30 3224 H 301.667 -2.59134 -4.09851 0
M  V30 3225 N 303.011 1.40521 -0.713556 0
M  V30 3226 C 303.921 2.34522 -0.0606667 0
M  V30 3227 C 304.937 1.57193 0.74607 0
M  V30 3228 O 306.113 1.89591 0.679493 0
M  V30 3229 C 303.178 3.36081 0.851491 0
M  V30 3230 C 302.239 4.29286 0.0349339 0
M  V30 3231 C 301.472 5.25994 0.903649 0
M  V30 3232 O 301.695 5.28616 2.14292 0
M  V30 3233 O 300.629 6.00918 0.343723 0
M  V30 3234 H 304.455 2.91968 -0.835972 0
M  V30 3235 H 302.04 1.41681 -0.47402 0
M  V30 3236 H 303.922 3.98369 1.37404 0
M  V30 3237 H 302.597 2.81052 1.60598 0
M  V30 3238 H 301.504 3.70289 -0.532633 0
M  V30 3239 H 302.837 4.87462 -0.681287 0
M  V30 3240 N 304.489 0.459591 1.5075 0
M  V30 3241 C 305.452 -0.329093 2.26825 0
M  V30 3242 C 306.452 -0.930481 1.31144 0
M  V30 3243 O 307.642 -0.801453 1.54669 0
M  V30 3244 C 304.774 -1.46768 3.07688 0
M  V30 3245 H 305.967 0.337924 2.9799 0
M  V30 3246 H 303.52 0.213336 1.54837 0
M  V30 3247 H 304.255 -2.17009 2.40993 0
M  V30 3248 H 304.04 -1.04238 3.77991 0
M  V30 3249 H 305.53 -2.02433 3.65254 0
M  V30 3250 N 305.967 -1.56429 0.191757 0
M  V30 3251 C 307.215 -1.97095 -0.447006 0
M  V30 3252 C 307.536 -1.07967 -1.62383 0
M  V30 3253 O 306.806 -0.150248 -1.95323 0
M  V30 3254 H 305.386 -0.727832 -0.168135 0
M  V30 3255 H 308.048 -1.92911 0.27771 0
M  V30 3256 H 307.144 -3.01848 -0.793371 0
M  V30 3257 N 307.445 0.0818655 -1.57387 0
M  V30 3258 C 308.393 1.11712 -2.04018 0
M  V30 3259 C 309.387 1.40683 -0.94364 0
M  V30 3260 O 310.593 1.40209 -1.12878 0
M  V30 3261 H 306.968 0.377542 -0.650358 0
M  V30 3262 H 308.939 0.697614 -2.90131 0
M  V30 3263 C 307.688 2.42537 -2.49141 0
M  V30 3264 H 307.011 2.21092 -3.33104 0
M  V30 3265 H 308.451 3.13446 -2.85531 0
M  V30 3266 C 306.91 3.0778 -1.37014 0
M  V30 3267 O 307.44 3.95436 -0.706621 0
M  V30 3268 N 305.646 2.68242 -1.11779 0
M  V30 3269 H 305.193 1.97052 -1.65917 0
M  V30 3270 H 305.151 3.1222 -0.369594 0
M  V30 3271 N 308.923 1.53595 0.353017 0
M  V30 3272 C 309.853 1.83902 1.43883 0
M  V30 3273 C 310.834 0.693421 1.55324 0
M  V30 3274 O 312.019 0.944452 1.69687 0
M  V30 3275 C 309.149 2.04016 2.8106 0
M  V30 3276 C 308.103 3.19814 2.84434 0
M  V30 3277 C 307.429 3.25244 4.24406 0
M  V30 3278 C 308.729 4.58133 2.50822 0
M  V30 3279 H 310.423 2.74835 1.1877 0
M  V30 3280 H 307.969 1.32242 0.569917 0
M  V30 3281 H 309.922 2.238 3.57059 0
M  V30 3282 H 308.646 1.09804 3.07588 0
M  V30 3283 H 307.305 2.9987 2.10887 0
M  V30 3284 H 306.953 2.28646 4.48029 0
M  V30 3285 H 306.653 4.03054 4.27576 0
M  V30 3286 H 308.177 3.47228 5.0226 0
M  V30 3287 H 309.591 4.77995 3.16534 0
M  V30 3288 H 307.988 5.38276 2.6529 0
M  V30 3289 H 309.058 4.62387 1.46034 0
M  V30 3290 N 310.401 -0.613514 1.45168 0
M  V30 3291 C 311.629 -1.39946 1.5239 0
M  V30 3292 C 312.044 -1.88167 0.154531 0
M  V30 3293 O 311.401 -1.61872 -0.842843 0
M  V30 3294 C 311.452 -2.60795 2.50337 0
M  V30 3295 O 311.173 -2.1458 3.81952 0
M  V30 3296 C 312.674 -3.53723 2.67198 0
M  V30 3297 H 309.894 -0.428593 0.516284 0
M  V30 3298 H 312.438 -0.748753 1.903 0
M  V30 3299 H 310.593 -3.21919 2.15515 0
M  V30 3300 H 311.007 -2.93055 4.34993 0
M  V30 3301 H 312.481 -4.35079 3.39721 0
M  V30 3302 H 312.958 -4.0368 1.73029 0
M  V30 3303 H 313.564 -2.98456 3.02992 0
M  V30 3304 N 311.879 -1.3236 -0.855495 0
M  V30 3305 C 313.125 -1.23054 -1.612 0
M  V30 3306 C 313.458 0.207404 -1.93089 0
M  V30 3307 O 312.733 1.14432 -1.57275 0
M  V30 3308 C 313.016 -2.08937 -2.93287 0
M  V30 3309 C 312.869 -3.61105 -2.68185 0
M  V30 3310 C 314.188 -1.94986 -3.94549 0
M  V30 3311 H 311.307 -0.448364 -0.584926 0
M  V30 3312 H 313.949 -1.62297 -0.987917 0
M  V30 3313 H 312.099 -1.75599 -3.46551 0
M  V30 3314 H 313.771 -4.04652 -2.21483 0
M  V30 3315 H 312.014 -3.83813 -2.02164 0
M  V30 3316 H 312.685 -4.16522 -3.62234 0
M  V30 3317 H 315.161 -2.24189 -3.5054 0
M  V30 3318 H 314.037 -2.57356 -4.84829 0
M  V30 3319 H 314.298 -0.917263 -4.3248 0
M  V30 3320 N 313.357 1.07166 -1.15556 0
M  V30 3321 C 314.267 2.17947 -0.868116 0
M  V30 3322 C 315.283 1.73297 0.156297 0
M  V30 3323 O 316.459 2.01392 -0.0182327 0
M  V30 3324 C 313.524 3.44789 -0.36355 0
M  V30 3325 C 312.585 4.03996 -1.45209 0
M  V30 3326 C 311.818 5.24783 -0.971508 0
M  V30 3327 O 312.041 5.70109 0.182194 0
M  V30 3328 O 310.975 5.75715 -1.75603 0
M  V30 3329 H 314.801 2.4503 -1.79427 0
M  V30 3330 H 312.386 1.16539 -0.934824 0
M  V30 3331 H 314.268 4.21307 -0.0887113 0
M  V30 3332 H 312.943 3.19253 0.534708 0
M  V30 3333 H 311.85 3.29009 -1.78056 0
M  V30 3334 H 313.183 4.33808 -2.32533 0
M  V30 3335 N 314.835 0.952656 1.25548 0
M  V30 3336 C 315.765 0.489287 2.28316 0
M  V30 3337 C 316.746 -0.463359 1.63667 0
M  V30 3338 O 317.931 -0.36274 1.90782 0
M  V30 3339 C 315.061 -0.235603 3.465 0
M  V30 3340 C 314.015 0.631593 4.23314 0
M  V30 3341 C 313.341 -0.223923 5.34231 0
M  V30 3342 C 314.641 1.90871 4.86174 0
M  V30 3343 H 316.335 1.34822 2.67326 0
M  V30 3344 H 313.881 0.649728 1.28509 0
M  V30 3345 H 315.834 -0.570882 4.17515 0
M  V30 3346 H 314.558 -1.12877 3.06474 0
M  V30 3347 H 313.217 0.949929 3.54079 0
M  V30 3348 H 312.865 -1.11678 4.90446 0
M  V30 3349 H 312.565 0.35299 5.86539 0
M  V30 3350 H 314.089 -0.554214 6.0808 0
M  V30 3351 H 315.503 1.63997 5.49343 0
M  V30 3352 H 313.9 2.43112 5.4865 0
M  V30 3353 H 314.97 2.61304 4.08471 0
M  V30 3354 N 316.313 -1.40141 0.720998 0
M  V30 3355 C 317.243 -2.33339 0.0867621 0
M  V30 3356 C 318.224 -1.53178 -0.739622 0
M  V30 3357 O 319.409 -1.81625 -0.687449 0
M  V30 3358 C 316.539 -3.37194 -0.831728 0
M  V30 3359 C 315.493 -4.27857 -0.110558 0
M  V30 3360 C 314.819 -5.22294 -1.14513 0
M  V30 3361 C 316.119 -5.11872 1.0385 0
M  V30 3362 H 317.813 -2.86626 0.865219 0
M  V30 3363 H 315.359 -1.37814 0.417516 0
M  V30 3364 H 317.312 -4.01335 -1.28485 0
M  V30 3365 H 316.036 -2.82314 -1.64214 0
M  V30 3366 H 314.695 -3.65176 0.322797 0
M  V30 3367 H 314.343 -4.63717 -1.94874 0
M  V30 3368 H 314.043 -5.83797 -0.667446 0
M  V30 3369 H 315.567 -5.89312 -1.59824 0
M  V30 3370 H 316.981 -5.69436 0.664482 0
M  V30 3371 H 315.378 -5.82445 1.4449 0
M  V30 3372 H 316.448 -4.4753 1.86668 0
M  V30 3373 N 317.792 -0.46758 -1.50504 0
M  V30 3374 C 319.04 0.0884469 -2.01906 0
M  V30 3375 C 319.361 1.40532 -1.35188 0
M  V30 3376 O 318.631 1.89515 -0.496079 0
M  V30 3377 H 317.211 0.0356765 -0.746148 0
M  V30 3378 H 319.873 -0.6172 -1.84869 0
M  V30 3379 H 318.969 0.2425 -3.11156 0
M  V30 3380 N 319.27 1.56325 -0.20005 0
M  V30 3381 C 320.686 1.58839 0.155716 0
M  V30 3382 C 320.886 1.21636 1.60645 0
M  V30 3383 O 319.942 0.941437 2.34293 0
M  V30 3384 C 321.255 3.0032 -0.151124 0
M  V30 3385 C 322.803 3.12866 -0.0916284 0
M  V30 3386 C 323.278 4.56488 -0.371845 0
M  V30 3387 N 324.769 4.62089 -0.320641 0
M  V30 3388 C 325.504 5.71116 -0.511243 0
M  V30 3389 N 325 6.88592 -0.762461 0
M  V30 3390 N 326.793 5.60335 -0.445157 0
M  V30 3391 H 318.944 1.78788 -1.14668 0
M  V30 3392 H 321.207 0.829996 -0.458051 0
M  V30 3393 H 320.913 3.32117 -1.15721 0
M  V30 3394 H 320.787 3.73257 0.543986 0
M  V30 3395 H 323.174 2.80878 0.905065 0
M  V30 3396 H 323.255 2.42304 -0.81989 0
M  V30 3397 H 322.899 4.89189 -1.36588 0
M  V30 3398 H 322.829 5.25246 0.377362 0
M  V30 3399 H 325.32 3.77665 -0.13329 0
M  V30 3400 H 325.633 7.67581 -0.896576 0
M  V30 3401 H 323.978 6.90387 -0.799412 0
M  V30 3402 H 327.169 4.67436 -0.249278 0
M  V30 3403 H 327.342 6.45243 -0.597116 0
M  V30 3404 N 320.748 -0.0735177 1.57428 0
M  V30 3405 C 321.996 -0.771472 1.86796 0
M  V30 3406 C 322.317 -1.78201 0.791804 0
M  V30 3407 O 321.587 -1.95074 -0.179718 0
M  V30 3408 H 320.167 -0.28791 0.689287 0
M  V30 3409 H 322.829 -0.0500161 1.94836 0
M  V30 3410 H 321.925 -1.28874 2.8425 0
M  V30 3411 N 322.226 -1.5378 -0.344866 0
M  V30 3412 C 323.473 -1.70963 -1.08526 0
M  V30 3413 C 323.801 -0.472126 -1.88683 0
M  V30 3414 O 323.056 0.546116 -1.87926 0
M  V30 3415 C 323.355 -2.92407 -2.05506 0
M  V30 3416 C 323.021 -4.28066 -1.41671 0
M  V30 3417 C 321.683 -4.64951 -1.2399 0
M  V30 3418 C 324.035 -5.12344 -0.956726 0
M  V30 3419 C 321.363 -5.83733 -0.589277 0
M  V30 3420 C 323.715 -6.3179 -0.320015 0
M  V30 3421 C 322.379 -6.67372 -0.130881 0
M  V30 3422 H 321.649 -0.625598 -0.397124 0
M  V30 3423 H 324.296 -1.87995 -0.36469 0
M  V30 3424 H 322.601 -2.69973 -2.8394 0
M  V30 3425 H 324.298 -3.02895 -2.62784 0
M  V30 3426 H 320.888 -3.99034 -1.56429 0
M  V30 3427 H 325.072 -4.8438 -1.08118 0
M  V30 3428 H 320.328 -6.09877 -0.431344 0
M  V30 3429 H 324.502 -6.96386 0.0445072 0
M  V30 3430 H 322.129 -7.59273 0.375318 0
M  V30 3431 N 323.704 0.605807 -1.45491 0
M  V30 3432 C 324.667 1.69836 -1.5391 0
M  V30 3433 C 325.667 1.55261 -0.418424 0
M  V30 3434 O 326.857 1.60296 -0.681965 0
M  V30 3435 C 323.989 3.09117 -1.43734 0
M  V30 3436 H 325.182 1.63738 -2.51257 0
M  V30 3437 H 322.735 0.821689 -1.32959 0
M  V30 3438 H 323.47 3.20791 -0.475788 0
M  V30 3439 H 323.255 3.21104 -2.25021 0
M  V30 3440 H 324.745 3.88696 -1.52661 0
M  V30 3441 N 325.182 1.32811 0.848464 0
M  V30 3442 C 326.428 1.24917 1.60522 0
M  V30 3443 C 326.783 -0.185761 1.91501 0
M  V30 3444 O 326.076 -1.12524 1.55077 0
M  V30 3445 C 326.27 2.04831 2.92881 0
M  V30 3446 C 326.099 3.55949 2.74828 0
M  V30 3447 C 324.869 4.25277 2.72887 0
M  V30 3448 C 327.067 4.50476 2.48145 0
M  V30 3449 N 325.049 5.62408 2.46111 0
M  V30 3450 C 326.42 5.75427 2.30832 0
M  V30 3451 C 328.475 4.39665 2.33664 0
M  V30 3452 C 327.178 6.90789 2.00508 0
M  V30 3453 C 329.204 5.54833 2.04731 0
M  V30 3454 C 328.566 6.78787 1.88223 0
M  V30 3455 H 324.665 0.512279 0.590842 0
M  V30 3456 H 327.249 1.67246 0.996839 0
M  V30 3457 H 325.42 1.64837 3.51686 0
M  V30 3458 H 327.152 1.88782 3.57971 0
M  V30 3459 H 323.907 3.77456 2.86049 0
M  V30 3460 H 324.331 6.3467 2.35634 0
M  V30 3461 H 328.973 3.44477 2.45144 0
M  V30 3462 H 326.691 7.85984 1.87765 0
M  V30 3463 H 330.277 5.48398 1.94295 0
M  V30 3464 H 329.157 7.66396 1.66155 0
M  V30 3465 N 326.66 -1.06551 1.16123 0
M  V30 3466 C 327.59 -2.15935 0.88851 0
M  V30 3467 C 328.571 -1.69306 -0.164135 0
M  V30 3468 O 329.756 -1.94193 -0.0167857 0
M  V30 3469 C 326.886 -3.45149 0.385942 0
M  V30 3470 C 325.84 -4.05271 1.3762 0
M  V30 3471 C 325.166 -5.29664 0.732137 0
M  V30 3472 C 326.466 -4.44355 2.74493 0
M  V30 3473 H 328.16 -2.39006 1.80323 0
M  V30 3474 H 325.706 -1.14866 0.868435 0
M  V30 3475 H 327.659 -4.21004 0.182647 0
M  V30 3476 H 326.383 -3.21689 -0.564274 0
M  V30 3477 H 325.042 -3.3147 1.56599 0
M  V30 3478 H 324.69 -5.02499 -0.224483 0
M  V30 3479 H 324.39 -5.70848 1.39307 0
M  V30 3480 H 325.914 -6.08218 0.538802 0
M  V30 3481 H 327.328 -5.11303 2.59311 0
M  V30 3482 H 325.725 -4.96515 3.37035 0
M  V30 3483 H 326.795 -3.55339 3.29943 0
M  V30 3484 N 328.138 -0.959301 -1.25041 0
M  V30 3485 C 329.415 -0.533805 -1.88175 0
M  V30 3486 C 329.795 0.988994 -1.865 0
M  V30 3487 O 329.143 1.85677 -1.33177 0
M  V30 3488 C 329.353 -1.11575 -3.30684 0
M  V30 3489 C 330.701 -1.19548 -4.07423 0
M  V30 3490 O 331.725 -1.06765 -3.39823 0
M  V30 3491 O 330.584 -1.39656 -5.28354 0
M  V30 3492 H 327.678 -0.176772 -0.807887 0
M  V30 3493 H 330.224 -1.05303 -1.33076 0
M  V30 3494 H 328.996 -2.15884 -3.26358 0
M  V30 3495 H 328.619 -0.580059 -3.93346 0
M  V30 3496 N 329.616 1.39756 -0.72842 0
M  V30 3497 C 330.844 2.04948 -0.283528 0
M  V30 3498 C 331.259 1.54908 1.0793 0
M  V30 3499 O 330.616 0.711135 1.68075 0
M  V30 3500 C 330.667 3.60498 -0.268957 0
M  V30 3501 O 330.388 4.08695 -1.57798 0
M  V30 3502 C 331.889 4.4288 0.192912 0
M  V30 3503 H 329.109 0.659243 -0.125056 0
M  V30 3504 H 331.653 1.78927 -0.990226 0
M  V30 3505 H 329.808 3.85444 0.388801 0
M  V30 3506 H 330.222 5.02977 -1.48709 0
M  V30 3507 H 331.696 5.51791 0.151952 0
M  V30 3508 H 332.173 4.21418 1.23708 0
M  V30 3509 H 332.779 4.23069 -0.435039 0
M  V30 3510 N 331.094 0.475555 1.50254 0
M  V30 3511 C 332.342 -0.077738 2.0195 0
M  V30 3512 C 332.663 -1.39813 1.35931 0
M  V30 3513 O 331.933 -1.89249 0.506123 0
M  V30 3514 H 330.513 -0.031719 0.746326 0
M  V30 3515 H 333.175 0.626995 1.84539 0
M  V30 3516 H 332.271 -0.225995 3.11281 0
M  V30 3517 N 332.573 -1.56217 0.208337 0
M  V30 3518 C 333.801 -2.02337 -0.43215 0
M  V30 3519 C 334.216 -1.08834 -1.54275 0
M  V30 3520 O 333.573 -0.0955462 -1.8225 0
M  V30 3521 C 333.624 -3.48072 -0.976138 0
M  V30 3522 O 333.345 -4.38007 0.0901621 0
M  V30 3523 C 334.846 -4.09773 -1.69119 0
M  V30 3524 H 332.066 -0.662385 -0.10718 0
M  V30 3525 H 334.61 -2.01966 0.320923 0
M  V30 3526 H 332.765 -3.49099 -1.67954 0
M  V30 3527 H 333.179 -5.23543 -0.316701 0
M  V30 3528 H 334.653 -5.13556 -2.02397 0
M  V30 3529 H 335.13 -3.53999 -2.59964 0
M  V30 3530 H 335.736 -4.12556 -1.03332 0
M  V30 3531 N 334.051 0.0651679 -1.57465 0
M  V30 3532 C 335.001 1.0838 -2.00594 0
M  V30 3533 C 335.985 1.34106 -0.889071 0
M  V30 3534 O 337.177 1.34295 -1.15299 0
M  V30 3535 C 334.306 2.39565 -2.45894 0
M  V30 3536 C 333.392 2.17085 -3.64328 0
M  V30 3537 N 333.783 1.64553 -4.78285 0
M  V30 3538 C 332.081 2.4753 -3.71006 0
M  V30 3539 C 332.782 1.57042 -5.60101 0
M  V30 3540 N 331.758 2.03328 -5.04141 0
M  V30 3541 H 335.56 0.671062 -2.86136 0
M  V30 3542 H 333.074 0.27213 -1.60104 0
M  V30 3543 H 335.071 3.13308 -2.75034 0
M  V30 3544 H 333.731 2.81549 -1.61741 0
M  V30 3545 H 334.742 1.33323 -5.00445 0
M  V30 3546 H 331.419 2.92835 -2.9758 0
M  V30 3547 H 332.809 1.17223 -6.61595 0
M  V30 3548 N 335.529 1.53961 0.336706 0
M  V30 3549 C 336.806 1.62171 1.09361 0
M  V30 3550 C 337.186 0.447263 2.06307 0
M  V30 3551 O 336.534 -0.559802 2.21537 0
M  V30 3552 C 336.744 2.98565 1.80721 0
M  V30 3553 C 338.092 3.54157 2.34218 0
M  V30 3554 O 339.116 3.00784 1.90807 0
M  V30 3555 O 337.975 4.47528 3.13657 0
M  V30 3556 H 335.069 0.6562 0.503319 0
M  V30 3557 H 337.615 1.66307 0.33765 0
M  V30 3558 H 336.387 3.75482 1.10132 0
M  V30 3559 H 336.01 2.9805 2.63158 0
M  V30 3560 N 337.007 -0.598083 1.45811 0
M  V30 3561 C 338.232 -1.3881 1.54099 0
M  V30 3562 C 338.657 -1.8726 0.177578 0
M  V30 3563 O 338.015 -1.6069 -0.839541 0
M  V30 3564 C 338.063 -2.56217 2.53743 0
M  V30 3565 O 337.167 -3.5716 2.06182 0
M  V30 3566 H 336.508 -0.414024 0.519115 0
M  V30 3567 H 339.038 -0.726971 1.91249 0
M  V30 3568 H 339.048 -3.03337 2.72856 0
M  V30 3569 H 337.723 -2.20303 3.5276 0
M  V30 3570 H 336.3 -3.16624 1.96987 0
M  V30 3571 N 338.485 -1.33259 -0.841409 0
M  V30 3572 C 339.415 -1.25926 -1.96634 0
M  V30 3573 C 340.396 -0.140349 -1.6952 0
M  V30 3574 O 341.581 -0.329707 -1.91381 0
M  V30 3575 C 338.711 -0.99512 -3.32738 0
M  V30 3576 C 337.665 -2.0767 -3.74242 0
M  V30 3577 C 336.991 -1.66474 -5.08125 0
M  V30 3578 C 338.291 -3.49318 -3.88297 0
M  V30 3579 H 339.985 -2.20046 -2.03027 0
M  V30 3580 H 337.531 -1.05931 -0.975425 0
M  V30 3581 H 339.484 -0.930323 -4.11002 0
M  V30 3582 H 338.208 -0.0183004 -3.26595 0
M  V30 3583 H 336.867 -2.13187 -2.98239 0
M  V30 3584 H 336.515 -0.675012 -4.9845 0
M  V30 3585 H 336.215 -2.3885 -5.36865 0
M  V30 3586 H 337.739 -1.61455 -5.88867 0
M  V30 3587 H 339.153 -3.46316 -4.56879 0
M  V30 3588 H 337.55 -4.20158 -4.28471 0
M  V30 3589 H 338.62 -3.8801 -2.9082 0
M  V30 3590 N 339.963 1.05934 -1.16686 0
M  V30 3591 C 341.212 1.78188 -0.945085 0
M  V30 3592 C 341.525 1.88338 0.528021 0
M  V30 3593 O 342.731 2.57258 0.867799 0
M  V30 3594 C 341.187 3.20277 -1.64167 0
M  V30 3595 C 340.795 3.18281 -3.15279 0
M  V30 3596 C 342.539 3.97039 -1.502 0
M  V30 3597 C 340.446 4.55112 -3.7766 0
M  V30 3598 H 339.376 0.667866 -0.349959 0
M  V30 3599 H 342.027 1.18794 -1.39858 0
M  V30 3600 H 340.409 3.79952 -1.11589 0
M  V30 3601 H 341.583 2.68167 -3.74731 0
M  V30 3602 H 339.898 2.55018 -3.29173 0
M  V30 3603 H 342.495 4.98194 -1.94183 0
M  V30 3604 H 342.838 4.13845 -0.451461 0
M  V30 3605 H 343.371 3.43894 -1.99954 0
M  V30 3606 H 340.11 4.43512 -4.82677 0
M  V30 3607 H 339.63 5.05406 -3.22994 0
M  V30 3608 H 341.309 5.24064 -3.79428 0
M  V30 3609 N 341.441 0.965919 1.2453 0
M  V30 3610 C 342.351 0.502154 2.29163 0
M  V30 3611 C 343.367 -0.436017 1.68448 0
M  V30 3612 O 344.543 -0.309497 1.99008 0
M  V30 3613 C 341.608 -0.201956 3.46111 0
M  V30 3614 C 340.669 0.775821 4.22232 0
M  V30 3615 C 339.902 0.105217 5.33596 0
M  V30 3616 O 340.125 -1.10683 5.59558 0
M  V30 3617 O 339.059 0.796475 5.96607 0
M  V30 3618 H 342.885 1.37194 2.70946 0
M  V30 3619 H 340.47 0.732875 1.30189 0
M  V30 3620 H 342.352 -0.597564 4.17142 0
M  V30 3621 H 341.027 -1.04673 3.06309 0
M  V30 3622 H 339.934 1.22185 3.53584 0
M  V30 3623 H 341.267 1.58896 4.65846 0
M  V30 3624 N 342.919 -1.39368 0.735821 0
M  V30 3625 C 343.882 -2.2896 0.104874 0
M  V30 3626 C 344.882 -1.46347 -0.666274 0
M  V30 3627 O 346.072 -1.67014 -0.49517 0
M  V30 3628 C 343.204 -3.29857 -0.860656 0
M  V30 3629 H 344.397 -2.86259 0.894205 0
M  V30 3630 H 341.95 -1.48029 0.501704 0
M  V30 3631 H 342.685 -2.77615 -1.67631 0
M  V30 3632 H 342.47 -3.9087 -0.310327 0
M  V30 3633 H 343.96 -3.96893 -1.29867 0
M  V30 3634 N 344.397 -0.483516 -1.5 0
M  V30 3635 C 345.622 0.0667119 -2.07293 0
M  V30 3636 C 346.047 1.3164 -1.3436 0
M  V30 3637 O 345.405 1.76945 -0.394987 0
M  V30 3638 C 345.453 0.321126 -3.59167 0
M  V30 3639 O 344.557 1.39927 -3.87936 0
M  V30 3640 H 343.898 -0.0184758 -0.663743 0
M  V30 3641 H 346.428 -0.678125 -1.93035 0
M  V30 3642 H 346.438 0.557906 -4.04168 0
M  V30 3643 H 345.113 -0.592007 -4.11665 0
M  V30 3644 H 343.69 1.14882 -3.54763 0
M  V30 3645 N 345.875 1.56104 -0.216619 0
M  V30 3646 C 347.103 2.02563 0.421413 0
M  V30 3647 C 347.518 1.0965 1.53695 0
M  V30 3648 O 346.875 0.10521 1.82196 0
M  V30 3649 C 346.926 3.48584 0.957665 0
M  V30 3650 O 346.647 4.37953 -0.113389 0
M  V30 3651 C 348.148 4.10664 1.66943 0
M  V30 3652 H 345.368 0.662944 0.103665 0
M  V30 3653 H 347.912 2.01793 -0.331629 0
M  V30 3654 H 346.067 3.49985 1.661 0
M  V30 3655 H 346.481 5.23704 0.288932 0
M  V30 3656 H 347.955 5.14622 1.99671 0
M  V30 3657 H 348.432 3.55373 2.58083 0
M  V30 3658 H 349.038 4.13098 1.01142 0
M  V30 3659 N 347.353 -0.0568162 1.57498 0
M  V30 3660 C 348.6 -0.753104 1.87975 0
M  V30 3661 C 348.928 -1.76815 0.81035 0
M  V30 3662 O 348.183 -1.94756 -0.19199 0
M  V30 3663 C 348.482 -1.48359 3.25153 0
M  V30 3664 C 348.148 -0.60713 4.46794 0
M  V30 3665 C 346.81 -0.365642 4.79809 0
M  V30 3666 C 349.162 -0.000305978 5.212 0
M  V30 3667 C 346.49 0.491905 5.84634 0
M  V30 3668 C 348.842 0.844781 6.26934 0
M  V30 3669 C 347.506 1.096 6.58441 0
M  V30 3670 H 346.776 -0.27558 0.687849 0
M  V30 3671 H 349.423 -0.0135173 1.91495 0
M  V30 3672 H 347.728 -2.29577 3.17492 0
M  V30 3673 H 349.425 -2.02739 3.45974 0
M  V30 3674 H 346.015 -0.805487 4.20963 0
M  V30 3675 H 350.199 -0.173961 4.95995 0
M  V30 3676 H 345.455 0.695131 6.07436 0
M  V30 3677 H 349.629 1.32165 6.83744 0
M  V30 3678 H 347.256 1.76224 7.39492 0
M  V30 3679 N 348.832 -1.54138 -0.328536 0
M  V30 3680 C 350.078 -1.7236 -1.06865 0
M  V30 3681 C 350.411 -0.493231 -1.87832 0
M  V30 3682 O 349.686 0.5098 -1.877 0
M  V30 3683 C 349.969 -2.99621 -1.99747 0
M  V30 3684 C 349.822 -4.32899 -1.22143 0
M  V30 3685 C 351.141 -3.22615 -2.99345 0
M  V30 3686 H 348.26 -0.627151 -0.387105 0
M  V30 3687 H 350.902 -1.86827 -0.345767 0
M  V30 3688 H 349.052 -2.87418 -2.61387 0
M  V30 3689 H 350.724 -4.56978 -0.630017 0
M  V30 3690 H 348.967 -4.30628 -0.523628 0
M  V30 3691 H 349.638 -5.18154 -1.90318 0
M  V30 3692 H 352.114 -3.34248 -2.47826 0
M  V30 3693 H 350.99 -4.13027 -3.61524 0
M  V30 3694 H 351.251 -2.3961 -3.71536 0
M  V30 3695 N 350.31 0.590341 -1.46126 0
M  V30 3696 C 351.242 1.71427 -1.52136 0
M  V30 3697 C 352.255 1.57542 -0.41042 0
M  V30 3698 O 353.444 1.65106 -0.678389 0
M  V30 3699 C 350.544 3.09605 -1.37834 0
M  V30 3700 C 349.717 3.49566 -2.62912 0
M  V30 3701 C 348.776 4.66773 -2.42918 0
M  V30 3702 O 347.802 4.73019 -3.1661 0
M  V30 3703 N 349.004 5.61161 -1.4859 0
M  V30 3704 H 351.769 1.66728 -2.49042 0
M  V30 3705 H 349.33 0.776113 -1.42085 0
M  V30 3706 H 351.322 3.85796 -1.22243 0
M  V30 3707 H 349.892 3.08714 -0.491393 0
M  V30 3708 H 349.112 2.63158 -2.93499 0
M  V30 3709 H 350.4 3.73028 -3.46017 0
M  V30 3710 H 349.798 5.58844 -0.87808 0
M  V30 3711 H 348.355 6.36814 -1.38965 0
M  V30 3712 N 351.788 1.33704 0.83433 0
M  V30 3713 C 353.016 1.28467 1.62185 0
M  V30 3714 C 353.431 -0.143526 1.88254 0
M  V30 3715 O 352.788 -1.08709 1.4659 0
M  V30 3716 C 352.839 2.06174 2.96942 0
M  V30 3717 O 352.56 3.43422 2.72016 0
M  V30 3718 C 354.061 2.08201 3.91366 0
M  V30 3719 H 351.281 0.4424 0.504503 0
M  V30 3720 H 353.825 1.76145 1.03891 0
M  V30 3721 H 351.98 1.62167 3.51825 0
M  V30 3722 H 352.394 3.83453 3.57861 0
M  V30 3723 H 353.868 2.67017 4.83121 0
M  V30 3724 H 354.345 1.07343 4.2588 0
M  V30 3725 H 354.951 2.52246 3.42421 0
M  V30 3726 N 353.266 -1.05314 1.17247 0
M  V30 3727 C 354.512 -1.78557 0.961513 0
M  V30 3728 C 354.845 -1.87419 -0.508697 0
M  V30 3729 O 354.12 -1.37307 -1.37757 0
M  V30 3730 C 354.403 -3.22514 1.60176 0
M  V30 3731 C 354.256 -3.21673 3.14399 0
M  V30 3732 C 355.575 -4.20318 1.30463 0
M  V30 3733 H 352.694 -0.6482 0.350723 0
M  V30 3734 H 355.336 -1.23102 1.44727 0
M  V30 3735 H 353.486 -3.69867 1.18871 0
M  V30 3736 H 355.158 -2.82405 3.64753 0
M  V30 3737 H 353.401 -2.60048 3.47214 0
M  V30 3738 H 354.072 -4.23271 3.54324 0
M  V30 3739 H 356.548 -3.81454 1.66229 0
M  V30 3740 H 355.424 -5.19289 1.77848 0
M  V30 3741 H 355.685 -4.41526 0.22521 0
M  V30 3742 N 354.744 -0.972509 -1.24016 0
M  V30 3743 C 355.654 -0.5143 -2.28893 0
M  V30 3744 C 356.67 0.427078 -1.68677 0
M  V30 3745 O 357.846 0.298939 -1.99169 0
M  V30 3746 C 354.911 0.183598 -3.46214 0
M  V30 3747 C 353.972 -0.798202 -4.21814 0
M  V30 3748 C 353.205 -0.133514 -5.33533 0
M  V30 3749 O 353.428 1.07714 -5.60137 0
M  V30 3750 O 352.362 -0.828103 -5.96176 0
M  V30 3751 H 356.188 -1.38629 -2.70214 0
M  V30 3752 H 353.773 -0.739769 -1.29799 0
M  V30 3753 H 355.655 0.575433 -4.17453 0
M  V30 3754 H 354.33 1.03048 -3.0686 0
M  V30 3755 H 353.237 -1.24059 -3.52931 0
M  V30 3756 H 354.57 -1.61364 -4.64997 0
M  V30 3757 N 356.222 1.38976 -0.743202 0
M  V30 3758 C 357.169 2.30544 -0.10861 0
M  V30 3759 C 358.139 1.49642 0.720869 0
M  V30 3760 O 359.324 1.78304 0.679142 0
M  V30 3761 C 356.464 3.36018 0.786496 0
M  V30 3762 C 355.577 4.31963 -0.0564849 0
M  V30 3763 C 354.712 5.24506 0.840657 0
M  V30 3764 C 353.751 6.121 -0.00658363 0
M  V30 3765 N 352.888 6.96973 0.846943 0
M  V30 3766 H 357.728 2.8424 -0.895088 0
M  V30 3767 H 355.265 1.3995 -0.453048 0
M  V30 3768 H 357.223 3.95768 1.31999 0
M  V30 3769 H 355.853 2.83758 1.53887 0
M  V30 3770 H 354.905 3.73763 -0.707492 0
M  V30 3771 H 356.217 4.93703 -0.711229 0
M  V30 3772 H 355.371 5.89322 1.4417 0
M  V30 3773 H 354.11 4.63107 1.52916 0
M  V30 3774 H 353.115 5.46289 -0.620366 0
M  V30 3775 H 354.34 6.75565 -0.691992 0
M  V30 3776 H 352.286 6.38133 1.52059 0
M  V30 3777 H 352.203 7.5559 0.248864 0
M  V30 3778 H 353.471 7.6621 1.43328 0
M  V30 3779 N 357.7 0.491464 1.49741 0
M  V30 3780 C 359.116 0.146835 1.58923 0
M  V30 3781 C 359.316 -1.34804 1.49767 0
M  V30 3782 O 358.372 -2.12317 1.36667 0
M  V30 3783 C 359.685 0.715157 2.92072 0
M  V30 3784 C 361.233 0.680407 3.05515 0
M  V30 3785 C 361.708 1.22663 4.41269 0
M  V30 3786 N 363.199 1.18691 4.47735 0
M  V30 3787 C 363.934 1.57984 5.51207 0
M  V30 3788 N 363.43 2.04824 6.6183 0
M  V30 3789 N 365.223 1.49459 5.41866 0
M  V30 3790 H 357.374 1.46347 1.53936 0
M  V30 3791 H 359.637 0.606453 0.728642 0
M  V30 3792 H 359.343 1.76317 3.04311 0
M  V30 3793 H 359.217 0.17018 3.76816 0
M  V30 3794 H 361.604 -0.358743 2.92911 0
M  V30 3795 H 361.685 1.26242 2.22478 0
M  V30 3796 H 361.329 2.26451 4.54623 0
M  V30 3797 H 361.259 0.620637 5.2293 0
M  V30 3798 H 363.75 0.843605 3.68364 0
M  V30 3799 H 364.063 2.32901 7.3687 0
M  V30 3800 H 362.408 2.08791 6.62896 0
M  V30 3801 H 365.599 1.12692 4.54333 0
M  V30 3802 H 365.772 1.80406 6.22381 0
M  V30 3803 N 359.178 -1.55987 0.224894 0
M  V30 3804 C 360.11 -2.17722 -0.716224 0
M  V30 3805 C 361.123 -1.14723 -1.15509 0
M  V30 3806 O 362.312 -1.41688 -1.08567 0
M  V30 3807 C 359.412 -2.74873 -1.98238 0
M  V30 3808 C 358.585 -4.03074 -1.69853 0
M  V30 3809 C 357.644 -4.44757 -2.81208 0
M  V30 3810 O 356.67 -5.11587 -2.49534 0
M  V30 3811 N 357.872 -4.10716 -4.10235 0
M  V30 3812 H 360.637 -2.99109 -0.188123 0
M  V30 3813 H 358.198 -1.6184 0.0440123 0
M  V30 3814 H 360.19 -2.99727 -2.7193 0
M  V30 3815 H 358.76 -1.9777 -2.42086 0
M  V30 3816 H 357.98 -3.86041 -0.797875 0
M  V30 3817 H 359.268 -4.86701 -1.48324 0
M  V30 3818 H 358.666 -3.57019 -4.38809 0
M  V30 3819 H 357.223 -4.40455 -4.80461 0
M  V30 3820 N 360.656 0.0484629 -1.57525 0
M  V30 3821 C 361.904 0.741657 -1.88 0
M  V30 3822 C 362.225 1.76918 -0.820054 0
M  V30 3823 O 361.495 1.95335 0.148661 0
M  V30 3824 H 360.075 0.276908 -0.69378 0
M  V30 3825 H 362.737 0.019013 -1.94891 0
M  V30 3826 H 361.833 1.24336 -2.86264 0
M  V30 3827 N 362.134 1.5431 0.320358 0
M  V30 3828 C 363.381 1.72668 1.05792 0
M  V30 3829 C 363.709 0.502084 1.87908 0
M  V30 3830 O 362.964 -0.516149 1.88771 0
M  V30 3831 C 363.263 2.95639 2.00828 0
M  V30 3832 C 362.929 4.30265 1.34843 0
M  V30 3833 C 361.591 4.66865 1.16578 0
M  V30 3834 C 363.943 5.13801 0.875095 0
M  V30 3835 C 361.271 5.84597 0.496336 0
M  V30 3836 C 363.623 6.32219 0.219463 0
M  V30 3837 C 362.287 6.67495 0.0246915 0
M  V30 3838 H 361.557 0.631837 0.387121 0
M  V30 3839 H 364.204 1.88552 0.334735 0
M  V30 3840 H 362.509 2.74456 2.79609 0
M  V30 3841 H 364.206 3.07038 2.57932 0
M  V30 3842 H 360.796 4.01472 1.50061 0
M  V30 3843 H 364.98 4.86039 1.00398 0
M  V30 3844 H 360.236 6.10486 0.334264 0
M  V30 3845 H 364.41 6.96227 -0.155291 0
M  V30 3846 H 362.037 7.5858 -0.496065 0
M  V30 3847 N 363.613 -0.582584 1.46437 0
M  V30 3848 C 364.56 -1.69164 1.5701 0
M  V30 3849 C 365.53 -1.60847 0.414403 0
M  V30 3850 O 366.715 -1.80058 0.631171 0
M  V30 3851 C 363.855 -3.075 1.56646 0
M  V30 3852 C 362.968 -3.2644 2.82951 0
M  V30 3853 C 362.103 -4.55026 2.7409 0
M  V30 3854 C 361.142 -4.6731 3.95333 0
M  V30 3855 N 360.279 -5.87221 3.84858 0
M  V30 3856 H 365.119 -1.59464 2.51744 0
M  V30 3857 H 362.656 -0.777186 1.24893 0
M  V30 3858 H 364.614 -3.8757 1.5442 0
M  V30 3859 H 363.244 -3.16096 0.654439 0
M  V30 3860 H 362.296 -2.39974 2.95155 0
M  V30 3861 H 363.608 -3.31385 3.72808 0
M  V30 3862 H 362.762 -5.43324 2.6997 0
M  V30 3863 H 361.501 -4.52519 1.81873 0
M  V30 3864 H 360.506 -3.77429 3.99784 0
M  V30 3865 H 361.731 -4.71595 4.88646 0
M  V30 3866 H 359.677 -5.85712 2.95427 0
M  V30 3867 H 359.594 -5.93435 4.6837 0
M  V30 3868 H 360.862 -6.7795 3.84713 0
M  V30 3869 N 365.091 -1.34144 -0.827227 0
M  V30 3870 C 366.34 -1.25602 -1.5782 0
M  V30 3871 C 366.653 0.173445 -1.94829 0
M  V30 3872 O 367.859 0.380984 -2.68814 0
M  V30 3873 C 366.315 -2.20151 -2.84713 0
M  V30 3874 C 365.923 -3.68331 -2.55021 0
M  V30 3875 C 367.667 -2.20508 -3.62735 0
M  V30 3876 C 365.574 -4.54762 -3.78082 0
M  V30 3877 H 364.504 -0.466573 -0.592306 0
M  V30 3878 H 367.155 -1.59283 -0.911116 0
M  V30 3879 H 365.537 -1.79417 -3.53023 0
M  V30 3880 H 366.711 -4.17577 -1.94849 0
M  V30 3881 H 365.026 -3.7038 -1.90283 0
M  V30 3882 H 367.623 -2.82306 -4.54101 0
M  V30 3883 H 367.966 -1.20322 -3.98533 0
M  V30 3884 H 368.499 -2.59664 -3.01362 0
M  V30 3885 H 365.238 -5.55867 -3.47407 0
M  V30 3886 H 364.758 -4.10254 -4.37552 0
M  V30 3887 H 366.437 -4.69153 -4.45538 0
M  V30 3888 N 366.569 1.04691 -1.17803 0
M  V30 3889 C 367.532 2.10724 -0.901545 0
M  V30 3890 C 368.532 1.6042 0.110437 0
M  V30 3891 O 369.722 1.7377 -0.122303 0
M  V30 3892 C 366.854 3.39084 -0.351409 0
M  V30 3893 H 368.047 2.36686 -1.84174 0
M  V30 3894 H 365.6 1.21015 -0.98919 0
M  V30 3895 H 366.335 3.18782 0.59569 0
M  V30 3896 H 366.12 3.76909 -1.08083 0
M  V30 3897 H 367.61 4.17227 -0.176451 0
M  V30 3898 N 368.047 0.979072 1.23499 0
M  V30 3899 C 369.287 0.655228 1.93613 0
M  V30 3900 C 369.651 -0.796336 1.74707 0
M  V30 3901 O 370.852 -1.23094 2.38959 0
M  V30 3902 C 369.123 1.03337 3.42135 0
M  V30 3903 S 370.682 0.825793 4.3096 0
M  V30 3904 H 367.5 0.240004 0.669267 0
M  V30 3905 H 370.102 1.25843 1.49612 0
M  V30 3906 H 368.806 2.08646 3.53405 0
M  V30 3907 H 368.337 0.421397 3.91137 0
M  V30 3908 H 370.352 -0.290991 4.95346 0
M  V30 3909 N 369.525 -1.3858 0.750561 0
M  V30 3910 C 370.455 -2.33102 0.136237 0
M  V30 3911 C 371.436 -1.54713 -0.706965 0
M  V30 3912 O 372.621 -1.83043 -0.648769 0
M  V30 3913 C 369.751 -3.38882 -0.760017 0
M  V30 3914 C 368.705 -4.27995 -0.0197785 0
M  V30 3915 C 368.031 -5.24605 -1.03408 0
M  V30 3916 C 369.331 -5.09554 1.14684 0
M  V30 3917 H 371.025 -2.84726 0.925822 0
M  V30 3918 H 368.571 -1.36898 0.446654 0
M  V30 3919 H 370.524 -4.0397 -1.19943 0
M  V30 3920 H 369.248 -2.85734 -1.58189 0
M  V30 3921 H 367.907 -3.64409 0.400184 0
M  V30 3922 H 367.555 -4.67746 -1.84994 0
M  V30 3923 H 367.255 -5.85081 -0.543464 0
M  V30 3924 H 368.779 -5.9257 -1.47288 0
M  V30 3925 H 370.193 -5.67899 0.785118 0
M  V30 3926 H 368.59 -5.7925 1.56812 0
M  V30 3927 H 369.66 -4.4347 1.96118 0
M  V30 3928 N 371.003 -0.499398 -1.49478 0
M  V30 3929 C 371.913 0.284489 -2.32869 0
M  V30 3930 C 372.929 0.968885 -1.44529 0
M  V30 3931 O 374.105 0.95062 -1.77553 0
M  V30 3932 C 371.17 1.33594 -3.19928 0
M  V30 3933 C 370.231 0.665149 -4.24116 0
M  V30 3934 C 369.464 1.6665 -5.07014 0
M  V30 3935 O 369.687 2.89618 -4.91404 0
M  V30 3936 O 368.621 1.22271 -5.8935 0
M  V30 3937 H 372.447 -0.39802 -3.01081 0
M  V30 3938 H 370.032 -0.260758 -1.47107 0
M  V30 3939 H 371.914 1.94431 -3.73864 0
M  V30 3940 H 370.589 2.0014 -2.54412 0
M  V30 3941 H 369.496 0.0170769 -3.74096 0
M  V30 3942 H 370.829 0.0421555 -4.92182 0
M  V30 3943 N 372.481 1.55866 -0.233164 0
M  V30 3944 C 373.391 2.24431 0.683217 0
M  V30 3945 C 374.407 1.2558 1.2044 0
M  V30 3946 O 375.583 1.58422 1.24356 0
M  V30 3947 C 372.648 2.91979 1.86947 0
M  V30 3948 C 371.709 4.06204 1.38912 0
M  V30 3949 C 370.942 4.70522 2.51883 0
M  V30 3950 O 371.165 4.33865 3.70293 0
M  V30 3951 O 370.099 5.59296 2.22423 0
M  V30 3952 H 373.925 3.03426 0.129059 0
M  V30 3953 H 371.51 1.494 -0.0022283 0
M  V30 3954 H 373.392 3.34573 2.56201 0
M  V30 3955 H 372.067 2.15935 2.41151 0
M  V30 3956 H 370.974 3.68155 0.664259 0
M  V30 3957 H 372.307 4.84025 0.893328 0
M  V30 3958 N 373.959 -0.0401083 1.57549 0
M  V30 3959 C 375.208 -0.732108 1.87944 0
M  V30 3960 C 375.521 -1.77107 0.830206 0
M  V30 3961 O 376.727 -2.51488 1.02302 0
M  V30 3962 C 375.183 -1.35315 3.33494 0
M  V30 3963 C 374.791 -0.351105 4.46622 0
M  V30 3964 C 376.535 -2.02566 3.73051 0
M  V30 3965 C 374.442 -0.979859 5.83226 0
M  V30 3966 H 373.372 -0.277188 0.701201 0
M  V30 3967 H 376.023 0.0138501 1.83495 0
M  V30 3968 H 374.405 -2.14844 3.32653 0
M  V30 3969 H 375.579 0.416674 4.58912 0
M  V30 3970 H 373.894 0.218708 4.15825 0
M  V30 3971 H 376.491 -2.50441 4.72423 0
M  V30 3972 H 376.834 -2.83904 3.04474 0
M  V30 3973 H 377.367 -1.29827 3.76018 0
M  V30 3974 H 374.106 -0.206135 6.55176 0
M  V30 3975 H 373.626 -1.71774 5.74677 0
M  V30 3976 H 375.305 -1.49046 6.29599 0
M  V30 3977 N 375.437 -1.54477 -0.31217 0
M  V30 3978 C 376.4 -1.83923 -1.36766 0
M  V30 3979 C 377.4 -0.711563 -1.44199 0
M  V30 3980 O 378.59 -0.979866 -1.44029 0
M  V30 3981 C 375.722 -2.0095 -2.75376 0
M  V30 3982 H 376.915 -2.78239 -1.11906 0
M  V30 3983 H 374.468 -1.46369 -0.548257 0
M  V30 3984 H 375.203 -1.08883 -3.05475 0
M  V30 3985 H 374.988 -2.83018 -2.71373 0
M  V30 3986 H 376.478 -2.2514 -3.51713 0
M  V30 3987 N 376.915 0.57481 -1.46744 0
M  V30 3988 C 378.161 1.33251 -1.53674 0
M  V30 3989 C 378.516 1.91468 -0.189125 0
M  V30 3990 O 377.809 1.73954 0.803151 0
M  V30 3991 C 378.003 2.476 -2.57738 0
M  V30 3992 C 377.832 2.00586 -4.02487 0
M  V30 3993 C 376.602 1.85237 -4.70123 0
M  V30 3994 C 378.8 1.56078 -4.90045 0
M  V30 3995 N 376.782 1.32377 -5.99458 0
M  V30 3996 C 378.153 1.14863 -6.09267 0
M  V30 3997 C 380.208 1.43968 -4.76632 0
M  V30 3998 C 378.911 0.627435 -7.16558 0
M  V30 3999 C 380.937 0.932512 -5.84002 0
M  V30 4000 C 380.299 0.53019 -7.02402 0
M  V30 4001 H 376.398 0.480284 -0.617131 0
M  V30 4002 H 378.982 0.653592 -1.83402 0
M  V30 4003 H 377.153 3.13045 -2.29907 0
M  V30 4004 H 378.885 3.14567 -2.54616 0
M  V30 4005 H 375.64 2.07423 -4.25761 0
M  V30 4006 H 376.064 1.08085 -6.68316 0
M  V30 4007 H 380.706 1.73689 -3.85476 0
M  V30 4008 H 378.424 0.317821 -8.07475 0
M  V30 4009 H 382.01 0.842611 -5.75666 0
M  V30 4010 H 380.89 0.14381 -7.84068 0
M  V30 4011 N 378.394 1.34581 0.820102 0
M  V30 4012 C 379.81 1.14325 1.11364 0
M  V30 4013 C 380.01 -0.0533648 2.01429 0
M  V30 4014 O 379.066 -0.728044 2.41776 0
M  V30 4015 C 380.379 2.43983 1.75764 0
M  V30 4016 C 381.927 2.50065 1.88246 0
M  V30 4017 C 382.402 3.79732 2.56061 0
M  V30 4018 N 383.893 3.80908 2.63558 0
M  V30 4019 C 384.628 4.77961 3.16766 0
M  V30 4020 N 384.124 5.85397 3.70517 0
M  V30 4021 N 385.917 4.65413 3.15194 0
M  V30 4022 H 378.068 2.11246 0.221096 0
M  V30 4023 H 380.331 0.934289 0.160649 0
M  V30 4024 H 380.037 3.31651 1.1705 0
M  V30 4025 H 379.911 2.57531 2.75604 0
M  V30 4026 H 382.298 1.62834 2.46108 0
M  V30 4027 H 382.379 2.40442 0.873006 0
M  V30 4028 H 382.023 4.67354 1.98853 0
M  V30 4029 H 381.953 3.86639 3.57516 0
M  V30 4030 H 384.444 3.03274 2.25463 0
M  V30 4031 H 384.757 6.55463 4.09376 0
M  V30 4032 H 383.102 5.89107 3.68752 0
M  V30 4033 H 386.293 3.80627 2.72471 0
M  V30 4034 H 386.466 5.41216 3.56356 0
M  V30 4035 N 379.872 -1.04064 1.18357 0
M  V30 4036 C 380.82 -2.14187 0.907007 0
M  V30 4037 C 381.814 -1.68879 -0.132725 0
M  V30 4038 O 383.02 -1.79993 0.0154248 0
M  V30 4039 H 379.395 -0.699585 0.275835 0
M  V30 4040 H 381.366 -2.34711 1.84264 0
M  V30 4041 C 380.115 -3.44785 0.449254 0
M  V30 4042 H 379.438 -3.80058 1.24081 0
M  V30 4043 H 380.878 -4.22974 0.294737 0
M  V30 4044 C 379.337 -3.26391 -0.834909 0
M  V30 4045 O 379.867 -3.53973 -1.89911 0
M  V30 4046 N 378.073 -2.79726 -0.787523 0
M  V30 4047 H 377.62 -2.5748 0.0787347 0
M  V30 4048 H 377.578 -2.67798 -1.64716 0
M  V30 4049 N 381.35 -0.985608 -1.22978 0
M  V30 4050 C 382.598 -0.656087 -1.91154 0
M  V30 4051 C 382.919 0.813561 -1.77218 0
M  V30 4052 O 382.189 1.58244 -1.1548 0
M  V30 4053 H 380.769 -0.239674 -0.707506 0
M  V30 4054 H 383.431 -1.25054 -1.49491 0
M  V30 4055 H 382.527 -0.912253 -2.9847 0
M  V30 4056 N 382.828 1.3818 -0.7579 0
M  V30 4057 C 384.074 2.0078 -0.325423 0
M  V30 4058 C 384.429 1.59085 1.08211 0
M  V30 4059 O 383.722 0.820394 1.73148 0
M  V30 4060 C 383.916 3.55252 -0.391218 0
M  V30 4061 C 383.745 4.11947 -1.8036 0
M  V30 4062 C 382.515 4.43519 -2.42113 0
M  V30 4063 C 384.713 4.33908 -2.76095 0
M  V30 4064 N 382.695 4.85847 -3.75267 0
M  V30 4065 C 384.066 4.78692 -3.94023 0
M  V30 4066 C 386.121 4.16015 -2.73561 0
M  V30 4067 C 384.824 5.07459 -5.09782 0
M  V30 4068 C 386.85 4.45909 -3.88483 0
M  V30 4069 C 386.212 4.90921 -5.0515 0
M  V30 4070 H 382.311 0.764215 -0.165831 0
M  V30 4071 H 384.895 1.67724 -0.988776 0
M  V30 4072 H 383.066 3.87646 0.241886 0
M  V30 4073 H 384.798 4.04653 0.061989 0
M  V30 4074 H 381.553 4.32113 -1.93842 0
M  V30 4075 H 381.977 5.11339 -4.4369 0
M  V30 4076 H 386.619 3.80399 -1.84544 0
M  V30 4077 H 384.337 5.4197 -5.99412 0
M  V30 4078 H 387.923 4.33666 -3.87847 0
M  V30 4079 H 386.803 5.1361 -5.92599 0
M  V30 4080 N 384.306 0.507319 1.49211 0
M  V30 4081 C 385.236 -0.256939 2.32082 0
M  V30 4082 C 386.217 -0.956609 1.40652 0
M  V30 4083 O 387.402 -0.946788 1.69557 0
M  V30 4084 C 384.532 -1.31802 3.21318 0
M  V30 4085 C 383.486 -0.737855 4.21592 0
M  V30 4086 C 382.812 -1.89992 4.99807 0
M  V30 4087 C 384.112 0.275325 5.21574 0
M  V30 4088 H 385.806 0.434798 2.96226 0
M  V30 4089 H 383.352 0.210546 1.42452 0
M  V30 4090 H 385.305 -1.86045 3.78107 0
M  V30 4091 H 384.029 -2.03903 2.5513 0
M  V30 4092 H 382.688 -0.217126 3.65956 0
M  V30 4093 H 382.336 -2.60877 4.30061 0
M  V30 4094 H 382.036 -1.51777 5.6766 0
M  V30 4095 H 383.56 -2.44657 5.59442 0
M  V30 4096 H 384.974 -0.179193 5.7302 0
M  V30 4097 H 383.371 0.573649 5.97352 0
M  V30 4098 H 384.441 1.18903 4.70096 0
M  V30 4099 N 385.784 -1.5574 0.241426 0
M  V30 4100 C 387.061 -1.90704 -0.434881 0
M  V30 4101 C 387.441 -1.16145 -1.76277 0
M  V30 4102 O 386.789 -0.277152 -2.26813 0
M  V30 4103 C 386.999 -3.43657 -0.608343 0
M  V30 4104 C 388.347 -4.14806 -0.906725 0
M  V30 4105 O 389.371 -3.49366 -0.694408 0
M  V30 4106 O 388.23 -5.30548 -1.31075 0
M  V30 4107 H 385.324 -0.793592 -0.23268 0
M  V30 4108 H 387.87 -1.67288 0.285086 0
M  V30 4109 H 386.642 -3.89927 0.327505 0
M  V30 4110 H 386.265 -3.72918 -1.37906 0
M  V30 4111 N 387.262 0.0317525 -1.57568 0
M  V30 4112 C 388.539 0.758366 -1.803 0
M  V30 4113 C 388.919 1.93718 -0.838845 0
M  V30 4114 O 388.267 2.28187 0.119571 0
M  V30 4115 C 388.477 1.19392 -3.27943 0
M  V30 4116 C 389.825 1.61094 -3.92854 0
M  V30 4117 O 390.849 1.28857 -3.32076 0
M  V30 4118 O 389.708 2.20918 -4.99858 0
M  V30 4119 H 386.802 0.366514 -0.741348 0
M  V30 4120 H 389.348 0.00873765 -1.69698 0
M  V30 4121 H 388.12 0.352275 -3.89711 0
M  V30 4122 H 387.743 2.00365 -3.43424 0
M  V30 4123 N 388.74 1.54641 0.303973 0
M  V30 4124 C 389.65 1.88439 1.39743 0
M  V30 4125 C 390.666 0.778239 1.55626 0
M  V30 4126 O 391.842 1.07442 1.70347 0
M  V30 4127 C 388.907 2.12212 2.74166 0
M  V30 4128 C 387.968 3.35936 2.67293 0
M  V30 4129 C 387.201 3.58566 3.95305 0
M  V30 4130 O 387.424 2.84263 4.9452 0
M  V30 4131 O 386.358 4.52078 3.97378 0
M  V30 4132 H 390.184 2.81458 1.14083 0
M  V30 4133 H 387.769 1.40793 0.499768 0
M  V30 4134 H 389.651 2.29067 3.53704 0
M  V30 4135 H 388.326 1.22379 2.99675 0
M  V30 4136 H 387.233 3.24448 1.86237 0
M  V30 4137 H 388.566 4.2589 2.46736 0
M  V30 4138 N 390.218 -0.567019 1.47046 0
M  V30 4139 C 391.466 -1.322 1.52864 0
M  V30 4140 C 391.787 -1.94088 0.188388 0
M  V30 4141 O 391.057 -1.7941 -0.786693 0
M  V30 4142 H 389.637 -0.490894 0.563056 0
M  V30 4143 H 392.299 -0.662879 1.83281 0
M  V30 4144 H 391.395 -2.12062 2.2899 0
M  V30 4145 N 391.696 -1.35014 -0.812953 0
M  V30 4146 C 392.942 -1.2812 -1.57204 0
M  V30 4147 C 393.275 0.145869 -1.93651 0
M  V30 4148 O 392.55 1.0937 -1.60836 0
M  V30 4149 C 392.833 -2.18162 -2.86492 0
M  V30 4150 C 392.686 -3.69454 -2.56561 0
M  V30 4151 C 394.005 -2.07439 -3.88145 0
M  V30 4152 H 391.124 -0.466746 -0.570366 0
M  V30 4153 H 393.766 -1.65357 -0.935783 0
M  V30 4154 H 391.916 -1.86535 -3.40789 0
M  V30 4155 H 393.588 -4.11493 -2.08497 0
M  V30 4156 H 391.831 -3.9005 -1.89851 0
M  V30 4157 H 392.502 -4.27835 -3.48799 0
M  V30 4158 H 394.978 -2.35228 -3.4323 0
M  V30 4159 H 393.854 -2.7265 -4.76396 0
M  V30 4160 H 394.115 -1.05439 -4.29343 0
M  V30 4161 N 393.175 1.03435 -1.18907 0
M  V30 4162 C 394.122 2.11591 -0.921837 0
M  V30 4163 C 395.092 1.65499 0.141226 0
M  V30 4164 O 396.277 1.908 0.000242829 0
M  V30 4165 C 393.417 3.42012 -0.460616 0
M  V30 4166 C 392.53 4.01682 -1.58982 0
M  V30 4167 C 391.665 5.20091 -1.08069 0
M  V30 4168 C 390.704 5.71805 -2.18416 0
M  V30 4169 N 389.841 6.81494 -1.68849 0
M  V30 4170 H 394.681 2.33787 -1.8479 0
M  V30 4171 H 392.218 1.1467 -0.921373 0
M  V30 4172 H 394.176 4.16834 -0.174642 0
M  V30 4173 H 392.806 3.19944 0.428467 0
M  V30 4174 H 391.858 3.24127 -1.99113 0
M  V30 4175 H 393.17 4.36084 -2.4214 0
M  V30 4176 H 392.324 6.02051 -0.749615 0
M  V30 4177 H 391.063 4.87209 -0.218771 0
M  V30 4178 H 390.068 4.88461 -2.5236 0
M  V30 4179 H 391.293 6.06728 -3.05054 0
M  V30 4180 H 389.239 6.50475 -0.849572 0
M  V30 4181 H 389.156 7.14994 -2.45601 0
M  V30 4182 H 390.424 7.67063 -1.38689 0
M  V30 4183 N 394.653 0.992116 1.22453 0
M  V30 4184 C 396.069 0.702713 1.43297 0
M  V30 4185 C 396.269 -0.726909 1.87932 0
M  V30 4186 O 395.325 -1.49792 2.0327 0
M  V30 4187 C 396.638 1.70762 2.47509 0
M  V30 4188 C 398.186 1.72298 2.61309 0
M  V30 4189 C 398.661 2.71649 3.68742 0
M  V30 4190 N 400.152 2.70239 3.76199 0
M  V30 4191 C 400.887 3.43778 4.58917 0
M  V30 4192 N 400.383 4.26914 5.45633 0
M  V30 4193 N 402.176 3.32487 4.5322 0
M  V30 4194 H 394.327 1.91543 0.917871 0
M  V30 4195 H 396.59 0.826031 0.465162 0
M  V30 4196 H 396.296 2.73059 2.21657 0
M  V30 4197 H 396.17 1.49985 3.46099 0
M  V30 4198 H 398.557 0.706989 2.86506 0
M  V30 4199 H 398.638 1.97143 1.62997 0
M  V30 4200 H 398.282 3.73397 3.44292 0
M  V30 4201 H 398.212 2.44074 4.66622 0
M  V30 4202 H 400.703 2.09912 3.14237 0
M  V30 4203 H 401.016 4.79855 6.05771 0
M  V30 4204 H 399.361 4.31002 5.45218 0
M  V30 4205 H 402.552 2.6698 3.84499 0
M  V30 4206 H 402.725 3.90058 5.17454 0
M  V30 4207 N 396.131 -1.37776 0.765217 0
M  V30 4208 C 397.094 -2.28686 0.153416 0
M  V30 4209 C 398.094 -1.47727 -0.635081 0
M  V30 4210 O 399.284 -1.68027 -0.459632 0
M  V30 4211 C 396.416 -3.31608 -0.790495 0
M  V30 4212 H 397.609 -2.84297 0.954723 0
M  V30 4213 H 395.162 -1.46932 0.53299 0
M  V30 4214 H 395.897 -2.81109 -1.61705 0
M  V30 4215 H 395.682 -3.9144 -0.227348 0
M  V30 4216 H 397.172 -3.99559 -1.21419 0
M  V30 4217 N 397.609 -0.515225 -1.4894 0
M  V30 4218 C 398.572 0.244681 -2.2789 0
M  V30 4219 C 399.572 0.881166 -1.34507 0
M  V30 4220 O 400.762 0.743497 -1.57537 0
M  V30 4221 C 397.894 1.35247 -3.12923 0
M  V30 4222 H 399.087 -0.448289 -2.96531 0
M  V30 4223 H 396.64 -0.270656 -1.53939 0
M  V30 4224 H 397.375 2.07916 -2.48881 0
M  V30 4225 H 397.16 0.901374 -3.81599 0
M  V30 4226 H 398.65 1.88737 -3.72516 0
M  V30 4227 N 399.087 1.5561 -0.249682 0
M  V30 4228 C 400.312 2.03865 0.381305 0
M  V30 4229 C 400.737 1.12769 1.50548 0
M  V30 4230 O 400.095 0.121189 1.80895 0
M  V30 4231 C 400.143 3.50101 0.863816 0
M  V30 4232 O 399.247 3.62132 1.97318 0
M  V30 4233 H 398.588 0.658827 0.0827194 0
M  V30 4234 H 401.118 2.01105 -0.376552 0
M  V30 4235 H 401.128 3.90975 1.1663 0
M  V30 4236 H 399.803 4.1588 0.0411816 0
M  V30 4237 H 398.38 3.33155 1.67517 0
M  V30 4238 N 400.565 -0.0233959 1.57583 0
M  V30 4239 C 401.79 -0.728376 1.94189 0
M  V30 4240 C 402.215 -1.67793 0.850119 0
M  V30 4241 O 401.573 -1.80262 -0.19371 0
M  V30 4242 C 401.621 -1.45669 3.29868 0
M  V30 4243 O 400.725 -2.57013 3.22518 0
M  V30 4244 H 400.066 -0.195493 0.63457 0
M  V30 4245 H 402.596 0.0228214 2.04587 0
M  V30 4246 H 402.606 -1.82535 3.6489 0
M  V30 4247 H 401.281 -0.760314 4.08891 0
M  V30 4248 H 399.858 -2.22648 2.99136 0
M  V30 4249 N 402.043 -1.548 -0.295768 0
M  V30 4250 C 402.973 -1.89115 -1.36959 0
M  V30 4251 C 403.954 -0.75059 -1.52644 0
M  V30 4252 O 405.139 -1.00678 -1.66065 0
M  V30 4253 C 402.269 -2.14307 -2.73295 0
M  V30 4254 C 401.223 -3.30151 -2.72368 0
M  V30 4255 C 400.549 -3.40772 -4.12042 0
M  V30 4256 C 401.849 -4.67126 -2.33646 0
M  V30 4257 H 403.543 -2.79053 -1.08488 0
M  V30 4258 H 401.089 -1.34266 -0.520443 0
M  V30 4259 H 403.042 -2.36898 -3.48507 0
M  V30 4260 H 401.766 -1.21145 -3.03301 0
M  V30 4261 H 400.425 -3.0749 -1.99613 0
M  V30 4262 H 400.073 -2.45117 -4.39234 0
M  V30 4263 H 399.773 -4.18645 -4.12322 0
M  V30 4264 H 401.297 -3.6563 -4.89027 0
M  V30 4265 H 402.711 -4.89414 -2.98575 0
M  V30 4266 H 401.108 -5.47751 -2.45129 0
M  V30 4267 H 402.178 -4.67489 -1.28772 0
M  V30 4268 N 403.521 0.559213 -1.47345 0
M  V30 4269 C 404.484 1.64854 -1.59235 0
M  V30 4270 C 405.484 1.53851 -0.467607 0
M  V30 4271 O 406.674 1.58045 -0.732617 0
M  V30 4272 C 403.806 3.04388 -1.53496 0
M  V30 4273 H 404.999 1.55662 -2.56339 0
M  V30 4274 H 402.552 0.778973 -1.35505 0
M  V30 4275 H 403.287 3.19115 -0.577604 0
M  V30 4276 H 403.072 3.13783 -2.35123 0
M  V30 4277 H 404.562 3.83642 -1.6495 0
M  V30 4278 N 404.999 1.35443 0.805782 0
M  V30 4279 C 405.946 1.28431 1.91766 0
M  V30 4280 C 406.916 0.156102 1.65365 0
M  V30 4281 O 408.101 0.339936 1.87747 0
M  V30 4282 C 405.241 1.06301 3.2832 0
M  V30 4283 C 404.354 2.2805 3.66902 0
M  V30 4284 C 403.489 1.99064 4.92491 0
M  V30 4285 C 402.528 3.16863 5.23703 0
M  V30 4286 N 401.665 2.87647 6.40471 0
M  V30 4287 H 406.505 2.23511 1.97096 0
M  V30 4288 H 404.042 1.11105 0.964054 0
M  V30 4289 H 406 0.915012 4.07042 0
M  V30 4290 H 404.63 0.148822 3.22457 0
M  V30 4291 H 403.682 2.53711 2.83434 0
M  V30 4292 H 404.994 3.1601 3.85927 0
M  V30 4293 H 404.148 1.81099 5.7904 0
M  V30 4294 H 402.887 1.0839 4.75503 0
M  V30 4295 H 401.892 3.35404 4.35642 0
M  V30 4296 H 403.117 4.08339 5.4262 0
M  V30 4297 H 401.063 1.99568 6.24907 0
M  V30 4298 H 400.98 3.69141 6.59751 0
M  V30 4299 H 402.248 2.73226 7.30047 0
M  V30 4300 N 406.477 -1.02803 1.19454 0
M  V30 4301 C 407.705 -1.79841 1.02297 0
M  V30 4302 C 408.12 -1.83879 -0.428259 0
M  V30 4303 O 407.477 -1.28345 -1.29745 0
M  V30 4304 C 407.528 -3.24852 1.58598 0
M  V30 4305 O 407.249 -3.21097 2.98041 0
M  V30 4306 C 408.75 -4.18485 1.46236 0
M  V30 4307 H 405.97 -0.565936 0.360496 0
M  V30 4308 H 408.514 -1.2948 1.58288 0
M  V30 4309 H 406.669 -3.72401 1.06753 0
M  V30 4310 H 407.083 -4.12033 3.24545 0
M  V30 4311 H 408.557 -5.18121 1.90407 0
M  V30 4312 H 409.034 -4.37254 0.41301 0
M  V30 4313 H 409.64 -3.76811 1.97215 0
M  V30 4314 N 407.956 -0.998596 -1.21925 0
M  V30 4315 C 409.204 -0.676325 -1.90448 0
M  V30 4316 C 409.525 0.794719 -1.78071 0
M  V30 4317 O 408.795 1.5701 -1.17152 0
M  V30 4318 H 407.375 -0.247165 -0.704925 0
M  V30 4319 H 410.037 -1.26633 -1.48156 0
M  V30 4320 H 409.133 -0.943858 -2.97486 0
M  V30 4321 N 409.434 1.37368 -0.772513 0
M  V30 4322 C 410.664 2.03647 -0.348082 0
M  V30 4323 C 411.072 1.58392 1.03482 0
M  V30 4324 O 410.415 0.760921 1.672 0
M  V30 4325 C 410.477 3.58131 -0.313404 0
M  V30 4326 C 410.141 4.2652 -1.64102 0
M  V30 4327 C 411.138 4.50587 -2.5936 0
M  V30 4328 C 408.823 4.64335 -1.91567 0
M  V30 4329 C 410.817 5.11526 -3.80289 0
M  V30 4330 C 408.504 5.24996 -3.12766 0
M  V30 4331 C 409.502 5.48529 -4.06946 0
M  V30 4332 O 409.19 6.07921 -5.26011 0
M  V30 4333 H 408.922 0.660538 -0.143753 0
M  V30 4334 H 411.476 1.76669 -1.04772 0
M  V30 4335 H 409.706 3.84159 0.442617 0
M  V30 4336 H 411.395 4.05813 0.0840613 0
M  V30 4337 H 412.161 4.21784 -2.39423 0
M  V30 4338 H 408.04 4.45353 -1.19088 0
M  V30 4339 H 411.584 5.29811 -4.53813 0
M  V30 4340 H 407.481 5.53223 -3.32588 0
M  V30 4341 H 408.249 6.26398 -5.26847 0
M  V30 4342 N 410.912 0.523116 1.48665 0
M  V30 4343 C 412.16 -0.0134497 2.02096 0
M  V30 4344 C 412.481 -1.35418 1.40311 0
M  V30 4345 O 411.751 -1.87543 0.566074 0
M  V30 4346 H 410.331 -0.00795915 0.746958 0
M  V30 4347 H 412.993 0.685388 1.82451 0
M  V30 4348 H 412.089 -0.126849 3.11842 0
M  V30 4349 N 412.39 -1.55475 0.257931 0
M  V30 4350 C 413.322 -2.19192 -0.669881 0
M  V30 4351 C 414.335 -1.17148 -1.1305 0
M  V30 4352 O 415.524 -1.43959 -1.05537 0
M  V30 4353 C 412.624 -2.79016 -1.92363 0
M  V30 4354 C 411.797 -4.06586 -1.61265 0
M  V30 4355 C 410.856 -4.50622 -2.7171 0
M  V30 4356 O 409.882 -5.16765 -2.38627 0
M  V30 4357 N 411.084 -4.19325 -4.01431 0
M  V30 4358 H 413.849 -2.99441 -0.124635 0
M  V30 4359 H 411.41 -1.6171 0.0783311 0
M  V30 4360 H 413.402 -3.05427 -2.65511 0
M  V30 4361 H 411.972 -2.0286 -2.37837 0
M  V30 4362 H 411.192 -3.87646 -0.715811 0
M  V30 4363 H 412.48 -4.89737 -1.37967 0
M  V30 4364 H 411.878 -3.66247 -4.31138 0
M  V30 4365 H 410.435 -4.50547 -4.7101 0
M  V30 4366 N 413.868 0.0150385 -1.57593 0
M  V30 4367 C 415.098 0.713359 -1.93894 0
M  V30 4368 C 415.506 1.68663 -0.857289 0
M  V30 4369 O 414.849 1.82876 0.173788 0
M  V30 4370 C 414.911 1.51348 -3.26089 0
M  V30 4371 C 414.575 0.703451 -4.51554 0
M  V30 4372 C 415.572 -0.00237924 -5.199 0
M  V30 4373 C 413.257 0.653854 -4.98026 0
M  V30 4374 C 415.251 -0.746955 -6.33008 0
M  V30 4375 C 412.938 -0.0944578 -6.11027 0
M  V30 4376 C 413.936 -0.793609 -6.78374 0
M  V30 4377 O 413.624 -1.52974 -7.89211 0
M  V30 4378 H 413.356 0.204637 -0.644282 0
M  V30 4379 H 415.91 -0.0276411 -2.05381 0
M  V30 4380 H 414.14 2.29862 -3.10967 0
M  V30 4381 H 415.829 2.09572 -3.47612 0
M  V30 4382 H 416.595 0.0268803 -4.84993 0
M  V30 4383 H 412.474 1.18756 -4.45441 0
M  V30 4384 H 416.018 -1.2932 -6.85509 0
M  V30 4385 H 411.915 -0.125591 -6.45378 0
M  V30 4386 H 412.683 -1.44488 -8.05646 0
M  V30 4387 N 415.346 1.54954 0.287554 0
M  V30 4388 C 416.276 1.89839 1.35954 0
M  V30 4389 C 417.257 0.758675 1.52244 0
M  V30 4390 O 418.442 1.01557 1.65529 0
M  V30 4391 C 415.572 2.15753 2.72154 0
M  V30 4392 C 414.526 3.3159 2.70614 0
M  V30 4393 C 413.852 3.42952 4.10229 0
M  V30 4394 C 415.152 4.68359 2.31165 0
M  V30 4395 H 416.846 2.79625 1.07007 0
M  V30 4396 H 414.392 1.3454 0.513316 0
M  V30 4397 H 416.345 2.38743 3.47246 0
M  V30 4398 H 415.069 1.22752 3.02654 0
M  V30 4399 H 413.728 3.08545 1.97979 0
M  V30 4400 H 413.376 2.47443 4.37928 0
M  V30 4401 H 413.076 4.20826 4.10097 0
M  V30 4402 H 414.6 3.68218 4.87081 0
M  V30 4403 H 416.014 4.9099 2.95976 0
M  V30 4404 H 414.411 5.49044 2.42221 0
M  V30 4405 H 415.481 4.68165 1.26291 0
M  V30 4406 N 416.824 -0.551391 1.4764 0
M  V30 4407 C 417.754 -1.66757 1.63445 0
M  V30 4408 C 418.735 -1.63077 0.483742 0
M  V30 4409 O 419.92 -1.80607 0.71377 0
M  V30 4410 C 417.05 -3.05387 1.65396 0
M  V30 4411 C 416.004 -3.23918 2.79752 0
M  V30 4412 C 415.33 -4.63393 2.66779 0
M  V30 4413 C 416.63 -3.08735 4.21284 0
M  V30 4414 H 418.324 -1.53786 2.56886 0
M  V30 4415 H 415.87 -0.738415 1.23626 0
M  V30 4416 H 417.823 -3.83325 1.75043 0
M  V30 4417 H 416.547 -3.19332 0.685195 0
M  V30 4418 H 415.206 -2.48391 2.69625 0
M  V30 4419 H 414.854 -4.74144 1.67918 0
M  V30 4420 H 414.554 -4.7674 3.43501 0
M  V30 4421 H 416.078 -5.43458 2.78364 0
M  V30 4422 H 417.492 -3.76484 4.32357 0
M  V30 4423 H 415.889 -3.33588 4.98838 0
M  V30 4424 H 416.959 -2.0541 4.39243 0
M  V30 4425 N 418.302 -1.35869 -0.798587 0
M  V30 4426 C 419.212 -1.31578 -1.94228 0
M  V30 4427 C 420.228 -0.21939 -1.72611 0
M  V30 4428 O 421.404 -0.450167 -1.96305 0
M  V30 4429 C 418.469 -1.09528 -3.28944 0
M  V30 4430 C 417.53 -2.28556 -3.63402 0
M  V30 4431 C 416.763 -2.07549 -4.9169 0
M  V30 4432 O 416.986 -1.046 -5.60727 0
M  V30 4433 O 415.92 -2.95106 -5.24591 0
M  V30 4434 H 419.746 -2.27847 -2.00796 0
M  V30 4435 H 417.331 -1.16322 -0.937526 0
M  V30 4436 H 419.213 -0.991127 -4.09579 0
M  V30 4437 H 417.888 -0.16315 -3.23289 0
M  V30 4438 H 416.795 -2.44538 -2.83112 0
M  V30 4439 H 418.128 -3.20244 -3.73771 0
M  V30 4440 N 419.78 1.02168 -1.19998 0
M  V30 4441 C 420.71 2.12488 -0.96804 0
M  V30 4442 C 421.691 1.69799 0.101185 0
M  V30 4443 O 422.876 1.94121 -0.0552993 0
M  V30 4444 C 420.006 3.43479 -0.513776 0
M  V30 4445 C 418.96 3.99884 -1.52566 0
M  V30 4446 C 418.286 5.26582 -0.928214 0
M  V30 4447 C 419.586 4.33861 -2.90795 0
M  V30 4448 H 421.28 2.32149 -1.89069 0
M  V30 4449 H 418.826 1.11564 -0.910468 0
M  V30 4450 H 420.779 4.20036 -0.338774 0
M  V30 4451 H 419.503 3.23561 0.444493 0
M  V30 4452 H 418.162 3.25429 -1.68794 0
M  V30 4453 H 417.81 5.02986 0.0378289 0
M  V30 4454 H 417.51 5.65284 -1.60397 0
M  V30 4455 H 419.034 6.05799 -0.764167 0
M  V30 4456 H 420.448 5.01327 -2.78109 0
M  V30 4457 H 418.845 4.83664 -3.55231 0
M  V30 4458 H 419.915 3.42848 -3.42904 0
M  V30 4459 N 421.258 1.00505 1.21394 0
M  V30 4460 C 422.188 0.585684 2.26035 0
M  V30 4461 C 423.169 -0.393525 1.65485 0
M  V30 4462 O 424.354 -0.281497 1.92149 0
M  V30 4463 C 421.484 -0.0884283 3.47187 0
M  V30 4464 C 420.438 0.810567 4.20254 0
M  V30 4465 C 419.764 0.00286382 5.347 0
M  V30 4466 C 421.064 2.1132 4.77641 0
M  V30 4467 H 422.758 1.46039 2.61368 0
M  V30 4468 H 420.304 0.703648 1.25638 0
M  V30 4469 H 422.257 -0.393286 4.19561 0
M  V30 4470 H 420.981 -0.997766 3.10986 0
M  V30 4471 H 419.64 1.09925 3.49731 0
M  V30 4472 H 419.288 -0.907765 4.94741 0
M  V30 4473 H 418.988 0.601444 5.84514 0
M  V30 4474 H 420.512 -0.295808 6.09883 0
M  V30 4475 H 421.926 1.87148 5.41893 0
M  V30 4476 H 420.323 2.66164 5.37845 0
M  V30 4477 H 421.393 2.78393 3.9702 0
M  V30 4478 N 422.737 -1.36956 0.779787 0
M  V30 4479 C 424.153 -1.52817 0.460342 0
M  V30 4480 C 424.353 -1.7361 -1.02283 0
M  V30 4481 O 423.409 -1.76207 -1.80852 0
M  V30 4482 C 424.722 -2.71983 1.28241 0
M  V30 4483 C 426.27 -2.85849 1.27512 0
M  V30 4484 C 426.745 -4.08008 2.08072 0
M  V30 4485 N 428.236 -4.15135 2.05467 0
M  V30 4486 C 428.971 -5.08711 2.64577 0
M  V30 4487 N 428.467 -6.07792 3.32506 0
M  V30 4488 N 430.26 -5.01254 2.54363 0
M  V30 4489 H 422.411 -1.21713 1.74068 0
M  V30 4490 H 424.674 -0.593294 0.739396 0
M  V30 4491 H 424.38 -2.63109 2.33381 0
M  V30 4492 H 424.254 -3.65882 0.917088 0
M  V30 4493 H 426.641 -2.94189 0.231686 0
M  V30 4494 H 426.722 -1.92886 1.68014 0
M  V30 4495 H 426.366 -4.00429 3.12441 0
M  V30 4496 H 426.296 -5.001 1.64947 0
M  V30 4497 H 428.787 -3.44189 1.5602 0
M  V30 4498 H 429.1 -6.75739 3.74963 0
M  V30 4499 H 427.445 -6.08047 3.36606 0
M  V30 4500 H 430.636 -4.22795 2.00902 0
M  V30 4501 H 430.809 -5.73995 3.00722 0
M  V30 4502 N 424.215 -0.530993 -1.48385 0
M  V30 4503 C 425.178 0.220497 -2.28137 0
M  V30 4504 C 426.178 0.866851 -1.35434 0
M  V30 4505 O 427.368 0.726746 -1.58316 0
M  V30 4506 C 424.5 1.31921 -3.1434 0
M  V30 4507 H 425.693 -0.479714 -2.96038 0
M  V30 4508 H 423.246 -0.286968 -1.53643 0
M  V30 4509 H 423.981 2.05264 -2.51072 0
M  V30 4510 H 423.766 0.86085 -3.82533 0
M  V30 4511 H 425.256 1.84776 -3.74497 0
M  V30 4512 N 425.693 1.55336 -0.266172 0
M  V30 4513 C 427.109 1.59356 0.0882065 0
M  V30 4514 C 427.309 1.2834 1.55342 0
M  V30 4515 O 426.365 1.03996 2.30089 0
M  V30 4516 C 427.678 2.99409 -0.278364 0
M  V30 4517 C 429.226 3.12196 -0.224243 0
M  V30 4518 C 429.701 4.545 -0.565123 0
M  V30 4519 N 431.192 4.60313 -0.51634 0
M  V30 4520 C 431.927 5.68434 -0.753013 0
M  V30 4521 N 431.423 6.84738 -1.05383 0
M  V30 4522 N 433.216 5.57942 -0.682414 0
M  V30 4523 H 425.367 1.73764 -1.22147 0
M  V30 4524 H 427.63 0.809822 -0.492841 0
M  V30 4525 H 427.336 3.2691 -1.29703 0
M  V30 4526 H 427.21 3.75228 0.385186 0
M  V30 4527 H 429.597 2.84464 0.78512 0
M  V30 4528 H 429.678 2.38609 -0.921922 0
M  V30 4529 H 429.322 4.82956 -1.57213 0
M  V30 4530 H 429.252 5.26374 0.154248 0
M  V30 4531 H 431.743 3.7676 -0.29335 0
M  V30 4532 H 432.056 7.63088 -1.22133 0
M  V30 4533 H 430.401 6.86375 -1.09151 0
M  V30 4534 H 433.592 4.65958 -0.44731 0
M  V30 4535 H 433.765 6.4213 -0.870248 0
M  V30 4536 N 427.171 -0.0066808 1.57599 0
M  V30 4537 C 428.582 -0.550379 1.78403 0
M  V30 4538 C 428.933 -1.74339 0.900014 0
M  V30 4539 O 428.058 -2.16166 0.100713 0
M  V30 4540 C 428.653 -1.00523 3.23544 0
M  V30 4541 C 427.212 -1.49428 3.45468 0
M  V30 4542 C 426.359 -0.442444 2.73748 0
M  V30 4543 H 429.31 0.219508 1.57175 0
M  V30 4544 H 429.331 -1.87157 3.31289 0
M  V30 4545 H 428.843 -0.136735 3.87859 0
M  V30 4546 H 426.944 -2.3839 2.86358 0
M  V30 4547 H 427.057 -1.52635 4.54136 0
M  V30 4548 H 425.421 -0.902578 2.38171 0
M  V30 4549 H 426.204 0.416973 3.40758 0
M  V30 4550 N 428.649 -1.55105 -0.279332 0
M  V30 4551 C 430.065 -1.46803 -0.626187 0
M  V30 4552 C 430.265 -0.676939 -1.89789 0
M  V30 4553 O 429.321 -0.19326 -2.51759 0
M  V30 4554 C 430.634 -2.90962 -0.759034 0
M  V30 4555 C 432.182 -3.01138 -0.853504 0
M  V30 4556 C 432.657 -4.46539 -1.01818 0
M  V30 4557 N 434.148 -4.50341 -1.08386 0
M  V30 4558 C 434.883 -5.60053 -1.22996 0
M  V30 4559 N 434.379 -6.79645 -1.34366 0
M  V30 4560 N 436.172 -5.47783 -1.26056 0
M  V30 4561 H 428.323 -2.04996 0.555921 0
M  V30 4562 H 430.586 -0.929325 0.187239 0
M  V30 4563 H 430.292 -3.51544 0.104852 0
M  V30 4564 H 430.166 -3.39619 -1.64131 0
M  V30 4565 H 432.553 -2.40658 -1.70786 0
M  V30 4566 H 432.634 -2.55745 0.0532466 0
M  V30 4567 H 432.278 -5.0762 -0.168504 0
M  V30 4568 H 432.208 -4.89583 -1.93948 0
M  V30 4569 H 434.699 -3.64191 -1.00864 0
M  V30 4570 H 435.012 -7.59012 -1.4533 0
M  V30 4571 H 433.357 -6.82469 -1.31382 0
M  V30 4572 H 436.548 -4.53294 -1.168 0
M  V30 4573 H 436.721 -6.33331 -1.37098 0
M  V30 4574 N 430.127 0.543554 -1.4793 0
M  V30 4575 C 431.059 1.665 -1.57513 0
M  V30 4576 C 432.072 1.56156 -0.460333 0
M  V30 4577 O 433.261 1.62865 -0.730573 0
M  V30 4578 C 430.361 3.05063 -1.47614 0
M  V30 4579 C 429.534 3.41024 -2.739 0
M  V30 4580 C 428.593 4.58809 -2.57645 0
M  V30 4581 O 427.619 4.62707 -3.31498 0
M  V30 4582 N 428.821 5.56149 -1.66368 0
M  V30 4583 H 431.586 1.5872 -2.5422 0
M  V30 4584 H 429.147 0.730517 -1.44482 0
M  V30 4585 H 431.139 3.81712 -1.34455 0
M  V30 4586 H 429.709 3.06994 -0.589359 0
M  V30 4587 H 428.929 2.53687 -3.01723 0
M  V30 4588 H 430.217 3.61831 -3.57709 0
M  V30 4589 H 429.615 5.55767 -1.05543 0
M  V30 4590 H 428.172 6.32071 -1.59154 0
M  V30 4591 N 431.605 1.3629 0.791371 0
M  V30 4592 C 432.835 1.33368 1.57786 0
M  V30 4593 C 433.243 -0.0875188 1.88997 0
M  V30 4594 O 432.586 -1.05427 1.50435 0
M  V30 4595 C 432.648 2.08802 2.92646 0
M  V30 4596 C 432.312 3.57903 2.84174 0
M  V30 4597 C 433.309 4.52191 2.56553 0
M  V30 4598 C 430.994 4.00762 3.02812 0
M  V30 4599 C 432.988 5.87315 2.47669 0
M  V30 4600 C 430.675 5.35977 2.93551 0
M  V30 4601 C 431.673 6.29066 2.66017 0
M  V30 4602 O 431.361 7.61798 2.56746 0
M  V30 4603 H 431.093 0.459166 0.496128 0
M  V30 4604 H 433.647 1.79952 0.990269 0
M  V30 4605 H 431.877 1.56878 3.53449 0
M  V30 4606 H 433.566 1.98762 3.53904 0
M  V30 4607 H 434.332 4.20393 2.41858 0
M  V30 4608 H 430.211 3.2868 3.2325 0
M  V30 4609 H 433.755 6.59943 2.26099 0
M  V30 4610 H 429.652 5.67384 3.07808 0
M  V30 4611 H 430.42 7.71898 2.72242 0
M  V30 4612 O 433.122 -0.93083 1.31977 0
M  V30 4613 H 433.813 -1.56227 1.14512 0
M  V30 END ATOM
M  V30 BEGIN BOND
M  V30 END BOND
M  V30 END CTAB
M  END
$$$$
