drugbank_target|P61987 Cobalt-precorrin-5B C(1)-methyltransferase (DB09130)
 OpenBabel12092121053D

  0  0  0     0  0            999 V3000
M  V30 BEGIN CTAB
M  V30 COUNTS 5655 5695 0 0 0
M  V30 BEGIN ATOM
M  V30 1 H -0.908 1.98254 -0.117106 0
M  V30 2 N 0 1.576 0 0
M  V30 3 C 0.933 2.03868 1.02534 0
M  V30 4 C 1.911 0.928543 1.3348 0
M  V30 5 O 3.095 1.19667 1.45644 0
M  V30 6 C 0.222 2.43627 2.35294 0
M  V30 7 C -0.732 3.65373 2.2001 0
M  V30 8 S 0.101 5.13292 1.52614 0
M  V30 9 C 1.257 5.56322 2.86805 0
M  V30 10 H 1.49 2.90518 0.631377 0
M  V30 11 H -0.977 1.52953 0.210867 0
M  V30 12 H 0.981 2.67203 3.11629 0
M  V30 13 H -0.358 1.57376 2.7183 0
M  V30 14 H -1.165 3.90944 3.18086 0
M  V30 15 H -1.563 3.418 1.51819 0
M  V30 16 H 0.729 5.58782 3.83104 0
M  V30 17 H 1.672 6.56266 2.65933 0
M  V30 18 H 2.08 4.83886 2.90714 0
M  V30 19 N 1.4781 -0.272755 1.55222 0
M  V30 20 C 2.4251 -1.33716 1.88119 0
M  V30 21 C 3.3951 -1.49066 0.73271 0
M  V30 22 O 4.5801 -1.63469 0.984002 0
M  V30 23 C 1.7201 -2.69238 2.15882 0
M  V30 24 C 0.8331 -2.62108 3.43399 0
M  V30 25 C -0.0319 -3.89811 3.60861 0
M  V30 26 C -0.9929 -3.77193 4.8207 0
M  V30 27 N -1.8559 -4.9673 4.96189 0
M  V30 28 H 2.9841 -1.04962 2.78903 0
M  V30 29 H 0.5211 -0.507088 1.38083 0
M  V30 30 H 2.4791 -3.48089 2.29978 0
M  V30 31 H 1.1091 -2.96194 1.28331 0
M  V30 32 H 0.1611 -1.74967 3.37773 0
M  V30 33 H 1.4731 -2.48685 4.32386 0
M  V30 34 H 0.6271 -4.77103 3.74777 0
M  V30 35 H -0.6339 -4.06102 2.7006 0
M  V30 36 H -1.6289 -2.88284 4.68159 0
M  V30 37 H -0.4039 -3.62421 5.74307 0
M  V30 38 H -2.4579 -5.13431 4.08319 0
M  V30 39 H -2.5409 -4.85839 5.79221 0
M  V30 40 H -1.2729 -5.85594 5.1449 0
M  V30 41 N 2.9562 -1.48159 -0.537278 0
M  V30 42 C 3.8862 -1.65029 -1.6519 0
M  V30 43 C 4.8672 -0.499281 -1.62607 0
M  V30 44 O 6.0522 -0.730972 -1.79918 0
M  V30 45 C 3.1822 -1.68303 -3.03795 0
M  V30 46 C 2.1362 -2.8283 -3.21234 0
M  V30 47 C 1.4622 -2.71189 -4.60826 0
M  V30 48 C 2.7622 -4.24211 -3.04701 0
M  V30 49 H 4.4562 -2.58341 -1.51328 0
M  V30 50 H 2.0022 -1.24325 -0.726585 0
M  V30 51 H 3.9552 -1.78693 -3.81637 0
M  V30 52 H 2.6792 -0.715635 -3.18663 0
M  V30 53 H 1.3382 -2.71983 -2.45807 0
M  V30 54 H 0.9862 -1.72435 -4.7252 0
M  V30 55 H 0.6862 -3.48035 -4.7344 0
M  V30 56 H 2.2102 -2.83537 -5.40777 0
M  V30 57 H 3.6242 -4.3593 -3.72341 0
M  V30 58 H 2.0212 -5.01998 -3.28813 0
M  V30 59 H 3.0912 -4.41184 -2.01209 0
M  V30 60 N 4.4343 0.785586 -1.36625 0
M  V30 61 C 5.7113 1.53198 -1.21613 0
M  V30 62 C 6.0913 2.10187 0.196113 0
M  V30 63 O 5.4393 1.94318 1.20219 0
M  V30 64 C 5.6493 2.62388 -2.30116 0
M  V30 65 C 6.9973 3.30167 -2.66974 0
M  V30 66 O 8.0213 2.72674 -2.29188 0
M  V30 67 O 6.8803 4.34077 -3.32023 0
M  V30 68 H 3.9743 0.677865 -0.473738 0
M  V30 69 H 6.5203 0.823739 -1.48367 0
M  V30 70 H 5.2923 2.18299 -3.24748 0
M  V30 71 H 4.9153 3.40827 -2.0475 0
M  V30 72 N 5.9124 1.20967 1.01018 0
M  V30 73 C 6.8424 0.988272 2.11555 0
M  V30 74 C 7.8234 -0.0849778 1.69888 0
M  V30 75 O 9.0084 0.0738202 1.9406 0
M  V30 76 C 6.1384 0.546528 3.42973 0
M  V30 77 C 5.0924 1.56375 3.9841 0
M  V30 78 C 4.4184 0.97842 5.25672 0
M  V30 79 C 5.7184 2.94922 4.31066 0
M  V30 80 H 7.4124 1.91276 2.30334 0
M  V30 81 H 4.9584 0.921073 1.1069 0
M  V30 82 H 6.9114 0.378839 4.19694 0
M  V30 83 H 5.6354 -0.413598 3.23971 0
M  V30 84 H 4.2944 1.71891 3.23804 0
M  V30 85 H 3.9424 0.0101688 5.02999 0
M  V30 86 H 3.6424 1.65784 5.63728 0
M  V30 87 H 5.1664 0.821939 6.05043 0
M  V30 88 H 6.5804 2.8288 4.9865 0
M  V30 89 H 4.9774 3.5983 4.80253 0
M  V30 90 H 6.0474 3.4616 3.39561 0
M  V30 91 N 7.3905 -1.2043 1.01659 0
M  V30 92 C 8.6205 -1.93496 0.724081 0
M  V30 93 C 9.0285 -1.74998 -0.71918 0
M  V30 94 O 8.3715 -1.06118 -1.49949 0
M  V30 95 C 8.4335 -3.45886 0.97994 0
M  V30 96 C 8.0975 -3.88145 2.41232 0
M  V30 97 C 9.0945 -3.93907 3.39313 0
M  V30 98 C 6.7795 -4.20134 2.75305 0
M  V30 99 C 8.7735 -4.31069 4.6953 0
M  V30 100 C 6.4605 -4.56971 4.05735 0
M  V30 101 C 7.4585 -4.62411 5.02658 0
M  V30 102 O 7.1465 -4.98403 6.30754 0
M  V30 103 H 6.8785 -0.621824 0.265162 0
M  V30 104 H 9.4325 -1.53867 1.36066 0
M  V30 105 H 7.6625 -3.85639 0.286198 0
M  V30 106 H 9.3515 -4.0018 0.679021 0
M  V30 107 H 10.1175 -3.69357 3.14325 0
M  V30 108 H 5.9965 -4.1509 2.00551 0
M  V30 109 H 9.5405 -4.3523 5.45179 0
M  V30 110 H 5.4375 -4.80977 4.30502 0
M  V30 111 H 6.2055 -5.16395 6.35042 0
M  V30 112 N 8.8686 -0.792821 -1.36206 0
M  V30 113 C 10.1176 -0.363353 -1.984 0
M  V30 114 C 10.4306 1.07172 -1.63626 0
M  V30 115 O 11.6366 1.60362 -2.19081 0
M  V30 116 C 10.0926 -0.59872 -3.54885 0
M  V30 117 C 9.7006 -2.04543 -3.9858 0
M  V30 118 C 11.4446 -0.233926 -4.23855 0
M  V30 119 C 9.3516 -2.22727 -5.47856 0
M  V30 120 H 8.2816 -0.13212 -0.742334 0
M  V30 121 H 10.9326 -0.974935 -1.55458 0
M  V30 122 H 9.3146 0.0826222 -3.95914 0
M  V30 123 H 10.4886 -2.76345 -3.68741 0
M  V30 124 H 8.8036 -2.36879 -3.42458 0
M  V30 125 H 11.4006 -0.348027 -5.33566 0
M  V30 126 H 11.7436 0.818351 -4.08177 0
M  V30 127 H 12.2766 -0.868639 -3.882 0
M  V30 128 H 9.0156 -3.2635 -5.68486 0
M  V30 129 H 8.5356 -1.55434 -5.7931 0
M  V30 130 H 10.2146 -2.03607 -6.14128 0
M  V30 131 N 10.3467 1.47872 -0.545128 0
M  V30 132 C 11.6237 1.9554 0.0485222 0
M  V30 133 C 12.0037 1.4876 1.49779 0
M  V30 134 O 11.3517 0.720925 2.16829 0
M  V30 135 C 11.5617 3.48898 -0.084417 0
M  V30 136 C 12.9097 4.24547 0.0671239 0
M  V30 137 O 13.9337 3.56198 -0.0113649 0
M  V30 138 O 12.7927 5.45999 0.233882 0
M  V30 139 H 9.8867 0.823957 0.0708773 0
M  V30 140 H 12.4327 1.58327 -0.610798 0
M  V30 141 H 11.2047 3.75714 -1.09337 0
M  V30 142 H 10.8277 3.92845 0.613066 0
M  V30 143 N 11.8248 0.280983 1.55075 0
M  V30 144 C 12.7718 -0.603937 2.22758 0
M  V30 145 C 13.7418 -1.1452 1.20309 0
M  V30 146 O 14.9268 -1.19343 1.48869 0
M  V30 147 C 12.0668 -1.77947 2.95684 0
M  V30 148 C 11.1798 -1.2715 4.12864 0
M  V30 149 C 10.3148 -2.4093 4.7342 0
M  V30 150 C 9.3538 -1.87165 5.82783 0
M  V30 151 N 8.4908 -2.94441 6.37377 0
M  V30 152 H 13.3308 -0.020124 2.97993 0
M  V30 153 H 10.8678 0.00183425 1.471 0
M  V30 154 H 12.8258 -2.47055 3.36184 0
M  V30 155 H 11.4558 -2.33522 2.22861 0
M  V30 156 H 10.5078 -0.473331 3.77444 0
M  V30 157 H 11.8198 -0.837751 4.91715 0
M  V30 158 H 10.9738 -3.18021 5.1667 0
M  V30 159 H 9.7128 -2.87623 3.93859 0
M  V30 160 H 8.7178 -1.08556 5.38976 0
M  V30 161 H 9.9428 -1.41401 6.64216 0
M  V30 162 H 7.8888 -3.40505 5.60707 0
M  V30 163 H 7.8058 -2.55501 7.11516 0
M  V30 164 H 9.0738 -3.71489 6.85285 0
M  V30 165 N 13.3029 -1.57598 0.00835791 0
M  V30 166 C 14.5799 -1.82172 -0.712235 0
M  V30 167 C 14.9599 -0.887873 -1.9152 0
M  V30 168 O 14.3079 0.06146 -2.28417 0
M  V30 169 C 14.5179 -3.30875 -1.11008 0
M  V30 170 C 15.8659 -3.96826 -1.51044 0
M  V30 171 O 16.8899 -3.35248 -1.20364 0
M  V30 172 O 15.7489 -5.05318 -2.08125 0
M  V30 173 H 12.8429 -0.750435 -0.347529 0
M  V30 174 H 15.3889 -1.69665 0.0344523 0
M  V30 175 H 14.1609 -3.90481 -0.252982 0
M  V30 176 H 13.7839 -3.48412 -1.9156 0
M  V30 177 N 14.781 0.264519 -1.55364 0
M  V30 178 C 16.029 0.993021 -1.76021 0
M  V30 179 C 16.35 1.86511 -0.569099 0
M  V30 180 O 15.62 1.91438 0.415735 0
M  V30 181 H 14.2 0.369639 -0.649135 0
M  V30 182 H 16.862 0.286707 -1.9278 0
M  V30 183 H 15.958 1.62502 -2.66457 0
M  V30 184 N 16.2591 1.48442 0.529413 0
M  V30 185 C 17.1911 1.59095 1.64989 0
M  V30 186 C 18.2041 0.475212 1.5571 0
M  V30 187 O 19.3931 0.746081 1.6216 0
M  V30 188 C 16.4931 1.50518 3.0364 0
M  V30 189 C 15.6661 2.77142 3.38395 0
M  V30 190 C 14.7251 2.62012 4.56329 0
M  V30 191 O 13.7511 3.35898 4.59522 0
M  V30 192 N 14.9531 1.71667 5.54536 0
M  V30 193 H 17.7181 2.55723 1.56287 0
M  V30 194 H 15.2791 1.45173 0.716697 0
M  V30 195 H 17.2711 1.38091 3.80412 0
M  V30 196 H 15.8411 0.618627 3.06418 0
M  V30 197 H 15.0611 3.0413 2.50796 0
M  V30 198 H 16.3491 3.61146 3.58401 0
M  V30 199 H 15.7471 1.10841 5.54735 0
M  V30 200 H 14.3041 1.65178 6.30523 0
M  V30 201 N 17.7372 -0.778329 1.37039 0
M  V30 202 C 18.6842 -1.89139 1.32269 0
M  V30 203 C 19.6542 -1.65017 0.189387 0
M  V30 204 O 20.8392 -1.87024 0.377693 0
M  V30 205 C 17.9792 -3.26112 1.12894 0
M  V30 206 C 17.0922 -3.62233 2.35396 0
M  V30 207 C 16.2272 -4.8838 2.08946 0
M  V30 208 C 15.2662 -5.17212 3.2735 0
M  V30 209 N 14.4032 -6.34546 3.00492 0
M  V30 210 H 19.2432 -1.92552 2.27437 0
M  V30 211 H 16.7802 -0.941473 1.13025 0
M  V30 212 H 18.7382 -4.05116 0.996835 0
M  V30 213 H 17.3682 -3.22091 0.213758 0
M  V30 214 H 16.4202 -2.78265 2.5937 0
M  V30 215 H 17.7322 -3.79481 3.23721 0
M  V30 216 H 16.8862 -5.75274 1.92729 0
M  V30 217 H 15.6252 -4.73222 1.17949 0
M  V30 218 H 14.6302 -4.28796 3.44113 0
M  V30 219 H 15.8552 -5.34283 4.19188 0
M  V30 220 H 13.8012 -6.20759 2.12118 0
M  V30 221 H 13.7182 -6.52179 3.82358 0
M  V30 222 H 14.9862 -7.24394 2.87879 0
M  V30 223 N 19.2153 -1.21501 -1.00376 0
M  V30 224 C 20.1453 -0.999478 -2.11028 0
M  V30 225 C 21.1263 0.0759671 -1.6993 0
M  V30 226 O 22.3113 -0.0841106 -1.94018 0
M  V30 227 C 19.4413 -0.564709 -3.42678 0
M  V30 228 C 18.3953 -1.58486 -3.97576 0
M  V30 229 C 17.7213 -1.00628 -5.25146 0
M  V30 230 C 19.0213 -2.97204 -4.29496 0
M  V30 231 H 20.7153 -1.92495 -2.29317 0
M  V30 232 H 18.2613 -0.92693 -1.102 0
M  V30 233 H 20.2143 -0.401091 -4.19487 0
M  V30 234 H 18.9383 0.396411 -3.24185 0
M  V30 235 H 17.5973 -1.73606 -3.22888 0
M  V30 236 H 17.2453 -0.0368439 -5.02987 0
M  V30 237 H 16.9453 -1.68771 -5.62841 0
M  V30 238 H 18.4693 -0.854015 -6.04598 0
M  V30 239 H 19.8833 -2.8552 -4.97143 0
M  V30 240 H 18.2803 -3.62372 -4.78338 0
M  V30 241 H 19.3503 -3.47956 -3.3772 0
M  V30 242 N 20.6934 1.19889 -1.02296 0
M  V30 243 C 22.1094 1.41462 -0.738954 0
M  V30 244 C 22.3094 1.89721 0.678846 0
M  V30 245 O 21.3654 2.07016 1.4457 0
M  V30 246 C 22.6784 2.43083 -1.77005 0
M  V30 247 C 24.2264 2.5684 -1.78892 0
M  V30 248 C 24.7014 3.61709 -2.80945 0
M  V30 249 N 26.1924 3.69199 -2.79725 0
M  V30 250 C 26.9274 4.50019 -3.55345 0
M  V30 251 N 26.4234 5.34592 -4.40662 0
M  V30 252 N 28.2164 4.44612 -3.43914 0
M  V30 253 H 20.3674 0.868827 -1.93817 0
M  V30 254 H 22.6304 0.44399 -0.837602 0
M  V30 255 H 22.3364 2.14636 -2.78612 0
M  V30 256 H 22.2104 3.4217 -1.58744 0
M  V30 257 H 24.5974 2.84614 -0.779674 0
M  V30 258 H 24.6784 1.57927 -2.01228 0
M  V30 259 H 24.3224 3.34678 -3.82038 0
M  V30 260 H 24.2524 4.60259 -2.5587 0
M  V30 261 H 26.7434 3.08794 -2.17842 0
M  V30 262 H 27.0564 5.93363 -4.95116 0
M  V30 263 H 25.4014 5.34073 -4.44737 0
M  V30 264 H 28.5924 3.7758 -2.76679 0
M  V30 265 H 28.7654 5.0736 -4.031 0
M  V30 266 N 22.1715 0.800033 1.35784 0
M  V30 267 C 23.4115 0.382891 2.00782 0
M  V30 268 C 23.7755 -1.02891 1.62103 0
M  V30 269 O 24.9765 -1.54771 2.19771 0
M  V30 270 C 23.2475 0.553299 3.53091 0
M  V30 271 S 24.8065 0.225608 4.3822 0
M  V30 272 H 21.6245 0.145737 0.695904 0
M  V30 273 H 24.2265 1.04085 1.65489 0
M  V30 274 H 22.9305 1.58091 3.78729 0
M  V30 275 H 22.4615 -0.120214 3.93216 0
M  V30 276 H 24.4765 -0.969074 4.86645 0
M  V30 277 N 23.6496 -1.47581 0.552962 0
M  V30 278 C 24.8976 -2.02082 0.0272703 0
M  V30 279 C 25.2186 -1.4301 -1.32563 0
M  V30 280 O 24.4886 -0.603745 -1.86365 0
M  V30 281 H 23.0686 -0.746966 0.00709182 0
M  V30 282 H 25.7306 -1.81033 0.722008 0
M  V30 283 H 24.8266 -3.12034 -0.0639951 0
M  V30 284 N 25.1277 -0.289203 -1.54924 0
M  V30 285 C 26.3577 0.325989 -2.04012 0
M  V30 286 C 26.7657 1.48961 -1.1665 0
M  V30 287 O 26.1087 1.82794 -0.1822 0
M  V30 288 C 26.1707 0.856112 -3.49158 0
M  V30 289 C 25.8347 -0.180697 -4.56643 0
M  V30 290 C 26.8317 -1.0051 -5.10092 0
M  V30 291 C 24.5167 -0.318998 -5.01286 0
M  V30 292 C 26.5107 -1.95385 -6.06715 0
M  V30 293 C 24.1977 -1.27121 -5.97732 0
M  V30 294 C 25.1957 -2.08713 -6.50329 0
M  V30 295 O 24.8837 -3.02322 -7.44887 0
M  V30 296 H 24.6157 0.0765276 -0.671654 0
M  V30 297 H 27.1697 -0.423254 -2.00992 0
M  V30 298 H 25.3997 1.65567 -3.49463 0
M  V30 299 H 27.0887 1.38591 -3.81507 0
M  V30 300 H 27.8547 -0.90906 -4.76404 0
M  V30 301 H 23.7337 0.306108 -4.59983 0
M  V30 302 H 27.2777 -2.59111 -6.47694 0
M  V30 303 H 23.1747 -1.36801 -6.30837 0
M  V30 304 H 23.9427 -2.97165 -7.6265 0
M  V30 305 N 26.6058 1.57591 -0.0167156 0
M  V30 306 C 27.8338 1.95575 0.675128 0
M  V30 307 C 28.2488 0.892542 1.6637 0
M  V30 308 O 27.6058 -0.126912 1.82058 0
M  V30 309 C 27.6568 3.33608 1.39239 0
M  V30 310 O 27.3778 4.3585 0.443444 0
M  V30 311 C 28.8788 3.86151 2.17721 0
M  V30 312 H 26.0988 0.644423 0.186978 0
M  V30 313 H 28.6428 2.0437 -0.0728 0
M  V30 314 H 26.7978 3.2607 2.09182 0
M  V30 315 H 27.2118 5.158 0.951358 0
M  V30 316 H 28.6858 4.85114 2.63379 0
M  V30 317 H 29.1628 3.19738 3.01105 0
M  V30 318 H 29.7688 3.96918 1.52761 0
M  V30 319 N 28.0839 -0.256276 1.55502 0
M  V30 320 C 29.3119 -1.00342 1.8094 0
M  V30 321 C 29.7269 -1.79307 0.59114 0
M  V30 322 O 29.0839 -1.77114 -0.440081 0
M  V30 323 C 29.1349 -1.94875 3.04476 0
M  V30 324 O 28.8559 -1.19107 4.21598 0
M  V30 325 C 30.3569 -2.81266 3.42644 0
M  V30 326 H 27.5769 -0.295685 0.602338 0
M  V30 327 H 30.1209 -0.281998 2.02546 0
M  V30 328 H 28.2759 -2.62457 2.84947 0
M  V30 329 H 28.6899 -1.82969 4.91551 0
M  V30 330 H 30.1639 -3.43362 4.32211 0
M  V30 331 H 30.6409 -3.51897 2.62802 0
M  V30 332 H 31.2469 -2.1915 3.64491 0
M  V30 333 N 29.562 -1.4872 -0.521534 0
M  V30 334 C 30.81 -1.56857 -1.27437 0
M  V30 335 C 31.131 -0.247982 -1.93417 0
M  V30 336 O 30.401 0.731151 -1.81744 0
M  V30 337 H 28.981 -0.577885 -0.473347 0
M  V30 338 H 31.643 -1.85233 -0.606205 0
M  V30 339 H 30.739 -2.35402 -2.0492 0
M  V30 340 N 31.0401 0.771051 -1.3745 0
M  V30 341 C 32.2651 1.56529 -1.36065 0
M  V30 342 C 32.6901 1.88029 0.0515859 0
M  V30 343 O 32.0481 1.49282 1.02882 0
M  V30 344 C 32.0961 2.85187 -2.20683 0
M  V30 345 O 31.2001 3.79593 -1.61193 0
M  V30 346 H 30.5411 0.47411 -0.464883 0
M  V30 347 H 33.0711 0.954269 -1.80983 0
M  V30 348 H 33.0811 3.34283 -2.33921 0
M  V30 349 H 31.7561 2.61588 -3.23334 0
M  V30 350 H 30.3331 3.38239 -1.56999 0
M  V30 351 N 32.5182 1.22032 0.997298 0
M  V30 352 C 33.7582 1.05375 1.75144 0
M  V30 353 C 34.1222 -0.404696 1.87686 0
M  V30 354 O 35.3232 -0.691998 2.5974 0
M  V30 355 C 33.5942 1.74046 3.12158 0
M  V30 356 S 35.1532 1.72745 4.03366 0
M  V30 357 H 31.9712 0.377449 0.602539 0
M  V30 358 H 34.5732 1.54902 1.19272 0
M  V30 359 H 33.2772 2.79332 3.00669 0
M  V30 360 H 32.8082 1.24731 3.73103 0
M  V30 361 H 34.8232 0.774015 4.90126 0
M  V30 362 N 33.9963 -1.19345 1.0293 0
M  V30 363 C 34.9593 -2.20793 0.615069 0
M  V30 364 C 35.9593 -1.57553 -0.321533 0
M  V30 365 O 37.1493 -1.73862 -0.108483 0
M  V30 366 C 34.2813 -3.40754 -0.0999222 0
M  V30 367 H 35.4743 -2.58955 1.51269 0
M  V30 368 H 33.0273 -1.3303 0.820534 0
M  V30 369 H 33.7623 -3.0811 -1.01187 0
M  V30 370 H 33.5473 -3.87889 0.57309 0
M  V30 371 H 35.0373 -4.15898 -0.376645 0
M  V30 372 N 35.4744 -0.807222 -1.35358 0
M  V30 373 C 36.4374 -0.223665 -2.28106 0
M  V30 374 C 37.4374 0.589354 -1.4961 0
M  V30 375 O 38.6274 0.407745 -1.69361 0
M  V30 376 C 35.7594 0.688149 -3.33882 0
M  V30 377 H 36.9524 -1.04169 -2.81227 0
M  V30 378 H 34.5054 -0.577921 -1.45223 0
M  V30 379 H 35.2404 1.52984 -2.85948 0
M  V30 380 H 35.0254 0.10687 -3.91954 0
M  V30 381 H 36.5154 1.09075 -4.03104 0
M  V30 382 N 36.9525 1.47285 -0.560781 0
M  V30 383 C 37.9155 2.28535 0.174488 0
M  V30 384 C 38.9155 1.37153 0.839388 0
M  V30 385 O 40.1055 1.59748 0.694702 0
M  V30 386 C 37.2375 3.16934 1.25561 0
M  V30 387 H 38.4305 2.95012 -0.539262 0
M  V30 388 H 35.9835 1.53034 -0.317865 0
M  V30 389 H 36.7185 2.55157 2.00164 0
M  V30 390 H 36.5035 3.8419 0.783604 0
M  V30 391 H 37.9935 3.78143 1.77193 0
M  V30 392 N 38.4306 0.297415 1.54768 0
M  V30 393 C 39.3936 -0.567375 2.22066 0
M  V30 394 C 40.3936 -1.06409 1.20556 0
M  V30 395 O 41.5836 -0.960691 1.45315 0
M  V30 396 C 38.7156 -1.78517 2.90421 0
M  V30 397 H 39.9086 0.0205534 2.99893 0
M  V30 398 H 37.4616 0.0482163 1.56226 0
M  V30 399 H 38.1966 -2.41303 2.16664 0
M  V30 400 H 37.9816 -1.43669 3.64831 0
M  V30 401 H 39.4716 -2.39964 3.41771 0
M  V30 402 N 39.9087 -1.5758 0.0250728 0
M  V30 403 C 40.8717 -2.08896 -0.943139 0
M  V30 404 C 41.8717 -1.00321 -1.25668 0
M  V30 405 O 43.0617 -1.26495 -1.19769 0
M  V30 406 C 40.1937 -2.55143 -2.26086 0
M  V30 407 H 41.3867 -2.95723 -0.498775 0
M  V30 408 H 38.9397 -1.54703 -0.222888 0
M  V30 409 H 39.6747 -1.71633 -2.75159 0
M  V30 410 H 39.4597 -3.34461 -2.04641 0
M  V30 411 H 40.9497 -2.95083 -2.95492 0
M  V30 412 N 41.3868 0.248026 -1.55636 0
M  V30 413 C 42.3338 1.30707 -1.90222 0
M  V30 414 C 43.3038 1.47881 -0.756332 0
M  V30 415 O 44.4888 1.61883 -1.00988 0
M  V30 416 C 41.6288 2.65769 -2.20138 0
M  V30 417 C 40.7418 2.56612 -3.47526 0
M  V30 418 C 39.8768 3.8402 -3.67017 0
M  V30 419 C 38.9158 3.69476 -4.8801 0
M  V30 420 N 38.0528 4.88774 -5.04029 0
M  V30 421 H 42.8928 1.00512 -2.80538 0
M  V30 422 H 40.4298 0.485055 -1.38873 0
M  V30 423 H 42.3878 3.44386 -2.35487 0
M  V30 424 H 41.0178 2.94115 -1.33027 0
M  V30 425 H 40.0698 1.69571 -3.40514 0
M  V30 426 H 41.3818 2.41774 -4.36287 0
M  V30 427 H 40.5358 4.7108 -3.8232 0
M  V30 428 H 39.2748 4.01754 -2.76487 0
M  V30 429 H 38.2798 2.80799 -4.72686 0
M  V30 430 H 39.5048 3.53238 -5.8 0
M  V30 431 H 37.4508 5.0687 -4.16435 0
M  V30 432 H 37.3678 4.76562 -5.86877 0
M  V30 433 H 38.6358 5.77335 -5.23741 0
M  V30 434 N 42.8649 1.48995 0.513639 0
M  V30 435 C 43.8279 1.64229 1.59879 0
M  V30 436 C 44.8279 0.514696 1.5234 0
M  V30 437 O 46.0179 0.78087 1.55718 0
M  V30 438 C 43.1499 1.62783 2.99524 0
M  V30 439 H 44.3429 2.61004 1.47705 0
M  V30 440 H 41.8959 1.37837 0.736936 0
M  V30 441 H 42.6309 0.675461 3.17188 0
M  V30 442 H 42.4159 2.4466 3.06404 0
M  V30 443 H 43.9059 1.76669 3.78388 0
M  V30 444 N 44.343 -0.763751 1.37857 0
M  V30 445 C 45.306 -1.85889 1.34081 0
M  V30 446 C 46.306 -1.58949 0.243277 0
M  V30 447 O 47.496 -1.66882 0.499589 0
M  V30 448 C 44.628 -3.23176 1.08489 0
M  V30 449 H 45.821 -1.90648 2.31502 0
M  V30 450 H 43.374 -0.964367 1.23003 0
M  V30 451 H 44.109 -3.24091 0.116318 0
M  V30 452 H 43.894 -3.44124 1.8794 0
M  V30 453 H 45.384 -4.03254 1.08517 0
M  V30 454 N 45.8211 -1.22559 -0.990812 0
M  V30 455 C 46.7841 -0.998863 -2.0629 0
M  V30 456 C 47.7841 0.0354834 -1.60761 0
M  V30 457 O 48.9741 -0.203231 -1.7301 0
M  V30 458 C 46.1061 -0.509203 -3.37076 0
M  V30 459 H 47.2991 -1.95014 -2.27837 0
M  V30 460 H 44.8521 -1.04456 -1.16269 0
M  V30 461 H 45.5871 0.446335 -3.21214 0
M  V30 462 H 45.3721 -1.25547 -3.71457 0
M  V30 463 H 46.8621 -0.370888 -4.1595 0
M  V30 464 N 47.2992 1.18797 -1.03562 0
M  V30 465 C 48.2292 2.24472 -0.643019 0
M  V30 466 C 49.2102 1.66433 0.351283 0
M  V30 467 O 50.3952 1.92803 0.232505 0
M  V30 468 C 47.5252 3.473 4.24935e-05 0
M  V30 469 C 46.4792 4.18055 -0.917257 0
M  V30 470 C 45.8052 5.34519 -0.138941 0
M  V30 471 C 47.1052 4.72109 -2.23407 0
M  V30 472 H 48.7992 2.57566 -1.52643 0
M  V30 473 H 46.3452 1.23806 -0.735394 0
M  V30 474 H 48.2982 4.20426 0.286383 0
M  V30 475 H 47.0222 3.13424 0.918299 0
M  V30 476 H 45.6812 3.46821 -1.1879 0
M  V30 477 H 45.3292 4.96891 0.781562 0
M  V30 478 H 45.0292 5.82794 -0.750005 0
M  V30 479 H 46.5532 6.10438 0.1405 0
M  V30 480 H 47.9672 5.36955 -2.00879 0
M  V30 481 H 46.3642 5.30897 -2.79765 0
M  V30 482 H 47.4342 3.89807 -2.88407 0
M  V30 483 N 48.7773 0.814389 1.34928 0
M  V30 484 C 50.0263 0.394871 1.97797 0
M  V30 485 C 50.3393 -1.04555 1.65311 0
M  V30 486 O 51.5453 -1.56856 2.21604 0
M  V30 487 C 50.0013 0.655103 3.53888 0
M  V30 488 C 49.6093 2.10858 3.95276 0
M  V30 489 C 51.3533 0.301329 4.23429 0
M  V30 490 C 49.2603 2.31415 5.44244 0
M  V30 491 H 48.1903 0.143913 0.740139 0
M  V30 492 H 50.8413 0.999544 1.53888 0
M  V30 493 H 49.2233 -0.0196253 3.95995 0
M  V30 494 H 50.3973 2.82176 3.64298 0
M  V30 495 H 48.7123 2.42297 3.38646 0
M  V30 496 H 51.3093 0.432869 5.32945 0
M  V30 497 H 51.6523 -0.75331 4.09428 0
M  V30 498 H 52.1853 0.930288 3.86769 0
M  V30 499 H 48.9243 3.35353 5.63222 0
M  V30 500 H 48.4443 1.6463 5.76764 0
M  V30 501 H 50.1233 2.13352 6.10811 0
M  V30 502 N 50.2554 -1.46986 0.568584 0
M  V30 503 C 51.1854 -2.32946 -0.160753 0
M  V30 504 C 52.1664 -1.44487 -0.897631 0
M  V30 505 O 53.3514 -1.73327 -0.875867 0
M  V30 506 C 50.4814 -3.26494 -1.18403 0
M  V30 507 C 49.4354 -4.24282 -0.562895 0
M  V30 508 C 48.7614 -5.07236 -1.69163 0
M  V30 509 C 50.0614 -5.19989 0.490761 0
M  V30 510 H 51.7554 -2.94175 0.556916 0
M  V30 511 H 49.3014 -1.4146 0.26927 0
M  V30 512 H 51.2544 -3.85477 -1.70251 0
M  V30 513 H 49.9784 -2.63343 -1.93179 0
M  V30 514 H 48.6374 -3.66541 -0.0656164 0
M  V30 515 H 48.2854 -4.4048 -2.42871 0
M  V30 516 H 47.9854 -5.7345 -1.28174 0
M  V30 517 H 49.5094 -5.6908 -2.21314 0
M  V30 518 H 50.9234 -5.73271 0.0579047 0
M  V30 519 H 49.3204 -5.94469 0.820165 0
M  V30 520 H 50.3904 -4.64777 1.3824 0
M  V30 521 N 51.7335 -0.305618 -1.54608 0
M  V30 522 C 52.9815 0.301701 -1.99835 0
M  V30 523 C 53.3025 1.54054 -1.19551 0
M  V30 524 O 52.5725 1.93702 -0.292658 0
M  V30 525 H 51.1525 0.114468 -0.738178 0
M  V30 526 H 53.8145 -0.418016 -1.90364 0
M  V30 527 H 52.9105 0.570548 -3.06841 0
M  V30 528 N 53.2116 1.57565 -0.0334293 0
M  V30 529 C 54.4596 1.91598 0.642999 0
M  V30 530 C 54.7806 0.910847 1.7242 0
M  V30 531 O 54.0506 -0.0469931 1.95844 0
M  V30 532 H 52.6306 0.707228 0.240496 0
M  V30 533 H 55.2926 1.94726 -0.0822488 0
M  V30 534 H 54.3886 2.92336 1.09298 0
M  V30 535 N 54.6897 -0.239769 1.55765 0
M  V30 536 C 55.5997 -1.31831 1.94056 0
M  V30 537 C 56.6157 -1.52275 0.841925 0
M  V30 538 O 57.7917 -1.65759 1.14394 0
M  V30 539 C 54.8567 -2.65156 2.23368 0
M  V30 540 C 53.9177 -2.53173 3.46701 0
M  V30 541 C 53.1507 -3.8014 3.74606 0
M  V30 542 O 53.3737 -4.82343 3.04469 0
M  V30 543 O 52.3077 -3.78344 4.68123 0
M  V30 544 H 56.1337 -1.02347 2.85935 0
M  V30 545 H 53.7187 -0.441123 1.42739 0
M  V30 546 H 55.6007 -3.43929 2.43497 0
M  V30 547 H 54.2757 -2.94358 1.34666 0
M  V30 548 H 53.1827 -1.72662 3.31871 0
M  V30 549 H 54.5157 -2.28915 4.35728 0
M  V30 550 N 56.1678 -1.49265 -0.50573 0
M  V30 551 C 57.3958 -1.62215 -1.28429 0
M  V30 552 C 57.8108 -0.291697 -1.86533 0
M  V30 553 O 57.1678 0.722233 -1.67601 0
M  V30 554 C 57.2188 -2.68735 -2.41793 0
M  V30 555 O 56.9398 -3.96619 -1.86078 0
M  V30 556 C 58.4408 -2.92346 -3.3324 0
M  V30 557 H 55.6608 -0.546239 -0.389697 0
M  V30 558 H 58.2048 -1.95265 -0.607609 0
M  V30 559 H 56.3598 -2.38476 -3.053 0
M  V30 560 H 56.7738 -4.55256 -2.60465 0
M  V30 561 H 58.2478 -3.70623 -4.09075 0
M  V30 562 H 58.7248 -2.02081 -3.89948 0
M  V30 563 H 59.3308 -3.24003 -2.75503 0
M  V30 564 N 57.6459 0.756429 -1.3826 0
M  V30 565 C 58.5789 1.87802 -1.29637 0
M  V30 566 C 59.5569 1.61667 -0.173939 0
M  V30 567 O 60.7409 1.85208 -0.350775 0
M  V30 568 C 57.8679 3.23354 -1.00797 0
M  V30 569 C 56.9139 3.68379 -2.14939 0
M  V30 570 S 57.7469 3.8025 -3.77054 0
M  V30 571 C 58.9029 5.18626 -3.50396 0
M  V30 572 H 59.1359 1.94829 -2.24564 0
M  V30 573 H 56.6689 0.919117 -1.24063 0
M  V30 574 H 58.6269 4.01637 -0.848413 0
M  V30 575 H 57.2879 3.14008 -0.0759369 0
M  V30 576 H 56.4809 4.66693 -1.90299 0
M  V30 577 H 56.0829 2.97242 -2.26988 0
M  V30 578 H 58.3749 6.04289 -3.06334 0
M  V30 579 H 59.3179 5.48286 -4.48094 0
M  V30 580 H 59.7259 4.87289 -2.84973 0
M  V30 581 N 59.124 1.23083 0.984299 0
M  V30 582 C 60.352 1.08714 1.76037 0
M  V30 583 C 60.767 -0.361691 1.85303 0
M  V30 584 O 60.124 -1.25034 1.32939 0
M  V30 585 C 60.175 1.70206 3.18923 0
M  V30 586 O 59.896 3.09423 3.10144 0
M  V30 587 C 61.397 1.61227 4.12941 0
M  V30 588 H 58.617 0.380664 0.552572 0
M  V30 589 H 61.161 1.62853 1.23689 0
M  V30 590 H 59.316 1.20109 3.6831 0
M  V30 591 H 59.73 3.39188 4.00065 0
M  V30 592 H 61.204 2.08962 5.10919 0
M  V30 593 H 61.681 0.570375 4.35481 0
M  V30 594 H 62.287 2.10671 3.69456 0
M  V30 595 N 60.6021 -1.18246 1.0419 0
M  V30 596 C 61.8271 -1.92736 0.765996 0
M  V30 597 C 62.2521 -1.75728 -0.67091 0
M  V30 598 O 61.6101 -1.06825 -1.46486 0
M  V30 599 C 61.6581 -3.42148 1.13875 0
M  V30 600 O 60.7621 -4.11548 0.264954 0
M  V30 601 H 60.1031 -0.601238 0.281797 0
M  V30 602 H 62.6331 -1.49942 1.39207 0
M  V30 603 H 62.6431 -3.92858 1.1012 0
M  V30 604 H 61.3181 -3.53848 2.18551 0
M  V30 605 H 59.8951 -3.71137 0.362226 0
M  V30 606 N 62.0802 -0.821533 -1.34494 0
M  V30 607 C 63.3262 -0.409552 -1.98622 0
M  V30 608 C 63.6592 1.0244 -1.64984 0
M  V30 609 O 62.9342 1.71325 -0.920758 0
M  V30 610 C 63.2172 -0.610458 -3.54888 0
M  V30 611 C 63.0702 -2.09043 -3.98273 0
M  V30 612 C 64.3892 -0.0455379 -4.40076 0
M  V30 613 H 61.5082 -0.15028 -0.721516 0
M  V30 614 H 64.1502 -1.03384 -1.59411 0
M  V30 615 H 62.3002 -0.079044 -3.8842 0
M  V30 616 H 63.9722 -2.68537 -3.75081 0
M  V30 617 H 62.2152 -2.58139 -3.48635 0
M  V30 618 H 62.8862 -2.18182 -5.07051 0
M  V30 619 H 65.3622 -0.499557 -4.1309 0
M  V30 620 H 64.2382 -0.215922 -5.48475 0
M  V30 621 H 64.4992 1.04939 -4.29465 0
M  V30 622 N 63.5583 1.46682 -0.576371 0
M  V30 623 C 64.5053 2.30241 0.160499 0
M  V30 624 C 65.4753 1.40233 0.890162 0
M  V30 625 O 66.6603 1.69186 0.882084 0
M  V30 626 C 63.8003 3.24578 1.1723 0
M  V30 627 C 62.9133 4.29684 0.446736 0
M  V30 628 C 62.0483 5.11154 1.44551 0
M  V30 629 C 61.0873 6.08015 0.70599 0
M  V30 630 N 60.2243 6.82376 1.65251 0
M  V30 631 H 65.0643 2.92727 -0.558127 0
M  V30 632 H 62.6013 1.44272 -0.287056 0
M  V30 633 H 64.5593 3.77711 1.77172 0
M  V30 634 H 63.1893 2.63916 1.85872 0
M  V30 635 H 62.2413 3.79458 -0.267594 0
M  V30 636 H 63.5533 4.98626 -0.131686 0
M  V30 637 H 62.7073 5.68533 2.11791 0
M  V30 638 H 61.4463 4.42158 2.05786 0
M  V30 639 H 60.4513 5.49796 0.0197725 0
M  V30 640 H 61.6763 6.79028 0.09912 0
M  V30 641 H 59.6223 6.16094 2.25308 0
M  V30 642 H 59.5393 7.47556 1.12673 0
M  V30 643 H 60.8073 7.44316 2.31546 0
M  V30 644 N 65.0364 0.313813 1.54444 0
M  V30 645 C 66.2854 -0.292519 1.99568 0
M  V30 646 C 66.5984 -1.54011 1.20582 0
M  V30 647 O 67.8044 -2.22183 1.56035 0
M  V30 648 C 66.2604 -0.571752 3.55329 0
M  V30 649 C 65.8684 0.658229 4.43138 0
M  V30 650 C 67.6124 -1.13857 4.08946 0
M  V30 651 C 65.5194 0.351439 5.90355 0
M  V30 652 H 64.4494 -0.113079 0.745472 0
M  V30 653 H 67.1004 0.424518 1.78522 0
M  V30 654 H 65.4824 -1.34872 3.72325 0
M  V30 655 H 66.6564 1.43403 4.37918 0
M  V30 656 H 64.9714 1.14458 4.0036 0
M  V30 657 H 67.5684 -1.38257 5.16516 0
M  V30 658 H 67.9114 -2.08489 3.6033 0
M  V30 659 H 68.4444 -0.423015 3.95544 0
M  V30 660 H 65.1834 1.26667 6.43145 0
M  V30 661 H 64.7034 -0.386842 5.98551 0
M  V30 662 H 66.3824 -0.0423134 6.46986 0
M  V30 663 N 66.5145 -1.57545 0.0417849 0
M  V30 664 C 67.7915 -1.83642 -0.673433 0
M  V30 665 C 68.1715 -0.928298 -1.89594 0
M  V30 666 O 67.5195 0.0129955 -2.28496 0
M  V30 667 C 67.7295 -3.33155 -1.03964 0
M  V30 668 C 69.0775 -3.99941 -1.42592 0
M  V30 669 O 70.1015 -3.37725 -1.13226 0
M  V30 670 O 68.9605 -5.09619 -1.9736 0
M  V30 671 H 66.0545 -0.757638 -0.331533 0
M  V30 672 H 68.6005 -1.69554 0.070433 0
M  V30 673 H 67.3725 -3.9093 -0.170098 0
M  V30 674 H 66.9955 -3.52396 -1.84126 0
M  V30 675 N 67.9926 0.231505 -1.5589 0
M  V30 676 C 69.2206 0.974505 -1.82513 0
M  V30 677 C 69.6356 1.78344 -0.619591 0
M  V30 678 O 68.9926 1.77792 0.411848 0
M  V30 679 C 69.0436 1.90007 -3.07538 0
M  V30 680 O 68.7646 1.12385 -4.2344 0
M  V30 681 C 70.2656 2.75779 -3.47075 0
M  V30 682 H 67.4856 0.286065 -0.606966 0
M  V30 683 H 70.0296 0.249739 -2.02969 0
M  V30 684 H 68.1846 2.57891 -2.89086 0
M  V30 685 H 68.5986 1.75125 -4.944 0
M  V30 686 H 70.0726 3.36443 -4.37619 0
M  V30 687 H 70.5496 3.47672 -2.68367 0
M  V30 688 H 71.1556 2.13323 -3.67931 0
M  V30 689 N 69.4707 1.49531 0.497807 0
M  V30 690 C 70.8817 1.52344 1.07927 0
M  V30 691 C 71.2327 0.311469 1.93712 0
M  V30 692 O 70.3577 -0.578405 2.08527 0
M  V30 693 C 70.9527 2.76062 1.96405 0
M  V30 694 C 69.5117 2.81643 2.49709 0
M  V30 695 C 68.6587 2.46299 1.27404 0
M  V30 696 H 71.6097 1.56182 0.281576 0
M  V30 697 H 71.6307 2.56405 2.81135 0
M  V30 698 H 71.1427 3.64254 1.33943 0
M  V30 699 H 69.2437 1.97739 3.15801 0
M  V30 700 H 69.3567 3.83891 2.86643 0
M  V30 701 H 67.7207 1.98148 1.60029 0
M  V30 702 H 68.5037 3.36769 0.66645 0
M  V30 703 N 70.9488 -0.749086 1.3866 0
M  V30 704 C 71.9118 -1.84457 1.36045 0
M  V30 705 C 72.9118 -1.58682 0.260122 0
M  V30 706 O 74.1018 -1.66343 0.517261 0
M  V30 707 C 71.2338 -3.22008 1.11911 0
M  V30 708 H 72.4268 -1.88182 2.33512 0
M  V30 709 H 69.9798 -0.951266 1.24019 0
M  V30 710 H 70.7148 -3.2395 0.150686 0
M  V30 711 H 70.4998 -3.42111 1.91579 0
M  V30 712 H 71.9898 -4.0208 1.12788 0
M  V30 713 N 72.4269 -1.23603 -0.977757 0
M  V30 714 C 73.6749 -1.06759 -1.71601 0
M  V30 715 C 73.9959 0.395929 -1.90938 0
M  V30 716 O 73.2659 1.28356 -1.47992 0
M  V30 717 H 71.8459 -0.392062 -0.635843 0
M  V30 718 H 74.5079 -1.55362 -1.1768 0
M  V30 719 H 73.6039 -1.55763 -2.70452 0
M  V30 720 N 73.905 1.17692 -1.04816 0
M  V30 721 C 74.835 2.23777 -0.666791 0
M  V30 722 C 75.816 1.66796 0.33361 0
M  V30 723 O 77.001 1.93039 0.212042 0
M  V30 724 C 74.131 3.47281 -0.0367933 0
M  V30 725 C 73.085 4.17059 -0.961546 0
M  V30 726 C 72.411 5.34342 -0.195626 0
M  V30 727 C 73.711 4.69713 -2.28402 0
M  V30 728 H 75.405 2.55933 -1.55367 0
M  V30 729 H 72.951 1.23019 -0.748484 0
M  V30 730 H 74.904 4.20706 0.241775 0
M  V30 731 H 73.628 3.14381 0.885004 0
M  V30 732 H 72.287 3.45541 -1.22462 0
M  V30 733 H 71.935 4.97692 0.728816 0
M  V30 734 H 71.635 5.81966 -0.811775 0
M  V30 735 H 73.159 6.10553 0.0757473 0
M  V30 736 H 74.573 5.34794 -2.06563 0
M  V30 737 H 72.97 5.279 -2.8538 0
M  V30 738 H 74.04 3.86726 -2.92525 0
M  V30 739 N 75.3831 0.828654 1.34056 0
M  V30 740 C 76.6291 0.42008 1.98402 0
M  V30 741 C 76.9621 -1.01564 1.65525 0
M  V30 742 O 76.2371 -1.70834 0.929831 0
M  V30 743 C 76.5201 0.62927 3.54559 0
M  V30 744 C 76.3731 2.11152 3.97159 0
M  V30 745 C 77.6921 0.0688756 4.40046 0
M  V30 746 H 74.8111 0.154104 0.720709 0
M  V30 747 H 77.4531 1.04228 1.5886 0
M  V30 748 H 75.6031 0.0996418 3.88372 0
M  V30 749 H 77.2751 2.70522 3.73651 0
M  V30 750 H 75.5181 2.59985 3.47261 0
M  V30 751 H 76.1891 2.20868 5.05887 0
M  V30 752 H 78.6651 0.521458 4.1282 0
M  V30 753 H 77.5411 0.245006 5.48353 0
M  V30 754 H 77.8021 -1.0266 4.30015 0
M  V30 755 N 76.8612 -1.46375 0.584142 0
M  V30 756 C 77.7912 -2.33103 -0.136037 0
M  V30 757 C 78.7722 -1.45431 -0.882255 0
M  V30 758 O 79.9572 -1.74246 -0.857434 0
M  V30 759 C 77.0872 -3.27731 -1.14933 0
M  V30 760 C 76.0412 -4.24855 -0.517862 0
M  V30 761 C 75.3672 -5.09001 -1.63773 0
M  V30 762 C 76.6672 -5.19439 0.545886 0
M  V30 763 H 78.3612 -2.93568 0.588086 0
M  V30 764 H 75.9072 -1.41166 0.284259 0
M  V30 765 H 77.8602 -3.87261 -1.66153 0
M  V30 766 H 76.5842 -2.65377 -1.90375 0
M  V30 767 H 75.2432 -3.6659 -0.0267361 0
M  V30 768 H 74.8912 -4.43031 -2.38185 0
M  V30 769 H 74.5912 -5.74777 -1.22085 0
M  V30 770 H 76.1152 -5.71396 -2.15266 0
M  V30 771 H 77.5292 -5.73177 0.118704 0
M  V30 772 H 75.9262 -5.93566 0.88317 0
M  V30 773 H 76.9962 -4.63285 1.43162 0
M  V30 774 N 78.3393 -0.321999 -1.54275 0
M  V30 775 C 79.6163 0.335232 -1.92706 0
M  V30 776 C 79.9963 1.70006 -1.25145 0
M  V30 777 O 79.3443 2.25067 -0.394596 0
M  V30 778 C 79.5543 0.429008 -3.46353 0
M  V30 779 C 80.9023 0.690029 -4.18956 0
M  V30 780 O 81.9263 0.511992 -3.52501 0
M  V30 781 O 80.7853 1.03338 -5.36641 0
M  V30 782 H 77.8793 0.191143 -0.804608 0
M  V30 783 H 80.4253 -0.3716 -1.65581 0
M  V30 784 H 79.1973 -0.529611 -3.87699 0
M  V30 785 H 78.8203 1.18348 -3.79578 0
M  V30 786 N 79.8174 1.5752 -0.0501392 0
M  V30 787 C 80.7474 2.14502 0.922566 0
M  V30 788 C 81.7284 1.06642 1.3252 0
M  V30 789 O 82.9134 1.34577 1.4001 0
M  V30 790 C 80.0434 2.68916 2.19776 0
M  V30 791 C 78.9974 3.8175 1.93523 0
M  V30 792 C 78.3234 4.22677 3.27487 0
M  V30 793 C 79.6234 5.06932 1.25765 0
M  V30 794 H 81.3174 2.9603 0.447952 0
M  V30 795 H 78.8634 1.42401 0.214024 0
M  V30 796 H 80.8164 3.07419 2.88222 0
M  V30 797 H 79.5404 1.84578 2.69441 0
M  V30 798 H 78.1994 3.43718 1.27489 0
M  V30 799 H 77.8474 3.35291 3.74952 0
M  V30 800 H 77.5474 4.98725 3.1072 0
M  V30 801 H 79.0714 4.63779 3.97166 0
M  V30 802 H 80.4854 5.42888 1.84244 0
M  V30 803 H 78.8824 5.88116 1.19328 0
M  V30 804 H 79.9524 4.84337 0.233536 0
M  V30 805 N 81.2955 -0.223234 1.56011 0
M  V30 806 C 82.7065 -0.790368 1.69145 0
M  V30 807 C 83.0575 -1.85055 0.651845 0
M  V30 808 O 82.1825 -2.15498 -0.197359 0
M  V30 809 C 82.7775 -1.4404 3.06656 0
M  V30 810 C 81.3365 -1.95494 3.2165 0
M  V30 811 C 80.4835 -0.814506 2.65068 0
M  V30 812 H 83.4345 0.00139011 1.587 0
M  V30 813 H 83.4555 -2.30916 3.0242 0
M  V30 814 H 82.9675 -0.668543 3.82298 0
M  V30 815 H 81.0685 -2.75487 2.50874 0
M  V30 816 H 81.1815 -2.13607 4.28846 0
M  V30 817 H 79.5455 -1.22137 2.23505 0
M  V30 818 H 80.3285 -0.0553515 3.43255 0
M  V30 819 N 82.7736 -1.49793 -0.48987 0
M  V30 820 C 84.0196 -1.60078 -1.24511 0
M  V30 821 C 84.3526 -0.291608 -1.91998 0
M  V30 822 O 83.6276 0.705647 -1.81248 0
M  V30 823 C 83.9106 -2.76791 -2.30345 0
M  V30 824 C 83.7636 -4.17535 -1.67286 0
M  V30 825 C 85.0826 -2.89111 -3.31817 0
M  V30 826 H 82.2016 -0.582645 -0.451324 0
M  V30 827 H 84.8436 -1.82117 -0.541612 0
M  V30 828 H 82.9936 -2.5813 -2.90346 0
M  V30 829 H 84.6656 -4.4774 -1.11026 0
M  V30 830 H 82.9086 -4.22665 -0.976577 0
M  V30 831 H 83.5796 -4.95094 -2.44103 0
M  V30 832 H 86.0556 -3.06133 -2.81819 0
M  V30 833 H 84.9316 -3.72433 -4.03219 0
M  V30 834 H 85.1926 -1.9893 -3.94815 0
M  V30 835 N 84.2517 0.741722 -1.39055 0
M  V30 836 C 85.1617 1.88621 -1.39496 0
M  V30 837 C 86.1777 1.71557 -0.290578 0
M  V30 838 O 87.3537 1.94275 -0.530954 0
M  V30 839 C 84.4187 3.24134 -1.23037 0
M  V30 840 C 83.4797 3.5364 -2.43387 0
M  V30 841 C 82.7127 4.82687 -2.27703 0
M  V30 842 O 82.9357 5.55922 -1.27696 0
M  V30 843 O 81.8697 5.1194 -3.16545 0
M  V30 844 H 85.6957 1.91203 -2.35956 0
M  V30 845 H 83.2807 0.888625 -1.20099 0
M  V30 846 H 85.1627 4.0513 -1.15964 0
M  V30 847 H 83.8377 3.22337 -0.296691 0
M  V30 848 H 82.7447 2.72758 -2.56035 0
M  V30 849 H 84.0777 3.60209 -3.35425 0
M  V30 850 N 85.7298 1.2412 0.971189 0
M  V30 851 C 86.6798 0.997551 2.05019 0
M  V30 852 C 87.6638 -0.0597747 1.60789 0
M  V30 853 O 88.8558 0.153516 1.76333 0
M  V30 854 C 85.9848 0.600557 3.38006 0
M  V30 855 C 85.0708 1.69377 3.88809 0
M  V30 856 N 85.4618 2.92586 4.12586 0
M  V30 857 C 83.7598 1.57048 4.17435 0
M  V30 858 C 84.4608 3.63431 4.54195 0
M  V30 859 N 83.4368 2.90979 4.59165 0
M  V30 860 H 87.2388 1.93316 2.21374 0
M  V30 861 H 84.7528 1.14194 1.1547 0
M  V30 862 H 86.7498 0.40725 4.14906 0
M  V30 863 H 85.4098 -0.327903 3.2304 0
M  V30 864 H 86.4208 3.288 4.00139 0
M  V30 865 H 83.0978 0.709798 4.11422 0
M  V30 866 H 84.4878 4.69102 4.81033 0
M  V30 867 N 87.2079 -1.17134 1.05439 0
M  V30 868 C 88.4479 -1.89137 0.77502 0
M  V30 869 C 88.8119 -1.79345 -0.685526 0
M  V30 870 O 90.0129 -2.46188 -1.0791 0
M  V30 871 C 88.2839 -3.35003 1.2453 0
M  V30 872 S 89.8429 -4.24952 1.09367 0
M  V30 873 H 86.6609 -0.652949 0.281387 0
M  V30 874 H 89.2629 -1.4145 1.34953 0
M  V30 875 H 87.9669 -3.39666 2.30338 0
M  V30 876 H 87.4979 -3.87736 0.665166 0
M  V30 877 H 89.5129 -4.96196 0.0193397 0
M  V30 878 N 88.686 -0.835752 -1.33615 0
M  V30 879 C 90.102 -0.523139 -1.50783 0
M  V30 880 C 90.302 0.950171 -1.77691 0
M  V30 881 O 89.358 1.73411 -1.83534 0
M  V30 882 C 90.671 -1.39378 -2.66448 0
M  V30 883 C 92.219 -1.39223 -2.80332 0
M  V30 884 C 92.694 -2.24765 -3.99055 0
M  V30 885 N 94.185 -2.22458 -4.06284 0
M  V30 886 C 94.92 -2.85386 -4.97336 0
M  V30 887 N 94.416 -3.57354 -5.93523 0
M  V30 888 N 96.209 -2.74872 -4.90308 0
M  V30 889 H 88.36 -1.78952 -1.14411 0
M  V30 890 H 90.623 -0.763297 -0.562212 0
M  V30 891 H 90.329 -2.44061 -2.53234 0
M  V30 892 H 90.203 -1.0676 -3.61776 0
M  V30 893 H 92.59 -0.353136 -2.92979 0
M  V30 894 H 92.671 -1.75846 -1.85773 0
M  V30 895 H 92.315 -3.28732 -3.87167 0
M  V30 896 H 92.245 -1.85485 -4.92852 0
M  V30 897 H 94.736 -1.70119 -3.37443 0
M  V30 898 H 95.049 -4.02584 -6.59656 0
M  V30 899 H 93.394 -3.61461 -5.93608 0
M  V30 900 H 96.585 -2.18213 -4.14126 0
M  V30 901 H 96.758 -3.24199 -5.61069 0
M  V30 902 N 90.1641 1.46063 -0.591896 0
M  V30 903 C 91.3891 2.07226 -0.0850314 0
M  V30 904 C 91.8141 1.43625 1.21463 0
M  V30 905 O 91.1721 0.523305 1.73583 0
M  V30 906 C 91.2201 3.60554 0.0576567 0
M  V30 907 O 90.3241 3.97128 1.11188 0
M  V30 908 H 89.6651 0.660615 -0.0669568 0
M  V30 909 H 92.1951 1.8756 -0.81745 0
M  V30 910 H 92.2051 4.07165 0.2609 0
M  V30 911 H 90.8801 4.06235 -0.891416 0
M  V30 912 H 89.4571 3.62213 0.886356 0
M  V30 913 N 91.6422 0.330177 1.54103 0
M  V30 914 C 92.8722 -0.271784 2.04805 0
M  V30 915 C 93.2802 -1.45816 1.20559 0
M  V30 916 O 92.6232 -1.82247 0.2306 0
M  V30 917 C 92.6852 -0.763238 3.51305 0
M  V30 918 C 92.3492 0.301705 4.56003 0
M  V30 919 C 93.3462 1.13999 5.07248 0
M  V30 920 C 91.0312 0.451793 5.00264 0
M  V30 921 C 93.0252 2.11402 6.01322 0
M  V30 922 C 90.7122 1.42924 5.94151 0
M  V30 923 C 91.7102 2.25882 6.44567 0
M  V30 924 O 91.3982 3.21965 7.3661 0
M  V30 925 H 91.1302 -0.058693 0.673447 0
M  V30 926 H 93.6842 0.476395 1.99799 0
M  V30 927 H 91.9142 -1.56244 3.5373 0
M  V30 928 H 93.6032 -1.28427 3.85047 0
M  V30 929 H 94.3692 1.03505 4.73827 0
M  V30 930 H 90.2482 -0.184044 4.60632 0
M  V30 931 H 93.7922 2.76192 6.40596 0
M  V30 932 H 89.6892 1.53479 6.26988 0
M  V30 933 H 90.4572 3.17281 7.54503 0
M  V30 934 N 93.1203 -1.57491 0.0584922 0
M  V30 935 C 94.0673 -2.11958 -0.913376 0
M  V30 936 C 95.0373 -1.02875 -1.30407 0
M  V30 937 O 96.2223 -1.30464 -1.39226 0
M  V30 938 C 93.3623 -2.67497 -2.18035 0
M  V30 939 C 92.4753 -3.90691 -1.84349 0
M  V30 940 C 91.6103 -4.3452 -3.05559 0
M  V30 941 C 90.6493 -5.50395 -2.67827 0
M  V30 942 N 89.7863 -5.89244 -3.81754 0
M  V30 943 H 94.6263 -2.94704 -0.442017 0
M  V30 944 H 92.1633 -1.45643 -0.206545 0
M  V30 945 H 94.1213 -2.978 -2.92183 0
M  V30 946 H 92.7513 -1.87537 -2.62735 0
M  V30 947 H 91.8033 -3.66934 -1.00319 0
M  V30 948 H 93.1153 -4.7489 -1.5258 0
M  V30 949 H 92.2693 -4.66414 -3.87998 0
M  V30 950 H 91.0083 -3.49147 -3.40511 0
M  V30 951 H 90.0133 -5.18165 -1.83806 0
M  V30 952 H 91.2383 -6.3749 -2.34059 0
M  V30 953 H 89.1843 -5.06823 -4.16493 0
M  V30 954 H 89.1013 -6.68151 -3.53708 0
M  V30 955 H 90.3693 -6.25756 -4.64811 0
M  V30 956 N 94.5984 0.214957 -1.56127 0
M  V30 957 C 95.5464 1.28601 -1.93816 0
M  V30 958 C 96.5404 1.48175 -0.821016 0
M  V30 959 O 97.7464 1.49271 -1.0059 0
M  V30 960 H 94.1214 0.431302 -0.616022 0
M  V30 961 H 96.0924 0.940991 -2.83175 0
M  V30 962 C 94.8414 2.62779 -2.27689 0
M  V30 963 H 94.1644 2.48527 -3.13168 0
M  V30 964 H 95.6044 3.36517 -2.57939 0
M  V30 965 C 94.0634 3.18285 -1.10436 0
M  V30 966 O 94.5934 4.00002 -0.368945 0
M  V30 967 N 92.7994 2.7675 -0.886433 0
M  V30 968 H 92.3464 2.10404 -1.48619 0
M  V30 969 H 92.3044 3.14229 -0.103656 0
M  V30 970 N 96.0765 1.50051 0.48192 0
M  V30 971 C 97.0235 1.68122 1.58125 0
M  V30 972 C 97.9935 0.522545 1.57666 0
M  V30 973 O 99.1785 0.751844 1.75362 0
M  V30 974 C 96.3185 1.77142 2.96167 0
M  V30 975 C 95.4315 3.0444 3.06497 0
M  V30 976 C 94.5665 3.04321 4.35387 0
M  V30 977 C 93.6055 4.26118 4.3942 0
M  V30 978 N 92.7425 4.238 5.59766 0
M  V30 979 H 97.5825 2.6198 1.42022 0
M  V30 980 H 95.1195 1.29877 0.690687 0
M  V30 981 H 97.0775 1.80352 3.76203 0
M  V30 982 H 95.7075 0.867329 3.1093 0
M  V30 983 H 94.7595 3.10752 2.19402 0
M  V30 984 H 96.0715 3.94426 3.05336 0
M  V30 985 H 95.2255 3.062 5.23762 0
M  V30 986 H 93.9645 2.12147 4.39141 0
M  V30 987 H 92.9695 4.24463 3.49444 0
M  V30 988 H 94.1945 5.19507 4.37366 0
M  V30 989 H 92.1405 3.34474 5.64326 0
M  V30 990 H 92.0575 5.07542 5.60301 0
M  V30 991 H 93.3255 4.2981 6.50295 0
M  V30 992 N 97.5546 -0.734337 1.39446 0
M  V30 993 C 98.8316 -1.48579 1.27215 0
M  V30 994 C 99.2116 -2.1077 -0.117968 0
M  V30 995 O 98.5596 -1.98646 -1.12924 0
M  V30 996 C 98.7696 -2.53667 2.39696 0
M  V30 997 C 100.118 -3.20031 2.79044 0
M  V30 998 O 101.142 -2.6398 2.39151 0
M  V30 999 O 100.001 -4.21455 3.47905 0
M  V30 1000 H 97.0946 -0.659816 0.49857 0
M  V30 1001 H 99.6406 -0.768106 1.51322 0
M  V30 1002 H 98.4126 -2.06096 3.32626 0
M  V30 1003 H 98.0356 -3.32994 2.17258 0
M  V30 1004 N 99.0327 -1.24633 -0.964593 0
M  V30 1005 C 100.281 -1.08573 -1.70459 0
M  V30 1006 C 100.602 0.375655 -1.91347 0
M  V30 1007 O 99.8717 1.26779 -1.49345 0
M  V30 1008 H 98.4517 -0.398784 -0.631649 0
M  V30 1009 H 101.114 -1.56601 -1.16026 0
M  V30 1010 H 100.21 -1.58623 -2.68785 0
M  V30 1011 N 100.511 1.16574 -1.06058 0
M  V30 1012 C 101.739 1.90952 -0.796552 0
M  V30 1013 C 102.154 1.77302 0.648808 0
M  V30 1014 O 101.511 1.11605 1.44397 0
M  V30 1015 C 101.562 3.41736 -1.17894 0
M  V30 1016 O 101.283 3.54975 -2.56758 0
M  V30 1017 C 102.784 4.33169 -0.942308 0
M  V30 1018 H 100.004 0.605594 -0.288959 0
M  V30 1019 H 102.548 1.47777 -1.41358 0
M  V30 1020 H 100.703 3.82623 -0.606491 0
M  V30 1021 H 101.117 4.4846 -2.72 0
M  V30 1022 H 102.591 5.37439 -1.25952 0
M  V30 1023 H 103.068 4.3903 0.122078 0
M  V30 1024 H 103.674 3.98007 -1.49902 0
M  V30 1025 N 101.989 0.842826 1.3317 0
M  V30 1026 C 102.952 0.284065 2.27433 0
M  V30 1027 C 103.952 -0.54948 1.5112 0
M  V30 1028 O 105.142 -0.362699 1.70382 0
M  V30 1029 C 102.274 -0.599384 3.35589 0
M  V30 1030 H 103.467 1.11589 2.78366 0
M  V30 1031 H 101.02 0.616221 1.4364 0
M  V30 1032 H 101.755 -1.45349 2.89904 0
M  V30 1033 H 101.54 -0.00291266 3.921 0
M  V30 1034 H 103.03 -0.983488 4.05854 0
M  V30 1035 N 103.467 -1.45747 0.599634 0
M  V30 1036 C 104.716 -2.01502 0.0893511 0
M  V30 1037 C 105.029 -1.4748 -1.28488 0
M  V30 1038 O 106.235 -1.95161 -1.88745 0
M  V30 1039 C 104.691 -3.59735 0.109082 0
M  V30 1040 C 104.299 -4.22754 1.48267 0
M  V30 1041 C 106.043 -4.23085 -0.346374 0
M  V30 1042 C 103.95 -5.73115 1.45921 0
M  V30 1043 H 102.88 -0.753417 0.0296347 0
M  V30 1044 H 105.531 -1.67303 0.753788 0
M  V30 1045 H 103.913 -3.91087 -0.621854 0
M  V30 1046 H 105.087 -4.02987 2.23468 0
M  V30 1047 H 103.402 -3.71567 1.87955 0
M  V30 1048 H 105.999 -5.33327 -0.38298 0
M  V30 1049 H 106.342 -3.93201 -1.36743 0
M  V30 1050 H 106.875 -3.9642 0.331038 0
M  V30 1051 H 103.614 -6.07685 2.45762 0
M  V30 1052 H 103.134 -5.95097 0.749665 0
M  V30 1053 H 104.813 -6.3616 1.17941 0
M  V30 1054 N 104.945 -0.338344 -1.53925 0
M  V30 1055 C 106.193 0.259245 -2.0043 0
M  V30 1056 C 106.514 1.51484 -1.22791 0
M  V30 1057 O 105.784 1.93037 -0.33368 0
M  V30 1058 H 104.364 0.0987845 -0.740439 0
M  V30 1059 H 107.026 -0.458302 -1.89435 0
M  V30 1060 H 106.122 0.505334 -3.07982 0
M  V30 1061 N 106.423 1.57458 -0.0668435 0
M  V30 1062 C 107.333 2.15937 0.916975 0
M  V30 1063 C 108.349 1.12123 1.33058 0
M  V30 1064 O 109.525 1.44366 1.40429 0
M  V30 1065 C 106.59 2.70547 2.16807 0
M  V30 1066 C 105.651 3.89215 1.81135 0
M  V30 1067 C 104.884 4.41211 3.0028 0
M  V30 1068 O 105.107 3.92225 4.14144 0
M  V30 1069 O 104.041 5.32605 2.80384 0
M  V30 1070 H 107.867 3.00354 0.449561 0
M  V30 1071 H 105.452 1.48584 0.155949 0
M  V30 1072 H 107.334 3.0557 2.90181 0
M  V30 1073 H 106.009 1.89192 2.62656 0
M  V30 1074 H 104.916 3.59054 1.05028 0
M  V30 1075 H 106.249 4.71848 1.40073 0
M  V30 1076 N 107.901 -0.206675 1.56239 0
M  V30 1077 C 108.864 -1.23976 1.92776 0
M  V30 1078 C 109.864 -1.39041 0.807729 0
M  V30 1079 O 111.054 -1.37051 1.0753 0
M  V30 1080 C 108.186 -2.61112 2.19165 0
M  V30 1081 H 109.379 -0.927764 2.85189 0
M  V30 1082 H 106.932 -0.447718 1.4975 0
M  V30 1083 H 107.667 -2.97386 1.29352 0
M  V30 1084 H 107.452 -2.51552 3.00772 0
M  V30 1085 H 108.942 -3.35633 2.48476 0
M  V30 1086 N 109.379 -1.50304 -0.473955 0
M  V30 1087 C 110.342 -1.6841 -1.55469 0
M  V30 1088 C 111.342 -0.554905 -1.50922 0
M  V30 1089 O 112.532 -0.821882 -1.53593 0
M  V30 1090 C 109.664 -1.70667 -2.95102 0
M  V30 1091 H 110.857 -2.64828 -1.40733 0
M  V30 1092 H 108.41 -1.39742 -0.700132 0
M  V30 1093 H 109.145 -0.75932 -3.15285 0
M  V30 1094 H 108.93 -2.52698 -2.9981 0
M  V30 1095 H 110.42 -1.8664 -3.73571 0
M  V30 1096 N 110.857 0.726932 -1.39834 0
M  V30 1097 C 112.103 1.48884 -1.377 0
M  V30 1098 C 112.436 1.94185 0.0244852 0
M  V30 1099 O 111.711 1.67361 0.990986 0
M  V30 1100 C 111.994 2.72288 -2.3565 0
M  V30 1101 C 111.847 2.32956 -3.84775 0
M  V30 1102 C 113.166 3.74414 -2.31306 0
M  V30 1103 H 110.285 0.540062 -0.5015 0
M  V30 1104 H 112.927 0.830547 -1.70886 0
M  V30 1105 H 111.077 3.28457 -2.07481 0
M  V30 1106 H 112.749 1.82356 -4.23726 0
M  V30 1107 H 110.992 1.65088 -4.01159 0
M  V30 1108 H 111.663 3.21362 -4.4881 0
M  V30 1109 H 114.139 3.27849 -2.56231 0
M  V30 1110 H 113.015 4.58414 -3.01907 0
M  V30 1111 H 113.276 4.21909 -1.32081 0
M  V30 1112 N 112.336 1.25143 0.95797 0
M  V30 1113 C 113.268 1.01023 2.05735 0
M  V30 1114 C 114.281 -0.0236902 1.62783 0
M  V30 1115 O 115.47 0.21448 1.77207 0
M  V30 1116 C 112.57 0.504595 3.35122 0
M  V30 1117 C 111.743 1.6039 4.06932 0
M  V30 1118 C 110.802 1.09922 5.14591 0
M  V30 1119 O 109.828 1.79293 5.40225 0
M  V30 1120 N 111.03 -0.0612545 5.80468 0
M  V30 1121 H 113.795 1.95683 2.26998 0
M  V30 1122 H 111.356 1.16303 1.12629 0
M  V30 1123 H 113.348 0.151516 4.04416 0
M  V30 1124 H 111.918 -0.347989 3.10657 0
M  V30 1125 H 111.138 2.12872 3.31782 0
M  V30 1126 H 112.426 2.34252 4.51667 0
M  V30 1127 H 111.824 -0.640985 5.62057 0
M  V30 1128 H 110.381 -0.355395 6.5083 0
M  V30 1129 N 113.814 -1.1601 1.06675 0
M  V30 1130 C 114.761 -2.20525 0.680967 0
M  V30 1131 C 115.731 -1.62904 -0.324283 0
M  V30 1132 O 116.916 -1.89615 -0.212294 0
M  V30 1133 C 114.056 -3.45013 0.0776551 0
M  V30 1134 C 113.169 -4.16863 1.13355 0
M  V30 1135 C 112.304 -5.2888 0.49597 0
M  V30 1136 C 111.343 -5.92537 1.53513 0
M  V30 1137 N 110.48 -6.96038 0.920631 0
M  V30 1138 H 115.32 -2.52876 1.57663 0
M  V30 1139 H 112.857 -1.24199 0.788223 0
M  V30 1140 H 114.815 -4.16193 -0.289704 0
M  V30 1141 H 113.445 -3.132 -0.781393 0
M  V30 1142 H 112.497 -3.44248 1.61857 0
M  V30 1143 H 113.809 -4.60294 1.92174 0
M  V30 1144 H 112.963 -6.06653 0.0758604 0
M  V30 1145 H 111.702 -4.86622 -0.324062 0
M  V30 1146 H 110.707 -5.13482 1.9651 0
M  V30 1147 H 111.932 -6.36873 2.35733 0
M  V30 1148 H 109.878 -6.55888 0.12138 0
M  V30 1149 H 109.795 -7.3786 1.64616 0
M  V30 1150 H 111.063 -7.77725 0.525795 0
M  V30 1151 N 115.292 -0.849877 -1.32721 0
M  V30 1152 C 116.569 -0.372405 -1.92022 0
M  V30 1153 C 116.949 1.1435 -1.77447 0
M  V30 1154 O 116.297 1.96296 -1.16962 0
M  V30 1155 C 116.507 -0.831482 -3.3895 0
M  V30 1156 C 117.855 -0.845882 -4.16089 0
M  V30 1157 O 118.879 -0.775806 -3.47649 0
M  V30 1158 O 117.738 -0.943753 -5.38289 0
M  V30 1159 H 114.832 -0.107667 -0.819961 0
M  V30 1160 H 117.378 -0.93646 -1.41522 0
M  V30 1161 H 116.15 -1.87448 -3.4348 0
M  V30 1162 H 115.773 -0.24461 -3.96847 0
M  V30 1163 N 116.77 1.45427 -0.607355 0
M  V30 1164 C 117.733 2.28974 0.101693 0
M  V30 1165 C 118.733 1.39754 0.795329 0
M  V30 1166 O 119.923 1.61878 0.643527 0
M  V30 1167 C 117.055 3.20768 1.15414 0
M  V30 1168 H 118.248 2.93147 -0.632844 0
M  V30 1169 H 115.801 1.51945 -0.366391 0
M  V30 1170 H 116.536 2.61395 1.91945 0
M  V30 1171 H 116.321 3.86489 0.66098 0
M  V30 1172 H 117.811 3.83589 1.65073 0
M  V30 1173 N 118.248 0.346503 1.53744 0
M  V30 1174 C 119.496 -0.248612 2.00565 0
M  V30 1175 C 119.817 -1.5083 1.23593 0
M  V30 1176 O 119.087 -1.92858 0.343912 0
M  V30 1177 H 117.667 -0.0948564 0.740953 0
M  V30 1178 H 120.329 0.468341 1.89189 0
M  V30 1179 H 119.425 -0.488994 3.08245 0
M  V30 1180 N 119.726 -1.57421 0.075193 0
M  V30 1181 C 121.003 -1.85029 -0.634329 0
M  V30 1182 C 121.383 -0.968305 -1.87582 0
M  V30 1183 O 120.731 -0.0354749 -2.28472 0
M  V30 1184 C 120.941 -3.35286 -0.968742 0
M  V30 1185 C 122.289 -4.02875 -1.34077 0
M  V30 1186 O 123.313 -3.40051 -1.06037 0
M  V30 1187 O 122.172 -5.13691 -1.86506 0
M  V30 1188 H 119.266 -0.7645 -0.315387 0
M  V30 1189 H 121.812 -1.69366 0.106382 0
M  V30 1190 H 120.584 -3.91203 -0.0871376 0
M  V30 1191 H 120.207 -3.56223 -1.7661 0
M  V30 1192 N 121.204 0.198386 -1.56346 0
M  V30 1193 C 122.481 0.944982 -1.71258 0
M  V30 1194 C 122.861 2.0151 -0.629048 0
M  V30 1195 O 122.209 2.25639 0.360473 0
M  V30 1196 C 122.419 1.5344 -3.1346 0
M  V30 1197 C 123.767 2.01778 -3.73591 0
M  V30 1198 O 124.791 1.63288 -3.16568 0
M  V30 1199 O 123.65 2.72594 -4.73661 0
M  V30 1200 H 120.744 0.442939 -0.69838 0
M  V30 1201 H 123.29 0.188342 -1.68652 0
M  V30 1202 H 122.062 0.762869 -3.83792 0
M  V30 1203 H 121.685 2.35596 -3.20282 0
M  V30 1204 N 122.682 1.50554 0.465978 0
M  V30 1205 C 124.093 1.54599 1.04671 0
M  V30 1206 C 124.444 0.352488 1.93008 0
M  V30 1207 O 123.569 -0.534044 2.09707 0
M  V30 1208 C 124.164 2.80166 1.90505 0
M  V30 1209 C 122.723 2.86876 2.43678 0
M  V30 1210 C 121.87 2.48947 1.22151 0
M  V30 1211 H 124.821 1.56744 0.248384 0
M  V30 1212 H 124.842 2.62311 2.75633 0
M  V30 1213 H 124.354 3.67013 1.26186 0
M  V30 1214 H 122.455 2.04393 3.11536 0
M  V30 1215 H 122.568 3.89885 2.78436 0
M  V30 1216 H 120.932 2.01498 1.5579 0
M  V30 1217 H 121.715 3.38107 0.594866 0
M  V30 1218 N 124.16 -0.719506 1.40217 0
M  V30 1219 C 125.437 -1.47221 1.28784 0
M  V30 1220 C 125.817 -2.10883 -0.0956067 0
M  V30 1221 O 125.165 -1.99833 -1.10811 0
M  V30 1222 C 125.375 -2.5111 2.42373 0
M  V30 1223 C 126.723 -3.17053 2.82423 0
M  V30 1224 O 127.747 -2.61429 2.41937 0
M  V30 1225 O 126.606 -4.17742 3.52355 0
M  V30 1226 H 123.7 -0.654491 0.50554 0
M  V30 1227 H 126.246 -0.752014 1.52128 0
M  V30 1228 H 125.018 -2.02556 3.34793 0
M  V30 1229 H 124.641 -3.3067 2.20778 0
M  V30 1230 N 125.638 -1.25649 -0.95132 0
M  V30 1231 C 126.863 -1.13443 -1.73624 0
M  V30 1232 C 127.288 0.307565 -1.85568 0
M  V30 1233 O 126.646 1.22282 -1.33854 0
M  V30 1234 C 126.694 -1.79723 -3.12621 0
M  V30 1235 O 125.798 -1.07912 -3.98031 0
M  V30 1236 H 125.139 -0.395872 -0.533086 0
M  V30 1237 H 127.669 -1.66276 -1.1922 0
M  V30 1238 H 127.679 -1.86141 -3.63064 0
M  V30 1239 H 126.354 -2.84633 -3.03244 0
M  V30 1240 H 124.931 -1.09398 -3.56492 0
M  V30 1241 N 127.117 1.15442 -1.07289 0
M  V30 1242 C 128.345 1.90096 -0.81676 0
M  V30 1243 C 128.76 1.7798 0.629966 0
M  V30 1244 O 128.117 1.1313 1.43206 0
M  V30 1245 C 128.168 3.40466 -1.21512 0
M  V30 1246 O 127.889 3.52232 -2.60508 0
M  V30 1247 C 129.39 4.32145 -0.988198 0
M  V30 1248 H 126.61 0.602495 -0.295366 0
M  V30 1249 H 129.154 1.4627 -1.42918 0
M  V30 1250 H 127.309 3.81958 -0.647039 0
M  V30 1251 H 127.723 4.45549 -2.76742 0
M  V30 1252 H 129.197 5.36072 -1.31645 0
M  V30 1253 H 129.674 4.39135 0.0755063 0
M  V30 1254 H 130.28 3.96395 -1.54115 0
M  V30 1255 N 128.595 0.856903 1.32268 0
M  V30 1256 C 129.872 0.382583 1.91822 0
M  V30 1257 C 130.252 -1.13407 1.78051 0
M  V30 1258 O 129.6 -1.95673 1.18001 0
M  V30 1259 C 129.81 0.849446 3.38505 0
M  V30 1260 C 131.158 0.867936 4.15634 0
M  V30 1261 O 132.182 0.794232 3.47232 0
M  V30 1262 O 131.041 0.972286 5.37781 0
M  V30 1263 H 128.135 0.112014 0.819379 0
M  V30 1264 H 130.681 0.943952 1.41024 0
M  V30 1265 H 129.453 1.89267 3.42482 0
M  V30 1266 H 129.076 0.265652 3.96712 0
M  V30 1267 N 130.073 -1.45103 0.615059 0
M  V30 1268 C 131.321 -2.01784 0.112955 0
M  V30 1269 C 131.642 -1.48504 -1.26378 0
M  V30 1270 O 130.912 -0.682245 -1.83636 0
M  V30 1271 H 129.492 -0.745993 0.0387668 0
M  V30 1272 H 132.154 -1.77808 0.798141 0
M  V30 1273 H 131.25 -3.12025 0.0684069 0
M  V30 1274 N 131.551 -0.354651 -1.53558 0
M  V30 1275 C 132.8 0.239504 -2.00273 0
M  V30 1276 C 133.113 1.50759 -1.24623 0
M  V30 1277 O 134.319 2.17968 -1.61871 0
M  V30 1278 C 132.775 0.477341 -3.5672 0
M  V30 1279 C 132.383 -0.775488 -4.41237 0
M  V30 1280 C 134.127 1.02975 -4.11821 0
M  V30 1281 C 132.034 -0.507838 -5.89216 0
M  V30 1282 H 130.964 0.0932743 -0.748208 0
M  V30 1283 H 133.615 -0.471701 -1.77334 0
M  V30 1284 H 131.997 1.24953 -3.7577 0
M  V30 1285 H 133.171 -1.54963 -4.33962 0
M  V30 1286 H 131.486 -1.25033 -3.97185 0
M  V30 1287 H 134.083 1.24513 -5.2 0
M  V30 1288 H 134.426 1.98862 -3.65731 0
M  V30 1289 H 134.959 0.317994 -3.96527 0
M  V30 1290 H 131.698 -1.43674 -6.39561 0
M  V30 1291 H 131.218 0.228011 -5.99366 0
M  V30 1292 H 132.897 -0.129238 -6.46871 0
M  V30 1293 N 133.029 1.57378 -0.0835403 0
M  V30 1294 C 134.259 1.97975 0.590713 0
M  V30 1295 C 134.667 0.961083 1.62972 0
M  V30 1296 O 134.01 -0.0590879 1.83605 0
M  V30 1297 C 134.072 3.34915 1.3066 0
M  V30 1298 C 133.736 4.55069 0.419698 0
M  V30 1299 C 134.733 5.18868 -0.32749 0
M  V30 1300 C 132.418 5.0114 0.341137 0
M  V30 1301 C 134.412 6.27098 -1.14134 0
M  V30 1302 C 132.099 6.0924 -0.476374 0
M  V30 1303 C 133.097 6.72083 -1.21627 0
M  V30 1304 O 132.785 7.781 -2.02028 0
M  V30 1305 H 132.517 0.655818 0.163947 0
M  V30 1306 H 135.071 2.04807 -0.156021 0
M  V30 1307 H 133.301 3.24733 2.09966 0
M  V30 1308 H 134.99 3.60037 1.87424 0
M  V30 1309 H 135.756 4.84211 -0.276459 0
M  V30 1310 H 131.635 4.51996 0.90668 0
M  V30 1311 H 135.179 6.7608 -1.71935 0
M  V30 1312 H 131.076 6.43329 -0.528927 0
M  V30 1313 H 131.844 7.95034 -1.94586 0
M  V30 1314 N 134.507 -0.190092 1.56449 0
M  V30 1315 C 135.756 -0.907912 1.80111 0
M  V30 1316 C 136.069 -1.84214 0.657619 0
M  V30 1317 O 137.275 -2.60094 0.778663 0
M  V30 1318 C 135.731 -1.66485 3.19078 0
M  V30 1319 C 135.339 -0.7752 4.41242 0
M  V30 1320 C 137.083 -2.37201 3.52045 0
M  V30 1321 C 134.99 -1.53129 5.71231 0
M  V30 1322 H 133.92 -0.34276 0.671589 0
M  V30 1323 H 136.571 -0.161109 1.82791 0
M  V30 1324 H 134.953 -2.45572 3.10661 0
M  V30 1325 H 136.127 -0.0226298 4.60794 0
M  V30 1326 H 134.442 -0.178627 4.16017 0
M  V30 1327 H 137.039 -2.94329 4.46402 0
M  V30 1328 H 137.382 -3.11632 2.76028 0
M  V30 1329 H 137.915 -1.65075 3.61932 0
M  V30 1330 H 134.654 -0.82967 6.50228 0
M  V30 1331 H 134.174 -2.25767 5.55688 0
M  V30 1332 H 135.853 -2.08377 6.12526 0
M  V30 1333 N 135.985 -1.50799 -0.457987 0
M  V30 1334 C 137.215 -1.65977 -1.23025 0
M  V30 1335 C 137.623 -0.347918 -1.85974 0
M  V30 1336 O 136.966 0.68148 -1.70592 0
M  V30 1337 C 137.028 -2.70309 -2.3701 0
M  V30 1338 C 136.692 -4.135 -1.94594 0
M  V30 1339 C 137.689 -4.98949 -1.46101 0
M  V30 1340 C 135.374 -4.5949 -2.02915 0
M  V30 1341 C 137.368 -6.28442 -1.06489 0
M  V30 1342 C 135.055 -5.88984 -1.62914 0
M  V30 1343 C 136.053 -6.73286 -1.1478 0
M  V30 1344 O 135.741 -8.00362 -0.75339 0
M  V30 1345 H 135.473 -0.56064 -0.377702 0
M  V30 1346 H 138.027 -1.97857 -0.551537 0
M  V30 1347 H 136.257 -2.337 -3.08093 0
M  V30 1348 H 137.946 -2.74574 -2.98938 0
M  V30 1349 H 138.712 -4.6463 -1.39084 0
M  V30 1350 H 134.591 -3.94009 -2.39328 0
M  V30 1351 H 138.135 -6.94194 -0.688488 0
M  V30 1352 H 134.032 -6.22822 -1.69595 0
M  V30 1353 H 134.8 -8.13744 -0.88108 0
M  V30 1354 N 137.463 0.71206 -1.40597 0
M  V30 1355 C 138.426 1.80785 -1.40888 0
M  V30 1356 C 139.426 1.57937 -0.302103 0
M  V30 1357 O 140.616 1.64913 -0.561182 0
M  V30 1358 C 137.748 3.18927 -1.20409 0
M  V30 1359 H 138.941 1.81924 -2.38419 0
M  V30 1360 H 136.494 0.91805 -1.26497 0
M  V30 1361 H 137.229 3.23436 -0.236522 0
M  V30 1362 H 137.014 3.36911 -2.00582 0
M  V30 1363 H 138.504 3.98949 -1.23408 0
M  V30 1364 N 138.941 1.26152 0.944643 0
M  V30 1365 C 140.357 1.03189 1.21754 0
M  V30 1366 C 140.557 -0.245112 2.00004 0
M  V30 1367 O 139.613 -0.955176 2.33736 0
M  V30 1368 C 140.926 2.26119 1.98219 0
M  V30 1369 C 142.474 2.30984 2.11224 0
M  V30 1370 C 142.949 3.53597 2.91089 0
M  V30 1371 N 144.44 3.54053 2.98664 0
M  V30 1372 C 145.175 4.45593 3.60881 0
M  V30 1373 N 144.671 5.47416 4.24626 0
M  V30 1374 N 146.464 4.33252 3.58119 0
M  V30 1375 H 138.615 2.08177 0.421437 0
M  V30 1376 H 140.878 0.914723 0.248969 0
M  V30 1377 H 140.584 3.18984 1.48128 0
M  V30 1378 H 140.458 2.3009 2.98895 0
M  V30 1379 H 142.845 1.38635 2.60508 0
M  V30 1380 H 142.926 2.31026 1.09821 0
M  V30 1381 H 142.57 4.46273 2.42493 0
M  V30 1382 H 142.5 3.50802 3.92741 0
M  V30 1383 H 144.991 2.80403 2.53343 0
M  V30 1384 H 145.304 6.13459 4.69987 0
M  V30 1385 H 143.649 5.51278 4.23223 0
M  V30 1386 H 146.84 3.52924 3.0751 0
M  V30 1387 H 147.013 5.04786 4.06319 0
M  V30 1388 N 140.419 -1.14872 1.07899 0
M  V30 1389 C 141.665 -1.86064 0.806725 0
M  V30 1390 C 141.998 -1.82434 -0.665706 0
M  V30 1391 O 141.273 -1.25138 -1.48899 0
M  V30 1392 C 141.556 -3.34929 1.32267 0
M  V30 1393 C 141.409 -3.47161 2.86006 0
M  V30 1394 C 142.728 -4.29863 0.943717 0
M  V30 1395 H 139.847 -0.675591 0.294526 0
M  V30 1396 H 142.489 -1.34925 1.33773 0
M  V30 1397 H 140.639 -3.78611 0.870974 0
M  V30 1398 H 142.311 -3.12302 3.39507 0
M  V30 1399 H 140.554 -2.88539 3.23925 0
M  V30 1400 H 141.225 -4.51777 3.17177 0
M  V30 1401 H 143.701 -3.9417 1.33302 0
M  V30 1402 H 142.577 -5.32494 1.33198 0
M  V30 1403 H 142.838 -4.41846 -0.149796 0
M  V30 1404 N 141.898 -0.863906 -1.31812 0
M  V30 1405 C 143.123 -0.48527 -2.01643 0
M  V30 1406 C 143.548 0.913058 -1.64453 0
M  V30 1407 O 142.906 1.6014 -0.849985 0
M  V30 1408 C 142.954 -0.642625 -3.54828 0
M  V30 1409 O 142.058 0.320659 -4.11151 0
M  V30 1410 H 141.399 -0.193793 -0.635091 0
M  V30 1411 H 143.929 -1.16565 -1.68148 0
M  V30 1412 H 143.939 -0.533628 -4.04495 0
M  V30 1413 H 142.614 -1.66227 -3.81237 0
M  V30 1414 H 141.191 0.167126 -3.72525 0
M  V30 1415 N 143.376 1.44774 -0.622745 0
M  V30 1416 C 144.606 2.06187 -0.130532 0
M  V30 1417 C 145.014 1.46547 1.19669 0
M  V30 1418 O 144.357 0.579636 1.74316 0
M  V30 1419 C 144.419 3.59437 0.0674983 0
M  V30 1420 C 144.083 4.41496 -1.18026 0
M  V30 1421 C 145.08 4.75512 -2.102 0
M  V30 1422 C 142.765 4.82007 -1.41333 0
M  V30 1423 C 144.759 5.48912 -3.23998 0
M  V30 1424 C 142.446 5.55157 -2.55429 0
M  V30 1425 C 143.444 5.88528 -3.46589 0
M  V30 1426 O 143.132 6.60191 -4.58697 0
M  V30 1427 H 142.864 0.672045 -0.0730162 0
M  V30 1428 H 145.418 1.86768 -0.854802 0
M  V30 1429 H 143.648 3.77314 0.846825 0
M  V30 1430 H 145.337 4.02642 0.513209 0
M  V30 1431 H 146.103 4.4476 -1.93425 0
M  V30 1432 H 141.982 4.55457 -0.712709 0
M  V30 1433 H 145.526 5.74877 -3.95174 0
M  V30 1434 H 141.423 5.85324 -2.72151 0
M  V30 1435 H 142.191 6.78654 -4.57571 0
M  V30 1436 N 144.854 0.36279 1.53368 0
M  V30 1437 C 146.27 0.0116182 1.59596 0
M  V30 1438 C 146.47 -1.47012 1.37803 0
M  V30 1439 O 145.526 -2.23136 1.18181 0
M  V30 1440 C 146.839 0.465052 2.97082 0
M  V30 1441 C 148.387 0.419033 3.10182 0
M  V30 1442 C 148.862 0.848235 4.50077 0
M  V30 1443 N 150.353 0.803183 4.56183 0
M  V30 1444 C 151.088 1.107 5.62613 0
M  V30 1445 N 150.584 1.47996 6.76808 0
M  V30 1446 N 152.377 1.02998 5.52583 0
M  V30 1447 H 144.528 1.32775 1.65785 0
M  V30 1448 H 146.791 0.542518 0.777417 0
M  V30 1449 H 146.497 1.49892 3.18159 0
M  V30 1450 H 146.371 -0.149786 3.76902 0
M  V30 1451 H 148.758 -0.605696 2.88817 0
M  V30 1452 H 148.839 1.06933 2.32377 0
M  V30 1453 H 148.483 1.87107 4.7218 0
M  V30 1454 H 148.413 0.175218 5.26308 0
M  V30 1455 H 150.904 0.52838 3.74188 0
M  V30 1456 H 151.217 1.69613 7.53957 0
M  V30 1457 H 149.562 1.51859 6.78206 0
M  V30 1458 H 152.753 0.737817 4.62249 0
M  V30 1459 H 152.926 1.2701 6.35431 0
M  V30 1460 N 146.332 -1.57332 0.0918853 0
M  V30 1461 C 147.28 -2.15075 -0.885747 0
M  V30 1462 C 148.274 -1.09277 -1.29441 0
M  V30 1463 O 149.48 -1.27627 -1.26931 0
M  V30 1464 H 145.855 -0.687966 -0.303656 0
M  V30 1465 H 147.826 -2.96047 -0.373995 0
M  V30 1466 C 146.575 -2.74325 -2.13638 0
M  V30 1467 H 145.898 -3.55418 -1.8308 0
M  V30 1468 H 147.338 -3.183 -2.80109 0
M  V30 1469 C 145.797 -1.70062 -2.90827 0
M  V30 1470 O 146.327 -1.13763 -3.85254 0
M  V30 1471 N 144.533 -1.40628 -2.54307 0
M  V30 1472 H 144.08 -1.866 -1.7759 0
M  V30 1473 H 144.038 -0.711043 -3.06254 0
M  V30 1474 N 147.81 0.181792 -1.56548 0
M  V30 1475 C 149.087 0.926765 -1.72251 0
M  V30 1476 C 149.467 2.00831 -0.650386 0
M  V30 1477 O 148.815 2.26008 0.336521 0
M  V30 1478 C 149.025 1.50106 -3.1507 0
M  V30 1479 C 150.373 1.97805 -3.75711 0
M  V30 1480 O 151.397 1.59922 -3.18282 0
M  V30 1481 O 150.256 2.67555 -4.76525 0
M  V30 1482 H 147.35 0.435506 -0.703039 0
M  V30 1483 H 149.896 0.170443 -1.68842 0
M  V30 1484 H 148.668 0.72212 -3.84579 0
M  V30 1485 H 148.291 2.32186 -3.22763 0
M  V30 1486 N 149.288 1.51039 0.449983 0
M  V30 1487 C 150.536 1.62759 1.19808 0
M  V30 1488 C 150.857 0.339981 1.92013 0
M  V30 1489 O 150.127 -0.643606 1.85026 0
M  V30 1490 H 148.707 0.599811 0.445237 0
M  V30 1491 H 151.369 1.87914 0.517138 0
M  V30 1492 H 150.465 2.44911 1.93455 0
M  V30 1493 N 150.766 -0.704594 1.40972 0
M  V30 1494 C 151.713 -1.81862 1.42109 0
M  V30 1495 C 152.683 -1.63781 0.276593 0
M  V30 1496 O 153.868 -1.84759 0.4763 0
M  V30 1497 C 151.008 -3.19669 1.30022 0
M  V30 1498 C 150.121 -3.49246 2.54267 0
M  V30 1499 C 149.256 -4.76618 2.3454 0
M  V30 1500 C 148.295 -4.99133 3.54306 0
M  V30 1501 N 147.432 -6.17726 3.33706 0
M  V30 1502 H 152.272 -1.80226 2.37324 0
M  V30 1503 H 149.809 -0.880238 1.17857 0
M  V30 1504 H 151.767 -3.99263 1.21018 0
M  V30 1505 H 150.397 -3.20506 0.384192 0
M  V30 1506 H 149.449 -2.64125 2.73756 0
M  V30 1507 H 150.761 -3.61788 3.43381 0
M  V30 1508 H 149.915 -5.64249 2.22952 0
M  V30 1509 H 148.654 -4.66305 1.42867 0
M  V30 1510 H 147.659 -4.09953 3.66359 0
M  V30 1511 H 148.884 -5.11311 4.4692 0
M  V30 1512 H 146.83 -6.08642 2.44725 0
M  V30 1513 H 146.747 -6.30995 4.16391 0
M  V30 1514 H 148.015 -7.08115 3.25873 0
M  V30 1515 N 152.244 -1.26651 -0.937939 0
M  V30 1516 C 153.49 -1.12553 -1.687 0
M  V30 1517 C 153.823 0.329782 -1.91379 0
M  V30 1518 O 153.098 1.24202 -1.4968 0
M  V30 1519 C 153.381 -1.89862 -3.05981 0
M  V30 1520 C 153.234 -3.43318 -2.90607 0
M  V30 1521 C 154.553 -1.69499 -4.0615 0
M  V30 1522 H 151.672 -0.410257 -0.612257 0
M  V30 1523 H 154.314 -1.55685 -1.08913 0
M  V30 1524 H 152.464 -1.53204 -3.57017 0
M  V30 1525 H 154.136 -3.89747 -2.46769 0
M  V30 1526 H 152.379 -3.70179 -2.26164 0
M  V30 1527 H 153.05 -3.92642 -3.8799 0
M  V30 1528 H 155.526 -2.01442 -3.64088 0
M  V30 1529 H 154.402 -2.26002 -5.00214 0
M  V30 1530 H 154.663 -0.640365 -4.37438 0
M  V30 1531 N 153.722 1.14298 -1.08507 0
M  V30 1532 C 154.652 2.21542 -0.737646 0
M  V30 1533 C 155.633 1.67773 0.280377 0
M  V30 1534 O 156.818 1.93616 0.150521 0
M  V30 1535 C 153.948 3.46988 -0.147259 0
M  V30 1536 C 152.902 4.13789 -1.09374 0
M  V30 1537 C 152.228 5.33449 -0.365524 0
M  V30 1538 C 153.528 4.62208 -2.4323 0
M  V30 1539 H 155.222 2.5086 -1.6343 0
M  V30 1540 H 152.768 1.20576 -0.787243 0
M  V30 1541 H 154.721 4.21262 0.107808 0
M  V30 1542 H 153.445 3.17037 0.784538 0
M  V30 1543 H 152.104 3.4147 -1.33393 0
M  V30 1544 H 151.752 4.99759 0.57011 0
M  V30 1545 H 151.452 5.79088 -0.996512 0
M  V30 1546 H 152.976 6.10485 -0.118534 0
M  V30 1547 H 154.39 5.27952 -2.23472 0
M  V30 1548 H 152.787 5.18553 -3.02031 0
M  V30 1549 H 153.857 3.77224 -3.04681 0
M  V30 1550 N 155.201 0.870884 1.31352 0
M  V30 1551 C 156.45 0.478408 1.95944 0
M  V30 1552 C 156.763 -0.974493 1.69597 0
M  V30 1553 O 157.969 -1.47316 2.28058 0
M  V30 1554 C 156.425 0.804609 3.50791 0
M  V30 1555 C 156.033 2.27433 3.85977 0
M  V30 1556 C 157.777 0.480648 4.2177 0
M  V30 1557 C 155.684 2.5429 5.33939 0
M  V30 1558 H 154.614 0.175175 0.733369 0
M  V30 1559 H 157.265 1.06391 1.4951 0
M  V30 1560 H 155.647 0.148347 3.95722 0
M  V30 1561 H 156.821 2.97373 3.52002 0
M  V30 1562 H 155.136 2.56442 3.28065 0
M  V30 1563 H 157.733 0.658519 5.30629 0
M  V30 1564 H 158.076 -0.578979 4.12254 0
M  V30 1565 H 158.609 1.09349 3.82476 0
M  V30 1566 H 155.348 3.58939 5.48491 0
M  V30 1567 H 154.868 1.88945 5.69263 0
M  V30 1568 H 156.547 2.39066 6.01212 0
M  V30 1569 N 156.679 -1.44442 0.630414 0
M  V30 1570 C 157.956 -1.9549 0.0655657 0
M  V30 1571 C 158.336 -1.5724 -1.40851 0
M  V30 1572 O 157.684 -0.846116 -2.12257 0
M  V30 1573 C 157.894 -3.47812 0.287691 0
M  V30 1574 C 159.242 -4.24216 0.180513 0
M  V30 1575 O 160.266 -3.55526 0.219019 0
M  V30 1576 O 159.125 -5.46434 0.0848493 0
M  V30 1577 H 156.219 -0.826688 -0.0227177 0
M  V30 1578 H 158.765 -1.54496 0.702068 0
M  V30 1579 H 157.537 -3.687 1.31056 0
M  V30 1580 H 157.16 -3.95751 -0.382984 0
M  V30 1581 N 158.157 -0.370918 -1.53173 0
M  V30 1582 C 159.405 0.216673 -2.00935 0
M  V30 1583 C 159.726 1.48845 -1.25977 0
M  V30 1584 O 158.996 1.92286 -0.374551 0
M  V30 1585 H 157.576 0.0830565 -0.742368 0
M  V30 1586 H 160.238 -0.49838 -1.8842 0
M  V30 1587 H 159.334 0.439893 -3.08984 0
M  V30 1588 N 159.635 1.57281 -0.100228 0
M  V30 1589 C 160.883 1.94153 0.561157 0
M  V30 1590 C 161.204 0.983157 1.68401 0
M  V30 1591 O 160.474 0.0361132 1.95867 0
M  V30 1592 H 159.054 0.716791 0.210283 0
M  V30 1593 H 161.716 1.94202 -0.164765 0
M  V30 1594 H 160.812 2.96709 0.968008 0
M  V30 1595 N 161.113 -0.173488 1.56642 0
M  V30 1596 C 162.023 -1.23482 1.99473 0
M  V30 1597 C 163.039 -1.48567 0.905752 0
M  V30 1598 O 164.215 -1.60758 1.21321 0
M  V30 1599 C 161.28 -2.55444 2.34413 0
M  V30 1600 C 160.341 -2.38241 3.57127 0
M  V30 1601 C 159.574 -3.63909 3.90392 0
M  V30 1602 O 159.797 -4.68996 3.24653 0
M  V30 1603 O 158.731 -3.58149 4.83749 0
M  V30 1604 H 162.557 -0.901279 2.90018 0
M  V30 1605 H 160.142 -0.380185 1.44482 0
M  V30 1606 H 162.024 -3.33292 2.57865 0
M  V30 1607 H 160.699 -2.88382 1.4703 0
M  V30 1608 H 159.606 -1.58431 3.38896 0
M  V30 1609 H 160.939 -2.10228 4.45045 0
M  V30 1610 N 162.591 -1.51276 -0.441967 0
M  V30 1611 C 163.839 -1.63392 -1.18943 0
M  V30 1612 C 164.16 -0.350159 -1.9183 0
M  V30 1613 O 163.43 0.633784 -1.85364 0
M  V30 1614 H 162.01 -0.602164 -0.442049 0
M  V30 1615 H 164.672 -1.88186 -0.507165 0
M  V30 1616 H 163.768 -2.45934 -1.92154 0
M  V30 1617 N 164.069 0.697108 -1.41344 0
M  V30 1618 C 165.318 1.45279 -1.39918 0
M  V30 1619 C 165.631 1.95597 -0.0109624 0
M  V30 1620 O 166.837 2.71208 0.125919 0
M  V30 1621 C 165.293 2.62695 -2.46007 0
M  V30 1622 C 164.901 2.19169 -3.90729 0
M  V30 1623 C 166.645 3.40336 -2.53715 0
M  V30 1624 C 164.552 3.33535 -4.88373 0
M  V30 1625 H 163.482 0.545692 -0.520323 0
M  V30 1626 H 166.133 0.756929 -1.67161 0
M  V30 1627 H 164.515 3.34541 -2.11892 0
M  V30 1628 H 165.689 1.54623 -4.34083 0
M  V30 1629 H 164.004 1.54525 -3.86666 0
M  V30 1630 H 166.601 4.2547 -3.2385 0
M  V30 1631 H 166.944 3.85418 -1.5735 0
M  V30 1632 H 167.477 2.75546 -2.86913 0
M  V30 1633 H 164.216 2.93468 -5.86137 0
M  V30 1634 H 163.736 3.96936 -4.49668 0
M  V30 1635 H 165.415 3.99335 -5.09059 0
M  V30 1636 N 165.547 1.27147 0.931209 0
M  V30 1637 C 166.795 1.13055 1.6752 0
M  V30 1638 C 167.116 -0.324791 1.92276 0
M  V30 1639 O 166.386 -1.22775 1.52654 0
M  V30 1640 H 164.966 0.415391 0.620854 0
M  V30 1641 H 167.628 1.59623 1.11833 0
M  V30 1642 H 166.724 1.65694 2.64485 0
M  V30 1643 N 167.025 -1.13721 1.09112 0
M  V30 1644 C 168.441 -1.36914 0.820174 0
M  V30 1645 C 168.641 -1.93356 -0.567079 0
M  V30 1646 O 167.697 -2.15093 -1.32255 0
M  V30 1647 C 169.01 -2.3235 1.90877 0
M  V30 1648 C 170.558 -2.45973 1.93562 0
M  V30 1649 C 171.033 -3.44714 3.01556 0
M  V30 1650 N 172.524 -3.52263 3.00775 0
M  V30 1651 C 173.259 -4.28536 3.80978 0
M  V30 1652 N 172.755 -5.07991 4.71081 0
M  V30 1653 N 174.548 -4.23804 3.69251 0
M  V30 1654 H 166.699 -0.754348 1.98553 0
M  V30 1655 H 168.962 -0.3944 0.862063 0
M  V30 1656 H 168.668 -1.98027 2.90651 0
M  V30 1657 H 168.542 -3.32332 1.78424 0
M  V30 1658 H 170.929 -2.79584 0.944286 0
M  V30 1659 H 171.01 -1.45926 2.10093 0
M  V30 1660 H 170.654 -3.11835 4.00901 0
M  V30 1661 H 170.584 -4.44558 2.82269 0
M  V30 1662 H 173.075 -2.95567 2.35475 0
M  V30 1663 H 173.388 -5.63487 5.28869 0
M  V30 1664 H 171.733 -5.07235 4.75119 0
M  V30 1665 H 174.924 -3.60806 2.98222 0
M  V30 1666 H 175.097 -4.82995 4.31995 0
M  V30 1667 N 168.503 -0.877838 -1.30888 0
M  V30 1668 C 169.752 -0.488793 -1.95688 0
M  V30 1669 C 170.065 0.965485 -1.70111 0
M  V30 1670 O 171.271 1.46104 -2.28836 0
M  V30 1671 C 169.727 -0.823201 -3.50359 0
M  V30 1672 C 169.335 -2.29477 -3.84765 0
M  V30 1673 C 171.079 -0.503009 -4.21509 0
M  V30 1674 C 168.986 -2.57118 -5.32583 0
M  V30 1675 H 167.916 -0.179062 -0.732429 0
M  V30 1676 H 170.567 -1.07183 -1.48943 0
M  V30 1677 H 168.949 -0.169331 -3.95638 0
M  V30 1678 H 170.123 -2.99236 -3.5042 0
M  V30 1679 H 168.438 -2.58178 -3.267 0
M  V30 1680 H 171.035 -0.68665 -5.30273 0
M  V30 1681 H 171.378 0.557109 -4.12555 0
M  V30 1682 H 171.911 -1.11376 -3.8189 0
M  V30 1683 H 168.65 -3.61843 -5.4658 0
M  V30 1684 H 168.17 -1.91961 -5.68253 0
M  V30 1685 H 169.849 -2.42251 -5.99936 0
M  V30 1686 N 169.982 1.44106 -0.638065 0
M  V30 1687 C 171.21 2.06336 -0.152615 0
M  V30 1688 C 171.625 1.47731 1.17563 0
M  V30 1689 O 170.982 0.602806 1.72257 0
M  V30 1690 C 171.033 3.61479 -0.0391491 0
M  V30 1691 O 170.754 4.17903 -1.31487 0
M  V30 1692 C 172.255 4.40757 0.474176 0
M  V30 1693 H 169.475 0.665862 -0.0828776 0
M  V30 1694 H 172.019 1.84862 -0.87443 0
M  V30 1695 H 170.174 3.82191 0.633142 0
M  V30 1696 H 170.588 5.11416 -1.16421 0
M  V30 1697 H 172.062 5.49707 0.502562 0
M  V30 1698 H 172.539 4.12697 1.50258 0
M  V30 1699 H 173.145 4.24979 -0.165102 0
M  V30 1700 N 171.46 0.379036 1.52974 0
M  V30 1701 C 172.407 -0.461048 2.26148 0
M  V30 1702 C 173.377 -1.06637 1.27349 0
M  V30 1703 O 174.562 -1.09633 1.56157 0
M  V30 1704 C 171.702 -1.58782 3.06402 0
M  V30 1705 C 170.815 -1.00636 4.20115 0
M  V30 1706 C 169.95 -2.10334 4.87784 0
M  V30 1707 C 168.989 -1.49724 5.93506 0
M  V30 1708 N 168.126 -2.5331 6.54812 0
M  V30 1709 H 172.966 0.169429 2.97518 0
M  V30 1710 H 170.503 0.0953806 1.4679 0
M  V30 1711 H 172.461 -2.25174 3.51215 0
M  V30 1712 H 171.091 -2.18876 2.37261 0
M  V30 1713 H 170.143 -0.232332 3.7969 0
M  V30 1714 H 171.455 -0.523343 4.96047 0
M  V30 1715 H 170.609 -2.84519 5.35849 0
M  V30 1716 H 169.348 -2.61992 4.11353 0
M  V30 1717 H 168.353 -0.740598 5.44789 0
M  V30 1718 H 169.578 -0.988732 6.71864 0
M  V30 1719 H 167.524 -3.04156 5.81227 0
M  V30 1720 H 167.441 -2.09734 7.26325 0
M  V30 1721 H 168.709 -3.27155 7.07524 0
M  V30 1722 N 172.938 -1.57226 0.108567 0
M  V30 1723 C 173.885 -2.14756 -0.845481 0
M  V30 1724 C 174.855 -1.06971 -1.27068 0
M  V30 1725 O 176.04 -1.34827 -1.35005 0
M  V30 1726 C 173.18 -2.74298 -2.09415 0
M  V30 1727 C 172.293 -3.96358 -1.71826 0
M  V30 1728 C 171.428 -4.44021 -2.9158 0
M  V30 1729 C 170.467 -5.58637 -2.50181 0
M  V30 1730 N 169.604 -6.01091 -3.62814 0
M  V30 1731 H 174.444 -2.95961 -0.348035 0
M  V30 1732 H 171.981 -1.46226 -0.160106 0
M  V30 1733 H 173.939 -3.06945 -2.82561 0
M  V30 1734 H 172.569 -1.95801 -2.56636 0
M  V30 1735 H 171.621 -3.69939 -0.885947 0
M  V30 1736 H 172.933 -4.79504 -1.37394 0
M  V30 1737 H 172.087 -4.78522 -3.72963 0
M  V30 1738 H 170.826 -3.59803 -3.29231 0
M  V30 1739 H 169.831 -5.23751 -1.67228 0
M  V30 1740 H 171.056 -6.44613 -2.13659 0
M  V30 1741 H 169.002 -5.19817 -4.00158 0
M  V30 1742 H 168.919 -6.79066 -3.32273 0
M  V30 1743 H 170.187 -6.40227 -4.44668 0
M  V30 1744 N 174.416 0.165178 -1.56732 0
M  V30 1745 C 175.664 0.879068 -1.8198 0
M  V30 1746 C 175.985 1.82514 -0.686561 0
M  V30 1747 O 175.255 1.93694 0.293146 0
M  V30 1748 H 173.835 0.327608 -0.671329 0
M  V30 1749 H 176.497 0.163526 -1.94213 0
M  V30 1750 H 175.593 1.45228 -2.76252 0
M  V30 1751 N 175.894 1.51508 0.433938 0
M  V30 1752 C 176.824 1.76016 1.53429 0
M  V30 1753 C 177.805 0.610112 1.58782 0
M  V30 1754 O 178.99 0.853177 1.74455 0
M  V30 1755 C 176.12 1.88831 2.9148 0
M  V30 1756 C 175.074 3.04288 3.00987 0
M  V30 1757 C 174.4 3.0229 4.4105 0
M  V30 1758 C 175.7 4.44193 2.74754 0
M  V30 1759 H 177.394 2.68152 1.33171 0
M  V30 1760 H 174.94 1.29035 0.639214 0
M  V30 1761 H 176.893 2.04559 3.6842 0
M  V30 1762 H 175.617 0.933455 3.12976 0
M  V30 1763 H 174.276 2.8827 2.26486 0
M  V30 1764 H 173.924 2.04576 4.59519 0
M  V30 1765 H 173.624 3.79822 4.4834 0
M  V30 1766 H 175.148 3.20116 5.1996 0
M  V30 1767 H 176.562 4.60544 3.41426 0
M  V30 1768 H 174.959 5.23457 2.9345 0
M  V30 1769 H 176.029 4.53996 1.70339 0
M  V30 1770 N 177.372 -0.689602 1.41712 0
M  V30 1771 C 178.619 -1.44966 1.4139 0
M  V30 1772 C 178.947 -1.94484 0.025105 0
M  V30 1773 O 178.202 -1.70307 -0.964048 0
M  V30 1774 C 178.501 -2.67298 2.37247 0
M  V30 1775 C 178.167 -2.36405 3.83958 0
M  V30 1776 C 176.829 -2.27691 4.23923 0
M  V30 1777 C 179.181 -2.11043 4.76561 0
M  V30 1778 C 176.509 -1.91719 5.54492 0
M  V30 1779 C 178.861 -1.76578 6.07456 0
M  V30 1780 C 177.525 -1.66363 6.46436 0
M  V30 1781 H 176.795 -0.53047 0.517381 0
M  V30 1782 H 179.442 -0.787655 1.74552 0
M  V30 1783 H 177.747 -3.38461 1.9736 0
M  V30 1784 H 179.444 -3.25452 2.34269 0
M  V30 1785 H 176.034 -2.44085 3.52308 0
M  V30 1786 H 180.218 -2.16717 4.46483 0
M  V30 1787 H 175.474 -1.82367 5.83568 0
M  V30 1788 H 179.648 -1.55974 6.78708 0
M  V30 1789 H 177.275 -1.38258 7.47522 0
M  V30 1790 N 178.85 -1.27639 -0.924453 0
M  V30 1791 C 180.098 -1.13941 -1.66918 0
M  V30 1792 C 180.419 0.314589 -1.92446 0
M  V30 1793 O 179.689 1.21964 -1.53303 0
M  V30 1794 H 178.269 -0.418678 -0.618642 0
M  V30 1795 H 180.931 -1.60213 -1.10985 0
M  V30 1796 H 180.027 -1.67094 -2.63602 0
M  V30 1797 N 180.328 1.1314 -1.09713 0
M  V30 1798 C 181.238 2.22242 -0.751367 0
M  V30 1799 C 182.254 1.72224 0.247938 0
M  V30 1800 O 183.43 2.01205 0.0885463 0
M  V30 1801 C 180.495 3.46231 -0.180274 0
M  V30 1802 C 179.556 4.11125 -1.2359 0
M  V30 1803 C 178.789 5.29195 -0.691966 0
M  V30 1804 O 179.012 5.68342 0.48414 0
M  V30 1805 O 177.946 5.84214 -1.44838 0
M  V30 1806 H 181.772 2.54197 -1.66186 0
M  V30 1807 H 179.357 1.21331 -0.871735 0
M  V30 1808 H 181.239 4.21185 0.134739 0
M  V30 1809 H 179.914 3.1597 0.703185 0
M  V30 1810 H 178.821 3.37985 -1.60366 0
M  V30 1811 H 180.154 4.45524 -2.09211 0
M  V30 1812 N 181.806 0.884767 1.30421 0
M  V30 1813 C 183.052 0.503851 1.96441 0
M  V30 1814 C 183.385 -0.944518 1.69684 0
M  V30 1815 O 182.66 -1.66737 1.00145 0
M  V30 1816 C 182.943 0.779085 3.51571 0
M  V30 1817 C 182.796 2.27807 3.87846 0
M  V30 1818 C 184.115 0.255452 4.39358 0
M  V30 1819 H 181.234 0.184533 0.713524 0
M  V30 1820 H 183.876 1.10872 1.54297 0
M  V30 1821 H 182.026 0.264274 3.876 0
M  V30 1822 H 183.698 2.86127 3.61841 0
M  V30 1823 H 181.941 2.74479 3.35922 0
M  V30 1824 H 182.612 2.42125 4.96064 0
M  V30 1825 H 185.088 0.696079 4.10236 0
M  V30 1826 H 183.964 0.477361 5.4682 0
M  V30 1827 H 184.225 -0.843293 4.33983 0
M  V30 1828 N 183.284 -1.43765 0.645699 0
M  V30 1829 C 184.532 -2.01499 0.155731 0
M  V30 1830 C 184.853 -1.51151 -1.232 0
M  V30 1831 O 184.123 -0.721044 -1.82148 0
M  V30 1832 H 182.703 -0.745003 0.0545817 0
M  V30 1833 H 185.365 -1.76075 0.835677 0
M  V30 1834 H 184.461 -3.1181 0.134577 0
M  V30 1835 N 184.763 -0.387143 -1.52771 0
M  V30 1836 C 185.673 0.456442 -2.30117 0
M  V30 1837 C 186.689 1.07342 -1.36944 0
M  V30 1838 O 187.865 1.07971 -1.70013 0
M  V30 1839 C 184.93 1.56957 -3.09136 0
M  V30 1840 C 183.991 0.977916 -4.18014 0
M  V30 1841 C 183.224 2.038 -4.93256 0
M  V30 1842 O 183.447 3.25271 -4.68567 0
M  V30 1843 O 182.381 1.6565 -5.78657 0
M  V30 1844 H 186.207 -0.17359 -3.03203 0
M  V30 1845 H 183.792 -0.150919 -1.48636 0
M  V30 1846 H 185.674 2.21628 -3.58412 0
M  V30 1847 H 184.349 2.18461 -2.38865 0
M  V30 1848 H 183.256 0.294525 -3.72939 0
M  V30 1849 H 184.589 0.407128 -4.90513 0
M  V30 1850 N 186.241 1.57166 -0.116904 0
M  V30 1851 C 187.204 2.14039 0.819742 0
M  V30 1852 C 188.204 1.07477 1.19605 0
M  V30 1853 O 189.394 1.33263 1.1219 0
M  V30 1854 C 186.526 2.67891 2.10826 0
M  V30 1855 H 187.719 2.98128 0.325511 0
M  V30 1856 H 185.272 1.55739 0.132312 0
M  V30 1857 H 186.007 1.87384 2.64685 0
M  V30 1858 H 185.792 3.45823 1.84793 0
M  V30 1859 H 187.282 3.11809 2.77785 0
M  V30 1860 N 187.719 -0.156864 1.56817 0
M  V30 1861 C 188.682 -1.17781 1.96622 0
M  V30 1862 C 189.682 -1.36401 0.851555 0
M  V30 1863 O 190.872 -1.33561 1.11836 0
M  V30 1864 C 188.004 -2.54008 2.27361 0
M  V30 1865 H 189.197 -0.836564 2.87996 0
M  V30 1866 H 186.75 -0.39985 1.51099 0
M  V30 1867 H 187.485 -2.9312 1.38748 0
M  V30 1868 H 187.27 -2.41856 3.08623 0
M  V30 1869 H 188.76 -3.27558 2.59029 0
M  V30 1870 N 189.197 -1.51736 -0.425897 0
M  V30 1871 C 190.446 -1.64201 -1.17136 0
M  V30 1872 C 190.759 -0.369705 -1.92074 0
M  V30 1873 O 191.965 -0.373898 -2.68913 0
M  V30 1874 C 190.421 -2.90035 -2.13091 0
M  V30 1875 C 190.029 -4.24312 -1.43747 0
M  V30 1876 C 191.773 -3.1186 -2.87999 0
M  V30 1877 C 189.68 -5.41285 -2.38253 0
M  V30 1878 H 188.61 -0.611624 -0.440944 0
M  V30 1879 H 191.261 -1.78212 -0.437328 0
M  V30 1880 H 189.643 -2.69684 -2.89977 0
M  V30 1881 H 190.817 -4.55086 -0.723408 0
M  V30 1882 H 189.132 -4.08456 -0.809465 0
M  V30 1883 H 191.729 -3.96427 -3.58817 0
M  V30 1884 H 192.072 -2.25403 -3.49999 0
M  V30 1885 H 192.605 -3.32605 -2.18217 0
M  V30 1886 H 189.344 -6.30037 -1.80925 0
M  V30 1887 H 188.864 -5.14872 -3.0768 0
M  V30 1888 H 190.543 -5.73694 -2.99139 0
M  V30 1889 N 190.675 0.682077 -1.42076 0
M  V30 1890 C 191.623 1.81707 -1.45208 0
M  V30 1891 C 192.617 1.66183 -0.328591 0
M  V30 1892 O 193.823 1.7288 -0.501264 0
M  V30 1893 H 190.198 0.599014 -0.454628 0
M  V30 1894 H 192.169 1.76183 -2.40836 0
M  V30 1895 C 190.918 3.19816 -1.36428 0
M  V30 1896 H 190.241 3.32385 -2.22171 0
M  V30 1897 H 191.681 3.99272 -1.42681 0
M  V30 1898 C 190.14 3.36809 -0.078191 0
M  V30 1899 O 190.67 3.92124 0.87188 0
M  V30 1900 N 188.876 2.906 0.00229266 0
M  V30 1901 H 188.423 2.45772 -0.771616 0
M  V30 1902 H 188.381 3.02347 0.862179 0
M  V30 1903 N 192.153 1.28127 0.917671 0
M  V30 1904 C 193.564 1.13622 1.48145 0
M  V30 1905 C 193.915 -0.275207 1.9426 0
M  V30 1906 O 193.04 -1.1691 1.82102 0
M  V30 1907 C 193.635 2.05648 2.69248 0
M  V30 1908 C 192.194 1.95219 3.21818 0
M  V30 1909 C 191.341 1.97618 1.94532 0
M  V30 1910 H 194.292 1.40874 0.730772 0
M  V30 1911 H 194.313 1.61818 3.44377 0
M  V30 1912 H 193.825 3.08365 2.35653 0
M  V30 1913 H 191.926 0.955244 3.60147 0
M  V30 1914 H 192.039 2.81976 3.87333 0
M  V30 1915 H 190.403 1.41973 2.11461 0
M  V30 1916 H 191.186 3.02007 1.63238 0
M  V30 1917 N 193.631 -1.12557 1.10312 0
M  V30 1918 C 194.877 -1.84311 0.846011 0
M  V30 1919 C 195.21 -1.83805 -0.626859 0
M  V30 1920 O 194.485 -1.28268 -1.46211 0
M  V30 1921 C 194.768 -3.32048 1.39341 0
M  V30 1922 C 194.621 -3.41016 2.93305 0
M  V30 1923 C 195.94 -4.27764 1.03468 0
M  V30 1924 H 193.059 -0.669192 0.30879 0
M  V30 1925 H 195.701 -1.32057 1.36605 0
M  V30 1926 H 193.851 -3.76678 0.951087 0
M  V30 1927 H 195.523 -3.05031 3.46055 0
M  V30 1928 H 193.766 -2.81603 3.29973 0
M  V30 1929 H 194.437 -4.44948 3.26689 0
M  V30 1930 H 196.913 -3.91253 1.41633 0
M  V30 1931 H 195.789 -5.29549 1.44463 0
M  V30 1932 H 196.05 -4.42064 -0.0560404 0
M  V30 1933 N 195.109 -0.891671 -1.2995 0
M  V30 1934 C 196.52 -0.563104 -1.78006 0
M  V30 1935 C 196.871 0.920978 -1.73241 0
M  V30 1936 O 195.996 1.71987 -1.31337 0
M  V30 1937 C 196.591 -1.01539 -3.23226 0
M  V30 1938 C 195.15 -0.738124 -3.69092 0
M  V30 1939 C 194.297 -1.19461 -2.50249 0
M  V30 1940 H 197.248 -1.07522 -1.16725 0
M  V30 1941 H 197.269 -0.347217 -3.78912 0
M  V30 1942 H 196.781 -2.09555 -3.26662 0
M  V30 1943 H 194.882 0.329766 -3.71138 0
M  V30 1944 H 194.995 -1.33037 -4.60259 0
M  V30 1945 H 193.359 -0.613787 -2.47194 0
M  V30 1946 H 194.142 -2.28265 -2.56417 0
M  V30 1947 N 196.587 1.43421 -0.653314 0
M  V30 1948 C 198.003 1.56341 -0.320886 0
M  V30 1949 C 198.203 1.63696 1.17499 0
M  V30 1950 O 197.259 1.59208 1.95982 0
M  V30 1951 C 198.572 2.82424 -1.03233 0
M  V30 1952 C 200.12 2.96168 -1.01259 0
M  V30 1953 C 200.595 4.25084 -1.70492 0
M  V30 1954 N 202.086 4.31948 -1.67257 0
M  V30 1955 C 202.821 5.30466 -2.17701 0
M  V30 1956 N 202.317 6.35261 -2.76434 0
M  V30 1957 N 204.11 5.2212 -2.082 0
M  V30 1958 H 196.261 1.3689 -1.62403 0
M  V30 1959 H 198.524 0.657455 -0.682977 0
M  V30 1960 H 198.23 2.83053 -2.08744 0
M  V30 1961 H 198.104 3.72653 -0.583948 0
M  V30 1962 H 200.491 2.9508 0.0341235 0
M  V30 1963 H 200.572 2.07229 -1.49966 0
M  V30 1964 H 200.216 4.26932 -2.7512 0
M  V30 1965 H 200.146 5.1292 -1.19251 0
M  V30 1966 H 202.637 3.56838 -1.24398 0
M  V30 1967 H 202.95 7.06754 -3.12601 0
M  V30 1968 H 201.295 6.35884 -2.80495 0
M  V30 1969 H 204.486 4.39166 -1.62021 0
M  V30 1970 H 204.659 5.98739 -2.47822 0
M  V30 1971 N 198.065 0.39524 1.52563 0
M  V30 1972 C 198.997 -0.472201 2.24283 0
M  V30 1973 C 200.01 -1.02178 1.26742 0
M  V30 1974 O 201.199 -0.923097 1.52778 0
M  V30 1975 C 198.299 -1.66775 2.95024 0
M  V30 1976 C 197.472 -1.2445 4.19322 0
M  V30 1977 C 196.531 -2.30539 4.7301 0
M  V30 1978 O 195.557 -1.91702 5.35947 0
M  V30 1979 N 196.759 -3.6253 4.53379 0
M  V30 1980 H 199.524 0.142282 2.99362 0
M  V30 1981 H 197.085 0.2219 1.60372 0
M  V30 1982 H 199.077 -2.37283 3.27839 0
M  V30 1983 H 197.647 -2.18845 2.23217 0
M  V30 1984 H 196.867 -0.368069 3.92478 0
M  V30 1985 H 198.155 -0.938457 5.0007 0
M  V30 1986 H 197.553 -3.96841 4.03154 0
M  V30 1987 H 196.11 -4.29055 4.90668 0
M  V30 1988 N 199.544 -1.57102 0.125237 0
M  V30 1989 C 200.477 -2.11371 -0.860094 0
M  V30 1990 C 201.455 -1.03168 -1.25679 0
M  V30 1991 O 202.639 -1.30862 -1.35674 0
M  V30 1992 C 199.766 -2.61555 -2.1519 0
M  V30 1993 C 198.812 -3.81701 -1.9028 0
M  V30 1994 S 199.645 -5.23797 -1.11343 0
M  V30 1995 C 200.801 -5.77353 -2.41689 0
M  V30 1996 H 201.034 -2.94617 -0.39852 0
M  V30 1997 H 198.567 -1.54145 -0.0886555 0
M  V30 1998 H 200.525 -2.91122 -2.89411 0
M  V30 1999 H 199.186 -1.78479 -2.58465 0
M  V30 2000 H 198.379 -4.14985 -2.86014 0
M  V30 2001 H 197.981 -3.52783 -1.24178 0
M  V30 2002 H 200.273 -5.87458 -3.37489 0
M  V30 2003 H 201.216 -6.75323 -2.12942 0
M  V30 2004 H 201.624 -5.05457 -2.51342 0
M  V30 2005 N 201.022 0.148545 -1.56898 0
M  V30 2006 C 202.271 0.85984 -1.82454 0
M  V30 2007 C 202.584 1.82406 -0.706229 0
M  V30 2008 O 203.79 2.57938 -0.847349 0
M  V30 2009 C 202.246 1.57967 -3.2338 0
M  V30 2010 C 201.854 0.65794 -4.43142 0
M  V30 2011 C 203.598 2.27784 -3.58211 0
M  V30 2012 C 201.505 1.3793 -5.75091 0
M  V30 2013 H 200.435 0.324834 -0.68044 0
M  V30 2014 H 203.086 0.112588 -1.83154 0
M  V30 2015 H 201.468 2.37249 -3.17063 0
M  V30 2016 H 202.642 -0.0995497 -4.60692 0
M  V30 2017 H 200.957 0.0682643 -4.16344 0
M  V30 2018 H 203.554 2.8239 -4.54048 0
M  V30 2019 H 203.897 3.04204 -2.84193 0
M  V30 2020 H 204.43 1.55421 -3.66182 0
M  V30 2021 H 201.169 0.656982 -6.52199 0
M  V30 2022 H 200.689 2.10954 -5.61479 0
M  V30 2023 H 202.368 1.92063 -6.17835 0
M  V30 2024 N 202.5 1.5196 0.417844 0
M  V30 2025 C 203.41 1.77554 1.53336 0
M  V30 2026 C 204.426 0.660655 1.6097 0
M  V30 2027 O 205.602 0.945099 1.77848 0
M  V30 2028 C 202.667 1.91291 2.89152 0
M  V30 2029 C 201.728 3.15183 2.91475 0
M  V30 2030 C 200.961 3.28256 4.20813 0
M  V30 2031 O 201.184 2.46798 5.14244 0
M  V30 2032 O 200.118 4.21356 4.29817 0
M  V30 2033 H 203.944 2.7222 1.34647 0
M  V30 2034 H 201.529 1.36698 0.602828 0
M  V30 2035 H 203.411 2.02199 3.69721 0
M  V30 2036 H 202.086 0.998129 3.07927 0
M  V30 2037 H 200.993 3.09739 2.09791 0
M  V30 2038 H 202.326 4.06414 2.77648 0
M  V30 2039 N 203.978 -0.674533 1.42435 0
M  V30 2040 C 204.925 -1.78807 1.45934 0
M  V30 2041 C 205.895 -1.63157 0.311271 0
M  V30 2042 O 207.08 -1.83707 0.515383 0
M  V30 2043 C 204.22 -3.16839 1.36773 0
M  V30 2044 C 203.333 -3.43774 2.61617 0
M  V30 2045 C 202.468 -4.71536 2.44597 0
M  V30 2046 C 201.507 -4.91505 3.64814 0
M  V30 2047 N 200.644 -6.10508 3.46734 0
M  V30 2048 H 205.484 -1.75151 2.41093 0
M  V30 2049 H 203.021 -0.85504 1.19697 0
M  V30 2050 H 204.979 -3.96606 1.29459 0
M  V30 2051 H 203.609 -3.19619 0.452089 0
M  V30 2052 H 202.661 -2.58259 2.79297 0
M  V30 2053 H 203.973 -3.54423 3.50978 0
M  V30 2054 H 203.127 -5.59393 2.3487 0
M  V30 2055 H 201.866 -4.6317 1.52726 0
M  V30 2056 H 200.871 -4.0209 3.74972 0
M  V30 2057 H 202.096 -5.01716 4.57665 0
M  V30 2058 H 200.042 -6.03315 2.5758 0
M  V30 2059 H 199.959 -6.2202 4.29682 0
M  V30 2060 H 201.227 -7.01044 3.40819 0
M  V30 2061 N 205.456 -1.28612 -0.910864 0
M  V30 2062 C 206.366 -1.14643 -2.0468 0
M  V30 2063 C 207.382 -0.0723121 -1.7385 0
M  V30 2064 O 208.558 -0.282178 -1.99413 0
M  V30 2065 C 205.623 -0.812561 -3.37044 0
M  V30 2066 C 204.684 -1.96935 -3.81465 0
M  V30 2067 C 203.917 -1.65131 -5.07511 0
M  V30 2068 O 204.14 -0.567013 -5.67575 0
M  V30 2069 O 203.074 -2.49585 -5.47714 0
M  V30 2070 H 206.9 -2.1001 -2.19384 0
M  V30 2071 H 204.485 -1.07958 -1.03274 0
M  V30 2072 H 206.367 -0.640441 -4.16505 0
M  V30 2073 H 205.042 0.111426 -3.23508 0
M  V30 2074 H 203.949 -2.19664 -3.02818 0
M  V30 2075 H 205.282 -2.87414 -3.99567 0
M  V30 2076 N 206.934 1.1197 -1.10907 0
M  V30 2077 C 208.18 1.8386 -0.855773 0
M  V30 2078 C 208.513 1.84134 0.617103 0
M  V30 2079 O 207.788 1.29041 1.45529 0
M  V30 2080 C 208.071 3.31305 -1.411 0
M  V30 2081 C 207.924 3.39456 -2.9511 0
M  V30 2082 C 209.243 4.2721 -1.05736 0
M  V30 2083 H 206.362 0.667545 -0.312334 0
M  V30 2084 H 209.004 1.31331 -1.37303 0
M  V30 2085 H 207.154 3.76169 -0.97105 0
M  V30 2086 H 208.826 3.03191 -3.47668 0
M  V30 2087 H 207.069 2.79849 -3.31462 0
M  V30 2088 H 207.74 4.43209 -3.29044 0
M  V30 2089 H 210.216 3.90497 -1.43706 0
M  V30 2090 H 209.092 5.28775 -1.47269 0
M  V30 2091 H 209.353 4.42088 0.0325958 0
M  V30 2092 N 208.412 0.89855 1.29475 0
M  V30 2093 C 209.342 0.39201 2.30186 0
M  V30 2094 C 210.323 -0.532359 1.61555 0
M  V30 2095 O 211.508 -0.443331 1.89072 0
M  V30 2096 C 208.638 -0.382353 3.45189 0
M  V30 2097 C 207.592 0.451483 4.25612 0
M  V30 2098 C 206.918 -0.450307 5.328 0
M  V30 2099 C 208.218 1.70079 4.93832 0
M  V30 2100 H 209.912 1.23362 2.72804 0
M  V30 2101 H 207.458 0.594638 1.31149 0
M  V30 2102 H 209.411 -0.747451 4.14718 0
M  V30 2103 H 208.135 -1.25774 3.01411 0
M  V30 2104 H 206.794 0.798897 3.57789 0
M  V30 2105 H 206.442 -1.32379 4.85268 0
M  V30 2106 H 206.142 0.103902 5.87508 0
M  V30 2107 H 207.666 -0.811623 6.05182 0
M  V30 2108 H 209.08 1.40549 5.55805 0
M  V30 2109 H 207.477 2.19623 5.58467 0
M  V30 2110 H 208.547 2.43744 4.19186 0
M  V30 2111 N 209.89 -1.43072 0.660911 0
M  V30 2112 C 210.837 -2.30785 -0.0259884 0
M  V30 2113 C 211.807 -1.45184 -0.806888 0
M  V30 2114 O 212.992 -1.74041 -0.781943 0
M  V30 2115 C 210.132 -3.30861 -0.981067 0
M  V30 2116 C 209.245 -4.31558 -0.195458 0
M  V30 2117 C 208.38 -5.18712 -1.14503 0
M  V30 2118 C 207.419 -6.11097 -0.350299 0
M  V30 2119 N 206.556 -6.90849 -1.25186 0
M  V30 2120 H 211.396 -2.88975 0.727846 0
M  V30 2121 H 208.933 -1.42353 0.370682 0
M  V30 2122 H 210.891 -3.87399 -1.54849 0
M  V30 2123 H 209.521 -2.74304 -1.70169 0
M  V30 2124 H 208.573 -3.77252 0.488374 0
M  V30 2125 H 209.885 -4.9701 0.422176 0
M  V30 2126 H 209.039 -5.79914 -1.78284 0
M  V30 2127 H 207.778 -4.53404 -1.79656 0
M  V30 2128 H 206.783 -5.48976 0.300808 0
M  V30 2129 H 208.008 -6.7845 0.296941 0
M  V30 2130 H 205.954 -6.28182 -1.89005 0
M  V30 2131 H 205.871 -7.52854 -0.688971 0
M  V30 2132 H 207.139 -7.5655 -1.87757 0
M  V30 2133 N 211.368 -0.403325 -1.52352 0
M  V30 2134 C 212.614 0.174605 -2.02047 0
M  V30 2135 C 212.947 1.45282 -1.28867 0
M  V30 2136 O 212.222 1.90483 -0.393257 0
M  V30 2137 C 212.505 0.428238 -3.57545 0
M  V30 2138 C 212.358 -0.866248 -4.4138 0
M  V30 2139 C 213.677 1.21287 -4.23057 0
M  V30 2140 H 210.796 0.0619851 -0.734389 0
M  V30 2141 H 213.438 -0.53565 -1.82293 0
M  V30 2142 H 211.588 1.03327 -3.74507 0
M  V30 2143 H 213.26 -1.50265 -4.3614 0
M  V30 2144 H 211.503 -1.47851 -4.07827 0
M  V30 2145 H 212.174 -0.643249 -5.48239 0
M  V30 2146 H 214.65 0.700703 -4.10158 0
M  V30 2147 H 213.526 1.35909 -5.31808 0
M  V30 2148 H 213.787 2.23193 -3.81625 0
M  V30 2149 N 212.846 1.57033 -0.133567 0
M  V30 2150 C 214.071 2.00475 0.531477 0
M  V30 2151 C 214.496 1.01291 1.58499 0
M  V30 2152 O 213.854 -0.0133279 1.81295 0
M  V30 2153 C 213.902 3.42729 1.12113 0
M  V30 2154 O 213.006 3.46498 2.23636 0
M  V30 2155 H 212.347 0.650876 0.131362 0
M  V30 2156 H 214.877 2.03344 -0.22634 0
M  V30 2157 H 214.887 3.81246 1.4531 0
M  V30 2158 H 213.562 4.14428 0.349557 0
M  V30 2159 H 212.139 3.19811 1.91769 0
M  V30 2160 N 214.325 -0.140222 1.56975 0
M  V30 2161 C 215.272 -1.17292 1.98774 0
M  V30 2162 C 216.242 -1.4232 0.856408 0
M  V30 2163 O 217.427 -1.54541 1.119 0
M  V30 2164 C 214.567 -2.49973 2.37923 0
M  V30 2165 C 213.68 -2.32062 3.64378 0
M  V30 2166 C 212.815 -3.57825 3.926 0
M  V30 2167 C 211.854 -3.3498 5.12303 0
M  V30 2168 N 210.991 -4.52891 5.36502 0
M  V30 2169 H 215.831 -0.809472 2.86795 0
M  V30 2170 H 213.368 -0.388237 1.41884 0
M  V30 2171 H 215.326 -3.27346 2.58652 0
M  V30 2172 H 213.956 -2.84252 1.52972 0
M  V30 2173 H 213.008 -1.45711 3.51387 0
M  V30 2174 H 214.32 -2.11145 4.51906 0
M  V30 2175 H 213.474 -4.43624 4.13863 0
M  V30 2176 H 212.213 -3.81753 3.03506 0
M  V30 2177 H 211.218 -2.4757 4.90906 0
M  V30 2178 H 212.443 -3.12444 6.02956 0
M  V30 2179 H 210.389 -4.76979 4.50363 0
M  V30 2180 H 210.306 -4.35001 6.18312 0
M  V30 2181 H 211.574 -5.39884 5.62268 0
M  V30 2182 N 215.803 -1.52179 -0.40978 0
M  V30 2183 C 216.75 -1.75475 -1.49924 0
M  V30 2184 C 217.72 -0.597175 -1.54994 0
M  V30 2185 O 218.905 -0.834655 -1.71575 0
M  V30 2186 C 216.045 -1.9107 -2.87378 0
M  V30 2187 C 215.158 -3.18717 -2.91622 0
M  V30 2188 C 214.293 -3.24747 -4.20372 0
M  V30 2189 C 213.332 -4.46598 -4.18588 0
M  V30 2190 N 212.469 -4.50025 -5.38908 0
M  V30 2191 H 217.309 -2.68458 -1.29361 0
M  V30 2192 H 214.846 -1.33024 -0.627934 0
M  V30 2193 H 216.804 -1.98096 -3.6717 0
M  V30 2194 H 215.434 -1.01469 -3.06437 0
M  V30 2195 H 214.486 -3.20866 -2.04326 0
M  V30 2196 H 215.798 -4.08544 -2.86169 0
M  V30 2197 H 214.952 -3.30841 -5.08556 0
M  V30 2198 H 213.691 -2.32857 -4.28519 0
M  V30 2199 H 212.696 -4.40652 -3.28794 0
M  V30 2200 H 213.921 -5.39783 -4.12081 0
M  V30 2201 H 211.867 -3.61017 -5.47725 0
M  V30 2202 H 211.784 -5.33697 -5.35447 0
M  V30 2203 H 213.052 -4.60347 -6.29048 0
M  V30 2204 N 217.281 0.66697 -1.42791 0
M  V30 2205 C 218.529 1.42417 -1.43394 0
M  V30 2206 C 218.85 1.94925 -0.0542373 0
M  V30 2207 O 218.12 1.73564 0.908415 0
M  V30 2208 H 216.7 0.528515 -0.527902 0
M  V30 2209 H 219.362 0.787562 -1.78279 0
M  V30 2210 H 218.458 2.27333 -2.13837 0
M  V30 2211 N 218.759 1.29093 0.90403 0
M  V30 2212 C 220.006 1.16813 1.65411 0
M  V30 2213 C 220.334 -0.28128 1.92455 0
M  V30 2214 O 219.589 -1.22006 1.53013 0
M  V30 2215 C 219.888 1.92224 3.01305 0
M  V30 2216 C 219.554 3.41968 2.93885 0
M  V30 2217 C 218.216 3.82807 2.91569 0
M  V30 2218 C 220.568 4.37409 2.83413 0
M  V30 2219 C 217.896 5.1741 2.76594 0
M  V30 2220 C 220.248 5.72097 2.69977 0
M  V30 2221 C 218.912 6.12199 2.66024 0
M  V30 2222 H 218.182 0.42745 0.605283 0
M  V30 2223 H 220.829 1.59981 1.05254 0
M  V30 2224 H 219.134 1.41635 3.65304 0
M  V30 2225 H 220.831 1.80131 3.58265 0
M  V30 2226 H 217.421 3.09504 2.96488 0
M  V30 2227 H 221.605 4.06813 2.84283 0
M  V30 2228 H 216.861 5.47596 2.71935 0
M  V30 2229 H 221.035 6.45704 2.60844 0
M  V30 2230 H 218.662 7.16448 2.54178 0
M  V30 2231 N 220.237 -1.11381 1.11499 0
M  V30 2232 C 221.185 -2.19522 0.768956 0
M  V30 2233 C 222.179 -1.67693 -0.239857 0
M  V30 2234 O 223.385 -1.79727 -0.0990755 0
M  V30 2235 H 219.76 -0.715711 0.230786 0
M  V30 2236 H 221.731 -2.45954 1.68964 0
M  V30 2237 C 220.48 -3.46945 0.229073 0
M  V30 2238 H 219.803 -3.8718 0.996596 0
M  V30 2239 H 221.243 -4.23993 0.0251441 0
M  V30 2240 C 219.702 -3.2042 -1.04079 0
M  V30 2241 O 220.232 -3.41178 -2.12038 0
M  V30 2242 N 218.438 -2.74151 -0.963823 0
M  V30 2243 H 217.985 -2.57459 -0.0851722 0
M  V30 2244 H 217.943 -2.56781 -1.81414 0
M  V30 2245 N 221.715 -0.905404 -1.28997 0
M  V30 2246 C 222.961 -0.535039 -1.95615 0
M  V30 2247 C 223.294 0.917404 -1.71165 0
M  V30 2248 O 222.569 1.65123 -1.02785 0
M  V30 2249 C 222.852 -0.834918 -3.50287 0
M  V30 2250 C 222.705 -2.33948 -3.84172 0
M  V30 2251 C 224.024 -0.325318 -4.38896 0
M  V30 2252 H 221.143 -0.195861 -0.710498 0
M  V30 2253 H 223.785 -1.13313 -1.52513 0
M  V30 2254 H 221.935 -0.325904 -3.87131 0
M  V30 2255 H 223.607 -2.91847 -3.57243 0
M  V30 2256 H 221.85 -2.79789 -3.31513 0
M  V30 2257 H 222.521 -2.49987 -4.92149 0
M  V30 2258 H 224.997 -0.761256 -4.09077 0
M  V30 2259 H 223.873 -0.564295 -5.45992 0
M  V30 2260 H 224.134 0.774144 -4.35269 0
M  V30 2261 N 223.193 1.4272 -0.668489 0
M  V30 2262 C 224.103 2.34596 0.0139753 0
M  V30 2263 C 225.119 1.5474 0.795703 0
M  V30 2264 O 226.295 1.87334 0.739466 0
M  V30 2265 C 223.36 3.33202 0.957982 0
M  V30 2266 C 222.421 4.28957 0.17149 0
M  V30 2267 C 221.654 5.22853 1.07053 0
M  V30 2268 O 221.877 5.21531 2.31001 0
M  V30 2269 O 220.811 5.9952 0.534727 0
M  V30 2270 H 224.637 2.9448 -0.742661 0
M  V30 2271 H 222.222 1.43117 -0.428705 0
M  V30 2272 H 224.104 3.93796 1.50008 0
M  V30 2273 H 222.779 2.758 1.69458 0
M  V30 2274 H 221.686 3.71796 -0.414558 0
M  V30 2275 H 223.019 4.89383 -0.52586 0
M  V30 2276 N 224.671 0.411399 1.52136 0
M  V30 2277 C 225.92 -0.165009 2.01024 0
M  V30 2278 C 226.233 -1.4603 1.30133 0
M  V30 2279 O 227.439 -2.1181 1.69849 0
M  V30 2280 C 225.895 -0.344618 3.58246 0
M  V30 2281 C 225.503 0.938716 4.38055 0
M  V30 2282 C 227.247 -0.876195 4.15359 0
M  V30 2283 C 225.154 0.726172 5.86925 0
M  V30 2284 H 224.084 -0.0654407 0.751155 0
M  V30 2285 H 226.735 0.537192 1.75461 0
M  V30 2286 H 225.117 -1.10921 3.80148 0
M  V30 2287 H 226.291 1.70963 4.27912 0
M  V30 2288 H 224.606 1.39688 3.92271 0
M  V30 2289 H 227.203 -1.05128 5.24263 0
M  V30 2290 H 227.546 -1.85152 3.7286 0
M  V30 2291 H 228.079 -0.170607 3.97434 0
M  V30 2292 H 224.818 1.67312 6.33788 0
M  V30 2293 H 224.338 -0.00540283 5.998 0
M  V30 2294 H 226.017 0.369231 6.45946 0
M  V30 2295 N 226.149 -1.5696 0.141893 0
M  V30 2296 C 227.396 -1.9596 -0.510492 0
M  V30 2297 C 227.724 -1.02648 -1.65208 0
M  V30 2298 O 226.979 -0.0546947 -1.95624 0
M  V30 2299 C 227.278 -3.41242 -1.06249 0
M  V30 2300 C 226.944 -4.50882 -0.0398791 0
M  V30 2301 C 225.606 -4.80595 0.241247 0
M  V30 2302 C 227.958 -5.17058 0.65578 0
M  V30 2303 C 225.286 -5.73792 1.22393 0
M  V30 2304 C 227.638 -6.11313 1.62724 0
M  V30 2305 C 226.302 -6.39407 1.91612 0
M  V30 2306 H 225.572 -0.717068 -0.186802 0
M  V30 2307 H 228.219 -1.90142 0.227643 0
M  V30 2308 H 226.524 -3.43866 -1.87785 0
M  V30 2309 H 228.221 -3.68742 -1.57576 0
M  V30 2310 H 224.811 -4.27754 -0.269174 0
M  V30 2311 H 228.995 -4.94239 0.451779 0
M  V30 2312 H 224.251 -5.93853 1.45424 0
M  V30 2313 H 228.425 -6.61668 2.17183 0
M  V30 2314 H 226.052 -7.11427 2.6791 0
M  V30 2315 N 227.627 0.131896 -1.57047 0
M  V30 2316 C 228.852 0.860418 -1.8871 0
M  V30 2317 C 229.277 1.73251 -0.73251 0
M  V30 2318 O 228.635 1.785 0.317429 0
M  V30 2319 C 228.683 1.68047 -3.19049 0
M  V30 2320 O 227.787 2.7862 -3.04047 0
M  V30 2321 H 227.128 0.238743 -0.619595 0
M  V30 2322 H 229.658 0.118169 -2.04258 0
M  V30 2323 H 229.668 2.07238 -3.51449 0
M  V30 2324 H 228.343 1.04018 -4.02682 0
M  V30 2325 H 226.92 2.42726 -2.83088 0
M  V30 2326 N 229.106 1.52395 0.401703 0
M  V30 2327 C 230.517 1.58899 0.980202 0
M  V30 2328 C 230.868 0.434032 1.91339 0
M  V30 2329 O 229.993 -0.444619 2.11783 0
M  V30 2330 C 230.588 2.87994 1.78451 0
M  V30 2331 C 229.147 2.96953 2.31292 0
M  V30 2332 C 228.294 2.53903 1.11483 0
M  V30 2333 H 231.245 1.57657 0.18168 0
M  V30 2334 H 231.266 2.73765 2.64259 0
M  V30 2335 H 230.778 3.72035 1.10506 0
M  V30 2336 H 228.879 2.17422 3.02586 0
M  V30 2337 H 228.992 4.01344 2.61649 0
M  V30 2338 H 227.356 2.07925 1.47104 0
M  V30 2339 H 228.139 3.40326 0.450928 0
M  V30 2340 N 230.584 -0.659388 1.43143 0
M  V30 2341 C 231.516 -1.7849 1.43784 0
M  V30 2342 C 232.529 -1.5932 0.334787 0
M  V30 2343 O 233.718 -1.68155 0.598842 0
M  V30 2344 C 230.818 -3.15828 1.22906 0
M  V30 2345 C 229.991 -3.61711 2.45934 0
M  V30 2346 C 229.05 -4.77831 2.20371 0
M  V30 2347 O 228.076 -4.87586 2.93681 0
M  V30 2348 N 229.278 -5.67611 1.21647 0
M  V30 2349 H 232.043 -1.7842 2.40803 0
M  V30 2350 H 229.604 -0.84302 1.3822 0
M  V30 2351 H 231.596 -3.91189 1.03697 0
M  V30 2352 H 230.166 -3.10707 0.343542 0
M  V30 2353 H 229.386 -2.76861 2.80609 0
M  V30 2354 H 230.674 -3.89112 3.27825 0
M  V30 2355 H 230.072 -5.62397 0.610449 0
M  V30 2356 H 228.629 -6.42719 1.08423 0
M  V30 2357 N 232.062 -1.29571 -0.897171 0
M  V30 2358 C 233.31 -1.17456 -1.64464 0
M  V30 2359 C 233.631 0.273698 -1.9307 0
M  V30 2360 O 232.901 1.18684 -1.55855 0
M  V30 2361 H 231.481 -0.431706 -0.609622 0
M  V30 2362 H 234.143 -1.62531 -1.07562 0
M  V30 2363 H 233.239 -1.72648 -2.59998 0
M  V30 2364 N 233.54 1.10788 -1.12088 0
M  V30 2365 C 234.503 2.15207 -0.788577 0
M  V30 2366 C 235.503 1.59609 0.195317 0
M  V30 2367 O 236.693 1.74174 -0.0300193 0
M  V30 2368 C 233.825 3.4047 -0.171174 0
M  V30 2369 H 235.018 2.46116 -1.71368 0
M  V30 2370 H 232.571 1.26089 -0.923652 0
M  V30 2371 H 233.306 3.15176 0.763832 0
M  V30 2372 H 233.091 3.82109 -0.879514 0
M  V30 2373 H 234.581 4.17576 0.04496 0
M  V30 2374 N 235.018 0.912232 1.28515 0
M  V30 2375 C 235.928 0.404506 2.31086 0
M  V30 2376 C 236.944 -0.50707 1.66448 0
M  V30 2377 O 238.12 -0.393624 1.97516 0
M  V30 2378 C 235.185 -0.348572 3.44943 0
M  V30 2379 C 234.246 0.59604 4.25142 0
M  V30 2380 C 233.479 -0.121194 5.33562 0
M  V30 2381 O 233.702 -1.34317 5.5436 0
M  V30 2382 O 232.636 0.542716 5.99448 0
M  V30 2383 H 236.462 1.25579 2.76521 0
M  V30 2384 H 234.047 0.676998 1.33181 0
M  V30 2385 H 235.929 -0.77395 4.14232 0
M  V30 2386 H 234.604 -1.17571 3.01594 0
M  V30 2387 H 233.511 1.07079 3.58448 0
M  V30 2388 H 234.844 1.38995 4.72167 0
M  V30 2389 N 236.496 -1.42363 0.676048 0
M  V30 2390 C 237.745 -2.00745 0.196037 0
M  V30 2391 C 238.058 -1.54083 -1.20489 0
M  V30 2392 O 239.264 -2.04891 -1.78134 0
M  V30 2393 C 237.72 -3.58651 0.299616 0
M  V30 2394 C 237.328 -4.143 1.70468 0
M  V30 2395 C 239.072 -4.24326 -0.121619 0
M  V30 2396 C 236.979 -5.64574 1.76096 0
M  V30 2397 H 235.909 -0.750787 0.0695301 0
M  V30 2398 H 238.56 -1.63072 0.841412 0
M  V30 2399 H 236.942 -3.93833 -0.413673 0
M  V30 2400 H 238.116 -3.90575 2.44515 0
M  V30 2401 H 236.431 -3.61081 2.07387 0
M  V30 2402 H 239.028 -5.34607 -0.0997362 0
M  V30 2403 H 239.371 -3.99897 -1.15708 0
M  V30 2404 H 239.904 -3.94108 0.540706 0
M  V30 2405 H 236.643 -5.93804 2.77628 0
M  V30 2406 H 236.163 -5.90286 1.06406 0
M  V30 2407 H 237.842 -6.29013 1.51496 0
M  V30 2408 N 237.974 -0.419461 -1.51915 0
M  V30 2409 C 239.222 0.152637 -2.01523 0
M  V30 2410 C 239.543 1.44762 -1.30649 0
M  V30 2411 O 238.813 1.90997 -0.435535 0
M  V30 2412 H 237.393 0.0593966 -0.744635 0
M  V30 2413 H 240.055 -0.558073 -1.86739 0
M  V30 2414 H 239.151 0.341369 -3.10227 0
M  V30 2415 N 239.452 1.56882 -0.150215 0
M  V30 2416 C 240.399 2.16922 0.788244 0
M  V30 2417 C 241.369 1.10303 1.24187 0
M  V30 2418 O 242.554 1.38359 1.31383 0
M  V30 2419 C 239.694 2.79754 2.02068 0
M  V30 2420 C 238.807 4.00775 1.61257 0
M  V30 2421 C 237.942 4.51595 2.79705 0
M  V30 2422 C 236.981 5.65074 2.35282 0
M  V30 2423 N 236.118 6.10499 3.4675 0
M  V30 2424 H 240.958 2.96779 0.269444 0
M  V30 2425 H 238.495 1.46599 0.12128 0
M  V30 2426 H 240.453 3.14329 2.74323 0
M  V30 2427 H 239.083 2.02536 2.51354 0
M  V30 2428 H 238.135 3.72158 0.787553 0
M  V30 2429 H 239.447 4.82978 1.24633 0
M  V30 2430 H 238.601 4.88242 3.60145 0
M  V30 2431 H 237.34 3.68406 3.19576 0
M  V30 2432 H 236.345 5.28 1.53283 0
M  V30 2433 H 237.57 6.50052 1.96493 0
M  V30 2434 H 235.516 5.30243 3.86236 0
M  V30 2435 H 235.433 6.87637 3.14152 0
M  V30 2436 H 236.701 6.51791 4.27537 0
M  V30 2437 N 240.93 -0.123565 1.57115 0
M  V30 2438 C 241.877 -1.15177 2.00007 0
M  V30 2439 C 242.847 -1.41403 0.871454 0
M  V30 2440 O 244.032 -1.53346 1.13533 0
M  V30 2441 C 241.172 -2.47436 2.40561 0
M  V30 2442 C 240.285 -2.28184 3.66819 0
M  V30 2443 C 239.42 -3.53641 3.96373 0
M  V30 2444 C 238.459 -3.29528 5.15827 0
M  V30 2445 N 237.596 -4.47175 5.41275 0
M  V30 2446 H 242.436 -0.779008 2.87638 0
M  V30 2447 H 239.973 -0.373166 1.42288 0
M  V30 2448 H 241.931 -3.24584 2.62109 0
M  V30 2449 H 240.561 -2.82614 1.55978 0
M  V30 2450 H 239.613 -1.41976 3.52912 0
M  V30 2451 H 240.925 -2.0634 4.5412 0
M  V30 2452 H 240.079 -4.39209 4.18545 0
M  V30 2453 H 238.818 -3.78512 3.07538 0
M  V30 2454 H 237.823 -2.42349 4.93505 0
M  V30 2455 H 239.048 -3.06031 6.06236 0
M  V30 2456 H 236.994 -4.72175 4.55397 0
M  V30 2457 H 236.911 -4.28419 6.22891 0
M  V30 2458 H 238.179 -5.3389 5.67963 0
M  V30 2459 N 242.408 -1.52605 -0.393616 0
M  V30 2460 C 243.636 -1.71294 -1.16043 0
M  V30 2461 C 244.051 -0.429259 -1.83855 0
M  V30 2462 O 243.408 0.595921 -1.72496 0
M  V30 2463 C 243.459 -2.8593 -2.21193 0
M  V30 2464 O 243.18 -4.09329 -1.56146 0
M  V30 2465 C 244.681 -3.16259 -3.10636 0
M  V30 2466 H 241.901 -0.573641 -0.348104 0
M  V30 2467 H 244.445 -1.99234 -0.461092 0
M  V30 2468 H 242.6 -2.60465 -2.86769 0
M  V30 2469 H 243.014 -4.73323 -2.25978 0
M  V30 2470 H 244.488 -3.99946 -3.80456 0
M  V30 2471 H 244.965 -2.3045 -3.73884 0
M  V30 2472 H 245.571 -3.43547 -2.50711 0
M  V30 2473 N 243.887 0.651787 -1.4349 0
M  V30 2474 C 245.134 1.41167 -1.45183 0
M  V30 2475 C 245.462 1.94349 -0.0766601 0
M  V30 2476 O 244.717 1.72804 0.918555 0
M  V30 2477 C 245.016 2.60914 -2.44251 0
M  V30 2478 C 244.682 2.26142 -3.9009 0
M  V30 2479 C 243.344 2.16371 -4.2981 0
M  V30 2480 C 245.696 1.98334 -4.81989 0
M  V30 2481 C 243.024 1.7695 -5.5938 0
M  V30 2482 C 245.376 1.6041 -6.11924 0
M  V30 2483 C 244.04 1.49166 -6.5062 0
M  V30 2484 H 243.31 0.516566 -0.531263 0
M  V30 2485 H 245.957 0.741099 -1.76579 0
M  V30 2486 H 244.262 3.3311 -2.06265 0
M  V30 2487 H 245.959 3.19127 -2.42815 0
M  V30 2488 H 242.549 2.34658 -3.58655 0
M  V30 2489 H 246.733 2.04803 -4.52072 0
M  V30 2490 H 241.989 1.66831 -5.88198 0
M  V30 2491 H 246.163 1.37925 -6.82605 0
M  V30 2492 H 243.79 1.1839 -7.50925 0
M  V30 2493 N 245.365 1.30045 0.890287 0
M  V30 2494 C 246.313 1.15873 2.01683 0
M  V30 2495 C 247.307 0.0719403 1.69247 0
M  V30 2496 O 248.513 0.232414 1.78493 0
M  V30 2497 H 244.888 0.358203 0.661207 0
M  V30 2498 H 246.859 2.11229 2.10772 0
M  V30 2499 C 245.608 0.861842 3.36849 0
M  V30 2500 H 244.931 1.69016 3.62317 0
M  V30 2501 H 246.371 0.802762 4.16331 0
M  V30 2502 C 244.83 -0.435132 3.34078 0
M  V30 2503 O 245.36 -1.4583 3.74295 0
M  V30 2504 N 243.566 -0.444377 2.87182 0
M  V30 2505 H 243.113 0.388723 2.5465 0
M  V30 2506 H 243.071 -1.31213 2.85711 0
M  V30 2507 N 246.843 -1.10192 1.12674 0
M  V30 2508 C 247.79 -2.16606 0.796906 0
M  V30 2509 C 248.76 -1.64394 -0.237476 0
M  V30 2510 O 249.945 -1.90474 -0.111484 0
M  V30 2511 C 247.085 -3.44116 0.26043 0
M  V30 2512 C 246.198 -4.10268 1.35293 0
M  V30 2513 C 245.333 -5.25507 0.775621 0
M  V30 2514 C 244.372 -5.83567 1.84706 0
M  V30 2515 N 243.509 -6.90179 1.28829 0
M  V30 2516 H 248.349 -2.44163 1.70846 0
M  V30 2517 H 245.886 -1.19846 0.85295 0
M  V30 2518 H 247.844 -4.17143 -0.0686814 0
M  V30 2519 H 246.474 -3.16901 -0.614274 0
M  V30 2520 H 245.526 -3.35184 1.79877 0
M  V30 2521 H 246.838 -4.4946 2.16303 0
M  V30 2522 H 245.992 -6.05398 0.397327 0
M  V30 2523 H 244.731 -4.87656 -0.0656581 0
M  V30 2524 H 243.736 -5.02344 2.23452 0
M  V30 2525 H 244.961 -6.23482 2.69161 0
M  V30 2526 H 242.907 -6.54322 0.468881 0
M  V30 2527 H 242.824 -7.28097 2.03497 0
M  V30 2528 H 244.092 -7.73844 0.937311 0
M  V30 2529 N 248.321 -0.919034 -1.28029 0
M  V30 2530 C 249.269 -0.401753 -2.29104 0
M  V30 2531 C 250.263 0.509354 -1.61561 0
M  V30 2532 O 251.469 0.390014 -1.75724 0
M  V30 2533 H 247.844 -0.111331 -0.743713 0
M  V30 2534 H 249.815 -1.2672 -2.70156 0
M  V30 2535 C 248.564 0.338148 -3.46052 0
M  V30 2536 H 247.887 -0.353732 -3.98232 0
M  V30 2537 H 249.327 0.664653 -4.18758 0
M  V30 2538 C 247.786 1.54798 -2.99231 0
M  V30 2539 O 248.316 2.64696 -3.02157 0
M  V30 2540 N 246.522 1.3968 -2.54829 0
M  V30 2541 H 246.069 0.502698 -2.52647 0
M  V30 2542 H 246.027 2.20755 -2.23863 0
M  V30 2543 N 249.799 1.42003 -0.683588 0
M  V30 2544 C 251.048 2.00638 -0.206681 0
M  V30 2545 C 251.361 1.5472 1.19671 0
M  V30 2546 O 252.567 2.05833 1.77045 0
M  V30 2547 C 251.023 3.58487 -0.318632 0
M  V30 2548 C 250.631 4.1339 -1.72663 0
M  V30 2549 C 252.375 4.24384 0.0991141 0
M  V30 2550 C 250.282 5.63633 -1.79087 0
M  V30 2551 H 249.212 0.750408 -0.0735107 0
M  V30 2552 H 251.863 1.62624 -0.850048 0
M  V30 2553 H 250.245 3.94047 0.392781 0
M  V30 2554 H 251.419 3.89273 -2.46583 0
M  V30 2555 H 249.734 3.59976 -2.09299 0
M  V30 2556 H 252.331 5.34652 0.0713833 0
M  V30 2557 H 252.674 4.00505 1.13586 0
M  V30 2558 H 253.207 3.93816 -0.561599 0
M  V30 2559 H 249.946 5.92323 -2.80774 0
M  V30 2560 H 249.466 5.89714 -1.09535 0
M  V30 2561 H 251.145 6.28201 -1.5483 0
M  V30 2562 N 251.277 0.427512 1.51691 0
M  V30 2563 C 252.525 -0.141948 2.01601 0
M  V30 2564 C 252.846 -1.44067 1.31414 0
M  V30 2565 O 252.116 -1.90763 0.445658 0
M  V30 2566 H 250.696 -0.0554468 0.744939 0
M  V30 2567 H 253.358 0.567968 1.86441 0
M  V30 2568 H 252.454 -0.324913 3.10404 0
M  V30 2569 N 252.755 -1.56801 0.158532 0
M  V30 2570 C 254.001 -1.96781 -0.490405 0
M  V30 2571 C 254.334 -1.04397 -1.63753 0
M  V30 2572 O 253.609 -0.0885805 -1.94298 0
M  V30 2573 C 253.892 -3.4635 -0.985594 0
M  V30 2574 C 253.745 -4.49512 0.160824 0
M  V30 2575 C 255.064 -3.98697 -1.86355 0
M  V30 2576 H 252.183 -0.715482 -0.176788 0
M  V30 2577 H 254.825 -1.88451 0.242088 0
M  V30 2578 H 252.975 -3.53579 -1.60978 0
M  V30 2579 H 254.647 -4.54353 0.797537 0
M  V30 2580 H 252.89 -4.26013 0.818256 0
M  V30 2581 H 253.561 -5.51531 -0.227569 0
M  V30 2582 H 256.037 -3.94019 -1.33746 0
M  V30 2583 H 254.913 -5.03792 -2.17909 0
M  V30 2584 H 255.174 -3.41744 -2.8047 0
M  V30 2585 N 254.233 0.115231 -1.57178 0
M  V30 2586 C 255.143 1.15994 -2.03918 0
M  V30 2587 C 256.159 1.45103 -0.960268 0
M  V30 2588 O 257.335 1.56144 -1.27204 0
M  V30 2589 C 254.4 2.46568 -2.43732 0
M  V30 2590 C 253.461 2.24822 -3.65723 0
M  V30 2591 C 252.694 3.4917 -4.03629 0
M  V30 2592 O 252.917 4.56623 -3.41835 0
M  V30 2593 O 251.851 3.39949 -4.96708 0
M  V30 2594 H 255.677 0.793019 -2.93164 0
M  V30 2595 H 253.262 0.3263 -1.45793 0
M  V30 2596 H 255.144 3.23492 -2.70057 0
M  V30 2597 H 253.819 2.82726 -1.57631 0
M  V30 2598 H 252.726 1.45744 -3.44542 0
M  V30 2599 H 254.059 1.93566 -4.52541 0
M  V30 2600 N 255.711 1.52812 0.385517 0
M  V30 2601 C 256.959 1.67694 1.12797 0
M  V30 2602 C 257.28 0.421115 1.90399 0
M  V30 2603 O 256.55 -0.564551 1.87589 0
M  V30 2604 H 255.13 0.618155 0.419396 0
M  V30 2605 H 257.792 1.89938 0.436972 0
M  V30 2606 H 256.888 2.52896 1.82894 0
M  V30 2607 N 257.189 -0.644168 1.43834 0
M  V30 2608 C 258.437 -1.40117 1.45642 0
M  V30 2609 C 258.758 -1.94814 0.0852413 0
M  V30 2610 O 258.028 -1.74988 -0.880688 0
M  V30 2611 H 256.608 -0.52005 0.536243 0
M  V30 2612 H 259.27 -0.7591 1.7951 0
M  V30 2613 H 258.366 -2.23902 2.17427 0
M  V30 2614 N 258.668 -1.30515 -0.883378 0
M  V30 2615 C 259.917 -1.18795 -1.63005 0
M  V30 2616 C 260.23 0.255923 -1.93919 0
M  V30 2617 O 261.436 0.494654 -2.66956 0
M  V30 2618 C 259.892 -2.07878 -2.93794 0
M  V30 2619 C 259.5 -3.57184 -2.70414 0
M  V30 2620 C 261.244 -2.04924 -3.71761 0
M  V30 2621 C 259.151 -4.38317 -3.97029 0
M  V30 2622 H 258.081 -0.441031 -0.611562 0
M  V30 2623 H 260.732 -1.55275 -0.977854 0
M  V30 2624 H 259.114 -1.64283 -3.60315 0
M  V30 2625 H 260.288 -4.08937 -2.12384 0
M  V30 2626 H 258.603 -3.61976 -2.0582 0
M  V30 2627 H 261.2 -2.62792 -4.65665 0
M  V30 2628 H 261.543 -1.0331 -4.03277 0
M  V30 2629 H 262.076 -2.46649 -3.12104 0
M  V30 2630 H 258.815 -5.40632 -3.70671 0
M  V30 2631 H 258.335 -3.91326 -4.54559 0
M  V30 2632 H 260.014 -4.49834 -4.65036 0
M  V30 2633 N 260.146 1.09593 -1.13257 0
M  V30 2634 C 261.371 1.8604 -0.916732 0
M  V30 2635 C 261.796 1.80504 0.529146 0
M  V30 2636 O 261.154 1.18127 1.37534 0
M  V30 2637 C 261.202 3.32017 -1.40703 0
M  V30 2638 O 260.306 4.08141 -0.591153 0
M  V30 2639 H 259.647 0.576943 -0.328683 0
M  V30 2640 H 262.177 1.38405 -1.50682 0
M  V30 2641 H 262.187 3.82865 -1.4099 0
M  V30 2642 H 260.862 3.35361 -2.45979 0
M  V30 2643 H 259.439 3.67084 -0.656005 0
M  V30 2644 N 261.624 0.925811 1.2754 0
M  V30 2645 C 262.873 0.561084 1.93739 0
M  V30 2646 C 263.186 -0.901685 1.73577 0
M  V30 2647 O 264.392 -1.37511 2.34101 0
M  V30 2648 C 262.848 0.952668 3.47062 0
M  V30 2649 C 262.456 2.43599 3.75983 0
M  V30 2650 C 264.2 0.659103 4.19352 0
M  V30 2651 C 262.107 2.76707 5.22673 0
M  V30 2652 H 261.037 0.206122 0.725279 0
M  V30 2653 H 263.688 1.12637 1.44863 0
M  V30 2654 H 262.07 0.316053 3.94737 0
M  V30 2655 H 263.244 3.12035 3.39073 0
M  V30 2656 H 261.559 2.70125 3.16893 0
M  V30 2657 H 264.156 0.882985 5.27359 0
M  V30 2658 H 264.499 -0.403607 4.14339 0
M  V30 2659 H 265.032 1.25473 3.77494 0
M  V30 2660 H 261.771 3.8188 5.32774 0
M  V30 2661 H 261.291 2.12919 5.60737 0
M  V30 2662 H 262.97 2.6435 5.90532 0
M  V30 2663 N 263.102 -1.41638 0.69111 0
M  V30 2664 C 264.351 -2.00526 0.217318 0
M  V30 2665 C 264.664 -1.55353 -1.18848 0
M  V30 2666 O 265.87 -2.06769 -1.75951 0
M  V30 2667 C 264.326 -3.58313 0.337639 0
M  V30 2668 C 263.934 -4.12469 1.74852 0
M  V30 2669 C 265.678 -4.24431 -0.0766066 0
M  V30 2670 C 263.585 -5.62675 1.82074 0
M  V30 2671 H 262.515 -0.750008 0.0774893 0
M  V30 2672 H 265.166 -1.6217 0.858661 0
M  V30 2673 H 263.548 -3.9425 -0.371879 0
M  V30 2674 H 264.722 -3.8796 2.48644 0
M  V30 2675 H 263.037 -3.58861 2.11205 0
M  V30 2676 H 265.634 -5.34683 -0.0430284 0
M  V30 2677 H 265.977 -4.01101 -1.1146 0
M  V30 2678 H 266.51 -3.93512 0.582476 0
M  V30 2679 H 263.249 -5.90826 2.83911 0
M  V30 2680 H 262.769 -5.89124 1.12661 0
M  V30 2681 H 264.448 -6.27371 1.58159 0
M  V30 2682 N 264.58 -0.43555 -1.51462 0
M  V30 2683 C 265.828 0.131254 -2.01673 0
M  V30 2684 C 266.149 1.43368 -1.32177 0
M  V30 2685 O 265.419 1.90524 -0.455769 0
M  V30 2686 H 263.999 0.0514954 -0.745223 0
M  V30 2687 H 266.661 -0.577847 -1.86137 0
M  V30 2688 H 265.757 0.308446 -3.10572 0
M  V30 2689 N 266.058 1.56714 -0.166846 0
M  V30 2690 C 267.286 2.0112 0.485644 0
M  V30 2691 C 267.701 1.04705 1.57106 0
M  V30 2692 O 267.058 0.0471923 1.82439 0
M  V30 2693 C 267.109 3.45361 1.06808 0
M  V30 2694 O 266.83 4.38092 0.0259995 0
M  V30 2695 C 268.331 4.05145 1.79924 0
M  V30 2696 H 265.551 0.65931 0.124704 0
M  V30 2697 H 268.095 2.02746 -0.267262 0
M  V30 2698 H 266.25 3.44524 1.7715 0
M  V30 2699 H 266.664 5.22519 0.455398 0
M  V30 2700 H 268.138 5.08009 2.15942 0
M  V30 2701 H 268.615 3.46982 2.69258 0
M  V30 2702 H 269.221 4.09672 1.14234 0
M  V30 2703 N 267.536 -0.106894 1.57237 0
M  V30 2704 C 268.483 -1.13049 2.01217 0
M  V30 2705 C 269.453 -1.40471 0.886403 0
M  V30 2706 O 270.638 -1.52133 1.15153 0
M  V30 2707 C 267.778 -2.4487 2.43172 0
M  V30 2708 C 266.891 -2.24281 3.69218 0
M  V30 2709 C 266.026 -3.49417 4.00101 0
M  V30 2710 C 265.065 -3.24038 5.19294 0
M  V30 2711 N 264.202 -4.41409 5.45988 0
M  V30 2712 H 269.042 -0.748456 2.88448 0
M  V30 2713 H 266.579 -0.358054 1.42676 0
M  V30 2714 H 268.537 -3.21786 2.65537 0
M  V30 2715 H 267.167 -2.80944 1.58967 0
M  V30 2716 H 266.219 -1.38224 3.54398 0
M  V30 2717 H 267.531 -2.01512 4.56283 0
M  V30 2718 H 266.685 -4.34746 4.2318 0
M  V30 2719 H 265.424 -3.75229 3.11535 0
M  V30 2720 H 264.429 -2.37102 4.96047 0
M  V30 2721 H 265.654 -2.99584 6.09447 0
M  V30 2722 H 263.6 -4.67319 4.60379 0
M  V30 2723 H 263.517 -4.21788 6.274 0
M  V30 2724 H 264.785 -5.27836 5.73593 0
M  V30 2725 N 269.014 -1.53014 -0.377408 0
M  V30 2726 C 270.262 -1.6829 -1.11906 0
M  V30 2727 C 270.583 -0.431206 -1.90173 0
M  V30 2728 O 269.853 0.554595 -1.87886 0
M  V30 2729 H 268.433 -0.620371 -0.416112 0
M  V30 2730 H 271.095 -1.90167 -0.426893 0
M  V30 2731 H 270.191 -2.53862 -1.8155 0
M  V30 2732 N 270.492 0.636531 -1.44174 0
M  V30 2733 C 271.741 1.39213 -1.45954 0
M  V30 2734 C 272.054 1.95374 -0.0939119 0
M  V30 2735 O 273.26 2.71498 0.0107767 0
M  V30 2736 C 271.716 2.52025 -2.56927 0
M  V30 2737 C 271.324 2.024 -3.99673 0
M  V30 2738 C 273.068 3.29269 -2.67922 0
M  V30 2739 C 270.975 3.12521 -5.0208 0
M  V30 2740 H 269.905 0.523132 -0.542999 0
M  V30 2741 H 272.556 0.685349 -1.70221 0
M  V30 2742 H 270.938 3.25253 -2.25891 0
M  V30 2743 H 272.112 1.36073 -4.40251 0
M  V30 2744 H 270.427 1.37987 -3.92872 0
M  V30 2745 H 273.024 4.11352 -3.41605 0
M  V30 2746 H 273.367 3.78397 -1.73555 0
M  V30 2747 H 273.9 2.63129 -2.98342 0
M  V30 2748 H 270.639 2.68343 -5.98057 0
M  V30 2749 H 270.159 3.77507 -4.66099 0
M  V30 2750 H 271.838 3.77385 -5.25538 0
M  V30 2751 N 271.97 1.30982 0.876444 0
M  V30 2752 C 273.216 1.20474 1.63138 0
M  V30 2753 C 273.549 -0.238096 1.92735 0
M  V30 2754 O 272.824 -1.1692 1.55435 0
M  V30 2755 C 273.107 2.04244 2.96574 0
M  V30 2756 C 272.96 3.56793 2.73896 0
M  V30 2757 C 274.279 1.88684 3.97601 0
M  V30 2758 H 271.398 0.439001 0.591985 0
M  V30 2759 H 274.04 1.60704 1.01361 0
M  V30 2760 H 272.19 1.70063 3.493 0
M  V30 2761 H 273.862 4.01077 2.27892 0
M  V30 2762 H 272.105 3.80548 2.08245 0
M  V30 2763 H 272.776 4.10706 3.68815 0
M  V30 2764 H 275.252 2.18584 3.54062 0
M  V30 2765 H 274.128 2.4961 4.88862 0
M  V30 2766 H 274.389 0.848343 4.33884 0
M  V30 2767 N 273.449 -1.08991 1.13837 0
M  V30 2768 C 274.679 -1.84743 0.924859 0
M  V30 2769 C 275.087 -1.81629 -0.529874 0
M  V30 2770 O 274.43 -1.21397 -1.37872 0
M  V30 2771 C 274.492 -3.33568 1.34061 0
M  V30 2772 C 274.156 -3.60425 2.80968 0
M  V30 2773 C 275.153 -3.55771 3.79108 0
M  V30 2774 C 272.838 -3.88627 3.18236 0
M  V30 2775 C 274.832 -3.78939 5.12527 0
M  V30 2776 C 272.519 -4.11449 4.51833 0
M  V30 2777 C 273.517 -4.06598 5.48787 0
M  V30 2778 O 273.205 -4.28826 6.79973 0
M  V30 2779 H 272.937 -0.590258 0.329502 0
M  V30 2780 H 275.491 -1.38598 1.51591 0
M  V30 2781 H 273.721 -3.80442 0.692853 0
M  V30 2782 H 275.41 -3.90743 1.09886 0
M  V30 2783 H 276.176 -3.34005 3.51661 0
M  V30 2784 H 272.055 -3.91526 2.43369 0
M  V30 2785 H 275.599 -3.75068 5.88192 0
M  V30 2786 H 271.496 -4.32698 4.79002 0
M  V30 2787 H 272.264 -4.46264 6.86142 0
M  V30 2788 N 274.927 -0.932562 -1.27047 0
M  V30 2789 C 276.338 -0.619451 -1.76124 0
M  V30 2790 C 276.689 0.865397 -1.76083 0
M  V30 2791 O 275.814 1.67722 -1.36742 0
M  V30 2792 C 276.409 -1.11771 -3.19832 0
M  V30 2793 C 274.968 -0.855174 -3.66557 0
M  V30 2794 C 274.115 -1.27362 -2.46321 0
M  V30 2795 H 277.066 -1.11181 -1.13245 0
M  V30 2796 H 277.087 -0.46759 -3.77616 0
M  V30 2797 H 276.599 -2.19842 -3.1983 0
M  V30 2798 H 274.7 0.211524 -3.71999 0
M  V30 2799 H 274.813 -1.47613 -4.55793 0
M  V30 2800 H 273.177 -0.692119 -2.45116 0
M  V30 2801 H 273.96 -2.36307 -2.49025 0
M  V30 2802 N 276.405 1.4127 -0.698611 0
M  V30 2803 C 277.338 2.28195 0.0153898 0
M  V30 2804 C 278.316 1.42402 0.784883 0
M  V30 2805 O 279.5 1.71828 0.775067 0
M  V30 2806 C 276.627 3.22685 1.02918 0
M  V30 2807 C 275.673 4.25041 0.352501 0
M  V30 2808 S 276.506 5.27757 -0.907322 0
M  V30 2809 C 277.662 6.25812 0.104796 0
M  V30 2810 H 277.895 2.88403 -0.721858 0
M  V30 2811 H 275.428 1.46452 -0.488996 0
M  V30 2812 H 277.386 3.77655 1.60893 0
M  V30 2813 H 276.047 2.61566 1.73902 0
M  V30 2814 H 275.24 4.91437 1.11828 0
M  V30 2815 H 274.842 3.73682 -0.154254 0
M  V30 2816 H 277.134 6.70705 0.957103 0
M  V30 2817 H 278.077 7.06149 -0.525323 0
M  V30 2818 H 278.485 5.62615 0.460931 0
M  V30 2819 N 277.883 0.443576 1.51229 0
M  V30 2820 C 279.108 -0.121648 2.07043 0
M  V30 2821 C 279.533 -1.35156 1.30823 0
M  V30 2822 O 278.891 -1.7793 0.347934 0
M  V30 2823 C 278.939 -0.41624 3.5819 0
M  V30 2824 O 278.043 -1.50163 3.8409 0
M  V30 2825 H 277.384 0.000871367 0.663999 0
M  V30 2826 H 279.914 0.626706 1.94765 0
M  V30 2827 H 279.924 -0.664867 4.02546 0
M  V30 2828 H 278.599 0.482653 4.1309 0
M  V30 2829 H 277.176 -1.24248 3.51592 0
M  V30 2830 N 279.361 -1.56624 0.175154 0
M  V30 2831 C 280.271 -2.21741 -0.766042 0
M  V30 2832 C 281.287 -1.21023 -1.25018 0
M  V30 2833 O 282.463 -1.53697 -1.3015 0
M  V30 2834 C 279.528 -2.84839 -1.97655 0
M  V30 2835 C 278.589 -4.00769 -1.53892 0
M  V30 2836 C 277.822 -4.60849 -2.69173 0
M  V30 2837 O 278.045 -4.19823 -3.86141 0
M  V30 2838 O 276.979 -5.50655 -2.43028 0
M  V30 2839 H 280.805 -3.02738 -0.241585 0
M  V30 2840 H 278.39 -1.49305 -0.053222 0
M  V30 2841 H 280.272 -3.24834 -2.68442 0
M  V30 2842 H 278.947 -2.06836 -2.48999 0
M  V30 2843 H 277.854 -3.65436 -0.80044 0
M  V30 2844 H 279.187 -4.80376 -1.07236 0
M  V30 2845 N 280.839 0.0985539 -1.57292 0
M  V30 2846 C 282.116 0.834155 -1.76921 0
M  V30 2847 C 282.496 1.97101 -0.755928 0
M  V30 2848 O 281.844 2.27474 0.216245 0
M  V30 2849 C 282.054 1.33194 -3.22584 0
M  V30 2850 C 283.402 1.77611 -3.85668 0
M  V30 2851 O 284.426 1.42825 -3.26312 0
M  V30 2852 O 283.285 2.4192 -4.90038 0
M  V30 2853 H 280.379 0.397628 -0.725135 0
M  V30 2854 H 282.925 0.0807044 -1.69508 0
M  V30 2855 H 281.697 0.517248 -3.87866 0
M  V30 2856 H 281.32 2.1475 -3.34616 0
M  V30 2857 N 282.317 1.53212 0.369288 0
M  V30 2858 C 283.28 1.7872 1.43498 0
M  V30 2859 C 284.28 0.657554 1.46741 0
M  V30 2860 O 285.47 0.925736 1.47566 0
M  V30 2861 C 282.602 1.90591 2.82645 0
M  V30 2862 H 283.795 2.73894 1.22156 0
M  V30 2863 H 281.348 1.44233 0.602203 0
M  V30 2864 H 282.083 0.974709 3.09306 0
M  V30 2865 H 281.868 2.72751 2.8169 0
M  V30 2866 H 283.358 2.11931 3.59826 0
M  V30 2867 N 283.795 -0.628877 1.44509 0
M  V30 2868 C 285.044 -1.38437 1.4669 0
M  V30 2869 C 285.357 -1.95322 0.104272 0
M  V30 2870 O 286.563 -2.715 0.00362163 0
M  V30 2871 C 285.019 -2.50659 2.5826 0
M  V30 2872 C 284.627 -2.00277 4.0074 0
M  V30 2873 C 286.371 -3.27844 2.69664 0
M  V30 2874 C 284.278 -3.09854 5.0373 0
M  V30 2875 H 283.208 -0.520245 0.545766 0
M  V30 2876 H 285.859 -0.676313 1.70582 0
M  V30 2877 H 284.241 -3.2405 2.27612 0
M  V30 2878 H 285.415 -1.33736 4.40966 0
M  V30 2879 H 283.73 -1.35901 3.93599 0
M  V30 2880 H 286.327 -4.09534 3.43781 0
M  V30 2881 H 286.67 -3.77471 1.75559 0
M  V30 2882 H 287.203 -2.61543 2.99733 0
M  V30 2883 H 283.942 -2.65168 5.99472 0
M  V30 2884 H 283.462 -3.7503 4.68095 0
M  V30 2885 H 285.141 -3.74592 5.27532 0
M  V30 2886 N 285.273 -1.31445 -0.869486 0
M  V30 2887 C 286.22 -1.19135 -1.97675 0
M  V30 2888 C 287.19 -0.0770266 -1.65921 0
M  V30 2889 O 288.375 -0.249972 -1.89155 0
M  V30 2890 C 285.515 -0.905149 -3.33018 0
M  V30 2891 C 284.628 -2.10285 -3.77365 0
M  V30 2892 C 283.763 -1.75339 -5.01427 0
M  V30 2893 C 282.802 -2.91515 -5.38224 0
M  V30 2894 N 281.939 -2.56762 -6.53466 0
M  V30 2895 H 286.779 -2.13853 -2.07535 0
M  V30 2896 H 284.316 -1.06379 -1.01597 0
M  V30 2897 H 286.274 -0.719765 -4.10944 0
M  V30 2898 H 284.904 0.00519624 -3.228 0
M  V30 2899 H 283.956 -2.39899 -2.95216 0
M  V30 2900 H 285.268 -2.97237 -4.00564 0
M  V30 2901 H 284.422 -1.53266 -5.87022 0
M  V30 2902 H 283.161 -0.855801 -4.80133 0
M  V30 2903 H 282.166 -3.14237 -4.51149 0
M  V30 2904 H 283.391 -3.81985 -5.61484 0
M  V30 2905 H 281.337 -1.69526 -6.33717 0
M  V30 2906 H 281.254 -3.37243 -6.76612 0
M  V30 2907 H 282.522 -2.38083 -7.42251 0
M  V30 2908 N 286.751 1.08385 -1.14413 0
M  V30 2909 C 287.698 2.15311 -0.831265 0
M  V30 2910 C 288.668 1.64751 0.211292 0
M  V30 2911 O 289.853 1.90627 0.0811674 0
M  V30 2912 C 286.993 3.43658 -0.315143 0
M  V30 2913 C 286.106 4.08064 -1.41802 0
M  V30 2914 C 285.241 5.24207 -0.859126 0
M  V30 2915 C 284.28 5.80554 -1.93967 0
M  V30 2916 N 283.417 6.88042 -1.39793 0
M  V30 2917 H 288.257 2.41415 -1.74708 0
M  V30 2918 H 285.794 1.18474 -0.871909 0
M  V30 2919 H 287.752 4.172 0.00230884 0
M  V30 2920 H 286.382 3.17839 0.56378 0
M  V30 2921 H 285.434 3.3228 -1.85187 0
M  V30 2922 H 286.746 4.45962 -2.23427 0
M  V30 2923 H 285.9 6.04689 -0.49359 0
M  V30 2924 H 284.639 4.87699 -0.011932 0
M  V30 2925 H 283.644 4.98725 -2.31415 0
M  V30 2926 H 284.869 6.19121 -2.79046 0
M  V30 2927 H 282.815 6.53493 -0.572919 0
M  V30 2928 H 282.732 7.24767 -2.15054 0
M  V30 2929 H 284 7.72255 -1.0603 0
M  V30 2930 N 288.23 0.939286 1.26551 0
M  V30 2931 C 289.458 0.602536 1.97932 0
M  V30 2932 C 289.873 -0.82206 1.69964 0
M  V30 2933 O 289.23 -1.54789 0.966784 0
M  V30 2934 C 289.281 0.832946 3.51773 0
M  V30 2935 O 289.002 2.20151 3.78768 0
M  V30 2936 C 290.503 0.506483 4.40397 0
M  V30 2937 H 287.723 0.227248 0.631347 0
M  V30 2938 H 290.267 1.25948 1.61113 0
M  V30 2939 H 288.422 0.222644 3.8676 0
M  V30 2940 H 288.836 2.26013 4.73306 0
M  V30 2941 H 290.31 0.718333 5.47306 0
M  V30 2942 H 290.787 -0.558451 4.35635 0
M  V30 2943 H 291.393 1.09543 4.10951 0
M  V30 2944 N 289.708 -1.40897 0.706093 0
M  V30 2945 C 290.957 -2.00284 0.238574 0
M  V30 2946 C 291.27 -1.56604 -1.17194 0
M  V30 2947 O 292.476 -2.08624 -1.73748 0
M  V30 2948 C 290.932 -3.57934 0.375623 0
M  V30 2949 C 290.54 -4.10591 1.79217 0
M  V30 2950 C 292.284 -4.24488 -0.0315857 0
M  V30 2951 C 290.191 -5.60712 1.88032 0
M  V30 2952 H 289.121 -0.749144 0.0854398 0
M  V30 2953 H 291.772 -1.61251 0.875813 0
M  V30 2954 H 290.154 -3.94622 -0.330042 0
M  V30 2955 H 291.328 -3.85301 2.52745 0
M  V30 2956 H 289.643 -3.56601 2.15 0
M  V30 2957 H 292.24 -5.34698 0.0136842 0
M  V30 2958 H 292.583 -4.02261 -1.072 0
M  V30 2959 H 293.116 -3.92873 0.624181 0
M  V30 2960 H 289.855 -5.87781 2.90161 0
M  V30 2961 H 289.375 -5.87896 1.18903 0
M  V30 2962 H 291.054 -6.25658 1.64805 0
M  V30 2963 N 291.186 -0.45159 -1.50991 0
M  V30 2964 C 292.416 0.108177 -2.06317 0
M  V30 2965 C 292.824 1.35774 -1.31765 0
M  V30 2966 O 292.167 1.79838 -0.374694 0
M  V30 2967 C 292.229 0.481659 -3.56259 0
M  V30 2968 C 291.893 -0.663114 -4.52163 0
M  V30 2969 C 292.89 -1.53947 -4.96585 0
M  V30 2970 C 290.575 -0.8479 -4.95092 0
M  V30 2971 C 292.569 -2.58518 -5.82621 0
M  V30 2972 C 290.256 -1.89686 -5.80915 0
M  V30 2973 C 291.254 -2.76388 -6.24579 0
M  V30 2974 O 290.942 -3.79482 -7.08695 0
M  V30 2975 H 290.674 0.00499183 -0.675982 0
M  V30 2976 H 293.228 -0.633659 -1.95381 0
M  V30 2977 H 291.458 1.27641 -3.65027 0
M  V30 2978 H 293.147 0.974233 -3.94035 0
M  V30 2979 H 293.913 -1.4083 -4.64103 0
M  V30 2980 H 289.792 -0.18258 -4.60638 0
M  V30 2981 H 293.336 -3.26224 -6.16623 0
M  V30 2982 H 289.233 -2.02817 -6.12809 0
M  V30 2983 H 290.001 -3.76234 -7.26905 0
M  V30 2984 N 292.664 1.56529 -0.183458 0
M  V30 2985 C 293.594 2.21549 0.737456 0
M  V30 2986 C 294.575 1.17489 1.23005 0
M  V30 2987 O 295.76 1.45959 1.281 0
M  V30 2988 C 292.89 2.86575 1.96194 0
M  V30 2989 C 291.844 3.96778 1.60473 0
M  V30 2990 C 291.17 4.48911 2.90487 0
M  V30 2991 C 292.47 5.15767 0.823497 0
M  V30 2992 H 294.164 2.98761 0.195453 0
M  V30 2993 H 291.71 1.43702 0.0925686 0
M  V30 2994 H 293.663 3.30739 2.61131 0
M  V30 2995 H 292.387 2.06749 2.52828 0
M  V30 2996 H 291.046 3.53286 0.978997 0
M  V30 2997 H 290.694 3.65862 3.45186 0
M  V30 2998 H 290.394 5.23265 2.67335 0
M  V30 2999 H 291.918 4.95771 3.56432 0
M  V30 3000 H 293.332 5.56549 1.37571 0
M  V30 3001 H 291.729 5.96114 0.690551 0
M  V30 3002 H 292.799 4.84574 -0.177782 0
M  V30 3003 N 294.142 -0.090211 1.57342 0
M  V30 3004 C 295.052 -1.12735 2.05738 0
M  V30 3005 C 296.068 -1.43557 0.983231 0
M  V30 3006 O 297.244 -1.54101 1.29672 0
M  V30 3007 C 294.309 -2.42659 2.47624 0
M  V30 3008 C 293.37 -2.18975 3.69254 0
M  V30 3009 C 292.603 -3.42704 4.09133 0
M  V30 3010 O 292.826 -4.51127 3.49057 0
M  V30 3011 O 291.76 -3.32003 5.02053 0
M  V30 3012 H 295.586 -0.746279 2.94388 0
M  V30 3013 H 293.171 -0.303064 1.46294 0
M  V30 3014 H 295.053 -3.19155 2.7517 0
M  V30 3015 H 293.728 -2.80182 1.62109 0
M  V30 3016 H 292.635 -1.40244 3.46818 0
M  V30 3017 H 293.968 -1.86342 4.55563 0
M  V30 3018 N 295.62 -1.53406 -0.361157 0
M  V30 3019 C 296.869 -1.69022 -1.10066 0
M  V30 3020 C 297.182 -0.450838 -1.90333 0
M  V30 3021 O 298.388 -0.487617 -2.67085 0
M  V30 3022 C 296.844 -2.98812 -2.00598 0
M  V30 3023 C 296.452 -4.30027 -1.25621 0
M  V30 3024 C 298.196 -3.23795 -2.74513 0
M  V30 3025 C 296.103 -5.50903 -2.1508 0
M  V30 3026 H 295.033 -0.629776 -0.414606 0
M  V30 3027 H 297.684 -1.79907 -0.361348 0
M  V30 3028 H 296.066 -2.8174 -2.78278 0
M  V30 3029 H 297.24 -4.57745 -0.529739 0
M  V30 3030 H 295.555 -4.11522 -0.635496 0
M  V30 3031 H 298.152 -4.11289 -3.41681 0
M  V30 3032 H 298.495 -2.40045 -3.40123 0
M  V30 3033 H 299.028 -3.41561 -2.03914 0
M  V30 3034 H 295.767 -6.37143 -1.54041 0
M  V30 3035 H 295.287 -5.27459 -2.85565 0
M  V30 3036 H 296.966 -5.85865 -2.74538 0
M  V30 3037 N 297.098 0.621204 -1.44841 0
M  V30 3038 C 298.375 1.38 -1.38619 0
M  V30 3039 C 298.755 2.11041 -0.0498935 0
M  V30 3040 O 298.103 2.06992 0.967816 0
M  V30 3041 C 298.313 2.33817 -2.59096 0
M  V30 3042 C 299.661 2.96844 -3.03593 0
M  V30 3043 O 300.685 2.44141 -2.59371 0
M  V30 3044 O 299.544 3.92476 -3.80296 0
M  V30 3045 H 296.638 0.61811 -0.549426 0
M  V30 3046 H 299.184 0.645429 -1.56947 0
M  V30 3047 H 297.956 1.79012 -3.47952 0
M  V30 3048 H 297.579 3.14676 -2.43032 0
M  V30 3049 N 298.576 1.31904 0.862503 0
M  V30 3050 C 299.824 1.21776 1.61292 0
M  V30 3051 C 300.145 -0.222413 1.93727 0
M  V30 3052 O 299.415 -1.1451 1.58947 0
M  V30 3053 H 297.995 0.447717 0.597962 0
M  V30 3054 H 300.657 1.65326 1.03215 0
M  V30 3055 H 299.753 1.7948 2.5533 0
M  V30 3056 N 300.054 -1.07777 1.14986 0
M  V30 3057 C 301.303 -1.79669 0.916617 0
M  V30 3058 C 301.616 -1.87474 -0.557917 0
M  V30 3059 O 302.822 -2.55845 -0.908617 0
M  V30 3060 C 301.278 -3.22848 1.59051 0
M  V30 3061 C 300.886 -3.23257 3.10176 0
M  V30 3062 C 302.63 -3.99379 1.43864 0
M  V30 3063 C 300.537 -4.61063 3.70372 0
M  V30 3064 H 299.467 -0.673349 0.33929 0
M  V30 3065 H 302.118 -1.21003 1.37951 0
M  V30 3066 H 300.5 -3.8168 1.0553 0
M  V30 3067 H 301.674 -2.74095 3.70417 0
M  V30 3068 H 299.989 -2.60222 3.25074 0
M  V30 3069 H 302.586 -5.0122 1.86232 0
M  V30 3070 H 302.929 -4.14511 0.385564 0
M  V30 3071 H 303.462 -3.47032 1.94457 0
M  V30 3072 H 300.201 -4.51135 4.7556 0
M  V30 3073 H 299.721 -5.1048 3.14913 0
M  V30 3074 H 301.4 -5.30034 3.71043 0
M  V30 3075 N 301.532 -0.945985 -1.26051 0
M  V30 3076 C 302.462 -0.477172 -2.28572 0
M  V30 3077 C 303.443 0.472032 -1.63419 0
M  V30 3078 O 304.628 0.372853 -1.90587 0
M  V30 3079 C 301.758 0.253975 -3.4637 0
M  V30 3080 C 300.712 -0.609135 -4.23643 0
M  V30 3081 C 300.038 0.252252 -5.34105 0
M  V30 3082 C 301.338 -1.8829 -4.8718 0
M  V30 3083 H 303.032 -1.33402 -2.68038 0
M  V30 3084 H 300.578 -0.642904 -1.28852 0
M  V30 3085 H 302.531 0.593016 -4.17207 0
M  V30 3086 H 301.255 1.145 -3.05871 0
M  V30 3087 H 299.914 -0.931138 -3.54578 0
M  V30 3088 H 299.562 1.14278 -4.89846 0
M  V30 3089 H 299.262 -0.32188 -5.86718 0
M  V30 3090 H 300.786 0.586454 -6.07777 0
M  V30 3091 H 302.2 -1.61081 -5.50205 0
M  V30 3092 H 300.597 -2.40199 -5.49931 0
M  V30 3093 H 301.667 -2.59134 -4.09851 0
M  V30 3094 N 303.011 1.40521 -0.713556 0
M  V30 3095 C 303.943 2.29191 -0.0203126 0
M  V30 3096 C 304.956 1.45723 0.725864 0
M  V30 3097 O 306.145 1.69033 0.573581 0
M  V30 3098 C 303.245 3.2395 0.995486 0
M  V30 3099 C 302.418 4.36262 0.315256 0
M  V30 3100 C 301.477 5.11474 1.23616 0
M  V30 3101 O 300.503 5.64606 0.721719 0
M  V30 3102 N 301.705 5.20638 2.56743 0
M  V30 3103 H 304.47 2.89327 -0.781652 0
M  V30 3104 H 302.031 1.51869 -0.561022 0
M  V30 3105 H 304.023 3.71137 1.61368 0
M  V30 3106 H 302.593 2.64995 1.6582 0
M  V30 3107 H 301.813 3.91228 -0.483106 0
M  V30 3108 H 303.101 5.08558 -0.157004 0
M  V30 3109 H 302.499 4.7895 3.01037 0
M  V30 3110 H 301.056 5.71339 3.13712 0
M  V30 3111 N 304.489 0.459591 1.5075 0
M  V30 3112 C 305.437 -0.354678 2.2988 0
M  V30 3113 C 306.431 -1.00086 1.36672 0
M  V30 3114 O 307.637 -0.933277 1.53915 0
M  V30 3115 H 304.012 -0.13321 0.740107 0
M  V30 3116 H 305.983 0.333269 2.96533 0
M  V30 3117 C 304.732 -1.43073 3.169 0
M  V30 3118 H 304.055 -0.942882 3.88523 0
M  V30 3119 H 305.495 -1.97328 3.75284 0
M  V30 3120 C 303.954 -2.42633 2.33732 0
M  V30 3121 O 304.484 -3.47658 2.01238 0
M  V30 3122 N 302.69 -2.14066 1.9653 0
M  V30 3123 H 302.237 -1.28685 2.23155 0
M  V30 3124 H 302.195 -2.80917 1.41185 0
M  V30 3125 N 305.967 -1.56429 0.191757 0
M  V30 3126 C 307.192 -2.02309 -0.456706 0
M  V30 3127 C 307.617 -1.07103 -1.5463 0
M  V30 3128 O 306.975 -0.0539677 -1.8122 0
M  V30 3129 C 307.023 -3.46654 -0.993159 0
M  V30 3130 O 306.127 -3.54559 -2.10622 0
M  V30 3131 H 305.468 -0.655303 -0.107114 0
M  V30 3132 H 307.998 -2.02364 0.301653 0
M  V30 3133 H 308.008 -3.86377 -1.31061 0
M  V30 3134 H 306.683 -4.1544 -0.195504 0
M  V30 3135 H 305.26 -3.26708 -1.79767 0
M  V30 3136 N 307.445 0.0818655 -1.57387 0
M  V30 3137 C 308.355 1.11642 -2.06333 0
M  V30 3138 C 309.371 1.43033 -0.99083 0
M  V30 3139 O 310.547 1.53411 -1.30488 0
M  V30 3140 C 307.612 2.41342 -2.48907 0
M  V30 3141 C 306.673 2.17014 -3.7041 0
M  V30 3142 C 305.906 3.4053 -4.10944 0
M  V30 3143 O 306.129 4.4927 -3.51444 0
M  V30 3144 O 305.063 3.29336 -5.03807 0
M  V30 3145 H 308.889 0.730657 -2.9478 0
M  V30 3146 H 306.474 0.295301 -1.46452 0
M  V30 3147 H 308.356 3.17691 -2.76858 0
M  V30 3148 H 307.031 2.79319 -1.63593 0
M  V30 3149 H 305.938 1.38403 -3.47556 0
M  V30 3150 H 307.271 1.83923 -4.56545 0
M  V30 3151 N 308.923 1.53595 0.353017 0
M  V30 3152 C 309.87 1.80919 1.43308 0
M  V30 3153 C 310.84 0.654288 1.5267 0
M  V30 3154 O 312.025 0.897759 1.6836 0
M  V30 3155 C 309.165 2.01605 2.80089 0
M  V30 3156 C 308.278 3.29321 2.79593 0
M  V30 3157 C 307.413 3.40125 4.0803 0
M  V30 3158 C 306.452 4.61826 4.01725 0
M  V30 3159 N 305.589 4.69716 5.21834 0
M  V30 3160 H 310.429 2.73074 1.19308 0
M  V30 3161 H 307.966 1.35263 0.578131 0
M  V30 3162 H 309.924 2.11586 3.59565 0
M  V30 3163 H 308.554 1.12772 3.0246 0
M  V30 3164 H 307.606 3.28229 1.92276 0
M  V30 3165 H 308.918 4.18884 2.70809 0
M  V30 3166 H 308.072 3.49488 4.95927 0
M  V30 3167 H 306.811 2.48601 4.19582 0
M  V30 3168 H 305.816 4.52552 3.12213 0
M  V30 3169 H 307.041 5.54705 3.91764 0
M  V30 3170 H 304.987 3.81097 5.33948 0
M  V30 3171 H 304.904 5.53202 5.1527 0
M  V30 3172 H 306.172 4.83376 6.11529 0
M  V30 3173 N 310.401 -0.613514 1.45168 0
M  V30 3174 C 311.348 -1.72456 1.53387 0
M  V30 3175 C 312.318 -1.6169 0.380191 0
M  V30 3176 O 313.503 -1.81356 0.592836 0
M  V30 3177 C 310.643 -3.10753 1.50088 0
M  V30 3178 C 309.756 -3.32368 2.75963 0
M  V30 3179 C 308.891 -4.60737 2.64376 0
M  V30 3180 C 307.93 -4.7559 3.85332 0
M  V30 3181 N 307.067 -5.95253 3.72315 0
M  V30 3182 H 311.907 -1.64768 2.48305 0
M  V30 3183 H 309.444 -0.803503 1.23216 0
M  V30 3184 H 311.402 -3.90758 1.46164 0
M  V30 3185 H 310.032 -3.17413 0.587243 0
M  V30 3186 H 309.084 -2.4618 2.89999 0
M  V30 3187 H 310.396 -3.39218 3.65695 0
M  V30 3188 H 309.55 -5.48928 2.58385 0
M  V30 3189 H 308.289 -4.56275 1.72233 0
M  V30 3190 H 307.294 -3.85824 3.91688 0
M  V30 3191 H 308.519 -4.81854 4.78533 0
M  V30 3192 H 306.465 -5.91847 2.82937 0
M  V30 3193 H 306.382 -6.03236 4.55677 0
M  V30 3194 H 307.65 -6.85958 3.70246 0
M  V30 3195 N 311.879 -1.3236 -0.855495 0
M  V30 3196 C 312.789 -1.23221 -1.99634 0
M  V30 3197 C 313.805 -0.145983 -1.73387 0
M  V30 3198 O 314.981 -0.366502 -1.98037 0
M  V30 3199 C 312.046 -0.954782 -3.33294 0
M  V30 3200 C 311.107 -2.12937 -3.72769 0
M  V30 3201 C 310.34 -1.86508 -5.00051 0
M  V30 3202 O 310.563 -0.807231 -5.64659 0
M  V30 3203 O 309.497 -2.72591 -5.36636 0
M  V30 3204 H 313.323 -2.19126 -2.1028 0
M  V30 3205 H 310.908 -1.12241 -0.986018 0
M  V30 3206 H 312.79 -0.816519 -4.13414 0
M  V30 3207 H 311.465 -0.0258854 -3.2369 0
M  V30 3208 H 310.372 -2.3231 -2.93228 0
M  V30 3209 H 311.705 -3.04102 -3.87018 0
M  V30 3210 N 313.357 1.07166 -1.15556 0
M  V30 3211 C 314.606 1.79181 -0.926132 0
M  V30 3212 C 314.919 1.87768 0.547967 0
M  V30 3213 O 316.125 2.56323 0.895036 0
M  V30 3214 C 314.581 3.22 -1.60761 0
M  V30 3215 C 314.189 3.21607 -3.11886 0
M  V30 3216 C 315.933 3.9861 -1.4598 0
M  V30 3217 C 313.84 4.59092 -3.72812 0
M  V30 3218 H 312.77 0.67154 -0.342856 0
M  V30 3219 H 315.421 1.2027 -1.3859 0
M  V30 3220 H 313.803 3.81115 -1.07553 0
M  V30 3221 H 314.977 2.72127 -3.71865 0
M  V30 3222 H 313.292 2.58495 -3.2645 0
M  V30 3223 H 315.889 5.00225 -1.88888 0
M  V30 3224 H 316.232 4.143 -0.407541 0
M  V30 3225 H 316.765 3.45996 -1.96295 0
M  V30 3226 H 313.504 4.48606 -4.77946 0
M  V30 3227 H 313.024 5.08803 -3.17616 0
M  V30 3228 H 314.703 5.28059 -3.73848 0
M  V30 3229 N 314.835 0.952656 1.25548 0
M  V30 3230 C 315.765 0.489287 2.28316 0
M  V30 3231 C 316.746 -0.463359 1.63667 0
M  V30 3232 O 317.931 -0.36274 1.90782 0
M  V30 3233 C 315.061 -0.235603 3.465 0
M  V30 3234 C 314.015 0.631593 4.23314 0
M  V30 3235 C 313.341 -0.223923 5.34231 0
M  V30 3236 C 314.641 1.90871 4.86174 0
M  V30 3237 H 316.335 1.34822 2.67326 0
M  V30 3238 H 313.881 0.649728 1.28509 0
M  V30 3239 H 315.834 -0.570882 4.17515 0
M  V30 3240 H 314.558 -1.12877 3.06474 0
M  V30 3241 H 313.217 0.949929 3.54079 0
M  V30 3242 H 312.865 -1.11678 4.90446 0
M  V30 3243 H 312.565 0.35299 5.86539 0
M  V30 3244 H 314.089 -0.554214 6.0808 0
M  V30 3245 H 315.503 1.63997 5.49343 0
M  V30 3246 H 313.9 2.43112 5.4865 0
M  V30 3247 H 314.97 2.61304 4.08471 0
M  V30 3248 N 316.313 -1.40141 0.720998 0
M  V30 3249 C 317.243 -2.33339 0.0867621 0
M  V30 3250 C 318.224 -1.53178 -0.739622 0
M  V30 3251 O 319.409 -1.81625 -0.687449 0
M  V30 3252 C 316.539 -3.37194 -0.831728 0
M  V30 3253 C 315.493 -4.27857 -0.110558 0
M  V30 3254 C 314.819 -5.22294 -1.14513 0
M  V30 3255 C 316.119 -5.11872 1.0385 0
M  V30 3256 H 317.813 -2.86626 0.865219 0
M  V30 3257 H 315.359 -1.37814 0.417516 0
M  V30 3258 H 317.312 -4.01335 -1.28485 0
M  V30 3259 H 316.036 -2.82314 -1.64214 0
M  V30 3260 H 314.695 -3.65176 0.322797 0
M  V30 3261 H 314.343 -4.63717 -1.94874 0
M  V30 3262 H 314.043 -5.83797 -0.667446 0
M  V30 3263 H 315.567 -5.89312 -1.59824 0
M  V30 3264 H 316.981 -5.69436 0.664482 0
M  V30 3265 H 315.378 -5.82445 1.4449 0
M  V30 3266 H 316.448 -4.4753 1.86668 0
M  V30 3267 N 317.792 -0.46758 -1.50504 0
M  V30 3268 C 319.038 0.0887532 -2.02606 0
M  V30 3269 C 319.371 1.39686 -1.34913 0
M  V30 3270 O 318.646 1.88644 -0.473694 0
M  V30 3271 C 318.929 0.276206 -3.59039 0
M  V30 3272 C 318.782 -1.05267 -4.37309 0
M  V30 3273 C 320.101 1.03235 -4.27821 0
M  V30 3274 H 317.22 0.0307814 -0.736357 0
M  V30 3275 H 319.862 -0.612485 -1.79857 0
M  V30 3276 H 318.012 0.8735 -3.78553 0
M  V30 3277 H 319.684 -1.68628 -4.29374 0
M  V30 3278 H 317.927 -1.65015 -4.01189 0
M  V30 3279 H 318.598 -0.875197 -5.45018 0
M  V30 3280 H 321.074 0.526111 -4.12761 0
M  V30 3281 H 319.95 1.1323 -5.37094 0
M  V30 3282 H 320.211 2.06806 -3.90748 0
M  V30 3283 N 319.27 1.56325 -0.20005 0
M  V30 3284 C 320.681 1.8408 0.31167 0
M  V30 3285 C 321.032 1.12087 1.61031 0
M  V30 3286 O 320.157 0.38332 2.12978 0
M  V30 3287 C 320.752 3.33932 0.57226 0
M  V30 3288 C 319.311 3.6208 1.02834 0
M  V30 3289 C 318.458 2.77186 0.079634 0
M  V30 3290 H 321.409 1.52939 -0.423729 0
M  V30 3291 H 321.43 3.52971 1.42096 0
M  V30 3292 H 320.942 3.86303 -0.37308 0
M  V30 3293 H 319.043 3.15147 1.98778 0
M  V30 3294 H 319.156 4.7023 0.917624 0
M  V30 3295 H 317.52 2.47951 0.582448 0
M  V30 3296 H 318.303 3.32347 -0.860238 0
M  V30 3297 N 320.748 -0.0735177 1.57428 0
M  V30 3298 C 321.996 -0.771472 1.86796 0
M  V30 3299 C 322.317 -1.78201 0.791804 0
M  V30 3300 O 321.587 -1.95074 -0.179718 0
M  V30 3301 H 320.167 -0.28791 0.689287 0
M  V30 3302 H 322.829 -0.0500161 1.94836 0
M  V30 3303 H 321.925 -1.28874 2.8425 0
M  V30 3304 N 322.226 -1.5378 -0.344866 0
M  V30 3305 C 323.174 -1.82373 -1.4437 0
M  V30 3306 C 324.168 -0.694128 -1.54526 0
M  V30 3307 O 325.374 -0.877442 -1.57165 0
M  V30 3308 H 321.749 -0.577765 -0.481344 0
M  V30 3309 H 323.72 -2.74306 -1.17468 0
M  V30 3310 C 322.469 -2.04898 -2.80913 0
M  V30 3311 H 321.792 -2.9127 -2.73865 0
M  V30 3312 H 323.232 -2.28871 -3.56923 0
M  V30 3313 C 321.691 -0.834116 -3.26411 0
M  V30 3314 O 322.221 -0.0328885 -4.01687 0
M  V30 3315 N 320.427 -0.65171 -2.83198 0
M  V30 3316 H 319.974 -1.30489 -2.22104 0
M  V30 3317 H 319.932 0.159686 -3.13994 0
M  V30 3318 N 323.704 0.605807 -1.45491 0
M  V30 3319 C 324.934 1.38934 -1.52908 0
M  V30 3320 C 325.342 1.88513 -0.161086 0
M  V30 3321 O 324.685 1.62962 0.847891 0
M  V30 3322 C 324.747 2.62737 -2.45376 0
M  V30 3323 C 324.411 2.34785 -3.92078 0
M  V30 3324 C 325.408 1.95038 -4.8193 0
M  V30 3325 C 323.093 2.47642 -4.37011 0
M  V30 3326 C 325.087 1.68511 -6.14722 0
M  V30 3327 C 322.774 2.20728 -5.69844 0
M  V30 3328 C 323.772 1.81225 -6.58519 0
M  V30 3329 O 323.46 1.54627 -7.88889 0
M  V30 3330 H 323.192 0.431629 -0.520262 0
M  V30 3331 H 325.746 0.74573 -1.91384 0
M  V30 3332 H 323.976 3.29824 -2.01874 0
M  V30 3333 H 325.665 3.24783 -2.43456 0
M  V30 3334 H 326.431 1.84639 -4.48479 0
M  V30 3335 H 322.31 2.77356 -3.68232 0
M  V30 3336 H 325.854 1.37602 -6.83894 0
M  V30 3337 H 321.751 2.30744 -6.02849 0
M  V30 3338 H 322.519 1.68665 -8.00933 0
M  V30 3339 N 325.182 1.32811 0.848464 0
M  V30 3340 C 326.43 1.23479 1.59991 0
M  V30 3341 C 326.751 -0.201853 1.93952 0
M  V30 3342 O 326.021 -1.12818 1.60153 0
M  V30 3343 H 324.601 0.454034 0.593179 0
M  V30 3344 H 327.263 1.66412 1.01455 0
M  V30 3345 H 326.359 1.82178 2.53412 0
M  V30 3346 N 326.66 -1.06551 1.16123 0
M  V30 3347 C 327.57 -2.17484 0.879662 0
M  V30 3348 C 328.586 -1.73377 -0.147104 0
M  V30 3349 O 329.762 -2.01379 0.0289128 0
M  V30 3350 C 326.827 -3.44591 0.381829 0
M  V30 3351 C 325.888 -4.0322 1.4735 0
M  V30 3352 C 325.121 -5.24261 0.999324 0
M  V30 3353 O 325.344 -5.70198 -0.151957 0
M  V30 3354 O 324.278 -5.74775 1.78653 0
M  V30 3355 H 328.104 -2.44075 1.80724 0
M  V30 3356 H 325.689 -1.16042 0.940992 0
M  V30 3357 H 327.571 -4.21254 0.111053 0
M  V30 3358 H 326.246 -3.19532 -0.51777 0
M  V30 3359 H 325.153 -3.2806 1.79798 0
M  V30 3360 H 326.486 -4.32568 2.34831 0
M  V30 3361 N 328.138 -0.959301 -1.25041 0
M  V30 3362 C 329.386 -0.615393 -1.92503 0
M  V30 3363 C 329.707 0.850969 -1.75452 0
M  V30 3364 O 328.977 1.60658 -1.12098 0
M  V30 3365 H 327.557 -0.224613 -0.712431 0
M  V30 3366 H 330.219 -1.21855 -1.5211 0
M  V30 3367 H 329.315 -0.848738 -3.00338 0
M  V30 3368 N 329.616 1.39756 -0.72842 0
M  V30 3369 C 330.546 2.33289 -0.0991354 0
M  V30 3370 C 331.527 1.53568 0.731489 0
M  V30 3371 O 332.712 1.81987 0.677807 0
M  V30 3372 C 329.842 3.3763 0.813834 0
M  V30 3373 C 328.796 4.2791 0.0878663 0
M  V30 3374 C 328.122 5.22894 1.11741 0
M  V30 3375 C 329.422 5.11314 -1.06563 0
M  V30 3376 H 331.116 2.86163 -0.880408 0
M  V30 3377 H 328.662 1.37591 -0.424819 0
M  V30 3378 H 330.615 4.0201 1.26355 0
M  V30 3379 H 329.339 2.83181 1.62715 0
M  V30 3380 H 327.998 3.65 -0.342159 0
M  V30 3381 H 327.646 4.64744 1.92412 0
M  V30 3382 H 327.346 5.84143 0.636477 0
M  V30 3383 H 328.87 5.90151 1.56697 0
M  V30 3384 H 330.284 5.69076 -0.694671 0
M  V30 3385 H 328.681 5.81671 -1.47577 0
M  V30 3386 H 329.751 4.46534 -1.89038 0
M  V30 3387 N 331.094 0.475555 1.50254 0
M  V30 3388 C 332.041 -0.316293 2.28622 0
M  V30 3389 C 333.011 -0.983227 1.33873 0
M  V30 3390 O 334.196 -0.994805 1.62814 0
M  V30 3391 C 331.336 -1.38975 3.1588 0
M  V30 3392 C 330.449 -0.737146 4.25664 0
M  V30 3393 C 329.584 -1.78887 5.00173 0
M  V30 3394 C 328.623 -1.11676 6.01826 0
M  V30 3395 N 327.76 -2.11154 6.69596 0
M  V30 3396 H 332.6 0.358297 2.95838 0
M  V30 3397 H 330.137 0.188541 1.45887 0
M  V30 3398 H 332.095 -2.02383 3.64825 0
M  V30 3399 H 330.725 -2.03344 2.50701 0
M  V30 3400 H 329.777 0.0096065 3.80399 0
M  V30 3401 H 331.089 -0.206816 4.98371 0
M  V30 3402 H 330.243 -2.49865 5.52859 0
M  V30 3403 H 328.982 -2.35302 4.27182 0
M  V30 3404 H 327.987 -0.392633 5.48396 0
M  V30 3405 H 329.212 -0.55945 6.76792 0
M  V30 3406 H 327.158 -2.66577 5.99394 0
M  V30 3407 H 327.075 -1.63118 7.38193 0
M  V30 3408 H 328.343 -2.81497 7.26897 0
M  V30 3409 N 332.573 -1.56217 0.208337 0
M  V30 3410 C 333.483 -2.23316 -0.718836 0
M  V30 3411 C 334.499 -1.23648 -1.22422 0
M  V30 3412 O 335.675 -1.56423 -1.26861 0
M  V30 3413 C 332.74 -2.88968 -1.91568 0
M  V30 3414 C 331.801 -4.03943 -1.45357 0
M  V30 3415 C 331.034 -4.66455 -2.59337 0
M  V30 3416 O 331.257 -4.27919 -3.77149 0
M  V30 3417 O 330.191 -5.55686 -2.31293 0
M  V30 3418 H 334.017 -3.03182 -0.177315 0
M  V30 3419 H 331.602 -1.49384 -0.0215402 0
M  V30 3420 H 333.484 -3.30455 -2.61491 0
M  V30 3421 H 332.159 -2.12071 -2.44556 0
M  V30 3422 H 331.066 -3.67052 -0.722746 0
M  V30 3423 H 332.399 -4.82543 -0.970219 0
M  V30 3424 N 334.051 0.0651679 -1.57465 0
M  V30 3425 C 334.998 1.07675 -2.04144 0
M  V30 3426 C 335.968 1.38071 -0.923335 0
M  V30 3427 O 337.153 1.49026 -1.19146 0
M  V30 3428 C 334.293 2.38337 -2.49579 0
M  V30 3429 C 333.406 2.14413 -3.75035 0
M  V30 3430 C 332.541 3.38686 -4.09225 0
M  V30 3431 C 331.58 3.10156 -5.27702 0
M  V30 3432 N 330.717 4.26778 -5.57499 0
M  V30 3433 H 335.557 0.671716 -2.90331 0
M  V30 3434 H 333.094 0.3201 -1.43575 0
M  V30 3435 H 335.052 3.14632 -2.73975 0
M  V30 3436 H 333.682 2.7663 -1.6636 0
M  V30 3437 H 332.734 1.2878 -3.57939 0
M  V30 3438 H 334.046 1.89344 -4.61466 0
M  V30 3439 H 333.2 4.23373 -4.34558 0
M  V30 3440 H 331.939 3.66837 -3.21374 0
M  V30 3441 H 330.944 2.23866 -5.02159 0
M  V30 3442 H 332.169 2.8332 -6.17176 0
M  V30 3443 H 330.115 4.54948 -4.72608 0
M  V30 3444 H 330.032 4.05005 -6.38362 0
M  V30 3445 H 331.3 5.12443 -5.87386 0
M  V30 3446 N 335.529 1.53961 0.336706 0
M  V30 3447 C 336.459 1.85417 1.41925 0
M  V30 3448 C 337.44 0.709856 1.5458 0
M  V30 3449 O 338.625 0.962396 1.68676 0
M  V30 3450 C 335.755 2.06985 2.78881 0
M  V30 3451 C 334.709 3.22813 2.81026 0
M  V30 3452 C 334.035 3.29727 4.20932 0
M  V30 3453 C 335.335 4.60767 2.45949 0
M  V30 3454 H 337.029 2.76079 1.15848 0
M  V30 3455 H 334.575 1.32839 0.555859 0
M  V30 3456 H 336.528 2.27575 3.54665 0
M  V30 3457 H 335.252 1.13061 3.06406 0
M  V30 3458 H 333.911 3.0209 2.07695 0
M  V30 3459 H 333.559 2.33385 4.45579 0
M  V30 3460 H 333.259 4.07566 4.23277 0
M  V30 3461 H 334.783 3.52536 4.98549 0
M  V30 3462 H 336.197 4.81325 3.11446 0
M  V30 3463 H 334.594 5.4106 2.59566 0
M  V30 3464 H 335.664 4.6391 1.41122 0
M  V30 3465 N 337.007 -0.598083 1.45811 0
M  V30 3466 C 337.955 -1.72932 1.55555 0
M  V30 3467 C 338.949 -1.63984 0.424921 0
M  V30 3468 O 340.155 -1.69663 0.601205 0
M  V30 3469 H 336.53 -0.571489 0.488779 0
M  V30 3470 H 338.501 -1.61842 2.50699 0
M  V30 3471 C 337.25 -3.11318 1.54843 0
M  V30 3472 H 336.573 -3.18867 2.41172 0
M  V30 3473 H 338.013 -3.90274 1.65717 0
M  V30 3474 C 336.472 -3.3578 0.274427 0
M  V30 3475 O 337.002 -3.9654 -0.641778 0
M  V30 3476 N 335.208 -2.90119 0.167139 0
M  V30 3477 H 334.755 -2.40855 0.913596 0
M  V30 3478 H 334.713 -3.0686 -0.684435 0
M  V30 3479 N 338.485 -1.33259 -0.841409 0
M  V30 3480 C 339.713 -1.27605 -1.62864 0
M  V30 3481 C 340.128 0.153507 -1.88175 0
M  V30 3482 O 339.485 1.09485 -1.46011 0
M  V30 3483 C 339.536 -2.04596 -2.98031 0
M  V30 3484 O 339.257 -3.41975 -2.73834 0
M  V30 3485 C 340.758 -2.06122 -3.92465 0
M  V30 3486 H 337.978 -0.439718 -0.506842 0
M  V30 3487 H 340.522 -1.75591 -1.04824 0
M  V30 3488 H 338.677 -1.60299 -3.5268 0
M  V30 3489 H 339.091 -3.81549 -3.59889 0
M  V30 3490 H 340.565 -2.64451 -4.84531 0
M  V30 3491 H 341.042 -1.05083 -4.26444 0
M  V30 3492 H 341.648 -2.50427 -3.43753 0
M  V30 3493 N 339.963 1.05934 -1.16686 0
M  V30 3494 C 341.212 1.78188 -0.945085 0
M  V30 3495 C 341.525 1.88338 0.528021 0
M  V30 3496 O 342.731 2.57258 0.867799 0
M  V30 3497 C 341.187 3.20277 -1.64167 0
M  V30 3498 C 340.795 3.18281 -3.15279 0
M  V30 3499 C 342.539 3.97039 -1.502 0
M  V30 3500 C 340.446 4.55112 -3.7766 0
M  V30 3501 H 339.376 0.667866 -0.349959 0
M  V30 3502 H 342.027 1.18794 -1.39858 0
M  V30 3503 H 340.409 3.79952 -1.11589 0
M  V30 3504 H 341.583 2.68167 -3.74731 0
M  V30 3505 H 339.898 2.55018 -3.29173 0
M  V30 3506 H 342.495 4.98194 -1.94183 0
M  V30 3507 H 342.838 4.13845 -0.451461 0
M  V30 3508 H 343.371 3.43894 -1.99954 0
M  V30 3509 H 340.11 4.43512 -4.82677 0
M  V30 3510 H 339.63 5.05406 -3.22994 0
M  V30 3511 H 341.309 5.24064 -3.79428 0
M  V30 3512 N 341.441 0.965919 1.2453 0
M  V30 3513 C 342.69 0.622437 1.91856 0
M  V30 3514 C 343.003 -0.846006 1.76358 0
M  V30 3515 O 344.209 -1.29993 2.38357 0
M  V30 3516 C 342.665 1.0626 3.43856 0
M  V30 3517 C 342.273 2.55437 3.68043 0
M  V30 3518 C 344.017 0.792183 4.17043 0
M  V30 3519 C 341.924 2.93196 5.13605 0
M  V30 3520 H 340.854 0.229092 0.718354 0
M  V30 3521 H 343.505 1.17189 1.41206 0
M  V30 3522 H 341.887 0.441476 3.93531 0
M  V30 3523 H 343.061 3.22665 3.28974 0
M  V30 3524 H 341.376 2.8007 3.08139 0
M  V30 3525 H 343.973 1.05031 5.24283 0
M  V30 3526 H 344.316 -0.271584 4.15413 0
M  V30 3527 H 344.849 1.37419 3.73311 0
M  V30 3528 H 341.588 3.98636 5.20355 0
M  V30 3529 H 341.108 2.30651 5.53679 0
M  V30 3530 H 342.787 2.83004 5.81823 0
M  V30 3531 N 342.919 -1.39368 0.735821 0
M  V30 3532 C 344.196 -1.94465 0.210395 0
M  V30 3533 C 344.576 -1.67254 -1.28799 0
M  V30 3534 O 343.924 -1.00123 -2.05396 0
M  V30 3535 C 344.134 -3.4472 0.544897 0
M  V30 3536 C 345.482 -4.21708 0.494689 0
M  V30 3537 O 346.506 -3.52922 0.482136 0
M  V30 3538 O 345.365 -5.44299 0.489947 0
M  V30 3539 H 342.459 -0.826096 0.0386666 0
M  V30 3540 H 345.005 -1.48863 0.814735 0
M  V30 3541 H 343.777 -3.57963 1.58045 0
M  V30 3542 H 343.4 -3.97502 -0.08837 0
M  V30 3543 N 344.397 -0.483516 -1.5 0
M  V30 3544 C 345.327 0.293829 -2.31644 0
M  V30 3545 C 346.308 0.978864 -1.39112 0
M  V30 3546 O 347.493 0.973644 -1.68029 0
M  V30 3547 C 344.623 1.36897 -3.19181 0
M  V30 3548 C 343.577 0.804833 -4.20365 0
M  V30 3549 C 342.903 1.9792 -4.96721 0
M  V30 3550 C 344.203 -0.192313 -5.21946 0
M  V30 3551 H 345.897 -0.387616 -2.9688 0
M  V30 3552 H 343.443 -0.187856 -1.42769 0
M  V30 3553 H 345.396 1.92037 -3.751 0
M  V30 3554 H 344.12 2.07936 -2.51853 0
M  V30 3555 H 342.779 0.275319 -3.65565 0
M  V30 3556 H 342.427 2.67686 -4.25856 0
M  V30 3557 H 342.127 1.60789 -5.65173 0
M  V30 3558 H 343.651 2.53526 -5.55479 0
M  V30 3559 H 345.065 0.270333 -5.72662 0
M  V30 3560 H 343.462 -0.478543 -5.98189 0
M  V30 3561 H 344.532 -1.11409 -4.71928 0
M  V30 3562 N 345.875 1.56104 -0.216619 0
M  V30 3563 C 347.286 1.844 0.292128 0
M  V30 3564 C 347.637 1.13788 1.59833 0
M  V30 3565 O 346.762 0.405888 2.12559 0
M  V30 3566 C 347.357 3.3452 0.53681 0
M  V30 3567 C 345.916 3.63151 0.989876 0
M  V30 3568 C 345.063 2.77255 0.0502302 0
M  V30 3569 H 348.014 1.52481 -0.439926 0
M  V30 3570 H 348.035 3.54459 1.38345 0
M  V30 3571 H 347.547 3.85885 -0.414031 0
M  V30 3572 H 345.648 3.17238 1.95425 0
M  V30 3573 H 345.761 4.71177 0.867698 0
M  V30 3574 H 344.125 2.48555 0.556117 0
M  V30 3575 H 344.908 3.31416 -0.89544 0
M  V30 3576 N 347.353 -0.0568162 1.57498 0
M  V30 3577 C 348.581 -0.765626 1.92213 0
M  V30 3578 C 348.996 -1.70353 0.813961 0
M  V30 3579 O 348.353 -1.81268 -0.211701 0
M  V30 3580 C 348.404 -1.5465 3.2675 0
M  V30 3581 O 348.125 -0.646278 4.33307 0
M  V30 3582 C 349.626 -2.35497 3.75574 0
M  V30 3583 H 346.846 -0.216835 0.634999 0
M  V30 3584 H 349.39 -0.0226146 2.04487 0
M  V30 3585 H 347.545 -2.24165 3.15957 0
M  V30 3586 H 347.959 -1.19093 5.108 0
M  V30 3587 H 349.433 -2.85722 4.72299 0
M  V30 3588 H 349.91 -3.15692 3.05344 0
M  V30 3589 H 350.516 -1.7111 3.8936 0
M  V30 3590 N 348.832 -1.54138 -0.328536 0
M  V30 3591 C 350.078 -1.7236 -1.06865 0
M  V30 3592 C 350.411 -0.493231 -1.87832 0
M  V30 3593 O 349.686 0.5098 -1.877 0
M  V30 3594 C 349.969 -2.99621 -1.99747 0
M  V30 3595 C 349.822 -4.32899 -1.22143 0
M  V30 3596 C 351.141 -3.22615 -2.99345 0
M  V30 3597 H 348.26 -0.627151 -0.387105 0
M  V30 3598 H 350.902 -1.86827 -0.345767 0
M  V30 3599 H 349.052 -2.87418 -2.61387 0
M  V30 3600 H 350.724 -4.56978 -0.630017 0
M  V30 3601 H 348.967 -4.30628 -0.523628 0
M  V30 3602 H 349.638 -5.18154 -1.90318 0
M  V30 3603 H 352.114 -3.34248 -2.47826 0
M  V30 3604 H 350.99 -4.13027 -3.61524 0
M  V30 3605 H 351.251 -2.3961 -3.71536 0
M  V30 3606 N 350.31 0.590341 -1.46126 0
M  V30 3607 C 351.257 1.69994 -1.56111 0
M  V30 3608 C 352.227 1.61065 -0.405867 0
M  V30 3609 O 353.412 1.8039 -0.621613 0
M  V30 3610 C 350.552 3.08326 -1.55013 0
M  V30 3611 C 349.665 3.27936 -2.81215 0
M  V30 3612 C 348.8 4.56473 -2.71673 0
M  V30 3613 C 347.839 4.694 -3.92849 0
M  V30 3614 N 346.976 5.89254 -3.81738 0
M  V30 3615 H 351.816 1.60797 -2.50895 0
M  V30 3616 H 349.353 0.783799 -1.24479 0
M  V30 3617 H 351.311 3.88383 -1.52362 0
M  V30 3618 H 349.941 3.16439 -0.637667 0
M  V30 3619 H 348.993 2.41536 -2.93879 0
M  V30 3620 H 350.305 3.33357 -3.71045 0
M  V30 3621 H 349.459 5.44748 -2.67085 0
M  V30 3622 H 348.198 4.53477 -1.7947 0
M  V30 3623 H 347.203 3.79544 -3.97777 0
M  V30 3624 H 348.428 4.7418 -4.86138 0
M  V30 3625 H 346.374 5.87271 -2.92317 0
M  V30 3626 H 346.291 5.95911 -4.65217 0
M  V30 3627 H 347.559 6.79981 -3.81112 0
M  V30 3628 N 351.788 1.33704 0.83433 0
M  V30 3629 C 353.037 1.24763 1.58484 0
M  V30 3630 C 353.35 -0.183775 1.94735 0
M  V30 3631 O 354.556 -0.395234 2.68608 0
M  V30 3632 C 353.012 2.18638 2.85876 0
M  V30 3633 C 352.62 3.66974 2.56971 0
M  V30 3634 C 354.364 2.18581 3.63899 0
M  V30 3635 C 352.271 4.5275 3.80488 0
M  V30 3636 H 351.201 0.463425 0.594772 0
M  V30 3637 H 353.852 1.58797 0.919551 0
M  V30 3638 H 352.234 1.77542 3.5397 0
M  V30 3639 H 353.408 4.16538 1.9706 0
M  V30 3640 H 351.723 3.69366 1.92244 0
M  V30 3641 H 354.32 2.79894 4.55591 0
M  V30 3642 H 354.663 1.18207 3.99165 0
M  V30 3643 H 355.196 2.58062 3.02735 0
M  V30 3644 H 351.935 5.54017 3.5035 0
M  V30 3645 H 351.455 4.07927 4.39722 0
M  V30 3646 H 353.134 4.66784 4.4802 0
M  V30 3647 N 353.266 -1.05314 1.17247 0
M  V30 3648 C 354.491 -1.82509 0.985148 0
M  V30 3649 C 354.916 -1.82343 -0.461788 0
M  V30 3650 O 354.274 -1.23151 -1.33055 0
M  V30 3651 C 354.322 -3.26566 1.52929 0
M  V30 3652 O 353.426 -4.05666 0.742225 0
M  V30 3653 H 352.767 -0.564347 0.349869 0
M  V30 3654 H 355.297 -1.32718 1.55715 0
M  V30 3655 H 355.307 -3.77369 1.55103 0
M  V30 3656 H 353.982 -3.26001 2.58256 0
M  V30 3657 H 352.559 -3.64397 0.791794 0
M  V30 3658 N 354.744 -0.972509 -1.24016 0
M  V30 3659 C 355.692 -0.498562 -2.27194 0
M  V30 3660 C 356.686 0.440372 -1.63576 0
M  V30 3661 O 357.892 0.315133 -1.7722 0
M  V30 3662 H 354.267 -0.142775 -0.738322 0
M  V30 3663 H 356.238 -1.38065 -2.64539 0
M  V30 3664 C 354.987 0.191072 -3.47175 0
M  V30 3665 H 354.31 -0.522318 -3.96373 0
M  V30 3666 H 355.75 0.486445 -4.212 0
M  V30 3667 C 354.209 1.41967 -3.05527 0
M  V30 3668 O 354.739 2.51642 -3.13112 0
M  V30 3669 N 352.945 1.28746 -2.60524 0
M  V30 3670 H 352.492 0.395089 -2.54552 0
M  V30 3671 H 352.45 2.11061 -2.33025 0
M  V30 3672 N 356.222 1.38976 -0.743202 0
M  V30 3673 C 357.452 2.04339 -0.304807 0
M  V30 3674 C 357.86 1.56162 1.06819 0
M  V30 3675 O 357.203 0.725284 1.68776 0
M  V30 3676 C 357.265 3.58716 -0.237369 0
M  V30 3677 C 356.929 4.29905 -1.55018 0
M  V30 3678 C 357.926 4.55987 -2.49744 0
M  V30 3679 C 355.611 4.68294 -1.81675 0
M  V30 3680 C 357.605 5.19478 -3.69353 0
M  V30 3681 C 355.292 5.31512 -3.0156 0
M  V30 3682 C 356.29 5.57037 -3.9522 0
M  V30 3683 O 355.978 6.18941 -5.12998 0
M  V30 3684 H 355.71 0.663439 -0.12971 0
M  V30 3685 H 358.264 1.78852 -1.01001 0
M  V30 3686 H 356.494 3.83133 0.524003 0
M  V30 3687 H 358.183 4.05543 0.170121 0
M  V30 3688 H 358.949 4.26767 -2.30423 0
M  V30 3689 H 354.828 4.47779 -1.09615 0
M  V30 3690 H 358.372 5.39318 -4.42473 0
M  V30 3691 H 354.269 5.60153 -3.20778 0
M  V30 3692 H 355.037 6.37433 -5.13441 0
M  V30 3693 N 357.7 0.491464 1.49741 0
M  V30 3694 C 358.949 -0.0582189 2.01616 0
M  V30 3695 C 359.262 -1.38927 1.3769 0
M  V30 3696 O 360.468 -2.02509 1.80838 0
M  V30 3697 C 358.924 -0.154235 3.59569 0
M  V30 3698 C 358.532 1.1696 4.32463 0
M  V30 3699 C 360.276 -0.65479 4.1942 0
M  V30 3700 C 358.183 1.03627 5.8225 0
M  V30 3701 H 357.113 -0.0255317 0.753568 0
M  V30 3702 H 359.764 0.629445 1.72367 0
M  V30 3703 H 358.146 -0.906138 3.85493 0
M  V30 3704 H 359.32 1.93405 4.18248 0
M  V30 3705 H 357.635 1.60285 3.84315 0
M  V30 3706 H 360.232 -0.771903 5.29099 0
M  V30 3707 H 360.575 -1.65127 3.8215 0
M  V30 3708 H 361.108 0.040304 3.9778 0
M  V30 3709 H 357.847 2.00672 6.24028 0
M  V30 3710 H 357.367 0.312546 5.98985 0
M  V30 3711 H 359.046 0.711114 6.4308 0
M  V30 3712 N 359.178 -1.55987 0.224894 0
M  V30 3713 C 360.426 -1.97998 -0.405099 0
M  V30 3714 C 360.747 -1.11387 -1.60056 0
M  V30 3715 O 360.017 -0.191645 -1.9496 0
M  V30 3716 H 358.597 -0.731235 -0.152658 0
M  V30 3717 H 361.259 -1.92279 0.318567 0
M  V30 3718 H 360.355 -3.03463 -0.729167 0
M  V30 3719 N 360.656 0.0484629 -1.57525 0
M  V30 3720 C 361.933 0.777447 -1.79486 0
M  V30 3721 C 362.313 1.94597 -0.818251 0
M  V30 3722 O 361.661 2.28047 0.143767 0
M  V30 3723 C 361.871 1.22864 -3.26658 0
M  V30 3724 C 363.219 1.65251 -3.91123 0
M  V30 3725 O 364.243 1.32372 -3.3069 0
M  V30 3726 O 363.102 2.26207 -4.97486 0
M  V30 3727 H 360.196 0.374357 -0.737419 0
M  V30 3728 H 362.742 0.0267359 -1.69679 0
M  V30 3729 H 361.514 0.393589 -3.89316 0
M  V30 3730 H 361.137 2.03996 -3.41279 0
M  V30 3731 N 362.134 1.5431 0.320358 0
M  V30 3732 C 363.359 1.76954 1.08175 0
M  V30 3733 C 363.784 0.518193 1.80821 0
M  V30 3734 O 363.142 -0.530411 1.73368 0
M  V30 3735 C 363.19 2.96451 2.05303 0
M  V30 3736 O 362.294 2.68221 3.13259 0
M  V30 3737 H 361.635 0.586275 0.311733 0
M  V30 3738 H 364.165 2.01342 0.363676 0
M  V30 3739 H 364.175 3.23887 2.48116 0
M  V30 3740 H 362.85 3.87196 1.51829 0
M  V30 3741 H 361.427 2.51744 2.75099 0
M  V30 3742 N 363.613 -0.582584 1.46437 0
M  V30 3743 C 364.543 -1.70187 1.59871 0
M  V30 3744 C 365.524 -1.64066 0.449042 0
M  V30 3745 O 366.709 -1.82081 0.6753 0
M  V30 3746 C 363.839 -3.08827 1.58881 0
M  V30 3747 C 362.793 -3.29779 2.72819 0
M  V30 3748 C 362.119 -4.68947 2.5689 0
M  V30 3749 C 363.419 -3.17601 4.1464 0
M  V30 3750 H 365.113 -1.592 2.53566 0
M  V30 3751 H 362.659 -0.764472 1.22032 0
M  V30 3752 H 364.612 -3.86951 1.66873 0
M  V30 3753 H 363.336 -3.20713 0.617306 0
M  V30 3754 H 361.995 -2.54054 2.64296 0
M  V30 3755 H 361.643 -4.77599 1.57823 0
M  V30 3756 H 361.343 -4.83919 3.33312 0
M  V30 3757 H 362.867 -5.4924 2.66773 0
M  V30 3758 H 364.281 -3.8557 4.24274 0
M  V30 3759 H 362.678 -3.44094 4.9165 0
M  V30 3760 H 363.748 -2.14681 4.34788 0
M  V30 3761 N 365.091 -1.34144 -0.827227 0
M  V30 3762 C 366.316 -1.29476 -1.62021 0
M  V30 3763 C 366.741 0.129292 -1.87655 0
M  V30 3764 O 366.099 1.08967 -1.449 0
M  V30 3765 C 366.147 -2.08702 -2.94068 0
M  V30 3766 O 365.251 -1.45359 -3.85933 0
M  V30 3767 H 364.592 -0.444881 -0.492927 0
M  V30 3768 H 367.122 -1.76882 -1.02829 0
M  V30 3769 H 367.132 -2.19898 -3.43669 0
M  V30 3770 H 365.807 -3.12241 -2.74734 0
M  V30 3771 H 364.384 -1.42879 -3.44442 0
M  V30 3772 N 366.569 1.04691 -1.17803 0
M  V30 3773 C 367.799 1.81183 -0.992788 0
M  V30 3774 C 368.207 1.8347 0.462098 0
M  V30 3775 O 367.55 1.2643 1.33271 0
M  V30 3776 C 367.612 3.28363 -1.46349 0
M  V30 3777 C 367.276 3.49749 -2.94151 0
M  V30 3778 C 368.273 3.41456 -3.92051 0
M  V30 3779 C 365.958 3.76548 -3.32441 0
M  V30 3780 C 367.952 3.59656 -5.26238 0
M  V30 3781 C 365.639 3.94396 -4.66792 0
M  V30 3782 C 366.637 3.8595 -5.635 0
M  V30 3783 O 366.325 4.03294 -6.9542 0
M  V30 3784 H 366.057 0.577622 -0.351182 0
M  V30 3785 H 368.611 1.32876 -1.5663 0
M  V30 3786 H 366.841 3.77609 -0.833574 0
M  V30 3787 H 368.53 3.86395 -1.24313 0
M  V30 3788 H 369.296 3.20723 -3.63815 0
M  V30 3789 H 365.175 3.82224 -2.57732 0
M  V30 3790 H 368.719 3.52979 -6.01707 0
M  V30 3791 H 364.616 4.14622 -4.94731 0
M  V30 3792 H 365.384 4.2049 -7.02232 0
M  V30 3793 N 368.047 0.979072 1.23499 0
M  V30 3794 C 369.01 0.523244 2.23147 0
M  V30 3795 C 370.01 -0.386406 1.56088 0
M  V30 3796 O 371.2 -0.180283 1.73265 0
M  V30 3797 C 368.332 -0.240739 3.40049 0
M  V30 3798 H 369.525 1.40432 2.64989 0
M  V30 3799 H 367.078 0.764824 1.36309 0
M  V30 3800 H 367.813 -1.13841 3.03662 0
M  V30 3801 H 367.598 0.412207 3.89927 0
M  V30 3802 H 369.088 -0.548297 4.13985 0
M  V30 3803 N 369.525 -1.3858 0.750561 0
M  V30 3804 C 370.755 -2.04175 0.31564 0
M  V30 3805 C 371.163 -1.56726 -1.05989 0
M  V30 3806 O 370.506 -0.734225 -1.68389 0
M  V30 3807 C 370.568 -3.58585 0.256389 0
M  V30 3808 C 370.232 -4.29077 1.57296 0
M  V30 3809 C 371.229 -4.54656 2.52159 0
M  V30 3810 C 368.914 -4.67324 1.84156 0
M  V30 3811 C 370.908 -5.17512 3.72103 0
M  V30 3812 C 368.595 -5.29905 3.04374 0
M  V30 3813 C 369.593 -5.54933 3.98168 0
M  V30 3814 O 369.281 -6.16212 5.16273 0
M  V30 3815 H 369.013 -0.662742 0.133226 0
M  V30 3816 H 371.567 -1.78313 1.01948 0
M  V30 3817 H 369.797 -3.83406 -0.503677 0
M  V30 3818 H 371.486 -4.05628 -0.148612 0
M  V30 3819 H 372.252 -4.25539 2.32683 0
M  V30 3820 H 368.131 -4.47191 1.11988 0
M  V30 3821 H 371.675 -5.36963 4.45327 0
M  V30 3822 H 367.572 -5.58444 3.23745 0
M  V30 3823 H 368.34 -6.34701 5.16815 0
M  V30 3824 N 371.003 -0.499398 -1.49478 0
M  V30 3825 C 372.228 0.044722 -2.07352 0
M  V30 3826 C 372.653 1.30207 -1.35749 0
M  V30 3827 O 372.011 1.76516 -0.413732 0
M  V30 3828 C 372.059 0.283013 -3.59488 0
M  V30 3829 O 371.163 1.35804 -3.89398 0
M  V30 3830 H 370.504 -0.0255147 -0.66351 0
M  V30 3831 H 373.034 -0.698561 -1.92305 0
M  V30 3832 H 373.044 0.515007 -4.04737 0
M  V30 3833 H 371.719 -0.635636 -4.11014 0
M  V30 3834 H 370.296 1.11113 -3.55961 0
M  V30 3835 N 372.481 1.55866 -0.233164 0
M  V30 3836 C 373.428 2.20796 0.67215 0
M  V30 3837 C 374.398 1.16731 1.18166 0
M  V30 3838 O 375.583 1.45129 1.23864 0
M  V30 3839 C 372.723 2.90072 1.86955 0
M  V30 3840 C 371.836 4.08759 1.39786 0
M  V30 3841 C 370.971 4.65787 2.55374 0
M  V30 3842 C 370.01 5.76752 2.04998 0
M  V30 3843 N 369.147 6.28021 3.13901 0
M  V30 3844 H 373.987 2.9779 0.111749 0
M  V30 3845 H 371.524 1.47036 0.0434007 0
M  V30 3846 H 373.482 3.28428 2.57276 0
M  V30 3847 H 372.112 2.15575 2.40265 0
M  V30 3848 H 371.164 3.7581 0.589173 0
M  V30 3849 H 372.476 4.88906 0.98856 0
M  V30 3850 H 371.63 5.06646 3.33758 0
M  V30 3851 H 370.369 3.84828 2.99598 0
M  V30 3852 H 369.374 5.35383 1.25079 0
M  V30 3853 H 370.599 6.59553 1.61759 0
M  V30 3854 H 368.545 5.49971 3.57586 0
M  V30 3855 H 368.462 7.03323 2.7726 0
M  V30 3856 H 369.73 6.73538 3.92386 0
M  V30 3857 N 373.959 -0.0401083 1.57549 0
M  V30 3858 C 375.207 -0.731677 1.8839 0
M  V30 3859 C 375.528 -1.76481 0.829425 0
M  V30 3860 O 374.798 -1.95411 -0.1383 0
M  V30 3861 H 373.378 -0.273225 0.695239 0
M  V30 3862 H 376.04 -0.00867725 1.94898 0
M  V30 3863 H 375.136 -1.22816 2.86919 0
M  V30 3864 N 375.437 -1.54477 -0.31217 0
M  V30 3865 C 376.684 -1.73227 -1.04875 0
M  V30 3866 C 377.012 -0.512042 -1.87639 0
M  V30 3867 O 376.267 0.506131 -1.89042 0
M  V30 3868 C 376.566 -2.967 -1.99258 0
M  V30 3869 C 376.232 -4.30974 -1.32559 0
M  V30 3870 C 374.894 -4.67477 -1.141 0
M  V30 3871 C 377.246 -5.14258 -0.847835 0
M  V30 3872 C 374.574 -5.84852 -0.465326 0
M  V30 3873 C 376.926 -6.32327 -0.185931 0
M  V30 3874 C 375.59 -6.67499 0.0107077 0
M  V30 3875 H 374.86 -0.633881 -0.383765 0
M  V30 3876 H 377.507 -1.88727 -0.324731 0
M  V30 3877 H 375.812 -2.75935 -2.7815 0
M  V30 3878 H 377.509 -3.08401 -2.563 0
M  V30 3879 H 374.099 -4.02262 -1.4793 0
M  V30 3880 H 378.283 -4.86565 -0.978192 0
M  V30 3881 H 373.539 -6.10654 -0.301883 0
M  V30 3882 H 377.713 -6.96135 0.192211 0
M  V30 3883 H 375.34 -7.58306 0.536287 0
M  V30 3884 N 376.915 0.57481 -1.46744 0
M  V30 3885 C 377.862 1.68329 -1.57905 0
M  V30 3886 C 378.832 1.60625 -0.422927 0
M  V30 3887 O 380.017 1.79721 -0.640711 0
M  V30 3888 C 377.157 3.06665 -1.58274 0
M  V30 3889 C 376.27 3.24935 -2.84678 0
M  V30 3890 C 375.405 4.53566 -2.76499 0
M  V30 3891 C 374.444 4.65207 -3.97806 0
M  V30 3892 N 373.581 5.85172 -3.87967 0
M  V30 3893 H 378.421 1.58127 -2.52587 0
M  V30 3894 H 375.958 0.770552 -1.25303 0
M  V30 3895 H 377.916 3.86745 -1.56473 0
M  V30 3896 H 376.546 3.15745 -0.671194 0
M  V30 3897 H 375.598 2.38405 -2.96424 0
M  V30 3898 H 376.91 3.29403 -3.7456 0
M  V30 3899 H 376.064 5.41885 -2.72848 0
M  V30 3900 H 374.803 4.51548 -1.8427 0
M  V30 3901 H 373.808 3.75304 -4.0178 0
M  V30 3902 H 375.033 4.68997 -4.9114 0
M  V30 3903 H 372.979 5.84137 -2.98529 0
M  V30 3904 H 372.896 5.90943 -4.71511 0
M  V30 3905 H 374.164 6.759 -3.88303 0
M  V30 3906 N 378.394 1.34581 0.820102 0
M  V30 3907 C 379.622 1.3018 1.60813 0
M  V30 3908 C 380.037 -0.123551 1.88395 0
M  V30 3909 O 379.394 -1.07148 1.47735 0
M  V30 3910 C 379.445 2.09312 2.94739 0
M  V30 3911 O 379.166 3.46288 2.68358 0
M  V30 3912 C 380.667 2.1234 3.89136 0
M  V30 3913 H 377.887 0.447726 0.499782 0
M  V30 3914 H 380.431 1.77237 1.02017 0
M  V30 3915 H 378.586 1.65889 3.50085 0
M  V30 3916 H 379 3.87227 3.53774 0
M  V30 3917 H 380.474 2.72126 4.80262 0
M  V30 3918 H 380.951 1.11854 4.24718 0
M  V30 3919 H 381.557 2.55864 3.39726 0
M  V30 3920 N 379.872 -1.04064 1.18357 0
M  V30 3921 C 380.805 -2.11618 0.854 0
M  V30 3922 C 381.783 -1.61555 -0.184043 0
M  V30 3923 O 382.967 -1.88395 -0.0630048 0
M  V30 3924 C 380.094 -3.37574 0.27597 0
M  V30 3925 C 379.14 -4.06485 1.2912 0
M  V30 3926 S 379.973 -4.53543 2.84709 0
M  V30 3927 C 381.129 -5.82732 2.28417 0
M  V30 3928 H 381.362 -2.39247 1.76488 0
M  V30 3929 H 378.895 -1.16832 1.00944 0
M  V30 3930 H 380.853 -4.10468 -0.051026 0
M  V30 3931 H 379.514 -3.0806 -0.613028 0
M  V30 3932 H 378.707 -4.97024 0.835633 0
M  V30 3933 H 378.309 -3.39708 1.56443 0
M  V30 3934 H 380.601 -6.56677 1.66677 0
M  V30 3935 H 381.544 -6.33052 3.17256 0
M  V30 3936 H 381.952 -5.37838 1.71436 0
M  V30 3937 N 381.35 -0.985608 -1.22978 0
M  V30 3938 C 382.578 -0.675582 -1.95559 0
M  V30 3939 C 382.993 0.758413 -1.72897 0
M  V30 3940 O 382.35 1.51094 -1.02357 0
M  V30 3941 C 382.401 -0.96293 -3.48439 0
M  V30 3942 O 382.122 -2.34057 -3.70336 0
M  V30 3943 C 383.623 -0.669585 -4.38214 0
M  V30 3944 H 380.843 -0.250523 -0.622478 0
M  V30 3945 H 383.387 -1.3184 -1.56328 0
M  V30 3946 H 381.542 -0.366033 -3.85667 0
M  V30 3947 H 381.956 -2.43424 -4.64591 0
M  V30 3948 H 383.43 -0.920967 -5.44263 0
M  V30 3949 H 383.907 0.396383 -4.37408 0
M  V30 3950 H 384.513 -1.2472 -4.06602 0
M  V30 3951 N 382.828 1.3818 -0.7579 0
M  V30 3952 C 383.758 2.33027 -0.148597 0
M  V30 3953 C 384.739 1.55085 0.69875 0
M  V30 3954 O 385.924 1.83384 0.639053 0
M  V30 3955 C 383.054 3.3928 0.742034 0
M  V30 3956 C 382.008 4.28 -0.00291946 0
M  V30 3957 C 381.334 5.25146 1.00625 0
M  V30 3958 C 382.634 5.08938 -1.17385 0
M  V30 3959 H 384.328 2.84231 -0.940909 0
M  V30 3960 H 381.874 1.36659 -0.453908 0
M  V30 3961 H 383.827 4.046 1.17799 0
M  V30 3962 H 382.551 2.86569 1.56671 0
M  V30 3963 H 381.21 3.64192 -0.419504 0
M  V30 3964 H 380.858 4.68721 1.8251 0
M  V30 3965 H 380.558 5.85361 0.512428 0
M  V30 3966 H 382.082 5.93342 1.44143 0
M  V30 3967 H 383.496 5.67474 -0.815224 0
M  V30 3968 H 381.893 5.7841 -1.59882 0
M  V30 3969 H 382.963 4.42424 -1.98468 0
M  V30 3970 N 384.306 0.507319 1.49211 0
M  V30 3971 C 385.236 -0.256939 2.32082 0
M  V30 3972 C 386.217 -0.956609 1.40652 0
M  V30 3973 O 387.402 -0.946788 1.69557 0
M  V30 3974 C 384.532 -1.31802 3.21318 0
M  V30 3975 C 383.486 -0.737855 4.21592 0
M  V30 3976 C 382.812 -1.89992 4.99807 0
M  V30 3977 C 384.112 0.275325 5.21574 0
M  V30 3978 H 385.806 0.434798 2.96226 0
M  V30 3979 H 383.352 0.210546 1.42452 0
M  V30 3980 H 385.305 -1.86045 3.78107 0
M  V30 3981 H 384.029 -2.03903 2.5513 0
M  V30 3982 H 382.688 -0.217126 3.65956 0
M  V30 3983 H 382.336 -2.60877 4.30061 0
M  V30 3984 H 382.036 -1.51777 5.6766 0
M  V30 3985 H 383.56 -2.44657 5.59442 0
M  V30 3986 H 384.974 -0.179193 5.7302 0
M  V30 3987 H 383.371 0.573649 5.97352 0
M  V30 3988 H 384.441 1.18903 4.70096 0
M  V30 3989 N 385.784 -1.5574 0.241426 0
M  V30 3990 C 387.032 -1.98417 -0.384075 0
M  V30 3991 C 387.353 -1.13078 -1.58866 0
M  V30 3992 O 386.623 -0.212312 -1.94746 0
M  V30 3993 H 385.203 -0.732813 -0.144894 0
M  V30 3994 H 387.865 -1.9193 0.338943 0
M  V30 3995 H 386.961 -3.04219 -0.696939 0
M  V30 3996 N 387.262 0.0317525 -1.57568 0
M  V30 3997 C 388.212 1.04101 -2.02847 0
M  V30 3998 C 389.196 1.3219 -0.917317 0
M  V30 3999 O 390.388 1.31819 -1.18121 0
M  V30 4000 C 387.517 2.34295 -2.5092 0
M  V30 4001 C 386.603 2.09308 -3.68851 0
M  V30 4002 N 386.994 1.5437 -4.81667 0
M  V30 4003 C 385.292 2.39604 -3.76172 0
M  V30 4004 C 385.993 1.45126 -5.63306 0
M  V30 4005 N 384.969 1.92589 -5.08341 0
M  V30 4006 H 388.771 0.610217 -2.87495 0
M  V30 4007 H 386.285 0.238108 -1.60645 0
M  V30 4008 H 388.282 3.07404 -2.81617 0
M  V30 4009 H 386.942 2.78055 -1.67677 0
M  V30 4010 H 387.953 1.22678 -5.03161 0
M  V30 4011 H 384.63 2.86457 -3.03724 0
M  V30 4012 H 386.02 1.03163 -6.63933 0
M  V30 4013 N 388.74 1.54641 0.303973 0
M  V30 4014 C 389.989 1.7299 1.03717 0
M  V30 4015 C 390.302 0.521168 1.88529 0
M  V30 4016 O 391.508 0.586408 2.65092 0
M  V30 4017 C 389.964 3.06051 1.89369 0
M  V30 4018 C 389.572 4.34393 1.09574 0
M  V30 4019 C 391.316 3.3376 2.62306 0
M  V30 4020 C 389.223 5.58506 1.94486 0
M  V30 4021 H 388.153 0.64473 0.390947 0
M  V30 4022 H 390.804 1.81124 0.294328 0
M  V30 4023 H 389.186 2.91874 2.67629 0
M  V30 4024 H 390.36 4.59396 0.359485 0
M  V30 4025 H 388.675 4.13597 0.482324 0
M  V30 4026 H 391.272 4.23687 3.26181 0
M  V30 4027 H 391.615 2.52503 3.3098 0
M  V30 4028 H 392.148 3.48894 1.91097 0
M  V30 4029 H 388.887 6.42422 1.30287 0
M  V30 4030 H 388.407 5.37694 2.65792 0
M  V30 4031 H 390.086 5.95651 2.52605 0
M  V30 4032 N 390.218 -0.567019 1.47046 0
M  V30 4033 C 391.466 -1.322 1.52864 0
M  V30 4034 C 391.787 -1.94088 0.188388 0
M  V30 4035 O 391.057 -1.7941 -0.786693 0
M  V30 4036 H 389.637 -0.490894 0.563056 0
M  V30 4037 H 392.299 -0.662879 1.83281 0
M  V30 4038 H 391.395 -2.12062 2.2899 0
M  V30 4039 N 391.696 -1.35014 -0.812953 0
M  V30 4040 C 392.643 -1.27412 -1.92444 0
M  V30 4041 C 393.613 -0.14733 -1.65445 0
M  V30 4042 O 394.798 -0.329974 -1.87925 0
M  V30 4043 C 391.938 -1.04558 -3.28879 0
M  V30 4044 C 391.051 -2.26101 -3.68106 0
M  V30 4045 C 390.186 -1.96449 -4.9354 0
M  V30 4046 C 389.225 -3.14081 -5.25376 0
M  V30 4047 N 388.362 -2.84246 -6.41988 0
M  V30 4048 H 393.202 -2.22463 -1.98278 0
M  V30 4049 H 390.739 -1.10593 -0.969933 0
M  V30 4050 H 392.697 -0.893413 -4.07522 0
M  V30 4051 H 391.327 -0.131719 -3.22531 0
M  V30 4052 H 390.379 -2.52204 -2.84775 0
M  V30 4053 H 391.691 -3.13959 -3.87597 0
M  V30 4054 H 390.845 -1.78026 -5.79993 0
M  V30 4055 H 389.584 -1.05867 -4.76071 0
M  V30 4056 H 388.589 -3.33089 -4.37415 0
M  V30 4057 H 389.814 -4.05455 -5.44778 0
M  V30 4058 H 387.76 -1.96252 -6.25956 0
M  V30 4059 H 387.677 -3.65637 -6.61699 0
M  V30 4060 H 388.945 -2.6935 -7.31485 0
M  V30 4061 N 393.175 1.03435 -1.18907 0
M  V30 4062 C 394.422 1.76743 -0.988334 0
M  V30 4063 C 394.75 1.88447 0.481441 0
M  V30 4064 O 394.005 1.39383 1.37371 0
M  V30 4065 C 394.304 3.19792 -1.59586 0
M  V30 4066 C 393.97 3.28108 -3.09283 0
M  V30 4067 C 392.632 3.30084 -3.5014 0
M  V30 4068 C 394.984 3.27696 -4.05296 0
M  V30 4069 C 392.312 3.29299 -4.85571 0
M  V30 4070 C 394.664 3.28451 -5.4065 0
M  V30 4071 C 393.328 3.28723 -5.80946 0
M  V30 4072 H 392.598 0.64675 -0.361657 0
M  V30 4073 H 395.245 1.21442 -1.48068 0
M  V30 4074 H 393.55 3.78136 -1.02568 0
M  V30 4075 H 395.247 3.75171 -1.41589 0
M  V30 4076 H 391.837 3.27294 -2.76725 0
M  V30 4077 H 396.021 3.25354 -3.74778 0
M  V30 4078 H 391.277 3.2783 -5.16079 0
M  V30 4079 H 395.451 3.27082 -6.14809 0
M  V30 4080 H 393.078 3.27868 -6.85862 0
M  V30 4081 N 394.653 0.992116 1.22453 0
M  V30 4082 C 395.616 0.546883 2.2258 0
M  V30 4083 C 396.616 -0.369829 1.56489 0
M  V30 4084 O 397.806 -0.161896 1.73446 0
M  V30 4085 C 394.938 -0.204659 3.40285 0
M  V30 4086 H 396.131 1.43234 2.63484 0
M  V30 4087 H 393.684 0.779239 1.3549 0
M  V30 4088 H 394.419 -1.10614 3.04853 0
M  V30 4089 H 394.204 0.45354 3.89468 0
M  V30 4090 H 395.694 -0.504358 4.14543 0
M  V30 4091 N 396.131 -1.37776 0.765217 0
M  V30 4092 C 397.078 -2.30342 0.145274 0
M  V30 4093 C 398.048 -1.5077 -0.696971 0
M  V30 4094 O 399.233 -1.79362 -0.650689 0
M  V30 4095 C 396.373 -3.37227 -0.732939 0
M  V30 4096 C 395.486 -4.31819 0.125199 0
M  V30 4097 C 394.621 -5.25777 -0.757107 0
M  V30 4098 C 393.66 -6.12012 0.103963 0
M  V30 4099 N 392.797 -6.98232 -0.735953 0
M  V30 4100 H 397.637 -2.8278 0.940195 0
M  V30 4101 H 395.174 -1.39211 0.475255 0
M  V30 4102 H 397.132 -3.97818 -1.25686 0
M  V30 4103 H 395.762 -2.86171 -1.49353 0
M  V30 4104 H 394.814 -3.7259 0.766865 0
M  V30 4105 H 396.126 -4.92509 0.789683 0
M  V30 4106 H 395.28 -5.91541 -1.34776 0
M  V30 4107 H 394.019 -4.65481 -1.45529 0
M  V30 4108 H 393.024 -5.45233 0.707197 0
M  V30 4109 H 394.249 -6.74379 0.799381 0
M  V30 4110 H 392.195 -6.40472 -1.41887 0
M  V30 4111 H 392.112 -7.55891 -0.128624 0
M  V30 4112 H 393.38 -7.68393 -1.31121 0
M  V30 4113 N 397.609 -0.515225 -1.4894 0
M  V30 4114 C 398.539 0.244628 -2.32215 0
M  V30 4115 C 399.52 0.949136 -1.41157 0
M  V30 4116 O 400.705 0.937783 -1.70057 0
M  V30 4117 C 397.835 1.30096 -3.22013 0
M  V30 4118 C 396.789 0.715486 -4.21977 0
M  V30 4119 C 396.115 1.87339 -5.00808 0
M  V30 4120 C 397.415 -0.302982 -5.2142 0
M  V30 4121 H 399.109 -0.450501 -2.95991 0
M  V30 4122 H 396.655 -0.218098 -1.42339 0
M  V30 4123 H 398.608 1.84037 -3.79089 0
M  V30 4124 H 397.332 2.02547 -2.56207 0
M  V30 4125 H 395.991 0.197715 -3.66066 0
M  V30 4126 H 395.639 2.58592 -4.31438 0
M  V30 4127 H 395.339 1.48764 -5.68457 0
M  V30 4128 H 396.863 2.41686 -5.60732 0
M  V30 4129 H 398.277 0.148802 -5.73107 0
M  V30 4130 H 396.674 -0.60532 -5.97039 0
M  V30 4131 H 397.744 -1.21395 -4.69459 0
M  V30 4132 N 399.087 1.5561 -0.249682 0
M  V30 4133 C 400.312 2.03865 0.381305 0
M  V30 4134 C 400.737 1.12769 1.50548 0
M  V30 4135 O 400.095 0.121189 1.80895 0
M  V30 4136 C 400.143 3.50101 0.863816 0
M  V30 4137 O 399.247 3.62132 1.97318 0
M  V30 4138 H 398.588 0.658827 0.0827194 0
M  V30 4139 H 401.118 2.01105 -0.376552 0
M  V30 4140 H 401.128 3.90975 1.1663 0
M  V30 4141 H 399.803 4.1588 0.0411816 0
M  V30 4142 H 398.38 3.33155 1.67517 0
M  V30 4143 N 400.565 -0.0233959 1.57583 0
M  V30 4144 C 401.814 -0.712133 1.8871 0
M  V30 4145 C 402.127 -1.76217 0.848944 0
M  V30 4146 O 403.333 -2.50389 1.04964 0
M  V30 4147 C 401.789 -1.3177 3.3491 0
M  V30 4148 C 401.397 -0.303715 4.46969 0
M  V30 4149 C 403.141 -1.98598 3.75179 0
M  V30 4150 C 401.048 -0.917945 5.84233 0
M  V30 4151 H 399.978 -0.269735 0.704101 0
M  V30 4152 H 402.629 0.0333114 1.8347 0
M  V30 4153 H 401.011 -2.11304 3.34913 0
M  V30 4154 H 402.185 0.465325 4.58445 0
M  V30 4155 H 400.5 0.2628 4.1557 0
M  V30 4156 H 403.097 -2.45416 4.75053 0
M  V30 4157 H 403.44 -2.80659 3.07468 0
M  V30 4158 H 403.973 -1.25831 3.77374 0
M  V30 4159 H 400.712 -0.136633 6.55358 0
M  V30 4160 H 400.232 -1.65669 5.76467 0
M  V30 4161 H 401.911 -1.4236 6.31144 0
M  V30 4162 N 402.043 -1.548 -0.295768 0
M  V30 4163 C 403.291 -1.73985 -1.02828 0
M  V30 4164 C 403.612 -0.531406 -1.87619 0
M  V30 4165 O 402.882 0.454221 -1.90561 0
M  V30 4166 H 401.462 -0.641556 -0.382642 0
M  V30 4167 H 404.124 -1.92163 -0.325489 0
M  V30 4168 H 403.22 -2.63129 -1.67838 0
M  V30 4169 N 403.521 0.559213 -1.47345 0
M  V30 4170 C 404.77 1.31281 -1.53128 0
M  V30 4171 C 405.083 1.94602 -0.197344 0
M  V30 4172 O 406.289 2.71173 -0.133154 0
M  V30 4173 C 404.745 2.38051 -2.69925 0
M  V30 4174 C 404.353 1.8093 -4.0984 0
M  V30 4175 C 406.097 3.14604 -2.84999 0
M  V30 4176 C 404.004 2.85468 -5.1794 0
M  V30 4177 H 402.934 0.493614 -0.569966 0
M  V30 4178 H 405.585 0.594155 -1.73615 0
M  V30 4179 H 403.967 3.12822 -2.42814 0
M  V30 4180 H 405.141 1.12544 -4.46845 0
M  V30 4181 H 403.456 1.16967 -3.99634 0
M  V30 4182 H 406.053 3.92666 -3.62929 0
M  V30 4183 H 406.396 3.68665 -1.93369 0
M  V30 4184 H 406.929 2.46945 -3.1187 0
M  V30 4185 H 403.668 2.36264 -6.1144 0
M  V30 4186 H 403.188 3.52269 -4.85455 0
M  V30 4187 H 404.867 3.48996 -5.44803 0
M  V30 4188 N 404.999 1.35443 0.805782 0
M  V30 4189 C 406.246 1.28761 1.56291 0
M  V30 4190 C 406.574 -0.137747 1.94012 0
M  V30 4191 O 405.829 -1.1032 1.61642 0
M  V30 4192 C 406.128 2.14045 2.86216 0
M  V30 4193 C 405.794 3.62826 2.67709 0
M  V30 4194 C 404.456 4.0338 2.6237 0
M  V30 4195 C 406.808 4.57227 2.50186 0
M  V30 4196 C 404.136 5.36501 2.37451 0
M  V30 4197 C 406.488 5.90547 2.26797 0
M  V30 4198 C 405.152 6.30245 2.1988 0
M  V30 4199 H 404.422 0.471171 0.571908 0
M  V30 4200 H 407.069 1.67347 0.930974 0
M  V30 4201 H 405.374 1.68342 3.53791 0
M  V30 4202 H 407.071 2.0621 3.43917 0
M  V30 4203 H 403.661 3.30644 2.72713 0
M  V30 4204 H 407.845 4.2678 2.53323 0
M  V30 4205 H 403.101 5.66259 2.30567 0
M  V30 4206 H 407.275 6.63274 2.12228 0
M  V30 4207 H 404.902 7.33328 2.00333 0
M  V30 4208 N 406.477 -1.02803 1.19454 0
M  V30 4209 C 407.425 -2.13213 0.929673 0
M  V30 4210 C 408.419 -1.69011 -0.114806 0
M  V30 4211 O 409.625 -1.79967 0.0345147 0
M  V30 4212 H 406 -0.69662 0.28324 0
M  V30 4213 H 407.971 -2.32744 1.86743 0
M  V30 4214 C 406.72 -3.4429 0.485797 0
M  V30 4215 H 406.043 -3.7872 1.28105 0
M  V30 4216 H 407.483 -4.22638 0.339582 0
M  V30 4217 C 405.942 -3.27258 -0.800244 0
M  V30 4218 O 406.472 -3.55967 -1.86146 0
M  V30 4219 N 404.678 -2.80545 -0.75781 0
M  V30 4220 H 404.225 -2.57382 0.106039 0
M  V30 4221 H 404.183 -2.6953 -1.61867 0
M  V30 4222 N 407.956 -0.998596 -1.21925 0
M  V30 4223 C 409.184 -0.696286 -1.94832 0
M  V30 4224 C 409.599 0.740032 -1.73692 0
M  V30 4225 O 408.956 1.5 -1.03953 0
M  V30 4226 C 409.007 -0.999833 -3.47398 0
M  V30 4227 O 408.728 -2.37972 -3.67833 0
M  V30 4228 C 410.229 -0.716025 -4.37479 0
M  V30 4229 H 407.449 -0.257111 -0.619786 0
M  V30 4230 H 409.993 -1.33491 -1.54921 0
M  V30 4231 H 408.148 -0.406918 -3.85257 0
M  V30 4232 H 408.562 -2.48338 -4.61983 0
M  V30 4233 H 410.036 -0.978642 -5.43256 0
M  V30 4234 H 410.513 0.349968 -4.37803 0
M  V30 4235 H 411.119 -1.29025 -4.05256 0
M  V30 4236 N 409.434 1.37368 -0.772513 0
M  V30 4237 C 410.384 2.27613 -0.132823 0
M  V30 4238 C 411.368 1.46138 0.673247 0
M  V30 4239 O 412.56 1.68686 0.536095 0
M  V30 4240 C 409.689 3.35122 0.744864 0
M  V30 4241 C 408.775 4.24044 -0.0690771 0
M  V30 4242 N 409.166 4.93355 -1.1151 0
M  V30 4243 C 407.464 4.45731 0.154782 0
M  V30 4244 C 408.165 5.59 -1.60917 0
M  V30 4245 N 407.141 5.35737 -0.921222 0
M  V30 4246 H 410.943 2.78675 -0.933681 0
M  V30 4247 H 408.457 1.50494 -0.610342 0
M  V30 4248 H 410.454 3.98683 1.21892 0
M  V30 4249 H 409.114 2.85616 1.54446 0
M  V30 4250 H 410.125 4.95785 -1.49726 0
M  V30 4251 H 406.802 4.07096 0.926224 0
M  V30 4252 H 408.192 6.24395 -2.48153 0
M  V30 4253 N 410.912 0.523116 1.48665 0
M  V30 4254 C 411.86 -0.256859 2.31177 0
M  V30 4255 C 412.854 -0.94199 1.40794 0
M  V30 4256 O 414.06 -0.867157 1.57735 0
M  V30 4257 H 410.435 -0.1017 0.745091 0
M  V30 4258 H 412.406 0.458739 2.94853 0
M  V30 4259 C 411.155 -1.29503 3.22683 0
M  V30 4260 H 410.478 -0.777248 3.92172 0
M  V30 4261 H 411.918 -1.81233 3.83315 0
M  V30 4262 C 410.377 -2.32501 2.43813 0
M  V30 4263 O 410.907 -3.3881 2.15803 0
M  V30 4264 N 409.113 -2.05538 2.05432 0
M  V30 4265 H 408.66 -1.19104 2.28412 0
M  V30 4266 H 408.618 -2.74676 1.52973 0
M  V30 4267 N 412.39 -1.55475 0.257931 0
M  V30 4268 C 413.806 -1.59307 -0.0966563 0
M  V30 4269 C 414.006 -1.27514 -1.5602 0
M  V30 4270 O 413.062 -1.02774 -2.30637 0
M  V30 4271 C 414.375 -2.99552 0.262481 0
M  V30 4272 C 415.923 -3.1231 0.207683 0
M  V30 4273 C 416.398 -4.54793 0.541012 0
M  V30 4274 N 417.889 -4.6058 0.491921 0
M  V30 4275 C 418.624 -5.68825 0.722857 0
M  V30 4276 N 418.12 -6.85287 1.0175 0
M  V30 4277 N 419.913 -5.58296 0.652815 0
M  V30 4278 H 412.064 -1.74409 1.21224 0
M  V30 4279 H 414.327 -0.812424 0.48854 0
M  V30 4280 H 414.033 -3.27593 1.27967 0
M  V30 4281 H 413.907 -3.75019 -0.40508 0
M  V30 4282 H 416.294 -2.84044 -0.800195 0
M  V30 4283 H 416.375 -2.39095 0.909255 0
M  V30 4284 H 416.019 -4.83783 1.5465 0
M  V30 4285 H 415.949 -5.26285 -0.18216 0
M  V30 4286 H 418.44 -3.7691 0.273366 0
M  V30 4287 H 418.753 -7.63725 1.18084 0
M  V30 4288 H 417.098 -6.86945 1.05509 0
M  V30 4289 H 420.289 -4.66189 0.422592 0
M  V30 4290 H 420.462 -6.42582 0.836182 0
M  V30 4291 N 413.868 0.0150385 -1.57593 0
M  V30 4292 C 415.096 0.714395 -1.94175 0
M  V30 4293 C 415.511 1.68135 -0.858841 0
M  V30 4294 O 414.868 1.81766 0.163567 0
M  V30 4295 C 414.919 1.45933 -3.30735 0
M  V30 4296 O 414.64 0.531167 -4.34868 0
M  V30 4297 C 416.141 2.25456 -3.81686 0
M  V30 4298 H 413.361 0.199923 -0.640525 0
M  V30 4299 H 415.905 -0.0316096 -2.04476 0
M  V30 4300 H 414.06 2.15709 -3.21789 0
M  V30 4301 H 414.474 1.05509 -5.13778 0
M  V30 4302 H 415.948 2.731 -4.79709 0
M  V30 4303 H 416.425 3.07485 -3.13607 0
M  V30 4304 H 417.031 1.60727 -3.9376 0
M  V30 4305 N 415.346 1.54954 0.287554 0
M  V30 4306 C 416.309 1.86076 1.33823 0
M  V30 4307 C 417.309 0.734414 1.43049 0
M  V30 4308 O 418.499 1.00266 1.42452 0
M  V30 4309 C 415.631 2.05305 2.72144 0
M  V30 4310 H 416.824 2.79984 1.07465 0
M  V30 4311 H 414.377 1.47223 0.524902 0
M  V30 4312 H 415.112 1.1373 3.03704 0
M  V30 4313 H 414.897 2.873 2.66836 0
M  V30 4314 H 416.387 2.30706 3.48087 0
M  V30 4315 N 416.824 -0.551391 1.4764 0
M  V30 4316 C 418.101 -1.31229 1.45046 0
M  V30 4317 C 418.481 -2.10563 0.150527 0
M  V30 4318 O 417.829 -2.11374 -0.867956 0
M  V30 4319 C 418.039 -2.21189 2.69956 0
M  V30 4320 C 419.387 -2.82021 3.1741 0
M  V30 4321 O 420.411 -2.31488 2.70724 0
M  V30 4322 O 419.27 -3.73885 3.98588 0
M  V30 4323 H 416.364 -0.591193 0.578291 0
M  V30 4324 H 418.91 -0.569813 1.59847 0
M  V30 4325 H 417.682 -1.62207 3.56096 0
M  V30 4326 H 417.305 -3.02722 2.57769 0
M  V30 4327 N 418.302 -1.35869 -0.798587 0
M  V30 4328 C 419.53 -1.32722 -1.58722 0
M  V30 4329 C 419.945 0.0935631 -1.88568 0
M  V30 4330 O 419.302 1.04784 -1.49421 0
M  V30 4331 C 419.353 -2.13974 -2.91371 0
M  V30 4332 O 419.074 -3.50514 -2.62815 0
M  V30 4333 C 420.575 -2.18504 -3.85708 0
M  V30 4334 H 417.795 -0.45562 -0.492596 0
M  V30 4335 H 420.339 -1.78837 -0.991843 0
M  V30 4336 H 418.494 -1.71438 -3.47402 0
M  V30 4337 H 418.908 -3.92806 -3.47568 0
M  V30 4338 H 420.382 -2.79732 -4.75872 0
M  V30 4339 H 420.859 -1.18597 -4.22885 0
M  V30 4340 H 421.465 -2.61236 -3.35612 0
M  V30 4341 N 419.78 1.02168 -1.19998 0
M  V30 4342 C 421.196 1.27969 -0.953737 0
M  V30 4343 C 421.396 1.98079 0.369703 0
M  V30 4344 O 420.452 2.27306 1.09947 0
M  V30 4345 C 421.765 2.11971 -2.13281 0
M  V30 4346 C 423.313 2.25255 -2.17323 0
M  V30 4347 C 423.788 3.12632 -3.34702 0
M  V30 4348 N 425.279 3.2022 -3.34684 0
M  V30 4349 C 426.014 3.88039 -4.22153 0
M  V30 4350 N 425.51 4.58027 -5.19791 0
M  V30 4351 N 427.303 3.84511 -4.10009 0
M  V30 4352 H 419.454 0.550794 -2.05134 0
M  V30 4353 H 421.717 0.305683 -0.897364 0
M  V30 4354 H 421.423 1.67785 -3.09097 0
M  V30 4355 H 421.297 3.12699 -2.10949 0
M  V30 4356 H 423.684 2.68667 -1.22073 0
M  V30 4357 H 423.765 1.24053 -2.23706 0
M  V30 4358 H 423.409 2.69926 -4.30235 0
M  V30 4359 H 423.339 4.13909 -3.25556 0
M  V30 4360 H 425.83 2.70382 -2.64012 0
M  V30 4361 H 426.143 5.07429 -5.82868 0
M  V30 4362 H 424.488 4.56869 -5.23733 0
M  V30 4363 H 427.679 3.28978 -3.33003 0
M  V30 4364 H 427.852 4.3709 -4.78389 0
M  V30 4365 N 421.258 1.00505 1.21394 0
M  V30 4366 C 422.191 0.51032 2.22421 0
M  V30 4367 C 423.169 -0.436 1.56645 0
M  V30 4368 O 424.353 -0.358709 1.85055 0
M  V30 4369 C 421.48 -0.258733 3.3771 0
M  V30 4370 C 420.526 0.635395 4.2174 0
M  V30 4371 S 421.359 2.09783 4.92698 0
M  V30 4372 C 422.515 1.33862 6.11418 0
M  V30 4373 H 422.748 1.36637 2.64041 0
M  V30 4374 H 420.281 0.812991 1.31262 0
M  V30 4375 H 422.239 -0.696372 4.0455 0
M  V30 4376 H 420.9 -1.0902 2.94573 0
M  V30 4377 H 420.093 0.0430189 5.03982 0
M  V30 4378 H 419.695 1.01031 3.60095 0
M  V30 4379 H 421.987 0.612541 6.74725 0
M  V30 4380 H 422.93 2.13675 6.75092 0
M  V30 4381 H 423.338 0.846568 5.58116 0
M  V30 4382 N 422.737 -1.36956 0.779787 0
M  V30 4383 C 423.647 -2.33965 0.172491 0
M  V30 4384 C 424.663 -1.60574 -0.670222 0
M  V30 4385 O 425.839 -1.92617 -0.588263 0
M  V30 4386 C 422.904 -3.39761 -0.690173 0
M  V30 4387 C 421.965 -4.28964 0.169924 0
M  V30 4388 C 421.198 -5.29707 -0.651662 0
M  V30 4389 O 421.421 -5.38238 -1.88827 0
M  V30 4390 O 420.355 -6.01873 -0.0566264 0
M  V30 4391 H 424.181 -2.87647 0.974321 0
M  V30 4392 H 421.766 -1.39258 0.541078 0
M  V30 4393 H 423.648 -4.04471 -1.1824 0
M  V30 4394 H 422.323 -2.88394 -1.47006 0
M  V30 4395 H 421.23 -3.67326 0.708696 0
M  V30 4396 H 422.563 -4.83656 0.913085 0
M  V30 4397 N 424.215 -0.530993 -1.48385 0
M  V30 4398 C 425.178 0.220497 -2.28137 0
M  V30 4399 C 426.178 0.866851 -1.35434 0
M  V30 4400 O 427.368 0.726746 -1.58316 0
M  V30 4401 C 424.5 1.31921 -3.1434 0
M  V30 4402 H 425.693 -0.479714 -2.96038 0
M  V30 4403 H 423.246 -0.286968 -1.53643 0
M  V30 4404 H 423.981 2.05264 -2.51072 0
M  V30 4405 H 423.766 0.86085 -3.82533 0
M  V30 4406 H 425.256 1.84776 -3.74497 0
M  V30 4407 N 425.693 1.55336 -0.266172 0
M  V30 4408 C 426.94 1.99397 0.353158 0
M  V30 4409 C 427.268 1.15451 1.56529 0
M  V30 4410 O 426.523 0.209974 1.9457 0
M  V30 4411 C 426.822 3.48606 0.787957 0
M  V30 4412 C 426.488 4.49773 -0.318541 0
M  V30 4413 C 425.15 4.77158 -0.62239 0
M  V30 4414 C 427.502 5.10212 -1.06459 0
M  V30 4415 C 424.83 5.62251 -1.67602 0
M  V30 4416 C 427.182 5.96449 -2.10788 0
M  V30 4417 C 425.846 6.22158 -2.41817 0
M  V30 4418 H 425.116 0.729644 0.12923 0
M  V30 4419 H 427.763 1.87732 -0.37802 0
M  V30 4420 H 426.068 3.57701 1.59866 0
M  V30 4421 H 427.765 3.80098 1.27775 0
M  V30 4422 H 424.355 4.2854 -0.0715925 0
M  V30 4423 H 428.539 4.89086 -0.843098 0
M  V30 4424 H 423.795 5.80419 -1.92155 0
M  V30 4425 H 427.969 6.42317 -2.69076 0
M  V30 4426 H 425.596 6.87888 -3.23596 0
M  V30 4427 N 427.171 -0.0066808 1.57599 0
M  V30 4428 C 428.417 -0.693947 1.90558 0
M  V30 4429 C 428.75 -1.73792 0.866594 0
M  V30 4430 O 428.025 -1.94156 -0.115548 0
M  V30 4431 C 428.308 -1.34317 3.34112 0
M  V30 4432 C 428.161 -0.311189 4.48722 0
M  V30 4433 C 429.48 -2.27116 3.7697 0
M  V30 4434 H 426.599 -0.250803 0.693013 0
M  V30 4435 H 429.241 0.043242 1.89951 0
M  V30 4436 H 427.391 -1.9715 3.3476 0
M  V30 4437 H 429.063 0.316944 4.6021 0
M  V30 4438 H 427.306 0.367253 4.32243 0
M  V30 4439 H 427.977 -0.804366 5.46108 0
M  V30 4440 H 430.453 -1.74306 3.77831 0
M  V30 4441 H 429.329 -2.69511 4.78179 0
M  V30 4442 H 429.59 -3.14743 3.10466 0
M  V30 4443 N 428.649 -1.55105 -0.279332 0
M  V30 4444 C 429.879 -1.7917 -1.02867 0
M  V30 4445 C 430.287 -0.56204 -1.80659 0
M  V30 4446 O 429.63 0.478266 -1.77365 0
M  V30 4447 C 429.692 -2.96061 -2.03932 0
M  V30 4448 C 429.356 -4.33341 -1.45137 0
M  V30 4449 C 430.353 -5.12565 -0.870266 0
M  V30 4450 C 428.038 -4.79987 -1.48048 0
M  V30 4451 C 430.032 -6.36565 -0.326097 0
M  V30 4452 C 427.719 -6.03944 -0.932443 0
M  V30 4453 C 428.717 -6.8207 -0.356247 0
M  V30 4454 O 428.405 -8.03691 0.183412 0
M  V30 4455 H 428.137 -0.600796 -0.309872 0
M  V30 4456 H 430.691 -2.02932 -0.317468 0
M  V30 4457 H 428.921 -2.67975 -2.78794 0
M  V30 4458 H 430.61 -3.07506 -2.64943 0
M  V30 4459 H 431.376 -4.77661 -0.840521 0
M  V30 4460 H 427.255 -4.1919 -1.91835 0
M  V30 4461 H 430.799 -6.97489 0.124286 0
M  V30 4462 H 426.696 -6.3833 -0.959407 0
M  V30 4463 H 427.464 -8.18468 0.0721681 0
M  V30 4464 N 430.127 0.543554 -1.4793 0
M  V30 4465 C 431.357 1.32324 -1.58663 0
M  V30 4466 C 431.765 1.8766 -0.240896 0
M  V30 4467 O 431.108 1.66411 0.778011 0
M  V30 4468 C 431.17 2.52094 -2.56299 0
M  V30 4469 C 430.834 2.17944 -4.01683 0
M  V30 4470 C 431.831 1.74422 -4.89768 0
M  V30 4471 C 429.516 2.28884 -4.47121 0
M  V30 4472 C 431.51 1.42287 -6.21316 0
M  V30 4473 C 429.197 1.96361 -5.78693 0
M  V30 4474 C 430.195 1.53132 -6.65612 0
M  V30 4475 O 429.883 1.21029 -7.94737 0
M  V30 4476 H 429.615 0.409174 -0.538101 0
M  V30 4477 H 432.169 0.663887 -1.94375 0
M  V30 4478 H 430.399 3.20965 -2.15681 0
M  V30 4479 H 432.088 3.14165 -2.57012 0
M  V30 4480 H 432.854 1.65452 -4.55907 0
M  V30 4481 H 428.733 2.61488 -3.79664 0
M  V30 4482 H 432.277 1.08472 -6.89115 0
M  V30 4483 H 428.174 2.04967 -6.12094 0
M  V30 4484 H 428.942 1.34543 -8.07366 0
M  V30 4485 N 431.605 1.3629 0.791371 0
M  V30 4486 C 432.535 1.33137 1.91825 0
M  V30 4487 C 433.516 0.203168 1.68882 0
M  V30 4488 O 434.701 0.400509 1.90025 0
M  V30 4489 C 431.831 1.11793 3.28816 0
M  V30 4490 C 430.785 2.21417 3.66277 0
M  V30 4491 C 430.111 1.85218 5.01596 0
M  V30 4492 C 431.411 3.63489 3.75064 0
M  V30 4493 H 433.105 2.2743 1.9472 0
M  V30 4494 H 430.651 1.09479 0.935437 0
M  V30 4495 H 432.604 1.08222 4.07266 0
M  V30 4496 H 431.328 0.139501 3.26302 0
M  V30 4497 H 429.987 2.2411 2.90121 0
M  V30 4498 H 429.635 0.859544 4.95602 0
M  V30 4499 H 429.335 2.58611 5.27631 0
M  V30 4500 H 430.859 1.832 5.82469 0
M  V30 4501 H 432.273 3.63034 4.43711 0
M  V30 4502 H 430.67 4.35771 4.12582 0
M  V30 4503 H 431.74 3.98536 2.76219 0
M  V30 4504 N 433.083 -1.0153 1.20538 0
M  V30 4505 C 434.046 -2.0826 0.957098 0
M  V30 4506 C 435.046 -1.60657 -0.0678655 0
M  V30 4507 O 436.236 -1.73385 0.168332 0
M  V30 4508 C 433.368 -3.38033 0.441188 0
M  V30 4509 H 434.561 -2.31719 1.90384 0
M  V30 4510 H 432.114 -1.1835 1.02093 0
M  V30 4511 H 432.849 -3.20249 -0.510961 0
M  V30 4512 H 432.634 -3.73911 1.18038 0
M  V30 4513 H 434.124 -4.16613 0.287009 0
M  V30 4514 N 434.561 -1.01147 -1.20859 0
M  V30 4515 C 435.494 -0.522108 -2.22147 0
M  V30 4516 C 436.472 0.427686 -1.56874 0
M  V30 4517 O 437.656 0.34889 -1.85243 0
M  V30 4518 C 434.783 0.240819 -3.37843 0
M  V30 4519 C 433.829 -0.657752 -4.21398 0
M  V30 4520 S 434.662 -2.12393 -4.91578 0
M  V30 4521 C 435.818 -1.37102 -6.10699 0
M  V30 4522 H 436.051 -1.38035 -2.63313 0
M  V30 4523 H 433.584 -0.819941 -1.30829 0
M  V30 4524 H 435.542 0.674908 -4.04914 0
M  V30 4525 H 434.203 1.07457 -2.95147 0
M  V30 4526 H 433.396 -0.0697456 -5.03952 0
M  V30 4527 H 432.998 -1.0294 -3.59555 0
M  V30 4528 H 435.29 -0.648315 -6.74391 0
M  V30 4529 H 436.233 -2.17252 -6.73949 0
M  V30 4530 H 436.641 -0.876154 -5.57659 0
M  V30 4531 N 436.039 1.36541 -0.78704 0
M  V30 4532 C 436.989 2.27459 -0.156957 0
M  V30 4533 C 437.973 1.46843 0.657709 0
M  V30 4534 O 439.165 1.69245 0.518173 0
M  V30 4535 C 436.294 3.35893 0.709278 0
M  V30 4536 C 435.38 4.23947 -0.114049 0
M  V30 4537 N 435.771 4.92145 -1.16736 0
M  V30 4538 C 434.069 4.4587 0.107497 0
M  V30 4539 C 434.77 5.57261 -1.66837 0
M  V30 4540 N 433.746 5.3473 -0.977992 0
M  V30 4541 H 437.548 2.77669 -0.963185 0
M  V30 4542 H 435.062 1.49839 -0.62627 0
M  V30 4543 H 437.059 3.99953 1.17656 0
M  V30 4544 H 435.719 2.87238 1.51408 0
M  V30 4545 H 436.73 4.94169 -1.54976 0
M  V30 4546 H 433.407 4.08056 0.882994 0
M  V30 4547 H 434.797 6.21728 -2.54762 0
M  V30 4548 N 437.518 0.538854 1.48102 0
M  V30 4549 C 438.766 0.00798599 2.02098 0
M  V30 4550 C 439.087 -1.33922 1.41739 0
M  V30 4551 O 438.357 -1.86932 0.585934 0
M  V30 4552 H 436.937 -3.62179e-05 0.747 0
M  V30 4553 H 439.599 0.7047 1.81714 0
M  V30 4554 H 438.695 -0.0937672 3.11959 0
M  V30 4555 N 438.996 -1.55193 0.274407 0
M  V30 4556 C 439.959 -2.212 -0.600279 0
M  V30 4557 C 440.959 -1.18963 -1.08187 0
M  V30 4558 O 442.149 -1.43873 -0.982158 0
M  V30 4559 C 439.281 -2.87739 -1.82809 0
M  V30 4560 H 440.474 -2.9989 -0.0239682 0
M  V30 4561 H 438.027 -1.5628 0.0250192 0
M  V30 4562 H 438.762 -2.13058 -2.44493 0
M  V30 4563 H 438.547 -3.62658 -1.49069 0
M  V30 4564 H 440.037 -3.38171 -2.45011 0
M  V30 4565 N 440.474 -0.00167713 -1.576 0
M  V30 4566 C 441.751 0.719951 -1.81868 0
M  V30 4567 C 442.131 1.91895 -0.879747 0
M  V30 4568 O 441.479 2.28389 0.0711423 0
M  V30 4569 C 441.689 1.12409 -3.30402 0
M  V30 4570 C 443.037 1.52724 -3.96182 0
M  V30 4571 O 444.061 1.21784 -3.34734 0
M  V30 4572 O 442.92 2.10265 -5.04431 0
M  V30 4573 H 440.014 0.350707 -0.748955 0
M  V30 4574 H 442.56 -0.0272597 -1.69678 0
M  V30 4575 H 441.332 0.269532 -3.90371 0
M  V30 4576 H 440.955 1.93035 -3.47596 0
M  V30 4577 N 441.952 1.55251 0.271103 0
M  V30 4578 C 442.899 1.88261 1.33516 0
M  V30 4579 C 443.869 0.734296 1.48988 0
M  V30 4580 O 445.054 0.985741 1.63364 0
M  V30 4581 C 442.194 2.16168 2.69008 0
M  V30 4582 C 441.307 3.43678 2.61743 0
M  V30 4583 C 440.442 3.61276 3.89427 0
M  V30 4584 C 439.481 4.82472 3.7668 0
M  V30 4585 N 438.618 4.96717 4.96202 0
M  V30 4586 H 443.458 2.79015 1.04665 0
M  V30 4587 H 440.995 1.38137 0.505618 0
M  V30 4588 H 442.953 2.30349 3.47844 0
M  V30 4589 H 441.583 1.28646 2.96057 0
M  V30 4590 H 440.635 3.37959 1.74607 0
M  V30 4591 H 441.947 4.3265 2.48224 0
M  V30 4592 H 441.101 3.75284 4.76704 0
M  V30 4593 H 439.84 2.70492 4.05814 0
M  V30 4594 H 438.845 4.68465 2.87786 0
M  V30 4595 H 440.07 5.74692 3.61809 0
M  V30 4596 H 438.016 4.08865 5.12997 0
M  V30 4597 H 437.933 5.79738 4.85222 0
M  V30 4598 H 439.201 5.15113 5.85046 0
M  V30 4599 N 443.43 -0.535701 1.48216 0
M  V30 4600 C 444.377 -1.64083 1.62312 0
M  V30 4601 C 445.347 -1.59448 0.465365 0
M  V30 4602 O 446.532 -1.77959 0.688135 0
M  V30 4603 C 443.672 -3.0236 1.66349 0
M  V30 4604 C 442.785 -3.17273 2.93193 0
M  V30 4605 C 441.92 -4.46075 2.88427 0
M  V30 4606 C 440.959 -4.54496 4.1 0
M  V30 4607 N 440.096 -5.7468 4.03345 0
M  V30 4608 H 444.936 -1.51374 2.5669 0
M  V30 4609 H 442.473 -0.737059 1.27302 0
M  V30 4610 H 444.431 -3.82461 1.66672 0
M  V30 4611 H 443.061 -3.13854 0.754672 0
M  V30 4612 H 442.113 -2.30462 3.02641 0
M  V30 4613 H 443.425 -3.19357 3.83162 0
M  V30 4614 H 442.579 -5.3446 2.87119 0
M  V30 4615 H 441.318 -4.46504 1.96177 0
M  V30 4616 H 440.323 -3.64519 4.11589 0
M  V30 4617 H 441.548 -4.5581 5.03402 0
M  V30 4618 H 439.494 -5.76017 3.13912 0
M  V30 4619 H 439.411 -5.78234 4.87013 0
M  V30 4620 H 440.679 -6.65367 4.06087 0
M  V30 4621 N 444.908 -1.36708 -0.784132 0
M  V30 4622 C 446.136 -1.34398 -1.57305 0
M  V30 4623 C 446.551 0.0735577 -1.88657 0
M  V30 4624 O 445.908 1.03193 -1.50524 0
M  V30 4625 C 445.959 -2.17053 -2.89085 0
M  V30 4626 O 445.68 -3.53281 -2.59083 0
M  V30 4627 C 447.181 -2.22583 -3.83369 0
M  V30 4628 H 444.401 -0.460819 -0.487736 0
M  V30 4629 H 446.945 -1.79879 -0.972819 0
M  V30 4630 H 445.1 -1.75113 -3.45564 0
M  V30 4631 H 445.514 -3.9647 -3.43383 0
M  V30 4632 H 446.988 -2.84763 -4.72878 0
M  V30 4633 H 447.465 -1.23075 -4.21603 0
M  V30 4634 H 448.071 -2.64781 -3.32823 0
M  V30 4635 N 446.386 1.0089 -1.21074 0
M  V30 4636 C 447.635 1.74019 -1.01981 0
M  V30 4637 C 447.948 1.90408 0.447665 0
M  V30 4638 O 449.154 2.60707 0.757906 0
M  V30 4639 C 447.61 3.13026 -1.77603 0
M  V30 4640 C 447.218 3.04623 -3.28495 0
M  V30 4641 C 448.962 3.90312 -1.66904 0
M  V30 4642 C 446.869 4.38685 -3.96623 0
M  V30 4643 H 445.799 0.652422 -0.377971 0
M  V30 4644 H 448.45 1.12755 -1.44771 0
M  V30 4645 H 446.832 3.74878 -1.27604 0
M  V30 4646 H 448.006 2.52032 -3.85767 0
M  V30 4647 H 446.321 2.40827 -3.39693 0
M  V30 4648 H 448.918 4.8951 -2.15138 0
M  V30 4649 H 449.261 4.11558 -0.62658 0
M  V30 4650 H 449.794 3.35104 -2.14359 0
M  V30 4651 H 446.533 4.22641 -5.01054 0
M  V30 4652 H 446.053 4.91252 -3.4414 0
M  V30 4653 H 447.732 5.075 -4.01314 0
M  V30 4654 N 447.864 1.01787 1.20321 0
M  V30 4655 C 448.774 0.598898 2.26827 0
M  V30 4656 C 449.79 -0.36418 1.70146 0
M  V30 4657 O 450.966 -0.224812 2.00141 0
M  V30 4658 C 448.031 -0.0549769 3.46656 0
M  V30 4659 C 447.092 0.954205 4.18561 0
M  V30 4660 C 446.325 0.331439 5.3267 0
M  V30 4661 O 446.548 -0.86851 5.63749 0
M  V30 4662 O 445.482 1.0488 5.92692 0
M  V30 4663 H 449.308 1.48562 2.64883 0
M  V30 4664 H 446.893 0.787434 1.26964 0
M  V30 4665 H 448.775 -0.420102 4.19301 0
M  V30 4666 H 447.45 -0.915876 3.10473 0
M  V30 4667 H 446.357 1.37072 3.48083 0
M  V30 4668 H 447.69 1.78511 4.58688 0
M  V30 4669 N 449.342 -1.36122 0.79427 0
M  V30 4670 C 450.57 -2.03362 0.380989 0
M  V30 4671 C 450.985 -1.59881 -1.00416 0
M  V30 4672 O 450.342 -0.790515 -1.6449 0
M  V30 4673 C 450.393 -3.58804 0.440649 0
M  V30 4674 O 450.114 -4.007 1.77118 0
M  V30 4675 C 451.615 -4.43296 0.0186117 0
M  V30 4676 H 448.835 -0.652526 0.156367 0
M  V30 4677 H 451.379 -1.73998 1.07447 0
M  V30 4678 H 449.534 -3.8686 -0.204458 0
M  V30 4679 H 449.948 -4.95309 1.72538 0
M  V30 4680 H 451.422 -5.51887 0.111488 0
M  V30 4681 H 451.899 -4.2684 -1.03461 0
M  V30 4682 H 452.505 -4.20512 0.636395 0
M  V30 4683 N 450.82 -0.546701 -1.47814 0
M  V30 4684 C 452.066 -0.0187684 -2.02791 0
M  V30 4685 C 452.399 1.32338 -1.42128 0
M  V30 4686 O 451.674 1.85867 -0.573023 0
M  V30 4687 C 451.957 0.0854985 -3.59998 0
M  V30 4688 C 451.81 -1.283 -4.31114 0
M  V30 4689 C 453.129 0.80412 -4.32691 0
M  V30 4690 H 450.248 -0.0082946 -0.736953 0
M  V30 4691 H 452.89 -0.706962 -1.76358 0
M  V30 4692 H 451.04 0.671609 -3.82651 0
M  V30 4693 H 452.712 -1.91151 -4.19832 0
M  V30 4694 H 450.955 -1.86049 -3.91878 0
M  V30 4695 H 451.626 -1.16287 -5.39612 0
M  V30 4696 H 454.102 0.306576 -4.14969 0
M  V30 4697 H 452.978 0.846011 -5.42341 0
M  V30 4698 H 453.239 1.85802 -4.01161 0
M  V30 4699 N 452.299 1.55045 -0.282633 0
M  V30 4700 C 453.247 2.24254 0.617478 0
M  V30 4701 C 454.241 1.24215 1.15183 0
M  V30 4702 O 455.447 1.42123 1.10459 0
M  V30 4703 H 451.822 0.719801 0.217693 0
M  V30 4704 H 453.793 2.98398 0.0110076 0
M  V30 4705 C 452.542 2.98281 1.78672 0
M  V30 4706 H 451.865 3.75053 1.38475 0
M  V30 4707 H 453.305 3.50017 2.393 0
M  V30 4708 C 451.764 2.04184 2.67975 0
M  V30 4709 O 452.294 1.59792 3.6855 0
M  V30 4710 N 450.5 1.70526 2.35307 0
M  V30 4711 H 450.047 2.06821 1.53567 0
M  V30 4712 H 450.005 1.07839 2.95327 0
M  V30 4713 N 453.777 0.010035 1.57597 0
M  V30 4714 C 454.74 -0.963029 2.07986 0
M  V30 4715 C 455.74 -1.26619 0.991173 0
M  V30 4716 O 456.93 -1.2097 1.25347 0
M  V30 4717 C 454.062 -2.2851 2.52974 0
M  V30 4718 H 455.255 -0.526971 2.95234 0
M  V30 4719 H 452.808 -0.237639 1.54483 0
M  V30 4720 H 453.543 -2.76784 1.69 0
M  V30 4721 H 453.328 -2.07824 3.32493 0
M  V30 4722 H 454.818 -2.98294 2.9225 0
M  V30 4723 N 455.255 -1.55392 -0.262866 0
M  V30 4724 C 456.502 -1.76476 -0.993109 0
M  V30 4725 C 456.83 -0.571479 -1.85915 0
M  V30 4726 O 456.085 0.445733 -1.90556 0
M  V30 4727 C 456.384 -3.02889 -1.89718 0
M  V30 4728 C 456.05 -4.34974 -1.18781 0
M  V30 4729 C 454.712 -4.7087 -0.991699 0
M  V30 4730 C 457.064 -5.16695 -0.683798 0
M  V30 4731 C 454.392 -5.86036 -0.279024 0
M  V30 4732 C 456.744 -6.32598 0.0153327 0
M  V30 4733 C 455.408 -6.67127 0.223062 0
M  V30 4734 H 454.678 -0.64577 -0.363404 0
M  V30 4735 H 457.325 -1.89664 -0.264525 0
M  V30 4736 H 455.63 -2.84644 -2.6923 0
M  V30 4737 H 457.327 -3.16399 -2.46359 0
M  V30 4738 H 453.917 -4.06765 -1.35058 0
M  V30 4739 H 458.101 -4.8943 -0.8229 0
M  V30 4740 H 453.357 -6.11306 -0.107456 0
M  V30 4741 H 457.531 -6.95171 0.413584 0
M  V30 4742 H 455.158 -7.56216 0.777265 0
M  V30 4743 N 456.733 0.527833 -1.48498 0
M  V30 4744 C 457.663 1.64136 -1.66077 0
M  V30 4745 C 458.644 1.62286 -0.509625 0
M  V30 4746 O 459.829 1.79449 -0.742413 0
M  V30 4747 C 456.959 3.02717 -1.70234 0
M  V30 4748 C 455.913 3.19426 -2.8487 0
M  V30 4749 C 455.239 4.5909 -2.74118 0
M  V30 4750 C 456.539 3.01993 -4.26142 0
M  V30 4751 H 458.233 1.4968 -2.593 0
M  V30 4752 H 455.779 0.718654 -1.24785 0
M  V30 4753 H 457.732 3.80491 -1.8112 0
M  V30 4754 H 456.456 3.18201 -0.735911 0
M  V30 4755 H 455.115 2.4407 -2.73542 0
M  V30 4756 H 454.763 4.71413 -1.7544 0
M  V30 4757 H 454.463 4.71214 -3.51042 0
M  V30 4758 H 455.987 5.3896 -2.86974 0
M  V30 4759 H 457.401 3.69558 -4.38292 0
M  V30 4760 H 455.798 3.2561 -5.04082 0
M  V30 4761 H 456.868 1.98396 -4.42456 0
M  V30 4762 N 458.211 1.37122 0.776871 0
M  V30 4763 C 459.439 1.3523 1.5659 0
M  V30 4764 C 459.854 -0.0635518 1.88693 0
M  V30 4765 O 459.211 -1.02394 1.51069 0
M  V30 4766 C 459.262 2.18583 2.8793 0
M  V30 4767 O 458.983 3.5465 2.57206 0
M  V30 4768 C 460.484 2.24612 3.82183 0
M  V30 4769 H 457.704 0.4634 0.485285 0
M  V30 4770 H 460.248 1.80392 0.963266 0
M  V30 4771 H 458.403 1.76943 3.4463 0
M  V30 4772 H 458.817 3.98286 3.41275 0
M  V30 4773 H 460.291 2.87267 4.71361 0
M  V30 4774 H 460.768 1.25309 4.20944 0
M  V30 4775 H 461.374 2.66543 3.31414 0
M  V30 4776 N 459.689 -1.00246 1.21608 0
M  V30 4777 C 460.652 -2.07233 0.979133 0
M  V30 4778 C 461.652 -1.6072 -0.0508219 0
M  V30 4779 O 462.842 -1.73196 0.186712 0
M  V30 4780 C 459.974 -3.37546 0.477016 0
M  V30 4781 H 461.167 -2.29687 1.92831 0
M  V30 4782 H 458.72 -1.17261 1.03342 0
M  V30 4783 H 459.455 -3.20773 -0.476966 0
M  V30 4784 H 459.24 -3.72638 1.21997 0
M  V30 4785 H 460.73 -4.16285 0.331181 0
M  V30 4786 N 461.167 -1.02423 -1.1978 0
M  V30 4787 C 462.077 -0.610919 -2.26506 0
M  V30 4788 C 463.093 0.355152 -1.70337 0
M  V30 4789 O 464.269 0.214195 -2.00258 0
M  V30 4790 C 461.334 0.0365921 -3.46681 0
M  V30 4791 C 460.395 -0.976389 -4.18049 0
M  V30 4792 C 459.628 -0.359683 -5.32487 0
M  V30 4793 O 459.851 0.838601 -5.64202 0
M  V30 4794 O 458.785 -1.08022 -5.92127 0
M  V30 4795 H 462.611 -1.49965 -2.64091 0
M  V30 4796 H 460.196 -0.794156 -1.26545 0
M  V30 4797 H 462.078 0.39786 -4.19518 0
M  V30 4798 H 460.753 0.899398 -3.10954 0
M  V30 4799 H 459.66 -1.38916 -3.47352 0
M  V30 4800 H 460.993 -1.80941 -4.57735 0
M  V30 4801 N 462.645 1.35699 -0.801477 0
M  V30 4802 C 463.555 2.33661 -0.209691 0
M  V30 4803 C 464.571 1.6162 0.644591 0
M  V30 4804 O 465.747 1.93529 0.557545 0
M  V30 4805 C 462.812 3.40816 0.636033 0
M  V30 4806 C 461.873 4.28639 -0.238147 0
M  V30 4807 C 461.106 5.30676 0.567307 0
M  V30 4808 O 461.329 5.41174 1.8024 0
M  V30 4809 O 460.263 6.01887 -0.0391336 0
M  V30 4810 H 464.089 2.8606 -1.01996 0
M  V30 4811 H 461.674 1.38379 -0.563164 0
M  V30 4812 H 463.556 4.06301 1.11791 0
M  V30 4813 H 462.231 2.90696 1.42399 0
M  V30 4814 H 461.138 3.66152 -0.767044 0
M  V30 4815 H 462.471 4.82143 -0.989915 0
M  V30 4816 N 464.123 0.554532 1.47522 0
M  V30 4817 C 465.086 -0.184174 2.28459 0
M  V30 4818 C 466.086 -0.845195 1.36796 0
M  V30 4819 O 467.276 -0.701467 1.59452 0
M  V30 4820 C 464.408 -1.26903 3.16399 0
M  V30 4821 H 465.601 0.526751 2.95238 0
M  V30 4822 H 463.154 0.311375 1.53167 0
M  V30 4823 H 463.889 -2.01244 2.54306 0
M  V30 4824 H 463.674 -0.799883 3.83854 0
M  V30 4825 H 465.164 -1.78794 3.77389 0
M  V30 4826 N 465.601 -1.54893 0.290851 0
M  V30 4827 C 466.848 -1.99933 -0.321391 0
M  V30 4828 C 467.176 -1.17927 -1.54672 0
M  V30 4829 O 466.431 -0.240902 -1.94212 0
M  V30 4830 C 466.73 -3.49815 -0.732397 0
M  V30 4831 C 466.396 -4.4921 0.390056 0
M  V30 4832 C 465.058 -4.76107 0.698223 0
M  V30 4833 C 467.41 -5.08453 1.14562 0
M  V30 4834 C 464.738 -5.59514 1.76526 0
M  V30 4835 C 467.09 -5.9302 2.2025 0
M  V30 4836 C 465.754 -6.18232 2.51684 0
M  V30 4837 H 465.024 -0.731608 -0.117605 0
M  V30 4838 H 467.671 -1.87107 0.407839 0
M  V30 4839 H 465.976 -3.60199 -1.54155 0
M  V30 4840 H 467.673 -3.82083 -1.21712 0
M  V30 4841 H 464.263 -4.28372 0.13976 0
M  V30 4842 H 468.447 -4.87683 0.920801 0
M  V30 4843 H 463.703 -5.77289 2.01364 0
M  V30 4844 H 467.877 -6.37955 2.7926 0
M  V30 4845 H 465.504 -6.82653 3.34499 0
M  V30 4846 N 467.08 -0.0183926 -1.57589 0
M  V30 4847 C 468.028 0.985111 -2.10709 0
M  V30 4848 C 469.022 1.34397 -1.0312 0
M  V30 4849 O 470.228 1.32746 -1.21567 0
M  V30 4850 H 466.603 0.335418 -0.673052 0
M  V30 4851 H 468.574 0.511689 -2.9398 0
M  V30 4852 C 467.323 2.26202 -2.64061 0
M  V30 4853 H 466.646 1.9946 -3.4649 0
M  V30 4854 H 468.086 2.94652 -3.04887 0
M  V30 4855 C 466.545 2.98444 -1.5631 0
M  V30 4856 O 467.075 3.90142 -0.956674 0
M  V30 4857 N 465.281 2.6059 -1.28612 0
M  V30 4858 H 464.828 1.86101 -1.78112 0
M  V30 4859 H 464.786 3.09238 -0.567406 0
M  V30 4860 N 468.558 1.5553 0.254621 0
M  V30 4861 C 469.788 1.80784 1.00004 0
M  V30 4862 C 470.196 0.59071 1.79742 0
M  V30 4863 O 469.539 -0.449988 1.78103 0
M  V30 4864 C 469.601 2.99268 1.99196 0
M  V30 4865 C 469.265 4.35595 1.38224 0
M  V30 4866 C 470.262 5.13884 0.788611 0
M  V30 4867 C 467.947 4.82281 1.40393 0
M  V30 4868 C 469.941 6.37004 0.224783 0
M  V30 4869 C 467.628 6.05351 0.836243 0
M  V30 4870 C 468.626 6.82551 0.24769 0
M  V30 4871 O 468.314 8.03297 -0.311249 0
M  V30 4872 H 468.046 0.60565 0.300274 0
M  V30 4873 H 470.6 2.03411 0.285143 0
M  V30 4874 H 468.83 2.72377 2.74496 0
M  V30 4875 H 470.519 3.11682 2.60018 0
M  V30 4876 H 471.285 4.78938 0.764423 0
M  V30 4877 H 467.164 4.22189 1.85142 0
M  V30 4878 H 470.708 6.97203 -0.235235 0
M  V30 4879 H 466.605 6.39776 0.857733 0
M  V30 4880 H 467.373 8.1825 -0.20237 0
M  V30 4881 N 470.036 -0.519951 1.48776 0
M  V30 4882 C 470.966 -1.63253 1.66945 0
M  V30 4883 C 471.947 -1.62014 0.518224 0
M  V30 4884 O 473.132 -1.79053 0.751919 0
M  V30 4885 C 470.262 -3.0181 1.71836 0
M  V30 4886 C 469.216 -3.17911 2.8656 0
M  V30 4887 C 468.542 -4.5763 2.76548 0
M  V30 4888 C 469.842 -2.99729 4.27738 0
M  V30 4889 H 471.536 -1.48302 2.6009 0
M  V30 4890 H 469.082 -0.712026 1.25165 0
M  V30 4891 H 471.035 -3.79525 1.83135 0
M  V30 4892 H 469.759 -3.17806 0.752775 0
M  V30 4893 H 468.418 -2.42616 2.74833 0
M  V30 4894 H 468.066 -4.70476 1.77937 0
M  V30 4895 H 467.766 -4.69346 3.53536 0
M  V30 4896 H 469.29 -5.37431 2.89828 0
M  V30 4897 H 470.704 -3.67228 4.40246 0
M  V30 4898 H 469.101 -3.22932 5.05801 0
M  V30 4899 H 470.171 -1.96047 4.43502 0
M  V30 4900 N 471.514 -1.37532 -0.769588 0
M  V30 4901 C 472.76 -1.33057 -1.53048 0
M  V30 4902 C 473.093 0.0841865 -1.94017 0
M  V30 4903 O 472.368 1.04198 -1.64235 0
M  V30 4904 C 472.651 -2.27166 -2.79406 0
M  V30 4905 C 472.504 -3.77429 -2.44677 0
M  V30 4906 C 473.823 -2.19683 -3.81349 0
M  V30 4907 H 470.942 -0.484655 -0.555228 0
M  V30 4908 H 473.584 -1.68251 -0.882702 0
M  V30 4909 H 471.734 -1.97283 -3.34682 0
M  V30 4910 H 473.406 -4.17918 -1.953 0
M  V30 4911 H 471.649 -3.95892 -1.77346 0
M  V30 4912 H 472.32 -4.38716 -3.35011 0
M  V30 4913 H 474.796 -2.46029 -3.35573 0
M  V30 4914 H 473.672 -2.87668 -4.67481 0
M  V30 4915 H 473.933 -1.19045 -4.25771 0
M  V30 4916 N 472.992 0.995999 -1.22138 0
M  V30 4917 C 473.902 2.11985 -1.00496 0
M  V30 4918 C 474.918 1.7394 0.0457701 0
M  V30 4919 O 476.094 2.00868 -0.146273 0
M  V30 4920 C 473.159 3.41779 -0.582086 0
M  V30 4921 C 472.22 3.93943 -1.70608 0
M  V30 4922 C 471.453 5.17542 -1.30328 0
M  V30 4923 O 471.676 5.70114 -0.180743 0
M  V30 4924 O 470.61 5.63382 -2.11861 0
M  V30 4925 H 474.436 2.33123 -1.94647 0
M  V30 4926 H 472.021 1.10358 -1.00705 0
M  V30 4927 H 473.903 4.1989 -0.356467 0
M  V30 4928 H 472.578 3.22007 0.330592 0
M  V30 4929 H 471.485 3.17019 -1.98619 0
M  V30 4930 H 472.818 4.18141 -2.59651 0
M  V30 4931 N 474.47 1.03057 1.19235 0
M  V30 4932 C 475.418 0.606391 2.24557 0
M  V30 4933 C 476.412 -0.361826 1.65491 0
M  V30 4934 O 477.618 -0.23022 1.78522 0
M  V30 4935 H 473.993 0.177838 0.730669 0
M  V30 4936 H 475.964 1.50529 2.5765 0
M  V30 4937 C 474.713 -0.0252127 3.47691 0
M  V30 4938 H 474.036 0.710838 3.9343 0
M  V30 4939 H 475.476 -0.284931 4.23042 0
M  V30 4940 C 473.935 -1.27229 3.11953 0
M  V30 4941 O 474.465 -2.36416 3.24762 0
M  V30 4942 N 472.671 -1.16169 2.6637 0
M  V30 4943 H 472.218 -0.273189 2.56147 0
M  V30 4944 H 472.176 -1.99703 2.42829 0
M  V30 4945 N 475.948 -1.35272 0.808662 0
M  V30 4946 C 476.895 -2.29764 0.218482 0
M  V30 4947 C 477.865 -1.52911 -0.648652 0
M  V30 4948 O 479.05 -1.81341 -0.593297 0
M  V30 4949 C 476.19 -3.39388 -0.625282 0
M  V30 4950 C 475.303 -4.31202 0.262516 0
M  V30 4951 C 474.438 -5.27919 -0.589451 0
M  V30 4952 C 473.477 -6.11371 0.298617 0
M  V30 4953 N 472.614 -7.0022 -0.513443 0
M  V30 4954 H 477.454 -2.79645 1.02968 0
M  V30 4955 H 474.991 -1.37629 0.519303 0
M  V30 4956 H 476.949 -4.01615 -1.12966 0
M  V30 4957 H 475.579 -2.90777 -1.40173 0
M  V30 4958 H 474.631 -3.69962 0.885013 0
M  V30 4959 H 475.943 -4.89748 0.945971 0
M  V30 4960 H 475.097 -5.95529 -1.15888 0
M  V30 4961 H 473.836 -4.69875 -1.30647 0
M  V30 4962 H 472.841 -5.42707 0.880301 0
M  V30 4963 H 474.066 -6.71494 1.01352 0
M  V30 4964 H 472.012 -6.44662 -1.21439 0
M  V30 4965 H 471.929 -7.55917 0.111922 0
M  V30 4966 H 473.197 -7.72175 -1.06608 0
M  V30 4967 N 477.426 -0.562348 -1.47226 0
M  V30 4968 C 478.675 -0.038041 -2.01664 0
M  V30 4969 C 478.988 1.32199 -1.44162 0
M  V30 4970 O 480.194 1.9365 -1.90294 0
M  V30 4971 C 478.65 -0.0174958 -3.59896 0
M  V30 4972 C 478.258 -1.3746 -4.2639 0
M  V30 4973 C 480.002 0.453934 -4.22066 0
M  V30 4974 C 477.909 -1.31289 -5.76643 0
M  V30 4975 H 476.839 -0.0104511 -0.753928 0
M  V30 4976 H 479.49 -0.710966 -1.69167 0
M  V30 4977 H 477.872 0.721182 -3.89378 0
M  V30 4978 H 479.046 -2.1314 -4.08544 0
M  V30 4979 H 477.361 -1.78438 -3.7623 0
M  V30 4980 H 479.958 0.518584 -5.32179 0
M  V30 4981 H 480.301 1.46706 -3.89594 0
M  V30 4982 H 480.834 -0.230044 -3.97134 0
M  V30 4983 H 477.573 -2.30217 -6.13743 0
M  V30 4984 H 477.093 -0.597973 -5.96812 0
M  V30 4985 H 478.772 -1.01713 -6.38955 0
M  V30 4986 N 478.904 1.54736 -0.299062 0
M  V30 4987 C 479.814 2.27127 0.587413 0
M  V30 4988 C 480.83 1.30575 1.15005 0
M  V30 4989 O 482.006 1.63554 1.17525 0
M  V30 4990 C 479.071 2.99645 1.74395 0
M  V30 4991 C 478.132 4.11731 1.21559 0
M  V30 4992 C 477.365 4.80781 2.317 0
M  V30 4993 O 477.588 4.4918 3.51558 0
M  V30 4994 O 476.522 5.68226 1.98501 0
M  V30 4995 H 480.348 3.037 0.000250109 0
M  V30 4996 H 477.933 1.49256 -0.0655919 0
M  V30 4997 H 479.815 3.45138 2.4178 0
M  V30 4998 H 478.49 2.25969 2.31775 0
M  V30 4999 H 477.397 3.70641 0.507514 0
M  V30 5000 H 478.73 4.87379 0.687233 0
M  V30 5001 N 480.382 0.0267497 1.57577 0
M  V30 5002 C 481.315 -0.99059 2.05579 0
M  V30 5003 C 482.293 -1.31884 0.951065 0
M  V30 5004 O 483.477 -1.43592 1.22121 0
M  V30 5005 C 480.604 -2.31125 2.47586 0
M  V30 5006 C 479.65 -2.13777 3.69055 0
M  V30 5007 S 480.483 -1.4388 5.15809 0
M  V30 5008 C 481.639 -2.77321 5.6111 0
M  V30 5009 H 481.872 -0.581976 2.91548 0
M  V30 5010 H 479.405 -0.184876 1.53289 0
M  V30 5011 H 481.363 -3.07049 2.72454 0
M  V30 5012 H 480.024 -2.6912 1.61967 0
M  V30 5013 H 479.217 -3.11405 3.96287 0
M  V30 5014 H 478.819 -1.45996 3.44327 0
M  V30 5015 H 481.111 -3.73565 5.65204 0
M  V30 5016 H 482.054 -2.54756 6.60685 0
M  V30 5017 H 482.462 -2.82459 4.88751 0
M  V30 5018 N 481.861 -1.55662 -0.24637 0
M  V30 5019 C 483.11 -1.7672 -0.972254 0
M  V30 5020 C 483.423 -0.59078 -1.86465 0
M  V30 5021 O 484.629 -0.684391 -2.62732 0
M  V30 5022 C 483.085 -3.12869 -1.7788 0
M  V30 5023 C 482.693 -4.38161 -0.933768 0
M  V30 5024 C 484.437 -3.43265 -2.49738 0
M  V30 5025 C 482.344 -5.6534 -1.73623 0
M  V30 5026 H 481.274 -0.658795 -0.366749 0
M  V30 5027 H 483.925 -1.82092 -0.226902 0
M  V30 5028 H 482.307 -3.01606 -2.56612 0
M  V30 5029 H 483.481 -4.60413 -0.188736 0
M  V30 5030 H 481.796 -4.15102 -0.328488 0
M  V30 5031 H 484.393 -4.35501 -3.10231 0
M  V30 5032 H 484.736 -2.64614 -3.2138 0
M  V30 5033 H 485.269 -3.55746 -1.78016 0
M  V30 5034 H 482.008 -6.46814 -1.06354 0
M  V30 5035 H 481.528 -5.47188 -2.45653 0
M  V30 5036 H 483.207 -6.04616 -2.30323 0
M  V30 5037 N 483.339 0.512053 -1.4905 0
M  V30 5038 C 484.269 1.62365 -1.67809 0
M  V30 5039 C 485.25 1.61737 -0.526809 0
M  V30 5040 O 486.435 1.78651 -0.761404 0
M  V30 5041 C 483.565 3.00895 -1.73435 0
M  V30 5042 C 482.519 3.16387 -2.88242 0
M  V30 5043 C 481.845 4.56157 -2.78971 0
M  V30 5044 C 483.145 2.97457 -4.29321 0
M  V30 5045 H 484.839 1.46921 -2.60873 0
M  V30 5046 H 482.385 0.705379 -1.2554 0
M  V30 5047 H 484.338 3.78549 -1.85145 0
M  V30 5048 H 483.062 3.17403 -0.769619 0
M  V30 5049 H 481.721 2.41155 -2.76116 0
M  V30 5050 H 481.369 4.69525 -1.8043 0
M  V30 5051 H 481.069 4.67465 -3.5602 0
M  V30 5052 H 482.593 5.35886 -2.92675 0
M  V30 5053 H 484.007 3.64888 -4.42187 0
M  V30 5054 H 482.404 3.20245 -5.07507 0
M  V30 5055 H 483.474 1.93692 -4.44535 0
M  V30 5056 N 484.817 1.37938 0.762283 0
M  V30 5057 C 485.764 1.34467 1.87583 0
M  V30 5058 C 486.734 0.208633 1.64785 0
M  V30 5059 O 487.919 0.399494 1.86571 0
M  V30 5060 C 485.059 1.16692 3.24772 0
M  V30 5061 C 484.172 2.39608 3.59461 0
M  V30 5062 C 483.307 2.14631 4.85908 0
M  V30 5063 C 482.346 3.33364 5.13357 0
M  V30 5064 N 481.483 3.07877 6.30996 0
M  V30 5065 H 486.323 2.29669 1.89885 0
M  V30 5066 H 483.86 1.14116 0.928219 0
M  V30 5067 H 485.818 1.04405 4.03925 0
M  V30 5068 H 484.448 0.251333 3.2182 0
M  V30 5069 H 483.5 2.626 2.75219 0
M  V30 5070 H 484.812 3.28128 3.75678 0
M  V30 5071 H 483.966 1.99429 5.72986 0
M  V30 5072 H 482.705 1.23463 4.71814 0
M  V30 5073 H 481.71 3.49094 4.24751 0
M  V30 5074 H 482.935 4.25395 5.29354 0
M  V30 5075 H 480.881 2.19348 6.18241 0
M  V30 5076 H 480.798 3.89944 6.47673 0
M  V30 5077 H 482.066 2.96313 7.20985 0
M  V30 5078 N 486.295 -0.989507 1.22664 0
M  V30 5079 C 487.258 -2.06183 1.00106 0
M  V30 5080 C 488.258 -1.60765 -0.0337726 0
M  V30 5081 O 489.448 -1.72989 0.205072 0
M  V30 5082 C 486.58 -3.37021 0.51279 0
M  V30 5083 H 487.773 -2.27629 1.95256 0
M  V30 5084 H 485.326 -1.16158 1.0458 0
M  V30 5085 H 486.061 -3.21261 -0.442917 0
M  V30 5086 H 485.846 -3.71323 1.25942 0
M  V30 5087 H 487.336 -4.1591 0.375315 0
M  V30 5088 N 487.773 -1.03688 -1.18687 0
M  V30 5089 C 488.706 -0.569112 -2.2099 0
M  V30 5090 C 489.684 0.394315 -1.57746 0
M  V30 5091 O 490.868 0.309519 -1.85941 0
M  V30 5092 C 487.995 0.169104 -3.38278 0
M  V30 5093 C 487.041 -0.746989 -4.19908 0
M  V30 5094 S 487.874 -2.22773 -4.86963 0
M  V30 5095 C 489.03 -1.50025 -6.07654 0
M  V30 5096 H 489.263 -1.43589 -2.60326 0
M  V30 5097 H 486.796 -0.847507 -1.29061 0
M  V30 5098 H 488.754 0.588868 -4.06254 0
M  V30 5099 H 487.415 1.01172 -2.9736 0
M  V30 5100 H 486.608 -0.176626 -5.0369 0
M  V30 5101 H 486.21 -1.10543 -3.5729 0
M  V30 5102 H 488.502 -0.791217 -6.72864 0
M  V30 5103 H 489.445 -2.31498 -6.69189 0
M  V30 5104 H 489.853 -0.994245 -5.55675 0
M  V30 5105 N 489.251 1.34841 -0.815825 0
M  V30 5106 C 490.161 2.33425 -0.234462 0
M  V30 5107 C 491.177 1.62295 0.627413 0
M  V30 5108 O 492.353 1.94109 0.536987 0
M  V30 5109 C 489.418 3.41471 0.599849 0
M  V30 5110 C 488.479 4.28362 -0.283596 0
M  V30 5111 C 487.712 5.31248 0.51099 0
M  V30 5112 O 487.935 5.43056 1.7449 0
M  V30 5113 O 486.869 6.01812 -0.10297 0
M  V30 5114 H 490.695 2.84962 -1.05024 0
M  V30 5115 H 488.28 1.37774 -0.577809 0
M  V30 5116 H 490.162 4.07464 1.07475 0
M  V30 5117 H 488.837 2.9219 1.39308 0
M  V30 5118 H 487.744 3.65318 -0.805836 0
M  V30 5119 H 489.077 4.81066 -1.041 0
M  V30 5120 N 490.729 0.570148 1.46925 0
M  V30 5121 C 492.145 0.23087 1.57921 0
M  V30 5122 C 492.345 -1.26676 1.56702 0
M  V30 5123 O 491.401 -2.04774 1.47729 0
M  V30 5124 C 492.714 0.868973 2.8787 0
M  V30 5125 C 494.262 0.841397 3.01479 0
M  V30 5126 C 494.737 1.45881 4.34146 0
M  V30 5127 N 496.228 1.42258 4.40814 0
M  V30 5128 C 496.963 1.8698 5.42057 0
M  V30 5129 N 496.459 2.39618 6.50042 0
M  V30 5130 N 498.252 1.77972 5.33181 0
M  V30 5131 H 490.403 1.54301 1.45962 0
M  V30 5132 H 492.666 0.644224 0.69547 0
M  V30 5133 H 492.372 1.922 2.94537 0
M  V30 5134 H 492.246 0.369682 3.75384 0
M  V30 5135 H 494.633 -0.202973 2.94401 0
M  V30 5136 H 494.714 1.37858 2.15474 0
M  V30 5137 H 494.358 2.50231 4.4198 0
M  V30 5138 H 494.288 0.896958 5.18905 0
M  V30 5139 H 496.779 1.03768 3.63374 0
M  V30 5140 H 497.092 2.71633 7.23488 0
M  V30 5141 H 495.437 2.43636 6.50897 0
M  V30 5142 H 498.628 1.36617 4.4772 0
M  V30 5143 H 498.801 2.13143 6.11943 0
M  V30 5144 N 492.207 -1.54576 0.307264 0
M  V30 5145 C 493.455 -1.99867 -0.299574 0
M  V30 5146 C 493.776 -1.19714 -1.53927 0
M  V30 5147 O 493.046 -0.29472 -1.9367 0
M  V30 5148 H 491.626 -0.738299 -0.113683 0
M  V30 5149 H 494.288 -1.9032 0.420042 0
M  V30 5150 H 493.384 -3.06901 -0.567283 0
M  V30 5151 N 493.685 -0.035106 -1.57561 0
M  V30 5152 C 494.648 0.929819 -2.09492 0
M  V30 5153 C 495.648 1.25026 -1.01119 0
M  V30 5154 O 496.838 1.18961 -1.27255 0
M  V30 5155 C 493.97 2.24457 -2.56577 0
M  V30 5156 H 495.163 0.479935 -2.96035 0
M  V30 5157 H 492.716 0.213033 -1.54841 0
M  V30 5158 H 493.451 2.74061 -1.73382 0
M  V30 5159 H 493.236 2.02508 -3.35757 0
M  V30 5160 H 494.726 2.93607 -2.96959 0
M  V30 5161 N 495.163 1.55791 0.238111 0
M  V30 5162 C 496.073 1.94196 1.31625 0
M  V30 5163 C 497.089 0.843545 1.52185 0
M  V30 5164 O 498.265 1.1457 1.65637 0
M  V30 5165 C 495.33 2.2365 2.64918 0
M  V30 5166 C 494.391 3.46971 2.52804 0
M  V30 5167 C 493.624 3.7501 3.79741 0
M  V30 5168 O 493.847 3.04982 4.82019 0
M  V30 5169 O 492.781 4.68525 3.77846 0
M  V30 5170 H 496.607 2.86044 1.02043 0
M  V30 5171 H 494.192 1.42786 0.439603 0
M  V30 5172 H 496.074 2.43863 3.4367 0
M  V30 5173 H 494.749 1.34979 2.94215 0
M  V30 5174 H 493.656 3.32055 1.72309 0
M  V30 5175 H 494.989 4.35971 2.28451 0
M  V30 5176 N 496.642 -0.504142 1.49319 0
M  V30 5177 C 497.552 -1.63248 1.68486 0
M  V30 5178 C 498.568 -1.64488 0.567432 0
M  V30 5179 O 499.744 -1.82966 0.841749 0
M  V30 5180 C 496.809 -2.99627 1.74426 0
M  V30 5181 C 495.87 -3.09039 2.97982 0
M  V30 5182 C 495.103 -4.38913 3.0363 0
M  V30 5183 O 495.326 -5.27528 2.16958 0
M  V30 5184 O 494.26 -4.53231 3.96062 0
M  V30 5185 H 498.086 -1.50008 2.64067 0
M  V30 5186 H 495.671 -0.680086 1.33023 0
M  V30 5187 H 497.553 -3.80689 1.80705 0
M  V30 5188 H 496.228 -3.13136 0.820233 0
M  V30 5189 H 495.135 -2.27177 2.97223 0
M  V30 5190 H 496.468 -3.00456 3.89855 0
M  V30 5191 N 498.12 -1.38341 -0.754957 0
M  V30 5192 C 499.536 -1.19508 -1.05783 0
M  V30 5193 C 499.736 -0.0428005 -2.01455 0
M  V30 5194 O 498.792 0.611861 -2.44975 0
M  V30 5195 C 500.105 -2.52091 -1.63923 0
M  V30 5196 C 501.653 -2.58762 -1.76101 0
M  V30 5197 C 502.128 -3.91517 -2.37652 0
M  V30 5198 N 503.619 -3.93049 -2.45085 0
M  V30 5199 C 504.354 -4.9253 -2.93602 0
M  V30 5200 N 503.85 -6.02408 -3.42165 0
M  V30 5201 N 505.643 -4.79921 -2.92629 0
M  V30 5202 H 497.794 -2.1206 -0.120056 0
M  V30 5203 H 500.057 -0.94089 -0.11589 0
M  V30 5204 H 499.763 -3.36858 -1.01093 0
M  V30 5205 H 499.637 -2.70388 -2.63003 0
M  V30 5206 H 502.024 -1.74391 -2.38058 0
M  V30 5207 H 502.105 -2.44333 -0.757294 0
M  V30 5208 H 501.749 -4.76309 -1.76329 0
M  V30 5209 H 501.679 -4.03256 -3.38662 0
M  V30 5210 H 504.17 -3.13685 -2.10736 0
M  V30 5211 H 504.483 -6.74248 -3.77637 0
M  V30 5212 H 502.828 -6.0603 -3.40225 0
M  V30 5213 H 506.019 -3.93194 -2.54001 0
M  V30 5214 H 506.192 -5.57601 -3.30128 0
M  V30 5215 N 499.598 0.982988 -1.23187 0
M  V30 5216 C 500.847 1.71817 -1.05649 0
M  V30 5217 C 501.16 1.91315 0.407176 0
M  V30 5218 O 502.366 2.62256 0.702436 0
M  V30 5219 C 500.822 3.09188 -1.84203 0
M  V30 5220 C 500.43 2.97586 -3.34882 0
M  V30 5221 C 502.174 3.86684 -1.75146 0
M  V30 5222 C 500.081 4.30173 -4.05839 0
M  V30 5223 H 499.011 0.644258 -0.391724 0
M  V30 5224 H 501.662 1.09659 -1.4713 0
M  V30 5225 H 500.044 3.72087 -1.35527 0
M  V30 5226 H 501.218 2.43793 -3.91026 0
M  V30 5227 H 499.533 2.33567 -3.44725 0
M  V30 5228 H 502.13 4.84836 -2.25473 0
M  V30 5229 H 502.473 4.10136 -0.713737 0
M  V30 5230 H 503.006 3.30482 -2.21419 0
M  V30 5231 H 499.745 4.11918 -5.09906 0
M  V30 5232 H 499.265 4.83841 -3.54482 0
M  V30 5233 H 500.944 4.98873 -4.11989 0
M  V30 5234 N 501.076 1.04316 1.18135 0
M  V30 5235 C 502.023 0.636398 2.21853 0
M  V30 5236 C 502.993 -0.357039 1.62217 0
M  V30 5237 O 504.178 -0.250453 1.89149 0
M  V30 5238 C 501.318 0.00812779 3.45099 0
M  V30 5239 C 500.431 1.04933 4.19062 0
M  V30 5240 C 499.566 0.389313 5.29771 0
M  V30 5241 C 498.605 1.41544 5.9551 0
M  V30 5242 N 497.742 0.78021 6.97751 0
M  V30 5243 H 502.582 1.52536 2.56002 0
M  V30 5244 H 500.119 0.76304 1.25762 0
M  V30 5245 H 502.077 -0.373497 4.15525 0
M  V30 5246 H 500.707 -0.844336 3.11562 0
M  V30 5247 H 499.759 1.54888 3.47439 0
M  V30 5248 H 501.071 1.82862 4.64072 0
M  V30 5249 H 500.225 -0.0463805 6.06682 0
M  V30 5250 H 498.964 -0.422038 4.8587 0
M  V30 5251 H 497.969 1.86124 5.17337 0
M  V30 5252 H 499.194 2.22854 6.41493 0
M  V30 5253 H 497.14 -0.0107899 6.55999 0
M  V30 5254 H 497.057 1.49716 7.41027 0
M  V30 5255 H 498.325 0.368996 7.78626 0
M  V30 5256 N 502.554 -1.34406 0.822964 0
M  V30 5257 C 503.501 -2.29519 0.24284 0
M  V30 5258 C 504.471 -1.5359 -0.632397 0
M  V30 5259 O 505.656 -1.8196 -0.57403 0
M  V30 5260 C 502.796 -3.40032 -0.58925 0
M  V30 5261 C 501.909 -4.30899 0.308236 0
M  V30 5262 C 501.044 -5.28515 -0.533425 0
M  V30 5263 C 500.083 -6.1102 0.363444 0
M  V30 5264 N 499.22 -7.00725 -0.439147 0
M  V30 5265 H 504.06 -2.78537 1.05929 0
M  V30 5266 H 501.597 -1.3707 0.533872 0
M  V30 5267 H 503.555 -4.0279 -1.087 0
M  V30 5268 H 502.185 -2.92248 -1.37081 0
M  V30 5269 H 501.237 -3.69002 0.924203 0
M  V30 5270 H 502.549 -4.88717 0.997862 0
M  V30 5271 H 501.703 -5.96725 -1.09565 0
M  V30 5272 H 500.442 -4.71235 -1.25656 0
M  V30 5273 H 499.447 -5.41743 0.937812 0
M  V30 5274 H 500.672 -6.70381 1.08469 0
M  V30 5275 H 498.618 -6.45913 -1.14595 0
M  V30 5276 H 498.535 -7.55756 0.19209 0
M  V30 5277 H 499.803 -7.73263 -0.984124 0
M  V30 5278 N 504.032 -0.577932 -1.46621 0
M  V30 5279 C 505.262 -0.0670668 -2.06491 0
M  V30 5280 C 505.67 1.24119 -1.42798 0
M  V30 5281 O 505.013 1.76016 -0.525759 0
M  V30 5282 C 505.075 0.177995 -3.59059 0
M  V30 5283 C 504.739 -1.04394 -4.44917 0
M  V30 5284 C 505.736 -1.95479 -4.81751 0
M  V30 5285 C 503.421 -1.26444 -4.86125 0
M  V30 5286 C 505.415 -3.06965 -5.58615 0
M  V30 5287 C 503.102 -2.38237 -5.62749 0
M  V30 5288 C 504.1 -3.28327 -5.98908 0
M  V30 5289 O 503.788 -4.38179 -6.73984 0
M  V30 5290 H 503.52 -0.0523159 -0.673973 0
M  V30 5291 H 506.074 -0.796966 -1.89308 0
M  V30 5292 H 504.304 0.962451 -3.74531 0
M  V30 5293 H 505.993 0.636782 -4.00874 0
M  V30 5294 H 506.759 -1.79657 -4.50498 0
M  V30 5295 H 502.638 -0.572316 -4.57434 0
M  V30 5296 H 506.182 -3.77309 -5.86757 0
M  V30 5297 H 502.079 -2.54023 -5.93416 0
M  V30 5298 H 502.847 -4.36486 -6.92403 0
M  V30 5299 N 505.51 1.54411 -0.315457 0
M  V30 5300 C 506.44 2.27002 0.547039 0
M  V30 5301 C 507.421 1.27492 1.12605 0
M  V30 5302 O 508.606 1.5629 1.15269 0
M  V30 5303 C 505.736 3.02171 1.71201 0
M  V30 5304 C 504.69 4.0895 1.26268 0
M  V30 5305 C 504.016 4.71915 2.51396 0
M  V30 5306 C 505.316 5.20891 0.383419 0
M  V30 5307 H 507.01 2.99343 -0.0584517 0
M  V30 5308 H 504.556 1.4397 -0.0295527 0
M  V30 5309 H 506.509 3.51681 2.32161 0
M  V30 5310 H 505.233 2.27433 2.34397 0
M  V30 5311 H 503.892 3.60312 0.676062 0
M  V30 5312 H 503.54 3.93801 3.12937 0
M  V30 5313 H 503.24 5.44039 2.22026 0
M  V30 5314 H 504.764 5.24195 3.13133 0
M  V30 5315 H 506.178 5.66206 0.899082 0
M  V30 5316 H 504.575 5.99821 0.182857 0
M  V30 5317 H 505.645 4.81324 -0.587821 0
M  V30 5318 N 506.988 0.0434614 1.5754 0
M  V30 5319 C 507.935 -0.93356 2.11077 0
M  V30 5320 C 508.905 -1.31383 1.01626 0
M  V30 5321 O 510.09 -1.40465 1.29129 0
M  V30 5322 C 507.23 -2.20578 2.65404 0
M  V30 5323 C 506.343 -1.88068 3.88914 0
M  V30 5324 C 505.478 -3.09691 4.31584 0
M  V30 5325 C 504.517 -2.73067 5.47815 0
M  V30 5326 N 503.654 -3.87359 5.85574 0
M  V30 5327 H 508.494 -0.470118 2.94268 0
M  V30 5328 H 506.031 -0.220434 1.45439 0
M  V30 5329 H 507.989 -2.95011 2.94999 0
M  V30 5330 H 506.619 -2.64513 1.85021 0
M  V30 5331 H 505.671 -1.03816 3.6596 0
M  V30 5332 H 506.983 -1.57104 4.73413 0
M  V30 5333 H 506.137 -3.92431 4.62691 0
M  V30 5334 H 504.876 -3.43827 3.45882 0
M  V30 5335 H 503.881 -1.88742 5.16388 0
M  V30 5336 H 505.106 -2.40131 6.35227 0
M  V30 5337 H 503.052 -4.21311 5.02825 0
M  V30 5338 H 502.969 -3.60068 6.64746 0
M  V30 5339 H 504.237 -4.70761 6.21292 0
M  V30 5340 N 508.466 -1.55915 -0.229846 0
M  V30 5341 C 509.743 -1.6932 -0.979295 0
M  V30 5342 C 510.123 -0.588321 -2.02736 0
M  V30 5343 O 509.471 0.40586 -2.24867 0
M  V30 5344 C 509.681 -3.10305 -1.59724 0
M  V30 5345 C 511.029 -3.6945 -2.09264 0
M  V30 5346 O 512.053 -3.13214 -1.69633 0
M  V30 5347 O 510.912 -4.68072 -2.82082 0
M  V30 5348 H 508.006 -0.689314 -0.456919 0
M  V30 5349 H 510.552 -1.68238 -0.222283 0
M  V30 5350 H 509.324 -3.82177 -0.840039 0
M  V30 5351 H 508.947 -3.1547 -2.42001 0
M  V30 5352 N 509.944 0.496216 -1.49584 0
M  V30 5353 C 511.221 1.25755 -1.49816 0
M  V30 5354 C 511.601 2.09859 -0.228572 0
M  V30 5355 O 510.949 2.14449 0.788908 0
M  V30 5356 C 511.159 2.11017 -2.7798 0
M  V30 5357 C 512.507 2.70047 -3.27658 0
M  V30 5358 O 513.531 2.21281 -2.79129 0
M  V30 5359 O 512.39 3.58834 -4.1219 0
M  V30 5360 H 509.484 0.569322 -0.599834 0
M  V30 5361 H 512.03 0.510094 -1.61852 0
M  V30 5362 H 510.802 1.48879 -3.61871 0
M  V30 5363 H 510.425 2.92947 -2.68827 0
M  V30 5364 N 511.423 1.38739 0.74761 0
M  V30 5365 C 512.648 1.38702 1.54197 0
M  V30 5366 C 513.073 -0.019664 1.8809 0
M  V30 5367 O 512.431 -1.00333 1.51006 0
M  V30 5368 C 512.479 2.25492 2.814 0
M  V30 5369 O 511.583 1.67613 3.76802 0
M  V30 5370 H 510.924 0.472863 0.466151 0
M  V30 5371 H 513.454 1.82577 0.923413 0
M  V30 5372 H 513.464 2.39561 3.30264 0
M  V30 5373 H 512.139 3.27727 2.56062 0
M  V30 5374 H 510.716 1.62718 3.35526 0
M  V30 5375 N 512.901 -0.976442 1.23707 0
M  V30 5376 C 513.831 -2.08749 1.04624 0
M  V30 5377 C 514.812 -1.70057 -0.0380956 0
M  V30 5378 O 515.997 -1.93782 0.127308 0
M  V30 5379 C 513.127 -3.41335 0.640902 0
M  V30 5380 C 512.081 -3.93947 1.67302 0
M  V30 5381 C 511.407 -5.22774 1.12301 0
M  V30 5382 C 512.707 -4.22769 3.06697 0
M  V30 5383 H 514.401 -2.24972 1.97555 0
M  V30 5384 H 511.947 -1.08108 0.951247 0
M  V30 5385 H 513.9 -4.18489 0.494434 0
M  V30 5386 H 512.624 -3.24988 -0.324099 0
M  V30 5387 H 511.283 -3.18941 1.80755 0
M  V30 5388 H 510.931 -5.0278 0.148877 0
M  V30 5389 H 510.631 -5.58942 1.81267 0
M  V30 5390 H 512.155 -6.02546 0.988479 0
M  V30 5391 H 513.569 -4.90659 2.96524 0
M  V30 5392 H 511.966 -4.70147 3.72937 0
M  V30 5393 H 513.036 -3.29885 3.55392 0
M  V30 5394 N 514.379 -1.04941 -1.1758 0
M  V30 5395 C 515.604 -0.778253 -1.92245 0
M  V30 5396 C 516.029 0.659707 -1.76152 0
M  V30 5397 O 515.387 1.45803 -1.07755 0
M  V30 5398 C 515.435 -1.16051 -3.41416 0
M  V30 5399 O 514.539 -0.291153 -4.11371 0
M  V30 5400 H 513.88 -0.285619 -0.599431 0
M  V30 5401 H 516.41 -1.40159 -1.49052 0
M  V30 5402 H 516.42 -1.12619 -3.92149 0
M  V30 5403 H 515.095 -2.208 -3.52449 0
M  V30 5404 H 513.672 -0.385851 -3.70898 0
M  V30 5405 N 515.857 1.33968 -0.830081 0
M  V30 5406 C 517.106 1.97323 -0.417928 0
M  V30 5407 C 517.419 1.6652 1.02618 0
M  V30 5408 O 518.625 2.2342 1.54259 0
M  V30 5409 C 517.081 3.53099 -0.696359 0
M  V30 5410 C 516.689 3.92788 -2.15457 0
M  V30 5411 C 518.433 4.23049 -0.350724 0
M  V30 5412 C 516.34 5.41506 -2.37751 0
M  V30 5413 H 515.27 0.738409 -0.152541 0
M  V30 5414 H 517.921 1.52711 -1.01744 0
M  V30 5415 H 516.303 3.95991 -0.0265904 0
M  V30 5416 H 517.477 3.6098 -2.86408 0
M  V30 5417 H 515.792 3.35795 -2.46232 0
M  V30 5418 H 518.389 5.32403 -0.495036 0
M  V30 5419 H 518.732 4.10279 0.705476 0
M  V30 5420 H 519.265 3.85657 -0.975362 0
M  V30 5421 H 516.004 5.5927 -3.41903 0
M  V30 5422 H 515.524 5.74804 -1.7135 0
M  V30 5423 H 517.203 6.0828 -2.20465 0
M  V30 5424 N 517.335 0.585699 1.46312 0
M  V30 5425 C 518.751 0.247607 1.57668 0
M  V30 5426 C 518.951 -1.25007 1.58037 0
M  V30 5427 O 518.007 -2.03196 1.49893 0
M  V30 5428 C 519.32 0.899456 2.86933 0
M  V30 5429 C 520.868 0.873326 3.00569 0
M  V30 5430 C 521.343 1.50477 4.32574 0
M  V30 5431 N 522.834 1.46925 4.3928 0
M  V30 5432 C 523.569 1.92719 5.40044 0
M  V30 5433 N 523.065 2.46499 6.47464 0
M  V30 5434 N 524.858 1.83617 5.31264 0
M  V30 5435 H 517.009 1.55841 1.44317 0
M  V30 5436 H 519.272 0.651564 0.688599 0
M  V30 5437 H 518.978 1.95313 2.92482 0
M  V30 5438 H 518.852 0.409476 3.74971 0
M  V30 5439 H 521.239 -0.171736 2.946 0
M  V30 5440 H 521.32 1.40136 2.13999 0
M  V30 5441 H 520.964 2.54905 4.39302 0
M  V30 5442 H 520.894 0.951944 5.17924 0
M  V30 5443 H 523.385 1.07616 3.62253 0
M  V30 5444 H 523.698 2.79291 7.20567 0
M  V30 5445 H 522.043 2.50526 6.48276 0
M  V30 5446 H 525.234 1.41358 4.46246 0
M  V30 5447 H 525.407 2.19622 6.09648 0
M  V30 5448 N 518.813 -1.54241 0.323641 0
M  V30 5449 C 520.059 -2.00867 -0.279323 0
M  V30 5450 C 520.392 -1.21146 -1.5178 0
M  V30 5451 O 519.667 -0.29378 -1.92269 0
M  V30 5452 C 519.95 -3.54837 -0.613387 0
M  V30 5453 C 519.803 -4.45284 0.635803 0
M  V30 5454 C 521.122 -4.16186 -1.43099 0
M  V30 5455 H 518.241 -0.730177 -0.100049 0
M  V30 5456 H 520.883 -1.84829 0.440235 0
M  V30 5457 H 519.033 -3.68634 -1.22641 0
M  V30 5458 H 520.705 -4.43357 1.27406 0
M  V30 5459 H 518.948 -4.14956 1.26466 0
M  V30 5460 H 519.619 -5.5084 0.357597 0
M  V30 5461 H 522.095 -4.05964 -0.912814 0
M  V30 5462 H 520.971 -5.24031 -1.6335 0
M  V30 5463 H 521.232 -3.69516 -2.42715 0
M  V30 5464 N 520.291 -0.0518155 -1.57515 0
M  V30 5465 C 521.221 0.920283 -2.146 0
M  V30 5466 C 522.202 1.32406 -1.06783 0
M  V30 5467 O 523.387 1.39866 -1.34726 0
M  V30 5468 C 520.517 2.1949 -2.6915 0
M  V30 5469 C 519.471 1.93116 -3.81956 0
M  V30 5470 C 518.797 3.27037 -4.23026 0
M  V30 5471 C 520.097 1.25225 -5.07066 0
M  V30 5472 H 521.791 0.444801 -2.96077 0
M  V30 5473 H 519.337 0.212508 -1.42423 0
M  V30 5474 H 521.29 2.87894 -3.07725 0
M  V30 5475 H 520.014 2.69244 -1.84865 0
M  V30 5476 H 518.673 1.27123 -3.43854 0
M  V30 5477 H 518.321 3.74595 -3.3569 0
M  V30 5478 H 518.021 3.10189 -4.99056 0
M  V30 5479 H 519.545 3.96673 -4.64202 0
M  V30 5480 H 520.959 1.83666 -5.43083 0
M  V30 5481 H 519.356 1.18702 -5.88243 0
M  V30 5482 H 520.426 0.228382 -4.84362 0
M  V30 5483 N 521.769 1.56035 0.221574 0
M  V30 5484 C 523.018 1.78245 0.944016 0
M  V30 5485 C 523.331 0.620371 1.85501 0
M  V30 5486 O 524.537 0.726103 2.6161 0
M  V30 5487 C 522.993 3.15659 1.7288 0
M  V30 5488 C 522.601 4.39591 0.863942 0
M  V30 5489 C 524.345 3.47195 2.44246 0
M  V30 5490 C 522.252 5.6803 1.64607 0
M  V30 5491 H 521.182 0.664547 0.356222 0
M  V30 5492 H 523.833 1.8243 0.197904 0
M  V30 5493 H 522.215 3.0565 2.51781 0
M  V30 5494 H 523.389 4.60655 0.115464 0
M  V30 5495 H 521.704 4.15572 0.262407 0
M  V30 5496 H 524.301 4.40381 3.03263 0
M  V30 5497 H 524.644 2.69693 3.1713 0
M  V30 5498 H 525.177 3.58533 1.72334 0
M  V30 5499 H 521.916 6.48425 0.960507 0
M  V30 5500 H 521.436 5.51027 2.36917 0
M  V30 5501 H 523.115 6.08203 2.20675 0
M  V30 5502 N 523.247 -0.488276 1.49845 0
M  V30 5503 C 524.477 -1.26344 1.63465 0
M  V30 5504 C 524.885 -1.86637 0.310379 0
M  V30 5505 O 524.228 -1.69184 -0.715712 0
M  V30 5506 C 524.29 -2.42407 2.65479 0
M  V30 5507 C 523.954 -2.02886 4.09495 0
M  V30 5508 C 524.951 -1.56124 4.95904 0
M  V30 5509 C 522.636 -2.12131 4.55308 0
M  V30 5510 C 524.63 -1.19129 6.26169 0
M  V30 5511 C 522.317 -1.74747 5.85582 0
M  V30 5512 C 523.315 -1.28322 6.70837 0
M  V30 5513 O 523.003 -0.914491 7.98682 0
M  V30 5514 H 522.735 -0.388921 0.552916 0
M  V30 5515 H 525.289 -0.591288 1.96705 0
M  V30 5516 H 523.519 -3.12739 2.27445 0
M  V30 5517 H 525.208 -3.04409 2.68495 0
M  V30 5518 H 525.974 -1.48417 4.61733 0
M  V30 5519 H 521.853 -2.47217 3.89107 0
M  V30 5520 H 525.397 -0.828211 6.92666 0
M  V30 5521 H 521.294 -1.82109 6.19279 0
M  V30 5522 H 522.062 -1.04485 8.11804 0
M  V30 5523 N 524.725 -1.39134 -0.740242 0
M  V30 5524 C 525.95 -1.39518 -1.53459 0
M  V30 5525 C 526.375 0.00968883 -1.88098 0
M  V30 5526 O 525.733 0.995312 -1.51536 0
M  V30 5527 C 525.781 -2.26981 -2.802 0
M  V30 5528 O 524.885 -1.69609 -3.75908 0
M  V30 5529 H 524.226 -0.475328 -0.463637 0
M  V30 5530 H 526.756 -1.83064 -0.913717 0
M  V30 5531 H 526.766 -2.41309 -3.28989 0
M  V30 5532 H 525.441 -3.29081 -2.5432 0
M  V30 5533 H 524.018 -1.64495 -3.34658 0
M  V30 5534 N 526.204 0.969867 -1.24223 0
M  V30 5535 C 527.137 2.06279 -0.975926 0
M  V30 5536 C 528.115 1.62353 0.0895385 0
M  V30 5537 O 529.299 1.88442 -0.0469418 0
M  V30 5538 C 526.426 3.35391 -0.472315 0
M  V30 5539 C 525.472 3.98266 -1.526 0
M  V30 5540 S 526.305 4.36172 -3.10667 0
M  V30 5541 C 527.461 5.68423 -2.62003 0
M  V30 5542 H 527.694 2.28551 -1.90137 0
M  V30 5543 H 525.227 1.10748 -1.07584 0
M  V30 5544 H 527.185 4.10068 -0.188376 0
M  V30 5545 H 525.846 3.1111 0.432378 0
M  V30 5546 H 525.039 4.91307 -1.12399 0
M  V30 5547 H 524.641 3.30009 -1.75983 0
M  V30 5548 H 526.933 6.45842 -2.0468 0
M  V30 5549 H 527.876 6.13478 -3.53625 0
M  V30 5550 H 528.284 5.26928 -2.02502 0
M  V30 5551 N 527.682 1.05563 1.17022 0
M  V30 5552 C 528.629 0.659893 2.21165 0
M  V30 5553 C 529.599 -0.339813 1.62587 0
M  V30 5554 O 530.784 -0.230378 1.89404 0
M  V30 5555 C 527.924 0.0447297 3.45071 0
M  V30 5556 C 527.037 1.09372 4.17926 0
M  V30 5557 C 526.172 0.445481 5.29329 0
M  V30 5558 C 525.211 1.47852 5.93975 0
M  V30 5559 N 524.348 0.854172 6.96885 0
M  V30 5560 H 529.188 1.55243 2.54369 0
M  V30 5561 H 526.725 0.776336 1.24946 0
M  V30 5562 H 528.683 -0.329404 4.15898 0
M  V30 5563 H 527.313 -0.811244 3.1244 0
M  V30 5564 H 526.365 1.58564 3.45777 0
M  V30 5565 H 527.677 1.87773 4.62107 0
M  V30 5566 H 526.831 0.0179688 6.06697 0
M  V30 5567 H 525.57 -0.370481 4.86291 0
M  V30 5568 H 524.575 1.91601 5.15334 0
M  V30 5569 H 525.8 2.29645 6.39093 0
M  V30 5570 H 523.746 0.0587882 6.55974 0
M  V30 5571 H 523.663 1.57567 7.39397 0
M  V30 5572 H 524.931 0.451559 7.78191 0
M  V30 5573 N 529.16 -1.33526 0.837174 0
M  V30 5574 C 530.39 -2.01754 0.444848 0
M  V30 5575 C 530.798 -1.63149 -0.958072 0
M  V30 5576 O 530.141 -0.839827 -1.63379 0
M  V30 5577 C 530.203 -3.56228 0.483917 0
M  V30 5578 C 529.867 -4.18205 1.84265 0
M  V30 5579 C 530.864 -4.37699 2.80563 0
M  V30 5580 C 528.549 -4.54667 2.13503 0
M  V30 5581 C 530.543 -4.928 4.04261 0
M  V30 5582 C 528.23 -5.09475 3.37458 0
M  V30 5583 C 529.228 -5.28488 4.32654 0
M  V30 5584 O 528.916 -5.82132 5.54417 0
M  V30 5585 H 528.648 -0.652928 0.175104 0
M  V30 5586 H 531.202 -1.71469 1.13082 0
M  V30 5587 H 529.432 -3.85833 -0.258826 0
M  V30 5588 H 531.121 -4.05752 0.109653 0
M  V30 5589 H 531.887 -4.0988 2.59274 0
M  V30 5590 H 527.766 -4.39164 1.40201 0
M  V30 5591 H 531.31 -5.07555 4.78574 0
M  V30 5592 H 527.207 -5.36725 3.58604 0
M  V30 5593 H 527.975 -6.00548 5.56133 0
M  V30 5594 N 530.638 -0.59345 -1.46 0
M  V30 5595 C 531.886 -0.082988 -2.0193 0
M  V30 5596 C 532.207 1.28569 -1.46612 0
M  V30 5597 O 531.477 1.84629 -0.654909 0
M  V30 5598 H 530.057 -0.0276882 -0.746487 0
M  V30 5599 H 532.719 -0.771657 -1.78973 0
M  V30 5600 H 531.815 -0.022079 -3.12092 0
M  V30 5601 N 532.116 1.54067 -0.331816 0
M  V30 5602 C 533.046 2.27569 0.522932 0
M  V30 5603 C 534.027 1.28679 1.11247 0
M  V30 5604 O 535.212 1.57504 1.13605 0
M  V30 5605 C 532.342 3.0397 1.67987 0
M  V30 5606 C 531.296 4.10267 1.21924 0
M  V30 5607 C 530.622 4.74555 2.46377 0
M  V30 5608 C 531.922 5.21268 0.32815 0
M  V30 5609 H 533.616 2.99264 -0.0901977 0
M  V30 5610 H 531.162 1.4393 -0.044821 0
M  V30 5611 H 533.115 3.54123 2.28418 0
M  V30 5612 H 531.839 2.29906 2.31971 0
M  V30 5613 H 530.498 3.61009 0.637809 0
M  V30 5614 H 530.146 3.97098 3.08743 0
M  V30 5615 H 529.846 5.46363 2.16243 0
M  V30 5616 H 531.37 5.27487 3.07555 0
M  V30 5617 H 532.784 5.67128 0.838978 0
M  V30 5618 H 531.181 5.99982 0.119228 0
M  V30 5619 H 532.251 4.80673 -0.638839 0
M  V30 5620 N 533.594 0.0601682 1.57485 0
M  V30 5621 C 534.843 -0.611101 1.9222 0
M  V30 5622 C 535.156 -1.71469 0.941159 0
M  V30 5623 O 536.362 -2.44473 1.18089 0
M  V30 5624 C 534.818 -1.13832 3.41424 0
M  V30 5625 C 534.426 -0.0663596 4.47951 0
M  V30 5626 C 536.17 -1.78432 3.85178 0
M  V30 5627 C 534.077 -0.606965 5.88277 0
M  V30 5628 H 533.007 -0.232033 0.71741 0
M  V30 5629 H 535.658 0.130518 1.83035 0
M  V30 5630 H 534.04 -1.93254 3.45643 0
M  V30 5631 H 535.214 0.707682 4.55333 0
M  V30 5632 H 533.529 0.482715 4.13593 0
M  V30 5633 H 536.126 -2.1989 4.87394 0
M  V30 5634 H 536.469 -2.63966 3.21913 0
M  V30 5635 H 537.002 -1.05651 3.83514 0
M  V30 5636 H 533.741 0.21095 6.5516 0
M  V30 5637 H 533.261 -1.34879 5.84438 0
M  V30 5638 H 534.94 -1.08704 6.37803 0
M  V30 5639 N 535.072 -1.5615 -0.213296 0
M  V30 5640 C 535.982 -1.96265 -1.28519 0
M  V30 5641 C 536.998 -0.86765 -1.50824 0
M  V30 5642 O 538.174 -1.17191 -1.63793 0
M  V30 5643 C 535.239 -2.27836 -2.61327 0
M  V30 5644 C 534.3 -3.50949 -2.47252 0
M  V30 5645 C 533.533 -3.81004 -3.73727 0
M  V30 5646 O 533.756 -3.12612 -4.77106 0
M  V30 5647 O 532.69 -4.74477 -3.70344 0
M  V30 5648 H 536.516 -2.87631 -0.974795 0
M  V30 5649 H 534.101 -1.43467 -0.416832 0
M  V30 5650 H 535.983 -2.49299 -3.39747 0
M  V30 5651 H 534.658 -1.39643 -2.9203 0
M  V30 5652 H 533.565 -3.34754 -1.67004 0
M  V30 5653 H 534.898 -4.39551 -2.21486 0
M  V30 5654 O 536.589 0.35868 -1.57467 0
M  V30 5655 H 537.28 1.00907 -1.6534 0
M  V30 END ATOM
M  V30 BEGIN BOND
M  V30 END BOND
M  V30 END CTAB
M  END
$$$$
