drugbank_target|P61949 Flavodoxin-1 (DB03247)
 OpenBabel12092120273D

  0  0  0     0  0            999 V3000
M  V30 BEGIN CTAB
M  V30 COUNTS 2702 2734 0 0 0
M  V30 BEGIN ATOM
M  V30 1 H -0.908 1.98254 -0.117106 0
M  V30 2 N 0 1.576 0 0
M  V30 3 C 0.933 2.03868 1.02534 0
M  V30 4 C 1.911 0.928543 1.3348 0
M  V30 5 O 3.095 1.19667 1.45644 0
M  V30 6 C 0.222 2.43627 2.35294 0
M  V30 7 C -0.732 3.65373 2.2001 0
M  V30 8 S 0.101 5.13292 1.52614 0
M  V30 9 C 1.257 5.56322 2.86805 0
M  V30 10 H 1.49 2.90518 0.631377 0
M  V30 11 H -0.977 1.52953 0.210867 0
M  V30 12 H 0.981 2.67203 3.11629 0
M  V30 13 H -0.358 1.57376 2.7183 0
M  V30 14 H -1.165 3.90944 3.18086 0
M  V30 15 H -1.563 3.418 1.51819 0
M  V30 16 H 0.729 5.58782 3.83104 0
M  V30 17 H 1.672 6.56266 2.65933 0
M  V30 18 H 2.08 4.83886 2.90714 0
M  V30 19 N 1.4781 -0.272755 1.55222 0
M  V30 20 C 2.4411 -1.32041 1.87344 0
M  V30 21 C 3.4411 -1.42342 0.74803 0
M  V30 22 O 4.6311 -1.41488 1.0162 0
M  V30 23 C 1.7631 -2.70173 2.07893 0
M  V30 24 H 2.9561 -1.04789 2.80997 0
M  V30 25 H 0.5091 -0.51083 1.47717 0
M  V30 26 H 1.2441 -3.02605 1.16622 0
M  V30 27 H 1.0291 -2.64082 2.89833 0
M  V30 28 H 2.5191 -3.45869 2.34017 0
M  V30 29 N 2.9562 -1.48159 -0.537278 0
M  V30 30 C 4.2052 -1.5506 -1.28993 0
M  V30 31 C 4.5182 -0.226211 -1.94288 0
M  V30 32 O 5.7242 -0.173395 -2.70946 0
M  V30 33 C 4.1802 -2.73429 -2.34018 0
M  V30 34 C 3.7882 -4.1248 -1.74825 0
M  V30 35 C 5.5322 -2.89638 -3.10339 0
M  V30 36 C 3.4392 -5.22121 -2.77747 0
M  V30 37 H 2.3692 -0.577231 -0.485098 0
M  V30 38 H 5.0202 -1.74478 -0.568317 0
M  V30 39 H 3.4022 -2.47431 -3.09182 0
M  V30 40 H 4.5762 -4.48466 -1.05899 0
M  V30 41 H 2.8912 -4.01327 -1.11022 0
M  V30 42 H 5.4882 -3.68718 -3.87235 0
M  V30 43 H 5.8312 -1.9882 -3.65754 0
M  V30 44 H 6.3642 -3.15502 -2.42288 0
M  V30 45 H 3.1032 -6.1488 -2.27161 0
M  V30 46 H 2.6232 -4.90631 -3.45024 0
M  V30 47 H 4.3022 -5.49924 -3.4087 0
M  V30 48 N 4.4343 0.785586 -1.36625 0
M  V30 49 C 5.6623 1.57448 -1.3423 0
M  V30 50 C 6.0773 1.88649 0.0755653 0
M  V30 51 O 5.4343 1.50414 1.03354 0
M  V30 52 C 5.4853 2.89316 -2.16745 0
M  V30 53 O 5.2063 2.59459 -3.53005 0
M  V30 54 C 6.7073 3.83606 -2.22174 0
M  V30 55 H 3.9273 0.488226 -0.4603 0
M  V30 56 H 6.4713 0.974733 -1.79775 0
M  V30 57 H 4.6263 3.4575 -1.74745 0
M  V30 58 H 5.0403 3.43804 -3.96105 0
M  V30 59 H 6.5143 4.73181 -2.8426 0
M  V30 60 H 6.9913 4.21734 -1.22627 0
M  V30 61 H 7.5973 3.33104 -2.64427 0
M  V30 62 N 5.9124 1.20967 1.01018 0
M  V30 63 C 7.1604 1.02172 1.74371 0
M  V30 64 C 7.4814 -0.446414 1.89821 0
M  V30 65 O 6.7514 -1.32234 1.44537 0
M  V30 66 H 5.3314 0.375066 0.646014 0
M  V30 67 H 7.9934 1.52187 1.21758 0
M  V30 68 H 7.0894 1.48538 2.74487 0
M  V30 69 N 7.3905 -1.2043 1.01659 0
M  V30 70 C 8.6395 -1.89118 0.701237 0
M  V30 71 C 8.9525 -1.79705 -0.772358 0
M  V30 72 O 10.1585 -2.43528 -1.20026 0
M  V30 73 C 8.6145 -3.39168 1.20388 0
M  V30 74 C 8.2225 -3.57166 2.70438 0
M  V30 75 C 9.9665 -4.1341 0.963953 0
M  V30 76 C 7.8735 -5.01042 3.14183 0
M  V30 77 H 6.8035 -0.708267 0.2586 0
M  V30 78 H 9.4545 -1.36239 1.22927 0
M  V30 79 H 7.8365 -3.91369 0.603824 0
M  V30 80 H 9.0105 -3.15351 3.35992 0
M  V30 81 H 7.3255 -2.96294 2.92572 0
M  V30 82 H 9.9225 -5.19491 1.26621 0
M  V30 83 H 10.2655 -4.16181 -0.099578 0
M  V30 84 H 10.7985 -3.67309 1.52738 0
M  V30 85 H 7.5375 -5.03426 4.19812 0
M  V30 86 H 7.0575 -5.43668 2.53348 0
M  V30 87 H 8.7365 -5.69623 3.0682 0
M  V30 88 N 8.8686 -0.792821 -1.36206 0
M  V30 89 C 10.1156 -0.366786 -1.99151 0
M  V30 90 C 10.4436 1.06243 -1.62919 0
M  V30 91 O 9.6986 1.74927 -0.877442 0
M  V30 92 C 9.9976 -0.481501 -3.54142 0
M  V30 93 C 9.6636 -1.87202 -4.10203 0
M  V30 94 C 8.3256 -2.25248 -4.25226 0
M  V30 95 C 10.6776 -2.78237 -4.40719 0
M  V30 96 C 8.0056 -3.53723 -4.68078 0
M  V30 97 C 10.3576 -4.06144 -4.85005 0
M  V30 98 C 9.0216 -4.44207 -4.98234 0
M  V30 99 H 8.2916 -0.134217 -0.728743 0
M  V30 100 H 10.9386 -1.01094 -1.62641 0
M  V30 101 H 9.2436 0.246146 -3.91026 0
M  V30 102 H 10.9406 -0.132844 -4.0078 0
M  V30 103 H 7.5306 -1.56639 -3.98951 0
M  V30 104 H 11.7146 -2.50097 -4.28679 0
M  V30 105 H 6.9706 -3.8308 -4.76508 0
M  V30 106 H 11.1446 -4.76796 -5.07581 0
M  V30 107 H 8.7716 -5.43814 -5.31197 0
M  V30 108 N 10.3467 1.47872 -0.545128 0
M  V30 109 C 11.5937 2.02493 -0.0165858 0
M  V30 110 C 11.9217 1.42073 1.32836 0
M  V30 111 O 11.1767 0.561459 1.87473 0
M  V30 112 C 11.4757 3.57131 0.13867 0
M  V30 113 C 11.1417 4.36411 -1.13384 0
M  V30 114 C 9.8037 4.57792 -1.48256 0
M  V30 115 C 12.1557 4.82223 -1.97764 0
M  V30 116 C 9.4837 5.22233 -2.67376 0
M  V30 117 C 11.8357 5.47977 -3.16076 0
M  V30 118 C 10.4997 5.67593 -3.51275 0
M  V30 119 H 9.7697 0.740975 -0.00606918 0
M  V30 120 H 12.4167 1.77683 -0.714207 0
M  V30 121 H 10.7217 3.80865 0.919172 0
M  V30 122 H 12.4187 3.97031 0.562782 0
M  V30 123 H 9.0087 4.2004 -0.852297 0
M  V30 124 H 13.1927 4.65493 -1.72132 0
M  V30 125 H 8.4487 5.35616 -2.94831 0
M  V30 126 H 12.6227 5.8244 -3.81755 0
M  V30 127 H 10.2497 6.17298 -4.43675 0
M  V30 128 N 11.8248 0.280983 1.55075 0
M  V30 129 C 13.0728 -0.333455 1.9933 0
M  V30 130 C 13.3938 -1.55937 1.17085 0
M  V30 131 O 12.6638 -1.94143 0.261805 0
M  V30 132 H 11.2438 -0.126197 0.736263 0
M  V30 133 H 13.9058 0.387678 1.91005 0
M  V30 134 H 13.0018 -0.619292 3.05894 0
M  V30 135 N 13.3029 -1.57598 0.00835791 0
M  V30 136 C 14.5279 -1.95617 -0.689103 0
M  V30 137 C 14.9529 -0.883753 -1.66046 0
M  V30 138 O 14.3109 0.157352 -1.80616 0
M  V30 139 C 14.3589 -3.32736 -1.38994 0
M  V30 140 O 13.4629 -3.27631 -2.50463 0
M  V30 141 H 12.8039 -0.638379 -0.182668 0
M  V30 142 H 15.3339 -2.045 0.064036 0
M  V30 143 H 15.3439 -3.68494 -1.75147 0
M  V30 144 H 14.0189 -4.1034 -0.677778 0
M  V30 145 H 12.5959 -3.03561 -2.16576 0
M  V30 146 N 14.781 0.264519 -1.55364 0
M  V30 147 C 16.058 1.01677 -1.67096 0
M  V30 148 C 16.438 2.03996 -0.543015 0
M  V30 149 O 15.786 2.23907 0.45585 0
M  V30 150 C 15.996 1.66596 -3.0667 0
M  V30 151 C 17.344 2.17442 -3.64697 0
M  V30 152 O 18.368 1.76568 -3.09358 0
M  V30 153 O 17.227 2.92439 -4.61673 0
M  V30 154 H 14.321 0.472161 -0.678965 0
M  V30 155 H 16.867 0.259703 -1.67701 0
M  V30 156 H 15.639 0.924962 -3.80211 0
M  V30 157 H 15.262 2.48968 -3.10001 0
M  V30 158 N 16.2591 1.48442 0.529413 0
M  V30 159 C 17.4871 1.60151 1.30994 0
M  V30 160 C 17.9021 0.261985 1.86973 0
M  V30 161 O 17.2591 -0.748805 1.66431 0
M  V30 162 C 17.3101 2.64854 2.46038 0
M  V30 163 O 17.0311 3.93608 1.92365 0
M  V30 164 C 18.5321 2.87007 3.37849 0
M  V30 165 H 15.7521 0.539971 0.398338 0
M  V30 166 H 18.2961 1.94273 0.638597 0
M  V30 167 H 16.4511 2.33589 3.09055 0
M  V30 168 H 16.8651 4.51055 2.67675 0
M  V30 169 H 18.3391 3.64068 4.14919 0
M  V30 170 H 18.8161 1.95852 3.93114 0
M  V30 171 H 19.4221 3.19579 2.80623 0
M  V30 172 N 17.7372 -0.778329 1.37039 0
M  V30 173 C 18.9852 -1.53361 1.31623 0
M  V30 174 C 19.3062 -1.94739 -0.100831 0
M  V30 175 O 18.5762 -1.65797 -1.04347 0
M  V30 176 H 17.1562 -0.568794 0.484234 0
M  V30 177 H 19.8182 -0.926742 1.71457 0
M  V30 178 H 18.9142 -2.43606 1.95096 0
M  V30 179 N 19.2153 -1.21501 -1.00376 0
M  V30 180 C 20.1633 -0.972442 -2.11297 0
M  V30 181 C 21.1573 0.080731 -1.69208 0
M  V30 182 O 22.3633 -0.0707666 -1.79861 0
M  V30 183 H 18.7383 -0.297218 -0.690772 0
M  V30 184 H 20.7093 -1.91394 -2.28934 0
M  V30 185 C 19.4583 -0.555065 -3.43241 0
M  V30 186 H 18.7813 -1.35709 -3.76062 0
M  V30 187 H 20.2213 -0.424664 -4.21868 0
M  V30 188 C 18.6803 0.734147 -3.28804 0
M  V30 189 O 19.2103 1.78937 -3.59645 0
M  V30 190 N 17.4163 0.701133 -2.82015 0
M  V30 191 H 16.9633 -0.157874 -2.57116 0
M  V30 192 H 16.9213 1.56403 -2.72737 0
M  V30 193 N 20.6934 1.19889 -1.02296 0
M  V30 194 C 21.9214 1.9339 -0.735399 0
M  V30 195 C 22.3364 1.75148 0.704887 0
M  V30 196 O 21.6934 1.06954 1.47875 0
M  V30 197 C 21.7444 3.45313 -1.06962 0
M  V30 198 O 21.4654 3.62964 -2.45334 0
M  V30 199 C 22.9664 4.35948 -0.804021 0
M  V30 200 H 20.1864 0.61448 -0.269546 0
M  V30 201 H 22.7304 1.522 -1.36585 0
M  V30 202 H 20.8854 3.84359 -0.484455 0
M  V30 203 H 21.2994 4.56886 -2.57595 0
M  V30 204 H 22.7734 5.41174 -1.0879 0
M  V30 205 H 23.2504 4.3842 0.261691 0
M  V30 206 H 23.8564 4.02574 -1.37164 0
M  V30 207 N 22.1715 0.800033 1.35784 0
M  V30 208 C 23.0815 0.207204 2.33683 0
M  V30 209 C 24.0975 -0.64631 1.61551 0
M  V30 210 O 25.2735 -0.559604 1.93469 0
M  V30 211 C 22.3385 -0.639659 3.40748 0
M  V30 212 C 21.3995 0.233585 4.28664 0
M  V30 213 C 20.6325 -0.572954 5.30616 0
M  V30 214 O 20.8555 -1.80816 5.40982 0
M  V30 215 O 19.7895 0.0327285 6.01891 0
M  V30 216 H 23.6155 1.01692 2.86169 0
M  V30 217 H 21.2005 0.561691 1.38439 0
M  V30 218 H 23.0825 -1.12223 4.06182 0
M  V30 219 H 21.7575 -1.42708 2.90544 0
M  V30 220 H 20.6645 0.763147 3.66233 0
M  V30 221 H 21.9975 0.984784 4.82248 0
M  V30 222 N 23.6496 -1.47581 0.552962 0
M  V30 223 C 24.5976 -2.31648 -0.21023 0
M  V30 224 C 25.5916 -1.42663 -0.913432 0
M  V30 225 O 26.7976 -1.5945 -0.835201 0
M  V30 226 H 23.1726 -0.746989 -0.0866676 0
M  V30 227 H 25.1436 -2.93869 0.518051 0
M  V30 228 C 23.8926 -3.25226 -1.22976 0
M  V30 229 H 23.2156 -3.93658 -0.698077 0
M  V30 230 H 24.6556 -3.86889 -1.73473 0
M  V30 231 C 23.1146 -2.48448 -2.27542 0
M  V30 232 O 23.6446 -2.22585 -3.34393 0
M  V30 233 N 21.8506 -2.09532 -2.01357 0
M  V30 234 H 21.3976 -2.30765 -1.14478 0
M  V30 235 H 21.3556 -1.58476 -2.71538 0
M  V30 236 N 25.1277 -0.289203 -1.54924 0
M  V30 237 C 26.3767 0.324231 -1.99077 0
M  V30 238 C 26.6897 1.5591 -1.18117 0
M  V30 239 O 27.8957 2.24637 -1.52481 0
M  V30 240 C 26.3517 0.628209 -3.54375 0
M  V30 241 C 25.9597 -0.587647 -4.44129 0
M  V30 242 C 27.7037 1.20349 -4.07083 0
M  V30 243 C 25.6107 -0.257475 -5.90839 0
M  V30 244 H 24.5407 0.124924 -0.743579 0
M  V30 245 H 27.1917 -0.396063 -1.79175 0
M  V30 246 H 25.5737 1.40778 -3.70132 0
M  V30 247 H 26.7477 -1.36418 -4.40144 0
M  V30 248 H 25.0627 -1.08074 -4.0213 0
M  V30 249 H 27.6597 1.46456 -5.14252 0
M  V30 250 H 28.0027 2.14195 -3.56968 0
M  V30 251 H 28.5357 0.485889 -3.94821 0
M  V30 252 H 25.2747 -1.16419 -6.45079 0
M  V30 253 H 24.7947 0.482018 -5.9786 0
M  V30 254 H 26.4737 0.145238 -6.46837 0
M  V30 255 N 26.6058 1.57591 -0.0167156 0
M  V30 256 C 27.5688 2.08393 0.954204 0
M  V30 257 C 28.5688 0.996531 1.26198 0
M  V30 258 O 29.7588 1.25858 1.20438 0
M  V30 259 C 26.8908 2.5394 2.27436 0
M  V30 260 H 28.0838 2.95455 0.514451 0
M  V30 261 H 25.6368 1.54582 0.231089 0
M  V30 262 H 26.3718 1.70171 2.76066 0
M  V30 263 H 26.1568 3.33371 2.06412 0
M  V30 264 H 27.6468 2.93512 2.97053 0
M  V30 265 N 28.0839 -0.256276 1.55502 0
M  V30 266 C 29.0309 -1.31714 1.89526 0
M  V30 267 C 30.0009 -1.4828 0.748479 0
M  V30 268 O 31.1859 -1.62416 1.00128 0
M  V30 269 C 28.3259 -2.66933 2.18725 0
M  V30 270 C 27.4389 -2.58452 3.4616 0
M  V30 271 C 26.5739 -3.85961 3.64976 0
M  V30 272 C 25.6129 -3.72059 4.86044 0
M  V30 273 N 24.7499 -4.9144 5.01429 0
M  V30 274 H 29.5899 -1.01998 2.80001 0
M  V30 275 H 27.1269 -0.492413 1.38613 0
M  V30 276 H 29.0849 -3.4563 2.33657 0
M  V30 277 H 27.7149 -2.94816 1.31466 0
M  V30 278 H 26.7669 -1.71374 3.3961 0
M  V30 279 H 28.0789 -2.44085 4.34999 0
M  V30 280 H 27.2329 -4.73101 3.79816 0
M  V30 281 H 25.9719 -4.03215 2.74353 0
M  V30 282 H 24.9769 -2.83302 4.7119 0
M  V30 283 H 26.2019 -3.56309 5.78118 0
M  V30 284 H 24.1479 -5.09072 4.13741 0
M  V30 285 H 24.0649 -4.79668 5.84341 0
M  V30 286 H 25.3329 -5.80104 5.20672 0
M  V30 287 N 29.562 -1.4872 -0.521534 0
M  V30 288 C 30.495 -1.58451 -1.64221 0
M  V30 289 C 31.473 -0.434513 -1.56687 0
M  V30 290 O 32.657 -0.647275 -1.77038 0
M  V30 291 C 29.784 -1.52037 -3.02659 0
M  V30 292 C 28.83 -2.71981 -3.28525 0
M  V30 293 S 29.663 -4.33869 -3.13876 0
M  V30 294 C 30.819 -4.30067 -4.54745 0
M  V30 295 H 31.052 -2.53256 -1.55719 0
M  V30 296 H 28.585 -1.37358 -0.705143 0
M  V30 297 H 30.543 -1.49023 -3.82495 0
M  V30 298 H 29.204 -0.585541 -3.08594 0
M  V30 299 H 28.397 -2.63656 -4.29536 0
M  V30 300 H 27.999 -2.72302 -2.56374 0
M  V30 301 H 30.291 -4.00521 -5.46433 0
M  V30 302 H 31.234 -5.31287 -4.68123 0
M  V30 303 H 31.642 -3.60419 -4.34463 0
M  V30 304 N 31.0401 0.771051 -1.3745 0
M  V30 305 C 32.2891 1.52491 -1.3202 0
M  V30 306 C 32.6021 1.9538 0.0927347 0
M  V30 307 O 33.8081 2.70159 0.269503 0
M  V30 308 C 32.2641 2.75366 -2.31736 0
M  V30 309 C 31.8721 2.39573 -3.78562 0
M  V30 310 C 33.6161 3.53307 -2.35318 0
M  V30 311 C 31.5231 3.58954 -4.70007 0
M  V30 312 H 30.4531 0.572506 -0.490666 0
M  V30 313 H 33.1041 0.844474 -1.62914 0
M  V30 314 H 31.4861 3.45303 -1.93861 0
M  V30 315 H 32.6601 1.77415 -4.25277 0
M  V30 316 H 30.9751 1.74805 -3.77932 0
M  V30 317 H 33.5721 4.42039 -3.00842 0
M  V30 318 H 33.9151 3.93217 -1.36698 0
M  V30 319 H 34.4481 2.90367 -2.71904 0
M  V30 320 H 31.1871 3.24125 -5.69757 0
M  V30 321 H 30.7071 4.20214 -4.27996 0
M  V30 322 H 32.3861 4.25758 -4.87175 0
M  V30 323 N 32.5182 1.22032 0.997298 0
M  V30 324 C 33.4502 0.944263 2.08845 0
M  V30 325 C 34.4632 -0.0754663 1.62625 0
M  V30 326 O 35.6522 0.157994 1.77799 0
M  V30 327 C 32.7522 0.397723 3.36558 0
M  V30 328 C 31.9252 1.47362 4.11829 0
M  V30 329 C 30.9842 0.934951 5.17827 0
M  V30 330 O 30.0102 1.62016 5.45655 0
M  V30 331 N 31.2122 -0.245895 5.79979 0
M  V30 332 H 33.9772 1.88363 2.33109 0
M  V30 333 H 31.5382 1.12661 1.16272 0
M  V30 334 H 33.5302 0.0227771 4.04694 0
M  V30 335 H 32.1002 -0.446646 3.09393 0
M  V30 336 H 31.3202 2.02208 3.38386 0
M  V30 337 H 32.6082 2.19764 4.58891 0
M  V30 338 H 32.0062 -0.819475 5.59733 0
M  V30 339 H 30.5632 -0.562272 6.4937 0
M  V30 340 N 33.9963 -1.19345 1.0293 0
M  V30 341 C 34.9433 -2.2258 0.610464 0
M  V30 342 C 35.9133 -1.6179 -0.375946 0
M  V30 343 O 37.0983 -1.88844 -0.272511 0
M  V30 344 C 34.2383 -3.45085 -0.0321473 0
M  V30 345 C 33.3513 -4.20258 1.00035 0
M  V30 346 C 32.4863 -5.3019 0.32746 0
M  V30 347 C 31.5253 -5.97121 1.34584 0
M  V30 348 N 30.6623 -6.98615 0.698726 0
M  V30 349 H 35.5023 -2.57764 1.49538 0
M  V30 350 H 33.0393 -1.26644 0.748311 0
M  V30 351 H 34.9973 -4.15061 -0.421966 0
M  V30 352 H 33.6273 -3.10555 -0.88064 0
M  V30 353 H 32.6793 -3.49223 1.50823 0
M  V30 354 H 33.9913 -4.66175 1.77433 0
M  V30 355 H 33.1453 -6.06587 -0.11718 0
M  V30 356 H 31.8843 -4.85345 -0.478713 0
M  V30 357 H 30.8893 -5.19474 1.80074 0
M  V30 358 H 32.1143 -6.4405 2.15352 0
M  V30 359 H 30.0603 -6.55942 -0.0873471 0
M  V30 360 H 29.9773 -7.42724 1.41058 0
M  V30 361 H 31.2453 -7.79004 0.278102 0
M  V30 362 N 35.4744 -0.807222 -1.35358 0
M  V30 363 C 36.4064 -0.175717 -2.28525 0
M  V30 364 C 37.4194 0.625354 -1.5031 0
M  V30 365 O 38.6084 0.457611 -1.72535 0
M  V30 366 C 35.7084 0.773471 -3.29956 0
M  V30 367 C 34.8814 0.0186296 -4.37396 0
M  V30 368 C 33.9404 0.886395 -5.18681 0
M  V30 369 O 32.9664 0.337106 -5.68201 0
M  V30 370 N 34.1684 2.20839 -5.36852 0
M  V30 371 H 36.9334 -0.976091 -2.83359 0
M  V30 372 H 34.4944 -0.662737 -1.47714 0
M  V30 373 H 36.4864 1.35824 -3.81227 0
M  V30 374 H 35.0564 1.47465 -2.75632 0
M  V30 375 H 34.2764 -0.747349 -3.87051 0
M  V30 376 H 35.5644 -0.501577 -5.06322 0
M  V30 377 H 34.9624 2.67858 -4.98265 0
M  V30 378 H 33.5194 2.74237 -5.91301 0
M  V30 379 N 36.9525 1.47285 -0.560781 0
M  V30 380 C 37.8825 2.32857 0.173105 0
M  V30 381 C 38.8635 1.44009 0.905281 0
M  V30 382 O 40.0485 1.7286 0.885046 0
M  V30 383 C 37.1785 3.25861 1.20133 0
M  V30 384 C 36.1325 4.23978 0.585388 0
M  V30 385 C 35.4585 5.06332 1.7185 0
M  V30 386 C 36.7585 5.20242 -0.463178 0
M  V30 387 H 38.4525 2.94466 -0.541307 0
M  V30 388 H 35.9985 1.41601 -0.261764 0
M  V30 389 H 37.9515 3.84569 1.72293 0
M  V30 390 H 36.6755 2.62315 1.94573 0
M  V30 391 H 35.3345 3.66501 0.085054 0
M  V30 392 H 34.9825 4.39186 2.45203 0
M  V30 393 H 34.6825 5.72762 1.31213 0
M  V30 394 H 36.2065 5.67899 2.24329 0
M  V30 395 H 37.6205 5.73293 -0.027502 0
M  V30 396 H 36.0175 5.94896 -0.788627 0
M  V30 397 H 37.0875 4.65504 -1.35773 0
M  V30 398 N 38.4306 0.297415 1.54768 0
M  V30 399 C 39.6786 -0.312295 1.99673 0
M  V30 400 C 39.9996 -1.54686 1.18732 0
M  V30 401 O 39.2696 -1.93854 0.282382 0
M  V30 402 H 37.8496 -0.118381 0.73756 0
M  V30 403 H 40.5116 0.407915 1.90583 0
M  V30 404 H 39.6076 -0.586813 3.06534 0
M  V30 405 N 39.9087 -1.5758 0.0250728 0
M  V30 406 C 40.8557 -2.09973 -0.958129 0
M  V30 407 C 41.8257 -1.00085 -1.3256 0
M  V30 408 O 43.0107 -1.27481 -1.41962 0
M  V30 409 C 40.1507 -2.62812 -2.2366 0
M  V30 410 C 39.2637 -3.86693 -1.92594 0
M  V30 411 C 38.3987 -4.27941 -3.14707 0
M  V30 412 C 37.4377 -5.44591 -2.79442 0
M  V30 413 N 36.5747 -5.81014 -3.94167 0
M  V30 414 H 41.4147 -2.937 -0.504428 0
M  V30 415 H 38.9517 -1.45172 -0.237392 0
M  V30 416 H 40.9097 -2.91536 -2.98434 0
M  V30 417 H 39.5397 -1.81922 -2.66654 0
M  V30 418 H 38.5917 -3.64723 -1.0808 0
M  V30 419 H 39.9037 -4.71547 -1.62619 0
M  V30 420 H 39.0577 -4.58079 -3.97804 0
M  V30 421 H 37.7967 -3.41845 -3.4784 0
M  V30 422 H 36.8017 -5.1415 -1.94755 0
M  V30 423 H 38.0267 -6.32382 -2.47528 0
M  V30 424 H 35.9727 -4.97874 -4.2715 0
M  V30 425 H 35.8897 -6.60498 -3.67801 0
M  V30 426 H 37.1577 -6.15756 -4.7798 0
M  V30 427 N 41.3868 0.248026 -1.55636 0
M  V30 428 C 42.6638 0.998988 -1.68165 0
M  V30 429 C 43.0438 2.03409 -0.564621 0
M  V30 430 O 42.3918 2.24378 0.432076 0
M  V30 431 C 42.6018 1.63334 -3.0842 0
M  V30 432 C 43.9498 2.13562 -3.66983 0
M  V30 433 O 44.9738 1.73277 -3.11213 0
M  V30 434 O 43.8328 2.87526 -4.64749 0
M  V30 435 H 40.9268 0.464933 -0.683935 0
M  V30 436 H 43.4728 0.241902 -1.67967 0
M  V30 437 H 42.2448 0.884583 -3.8117 0
M  V30 438 H 41.8678 2.45666 -3.12624 0
M  V30 439 N 42.8649 1.48995 0.513639 0
M  V30 440 C 44.1109 1.58076 1.27042 0
M  V30 441 C 44.4439 0.261026 1.92438 0
M  V30 442 O 43.7189 -0.734393 1.80103 0
M  V30 443 C 44.0019 2.73091 2.34719 0
M  V30 444 C 43.8549 4.14821 1.73907 0
M  V30 445 C 45.1739 2.83796 3.36375 0
M  V30 446 H 42.2929 0.575391 0.460536 0
M  V30 447 H 44.9349 1.81232 0.570516 0
M  V30 448 H 43.0849 2.53479 2.94416 0
M  V30 449 H 44.7569 4.45917 1.18135 0
M  V30 450 H 42.9999 4.21058 1.0437 0
M  V30 451 H 43.6709 4.91147 2.51949 0
M  V30 452 H 46.1469 3.01611 2.86653 0
M  V30 453 H 45.0229 3.65971 4.09093 0
M  V30 454 H 45.2839 1.92624 3.9793 0
M  V30 455 N 44.343 -0.763751 1.37857 0
M  V30 456 C 45.306 -1.85889 1.34081 0
M  V30 457 C 46.306 -1.58949 0.243277 0
M  V30 458 O 47.496 -1.66882 0.499589 0
M  V30 459 C 44.628 -3.23176 1.08489 0
M  V30 460 H 45.821 -1.90648 2.31502 0
M  V30 461 H 43.374 -0.964367 1.23003 0
M  V30 462 H 44.109 -3.24091 0.116318 0
M  V30 463 H 43.894 -3.44124 1.8794 0
M  V30 464 H 45.384 -4.03254 1.08517 0
M  V30 465 N 45.8211 -1.22559 -0.990812 0
M  V30 466 C 47.0981 -0.959875 -1.70428 0
M  V30 467 C 47.4781 0.524455 -2.04481 0
M  V30 468 O 46.8261 1.49302 -1.72977 0
M  V30 469 C 47.0361 -1.85955 -2.95333 0
M  V30 470 C 48.3841 -2.11687 -3.68068 0
M  V30 471 O 49.4081 -1.8342 -3.05345 0
M  V30 472 O 48.2671 -2.59572 -4.80921 0
M  V30 473 H 45.3611 -0.361154 -0.743974 0
M  V30 474 H 47.9071 -1.33554 -1.04697 0
M  V30 475 H 46.6791 -2.86346 -2.66687 0
M  V30 476 H 46.3021 -1.4856 -3.68803 0
M  V30 477 N 47.2992 1.18797 -1.03562 0
M  V30 478 C 48.5452 1.8893 -0.737113 0
M  V30 479 C 48.8782 1.79837 0.732956 0
M  V30 480 O 48.1532 1.19525 1.5344 0
M  V30 481 C 48.4362 3.39607 -1.19745 0
M  V30 482 C 48.2892 3.57537 -2.72924 0
M  V30 483 C 49.6082 4.33069 -0.783526 0
M  V30 484 H 46.7272 0.686057 -0.269249 0
M  V30 485 H 49.3692 1.39797 -1.28673 0
M  V30 486 H 47.5192 3.81583 -0.729855 0
M  V30 487 H 49.1912 3.24688 -3.27682 0
M  V30 488 H 47.4342 3.00363 -3.12993 0
M  V30 489 H 48.1052 4.63238 -3.00191 0
M  V30 490 H 50.5812 3.98846 -1.18581 0
M  V30 491 H 49.4572 5.3707 -1.13343 0
M  V30 492 H 49.7182 4.40986 0.313681 0
M  V30 493 N 48.7773 0.814389 1.34928 0
M  V30 494 C 49.7273 0.202752 2.27097 0
M  V30 495 C 50.7113 -0.62799 1.48139 0
M  V30 496 O 51.9033 -0.483969 1.70255 0
M  V30 497 C 49.0323 -0.64146 3.37254 0
M  V30 498 C 48.1183 0.19944 4.23631 0
M  V30 499 N 48.5093 1.26628 4.89693 0
M  V30 500 C 46.8073 -0.0176433 4.45997 0
M  V30 501 C 47.5083 1.78031 5.53787 0
M  V30 502 N 46.4843 1.08553 5.32651 0
M  V30 503 H 50.2863 1.01893 2.75672 0
M  V30 504 H 47.8003 0.656332 1.48546 0
M  V30 505 H 49.7973 -1.09575 4.02243 0
M  V30 506 H 48.4573 -1.4559 2.9023 0
M  V30 507 H 49.4683 1.64901 4.90946 0
M  V30 508 H 46.1453 -0.800601 4.09752 0
M  V30 509 H 47.5353 2.67236 6.16469 0
M  V30 510 N 50.2554 -1.46986 0.568584 0
M  V30 511 C 51.5324 -1.95592 -0.0174074 0
M  V30 512 C 51.9124 -1.51124 -1.47393 0
M  V30 513 O 51.2604 -0.755329 -2.15655 0
M  V30 514 C 51.4704 -3.48719 0.139913 0
M  V30 515 C 52.8184 -4.246 0.000426376 0
M  V30 516 O 53.8424 -3.56135 0.0680316 0
M  V30 517 O 52.7014 -5.46302 -0.146988 0
M  V30 518 H 49.7954 -0.82498 -0.0577599 0
M  V30 519 H 52.3414 -1.57335 0.635909 0
M  V30 520 H 51.1134 -3.73927 1.15301 0
M  V30 521 H 50.7364 -3.93771 -0.550491 0
M  V30 522 N 51.7335 -0.305618 -1.54608 0
M  V30 523 C 52.9825 0.303098 -1.9941 0
M  V30 524 C 53.2955 1.54648 -1.19764 0
M  V30 525 O 54.5015 2.23007 -1.54855 0
M  V30 526 C 52.9575 0.590588 -3.55021 0
M  V30 527 C 52.5655 -0.634719 -4.43481 0
M  V30 528 C 54.3095 1.16025 -4.08336 0
M  V30 529 C 52.2165 -0.320126 -5.90533 0
M  V30 530 H 51.1465 0.117031 -0.744862 0
M  V30 531 H 53.7975 -0.415045 -1.78745 0
M  V30 532 H 52.1795 1.36845 -3.71604 0
M  V30 533 H 53.3535 -1.41079 -4.38672 0
M  V30 534 H 51.6685 -1.12333 -4.00962 0
M  V30 535 H 54.2655 1.40994 -5.15776 0
M  V30 536 H 54.6085 2.10397 -3.5922 0
M  V30 537 H 55.1415 0.443985 -3.95315 0
M  V30 538 H 51.8805 -1.23254 -6.43808 0
M  V30 539 H 51.4005 0.418579 -5.98338 0
M  V30 540 H 53.0795 0.0766241 -6.46955 0
M  V30 541 N 53.2116 1.57565 -0.0334293 0
M  V30 542 C 54.1746 2.09393 0.932048 0
M  V30 543 C 55.1746 1.00986 1.25134 0
M  V30 544 O 56.3646 1.27129 1.19096 0
M  V30 545 C 53.4966 2.56338 2.2473 0
M  V30 546 H 54.6896 2.95984 0.483085 0
M  V30 547 H 52.2426 1.54819 0.21468 0
M  V30 548 H 52.9776 1.7309 2.74245 0
M  V30 549 H 52.7626 3.35542 2.02865 0
M  V30 550 H 54.2526 2.96646 2.93923 0
M  V30 551 N 54.6897 -0.239769 1.55765 0
M  V30 552 C 55.6367 -1.29696 1.90913 0
M  V30 553 C 56.6067 -1.47478 0.764164 0
M  V30 554 O 57.7917 -1.61345 1.01845 0
M  V30 555 C 54.9317 -2.64598 2.21544 0
M  V30 556 C 54.0447 -2.54765 3.48882 0
M  V30 557 C 53.1797 -3.82069 3.69049 0
M  V30 558 C 52.2187 -3.66883 4.89963 0
M  V30 559 N 51.3557 -4.86094 5.06614 0
M  V30 560 H 56.1957 -0.990224 2.81067 0
M  V30 561 H 53.7327 -0.477684 1.39128 0
M  V30 562 H 55.6907 -3.43132 2.3731 0
M  V30 563 H 54.3207 -2.93405 1.34585 0
M  V30 564 H 53.3727 -1.67763 3.41409 0
M  V30 565 H 54.6847 -2.39457 4.37563 0
M  V30 566 H 53.8387 -4.69046 3.84812 0
M  V30 567 H 52.5777 -4.00282 2.78614 0
M  V30 568 H 51.5827 -2.78289 4.74168 0
M  V30 569 H 52.8077 -3.50157 5.81865 0
M  V30 570 H 50.7537 -5.04655 4.19117 0
M  V30 571 H 50.6707 -4.73443 5.89396 0
M  V30 572 H 51.9387 -5.74549 5.26795 0
M  V30 573 N 56.1678 -1.49265 -0.50573 0
M  V30 574 C 57.3928 -1.62478 -1.28902 0
M  V30 575 C 57.8178 -0.294332 -1.85783 0
M  V30 576 O 57.1758 0.737412 -1.65626 0
M  V30 577 C 57.2238 -2.69268 -2.39848 0
M  V30 578 O 56.3278 -2.28113 -3.43567 0
M  V30 579 H 55.6688 -0.54399 -0.380751 0
M  V30 580 H 58.1988 -1.95421 -0.605952 0
M  V30 581 H 58.2088 -2.91291 -2.85681 0
M  V30 582 H 56.8838 -3.65846 -1.97812 0
M  V30 583 H 55.4608 -2.16401 -3.03685 0
M  V30 584 N 57.6459 0.756429 -1.3826 0
M  V30 585 C 58.8709 1.55077 -1.37717 0
M  V30 586 C 59.2959 1.88073 0.03164 0
M  V30 587 O 58.6539 1.50364 1.01293 0
M  V30 588 C 58.7019 2.8283 -2.23695 0
M  V30 589 O 57.8059 3.77862 -1.6521 0
M  V30 590 H 57.1469 0.469152 -0.469885 0
M  V30 591 H 59.6769 0.935019 -1.81985 0
M  V30 592 H 59.6869 3.31783 -2.37453 0
M  V30 593 H 58.3619 2.58144 -3.2609 0
M  V30 594 H 56.9389 3.36555 -1.60578 0
M  V30 595 N 59.124 1.23083 0.984299 0
M  V30 596 C 60.071 1.00854 2.07598 0
M  V30 597 C 61.041 -0.0726709 1.65941 0
M  V30 598 O 62.226 0.0786535 1.90638 0
M  V30 599 C 59.366 0.601645 3.39815 0
M  V30 600 C 58.479 1.75456 3.94765 0
M  V30 601 C 57.614 1.29482 5.15177 0
M  V30 602 C 56.653 2.41873 5.62284 0
M  V30 603 N 55.79 1.96885 6.73929 0
M  V30 604 H 60.63 1.943 2.25946 0
M  V30 605 H 58.167 0.968001 1.10762 0
M  V30 606 H 60.125 0.346854 4.15756 0
M  V30 607 H 58.755 -0.295803 3.21442 0
M  V30 608 H 57.807 2.12346 3.15616 0
M  V30 609 H 59.119 2.59965 4.25699 0
M  V30 610 H 58.273 0.997923 5.98437 0
M  V30 611 H 57.012 0.420046 4.85888 0
M  V30 612 H 56.017 2.72342 4.77608 0
M  V30 613 H 57.242 3.29881 5.93595 0
M  V30 614 H 55.188 1.11782 6.46406 0
M  V30 615 H 55.105 2.74956 7.04227 0
M  V30 616 H 56.373 1.70289 7.60672 0
M  V30 617 N 60.6021 -1.18246 1.0419 0
M  V30 618 C 61.5121 -2.25574 0.644476 0
M  V30 619 C 62.5281 -1.70845 -0.329826 0
M  V30 620 O 63.7041 -2.00554 -0.184443 0
M  V30 621 C 60.7691 -3.46697 0.014877 0
M  V30 622 C 59.8301 -4.16554 1.03834 0
M  V30 623 C 59.0631 -5.31894 0.438692 0
M  V30 624 O 59.2861 -5.65385 -0.754752 0
M  V30 625 O 58.2201 -5.90459 1.168 0
M  V30 626 H 62.0461 -2.61836 1.53869 0
M  V30 627 H 59.6311 -1.25352 0.812854 0
M  V30 628 H 61.5131 -4.20062 -0.335538 0
M  V30 629 H 60.1881 -3.12255 -0.853138 0
M  V30 630 H 59.0951 -3.45251 1.44057 0
M  V30 631 H 60.4281 -4.54998 1.87716 0
M  V30 632 N 62.0802 -0.821533 -1.34494 0
M  V30 633 C 63.3572 -0.33159 -1.92769 0
M  V30 634 C 63.7372 1.18088 -1.74981 0
M  V30 635 O 63.0852 1.98733 -1.12772 0
M  V30 636 C 63.2952 -0.759398 -3.40638 0
M  V30 637 C 64.6432 -0.757433 -4.1779 0
M  V30 638 O 65.6672 -0.70189 -3.49216 0
M  V30 639 O 64.5262 -0.829361 -5.4017 0
M  V30 640 H 61.6202 -0.0902502 -0.822061 0
M  V30 641 H 64.1662 -0.906231 -1.43477 0
M  V30 642 H 62.9382 -1.8012 -3.47379 0
M  V30 643 H 62.5612 -0.160378 -3.97276 0
M  V30 644 N 63.5583 1.46682 -0.576371 0
M  V30 645 C 64.4883 2.33028 0.148397 0
M  V30 646 C 65.4693 1.44961 0.889956 0
M  V30 647 O 66.6543 1.73789 0.866662 0
M  V30 648 C 63.7843 3.27117 1.1667 0
M  V30 649 C 62.7383 4.24575 0.540386 0
M  V30 650 C 62.0643 5.08126 1.6647 0
M  V30 651 C 63.3643 5.19722 -0.518331 0
M  V30 652 H 65.0583 2.93875 -0.572509 0
M  V30 653 H 62.6043 1.41315 -0.276768 0
M  V30 654 H 64.5573 3.86374 1.68204 0
M  V30 655 H 63.2813 2.64364 1.9178 0
M  V30 656 H 61.9403 3.66571 0.0461769 0
M  V30 657 H 61.5883 4.41762 2.40531 0
M  V30 658 H 61.2883 5.74122 1.25131 0
M  V30 659 H 62.8123 5.70246 2.18293 0
M  V30 660 H 64.2263 5.73232 -0.0883058 0
M  V30 661 H 62.6233 5.94026 -0.851679 0
M  V30 662 H 63.6933 4.64037 -1.40703 0
M  V30 663 N 65.0364 0.313813 1.54444 0
M  V30 664 C 65.9464 -0.565714 2.27677 0
M  V30 665 C 66.9624 -1.13754 1.31666 0
M  V30 666 O 68.1384 -1.15959 1.64668 0
M  V30 667 C 65.2034 -1.71528 3.01296 0
M  V30 668 C 64.2644 -1.17624 4.12872 0
M  V30 669 C 63.4974 -2.27102 4.8297 0
M  V30 670 O 63.7204 -3.47256 4.52514 0
M  V30 671 O 62.6544 -1.9307 5.70094 0
M  V30 672 H 66.4804 0.0287296 3.03686 0
M  V30 673 H 64.0654 0.0798312 1.49187 0
M  V30 674 H 65.9474 -2.38476 3.4743 0
M  V30 675 H 64.6224 -2.29608 2.2817 0
M  V30 676 H 63.5294 -0.472124 3.71109 0
M  V30 677 H 64.8624 -0.640695 4.88012 0
M  V30 678 N 66.5145 -1.57545 0.0417849 0
M  V30 679 C 67.4775 -2.09885 -0.92093 0
M  V30 680 C 68.4775 -1.01648 -1.24596 0
M  V30 681 O 69.6675 -1.27759 -1.1842 0
M  V30 682 C 66.7995 -2.57527 -2.23367 0
M  V30 683 H 67.9925 -2.96236 -0.467382 0
M  V30 684 H 65.5455 -1.5493 -0.206467 0
M  V30 685 H 66.2805 -1.74542 -2.73323 0
M  V30 686 H 66.0655 -3.36613 -2.01083 0
M  V30 687 H 67.5555 -2.98201 -2.92346 0
M  V30 688 N 67.9926 0.231505 -1.5589 0
M  V30 689 C 69.2226 0.973092 -1.82248 0
M  V30 690 C 69.6306 1.78845 -0.617328 0
M  V30 691 O 68.9736 1.78752 0.423499 0
M  V30 692 C 69.0356 1.94732 -3.02192 0
M  V30 693 C 68.6996 1.31743 -4.37599 0
M  V30 694 C 69.6966 0.712238 -5.14998 0
M  V30 695 C 67.3816 1.33218 -4.84312 0
M  V30 696 C 69.3756 0.130195 -6.37267 0
M  V30 697 C 67.0626 0.746286 -6.06526 0
M  V30 698 C 68.0606 0.146337 -6.82843 0
M  V30 699 O 67.7486 -0.430465 -8.02747 0
M  V30 700 H 67.4806 0.29125 -0.61004 0
M  V30 701 H 70.0346 0.254915 -2.03812 0
M  V30 702 H 68.2646 2.70422 -2.76422 0
M  V30 703 H 69.9536 2.55362 -3.15508 0
M  V30 704 H 70.7196 0.69324 -4.8002 0
M  V30 705 H 66.5986 1.78854 -4.24891 0
M  V30 706 H 70.1426 -0.33871 -6.96777 0
M  V30 707 H 66.0396 0.762663 -6.40979 0
M  V30 708 H 66.8076 -0.323818 -8.17859 0
M  V30 709 N 69.4707 1.49531 0.497807 0
M  V30 710 C 70.7477 1.49682 1.25915 0
M  V30 711 C 71.1277 0.226339 2.09883 0
M  V30 712 O 70.4757 -0.791189 2.14365 0
M  V30 713 C 70.6857 2.77755 2.11313 0
M  V30 714 C 72.0337 3.27371 2.70395 0
M  V30 715 O 73.0577 2.78894 2.21578 0
M  V30 716 O 71.9167 4.11808 3.59272 0
M  V30 717 H 69.0107 0.599228 0.56996 0
M  V30 718 H 71.5567 1.61798 0.511816 0
M  V30 719 H 70.3287 3.61713 1.49264 0
M  V30 720 H 69.9517 2.68515 2.93233 0
M  V30 721 N 70.9488 -0.749086 1.3866 0
M  V30 722 C 72.1978 -1.50371 1.3443 0
M  V30 723 C 72.5108 -1.95503 -0.0616397 0
M  V30 724 O 73.7168 -2.70554 -0.226489 0
M  V30 725 C 72.1728 -2.71644 2.36088 0
M  V30 726 C 71.7808 -2.3352 3.82325 0
M  V30 727 C 73.5248 -3.49518 2.40909 0
M  V30 728 C 71.4318 -3.51431 4.75658 0
M  V30 729 H 70.3618 -0.564628 0.499712 0
M  V30 730 H 73.0128 -0.818449 1.64237 0
M  V30 731 H 71.3948 -3.42175 1.9933 0
M  V30 732 H 72.5688 -1.70627 4.28046 0
M  V30 733 H 70.8838 -1.6877 3.80665 0
M  V30 734 H 73.4808 -4.37197 3.07836 0
M  V30 735 H 73.8238 -3.90992 1.42937 0
M  V30 736 H 74.3568 -2.86005 2.76489 0
M  V30 737 H 71.0958 -3.15019 5.74842 0
M  V30 738 H 70.6158 -4.13352 4.34627 0
M  V30 739 H 72.2948 -4.17953 4.93887 0
M  V30 740 N 72.4269 -1.23603 -0.977757 0
M  V30 741 C 73.3569 -1.04401 -2.0886 0
M  V30 742 C 74.3379 0.0399052 -1.70053 0
M  V30 743 O 75.5229 -0.125246 -1.93796 0
M  V30 744 C 72.6529 -0.637269 -3.41403 0
M  V30 745 C 71.6069 -1.66883 -3.94124 0
M  V30 746 C 70.9329 -1.11745 -5.22893 0
M  V30 747 C 72.2329 -3.06247 -4.23096 0
M  V30 748 H 73.9269 -1.97316 -2.25182 0
M  V30 749 H 71.4729 -0.950096 -1.08209 0
M  V30 750 H 73.4259 -0.48998 -4.18542 0
M  V30 751 H 72.1499 0.327557 -3.24953 0
M  V30 752 H 70.8089 -1.80416 -3.19133 0
M  V30 753 H 70.4569 -0.143527 -5.02795 0
M  V30 754 H 70.1569 -1.80672 -5.59134 0
M  V30 755 H 71.6809 -0.982067 -6.02651 0
M  V30 756 H 73.0949 -2.96001 -4.90975 0
M  V30 757 H 71.4919 -3.72436 -4.70544 0
M  V30 758 H 72.5619 -3.55041 -3.30263 0
M  V30 759 N 73.905 1.17692 -1.04816 0
M  V30 760 C 74.835 2.23777 -0.666791 0
M  V30 761 C 75.816 1.66796 0.33361 0
M  V30 762 O 77.001 1.93039 0.212042 0
M  V30 763 C 74.131 3.47281 -0.0367933 0
M  V30 764 C 73.085 4.17059 -0.961546 0
M  V30 765 C 72.411 5.34342 -0.195626 0
M  V30 766 C 73.711 4.69713 -2.28402 0
M  V30 767 H 75.405 2.55933 -1.55367 0
M  V30 768 H 72.951 1.23019 -0.748484 0
M  V30 769 H 74.904 4.20706 0.241775 0
M  V30 770 H 73.628 3.14381 0.885004 0
M  V30 771 H 72.287 3.45541 -1.22462 0
M  V30 772 H 71.935 4.97692 0.728816 0
M  V30 773 H 71.635 5.81966 -0.811775 0
M  V30 774 H 73.159 6.10553 0.0757473 0
M  V30 775 H 74.573 5.34794 -2.06563 0
M  V30 776 H 72.97 5.279 -2.8538 0
M  V30 777 H 74.04 3.86726 -2.92525 0
M  V30 778 N 75.3831 0.828654 1.34056 0
M  V30 779 C 76.3131 0.269443 2.3194 0
M  V30 780 C 77.2941 -0.617247 1.58506 0
M  V30 781 O 78.4791 -0.542931 1.86456 0
M  V30 782 C 75.6091 -0.564793 3.42677 0
M  V30 783 C 74.5631 0.225241 4.27407 0
M  V30 784 C 73.8891 -0.7321 5.29664 0
M  V30 785 C 75.1891 1.43663 5.02154 0
M  V30 786 H 76.8831 1.08728 2.7896 0
M  V30 787 H 74.4291 0.524283 1.34117 0
M  V30 788 H 76.3821 -0.966233 4.10173 0
M  V30 789 H 75.1061 -1.41574 2.9432 0
M  V30 790 H 73.7651 0.608117 3.61521 0
M  V30 791 H 73.4131 -1.57916 4.77568 0
M  V30 792 H 73.1131 -0.20767 5.87233 0
M  V30 793 H 74.6371 -1.13128 6.00029 0
M  V30 794 H 76.0511 1.1089 5.62473 0
M  V30 795 H 74.4481 1.89711 5.69324 0
M  V30 796 H 75.5181 2.21181 4.31517 0
M  V30 797 N 76.8612 -1.46375 0.584142 0
M  V30 798 C 78.1092 -2.01978 0.0701287 0
M  V30 799 C 78.4302 -1.4579 -1.295 0
M  V30 800 O 77.7002 -0.64314 -1.85042 0
M  V30 801 H 76.2802 -0.746648 0.0229345 0
M  V30 802 H 78.9422 -1.79461 0.760245 0
M  V30 803 H 78.0382 -3.121 0.0022064 0
M  V30 804 N 78.3393 -0.321999 -1.54275 0
M  V30 805 C 79.5883 0.281931 -1.9972 0
M  V30 806 C 79.9013 1.53369 -1.21397 0
M  V30 807 O 81.1073 2.21352 -1.57211 0
M  V30 808 C 79.5633 0.5529 -3.55628 0
M  V30 809 C 79.1713 -0.681721 -4.42783 0
M  V30 810 C 80.9153 1.11687 -4.09544 0
M  V30 811 C 78.8223 -0.382742 -5.9016 0
M  V30 812 H 77.7523 0.109124 -0.746062 0
M  V30 813 H 80.4033 -0.43398 -1.78294 0
M  V30 814 H 78.7853 1.32896 -3.73035 0
M  V30 815 H 79.9593 -1.45723 -4.37151 0
M  V30 816 H 78.2743 -1.1658 -3.99748 0
M  V30 817 H 80.8713 1.35515 -5.17242 0
M  V30 818 H 81.2143 2.06575 -3.61431 0
M  V30 819 H 81.7473 0.402032 -3.95763 0
M  V30 820 H 78.4863 -1.30076 -6.42464 0
M  V30 821 H 78.0063 0.355094 -5.98748 0
M  V30 822 H 79.6853 0.00800157 -6.47 0
M  V30 823 N 79.8174 1.5752 -0.0501392 0
M  V30 824 C 81.2284 1.80271 0.485705 0
M  V30 825 C 81.5794 0.96228 1.70981 0
M  V30 826 O 80.7044 0.178578 2.15662 0
M  V30 827 C 81.2994 3.26957 0.887938 0
M  V30 828 C 79.8584 3.5063 1.36877 0
M  V30 829 C 79.0054 2.75165 0.343468 0
M  V30 830 H 81.9564 1.56281 -0.276028 0
M  V30 831 H 81.9774 3.37821 1.75093 0
M  V30 832 H 81.4894 3.881 -0.0031809 0
M  V30 833 H 79.5904 2.94766 2.27911 0
M  V30 834 H 79.7034 4.59343 1.36164 0
M  V30 835 H 78.0674 2.4127 0.816128 0
M  V30 836 H 78.8504 3.39034 -0.539548 0
M  V30 837 N 81.2955 -0.223234 1.56011 0
M  V30 838 C 82.5235 -0.964812 1.83027 0
M  V30 839 C 82.9385 -1.78013 0.62904 0
M  V30 840 O 82.2955 -1.78008 -0.402414 0
M  V30 841 C 82.3465 -1.88373 3.08542 0
M  V30 842 O 82.0675 -1.10137 4.2403 0
M  V30 843 C 83.5685 -2.73934 3.48533 0
M  V30 844 H 80.7885 -0.282842 0.608475 0
M  V30 845 H 83.3325 -0.238971 2.03099 0
M  V30 846 H 81.4875 -2.56354 2.9045 0
M  V30 847 H 81.9015 -1.72501 4.95322 0
M  V30 848 H 83.3755 -3.34117 4.39397 0
M  V30 849 H 83.8525 -3.46244 2.70207 0
M  V30 850 H 84.4585 -2.11369 3.69057 0
M  V30 851 N 82.7736 -1.49793 -0.48987 0
M  V30 852 C 84.0196 -1.61049 -1.24236 0
M  V30 853 C 84.3746 -0.298412 -1.90072 0
M  V30 854 O 83.6676 0.702262 -1.78266 0
M  V30 855 C 83.8616 -2.71488 -2.32441 0
M  V30 856 C 83.6906 -4.13308 -1.77218 0
M  V30 857 C 82.4606 -4.79955 -1.58023 0
M  V30 858 C 84.6586 -4.98176 -1.27772 0
M  V30 859 N 82.6406 -6.06052 -0.978465 0
M  V30 860 C 84.0116 -6.14843 -0.798 0
M  V30 861 C 86.0666 -4.84091 -1.16449 0
M  V30 862 C 84.7696 -7.18975 -0.216245 0
M  V30 863 C 86.7956 -5.88382 -0.596698 0
M  V30 864 C 86.1576 -7.04285 -0.127262 0
M  V30 865 H 82.2566 -0.643611 -0.444172 0
M  V30 866 H 84.8406 -1.86842 -0.54754 0
M  V30 867 H 83.0116 -2.47449 -2.99372 0
M  V30 868 H 84.7436 -2.72205 -2.99477 0
M  V30 869 H 81.4986 -4.36936 -1.82712 0
M  V30 870 H 81.9226 -6.73407 -0.696534 0
M  V30 871 H 86.5646 -3.94786 -1.5134 0
M  V30 872 H 84.2826 -8.0797 0.144903 0
M  V30 873 H 87.8686 -5.79545 -0.511716 0
M  V30 874 H 86.7486 -7.83606 0.30523 0
M  V30 875 N 84.2517 0.741722 -1.39055 0
M  V30 876 C 85.4817 1.52876 -1.3897 0
M  V30 877 C 85.8897 1.8919 0.0193266 0
M  V30 878 O 85.2327 1.54138 0.999356 0
M  V30 879 C 85.2947 2.84929 -2.19216 0
M  V30 880 C 84.9587 2.71086 -3.67915 0
M  V30 881 C 85.9557 2.40084 -4.61146 0
M  V30 882 C 83.6407 2.88168 -4.11418 0
M  V30 883 C 85.6347 2.26335 -5.95862 0
M  V30 884 C 83.3217 2.74037 -5.46211 0
M  V30 885 C 84.3197 2.43166 -6.38247 0
M  V30 886 O 84.0077 2.29115 -7.70559 0
M  V30 887 H 83.7397 0.479252 -0.476753 0
M  V30 888 H 86.2937 0.924751 -1.83405 0
M  V30 889 H 84.5237 3.47564 -1.69518 0
M  V30 890 H 86.2127 3.46509 -2.11392 0
M  V30 891 H 86.9787 2.26545 -4.28838 0
M  V30 892 H 82.8577 3.11191 -3.40119 0
M  V30 893 H 86.4017 2.0216 -6.67665 0
M  V30 894 H 82.2987 2.87153 -5.78112 0
M  V30 895 H 83.0667 2.44237 -7.81211 0
M  V30 896 N 85.7298 1.2412 0.971189 0
M  V30 897 C 86.9598 1.10415 1.7462 0
M  V30 898 C 87.3678 -0.346462 1.86001 0
M  V30 899 O 86.7108 -1.25104 1.34517 0
M  V30 900 C 86.7728 1.66596 3.18568 0
M  V30 901 C 86.4368 3.15446 3.3067 0
M  V30 902 C 87.4338 4.12636 3.16271 0
M  V30 903 C 85.1188 3.55337 3.55022 0
M  V30 904 C 87.1128 5.47699 3.26044 0
M  V30 905 C 84.7998 4.90542 3.64434 0
M  V30 906 C 85.7978 5.86532 3.49956 0
M  V30 907 O 85.4858 7.19279 3.59017 0
M  V30 908 H 85.2178 0.386616 0.55453 0
M  V30 909 H 87.7718 1.64633 1.22821 0
M  V30 910 H 86.0018 1.06808 3.71657 0
M  V30 911 H 87.6908 1.48232 3.77865 0
M  V30 912 H 88.4568 3.8316 2.97344 0
M  V30 913 H 84.3358 2.8113 3.65359 0
M  V30 914 H 87.8798 6.22603 3.14661 0
M  V30 915 H 83.7768 5.19691 3.82873 0
M  V30 916 H 84.5448 7.27153 3.75754 0
M  V30 917 N 87.2079 -1.17134 1.05439 0
M  V30 918 C 88.4559 -1.87085 0.764429 0
M  V30 919 C 88.7769 -1.81584 -0.710787 0
M  V30 920 O 88.0469 -1.24349 -1.51374 0
M  V30 921 H 86.6269 -0.692627 0.279779 0
M  V30 922 H 89.2889 -1.42087 1.33406 0
M  V30 923 H 88.3849 -2.92759 1.0816 0
M  V30 924 N 88.686 -0.835752 -1.33615 0
M  V30 925 C 89.596 -0.269088 -2.33052 0
M  V30 926 C 90.612 0.603251 -1.63208 0
M  V30 927 O 91.788 0.508112 -1.94885 0
M  V30 928 C 88.853 0.549091 -3.42324 0
M  V30 929 C 87.914 -0.347156 -4.27894 0
M  V30 930 C 87.147 0.43207 -5.31948 0
M  V30 931 O 87.37 1.66409 -5.45586 0
M  V30 932 O 86.304 -0.192298 -6.01593 0
M  V30 933 H 90.13 -1.09243 -2.83372 0
M  V30 934 H 87.715 -0.598198 -1.36901 0
M  V30 935 H 89.597 1.01414 -4.09015 0
M  V30 936 H 88.272 1.34955 -2.94226 0
M  V30 937 H 87.179 -0.859979 -3.64081 0
M  V30 938 H 88.512 -1.1123 -4.79467 0
M  V30 939 N 90.1641 1.46063 -0.591896 0
M  V30 940 C 91.1271 2.28854 0.125973 0
M  V30 941 C 92.1271 1.38903 0.810107 0
M  V30 942 O 93.3171 1.61186 0.66066 0
M  V30 943 C 90.4491 3.19526 1.1881 0
M  V30 944 H 91.6421 2.93802 -0.601717 0
M  V30 945 H 89.1951 1.52325 -0.350254 0
M  V30 946 H 89.9301 2.59345 1.94707 0
M  V30 947 H 89.7151 3.85766 0.701936 0
M  V30 948 H 91.2051 3.81817 1.69132 0
M  V30 949 N 91.6422 0.330177 1.54103 0
M  V30 950 C 92.5742 -0.566902 2.22079 0
M  V30 951 C 93.5872 -1.07462 1.22294 0
M  V30 952 O 94.7762 -0.987065 1.48726 0
M  V30 953 C 91.8762 -1.79138 2.87685 0
M  V30 954 C 91.0492 -1.42123 4.13666 0
M  V30 955 C 90.1082 -2.50394 4.62806 0
M  V30 956 O 89.1342 -2.14261 5.27334 0
M  V30 957 N 90.3362 -3.81433 4.37595 0
M  V30 958 H 93.1012 0.0151844 2.99696 0
M  V30 959 H 90.6622 0.153681 1.61169 0
M  V30 960 H 92.6542 -2.50975 3.1748 0
M  V30 961 H 91.2242 -2.28115 2.13734 0
M  V30 962 H 90.4442 -0.534201 3.90564 0
M  V30 963 H 91.7322 -1.14971 4.9564 0
M  V30 964 H 91.1302 -4.13584 3.8596 0
M  V30 965 H 89.6872 -4.4948 4.72029 0
M  V30 966 N 93.1203 -1.57491 0.0584922 0
M  V30 967 C 94.3603 -1.94851 -0.617458 0
M  V30 968 C 94.7243 -0.937165 -1.67575 0
M  V30 969 O 95.9253 -1.19795 -2.40629 0
M  V30 970 C 94.1963 -3.36955 -1.19147 0
M  V30 971 S 95.7553 -3.96277 -1.8844 0
M  V30 972 H 92.5733 -0.681539 -0.202547 0
M  V30 973 H 95.1753 -1.95073 0.129176 0
M  V30 974 H 93.8793 -4.08355 -0.409215 0
M  V30 975 H 93.4103 -3.40245 -1.97476 0
M  V30 976 H 95.4253 -3.82099 -3.16568 0
M  V30 977 N 94.5984 0.214957 -1.56127 0
M  V30 978 C 95.8754 0.963093 -1.70247 0
M  V30 979 C 96.2554 2.02166 -0.60764 0
M  V30 980 O 95.6034 2.25244 0.384385 0
M  V30 981 C 95.8134 1.56756 -3.11815 0
M  V30 982 C 97.1614 2.0573 -3.7143 0
M  V30 983 O 98.1854 1.66637 -3.14818 0
M  V30 984 O 97.0444 2.77603 -4.70743 0
M  V30 985 H 94.1384 0.450321 -0.693643 0
M  V30 986 H 96.6844 0.206219 -1.68442 0
M  V30 987 H 95.4564 0.803533 -3.82961 0
M  V30 988 H 95.0794 2.3898 -3.17765 0
M  V30 989 N 96.0765 1.50051 0.48192 0
M  V30 990 C 97.3225 1.61706 1.2338 0
M  V30 991 C 97.6775 0.308488 1.89911 0
M  V30 992 O 96.9705 -0.692798 1.78636 0
M  V30 993 C 97.1645 2.72717 2.30998 0
M  V30 994 C 96.9935 4.14242 1.75024 0
M  V30 995 C 95.7635 4.80786 1.55476 0
M  V30 996 C 97.9615 4.98846 1.25128 0
M  V30 997 N 95.9435 6.06563 0.946311 0
M  V30 998 C 97.3145 6.15258 0.765382 0
M  V30 999 C 99.3695 4.84702 1.13881 0
M  V30 1000 C 98.0725 7.19079 0.178113 0
M  V30 1001 C 100.098 5.8869 0.565486 0
M  V30 1002 C 99.4605 7.04343 0.0899105 0
M  V30 1003 H 95.5595 0.645958 0.440753 0
M  V30 1004 H 98.1435 1.8713 0.537624 0
M  V30 1005 H 96.3145 2.49033 2.98055 0
M  V30 1006 H 98.0465 2.73789 2.9803 0
M  V30 1007 H 94.8015 4.37899 1.80392 0
M  V30 1008 H 95.2255 6.73767 0.660812 0
M  V30 1009 H 99.8675 3.95583 1.49244 0
M  V30 1010 H 97.5855 8.07882 -0.187749 0
M  V30 1011 H 101.171 5.79808 0.480974 0
M  V30 1012 H 100.051 7.83433 -0.346782 0
M  V30 1013 N 97.5546 -0.734337 1.39446 0
M  V30 1014 C 98.8316 -1.48579 1.27215 0
M  V30 1015 C 99.2116 -2.1077 -0.117968 0
M  V30 1016 O 98.5596 -1.98646 -1.12924 0
M  V30 1017 C 98.7696 -2.53667 2.39696 0
M  V30 1018 C 100.118 -3.20031 2.79044 0
M  V30 1019 O 101.142 -2.6398 2.39151 0
M  V30 1020 O 100.001 -4.21455 3.47905 0
M  V30 1021 H 97.0946 -0.659816 0.49857 0
M  V30 1022 H 99.6406 -0.768106 1.51322 0
M  V30 1023 H 98.4126 -2.06096 3.32626 0
M  V30 1024 H 98.0356 -3.32994 2.17258 0
M  V30 1025 N 99.0327 -1.24633 -0.964593 0
M  V30 1026 C 100.31 -0.995809 -1.68354 0
M  V30 1027 C 100.69 0.480964 -2.05548 0
M  V30 1028 O 100.038 1.45599 -1.76105 0
M  V30 1029 C 100.248 -1.92177 -2.91323 0
M  V30 1030 C 101.596 -2.19446 -3.63495 0
M  V30 1031 O 102.62 -1.89855 -3.01386 0
M  V30 1032 O 101.479 -2.69714 -4.75307 0
M  V30 1033 H 98.5727 -0.376854 -0.736146 0
M  V30 1034 H 101.119 -1.35745 -1.0184 0
M  V30 1035 H 99.8907 -2.91938 -2.60553 0
M  V30 1036 H 99.5137 -1.56349 -3.65569 0
M  V30 1037 N 100.511 1.16574 -1.06058 0
M  V30 1038 C 101.758 1.87047 -0.775873 0
M  V30 1039 C 102.086 1.81562 0.697534 0
M  V30 1040 O 101.341 1.22445 1.52662 0
M  V30 1041 C 101.64 3.36195 -1.21275 0
M  V30 1042 C 101.306 3.6188 -2.68986 0
M  V30 1043 C 99.9678 3.68599 -3.09335 0
M  V30 1044 C 102.32 3.72648 -3.64394 0
M  V30 1045 C 99.6478 3.83584 -4.43937 0
M  V30 1046 C 102 3.89154 -4.98741 0
M  V30 1047 C 100.664 3.94114 -5.3873 0
M  V30 1048 H 99.9338 0.684452 -0.283912 0
M  V30 1049 H 102.581 1.37853 -1.32925 0
M  V30 1050 H 100.886 3.87505 -0.578528 0
M  V30 1051 H 102.583 3.89103 -0.969542 0
M  V30 1052 H 99.1728 3.57281 -2.36744 0
M  V30 1053 H 103.357 3.66769 -3.34356 0
M  V30 1054 H 98.6128 3.85677 -4.74409 0
M  V30 1055 H 102.787 3.96427 -5.72554 0
M  V30 1056 H 100.414 4.05478 -6.43033 0
M  V30 1057 N 101.989 0.842826 1.3317 0
M  V30 1058 C 103.236 0.440447 1.97652 0
M  V30 1059 C 103.564 -1.00123 1.6675 0
M  V30 1060 O 102.819 -1.7155 0.941761 0
M  V30 1061 C 103.118 0.612607 3.52111 0
M  V30 1062 C 102.784 2.02297 4.02972 0
M  V30 1063 C 101.446 2.40874 4.16573 0
M  V30 1064 C 103.798 2.94402 4.30089 0
M  V30 1065 C 101.126 3.70852 4.54627 0
M  V30 1066 C 103.478 4.23865 4.69597 0
M  V30 1067 C 102.142 4.62392 4.81404 0
M  V30 1068 H 101.412 0.161171 0.72326 0
M  V30 1069 H 104.059 1.07061 1.58777 0
M  V30 1070 H 102.364 -0.100849 3.9167 0
M  V30 1071 H 104.061 0.2815 4.00011 0
M  V30 1072 H 100.651 1.71338 3.92863 0
M  V30 1073 H 104.835 2.65835 4.19101 0
M  V30 1074 H 100.091 4.00501 4.61962 0
M  V30 1075 H 104.265 4.95306 4.89536 0
M  V30 1076 H 101.892 5.63154 5.10648 0
M  V30 1077 N 103.467 -1.45747 0.599634 0
M  V30 1078 C 104.878 -1.85853 0.177681 0
M  V30 1079 C 105.229 -1.50102 -1.26348 0
M  V30 1080 O 104.354 -0.923905 -1.95686 0
M  V30 1081 C 104.949 -3.37326 0.315688 0
M  V30 1082 C 103.508 -3.76365 -0.0515144 0
M  V30 1083 C 102.655 -2.69722 0.643822 0
M  V30 1084 H 105.606 -1.36661 0.806814 0
M  V30 1085 H 105.627 -3.77778 -0.454321 0
M  V30 1086 H 105.139 -3.63315 1.36468 0
M  V30 1087 H 103.24 -3.55993 -1.09999 0
M  V30 1088 H 103.353 -4.77916 0.336594 0
M  V30 1089 H 101.717 -2.54567 0.0822881 0
M  V30 1090 H 102.5 -2.98549 1.6948 0
M  V30 1091 N 104.945 -0.338344 -1.53925 0
M  V30 1092 C 106.173 0.261298 -2.05243 0
M  V30 1093 C 106.588 1.44625 -1.21363 0
M  V30 1094 O 105.945 1.80811 -0.247736 0
M  V30 1095 C 105.996 0.681412 -3.5502 0
M  V30 1096 O 105.717 -0.456414 -4.35716 0
M  V30 1097 C 107.218 1.34232 -4.22489 0
M  V30 1098 H 104.438 0.0513685 -0.669031 0
M  V30 1099 H 106.982 -0.488822 -1.98572 0
M  V30 1100 H 105.137 1.38148 -3.61931 0
M  V30 1101 H 105.551 -0.122564 -5.24357 0
M  V30 1102 H 107.025 1.58708 -5.28693 0
M  V30 1103 H 107.502 2.29426 -3.74514 0
M  V30 1104 H 108.108 0.684424 -4.19757 0
M  V30 1105 N 106.423 1.57458 -0.0668435 0
M  V30 1106 C 107.353 2.15468 0.899764 0
M  V30 1107 C 108.334 1.08042 1.31381 0
M  V30 1108 O 109.519 1.36054 1.38574 0
M  V30 1109 C 106.649 2.71232 2.16911 0
M  V30 1110 C 105.603 3.83781 1.89463 0
M  V30 1111 C 104.929 4.26127 3.22986 0
M  V30 1112 C 106.229 5.08238 1.20381 0
M  V30 1113 H 107.923 2.96488 0.416529 0
M  V30 1114 H 105.469 1.4262 0.198908 0
M  V30 1115 H 107.422 3.10458 2.84945 0
M  V30 1116 H 106.146 1.87426 2.67468 0
M  V30 1117 H 104.805 3.45051 1.23836 0
M  V30 1118 H 104.453 3.39249 3.71374 0
M  V30 1119 H 104.153 5.01993 3.05413 0
M  V30 1120 H 105.677 4.67966 3.92225 0
M  V30 1121 H 107.091 5.44811 1.78475 0
M  V30 1122 H 105.488 5.89349 1.13083 0
M  V30 1123 H 106.558 4.84558 0.182153 0
M  V30 1124 N 107.901 -0.206675 1.56239 0
M  V30 1125 C 108.811 -1.27686 1.96808 0
M  V30 1126 C 109.827 -1.50455 0.874035 0
M  V30 1127 O 111.003 -1.63295 1.17884 0
M  V30 1128 C 108.068 -2.60358 2.28942 0
M  V30 1129 C 107.129 -2.45762 3.51994 0
M  V30 1130 C 106.362 -3.72108 3.82585 0
M  V30 1131 O 106.585 -4.75776 3.14631 0
M  V30 1132 O 105.519 -3.6833 4.76043 0
M  V30 1133 H 109.345 -0.962593 2.88041 0
M  V30 1134 H 106.93 -0.410746 1.43643 0
M  V30 1135 H 108.812 -3.38687 2.50737 0
M  V30 1136 H 107.487 -2.91435 1.4088 0
M  V30 1137 H 106.394 -1.65584 3.35459 0
M  V30 1138 H 107.727 -2.19621 4.40486 0
M  V30 1139 N 109.379 -1.50304 -0.473955 0
M  V30 1140 C 110.289 -1.7174 -1.5982 0
M  V30 1141 C 111.305 -0.600457 -1.63311 0
M  V30 1142 O 112.481 -0.878441 -1.81233 0
M  V30 1143 C 109.546 -1.80427 -2.96052 0
M  V30 1144 C 108.607 -3.04148 -3.02972 0
M  V30 1145 C 107.84 -3.12411 -4.32706 0
M  V30 1146 O 108.063 -2.27542 -5.23049 0
M  V30 1147 O 106.997 -4.05113 -4.45159 0
M  V30 1148 H 110.823 -2.67035 -1.44657 0
M  V30 1149 H 108.408 -1.34366 -0.653148 0
M  V30 1150 H 110.29 -1.88338 -3.7697 0
M  V30 1151 H 108.965 -0.883156 -3.11419 0
M  V30 1152 H 107.872 -3.0174 -2.21142 0
M  V30 1153 H 109.205 -3.95829 -2.92541 0
M  V30 1154 N 110.857 0.726932 -1.39834 0
M  V30 1155 C 112.106 1.48214 -1.36805 0
M  V30 1156 C 112.419 1.95576 0.0305291 0
M  V30 1157 O 113.625 2.7088 0.183417 0
M  V30 1158 C 112.081 2.67854 -2.40379 0
M  V30 1159 C 111.689 2.27408 -3.85992 0
M  V30 1160 C 113.433 3.45641 -2.46439 0
M  V30 1161 C 111.34 3.43819 -4.81189 0
M  V30 1162 H 110.27 0.556606 -0.508631 0
M  V30 1163 H 112.921 0.792216 -1.65518 0
M  V30 1164 H 111.303 3.3896 -2.04749 0
M  V30 1165 H 112.477 1.63795 -4.30706 0
M  V30 1166 H 110.792 1.62692 -3.83302 0
M  V30 1167 H 113.389 4.32244 -3.14753 0
M  V30 1168 H 113.732 3.88669 -1.49139 0
M  V30 1169 H 114.265 2.8157 -2.81004 0
M  V30 1170 H 111.004 3.05834 -5.79781 0
M  V30 1171 H 110.524 4.06385 -4.41148 0
M  V30 1172 H 112.203 4.10043 -5.00474 0
M  V30 1173 N 112.336 1.25143 0.95797 0
M  V30 1174 C 113.613 1.00472 1.67823 0
M  V30 1175 C 113.993 -0.470056 2.058 0
M  V30 1176 O 113.341 -1.44663 1.76875 0
M  V30 1177 C 113.551 1.9372 2.90299 0
M  V30 1178 C 114.899 2.21371 3.62326 0
M  V30 1179 O 115.923 1.91451 3.00375 0
M  V30 1180 O 114.782 2.72231 4.7387 0
M  V30 1181 H 111.876 0.380752 0.734137 0
M  V30 1182 H 114.422 1.36283 1.01119 0
M  V30 1183 H 113.194 2.93316 2.59001 0
M  V30 1184 H 112.817 1.58286 3.64735 0
M  V30 1185 N 113.814 -1.1601 1.06675 0
M  V30 1186 C 115.061 -1.86633 0.785781 0
M  V30 1187 C 115.389 -1.81929 -0.687896 0
M  V30 1188 O 114.644 -1.23253 -1.52011 0
M  V30 1189 C 114.943 -3.35547 1.23057 0
M  V30 1190 C 114.609 -3.60448 2.70902 0
M  V30 1191 C 113.271 -3.66954 3.11285 0
M  V30 1192 C 115.623 -3.7071 3.66365 0
M  V30 1193 C 112.951 -3.81225 4.45965 0
M  V30 1194 C 115.303 -3.86503 5.00797 0
M  V30 1195 C 113.967 -3.91252 5.40813 0
M  V30 1196 H 113.237 -0.682937 0.287538 0
M  V30 1197 H 115.884 -1.37146 1.33654 0
M  V30 1198 H 114.189 -3.87193 0.59907 0
M  V30 1199 H 115.886 -3.88583 0.990163 0
M  V30 1200 H 112.476 -3.56021 2.38636 0
M  V30 1201 H 116.66 -3.64991 3.36296 0
M  V30 1202 H 111.916 -3.83155 4.76447 0
M  V30 1203 H 116.09 -3.93385 5.74649 0
M  V30 1204 H 113.717 -4.02062 6.45174 0
M  V30 1205 N 115.292 -0.849877 -1.32721 0
M  V30 1206 C 116.24 -0.279745 -2.30912 0
M  V30 1207 C 117.234 0.594278 -1.58634 0
M  V30 1208 O 118.44 0.482613 -1.73409 0
M  V30 1209 H 114.815 -0.0717521 -0.748569 0
M  V30 1210 H 116.786 -1.12222 -2.76494 0
M  V30 1211 C 115.535 0.521108 -3.43773 0
M  V30 1212 H 114.858 -0.142141 -3.99547 0
M  V30 1213 H 116.298 0.885693 -4.14646 0
M  V30 1214 C 114.757 1.70442 -2.90605 0
M  V30 1215 O 115.287 2.8034 -2.87702 0
M  V30 1216 N 113.493 1.52991 -2.47067 0
M  V30 1217 H 113.04 0.635914 -2.49628 0
M  V30 1218 H 112.998 2.32311 -2.11847 0
M  V30 1219 N 116.77 1.45427 -0.607355 0
M  V30 1220 C 118.018 2.01841 -0.102253 0
M  V30 1221 C 118.339 1.47832 1.27164 0
M  V30 1222 O 117.609 0.672497 1.83995 0
M  V30 1223 H 116.189 0.746188 -0.0348101 0
M  V30 1224 H 118.851 1.78229 -0.7887 0
M  V30 1225 H 117.947 3.12057 -0.0518585 0
M  V30 1226 N 118.248 0.346503 1.53744 0
M  V30 1227 C 119.195 -0.508914 2.25119 0
M  V30 1228 C 120.165 -1.09315 1.25058 0
M  V30 1229 O 121.35 -1.12921 1.53797 0
M  V30 1230 C 118.49 -1.65246 3.02965 0
M  V30 1231 C 117.603 -1.09525 4.17886 0
M  V30 1232 C 116.738 -2.20634 4.83212 0
M  V30 1233 C 115.777 -1.62279 5.90196 0
M  V30 1234 N 114.914 -2.67143 6.49291 0
M  V30 1235 H 119.754 0.106283 2.9781 0
M  V30 1236 H 117.291 0.0642227 1.4696 0
M  V30 1237 H 119.249 -2.32574 3.4636 0
M  V30 1238 H 117.879 -2.2386 2.32565 0
M  V30 1239 H 116.931 -0.312818 3.79112 0
M  V30 1240 H 118.243 -0.628444 4.94825 0
M  V30 1241 H 117.397 -2.95821 5.29693 0
M  V30 1242 H 116.136 -2.70659 4.05703 0
M  V30 1243 H 115.141 -0.855989 5.43096 0
M  V30 1244 H 116.366 -1.13102 6.69615 0
M  V30 1245 H 114.312 -3.16417 5.74645 0
M  V30 1246 H 114.229 -2.25093 7.21713 0
M  V30 1247 H 115.497 -3.4209 7.00425 0
M  V30 1248 N 119.726 -1.57421 0.075193 0
M  V30 1249 C 120.656 -2.15942 -0.888324 0
M  V30 1250 C 121.637 -1.08737 -1.30806 0
M  V30 1251 O 122.822 -1.36787 -1.37851 0
M  V30 1252 C 119.952 -2.72379 -2.1547 0
M  V30 1253 C 118.906 -3.8478 -1.87425 0
M  V30 1254 C 118.232 -4.27834 -3.20721 0
M  V30 1255 C 119.532 -5.08869 -1.17684 0
M  V30 1256 H 121.226 -2.96705 -0.400799 0
M  V30 1257 H 118.772 -1.42723 -0.191342 0
M  V30 1258 H 120.725 -3.11965 -2.83295 0
M  V30 1259 H 119.449 -1.88841 -2.6647 0
M  V30 1260 H 118.108 -3.45703 -1.22004 0
M  V30 1261 H 117.756 -3.41214 -3.6957 0
M  V30 1262 H 117.456 -5.03605 -3.02746 0
M  V30 1263 H 118.98 -4.70039 -3.89738 0
M  V30 1264 H 120.394 -5.4575 -1.75584 0
M  V30 1265 H 118.791 -5.8994 -1.09956 0
M  V30 1266 H 119.861 -4.84648 -0.156453 0
M  V30 1267 N 121.204 0.198386 -1.56346 0
M  V30 1268 C 122.45 0.920648 -1.80698 0
M  V30 1269 C 122.783 1.83045 -0.648697 0
M  V30 1270 O 122.058 1.91308 0.350925 0
M  V30 1271 C 122.341 1.73971 -3.15287 0
M  V30 1272 C 122.194 0.85485 -4.41602 0
M  V30 1273 C 123.513 2.71296 -3.46535 0
M  V30 1274 H 120.632 0.333261 -0.657348 0
M  V30 1275 H 123.274 0.188198 -1.89066 0
M  V30 1276 H 121.424 2.36416 -3.08285 0
M  V30 1277 H 123.096 0.245362 -4.60647 0
M  V30 1278 H 121.339 0.161398 -4.335 0
M  V30 1279 H 122.01 1.46286 -5.32264 0
M  V30 1280 H 124.486 2.18983 -3.53816 0
M  V30 1281 H 123.362 3.2569 -4.41834 0
M  V30 1282 H 123.623 3.5018 -2.69864 0
M  V30 1283 N 122.682 1.50554 0.465978 0
M  V30 1284 C 123.645 1.69233 1.54574 0
M  V30 1285 C 124.645 0.562901 1.50626 0
M  V30 1286 O 125.835 0.830016 1.53155 0
M  V30 1287 C 122.967 1.7223 2.94193 0
M  V30 1288 H 124.16 2.65571 1.39327 0
M  V30 1289 H 121.713 1.40111 0.692711 0
M  V30 1290 H 122.448 0.77603 3.14878 0
M  V30 1291 H 122.233 2.54285 2.98466 0
M  V30 1292 H 123.723 1.88618 3.72576 0
M  V30 1293 N 124.16 -0.719506 1.40217 0
M  V30 1294 C 125.09 -1.8465 1.42922 0
M  V30 1295 C 126.071 -1.67599 0.29062 0
M  V30 1296 O 127.256 -1.87688 0.498677 0
M  V30 1297 C 124.386 -3.22565 1.28722 0
M  V30 1298 C 123.34 -3.54281 2.40144 0
M  V30 1299 C 122.666 -4.91298 2.11023 0
M  V30 1300 C 123.966 -3.55676 3.82481 0
M  V30 1301 H 125.66 -1.82644 2.37237 0
M  V30 1302 H 123.206 -0.877305 1.1419 0
M  V30 1303 H 125.159 -4.01095 1.29232 0
M  V30 1304 H 123.883 -3.25137 0.308811 0
M  V30 1305 H 122.542 -2.78088 2.38877 0
M  V30 1306 H 122.19 -4.90468 1.11582 0
M  V30 1307 H 121.89 -5.13485 2.8567 0
M  V30 1308 H 123.414 -5.72166 2.13209 0
M  V30 1309 H 124.828 -4.24254 3.85592 0
M  V30 1310 H 123.225 -3.89388 4.56614 0
M  V30 1311 H 124.295 -2.55144 4.12346 0
M  V30 1312 N 125.638 -1.25649 -0.95132 0
M  V30 1313 C 126.885 -1.10594 -1.69633 0
M  V30 1314 C 127.213 0.352515 -1.91279 0
M  V30 1315 O 126.468 1.27601 -1.4838 0
M  V30 1316 C 126.767 -1.80909 -3.08231 0
M  V30 1317 C 126.433 -3.30825 -3.06375 0
M  V30 1318 C 125.095 -3.71722 -3.05576 0
M  V30 1319 C 127.447 -4.26589 -2.99452 0
M  V30 1320 C 124.775 -5.06788 -2.95606 0
M  V30 1321 C 127.127 -5.61683 -2.91024 0
M  V30 1322 C 125.791 -6.01904 -2.88562 0
M  V30 1323 H 125.061 -0.404691 -0.620731 0
M  V30 1324 H 127.708 -1.55964 -1.11119 0
M  V30 1325 H 126.013 -1.27979 -3.70309 0
M  V30 1326 H 127.71 -1.6671 -3.64704 0
M  V30 1327 H 124.3 -2.98287 -3.07771 0
M  V30 1328 H 128.484 -3.95982 -2.99185 0
M  V30 1329 H 123.74 -5.37126 -2.92071 0
M  V30 1330 H 127.914 -6.35578 -2.84629 0
M  V30 1331 H 125.541 -7.06521 -2.80593 0
M  V30 1332 N 127.117 1.15442 -1.07289 0
M  V30 1333 C 128.365 1.85845 -0.794096 0
M  V30 1334 C 128.686 1.82692 0.681809 0
M  V30 1335 O 127.956 1.26741 1.49377 0
M  V30 1336 H 126.536 0.688089 -0.290763 0
M  V30 1337 H 129.198 1.39947 -1.3565 0
M  V30 1338 H 128.294 2.91001 -1.12804 0
M  V30 1339 N 128.595 0.856903 1.32268 0
M  V30 1340 C 129.835 0.467705 1.98977 0
M  V30 1341 C 130.199 -0.959231 1.66321 0
M  V30 1342 O 131.4 -1.4531 2.26138 0
M  V30 1343 C 129.671 0.70256 3.50427 0
M  V30 1344 S 131.23 0.411269 4.36868 0
M  V30 1345 H 128.048 0.175121 0.689096 0
M  V30 1346 H 130.65 1.1101 1.60925 0
M  V30 1347 H 129.354 1.74012 3.71683 0
M  V30 1348 H 128.885 0.0466707 3.93372 0
M  V30 1349 H 130.9 -0.761799 4.90317 0
M  V30 1350 N 130.073 -1.45103 0.615059 0
M  V30 1351 C 131.321 -2.01784 0.112955 0
M  V30 1352 C 131.642 -1.48504 -1.26378 0
M  V30 1353 O 130.912 -0.682245 -1.83636 0
M  V30 1354 H 129.492 -0.745993 0.0387668 0
M  V30 1355 H 132.154 -1.77808 0.798141 0
M  V30 1356 H 131.25 -3.12025 0.0684069 0
M  V30 1357 N 131.551 -0.354651 -1.53558 0
M  V30 1358 C 132.828 0.294281 -1.93374 0
M  V30 1359 C 133.208 1.67313 -1.28723 0
M  V30 1360 O 132.556 2.24179 -0.442247 0
M  V30 1361 C 132.766 0.355445 -3.47185 0
M  V30 1362 C 134.114 0.601007 -4.20325 0
M  V30 1363 O 135.138 0.437106 -3.53508 0
M  V30 1364 O 133.997 0.919322 -5.38712 0
M  V30 1365 H 131.091 0.174033 -0.808481 0
M  V30 1366 H 133.637 -0.406638 -1.64756 0
M  V30 1367 H 132.409 -0.611729 -3.86489 0
M  V30 1368 H 132.032 1.1027 -3.82003 0
M  V30 1369 N 133.029 1.57378 -0.0835403 0
M  V30 1370 C 133.961 2.10389 0.909338 0
M  V30 1371 C 134.974 1.03858 1.25369 0
M  V30 1372 O 136.163 1.31338 1.20882 0
M  V30 1373 C 133.263 2.55908 2.2218 0
M  V30 1374 C 132.436 3.86145 2.05453 0
M  V30 1375 C 131.495 4.17633 3.20108 0
M  V30 1376 O 130.521 4.87043 2.94581 0
M  V30 1377 N 131.723 3.72113 4.45547 0
M  V30 1378 H 134.488 2.962 0.456657 0
M  V30 1379 H 132.049 1.61579 0.101877 0
M  V30 1380 H 134.041 2.74027 2.97811 0
M  V30 1381 H 132.611 1.75171 2.58909 0
M  V30 1382 H 131.831 3.7729 1.1422 0
M  V30 1383 H 133.119 4.7137 1.91541 0
M  V30 1384 H 132.517 3.16062 4.69171 0
M  V30 1385 H 131.074 3.95409 5.18165 0
M  V30 1386 N 134.507 -0.190092 1.56449 0
M  V30 1387 C 135.417 -1.25591 1.98152 0
M  V30 1388 C 136.433 -1.49519 0.889944 0
M  V30 1389 O 137.609 -1.62036 1.19609 0
M  V30 1390 C 134.674 -2.57916 2.3169 0
M  V30 1391 C 133.735 -2.42015 3.5458 0
M  V30 1392 C 132.968 -3.6803 3.8651 0
M  V30 1393 O 133.191 -4.72413 3.1966 0
M  V30 1394 O 132.125 -3.6326 4.79923 0
M  V30 1395 H 135.951 -0.931988 2.89046 0
M  V30 1396 H 133.536 -0.395488 1.4407 0
M  V30 1397 H 135.418 -3.36008 2.54316 0
M  V30 1398 H 134.093 -2.89925 1.43963 0
M  V30 1399 H 133 -1.62017 3.37196 0
M  V30 1400 H 134.333 -2.14937 4.4279 0
M  V30 1401 N 135.985 -1.50799 -0.457987 0
M  V30 1402 C 137.262 -1.52968 -1.21902 0
M  V30 1403 C 137.642 -0.281906 -2.09209 0
M  V30 1404 O 136.99 0.734076 -2.16388 0
M  V30 1405 C 137.2 -2.8326 -2.03875 0
M  V30 1406 C 138.548 -3.34425 -2.6162 0
M  V30 1407 O 139.572 -2.8467 -2.14106 0
M  V30 1408 O 138.431 -4.21188 -3.48228 0
M  V30 1409 H 135.525 -0.614129 -0.553873 0
M  V30 1410 H 138.071 -1.63098 -0.468739 0
M  V30 1411 H 136.843 -3.65543 -1.39621 0
M  V30 1412 H 136.466 -2.76195 -2.8601 0
M  V30 1413 N 137.463 0.71206 -1.40597 0
M  V30 1414 C 138.693 1.49894 -1.42181 0
M  V30 1415 C 139.101 1.89189 -0.0208078 0
M  V30 1416 O 138.444 1.56223 0.966436 0
M  V30 1417 C 138.506 2.80215 -2.25211 0
M  V30 1418 C 138.17 2.63221 -3.73582 0
M  V30 1419 C 139.167 2.30249 -4.66135 0
M  V30 1420 C 136.852 2.79376 -4.17438 0
M  V30 1421 C 138.846 2.13645 -6.00529 0
M  V30 1422 C 136.533 2.6239 -5.51901 0
M  V30 1423 C 137.531 2.29573 -6.43262 0
M  V30 1424 O 137.219 2.12719 -7.75246 0
M  V30 1425 H 136.951 0.469031 -0.486812 0
M  V30 1426 H 139.505 0.88564 -1.85326 0
M  V30 1427 H 137.735 3.4389 -1.76852 0
M  V30 1428 H 139.424 3.41947 -2.18694 0
M  V30 1429 H 140.19 2.17398 -4.33547 0
M  V30 1430 H 136.069 3.03906 -3.46644 0
M  V30 1431 H 139.613 1.87953 -6.71803 0
M  V30 1432 H 135.51 2.74826 -5.84073 0
M  V30 1433 H 136.278 2.27611 -7.86216 0
M  V30 1434 N 138.941 1.26152 0.944643 0
M  V30 1435 C 139.904 1.07474 2.0244 0
M  V30 1436 C 140.904 0.0242064 1.60782 0
M  V30 1437 O 142.094 0.267302 1.72137 0
M  V30 1438 C 139.226 0.633956 3.34953 0
M  V30 1439 H 140.419 2.03336 2.20442 0
M  V30 1440 H 137.972 1.087 1.12312 0
M  V30 1441 H 138.707 -0.326811 3.22649 0
M  V30 1442 H 138.492 1.39247 3.66542 0
M  V30 1443 H 139.982 0.52501 4.14287 0
M  V30 1444 N 140.419 -1.14872 1.07899 0
M  V30 1445 C 141.329 -2.2341 0.715915 0
M  V30 1446 C 142.345 -1.71808 -0.275306 0
M  V30 1447 O 143.521 -2.01039 -0.120545 0
M  V30 1448 C 140.586 -3.46474 0.125168 0
M  V30 1449 C 139.647 -4.13039 1.17034 0
M  V30 1450 C 138.88 -5.30229 0.607688 0
M  V30 1451 O 139.103 -5.675 -0.574497 0
M  V30 1452 O 138.037 -5.86444 1.35526 0
M  V30 1453 H 141.863 -2.56808 1.62121 0
M  V30 1454 H 139.448 -1.22702 0.852322 0
M  V30 1455 H 141.33 -4.20917 -0.201729 0
M  V30 1456 H 140.005 -3.14811 -0.753364 0
M  V30 1457 H 138.912 -3.40493 1.54968 0
M  V30 1458 H 140.245 -4.48796 2.02097 0
M  V30 1459 N 141.898 -0.863906 -1.31812 0
M  V30 1460 C 143.128 -0.485406 -2.00817 0
M  V30 1461 C 143.536 0.925007 -1.65046 0
M  V30 1462 O 142.879 1.61653 -0.872574 0
M  V30 1463 C 142.941 -0.555589 -3.55181 0
M  V30 1464 C 142.605 -1.92654 -4.14407 0
M  V30 1465 C 143.602 -2.89324 -4.31958 0
M  V30 1466 C 141.287 -2.2262 -4.50273 0
M  V30 1467 C 143.281 -4.14108 -4.84555 0
M  V30 1468 C 140.968 -3.47654 -5.02573 0
M  V30 1469 C 141.966 -4.43214 -5.19664 0
M  V30 1470 O 141.654 -5.66033 -5.70843 0
M  V30 1471 H 141.386 -0.188224 -0.649267 0
M  V30 1472 H 143.94 -1.16514 -1.69156 0
M  V30 1473 H 142.17 0.181037 -3.86276 0
M  V30 1474 H 143.859 -0.19138 -4.05449 0
M  V30 1475 H 144.625 -2.6748 -4.04573 0
M  V30 1476 H 140.504 -1.4902 -4.3625 0
M  V30 1477 H 144.048 -4.88703 -4.9781 0
M  V30 1478 H 139.945 -3.69345 -5.29391 0
M  V30 1479 H 140.713 -5.6812 -5.89222 0
M  V30 1480 N 143.376 1.44774 -0.622745 0
M  V30 1481 C 144.623 2.02121 -0.1239 0
M  V30 1482 C 144.951 1.48915 1.25118 0
M  V30 1483 O 144.206 0.660045 1.84233 0
M  V30 1484 C 144.505 3.57364 -0.0508323 0
M  V30 1485 C 144.171 4.29787 -1.36358 0
M  V30 1486 C 142.833 4.4929 -1.72314 0
M  V30 1487 C 145.185 4.71062 -2.23048 0
M  V30 1488 C 142.513 5.07325 -2.94682 0
M  V30 1489 C 144.865 5.30452 -3.44679 0
M  V30 1490 C 143.529 5.48175 -3.80868 0
M  V30 1491 H 142.799 0.739612 -0.0453381 0
M  V30 1492 H 145.446 1.73648 -0.807389 0
M  V30 1493 H 143.751 3.85202 0.715991 0
M  V30 1494 H 145.448 3.99456 0.351533 0
M  V30 1495 H 142.038 4.14932 -1.07375 0
M  V30 1496 H 146.222 4.55715 -1.96565 0
M  V30 1497 H 141.478 5.19235 -3.22809 0
M  V30 1498 H 145.652 5.61385 -4.12092 0
M  V30 1499 H 143.279 5.92912 -4.75773 0
M  V30 1500 N 144.854 0.36279 1.53368 0
M  V30 1501 C 146.094 -0.227882 2.03126 0
M  V30 1502 C 146.458 -1.4622 1.24434 0
M  V30 1503 O 147.659 -2.12831 1.64184 0
M  V30 1504 C 145.93 -0.515427 3.53664 0
M  V30 1505 S 147.489 -1.08017 4.25297 0
M  V30 1506 H 144.307 -0.0665377 0.70788 0
M  V30 1507 H 146.909 0.50501 1.88865 0
M  V30 1508 H 145.613 0.390436 4.08539 0
M  V30 1509 H 145.144 -1.27747 3.72081 0
M  V30 1510 H 147.159 -2.36462 4.36234 0
M  V30 1511 N 146.332 -1.57332 0.0918853 0
M  V30 1512 C 147.609 -1.85691 -0.614668 0
M  V30 1513 C 147.989 -0.988146 -1.86545 0
M  V30 1514 O 147.337 -0.0597055 -2.28422 0
M  V30 1515 C 147.547 -3.36294 -0.933126 0
M  V30 1516 C 148.895 -4.04275 -1.29796 0
M  V30 1517 O 149.919 -3.41157 -1.02424 0
M  V30 1518 O 148.778 -5.1564 -1.81047 0
M  V30 1519 H 145.872 -0.767802 -0.307261 0
M  V30 1520 H 148.418 -1.69244 0.12434 0
M  V30 1521 H 147.19 -3.91273 -0.0456404 0
M  V30 1522 H 146.813 -3.58076 -1.72822 0
M  V30 1523 N 147.81 0.181792 -1.56548 0
M  V30 1524 C 148.773 1.20894 -1.94724 0
M  V30 1525 C 149.773 1.37738 -0.829747 0
M  V30 1526 O 150.963 1.35323 -1.09697 0
M  V30 1527 C 148.095 2.57593 -2.23291 0
M  V30 1528 H 149.288 0.882275 -2.86629 0
M  V30 1529 H 146.841 0.423838 -1.50444 0
M  V30 1530 H 147.576 2.95291 -1.34067 0
M  V30 1531 H 147.361 2.46735 -3.04736 0
M  V30 1532 H 148.851 3.31637 -2.53785 0
M  V30 1533 N 149.288 1.51039 0.449983 0
M  V30 1534 C 150.218 1.74379 1.55288 0
M  V30 1535 C 151.199 0.593236 1.5942 0
M  V30 1536 O 152.384 0.834625 1.7535 0
M  V30 1537 C 149.514 1.85728 2.93466 0
M  V30 1538 C 148.468 3.01078 3.04197 0
M  V30 1539 C 147.794 2.97595 4.44231 0
M  V30 1540 C 149.094 4.41254 2.7945 0
M  V30 1541 H 150.788 2.66725 1.36008 0
M  V30 1542 H 148.334 1.2835 0.652864 0
M  V30 1543 H 150.287 2.0064 3.70569 0
M  V30 1544 H 149.011 0.900207 3.13949 0
M  V30 1545 H 147.67 2.85851 2.29531 0
M  V30 1546 H 147.318 1.99691 4.61663 0
M  V30 1547 H 147.018 3.75046 4.52343 0
M  V30 1548 H 148.542 3.14583 5.23326 0
M  V30 1549 H 149.956 4.56897 3.46292 0
M  V30 1550 H 148.353 5.20315 2.98985 0
M  V30 1551 H 149.423 4.52164 1.75144 0
M  V30 1552 N 150.766 -0.704594 1.40972 0
M  V30 1553 C 152.014 -1.46169 1.39568 0
M  V30 1554 C 152.335 -1.95 0.00253745 0
M  V30 1555 O 151.605 -1.71095 -0.954114 0
M  V30 1556 H 150.185 -0.542326 0.513704 0
M  V30 1557 H 152.847 -0.834553 1.76128 0
M  V30 1558 H 151.943 -2.32922 2.07735 0
M  V30 1559 N 152.244 -1.26651 -0.937939 0
M  V30 1560 C 153.472 -1.15173 -1.7188 0
M  V30 1561 C 153.887 0.292668 -1.86518 0
M  V30 1562 O 153.244 1.20014 -1.37488 0
M  V30 1563 C 153.295 -1.81925 -3.12387 0
M  V30 1564 O 153.016 -3.2072 -2.98446 0
M  V30 1565 C 154.517 -1.76442 -4.06673 0
M  V30 1566 H 151.737 -0.400911 -0.538063 0
M  V30 1567 H 154.281 -1.67332 -1.1756 0
M  V30 1568 H 152.436 -1.33696 -3.63599 0
M  V30 1569 H 152.85 -3.53802 -3.872 0
M  V30 1570 H 154.324 -2.27781 -5.02812 0
M  V30 1571 H 154.801 -0.731608 -4.33064 0
M  V30 1572 H 155.407 -2.24238 -3.61382 0
M  V30 1573 N 153.722 1.14298 -1.08507 0
M  V30 1574 C 154.971 1.84708 -0.810305 0
M  V30 1575 C 155.284 1.83903 0.666271 0
M  V30 1576 O 156.49 2.50112 1.05624 0
M  V30 1577 C 154.946 3.31572 -1.39957 0
M  V30 1578 C 154.554 3.40791 -2.90801 0
M  V30 1579 C 156.298 4.07087 -1.20334 0
M  V30 1580 C 154.205 4.81872 -3.4286 0
M  V30 1581 H 153.135 0.691985 -0.299454 0
M  V30 1582 H 155.786 1.28841 -1.30661 0
M  V30 1583 H 154.168 3.87183 -0.830976 0
M  V30 1584 H 155.342 2.95225 -3.53806 0
M  V30 1585 H 153.657 2.78732 -3.0935 0
M  V30 1586 H 156.254 5.11225 -1.56693 0
M  V30 1587 H 156.597 4.16054 -0.143237 0
M  V30 1588 H 157.13 3.57779 -1.73893 0
M  V30 1589 H 153.869 4.78094 -4.48449 0
M  V30 1590 H 153.389 5.27972 -2.84615 0
M  V30 1591 H 155.068 5.50765 -3.39509 0
M  V30 1592 N 155.201 0.870884 1.31352 0
M  V30 1593 C 156.617 0.562932 1.49343 0
M  V30 1594 C 156.817 -0.902725 1.80148 0
M  V30 1595 O 155.873 -1.68484 1.88067 0
M  V30 1596 C 157.186 1.46393 2.62659 0
M  V30 1597 C 158.734 1.46607 2.76542 0
M  V30 1598 C 159.209 2.35266 3.92955 0
M  V30 1599 N 160.7 2.33151 4.00243 0
M  V30 1600 C 161.435 2.98471 4.89594 0
M  V30 1601 N 160.931 3.72964 5.8384 0
M  V30 1602 N 162.724 2.87775 4.82848 0
M  V30 1603 H 154.875 1.81923 1.09626 0
M  V30 1604 H 157.138 0.777934 0.541777 0
M  V30 1605 H 156.844 2.50689 2.46674 0
M  V30 1606 H 156.718 1.16314 3.58819 0
M  V30 1607 H 159.105 0.43069 2.9194 0
M  V30 1608 H 159.186 1.8071 1.81046 0
M  V30 1609 H 158.83 3.38881 3.78315 0
M  V30 1610 H 158.76 1.98487 4.87761 0
M  V30 1611 H 161.251 1.79006 3.32814 0
M  V30 1612 H 161.564 4.19932 6.4875 0
M  V30 1613 H 159.909 3.77073 5.83816 0
M  V30 1614 H 163.1 2.29116 4.08195 0
M  V30 1615 H 163.273 3.38961 5.52277 0
M  V30 1616 N 156.679 -1.44442 0.630414 0
M  V30 1617 C 157.956 -1.9549 0.0655657 0
M  V30 1618 C 158.336 -1.5724 -1.40851 0
M  V30 1619 O 157.684 -0.846116 -2.12257 0
M  V30 1620 C 157.894 -3.47812 0.287691 0
M  V30 1621 C 159.242 -4.24216 0.180513 0
M  V30 1622 O 160.266 -3.55526 0.219019 0
M  V30 1623 O 159.125 -5.46434 0.0848493 0
M  V30 1624 H 156.219 -0.826688 -0.0227177 0
M  V30 1625 H 158.765 -1.54496 0.702068 0
M  V30 1626 H 157.537 -3.687 1.31056 0
M  V30 1627 H 157.16 -3.95751 -0.382984 0
M  V30 1628 N 158.157 -0.370918 -1.53173 0
M  V30 1629 C 159.406 0.218249 -2.00516 0
M  V30 1630 C 159.719 1.49429 -1.26215 0
M  V30 1631 O 160.925 2.16239 -1.64174 0
M  V30 1632 C 159.381 0.43948 -3.57207 0
M  V30 1633 C 158.989 -0.822244 -4.4039 0
M  V30 1634 C 160.733 0.986012 -4.1289 0
M  V30 1635 C 158.64 -0.570304 -5.88644 0
M  V30 1636 H 157.57 0.0853333 -0.749156 0
M  V30 1637 H 160.221 -0.490483 -1.76823 0
M  V30 1638 H 158.603 1.20961 -3.77074 0
M  V30 1639 H 159.777 -1.59557 -4.32294 0
M  V30 1640 H 158.092 -1.29238 -3.95836 0
M  V30 1641 H 160.689 1.18991 -5.21292 0
M  V30 1642 H 161.032 1.94972 -3.6782 0
M  V30 1643 H 161.565 0.27592 -3.96842 0
M  V30 1644 H 158.304 -1.50449 -6.38001 0
M  V30 1645 H 157.824 0.164427 -5.99575 0
M  V30 1646 H 159.503 -0.19784 -6.46697 0
M  V30 1647 N 159.635 1.57281 -0.100228 0
M  V30 1648 C 160.884 1.93713 0.561984 0
M  V30 1649 C 161.197 0.984492 1.69018 0
M  V30 1650 O 162.403 1.24273 2.41389 0
M  V30 1651 C 160.859 3.4421 1.05106 0
M  V30 1652 C 160.467 4.47975 -0.0476628 0
M  V30 1653 C 162.211 3.89595 1.68571 0
M  V30 1654 C 160.118 5.89631 0.457055 0
M  V30 1655 H 159.048 0.723082 0.2137 0
M  V30 1656 H 161.699 1.82644 -0.177057 0
M  V30 1657 H 160.081 3.50449 1.84395 0
M  V30 1658 H 161.255 4.53385 -0.823333 0
M  V30 1659 H 159.57 4.1223 -0.587816 0
M  V30 1660 H 162.167 4.92832 2.07414 0
M  V30 1661 H 162.51 3.28526 2.55688 0
M  V30 1662 H 163.043 3.86078 0.958562 0
M  V30 1663 H 159.782 6.54411 -0.377616 0
M  V30 1664 H 159.302 5.87681 1.19962 0
M  V30 1665 H 160.981 6.40363 0.92437 0
M  V30 1666 N 161.113 -0.173488 1.56642 0
M  V30 1667 C 162.023 -1.23482 1.99473 0
M  V30 1668 C 163.039 -1.48567 0.905752 0
M  V30 1669 O 164.215 -1.60758 1.21321 0
M  V30 1670 C 161.28 -2.55444 2.34413 0
M  V30 1671 C 160.341 -2.38241 3.57127 0
M  V30 1672 C 159.574 -3.63909 3.90392 0
M  V30 1673 O 159.797 -4.68996 3.24653 0
M  V30 1674 O 158.731 -3.58149 4.83749 0
M  V30 1675 H 162.557 -0.901279 2.90018 0
M  V30 1676 H 160.142 -0.380185 1.44482 0
M  V30 1677 H 162.024 -3.33292 2.57865 0
M  V30 1678 H 160.699 -2.88382 1.4703 0
M  V30 1679 H 159.606 -1.58431 3.38896 0
M  V30 1680 H 160.939 -2.10228 4.45045 0
M  V30 1681 N 162.591 -1.51276 -0.441967 0
M  V30 1682 C 164.002 -1.56244 -1.02199 0
M  V30 1683 C 164.353 -0.383149 -1.92422 0
M  V30 1684 O 163.478 0.500613 -2.1053 0
M  V30 1685 C 164.073 -2.83162 -1.86024 0
M  V30 1686 C 162.632 -2.90716 -2.39084 0
M  V30 1687 C 161.779 -2.50858 -1.18175 0
M  V30 1688 H 164.73 -1.5712 -0.223416 0
M  V30 1689 H 164.751 -2.66663 -2.71425 0
M  V30 1690 H 164.263 -3.68974 -1.20331 0
M  V30 1691 H 162.364 -2.09323 -3.08244 0
M  V30 1692 H 162.477 -3.94266 -2.72198 0
M  V30 1693 H 160.841 -2.03951 -1.52565 0
M  V30 1694 H 161.624 -3.3901 -0.541001 0
M  V30 1695 N 164.069 0.697108 -1.41344 0
M  V30 1696 C 165.485 1.00751 -1.2378 0
M  V30 1697 C 165.685 2.01105 -0.126066 0
M  V30 1698 O 164.741 2.47295 0.51004 0
M  V30 1699 C 166.054 1.53359 -2.58653 0
M  V30 1700 C 167.602 1.6525 -2.65822 0
M  V30 1701 C 168.077 2.2126 -4.01009 0
M  V30 1702 N 169.568 2.28622 -4.02847 0
M  V30 1703 C 170.303 2.72984 -5.04249 0
M  V30 1704 N 169.799 3.16962 -6.16041 0
M  V30 1705 N 171.592 2.72534 -4.91611 0
M  V30 1706 H 163.743 0.0322662 -2.12375 0
M  V30 1707 H 166.006 0.0768853 -0.944877 0
M  V30 1708 H 165.712 0.870773 -3.4075 0
M  V30 1709 H 165.586 2.51597 -2.81032 0
M  V30 1710 H 167.973 2.30644 -1.84086 0
M  V30 1711 H 168.054 0.655614 -2.47256 0
M  V30 1712 H 167.698 1.56482 -4.83193 0
M  V30 1713 H 167.628 3.21698 -4.16915 0
M  V30 1714 H 170.119 1.97585 -3.22131 0
M  V30 1715 H 170.432 3.49434 -6.89287 0
M  V30 1716 H 168.777 3.14875 -6.1958 0
M  V30 1717 H 171.968 2.37525 -4.0336 0
M  V30 1718 H 172.141 3.06789 -5.70775 0
M  V30 1719 N 165.547 1.27147 0.931209 0
M  V30 1720 C 166.795 1.13055 1.6752 0
M  V30 1721 C 167.116 -0.324791 1.92276 0
M  V30 1722 O 166.386 -1.22775 1.52654 0
M  V30 1723 H 164.966 0.415391 0.620854 0
M  V30 1724 H 167.628 1.59623 1.11833 0
M  V30 1725 H 166.724 1.65694 2.64485 0
M  V30 1726 N 167.025 -1.13721 1.09112 0
M  V30 1727 C 167.988 -2.17222 0.731241 0
M  V30 1728 C 168.988 -1.59035 -0.237566 0
M  V30 1729 O 170.178 -1.74192 -0.0161704 0
M  V30 1730 C 167.31 -3.40804 0.0808443 0
M  V30 1731 H 168.503 -2.50573 1.64783 0
M  V30 1732 H 166.056 -1.28493 0.889897 0
M  V30 1733 H 166.791 -3.1304 -0.847127 0
M  V30 1734 H 166.576 -3.84306 0.777896 0
M  V30 1735 H 168.066 -4.1731 -0.155657 0
M  V30 1736 N 168.503 -0.877838 -1.30888 0
M  V30 1737 C 169.731 -0.507414 -2.00581 0
M  V30 1738 C 170.146 0.902216 -1.65848 0
M  V30 1739 O 169.503 1.59225 -0.891831 0
M  V30 1740 C 169.554 -0.664162 -3.55347 0
M  V30 1741 O 169.275 -2.01829 -3.8884 0
M  V30 1742 C 170.776 -0.295787 -4.42312 0
M  V30 1743 H 167.996 -0.196866 -0.641471 0
M  V30 1744 H 170.54 -1.18117 -1.66939 0
M  V30 1745 H 168.695 -0.0378619 -3.87381 0
M  V30 1746 H 169.109 -2.03174 -4.8355 0
M  V30 1747 H 170.583 -0.456388 -5.5011 0
M  V30 1748 H 171.06 0.765663 -4.32475 0
M  V30 1749 H 171.666 -0.898113 -4.15709 0
M  V30 1750 N 169.982 1.44106 -0.638065 0
M  V30 1751 C 171.231 2.01194 -0.142744 0
M  V30 1752 C 171.544 1.50835 1.24532 0
M  V30 1753 O 172.75 2.00096 1.83504 0
M  V30 1754 C 171.206 3.59319 -0.20442 0
M  V30 1755 C 170.814 4.18674 -1.59423 0
M  V30 1756 C 172.558 4.23854 0.234079 0
M  V30 1757 C 170.465 5.69045 -1.61065 0
M  V30 1758 H 169.395 0.752367 -0.0495998 0
M  V30 1759 H 172.046 1.65246 -0.797881 0
M  V30 1760 H 170.428 3.92598 0.517946 0
M  V30 1761 H 171.602 3.96921 -2.34074 0
M  V30 1762 H 169.917 3.66453 -1.97741 0
M  V30 1763 H 172.514 5.34155 0.241443 0
M  V30 1764 H 172.857 3.96688 1.2627 0
M  V30 1765 H 173.39 3.95403 -0.436025 0
M  V30 1766 H 170.129 6.00956 -2.61787 0
M  V30 1767 H 169.649 5.929 -0.90718 0
M  V30 1768 H 171.328 6.32809 -1.34766 0
M  V30 1769 N 171.46 0.379036 1.52974 0
M  V30 1770 C 172.706 -0.206727 2.01744 0
M  V30 1771 C 173.039 -1.47314 1.26539 0
M  V30 1772 O 172.314 -1.91084 0.362903 0
M  V30 1773 C 172.597 -0.485066 3.56818 0
M  V30 1774 C 172.45 0.795919 4.42702 0
M  V30 1775 C 173.769 -1.28003 4.21074 0
M  V30 1776 H 170.888 -0.0736607 0.73331 0
M  V30 1777 H 173.53 0.506581 1.83122 0
M  V30 1778 H 171.68 -1.09272 3.72816 0
M  V30 1779 H 173.352 1.43307 4.38476 0
M  V30 1780 H 171.595 1.41344 4.10127 0
M  V30 1781 H 172.266 0.555947 5.49193 0
M  V30 1782 H 174.742 -0.765867 4.08991 0
M  V30 1783 H 173.618 -1.44352 5.29579 0
M  V30 1784 H 173.879 -2.29236 3.78026 0
M  V30 1785 N 172.938 -1.57226 0.108567 0
M  V30 1786 C 174.186 -1.94448 -0.550853 0
M  V30 1787 C 174.507 -0.992074 -1.67878 0
M  V30 1788 O 173.777 -0.0465 -1.95845 0
M  V30 1789 H 172.357 -0.717897 -0.206479 0
M  V30 1790 H 175.019 -1.94112 0.175062 0
M  V30 1791 H 174.115 -2.97218 -0.952259 0
M  V30 1792 N 174.416 0.165178 -1.56732 0
M  V30 1793 C 175.366 1.20917 -1.93295 0
M  V30 1794 C 176.35 1.39488 -0.801985 0
M  V30 1795 O 177.542 1.41356 -1.06525 0
M  V30 1796 C 174.671 2.54718 -2.3016 0
M  V30 1797 C 173.757 2.39815 -3.49785 0
M  V30 1798 N 174.148 1.94637 -4.66851 0
M  V30 1799 C 172.446 2.70623 -3.54513 0
M  V30 1800 C 173.147 1.92344 -5.4898 0
M  V30 1801 N 172.123 2.34978 -4.9019 0
M  V30 1802 H 175.925 0.851675 -2.81289 0
M  V30 1803 H 173.439 0.373399 -1.58049 0
M  V30 1804 H 175.436 3.30165 -2.54552 0
M  V30 1805 H 174.096 2.91265 -1.43508 0
M  V30 1806 H 175.107 1.6488 -4.90953 0
M  V30 1807 H 171.784 3.11167 -2.78354 0
M  V30 1808 H 173.174 1.5906 -6.52801 0
M  V30 1809 N 175.894 1.51508 0.433938 0
M  V30 1810 C 177.14 1.65549 1.18173 0
M  V30 1811 C 177.495 0.368751 1.88833 0
M  V30 1812 O 176.788 -0.635616 1.8075 0
M  V30 1813 C 176.982 2.79928 2.22205 0
M  V30 1814 C 176.811 4.19601 1.61756 0
M  V30 1815 C 175.581 4.85489 1.40101 0
M  V30 1816 C 177.779 5.02574 1.09194 0
M  V30 1817 N 175.761 6.09266 0.752859 0
M  V30 1818 C 177.132 6.17381 0.569255 0
M  V30 1819 C 179.187 4.88079 0.984025 0
M  V30 1820 C 177.89 7.19282 -0.0507472 0
M  V30 1821 C 179.916 5.90191 0.377912 0
M  V30 1822 C 179.278 7.04272 -0.134216 0
M  V30 1823 H 175.377 0.659653 0.419979 0
M  V30 1824 H 177.961 1.88746 0.477818 0
M  V30 1825 H 176.132 2.5839 2.89982 0
M  V30 1826 H 177.864 2.83132 2.89168 0
M  V30 1827 H 174.619 4.43417 1.66369 0
M  V30 1828 H 175.043 6.75528 0.446123 0
M  V30 1829 H 179.685 4.00131 1.36583 0
M  V30 1830 H 177.403 8.06876 -0.444676 0
M  V30 1831 H 180.989 5.81045 0.296269 0
M  V30 1832 H 179.869 7.81933 -0.59585 0
M  V30 1833 N 177.372 -0.689602 1.41712 0
M  V30 1834 C 178.783 -1.26973 1.36875 0
M  V30 1835 C 179.134 -1.96124 0.054748 0
M  V30 1836 O 178.259 -1.99141 -0.84687 0
M  V30 1837 C 178.854 -2.30912 2.47922 0
M  V30 1838 C 177.413 -2.84486 2.46464 0
M  V30 1839 C 176.56 -1.58603 2.27465 0
M  V30 1840 H 179.511 -0.48396 1.51141 0
M  V30 1841 H 179.532 -3.12331 2.17323 0
M  V30 1842 H 179.044 -1.80554 3.43543 0
M  V30 1843 H 177.145 -3.39005 1.54617 0
M  V30 1844 H 177.258 -3.34511 3.42986 0
M  V30 1845 H 175.622 -1.84632 1.75451 0
M  V30 1846 H 176.405 -1.10233 3.25121 0
M  V30 1847 N 178.85 -1.27639 -0.924453 0
M  V30 1848 C 180.078 -1.16989 -1.70649 0
M  V30 1849 C 180.493 0.272869 -1.86818 0
M  V30 1850 O 179.85 1.18549 -1.38753 0
M  V30 1851 C 179.901 -1.85229 -3.10439 0
M  V30 1852 O 179.622 -3.23868 -2.95028 0
M  V30 1853 C 181.123 -1.80746 -4.04779 0
M  V30 1854 H 178.343 -0.406595 -0.53378 0
M  V30 1855 H 180.887 -1.68569 -1.15778 0
M  V30 1856 H 179.042 -1.37545 -3.6216 0
M  V30 1857 H 179.456 -3.57889 -3.83426 0
M  V30 1858 H 180.93 -2.33101 -5.00368 0
M  V30 1859 H 181.407 -0.777499 -4.32263 0
M  V30 1860 H 182.013 -2.28059 -3.58984 0
M  V30 1861 N 180.328 1.1314 -1.09713 0
M  V30 1862 C 181.291 2.16831 -0.742751 0
M  V30 1863 C 182.291 1.59159 0.229129 0
M  V30 1864 O 183.481 1.74199 0.00693237 0
M  V30 1865 C 180.613 3.40756 -0.0989168 0
M  V30 1866 H 181.806 2.49695 -1.66109 0
M  V30 1867 H 179.359 1.2802 -0.896699 0
M  V30 1868 H 180.094 3.13485 0.830514 0
M  V30 1869 H 179.879 3.83888 -0.798265 0
M  V30 1870 H 181.369 4.17386 0.133524 0
M  V30 1871 N 181.806 0.884767 1.30421 0
M  V30 1872 C 183.054 0.502112 1.95763 0
M  V30 1873 C 183.375 -0.951815 1.70192 0
M  V30 1874 O 182.645 -1.6692 1.0254 0
M  V30 1875 H 181.225 0.182694 0.724315 0
M  V30 1876 H 183.887 1.1278 1.58955 0
M  V30 1877 H 182.983 0.672188 3.04775 0
M  V30 1878 N 183.284 -1.43765 0.645699 0
M  V30 1879 C 184.514 -2.05953 0.163318 0
M  V30 1880 C 184.922 -1.48432 -1.17322 0
M  V30 1881 O 184.265 -0.607295 -1.73371 0
M  V30 1882 C 184.327 -3.59499 -0.0103065 0
M  V30 1883 C 183.991 -4.39563 1.25035 0
M  V30 1884 C 184.988 -4.72108 2.17739 0
M  V30 1885 C 182.673 -4.79697 1.48983 0
M  V30 1886 C 184.667 -5.43688 3.3269 0
M  V30 1887 C 182.354 -5.51023 2.64229 0
M  V30 1888 C 183.352 -5.8294 3.55908 0
M  V30 1889 O 183.04 -6.5281 4.69142 0
M  V30 1890 H 182.772 -0.670798 0.0836986 0
M  V30 1891 H 185.326 -1.85384 0.884407 0
M  V30 1892 H 183.556 -3.78613 -0.78669 0
M  V30 1893 H 185.245 -4.03408 -0.449087 0
M  V30 1894 H 186.011 -4.41627 2.00476 0
M  V30 1895 H 181.89 -4.54266 0.785078 0
M  V30 1896 H 185.434 -5.68517 4.04269 0
M  V30 1897 H 181.331 -5.8092 2.81429 0
M  V30 1898 H 182.099 -6.71288 4.6831 0
M  V30 1899 N 184.763 -0.387143 -1.52771 0
M  V30 1900 C 185.713 0.465942 -2.23188 0
M  V30 1901 C 186.697 1.03138 -1.23496 0
M  V30 1902 O 187.889 0.957845 -1.48843 0
M  V30 1903 C 185.018 1.59384 -3.04059 0
M  V30 1904 C 184.104 1.04024 -4.11144 0
M  V30 1905 N 184.495 0.211416 -5.05358 0
M  V30 1906 C 182.793 1.31295 -4.26237 0
M  V30 1907 C 183.494 -0.0941698 -5.81624 0
M  V30 1908 N 182.47 0.509207 -5.4121 0
M  V30 1909 H 186.272 -0.173856 -2.93385 0
M  V30 1910 H 183.786 -0.19633 -1.61209 0
M  V30 1911 H 185.783 2.21738 -3.53041 0
M  V30 1912 H 184.443 2.23648 -2.35397 0
M  V30 1913 H 185.454 -0.151151 -5.17679 0
M  V30 1914 H 182.131 1.95679 -3.68803 0
M  V30 1915 H 183.521 -0.765572 -6.67524 0
M  V30 1916 N 186.241 1.57166 -0.116904 0
M  V30 1917 C 187.488 1.95123 0.541603 0
M  V30 1918 C 187.816 1.00006 1.6682 0
M  V30 1919 O 187.071 0.0235658 1.95686 0
M  V30 1920 C 187.37 3.39508 1.11664 0
M  V30 1921 C 187.036 4.50762 0.111606 0
M  V30 1922 C 185.698 4.80918 -0.164758 0
M  V30 1923 C 188.05 5.18036 -0.573438 0
M  V30 1924 C 185.378 5.75666 -1.13249 0
M  V30 1925 C 187.73 6.13824 -1.52978 0
M  V30 1926 C 186.394 6.42374 -1.81415 0
M  V30 1927 H 185.664 0.714005 0.198187 0
M  V30 1928 H 188.311 1.9048 -0.197365 0
M  V30 1929 H 186.616 3.40835 1.93232 0
M  V30 1930 H 188.313 3.66189 1.63422 0
M  V30 1931 H 184.903 4.27272 0.337192 0
M  V30 1932 H 189.087 4.94896 -0.373092 0
M  V30 1933 H 184.343 5.96092 -1.35958 0
M  V30 1934 H 188.517 6.65039 -2.06629 0
M  V30 1935 H 186.144 7.15599 -2.56557 0
M  V30 1936 N 187.719 -0.156864 1.56817 0
M  V30 1937 C 188.629 -1.2136 2.00771 0
M  V30 1938 C 189.645 -1.47598 0.921459 0
M  V30 1939 O 190.821 -1.59462 1.2302 0
M  V30 1940 C 187.886 -2.52943 2.37109 0
M  V30 1941 C 186.947 -2.34439 3.59634 0
M  V30 1942 C 186.18 -3.59748 3.94229 0
M  V30 1943 O 186.403 -4.65526 3.29609 0
M  V30 1944 O 185.337 -3.52998 4.8752 0
M  V30 1945 H 189.163 -0.870468 2.90958 0
M  V30 1946 H 186.748 -0.36484 1.44877 0
M  V30 1947 H 188.63 -3.30538 2.61386 0
M  V30 1948 H 187.305 -2.86806 1.5008 0
M  V30 1949 H 186.212 -1.54828 3.40557 0
M  V30 1950 H 187.545 -2.05496 4.4725 0
M  V30 1951 N 189.197 -1.51736 -0.425897 0
M  V30 1952 C 190.16 -1.73271 -1.50032 0
M  V30 1953 C 191.16 -0.602639 -1.4908 0
M  V30 1954 O 192.35 -0.87033 -1.509 0
M  V30 1955 C 189.482 -1.79969 -2.89523 0
M  V30 1956 H 190.675 -2.69172 -1.32237 0
M  V30 1957 H 188.228 -1.41899 -0.65532 0
M  V30 1958 H 188.963 -0.859241 -3.1271 0
M  V30 1959 H 188.748 -2.62109 -2.91619 0
M  V30 1960 H 190.238 -1.9843 -3.67444 0
M  V30 1961 N 190.675 0.682077 -1.42076 0
M  V30 1962 C 191.9 1.47558 -1.45744 0
M  V30 1963 C 192.325 1.87977 -0.0680981 0
M  V30 1964 O 191.683 1.55522 0.9318 0
M  V30 1965 C 191.731 2.70575 -2.38373 0
M  V30 1966 O 190.835 3.68573 -1.85007 0
M  V30 1967 H 190.176 0.443585 -0.494093 0
M  V30 1968 H 192.706 0.837238 -1.86686 0
M  V30 1969 H 192.716 3.18729 -2.54707 0
M  V30 1970 H 191.391 2.40495 -3.39315 0
M  V30 1971 H 189.968 3.2757 -1.78192 0
M  V30 1972 N 192.153 1.28127 0.917671 0
M  V30 1973 C 193.1 1.11717 2.0196 0
M  V30 1974 C 194.07 0.0153929 1.66093 0
M  V30 1975 O 195.255 0.179596 1.89953 0
M  V30 1976 C 192.395 0.780927 3.36148 0
M  V30 1977 C 191.508 1.96135 3.84909 0
M  V30 1978 C 190.643 1.56609 5.0759 0
M  V30 1979 C 189.682 2.71339 5.48673 0
M  V30 1980 N 188.819 2.32332 6.62545 0
M  V30 1981 H 193.659 2.06003 2.15329 0
M  V30 1982 H 191.196 1.02535 1.05475 0
M  V30 1983 H 193.154 0.56675 4.13333 0
M  V30 1984 H 191.784 -0.124998 3.22558 0
M  V30 1985 H 190.836 2.28777 3.03916 0
M  V30 1986 H 192.148 2.82165 4.1132 0
M  V30 1987 H 191.302 1.31374 5.92305 0
M  V30 1988 H 190.041 0.677014 4.82978 0
M  V30 1989 H 189.046 2.97276 4.62501 0
M  V30 1990 H 190.271 3.60882 5.75274 0
M  V30 1991 H 188.217 1.45889 6.39572 0
M  V30 1992 H 188.134 3.11899 6.88662 0
M  V30 1993 H 189.402 2.10371 7.50576 0
M  V30 1994 N 193.631 -1.12557 1.10312 0
M  V30 1995 C 194.879 -1.83675 0.843091 0
M  V30 1996 C 195.2 -1.84435 -0.633131 0
M  V30 1997 O 194.47 -1.30657 -1.45964 0
M  V30 1998 H 193.05 -0.680138 0.308904 0
M  V30 1999 H 195.712 -1.36301 1.39313 0
M  V30 2000 H 194.808 -2.87908 1.2048 0
M  V30 2001 N 195.109 -0.891671 -1.2995 0
M  V30 2002 C 196.039 -0.379797 -2.30391 0
M  V30 2003 C 197.02 0.540919 -1.6127 0
M  V30 2004 O 198.205 0.453352 -1.88834 0
M  V30 2005 C 195.335 0.400654 -3.44981 0
M  V30 2006 C 194.289 -0.428905 -4.25846 0
M  V30 2007 C 193.615 0.478557 -5.32554 0
M  V30 2008 C 194.915 -1.67458 -4.94727 0
M  V30 2009 H 196.609 -1.21914 -2.73454 0
M  V30 2010 H 194.155 -0.587675 -1.31462 0
M  V30 2011 H 196.108 0.769434 -4.14316 0
M  V30 2012 H 194.832 1.27371 -3.0074 0
M  V30 2013 H 193.491 -0.779911 -3.58208 0
M  V30 2014 H 193.139 1.34951 -4.84559 0
M  V30 2015 H 192.839 -0.0727433 -5.87555 0
M  V30 2016 H 194.363 0.843705 -6.04743 0
M  V30 2017 H 195.777 -1.376 -5.56542 0
M  V30 2018 H 194.174 -2.16659 -5.59624 0
M  V30 2019 H 195.244 -2.41518 -4.20473 0
M  V30 2020 N 196.587 1.43421 -0.653314 0
M  V30 2021 C 197.55 2.29182 0.0287951 0
M  V30 2022 C 198.55 1.42213 0.750465 0
M  V30 2023 O 199.74 1.63843 0.591701 0
M  V30 2024 C 196.872 3.24278 1.05151 0
M  V30 2025 H 198.065 2.90985 -0.725786 0
M  V30 2026 H 195.618 1.50702 -0.414545 0
M  V30 2027 H 196.353 2.6737 1.83532 0
M  V30 2028 H 196.138 3.88396 0.537687 0
M  V30 2029 H 197.628 3.88647 1.52786 0
M  V30 2030 N 198.065 0.39524 1.52563 0
M  V30 2031 C 199.342 -0.242908 1.94086 0
M  V30 2032 C 199.722 -1.63841 1.33114 0
M  V30 2033 O 199.07 -2.22928 0.501529 0
M  V30 2034 C 199.28 -0.26327 3.48006 0
M  V30 2035 C 200.628 -0.489354 4.21771 0
M  V30 2036 O 201.652 -0.343226 3.54543 0
M  V30 2037 O 200.511 -0.776169 5.4096 0
M  V30 2038 H 197.605 -0.152536 0.812811 0
M  V30 2039 H 200.151 0.450178 1.6362 0
M  V30 2040 H 198.923 0.713985 3.84731 0
M  V30 2041 H 198.546 -1.00103 3.84792 0
M  V30 2042 N 199.544 -1.57102 0.125237 0
M  V30 2043 C 200.821 -1.86953 -0.575142 0
M  V30 2044 C 201.201 -1.02749 -1.84407 0
M  V30 2045 O 200.549 -0.108144 -2.28244 0
M  V30 2046 C 200.759 -3.38198 -0.861583 0
M  V30 2047 C 202.107 -4.06937 -1.21192 0
M  V30 2048 O 203.131 -3.43252 -0.951645 0
M  V30 2049 O 201.99 -5.19364 -1.70068 0
M  V30 2050 H 199.084 -0.774147 -0.290906 0
M  V30 2051 H 201.63 -1.68942 0.160211 0
M  V30 2052 H 200.402 -3.91282 0.0373647 0
M  V30 2053 H 200.025 -3.61661 -1.65188 0
M  V30 2054 N 201.022 0.148545 -1.56898 0
M  V30 2055 C 202.299 0.890019 -1.74178 0
M  V30 2056 C 202.679 1.99407 -0.692839 0
M  V30 2057 O 202.027 2.26671 0.288505 0
M  V30 2058 C 202.237 1.43389 -3.18183 0
M  V30 2059 C 203.585 1.89791 -3.79822 0
M  V30 2060 O 204.609 1.53134 -3.21603 0
M  V30 2061 O 203.468 2.57387 -4.82093 0
M  V30 2062 H 200.562 0.420496 -0.712118 0
M  V30 2063 H 203.108 0.134591 -1.69165 0
M  V30 2064 H 201.88 0.640383 -3.86024 0
M  V30 2065 H 201.503 2.25287 -3.27615 0
M  V30 2066 N 202.5 1.5196 0.417844 0
M  V30 2067 C 203.45 1.7106 1.5074 0
M  V30 2068 C 204.434 0.564487 1.50673 0
M  V30 2069 O 205.626 0.821206 1.56797 0
M  V30 2070 C 202.755 1.85677 2.88754 0
M  V30 2071 C 201.841 3.06133 2.93502 0
M  V30 2072 N 202.232 4.28987 2.67962 0
M  V30 2073 C 200.53 3.05787 3.24669 0
M  V30 2074 C 201.231 5.10395 2.79055 0
M  V30 2075 N 200.207 4.45455 3.11561 0
M  V30 2076 H 204.009 2.63696 1.29775 0
M  V30 2077 H 201.523 1.49873 0.625436 0
M  V30 2078 H 203.52 1.97475 3.67164 0
M  V30 2079 H 202.18 0.942348 3.10725 0
M  V30 2080 H 203.191 4.57607 2.4252 0
M  V30 2081 H 199.868 2.2405 3.52289 0
M  V30 2082 H 201.258 6.18247 2.63097 0
M  V30 2083 N 203.978 -0.674533 1.42435 0
M  V30 2084 C 205.225 -1.43459 1.42919 0
M  V30 2085 C 205.553 -1.94446 0.0457312 0
M  V30 2086 O 204.808 -1.7132 -0.94593 0
M  V30 2087 C 205.107 -2.64767 2.40069 0
M  V30 2088 C 204.773 -2.3232 3.86443 0
M  V30 2089 C 203.435 -2.23182 4.26314 0
M  V30 2090 C 205.787 -2.05977 4.78773 0
M  V30 2091 C 203.115 -1.85827 5.56494 0
M  V30 2092 C 205.467 -1.70125 6.09295 0
M  V30 2093 C 204.131 -1.59498 6.48164 0
M  V30 2094 H 203.401 -0.524952 0.522978 0
M  V30 2095 H 206.048 -0.769097 1.75377 0
M  V30 2096 H 204.353 -3.36349 2.00939 0
M  V30 2097 H 206.05 -3.22949 2.37707 0
M  V30 2098 H 202.64 -2.40334 3.54877 0
M  V30 2099 H 206.824 -2.11969 4.48757 0
M  V30 2100 H 202.08 -1.76168 5.8547 0
M  V30 2101 H 206.254 -1.48767 6.80324 0
M  V30 2102 H 203.881 -1.30322 7.48946 0
M  V30 2103 N 205.456 -1.28612 -0.910864 0
M  V30 2104 C 206.702 -1.16106 -1.66274 0
M  V30 2105 C 207.035 0.289113 -1.92036 0
M  V30 2106 O 206.31 1.21 -1.52281 0
M  V30 2107 C 206.593 -1.96309 -3.01885 0
M  V30 2108 C 206.446 -3.49405 -2.8326 0
M  V30 2109 C 207.765 -1.78076 -4.02463 0
M  V30 2110 H 204.884 -0.423152 -0.603417 0
M  V30 2111 H 207.526 -1.57961 -1.05586 0
M  V30 2112 H 205.676 -1.60742 -3.53687 0
M  V30 2113 H 207.348 -3.94894 -2.38446 0
M  V30 2114 H 205.591 -3.74893 -2.18261 0
M  V30 2115 H 206.262 -4.00784 -3.79574 0
M  V30 2116 H 208.738 -2.0912 -3.59733 0
M  V30 2117 H 207.614 -2.36561 -4.95308 0
M  V30 2118 H 207.875 -0.733008 -4.35981 0
M  V30 2119 N 206.934 1.1197 -1.10907 0
M  V30 2120 C 208.182 1.83225 -0.852819 0
M  V30 2121 C 208.503 1.84769 0.623341 0
M  V30 2122 O 207.773 1.3143 1.45269 0
M  V30 2123 H 206.353 0.67849 -0.312507 0
M  V30 2124 H 209.015 1.3556 -1.40033 0
M  V30 2125 H 208.111 2.87265 -1.22005 0
M  V30 2126 N 208.412 0.89855 1.29475 0
M  V30 2127 C 209.342 0.39201 2.30186 0
M  V30 2128 C 210.323 -0.532359 1.61555 0
M  V30 2129 O 211.508 -0.443331 1.89072 0
M  V30 2130 C 208.638 -0.382353 3.45189 0
M  V30 2131 C 207.592 0.451483 4.25612 0
M  V30 2132 C 206.918 -0.450307 5.328 0
M  V30 2133 C 208.218 1.70079 4.93832 0
M  V30 2134 H 209.912 1.23362 2.72804 0
M  V30 2135 H 207.458 0.594638 1.31149 0
M  V30 2136 H 209.411 -0.747451 4.14718 0
M  V30 2137 H 208.135 -1.25774 3.01411 0
M  V30 2138 H 206.794 0.798897 3.57789 0
M  V30 2139 H 206.442 -1.32379 4.85268 0
M  V30 2140 H 206.142 0.103902 5.87508 0
M  V30 2141 H 207.666 -0.811623 6.05182 0
M  V30 2142 H 209.08 1.40549 5.55805 0
M  V30 2143 H 207.477 2.19623 5.58467 0
M  V30 2144 H 208.547 2.43744 4.19186 0
M  V30 2145 N 209.89 -1.43072 0.660911 0
M  V30 2146 C 210.853 -2.29194 -0.0166406 0
M  V30 2147 C 211.853 -1.42609 -0.742912 0
M  V30 2148 O 213.043 -1.64155 -0.583004 0
M  V30 2149 C 210.175 -3.24831 -1.0343 0
M  V30 2150 H 211.368 -2.90596 0.741208 0
M  V30 2151 H 208.921 -1.5048 0.422532 0
M  V30 2152 H 209.656 -2.68339 -1.82111 0
M  V30 2153 H 209.441 -3.88676 -0.517082 0
M  V30 2154 H 210.931 -3.89451 -1.50723 0
M  V30 2155 N 211.368 -0.403325 -1.52352 0
M  V30 2156 C 212.617 0.175668 -2.00934 0
M  V30 2157 C 212.93 1.46718 -1.29356 0
M  V30 2158 O 214.136 2.12708 -1.68724 0
M  V30 2159 C 212.592 0.363612 -3.58058 0
M  V30 2160 C 212.2 -0.915472 -4.38547 0
M  V30 2161 C 213.944 0.89821 -4.14888 0
M  V30 2162 C 211.851 -0.695035 -5.87302 0
M  V30 2163 H 210.781 0.0694234 -0.750797 0
M  V30 2164 H 213.432 -0.527879 -1.75743 0
M  V30 2165 H 211.814 1.12935 -3.79555 0
M  V30 2166 H 212.988 -1.68691 -4.28812 0
M  V30 2167 H 211.303 -1.37606 -3.93006 0
M  V30 2168 H 213.9 1.07907 -5.23699 0
M  V30 2169 H 214.243 1.87126 -3.71873 0
M  V30 2170 H 214.776 0.191681 -3.97338 0
M  V30 2171 H 211.515 -1.63948 -6.34666 0
M  V30 2172 H 211.035 0.0372116 -5.99788 0
M  V30 2173 H 212.714 -0.33497 -6.46132 0
M  V30 2174 N 212.846 1.57033 -0.133567 0
M  V30 2175 C 214.123 1.87256 0.56522 0
M  V30 2176 C 214.503 1.03726 1.83859 0
M  V30 2177 O 213.851 0.120247 2.28183 0
M  V30 2178 C 214.061 3.3865 0.843636 0
M  V30 2179 C 215.409 4.07574 1.19032 0
M  V30 2180 O 216.433 3.43752 0.933429 0
M  V30 2181 O 215.292 5.20259 1.67312 0
M  V30 2182 H 212.386 0.775678 0.286796 0
M  V30 2183 H 214.932 1.68855 -0.169168 0
M  V30 2184 H 213.704 3.91257 -0.0581149 0
M  V30 2185 H 213.327 3.62532 1.63268 0
M  V30 2186 N 214.325 -0.140222 1.56975 0
M  V30 2187 C 215.235 -1.19223 2.02047 0
M  V30 2188 C 216.251 -1.46612 0.937062 0
M  V30 2189 O 217.427 -1.58148 1.24704 0
M  V30 2190 C 214.492 -2.50414 2.39778 0
M  V30 2191 C 213.553 -2.30612 3.621 0
M  V30 2192 C 212.786 -3.55547 3.98023 0
M  V30 2193 O 213.009 -4.62004 3.34528 0
M  V30 2194 O 211.943 -3.47808 4.91237 0
M  V30 2195 H 215.769 -0.839559 2.91865 0
M  V30 2196 H 213.354 -0.349453 1.45256 0
M  V30 2197 H 215.236 -3.27747 2.64877 0
M  V30 2198 H 213.911 -2.85198 1.53114 0
M  V30 2199 H 212.818 -1.51207 3.4218 0
M  V30 2200 H 214.151 -2.00741 4.49404 0
M  V30 2201 N 215.803 -1.52179 -0.40978 0
M  V30 2202 C 217.08 -1.56769 -1.16974 0
M  V30 2203 C 217.46 -0.348322 -2.08206 0
M  V30 2204 O 216.808 0.664862 -2.18613 0
M  V30 2205 C 217.018 -2.89603 -1.9476 0
M  V30 2206 C 218.366 -3.42579 -2.50849 0
M  V30 2207 O 219.39 -2.91338 -2.04941 0
M  V30 2208 O 218.249 -4.32054 -3.34652 0
M  V30 2209 H 215.343 -0.631439 -0.534054 0
M  V30 2210 H 217.889 -1.64507 -0.416613 0
M  V30 2211 H 216.661 -3.698 -1.27921 0
M  V30 2212 H 216.284 -2.85155 -2.77079 0
M  V30 2213 N 217.281 0.66697 -1.42791 0
M  V30 2214 C 218.697 0.981027 -1.25889 0
M  V30 2215 C 218.897 2.00793 -0.168695 0
M  V30 2216 O 217.953 2.48321 0.45747 0
M  V30 2217 C 219.266 1.47838 -2.61848 0
M  V30 2218 C 220.814 1.59575 -2.69267 0
M  V30 2219 C 221.289 2.12704 -4.05612 0
M  V30 2220 N 222.78 2.20026 -4.07606 0
M  V30 2221 C 223.515 2.62227 -5.09926 0
M  V30 2222 N 223.011 3.03824 -6.22626 0
M  V30 2223 N 224.804 2.62045 -4.97281 0
M  V30 2224 H 216.955 -0.0127891 -2.12396 0
M  V30 2225 H 219.218 0.0568258 -0.946295 0
M  V30 2226 H 218.924 0.798299 -3.4252 0
M  V30 2227 H 218.798 2.45579 -2.86305 0
M  V30 2228 H 221.185 2.26687 -1.88936 0
M  V30 2229 H 221.266 0.60302 -2.48591 0
M  V30 2230 H 220.91 1.46198 -4.86404 0
M  V30 2231 H 220.84 3.12782 -4.23645 0
M  V30 2232 H 223.331 1.90708 -3.2625 0
M  V30 2233 H 223.644 3.34734 -6.96544 0
M  V30 2234 H 221.989 3.01662 -6.26119 0
M  V30 2235 H 225.18 2.28916 -4.08308 0
M  V30 2236 H 225.353 2.94613 -5.77154 0
M  V30 2237 N 218.759 1.29093 0.90403 0
M  V30 2238 C 219.691 1.09658 2.01266 0
M  V30 2239 C 220.704 0.0453729 1.62737 0
M  V30 2240 O 221.893 0.289446 1.76138 0
M  V30 2241 C 218.993 0.646278 3.32681 0
M  V30 2242 C 218.166 1.77505 3.99763 0
M  V30 2243 C 217.225 1.31649 5.09465 0
M  V30 2244 O 216.251 2.02045 5.32134 0
M  V30 2245 N 217.453 0.184997 5.80205 0
M  V30 2246 H 220.218 2.05135 2.18494 0
M  V30 2247 H 217.779 1.20975 1.07594 0
M  V30 2248 H 219.771 0.322906 4.0341 0
M  V30 2249 H 218.341 -0.215916 3.11853 0
M  V30 2250 H 217.561 2.26752 3.22455 0
M  V30 2251 H 218.849 2.53198 4.41325 0
M  V30 2252 H 218.247 -0.402021 5.6427 0
M  V30 2253 H 216.804 -0.0790358 6.51752 0
M  V30 2254 N 220.237 -1.11381 1.11499 0
M  V30 2255 C 221.648 -1.6465 0.880191 0
M  V30 2256 C 221.999 -1.87199 -0.587434 0
M  V30 2257 O 221.124 -1.60667 -1.44966 0
M  V30 2258 C 221.719 -2.99105 1.59128 0
M  V30 2259 C 220.278 -3.49279 1.40289 0
M  V30 2260 C 219.425 -2.24077 1.63354 0
M  V30 2261 H 222.376 -0.950123 1.27116 0
M  V30 2262 H 222.397 -3.66107 1.03664 0
M  V30 2263 H 221.909 -2.82661 2.65941 0
M  V30 2264 H 220.01 -3.70887 0.356888 0
M  V30 2265 H 220.123 -4.2803 2.15238 0
M  V30 2266 H 218.487 -2.31733 1.05698 0
M  V30 2267 H 219.27 -2.10175 2.71443 0
M  V30 2268 N 221.715 -0.905404 -1.28997 0
M  V30 2269 C 222.625 -0.392246 -2.31298 0
M  V30 2270 C 223.641 0.515889 -1.66176 0
M  V30 2271 O 224.817 0.404093 -1.97304 0
M  V30 2272 C 221.882 0.36686 -3.44754 0
M  V30 2273 C 220.943 -0.573485 -4.25452 0
M  V30 2274 C 220.176 0.149488 -5.33491 0
M  V30 2275 O 220.399 1.37255 -5.5364 0
M  V30 2276 O 219.333 -0.510919 -5.99728 0
M  V30 2277 H 223.159 -1.2411 -2.77183 0
M  V30 2278 H 220.744 -0.669926 -1.33538 0
M  V30 2279 H 222.626 0.795907 -4.13816 0
M  V30 2280 H 221.301 1.19169 -3.00966 0
M  V30 2281 H 220.208 -1.05176 -3.59011 0
M  V30 2282 H 221.541 -1.36489 -4.72897 0
M  V30 2283 N 223.193 1.4272 -0.668489 0
M  V30 2284 C 224.123 2.335 -0.000100175 0
M  V30 2285 C 225.104 1.50328 0.795964 0
M  V30 2286 O 226.289 1.78949 0.754385 0
M  V30 2287 C 223.419 3.33874 0.956302 0
M  V30 2288 C 222.373 4.27152 0.269278 0
M  V30 2289 C 221.699 5.17684 1.33818 0
M  V30 2290 C 222.999 5.15373 -0.847805 0
M  V30 2291 H 224.693 2.89639 -0.758244 0
M  V30 2292 H 222.239 1.39269 -0.366079 0
M  V30 2293 H 224.192 3.9629 1.43292 0
M  V30 2294 H 222.916 2.76025 1.74579 0
M  V30 2295 H 221.575 3.66123 -0.187042 0
M  V30 2296 H 221.223 4.56165 2.1195 0
M  V30 2297 H 220.923 5.80918 0.883659 0
M  V30 2298 H 222.447 5.82974 1.81586 0
M  V30 2299 H 223.861 5.7151 -0.452681 0
M  V30 2300 H 222.258 5.87407 -1.22773 0
M  V30 2301 H 223.328 4.5415 -1.69929 0
M  V30 2302 N 224.671 0.411399 1.52136 0
M  V30 2303 C 225.899 -0.163076 2.06256 0
M  V30 2304 C 226.314 -1.3867 1.28125 0
M  V30 2305 O 225.671 -1.79423 0.333721 0
M  V30 2306 C 225.722 -0.511252 3.57867 0
M  V30 2307 O 225.443 0.66378 4.33042 0
M  V30 2308 C 226.944 -1.13921 4.28412 0
M  V30 2309 H 224.164 -0.0193897 0.67072 0
M  V30 2310 H 226.708 0.583007 1.96013 0
M  V30 2311 H 224.863 -1.20723 3.6811 0
M  V30 2312 H 225.277 0.372601 5.23175 0
M  V30 2313 H 226.751 -1.33302 5.35663 0
M  V30 2314 H 227.228 -2.11296 3.85033 0
M  V30 2315 H 227.834 -0.483373 4.22544 0
M  V30 2316 N 226.149 -1.5696 0.141893 0
M  V30 2317 C 227.112 -2.15316 -0.785587 0
M  V30 2318 C 228.112 -1.09366 -1.1788 0
M  V30 2319 O 229.302 -1.35031 -1.10056 0
M  V30 2320 C 226.434 -2.71211 -2.06537 0
M  V30 2321 H 227.627 -2.98608 -0.278041 0
M  V30 2322 H 225.18 -1.5593 -0.107519 0
M  V30 2323 H 225.915 -1.91571 -2.6167 0
M  V30 2324 H 225.7 -3.4872 -1.79268 0
M  V30 2325 H 227.19 -3.16189 -2.72789 0
M  V30 2326 N 227.627 0.131896 -1.57047 0
M  V30 2327 C 228.537 1.1815 -2.02676 0
M  V30 2328 C 229.553 1.46113 -0.944824 0
M  V30 2329 O 230.729 1.57485 -1.25541 0
M  V30 2330 C 227.794 2.49139 -2.41103 0
M  V30 2331 C 226.855 2.28688 -3.63318 0
M  V30 2332 C 226.088 3.53431 -3.99903 0
M  V30 2333 O 226.311 4.60223 -3.36973 0
M  V30 2334 O 225.245 3.45198 -4.93074 0
M  V30 2335 H 229.071 0.824069 -2.92306 0
M  V30 2336 H 226.656 0.341745 -1.45439 0
M  V30 2337 H 228.538 3.26338 -2.66611 0
M  V30 2338 H 227.213 2.84382 -1.54624 0
M  V30 2339 H 226.12 1.4939 -3.42977 0
M  V30 2340 H 227.453 1.98355 -4.50462 0
M  V30 2341 N 229.106 1.52395 0.401703 0
M  V30 2342 C 230.522 1.41363 0.740864 0
M  V30 2343 C 230.722 0.523982 1.94568 0
M  V30 2344 O 229.778 -0.00741204 2.52499 0
M  V30 2345 C 231.091 2.84011 0.987847 0
M  V30 2346 C 232.639 2.93404 1.09011 0
M  V30 2347 C 233.114 4.37036 1.3698 0
M  V30 2348 N 234.605 4.40304 1.43829 0
M  V30 2349 C 235.34 5.48508 1.67112 0
M  V30 2350 N 234.836 6.66819 1.87949 0
M  V30 2351 N 236.629 5.36034 1.69187 0
M  V30 2352 H 228.78 2.08765 -0.391262 0
M  V30 2353 H 231.043 0.941265 -0.112798 0
M  V30 2354 H 230.749 3.51265 0.174835 0
M  V30 2355 H 230.623 3.25502 1.906 0
M  V30 2356 H 233.01 2.26325 1.8937 0
M  V30 2357 H 233.091 2.55359 0.15015 0
M  V30 2358 H 232.735 5.04676 0.571353 0
M  V30 2359 H 232.665 4.72623 2.3224 0
M  V30 2360 H 235.156 3.55024 1.29486 0
M  V30 2361 H 235.469 7.45063 2.05185 0
M  V30 2362 H 233.814 6.6987 1.85199 0
M  V30 2363 H 237.005 4.42579 1.52451 0
M  V30 2364 H 237.178 6.20434 1.86993 0
M  V30 2365 N 230.584 -0.659388 1.43143 0
M  V30 2366 C 231.83 -1.42145 1.44647 0
M  V30 2367 C 232.163 -1.9408 0.0681907 0
M  V30 2368 O 231.438 -1.71899 -0.910007 0
M  V30 2369 C 231.721 -2.60735 2.48373 0
M  V30 2370 C 231.574 -2.14332 3.95451 0
M  V30 2371 C 232.893 -3.62951 2.48906 0
M  V30 2372 H 230.012 -0.51552 0.526696 0
M  V30 2373 H 232.654 -0.748069 1.74654 0
M  V30 2374 H 230.804 -3.18184 2.22916 0
M  V30 2375 H 232.476 -1.61932 4.31944 0
M  V30 2376 H 230.719 -1.4576 4.08578 0
M  V30 2377 H 231.39 -2.99583 4.63631 0
M  V30 2378 H 233.866 -3.1525 2.71582 0
M  V30 2379 H 232.742 -4.43487 3.23435 0
M  V30 2380 H 233.003 -4.15126 1.52061 0
M  V30 2381 N 232.062 -1.29571 -0.897171 0
M  V30 2382 C 232.972 -1.16808 -2.03453 0
M  V30 2383 C 233.988 -0.0907471 -1.73763 0
M  V30 2384 O 235.164 -0.303312 -1.99103 0
M  V30 2385 C 232.229 -0.848264 -3.36163 0
M  V30 2386 C 231.29 -2.0097 -3.79354 0
M  V30 2387 C 230.523 -1.70505 -5.05731 0
M  V30 2388 O 230.746 -0.62718 -5.66941 0
M  V30 2389 O 229.68 -2.5538 -5.45036 0
M  V30 2390 H 233.506 -2.12325 -2.17144 0
M  V30 2391 H 231.091 -1.09047 -1.02123 0
M  V30 2392 H 232.973 -0.684581 -4.15802 0
M  V30 2393 H 231.648 0.0771071 -3.23608 0
M  V30 2394 H 230.555 -2.22863 -3.00471 0
M  V30 2395 H 231.888 -2.91636 -3.96496 0
M  V30 2396 N 233.54 1.10788 -1.12088 0
M  V30 2397 C 234.487 2.17025 -0.785407 0
M  V30 2398 C 235.457 1.64265 0.246191 0
M  V30 2399 O 236.642 1.90412 0.121584 0
M  V30 2400 C 233.782 3.44249 -0.242177 0
M  V30 2401 C 232.895 4.1098 -1.33115 0
M  V30 2402 C 232.03 5.25911 -0.747741 0
M  V30 2403 C 231.069 5.84538 -1.81609 0
M  V30 2404 N 230.206 6.90853 -1.25167 0
M  V30 2405 H 235.046 2.45066 -1.69548 0
M  V30 2406 H 232.583 1.20297 -0.846582 0
M  V30 2407 H 234.541 4.17101 0.0908026 0
M  V30 2408 H 233.171 3.16571 0.631072 0
M  V30 2409 H 232.223 3.36133 -1.78097 0
M  V30 2410 H 233.535 4.50601 -2.13917 0
M  V30 2411 H 232.689 6.056 -0.365216 0
M  V30 2412 H 231.428 4.87614 0.0915188 0
M  V30 2413 H 230.433 5.03522 -2.20785 0
M  V30 2414 H 231.658 6.249 -2.6585 0
M  V30 2415 H 229.604 6.54562 -0.434174 0
M  V30 2416 H 229.521 7.29166 -1.99633 0
M  V30 2417 H 230.789 7.7433 -0.896259 0
M  V30 2418 N 235.018 0.912232 1.28515 0
M  V30 2419 C 236.264 0.554851 1.95686 0
M  V30 2420 C 236.619 -0.89138 1.70506 0
M  V30 2421 O 235.912 -1.62529 1.01464 0
M  V30 2422 C 236.106 0.798392 3.48368 0
M  V30 2423 C 235.935 2.26674 3.88393 0
M  V30 2424 C 234.705 2.91657 4.12631 0
M  V30 2425 C 236.903 3.24303 3.99164 0
M  V30 2426 N 234.885 4.28805 4.39317 0
M  V30 2427 C 236.256 4.4661 4.30046 0
M  V30 2428 C 238.311 3.19723 3.81683 0
M  V30 2429 C 237.014 5.64915 4.45268 0
M  V30 2430 C 239.04 4.37325 3.98121 0
M  V30 2431 C 238.402 5.58406 4.29375 0
M  V30 2432 H 234.501 0.252876 0.739985 0
M  V30 2433 H 237.085 1.17565 1.55199 0
M  V30 2434 H 235.256 0.20688 3.87849 0
M  V30 2435 H 236.988 0.405193 4.02666 0
M  V30 2436 H 233.743 2.42393 4.06869 0
M  V30 2437 H 234.167 4.99712 4.56746 0
M  V30 2438 H 238.809 2.27191 3.56573 0
M  V30 2439 H 236.527 6.57927 4.6921 0
M  V30 2440 H 240.113 4.35282 3.86033 0
M  V30 2441 H 238.993 6.47889 4.41825 0
M  V30 2442 N 236.496 -1.42363 0.676048 0
M  V30 2443 C 237.742 -2.0182 0.199125 0
M  V30 2444 C 238.075 -1.53339 -1.19168 0
M  V30 2445 O 237.35 -0.736124 -1.80032 0
M  V30 2446 C 237.633 -3.59331 0.235144 0
M  V30 2447 C 237.486 -4.17989 1.66149 0
M  V30 2448 C 238.805 -4.3813 -0.41595 0
M  V30 2449 H 235.924 -0.733293 0.0738311 0
M  V30 2450 H 238.566 -1.69368 0.86107 0
M  V30 2451 H 236.716 -3.87109 -0.328487 0
M  V30 2452 H 238.388 -4.0116 2.27747 0
M  V30 2453 H 236.631 -3.7377 2.20178 0
M  V30 2454 H 237.302 -5.27126 1.63837 0
M  V30 2455 H 239.778 -4.16051 0.0638529 0
M  V30 2456 H 238.654 -5.47717 -0.360115 0
M  V30 2457 H 238.915 -4.16101 -1.49373 0
M  V30 2458 N 237.974 -0.419461 -1.51915 0
M  V30 2459 C 238.921 0.400927 -2.27291 0
M  V30 2460 C 239.891 1.03224 -1.30131 0
M  V30 2461 O 241.076 1.05455 -1.59009 0
M  V30 2462 C 238.216 1.50603 -3.10504 0
M  V30 2463 C 237.329 0.89462 -4.22635 0
M  V30 2464 C 236.464 1.97328 -4.93189 0
M  V30 2465 C 235.503 1.33935 -5.97267 0
M  V30 2466 N 234.64 2.3586 -6.61298 0
M  V30 2467 H 239.48 -0.248251 -2.96964 0
M  V30 2468 H 237.017 -0.134266 -1.46486 0
M  V30 2469 H 238.975 2.15783 -3.57062 0
M  V30 2470 H 237.605 2.12509 -2.42981 0
M  V30 2471 H 236.657 0.131583 -3.80172 0
M  V30 2472 H 237.969 0.391641 -4.9726 0
M  V30 2473 H 237.123 2.70211 -5.43204 0
M  V30 2474 H 235.862 2.50994 -4.18155 0
M  V30 2475 H 234.867 0.595896 -5.46561 0
M  V30 2476 H 236.092 0.810252 -6.74249 0
M  V30 2477 H 234.038 2.88639 -5.89087 0
M  V30 2478 H 233.955 1.90403 -7.3163 0
M  V30 2479 H 235.223 3.08282 -7.15949 0
M  V30 2480 N 239.452 1.56882 -0.150215 0
M  V30 2481 C 240.384 2.14057 0.819286 0
M  V30 2482 C 241.397 1.09082 1.20851 0
M  V30 2483 O 242.586 1.36347 1.15203 0
M  V30 2484 C 239.686 2.65102 2.11127 0
M  V30 2485 C 238.859 3.94511 1.88891 0
M  V30 2486 C 237.918 4.30834 3.02107 0
M  V30 2487 O 236.944 4.99099 2.73659 0
M  V30 2488 N 238.146 3.90676 4.29363 0
M  V30 2489 H 240.911 2.97871 0.330618 0
M  V30 2490 H 238.472 1.61866 0.0332538 0
M  V30 2491 H 240.464 2.86411 2.85921 0
M  V30 2492 H 239.034 1.85994 2.51247 0
M  V30 2493 H 238.254 3.81795 0.981152 0
M  V30 2494 H 239.542 4.7907 1.71376 0
M  V30 2495 H 238.94 3.35677 4.55343 0
M  V30 2496 H 237.497 4.1703 5.00928 0
M  V30 2497 N 240.93 -0.123565 1.57115 0
M  V30 2498 C 242.179 -0.830704 1.83799 0
M  V30 2499 C 242.492 -1.81259 0.735158 0
M  V30 2500 O 243.698 -2.56558 0.888278 0
M  V30 2501 C 242.154 -1.52802 3.25852 0
M  V30 2502 C 241.762 -0.587356 4.44133 0
M  V30 2503 C 243.506 -2.22056 3.61789 0
M  V30 2504 C 241.413 -1.28764 5.77212 0
M  V30 2505 H 240.343 -0.313967 0.685522 0
M  V30 2506 H 242.994 -0.0834359 1.8331 0
M  V30 2507 H 241.376 -2.32175 3.20797 0
M  V30 2508 H 242.55 0.172829 4.60476 0
M  V30 2509 H 240.865 -0.00201892 4.164 0
M  V30 2510 H 243.462 -2.75131 4.58483 0
M  V30 2511 H 243.805 -2.99644 2.88997 0
M  V30 2512 H 244.338 -1.49576 3.68608 0
M  V30 2513 H 241.077 -0.55314 6.53162 0
M  V30 2514 H 240.597 -2.01995 5.64764 0
M  V30 2515 H 242.276 -1.8221 6.20813 0
M  V30 2516 N 242.408 -1.52605 -0.393616 0
M  V30 2517 C 243.633 -1.71592 -1.16495 0
M  V30 2518 C 244.058 -0.43133 -1.83088 0
M  V30 2519 O 243.416 0.612523 -1.7064 0
M  V30 2520 C 243.464 -2.86318 -2.19213 0
M  V30 2521 O 242.568 -2.52969 -3.257 0
M  V30 2522 H 241.909 -0.570734 -0.33935 0
M  V30 2523 H 244.439 -1.99377 -0.459324 0
M  V30 2524 H 244.449 -3.1168 -2.63286 0
M  V30 2525 H 243.124 -3.79511 -1.7013 0
M  V30 2526 H 241.701 -2.38332 -2.86797 0
M  V30 2527 N 243.887 0.651787 -1.4349 0
M  V30 2528 C 244.797 1.79368 -1.5121 0
M  V30 2529 C 245.813 1.69361 -0.399093 0
M  V30 2530 O 246.989 1.90505 -0.653431 0
M  V30 2531 C 244.054 3.15653 -1.43401 0
M  V30 2532 C 243.115 3.37446 -2.65384 0
M  V30 2533 C 242.348 4.67229 -2.57939 0
M  V30 2534 O 242.571 5.46676 -1.62792 0
M  V30 2535 O 241.505 4.90773 -3.48462 0
M  V30 2536 H 245.331 1.7581 -2.47638 0
M  V30 2537 H 242.916 0.810447 -1.25507 0
M  V30 2538 H 244.798 3.96935 -1.41494 0
M  V30 2539 H 243.473 3.19798 -0.501085 0
M  V30 2540 H 242.38 2.55923 -2.72863 0
M  V30 2541 H 243.713 3.38148 -3.57654 0
M  V30 2542 N 245.365 1.30045 0.890287 0
M  V30 2543 C 246.275 1.17885 2.02831 0
M  V30 2544 C 247.291 0.0999609 1.73713 0
M  V30 2545 O 248.467 0.313867 1.98939 0
M  V30 2546 C 245.532 0.866079 3.35708 0
M  V30 2547 C 244.593 2.02979 3.78283 0
M  V30 2548 C 243.826 1.73184 5.0482 0
M  V30 2549 O 244.049 0.657237 5.66601 0
M  V30 2550 O 242.983 2.58267 5.43674 0
M  V30 2551 H 246.809 2.13474 2.16015 0
M  V30 2552 H 244.394 1.09587 1.01543 0
M  V30 2553 H 246.276 0.706623 4.15433 0
M  V30 2554 H 244.951 -0.0599443 3.23644 0
M  V30 2555 H 243.858 2.24454 2.99285 0
M  V30 2556 H 245.191 2.93734 3.94944 0
M  V30 2557 N 246.843 -1.10192 1.12674 0
M  V30 2558 C 247.773 -2.18652 0.819362 0
M  V30 2559 C 248.754 -1.68698 -0.217915 0
M  V30 2560 O 249.939 -1.94041 -0.0785581 0
M  V30 2561 C 247.069 -3.46202 0.27594 0
M  V30 2562 C 246.023 -4.09444 1.24656 0
M  V30 2563 C 245.349 -5.31725 0.563258 0
M  V30 2564 C 246.649 -4.52863 2.60217 0
M  V30 2565 H 248.343 -2.44622 1.72628 0
M  V30 2566 H 245.889 -1.17571 0.831451 0
M  V30 2567 H 247.842 -4.21372 0.0486149 0
M  V30 2568 H 246.566 -3.1973 -0.666331 0
M  V30 2569 H 245.225 -3.36284 1.45974 0
M  V30 2570 H 244.873 -5.0153 -0.384235 0
M  V30 2571 H 244.573 -5.74991 1.21075 0
M  V30 2572 H 246.097 -6.09624 0.34503 0
M  V30 2573 H 247.511 -5.19294 2.42913 0
M  V30 2574 H 245.908 -5.06986 3.21068 0
M  V30 2575 H 246.978 -3.65656 3.18471 0
M  V30 2576 N 248.321 -0.919034 -1.28029 0
M  V30 2577 C 249.271 -0.382574 -2.24767 0
M  V30 2578 C 250.255 0.508286 -1.52661 0
M  V30 2579 O 251.447 0.347145 -1.73562 0
M  V30 2580 C 248.576 0.371432 -3.41285 0
M  V30 2581 C 247.662 -0.535449 -4.20706 0
M  V30 2582 N 248.053 -1.65141 -4.78082 0
M  V30 2583 C 246.351 -0.336824 -4.44726 0
M  V30 2584 C 247.052 -2.21475 -5.37888 0
M  V30 2585 N 246.028 -1.50537 -5.22341 0
M  V30 2586 H 249.83 -1.23477 -2.66703 0
M  V30 2587 H 247.344 -0.772299 -1.42861 0
M  V30 2588 H 249.341 0.772638 -4.09678 0
M  V30 2589 H 248.001 1.22066 -3.00882 0
M  V30 2590 H 249.012 -2.03392 -4.7629 0
M  V30 2591 H 245.689 0.47246 -4.14818 0
M  V30 2592 H 247.079 -3.15379 -5.93284 0
M  V30 2593 N 249.799 1.42003 -0.683588 0
M  V30 2594 C 250.729 2.33487 -0.024866 0
M  V30 2595 C 251.71 1.51163 0.779975 0
M  V30 2596 O 252.895 1.79739 0.735362 0
M  V30 2597 C 250.025 3.3487 0.920836 0
M  V30 2598 C 248.979 4.27414 0.223958 0
M  V30 2599 C 248.305 5.19074 1.2832 0
M  V30 2600 C 249.605 5.14445 -0.90242 0
M  V30 2601 H 251.299 2.88819 -0.788921 0
M  V30 2602 H 248.845 1.38873 -0.38083 0
M  V30 2603 H 250.798 3.97787 1.39081 0
M  V30 2604 H 249.522 2.77861 1.71642 0
M  V30 2605 H 248.181 3.65904 -0.225864 0
M  V30 2606 H 247.829 4.58387 2.071 0
M  V30 2607 H 247.529 5.81822 0.821995 0
M  V30 2608 H 249.053 5.84867 1.75392 0
M  V30 2609 H 250.467 5.70998 -0.513272 0
M  V30 2610 H 248.864 5.86072 -1.28997 0
M  V30 2611 H 249.934 4.52322 -1.74737 0
M  V30 2612 N 251.277 0.427512 1.51691 0
M  V30 2613 C 252.554 -0.201684 1.94557 0
M  V30 2614 C 252.934 -1.60981 1.36559 0
M  V30 2615 O 252.282 -2.21814 0.548702 0
M  V30 2616 C 252.492 -0.189394 3.48486 0
M  V30 2617 C 253.84 -0.39978 4.22714 0
M  V30 2618 O 254.864 -0.267945 3.55191 0
M  V30 2619 O 253.723 -0.661249 5.42485 0
M  V30 2620 H 250.817 -0.135261 0.815864 0
M  V30 2621 H 253.363 0.484782 1.62628 0
M  V30 2622 H 252.135 0.795431 3.8313 0
M  V30 2623 H 251.758 -0.919187 3.86829 0
M  V30 2624 N 252.755 -1.56801 0.158532 0
M  V30 2625 C 253.665 -2.20916 -0.789518 0
M  V30 2626 C 254.681 -1.1969 -1.26294 0
M  V30 2627 O 255.857 -1.52308 -1.31773 0
M  V30 2628 C 252.922 -2.82727 -2.00665 0
M  V30 2629 C 251.983 -3.99114 -1.58134 0
M  V30 2630 C 251.216 -4.57968 -2.74045 0
M  V30 2631 O 251.439 -4.15704 -3.90572 0
M  V30 2632 O 250.373 -5.48047 -2.48855 0
M  V30 2633 H 254.199 -3.02464 -0.273681 0
M  V30 2634 H 251.784 -1.4924 -0.0690548 0
M  V30 2635 H 253.666 -3.21968 -2.71872 0
M  V30 2636 H 252.341 -2.04184 -2.51179 0
M  V30 2637 H 251.248 -3.64567 -0.839155 0
M  V30 2638 H 252.581 -4.79212 -1.12325 0
M  V30 2639 N 254.233 0.115231 -1.57178 0
M  V30 2640 C 255.482 0.820945 -1.84237 0
M  V30 2641 C 255.795 1.80866 -0.744761 0
M  V30 2642 O 257.001 2.56083 -0.901871 0
M  V30 2643 C 255.457 1.51072 -3.26658 0
M  V30 2644 C 255.065 0.563795 -4.44438 0
M  V30 2645 C 256.809 2.20134 -3.62962 0
M  V30 2646 C 254.716 1.25701 -5.77887 0
M  V30 2647 H 253.646 0.310328 -0.687177 0
M  V30 2648 H 256.297 0.0737134 -1.83352 0
M  V30 2649 H 254.679 2.30471 -3.22024 0
M  V30 2650 H 255.853 -0.197247 -4.60378 0
M  V30 2651 H 254.168 -0.0200638 -4.16395 0
M  V30 2652 H 256.765 2.72696 -4.59936 0
M  V30 2653 H 257.108 2.98107 -2.90582 0
M  V30 2654 H 257.641 1.47619 -3.69396 0
M  V30 2655 H 254.38 0.518493 -6.53446 0
M  V30 2656 H 253.9 1.98997 -5.65827 0
M  V30 2657 H 255.579 1.78915 -6.2177 0
M  V30 2658 N 255.711 1.52812 0.385517 0
M  V30 2659 C 256.641 1.80808 1.47752 0
M  V30 2660 C 257.622 0.660318 1.5676 0
M  V30 2661 O 258.807 0.908246 1.71652 0
M  V30 2662 C 255.937 1.98008 2.85324 0
M  V30 2663 C 254.891 3.13709 2.91154 0
M  V30 2664 C 254.217 3.16169 4.31209 0
M  V30 2665 C 255.517 4.52709 2.60483 0
M  V30 2666 H 257.211 2.72253 1.24573 0
M  V30 2667 H 254.757 1.31003 0.597839 0
M  V30 2668 H 256.71 2.16176 3.61726 0
M  V30 2669 H 255.434 1.03255 3.09848 0
M  V30 2670 H 254.093 2.95329 2.17201 0
M  V30 2671 H 253.741 2.19092 4.52778 0
M  V30 2672 H 253.441 3.93894 4.36029 0
M  V30 2673 H 254.965 3.36496 5.09512 0
M  V30 2674 H 256.379 4.71173 3.26602 0
M  V30 2675 H 254.776 5.32528 2.76648 0
M  V30 2676 H 255.846 4.59186 1.55809 0
M  V30 2677 N 257.189 -0.644168 1.43834 0
M  V30 2678 C 258.137 -1.77793 1.49974 0
M  V30 2679 C 259.131 -1.65253 0.372536 0
M  V30 2680 O 260.337 -1.7149 0.546924 0
M  V30 2681 H 256.712 -0.58675 0.47035 0
M  V30 2682 H 258.683 -1.69736 2.45423 0
M  V30 2683 C 257.432 -3.16087 1.4486 0
M  V30 2684 H 256.755 -3.26378 2.30905 0
M  V30 2685 H 258.195 -3.95349 1.53217 0
M  V30 2686 C 256.654 -3.36484 0.167463 0
M  V30 2687 O 257.184 -3.94298 -0.767609 0
M  V30 2688 N 255.39 -2.90504 0.0747556 0
M  V30 2689 H 254.937 -2.4364 0.836507 0
M  V30 2690 H 254.895 -3.04527 -0.781714 0
M  V30 2691 N 258.668 -1.30515 -0.883378 0
M  V30 2692 C 259.631 -1.1701 -1.97082 0
M  V30 2693 C 260.631 -0.10089 -1.60483 0
M  V30 2694 O 261.821 -0.349127 -1.70666 0
M  V30 2695 C 258.953 -0.793045 -3.31547 0
M  V30 2696 H 260.146 -2.13622 -2.10489 0
M  V30 2697 H 257.699 -1.13935 -1.06998 0
M  V30 2698 H 258.434 0.172499 -3.23841 0
M  V30 2699 H 258.219 -1.56576 -3.5948 0
M  V30 2700 H 259.709 -0.722073 -4.1131 0
M  V30 2701 O 260.185 1.01953 -1.25251 0
M  V30 2702 H 260.876 1.63744 -1.03478 0
M  V30 END ATOM
M  V30 BEGIN BOND
M  V30 END BOND
M  V30 END CTAB
M  END
$$$$
