drugbank_target|P62136 Serine/threonine-protein phosphatase PP1-alpha catalytic subunit (DB02506)
 OpenBabel12092120423D

  0  0  0     0  0            999 V3000
M  V30 BEGIN CTAB
M  V30 COUNTS 5243 5303 0 0 0
M  V30 BEGIN ATOM
M  V30 1 H -0.908 1.98254 -0.117106 0
M  V30 2 N 0 1.576 0 0
M  V30 3 C 0.933 2.03868 1.02534 0
M  V30 4 C 1.911 0.928543 1.3348 0
M  V30 5 O 3.095 1.19667 1.45644 0
M  V30 6 C 0.222 2.43627 2.35294 0
M  V30 7 C -0.732 3.65373 2.2001 0
M  V30 8 S 0.101 5.13292 1.52614 0
M  V30 9 C 1.257 5.56322 2.86805 0
M  V30 10 H 1.49 2.90518 0.631377 0
M  V30 11 H -0.977 1.52953 0.210867 0
M  V30 12 H 0.981 2.67203 3.11629 0
M  V30 13 H -0.358 1.57376 2.7183 0
M  V30 14 H -1.165 3.90944 3.18086 0
M  V30 15 H -1.563 3.418 1.51819 0
M  V30 16 H 0.729 5.58782 3.83104 0
M  V30 17 H 1.672 6.56266 2.65933 0
M  V30 18 H 2.08 4.83886 2.90714 0
M  V30 19 N 1.4781 -0.272755 1.55222 0
M  V30 20 C 2.7031 -1.02683 1.80197 0
M  V30 21 C 3.1281 -1.79142 0.573551 0
M  V30 22 O 2.4861 -1.74917 -0.476849 0
M  V30 23 C 2.5341 -1.9609 3.02624 0
M  V30 24 O 1.6381 -3.04863 2.77727 0
M  V30 25 H 0.9791 -0.293557 0.595584 0
M  V30 26 H 3.5091 -0.30159 2.02365 0
M  V30 27 H 3.5191 -2.38039 3.31363 0
M  V30 28 H 2.1941 -1.39851 3.91682 0
M  V30 29 H 0.7711 -2.67228 2.60084 0
M  V30 30 N 2.9562 -1.48159 -0.537278 0
M  V30 31 C 4.2332 -1.46291 -1.29839 0
M  V30 32 C 4.6132 -0.170613 -2.10409 0
M  V30 33 O 3.9612 0.847746 -2.12192 0
M  V30 34 C 4.1712 -2.72055 -2.18603 0
M  V30 35 C 5.5192 -3.20087 -2.7898 0
M  V30 36 O 6.5432 -2.72921 -2.28894 0
M  V30 37 O 5.4022 -4.02138 -3.70064 0
M  V30 38 H 2.4962 -0.583906 -0.585647 0
M  V30 39 H 5.0422 -1.60384 -0.554534 0
M  V30 40 H 3.8142 -3.57628 -1.58801 0
M  V30 41 H 3.4372 -2.60646 -3.00249 0
M  V30 42 N 4.4343 0.785586 -1.36625 0
M  V30 43 C 5.6593 1.57963 -1.34397 0
M  V30 44 C 6.0843 1.87964 0.071526 0
M  V30 45 O 5.4423 1.48182 1.0446 0
M  V30 46 C 5.4903 2.87511 -2.17646 0
M  V30 47 O 4.5943 3.81281 -1.57158 0
M  V30 48 H 3.9353 0.479014 -0.459828 0
M  V30 49 H 6.4653 0.973411 -1.79961 0
M  V30 50 H 6.4753 3.36745 -2.30362 0
M  V30 51 H 5.1503 2.65002 -3.20541 0
M  V30 52 H 3.7273 3.39885 -1.53403 0
M  V30 53 N 5.9124 1.20967 1.01018 0
M  V30 54 C 6.8224 0.980157 2.13143 0
M  V30 55 C 7.8384 -0.0660665 1.73875 0
M  V30 56 O 9.0144 0.122821 2.01025 0
M  V30 57 C 6.0794 0.54216 3.42435 0
M  V30 58 C 5.1404 1.65999 3.95908 0
M  V30 59 C 4.3734 1.2428 5.19028 0
M  V30 60 O 4.5964 0.114196 5.70286 0
M  V30 61 O 3.5304 2.05271 5.65816 0
M  V30 62 H 7.3564 1.91913 2.35379 0
M  V30 63 H 4.9414 0.994099 1.11526 0
M  V30 64 H 6.8234 0.30744 4.20277 0
M  V30 65 H 5.4984 -0.36815 3.216 0
M  V30 66 H 4.4054 1.94906 3.19316 0
M  V30 67 H 5.7384 2.54753 4.21143 0
M  V30 68 N 7.3905 -1.2043 1.01659 0
M  V30 69 C 8.3375 -2.23215 0.586822 0
M  V30 70 C 9.3075 -1.61382 -0.393085 0
M  V30 71 O 10.4925 -1.88544 -0.292525 0
M  V30 72 C 7.6325 -3.45032 -0.0687464 0
M  V30 73 C 6.7455 -4.21296 0.955724 0
M  V30 74 C 5.8805 -5.30507 0.271208 0
M  V30 75 C 4.9195 -5.98515 1.28244 0
M  V30 76 N 4.0565 -6.99316 0.62459 0
M  V30 77 H 8.8965 -2.59336 1.46796 0
M  V30 78 H 6.4335 -1.27431 0.734836 0
M  V30 79 H 8.3915 -4.1459 -0.465965 0
M  V30 80 H 7.0215 -3.09604 -0.913529 0
M  V30 81 H 6.0735 -3.50803 1.4711 0
M  V30 82 H 7.3855 -4.6803 1.72479 0
M  V30 83 H 6.5395 -6.06428 -0.18151 0
M  V30 84 H 5.2785 -4.8481 -0.530163 0
M  V30 85 H 4.2835 -5.21355 1.74554 0
M  V30 86 H 5.5085 -6.46298 2.08509 0
M  V30 87 H 3.4545 -6.55812 -0.156914 0
M  V30 88 H 3.3715 -7.44178 1.33172 0
M  V30 89 H 4.6395 -7.79255 0.195462 0
M  V30 90 N 8.8686 -0.792821 -1.36206 0
M  V30 91 C 9.7986 -0.207853 -2.32573 0
M  V30 92 C 10.7796 0.659055 -1.56813 0
M  V30 93 O 11.9646 0.592176 -1.84951 0
M  V30 94 C 9.0946 0.655449 -3.41059 0
M  V30 95 C 8.0486 -0.111842 -4.27854 0
M  V30 96 C 7.3746 0.872274 -5.27537 0
M  V30 97 C 8.6746 -1.30299 -5.05786 0
M  V30 98 H 10.3686 -1.01294 -2.81744 0
M  V30 99 H 7.9146 -0.48854 -1.3546 0
M  V30 100 H 9.8676 1.07464 -4.07467 0
M  V30 101 H 8.5916 1.49328 -2.90463 0
M  V30 102 H 7.2506 -0.512053 -3.63006 0
M  V30 103 H 6.8986 1.70523 -4.73214 0
M  V30 104 H 6.5986 0.363291 -5.86476 0
M  V30 105 H 8.1226 1.28996 -5.96818 0
M  V30 106 H 9.5366 -0.959379 -5.65216 0
M  V30 107 H 7.9336 -1.7455 -5.74154 0
M  V30 108 H 9.0036 -2.09663 -4.37229 0
M  V30 109 N 10.3467 1.47872 -0.545128 0
M  V30 110 C 11.2947 2.31533 0.222512 0
M  V30 111 C 12.2887 1.42177 0.920985 0
M  V30 112 O 13.4947 1.59005 0.843645 0
M  V30 113 H 9.8697 0.746519 0.0906278 0
M  V30 114 H 11.8407 2.94139 -0.50246 0
M  V30 115 C 10.5897 3.2457 1.24699 0
M  V30 116 H 9.9127 3.93283 0.718944 0
M  V30 117 H 11.3527 3.85963 1.75523 0
M  V30 118 C 9.8117 2.47237 2.28856 0
M  V30 119 O 10.3417 2.20808 3.35569 0
M  V30 120 N 8.5477 2.08461 2.02466 0
M  V30 121 H 8.0947 2.30155 1.157 0
M  V30 122 H 8.0527 1.57033 2.72375 0
M  V30 123 N 11.8248 0.280983 1.55075 0
M  V30 124 C 12.7548 -0.597469 2.25727 0
M  V30 125 C 13.7358 -1.15417 1.24952 0
M  V30 126 O 14.9208 -1.18722 1.53684 0
M  V30 127 C 12.0508 -1.7789 2.98283 0
M  V30 128 C 11.0048 -1.35347 4.06036 0
M  V30 129 C 10.3308 -2.61846 4.66198 0
M  V30 130 C 11.6308 -0.499354 5.19907 0
M  V30 131 H 13.3248 -0.00824265 2.99399 0
M  V30 132 H 10.8708 -0.0025244 1.44 0
M  V30 133 H 12.8238 -2.39937 3.46422 0
M  V30 134 H 11.5478 -2.39405 2.22155 0
M  V30 135 H 10.2068 -0.756156 3.58717 0
M  V30 136 H 9.8548 -3.21632 3.86732 0
M  V30 137 H 9.5548 -2.3409 5.38958 0
M  V30 138 H 11.0788 -3.24732 5.1709 0
M  V30 139 H 12.4928 -1.02498 5.64063 0
M  V30 140 H 10.8898 -0.316424 5.99265 0
M  V30 141 H 11.9598 0.480459 4.82514 0
M  V30 142 N 13.3029 -1.57598 0.00835791 0
M  V30 143 C 14.5799 -1.82172 -0.712235 0
M  V30 144 C 14.9599 -0.887873 -1.9152 0
M  V30 145 O 14.3079 0.06146 -2.28417 0
M  V30 146 C 14.5179 -3.30875 -1.11008 0
M  V30 147 C 15.8659 -3.96826 -1.51044 0
M  V30 148 O 16.8899 -3.35248 -1.20364 0
M  V30 149 O 15.7489 -5.05318 -2.08125 0
M  V30 150 H 12.8429 -0.750435 -0.347529 0
M  V30 151 H 15.3889 -1.69665 0.0344523 0
M  V30 152 H 14.1609 -3.90481 -0.252982 0
M  V30 153 H 13.7839 -3.48412 -1.9156 0
M  V30 154 N 14.781 0.264519 -1.55364 0
M  V30 155 C 16.006 1.01726 -1.80739 0
M  V30 156 C 16.431 1.78836 -0.583044 0
M  V30 157 O 15.789 1.75167 0.467566 0
M  V30 158 C 15.837 1.94482 -3.03659 0
M  V30 159 O 14.941 3.03386 -2.7934 0
M  V30 160 H 14.282 0.290395 -0.597132 0
M  V30 161 H 16.812 0.290854 -2.02522 0
M  V30 162 H 16.822 2.36278 -3.32621 0
M  V30 163 H 15.497 1.37772 -3.92418 0
M  V30 164 H 14.074 2.65844 -2.61498 0
M  V30 165 N 16.2591 1.48442 0.529413 0
M  V30 166 C 17.5081 1.55742 1.28169 0
M  V30 167 C 17.8211 0.236511 1.94165 0
M  V30 168 O 19.0271 0.187761 2.7085 0
M  V30 169 C 17.4831 2.74667 2.32564 0
M  V30 170 C 17.0911 4.13402 1.72636 0
M  V30 171 C 18.8351 2.9128 3.08798 0
M  V30 172 C 16.7421 5.23587 2.74975 0
M  V30 173 H 15.6721 0.579796 0.48203 0
M  V30 174 H 18.3231 1.74776 0.559056 0
M  V30 175 H 16.7051 2.49067 3.07866 0
M  V30 176 H 17.8791 4.49022 1.03519 0
M  V30 177 H 16.1941 4.0191 1.08892 0
M  V30 178 H 18.7911 3.70767 3.85274 0
M  V30 179 H 19.1341 2.00757 3.64695 0
M  V30 180 H 19.6671 3.16782 2.40611 0
M  V30 181 H 16.4061 6.16076 2.23897 0
M  V30 182 H 15.9261 4.92454 3.42417 0
M  V30 183 H 17.6051 5.51724 3.37949 0
M  V30 184 N 17.7372 -0.778329 1.37039 0
M  V30 185 C 18.9862 -1.53189 1.3121 0
M  V30 186 C 19.2992 -1.95328 -0.103095 0
M  V30 187 O 20.5052 -2.70012 -0.283826 0
M  V30 188 C 18.9612 -2.76591 2.30272 0
M  V30 189 C 18.5692 -2.41577 3.77286 0
M  V30 190 C 20.3132 -3.5455 2.33441 0
M  V30 191 C 18.2202 -3.61441 4.68096 0
M  V30 192 H 17.1502 -0.5751 0.487622 0
M  V30 193 H 19.8012 -0.853101 1.62464 0
M  V30 194 H 18.1832 -3.46326 1.92027 0
M  V30 195 H 19.3572 -1.79668 4.2433 0
M  V30 196 H 17.6722 -1.76806 3.76999 0
M  V30 197 H 20.2692 -4.43628 2.98493 0
M  V30 198 H 20.6122 -3.93936 1.34611 0
M  V30 199 H 21.1452 -2.91805 2.7036 0
M  V30 200 H 17.8842 -3.27142 5.6803 0
M  V30 201 H 17.4042 -4.22478 4.25761 0
M  V30 202 H 19.0832 -4.28335 4.8491 0
M  V30 203 N 19.2153 -1.21501 -1.00376 0
M  V30 204 C 20.4633 -1.03095 -1.73827 0
M  V30 205 C 20.7843 0.436341 -1.90055 0
M  V30 206 O 20.0543 1.31466 -1.45236 0
M  V30 207 H 18.6343 -0.378487 -0.644016 0
M  V30 208 H 21.2963 -1.52831 -1.20949 0
M  V30 209 H 20.3923 -1.49991 -2.73695 0
M  V30 210 N 20.6934 1.19889 -1.02296 0
M  V30 211 C 22.1094 1.41462 -0.738954 0
M  V30 212 C 22.3094 1.89721 0.678846 0
M  V30 213 O 21.3654 2.07016 1.4457 0
M  V30 214 C 22.6784 2.43083 -1.77005 0
M  V30 215 C 24.2264 2.5684 -1.78892 0
M  V30 216 C 24.7014 3.61709 -2.80945 0
M  V30 217 N 26.1924 3.69199 -2.79725 0
M  V30 218 C 26.9274 4.50019 -3.55345 0
M  V30 219 N 26.4234 5.34592 -4.40662 0
M  V30 220 N 28.2164 4.44612 -3.43914 0
M  V30 221 H 20.3674 0.868827 -1.93817 0
M  V30 222 H 22.6304 0.44399 -0.837602 0
M  V30 223 H 22.3364 2.14636 -2.78612 0
M  V30 224 H 22.2104 3.4217 -1.58744 0
M  V30 225 H 24.5974 2.84614 -0.779674 0
M  V30 226 H 24.6784 1.57927 -2.01228 0
M  V30 227 H 24.3224 3.34678 -3.82038 0
M  V30 228 H 24.2524 4.60259 -2.5587 0
M  V30 229 H 26.7434 3.08794 -2.17842 0
M  V30 230 H 27.0564 5.93363 -4.95116 0
M  V30 231 H 25.4014 5.34073 -4.44737 0
M  V30 232 H 28.5924 3.7758 -2.76679 0
M  V30 233 H 28.7654 5.0736 -4.031 0
M  V30 234 N 22.1715 0.800033 1.35784 0
M  V30 235 C 23.1015 0.220184 2.3246 0
M  V30 236 C 24.0825 -0.65073 1.57161 0
M  V30 237 O 25.2675 -0.582359 1.85263 0
M  V30 238 C 22.3975 -0.637353 3.41402 0
M  V30 239 C 21.3515 0.134531 4.27789 0
M  V30 240 C 20.6775 -0.844285 5.27992 0
M  V30 241 C 21.9775 1.32979 5.05088 0
M  V30 242 H 23.6715 1.02787 2.81203 0
M  V30 243 H 21.2175 0.495717 1.35199 0
M  V30 244 H 23.1705 -1.05302 4.08031 0
M  V30 245 H 21.8945 -1.47785 2.91251 0
M  V30 246 H 20.5535 0.531296 3.6273 0
M  V30 247 H 20.2015 -1.68011 4.74111 0
M  V30 248 H 19.9015 -0.332184 5.8666 0
M  V30 249 H 21.4255 -1.2583 5.97494 0
M  V30 250 H 22.8395 0.98934 5.64699 0
M  V30 251 H 21.2365 1.77593 5.7322 0
M  V30 252 H 22.3065 2.11978 4.36111 0
M  V30 253 N 23.6496 -1.47581 0.552962 0
M  V30 254 C 24.5796 -2.32762 -0.185451 0
M  V30 255 C 25.5606 -1.43527 -0.912905 0
M  V30 256 O 26.7456 -1.72388 -0.894201 0
M  V30 257 C 23.8756 -3.25219 -1.21859 0
M  V30 258 C 22.8296 -4.23661 -0.607864 0
M  V30 259 C 22.1556 -5.05413 -1.74533 0
M  V30 260 C 23.4556 -5.20481 0.435582 0
M  V30 261 H 25.1496 -2.94749 0.525684 0
M  V30 262 H 22.6956 -1.41738 0.254251 0
M  V30 263 H 24.6486 -3.8365 -1.7433 0
M  V30 264 H 23.3726 -2.61279 -1.95961 0
M  V30 265 H 22.0316 -3.66451 -0.104489 0
M  V30 266 H 21.6796 -4.3788 -2.47529 0
M  V30 267 H 21.3796 -5.72059 -1.34249 0
M  V30 268 H 22.9036 -5.66701 -2.27338 0
M  V30 269 H 24.3176 -5.733 -0.00290157 0
M  V30 270 H 22.7146 -5.95305 0.757067 0
M  V30 271 H 23.7846 -4.66217 1.33303 0
M  V30 272 N 25.1277 -0.289203 -1.54924 0
M  V30 273 C 26.0377 0.601863 -2.26748 0
M  V30 274 C 27.0537 1.15834 -1.2984 0
M  V30 275 O 28.2297 1.18564 -1.62802 0
M  V30 276 C 25.2947 1.76299 -2.98529 0
M  V30 277 C 24.3557 1.24178 -4.10948 0
M  V30 278 C 23.5887 2.34757 -4.79296 0
M  V30 279 O 23.8117 3.54411 -4.46933 0
M  V30 280 O 22.7457 2.02115 -5.66951 0
M  V30 281 H 26.5717 0.0195879 -3.03694 0
M  V30 282 H 24.1567 -0.0560868 -1.49295 0
M  V30 283 H 26.0387 2.43973 -3.43592 0
M  V30 284 H 24.7137 2.33209 -2.24488 0
M  V30 285 H 23.6207 0.531104 -3.70311 0
M  V30 286 H 24.9537 0.718252 -4.86931 0
M  V30 287 N 26.6058 1.57591 -0.0167156 0
M  V30 288 C 27.8518 1.91567 0.665582 0
M  V30 289 C 28.1848 0.892298 1.72487 0
M  V30 290 O 27.4598 -0.0867127 1.94307 0
M  V30 291 C 27.7428 3.36069 1.29342 0
M  V30 292 C 27.5958 4.49135 0.244541 0
M  V30 293 C 28.9148 3.803 2.21495 0
M  V30 294 H 26.0338 0.69666 0.240488 0
M  V30 295 H 28.6758 1.89866 -0.0714356 0
M  V30 296 H 26.8258 3.3765 1.92158 0
M  V30 297 H 28.4978 4.59689 -0.385228 0
M  V30 298 H 26.7408 4.3165 -0.431379 0
M  V30 299 H 27.4118 5.47242 0.723207 0
M  V30 300 H 29.8878 3.80377 1.68678 0
M  V30 301 H 28.7638 4.82127 2.62382 0
M  V30 302 H 29.0248 3.15104 3.101 0
M  V30 303 N 28.0839 -0.256276 1.55502 0
M  V30 304 C 29.0159 -1.33981 1.85962 0
M  V30 305 C 30.0289 -1.44743 0.745212 0
M  V30 306 O 31.2179 -1.4626 1.02324 0
M  V30 307 C 28.3179 -2.7194 2.02242 0
M  V30 308 C 27.4909 -2.83562 3.33033 0
M  V30 309 C 26.5499 -4.02304 3.39172 0
M  V30 310 O 25.5759 -3.92273 4.12444 0
M  V30 311 N 26.7779 -5.15045 2.67784 0
M  V30 312 H 29.5429 -1.08191 2.7949 0
M  V30 313 H 27.1039 -0.446388 1.55624 0
M  V30 314 H 29.0959 -3.49697 2.03701 0
M  V30 315 H 27.6659 -2.90479 1.15502 0
M  V30 316 H 26.8859 -1.92555 3.43971 0
M  V30 317 H 28.1739 -2.88271 4.19258 0
M  V30 318 H 27.5719 -5.26085 2.07968 0
M  V30 319 H 26.1289 -5.90972 2.74947 0
M  V30 320 N 29.562 -1.4872 -0.521534 0
M  V30 321 C 30.81 -1.56857 -1.27437 0
M  V30 322 C 31.131 -0.247982 -1.93417 0
M  V30 323 O 30.401 0.731151 -1.81744 0
M  V30 324 H 28.981 -0.577885 -0.473347 0
M  V30 325 H 31.643 -1.85233 -0.606205 0
M  V30 326 H 30.739 -2.35402 -2.0492 0
M  V30 327 N 31.0401 0.771051 -1.3745 0
M  V30 328 C 32.2651 1.56529 -1.36065 0
M  V30 329 C 32.6901 1.88029 0.0515859 0
M  V30 330 O 32.0481 1.49282 1.02882 0
M  V30 331 C 32.0961 2.85187 -2.20683 0
M  V30 332 O 31.2001 3.79593 -1.61193 0
M  V30 333 H 30.5411 0.47411 -0.464883 0
M  V30 334 H 33.0711 0.954269 -1.80983 0
M  V30 335 H 33.0811 3.34283 -2.33921 0
M  V30 336 H 31.7561 2.61588 -3.23334 0
M  V30 337 H 30.3331 3.38239 -1.56999 0
M  V30 338 N 32.5182 1.22032 0.997298 0
M  V30 339 C 33.9342 0.979326 1.26021 0
M  V30 340 C 34.1342 -0.32972 1.98784 0
M  V30 341 O 33.1902 -1.05345 2.29475 0
M  V30 342 C 34.5032 2.17509 2.07631 0
M  V30 343 C 36.0512 2.21817 2.2083 0
M  V30 344 C 36.5262 3.40933 3.05825 0
M  V30 345 N 38.0172 3.41067 3.13412 0
M  V30 346 C 38.7522 4.29885 3.79455 0
M  V30 347 N 38.2482 5.28914 4.47462 0
M  V30 348 N 40.0412 4.17673 3.76173 0
M  V30 349 H 32.1922 2.06202 0.509352 0
M  V30 350 H 34.4552 0.90334 0.287541 0
M  V30 351 H 34.1612 3.12415 1.61524 0
M  V30 352 H 34.0352 2.17206 3.08385 0
M  V30 353 H 36.4222 1.27462 2.66153 0
M  V30 354 H 36.5032 2.2616 1.1952 0
M  V30 355 H 36.1472 4.35586 2.61203 0
M  V30 356 H 36.0772 3.33829 4.07266 0
M  V30 357 H 38.5682 2.69406 2.65007 0
M  V30 358 H 38.8812 5.92973 4.95583 0
M  V30 359 H 37.2262 5.32831 4.46224 0
M  V30 360 H 40.4172 3.39564 3.22202 0
M  V30 361 H 40.5902 4.87098 4.27363 0
M  V30 362 N 33.9963 -1.19345 1.0293 0
M  V30 363 C 35.4073 -1.70725 0.755633 0
M  V30 364 C 35.7583 -1.82326 -0.724676 0
M  V30 365 O 34.8833 -1.49471 -1.56484 0
M  V30 366 C 35.4783 -3.10084 1.36503 0
M  V30 367 C 34.0373 -3.58723 1.13994 0
M  V30 368 C 33.1843 -2.35577 1.46283 0
M  V30 369 H 36.1353 -1.0418 1.19718 0
M  V30 370 H 36.1563 -3.72787 0.762217 0
M  V30 371 H 35.6683 -3.01609 2.44241 0
M  V30 372 H 33.7693 -3.72512 0.0807901 0
M  V30 373 H 33.8823 -4.42816 1.82894 0
M  V30 374 H 32.2463 -2.38935 0.88217 0
M  V30 375 H 33.0293 -2.29731 2.55105 0
M  V30 376 N 35.4744 -0.807222 -1.35358 0
M  V30 377 C 36.7224 -0.387122 -1.98358 0
M  V30 378 C 37.0434 1.04942 -1.64354 0
M  V30 379 O 36.3134 1.72615 -0.926339 0
M  V30 380 H 34.8934 -0.140154 -0.733734 0
M  V30 381 H 37.5554 -1.0332 -1.6526 0
M  V30 382 H 36.6514 -0.493352 -3.08176 0
M  V30 383 N 36.9525 1.47285 -0.560781 0
M  V30 384 C 37.8995 2.30058 0.18491 0
M  V30 385 C 38.8695 1.39281 0.904986 0
M  V30 386 O 40.0545 1.68241 0.899979 0
M  V30 387 C 37.1945 3.23317 1.20666 0
M  V30 388 C 36.3075 4.29186 0.492285 0
M  V30 389 C 35.4425 5.09592 1.49964 0
M  V30 390 C 34.4815 6.07232 0.770439 0
M  V30 391 N 33.6185 6.80584 1.72479 0
M  V30 392 H 38.4585 2.93302 -0.527048 0
M  V30 393 H 35.9955 1.44568 -0.271738 0
M  V30 394 H 37.9535 3.75811 1.81168 0
M  V30 395 H 36.5835 2.61929 1.88661 0
M  V30 396 H 35.6355 3.7972 -0.227333 0
M  V30 397 H 36.9475 4.98738 -0.0787929 0
M  V30 398 H 36.1015 5.66254 2.17809 0
M  V30 399 H 34.8405 4.3995 2.10464 0
M  V30 400 H 33.8455 5.49745 0.0780846 0
M  V30 401 H 35.0705 6.78884 0.171134 0
M  V30 402 H 33.0165 6.1367 2.3183 0
M  V30 403 H 32.9335 7.46319 1.20596 0
M  V30 404 H 34.2015 7.41818 2.39428 0
M  V30 405 N 38.4306 0.297415 1.54768 0
M  V30 406 C 39.3786 -0.596051 2.24833 0
M  V30 407 C 40.3726 -1.13992 1.25308 0
M  V30 408 O 41.5786 -1.09098 1.4317 0
M  V30 409 H 37.9536 -0.210814 0.721846 0
M  V30 410 H 39.9246 0.0174667 2.98395 0
M  V30 411 C 38.6736 -1.75818 2.99972 0
M  V30 412 H 37.9966 -1.3489 3.76357 0
M  V30 413 H 39.4366 -2.35949 3.52284 0
M  V30 414 C 37.8956 -2.66014 2.06732 0
M  V30 415 O 38.4256 -3.67009 1.63302 0
M  V30 416 N 36.6316 -2.33669 1.72763 0
M  V30 417 H 36.1786 -1.51586 2.08277 0
M  V30 418 H 36.1366 -2.94285 1.10652 0
M  V30 419 N 39.9087 -1.5758 0.0250728 0
M  V30 420 C 41.1547 -1.91917 -0.655413 0
M  V30 421 C 41.4877 -0.901433 -1.72011 0
M  V30 422 O 40.7627 0.0764069 -1.9435 0
M  V30 423 C 41.0457 -3.36751 -1.27558 0
M  V30 424 C 40.8987 -4.49258 -0.220719 0
M  V30 425 C 42.2177 -3.81469 -2.19475 0
M  V30 426 H 39.3367 -0.697925 -0.23679 0
M  V30 427 H 41.9787 -1.89825 0.0815036 0
M  V30 428 H 40.1287 -3.38664 -1.90365 0
M  V30 429 H 41.8007 -4.59478 0.409601 0
M  V30 430 H 40.0437 -4.31415 0.454264 0
M  V30 431 H 40.7147 -5.47618 -0.694175 0
M  V30 432 H 43.1907 -3.81266 -1.66659 0
M  V30 433 H 42.0667 -4.83512 -2.59822 0
M  V30 434 H 42.3277 -3.16744 -3.08424 0
M  V30 435 N 41.3868 0.248026 -1.55636 0
M  V30 436 C 42.3188 1.32993 -1.8667 0
M  V30 437 C 43.3318 1.44345 -0.752877 0
M  V30 438 O 44.5208 1.45715 -1.03098 0
M  V30 439 C 41.6208 2.70863 -2.03682 0
M  V30 440 C 40.7938 2.81792 -3.34532 0
M  V30 441 C 39.8528 4.005 -3.41301 0
M  V30 442 O 38.8788 3.9008 -4.14519 0
M  V30 443 N 40.0808 5.13618 -2.70512 0
M  V30 444 H 42.8458 1.06707 -2.8006 0
M  V30 445 H 40.4068 0.438129 -1.55859 0
M  V30 446 H 42.3988 3.48612 -2.05553 0
M  V30 447 H 40.9688 2.89862 -1.17041 0
M  V30 448 H 40.1888 1.90729 -3.44987 0
M  V30 449 H 41.4768 2.86043 -4.20781 0
M  V30 450 H 40.8748 5.24975 -2.10755 0
M  V30 451 H 39.4318 5.89505 -2.78077 0
M  V30 452 N 42.8649 1.48995 0.513639 0
M  V30 453 C 43.7949 1.67636 1.62544 0
M  V30 454 C 44.7759 0.525087 1.61793 0
M  V30 455 O 45.9609 0.759502 1.78732 0
M  V30 456 C 43.0909 1.73114 3.01079 0
M  V30 457 C 42.0449 2.87905 3.16693 0
M  V30 458 C 41.3709 2.78486 4.56453 0
M  V30 459 C 42.6709 4.29005 2.97913 0
M  V30 460 H 44.3649 2.60716 1.47198 0
M  V30 461 H 41.9109 1.25465 0.706714 0
M  V30 462 H 43.8639 1.84742 3.78746 0
M  V30 463 H 42.5879 0.766241 3.17484 0
M  V30 464 H 41.2469 2.75859 2.41448 0
M  V30 465 H 40.8949 1.7993 4.69717 0
M  V30 466 H 40.5949 3.55523 4.67843 0
M  V30 467 H 42.1189 2.92104 5.36197 0
M  V30 468 H 43.5329 4.41798 3.65359 0
M  V30 469 H 41.9299 5.07166 3.20785 0
M  V30 470 H 42.9999 4.44329 1.94165 0
M  V30 471 N 44.343 -0.763751 1.37857 0
M  V30 472 C 45.571 -1.55293 1.36718 0
M  V30 473 C 45.986 -1.88745 -0.0455434 0
M  V30 474 O 45.343 -1.52039 -1.00947 0
M  V30 475 C 45.394 -2.85831 2.2132 0
M  V30 476 O 45.115 -2.5381 3.57089 0
M  V30 477 C 46.616 -3.80023 2.28249 0
M  V30 478 H 43.836 -0.480841 0.468009 0
M  V30 479 H 46.38 -0.946009 1.81303 0
M  V30 480 H 44.535 -3.42926 1.80223 0
M  V30 481 H 44.949 -3.37459 4.01524 0
M  V30 482 H 46.423 -4.68599 2.91752 0
M  V30 483 H 46.9 -4.1973 1.2932 0
M  V30 484 H 47.506 -3.28855 2.69693 0
M  V30 485 N 45.8211 -1.22559 -0.990812 0
M  V30 486 C 46.7311 -1.01394 -2.11557 0
M  V30 487 C 47.7471 0.0383962 -1.73958 0
M  V30 488 O 48.9231 -0.154787 -2.00804 0
M  V30 489 C 45.9881 -0.596569 -3.41529 0
M  V30 490 C 45.0491 -1.72276 -3.93217 0
M  V30 491 C 44.2821 -1.32521 -5.16985 0
M  V30 492 O 44.5051 -0.204909 -5.70032 0
M  V30 493 O 43.4391 -2.14247 -5.62478 0
M  V30 494 H 47.2651 -1.95633 -2.32296 0
M  V30 495 H 44.8501 -1.01172 -1.0993 0
M  V30 496 H 46.7321 -0.374263 -4.19735 0
M  V30 497 H 45.4071 0.316939 -3.22145 0
M  V30 498 H 44.3141 -1.99961 -3.16174 0
M  V30 499 H 45.6471 -2.61421 -4.17037 0
M  V30 500 N 47.2992 1.18797 -1.03562 0
M  V30 501 C 48.2472 2.24297 -0.615905 0
M  V30 502 C 49.2412 1.65643 0.354808 0
M  V30 503 O 50.4472 1.78618 0.22265 0
M  V30 504 H 46.8222 0.729909 -0.180934 0
M  V30 505 H 48.7932 2.5701 -1.5162 0
M  V30 506 C 47.5422 3.47698 0.0104735 0
M  V30 507 H 46.8652 3.93125 -0.727509 0
M  V30 508 H 48.3052 4.23159 0.266995 0
M  V30 509 C 46.7642 3.12489 1.25905 0
M  V30 510 O 47.2942 3.25761 2.35038 0
M  V30 511 N 45.5002 2.6686 1.15039 0
M  V30 512 H 45.0472 2.56261 0.262328 0
M  V30 513 H 45.0052 2.43674 1.98672 0
M  V30 514 N 48.7773 0.814389 1.34928 0
M  V30 515 C 49.6873 0.231978 2.3345 0
M  V30 516 C 50.7033 -0.629139 1.62228 0
M  V30 517 O 51.8793 -0.539052 1.94052 0
M  V30 518 C 48.9443 -0.603482 3.41407 0
M  V30 519 C 48.0053 0.279037 4.28392 0
M  V30 520 C 47.2383 -0.516643 5.31193 0
M  V30 521 O 47.4613 -1.75068 5.4287 0
M  V30 522 O 46.3953 0.0965652 6.01823 0
M  V30 523 H 50.2213 1.04721 2.85074 0
M  V30 524 H 47.8063 0.576343 1.37836 0
M  V30 525 H 49.6883 -1.07908 4.0735 0
M  V30 526 H 48.3633 -1.39618 2.92042 0
M  V30 527 H 47.2703 0.801948 3.65403 0
M  V30 528 H 48.6033 1.03588 4.81176 0
M  V30 529 N 50.2554 -1.46986 0.568584 0
M  V30 530 C 51.5044 -2.01646 0.0465894 0
M  V30 531 C 51.8174 -1.44721 -1.31587 0
M  V30 532 O 53.0234 -1.91113 -1.92842 0
M  V30 533 C 51.4794 -3.59885 0.032752 0
M  V30 534 C 51.0874 -4.25804 1.39266 0
M  V30 535 C 52.8314 -4.22255 -0.436038 0
M  V30 536 C 50.7384 -5.76081 1.33732 0
M  V30 537 H 49.6684 -0.753876 0.013647 0
M  V30 538 H 52.3194 -1.68864 0.718131 0
M  V30 539 H 50.7014 -3.8968 -0.704669 0
M  V30 540 H 51.8754 -4.07637 2.1487 0
M  V30 541 H 50.1904 -3.7547 1.80032 0
M  V30 542 H 52.7874 -5.32394 -0.49602 0
M  V30 543 H 53.1304 -3.90212 -1.45053 0
M  V30 544 H 53.6634 -3.97033 0.246877 0
M  V30 545 H 50.4024 -6.12761 2.32817 0
M  V30 546 H 49.9224 -5.96553 0.623267 0
M  V30 547 H 51.6014 -6.38518 1.0442 0
M  V30 548 N 51.7335 -0.305618 -1.54608 0
M  V30 549 C 53.1495 0.0476228 -1.59529 0
M  V30 550 C 53.3495 1.52025 -1.32252 0
M  V30 551 O 52.4055 2.27368 -1.09818 0
M  V30 552 C 53.7185 -0.354471 -2.98603 0
M  V30 553 C 55.2665 -0.303622 -3.11524 0
M  V30 554 C 55.7415 -0.680608 -4.52915 0
M  V30 555 N 57.2325 -0.63332 -4.5885 0
M  V30 556 C 57.9675 -0.897432 -5.66334 0
M  V30 557 N 57.4635 -1.22775 -6.81834 0
M  V30 558 N 59.2565 -0.824186 -5.56025 0
M  V30 559 H 51.4075 -1.2653 -1.70599 0
M  V30 560 H 53.6705 -0.513291 -0.797017 0
M  V30 561 H 53.3765 -1.3798 -3.23503 0
M  V30 562 H 53.2505 0.289568 -3.76087 0
M  V30 563 H 55.6375 0.712472 -2.8637 0
M  V30 564 H 55.7185 -0.982348 -2.36185 0
M  V30 565 H 55.3625 -1.69453 -4.78799 0
M  V30 566 H 55.2925 0.0202385 -5.26596 0
M  V30 567 H 57.7835 -0.389138 -3.75891 0
M  V30 568 H 58.0965 -1.41513 -7.59733 0
M  V30 569 H 56.4415 -1.26583 -6.83375 0
M  V30 570 H 59.6325 -0.565748 -4.64669 0
M  V30 571 H 59.8055 -1.03338 -6.39707 0
M  V30 572 N 53.2116 1.57565 -0.0334293 0
M  V30 573 C 54.4596 1.91598 0.642999 0
M  V30 574 C 54.7806 0.910847 1.7242 0
M  V30 575 O 54.0506 -0.0469931 1.95844 0
M  V30 576 H 52.6306 0.707228 0.240496 0
M  V30 577 H 55.2926 1.94726 -0.0822488 0
M  V30 578 H 54.3886 2.92336 1.09298 0
M  V30 579 N 54.6897 -0.239769 1.55765 0
M  V30 580 C 55.6197 -1.30052 1.9393 0
M  V30 581 C 56.6007 -1.49839 0.805132 0
M  V30 582 O 57.7857 -1.62328 1.06599 0
M  V30 583 C 54.9157 -2.65391 2.2402 0
M  V30 584 C 53.8697 -2.60289 3.39755 0
M  V30 585 C 53.1957 -3.99489 3.55405 0
M  V30 586 C 54.4957 -2.16654 4.75246 0
M  V30 587 H 56.1897 -0.983573 2.82783 0
M  V30 588 H 53.7357 -0.471701 1.36055 0
M  V30 589 H 55.6887 -3.3974 2.49308 0
M  V30 590 H 54.4127 -2.98736 1.32 0
M  V30 591 H 53.0717 -1.88398 3.14487 0
M  V30 592 H 52.7197 -4.30112 2.60793 0
M  V30 593 H 52.4197 -3.96962 4.33238 0
M  V30 594 H 53.9437 -4.75528 3.83022 0
M  V30 595 H 55.3577 -2.80737 4.99859 0
M  V30 596 H 53.7547 -2.25223 5.56232 0
M  V30 597 H 54.8247 -1.11835 4.71827 0
M  V30 598 N 56.1678 -1.49265 -0.50573 0
M  V30 599 C 57.4078 -1.60128 -1.27038 0
M  V30 600 C 57.7718 -0.279557 -1.89954 0
M  V30 601 O 58.9728 -0.263329 -2.67507 0
M  V30 602 C 57.2438 -2.72507 -2.31246 0
M  V30 603 S 58.8028 -3.0329 -3.17113 0
M  V30 604 H 55.6208 -0.564863 -0.4318 0
M  V30 605 H 58.2228 -1.86902 -0.573397 0
M  V30 606 H 56.9268 -3.67068 -1.83546 0
M  V30 607 H 56.4578 -2.4771 -3.05619 0
M  V30 608 H 58.4728 -2.44448 -4.31809 0
M  V30 609 N 57.6459 0.756429 -1.3826 0
M  V30 610 C 58.5759 1.88374 -1.37976 0
M  V30 611 C 59.5569 1.68311 -0.246082 0
M  V30 612 O 60.7419 1.88944 -0.44874 0
M  V30 613 C 57.8719 3.25864 -1.20125 0
M  V30 614 C 56.8259 3.60523 -2.30666 0
M  V30 615 C 56.1519 4.9672 -1.97923 0
M  V30 616 C 57.4519 3.65692 -3.72916 0
M  V30 617 H 59.1459 1.88869 -2.32312 0
M  V30 618 H 56.6919 0.907272 -1.11824 0
M  V30 619 H 58.6449 4.0438 -1.18552 0
M  V30 620 H 57.3689 3.25841 -0.222498 0
M  V30 621 H 56.0279 2.84324 -2.3142 0
M  V30 622 H 55.6759 4.93253 -0.985393 0
M  V30 623 H 55.3759 5.20878 -2.71955 0
M  V30 624 H 56.8999 5.77618 -1.97964 0
M  V30 625 H 58.3139 4.34328 -3.74208 0
M  V30 626 H 56.7109 4.01358 -4.4613 0
M  V30 627 H 57.7809 2.65987 -4.05436 0
M  V30 628 N 59.124 1.23083 0.984299 0
M  V30 629 C 60.071 1.00854 2.07598 0
M  V30 630 C 61.041 -0.0726709 1.65941 0
M  V30 631 O 62.226 0.0786535 1.90638 0
M  V30 632 C 59.366 0.601645 3.39815 0
M  V30 633 C 58.479 1.75456 3.94765 0
M  V30 634 C 57.614 1.29482 5.15177 0
M  V30 635 C 56.653 2.41873 5.62284 0
M  V30 636 N 55.79 1.96885 6.73929 0
M  V30 637 H 60.63 1.943 2.25946 0
M  V30 638 H 58.167 0.968001 1.10762 0
M  V30 639 H 60.125 0.346854 4.15756 0
M  V30 640 H 58.755 -0.295803 3.21442 0
M  V30 641 H 57.807 2.12346 3.15616 0
M  V30 642 H 59.119 2.59965 4.25699 0
M  V30 643 H 58.273 0.997923 5.98437 0
M  V30 644 H 57.012 0.420046 4.85888 0
M  V30 645 H 56.017 2.72342 4.77608 0
M  V30 646 H 57.242 3.29881 5.93595 0
M  V30 647 H 55.188 1.11782 6.46406 0
M  V30 648 H 55.105 2.74956 7.04227 0
M  V30 649 H 56.373 1.70289 7.60672 0
M  V30 650 N 60.6021 -1.18246 1.0419 0
M  V30 651 C 61.8271 -1.92736 0.765996 0
M  V30 652 C 62.2521 -1.75728 -0.67091 0
M  V30 653 O 61.6101 -1.06825 -1.46486 0
M  V30 654 C 61.6581 -3.42148 1.13875 0
M  V30 655 O 60.7621 -4.11548 0.264954 0
M  V30 656 H 60.1031 -0.601238 0.281797 0
M  V30 657 H 62.6331 -1.49942 1.39207 0
M  V30 658 H 62.6431 -3.92858 1.1012 0
M  V30 659 H 61.3181 -3.53848 2.18551 0
M  V30 660 H 59.8951 -3.71137 0.362226 0
M  V30 661 N 62.0802 -0.821533 -1.34494 0
M  V30 662 C 63.4962 -0.507117 -1.51329 0
M  V30 663 C 63.6962 0.968964 -1.76673 0
M  V30 664 O 62.7522 1.75348 -1.81685 0
M  V30 665 C 64.0652 -1.36544 -2.67911 0
M  V30 666 C 65.6132 -1.36242 -2.81793 0
M  V30 667 C 66.0882 -2.2052 -4.01416 0
M  V30 668 N 67.5792 -2.18136 -4.08621 0
M  V30 669 C 68.3142 -2.80095 -5.00334 0
M  V30 670 N 67.8102 -3.51039 -5.9728 0
M  V30 671 N 69.6032 -2.69656 -4.93196 0
M  V30 672 H 61.7542 -1.77729 -1.16302 0
M  V30 673 H 64.0172 -0.757291 -0.570276 0
M  V30 674 H 63.7232 -2.41361 -2.55808 0
M  V30 675 H 63.5972 -1.02917 -3.62888 0
M  V30 676 H 65.9842 -0.322041 -2.93338 0
M  V30 677 H 66.0652 -1.73866 -1.87628 0
M  V30 678 H 65.7092 -3.24607 -3.90631 0
M  V30 679 H 65.6392 -1.80247 -4.94791 0
M  V30 680 H 68.1302 -1.6653 -3.39229 0
M  V30 681 H 68.4432 -3.95565 -6.63889 0
M  V30 682 H 66.7882 -3.55145 -5.97409 0
M  V30 683 H 69.9792 -2.13808 -4.16418 0
M  V30 684 H 70.1522 -3.1823 -5.64476 0
M  V30 685 N 63.5583 1.46682 -0.576371 0
M  V30 686 C 64.4683 2.34032 0.163141 0
M  V30 687 C 65.4843 1.49367 0.892501 0
M  V30 688 O 66.6603 1.82252 0.857106 0
M  V30 689 C 63.7253 3.26435 1.16795 0
M  V30 690 C 62.7863 4.26998 0.443944 0
M  V30 691 C 62.0193 5.14986 1.40088 0
M  V30 692 O 62.2423 5.05785 2.637 0
M  V30 693 O 61.1763 5.94906 0.914917 0
M  V30 694 H 65.0023 2.98607 -0.55388 0
M  V30 695 H 62.5873 1.45554 -0.336821 0
M  V30 696 H 64.4693 3.83459 1.74748 0
M  V30 697 H 63.1443 2.64465 1.86655 0
M  V30 698 H 62.0513 3.7368 -0.177271 0
M  V30 699 H 63.3843 4.91736 -0.213566 0
M  V30 700 N 65.0364 0.313813 1.54444 0
M  V30 701 C 66.2854 -0.292519 1.99568 0
M  V30 702 C 66.5984 -1.54011 1.20582 0
M  V30 703 O 67.8044 -2.22183 1.56035 0
M  V30 704 C 66.2604 -0.571752 3.55329 0
M  V30 705 C 65.8684 0.658229 4.43138 0
M  V30 706 C 67.6124 -1.13857 4.08946 0
M  V30 707 C 65.5194 0.351439 5.90355 0
M  V30 708 H 64.4494 -0.113079 0.745472 0
M  V30 709 H 67.1004 0.424518 1.78522 0
M  V30 710 H 65.4824 -1.34872 3.72325 0
M  V30 711 H 66.6564 1.43403 4.37918 0
M  V30 712 H 64.9714 1.14458 4.0036 0
M  V30 713 H 67.5684 -1.38257 5.16516 0
M  V30 714 H 67.9114 -2.08489 3.6033 0
M  V30 715 H 68.4444 -0.423015 3.95544 0
M  V30 716 H 65.1834 1.26667 6.43145 0
M  V30 717 H 64.7034 -0.386842 5.98551 0
M  V30 718 H 66.3824 -0.0423134 6.46986 0
M  V30 719 N 66.5145 -1.57545 0.0417849 0
M  V30 720 C 67.7615 -1.92317 -0.634082 0
M  V30 721 C 68.0895 -0.919334 -1.71402 0
M  V30 722 O 67.3445 0.0698253 -1.95575 0
M  V30 723 C 67.6435 -3.33794 -1.27735 0
M  V30 724 C 67.3095 -4.49716 -0.326543 0
M  V30 725 C 65.9715 -4.81156 -0.0648814 0
M  V30 726 C 68.3235 -5.20182 0.325623 0
M  V30 727 C 65.6515 -5.80414 0.856539 0
M  V30 728 C 68.0035 -6.20424 1.23518 0
M  V30 729 C 66.6675 -6.50298 1.5056 0
M  V30 730 H 65.9375 -0.703736 -0.232027 0
M  V30 731 H 68.5845 -1.91205 0.106259 0
M  V30 732 H 66.8895 -3.31228 -2.09274 0
M  V30 733 H 68.5865 -3.57975 -1.80707 0
M  V30 734 H 65.1765 -4.25176 -0.540665 0
M  V30 735 H 69.3605 -4.96112 0.136546 0
M  V30 736 H 64.6165 -6.019 1.07363 0
M  V30 737 H 68.7905 -6.74141 1.74664 0
M  V30 738 H 66.4175 -7.27025 2.22123 0
M  V30 739 N 67.9926 0.231505 -1.5589 0
M  V30 740 C 68.9226 1.29022 -1.94617 0
M  V30 741 C 69.9036 1.4941 -0.813067 0
M  V30 742 O 71.0886 1.6176 -1.07459 0
M  V30 743 C 68.2186 2.64199 -2.25424 0
M  V30 744 C 67.1726 2.58484 -3.41131 0
M  V30 745 C 66.4986 3.97599 -3.57518 0
M  V30 746 C 67.7986 2.1413 -4.76388 0
M  V30 747 H 69.4926 0.968563 -2.83301 0
M  V30 748 H 67.0386 0.464479 -1.36303 0
M  V30 749 H 68.9916 3.38413 -2.51107 0
M  V30 750 H 67.7156 2.98032 -1.33583 0
M  V30 751 H 66.3746 1.86727 -3.15481 0
M  V30 752 H 66.0226 4.28723 -2.6307 0
M  V30 753 H 65.7226 3.94659 -4.35337 0
M  V30 754 H 67.2466 4.7349 -3.85538 0
M  V30 755 H 68.6606 2.78083 -5.01341 0
M  V30 756 H 67.0576 2.2227 -5.57419 0
M  V30 757 H 68.1276 1.09331 -4.72414 0
M  V30 758 N 69.4707 1.49531 0.497807 0
M  V30 759 C 70.6957 1.63159 1.28039 0
M  V30 760 C 71.1207 0.30418 1.85624 0
M  V30 761 O 70.4787 -0.728618 1.66015 0
M  V30 762 C 70.5267 2.70537 2.38416 0
M  V30 763 O 69.6307 2.29931 3.42353 0
M  V30 764 H 68.9717 0.546001 0.377861 0
M  V30 765 H 71.5017 1.9574 0.59558 0
M  V30 766 H 71.5117 2.92802 2.84132 0
M  V30 767 H 70.1867 3.6689 1.95869 0
M  V30 768 H 68.7637 2.18009 3.02533 0
M  V30 769 N 70.9488 -0.749086 1.3866 0
M  V30 770 C 71.8808 -1.87273 1.32142 0
M  V30 771 C 72.8938 -1.61127 0.232787 0
M  V30 772 O 74.0828 -1.71623 0.49069 0
M  V30 773 C 71.1828 -3.23005 1.02571 0
M  V30 774 C 70.3558 -3.7662 2.22433 0
M  V30 775 C 69.4148 -4.90879 1.89537 0
M  V30 776 O 68.4408 -5.05276 2.62078 0
M  V30 777 N 69.6428 -5.74198 0.853031 0
M  V30 778 H 72.4078 -1.93373 2.28969 0
M  V30 779 H 69.9688 -0.929216 1.32579 0
M  V30 780 H 71.9608 -3.96992 0.786085 0
M  V30 781 H 70.5308 -3.12262 0.145249 0
M  V30 782 H 69.7508 -2.94147 2.62434 0
M  V30 783 H 71.0388 -4.09173 3.02415 0
M  V30 784 H 70.4368 -5.6514 0.25155 0
M  V30 785 H 68.9938 -6.48313 0.67329 0
M  V30 786 N 72.4269 -1.23603 -0.977757 0
M  V30 787 C 73.8379 -1.06424 -1.53398 0
M  V30 788 C 74.1889 0.367578 -1.92726 0
M  V30 789 O 73.3139 1.25465 -1.76316 0
M  V30 790 C 73.9089 -1.92568 -2.78753 0
M  V30 791 C 72.4679 -1.79642 -3.30765 0
M  V30 792 C 71.6149 -1.88111 -2.03739 0
M  V30 793 H 74.5659 -1.37227 -0.797152 0
M  V30 794 H 74.5869 -1.45203 -3.51705 0
M  V30 795 H 74.0989 -2.96771 -2.50098 0
M  V30 796 H 72.1999 -0.782325 -3.64294 0
M  V30 797 H 72.3129 -2.63174 -4.00345 0
M  V30 798 H 70.6769 -1.31723 -2.17994 0
M  V30 799 H 71.4599 -2.93875 -1.77461 0
M  V30 800 N 73.905 1.17692 -1.04816 0
M  V30 801 C 75.154 1.87192 -0.751132 0
M  V30 802 C 75.467 1.8169 0.724441 0
M  V30 803 O 76.673 2.46625 1.13527 0
M  V30 804 C 75.129 3.35857 -1.29338 0
M  V30 805 C 74.737 3.4987 -2.79812 0
M  V30 806 C 76.481 4.10709 -1.07322 0
M  V30 807 C 74.388 4.92536 -3.27356 0
M  V30 808 H 73.318 0.701162 -0.277288 0
M  V30 809 H 75.969 1.32932 -1.26496 0
M  V30 810 H 74.351 3.89631 -0.707376 0
M  V30 811 H 75.525 3.06332 -3.44235 0
M  V30 812 H 73.84 2.88433 -3.00325 0
M  V30 813 H 76.437 5.15952 -1.4035 0
M  V30 814 H 76.78 4.16299 -0.0108001 0
M  V30 815 H 77.313 3.6313 -1.62423 0
M  V30 816 H 74.052 4.92119 -4.33012 0
M  V30 817 H 73.572 5.3676 -2.67673 0
M  V30 818 H 75.251 5.61288 -3.21815 0
M  V30 819 N 75.3831 0.828654 1.34056 0
M  V30 820 C 76.3131 0.269443 2.3194 0
M  V30 821 C 77.2941 -0.617247 1.58506 0
M  V30 822 O 78.4791 -0.542931 1.86456 0
M  V30 823 C 75.6091 -0.564793 3.42677 0
M  V30 824 C 74.5631 0.225241 4.27407 0
M  V30 825 C 73.8891 -0.7321 5.29664 0
M  V30 826 C 75.1891 1.43663 5.02154 0
M  V30 827 H 76.8831 1.08728 2.7896 0
M  V30 828 H 74.4291 0.524283 1.34117 0
M  V30 829 H 76.3821 -0.966233 4.10173 0
M  V30 830 H 75.1061 -1.41574 2.9432 0
M  V30 831 H 73.7651 0.608117 3.61521 0
M  V30 832 H 73.4131 -1.57916 4.77568 0
M  V30 833 H 73.1131 -0.20767 5.87233 0
M  V30 834 H 74.6371 -1.13128 6.00029 0
M  V30 835 H 76.0511 1.1089 5.62473 0
M  V30 836 H 74.4481 1.89711 5.69324 0
M  V30 837 H 75.5181 2.21181 4.31517 0
M  V30 838 N 76.8612 -1.46375 0.584142 0
M  V30 839 C 77.7912 -2.33103 -0.136037 0
M  V30 840 C 78.7722 -1.45431 -0.882255 0
M  V30 841 O 79.9572 -1.74246 -0.857434 0
M  V30 842 C 77.0872 -3.27731 -1.14933 0
M  V30 843 C 76.0412 -4.24855 -0.517862 0
M  V30 844 C 75.3672 -5.09001 -1.63773 0
M  V30 845 C 76.6672 -5.19439 0.545886 0
M  V30 846 H 78.3612 -2.93568 0.588086 0
M  V30 847 H 75.9072 -1.41166 0.284259 0
M  V30 848 H 77.8602 -3.87261 -1.66153 0
M  V30 849 H 76.5842 -2.65377 -1.90375 0
M  V30 850 H 75.2432 -3.6659 -0.0267361 0
M  V30 851 H 74.8912 -4.43031 -2.38185 0
M  V30 852 H 74.5912 -5.74777 -1.22085 0
M  V30 853 H 76.1152 -5.71396 -2.15266 0
M  V30 854 H 77.5292 -5.73177 0.118704 0
M  V30 855 H 75.9262 -5.93566 0.88317 0
M  V30 856 H 76.9962 -4.63285 1.43162 0
M  V30 857 N 78.3393 -0.321999 -1.54275 0
M  V30 858 C 79.2493 0.553631 -2.27974 0
M  V30 859 C 80.2653 1.13054 -1.32268 0
M  V30 860 O 81.4413 1.15084 -1.6528 0
M  V30 861 C 78.5063 1.69927 -3.02201 0
M  V30 862 C 77.5673 1.15433 -4.1349 0
M  V30 863 C 76.8003 2.24537 -4.84168 0
M  V30 864 O 77.0233 3.44852 -4.5435 0
M  V30 865 O 75.9573 1.90044 -5.7111 0
M  V30 866 H 79.7833 -0.0448345 -3.03667 0
M  V30 867 H 77.3683 -0.0877418 -1.49142 0
M  V30 868 H 79.2503 2.3663 -3.48689 0
M  V30 869 H 77.9253 2.28395 -2.29385 0
M  V30 870 H 76.8323 0.452436 -3.71354 0
M  V30 871 H 78.1653 0.614805 -4.88345 0
M  V30 872 N 79.8174 1.5752 -0.0501392 0
M  V30 873 C 80.7474 2.14502 0.922566 0
M  V30 874 C 81.7284 1.06642 1.3252 0
M  V30 875 O 82.9134 1.34577 1.4001 0
M  V30 876 C 80.0434 2.68916 2.19776 0
M  V30 877 C 78.9974 3.8175 1.93523 0
M  V30 878 C 78.3234 4.22677 3.27487 0
M  V30 879 C 79.6234 5.06932 1.25765 0
M  V30 880 H 81.3174 2.9603 0.447952 0
M  V30 881 H 78.8634 1.42401 0.214024 0
M  V30 882 H 80.8164 3.07419 2.88222 0
M  V30 883 H 79.5404 1.84578 2.69441 0
M  V30 884 H 78.1994 3.43718 1.27489 0
M  V30 885 H 77.8474 3.35291 3.74952 0
M  V30 886 H 77.5474 4.98725 3.1072 0
M  V30 887 H 79.0714 4.63779 3.97166 0
M  V30 888 H 80.4854 5.42888 1.84244 0
M  V30 889 H 78.8824 5.88116 1.19328 0
M  V30 890 H 79.9524 4.84337 0.233536 0
M  V30 891 N 81.2955 -0.223234 1.56011 0
M  V30 892 C 82.2055 -1.29766 1.95443 0
M  V30 893 C 83.2215 -1.51373 0.858028 0
M  V30 894 O 84.3975 -1.64536 1.16146 0
M  V30 895 C 81.4625 -2.62772 2.26167 0
M  V30 896 C 80.5235 -2.49482 3.49367 0
M  V30 897 C 79.7565 -3.76145 3.78616 0
M  V30 898 O 79.9795 -4.79087 3.09568 0
M  V30 899 O 78.9135 -3.73358 4.72109 0
M  V30 900 H 82.7395 -0.99309 2.87004 0
M  V30 901 H 80.3245 -0.425958 1.43199 0
M  V30 902 H 82.2065 -3.41327 2.47131 0
M  V30 903 H 80.8815 -2.92913 1.37781 0
M  V30 904 H 79.7885 -1.69133 3.33684 0
M  V30 905 H 81.1215 -2.2428 4.38131 0
M  V30 906 N 82.7736 -1.49793 -0.48987 0
M  V30 907 C 83.7366 -1.66752 -1.57246 0
M  V30 908 C 84.7366 -0.538867 -1.51502 0
M  V30 909 O 85.9266 -0.805545 -1.54456 0
M  V30 910 C 83.0586 -1.67528 -2.96896 0
M  V30 911 H 84.2516 -2.63321 -1.43534 0
M  V30 912 H 81.8046 -1.38992 -0.714914 0
M  V30 913 H 82.5396 -0.725837 -3.16073 0
M  V30 914 H 82.3246 -2.49504 -3.02473 0
M  V30 915 H 83.8146 -1.82667 -3.7553 0
M  V30 916 N 84.2517 0.741722 -1.39055 0
M  V30 917 C 85.6627 1.31966 -1.32068 0
M  V30 918 C 86.0137 1.96192 0.0180797 0
M  V30 919 O 85.1387 1.95861 0.920196 0
M  V30 920 C 85.7337 2.39954 -2.39181 0
M  V30 921 C 84.2927 2.93438 -2.35735 0
M  V30 922 C 83.4397 1.66936 -2.21422 0
M  V30 923 H 86.3907 0.539721 -1.4924 0
M  V30 924 H 86.4117 3.20182 -2.05581 0
M  V30 925 H 85.9237 1.9318 -3.36605 0
M  V30 926 H 84.0247 3.4451 -1.41929 0
M  V30 927 H 84.1377 3.4701 -3.30335 0
M  V30 928 H 82.5017 1.91016 -1.68478 0
M  V30 929 H 83.2847 1.22224 -3.20806 0
M  V30 930 N 85.7298 1.2412 0.971189 0
M  V30 931 C 86.6598 1.05508 2.08304 0
M  V30 932 C 87.6408 -0.0308864 1.70072 0
M  V30 933 O 88.8258 0.135521 1.93727 0
M  V30 934 C 85.9558 0.655365 3.4106 0
M  V30 935 C 84.9098 1.68971 3.93234 0
M  V30 936 C 84.2358 1.14516 5.22293 0
M  V30 937 C 85.5358 3.08487 4.21465 0
M  V30 938 H 87.2298 1.98507 2.24132 0
M  V30 939 H 84.7758 0.955821 1.07704 0
M  V30 940 H 86.7288 0.51217 4.18276 0
M  V30 941 H 85.4528 -0.31032 3.25122 0
M  V30 942 H 84.1118 1.82106 3.18171 0
M  V30 943 H 83.7598 0.170189 5.02712 0
M  V30 944 H 83.4598 1.83635 5.58168 0
M  V30 945 H 84.9838 1.01401 6.02121 0
M  V30 946 H 86.3978 2.98601 4.89398 0
M  V30 947 H 84.7948 3.74926 4.68562 0
M  V30 948 H 85.8648 3.56787 3.28376 0
M  V30 949 N 87.2079 -1.17134 1.05439 0
M  V30 950 C 88.1549 -2.21235 0.657539 0
M  V30 951 C 89.1249 -1.62551 -0.341543 0
M  V30 952 O 90.3099 -1.89379 -0.232393 0
M  V30 953 C 87.4499 -3.45076 0.0410575 0
M  V30 954 C 86.5629 -4.18042 1.08927 0
M  V30 955 C 85.6979 -5.29376 0.439848 0
M  V30 956 C 84.7369 -5.94132 1.4722 0
M  V30 957 N 83.8739 -6.96975 0.846756 0
M  V30 958 H 88.7139 -2.54534 1.54972 0
M  V30 959 H 86.2509 -1.25028 0.775006 0
M  V30 960 H 88.2089 -4.15862 -0.33383 0
M  V30 961 H 86.8389 -3.12353 -0.814568 0
M  V30 962 H 85.8909 -3.45945 1.58196 0
M  V30 963 H 87.2029 -4.62306 1.87282 0
M  V30 964 H 86.3569 -6.06699 0.0115125 0
M  V30 965 H 85.0959 -4.86251 -0.375656 0
M  V30 966 H 84.1009 -5.15538 1.91052 0
M  V30 967 H 85.3259 -6.39337 2.28965 0
M  V30 968 H 83.2719 -6.5598 0.0518075 0
M  V30 969 H 83.1889 -7.39565 1.5678 0
M  V30 970 H 84.4569 -7.78239 0.443277 0
M  V30 971 N 88.686 -0.835752 -1.33615 0
M  V30 972 C 89.935 -0.426289 -1.97144 0
M  V30 973 C 90.248 1.01912 -1.66953 0
M  V30 974 O 91.454 1.53311 -2.24072 0
M  V30 975 C 89.91 -0.711321 -3.52801 0
M  V30 976 C 89.518 -2.1712 -3.91871 0
M  V30 977 C 91.262 -0.368654 -4.22896 0
M  V30 978 C 89.169 -2.40044 -5.40493 0
M  V30 979 H 88.099 -0.15567 -0.737755 0
M  V30 980 H 90.75 -1.0239 -1.52278 0
M  V30 981 H 89.132 -0.0433766 -3.95976 0
M  V30 982 H 90.306 -2.87936 -3.59763 0
M  V30 983 H 88.621 -2.47654 -3.34749 0
M  V30 984 H 91.218 -0.517601 -5.32189 0
M  V30 985 H 91.561 0.688078 -4.10574 0
M  V30 986 H 92.094 -0.991702 -3.8524 0
M  V30 987 H 88.833 -3.44271 -5.57815 0
M  V30 988 H 88.353 -1.73785 -5.74072 0
M  V30 989 H 90.032 -2.23042 -6.0734 0
M  V30 990 N 90.1641 1.46063 -0.591896 0
M  V30 991 C 91.4041 2.04228 -0.0838014 0
M  V30 992 C 91.7681 1.45231 1.25587 0
M  V30 993 O 92.9691 1.94653 1.85375 0
M  V30 994 C 91.2401 3.57389 -0.0286282 0
M  V30 995 S 92.7991 4.3678 0.420557 0
M  V30 996 H 89.6171 0.709762 -0.0419319 0
M  V30 997 H 92.2191 1.78983 -0.786465 0
M  V30 998 H 90.9231 3.97843 -1.00743 0
M  V30 999 H 90.4541 3.87185 0.69652 0
M  V30 1000 H 92.4691 4.67131 1.67341 0
M  V30 1001 N 91.6422 0.330177 1.54103 0
M  V30 1002 C 92.8902 -0.269871 2.0029 0
M  V30 1003 C 93.2112 -1.52133 1.21986 0
M  V30 1004 O 92.4812 -1.93212 0.323438 0
M  V30 1005 H 91.0612 -0.10271 0.739905 0
M  V30 1006 H 93.7232 0.448249 1.89675 0
M  V30 1007 H 92.8192 -0.52166 3.07709 0
M  V30 1008 N 93.1203 -1.57491 0.0584922 0
M  V30 1009 C 94.3973 -1.84346 -0.653918 0
M  V30 1010 C 94.7773 -0.948355 -1.88599 0
M  V30 1011 O 94.1253 -0.0112403 -2.28497 0
M  V30 1012 C 94.3353 -3.34239 -1.00425 0
M  V30 1013 C 95.6833 -4.01431 -1.38342 0
M  V30 1014 O 96.7073 -3.38907 -1.09637 0
M  V30 1015 O 95.5663 -5.11683 -1.91943 0
M  V30 1016 H 92.6603 -0.761112 -0.323478 0
M  V30 1017 H 95.2063 -1.6947 0.0884125 0
M  V30 1018 H 93.9783 -3.91089 -0.128625 0
M  V30 1019 H 93.6013 -3.54329 -1.80378 0
M  V30 1020 N 94.5984 0.214957 -1.56127 0
M  V30 1021 C 95.8474 0.936451 -1.78643 0
M  V30 1022 C 96.1604 1.85237 -0.628229 0
M  V30 1023 O 97.3664 2.613 -0.737186 0
M  V30 1024 C 95.8224 1.7154 -3.16389 0
M  V30 1025 C 95.4304 0.845299 -4.39953 0
M  V30 1026 C 97.1744 2.42772 -3.48227 0
M  V30 1027 C 95.0814 1.62198 -5.68723 0
M  V30 1028 H 94.0114 0.353401 -0.666051 0
M  V30 1029 H 96.6624 0.190169 -1.82512 0
M  V30 1030 H 95.0444 2.50484 -3.06715 0
M  V30 1031 H 96.2184 0.0959353 -4.607 0
M  V30 1032 H 94.5334 0.244789 -4.1568 0
M  V30 1033 H 97.1304 3.01394 -4.41663 0
M  V30 1034 H 97.4734 3.15984 -2.71035 0
M  V30 1035 H 98.0064 1.70813 -3.5926 0
M  V30 1036 H 94.7454 0.933011 -6.48826 0
M  V30 1037 H 94.2654 2.34579 -5.52026 0
M  V30 1038 H 95.9444 2.18095 -6.09133 0
M  V30 1039 N 96.0765 1.50051 0.48192 0
M  V30 1040 C 97.0265 1.64512 1.5786 0
M  V30 1041 C 98.0105 0.500073 1.52932 0
M  V30 1042 O 99.2025 0.753964 1.60139 0
M  V30 1043 C 96.3315 1.73263 2.9637 0
M  V30 1044 C 95.4175 2.93409 3.06222 0
M  V30 1045 N 95.8085 4.17236 2.85915 0
M  V30 1046 C 94.1065 2.91742 3.37346 0
M  V30 1047 C 94.8075 4.981 3.00451 0
M  V30 1048 N 93.7835 4.3184 3.30174 0
M  V30 1049 H 97.5855 2.57955 1.40842 0
M  V30 1050 H 95.0995 1.47086 0.688439 0
M  V30 1051 H 97.0965 1.81724 3.75209 0
M  V30 1052 H 95.7565 0.809711 3.14442 0
M  V30 1053 H 96.7675 4.46909 2.6171 0
M  V30 1054 H 93.4445 2.08907 3.61475 0
M  V30 1055 H 94.8345 6.06532 2.89082 0
M  V30 1056 N 97.5546 -0.734337 1.39446 0
M  V30 1057 C 98.8026 -1.49096 1.36436 0
M  V30 1058 C 99.1236 -1.94961 -0.0388255 0
M  V30 1059 O 98.3936 -1.69033 -0.990191 0
M  V30 1060 H 96.9736 -0.5531 0.502085 0
M  V30 1061 H 99.6356 -0.871725 1.74319 0
M  V30 1062 H 98.7316 -2.37276 2.02747 0
M  V30 1063 N 99.0327 -1.24633 -0.964593 0
M  V30 1064 C 99.9647 -0.999302 -2.06268 0
M  V30 1065 C 100.978 0.0323226 -1.62768 0
M  V30 1066 O 102.167 -0.205079 -1.77318 0
M  V30 1067 C 99.2667 -0.486816 -3.35385 0
M  V30 1068 C 98.4397 -1.5823 -4.07777 0
M  V30 1069 C 97.4987 -1.07191 -5.15166 0
M  V30 1070 O 96.5247 -1.76426 -5.41168 0
M  V30 1071 N 97.7267 0.0920373 -5.80427 0
M  V30 1072 H 100.492 -1.94477 -2.28033 0
M  V30 1073 H 98.0527 -1.15704 -1.13244 0
M  V30 1074 H 100.045 -0.130066 -4.04491 0
M  V30 1075 H 98.6147 0.364459 -3.10468 0
M  V30 1076 H 97.8347 -2.11109 -3.32906 0
M  V30 1077 H 99.1227 -2.31854 -4.52903 0
M  V30 1078 H 98.5207 0.670784 -5.61709 0
M  V30 1079 H 97.0777 0.389905 -6.50633 0
M  V30 1080 N 100.511 1.16574 -1.06058 0
M  V30 1081 C 101.741 1.90675 -0.795397 0
M  V30 1082 C 102.149 1.77547 0.653735 0
M  V30 1083 O 101.492 1.11611 1.45907 0
M  V30 1084 C 101.554 3.42011 -1.10764 0
M  V30 1085 C 101.218 3.78924 -2.55471 0
M  V30 1086 C 102.215 3.81042 -3.53699 0
M  V30 1087 C 99.8998 4.09626 -2.90708 0
M  V30 1088 C 101.894 4.13346 -4.85205 0
M  V30 1089 C 99.5808 4.41597 -4.22416 0
M  V30 1090 C 100.579 4.43436 -5.19474 0
M  V30 1091 O 100.267 4.74649 -6.48817 0
M  V30 1092 H 99.9988 0.611554 -0.288058 0
M  V30 1093 H 102.553 1.48711 -1.41683 0
M  V30 1094 H 100.783 3.84312 -0.429128 0
M  V30 1095 H 102.472 3.97384 -0.827077 0
M  V30 1096 H 103.238 3.57437 -3.27817 0
M  V30 1097 H 99.1168 4.07361 -2.15819 0
M  V30 1098 H 102.661 4.14696 -5.60957 0
M  V30 1099 H 98.5578 4.64667 -4.48056 0
M  V30 1100 H 99.3258 4.9247 -6.5377 0
M  V30 1101 N 101.989 0.842826 1.3317 0
M  V30 1102 C 103.219 0.453397 2.01564 0
M  V30 1103 C 103.627 -0.951147 1.63554 0
M  V30 1104 O 102.97 -1.63021 0.846746 0
M  V30 1105 C 103.032 0.499013 3.5602 0
M  V30 1106 C 102.696 1.86037 4.1742 0
M  V30 1107 C 103.693 2.82416 4.36506 0
M  V30 1108 C 101.378 2.15428 4.53757 0
M  V30 1109 C 103.372 4.06346 4.91082 0
M  V30 1110 C 101.059 3.39615 5.0804 0
M  V30 1111 C 102.057 4.3489 5.26649 0
M  V30 1112 O 101.745 5.5688 5.79776 0
M  V30 1113 H 101.477 0.177871 0.652179 0
M  V30 1114 H 104.031 1.13808 1.70988 0
M  V30 1115 H 102.261 -0.242467 3.85939 0
M  V30 1116 H 103.95 0.126852 4.05702 0
M  V30 1117 H 104.716 2.6101 4.08777 0
M  V30 1118 H 100.595 1.42061 4.38565 0
M  V30 1119 H 104.139 4.80722 5.05522 0
M  V30 1120 H 100.036 3.60876 5.352 0
M  V30 1121 H 100.804 5.58674 5.98185 0
M  V30 1122 N 103.467 -1.45747 0.599634 0
M  V30 1123 C 104.744 -1.95585 0.0240846 0
M  V30 1124 C 105.124 -1.54217 -1.44154 0
M  V30 1125 O 104.472 -0.800903 -2.14004 0
M  V30 1126 C 104.682 -3.48344 0.21385 0
M  V30 1127 C 106.03 -4.24504 0.0904902 0
M  V30 1128 O 107.054 -3.55911 0.143558 0
M  V30 1129 O 105.913 -5.46491 -0.0310766 0
M  V30 1130 H 103.007 -0.82602 -0.0402478 0
M  V30 1131 H 105.553 -1.55951 0.669139 0
M  V30 1132 H 104.325 -3.71397 1.23206 0
M  V30 1133 H 103.948 -3.9485 -0.466842 0
M  V30 1134 N 104.945 -0.338344 -1.53925 0
M  V30 1135 C 105.875 0.51328 -2.27789 0
M  V30 1136 C 106.856 1.107 -1.29149 0
M  V30 1137 O 108.041 1.12937 -1.57984 0
M  V30 1138 C 105.171 1.66697 -3.04679 0
M  V30 1139 C 104.125 1.20183 -4.1078 0
M  V30 1140 C 103.451 2.44363 -4.75595 0
M  V30 1141 C 104.751 0.30605 -5.21403 0
M  V30 1142 H 106.445 -0.102883 -2.99223 0
M  V30 1143 H 103.991 -0.0509219 -1.4391 0
M  V30 1144 H 105.944 2.26915 -3.55088 0
M  V30 1145 H 104.668 2.30995 -2.30887 0
M  V30 1146 H 103.327 0.622499 -3.61276 0
M  V30 1147 H 102.975 3.07057 -3.98403 0
M  V30 1148 H 102.675 2.13925 -5.47275 0
M  V30 1149 H 104.199 3.05317 -5.28786 0
M  V30 1150 H 105.613 0.814929 -5.67478 0
M  V30 1151 H 104.01 0.0937929 -6.00027 0
M  V30 1152 H 105.08 -0.65921 -4.80398 0
M  V30 1153 N 106.423 1.57458 -0.0668435 0
M  V30 1154 C 107.353 2.15468 0.899764 0
M  V30 1155 C 108.334 1.08042 1.31381 0
M  V30 1156 O 109.519 1.36054 1.38574 0
M  V30 1157 C 106.649 2.71232 2.16911 0
M  V30 1158 C 105.603 3.83781 1.89463 0
M  V30 1159 C 104.929 4.26127 3.22986 0
M  V30 1160 C 106.229 5.08238 1.20381 0
M  V30 1161 H 107.923 2.96488 0.416529 0
M  V30 1162 H 105.469 1.4262 0.198908 0
M  V30 1163 H 107.422 3.10458 2.84945 0
M  V30 1164 H 106.146 1.87426 2.67468 0
M  V30 1165 H 104.805 3.45051 1.23836 0
M  V30 1166 H 104.453 3.39249 3.71374 0
M  V30 1167 H 104.153 5.01993 3.05413 0
M  V30 1168 H 105.677 4.67966 3.92225 0
M  V30 1169 H 107.091 5.44811 1.78475 0
M  V30 1170 H 105.488 5.89349 1.13083 0
M  V30 1171 H 106.558 4.84558 0.182153 0
M  V30 1172 N 107.901 -0.206675 1.56239 0
M  V30 1173 C 109.317 -0.557025 1.49564 0
M  V30 1174 C 109.517 -1.86424 0.764735 0
M  V30 1175 O 108.573 -2.50584 0.310491 0
M  V30 1176 C 109.886 -0.622478 2.94186 0
M  V30 1177 C 111.434 -0.712099 3.04792 0
M  V30 1178 C 111.909 -0.808767 4.50803 0
M  V30 1179 N 113.4 -0.8726 4.54907 0
M  V30 1180 C 114.135 -0.967365 5.65181 0
M  V30 1181 N 113.631 -1.02515 6.85173 0
M  V30 1182 N 115.424 -1.00366 5.53067 0
M  V30 1183 H 107.575 0.650943 2.02179 0
M  V30 1184 H 109.838 0.230387 0.919579 0
M  V30 1185 H 109.544 0.268727 3.50672 0
M  V30 1186 H 109.418 -1.4811 3.46905 0
M  V30 1187 H 111.805 -1.59374 2.48363 0
M  V30 1188 H 111.886 0.172489 2.55218 0
M  V30 1189 H 111.53 0.0684754 5.07854 0
M  V30 1190 H 111.46 -1.70899 4.98098 0
M  V30 1191 H 113.951 -0.837657 3.68499 0
M  V30 1192 H 114.264 -1.09765 7.64965 0
M  V30 1193 H 112.609 -0.994026 6.87855 0
M  V30 1194 H 115.8 -0.95527 4.58249 0
M  V30 1195 H 115.973 -1.07405 6.39037 0
M  V30 1196 N 109.379 -1.50304 -0.473955 0
M  V30 1197 C 110.309 -1.71886 -1.58042 0
M  V30 1198 C 111.29 -0.567799 -1.60344 0
M  V30 1199 O 112.475 -0.806623 -1.76656 0
M  V30 1200 C 109.605 -1.81036 -2.96384 0
M  V30 1201 C 108.559 -2.962 -3.08949 0
M  V30 1202 C 107.885 -2.9049 -4.48909 0
M  V30 1203 C 109.185 -4.36752 -2.86434 0
M  V30 1204 H 110.879 -2.64527 -1.40234 0
M  V30 1205 H 108.425 -1.27295 -0.673201 0
M  V30 1206 H 110.378 -1.94719 -3.73714 0
M  V30 1207 H 109.102 -0.850147 -3.15341 0
M  V30 1208 H 107.761 -2.82164 -2.3405 0
M  V30 1209 H 107.409 -1.92321 -4.64781 0
M  V30 1210 H 107.109 -3.67802 -4.58253 0
M  V30 1211 H 108.633 -3.06218 -5.28264 0
M  V30 1212 H 110.047 -4.5133 -3.53517 0
M  V30 1213 H 108.444 -5.15493 -3.07225 0
M  V30 1214 H 109.514 -4.49321 -1.82316 0
M  V30 1215 N 110.857 0.726932 -1.39834 0
M  V30 1216 C 112.104 1.48664 -1.37496 0
M  V30 1217 C 112.432 1.94482 0.0264678 0
M  V30 1218 O 111.687 1.67692 1.00886 0
M  V30 1219 C 111.986 2.73495 -2.30077 0
M  V30 1220 C 111.652 2.46502 -3.77555 0
M  V30 1221 C 110.314 2.3885 -4.17737 0
M  V30 1222 C 112.666 2.23604 -4.70798 0
M  V30 1223 C 109.994 2.06352 -5.49214 0
M  V30 1224 C 112.346 1.92622 -6.02561 0
M  V30 1225 C 111.01 1.83444 -6.41798 0
M  V30 1226 H 110.28 0.544001 -0.503135 0
M  V30 1227 H 112.927 0.833657 -1.72402 0
M  V30 1228 H 111.232 3.43575 -1.88317 0
M  V30 1229 H 112.929 3.31549 -2.25558 0
M  V30 1230 H 109.519 2.5334 -3.45712 0
M  V30 1231 H 113.703 2.28479 -4.40581 0
M  V30 1232 H 108.959 1.97776 -5.78528 0
M  V30 1233 H 113.133 1.73914 -6.74334 0
M  V30 1234 H 110.76 1.58029 -7.43593 0
M  V30 1235 N 112.336 1.25143 0.95797 0
M  V30 1236 C 113.246 1.06968 2.08794 0
M  V30 1237 C 114.262 0.00773911 1.73998 0
M  V30 1238 O 115.438 0.207972 2.00323 0
M  V30 1239 C 112.503 0.68691 3.39827 0
M  V30 1240 C 111.564 1.82641 3.88511 0
M  V30 1241 C 110.797 1.46181 5.1329 0
M  V30 1242 O 111.02 0.355971 5.69288 0
M  V30 1243 O 109.954 2.29085 5.566 0
M  V30 1244 H 113.78 2.01723 2.27027 0
M  V30 1245 H 111.365 1.04051 1.07209 0
M  V30 1246 H 113.247 0.485417 4.18595 0
M  V30 1247 H 111.922 -0.231417 3.22872 0
M  V30 1248 H 110.829 2.08274 3.10762 0
M  V30 1249 H 112.162 2.72386 4.09959 0
M  V30 1250 N 113.814 -1.1601 1.06675 0
M  V30 1251 C 115.044 -1.90251 0.805497 0
M  V30 1252 C 115.452 -1.77891 -0.64431 0
M  V30 1253 O 114.795 -1.12383 -1.45313 0
M  V30 1254 C 114.857 -3.41419 1.12576 0
M  V30 1255 C 114.521 -3.77564 2.57477 0
M  V30 1256 C 115.518 -3.79161 3.55715 0
M  V30 1257 C 113.203 -4.08079 2.92877 0
M  V30 1258 C 115.197 -4.10767 4.8739 0
M  V30 1259 C 112.884 -4.39351 4.24751 0
M  V30 1260 C 113.882 -4.40675 5.21818 0
M  V30 1261 O 113.57 -4.71202 6.51325 0
M  V30 1262 H 113.302 -0.610018 0.291297 0
M  V30 1263 H 115.856 -1.47958 1.4247 0
M  V30 1264 H 114.086 -3.84079 0.449503 0
M  V30 1265 H 115.775 -3.9694 0.84814 0
M  V30 1266 H 116.541 -3.55693 3.29708 0
M  V30 1267 H 112.42 -4.06211 2.17976 0
M  V30 1268 H 115.964 -4.11715 5.63148 0
M  V30 1269 H 111.861 -4.62285 4.50514 0
M  V30 1270 H 112.629 -4.88996 6.56373 0
M  V30 1271 N 115.292 -0.849877 -1.32721 0
M  V30 1272 C 116.54 -0.450032 -1.97026 0
M  V30 1273 C 116.861 0.996604 -1.67609 0
M  V30 1274 O 116.131 1.6958 -0.980786 0
M  V30 1275 H 114.711 -0.163426 -0.728904 0
M  V30 1276 H 117.373 -1.08526 -1.6189 0
M  V30 1277 H 116.469 -0.591146 -3.0645 0
M  V30 1278 N 116.77 1.45427 -0.607355 0
M  V30 1279 C 118.018 2.01841 -0.102253 0
M  V30 1280 C 118.339 1.47832 1.27164 0
M  V30 1281 O 117.609 0.672497 1.83995 0
M  V30 1282 H 116.189 0.746188 -0.0348101 0
M  V30 1283 H 118.851 1.78229 -0.7887 0
M  V30 1284 H 117.947 3.12057 -0.0518585 0
M  V30 1285 N 118.248 0.346503 1.53744 0
M  V30 1286 C 119.495 -0.249104 2.00962 0
M  V30 1287 C 119.823 -1.5032 1.23426 0
M  V30 1288 O 119.078 -1.93217 0.310761 0
M  V30 1289 C 119.377 -0.605809 3.52228 0
M  V30 1290 C 119.043 0.551747 4.47512 0
M  V30 1291 C 117.705 0.86941 4.73281 0
M  V30 1292 C 120.057 1.32818 5.03993 0
M  V30 1293 C 117.385 1.96582 5.52786 0
M  V30 1294 C 119.737 2.41486 5.84694 0
M  V30 1295 C 118.401 2.73808 6.08757 0
M  V30 1296 H 117.671 -0.0911538 0.735372 0
M  V30 1297 H 120.318 0.475027 1.85515 0
M  V30 1298 H 118.623 -1.4107 3.65522 0
M  V30 1299 H 120.32 -1.07858 3.86222 0
M  V30 1300 H 116.91 0.294102 4.2759 0
M  V30 1301 H 121.094 1.09602 4.84047 0
M  V30 1302 H 116.35 2.22045 5.69654 0
M  V30 1303 H 120.524 3.02078 6.27473 0
M  V30 1304 H 118.151 3.58892 6.7015 0
M  V30 1305 N 119.726 -1.57421 0.075193 0
M  V30 1306 C 121.137 -1.81021 -0.456964 0
M  V30 1307 C 121.488 -0.98936 -1.69429 0
M  V30 1308 O 120.613 -0.212865 -2.15351 0
M  V30 1309 C 121.208 -3.28329 -0.83581 0
M  V30 1310 C 119.767 -3.52764 -1.31281 0
M  V30 1311 C 118.914 -2.75676 -0.299648 0
M  V30 1312 H 121.865 -1.55822 0.300856 0
M  V30 1313 H 121.886 -3.40564 -1.69696 0
M  V30 1314 H 121.398 -3.88046 0.0649238 0
M  V30 1315 H 119.499 -2.98355 -2.23193 0
M  V30 1316 H 119.612 -4.61451 -1.28839 0
M  V30 1317 H 117.976 -2.42538 -0.777641 0
M  V30 1318 H 118.759 -3.38132 0.593417 0
M  V30 1319 N 121.204 0.198386 -1.56346 0
M  V30 1320 C 122.615 0.763358 -1.70381 0
M  V30 1321 C 122.966 1.83995 -0.681203 0
M  V30 1322 O 122.091 2.15785 0.16305 0
M  V30 1323 C 122.686 1.39143 -3.08909 0
M  V30 1324 C 121.245 1.90352 -3.2472 0
M  V30 1325 C 120.392 0.772233 -2.6633 0
M  V30 1326 H 123.343 -0.0266377 -1.58678 0
M  V30 1327 H 123.364 2.26076 -3.06055 0
M  V30 1328 H 122.876 0.607638 -3.83314 0
M  V30 1329 H 120.977 2.71461 -2.55225 0
M  V30 1330 H 121.09 2.06757 -4.3219 0
M  V30 1331 H 119.454 1.18566 -2.2542 0
M  V30 1332 H 120.237 0.00073556 -3.433 0
M  V30 1333 N 122.682 1.50554 0.465978 0
M  V30 1334 C 123.592 1.72585 1.58907 0
M  V30 1335 C 124.608 0.60911 1.6299 0
M  V30 1336 O 125.784 0.88804 1.80765 0
M  V30 1337 C 122.849 1.81995 2.95091 0
M  V30 1338 C 121.91 3.05751 3.01355 0
M  V30 1339 C 121.143 3.14702 4.31043 0
M  V30 1340 O 121.366 2.30313 5.21835 0
M  V30 1341 O 120.3 4.07468 4.43005 0
M  V30 1342 H 124.126 2.67799 1.43239 0
M  V30 1343 H 121.711 1.34711 0.646013 0
M  V30 1344 H 123.593 1.90335 3.75966 0
M  V30 1345 H 122.268 0.899659 3.10947 0
M  V30 1346 H 121.175 3.02908 2.19539 0
M  V30 1347 H 122.508 3.97375 2.90437 0
M  V30 1348 N 124.16 -0.719506 1.40217 0
M  V30 1349 C 125.385 -1.51371 1.4178 0
M  V30 1350 C 125.81 -1.88091 0.0182355 0
M  V30 1351 O 125.168 -1.52997 -0.972707 0
M  V30 1352 C 125.216 -2.768 2.31115 0
M  V30 1353 O 124.32 -3.73349 1.7517 0
M  V30 1354 H 123.661 -0.456529 0.482159 0
M  V30 1355 H 126.191 -0.88644 1.844 0
M  V30 1356 H 126.201 -3.25371 2.46167 0
M  V30 1357 H 124.876 -2.49407 3.3282 0
M  V30 1358 H 123.453 -3.32179 1.69444 0
M  V30 1359 N 125.638 -1.25649 -0.95132 0
M  V30 1360 C 126.586 -1.06118 -2.06982 0
M  V30 1361 C 127.58 0.00889169 -1.69398 0
M  V30 1362 O 128.786 -0.146988 -1.79399 0
M  V30 1363 H 125.161 -0.326248 -0.677544 0
M  V30 1364 H 127.132 -2.00932 -2.2061 0
M  V30 1365 C 125.881 -0.700145 -3.40578 0
M  V30 1366 H 125.204 -1.51537 -3.69968 0
M  V30 1367 H 126.644 -0.603211 -4.19687 0
M  V30 1368 C 125.103 0.59403 -3.31622 0
M  V30 1369 O 125.633 1.63522 -3.66911 0
M  V30 1370 N 123.839 0.58089 -2.84735 0
M  V30 1371 H 123.386 -0.266783 -2.56215 0
M  V30 1372 H 123.344 1.44695 -2.79125 0
M  V30 1373 N 127.117 1.15442 -1.07289 0
M  V30 1374 C 128.347 1.89821 -0.815576 0
M  V30 1375 C 128.755 1.7823 0.634867 0
M  V30 1376 O 128.098 1.13152 1.44715 0
M  V30 1377 C 128.16 3.40817 -1.14385 0
M  V30 1378 C 127.824 3.76193 -2.59476 0
M  V30 1379 C 128.821 3.77269 -3.57721 0
M  V30 1380 C 126.506 4.0652 -2.95037 0
M  V30 1381 C 128.5 4.08176 -4.89562 0
M  V30 1382 C 126.187 4.37092 -4.27076 0
M  V30 1383 C 127.185 4.37902 -5.24148 0
M  V30 1384 O 126.873 4.67741 -6.53815 0
M  V30 1385 H 126.605 0.608465 -0.294528 0
M  V30 1386 H 129.159 1.472 -1.43252 0
M  V30 1387 H 127.389 3.83835 -0.469865 0
M  V30 1388 H 129.078 3.96485 -0.869179 0
M  V30 1389 H 129.844 3.5394 -3.3159 0
M  V30 1390 H 125.723 4.05049 -2.20128 0
M  V30 1391 H 129.267 4.08723 -5.65324 0
M  V30 1392 H 125.164 4.59889 -4.5296 0
M  V30 1393 H 125.932 4.85509 -6.58957 0
M  V30 1394 N 128.595 0.856903 1.32268 0
M  V30 1395 C 129.525 0.31858 2.31316 0
M  V30 1396 C 130.506 -0.583487 1.59779 0
M  V30 1397 O 131.691 -0.503259 1.87566 0
M  V30 1398 C 128.821 -0.491979 3.43798 0
M  V30 1399 C 127.775 0.315849 4.26833 0
M  V30 1400 C 127.101 -0.619586 5.31098 0
M  V30 1401 C 128.401 1.54282 4.98993 0
M  V30 1402 H 130.095 1.14621 2.76591 0
M  V30 1403 H 127.641 0.552613 1.32974 0
M  V30 1404 H 129.594 -0.879012 4.1213 0
M  V30 1405 H 128.318 -1.35299 2.97257 0
M  V30 1406 H 126.977 0.684664 3.6015 0
M  V30 1407 H 126.625 -1.47751 4.8081 0
M  V30 1408 H 126.325 -0.0830621 5.87541 0
M  V30 1409 H 127.849 -1.00375 6.02293 0
M  V30 1410 H 129.263 1.22796 5.59995 0
M  V30 1411 H 127.66 2.01745 5.65172 0
M  V30 1412 H 128.73 2.30285 4.26728 0
M  V30 1413 N 130.073 -1.45103 0.615059 0
M  V30 1414 C 131.32 -2.02183 0.113179 0
M  V30 1415 C 131.648 -1.48249 -1.25906 0
M  V30 1416 O 130.903 -0.650265 -1.84581 0
M  V30 1417 C 131.202 -3.57386 0.0318797 0
M  V30 1418 C 130.868 -4.30505 1.34077 0
M  V30 1419 C 129.53 -4.50197 1.69929 0
M  V30 1420 C 131.882 -4.72238 2.20546 0
M  V30 1421 C 129.21 -5.08881 2.91988 0
M  V30 1422 C 131.562 -5.32272 3.41861 0
M  V30 1423 C 130.226 -5.50187 3.77956 0
M  V30 1424 H 129.496 -0.739842 0.0414151 0
M  V30 1425 H 132.143 -1.74073 0.798168 0
M  V30 1426 H 130.448 -3.84817 -0.736409 0
M  V30 1427 H 132.145 -3.99264 -0.372712 0
M  V30 1428 H 128.735 -4.15496 1.05173 0
M  V30 1429 H 132.919 -4.56751 1.94146 0
M  V30 1430 H 128.175 -5.20939 3.2005 0
M  V30 1431 H 132.349 -5.63563 4.09109 0
M  V30 1432 H 129.976 -5.95427 4.72622 0
M  V30 1433 N 131.551 -0.354651 -1.53558 0
M  V30 1434 C 132.481 0.489091 -2.2832 0
M  V30 1435 C 133.462 1.09324 -1.30316 0
M  V30 1436 O 134.647 1.11255 -1.59173 0
M  V30 1437 C 131.777 1.63456 -3.0643 0
M  V30 1438 C 130.731 1.1582 -4.12031 0
M  V30 1439 C 130.057 2.39305 -4.7816 0
M  V30 1440 C 131.357 0.250731 -5.21698 0
M  V30 1441 H 133.051 -0.134614 -2.99097 0
M  V30 1442 H 130.597 -0.0661826 -1.43848 0
M  V30 1443 H 132.55 2.23136 -3.57475 0
M  V30 1444 H 131.274 2.28533 -2.33325 0
M  V30 1445 H 129.933 0.584146 -3.61916 0
M  V30 1446 H 129.581 3.02814 -4.01637 0
M  V30 1447 H 129.281 2.08109 -5.49513 0
M  V30 1448 H 130.805 2.99691 -5.31994 0
M  V30 1449 H 132.219 0.754695 -5.68311 0
M  V30 1450 H 130.616 0.0301468 -6.00092 0
M  V30 1451 H 131.686 -0.710125 -4.79672 0
M  V30 1452 N 133.029 1.57378 -0.0835403 0
M  V30 1453 C 134.277 1.93547 0.581718 0
M  V30 1454 C 134.598 0.96524 1.69435 0
M  V30 1455 O 133.868 0.0153369 1.95894 0
M  V30 1456 H 132.448 0.714521 0.217874 0
M  V30 1457 H 135.11 1.94366 -0.144158 0
M  V30 1458 H 134.206 2.95665 0.999423 0
M  V30 1459 N 134.507 -0.190092 1.56449 0
M  V30 1460 C 135.784 -0.935886 1.71757 0
M  V30 1461 C 136.164 -2.01173 0.639726 0
M  V30 1462 O 135.512 -2.25827 -0.348502 0
M  V30 1463 C 135.722 -1.51775 3.1427 0
M  V30 1464 C 137.07 -1.99794 3.74656 0
M  V30 1465 O 138.094 -1.61607 3.1743 0
M  V30 1466 O 136.953 -2.70079 4.751 0
M  V30 1467 H 134.047 -0.439229 0.700719 0
M  V30 1468 H 136.593 -0.179395 1.68749 0
M  V30 1469 H 135.365 -0.742505 3.84191 0
M  V30 1470 H 134.988 -2.33894 3.21527 0
M  V30 1471 N 135.985 -1.50799 -0.457987 0
M  V30 1472 C 137.215 -1.65977 -1.23025 0
M  V30 1473 C 137.623 -0.347918 -1.85974 0
M  V30 1474 O 136.966 0.68148 -1.70592 0
M  V30 1475 C 137.028 -2.70309 -2.3701 0
M  V30 1476 C 136.692 -4.135 -1.94594 0
M  V30 1477 C 137.689 -4.98949 -1.46101 0
M  V30 1478 C 135.374 -4.5949 -2.02915 0
M  V30 1479 C 137.368 -6.28442 -1.06489 0
M  V30 1480 C 135.055 -5.88984 -1.62914 0
M  V30 1481 C 136.053 -6.73286 -1.1478 0
M  V30 1482 O 135.741 -8.00362 -0.75339 0
M  V30 1483 H 135.473 -0.56064 -0.377702 0
M  V30 1484 H 138.027 -1.97857 -0.551537 0
M  V30 1485 H 136.257 -2.337 -3.08093 0
M  V30 1486 H 137.946 -2.74574 -2.98938 0
M  V30 1487 H 138.712 -4.6463 -1.39084 0
M  V30 1488 H 134.591 -3.94009 -2.39328 0
M  V30 1489 H 138.135 -6.94194 -0.688488 0
M  V30 1490 H 134.032 -6.22822 -1.69595 0
M  V30 1491 H 134.8 -8.13744 -0.88108 0
M  V30 1492 N 137.463 0.71206 -1.40597 0
M  V30 1493 C 138.709 1.47416 -1.39271 0
M  V30 1494 C 139.042 1.942 0.00388791 0
M  V30 1495 O 138.317 1.68403 0.973179 0
M  V30 1496 C 138.6 2.69774 -2.38525 0
M  V30 1497 C 138.453 2.28861 -3.87224 0
M  V30 1498 C 139.772 3.71939 -2.35264 0
M  V30 1499 H 136.891 0.534713 -0.5072 0
M  V30 1500 H 139.533 0.812375 -1.71757 0
M  V30 1501 H 137.683 3.26238 -2.10953 0
M  V30 1502 H 139.355 1.77852 -4.25636 0
M  V30 1503 H 137.598 1.60824 -4.02887 0
M  V30 1504 H 138.269 3.16584 -4.52193 0
M  V30 1505 H 140.745 3.25113 -2.59694 0
M  V30 1506 H 139.621 4.55186 -3.06753 0
M  V30 1507 H 139.882 4.20484 -1.36549 0
M  V30 1508 N 138.941 1.26152 0.944643 0
M  V30 1509 C 140.218 1.02247 1.66748 0
M  V30 1510 C 140.598 -0.448202 2.06287 0
M  V30 1511 O 139.946 -1.42779 1.78399 0
M  V30 1512 C 140.156 1.96788 2.88228 0
M  V30 1513 C 141.504 2.25201 3.59958 0
M  V30 1514 O 142.528 1.94626 2.98327 0
M  V30 1515 O 141.387 2.77242 4.70956 0
M  V30 1516 H 138.481 0.388517 0.730057 0
M  V30 1517 H 141.027 1.37348 0.99668 0
M  V30 1518 H 139.799 2.96047 2.55875 0
M  V30 1519 H 139.422 1.62145 3.63035 0
M  V30 1520 N 140.419 -1.14872 1.07899 0
M  V30 1521 C 141.835 -1.37776 0.805606 0
M  V30 1522 C 142.035 -1.92743 -0.587555 0
M  V30 1523 O 141.091 -2.13678 -1.34528 0
M  V30 1524 C 142.404 -2.34361 1.88402 0
M  V30 1525 C 143.952 -2.48012 1.90942 0
M  V30 1526 C 144.427 -3.47893 2.97883 0
M  V30 1527 N 145.918 -3.55433 2.97021 0
M  V30 1528 C 146.653 -4.32553 3.76412 0
M  V30 1529 N 146.149 -5.12959 4.65666 0
M  V30 1530 N 147.942 -4.27697 3.64735 0
M  V30 1531 H 140.093 -0.775365 1.97742 0
M  V30 1532 H 142.356 -0.403521 0.857831 0
M  V30 1533 H 142.062 -2.01098 2.88535 0
M  V30 1534 H 141.936 -3.34206 1.74889 0
M  V30 1535 H 144.323 -2.8057 0.914579 0
M  V30 1536 H 144.404 -1.48147 2.08534 0
M  V30 1537 H 144.048 -3.16069 3.97571 0
M  V30 1538 H 143.978 -4.47527 2.77538 0
M  V30 1539 H 146.469 -2.98048 2.32326 0
M  V30 1540 H 146.782 -5.69065 5.22862 0
M  V30 1541 H 145.127 -5.12245 4.69712 0
M  V30 1542 H 148.318 -3.63949 2.94378 0
M  V30 1543 H 148.491 -4.8755 4.26848 0
M  V30 1544 N 141.898 -0.863906 -1.31812 0
M  V30 1545 C 143.146 -0.470904 -1.96537 0
M  V30 1546 C 143.467 0.978771 -1.68657 0
M  V30 1547 O 142.737 1.6853 -0.998717 0
M  V30 1548 H 141.317 -0.171148 -0.72713 0
M  V30 1549 H 143.979 -1.10236 -1.60729 0
M  V30 1550 H 143.075 -0.623616 -3.05806 0
M  V30 1551 N 143.376 1.44774 -0.622745 0
M  V30 1552 C 144.323 2.30635 0.0871679 0
M  V30 1553 C 145.293 1.42994 0.845097 0
M  V30 1554 O 146.478 1.71907 0.827812 0
M  V30 1555 C 143.618 3.28144 1.06844 0
M  V30 1556 C 142.731 4.30888 0.309809 0
M  V30 1557 C 141.866 5.15494 1.28215 0
M  V30 1558 C 140.905 6.09953 0.512198 0
M  V30 1559 N 140.042 6.87287 1.43458 0
M  V30 1560 H 144.882 2.90803 -0.650974 0
M  V30 1561 H 142.419 1.43286 -0.33281 0
M  V30 1562 H 144.377 3.83157 1.65066 0
M  V30 1563 H 143.007 2.69695 1.77382 0
M  V30 1564 H 142.059 3.78414 -0.388181 0
M  V30 1565 H 143.371 4.97955 -0.290254 0
M  V30 1566 H 142.525 5.74983 1.93596 0
M  V30 1567 H 141.264 4.48481 1.91614 0
M  V30 1568 H 140.269 5.49581 -0.155151 0
M  V30 1569 H 141.494 6.78999 -0.116958 0
M  V30 1570 H 139.44 6.2295 2.05594 0
M  V30 1571 H 139.357 7.50763 0.888335 0
M  V30 1572 H 140.625 7.51306 2.07749 0
M  V30 1573 N 144.854 0.36279 1.53368 0
M  V30 1574 C 145.786 -0.519668 2.23231 0
M  V30 1575 C 146.799 -1.04844 1.24546 0
M  V30 1576 O 147.988 -0.955296 1.50786 0
M  V30 1577 C 145.088 -1.72995 2.9142 0
M  V30 1578 C 144.261 -1.33316 4.16588 0
M  V30 1579 C 143.32 -2.40521 4.68013 0
M  V30 1580 O 142.346 -2.03027 5.3176 0
M  V30 1581 N 143.548 -3.72065 4.45587 0
M  V30 1582 H 146.313 0.078751 2.99597 0
M  V30 1583 H 143.874 0.187833 1.60807 0
M  V30 1584 H 145.866 -2.44184 3.22733 0
M  V30 1585 H 144.436 -2.2353 2.18525 0
M  V30 1586 H 143.656 -0.451236 3.91609 0
M  V30 1587 H 144.944 -1.04432 4.97967 0
M  V30 1588 H 144.342 -4.05304 3.94646 0
M  V30 1589 H 142.899 -4.39366 4.81457 0
M  V30 1590 N 146.332 -1.57332 0.0918853 0
M  V30 1591 C 147.557 -1.98995 -0.584442 0
M  V30 1592 C 147.982 -0.970528 -1.61128 0
M  V30 1593 O 147.34 0.0613904 -1.81196 0
M  V30 1594 C 147.388 -3.39636 -1.21161 0
M  V30 1595 O 146.492 -3.40447 -2.32744 0
M  V30 1596 H 145.833 -0.647165 -0.148572 0
M  V30 1597 H 148.363 -2.03873 0.172347 0
M  V30 1598 H 148.373 -3.7726 -1.55367 0
M  V30 1599 H 147.048 -4.13356 -0.459313 0
M  V30 1600 H 145.625 -3.14614 -2.0018 0
M  V30 1601 N 147.81 0.181792 -1.56548 0
M  V30 1602 C 148.74 1.22765 -1.98623 0
M  V30 1603 C 149.721 1.46747 -0.860189 0
M  V30 1604 O 150.906 1.58259 -1.12551 0
M  V30 1605 C 148.036 2.56894 -2.33715 0
M  V30 1606 C 146.99 2.475 -3.49182 0
M  V30 1607 C 146.316 3.86023 -3.69986 0
M  V30 1608 C 147.616 1.98866 -4.82959 0
M  V30 1609 H 149.31 0.877942 -2.86239 0
M  V30 1610 H 146.856 0.42088 -1.37712 0
M  V30 1611 H 148.809 3.30253 -2.61746 0
M  V30 1612 H 147.533 2.93632 -1.42997 0
M  V30 1613 H 146.192 1.76596 -3.21262 0
M  V30 1614 H 145.84 4.20136 -2.76576 0
M  V30 1615 H 145.54 3.80609 -4.47672 0
M  V30 1616 H 147.064 4.60984 -4.00407 0
M  V30 1617 H 148.478 2.61992 -5.09934 0
M  V30 1618 H 146.875 2.04424 -5.64208 0
M  V30 1619 H 147.945 0.942465 -4.75653 0
M  V30 1620 N 149.288 1.51039 0.449983 0
M  V30 1621 C 150.198 1.74261 1.57067 0
M  V30 1622 C 151.214 0.626363 1.62335 0
M  V30 1623 O 152.39 0.907162 1.79812 0
M  V30 1624 C 149.455 1.85114 2.93144 0
M  V30 1625 C 148.516 3.0893 2.98095 0
M  V30 1626 C 147.749 3.19256 4.27681 0
M  V30 1627 O 147.972 2.35835 5.19363 0
M  V30 1628 O 146.906 4.12144 4.38658 0
M  V30 1629 H 150.732 2.69303 1.40391 0
M  V30 1630 H 148.317 1.35389 0.631688 0
M  V30 1631 H 150.199 1.94311 3.73926 0
M  V30 1632 H 148.874 0.932588 3.09975 0
M  V30 1633 H 147.781 3.0522 2.16314 0
M  V30 1634 H 149.114 4.00433 2.86206 0
M  V30 1635 N 150.766 -0.704594 1.40972 0
M  V30 1636 C 151.994 -1.49354 1.43182 0
M  V30 1637 C 152.409 -1.88768 0.0345508 0
M  V30 1638 O 151.766 -1.56184 -0.944081 0
M  V30 1639 C 151.817 -2.76187 2.33244 0
M  V30 1640 O 151.538 -2.38436 3.67532 0
M  V30 1641 C 153.039 -3.7 2.44162 0
M  V30 1642 H 150.259 -0.460559 0.487982 0
M  V30 1643 H 152.803 -0.868261 1.85153 0
M  V30 1644 H 150.958 -3.34974 1.94606 0
M  V30 1645 H 151.372 -3.20126 4.15475 0
M  V30 1646 H 152.846 -4.55803 3.11364 0
M  V30 1647 H 153.323 -4.13867 1.47006 0
M  V30 1648 H 153.929 -3.17121 2.83398 0
M  V30 1649 N 152.244 -1.26651 -0.937939 0
M  V30 1650 C 153.493 -1.11775 -1.67897 0
M  V30 1651 C 153.806 0.33794 -1.92659 0
M  V30 1652 O 155.012 0.607434 -2.64618 0
M  V30 1653 C 153.468 -1.9523 -3.02346 0
M  V30 1654 C 153.076 -3.45393 -2.8532 0
M  V30 1655 C 154.82 -1.88972 -3.80118 0
M  V30 1656 C 152.727 -4.21083 -4.15263 0
M  V30 1657 H 151.657 -0.414696 -0.629717 0
M  V30 1658 H 154.308 -1.50988 -1.04283 0
M  V30 1659 H 152.69 -1.48853 -3.66959 0
M  V30 1660 H 153.864 -3.99561 -2.29537 0
M  V30 1661 H 152.179 -3.52921 -2.20988 0
M  V30 1662 H 154.776 -2.42805 -4.76392 0
M  V30 1663 H 155.119 -0.86113 -4.07296 0
M  V30 1664 H 155.652 -2.33189 -3.22285 0
M  V30 1665 H 152.391 -5.24425 -3.93267 0
M  V30 1666 H 151.911 -3.71695 -4.70747 0
M  V30 1667 H 153.59 -4.29706 -4.83696 0
M  V30 1668 N 153.722 1.14298 -1.08507 0
M  V30 1669 C 154.962 1.87016 -0.824894 0
M  V30 1670 C 155.326 1.81099 0.637735 0
M  V30 1671 O 156.527 2.48963 1.01345 0
M  V30 1672 C 154.798 3.31584 -1.33368 0
M  V30 1673 S 156.357 4.21903 -1.20596 0
M  V30 1674 H 153.175 0.645259 -0.2986 0
M  V30 1675 H 155.777 1.37822 -1.38656 0
M  V30 1676 H 154.481 3.33439 -2.39262 0
M  V30 1677 H 154.012 3.85836 -0.767734 0
M  V30 1678 H 156.027 4.95971 -0.150891 0
M  V30 1679 N 155.201 0.870884 1.31352 0
M  V30 1680 C 156.131 0.343096 2.30966 0
M  V30 1681 C 157.112 -0.566507 1.60389 0
M  V30 1682 O 158.297 -0.483336 1.88089 0
M  V30 1683 C 155.427 -0.455487 3.443 0
M  V30 1684 C 154.381 0.361103 4.26474 0
M  V30 1685 C 153.707 -0.563221 5.31725 0
M  V30 1686 C 155.007 1.59566 4.97329 0
M  V30 1687 H 156.701 1.17548 2.75359 0
M  V30 1688 H 154.247 0.566686 1.32381 0
M  V30 1689 H 156.2 -0.83525 4.13039 0
M  V30 1690 H 154.924 -1.32139 2.98675 0
M  V30 1691 H 153.583 0.722825 3.59403 0
M  V30 1692 H 153.231 -1.42643 4.82351 0
M  V30 1693 H 152.931 -0.0207409 5.87596 0
M  V30 1694 H 154.455 -0.939808 6.03324 0
M  V30 1695 H 155.869 1.28728 5.58661 0
M  V30 1696 H 154.266 2.07728 5.63 0
M  V30 1697 H 155.336 2.34798 4.24262 0
M  V30 1698 N 156.679 -1.44442 0.630414 0
M  V30 1699 C 157.609 -2.33418 -0.0618083 0
M  V30 1700 C 158.59 -1.48165 -0.835541 0
M  V30 1701 O 159.775 -1.76886 -0.801564 0
M  V30 1702 C 156.905 -3.31222 -1.04449 0
M  V30 1703 C 155.859 -4.26288 -0.382436 0
M  V30 1704 C 155.185 -5.13954 -1.47497 0
M  V30 1705 C 156.485 -5.1744 0.710865 0
M  V30 1706 H 158.179 -2.91548 0.681184 0
M  V30 1707 H 155.725 -1.40191 0.329026 0
M  V30 1708 H 157.678 -3.92351 -1.53748 0
M  V30 1709 H 156.402 -2.71299 -1.81836 0
M  V30 1710 H 155.061 -3.6649 0.0899054 0
M  V30 1711 H 154.709 -4.50385 -2.2397 0
M  V30 1712 H 154.409 -5.7837 -1.03737 0
M  V30 1713 H 155.933 -5.77955 -1.96979 0
M  V30 1714 H 157.347 -5.72509 0.300996 0
M  V30 1715 H 155.744 -5.90455 1.07156 0
M  V30 1716 H 156.814 -4.58496 1.57829 0
M  V30 1717 N 158.157 -0.370918 -1.53173 0
M  V30 1718 C 159.087 0.464847 -2.28826 0
M  V30 1719 C 160.068 1.07936 -1.31468 0
M  V30 1720 O 161.253 1.0956 -1.60344 0
M  V30 1721 C 158.383 1.60196 -3.08147 0
M  V30 1722 C 157.337 1.11443 -4.13237 0
M  V30 1723 C 156.663 2.3422 -4.80672 0
M  V30 1724 C 157.963 0.195384 -5.21934 0
M  V30 1725 H 159.657 -0.166329 -2.98938 0
M  V30 1726 H 157.203 -0.0814359 -1.4377 0
M  V30 1727 H 159.156 2.19332 -3.59822 0
M  V30 1728 H 157.88 2.26045 -2.35735 0
M  V30 1729 H 156.539 0.545727 -3.62515 0
M  V30 1730 H 156.187 2.98537 -4.04827 0
M  V30 1731 H 155.887 2.02269 -5.51689 0
M  V30 1732 H 157.411 2.94032 -5.35143 0
M  V30 1733 H 158.825 0.694375 -5.69079 0
M  V30 1734 H 157.222 -0.0335027 -6.00091 0
M  V30 1735 H 158.292 -0.760961 -4.78892 0
M  V30 1736 N 159.635 1.57281 -0.100228 0
M  V30 1737 C 160.598 2.13158 0.842398 0
M  V30 1738 C 161.598 1.06202 1.20738 0
M  V30 1739 O 162.788 1.32066 1.13597 0
M  V30 1740 C 159.92 2.65639 2.13655 0
M  V30 1741 H 161.113 2.97766 0.357114 0
M  V30 1742 H 158.666 1.5559 0.148823 0
M  V30 1743 H 159.401 1.84566 2.66657 0
M  V30 1744 H 159.186 3.43844 1.88451 0
M  V30 1745 H 160.676 3.08846 2.81077 0
M  V30 1746 N 161.113 -0.173488 1.56642 0
M  V30 1747 C 162.343 -0.904781 1.85734 0
M  V30 1748 C 162.751 -1.76431 0.68328 0
M  V30 1749 O 162.094 -1.802 -0.356865 0
M  V30 1750 C 162.156 -1.83382 3.09211 0
M  V30 1751 C 161.82 -1.15411 4.42187 0
M  V30 1752 C 162.817 -0.520609 5.17287 0
M  V30 1753 C 160.502 -1.15151 4.88923 0
M  V30 1754 C 162.496 0.106412 6.37311 0
M  V30 1755 C 160.183 -0.520664 6.08878 0
M  V30 1756 C 161.181 0.107196 6.82916 0
M  V30 1757 O 160.869 0.728102 8.00596 0
M  V30 1758 H 160.601 -0.268408 0.62043 0
M  V30 1759 H 163.155 -0.179096 2.04618 0
M  V30 1760 H 161.385 -2.59976 2.86268 0
M  V30 1761 H 163.074 -2.43476 3.24768 0
M  V30 1762 H 163.84 -0.514606 4.82262 0
M  V30 1763 H 159.719 -1.62961 4.31236 0
M  V30 1764 H 163.263 0.597081 6.9504 0
M  V30 1765 H 159.16 -0.524242 6.43368 0
M  V30 1766 H 159.928 0.627138 8.16094 0
M  V30 1767 N 162.591 -1.51276 -0.441967 0
M  V30 1768 C 163.538 -1.72256 -1.53612 0
M  V30 1769 C 164.508 -0.564164 -1.56225 0
M  V30 1770 O 165.693 -0.798074 -1.73307 0
M  V30 1771 C 162.833 -1.84932 -2.91366 0
M  V30 1772 C 161.946 -3.12459 -2.98317 0
M  V30 1773 C 161.081 -3.15758 -4.27166 0
M  V30 1774 C 160.12 -4.37619 -4.27967 0
M  V30 1775 N 159.257 -4.38493 -5.48333 0
M  V30 1776 H 164.097 -2.65654 -1.35026 0
M  V30 1777 H 161.634 -1.31662 -0.656009 0
M  V30 1778 H 163.592 -1.90263 -3.7129 0
M  V30 1779 H 162.222 -0.949461 -3.08521 0
M  V30 1780 H 161.274 -3.1646 -2.11086 0
M  V30 1781 H 162.586 -4.02382 -2.94771 0
M  V30 1782 H 161.74 -3.19979 -5.15459 0
M  V30 1783 H 160.479 -2.23715 -4.33362 0
M  V30 1784 H 159.484 -4.33579 -3.38067 0
M  V30 1785 H 160.709 -5.30921 -4.23438 0
M  V30 1786 H 158.655 -3.49318 -5.55259 0
M  V30 1787 H 158.572 -5.22219 -5.46647 0
M  V30 1788 H 159.84 -4.469 -6.38671 0
M  V30 1789 N 164.069 0.697108 -1.41344 0
M  V30 1790 C 165.318 1.45279 -1.39918 0
M  V30 1791 C 165.631 1.95597 -0.0109624 0
M  V30 1792 O 166.837 2.71208 0.125919 0
M  V30 1793 C 165.293 2.62695 -2.46007 0
M  V30 1794 C 164.901 2.19169 -3.90729 0
M  V30 1795 C 166.645 3.40336 -2.53715 0
M  V30 1796 C 164.552 3.33535 -4.88373 0
M  V30 1797 H 163.482 0.545692 -0.520323 0
M  V30 1798 H 166.133 0.756929 -1.67161 0
M  V30 1799 H 164.515 3.34541 -2.11892 0
M  V30 1800 H 165.689 1.54623 -4.34083 0
M  V30 1801 H 164.004 1.54525 -3.86666 0
M  V30 1802 H 166.601 4.2547 -3.2385 0
M  V30 1803 H 166.944 3.85418 -1.5735 0
M  V30 1804 H 167.477 2.75546 -2.86913 0
M  V30 1805 H 164.216 2.93468 -5.86137 0
M  V30 1806 H 163.736 3.96936 -4.49668 0
M  V30 1807 H 165.415 3.99335 -5.09059 0
M  V30 1808 N 165.547 1.27147 0.931209 0
M  V30 1809 C 166.494 1.09568 2.03134 0
M  V30 1810 C 167.464 -0.00222433 1.661 0
M  V30 1811 O 168.649 0.159439 1.90133 0
M  V30 1812 C 165.789 0.745231 3.36957 0
M  V30 1813 C 164.902 1.92041 3.86968 0
M  V30 1814 C 164.037 1.51216 5.09222 0
M  V30 1815 C 163.076 2.65504 5.5152 0
M  V30 1816 N 162.213 2.25291 6.64972 0
M  V30 1817 H 167.053 2.03708 2.17502 0
M  V30 1818 H 164.59 1.01411 1.06556 0
M  V30 1819 H 166.548 0.522878 4.1391 0
M  V30 1820 H 165.178 -0.159202 3.22407 0
M  V30 1821 H 164.23 2.25541 3.06326 0
M  V30 1822 H 165.542 2.77787 4.1429 0
M  V30 1823 H 164.696 1.25084 5.93666 0
M  V30 1824 H 163.435 0.625749 4.83669 0
M  V30 1825 H 162.44 2.92354 4.65628 0
M  V30 1826 H 163.665 3.54761 5.7907 0
M  V30 1827 H 161.611 1.39098 6.41083 0
M  V30 1828 H 161.528 3.04577 6.91931 0
M  V30 1829 H 162.796 2.02398 7.52765 0
M  V30 1830 N 167.025 -1.13721 1.09112 0
M  V30 1831 C 168.255 -1.88499 0.845671 0
M  V30 1832 C 168.663 -1.79218 -0.606432 0
M  V30 1833 O 168.006 -1.1544 -1.42896 0
M  V30 1834 C 168.068 -3.38954 1.19793 0
M  V30 1835 C 167.732 -3.72018 2.65428 0
M  V30 1836 C 168.729 -3.7153 3.63677 0
M  V30 1837 C 166.414 -4.01775 3.01467 0
M  V30 1838 C 168.408 -4.00336 4.95994 0
M  V30 1839 C 166.095 -4.30243 4.33975 0
M  V30 1840 C 167.093 -4.29508 5.31048 0
M  V30 1841 O 166.781 -4.5728 6.61173 0
M  V30 1842 H 166.513 -0.603702 0.304171 0
M  V30 1843 H 169.067 -1.44903 1.45576 0
M  V30 1844 H 167.297 -3.83039 0.530871 0
M  V30 1845 H 168.986 -3.95052 0.932146 0
M  V30 1846 H 169.752 -3.4862 3.37179 0
M  V30 1847 H 165.631 -4.01496 2.26544 0
M  V30 1848 H 169.175 -3.99678 5.71755 0
M  V30 1849 H 165.072 -4.52625 4.60219 0
M  V30 1850 H 165.84 -4.74964 6.66597 0
M  V30 1851 N 168.503 -0.877838 -1.30888 0
M  V30 1852 C 169.914 -0.544193 -1.78593 0
M  V30 1853 C 170.265 0.939301 -1.72254 0
M  V30 1854 O 169.39 1.7337 -1.29505 0
M  V30 1855 C 169.985 -0.98105 -3.24285 0
M  V30 1856 C 168.544 -0.698935 -3.69854 0
M  V30 1857 C 167.691 -1.168 -2.51502 0
M  V30 1858 H 170.642 -1.06278 -1.17859 0
M  V30 1859 H 170.663 -0.307009 -3.79259 0
M  V30 1860 H 170.175 -2.06079 -3.28866 0
M  V30 1861 H 168.276 0.369112 -3.70767 0
M  V30 1862 H 168.389 -1.28148 -4.61644 0
M  V30 1863 H 166.753 -0.587535 -2.47831 0
M  V30 1864 H 167.536 -2.25533 -2.58824 0
M  V30 1865 N 169.982 1.44106 -0.638065 0
M  V30 1866 C 170.892 2.34513 0.0637334 0
M  V30 1867 C 171.908 1.53018 0.828346 0
M  V30 1868 O 173.084 1.85723 0.779036 0
M  V30 1869 C 170.149 3.31095 1.02844 0
M  V30 1870 C 169.21 4.28497 0.26244 0
M  V30 1871 C 168.443 5.20465 1.1812 0
M  V30 1872 O 168.666 5.16514 2.42011 0
M  V30 1873 O 167.6 5.98251 0.661774 0
M  V30 1874 H 171.426 2.95989 -0.68003 0
M  V30 1875 H 169.011 1.43994 -0.398252 0
M  V30 1876 H 170.893 3.90526 1.58327 0
M  V30 1877 H 169.568 2.72144 1.7527 0
M  V30 1878 H 168.475 3.72592 -0.335602 0
M  V30 1879 H 169.808 4.90388 -0.421936 0
M  V30 1880 N 171.46 0.379036 1.52974 0
M  V30 1881 C 172.408 -0.476033 2.27677 0
M  V30 1882 C 173.402 -1.0719 1.31174 0
M  V30 1883 O 174.608 -1.01355 1.48752 0
M  V30 1884 H 170.983 -0.172255 0.732006 0
M  V30 1885 H 172.954 0.175615 2.97883 0
M  V30 1886 C 171.703 -1.5967 3.0887 0
M  V30 1887 H 171.026 -1.1475 3.82978 0
M  V30 1888 H 172.466 -2.16943 3.64296 0
M  V30 1889 C 170.925 -2.54682 2.20542 0
M  V30 1890 O 171.455 -3.57836 1.82527 0
M  V30 1891 N 169.661 -2.24183 1.84907 0
M  V30 1892 H 169.208 -1.40333 2.1602 0
M  V30 1893 H 169.166 -2.88006 1.26096 0
M  V30 1894 N 172.938 -1.57226 0.108567 0
M  V30 1895 C 174.185 -1.94833 -0.551943 0
M  V30 1896 C 174.513 -0.991204 -1.67348 0
M  V30 1897 O 173.768 -0.0131878 -1.95696 0
M  V30 1898 C 174.067 -3.38911 -1.13463 0
M  V30 1899 C 173.733 -4.50696 -0.135509 0
M  V30 1900 C 172.395 -4.80998 0.139252 0
M  V30 1901 C 174.747 -5.18333 0.545957 0
M  V30 1902 C 172.075 -5.76259 1.10194 0
M  V30 1903 C 174.427 -6.14627 1.49721 0
M  V30 1904 C 173.091 -6.43327 1.78006 0
M  V30 1905 H 172.361 -0.712944 -0.20197 0
M  V30 1906 H 175.008 -1.90582 0.18726 0
M  V30 1907 H 173.313 -3.39805 -1.95037 0
M  V30 1908 H 175.01 -3.65317 -1.65362 0
M  V30 1909 H 171.6 -4.27087 -0.359846 0
M  V30 1910 H 175.784 -4.95087 0.346842 0
M  V30 1911 H 171.04 -5.96804 1.32795 0
M  V30 1912 H 175.214 -6.66126 2.03099 0
M  V30 1913 H 172.841 -7.1695 2.52759 0
M  V30 1914 N 174.416 0.165178 -1.56732 0
M  V30 1915 C 175.663 0.880807 -1.8234 0
M  V30 1916 C 175.991 1.81977 -0.686621 0
M  V30 1917 O 175.246 1.92971 0.325697 0
M  V30 1918 C 175.545 1.70405 -3.1416 0
M  V30 1919 C 175.211 0.913475 -4.4155 0
M  V30 1920 C 173.873 0.695303 -4.7615 0
M  V30 1921 C 176.225 0.359349 -5.1996 0
M  V30 1922 C 173.553 -0.0879947 -5.86634 0
M  V30 1923 C 175.905 -0.410893 -6.31264 0
M  V30 1924 C 174.569 -0.639808 -6.64427 0
M  V30 1925 H 173.839 0.32231 -0.667231 0
M  V30 1926 H 176.486 0.145402 -1.90947 0
M  V30 1927 H 174.791 2.50903 -3.00923 0
M  V30 1928 H 176.488 2.26091 -3.31186 0
M  V30 1929 H 173.078 1.09357 -4.14414 0
M  V30 1930 H 177.262 0.515228 -4.93618 0
M  V30 1931 H 172.518 -0.27503 -6.10781 0
M  V30 1932 H 176.692 -0.847494 -6.91224 0
M  V30 1933 H 174.319 -1.24864 -7.49875 0
M  V30 1934 N 175.894 1.51508 0.433938 0
M  V30 1935 C 176.824 1.76016 1.53429 0
M  V30 1936 C 177.805 0.610112 1.58782 0
M  V30 1937 O 178.99 0.853177 1.74455 0
M  V30 1938 C 176.12 1.88831 2.9148 0
M  V30 1939 C 175.074 3.04288 3.00987 0
M  V30 1940 C 174.4 3.0229 4.4105 0
M  V30 1941 C 175.7 4.44193 2.74754 0
M  V30 1942 H 177.394 2.68152 1.33171 0
M  V30 1943 H 174.94 1.29035 0.639214 0
M  V30 1944 H 176.893 2.04559 3.6842 0
M  V30 1945 H 175.617 0.933455 3.12976 0
M  V30 1946 H 174.276 2.8827 2.26486 0
M  V30 1947 H 173.924 2.04576 4.59519 0
M  V30 1948 H 173.624 3.79822 4.4834 0
M  V30 1949 H 175.148 3.20116 5.1996 0
M  V30 1950 H 176.562 4.60544 3.41426 0
M  V30 1951 H 174.959 5.23457 2.9345 0
M  V30 1952 H 176.029 4.53996 1.70339 0
M  V30 1953 N 177.372 -0.689602 1.41712 0
M  V30 1954 C 178.302 -1.81577 1.46806 0
M  V30 1955 C 179.283 -1.66945 0.326105 0
M  V30 1956 O 180.468 -1.86588 0.538377 0
M  V30 1957 C 177.598 -3.19762 1.35535 0
M  V30 1958 C 176.552 -3.49107 2.47605 0
M  V30 1959 C 175.878 -4.86711 2.21397 0
M  V30 1960 C 177.178 -3.47483 3.89939 0
M  V30 1961 H 178.872 -1.7757 2.41058 0
M  V30 1962 H 176.418 -0.852887 1.16025 0
M  V30 1963 H 178.371 -3.98263 1.3771 0
M  V30 1964 H 177.095 -3.24409 0.377708 0
M  V30 1965 H 175.754 -2.72959 2.44722 0
M  V30 1966 H 175.402 -4.8799 1.21961 0
M  V30 1967 H 175.102 -5.0731 2.96497 0
M  V30 1968 H 176.626 -5.67515 2.25297 0
M  V30 1969 H 178.04 -4.1598 3.94505 0
M  V30 1970 H 176.437 -3.79615 4.64771 0
M  V30 1971 H 177.507 -2.46341 4.17665 0
M  V30 1972 N 178.85 -1.27639 -0.924453 0
M  V30 1973 C 180.266 -1.05113 -1.20097 0
M  V30 1974 C 180.466 0.213262 -2.00368 0
M  V30 1975 O 179.522 0.91787 -2.35226 0
M  V30 1976 C 180.835 -2.29244 -1.94596 0
M  V30 1977 C 182.383 -2.34315 -2.07522 0
M  V30 1978 C 182.858 -3.58183 -2.85427 0
M  V30 1979 N 184.349 -3.5876 -2.92994 0
M  V30 1980 C 185.084 -4.51277 -3.53746 0
M  V30 1981 N 184.58 -5.54102 -4.15863 0
M  V30 1982 N 186.373 -4.38894 -3.51181 0
M  V30 1983 H 178.524 -2.08821 -0.388264 0
M  V30 1984 H 180.787 -0.918568 -0.234385 0
M  V30 1985 H 180.493 -3.21301 -1.43034 0
M  V30 1986 H 180.367 -2.34816 -2.95197 0
M  V30 1987 H 182.754 -1.42762 -2.58269 0
M  V30 1988 H 182.835 -2.32744 -1.06131 0
M  V30 1989 H 182.479 -4.50074 -2.35363 0
M  V30 1990 H 182.409 -3.57006 -3.8711 0
M  V30 1991 H 184.9 -2.84398 -2.4885 0
M  V30 1992 H 185.213 -6.20859 -4.60168 0
M  V30 1993 H 183.558 -5.57941 -4.144 0
M  V30 1994 H 186.749 -3.57772 -3.01856 0
M  V30 1995 H 186.922 -5.11186 -3.98237 0
M  V30 1996 N 180.328 1.1314 -1.09713 0
M  V30 1997 C 181.576 1.84119 -0.833338 0
M  V30 1998 C 181.897 1.84097 0.642904 0
M  V30 1999 O 181.167 1.29881 1.46655 0
M  V30 2000 H 179.747 0.681766 -0.305293 0
M  V30 2001 H 182.409 1.37038 -1.38588 0
M  V30 2002 H 181.505 2.88543 -1.18951 0
M  V30 2003 N 181.806 0.884767 1.30421 0
M  V30 2004 C 182.754 0.340869 2.30089 0
M  V30 2005 C 183.748 -0.55201 1.60154 0
M  V30 2006 O 184.954 -0.436467 1.74628 0
M  V30 2007 H 181.329 0.0915739 0.746404 0
M  V30 2008 H 183.3 1.19513 2.73421 0
M  V30 2009 C 182.049 -0.429779 3.45034 0
M  V30 2010 H 181.372 0.248024 3.9903 0
M  V30 2011 H 182.812 -0.775445 4.16849 0
M  V30 2012 C 181.271 -1.62677 2.95022 0
M  V30 2013 O 181.801 -2.72614 2.95033 0
M  V30 2014 N 180.007 -1.46387 2.51036 0
M  V30 2015 H 179.554 -0.569506 2.51226 0
M  V30 2016 H 179.512 -2.26612 2.17932 0
M  V30 2017 N 183.284 -1.43765 0.645699 0
M  V30 2018 C 184.234 -2.27884 -0.0726442 0
M  V30 2019 C 185.218 -1.39483 -0.802086 0
M  V30 2020 O 186.41 -1.63174 -0.685791 0
M  V30 2021 C 183.539 -3.27055 -1.04356 0
M  V30 2022 C 182.625 -4.22944 -0.312985 0
M  V30 2023 N 183.016 -5.01391 0.666386 0
M  V30 2024 C 181.314 -4.42528 -0.55546 0
M  V30 2025 C 182.015 -5.71217 1.09935 0
M  V30 2026 N 180.991 -5.41856 0.435137 0
M  V30 2027 H 184.793 -2.85949 0.678988 0
M  V30 2028 H 182.307 -1.55378 0.472368 0
M  V30 2029 H 184.304 -3.86089 -1.57292 0
M  V30 2030 H 182.964 -2.70551 -1.79534 0
M  V30 2031 H 183.975 -5.07252 1.04481 0
M  V30 2032 H 180.652 -3.97104 -1.28899 0
M  V30 2033 H 182.042 -6.44202 1.90929 0
M  V30 2034 N 184.763 -0.387143 -1.52771 0
M  V30 2035 C 185.673 0.456442 -2.30117 0
M  V30 2036 C 186.689 1.07342 -1.36944 0
M  V30 2037 O 187.865 1.07971 -1.70013 0
M  V30 2038 C 184.93 1.56957 -3.09136 0
M  V30 2039 C 183.991 0.977916 -4.18014 0
M  V30 2040 C 183.224 2.038 -4.93256 0
M  V30 2041 O 183.447 3.25271 -4.68567 0
M  V30 2042 O 182.381 1.6565 -5.78657 0
M  V30 2043 H 186.207 -0.17359 -3.03203 0
M  V30 2044 H 183.792 -0.150919 -1.48636 0
M  V30 2045 H 185.674 2.21628 -3.58412 0
M  V30 2046 H 184.349 2.18461 -2.38865 0
M  V30 2047 H 183.256 0.294525 -3.72939 0
M  V30 2048 H 184.589 0.407128 -4.90513 0
M  V30 2049 N 186.241 1.57166 -0.116904 0
M  V30 2050 C 187.481 1.97008 0.544715 0
M  V30 2051 C 187.845 0.998713 1.63981 0
M  V30 2052 O 189.046 1.28644 2.36018 0
M  V30 2053 C 187.317 3.41145 1.06559 0
M  V30 2054 S 188.876 4.02998 1.73603 0
M  V30 2055 H 185.694 0.688587 0.177112 0
M  V30 2056 H 188.296 1.94459 -0.201487 0
M  V30 2057 H 187 4.09592 0.257374 0
M  V30 2058 H 186.531 3.4734 1.84712 0
M  V30 2059 H 188.546 3.93585 3.02168 0
M  V30 2060 N 187.719 -0.156864 1.56817 0
M  V30 2061 C 188.682 -1.17781 1.96622 0
M  V30 2062 C 189.682 -1.36401 0.851555 0
M  V30 2063 O 190.872 -1.33561 1.11836 0
M  V30 2064 C 188.004 -2.54008 2.27361 0
M  V30 2065 H 189.197 -0.836564 2.87996 0
M  V30 2066 H 186.75 -0.39985 1.51099 0
M  V30 2067 H 187.485 -2.9312 1.38748 0
M  V30 2068 H 187.27 -2.41856 3.08623 0
M  V30 2069 H 188.76 -3.27558 2.59029 0
M  V30 2070 N 189.197 -1.51736 -0.425897 0
M  V30 2071 C 190.422 -1.69082 -1.20108 0
M  V30 2072 C 190.847 -0.392398 -1.83962 0
M  V30 2073 O 190.205 0.64858 -1.69302 0
M  V30 2074 C 190.253 -2.81604 -2.25237 0
M  V30 2075 O 189.357 -2.46004 -3.30992 0
M  V30 2076 H 188.698 -0.563408 -0.35138 0
M  V30 2077 H 191.228 -1.98358 -0.501512 0
M  V30 2078 H 191.238 -3.06025 -2.69838 0
M  V30 2079 H 189.913 -3.75817 -1.78142 0
M  V30 2080 H 188.49 -2.32195 -2.91787 0
M  V30 2081 N 190.675 0.682077 -1.42076 0
M  V30 2082 C 191.924 1.43786 -1.41451 0
M  V30 2083 C 192.237 1.95574 -0.0317074 0
M  V30 2084 O 193.443 2.71326 0.0971462 0
M  V30 2085 C 191.899 2.60071 -2.48779 0
M  V30 2086 C 191.507 2.15013 -3.93031 0
M  V30 2087 C 193.251 3.37626 -2.57311 0
M  V30 2088 C 191.158 3.28336 -4.91883 0
M  V30 2089 H 190.088 0.540143 -0.526082 0
M  V30 2090 H 192.739 0.739157 -1.67955 0
M  V30 2091 H 191.121 3.32275 -2.15429 0
M  V30 2092 H 192.295 1.5001 -4.35699 0
M  V30 2093 H 190.61 1.50416 -3.88284 0
M  V30 2094 H 193.207 4.22012 -3.28345 0
M  V30 2095 H 193.55 3.83727 -1.61429 0
M  V30 2096 H 194.083 2.72488 -2.89819 0
M  V30 2097 H 190.822 2.87234 -5.89217 0
M  V30 2098 H 190.342 3.92145 -4.53853 0
M  V30 2099 H 192.021 3.93913 -5.13265 0
M  V30 2100 N 192.153 1.28127 0.917671 0
M  V30 2101 C 193.101 1.11569 2.04096 0
M  V30 2102 C 194.095 0.0360242 1.69362 0
M  V30 2103 O 195.301 0.194501 1.78946 0
M  V30 2104 H 191.676 0.344097 0.668656 0
M  V30 2105 H 193.647 2.06711 2.15205 0
M  V30 2106 C 192.396 0.790197 3.38602 0
M  V30 2107 H 191.719 1.61293 3.6582 0
M  V30 2108 H 193.159 0.714271 4.1794 0
M  V30 2109 C 191.618 -0.505897 3.3308 0
M  V30 2110 O 192.148 -1.53736 3.71117 0
M  V30 2111 N 190.354 -0.505193 2.86175 0
M  V30 2112 H 189.901 0.334621 2.55417 0
M  V30 2113 H 189.859 -1.37243 2.82863 0
M  V30 2114 N 193.631 -1.12557 1.10312 0
M  V30 2115 C 195.047 -1.36036 0.834649 0
M  V30 2116 C 195.247 -1.93946 -0.546539 0
M  V30 2117 O 194.303 -2.16484 -1.29966 0
M  V30 2118 C 195.616 -2.30312 1.9333 0
M  V30 2119 C 197.164 -2.43906 1.9616 0
M  V30 2120 C 197.639 -3.41496 3.05195 0
M  V30 2121 N 199.13 -3.49053 3.04494 0
M  V30 2122 C 199.865 -4.24471 3.85502 0
M  V30 2123 N 199.361 -5.02966 4.76442 0
M  V30 2124 N 201.154 -4.19864 3.73725 0
M  V30 2125 H 193.305 -0.733246 1.99342 0
M  V30 2126 H 195.568 -0.385234 0.866198 0
M  V30 2127 H 195.274 -1.94933 2.92735 0
M  V30 2128 H 195.148 -3.30421 1.81939 0
M  V30 2129 H 197.535 -2.78567 0.973886 0
M  V30 2130 H 197.616 -1.4369 2.11629 0
M  V30 2131 H 197.26 -3.07565 4.04186 0
M  V30 2132 H 197.19 -4.41539 2.86968 0
M  V30 2133 H 199.681 -2.93053 2.38596 0
M  V30 2134 H 199.994 -5.57846 5.34815 0
M  V30 2135 H 198.339 -5.02167 4.80472 0
M  V30 2136 H 201.53 -3.57623 3.02032 0
M  V30 2137 H 201.703 -4.78386 4.37093 0
M  V30 2138 N 195.109 -0.891671 -1.2995 0
M  V30 2139 C 196.358 -0.509521 -1.95158 0
M  V30 2140 C 196.671 0.947388 -1.71125 0
M  V30 2141 O 197.877 1.43669 -2.30372 0
M  V30 2142 C 196.333 -0.860315 -3.49466 0
M  V30 2143 C 195.941 -2.33545 -3.8231 0
M  V30 2144 C 197.685 -0.547687 -4.20952 0
M  V30 2145 C 195.592 -2.62752 -5.29826 0
M  V30 2146 H 194.522 -0.18682 -0.730489 0
M  V30 2147 H 197.173 -1.08756 -1.47798 0
M  V30 2148 H 195.555 -0.211285 -3.95436 0
M  V30 2149 H 196.729 -3.02936 -3.47227 0
M  V30 2150 H 195.044 -2.61629 -3.23944 0
M  V30 2151 H 197.641 -0.742854 -5.29515 0
M  V30 2152 H 197.984 0.51332 -4.13123 0
M  V30 2153 H 198.517 -1.1542 -3.80688 0
M  V30 2154 H 195.256 -3.6762 -5.42712 0
M  V30 2155 H 194.776 -1.97977 -5.66185 0
M  V30 2156 H 196.455 -2.48601 -5.97333 0
M  V30 2157 N 196.587 1.43421 -0.653314 0
M  V30 2158 C 197.817 2.05864 -0.174238 0
M  V30 2159 C 198.225 1.49052 1.16534 0
M  V30 2160 O 197.568 0.616481 1.73047 0
M  V30 2161 C 197.63 3.59499 -0.00875873 0
M  V30 2162 C 197.294 4.38893 -1.27364 0
M  V30 2163 C 198.291 4.70947 -2.20239 0
M  V30 2164 C 195.976 4.789 -1.51525 0
M  V30 2165 C 197.97 5.41916 -3.35568 0
M  V30 2166 C 195.657 5.49614 -2.67147 0
M  V30 2167 C 196.655 5.81044 -3.58994 0
M  V30 2168 O 196.343 6.50313 -4.72597 0
M  V30 2169 H 196.075 0.670345 -0.0872549 0
M  V30 2170 H 198.629 1.84913 -0.894226 0
M  V30 2171 H 196.859 3.79025 0.7666 0
M  V30 2172 H 198.548 4.0364 0.427687 0
M  V30 2173 H 199.314 4.40558 -2.02815 0
M  V30 2174 H 195.193 4.53843 -0.809158 0
M  V30 2175 H 198.737 5.66365 -4.07279 0
M  V30 2176 H 194.634 5.79419 -2.84505 0
M  V30 2177 H 195.402 6.68795 -4.71864 0
M  V30 2178 N 198.065 0.39524 1.52563 0
M  V30 2179 C 199.313 -0.184678 2.01254 0
M  V30 2180 C 199.634 -1.46822 1.28329 0
M  V30 2181 O 198.904 -1.91666 0.405094 0
M  V30 2182 H 197.484 -0.0712355 0.743596 0
M  V30 2183 H 200.146 0.528293 1.87603 0
M  V30 2184 H 199.242 -0.390681 3.09645 0
M  V30 2185 N 199.544 -1.57102 0.125237 0
M  V30 2186 C 200.791 -1.95407 -0.531248 0
M  V30 2187 C 201.119 -1.0089 -1.66287 0
M  V30 2188 O 200.374 -0.0339431 -1.95671 0
M  V30 2189 C 200.673 -3.40096 -1.09862 0
M  V30 2190 C 200.339 -4.50815 -0.0876989 0
M  V30 2191 C 199.001 -4.80824 0.19026 0
M  V30 2192 C 201.353 -5.17724 0.600902 0
M  V30 2193 C 198.681 -5.75058 1.163 0
M  V30 2194 C 201.033 -6.13005 1.56231 0
M  V30 2195 C 199.697 -6.41403 1.8482 0
M  V30 2196 H 198.967 -0.715046 -0.194397 0
M  V30 2197 H 201.614 -1.90373 0.207463 0
M  V30 2198 H 199.919 -3.41855 -1.91422 0
M  V30 2199 H 201.616 -3.6705 -1.61478 0
M  V30 2200 H 198.206 -4.27444 -0.314528 0
M  V30 2201 H 202.39 -4.94691 0.399333 0
M  V30 2202 H 197.646 -5.95362 1.39117 0
M  V30 2203 H 201.82 -6.63934 2.10153 0
M  V30 2204 H 199.447 -7.14229 2.60349 0
M  V30 2205 N 201.022 0.148545 -1.56898 0
M  V30 2206 C 202.252 0.875118 -1.8715 0
M  V30 2207 C 202.66 1.75322 -0.711262 0
M  V30 2208 O 202.003 1.80745 0.328151 0
M  V30 2209 C 202.065 1.7844 -3.12089 0
M  V30 2210 C 201.729 1.08361 -4.43967 0
M  V30 2211 C 202.726 0.438247 -5.1805 0
M  V30 2212 C 200.411 1.07358 -4.90693 0
M  V30 2213 C 202.405 -0.20779 -6.37061 0
M  V30 2214 C 200.092 0.42373 -6.09629 0
M  V30 2215 C 201.09 -0.215829 -6.82659 0
M  V30 2216 O 200.778 -0.855378 -7.99336 0
M  V30 2217 H 200.51 0.258504 -0.624621 0
M  V30 2218 H 203.064 0.14652 -2.04877 0
M  V30 2219 H 201.294 2.55389 -2.90367 0
M  V30 2220 H 202.983 2.38279 -3.286 0
M  V30 2221 H 203.749 0.437817 -4.8302 0
M  V30 2222 H 199.628 1.5608 -4.33774 0
M  V30 2223 H 203.172 -0.70758 -6.94002 0
M  V30 2224 H 199.069 0.421822 -6.4412 0
M  V30 2225 H 199.837 -0.756892 -8.14993 0
M  V30 2226 N 202.5 1.5196 0.417844 0
M  V30 2227 C 203.777 1.56146 1.17803 0
M  V30 2228 C 204.157 0.337275 2.08388 0
M  V30 2229 O 203.505 -0.676447 2.18258 0
M  V30 2230 C 203.715 2.88566 1.96293 0
M  V30 2231 C 205.063 3.41244 2.52662 0
M  V30 2232 O 206.087 2.90247 2.06483 0
M  V30 2233 O 204.946 4.30273 3.36938 0
M  V30 2234 H 202.04 0.628598 0.537395 0
M  V30 2235 H 204.586 1.64283 0.425331 0
M  V30 2236 H 203.358 3.69116 1.2988 0
M  V30 2237 H 202.981 2.83681 2.78587 0
M  V30 2238 N 203.978 -0.674533 1.42435 0
M  V30 2239 C 204.888 -1.81751 1.48337 0
M  V30 2240 C 205.904 -1.69975 0.372099 0
M  V30 2241 O 207.08 -1.91521 0.62304 0
M  V30 2242 C 204.145 -3.17895 1.38361 0
M  V30 2243 C 203.206 -3.41625 2.59982 0
M  V30 2244 C 202.439 -4.71274 2.50473 0
M  V30 2245 O 202.662 -5.49197 1.54075 0
M  V30 2246 O 201.596 -4.96254 3.4061 0
M  V30 2247 H 205.422 -1.79728 2.44809 0
M  V30 2248 H 203.007 -0.830312 1.24202 0
M  V30 2249 H 204.889 -3.99136 1.35161 0
M  V30 2250 H 203.564 -3.20555 0.450144 0
M  V30 2251 H 202.471 -2.60231 2.68757 0
M  V30 2252 H 203.804 -3.43796 3.52229 0
M  V30 2253 N 205.456 -1.28612 -0.910864 0
M  V30 2254 C 206.696 -1.1719 -1.67469 0
M  V30 2255 C 207.06 0.274441 -1.90028 0
M  V30 2256 O 208.261 0.511425 -2.6389 0
M  V30 2257 C 206.532 -1.95137 -2.99427 0
M  V30 2258 S 208.091 -2.00122 -3.90508 0
M  V30 2259 H 204.909 -0.41806 -0.575106 0
M  V30 2260 H 207.511 -1.6275 -1.08317 0
M  V30 2261 H 206.215 -2.99381 -2.80712 0
M  V30 2262 H 205.746 -1.50137 -3.63624 0
M  V30 2263 H 207.761 -1.10981 -4.8363 0
M  V30 2264 N 206.934 1.1197 -1.10907 0
M  V30 2265 C 207.881 2.17846 -0.762345 0
M  V30 2266 C 208.851 1.63995 0.263599 0
M  V30 2267 O 210.036 1.90273 0.141773 0
M  V30 2268 C 207.176 3.44487 -0.205651 0
M  V30 2269 C 206.289 4.12369 -1.28748 0
M  V30 2270 C 205.424 5.26674 -0.691919 0
M  V30 2271 C 204.463 5.86431 -1.75399 0
M  V30 2272 N 203.6 6.92142 -1.17833 0
M  V30 2273 H 208.44 2.46851 -1.6694 0
M  V30 2274 H 205.977 1.21188 -0.833776 0
M  V30 2275 H 207.935 4.16981 0.135037 0
M  V30 2276 H 206.565 3.15884 0.664613 0
M  V30 2277 H 205.617 3.38003 -1.74522 0
M  V30 2278 H 206.929 4.52844 -2.09125 0
M  V30 2279 H 206.083 6.05953 -0.300963 0
M  V30 2280 H 204.822 4.8749 0.143232 0
M  V30 2281 H 203.827 5.05835 -2.15432 0
M  V30 2282 H 205.052 6.27685 -2.59208 0
M  V30 2283 H 202.998 6.54985 -0.364725 0
M  V30 2284 H 202.915 7.31242 -1.91887 0
M  V30 2285 H 204.183 7.75237 -0.81408 0
M  V30 2286 N 208.412 0.89855 1.29475 0
M  V30 2287 C 209.828 0.594483 1.48115 0
M  V30 2288 C 210.028 -0.86431 1.82022 0
M  V30 2289 O 209.084 -1.64457 1.91599 0
M  V30 2290 C 210.397 1.51932 2.59494 0
M  V30 2291 C 211.945 1.5244 2.7337 0
M  V30 2292 C 212.42 2.43548 3.87877 0
M  V30 2293 N 213.911 2.41589 3.95208 0
M  V30 2294 C 214.646 3.08789 4.83153 0
M  V30 2295 N 214.142 3.85265 5.75798 0
M  V30 2296 N 215.935 2.97952 4.76635 0
M  V30 2297 H 208.086 1.84207 1.05742 0
M  V30 2298 H 210.349 0.789251 0.525154 0
M  V30 2299 H 210.055 2.55865 2.41301 0
M  V30 2300 H 209.929 1.23899 3.56271 0
M  V30 2301 H 212.316 0.492518 2.90961 0
M  V30 2302 H 212.397 1.8451 1.77172 0
M  V30 2303 H 212.041 3.46829 3.71041 0
M  V30 2304 H 211.971 2.08788 4.83441 0
M  V30 2305 H 214.462 1.86025 3.28943 0
M  V30 2306 H 214.775 4.33598 6.39697 0
M  V30 2307 H 213.12 3.89371 5.75687 0
M  V30 2308 H 216.311 2.37723 4.03244 0
M  V30 2309 H 216.484 3.50599 5.44962 0
M  V30 2310 N 209.89 -1.43072 0.660911 0
M  V30 2311 C 211.306 -1.56169 0.329173 0
M  V30 2312 C 211.506 -1.64317 -1.16629 0
M  V30 2313 O 210.562 -1.60245 -1.95135 0
M  V30 2314 C 211.875 -2.81873 1.04729 0
M  V30 2315 C 213.423 -2.95627 1.02828 0
M  V30 2316 C 213.898 -4.24174 1.72744 0
M  V30 2317 N 215.389 -4.31055 1.69545 0
M  V30 2318 C 216.124 -5.29304 2.20511 0
M  V30 2319 N 215.62 -6.33786 2.79799 0
M  V30 2320 N 217.413 -5.21008 2.10966 0
M  V30 2321 H 209.564 -1.36027 1.63127 0
M  V30 2322 H 211.827 -0.653823 0.686454 0
M  V30 2323 H 211.533 -2.81942 2.10242 0
M  V30 2324 H 211.407 -3.72338 0.603702 0
M  V30 2325 H 213.794 -2.95094 -0.0184742 0
M  V30 2326 H 213.875 -2.06431 1.51063 0
M  V30 2327 H 213.519 -4.25467 2.7738 0
M  V30 2328 H 213.449 -5.1228 1.2197 0
M  V30 2329 H 215.94 -3.56174 1.26288 0
M  V30 2330 H 216.253 -7.05086 3.16344 0
M  V30 2331 H 214.598 -6.34387 2.83863 0
M  V30 2332 H 217.789 -4.38301 1.64347 0
M  V30 2333 H 217.962 -5.97416 2.50993 0
M  V30 2334 N 211.368 -0.403325 -1.52352 0
M  V30 2335 C 212.598 0.17376 -2.05868 0
M  V30 2336 C 213.006 1.39898 -1.27378 0
M  V30 2337 O 212.349 1.80939 -0.31729 0
M  V30 2338 C 212.411 0.594756 -3.54546 0
M  V30 2339 C 212.075 -0.518926 -4.54044 0
M  V30 2340 C 213.072 -1.3807 -5.01231 0
M  V30 2341 C 210.757 -0.689961 -4.97539 0
M  V30 2342 C 212.751 -2.39852 -5.90551 0
M  V30 2343 C 210.438 -1.71109 -5.86656 0
M  V30 2344 C 211.436 -2.56378 -6.33056 0
M  V30 2345 O 211.124 -3.56743 -7.20409 0
M  V30 2346 H 210.856 0.0264951 -0.675481 0
M  V30 2347 H 213.41 -0.571179 -1.97299 0
M  V30 2348 H 211.64 1.39189 -3.60782 0
M  V30 2349 H 213.329 1.0991 -3.90736 0
M  V30 2350 H 214.095 -1.25994 -4.68349 0
M  V30 2351 H 209.974 -0.035939 -4.60986 0
M  V30 2352 H 213.518 -3.06441 -6.26689 0
M  V30 2353 H 209.415 -1.83218 -6.18952 0
M  V30 2354 H 210.183 -3.52918 -7.38506 0
M  V30 2355 N 212.846 1.57033 -0.133567 0
M  V30 2356 C 213.794 2.17348 0.828412 0
M  V30 2357 C 214.788 1.12671 1.26498 0
M  V30 2358 O 215.994 1.30947 1.23502 0
M  V30 2359 H 212.369 0.695775 0.285309 0
M  V30 2360 H 214.34 2.96935 0.295372 0
M  V30 2361 C 213.089 2.79893 2.06289 0
M  V30 2362 H 212.412 3.60147 1.73592 0
M  V30 2363 H 213.852 3.25615 2.71572 0
M  V30 2364 C 212.311 1.77713 2.86216 0
M  V30 2365 O 212.841 1.23937 3.82103 0
M  V30 2366 N 211.047 1.47321 2.50489 0
M  V30 2367 H 210.594 1.91243 1.7258 0
M  V30 2368 H 210.552 0.79199 3.04261 0
M  V30 2369 N 214.325 -0.140222 1.56975 0
M  V30 2370 C 215.574 -0.850152 1.82908 0
M  V30 2371 C 215.887 -1.82028 0.715892 0
M  V30 2372 O 217.093 -2.57485 0.861016 0
M  V30 2373 C 215.549 -1.5625 3.24213 0
M  V30 2374 C 215.157 -0.63443 4.43485 0
M  V30 2375 C 216.901 -2.25881 3.59413 0
M  V30 2376 C 214.808 -1.34879 5.75814 0
M  V30 2377 H 213.738 -0.321221 0.682153 0
M  V30 2378 H 216.389 -0.102874 1.83211 0
M  V30 2379 H 214.771 -2.35565 3.18316 0
M  V30 2380 H 215.945 0.12398 4.60633 0
M  V30 2381 H 214.26 -0.0461836 4.16374 0
M  V30 2382 H 216.857 -2.79978 4.5554 0
M  V30 2383 H 217.2 -3.02693 2.85802 0
M  V30 2384 H 217.733 -1.53477 3.67001 0
M  V30 2385 H 214.472 -0.622385 6.52539 0
M  V30 2386 H 213.992 -2.07974 5.6259 0
M  V30 2387 H 215.671 -1.88784 6.18845 0
M  V30 2388 N 215.803 -1.52179 -0.40978 0
M  V30 2389 C 216.75 -1.75475 -1.49924 0
M  V30 2390 C 217.72 -0.597175 -1.54994 0
M  V30 2391 O 218.905 -0.834655 -1.71575 0
M  V30 2392 C 216.045 -1.9107 -2.87378 0
M  V30 2393 C 215.158 -3.18717 -2.91622 0
M  V30 2394 C 214.293 -3.24747 -4.20372 0
M  V30 2395 C 213.332 -4.46598 -4.18588 0
M  V30 2396 N 212.469 -4.50025 -5.38908 0
M  V30 2397 H 217.309 -2.68458 -1.29361 0
M  V30 2398 H 214.846 -1.33024 -0.627934 0
M  V30 2399 H 216.804 -1.98096 -3.6717 0
M  V30 2400 H 215.434 -1.01469 -3.06437 0
M  V30 2401 H 214.486 -3.20866 -2.04326 0
M  V30 2402 H 215.798 -4.08544 -2.86169 0
M  V30 2403 H 214.952 -3.30841 -5.08556 0
M  V30 2404 H 213.691 -2.32857 -4.28519 0
M  V30 2405 H 212.696 -4.40652 -3.28794 0
M  V30 2406 H 213.921 -5.39783 -4.12081 0
M  V30 2407 H 211.867 -3.61017 -5.47725 0
M  V30 2408 H 211.784 -5.33697 -5.35447 0
M  V30 2409 H 213.052 -4.60347 -6.29048 0
M  V30 2410 N 217.281 0.66697 -1.42791 0
M  V30 2411 C 218.211 1.79218 -1.49677 0
M  V30 2412 C 219.192 1.66405 -0.352623 0
M  V30 2413 O 220.377 1.85708 -0.567993 0
M  V30 2414 C 217.507 3.17565 -1.40605 0
M  V30 2415 C 216.461 3.45124 -2.53127 0
M  V30 2416 C 215.787 4.83127 -2.29112 0
M  V30 2417 C 217.087 3.41236 -3.95418 0
M  V30 2418 H 218.781 1.73713 -2.43853 0
M  V30 2419 H 216.327 0.83432 -1.17367 0
M  V30 2420 H 218.28 3.96022 -1.44029 0
M  V30 2421 H 217.004 3.23767 -0.429271 0
M  V30 2422 H 215.663 2.69031 -2.49034 0
M  V30 2423 H 215.311 4.85988 -1.29709 0
M  V30 2424 H 215.011 5.02528 -3.04531 0
M  V30 2425 H 216.535 5.63859 -2.34297 0
M  V30 2426 H 217.949 4.09651 -4.01073 0
M  V30 2427 H 216.346 3.72173 -4.70752 0
M  V30 2428 H 217.416 2.39665 -4.21532 0
M  V30 2429 N 218.759 1.29093 0.90403 0
M  V30 2430 C 220.005 1.17996 1.65676 0
M  V30 2431 C 220.36 -0.266816 1.90541 0
M  V30 2432 O 219.653 -1.19 1.50165 0
M  V30 2433 C 219.847 1.92224 3.01305 0
M  V30 2434 C 219.676 3.43972 2.89678 0
M  V30 2435 C 218.446 4.1332 2.90679 0
M  V30 2436 C 220.644 4.39546 2.67028 0
M  V30 2437 N 218.626 5.51463 2.69743 0
M  V30 2438 C 219.997 5.65119 2.5503 0
M  V30 2439 C 222.052 4.29359 2.52101 0
M  V30 2440 C 220.755 6.81663 2.29626 0
M  V30 2441 C 222.781 5.4565 2.28079 0
M  V30 2442 C 222.143 6.70193 2.16843 0
M  V30 2443 H 218.242 0.486759 0.612037 0
M  V30 2444 H 220.826 1.62868 1.06688 0
M  V30 2445 H 218.997 1.49773 3.58361 0
M  V30 2446 H 220.729 1.73429 3.65656 0
M  V30 2447 H 217.484 3.64984 3.01801 0
M  V30 2448 H 217.908 6.24105 2.6234 0
M  V30 2449 H 222.55 3.33769 2.59534 0
M  V30 2450 H 220.268 7.77313 2.20932 0
M  V30 2451 H 223.854 5.39664 2.1738 0
M  V30 2452 H 222.734 7.58659 1.98511 0
M  V30 2453 N 220.237 -1.11381 1.11499 0
M  V30 2454 C 221.184 -2.17439 0.773887 0
M  V30 2455 C 222.154 -1.64132 -0.254899 0
M  V30 2456 O 223.339 -1.90345 -0.13168 0
M  V30 2457 C 220.479 -3.44373 0.223917 0
M  V30 2458 C 219.592 -4.1168 1.30934 0
M  V30 2459 C 218.727 -5.263 0.71984 0
M  V30 2460 C 217.766 -5.85493 1.78507 0
M  V30 2461 N 216.903 -6.91507 1.21502 0
M  V30 2462 H 221.743 -2.45962 1.68246 0
M  V30 2463 H 219.28 -1.20744 0.840191 0
M  V30 2464 H 221.238 -4.17047 -0.112921 0
M  V30 2465 H 219.868 -3.16232 -0.647851 0
M  V30 2466 H 218.92 -3.37073 1.76312 0
M  V30 2467 H 220.232 -4.51729 2.11524 0
M  V30 2468 H 219.386 -6.05785 0.333094 0
M  V30 2469 H 218.125 -4.87559 -0.117377 0
M  V30 2470 H 217.13 -5.04686 2.18111 0
M  V30 2471 H 218.355 -6.26301 2.62533 0
M  V30 2472 H 216.301 -6.54783 0.399455 0
M  V30 2473 H 216.218 -7.30214 1.95763 0
M  V30 2474 H 217.486 -7.74795 0.855181 0
M  V30 2475 N 221.715 -0.905404 -1.28997 0
M  V30 2476 C 222.943 -0.549846 -1.9946 0
M  V30 2477 C 223.358 0.866834 -1.67724 0
M  V30 2478 O 222.715 1.57298 -0.925404 0
M  V30 2479 C 222.766 -0.739387 -3.53858 0
M  V30 2480 O 222.487 -2.10031 -3.84472 0
M  V30 2481 C 223.988 -0.389541 -4.41585 0
M  V30 2482 H 221.208 -0.210429 -0.637151 0
M  V30 2483 H 223.752 -1.21632 -1.64396 0
M  V30 2484 H 221.907 -0.120023 -3.87214 0
M  V30 2485 H 222.321 -2.13385 -4.79132 0
M  V30 2486 H 223.795 -0.572972 -5.49018 0
M  V30 2487 H 224.272 0.673756 -4.34001 0
M  V30 2488 H 224.878 -0.986089 -4.1371 0
M  V30 2489 N 223.193 1.4272 -0.668489 0
M  V30 2490 C 224.44 2.01624 -0.18814 0
M  V30 2491 C 224.768 1.5282 1.20317 0
M  V30 2492 O 224.023 0.718323 1.8204 0
M  V30 2493 C 224.322 3.57021 -0.164499 0
M  V30 2494 C 223.988 4.25232 -1.49962 0
M  V30 2495 C 222.65 4.4358 -1.8652 0
M  V30 2496 C 225.002 4.63727 -2.37921 0
M  V30 2497 C 222.33 4.97694 -3.10674 0
M  V30 2498 C 224.682 5.19218 -3.6138 0
M  V30 2499 C 223.346 5.3578 -3.98115 0
M  V30 2500 H 222.616 0.737795 -0.0688454 0
M  V30 2501 H 225.263 1.70991 -0.862225 0
M  V30 2502 H 223.568 3.87285 0.593079 0
M  V30 2503 H 225.265 4.00372 0.224271 0
M  V30 2504 H 221.855 4.11306 -1.20522 0
M  V30 2505 H 226.039 4.4923 -2.10964 0
M  V30 2506 H 221.295 5.08702 -3.39164 0
M  V30 2507 H 225.469 5.4799 -4.29743 0
M  V30 2508 H 223.096 5.77475 -4.94395 0
M  V30 2509 N 224.671 0.411399 1.52136 0
M  V30 2510 C 225.899 -0.163076 2.06256 0
M  V30 2511 C 226.314 -1.3867 1.28125 0
M  V30 2512 O 225.671 -1.79423 0.333721 0
M  V30 2513 C 225.722 -0.511252 3.57867 0
M  V30 2514 O 225.443 0.66378 4.33042 0
M  V30 2515 C 226.944 -1.13921 4.28412 0
M  V30 2516 H 224.164 -0.0193897 0.67072 0
M  V30 2517 H 226.708 0.583007 1.96013 0
M  V30 2518 H 224.863 -1.20723 3.6811 0
M  V30 2519 H 225.277 0.372601 5.23175 0
M  V30 2520 H 226.751 -1.33302 5.35663 0
M  V30 2521 H 227.228 -2.11296 3.85033 0
M  V30 2522 H 227.834 -0.483373 4.22544 0
M  V30 2523 N 226.149 -1.5696 0.141893 0
M  V30 2524 C 227.426 -1.87553 -0.555281 0
M  V30 2525 C 227.806 -1.04699 -1.83306 0
M  V30 2526 O 227.154 -0.132346 -2.28116 0
M  V30 2527 C 227.364 -3.39093 -0.825664 0
M  V30 2528 C 228.712 -4.08199 -1.16869 0
M  V30 2529 O 229.736 -3.44242 -0.915185 0
M  V30 2530 O 228.595 -5.21139 -1.6455 0
M  V30 2531 H 225.689 -0.777188 -0.282679 0
M  V30 2532 H 228.235 -1.68763 0.17812 0
M  V30 2533 H 227.007 -3.91221 0.0788633 0
M  V30 2534 H 226.63 -3.63393 -1.61343 0
M  V30 2535 N 227.627 0.131896 -1.57047 0
M  V30 2536 C 228.867 0.847972 -1.85981 0
M  V30 2537 C 229.231 1.77655 -0.7282 0
M  V30 2538 O 230.432 2.53322 -0.898968 0
M  V30 2539 C 228.703 1.58919 -3.20124 0
M  V30 2540 S 230.262 2.34862 -3.70655 0
M  V30 2541 H 227.08 0.283273 -0.652133 0
M  V30 2542 H 229.682 0.107057 -1.95207 0
M  V30 2543 H 228.386 0.898771 -4.00438 0
M  V30 2544 H 227.917 2.37073 -3.13942 0
M  V30 2545 H 229.932 3.60344 -3.41126 0
M  V30 2546 N 229.106 1.52395 0.401703 0
M  V30 2547 C 230.353 1.66817 1.14796 0
M  V30 2548 C 230.681 0.401772 1.90305 0
M  V30 2549 O 229.936 -0.615487 1.85769 0
M  V30 2550 C 230.235 2.84578 2.16217 0
M  V30 2551 C 229.901 4.22513 1.5746 0
M  V30 2552 C 228.563 4.60029 1.41161 0
M  V30 2553 C 230.915 5.0844 1.14622 0
M  V30 2554 C 228.243 5.81144 0.80552 0
M  V30 2555 C 230.595 6.30167 0.55428 0
M  V30 2556 C 229.259 6.66426 0.378482 0
M  V30 2557 H 228.529 0.610428 0.420069 0
M  V30 2558 H 231.176 1.86512 0.434212 0
M  V30 2559 H 229.481 2.59248 2.93764 0
M  V30 2560 H 231.178 2.92933 2.73845 0
M  V30 2561 H 227.768 3.92953 1.71132 0
M  V30 2562 H 231.952 4.80034 1.26021 0
M  V30 2563 H 227.208 6.07855 0.657399 0
M  V30 2564 H 231.382 6.96071 0.213983 0
M  V30 2565 H 229.009 7.60143 -0.0932606 0
M  V30 2566 N 230.584 -0.659388 1.43143 0
M  V30 2567 C 231.532 -1.79374 1.4808 0
M  V30 2568 C 232.526 -1.65639 0.354988 0
M  V30 2569 O 233.732 -1.7206 0.528704 0
M  V30 2570 H 230.107 -0.591705 0.4641 0
M  V30 2571 H 232.078 -1.72329 2.43609 0
M  V30 2572 C 230.827 -3.17606 1.41499 0
M  V30 2573 H 230.15 -3.28809 2.27431 0
M  V30 2574 H 231.59 -3.96951 1.49015 0
M  V30 2575 C 230.049 -3.36642 0.131765 0
M  V30 2576 O 230.579 -3.93461 -0.809386 0
M  V30 2577 N 228.785 -2.90567 0.0439396 0
M  V30 2578 H 228.332 -2.44513 0.810619 0
M  V30 2579 H 228.29 -3.03681 -0.813969 0
M  V30 2580 N 232.062 -1.29571 -0.897171 0
M  V30 2581 C 233.302 -1.18959 -1.66217 0
M  V30 2582 C 233.666 0.254271 -1.90309 0
M  V30 2583 O 234.867 0.483407 -2.64417 0
M  V30 2584 C 233.138 -1.98302 -2.9734 0
M  V30 2585 S 234.697 -2.04253 -3.88364 0
M  V30 2586 H 231.515 -0.424137 -0.570639 0
M  V30 2587 H 234.117 -1.6389 -1.06585 0
M  V30 2588 H 232.821 -3.02342 -2.77521 0
M  V30 2589 H 232.352 -1.53986 -3.62011 0
M  V30 2590 H 234.367 -1.16105 -4.82425 0
M  V30 2591 N 233.54 1.10788 -1.12088 0
M  V30 2592 C 234.47 2.19083 -0.807755 0
M  V30 2593 C 235.451 1.6858 0.226859 0
M  V30 2594 O 236.636 1.93997 0.0888475 0
M  V30 2595 C 233.766 3.46344 -0.257576 0
M  V30 2596 C 232.72 4.101 -1.22483 0
M  V30 2597 C 232.046 5.32016 -0.535052 0
M  V30 2598 C 233.346 4.54236 -2.57811 0
M  V30 2599 H 235.04 2.45534 -1.71328 0
M  V30 2600 H 232.586 1.1801 -0.825205 0
M  V30 2601 H 234.539 4.21392 -0.0262679 0
M  V30 2602 H 233.263 3.19373 0.683278 0
M  V30 2603 H 231.922 3.37054 -1.44189 0
M  V30 2604 H 231.57 5.01319 0.410827 0
M  V30 2605 H 231.27 5.75625 -1.18024 0
M  V30 2606 H 232.794 6.09799 -0.312695 0
M  V30 2607 H 234.208 5.20575 -2.40155 0
M  V30 2608 H 232.605 5.08682 -3.18375 0
M  V30 2609 H 233.675 3.6734 -3.16528 0
M  V30 2610 N 235.018 0.912232 1.28515 0
M  V30 2611 C 236.429 0.591352 1.77087 0
M  V30 2612 C 236.78 -0.8933 1.74684 0
M  V30 2613 O 235.905 -1.69876 1.34056 0
M  V30 2614 C 236.5 1.06668 3.2157 0
M  V30 2615 C 235.059 0.79675 3.67871 0
M  V30 2616 C 234.206 1.23427 2.48316 0
M  V30 2617 H 237.157 1.09365 1.15 0
M  V30 2618 H 237.178 0.407455 3.78312 0
M  V30 2619 H 236.69 2.14726 3.23287 0
M  V30 2620 H 234.791 -0.270679 3.71616 0
M  V30 2621 H 234.904 1.40343 4.58084 0
M  V30 2622 H 233.268 0.653036 2.46186 0
M  V30 2623 H 234.051 2.32316 2.52753 0
M  V30 2624 N 236.496 -1.42363 0.676048 0
M  V30 2625 C 237.745 -2.00745 0.196037 0
M  V30 2626 C 238.058 -1.54083 -1.20489 0
M  V30 2627 O 239.264 -2.04891 -1.78134 0
M  V30 2628 C 237.72 -3.58651 0.299616 0
M  V30 2629 C 237.328 -4.143 1.70468 0
M  V30 2630 C 239.072 -4.24326 -0.121619 0
M  V30 2631 C 236.979 -5.64574 1.76096 0
M  V30 2632 H 235.909 -0.750787 0.0695301 0
M  V30 2633 H 238.56 -1.63072 0.841412 0
M  V30 2634 H 236.942 -3.93833 -0.413673 0
M  V30 2635 H 238.116 -3.90575 2.44515 0
M  V30 2636 H 236.431 -3.61081 2.07387 0
M  V30 2637 H 239.028 -5.34607 -0.0997362 0
M  V30 2638 H 239.371 -3.99897 -1.15708 0
M  V30 2639 H 239.904 -3.94108 0.540706 0
M  V30 2640 H 236.643 -5.93804 2.77628 0
M  V30 2641 H 236.163 -5.90286 1.06406 0
M  V30 2642 H 237.842 -6.29013 1.51496 0
M  V30 2643 N 237.974 -0.419461 -1.51915 0
M  V30 2644 C 238.937 0.389116 -2.25873 0
M  V30 2645 C 239.937 0.964924 -1.28631 0
M  V30 2646 O 241.127 0.842179 -1.52489 0
M  V30 2647 C 238.259 1.54874 -3.03689 0
M  V30 2648 H 239.452 -0.258799 -2.98781 0
M  V30 2649 H 237.005 -0.172209 -1.55348 0
M  V30 2650 H 237.74 2.23323 -2.35154 0
M  V30 2651 H 237.525 1.14223 -3.75094 0
M  V30 2652 H 239.015 2.12046 -3.59759 0
M  V30 2653 N 239.452 1.56882 -0.150215 0
M  V30 2654 C 240.415 2.1573 0.774157 0
M  V30 2655 C 241.415 1.0999 1.17298 0
M  V30 2656 O 242.605 1.35613 1.09338 0
M  V30 2657 C 239.737 2.72302 2.05096 0
M  V30 2658 H 240.93 2.98752 0.262201 0
M  V30 2659 H 238.483 1.55985 0.099248 0
M  V30 2660 H 239.218 1.92956 2.6065 0
M  V30 2661 H 239.003 3.49665 1.77416 0
M  V30 2662 H 240.493 3.17632 2.71109 0
M  V30 2663 N 240.93 -0.123565 1.57115 0
M  V30 2664 C 242.179 -0.830704 1.83799 0
M  V30 2665 C 242.492 -1.81259 0.735158 0
M  V30 2666 O 243.698 -2.56558 0.888278 0
M  V30 2667 C 242.154 -1.52802 3.25852 0
M  V30 2668 C 241.762 -0.587356 4.44133 0
M  V30 2669 C 243.506 -2.22056 3.61789 0
M  V30 2670 C 241.413 -1.28764 5.77212 0
M  V30 2671 H 240.343 -0.313967 0.685522 0
M  V30 2672 H 242.994 -0.0834359 1.8331 0
M  V30 2673 H 241.376 -2.32175 3.20797 0
M  V30 2674 H 242.55 0.172829 4.60476 0
M  V30 2675 H 240.865 -0.00201892 4.164 0
M  V30 2676 H 243.462 -2.75131 4.58483 0
M  V30 2677 H 243.805 -2.99644 2.88997 0
M  V30 2678 H 244.338 -1.49576 3.68608 0
M  V30 2679 H 241.077 -0.55314 6.53162 0
M  V30 2680 H 240.597 -2.01995 5.64764 0
M  V30 2681 H 242.276 -1.8221 6.20813 0
M  V30 2682 N 242.408 -1.52605 -0.393616 0
M  V30 2683 C 243.654 -1.67672 -1.14079 0
M  V30 2684 C 243.987 -0.413121 -1.89755 0
M  V30 2685 O 243.262 0.588952 -1.85369 0
M  V30 2686 C 243.545 -2.9088 -2.12276 0
M  V30 2687 C 243.398 -4.27329 -1.40394 0
M  V30 2688 C 244.717 -3.09628 -3.12759 0
M  V30 2689 H 241.836 -0.610168 -0.413356 0
M  V30 2690 H 244.478 -1.85193 -0.424696 0
M  V30 2691 H 242.628 -2.76073 -2.73342 0
M  V30 2692 H 244.3 -4.53894 -0.82327 0
M  V30 2693 H 242.543 -4.2802 -0.705801 0
M  V30 2694 H 243.214 -5.09615 -2.12123 0
M  V30 2695 H 245.69 -3.23436 -2.61779 0
M  V30 2696 H 244.566 -3.97322 -3.78717 0
M  V30 2697 H 244.827 -2.23637 -3.81365 0
M  V30 2698 N 243.887 0.651787 -1.4349 0
M  V30 2699 C 245.164 1.40909 -1.35661 0
M  V30 2700 C 245.544 2.11099 -0.00511733 0
M  V30 2701 O 244.892 2.04892 1.0115 0
M  V30 2702 C 245.102 2.3926 -2.54078 0
M  V30 2703 C 246.45 3.03217 -2.97228 0
M  V30 2704 O 247.474 2.49588 -2.54135 0
M  V30 2705 O 246.333 4.00455 -3.71885 0
M  V30 2706 H 243.427 0.629625 -0.536191 0
M  V30 2707 H 245.973 0.678575 -1.55542 0
M  V30 2708 H 244.745 1.86352 -3.44076 0
M  V30 2709 H 244.368 3.1976 -2.36303 0
M  V30 2710 N 245.365 1.30045 0.890287 0
M  V30 2711 C 246.275 1.17885 2.02831 0
M  V30 2712 C 247.291 0.0999609 1.73713 0
M  V30 2713 O 248.467 0.313867 1.98939 0
M  V30 2714 C 245.532 0.866079 3.35708 0
M  V30 2715 C 244.593 2.02979 3.78283 0
M  V30 2716 C 243.826 1.73184 5.0482 0
M  V30 2717 O 244.049 0.657237 5.66601 0
M  V30 2718 O 242.983 2.58267 5.43674 0
M  V30 2719 H 246.809 2.13474 2.16015 0
M  V30 2720 H 244.394 1.09587 1.01543 0
M  V30 2721 H 246.276 0.706623 4.15433 0
M  V30 2722 H 244.951 -0.0599443 3.23644 0
M  V30 2723 H 243.858 2.24454 2.99285 0
M  V30 2724 H 245.191 2.93734 3.94944 0
M  V30 2725 N 246.843 -1.10192 1.12674 0
M  V30 2726 C 247.79 -2.16606 0.796906 0
M  V30 2727 C 248.76 -1.64394 -0.237476 0
M  V30 2728 O 249.945 -1.90474 -0.111484 0
M  V30 2729 C 247.085 -3.44116 0.26043 0
M  V30 2730 C 246.198 -4.10268 1.35293 0
M  V30 2731 C 245.333 -5.25507 0.775621 0
M  V30 2732 C 244.372 -5.83567 1.84706 0
M  V30 2733 N 243.509 -6.90179 1.28829 0
M  V30 2734 H 248.349 -2.44163 1.70846 0
M  V30 2735 H 245.886 -1.19846 0.85295 0
M  V30 2736 H 247.844 -4.17143 -0.0686814 0
M  V30 2737 H 246.474 -3.16901 -0.614274 0
M  V30 2738 H 245.526 -3.35184 1.79877 0
M  V30 2739 H 246.838 -4.4946 2.16303 0
M  V30 2740 H 245.992 -6.05398 0.397327 0
M  V30 2741 H 244.731 -4.87656 -0.0656581 0
M  V30 2742 H 243.736 -5.02344 2.23452 0
M  V30 2743 H 244.961 -6.23482 2.69161 0
M  V30 2744 H 242.907 -6.54322 0.468881 0
M  V30 2745 H 242.824 -7.28097 2.03497 0
M  V30 2746 H 244.092 -7.73844 0.937311 0
M  V30 2747 N 248.321 -0.919034 -1.28029 0
M  V30 2748 C 249.57 -0.550802 -1.94034 0
M  V30 2749 C 249.883 0.910877 -1.73096 0
M  V30 2750 O 251.089 1.3875 -2.33368 0
M  V30 2751 C 249.545 -0.934249 -3.47563 0
M  V30 2752 C 249.153 -2.41602 -3.7727 0
M  V30 2753 C 250.897 -0.636854 -4.19696 0
M  V30 2754 C 248.804 -2.73932 -5.24133 0
M  V30 2755 H 247.734 -0.202273 -0.726362 0
M  V30 2756 H 250.385 -1.11867 -1.45458 0
M  V30 2757 H 248.767 -0.295115 -3.94899 0
M  V30 2758 H 249.941 -3.10233 -3.40723 0
M  V30 2759 H 248.256 -2.68441 -3.18321 0
M  V30 2760 H 250.853 -0.855005 -5.2782 0
M  V30 2761 H 251.196 0.425575 -4.14119 0
M  V30 2762 H 251.729 -1.23469 -3.78154 0
M  V30 2763 H 248.468 -3.79049 -5.34792 0
M  V30 2764 H 247.988 -2.09942 -5.61858 0
M  V30 2765 H 249.667 -2.61215 -5.91925 0
M  V30 2766 N 249.799 1.42003 -0.683588 0
M  V30 2767 C 251.046 2.01413 -0.209514 0
M  V30 2768 C 251.374 1.54088 1.1869 0
M  V30 2769 O 250.629 0.737591 1.81268 0
M  V30 2770 C 250.928 3.56827 -0.202357 0
M  V30 2771 C 250.594 4.23617 -1.54464 0
M  V30 2772 C 249.256 4.41577 -1.91215 0
M  V30 2773 C 251.608 4.61178 -2.42826 0
M  V30 2774 C 248.936 4.9437 -3.15935 0
M  V30 2775 C 251.288 5.15355 -3.66867 0
M  V30 2776 C 249.952 5.31528 -4.03776 0
M  V30 2777 H 249.222 0.737023 -0.0766668 0
M  V30 2778 H 251.869 1.70067 -0.880312 0
M  V30 2779 H 250.174 3.87892 0.551969 0
M  V30 2780 H 251.871 4.00588 0.181793 0
M  V30 2781 H 248.461 4.10004 -1.24877 0
M  V30 2782 H 252.645 4.46968 -2.15717 0
M  V30 2783 H 247.901 5.05076 -3.44541 0
M  V30 2784 H 252.075 5.43402 -4.35531 0
M  V30 2785 H 249.702 5.72199 -5.00492 0
M  V30 2786 N 251.277 0.427512 1.51691 0
M  V30 2787 C 252.517 -0.141524 2.03909 0
M  V30 2788 C 252.881 -1.40811 1.30523 0
M  V30 2789 O 254.082 -2.05676 1.73063 0
M  V30 2790 C 252.353 -0.364962 3.55532 0
M  V30 2791 S 253.912 -0.898812 4.29496 0
M  V30 2792 H 250.73 -0.0364542 0.710065 0
M  V30 2793 H 253.332 0.584659 1.86553 0
M  V30 2794 H 252.036 0.56336 4.06515 0
M  V30 2795 H 251.567 -1.1185 3.77164 0
M  V30 2796 H 253.582 -2.17747 4.45871 0
M  V30 2797 N 252.755 -1.56801 0.158532 0
M  V30 2798 C 253.995 -1.98383 -0.49229 0
M  V30 2799 C 254.359 -1.04184 -1.61275 0
M  V30 2800 O 255.56 -1.34856 -2.32524 0
M  V30 2801 C 253.831 -3.4385 -0.974766 0
M  V30 2802 S 255.39 -4.07459 -1.62857 0
M  V30 2803 H 252.208 -0.693041 -0.158794 0
M  V30 2804 H 254.81 -1.93856 0.252974 0
M  V30 2805 H 253.514 -4.10131 -0.148688 0
M  V30 2806 H 253.045 -3.52115 -1.75438 0
M  V30 2807 H 255.06 -4.01458 -2.91627 0
M  V30 2808 N 254.233 0.115231 -1.57178 0
M  V30 2809 C 255.183 1.14707 -1.97044 0
M  V30 2810 C 256.167 1.36866 -0.845957 0
M  V30 2811 O 257.359 1.37895 -1.10968 0
M  V30 2812 C 254.488 2.47266 -2.38148 0
M  V30 2813 C 253.574 2.28566 -3.57237 0
M  V30 2814 N 253.965 1.79685 -4.72807 0
M  V30 2815 C 252.263 2.59208 -3.62943 0
M  V30 2816 C 252.964 1.74781 -5.54821 0
M  V30 2817 N 251.94 2.19264 -4.97417 0
M  V30 2818 H 255.742 0.761754 -2.83857 0
M  V30 2819 H 253.256 0.322928 -1.59157 0
M  V30 2820 H 255.253 3.219 -2.64927 0
M  V30 2821 H 253.913 2.86552 -1.52702 0
M  V30 2822 H 254.924 1.49177 -4.9595 0
M  V30 2823 H 251.601 3.02154 -2.88113 0
M  V30 2824 H 252.991 1.38212 -6.57531 0
M  V30 2825 N 255.711 1.52812 0.385517 0
M  V30 2826 C 256.959 1.67694 1.12797 0
M  V30 2827 C 257.28 0.421115 1.90399 0
M  V30 2828 O 256.55 -0.564551 1.87589 0
M  V30 2829 H 255.13 0.618155 0.419396 0
M  V30 2830 H 257.792 1.89938 0.436972 0
M  V30 2831 H 256.888 2.52896 1.82894 0
M  V30 2832 N 257.189 -0.644168 1.43834 0
M  V30 2833 C 258.437 -1.40117 1.45642 0
M  V30 2834 C 258.758 -1.94814 0.0852413 0
M  V30 2835 O 258.028 -1.74988 -0.880688 0
M  V30 2836 H 256.608 -0.52005 0.536243 0
M  V30 2837 H 259.27 -0.7591 1.7951 0
M  V30 2838 H 258.366 -2.23902 2.17427 0
M  V30 2839 N 258.668 -1.30515 -0.883378 0
M  V30 2840 C 259.598 -1.19607 -2.00541 0
M  V30 2841 C 260.579 -0.086346 -1.69881 0
M  V30 2842 O 261.764 -0.268654 -1.92333 0
M  V30 2843 C 258.894 -0.888758 -3.35736 0
M  V30 2844 C 257.848 -1.95659 -3.8066 0
M  V30 2845 C 257.174 -1.50224 -5.13164 0
M  V30 2846 C 258.474 -3.36788 -3.99213 0
M  V30 2847 H 260.168 -2.13476 -2.09925 0
M  V30 2848 H 257.714 -1.02775 -1.00863 0
M  V30 2849 H 259.667 -0.799094 -4.13754 0
M  V30 2850 H 258.391 0.0856125 -3.26488 0
M  V30 2851 H 257.05 -2.03591 -3.04871 0
M  V30 2852 H 256.698 -0.516092 -5.00345 0
M  V30 2853 H 256.398 -2.2165 -5.44192 0
M  V30 2854 H 257.922 -1.42639 -5.93706 0
M  V30 2855 H 259.336 -3.31605 -4.67665 0
M  V30 2856 H 257.733 -4.06314 -4.41621 0
M  V30 2857 H 258.803 -3.78561 -3.03017 0
M  V30 2858 N 260.146 1.09593 -1.13257 0
M  V30 2859 C 261.371 1.8604 -0.916732 0
M  V30 2860 C 261.796 1.80504 0.529146 0
M  V30 2861 O 261.154 1.18127 1.37534 0
M  V30 2862 C 261.202 3.32017 -1.40703 0
M  V30 2863 O 260.306 4.08141 -0.591153 0
M  V30 2864 H 259.647 0.576943 -0.328683 0
M  V30 2865 H 262.177 1.38405 -1.50682 0
M  V30 2866 H 262.187 3.82865 -1.4099 0
M  V30 2867 H 260.862 3.35361 -2.45979 0
M  V30 2868 H 259.439 3.67084 -0.656005 0
M  V30 2869 N 261.624 0.925811 1.2754 0
M  V30 2870 C 263.035 0.610102 1.7645 0
M  V30 2871 C 263.386 -0.874723 1.75622 0
M  V30 2872 O 262.511 -1.68444 1.35851 0
M  V30 2873 C 263.106 1.10073 3.20421 0
M  V30 2874 C 261.665 0.835723 3.67005 0
M  V30 2875 C 260.812 1.26054 2.46993 0
M  V30 2876 H 263.763 1.10579 1.13833 0
M  V30 2877 H 263.784 0.447557 3.77859 0
M  V30 2878 H 263.296 2.18143 3.20991 0
M  V30 2879 H 261.397 -0.231249 3.71882 0
M  V30 2880 H 261.51 1.45193 4.56569 0
M  V30 2881 H 259.874 0.679111 2.45479 0
M  V30 2882 H 260.657 2.34984 2.50275 0
M  V30 2883 N 263.102 -1.41638 0.69111 0
M  V30 2884 C 264.379 -1.95036 0.148421 0
M  V30 2885 C 264.759 -1.63072 -1.34055 0
M  V30 2886 O 264.107 -0.93538 -2.08478 0
M  V30 2887 C 264.317 -3.46279 0.434951 0
M  V30 2888 C 265.665 -4.23069 0.360275 0
M  V30 2889 O 266.689 -3.54277 0.369613 0
M  V30 2890 O 265.548 -5.45583 0.316534 0
M  V30 2891 H 262.642 -0.826908 0.0123654 0
M  V30 2892 H 265.188 -1.5138 0.766963 0
M  V30 2893 H 263.96 -3.6281 1.46576 0
M  V30 2894 H 263.583 -3.97019 -0.214787 0
M  V30 2895 N 264.58 -0.43555 -1.51462 0
M  V30 2896 C 265.51 0.367376 -2.30592 0
M  V30 2897 C 266.491 1.02263 -1.35928 0
M  V30 2898 O 267.676 1.02661 -1.64847 0
M  V30 2899 C 264.806 1.46983 -3.14664 0
M  V30 2900 C 263.76 0.938161 -4.17591 0
M  V30 2901 C 263.086 2.13622 -4.90173 0
M  V30 2902 C 264.386 -0.0261621 -5.22293 0
M  V30 2903 H 266.08 -0.292969 -2.97963 0
M  V30 2904 H 263.626 -0.14234 -1.43295 0
M  V30 2905 H 265.579 2.03873 -3.688 0
M  V30 2906 H 264.303 2.15843 -2.4511 0
M  V30 2907 H 262.962 0.391481 -3.64504 0
M  V30 2908 H 262.61 2.81098 -4.17124 0
M  V30 2909 H 262.31 1.78688 -5.59772 0
M  V30 2910 H 263.834 2.7107 -5.47132 0
M  V30 2911 H 265.248 0.452384 -5.71512 0
M  V30 2912 H 263.645 -0.287992 -5.99409 0
M  V30 2913 H 264.715 -0.963391 -4.75233 0
M  V30 2914 N 266.058 1.56714 -0.166846 0
M  V30 2915 C 266.99 2.14914 0.796537 0
M  V30 2916 C 268.003 1.10357 1.19688 0
M  V30 2917 O 269.192 1.37561 1.13751 0
M  V30 2918 C 266.292 2.67326 2.08303 0
M  V30 2919 C 265.465 3.96493 1.84696 0
M  V30 2920 C 264.524 4.34014 2.97521 0
M  V30 2921 O 263.55 5.01973 2.6835 0
M  V30 2922 N 264.752 3.95208 4.25196 0
M  V30 2923 H 267.517 2.98205 0.299006 0
M  V30 2924 H 265.078 1.61892 0.0160839 0
M  V30 2925 H 267.07 2.89428 2.82867 0
M  V30 2926 H 265.64 1.88649 2.4926 0
M  V30 2927 H 264.86 3.82814 0.940602 0
M  V30 2928 H 266.148 4.8086 1.66285 0
M  V30 2929 H 265.546 3.40487 4.51758 0
M  V30 2930 H 264.103 4.2232 4.96477 0
M  V30 2931 N 267.536 -0.106894 1.57237 0
M  V30 2932 C 268.761 -0.830287 1.90055 0
M  V30 2933 C 269.186 -1.72064 0.75998 0
M  V30 2934 O 268.544 -1.78982 -0.288991 0
M  V30 2935 C 268.592 -1.6295 3.21683 0
M  V30 2936 O 267.696 -2.73748 3.08441 0
M  V30 2937 H 267.037 -0.228855 0.623315 0
M  V30 2938 H 269.567 -0.085658 2.04421 0
M  V30 2939 H 269.577 -2.01621 3.54701 0
M  V30 2940 H 268.252 -0.975989 4.04286 0
M  V30 2941 H 266.829 -2.38192 2.86913 0
M  V30 2942 N 269.014 -1.53014 -0.377408 0
M  V30 2943 C 269.947 -1.73382 -1.48371 0
M  V30 2944 C 270.925 -0.581879 -1.51832 0
M  V30 2945 O 272.109 -0.81307 -1.70063 0
M  V30 2946 C 269.236 -1.80192 -2.8679 0
M  V30 2947 C 268.282 -3.02056 -3.01105 0
M  V30 2948 S 269.115 -4.61811 -2.71093 0
M  V30 2949 C 270.271 -4.71453 -4.11683 0
M  V30 2950 H 270.504 -2.66946 -1.30872 0
M  V30 2951 H 268.037 -1.43453 -0.571012 0
M  V30 2952 H 269.995 -1.84802 -3.6655 0
M  V30 2953 H 268.656 -0.877008 -3.01608 0
M  V30 2954 H 267.849 -3.03396 -4.02451 0
M  V30 2955 H 267.451 -2.95498 -2.29253 0
M  V30 2956 H 269.743 -4.50781 -5.0577 0
M  V30 2957 H 270.686 -5.73487 -4.15353 0
M  V30 2958 H 271.094 -4.00189 -3.98132 0
M  V30 2959 N 270.492 0.636531 -1.44174 0
M  V30 2960 C 271.402 1.77754 -1.53103 0
M  V30 2961 C 272.418 1.68928 -0.417034 0
M  V30 2962 O 273.594 1.89801 -0.6736 0
M  V30 2963 C 270.659 3.14115 -1.46741 0
M  V30 2964 C 269.72 3.34612 -2.68948 0
M  V30 2965 C 268.953 4.64467 -2.6288 0
M  V30 2966 O 269.176 5.44919 -1.68581 0
M  V30 2967 O 268.11 4.87049 -3.53648 0
M  V30 2968 H 271.936 1.73174 -2.49489 0
M  V30 2969 H 269.521 0.79709 -1.2636 0
M  V30 2970 H 271.403 3.95412 -1.45696 0
M  V30 2971 H 270.078 3.19249 -0.534975 0
M  V30 2972 H 268.985 2.53014 -2.75562 0
M  V30 2973 H 270.318 3.34336 -3.61221 0
M  V30 2974 N 271.97 1.30982 0.876444 0
M  V30 2975 C 272.902 1.13902 1.98894 0
M  V30 2976 C 273.915 0.0798815 1.62604 0
M  V30 2977 O 275.104 0.326743 1.75484 0
M  V30 2978 C 272.204 0.716699 3.31235 0
M  V30 2979 C 271.377 1.85945 3.95908 0
M  V30 2980 C 270.436 1.42426 5.06558 0
M  V30 2981 O 269.462 2.13287 5.27729 0
M  V30 2982 N 270.664 0.308025 5.79682 0
M  V30 2983 H 273.429 2.09724 2.14094 0
M  V30 2984 H 270.99 1.2323 1.05004 0
M  V30 2985 H 272.982 0.408403 4.02634 0
M  V30 2986 H 271.552 -0.149719 3.12241 0
M  V30 2987 H 270.772 2.33541 3.17573 0
M  V30 2988 H 272.06 2.62503 4.35855 0
M  V30 2989 H 271.458 -0.282241 5.64995 0
M  V30 2990 H 270.015 0.0592282 6.51773 0
M  V30 2991 N 273.449 -1.08991 1.13837 0
M  V30 2992 C 274.698 -1.80631 0.897509 0
M  V30 2993 C 275.011 -1.86872 -0.57777 0
M  V30 2994 O 276.217 -2.54866 -0.935701 0
M  V30 2995 C 274.673 -3.24517 1.55618 0
M  V30 2996 C 274.281 -3.26529 3.0673 0
M  V30 2997 C 276.025 -4.00882 1.3962 0
M  V30 2998 C 273.932 -4.64965 3.65461 0
M  V30 2999 H 272.862 -0.67691 0.332129 0
M  V30 3000 H 275.513 -1.2246 1.3666 0
M  V30 3001 H 273.895 -3.82778 1.01476 0
M  V30 3002 H 275.069 -2.78008 3.67489 0
M  V30 3003 H 273.384 -2.63656 3.22296 0
M  V30 3004 H 275.981 -5.03167 1.80906 0
M  V30 3005 H 276.324 -4.14896 0.341578 0
M  V30 3006 H 276.857 -3.49075 1.90766 0
M  V30 3007 H 273.596 -4.56153 4.70749 0
M  V30 3008 H 273.116 -5.13792 3.09481 0
M  V30 3009 H 274.795 -5.3394 3.654 0
M  V30 3010 N 274.927 -0.932562 -1.27047 0
M  V30 3011 C 276.343 -0.633544 -1.46487 0
M  V30 3012 C 276.543 0.815746 -1.84249 0
M  V30 3013 O 275.599 1.59319 -1.95892 0
M  V30 3014 C 276.912 -1.58758 -2.55375 0
M  V30 3015 C 278.46 -1.59634 -2.69232 0
M  V30 3016 C 278.935 -2.53747 -3.81283 0
M  V30 3017 N 280.426 -2.51982 -3.88664 0
M  V30 3018 C 281.161 -3.21491 -4.74796 0
M  V30 3019 N 280.657 -4.00395 -5.65381 0
M  V30 3020 N 282.45 -3.10485 -4.68568 0
M  V30 3021 H 274.601 -1.86946 -1.00821 0
M  V30 3022 H 276.864 -0.802897 -0.504044 0
M  V30 3023 H 276.57 -2.62172 -2.34432 0
M  V30 3024 H 276.444 -1.33301 -3.52861 0
M  V30 3025 H 278.831 -0.569488 -2.89553 0
M  V30 3026 H 278.912 -1.89142 -1.72218 0
M  V30 3027 H 278.556 -3.56545 -3.61715 0
M  V30 3028 H 278.486 -2.21532 -4.77735 0
M  V30 3029 H 280.977 -1.94681 -3.23895 0
M  V30 3030 H 281.29 -4.50406 -6.27976 0
M  V30 3031 H 279.635 -4.04498 -5.65161 0
M  V30 3032 H 282.826 -2.48331 -3.96799 0
M  V30 3033 H 282.999 -3.64925 -5.35475 0
M  V30 3034 N 276.405 1.4127 -0.698611 0
M  V30 3035 C 277.821 1.55241 -0.370462 0
M  V30 3036 C 278.021 1.67351 1.12231 0
M  V30 3037 O 277.077 1.65363 1.90818 0
M  V30 3038 C 278.39 2.78997 -1.12165 0
M  V30 3039 C 279.938 2.92797 -1.1063 0
M  V30 3040 C 280.413 4.19445 -1.8393 0
M  V30 3041 N 281.904 4.26409 -1.80914 0
M  V30 3042 C 282.639 5.23271 -2.34467 0
M  V30 3043 N 282.135 6.26145 -2.96504 0
M  V30 3044 N 283.928 5.15232 -2.24706 0
M  V30 3045 H 276.079 1.31654 -1.66676 0
M  V30 3046 H 278.342 0.635393 -0.703548 0
M  V30 3047 H 278.048 2.76268 -2.17644 0
M  V30 3048 H 277.922 3.70606 -0.702209 0
M  V30 3049 H 280.309 2.95039 -0.0597713 0
M  V30 3050 H 280.39 2.02353 -1.56483 0
M  V30 3051 H 280.034 4.17964 -2.88563 0
M  V30 3052 H 279.964 5.08866 -1.35509 0
M  V30 3053 H 282.455 3.527 -1.35687 0
M  V30 3054 H 282.768 6.96451 -3.34927 0
M  V30 3055 H 281.113 6.26638 -3.00583 0
M  V30 3056 H 284.304 4.33789 -1.7591 0
M  V30 3057 H 284.477 5.90552 -2.66745 0
M  V30 3058 N 277.883 0.443576 1.51229 0
M  V30 3059 C 279.132 -0.122332 2.01329 0
M  V30 3060 C 279.445 -1.43237 1.33201 0
M  V30 3061 O 280.651 -2.0816 1.74304 0
M  V30 3062 C 279.107 -0.268551 3.58897 0
M  V30 3063 C 278.715 1.03142 4.35965 0
M  V30 3064 C 280.459 -0.787894 4.17124 0
M  V30 3065 C 278.366 0.850504 5.85252 0
M  V30 3066 H 277.296 -0.0494929 0.752374 0
M  V30 3067 H 279.947 0.574289 1.74282 0
M  V30 3068 H 278.329 -1.02832 3.82415 0
M  V30 3069 H 279.503 1.80001 4.24189 0
M  V30 3070 H 277.818 1.47977 3.89219 0
M  V30 3071 H 280.415 -0.939841 5.26375 0
M  V30 3072 H 280.758 -1.77201 3.76703 0
M  V30 3073 H 281.291 -0.0862669 3.97706 0
M  V30 3074 H 278.03 1.80718 6.30096 0
M  V30 3075 H 277.55 0.121825 5.99676 0
M  V30 3076 H 279.229 0.506163 6.45017 0
M  V30 3077 N 279.361 -1.56624 0.175154 0
M  V30 3078 C 280.294 -2.14 -0.792412 0
M  V30 3079 C 281.272 -1.07114 -1.22333 0
M  V30 3080 O 282.456 -1.35112 -1.31442 0
M  V30 3081 C 279.583 -2.68268 -2.0676 0
M  V30 3082 C 278.629 -3.87562 -1.7804 0
M  V30 3083 S 279.462 -5.27074 -0.946222 0
M  V30 3084 C 280.618 -5.8475 -2.23199 0
M  V30 3085 H 280.851 -2.95736 -0.304588 0
M  V30 3086 H 278.384 -1.54349 -0.0395705 0
M  V30 3087 H 280.342 -3.00182 -2.80002 0
M  V30 3088 H 279.003 -1.86612 -2.52656 0
M  V30 3089 H 278.196 -4.23874 -2.72666 0
M  V30 3090 H 277.798 -3.56555 -1.12891 0
M  V30 3091 H 280.09 -5.97898 -3.18629 0
M  V30 3092 H 281.033 -6.81756 -1.91349 0
M  V30 3093 H 281.441 -5.13198 -2.35134 0
M  V30 3094 N 280.839 0.0985539 -1.57292 0
M  V30 3095 C 282.255 0.45267 -1.53046 0
M  V30 3096 C 282.455 1.80713 -0.891342 0
M  V30 3097 O 281.511 2.4785 -0.482375 0
M  V30 3098 C 282.824 0.418341 -2.97776 0
M  V30 3099 C 284.372 0.500443 -3.08973 0
M  V30 3100 C 284.847 0.496297 -4.55303 0
M  V30 3101 N 286.338 0.557151 -4.59837 0
M  V30 3102 C 287.073 0.575726 -5.70502 0
M  V30 3103 N 286.569 0.550714 -6.90608 0
M  V30 3104 N 288.362 0.620277 -5.58667 0
M  V30 3105 H 280.513 -0.788673 -1.97215 0
M  V30 3106 H 282.776 -0.293188 -0.901524 0
M  V30 3107 H 282.482 -0.509659 -3.47988 0
M  V30 3108 H 282.356 1.2386 -3.56284 0
M  V30 3109 H 284.743 1.41886 -2.58751 0
M  V30 3110 H 284.824 -0.347894 -2.53423 0
M  V30 3111 H 284.468 -0.418162 -5.06176 0
M  V30 3112 H 284.398 1.3618 -5.08687 0
M  V30 3113 H 286.889 0.581816 -3.73394 0
M  V30 3114 H 287.202 0.568075 -7.70709 0
M  V30 3115 H 285.547 0.517816 -6.93068 0
M  V30 3116 H 288.738 0.637322 -4.63741 0
M  V30 3117 H 288.911 0.631283 -6.44918 0
M  V30 3118 N 282.317 1.53212 0.369288 0
M  V30 3119 C 283.728 1.60943 0.946276 0
M  V30 3120 C 284.079 0.47452 1.90375 0
M  V30 3121 O 283.204 -0.399597 2.12679 0
M  V30 3122 C 283.799 2.91715 1.72302 0
M  V30 3123 C 282.358 3.01792 2.24941 0
M  V30 3124 C 281.505 2.56211 1.06072 0
M  V30 3125 H 284.456 1.58007 0.148198 0
M  V30 3126 H 284.477 2.79309 2.58393 0
M  V30 3127 H 283.989 3.74295 1.0259 0
M  V30 3128 H 282.09 2.23791 2.97906 0
M  V30 3129 H 282.203 4.06803 2.53077 0
M  V30 3130 H 280.567 2.10998 1.4266 0
M  V30 3131 H 281.35 3.41206 0.378639 0
M  V30 3132 N 283.795 -0.628877 1.44509 0
M  V30 3133 C 285.023 -1.41554 1.50897 0
M  V30 3134 C 285.438 -1.8832 0.134564 0
M  V30 3135 O 284.795 -1.60969 -0.859965 0
M  V30 3136 C 284.846 -2.63435 2.47556 0
M  V30 3137 O 284.567 -2.18619 3.79654 0
M  V30 3138 C 286.068 -3.56537 2.63431 0
M  V30 3139 H 283.288 -0.434044 0.511709 0
M  V30 3140 H 285.832 -0.768895 1.89495 0
M  V30 3141 H 283.987 -3.24187 2.12089 0
M  V30 3142 H 284.401 -2.97652 4.31861 0
M  V30 3143 H 285.875 -4.38657 3.35088 0
M  V30 3144 H 286.352 -4.05493 1.68738 0
M  V30 3145 H 286.958 -3.01653 2.9981 0
M  V30 3146 N 285.273 -1.31445 -0.869486 0
M  V30 3147 C 286.55 -1.11795 -1.60503 0
M  V30 3148 C 286.93 0.327168 -2.08549 0
M  V30 3149 O 286.278 1.32135 -1.8642 0
M  V30 3150 C 286.488 -2.13258 -2.76265 0
M  V30 3151 C 287.836 -2.45805 -3.46215 0
M  V30 3152 O 288.86 -2.11688 -2.86473 0
M  V30 3153 O 287.719 -3.04228 -4.5399 0
M  V30 3154 H 284.813 -0.430421 -0.706163 0
M  V30 3155 H 287.359 -1.42925 -0.914907 0
M  V30 3156 H 286.131 -3.10461 -2.3818 0
M  V30 3157 H 285.754 -1.83035 -3.52964 0
M  V30 3158 N 286.751 1.08385 -1.14413 0
M  V30 3159 C 287.997 1.81044 -0.913834 0
M  V30 3160 C 288.33 1.86004 0.558209 0
M  V30 3161 O 287.605 1.33606 1.4135 0
M  V30 3162 C 287.888 3.26648 -1.51569 0
M  V30 3163 C 287.741 3.29895 -3.0576 0
M  V30 3164 C 289.06 4.23629 -1.19273 0
M  V30 3165 H 286.179 0.65727 -0.333414 0
M  V30 3166 H 288.821 1.26896 -1.41412 0
M  V30 3167 H 286.971 3.72889 -1.09023 0
M  V30 3168 H 288.643 2.91977 -3.57137 0
M  V30 3169 H 286.886 2.69163 -3.40197 0
M  V30 3170 H 287.557 4.32516 -3.42977 0
M  V30 3171 H 290.033 3.85727 -1.56057 0
M  V30 3172 H 288.909 5.23822 -1.64017 0
M  V30 3173 H 289.17 4.41968 -0.108068 0
M  V30 3174 N 288.23 0.939286 1.26551 0
M  V30 3175 C 289.641 0.628782 1.75793 0
M  V30 3176 C 289.992 -0.856046 1.7654 0
M  V30 3177 O 289.117 -1.66994 1.3763 0
M  V30 3178 C 289.712 1.13465 3.19235 0
M  V30 3179 C 288.271 0.874601 3.66098 0
M  V30 3180 C 287.418 1.28667 2.45642 0
M  V30 3181 H 290.369 1.1178 1.12654 0
M  V30 3182 H 290.39 0.487609 3.77363 0
M  V30 3183 H 289.902 2.21535 3.1866 0
M  V30 3184 H 288.003 -0.191793 3.72106 0
M  V30 3185 H 288.116 1.50028 4.55004 0
M  V30 3186 H 286.48 0.705109 2.44745 0
M  V30 3187 H 287.263 2.37625 2.47769 0
M  V30 3188 N 289.708 -1.40897 0.706093 0
M  V30 3189 C 290.985 -1.94868 0.169099 0
M  V30 3190 C 291.365 -1.64485 -1.32318 0
M  V30 3191 O 290.713 -0.95744 -2.07474 0
M  V30 3192 C 290.923 -3.45798 0.471654 0
M  V30 3193 C 292.271 -4.22663 0.405127 0
M  V30 3194 O 293.295 -3.53865 0.407168 0
M  V30 3195 O 292.154 -5.45216 0.374383 0
M  V30 3196 H 289.248 -0.82673 0.0211352 0
M  V30 3197 H 291.794 -1.50558 0.782976 0
M  V30 3198 H 290.566 -3.61235 1.50416 0
M  V30 3199 H 290.189 -3.97225 -0.172666 0
M  V30 3200 N 291.186 -0.45159 -1.50991 0
M  V30 3201 C 292.118 0.388634 -2.25881 0
M  V30 3202 C 293.131 0.974041 -1.30446 0
M  V30 3203 O 294.32 0.865758 -1.56099 0
M  V30 3204 C 291.42 1.5571 -3.01011 0
M  V30 3205 C 290.593 1.08801 -4.23652 0
M  V30 3206 C 289.652 2.12825 -4.8124 0
M  V30 3207 O 288.678 1.71678 -5.42693 0
M  V30 3208 N 289.88 3.45453 -4.66522 0
M  V30 3209 H 292.645 -0.25329 -2.98628 0
M  V30 3210 H 290.206 -0.281268 -1.59438 0
M  V30 3211 H 292.198 2.24952 -3.3642 0
M  V30 3212 H 290.768 2.10409 -2.31186 0
M  V30 3213 H 289.988 0.22215 -3.93574 0
M  V30 3214 H 291.276 0.752213 -5.03209 0
M  V30 3215 H 290.674 3.81605 -4.17605 0
M  V30 3216 H 289.231 4.10549 -5.06254 0
M  V30 3217 N 292.664 1.56529 -0.183458 0
M  V30 3218 C 293.912 1.96855 0.457452 0
M  V30 3219 C 294.233 1.07104 1.62953 0
M  V30 3220 O 293.503 0.139887 1.954 0
M  V30 3221 H 292.083 0.72693 0.171992 0
M  V30 3222 H 294.745 1.93056 -0.267476 0
M  V30 3223 H 293.841 3.01423 0.809368 0
M  V30 3224 N 294.142 -0.090211 1.57342 0
M  V30 3225 C 295.072 -1.10976 2.05443 0
M  V30 3226 C 296.053 -1.41482 0.944284 0
M  V30 3227 O 297.238 -1.51428 1.21586 0
M  V30 3228 C 294.368 -2.42831 2.48295 0
M  V30 3229 C 293.322 -2.26721 3.63018 0
M  V30 3230 C 292.648 -3.63796 3.91863 0
M  V30 3231 C 293.948 -1.7037 4.93732 0
M  V30 3232 H 295.642 -0.709564 2.9087 0
M  V30 3233 H 293.188 -0.339874 1.39932 0
M  V30 3234 H 295.141 -3.14431 2.80555 0
M  V30 3235 H 293.865 -2.84795 1.59873 0
M  V30 3236 H 292.524 -1.57565 3.31012 0
M  V30 3237 H 292.172 -4.03297 3.00601 0
M  V30 3238 H 291.872 -3.53861 4.69101 0
M  V30 3239 H 293.396 -4.36855 4.26603 0
M  V30 3240 H 294.81 -2.31816 5.24342 0
M  V30 3241 H 293.207 -1.71181 5.75167 0
M  V30 3242 H 294.277 -0.663542 4.80339 0
M  V30 3243 N 295.62 -1.53406 -0.361157 0
M  V30 3244 C 296.55 -1.83136 -1.44857 0
M  V30 3245 C 297.531 -0.685174 -1.5569 0
M  V30 3246 O 298.716 -0.93544 -1.70186 0
M  V30 3247 C 295.846 -2.02522 -2.82138 0
M  V30 3248 C 294.8 -3.18302 -2.86126 0
M  V30 3249 C 294.126 -3.22989 -4.26125 0
M  V30 3250 C 295.426 -4.56796 -2.53248 0
M  V30 3251 H 297.12 -2.74201 -1.20226 0
M  V30 3252 H 294.666 -1.31938 -0.576922 0
M  V30 3253 H 296.619 -2.21904 -3.58241 0
M  V30 3254 H 295.343 -1.08172 -3.08166 0
M  V30 3255 H 294.002 -2.98747 -2.12475 0
M  V30 3256 H 293.65 -2.26267 -4.49235 0
M  V30 3257 H 293.35 -4.00781 -4.29708 0
M  V30 3258 H 294.874 -3.44559 -5.04094 0
M  V30 3259 H 296.288 -4.7631 -3.19064 0
M  V30 3260 H 294.685 -5.36862 -2.68141 0
M  V30 3261 H 295.755 -4.61606 -1.48484 0
M  V30 3262 N 297.098 0.621204 -1.44841 0
M  V30 3263 C 298.338 1.39201 -1.49674 0
M  V30 3264 C 298.702 1.91561 -0.129764 0
M  V30 3265 O 299.903 2.68748 -0.0527814 0
M  V30 3266 C 298.174 2.519 -2.53537 0
M  V30 3267 S 299.733 3.39916 -2.77494 0
M  V30 3268 H 296.551 0.474758 -0.529269 0
M  V30 3269 H 299.153 0.718171 -1.81831 0
M  V30 3270 H 297.857 2.11761 -3.51547 0
M  V30 3271 H 297.388 3.241 -2.22986 0
M  V30 3272 H 299.403 4.49646 -2.0984 0
M  V30 3273 N 298.576 1.31904 0.862503 0
M  V30 3274 C 299.853 1.12644 1.59908 0
M  V30 3275 C 300.233 -0.316104 2.0872 0
M  V30 3276 O 299.581 -1.31145 1.87118 0
M  V30 3277 C 299.791 2.1472 2.7513 0
M  V30 3278 C 301.139 2.47637 3.44907 0
M  V30 3279 O 302.163 2.13205 2.85346 0
M  V30 3280 O 301.022 3.06632 4.52371 0
M  V30 3281 H 298.116 0.43416 0.703871 0
M  V30 3282 H 300.662 1.43408 0.907314 0
M  V30 3283 H 299.434 3.1172 2.3653 0
M  V30 3284 H 299.057 1.84905 3.51989 0
M  V30 3285 N 300.054 -1.07777 1.14986 0
M  V30 3286 C 300.984 -2.16865 0.865557 0
M  V30 3287 C 301.965 -1.69123 -0.182083 0
M  V30 3288 O 303.15 -1.94164 -0.0373815 0
M  V30 3289 C 300.28 -3.45539 0.349313 0
M  V30 3290 C 299.234 -4.06708 1.33313 0
M  V30 3291 C 298.56 -5.30411 0.675918 0
M  V30 3292 C 299.86 -4.47241 2.69764 0
M  V30 3293 H 301.554 -2.40905 1.77778 0
M  V30 3294 H 299.1 -1.15781 0.856203 0
M  V30 3295 H 301.053 -4.21174 0.137983 0
M  V30 3296 H 299.777 -3.21072 -0.598362 0
M  V30 3297 H 298.436 -3.33112 1.53075 0
M  V30 3298 H 298.084 -5.02232 -0.277767 0
M  V30 3299 H 297.784 -5.72293 1.33244 0
M  V30 3300 H 299.308 -6.08755 0.474262 0
M  V30 3301 H 300.722 -5.14025 2.53873 0
M  V30 3302 H 299.119 -5.00062 3.3175 0
M  V30 3303 H 300.189 -3.58818 3.26156 0
M  V30 3304 N 301.532 -0.945985 -1.26051 0
M  V30 3305 C 302.462 -0.477172 -2.28572 0
M  V30 3306 C 303.443 0.472032 -1.63419 0
M  V30 3307 O 304.628 0.372853 -1.90587 0
M  V30 3308 C 301.758 0.253975 -3.4637 0
M  V30 3309 C 300.712 -0.609135 -4.23643 0
M  V30 3310 C 300.038 0.252252 -5.34105 0
M  V30 3311 C 301.338 -1.8829 -4.8718 0
M  V30 3312 H 303.032 -1.33402 -2.68038 0
M  V30 3313 H 300.578 -0.642904 -1.28852 0
M  V30 3314 H 302.531 0.593016 -4.17207 0
M  V30 3315 H 301.255 1.145 -3.05871 0
M  V30 3316 H 299.914 -0.931138 -3.54578 0
M  V30 3317 H 299.562 1.14278 -4.89846 0
M  V30 3318 H 299.262 -0.32188 -5.86718 0
M  V30 3319 H 300.786 0.586454 -6.07777 0
M  V30 3320 H 302.2 -1.61081 -5.50205 0
M  V30 3321 H 300.597 -2.40199 -5.49931 0
M  V30 3322 H 301.667 -2.59134 -4.09851 0
M  V30 3323 N 303.011 1.40521 -0.713556 0
M  V30 3324 C 304.257 2.01714 -0.261382 0
M  V30 3325 C 304.612 1.55562 1.13217 0
M  V30 3326 O 303.905 0.764893 1.7567 0
M  V30 3327 C 304.099 3.56317 -0.278 0
M  V30 3328 C 303.928 4.17476 -1.67163 0
M  V30 3329 C 302.698 4.50998 -2.2788 0
M  V30 3330 C 304.896 4.42472 -2.6215 0
M  V30 3331 N 302.878 4.9754 -3.5962 0
M  V30 3332 C 304.249 4.90985 -3.78594 0
M  V30 3333 C 306.304 4.24508 -2.60188 0
M  V30 3334 C 305.007 5.2342 -4.9338 0
M  V30 3335 C 307.033 4.58043 -3.741 0
M  V30 3336 C 306.395 5.06743 -4.89276 0
M  V30 3337 H 302.494 0.769104 -0.141434 0
M  V30 3338 H 305.078 1.70785 -0.934915 0
M  V30 3339 H 303.249 3.8668 0.36509 0
M  V30 3340 H 304.981 4.0425 0.190695 0
M  V30 3341 H 301.736 4.38062 -1.79997 0
M  V30 3342 H 302.16 5.25196 -4.27198 0
M  V30 3343 H 306.802 3.86078 -1.72348 0
M  V30 3344 H 304.52 5.60765 -5.81866 0
M  V30 3345 H 308.106 4.45785 -3.73854 0
M  V30 3346 H 306.986 5.32204 -5.75959 0
M  V30 3347 N 304.489 0.459591 1.5075 0
M  V30 3348 C 305.714 -0.0996819 2.0716 0
M  V30 3349 C 306.139 -1.33761 1.32249 0
M  V30 3350 O 305.497 -1.77551 0.366786 0
M  V30 3351 C 305.545 -0.378226 3.58611 0
M  V30 3352 O 304.649 -1.46081 3.85661 0
M  V30 3353 H 303.99 0.00791392 0.663953 0
M  V30 3354 H 306.52 0.647329 1.9409 0
M  V30 3355 H 306.53 -0.622135 4.03229 0
M  V30 3356 H 305.205 0.526439 4.12555 0
M  V30 3357 H 303.782 -1.20511 3.5289 0
M  V30 3358 N 305.967 -1.56429 0.191757 0
M  V30 3359 C 307.244 -1.89224 -0.495332 0
M  V30 3360 C 307.624 -1.10478 -1.79883 0
M  V30 3361 O 306.972 -0.204852 -2.2758 0
M  V30 3362 C 307.182 -3.41548 -0.717367 0
M  V30 3363 C 308.53 -4.11711 -1.03823 0
M  V30 3364 O 309.554 -3.4698 -0.805204 0
M  V30 3365 O 308.413 -5.2611 -1.47887 0
M  V30 3366 H 305.507 -0.785788 -0.25781 0
M  V30 3367 H 308.053 -1.68111 0.231721 0
M  V30 3368 H 306.825 -3.90772 0.203287 0
M  V30 3369 H 306.448 -3.68342 -1.497 0
M  V30 3370 N 307.445 0.0818655 -1.57387 0
M  V30 3371 C 308.856 0.634871 -1.75574 0
M  V30 3372 C 309.207 1.78435 -0.815809 0
M  V30 3373 O 308.332 2.164 0.0025366 0
M  V30 3374 C 308.927 1.15845 -3.18379 0
M  V30 3375 C 307.486 1.65741 -3.37945 0
M  V30 3376 C 306.633 0.572549 -2.71325 0
M  V30 3377 H 309.584 -0.144268 -1.58043 0
M  V30 3378 H 309.605 2.02751 -3.21982 0
M  V30 3379 H 309.117 0.321631 -3.86765 0
M  V30 3380 H 307.218 2.51781 -2.74658 0
M  V30 3381 H 307.331 1.74129 -4.46336 0
M  V30 3382 H 305.695 1.01518 -2.33594 0
M  V30 3383 H 306.478 -0.253918 -3.4236 0
M  V30 3384 N 308.923 1.53595 0.353017 0
M  V30 3385 C 310.2 1.61002 1.11075 0
M  V30 3386 C 310.58 0.425356 2.0677 0
M  V30 3387 O 309.928 -0.583267 2.2093 0
M  V30 3388 C 310.138 2.96631 1.83877 0
M  V30 3389 C 311.486 3.51653 2.37961 0
M  V30 3390 O 312.51 2.98743 1.93987 0
M  V30 3391 O 311.369 4.44177 3.18386 0
M  V30 3392 H 308.463 0.650825 0.510251 0
M  V30 3393 H 311.009 1.6594 0.35527 0
M  V30 3394 H 309.781 3.74293 1.14108 0
M  V30 3395 H 309.404 2.95242 2.66304 0
M  V30 3396 N 310.401 -0.613514 1.45168 0
M  V30 3397 C 311.348 -1.72456 1.53387 0
M  V30 3398 C 312.318 -1.6169 0.380191 0
M  V30 3399 O 313.503 -1.81356 0.592836 0
M  V30 3400 C 310.643 -3.10753 1.50088 0
M  V30 3401 C 309.756 -3.32368 2.75963 0
M  V30 3402 C 308.891 -4.60737 2.64376 0
M  V30 3403 C 307.93 -4.7559 3.85332 0
M  V30 3404 N 307.067 -5.95253 3.72315 0
M  V30 3405 H 311.907 -1.64768 2.48305 0
M  V30 3406 H 309.444 -0.803503 1.23216 0
M  V30 3407 H 311.402 -3.90758 1.46164 0
M  V30 3408 H 310.032 -3.17413 0.587243 0
M  V30 3409 H 309.084 -2.4618 2.89999 0
M  V30 3410 H 310.396 -3.39218 3.65695 0
M  V30 3411 H 309.55 -5.48928 2.58385 0
M  V30 3412 H 308.289 -4.56275 1.72233 0
M  V30 3413 H 307.294 -3.85824 3.91688 0
M  V30 3414 H 308.519 -4.81854 4.78533 0
M  V30 3415 H 306.465 -5.91847 2.82937 0
M  V30 3416 H 306.382 -6.03236 4.55677 0
M  V30 3417 H 307.65 -6.85958 3.70246 0
M  V30 3418 N 311.879 -1.3236 -0.855495 0
M  V30 3419 C 313.156 -1.13491 -1.59309 0
M  V30 3420 C 313.536 0.30503 -2.08885 0
M  V30 3421 O 312.884 1.30151 -1.87811 0
M  V30 3422 C 313.094 -2.16176 -2.73987 0
M  V30 3423 C 314.442 -2.49463 -3.43589 0
M  V30 3424 O 315.466 -2.14715 -2.84211 0
M  V30 3425 O 314.325 -3.09027 -4.50738 0
M  V30 3426 H 311.419 -0.437887 -0.701559 0
M  V30 3427 H 313.965 -1.43887 -0.899696 0
M  V30 3428 H 312.737 -3.1297 -2.34873 0
M  V30 3429 H 312.36 -1.86769 -3.51003 0
M  V30 3430 N 313.357 1.07166 -1.15556 0
M  V30 3431 C 314.603 1.80065 -0.932984 0
M  V30 3432 C 314.936 1.86586 0.53845 0
M  V30 3433 O 314.211 1.35098 1.39924 0
M  V30 3434 C 314.494 3.25022 -1.55025 0
M  V30 3435 C 314.347 3.26634 -3.09242 0
M  V30 3436 C 315.666 4.22341 -1.2376 0
M  V30 3437 H 312.785 0.653697 -0.340366 0
M  V30 3438 H 315.427 1.25389 -1.4275 0
M  V30 3439 H 313.577 3.71712 -1.12972 0
M  V30 3440 H 315.249 2.88173 -3.60214 0
M  V30 3441 H 313.492 2.65539 -3.43033 0
M  V30 3442 H 314.163 4.28854 -3.47546 0
M  V30 3443 H 316.639 3.8405 -1.60139 0
M  V30 3444 H 315.515 5.22053 -1.69564 0
M  V30 3445 H 315.776 4.41828 -0.154938 0
M  V30 3446 N 314.835 0.952656 1.25548 0
M  V30 3447 C 315.767 0.428609 2.25157 0
M  V30 3448 C 316.78 -0.454428 1.56329 0
M  V30 3449 O 317.969 -0.263023 1.76552 0
M  V30 3450 C 315.069 -0.401972 3.36508 0
M  V30 3451 C 314.242 0.467601 4.34893 0
M  V30 3452 C 313.301 -0.30445 5.25319 0
M  V30 3453 O 312.327 0.296473 5.68427 0
M  V30 3454 N 313.529 -1.59805 5.5807 0
M  V30 3455 H 316.294 1.28497 2.70756 0
M  V30 3456 H 313.855 0.822798 1.39433 0
M  V30 3457 H 315.847 -0.926134 3.9396 0
M  V30 3458 H 314.417 -1.15918 2.90313 0
M  V30 3459 H 313.637 1.17288 3.76347 0
M  V30 3460 H 314.925 1.06119 4.97611 0
M  V30 3461 H 314.323 -2.10823 5.24948 0
M  V30 3462 H 312.88 -2.06822 6.18116 0
M  V30 3463 N 316.313 -1.40141 0.720998 0
M  V30 3464 C 317.561 -2.0039 0.262323 0
M  V30 3465 C 317.882 -1.57469 -1.15015 0
M  V30 3466 O 317.152 -0.816582 -1.78069 0
M  V30 3467 H 315.732 -0.741063 0.093996 0
M  V30 3468 H 318.394 -1.71398 0.927835 0
M  V30 3469 H 317.49 -3.10658 0.299671 0
M  V30 3470 N 317.792 -0.46758 -1.50504 0
M  V30 3471 C 319.038 0.0808869 -2.03239 0
M  V30 3472 C 319.393 1.37721 -1.34353 0
M  V30 3473 O 318.686 1.86016 -0.459194 0
M  V30 3474 C 318.88 0.323995 -3.55928 0
M  V30 3475 C 318.709 -0.947215 -4.39611 0
M  V30 3476 C 317.479 -1.48951 -4.82848 0
M  V30 3477 C 319.677 -1.84166 -4.80195 0
M  V30 3478 N 317.659 -2.71011 -5.50842 0
M  V30 3479 C 319.03 -2.90815 -5.47564 0
M  V30 3480 C 321.085 -1.85246 -4.62156 0
M  V30 3481 C 319.788 -3.98529 -5.98805 0
M  V30 3482 C 321.814 -2.91914 -5.14335 0
M  V30 3483 C 321.176 -3.97282 -5.81676 0
M  V30 3484 H 317.275 -0.0103394 -0.781932 0
M  V30 3485 H 319.859 -0.635003 -1.84054 0
M  V30 3486 H 318.03 1.00892 -3.75067 0
M  V30 3487 H 319.762 0.866492 -3.95315 0
M  V30 3488 H 316.517 -1.03918 -4.62058 0
M  V30 3489 H 316.941 -3.32988 -5.89447 0
M  V30 3490 H 321.583 -1.05103 -4.09528 0
M  V30 3491 H 319.301 -4.79491 -6.50472 0
M  V30 3492 H 322.887 -2.93729 -5.0221 0
M  V30 3493 H 321.767 -4.78462 -6.21324 0
M  V30 3494 N 319.27 1.56325 -0.20005 0
M  V30 3495 C 320.518 1.97329 0.436547 0
M  V30 3496 C 320.839 1.08826 1.61808 0
M  V30 3497 O 320.109 0.160604 1.95241 0
M  V30 3498 H 318.689 0.728714 0.164272 0
M  V30 3499 H 321.351 1.92761 -0.287937 0
M  V30 3500 H 320.447 3.02264 0.777353 0
M  V30 3501 N 320.748 -0.0735177 1.57428 0
M  V30 3502 C 321.658 -1.10547 2.06922 0
M  V30 3503 C 322.674 -1.42506 0.998402 0
M  V30 3504 O 323.85 -1.52717 1.31299 0
M  V30 3505 C 320.915 -2.40019 2.50184 0
M  V30 3506 C 319.976 -2.15046 3.71556 0
M  V30 3507 C 319.209 -3.38345 4.12745 0
M  V30 3508 O 319.432 -4.47399 3.53822 0
M  V30 3509 O 318.366 -3.2666 5.05546 0
M  V30 3510 H 322.192 -0.715013 2.95163 0
M  V30 3511 H 319.777 -0.287531 1.46607 0
M  V30 3512 H 321.659 -3.16218 2.78539 0
M  V30 3513 H 320.334 -2.78447 1.65072 0
M  V30 3514 H 319.241 -1.36558 3.48285 0
M  V30 3515 H 320.574 -1.81499 4.57514 0
M  V30 3516 N 322.226 -1.5378 -0.344866 0
M  V30 3517 C 323.174 -1.82373 -1.4437 0
M  V30 3518 C 324.168 -0.694128 -1.54526 0
M  V30 3519 O 325.374 -0.877442 -1.57165 0
M  V30 3520 H 321.749 -0.577765 -0.481344 0
M  V30 3521 H 323.72 -2.74306 -1.17468 0
M  V30 3522 C 322.469 -2.04898 -2.80913 0
M  V30 3523 H 321.792 -2.9127 -2.73865 0
M  V30 3524 H 323.232 -2.28871 -3.56923 0
M  V30 3525 C 321.691 -0.834116 -3.26411 0
M  V30 3526 O 322.221 -0.0328885 -4.01687 0
M  V30 3527 N 320.427 -0.65171 -2.83198 0
M  V30 3528 H 319.974 -1.30489 -2.22104 0
M  V30 3529 H 319.932 0.159686 -3.13994 0
M  V30 3530 N 323.704 0.605807 -1.45491 0
M  V30 3531 C 324.981 1.36522 -1.40075 0
M  V30 3532 C 325.361 2.10976 -0.0722744 0
M  V30 3533 O 324.709 2.08007 0.945808 0
M  V30 3534 C 324.919 2.31056 -2.61561 0
M  V30 3535 C 326.267 2.93608 -3.06724 0
M  V30 3536 O 327.291 2.41376 -2.61946 0
M  V30 3537 O 326.15 3.88421 -3.84437 0
M  V30 3538 H 323.244 0.612248 -0.555951 0
M  V30 3539 H 325.79 0.628747 -1.57623 0
M  V30 3540 H 324.562 1.75311 -3.49831 0
M  V30 3541 H 324.185 3.12081 -2.46356 0
M  V30 3542 N 325.182 1.32811 0.848464 0
M  V30 3543 C 326.598 1.11937 1.13764 0
M  V30 3544 C 326.798 -0.0960789 2.01271 0
M  V30 3545 O 325.854 -0.779165 2.40178 0
M  V30 3546 C 327.167 2.402 1.809 0
M  V30 3547 C 328.715 2.46016 1.93508 0
M  V30 3548 C 329.19 3.74215 2.64059 0
M  V30 3549 N 330.681 3.75232 2.71579 0
M  V30 3550 C 331.416 4.71134 3.26833 0
M  V30 3551 N 330.912 5.77406 3.8285 0
M  V30 3552 N 332.705 4.58623 3.24995 0
M  V30 3553 H 324.856 2.1073 0.265855 0
M  V30 3554 H 327.119 0.930671 0.180431 0
M  V30 3555 H 326.825 3.29093 1.24058 0
M  V30 3556 H 326.699 2.51628 2.81004 0
M  V30 3557 H 329.086 1.57577 2.49506 0
M  V30 3558 H 329.167 2.38536 0.923811 0
M  V30 3559 H 328.811 4.63031 2.08722 0
M  V30 3560 H 328.741 3.78968 3.65637 0
M  V30 3561 H 331.232 2.98423 2.31845 0
M  V30 3562 H 331.545 6.46632 4.23187 0
M  V30 3563 H 329.89 5.81152 3.81165 0
M  V30 3564 H 333.081 3.74762 2.80484 0
M  V30 3565 H 333.254 5.33535 3.67756 0
M  V30 3566 N 326.66 -1.06551 1.16123 0
M  V30 3567 C 327.908 -1.78947 0.939267 0
M  V30 3568 C 328.229 -1.87532 -0.534476 0
M  V30 3569 O 327.499 -1.38211 -1.38833 0
M  V30 3570 H 326.079 -0.662807 0.344523 0
M  V30 3571 H 328.741 -1.28725 1.46342 0
M  V30 3572 H 327.837 -2.81117 1.35572 0
M  V30 3573 N 328.138 -0.959301 -1.25041 0
M  V30 3574 C 329.384 -0.617525 -1.9317 0
M  V30 3575 C 329.717 0.843981 -1.74902 0
M  V30 3576 O 328.992 1.60615 -1.09696 0
M  V30 3577 C 329.275 -0.982736 -3.46431 0
M  V30 3578 C 329.128 -2.50032 -3.73904 0
M  V30 3579 C 330.447 -0.511176 -4.37121 0
M  V30 3580 H 327.566 -0.22582 -0.701552 0
M  V30 3581 H 330.208 -1.19679 -1.4757 0
M  V30 3582 H 328.358 -0.489806 -3.854 0
M  V30 3583 H 330.03 -3.06737 -3.44544 0
M  V30 3584 H 328.273 -2.93598 -3.19348 0
M  V30 3585 H 328.944 -2.70635 -4.81103 0
M  V30 3586 H 331.42 -0.934075 -4.0548 0
M  V30 3587 H 330.296 -0.795361 -5.43107 0
M  V30 3588 H 330.557 0.588834 -4.38161 0
M  V30 3589 N 329.616 1.39756 -0.72842 0
M  V30 3590 C 330.841 2.05472 -0.282159 0
M  V30 3591 C 331.266 1.54549 1.07221 0
M  V30 3592 O 330.624 0.686372 1.67805 0
M  V30 3593 C 330.672 3.59462 -0.286264 0
M  V30 3594 O 329.776 4.05918 0.728298 0
M  V30 3595 H 329.117 0.651226 -0.129618 0
M  V30 3596 H 331.647 1.78915 -0.992499 0
M  V30 3597 H 331.657 4.07798 -0.128373 0
M  V30 3598 H 330.332 3.95889 -1.27456 0
M  V30 3599 H 328.909 3.69012 0.537081 0
M  V30 3600 N 331.094 0.475555 1.50254 0
M  V30 3601 C 332.341 -0.0778919 2.0235 0
M  V30 3602 C 332.669 -1.39319 1.35722 0
M  V30 3603 O 331.924 -1.89888 0.473395 0
M  V30 3604 C 332.223 -0.305114 3.56095 0
M  V30 3605 C 331.889 0.92903 4.41225 0
M  V30 3606 C 330.551 1.26739 4.6421 0
M  V30 3607 C 332.903 1.75054 4.90923 0
M  V30 3608 C 330.231 2.42724 5.34137 0
M  V30 3609 C 332.583 2.9017 5.62125 0
M  V30 3610 C 331.247 3.24416 5.83362 0
M  V30 3611 H 330.517 -0.0285027 0.740452 0
M  V30 3612 H 333.164 0.630543 1.80821 0
M  V30 3613 H 331.469 -1.09584 3.76163 0
M  V30 3614 H 333.166 -0.747377 3.93974 0
M  V30 3615 H 329.756 0.655428 4.23559 0
M  V30 3616 H 333.94 1.50231 4.73016 0
M  V30 3617 H 329.196 2.69525 5.48786 0
M  V30 3618 H 333.37 3.54169 5.99614 0
M  V30 3619 H 330.997 4.14396 6.37323 0
M  V30 3620 N 332.573 -1.56217 0.208337 0
M  V30 3621 C 333.801 -2.02337 -0.43215 0
M  V30 3622 C 334.216 -1.08834 -1.54275 0
M  V30 3623 O 333.573 -0.0955462 -1.8225 0
M  V30 3624 C 333.624 -3.48072 -0.976138 0
M  V30 3625 O 333.345 -4.38007 0.0901621 0
M  V30 3626 C 334.846 -4.09773 -1.69119 0
M  V30 3627 H 332.066 -0.662385 -0.10718 0
M  V30 3628 H 334.61 -2.01966 0.320923 0
M  V30 3629 H 332.765 -3.49099 -1.67954 0
M  V30 3630 H 333.179 -5.23543 -0.316701 0
M  V30 3631 H 334.653 -5.13556 -2.02397 0
M  V30 3632 H 335.13 -3.53999 -2.59964 0
M  V30 3633 H 335.736 -4.12556 -1.03332 0
M  V30 3634 N 334.051 0.0651679 -1.57465 0
M  V30 3635 C 335.298 0.763063 -1.87573 0
M  V30 3636 C 335.626 1.77242 -0.800961 0
M  V30 3637 O 334.881 1.94651 0.202316 0
M  V30 3638 C 335.18 1.50081 -3.24362 0
M  V30 3639 C 334.846 0.630816 -4.46466 0
M  V30 3640 C 333.508 0.391082 -4.79608 0
M  V30 3641 C 335.86 0.0279465 -5.21193 0
M  V30 3642 C 333.188 -0.460894 -5.84887 0
M  V30 3643 C 335.54 -0.811522 -6.27373 0
M  V30 3644 C 334.204 -1.06106 -6.59013 0
M  V30 3645 H 333.474 0.279224 -0.686378 0
M  V30 3646 H 336.121 0.0236726 -1.91485 0
M  V30 3647 H 334.426 2.31258 -3.16271 0
M  V30 3648 H 336.123 2.04571 -3.44894 0
M  V30 3649 H 332.713 0.8278 -4.2053 0
M  V30 3650 H 336.897 0.200262 -4.95896 0
M  V30 3651 H 332.153 -0.662907 -6.07796 0
M  V30 3652 H 336.327 -1.28537 -6.84435 0
M  V30 3653 H 333.954 -1.723 -7.40417 0
M  V30 3654 N 335.529 1.53961 0.336706 0
M  V30 3655 C 336.777 1.71197 1.07405 0
M  V30 3656 C 337.098 0.481475 1.88962 0
M  V30 3657 O 336.368 -0.504585 1.8929 0
M  V30 3658 H 334.948 0.631185 0.399517 0
M  V30 3659 H 337.61 1.91232 0.376323 0
M  V30 3660 H 336.706 2.58587 1.74755 0
M  V30 3661 N 337.007 -0.598083 1.45811 0
M  V30 3662 C 337.97 -1.69018 1.54808 0
M  V30 3663 C 338.97 -1.55037 0.426652 0
M  V30 3664 O 340.16 -1.59932 0.690456 0
M  V30 3665 C 337.292 -3.0835 1.45371 0
M  V30 3666 H 338.485 -1.62403 2.52121 0
M  V30 3667 H 336.038 -0.814626 1.33392 0
M  V30 3668 H 336.773 -3.20534 0.492793 0
M  V30 3669 H 336.558 -3.19907 2.26721 0
M  V30 3670 H 338.048 -3.8788 1.54721 0
M  V30 3671 N 338.485 -1.33259 -0.841409 0
M  V30 3672 C 339.395 -1.25332 -1.98316 0
M  V30 3673 C 340.411 -0.164364 -1.73222 0
M  V30 3674 O 341.587 -0.387486 -1.97637 0
M  V30 3675 C 338.652 -0.990078 -3.32262 0
M  V30 3676 C 337.713 -2.16879 -3.70489 0
M  V30 3677 C 336.946 -1.91801 -4.98044 0
M  V30 3678 O 337.169 -0.867075 -5.63771 0
M  V30 3679 O 336.103 -2.78267 -5.33714 0
M  V30 3680 H 339.929 -2.21344 -2.07944 0
M  V30 3681 H 337.514 -1.1328 -0.974058 0
M  V30 3682 H 339.396 -0.860321 -4.12524 0
M  V30 3683 H 338.071 -0.0602155 -3.23644 0
M  V30 3684 H 336.978 -2.35407 -2.90748 0
M  V30 3685 H 338.311 -3.0819 -3.8377 0
M  V30 3686 N 339.963 1.05934 -1.16686 0
M  V30 3687 C 341.209 1.79065 -0.95203 0
M  V30 3688 C 341.542 1.87147 0.518629 0
M  V30 3689 O 340.817 1.36574 1.38484 0
M  V30 3690 C 341.1 3.23359 -1.58464 0
M  V30 3691 C 340.953 3.23336 -3.12689 0
M  V30 3692 C 342.272 4.21004 -1.28232 0
M  V30 3693 H 339.391 0.65005 -0.34728 0
M  V30 3694 H 342.033 1.23868 -1.44072 0
M  V30 3695 H 340.183 3.70493 -1.16908 0
M  V30 3696 H 341.855 2.84336 -3.6325 0
M  V30 3697 H 340.098 2.61886 -3.4583 0
M  V30 3698 H 340.769 4.25144 -3.52075 0
M  V30 3699 H 343.245 3.8233 -1.64203 0
M  V30 3700 H 342.121 5.20225 -1.75092 0
M  V30 3701 H 342.382 4.41639 -0.201791 0
M  V30 3702 N 341.441 0.965919 1.2453 0
M  V30 3703 C 342.687 0.62776 1.92839 0
M  V30 3704 C 343.02 -0.834694 1.75347 0
M  V30 3705 O 342.295 -1.60031 1.10546 0
M  V30 3706 C 342.578 1.00109 3.45905 0
M  V30 3707 C 342.431 2.52011 3.72573 0
M  V30 3708 C 343.75 0.53435 4.36844 0
M  V30 3709 H 340.869 0.229537 0.700344 0
M  V30 3710 H 343.511 1.2046 1.46933 0
M  V30 3711 H 341.661 0.510238 3.85135 0
M  V30 3712 H 343.333 3.08559 3.42912 0
M  V30 3713 H 341.576 2.95287 3.17786 0
M  V30 3714 H 342.247 2.73183 4.79661 0
M  V30 3715 H 344.723 0.955565 4.04979 0
M  V30 3716 H 343.599 0.824152 5.42678 0
M  V30 3717 H 343.86 -0.565589 4.38467 0
M  V30 3718 N 342.919 -1.39368 0.735821 0
M  V30 3719 C 343.882 -2.2896 0.104874 0
M  V30 3720 C 344.882 -1.46347 -0.666274 0
M  V30 3721 O 346.072 -1.67014 -0.49517 0
M  V30 3722 C 343.204 -3.29857 -0.860656 0
M  V30 3723 H 344.397 -2.86259 0.894205 0
M  V30 3724 H 341.95 -1.48029 0.501704 0
M  V30 3725 H 342.685 -2.77615 -1.67631 0
M  V30 3726 H 342.47 -3.9087 -0.310327 0
M  V30 3727 H 343.96 -3.96893 -1.29867 0
M  V30 3728 N 344.397 -0.483516 -1.5 0
M  V30 3729 C 345.344 0.304164 -2.28787 0
M  V30 3730 C 346.314 0.976114 -1.34392 0
M  V30 3731 O 347.499 0.986156 -1.63339 0
M  V30 3732 C 344.639 1.37298 -3.16612 0
M  V30 3733 C 343.752 0.714561 -4.26049 0
M  V30 3734 C 342.887 1.76232 -5.01114 0
M  V30 3735 C 341.926 1.08483 -6.0241 0
M  V30 3736 N 341.063 2.076 -6.70706 0
M  V30 3737 H 345.903 -0.373981 -2.95644 0
M  V30 3738 H 343.44 -0.196275 -1.45785 0
M  V30 3739 H 345.398 2.00445 -3.65893 0
M  V30 3740 H 344.028 2.02012 -2.51776 0
M  V30 3741 H 343.08 -0.0297798 -3.80388 0
M  V30 3742 H 344.392 0.180383 -4.98474 0
M  V30 3743 H 343.546 2.46929 -5.54176 0
M  V30 3744 H 342.285 2.33033 -4.28424 0
M  V30 3745 H 341.29 0.363545 -5.48597 0
M  V30 3746 H 342.515 0.523551 -6.77079 0
M  V30 3747 H 340.461 2.63394 -6.00799 0
M  V30 3748 H 340.378 1.59201 -7.39047 0
M  V30 3749 H 341.646 2.77639 -7.2838 0
M  V30 3750 N 345.875 1.56104 -0.216619 0
M  V30 3751 C 347.122 1.98172 0.416416 0
M  V30 3752 C 347.45 1.10413 1.60122 0
M  V30 3753 O 346.705 0.147967 1.9514 0
M  V30 3754 C 347.004 3.45923 0.898464 0
M  V30 3755 C 346.67 4.50559 -0.175288 0
M  V30 3756 C 345.332 4.78897 -0.470271 0
M  V30 3757 C 347.684 5.1334 -0.901728 0
M  V30 3758 C 345.012 5.67299 -1.4963 0
M  V30 3759 C 347.364 6.02853 -1.91705 0
M  V30 3760 C 346.028 6.29537 -2.21901 0
M  V30 3761 H 345.298 0.725164 0.152377 0
M  V30 3762 H 347.945 1.88839 -0.318103 0
M  V30 3763 H 346.25 3.52434 1.71165 0
M  V30 3764 H 347.947 3.75841 1.39803 0
M  V30 3765 H 344.537 4.28551 0.0647806 0
M  V30 3766 H 348.721 4.91521 -0.687072 0
M  V30 3767 H 343.977 5.86239 -1.73592 0
M  V30 3768 H 348.151 6.50552 -2.48505 0
M  V30 3769 H 345.778 6.97835 -3.01548 0
M  V30 3770 N 347.353 -0.0568162 1.57498 0
M  V30 3771 C 348.283 -1.06593 2.0775 0
M  V30 3772 C 349.264 -1.39448 0.974082 0
M  V30 3773 O 350.449 -1.48815 1.24771 0
M  V30 3774 C 347.579 -2.37509 2.5339 0
M  V30 3775 C 346.533 -2.1897 3.67745 0
M  V30 3776 C 345.859 -3.55402 3.99492 0
M  V30 3777 C 347.159 -1.59859 4.97235 0
M  V30 3778 H 348.853 -0.647706 2.9231 0
M  V30 3779 H 346.399 -0.310116 1.40621 0
M  V30 3780 H 348.352 -3.08409 2.87162 0
M  V30 3781 H 347.076 -2.8134 1.65878 0
M  V30 3782 H 345.735 -1.50508 3.3428 0
M  V30 3783 H 345.383 -3.9683 3.09088 0
M  V30 3784 H 345.083 -3.43831 4.76502 0
M  V30 3785 H 346.607 -4.27708 4.35773 0
M  V30 3786 H 348.021 -2.20642 5.29141 0
M  V30 3787 H 346.418 -1.58942 5.78669 0
M  V30 3788 H 347.488 -0.561506 4.81638 0
M  V30 3789 N 348.832 -1.54138 -0.328536 0
M  V30 3790 C 349.782 -1.79557 -1.4051 0
M  V30 3791 C 350.766 -0.651373 -1.47126 0
M  V30 3792 O 351.958 -0.911226 -1.51742 0
M  V30 3793 C 349.087 -2.02196 -2.77438 0
M  V30 3794 C 348.173 -3.22724 -2.75155 0
M  V30 3795 N 348.564 -4.43881 -2.42494 0
M  V30 3796 C 346.862 -3.24196 -3.06289 0
M  V30 3797 C 347.563 -5.25797 -2.48822 0
M  V30 3798 N 346.539 -4.62862 -2.8506 0
M  V30 3799 H 350.341 -2.70814 -1.1418 0
M  V30 3800 H 347.855 -1.53265 -0.536991 0
M  V30 3801 H 349.852 -2.18546 -3.55026 0
M  V30 3802 H 348.512 -1.12191 -3.04702 0
M  V30 3803 H 349.523 -4.70969 -2.15428 0
M  V30 3804 H 346.2 -2.44208 -3.38627 0
M  V30 3805 H 347.59 -6.32535 -2.26603 0
M  V30 3806 N 350.31 0.590341 -1.46126 0
M  V30 3807 C 351.257 1.69994 -1.56111 0
M  V30 3808 C 352.227 1.61065 -0.405867 0
M  V30 3809 O 353.412 1.8039 -0.621613 0
M  V30 3810 C 350.552 3.08326 -1.55013 0
M  V30 3811 C 349.665 3.27936 -2.81215 0
M  V30 3812 C 348.8 4.56473 -2.71673 0
M  V30 3813 C 347.839 4.694 -3.92849 0
M  V30 3814 N 346.976 5.89254 -3.81738 0
M  V30 3815 H 351.816 1.60797 -2.50895 0
M  V30 3816 H 349.353 0.783799 -1.24479 0
M  V30 3817 H 351.311 3.88383 -1.52362 0
M  V30 3818 H 349.941 3.16439 -0.637667 0
M  V30 3819 H 348.993 2.41536 -2.93879 0
M  V30 3820 H 350.305 3.33357 -3.71045 0
M  V30 3821 H 349.459 5.44748 -2.67085 0
M  V30 3822 H 348.198 4.53477 -1.7947 0
M  V30 3823 H 347.203 3.79544 -3.97777 0
M  V30 3824 H 348.428 4.7418 -4.86138 0
M  V30 3825 H 346.374 5.87271 -2.92317 0
M  V30 3826 H 346.291 5.95911 -4.65217 0
M  V30 3827 H 347.559 6.79981 -3.81112 0
M  V30 3828 N 351.788 1.33704 0.83433 0
M  V30 3829 C 352.738 1.20899 1.93306 0
M  V30 3830 C 353.722 0.110783 1.60518 0
M  V30 3831 O 354.914 0.339331 1.73717 0
M  V30 3832 C 352.043 0.955018 3.29749 0
M  V30 3833 C 351.129 2.09587 3.68692 0
M  V30 3834 N 351.52 3.34621 3.79292 0
M  V30 3835 C 349.818 2.00358 3.98463 0
M  V30 3836 C 350.519 4.09472 4.13167 0
M  V30 3837 N 349.495 3.37954 4.25779 0
M  V30 3838 H 353.297 2.15665 1.99664 0
M  V30 3839 H 350.811 1.25777 1.02732 0
M  V30 3840 H 352.808 0.844208 4.08263 0
M  V30 3841 H 351.468 0.0159317 3.24696 0
M  V30 3842 H 352.479 3.69313 3.63082 0
M  V30 3843 H 349.156 1.14137 4.01596 0
M  V30 3844 H 350.546 5.17391 4.28668 0
M  V30 3845 N 353.266 -1.05314 1.17247 0
M  V30 3846 C 354.543 -1.75184 0.87005 0
M  V30 3847 C 354.923 -2.01481 -0.629965 0
M  V30 3848 O 354.271 -1.64988 -1.58086 0
M  V30 3849 C 354.481 -3.04594 1.70363 0
M  V30 3850 C 355.829 -3.78567 1.92281 0
M  V30 3851 O 356.853 -3.14461 1.67311 0
M  V30 3852 O 355.712 -4.93755 2.3424 0
M  V30 3853 H 352.806 -0.761729 0.322021 0
M  V30 3854 H 355.352 -1.11493 1.27935 0
M  V30 3855 H 354.124 -2.81201 2.72106 0
M  V30 3856 H 353.747 -3.76022 1.29202 0
M  V30 3857 N 354.744 -0.972509 -1.24016 0
M  V30 3858 C 355.674 -0.525548 -2.27509 0
M  V30 3859 C 356.655 0.437262 -1.64384 0
M  V30 3860 O 357.84 0.332343 -1.91335 0
M  V30 3861 C 354.97 0.180448 -3.46831 0
M  V30 3862 C 353.924 -0.698859 -4.22256 0
M  V30 3863 C 353.25 0.138903 -5.3452 0
M  V30 3864 C 354.55 -1.98582 -4.83076 0
M  V30 3865 H 356.244 -1.39058 -2.65148 0
M  V30 3866 H 353.79 -0.67009 -1.27459 0
M  V30 3867 H 355.743 0.504387 -4.18371 0
M  V30 3868 H 354.467 1.07987 -3.08231 0
M  V30 3869 H 353.126 -1.00614 -3.52523 0
M  V30 3870 H 352.774 1.03862 -4.9216 0
M  V30 3871 H 352.474 -0.446259 -5.85903 0
M  V30 3872 H 353.998 0.457404 -6.08884 0
M  V30 3873 H 355.412 -1.72715 -5.46665 0
M  V30 3874 H 353.809 -2.5181 -5.44713 0
M  V30 3875 H 354.879 -2.67769 -4.04262 0
M  V30 3876 N 356.222 1.38976 -0.743202 0
M  V30 3877 C 357.499 1.94351 -0.220705 0
M  V30 3878 C 357.879 1.67935 1.2791 0
M  V30 3879 O 357.227 1.01211 2.04862 0
M  V30 3880 C 357.437 3.44426 -0.563171 0
M  V30 3881 C 358.785 4.2144 -0.517046 0
M  V30 3882 O 359.809 3.52661 -0.500846 0
M  V30 3883 O 358.668 5.44032 -0.518806 0
M  V30 3884 H 355.762 0.825879 -0.043047 0
M  V30 3885 H 358.308 1.48429 -0.822618 0
M  V30 3886 H 357.08 3.5712 -1.59941 0
M  V30 3887 H 356.703 3.97543 0.0672883 0
M  V30 3888 N 357.7 0.491464 1.49741 0
M  V30 3889 C 358.63 -0.28154 2.31796 0
M  V30 3890 C 359.611 -0.971473 1.3963 0
M  V30 3891 O 360.796 -0.964719 1.68543 0
M  V30 3892 C 357.926 -1.35203 3.19902 0
M  V30 3893 C 356.88 -0.782529 4.20786 0
M  V30 3894 C 356.206 -1.95283 4.97764 0
M  V30 3895 C 357.506 0.21999 5.21837 0
M  V30 3896 H 359.2 0.403355 2.96671 0
M  V30 3897 H 356.746 0.195425 1.42668 0
M  V30 3898 H 358.699 -1.90045 3.76113 0
M  V30 3899 H 357.423 -2.06598 2.52953 0
M  V30 3900 H 356.082 -0.255928 3.65706 0
M  V30 3901 H 355.73 -2.65423 4.2727 0
M  V30 3902 H 355.43 -1.57789 5.66018 0
M  V30 3903 H 356.954 -2.50577 5.56816 0
M  V30 3904 H 358.368 -0.23996 5.72798 0
M  V30 3905 H 356.765 0.51026 5.97927 0
M  V30 3906 H 357.835 1.13911 4.7133 0
M  V30 3907 N 359.178 -1.55987 0.224894 0
M  V30 3908 C 360.427 -1.97566 -0.406273 0
M  V30 3909 C 360.74 -1.11569 -1.6066 0
M  V30 3910 O 361.946 -1.43062 -2.3075 0
M  V30 3911 C 360.402 -3.51474 -0.774207 0
M  V30 3912 C 360.01 -4.46179 0.403496 0
M  V30 3913 C 361.754 -4.01758 -1.37079 0
M  V30 3914 C 359.661 -5.91399 0.0129412 0
M  V30 3915 H 358.591 -0.737777 -0.155565 0
M  V30 3916 H 361.242 -1.80659 0.321635 0
M  V30 3917 H 359.624 -3.63994 -1.55963 0
M  V30 3918 H 360.798 -4.45409 1.18101 0
M  V30 3919 H 359.113 -4.06255 0.913536 0
M  V30 3920 H 361.71 -5.07756 -1.67596 0
M  V30 3921 H 362.053 -3.47805 -2.28773 0
M  V30 3922 H 362.586 -3.92475 -0.648733 0
M  V30 3923 H 359.325 -6.49341 0.896451 0
M  V30 3924 H 358.845 -5.95356 -0.728821 0
M  V30 3925 H 360.524 -6.45683 -0.412582 0
M  V30 3926 N 360.656 0.0484629 -1.57525 0
M  V30 3927 C 361.896 0.748196 -1.90214 0
M  V30 3928 C 362.26 1.73545 -0.821347 0
M  V30 3929 O 363.461 2.48201 -1.03198 0
M  V30 3930 C 361.732 1.41727 -3.28098 0
M  V30 3931 S 363.291 2.14884 -3.82584 0
M  V30 3932 H 360.109 0.248307 -0.666232 0
M  V30 3933 H 362.711 0.00343188 -1.955 0
M  V30 3934 H 361.415 0.685244 -4.04639 0
M  V30 3935 H 360.946 2.20099 -3.26068 0
M  V30 3936 H 362.961 3.41755 -3.59747 0
M  V30 3937 N 362.134 1.5431 0.320358 0
M  V30 3938 C 363.55 1.45091 0.664889 0
M  V30 3939 C 363.75 0.626382 1.91517 0
M  V30 3940 O 362.806 0.126443 2.52183 0
M  V30 3941 C 364.119 2.88848 0.83591 0
M  V30 3942 C 365.667 2.9877 0.933046 0
M  V30 3943 C 366.142 4.43683 1.13621 0
M  V30 3944 N 367.633 4.47309 1.20287 0
M  V30 3945 C 368.368 5.56595 1.37801 0
M  V30 3946 N 367.864 6.75844 1.52338 0
M  V30 3947 N 369.657 5.44248 1.40535 0
M  V30 3948 H 361.808 2.06398 -0.501374 0
M  V30 3949 H 364.071 0.933963 -0.162534 0
M  V30 3950 H 363.777 3.51698 -0.0116092 0
M  V30 3951 H 363.651 3.35148 1.73078 0
M  V30 3952 H 366.038 2.36045 1.77107 0
M  V30 3953 H 366.119 2.55796 0.0145782 0
M  V30 3954 H 365.763 5.06995 0.303032 0
M  V30 3955 H 365.693 4.84269 2.0686 0
M  V30 3956 H 368.184 3.61388 1.10485 0
M  V30 3957 H 368.497 7.54892 1.65403 0
M  V30 3958 H 366.842 6.78746 1.4943 0
M  V30 3959 H 370.033 4.50038 1.28777 0
M  V30 3960 H 370.206 6.29473 1.53842 0
M  V30 3961 N 363.613 -0.582584 1.46437 0
M  V30 3962 C 364.576 -1.67366 1.56592 0
M  V30 3963 C 365.576 -1.54575 0.443072 0
M  V30 3964 O 366.766 -1.59191 0.707381 0
M  V30 3965 C 363.898 -3.06791 1.48634 0
M  V30 3966 H 365.091 -1.5972 2.5383 0
M  V30 3967 H 362.644 -0.800432 1.34249 0
M  V30 3968 H 363.379 -3.19993 0.526763 0
M  V30 3969 H 363.164 -3.17484 2.30101 0
M  V30 3970 H 364.654 -3.86218 1.58826 0
M  V30 3971 N 365.091 -1.34144 -0.827227 0
M  V30 3972 C 366.041 -1.21923 -1.92663 0
M  V30 3973 C 367.025 -0.119294 -1.60457 0
M  V30 3974 O 368.217 -0.348539 -1.73534 0
M  V30 3975 C 365.346 -0.972492 -3.29238 0
M  V30 3976 C 364.432 -2.1154 -3.67576 0
M  V30 3977 N 364.823 -3.36627 -3.77512 0
M  V30 3978 C 363.121 -2.02468 -3.97395 0
M  V30 3979 C 363.822 -4.11658 -4.1099 0
M  V30 3980 N 362.798 -3.40207 -4.23981 0
M  V30 3981 H 366.6 -2.16721 -1.98517 0
M  V30 3982 H 364.114 -1.2632 -1.02064 0
M  V30 3983 H 366.111 -0.865847 -4.0781 0
M  V30 3984 H 364.771 -0.0331509 -3.24683 0
M  V30 3985 H 365.782 -3.71234 -3.61118 0
M  V30 3986 H 362.459 -1.16265 -4.00985 0
M  V30 3987 H 363.849 -5.19657 -4.25918 0
M  V30 3988 N 366.569 1.04691 -1.17803 0
M  V30 3989 C 367.501 2.12571 -0.857097 0
M  V30 3990 C 368.514 1.62174 0.142647 0
M  V30 3991 O 369.703 1.78301 -0.0843387 0
M  V30 3992 C 366.803 3.37915 -0.258216 0
M  V30 3993 C 365.976 4.1757 -1.30207 0
M  V30 3994 C 365.035 5.2125 -0.720029 0
M  V30 3995 O 364.061 5.51888 -1.39314 0
M  V30 3996 N 365.263 5.78466 0.485507 0
M  V30 3997 H 368.028 2.40698 -1.78562 0
M  V30 3998 H 365.589 1.20831 -1.07757 0
M  V30 3999 H 367.581 4.04442 0.144584 0
M  V30 4000 H 366.151 3.07281 0.574199 0
M  V30 4001 H 365.371 3.46458 -1.88043 0
M  V30 4002 H 366.659 4.67586 -2.00601 0
M  V30 4003 H 366.057 5.55866 1.05022 0
M  V30 4004 H 364.614 6.4649 0.830307 0
M  V30 4005 N 368.047 0.979072 1.23499 0
M  V30 4006 C 369.293 0.648178 1.92163 0
M  V30 4007 C 369.626 -0.816049 1.76222 0
M  V30 4008 O 368.901 -1.58849 1.12237 0
M  V30 4009 C 369.184 1.03773 3.44824 0
M  V30 4010 C 369.037 2.55948 3.69879 0
M  V30 4011 C 370.356 0.580653 4.36253 0
M  V30 4012 H 367.475 0.236952 0.69787 0
M  V30 4013 H 370.117 1.22012 1.45647 0
M  V30 4014 H 368.267 0.551058 3.84572 0
M  V30 4015 H 369.939 3.12179 3.3962 0
M  V30 4016 H 368.182 2.98641 3.14636 0
M  V30 4017 H 368.853 2.78255 4.76737 0
M  V30 4018 H 371.329 0.998465 4.03943 0
M  V30 4019 H 370.205 0.881663 5.41773 0
M  V30 4020 H 370.466 -0.519052 4.39042 0
M  V30 4021 N 369.525 -1.3858 0.750561 0
M  V30 4022 C 370.771 -2.00481 0.305825 0
M  V30 4023 C 371.104 -1.5944 -1.10872 0
M  V30 4024 O 370.379 -0.83052 -1.75877 0
M  V30 4025 C 370.662 -3.5758 0.425287 0
M  V30 4026 C 370.515 -4.08594 1.88072 0
M  V30 4027 C 371.834 -4.39719 -0.183122 0
M  V30 4028 H 368.953 -0.728348 0.112598 0
M  V30 4029 H 371.595 -1.64566 0.949638 0
M  V30 4030 H 369.745 -3.88306 -0.122828 0
M  V30 4031 H 371.417 -3.88523 2.48691 0
M  V30 4032 H 369.66 -3.61574 2.39681 0
M  V30 4033 H 370.331 -5.177 1.91548 0
M  V30 4034 H 372.807 -4.15128 0.284303 0
M  V30 4035 H 371.683 -5.48856 -0.0692757 0
M  V30 4036 H 371.944 -4.23434 -1.27106 0
M  V30 4037 N 371.003 -0.499398 -1.49478 0
M  V30 4038 C 371.913 0.284489 -2.32869 0
M  V30 4039 C 372.929 0.968885 -1.44529 0
M  V30 4040 O 374.105 0.95062 -1.77553 0
M  V30 4041 C 371.17 1.33594 -3.19928 0
M  V30 4042 C 370.231 0.665149 -4.24116 0
M  V30 4043 C 369.464 1.6665 -5.07014 0
M  V30 4044 O 369.687 2.89618 -4.91404 0
M  V30 4045 O 368.621 1.22271 -5.8935 0
M  V30 4046 H 372.447 -0.39802 -3.01081 0
M  V30 4047 H 370.032 -0.260758 -1.47107 0
M  V30 4048 H 371.914 1.94431 -3.73864 0
M  V30 4049 H 370.589 2.0014 -2.54412 0
M  V30 4050 H 369.496 0.0170769 -3.74096 0
M  V30 4051 H 370.829 0.0421555 -4.92182 0
M  V30 4052 N 372.481 1.55866 -0.233164 0
M  V30 4053 C 373.758 1.90471 0.444988 0
M  V30 4054 C 374.138 1.15209 1.7689 0
M  V30 4055 O 373.486 0.265119 2.26957 0
M  V30 4056 C 373.696 3.4333 0.626559 0
M  V30 4057 C 375.044 4.14319 0.92871 0
M  V30 4058 O 376.068 3.48993 0.712926 0
M  V30 4059 O 374.927 5.29846 1.33887 0
M  V30 4060 H 372.021 0.792347 0.236885 0
M  V30 4061 H 374.567 1.67437 -0.276211 0
M  V30 4062 H 373.339 3.90095 -0.306822 0
M  V30 4063 H 372.962 3.72181 1.39881 0
M  V30 4064 N 373.959 -0.0401083 1.57549 0
M  V30 4065 C 375.207 -0.731677 1.8839 0
M  V30 4066 C 375.528 -1.76481 0.829425 0
M  V30 4067 O 374.798 -1.95411 -0.1383 0
M  V30 4068 H 373.378 -0.273225 0.695239 0
M  V30 4069 H 376.04 -0.00867725 1.94898 0
M  V30 4070 H 375.136 -1.22816 2.86919 0
M  V30 4071 N 375.437 -1.54477 -0.31217 0
M  V30 4072 C 376.667 -1.76948 -1.06645 0
M  V30 4073 C 377.075 -0.523593 -1.81811 0
M  V30 4074 O 376.418 0.51578 -1.76311 0
M  V30 4075 C 376.48 -2.91668 -2.10166 0
M  V30 4076 C 376.144 -4.30165 -1.54296 0
M  V30 4077 C 377.141 -5.10603 -0.978793 0
M  V30 4078 C 374.826 -4.76738 -1.58196 0
M  V30 4079 C 376.82 -6.3573 -0.461048 0
M  V30 4080 C 374.507 -6.01831 -1.06034 0
M  V30 4081 C 375.505 -6.81161 -0.500844 0
M  V30 4082 O 375.193 -8.03899 0.0128958 0
M  V30 4083 H 374.925 -0.594088 -0.322546 0
M  V30 4084 H 377.479 -2.02213 -0.360441 0
M  V30 4085 H 375.709 -2.62001 -2.84416 0
M  V30 4086 H 377.398 -3.01817 -2.71406 0
M  V30 4087 H 378.164 -4.75771 -0.941651 0
M  V30 4088 H 374.043 -4.15027 -2.00683 0
M  V30 4089 H 377.587 -6.97596 -0.0236894 0
M  V30 4090 H 373.484 -6.36152 -1.09459 0
M  V30 4091 H 374.252 -8.18437 -0.101457 0
M  V30 4092 N 376.915 0.57481 -1.46744 0
M  V30 4093 C 377.825 1.711 -1.60505 0
M  V30 4094 C 378.841 1.67008 -0.488307 0
M  V30 4095 O 380.017 1.86774 -0.753495 0
M  V30 4096 C 377.082 3.07608 -1.59932 0
M  V30 4097 C 376.143 3.22904 -2.82898 0
M  V30 4098 C 375.376 4.529 -2.82343 0
M  V30 4099 O 375.599 5.37278 -1.91542 0
M  V30 4100 O 374.533 4.71611 -3.73987 0
M  V30 4101 H 378.359 1.62436 -2.56609 0
M  V30 4102 H 375.944 0.742779 -1.29627 0
M  V30 4103 H 377.826 3.88877 -1.62336 0
M  V30 4104 H 376.501 3.16692 -0.669898 0
M  V30 4105 H 375.408 2.41099 -2.86046 0
M  V30 4106 H 376.741 3.18715 -3.75076 0
M  V30 4107 N 378.394 1.34581 0.820102 0
M  V30 4108 C 379.641 1.27096 1.57648 0
M  V30 4109 C 379.969 -0.158317 1.93855 0
M  V30 4110 O 379.224 -1.12028 1.60463 0
M  V30 4111 C 379.523 2.10997 2.8847 0
M  V30 4112 C 379.189 3.59966 2.71543 0
M  V30 4113 C 377.851 4.00575 2.66634 0
M  V30 4114 C 380.203 4.54548 2.55021 0
M  V30 4115 C 377.531 5.33953 2.43128 0
M  V30 4116 C 379.883 5.88109 2.33047 0
M  V30 4117 C 378.547 6.27878 2.26552 0
M  V30 4118 H 377.817 0.465078 0.576874 0
M  V30 4119 H 380.464 1.6635 0.948671 0
M  V30 4120 H 378.769 1.6458 3.55557 0
M  V30 4121 H 380.466 2.0255 3.46084 0
M  V30 4122 H 377.056 3.27733 2.76205 0
M  V30 4123 H 381.24 4.24069 2.57835 0
M  V30 4124 H 376.496 5.63781 2.3656 0
M  V30 4125 H 380.67 6.60985 2.19251 0
M  V30 4126 H 378.297 7.31162 2.081 0
M  V30 4127 N 379.872 -1.04064 1.18357 0
M  V30 4128 C 381.119 -1.77265 0.978947 0
M  V30 4129 C 381.447 -1.88189 -0.491428 0
M  V30 4130 O 380.702 -1.38653 -1.38108 0
M  V30 4131 C 381.001 -3.20634 1.57888 0
M  V30 4132 C 380.667 -3.29743 3.07539 0
M  V30 4133 C 379.329 -3.31937 3.48384 0
M  V30 4134 C 381.681 -3.29841 4.03552 0
M  V30 4135 C 379.009 -3.3187 4.83818 0
M  V30 4136 C 381.361 -3.31313 5.38901 0
M  V30 4137 C 380.025 -3.31799 5.79194 0
M  V30 4138 H 379.295 -0.648659 0.358222 0
M  V30 4139 H 381.942 -1.22225 1.47422 0
M  V30 4140 H 380.247 -3.78675 1.00561 0
M  V30 4141 H 381.944 -3.75917 1.39598 0
M  V30 4142 H 378.534 -3.28757 2.74986 0
M  V30 4143 H 382.718 -3.27337 3.73047 0
M  V30 4144 H 377.974 -3.30562 5.14333 0
M  V30 4145 H 382.148 -3.30338 6.13066 0
M  V30 4146 H 379.775 -3.315 6.84114 0
M  V30 4147 N 381.35 -0.985608 -1.22978 0
M  V30 4148 C 382.313 -0.535071 -2.22867 0
M  V30 4149 C 383.313 0.378123 -1.56291 0
M  V30 4150 O 384.503 0.171092 -1.73358 0
M  V30 4151 C 381.635 0.222702 -3.40172 0
M  V30 4152 H 382.828 -1.41835 -2.6424 0
M  V30 4153 H 380.381 -0.772042 -1.35901 0
M  V30 4154 H 381.116 1.12229 -3.04262 0
M  V30 4155 H 380.901 -0.43288 -3.89703 0
M  V30 4156 H 382.391 0.526335 -4.1427 0
M  V30 4157 N 382.828 1.3818 -0.7579 0
M  V30 4158 C 383.775 2.30416 -0.133057 0
M  V30 4159 C 384.745 1.50398 0.704957 0
M  V30 4160 O 385.93 1.79014 0.660192 0
M  V30 4161 C 383.07 3.36834 0.750813 0
M  V30 4162 C 382.183 4.31879 -0.102297 0
M  V30 4163 C 381.318 5.25368 0.784979 0
M  V30 4164 C 380.357 6.12058 -0.0715046 0
M  V30 4165 N 379.494 6.97832 0.772972 0
M  V30 4166 H 384.334 2.83274 -0.925186 0
M  V30 4167 H 381.871 1.39461 -0.467866 0
M  V30 4168 H 383.829 3.97145 1.27794 0
M  V30 4169 H 382.459 2.85374 1.50868 0
M  V30 4170 H 381.511 3.72991 -0.747095 0
M  V30 4171 H 382.823 4.92921 -0.763552 0
M  V30 4172 H 381.977 5.90818 1.37911 0
M  V30 4173 H 380.716 4.64703 1.47996 0
M  V30 4174 H 379.721 5.456 -0.678272 0
M  V30 4175 H 380.946 6.74793 -0.763606 0
M  V30 4176 H 378.892 6.3971 1.45282 0
M  V30 4177 H 378.809 7.55812 0.168709 0
M  V30 4178 H 380.077 7.67687 1.35194 0
M  V30 4179 N 384.306 0.507319 1.49211 0
M  V30 4180 C 385.722 0.163682 1.58758 0
M  V30 4181 C 385.922 -1.33208 1.51188 0
M  V30 4182 O 384.978 -2.10855 1.38911 0
M  V30 4183 C 386.291 0.746095 2.91297 0
M  V30 4184 C 387.839 0.712773 3.04776 0
M  V30 4185 C 388.314 1.27336 4.39943 0
M  V30 4186 N 389.805 1.23433 4.46451 0
M  V30 4187 C 390.54 1.63821 5.495 0
M  V30 4188 N 390.036 2.11832 6.5962 0
M  V30 4189 N 391.829 1.55198 5.4025 0
M  V30 4190 H 383.98 1.47972 1.52375 0
M  V30 4191 H 386.243 0.614147 0.722168 0
M  V30 4192 H 385.949 1.79534 3.02424 0
M  V30 4193 H 385.823 0.210137 3.76614 0
M  V30 4194 H 388.21 -0.327656 2.93275 0
M  V30 4195 H 388.291 1.28595 2.21127 0
M  V30 4196 H 387.935 2.3126 4.52196 0
M  V30 4197 H 387.865 0.676066 5.22242 0
M  V30 4198 H 390.356 0.882627 3.67448 0
M  V30 4199 H 390.669 2.40703 7.34358 0
M  V30 4200 H 389.014 2.1581 6.60644 0
M  V30 4201 H 392.205 1.17505 4.53112 0
M  V30 4202 H 392.378 1.86997 6.20432 0
M  V30 4203 N 385.784 -1.5574 0.241426 0
M  V30 4204 C 386.716 -2.18469 -0.693091 0
M  V30 4205 C 387.729 -1.15942 -1.14286 0
M  V30 4206 O 388.918 -1.42832 -1.07058 0
M  V30 4207 C 386.018 -2.7696 -1.95311 0
M  V30 4208 C 385.191 -4.04853 -1.65568 0
M  V30 4209 C 384.25 -4.47715 -2.76474 0
M  V30 4210 O 383.276 -5.14205 -2.44094 0
M  V30 4211 N 384.478 -4.15044 -4.05855 0
M  V30 4212 H 387.243 -2.99292 -0.156388 0
M  V30 4213 H 384.804 -1.61784 0.0611752 0
M  V30 4214 H 386.796 -3.02594 -2.68736 0
M  V30 4215 H 385.366 -2.00326 -2.39975 0
M  V30 4216 H 384.586 -3.86865 -0.756886 0
M  V30 4217 H 385.874 -4.88246 -1.43153 0
M  V30 4218 H 385.272 -3.61654 -4.34998 0
M  V30 4219 H 383.829 -4.45526 -4.75762 0
M  V30 4220 N 387.262 0.0317525 -1.57568 0
M  V30 4221 C 388.192 1.03274 -2.0942 0
M  V30 4222 C 389.173 1.3788 -0.996143 0
M  V30 4223 O 390.358 1.46811 -1.27122 0
M  V30 4224 C 387.488 2.33448 -2.57137 0
M  V30 4225 C 386.442 2.13091 -3.71182 0
M  V30 4226 C 385.768 3.49001 -4.05095 0
M  V30 4227 C 387.068 1.51928 -4.99715 0
M  V30 4228 H 388.762 0.60112 -2.93303 0
M  V30 4229 H 386.308 0.287705 -1.41097 0
M  V30 4230 H 388.261 3.03802 -2.92032 0
M  V30 4231 H 386.985 2.78665 -1.70333 0
M  V30 4232 H 385.644 1.45171 -3.36632 0
M  V30 4233 H 385.292 3.91862 -3.15362 0
M  V30 4234 H 384.992 3.36207 -4.81911 0
M  V30 4235 H 386.516 4.20721 -4.42522 0
M  V30 4236 H 387.93 2.12196 -5.32584 0
M  V30 4237 H 386.327 1.49716 -5.81124 0
M  V30 4238 H 387.397 0.484811 -4.8247 0
M  V30 4239 N 388.74 1.54641 0.303973 0
M  V30 4240 C 389.986 1.74038 1.04109 0
M  V30 4241 C 390.319 0.523051 1.87024 0
M  V30 4242 O 389.594 -0.479874 1.88487 0
M  V30 4243 C 389.877 3.02761 1.94955 0
M  V30 4244 C 389.73 4.34787 1.1524 0
M  V30 4245 C 391.049 3.27336 2.94175 0
M  V30 4246 H 388.168 0.63323 0.377079 0
M  V30 4247 H 390.81 1.87354 0.316001 0
M  V30 4248 H 388.96 2.9154 2.56782 0
M  V30 4249 H 390.632 4.57922 0.557236 0
M  V30 4250 H 388.875 4.31407 0.455053 0
M  V30 4251 H 389.546 5.21116 1.8205 0
M  V30 4252 H 392.022 3.38148 2.42477 0
M  V30 4253 H 390.898 4.18726 3.54908 0
M  V30 4254 H 391.159 2.45491 3.67677 0
M  V30 4255 N 390.218 -0.567019 1.47046 0
M  V30 4256 C 391.446 -1.35027 1.56765 0
M  V30 4257 C 391.861 -1.8758 0.214316 0
M  V30 4258 O 391.218 -1.64471 -0.790919 0
M  V30 4259 C 391.269 -2.52698 2.58507 0
M  V30 4260 O 390.99 -2.0232 3.88585 0
M  V30 4261 C 392.491 -3.45043 2.78316 0
M  V30 4262 H 389.711 -0.41195 0.529658 0
M  V30 4263 H 392.255 -0.687832 1.92585 0
M  V30 4264 H 390.41 -3.149 2.25648 0
M  V30 4265 H 390.824 -2.79068 4.44096 0
M  V30 4266 H 392.298 -4.2405 3.53391 0
M  V30 4267 H 392.775 -3.97971 1.85784 0
M  V30 4268 H 393.381 -2.88665 3.12334 0
M  V30 4269 N 391.696 -1.35014 -0.812953 0
M  V30 4270 C 392.626 -1.30069 -1.93919 0
M  V30 4271 C 393.607 -0.176275 -1.69184 0
M  V30 4272 O 394.792 -0.370227 -1.90638 0
M  V30 4273 C 391.922 -1.06547 -3.30552 0
M  V30 4274 C 390.876 -2.15561 -3.69753 0
M  V30 4275 C 390.202 -1.77214 -5.04479 0
M  V30 4276 C 391.502 -3.57476 -3.808 0
M  V30 4277 H 393.196 -2.24303 -1.98314 0
M  V30 4278 H 390.742 -1.07977 -0.952736 0
M  V30 4279 H 392.695 -1.01729 -4.08937 0
M  V30 4280 H 391.419 -0.0875719 -3.26483 0
M  V30 4281 H 390.078 -2.19466 -2.9365 0
M  V30 4282 H 389.726 -0.780589 -4.96906 0
M  V30 4283 H 389.426 -2.50184 -5.31678 0
M  V30 4284 H 390.95 -1.7391 -5.8531 0
M  V30 4285 H 392.364 -3.55929 -4.4943 0
M  V30 4286 H 390.761 -4.29152 -4.19462 0
M  V30 4287 H 391.831 -3.94091 -2.82525 0
M  V30 4288 N 393.175 1.03435 -1.18907 0
M  V30 4289 C 394.422 1.76743 -0.988334 0
M  V30 4290 C 394.75 1.88447 0.481441 0
M  V30 4291 O 394.005 1.39383 1.37371 0
M  V30 4292 C 394.304 3.19792 -1.59586 0
M  V30 4293 C 393.97 3.28108 -3.09283 0
M  V30 4294 C 392.632 3.30084 -3.5014 0
M  V30 4295 C 394.984 3.27696 -4.05296 0
M  V30 4296 C 392.312 3.29299 -4.85571 0
M  V30 4297 C 394.664 3.28451 -5.4065 0
M  V30 4298 C 393.328 3.28723 -5.80946 0
M  V30 4299 H 392.598 0.64675 -0.361657 0
M  V30 4300 H 395.245 1.21442 -1.48068 0
M  V30 4301 H 393.55 3.78136 -1.02568 0
M  V30 4302 H 395.247 3.75171 -1.41589 0
M  V30 4303 H 391.837 3.27294 -2.76725 0
M  V30 4304 H 396.021 3.25354 -3.74778 0
M  V30 4305 H 391.277 3.2783 -5.16079 0
M  V30 4306 H 395.451 3.27082 -6.14809 0
M  V30 4307 H 393.078 3.27868 -6.85862 0
M  V30 4308 N 394.653 0.992116 1.22453 0
M  V30 4309 C 395.878 0.685644 1.95739 0
M  V30 4310 C 396.303 -0.743 1.72804 0
M  V30 4311 O 395.661 -1.50778 1.00676 0
M  V30 4312 C 395.709 0.996293 3.46564 0
M  V30 4313 O 394.813 0.0945512 4.12292 0
M  V30 4314 H 394.154 0.256694 0.612376 0
M  V30 4315 H 396.684 1.32888 1.5557 0
M  V30 4316 H 396.694 0.93781 3.97076 0
M  V30 4317 H 395.369 2.03733 3.62582 0
M  V30 4318 H 393.946 0.208451 3.72317 0
M  V30 4319 N 396.131 -1.37776 0.765217 0
M  V30 4320 C 397.094 -2.28686 0.153416 0
M  V30 4321 C 398.094 -1.47727 -0.635081 0
M  V30 4322 O 399.284 -1.68027 -0.459632 0
M  V30 4323 C 396.416 -3.31608 -0.790495 0
M  V30 4324 H 397.609 -2.84297 0.954723 0
M  V30 4325 H 395.162 -1.46932 0.53299 0
M  V30 4326 H 395.897 -2.81109 -1.61705 0
M  V30 4327 H 395.682 -3.9144 -0.227348 0
M  V30 4328 H 397.172 -3.99559 -1.21419 0
M  V30 4329 N 397.609 -0.515225 -1.4894 0
M  V30 4330 C 399.02 -0.0710067 -1.86565 0
M  V30 4331 C 399.371 1.34733 -1.42623 0
M  V30 4332 O 398.496 2.00653 -0.810379 0
M  V30 4333 C 399.091 -0.122083 -3.3858 0
M  V30 4334 C 397.65 0.266863 -3.75453 0
M  V30 4335 C 396.797 -0.488376 -2.72966 0
M  V30 4336 H 399.748 -0.727266 -1.41055 0
M  V30 4337 H 399.769 0.669818 -3.74558 0
M  V30 4338 H 399.281 -1.15448 -3.70531 0
M  V30 4339 H 397.382 1.30196 -3.49113 0
M  V30 4340 H 397.495 -0.0624811 -4.79059 0
M  V30 4341 H 395.859 0.0635622 -2.54621 0
M  V30 4342 H 396.642 -1.52113 -3.07761 0
M  V30 4343 N 399.087 1.5561 -0.249682 0
M  V30 4344 C 400.035 2.22894 0.664906 0
M  V30 4345 C 401.029 1.21743 1.17792 0
M  V30 4346 O 402.235 1.39748 1.13449 0
M  V30 4347 H 398.61 0.715022 0.232912 0
M  V30 4348 H 400.581 2.98307 0.0742998 0
M  V30 4349 C 399.33 2.94424 1.84959 0
M  V30 4350 H 398.653 3.72031 1.46399 0
M  V30 4351 H 400.093 3.44862 2.4667 0
M  V30 4352 C 398.552 1.98454 2.72245 0
M  V30 4353 O 399.082 1.51939 3.71857 0
M  V30 4354 N 397.288 1.65496 2.38871 0
M  V30 4355 H 396.835 2.03517 1.57919 0
M  V30 4356 H 396.793 1.0155 2.97548 0
M  V30 4357 N 400.565 -0.0233959 1.57583 0
M  V30 4358 C 401.795 -0.723631 1.93513 0
M  V30 4359 C 402.203 -1.69115 0.848333 0
M  V30 4360 O 401.546 -1.82781 -0.183484 0
M  V30 4361 C 401.608 -1.53075 3.25282 0
M  V30 4362 C 401.272 -0.727388 4.51174 0
M  V30 4363 C 402.269 -0.0251924 5.19894 0
M  V30 4364 C 399.954 -0.680256 4.97672 0
M  V30 4365 C 401.948 0.713374 6.33395 0
M  V30 4366 C 399.635 0.0620523 6.11068 0
M  V30 4367 C 400.633 0.757622 6.78785 0
M  V30 4368 O 400.321 1.48787 7.90011 0
M  V30 4369 H 400.053 -0.208051 0.643188 0
M  V30 4370 H 402.607 0.0167489 2.05393 0
M  V30 4371 H 400.837 -2.31508 3.09744 0
M  V30 4372 H 402.526 -2.11413 3.46496 0
M  V30 4373 H 403.292 -0.0526003 4.84971 0
M  V30 4374 H 399.171 -1.21116 4.44805 0
M  V30 4375 H 402.715 1.25683 6.86185 0
M  V30 4376 H 398.612 0.0913634 6.45435 0
M  V30 4377 H 399.38 1.40213 8.06401 0
M  V30 4378 N 402.043 -1.548 -0.295768 0
M  V30 4379 C 403.283 -1.76069 -1.03823 0
M  V30 4380 C 403.647 -0.537992 -1.84309 0
M  V30 4381 O 404.848 -0.628514 -2.61349 0
M  V30 4382 C 403.119 -3.01705 -1.91596 0
M  V30 4383 S 404.678 -3.43998 -2.72416 0
M  V30 4384 H 401.496 -0.618852 -0.350062 0
M  V30 4385 H 404.098 -1.93009 -0.31106 0
M  V30 4386 H 402.802 -3.88812 -1.31351 0
M  V30 4387 H 402.333 -2.87366 -2.68671 0
M  V30 4388 H 404.348 -3.0148 -3.94112 0
M  V30 4389 N 403.521 0.559213 -1.47345 0
M  V30 4390 C 404.769 1.31388 -1.53563 0
M  V30 4391 C 405.09 1.93985 -0.198678 0
M  V30 4392 O 404.36 1.79825 0.777167 0
M  V30 4393 H 402.94 0.487901 -0.565652 0
M  V30 4394 H 405.602 0.65315 -1.8363 0
M  V30 4395 H 404.698 2.10844 -2.30111 0
M  V30 4396 N 404.999 1.35443 0.805782 0
M  V30 4397 C 405.909 1.30546 1.94923 0
M  V30 4398 C 406.925 0.210233 1.72725 0
M  V30 4399 O 408.101 0.43975 1.9654 0
M  V30 4400 C 405.166 1.07782 3.29521 0
M  V30 4401 C 404.227 2.26625 3.64609 0
M  V30 4402 C 403.46 2.04938 4.92784 0
M  V30 4403 O 403.683 1.01624 5.61274 0
M  V30 4404 O 402.617 2.9232 5.26149 0
M  V30 4405 H 406.443 2.26779 2.02002 0
M  V30 4406 H 404.028 1.15823 0.943682 0
M  V30 4407 H 405.91 0.969392 4.10098 0
M  V30 4408 H 404.585 0.146003 3.23371 0
M  V30 4409 H 403.492 2.43033 2.84404 0
M  V30 4410 H 404.825 3.18257 3.75464 0
M  V30 4411 N 406.477 -1.02803 1.19454 0
M  V30 4412 C 407.724 -1.76217 0.997693 0
M  V30 4413 C 408.052 -1.887 -0.47144 0
M  V30 4414 O 407.307 -1.4011 -1.3663 0
M  V30 4415 C 407.606 -3.18941 1.6128 0
M  V30 4416 C 407.272 -3.26463 3.11019 0
M  V30 4417 C 405.934 -3.28223 3.51885 0
M  V30 4418 C 408.286 -3.25542 4.07028 0
M  V30 4419 C 405.614 -3.26719 4.8731 0
M  V30 4420 C 407.966 -3.25579 5.42385 0
M  V30 4421 C 406.63 -3.25637 5.82681 0
M  V30 4422 H 405.9 -0.644823 0.365082 0
M  V30 4423 H 408.547 -1.20655 1.4871 0
M  V30 4424 H 406.852 -3.77587 1.04572 0
M  V30 4425 H 408.549 -3.74415 1.43577 0
M  V30 4426 H 405.139 -3.25822 2.78457 0
M  V30 4427 H 409.323 -3.23362 3.76498 0
M  V30 4428 H 404.579 -3.25089 5.1781 0
M  V30 4429 H 408.753 -3.23817 6.16535 0
M  V30 4430 H 406.38 -3.24226 6.87591 0
M  V30 4431 N 407.956 -0.998596 -1.21925 0
M  V30 4432 C 409.233 -0.593401 -1.86382 0
M  V30 4433 C 409.613 0.92916 -1.89552 0
M  V30 4434 O 408.961 1.81347 -1.39017 0
M  V30 4435 C 409.171 -1.22039 -3.26967 0
M  V30 4436 C 410.519 -1.32449 -4.03413 0
M  V30 4437 O 411.543 -1.17522 -3.36254 0
M  V30 4438 O 410.402 -1.56395 -5.23644 0
M  V30 4439 H 407.496 -0.202385 -0.801854 0
M  V30 4440 H 410.042 -1.09484 -1.29659 0
M  V30 4441 H 408.814 -2.26158 -3.19325 0
M  V30 4442 H 408.437 -0.704906 -3.91301 0
M  V30 4443 N 409.434 1.37368 -0.772513 0
M  V30 4444 C 410.382 2.32134 -0.147111 0
M  V30 4445 C 411.376 1.54972 0.684106 0
M  V30 4446 O 412.582 1.70363 0.581083 0
M  V30 4447 H 408.957 0.751449 -0.028786 0
M  V30 4448 H 410.928 2.82464 -0.962112 0
M  V30 4449 C 409.677 3.40226 0.71703 0
M  V30 4450 H 409 3.99706 0.0867951 0
M  V30 4451 H 410.44 4.08897 1.12159 0
M  V30 4452 C 408.899 2.80372 1.86797 0
M  V30 4453 O 409.429 2.71183 2.96349 0
M  V30 4454 N 407.635 2.37904 1.66883 0
M  V30 4455 H 407.182 2.45578 0.777759 0
M  V30 4456 H 407.14 1.98202 2.44056 0
M  V30 4457 N 410.912 0.523116 1.48665 0
M  V30 4458 C 411.875 -0.232592 2.28017 0
M  V30 4459 C 412.875 -0.874021 1.34972 0
M  V30 4460 O 414.065 -0.735132 1.57929 0
M  V30 4461 C 411.197 -1.33586 3.13636 0
M  V30 4462 H 412.39 0.464008 2.96289 0
M  V30 4463 H 409.943 0.278816 1.53793 0
M  V30 4464 H 410.678 -2.06593 2.4998 0
M  V30 4465 H 410.463 -0.881125 3.82071 0
M  V30 4466 H 411.953 -1.86759 3.73511 0
M  V30 4467 N 412.39 -1.55475 0.257931 0
M  V30 4468 C 413.638 -1.98813 -0.363009 0
M  V30 4469 C 413.959 -1.14757 -1.57657 0
M  V30 4470 O 413.229 -0.232956 -1.9451 0
M  V30 4471 H 411.809 -0.734308 -0.137113 0
M  V30 4472 H 414.471 -1.9156 0.359281 0
M  V30 4473 H 413.567 -3.04941 -0.664634 0
M  V30 4474 N 413.868 0.0150385 -1.57593 0
M  V30 4475 C 414.831 0.995996 -2.06428 0
M  V30 4476 C 415.831 1.2818 -0.970903 0
M  V30 4477 O 417.021 1.22949 -1.23406 0
M  V30 4478 C 414.153 2.32506 -2.49307 0
M  V30 4479 H 415.346 0.573873 -2.94358 0
M  V30 4480 H 412.899 0.262186 -1.54085 0
M  V30 4481 H 413.634 2.79438 -1.64575 0
M  V30 4482 H 413.419 2.13087 -3.29145 0
M  V30 4483 H 414.909 3.02906 -2.87468 0
M  V30 4484 N 415.346 1.54954 0.287554 0
M  V30 4485 C 416.279 1.81737 1.3801 0
M  V30 4486 C 417.257 0.669412 1.48181 0
M  V30 4487 O 418.441 0.910839 1.65033 0
M  V30 4488 C 415.568 1.96606 2.75796 0
M  V30 4489 C 414.614 3.19098 2.82982 0
M  V30 4490 S 415.447 4.7683 2.43707 0
M  V30 4491 C 416.603 4.94653 3.83496 0
M  V30 4492 H 416.836 2.74122 1.15085 0
M  V30 4493 H 414.369 1.46538 0.486403 0
M  V30 4494 H 416.327 2.05858 3.55152 0
M  V30 4495 H 414.988 1.05136 2.95982 0
M  V30 4496 H 414.181 3.26344 3.84077 0
M  V30 4497 H 413.783 3.08361 2.11635 0
M  V30 4498 H 416.075 4.79502 4.78628 0
M  V30 4499 H 417.018 5.96728 3.8121 0
M  V30 4500 H 417.426 4.2272 3.74123 0
M  V30 4501 N 416.824 -0.551391 1.4764 0
M  V30 4502 C 417.757 -1.6738 1.5511 0
M  V30 4503 C 418.735 -1.5753 0.402856 0
M  V30 4504 O 419.919 -1.78307 0.611475 0
M  V30 4505 C 417.046 -3.05661 1.45908 0
M  V30 4506 C 416.092 -3.33938 2.65307 0
M  V30 4507 S 416.925 -3.22553 4.27457 0
M  V30 4508 C 418.081 -4.63317 4.20818 0
M  V30 4509 H 418.314 -1.6079 2.50068 0
M  V30 4510 H 415.847 -0.732674 1.35909 0
M  V30 4511 H 417.805 -3.8542 1.41286 0
M  V30 4512 H 416.466 -3.09711 0.523248 0
M  V30 4513 H 415.659 -4.34761 2.54948 0
M  V30 4514 H 415.261 -2.61809 2.67081 0
M  V30 4515 H 417.553 -5.54391 3.89431 0
M  V30 4516 H 418.496 -4.78732 5.21748 0
M  V30 4517 H 418.904 -4.41636 3.51593 0
M  V30 4518 N 418.302 -1.35869 -0.798587 0
M  V30 4519 C 419.527 -1.32883 -1.59238 0
M  V30 4520 C 419.952 0.0894587 -1.87887 0
M  V30 4521 O 419.31 1.05869 -1.47178 0
M  V30 4522 C 419.358 -2.14892 -2.89575 0
M  V30 4523 O 418.462 -1.53512 -3.82763 0
M  V30 4524 H 417.803 -0.455236 -0.48338 0
M  V30 4525 H 420.333 -1.79024 -0.990539 0
M  V30 4526 H 420.343 -2.27139 -3.38928 0
M  V30 4527 H 419.018 -3.17998 -2.68049 0
M  V30 4528 H 417.595 -1.50153 -3.41334 0
M  V30 4529 N 419.78 1.02168 -1.19998 0
M  V30 4530 C 421.026 1.75945 -1.00852 0
M  V30 4531 C 421.359 1.88702 0.458828 0
M  V30 4532 O 420.634 1.40911 1.34069 0
M  V30 4533 C 420.917 3.18154 -1.68671 0
M  V30 4534 C 420.77 3.13224 -3.22817 0
M  V30 4535 C 422.089 4.16711 -1.41561 0
M  V30 4536 H 419.208 0.638673 -0.367785 0
M  V30 4537 H 421.85 1.19222 -1.4794 0
M  V30 4538 H 420 3.66586 -1.28636 0
M  V30 4539 H 421.672 2.72635 -3.72112 0
M  V30 4540 H 419.915 2.50751 -3.53986 0
M  V30 4541 H 420.586 4.13728 -3.65422 0
M  V30 4542 H 423.062 3.76913 -1.76284 0
M  V30 4543 H 421.938 5.14391 -1.91553 0
M  V30 4544 H 422.199 4.40774 -0.342193 0
M  V30 4545 N 421.258 1.00505 1.21394 0
M  V30 4546 C 422.535 0.603277 1.86064 0
M  V30 4547 C 422.915 -0.919095 1.90042 0
M  V30 4548 O 422.263 -1.80607 1.39977 0
M  V30 4549 C 422.473 1.23772 3.26315 0
M  V30 4550 C 423.821 1.34586 4.02705 0
M  V30 4551 O 424.845 1.19304 3.35626 0
M  V30 4552 O 423.704 1.59169 5.22807 0
M  V30 4553 H 420.798 0.206634 0.800769 0
M  V30 4554 H 423.344 1.1017 1.29076 0
M  V30 4555 H 422.116 2.27848 3.18121 0
M  V30 4556 H 421.739 0.725648 3.90922 0
M  V30 4557 N 422.737 -1.36956 0.779787 0
M  V30 4558 C 423.647 -2.33965 0.172491 0
M  V30 4559 C 424.663 -1.60574 -0.670222 0
M  V30 4560 O 425.839 -1.92617 -0.588263 0
M  V30 4561 C 422.904 -3.39761 -0.690173 0
M  V30 4562 C 421.965 -4.28964 0.169924 0
M  V30 4563 C 421.198 -5.29707 -0.651662 0
M  V30 4564 O 421.421 -5.38238 -1.88827 0
M  V30 4565 O 420.355 -6.01873 -0.0566264 0
M  V30 4566 H 424.181 -2.87647 0.974321 0
M  V30 4567 H 421.766 -1.39258 0.541078 0
M  V30 4568 H 423.648 -4.04471 -1.1824 0
M  V30 4569 H 422.323 -2.88394 -1.47006 0
M  V30 4570 H 421.23 -3.67326 0.708696 0
M  V30 4571 H 422.563 -4.83656 0.913085 0
M  V30 4572 N 424.215 -0.530993 -1.48385 0
M  V30 4573 C 425.443 -0.00134122 -2.069 0
M  V30 4574 C 425.858 1.2805 -1.3874 0
M  V30 4575 O 425.215 1.76204 -0.475244 0
M  V30 4576 C 425.266 0.225256 -3.60798 0
M  V30 4577 O 424.987 -1.0058 -4.26398 0
M  V30 4578 C 426.488 0.795172 -4.3611 0
M  V30 4579 H 423.708 -0.0339704 -0.67014 0
M  V30 4580 H 426.252 -0.736926 -1.90761 0
M  V30 4581 H 424.407 0.910891 -3.76539 0
M  V30 4582 H 424.821 -0.787165 -5.1856 0
M  V30 4583 H 426.295 0.903143 -5.44562 0
M  V30 4584 H 426.772 1.80031 -4.00606 0
M  V30 4585 H 427.378 0.146069 -4.25049 0
M  V30 4586 N 425.693 1.55336 -0.266172 0
M  V30 4587 C 426.623 2.25146 0.618981 0
M  V30 4588 C 427.604 1.23845 1.16604 0
M  V30 4589 O 428.789 1.52544 1.20183 0
M  V30 4590 C 425.919 2.96572 1.80728 0
M  V30 4591 C 424.873 4.04726 1.39215 0
M  V30 4592 C 424.199 4.63678 2.66283 0
M  V30 4593 C 425.499 5.19407 0.548942 0
M  V30 4594 H 427.193 2.99377 0.0368116 0
M  V30 4595 H 424.739 1.43991 0.0162651 0
M  V30 4596 H 426.692 3.44116 2.43232 0
M  V30 4597 H 425.416 2.19861 2.41514 0
M  V30 4598 H 424.075 3.57979 0.790351 0
M  V30 4599 H 423.723 3.83646 3.25308 0
M  V30 4600 H 423.423 5.367 2.39222 0
M  V30 4601 H 424.947 5.13967 3.29651 0
M  V30 4602 H 426.361 5.63059 1.07876 0
M  V30 4603 H 424.758 5.98936 0.373593 0
M  V30 4604 H 425.828 4.8295 -0.434394 0
M  V30 4605 N 427.171 -0.0066808 1.57599 0
M  V30 4606 C 428.104 -1.03397 2.03431 0
M  V30 4607 C 429.082 -1.33872 0.922877 0
M  V30 4608 O 430.266 -1.4615 1.19048 0
M  V30 4609 C 427.393 -2.36325 2.42628 0
M  V30 4610 C 426.439 -2.21557 3.64438 0
M  V30 4611 S 427.272 -1.54789 5.12641 0
M  V30 4612 C 428.428 -2.8916 5.55101 0
M  V30 4613 H 428.661 -0.643687 2.90248 0
M  V30 4614 H 426.194 -0.217349 1.52863 0
M  V30 4615 H 428.152 -3.12759 2.65879 0
M  V30 4616 H 426.813 -2.72495 1.56222 0
M  V30 4617 H 426.006 -3.1974 3.89592 0
M  V30 4618 H 425.608 -1.53267 3.41153 0
M  V30 4619 H 427.9 -3.8547 5.57153 0
M  V30 4620 H 428.843 -2.68713 6.55133 0
M  V30 4621 H 429.251 -2.92762 4.82649 0
M  V30 4622 N 428.649 -1.55105 -0.279332 0
M  V30 4623 C 429.889 -1.7716 -1.01949 0
M  V30 4624 C 430.253 -0.557511 -1.83728 0
M  V30 4625 O 431.454 -0.656198 -2.60667 0
M  V30 4626 C 429.725 -3.0372 -1.88385 0
M  V30 4627 S 431.284 -3.46868 -2.68752 0
M  V30 4628 H 428.102 -0.62253 -0.343478 0
M  V30 4629 H 430.704 -1.93329 -0.290572 0
M  V30 4630 H 429.408 -3.90184 -1.2722 0
M  V30 4631 H 428.939 -2.902 -2.65608 0
M  V30 4632 H 430.954 -3.05643 -3.90892 0
M  V30 4633 N 430.127 0.543554 -1.4793 0
M  V30 4634 C 431.352 1.32995 -1.59145 0
M  V30 4635 C 431.777 1.86472 -0.246956 0
M  V30 4636 O 431.135 1.63696 0.779324 0
M  V30 4637 C 431.183 2.46623 -2.63077 0
M  V30 4638 O 430.287 3.49261 -2.19295 0
M  V30 4639 H 429.628 0.394472 -0.534124 0
M  V30 4640 H 432.158 0.655489 -1.93816 0
M  V30 4641 H 432.168 2.93001 -2.83926 0
M  V30 4642 H 430.843 2.07059 -3.60693 0
M  V30 4643 H 429.42 3.09094 -2.08603 0
M  V30 4644 N 431.605 1.3629 0.791371 0
M  V30 4645 C 432.852 1.30412 1.54916 0
M  V30 4646 C 433.18 -0.117162 1.94147 0
M  V30 4647 O 432.435 -1.08599 1.62803 0
M  V30 4648 C 432.734 2.17068 2.8393 0
M  V30 4649 C 432.4 3.65645 2.63846 0
M  V30 4650 C 431.062 4.0614 2.58077 0
M  V30 4651 C 433.414 4.59855 2.45322 0
M  V30 4652 C 430.742 5.3899 2.31748 0
M  V30 4653 C 433.094 5.9292 2.2052 0
M  V30 4654 C 431.758 6.32542 2.13183 0
M  V30 4655 H 431.028 0.47721 0.566879 0
M  V30 4656 H 433.675 1.68325 0.913172 0
M  V30 4657 H 431.98 1.72085 3.51986 0
M  V30 4658 H 433.677 2.09846 3.4171 0
M  V30 4659 H 430.267 3.33518 2.69191 0
M  V30 4660 H 434.451 4.29443 2.48782 0
M  V30 4661 H 429.707 5.68672 2.24548 0
M  V30 4662 H 433.881 6.65487 2.05182 0
M  V30 4663 H 431.508 7.35412 1.92544 0
M  V30 4664 N 433.083 -1.0153 1.20538 0
M  V30 4665 C 434.015 -2.10224 0.913155 0
M  V30 4666 C 435.028 -1.62495 -0.0995998 0
M  V30 4667 O 436.217 -1.78014 0.131582 0
M  V30 4668 C 433.317 -3.37111 0.347717 0
M  V30 4669 C 432.49 -4.13971 1.41233 0
M  V30 4670 C 431.549 -5.19158 0.857976 0
M  V30 4671 O 430.575 -5.48 1.53897 0
M  V30 4672 N 431.777 -5.7955 -0.331966 0
M  V30 4673 H 434.542 -2.35879 1.84881 0
M  V30 4674 H 432.103 -1.17931 1.10923 0
M  V30 4675 H 434.095 -4.04683 -0.0373026 0
M  V30 4676 H 432.665 -3.08696 -0.492527 0
M  V30 4677 H 431.885 -3.41351 1.97163 0
M  V30 4678 H 433.173 -4.62103 2.12928 0
M  V30 4679 H 432.571 -5.58455 -0.902478 0
M  V30 4680 H 431.128 -6.48464 -0.65861 0
M  V30 4681 N 434.561 -1.01147 -1.20859 0
M  V30 4682 C 435.81 -0.693214 -1.89413 0
M  V30 4683 C 436.123 0.779969 -1.79376 0
M  V30 4684 O 437.329 1.21057 -2.43017 0
M  V30 4685 C 435.785 -1.18949 -3.39675 0
M  V30 4686 C 435.393 -2.68921 -3.58309 0
M  V30 4687 C 437.137 -0.94642 -4.13815 0
M  V30 4688 C 435.044 -3.12056 -5.0237 0
M  V30 4689 H 433.974 -0.255595 -0.709357 0
M  V30 4690 H 436.625 -1.22349 -1.36759 0
M  V30 4691 H 435.007 -0.587228 -3.91622 0
M  V30 4692 H 436.181 -3.34652 -3.16772 0
M  V30 4693 H 434.496 -2.91314 -2.97532 0
M  V30 4694 H 437.093 -1.24417 -5.20023 0
M  V30 4695 H 437.436 0.117219 -4.16135 0
M  V30 4696 H 437.969 -1.5118 -3.67953 0
M  V30 4697 H 434.708 -4.17674 -5.05202 0
M  V30 4698 H 434.228 -2.51041 -5.44737 0
M  V30 4699 H 435.907 -3.04403 -5.70918 0
M  V30 4700 N 436.039 1.36541 -0.78704 0
M  V30 4701 C 436.969 2.32659 -0.197992 0
M  V30 4702 C 437.95 1.56533 0.665697 0
M  V30 4703 O 439.135 1.84698 0.60001 0
M  V30 4704 C 436.265 3.40778 0.669901 0
M  V30 4705 C 435.219 4.27897 -0.0937039 0
M  V30 4706 C 434.545 5.27163 0.894629 0
M  V30 4707 C 435.845 5.06334 -1.28154 0
M  V30 4708 H 437.539 2.82171 -1.00099 0
M  V30 4709 H 435.085 1.35665 -0.482793 0
M  V30 4710 H 437.038 4.07008 1.09191 0
M  V30 4711 H 435.762 2.89827 1.50558 0
M  V30 4712 H 434.421 3.6322 -0.49666 0
M  V30 4713 H 434.069 4.72486 1.72527 0
M  V30 4714 H 433.769 5.86317 0.388149 0
M  V30 4715 H 435.293 5.96266 1.31525 0
M  V30 4716 H 436.707 5.65617 -0.93541 0
M  V30 4717 H 435.104 5.74888 -1.72115 0
M  V30 4718 H 436.174 4.38114 -2.07807 0
M  V30 4719 N 437.518 0.538854 1.48102 0
M  V30 4720 C 438.465 -0.219042 2.29758 0
M  V30 4721 C 439.435 -0.925562 1.37922 0
M  V30 4722 O 440.62 -0.924855 1.66886 0
M  V30 4723 C 437.76 -1.25452 3.2149 0
M  V30 4724 C 436.873 -0.555943 4.28408 0
M  V30 4725 C 436.008 -1.57512 5.0731 0
M  V30 4726 C 435.047 -0.860498 6.06021 0
M  V30 4727 N 434.184 -1.82564 6.77949 0
M  V30 4728 H 439.024 0.483449 2.94052 0
M  V30 4729 H 436.561 0.250247 1.44956 0
M  V30 4730 H 438.519 -1.86727 3.7308 0
M  V30 4731 H 437.149 -1.92528 2.591 0
M  V30 4732 H 436.201 0.170938 3.80016 0
M  V30 4733 H 437.513 0.00474616 4.988 0
M  V30 4734 H 436.667 -2.26191 5.62959 0
M  V30 4735 H 435.406 -2.16972 4.36778 0
M  V30 4736 H 434.411 -0.159686 5.49568 0
M  V30 4737 H 435.636 -0.271897 6.78555 0
M  V30 4738 H 433.582 -2.40915 6.10161 0
M  V30 4739 H 433.499 -1.31662 7.44447 0
M  V30 4740 H 434.767 -2.50414 7.38182 0
M  V30 4741 N 438.996 -1.55193 0.274407 0
M  V30 4742 C 440.407 -1.85358 -0.223488 0
M  V30 4743 C 440.758 -1.19642 -1.555 0
M  V30 4744 O 439.883 -0.484498 -2.10907 0
M  V30 4745 C 440.478 -3.36282 -0.412285 0
M  V30 4746 C 439.037 -3.66574 -0.854413 0
M  V30 4747 C 438.184 -2.7725 0.0527056 0
M  V30 4748 H 441.135 -1.50743 0.496215 0
M  V30 4749 H 441.156 -3.59349 -1.25094 0
M  V30 4750 H 440.668 -3.84083 0.556965 0
M  V30 4751 H 438.769 -3.24273 -1.83516 0
M  V30 4752 H 438.882 -4.74073 -0.692226 0
M  V30 4753 H 437.246 -2.50447 -0.463484 0
M  V30 4754 H 438.029 -3.27865 1.01783 0
M  V30 4755 N 440.474 -0.00167713 -1.576 0
M  V30 4756 C 441.437 0.974046 -2.07473 0
M  V30 4757 C 442.437 1.27143 -0.984444 0
M  V30 4758 O 443.627 1.21633 -1.24703 0
M  V30 4759 C 440.759 2.29849 -2.51759 0
M  V30 4760 H 441.952 0.54262 -2.9495 0
M  V30 4761 H 439.505 0.245829 -1.54355 0
M  V30 4762 H 440.24 2.77677 -1.67529 0
M  V30 4763 H 440.025 2.09584 -3.31386 0
M  V30 4764 H 441.515 2.9984 -2.90664 0
M  V30 4765 N 441.952 1.55251 0.271103 0
M  V30 4766 C 443.229 1.66664 1.02384 0
M  V30 4767 C 443.609 0.534363 2.04225 0
M  V30 4768 O 442.957 -0.465337 2.23712 0
M  V30 4769 C 443.167 3.05961 1.67895 0
M  V30 4770 C 444.515 3.63772 2.18986 0
M  V30 4771 O 445.539 3.08606 1.77878 0
M  V30 4772 O 444.398 4.60429 2.94393 0
M  V30 4773 H 441.492 0.676957 0.475035 0
M  V30 4774 H 444.038 1.67589 0.26681 0
M  V30 4775 H 442.81 3.79815 0.941071 0
M  V30 4776 H 442.433 3.08943 2.5028 0
M  V30 4777 N 443.43 -0.535701 1.48216 0
M  V30 4778 C 444.377 -1.64083 1.62312 0
M  V30 4779 C 445.347 -1.59448 0.465365 0
M  V30 4780 O 446.532 -1.77959 0.688135 0
M  V30 4781 C 443.672 -3.0236 1.66349 0
M  V30 4782 C 442.785 -3.17273 2.93193 0
M  V30 4783 C 441.92 -4.46075 2.88427 0
M  V30 4784 C 440.959 -4.54496 4.1 0
M  V30 4785 N 440.096 -5.7468 4.03345 0
M  V30 4786 H 444.936 -1.51374 2.5669 0
M  V30 4787 H 442.473 -0.737059 1.27302 0
M  V30 4788 H 444.431 -3.82461 1.66672 0
M  V30 4789 H 443.061 -3.13854 0.754672 0
M  V30 4790 H 442.113 -2.30462 3.02641 0
M  V30 4791 H 443.425 -3.19357 3.83162 0
M  V30 4792 H 442.579 -5.3446 2.87119 0
M  V30 4793 H 441.318 -4.46504 1.96177 0
M  V30 4794 H 440.323 -3.64519 4.11589 0
M  V30 4795 H 441.548 -4.5581 5.03402 0
M  V30 4796 H 439.494 -5.76017 3.13912 0
M  V30 4797 H 439.411 -5.78234 4.87013 0
M  V30 4798 H 440.679 -6.65367 4.06087 0
M  V30 4799 N 444.908 -1.36708 -0.784132 0
M  V30 4800 C 445.856 -1.31533 -1.91838 0
M  V30 4801 C 446.85 -0.206205 -1.6814 0
M  V30 4802 O 448.056 -0.373519 -1.76082 0
M  V30 4803 H 444.431 -0.409613 -0.630651 0
M  V30 4804 H 446.402 -2.2731 -1.9332 0
M  V30 4805 C 445.151 -1.12679 -3.28936 0
M  V30 4806 H 444.474 -1.97274 -3.4774 0
M  V30 4807 H 445.914 -1.13106 -4.08636 0
M  V30 4808 C 444.373 0.168281 -3.36479 0
M  V30 4809 O 444.903 1.15625 -3.84699 0
M  V30 4810 N 443.109 0.214762 -2.89805 0
M  V30 4811 H 442.656 -0.589852 -2.50756 0
M  V30 4812 H 442.614 1.08094 -2.95234 0
M  V30 4813 N 446.386 1.0089 -1.21074 0
M  V30 4814 C 447.333 2.09588 -0.966512 0
M  V30 4815 C 448.303 1.65761 0.106089 0
M  V30 4816 O 449.488 1.90758 -0.0402287 0
M  V30 4817 C 446.628 3.40958 -0.533058 0
M  V30 4818 C 445.741 3.9822 -1.67467 0
M  V30 4819 C 444.876 5.17682 -1.19076 0
M  V30 4820 C 443.915 5.67043 -2.30496 0
M  V30 4821 N 443.052 6.77759 -1.83267 0
M  V30 4822 H 447.892 2.29815 -1.89708 0
M  V30 4823 H 445.429 1.12689 -0.945489 0
M  V30 4824 H 447.387 4.1637 -0.263019 0
M  V30 4825 H 446.017 3.20781 0.360505 0
M  V30 4826 H 445.069 3.1983 -2.05944 0
M  V30 4827 H 446.381 4.3085 -2.51336 0
M  V30 4828 H 445.535 6.00326 -0.877151 0
M  V30 4829 H 444.274 4.86635 -0.322066 0
M  V30 4830 H 443.279 4.82999 -2.62664 0
M  V30 4831 H 444.504 6.00121 -3.17855 0
M  V30 4832 H 442.45 6.48527 -0.987356 0
M  V30 4833 H 442.367 7.09624 -2.60711 0
M  V30 4834 H 443.635 7.63949 -1.54928 0
M  V30 4835 N 447.864 1.01787 1.20321 0
M  V30 4836 C 449.112 0.706538 1.89347 0
M  V30 4837 C 449.433 -0.766289 1.79313 0
M  V30 4838 O 448.703 -1.55126 1.19635 0
M  V30 4839 H 447.283 0.258348 0.700903 0
M  V30 4840 H 449.945 1.28974 1.46122 0
M  V30 4841 H 449.041 0.991066 2.95946 0
M  V30 4842 N 449.342 -1.36122 0.79427 0
M  V30 4843 C 450.289 -2.29982 0.194101 0
M  V30 4844 C 451.259 -1.52214 -0.664833 0
M  V30 4845 O 452.444 -1.80702 -0.612498 0
M  V30 4846 C 449.584 -3.38706 -0.661244 0
M  V30 4847 C 448.697 -4.31456 0.216766 0
M  V30 4848 C 447.832 -5.27265 -0.645411 0
M  V30 4849 C 446.871 -6.11653 0.233756 0
M  V30 4850 N 446.008 -6.99636 -0.587682 0
M  V30 4851 H 450.848 -2.80722 0.999965 0
M  V30 4852 H 448.385 -1.38172 0.504677 0
M  V30 4853 H 450.343 -4.00394 -1.17219 0
M  V30 4854 H 448.973 -2.89274 -1.43249 0
M  V30 4855 H 448.025 -3.7088 0.845724 0
M  V30 4856 H 449.337 -4.90724 0.893973 0
M  V30 4857 H 448.491 -5.94266 -1.22198 0
M  V30 4858 H 447.23 -4.68463 -1.35623 0
M  V30 4859 H 446.235 -5.4361 0.82269 0
M  V30 4860 H 447.46 -6.72531 0.942247 0
M  V30 4861 H 445.406 -6.43337 -1.2827 0
M  V30 4862 H 445.323 -7.55993 0.0317402 0
M  V30 4863 H 446.591 -7.71001 -1.14792 0
M  V30 4864 N 450.82 -0.546701 -1.47814 0
M  V30 4865 C 452.05 -0.0232519 -2.06587 0
M  V30 4866 C 452.458 1.2712 -1.40133 0
M  V30 4867 O 451.801 1.77091 -0.488305 0
M  V30 4868 C 451.863 0.254117 -3.58601 0
M  V30 4869 C 451.527 -0.949331 -4.47031 0
M  V30 4870 C 452.524 -1.85216 -4.85789 0
M  V30 4871 C 450.209 -1.16104 -4.88697 0
M  V30 4872 C 452.203 -2.95047 -5.65001 0
M  V30 4873 C 449.89 -2.26247 -5.67676 0
M  V30 4874 C 450.888 -3.1555 -6.05737 0
M  V30 4875 O 450.576 -4.23784 -6.83127 0
M  V30 4876 H 450.308 -0.0380082 -0.674931 0
M  V30 4877 H 452.862 -0.756631 -1.90956 0
M  V30 4878 H 451.092 1.04168 -3.72406 0
M  V30 4879 H 452.781 0.72167 -3.99433 0
M  V30 4880 H 453.547 -1.70061 -4.54207 0
M  V30 4881 H 449.426 -0.475159 -4.58545 0
M  V30 4882 H 452.97 -3.64778 -5.94628 0
M  V30 4883 H 448.867 -2.41379 -5.98671 0
M  V30 4884 H 449.635 -4.21701 -7.01506 0
M  V30 4885 N 452.299 1.55045 -0.282633 0
M  V30 4886 C 453.547 1.99365 0.331334 0
M  V30 4887 C 453.868 1.1725 1.55812 0
M  V30 4888 O 453.138 0.263871 1.94115 0
M  V30 4889 H 451.718 0.736397 0.125414 0
M  V30 4890 H 454.38 1.90964 -0.389711 0
M  V30 4891 H 453.476 3.0596 0.616036 0
M  V30 4892 N 453.777 0.010035 1.57597 0
M  V30 4893 C 454.709 -1.00649 2.05918 0
M  V30 4894 C 455.722 -1.30077 0.978964 0
M  V30 4895 O 456.911 -1.26878 1.25556 0
M  V30 4896 C 454.011 -2.33876 2.45265 0
M  V30 4897 C 453.184 -2.23242 3.7614 0
M  V30 4898 C 452.243 -3.39242 4.02245 0
M  V30 4899 O 451.269 -3.1698 4.72771 0
M  V30 4900 N 452.471 -4.6242 3.50924 0
M  V30 4901 H 455.236 -0.594333 2.93748 0
M  V30 4902 H 452.797 -0.17714 1.60928 0
M  V30 4903 H 454.789 -3.1027 2.59836 0
M  V30 4904 H 453.359 -2.66799 1.62902 0
M  V30 4905 H 452.579 -1.31696 3.71551 0
M  V30 4906 H 453.867 -2.13321 4.61922 0
M  V30 4907 H 453.265 -4.83404 2.93832 0
M  V30 4908 H 451.822 -5.36046 3.70807 0
M  V30 4909 N 455.255 -1.55392 -0.262866 0
M  V30 4910 C 456.502 -1.76476 -0.993109 0
M  V30 4911 C 456.83 -0.571479 -1.85915 0
M  V30 4912 O 456.085 0.445733 -1.90556 0
M  V30 4913 C 456.384 -3.02889 -1.89718 0
M  V30 4914 C 456.05 -4.34974 -1.18781 0
M  V30 4915 C 454.712 -4.7087 -0.991699 0
M  V30 4916 C 457.064 -5.16695 -0.683798 0
M  V30 4917 C 454.392 -5.86036 -0.279024 0
M  V30 4918 C 456.744 -6.32598 0.0153327 0
M  V30 4919 C 455.408 -6.67127 0.223062 0
M  V30 4920 H 454.678 -0.64577 -0.363404 0
M  V30 4921 H 457.325 -1.89664 -0.264525 0
M  V30 4922 H 455.63 -2.84644 -2.6923 0
M  V30 4923 H 457.327 -3.16399 -2.46359 0
M  V30 4924 H 453.917 -4.06765 -1.35058 0
M  V30 4925 H 458.101 -4.8943 -0.8229 0
M  V30 4926 H 453.357 -6.11306 -0.107456 0
M  V30 4927 H 457.531 -6.95171 0.413584 0
M  V30 4928 H 455.158 -7.56216 0.777265 0
M  V30 4929 N 456.733 0.527833 -1.48498 0
M  V30 4930 C 457.958 1.313 -1.60546 0
M  V30 4931 C 458.383 1.86199 -0.26672 0
M  V30 4932 O 457.741 1.64513 0.761918 0
M  V30 4933 C 457.789 2.43818 -2.65678 0
M  V30 4934 O 456.893 3.46916 -2.22987 0
M  V30 4935 H 456.234 0.388784 -0.538277 0
M  V30 4936 H 458.764 0.634896 -1.945 0
M  V30 4937 H 458.774 2.89973 -2.87018 0
M  V30 4938 H 457.449 2.03222 -3.62869 0
M  V30 4939 H 456.026 3.06864 -2.11869 0
M  V30 4940 N 458.211 1.37122 0.776871 0
M  V30 4941 C 459.459 1.31787 1.53221 0
M  V30 4942 C 459.78 -0.0987589 1.9475 0
M  V30 4943 O 459.05 -1.0417 1.65908 0
M  V30 4944 H 457.63 0.484839 0.568278 0
M  V30 4945 H 460.292 1.71556 0.924917 0
M  V30 4946 H 459.388 1.95355 2.43398 0
M  V30 4947 N 459.689 -1.00246 1.21608 0
M  V30 4948 C 460.619 -2.10921 1.00172 0
M  V30 4949 C 461.6 -1.69938 -0.0741587 0
M  V30 4950 O 462.785 -1.94009 0.0861753 0
M  V30 4951 C 459.915 -3.42618 0.568355 0
M  V30 4952 C 458.869 -3.97407 1.58909 0
M  V30 4953 C 458.195 -5.25038 1.01187 0
M  V30 4954 C 459.495 -4.2918 2.97661 0
M  V30 4955 H 461.189 -2.29112 1.92739 0
M  V30 4956 H 458.735 -1.10101 0.928102 0
M  V30 4957 H 460.688 -4.19444 0.405555 0
M  V30 4958 H 459.412 -3.24227 -0.392961 0
M  V30 4959 H 458.071 -3.22703 1.73949 0
M  V30 4960 H 457.719 -5.02982 0.0421965 0
M  V30 4961 H 457.419 -5.62661 1.6937 0
M  V30 4962 H 458.943 -6.04507 0.860448 0
M  V30 4963 H 460.357 -4.96839 2.86049 0
M  V30 4964 H 458.754 -4.77952 3.6288 0
M  V30 4965 H 459.824 -3.3735 3.48315 0
M  V30 4966 N 461.167 -1.02423 -1.1978 0
M  V30 4967 C 462.115 -0.594474 -2.24875 0
M  V30 4968 C 463.109 0.370598 -1.65296 0
M  V30 4969 O 464.315 0.239684 -1.78397 0
M  V30 4970 H 460.69 -0.173961 -0.731602 0
M  V30 4971 H 462.661 -1.4916 -2.58445 0
M  V30 4972 C 461.41 0.0436512 -3.47673 0
M  V30 4973 H 460.733 -0.689963 -3.93801 0
M  V30 4974 H 462.173 0.307362 -4.22884 0
M  V30 4975 C 460.632 1.28881 -3.11274 0
M  V30 4976 O 461.162 2.38135 -3.23503 0
M  V30 4977 N 459.368 1.1758 -2.6575 0
M  V30 4978 H 458.915 0.286769 -2.55999 0
M  V30 4979 H 458.873 2.00988 -2.41767 0
M  V30 4980 N 462.645 1.35699 -0.801477 0
M  V30 4981 C 464.056 1.81415 -0.441073 0
M  V30 4982 C 464.407 1.66595 1.03636 0
M  V30 4983 O 463.532 1.19369 1.80499 0
M  V30 4984 C 464.127 3.29369 -0.793819 0
M  V30 4985 C 462.686 3.73248 -0.486083 0
M  V30 4986 C 461.833 2.57775 -1.02213 0
M  V30 4987 H 464.784 1.23749 -0.993572 0
M  V30 4988 H 464.805 3.80395 -0.0894158 0
M  V30 4989 H 464.317 3.40123 -1.86917 0
M  V30 4990 H 462.418 3.68046 0.580735 0
M  V30 4991 H 462.531 4.68222 -1.01513 0
M  V30 4992 H 460.895 2.50788 -0.444712 0
M  V30 4993 H 461.678 2.71309 -2.10348 0
M  V30 4994 N 464.123 0.554532 1.47522 0
M  V30 4995 C 465.371 0.0294208 2.02079 0
M  V30 4996 C 465.692 -1.32411 1.43151 0
M  V30 4997 O 464.962 -1.863 0.605728 0
M  V30 4998 H 463.542 0.00788672 0.746958 0
M  V30 4999 H 466.204 0.723934 1.80956 0
M  V30 5000 H 465.3 -0.0606745 3.12041 0
M  V30 5001 N 465.601 -1.54893 0.290851 0
M  V30 5002 C 466.849 -1.99538 -0.320756 0
M  V30 5003 C 467.17 -1.18075 -1.55188 0
M  V30 5004 O 466.44 -0.274162 -1.93972 0
M  V30 5005 H 465.02 -0.737052 -0.121507 0
M  V30 5006 H 467.682 -1.90755 0.399832 0
M  V30 5007 H 466.778 -3.06282 -0.599802 0
M  V30 5008 N 467.08 -0.0183926 -1.57589 0
M  V30 5009 C 468.496 0.337897 -1.55982 0
M  V30 5010 C 468.696 1.73604 -1.02294 0
M  V30 5011 O 467.752 2.43589 -0.664895 0
M  V30 5012 C 469.065 0.196305 -3.00059 0
M  V30 5013 C 470.613 0.269875 -3.11834 0
M  V30 5014 C 471.088 0.157197 -4.5773 0
M  V30 5015 N 472.579 0.214521 -4.62703 0
M  V30 5016 C 473.314 0.150955 -5.73201 0
M  V30 5017 N 472.81 0.0369212 -6.9279 0
M  V30 5018 N 474.603 0.204162 -5.61729 0
M  V30 5019 H 466.754 -0.93279 -1.90821 0
M  V30 5020 H 469.017 -0.359253 -0.877292 0
M  V30 5021 H 468.723 -0.766383 -3.43248 0
M  V30 5022 H 468.597 0.970908 -3.6449 0
M  V30 5023 H 470.984 1.22302 -2.68563 0
M  V30 5024 H 471.065 -0.534918 -2.50144 0
M  V30 5025 H 470.709 -0.792479 -5.01679 0
M  V30 5026 H 470.639 0.980717 -5.17387 0
M  V30 5027 H 473.13 0.303238 -3.76681 0
M  V30 5028 H 473.443 -0.00518321 -7.728 0
M  V30 5029 H 471.788 0.0022886 -6.95 0
M  V30 5030 H 474.979 0.291575 -4.67191 0
M  V30 5031 H 475.152 0.15116 -6.47824 0
M  V30 5032 N 468.558 1.5553 0.254621 0
M  V30 5033 C 469.969 1.67518 0.824286 0
M  V30 5034 C 470.32 0.614429 1.86331 0
M  V30 5035 O 469.445 -0.240736 2.15057 0
M  V30 5036 C 470.04 3.03692 1.50189 0
M  V30 5037 C 468.599 3.17646 2.01935 0
M  V30 5038 C 467.746 2.63373 0.867746 0
M  V30 5039 H 470.697 1.58671 0.0305843 0
M  V30 5040 H 470.718 2.97706 2.36962 0
M  V30 5041 H 470.23 3.80874 0.745431 0
M  V30 5042 H 468.331 2.45273 2.80485 0
M  V30 5043 H 468.444 4.24455 2.22204 0
M  V30 5044 H 466.808 2.20999 1.26616 0
M  V30 5045 H 467.591 3.43074 0.124498 0
M  V30 5046 N 470.036 -0.519951 1.48776 0
M  V30 5047 C 471.285 -1.27175 1.56555 0
M  V30 5048 C 471.598 -1.9401 0.248869 0
M  V30 5049 O 472.804 -2.70725 0.205004 0
M  V30 5050 C 471.26 -2.30811 2.76142 0
M  V30 5051 C 470.868 -1.7 4.14493 0
M  V30 5052 C 472.612 -3.06937 2.9324 0
M  V30 5053 C 470.519 -2.71635 5.25327 0
M  V30 5054 H 469.449 -0.478329 0.582853 0
M  V30 5055 H 472.1 -0.547916 1.75129 0
M  V30 5056 H 470.482 -3.06274 2.51023 0
M  V30 5057 H 471.656 -1.00658 4.49672 0
M  V30 5058 H 469.971 -1.06331 4.02595 0
M  V30 5059 H 472.568 -3.82905 3.73213 0
M  V30 5060 H 472.911 -3.63409 2.03075 0
M  V30 5061 H 473.444 -2.38589 3.18308 0
M  V30 5062 H 470.183 -2.1997 6.1749 0
M  V30 5063 H 469.703 -3.39275 4.94624 0
M  V30 5064 H 471.382 -3.34429 5.53865 0
M  V30 5065 N 471.514 -1.37532 -0.769588 0
M  V30 5066 C 472.742 -1.36059 -1.55871 0
M  V30 5067 C 473.157 0.053544 -1.88724 0
M  V30 5068 O 472.514 1.01591 -1.5161 0
M  V30 5069 C 472.565 -2.20107 -2.86767 0
M  V30 5070 O 472.286 -3.56009 -2.55321 0
M  V30 5071 C 473.787 -2.26636 -3.80987 0
M  V30 5072 H 471.007 -0.465967 -0.482821 0
M  V30 5073 H 473.551 -1.80901 -0.953686 0
M  V30 5074 H 471.706 -1.78768 -3.43687 0
M  V30 5075 H 472.12 -4.0009 -3.39158 0
M  V30 5076 H 473.594 -2.89763 -4.69831 0
M  V30 5077 H 474.071 -1.2754 -4.20274 0
M  V30 5078 H 474.677 -2.68296 -3.29996 0
M  V30 5079 N 472.992 0.995999 -1.22138 0
M  V30 5080 C 474.403 1.54961 -1.04135 0
M  V30 5081 C 474.754 1.92159 0.396147 0
M  V30 5082 O 473.879 1.74435 1.28069 0
M  V30 5083 C 474.474 2.81581 -1.88408 0
M  V30 5084 C 473.033 3.33396 -1.74712 0
M  V30 5085 C 472.18 2.06509 -1.85066 0
M  V30 5086 H 475.131 0.817436 -1.36028 0
M  V30 5087 H 475.152 3.53822 -1.39966 0
M  V30 5088 H 474.664 2.54476 -2.93025 0
M  V30 5089 H 472.765 3.65416 -0.728159 0
M  V30 5090 H 472.878 4.04208 -2.57202 0
M  V30 5091 H 471.242 2.19925 -1.28472 0
M  V30 5092 H 472.025 1.81804 -2.91208 0
M  V30 5093 N 474.47 1.03057 1.19235 0
M  V30 5094 C 475.881 0.757449 1.70645 0
M  V30 5095 C 476.232 -0.722735 1.82403 0
M  V30 5096 O 475.357 -1.56325 1.49638 0
M  V30 5097 C 475.952 1.36833 3.09939 0
M  V30 5098 C 474.511 1.14375 3.58602 0
M  V30 5099 C 473.658 1.46533 2.35422 0
M  V30 5100 H 476.609 1.19828 1.04052 0
M  V30 5101 H 476.63 0.766184 3.72706 0
M  V30 5102 H 476.142 2.44562 3.01349 0
M  V30 5103 H 474.243 0.0847542 3.72504 0
M  V30 5104 H 474.356 1.83366 4.42622 0
M  V30 5105 H 472.72 0.884712 2.38841 0
M  V30 5106 H 473.503 2.55349 2.2946 0
M  V30 5107 N 475.948 -1.35272 0.808662 0
M  V30 5108 C 477.364 -1.51806 0.492653 0
M  V30 5109 C 477.564 -1.7574 -0.985778 0
M  V30 5110 O 476.62 -1.80003 -1.77074 0
M  V30 5111 C 477.933 -2.69202 1.33981 0
M  V30 5112 C 479.481 -2.8308 1.33547 0
M  V30 5113 C 479.956 -4.03502 2.16679 0
M  V30 5114 N 481.447 -4.10684 2.14227 0
M  V30 5115 C 482.182 -5.02984 2.75308 0
M  V30 5116 N 481.678 -6.00603 3.45323 0
M  V30 5117 N 483.471 -4.95746 2.64938 0
M  V30 5118 H 475.622 -1.17993 1.76611 0
M  V30 5119 H 477.885 -0.577476 0.751814 0
M  V30 5120 H 477.591 -2.581 2.38909 0
M  V30 5121 H 477.465 -3.63854 0.994491 0
M  V30 5122 H 479.852 -2.93631 0.294036 0
M  V30 5123 H 479.933 -1.89278 1.72068 0
M  V30 5124 H 479.577 -3.93711 3.20864 0
M  V30 5125 H 479.507 -4.96489 1.75517 0
M  V30 5126 H 481.998 -3.40802 1.63285 0
M  V30 5127 H 482.311 -6.67633 3.89212 0
M  V30 5128 H 480.656 -6.0077 3.49428 0
M  V30 5129 H 483.847 -4.18439 2.09825 0
M  V30 5130 H 484.02 -5.67487 3.12829 0
M  V30 5131 N 477.426 -0.562348 -1.47226 0
M  V30 5132 C 478.374 0.195476 -2.31777 0
M  V30 5133 C 479.368 0.90433 -1.43242 0
M  V30 5134 O 480.574 0.825031 -1.59979 0
M  V30 5135 H 476.949 0.0819095 -0.747526 0
M  V30 5136 H 478.92 -0.536753 -2.93533 0
M  V30 5137 C 477.669 1.20902 -3.26003 0
M  V30 5138 H 476.992 0.672997 -3.94095 0
M  V30 5139 H 478.432 1.71006 -3.87986 0
M  V30 5140 C 476.891 2.25955 -2.49891 0
M  V30 5141 O 477.421 3.32969 -2.2471 0
M  V30 5142 N 475.627 2.00019 -2.1081 0
M  V30 5143 H 475.174 1.13006 -2.31489 0
M  V30 5144 H 475.132 2.70523 -1.60201 0
M  V30 5145 N 478.904 1.54736 -0.299062 0
M  V30 5146 C 480.129 2.04975 0.316254 0
M  V30 5147 C 480.554 1.17501 1.46885 0
M  V30 5148 O 479.912 0.178678 1.80417 0
M  V30 5149 C 479.96 3.52672 0.751997 0
M  V30 5150 O 479.064 3.68226 1.85697 0
M  V30 5151 H 478.405 0.661126 0.0617175 0
M  V30 5152 H 480.935 1.99805 -0.440341 0
M  V30 5153 H 480.945 3.94488 1.04133 0
M  V30 5154 H 479.62 4.158 -0.0911482 0
M  V30 5155 H 478.197 3.38316 1.56834 0
M  V30 5156 N 480.382 0.0267497 1.57577 0
M  V30 5157 C 481.345 -0.940916 2.08996 0
M  V30 5158 C 482.345 -1.25561 1.00455 0
M  V30 5159 O 483.535 -1.19634 1.26623 0
M  V30 5160 C 480.667 -2.25814 2.55384 0
M  V30 5161 H 481.86 -0.495628 2.95776 0
M  V30 5162 H 479.413 -0.221241 1.54726 0
M  V30 5163 H 480.148 -2.74976 1.71926 0
M  V30 5164 H 479.933 -2.04285 3.34679 0
M  V30 5165 H 481.423 -2.95178 2.95398 0
M  V30 5166 N 481.861 -1.55662 -0.24637 0
M  V30 5167 C 482.808 -1.90361 -1.30504 0
M  V30 5168 C 483.778 -0.757905 -1.47801 0
M  V30 5169 O 484.963 -1.01161 -1.61775 0
M  V30 5170 C 482.103 -2.2042 -2.65535 0
M  V30 5171 C 481.216 -3.47799 -2.56242 0
M  V30 5172 C 480.351 -3.67426 -3.8363 0
M  V30 5173 C 479.39 -4.88403 -3.68956 0
M  V30 5174 N 478.527 -5.04548 -4.88237 0
M  V30 5175 H 483.367 -2.80645 -1.00213 0
M  V30 5176 H 480.904 -1.38924 -0.483577 0
M  V30 5177 H 482.862 -2.35853 -3.44135 0
M  V30 5178 H 481.492 -1.3334 -2.93973 0
M  V30 5179 H 480.544 -3.40694 -1.69208 0
M  V30 5180 H 481.856 -4.36544 -2.4131 0
M  V30 5181 H 481.01 -3.82821 -4.70673 0
M  V30 5182 H 479.749 -2.76914 -4.01459 0
M  V30 5183 H 478.754 -4.72984 -2.80296 0
M  V30 5184 H 479.979 -5.80375 -3.52621 0
M  V30 5185 H 477.925 -4.16974 -5.06427 0
M  V30 5186 H 477.842 -5.87384 -4.75937 0
M  V30 5187 H 479.11 -5.24355 -5.76777 0
M  V30 5188 N 483.339 0.512053 -1.4905 0
M  V30 5189 C 484.302 1.59704 -1.64399 0
M  V30 5190 C 485.302 1.52285 -0.516317 0
M  V30 5191 O 486.492 1.55635 -0.782527 0
M  V30 5192 C 483.624 2.9935 -1.63102 0
M  V30 5193 H 484.817 1.47428 -2.61161 0
M  V30 5194 H 482.37 0.735469 -1.37915 0
M  V30 5195 H 483.105 3.17116 -0.678836 0
M  V30 5196 H 482.89 3.06144 -2.44986 0
M  V30 5197 H 484.38 3.782 -1.77072 0
M  V30 5198 N 484.817 1.37938 0.762283 0
M  V30 5199 C 485.764 1.34467 1.87583 0
M  V30 5200 C 486.734 0.208633 1.64785 0
M  V30 5201 O 487.919 0.399494 1.86571 0
M  V30 5202 C 485.059 1.16692 3.24772 0
M  V30 5203 C 484.172 2.39608 3.59461 0
M  V30 5204 C 483.307 2.14631 4.85908 0
M  V30 5205 C 482.346 3.33364 5.13357 0
M  V30 5206 N 481.483 3.07877 6.30996 0
M  V30 5207 H 486.323 2.29669 1.89885 0
M  V30 5208 H 483.86 1.14116 0.928219 0
M  V30 5209 H 485.818 1.04405 4.03925 0
M  V30 5210 H 484.448 0.251333 3.2182 0
M  V30 5211 H 483.5 2.626 2.75219 0
M  V30 5212 H 484.812 3.28128 3.75678 0
M  V30 5213 H 483.966 1.99429 5.72986 0
M  V30 5214 H 482.705 1.23463 4.71814 0
M  V30 5215 H 481.71 3.49094 4.24751 0
M  V30 5216 H 482.935 4.25395 5.29354 0
M  V30 5217 H 480.881 2.19348 6.18241 0
M  V30 5218 H 480.798 3.89944 6.47673 0
M  V30 5219 H 482.066 2.96313 7.20985 0
M  V30 5220 N 486.295 -0.989507 1.22664 0
M  V30 5221 C 487.242 -2.08024 0.999733 0
M  V30 5222 C 488.212 -1.65909 -0.0797047 0
M  V30 5223 O 489.397 -1.90669 0.0705715 0
M  V30 5224 C 486.537 -3.40067 0.587234 0
M  V30 5225 C 485.65 -3.95505 1.73781 0
M  V30 5226 C 484.785 -5.15722 1.27297 0
M  V30 5227 C 483.824 -5.63305 2.39488 0
M  V30 5228 N 482.961 -6.74758 1.94026 0
M  V30 5229 H 487.801 -2.26768 1.9334 0
M  V30 5230 H 485.338 -1.11171 0.963297 0
M  V30 5231 H 487.296 -4.15899 0.329227 0
M  V30 5232 H 485.926 -3.21314 -0.309426 0
M  V30 5233 H 484.978 -3.16513 2.11006 0
M  V30 5234 H 486.29 -4.26797 2.58158 0
M  V30 5235 H 485.444 -5.98854 0.972546 0
M  V30 5236 H 484.183 -4.86061 0.399445 0
M  V30 5237 H 483.188 -4.78759 2.70315 0
M  V30 5238 H 484.413 -5.94988 3.27362 0
M  V30 5239 H 482.359 -6.46874 1.09041 0
M  V30 5240 H 482.276 -7.05386 2.71968 0
M  V30 5241 H 483.544 -7.61387 1.67062 0
M  V30 5242 O 487.812 -1.16279 -1.12078 0
M  V30 5243 H 488.503 -0.894109 -1.7183 0
M  V30 END ATOM
M  V30 BEGIN BOND
M  V30 END BOND
M  V30 END CTAB
M  END
$$$$
