drugbank_target|P62166 Neuronal calcium sensor 1 (DB11093; DB11348; DB14481)
 OpenBabel12092120553D

  0  0  0     0  0            999 V3000
M  V30 BEGIN CTAB
M  V30 COUNTS 3048 3080 0 0 0
M  V30 BEGIN ATOM
M  V30 1 H -0.908 1.98254 -0.117106 0
M  V30 2 N 0 1.576 0 0
M  V30 3 C 0.933 2.03868 1.02534 0
M  V30 4 C 1.911 0.928543 1.3348 0
M  V30 5 O 3.095 1.19667 1.45644 0
M  V30 6 C 0.222 2.43627 2.35294 0
M  V30 7 C -0.732 3.65373 2.2001 0
M  V30 8 S 0.101 5.13292 1.52614 0
M  V30 9 C 1.257 5.56322 2.86805 0
M  V30 10 H 1.49 2.90518 0.631377 0
M  V30 11 H -0.977 1.52953 0.210867 0
M  V30 12 H 0.981 2.67203 3.11629 0
M  V30 13 H -0.358 1.57376 2.7183 0
M  V30 14 H -1.165 3.90944 3.18086 0
M  V30 15 H -1.563 3.418 1.51819 0
M  V30 16 H 0.729 5.58782 3.83104 0
M  V30 17 H 1.672 6.56266 2.65933 0
M  V30 18 H 2.08 4.83886 2.90714 0
M  V30 19 N 1.4781 -0.272755 1.55222 0
M  V30 20 C 2.7261 -1.00234 1.75492 0
M  V30 21 C 3.0471 -1.8681 0.5592 0
M  V30 22 O 2.3171 -1.91215 -0.425882 0
M  V30 23 H 0.8971 -0.373076 0.647166 0
M  V30 24 H 3.5591 -0.296926 1.92625 0
M  V30 25 H 2.6551 -1.63913 2.65592 0
M  V30 26 N 2.9562 -1.48159 -0.537278 0
M  V30 27 C 3.9032 -1.62138 -1.64256 0
M  V30 28 C 4.8732 -0.463668 -1.59497 0
M  V30 29 O 6.0582 -0.686241 -1.78032 0
M  V30 30 C 3.1982 -1.66028 -3.02537 0
M  V30 31 C 2.3112 -2.92855 -3.17585 0
M  V30 32 C 1.4462 -2.87952 -4.46382 0
M  V30 33 C 0.4852 -4.09516 -4.54932 0
M  V30 34 N -0.3778 -4.02733 -5.75109 0
M  V30 35 H 4.4622 -2.56529 -1.51647 0
M  V30 36 H 1.9992 -1.27224 -0.738414 0
M  V30 37 H 3.9572 -1.66265 -3.82638 0
M  V30 38 H 2.5872 -0.751331 -3.13934 0
M  V30 39 H 1.6392 -3.02395 -2.30784 0
M  V30 40 H 2.9512 -3.82822 -3.19764 0
M  V30 41 H 2.1052 -2.8655 -5.34765 0
M  V30 42 H 0.8442 -1.95702 -4.46712 0
M  V30 43 H -0.1508 -4.11201 -3.64957 0
M  V30 44 H 1.0742 -5.02917 -4.56346 0
M  V30 45 H -0.9798 -3.13299 -5.76351 0
M  V30 46 H -1.0628 -4.86397 -5.78752 0
M  V30 47 H 0.2052 -4.05379 -6.65799 0
M  V30 48 N 4.4343 0.785586 -1.36625 0
M  V30 49 C 5.6593 1.57963 -1.34397 0
M  V30 50 C 6.0843 1.87964 0.071526 0
M  V30 51 O 5.4423 1.48182 1.0446 0
M  V30 52 C 5.4903 2.87511 -2.17646 0
M  V30 53 O 4.5943 3.81281 -1.57158 0
M  V30 54 H 3.9353 0.479014 -0.459828 0
M  V30 55 H 6.4653 0.973411 -1.79961 0
M  V30 56 H 6.4753 3.36745 -2.30362 0
M  V30 57 H 5.1503 2.65002 -3.20541 0
M  V30 58 H 3.7273 3.39885 -1.53403 0
M  V30 59 N 5.9124 1.20967 1.01018 0
M  V30 60 C 6.8604 0.961223 2.1181 0
M  V30 61 C 7.8544 -0.0897034 1.69162 0
M  V30 62 O 9.0604 0.0612271 1.79896 0
M  V30 63 H 5.4354 0.29355 0.692338 0
M  V30 64 H 7.4064 1.90178 2.29946 0
M  V30 65 C 6.1554 0.536854 3.4353 0
M  V30 66 H 5.4784 1.33713 3.76777 0
M  V30 67 H 6.9184 0.402286 4.22087 0
M  V30 68 C 5.3774 -0.751574 3.2841 0
M  V30 69 O 5.9074 -1.80841 3.58691 0
M  V30 70 N 4.1134 -0.716079 2.81639 0
M  V30 71 H 3.6604 0.144236 2.57196 0
M  V30 72 H 3.6184 -1.57847 2.71904 0
M  V30 73 N 7.3905 -1.2043 1.01659 0
M  V30 74 C 8.6155 -1.94318 0.724942 0
M  V30 75 C 9.0405 -1.74266 -0.708034 0
M  V30 76 O 8.3985 -1.03694 -1.48719 0
M  V30 77 C 8.4465 -3.44486 1.06591 0
M  V30 78 O 7.5505 -4.12017 0.177599 0
M  V30 79 H 6.8915 -0.60708 0.26898 0
M  V30 80 H 9.4215 -1.52861 1.35995 0
M  V30 81 H 9.4315 -3.95106 1.01762 0
M  V30 82 H 8.1065 -3.58404 2.10997 0
M  V30 83 H 6.6835 -3.71821 0.283421 0
M  V30 84 N 8.8686 -0.792821 -1.36206 0
M  V30 85 C 9.8156 -0.191653 -2.30003 0
M  V30 86 C 10.7856 0.666453 -1.52143 0
M  V30 87 O 11.9706 0.61442 -1.80636 0
M  V30 88 C 9.1106 0.664848 -3.38635 0
M  V30 89 C 8.2236 -0.212175 -4.31479 0
M  V30 90 C 7.3586 0.651022 -5.27196 0
M  V30 91 C 6.3976 -0.227247 -6.11678 0
M  V30 92 N 5.5346 0.595127 -6.99573 0
M  V30 93 H 10.3746 -0.996978 -2.80828 0
M  V30 94 H 7.9116 -0.503206 -1.38225 0
M  V30 95 H 9.8696 1.17645 -4.00269 0
M  V30 96 H 8.4996 1.43557 -2.89122 0
M  V30 97 H 7.5516 -0.841777 -3.70969 0
M  V30 98 H 8.8636 -0.888751 -4.90818 0
M  V30 99 H 8.0176 1.2283 -5.94136 0
M  V30 100 H 6.7566 1.36121 -4.68319 0
M  V30 101 H 5.7616 -0.816904 -5.43697 0
M  V30 102 H 6.9866 -0.93509 -6.72631 0
M  V30 103 H 4.9326 1.28955 -6.432 0
M  V30 104 H 4.8496 -0.0236952 -7.55996 0
M  V30 105 H 6.1176 1.15613 -7.70879 0
M  V30 106 N 10.3467 1.47872 -0.545128 0
M  V30 107 C 11.2767 2.32661 0.197793 0
M  V30 108 C 12.2577 1.43041 0.920504 0
M  V30 109 O 13.4427 1.71912 0.90333 0
M  V30 110 C 10.5727 3.24569 1.23582 0
M  V30 111 C 9.5267 4.23333 0.630323 0
M  V30 112 C 8.8527 5.0448 1.77211 0
M  V30 113 C 10.1527 5.20704 -0.407974 0
M  V30 114 H 11.8467 2.95024 -0.510045 0
M  V30 115 H 9.3927 1.4187 -0.246731 0
M  V30 116 H 11.3457 3.8272 1.76362 0
M  V30 117 H 10.0697 2.60236 1.97344 0
M  V30 118 H 8.7287 3.6639 0.123922 0
M  V30 119 H 8.3767 4.36561 2.49847 0
M  V30 120 H 8.0767 5.71339 1.37281 0
M  V30 121 H 9.6007 5.65487 2.3034 0
M  V30 122 H 11.0147 5.7329 0.033305 0
M  V30 123 H 9.4117 5.95699 -0.725486 0
M  V30 124 H 10.4817 4.66917 -1.30828 0
M  V30 125 N 11.8248 0.280983 1.55075 0
M  V30 126 C 12.7718 -0.603937 2.22758 0
M  V30 127 C 13.7418 -1.1452 1.20309 0
M  V30 128 O 14.9268 -1.19343 1.48869 0
M  V30 129 C 12.0668 -1.77947 2.95684 0
M  V30 130 C 11.1798 -1.2715 4.12864 0
M  V30 131 C 10.3148 -2.4093 4.7342 0
M  V30 132 C 9.3538 -1.87165 5.82783 0
M  V30 133 N 8.4908 -2.94441 6.37377 0
M  V30 134 H 13.3308 -0.020124 2.97993 0
M  V30 135 H 10.8678 0.00183425 1.471 0
M  V30 136 H 12.8258 -2.47055 3.36184 0
M  V30 137 H 11.4558 -2.33522 2.22861 0
M  V30 138 H 10.5078 -0.473331 3.77444 0
M  V30 139 H 11.8198 -0.837751 4.91715 0
M  V30 140 H 10.9738 -3.18021 5.1667 0
M  V30 141 H 9.7128 -2.87623 3.93859 0
M  V30 142 H 8.7178 -1.08556 5.38976 0
M  V30 143 H 9.9428 -1.41401 6.64216 0
M  V30 144 H 7.8888 -3.40505 5.60707 0
M  V30 145 H 7.8058 -2.55501 7.11516 0
M  V30 146 H 9.0738 -3.71489 6.85285 0
M  V30 147 N 13.3029 -1.57598 0.00835791 0
M  V30 148 C 14.7139 -1.7892 -0.53333 0
M  V30 149 C 15.0649 -0.916609 -1.73473 0
M  V30 150 O 14.1899 -0.121336 -2.1606 0
M  V30 151 C 14.7849 -3.24488 -0.974313 0
M  V30 152 C 13.3439 -3.46878 -1.46125 0
M  V30 153 C 12.4909 -2.74157 -0.416302 0
M  V30 154 H 15.4419 -1.56958 0.234495 0
M  V30 155 H 15.4629 -3.3306 -1.83988 0
M  V30 156 H 14.9749 -3.87972 -0.099718 0
M  V30 157 H 13.0759 -2.8862 -2.35646 0
M  V30 158 H 13.1889 -4.55572 -1.48295 0
M  V30 159 H 11.5529 -2.39022 -0.87981 0
M  V30 160 H 12.3359 -3.40345 0.44947 0
M  V30 161 N 14.781 0.264519 -1.55364 0
M  V30 162 C 15.691 1.34902 -1.91934 0
M  V30 163 C 16.707 1.53595 -0.817593 0
M  V30 164 O 17.883 1.67558 -1.11742 0
M  V30 165 C 14.948 2.68676 -2.19121 0
M  V30 166 C 14.009 2.58657 -3.4263 0
M  V30 167 C 13.242 3.86051 -3.68511 0
M  V30 168 O 13.465 4.87126 -2.96757 0
M  V30 169 O 12.399 3.85744 -4.62045 0
M  V30 170 H 16.225 1.06883 -2.8427 0
M  V30 171 H 13.81 0.463775 -1.42019 0
M  V30 172 H 15.692 3.47759 -2.37995 0
M  V30 173 H 14.367 2.96463 -1.29966 0
M  V30 174 H 13.274 1.7792 -3.29082 0
M  V30 175 H 14.607 2.35818 -4.32031 0
M  V30 176 N 16.2591 1.48442 0.529413 0
M  V30 177 C 17.5051 1.5672 1.28711 0
M  V30 178 C 17.8381 0.2406 1.92704 0
M  V30 179 O 17.1131 -0.753454 1.79313 0
M  V30 180 C 17.3961 2.70587 2.37603 0
M  V30 181 C 17.2491 4.12953 1.78297 0
M  V30 182 C 18.5681 2.80212 3.39366 0
M  V30 183 H 15.6871 0.570474 0.466613 0
M  V30 184 H 18.3291 1.80617 0.589706 0
M  V30 185 H 16.4791 2.50342 2.97088 0
M  V30 186 H 18.1511 4.44639 1.22858 0
M  V30 187 H 16.3941 4.19927 1.0883 0
M  V30 188 H 17.0651 4.88448 2.57144 0
M  V30 189 H 19.5411 2.98553 2.89836 0
M  V30 190 H 18.4171 3.61611 4.12951 0
M  V30 191 H 18.6781 1.88393 3.99951 0
M  V30 192 N 17.7372 -0.778329 1.37039 0
M  V30 193 C 18.9832 -1.53892 1.32079 0
M  V30 194 C 19.3162 -1.9396 -0.0965386 0
M  V30 195 O 18.5912 -1.63568 -1.05242 0
M  V30 196 C 18.8742 -2.80847 2.25382 0
M  V30 197 C 18.7272 -2.47076 3.75864 0
M  V30 198 C 20.0462 -3.82741 2.1725 0
M  V30 199 H 17.1652 -0.558303 0.48111 0
M  V30 200 H 19.8072 -0.893397 1.67685 0
M  V30 201 H 17.9572 -3.35931 1.95148 0
M  V30 202 H 19.6292 -1.97957 4.16666 0
M  V30 203 H 17.8722 -1.79863 3.94755 0
M  V30 204 H 18.5432 -3.37798 4.36574 0
M  V30 205 H 21.0192 -3.37133 2.43887 0
M  V30 206 H 19.8952 -4.69303 2.84686 0
M  V30 207 H 20.1562 -4.2652 1.16331 0
M  V30 208 N 19.2153 -1.21501 -1.00376 0
M  V30 209 C 20.1253 -0.991447 -2.12621 0
M  V30 210 C 21.1413 0.0568446 -1.73907 0
M  V30 211 O 22.3173 -0.13348 -2.00957 0
M  V30 212 C 19.3823 -0.560312 -3.42142 0
M  V30 213 C 18.4433 -1.68096 -3.95022 0
M  V30 214 C 17.6763 -1.2703 -5.18362 0
M  V30 215 O 17.8993 -0.144438 -5.70217 0
M  V30 216 O 16.8333 -2.08269 -5.64719 0
M  V30 217 H 20.6593 -1.93158 -2.34358 0
M  V30 218 H 18.2443 -0.999999 -1.10997 0
M  V30 219 H 20.1263 -0.329724 -4.20108 0
M  V30 220 H 18.8013 0.351089 -3.2179 0
M  V30 221 H 17.7083 -1.96597 -3.18278 0
M  V30 222 H 19.0413 -2.56983 -4.19786 0
M  V30 223 N 20.6934 1.19889 -1.02296 0
M  V30 224 C 21.6034 2.26571 -0.608508 0
M  V30 225 C 22.6194 1.70299 0.356964 0
M  V30 226 O 23.7954 2.00235 0.216326 0
M  V30 227 C 20.8604 3.46677 0.0402814 0
M  V30 228 C 19.9214 4.18153 -0.97194 0
M  V30 229 C 19.1544 5.32525 -0.354016 0
M  V30 230 O 19.3774 5.64112 0.844604 0
M  V30 231 O 18.3114 5.92242 -1.07391 0
M  V30 232 H 22.1374 2.64251 -1.49684 0
M  V30 233 H 19.7224 1.26629 -0.792809 0
M  V30 234 H 21.6044 4.19475 0.402324 0
M  V30 235 H 20.2794 3.10858 0.902707 0
M  V30 236 H 19.1864 3.47499 -1.38546 0
M  V30 237 H 20.5194 4.57927 -1.80454 0
M  V30 238 N 22.1715 0.800033 1.35784 0
M  V30 239 C 23.1015 0.220184 2.3246 0
M  V30 240 C 24.0825 -0.65073 1.57161 0
M  V30 241 O 25.2675 -0.582359 1.85263 0
M  V30 242 C 22.3975 -0.637353 3.41402 0
M  V30 243 C 21.3515 0.134531 4.27789 0
M  V30 244 C 20.6775 -0.844285 5.27992 0
M  V30 245 C 21.9775 1.32979 5.05088 0
M  V30 246 H 23.6715 1.02787 2.81203 0
M  V30 247 H 21.2175 0.495717 1.35199 0
M  V30 248 H 23.1705 -1.05302 4.08031 0
M  V30 249 H 21.8945 -1.47785 2.91251 0
M  V30 250 H 20.5535 0.531296 3.6273 0
M  V30 251 H 20.2015 -1.68011 4.74111 0
M  V30 252 H 19.9015 -0.332184 5.8666 0
M  V30 253 H 21.4255 -1.2583 5.97494 0
M  V30 254 H 22.8395 0.98934 5.64699 0
M  V30 255 H 21.2365 1.77593 5.7322 0
M  V30 256 H 22.3065 2.11978 4.36111 0
M  V30 257 N 23.6496 -1.47581 0.552962 0
M  V30 258 C 24.8776 -2.06875 0.0320556 0
M  V30 259 C 25.2926 -1.40625 -1.25976 0
M  V30 260 O 24.6496 -0.501349 -1.75479 0
M  V30 261 C 24.7006 -3.61092 -0.17167 0
M  V30 262 O 24.4216 -4.24858 1.06899 0
M  V30 263 C 25.9226 -4.37242 -0.730344 0
M  V30 264 H 23.1426 -0.669561 0.043915 0
M  V30 265 H 25.6866 -1.89646 0.765163 0
M  V30 266 H 23.8416 -3.7785 -0.854894 0
M  V30 267 H 24.2556 -5.17334 0.864059 0
M  V30 268 H 25.7296 -5.45842 -0.822203 0
M  V30 269 H 26.2066 -4.03235 -1.74064 0
M  V30 270 H 26.8126 -4.25219 -0.0829543 0
M  V30 271 N 25.1277 -0.289203 -1.54924 0
M  V30 272 C 26.5437 0.0645403 -1.59469 0
M  V30 273 C 26.7437 1.53419 -1.30632 0
M  V30 274 O 25.7997 2.2852 -1.074 0
M  V30 275 C 27.1127 -0.32278 -2.98963 0
M  V30 276 C 28.6607 -0.270564 -3.11828 0
M  V30 277 C 29.1357 -0.632532 -4.53611 0
M  V30 278 N 30.6267 -0.584617 -4.59496 0
M  V30 279 C 31.3617 -0.837314 -5.67254 0
M  V30 280 N 30.8577 -1.15536 -6.83098 0
M  V30 281 N 32.6507 -0.765166 -5.56868 0
M  V30 282 H 24.8017 -1.24714 -1.71931 0
M  V30 283 H 27.0647 -0.504809 -0.802416 0
M  V30 284 H 26.7707 -1.34541 -3.24948 0
M  V30 285 H 26.6447 0.32944 -3.75759 0
M  V30 286 H 29.0317 0.742805 -2.85598 0
M  V30 287 H 29.1127 -0.957242 -2.37214 0
M  V30 288 H 28.7567 -1.64365 -4.80569 0
M  V30 289 H 28.6867 0.07609 -5.26545 0
M  V30 290 H 31.1777 -0.349248 -3.76283 0
M  V30 291 H 31.4907 -1.33447 -7.61191 0
M  V30 292 H 29.8357 -1.19328 -6.84679 0
M  V30 293 H 33.0267 -0.516432 -4.65243 0
M  V30 294 H 33.1997 -0.965477 -6.40767 0
M  V30 295 N 26.6058 1.57591 -0.0167156 0
M  V30 296 C 27.5528 2.09462 0.969251 0
M  V30 297 C 28.5228 0.99381 1.33089 0
M  V30 298 O 29.7078 1.26726 1.42636 0
M  V30 299 C 26.8478 2.61622 2.25051 0
M  V30 300 C 25.9608 3.85666 1.94642 0
M  V30 301 C 25.0958 4.26266 3.16972 0
M  V30 302 C 24.1348 5.43101 2.82326 0
M  V30 303 N 23.2718 5.78915 3.97243 0
M  V30 304 H 28.1118 2.93428 0.519997 0
M  V30 305 H 25.6488 1.45044 0.245087 0
M  V30 306 H 27.6068 2.89949 2.99976 0
M  V30 307 H 26.2368 1.80505 2.67615 0
M  V30 308 H 25.2888 3.64145 1.10013 0
M  V30 309 H 26.6008 4.70678 1.65117 0
M  V30 310 H 25.7548 4.55963 4.00228 0
M  V30 311 H 24.4938 3.39996 3.49648 0
M  V30 312 H 23.4988 5.1311 1.97479 0
M  V30 313 H 24.7238 6.3106 2.50879 0
M  V30 314 H 22.6698 4.95602 4.29785 0
M  V30 315 H 22.5868 6.58539 3.71299 0
M  V30 316 H 23.8548 6.13212 4.81239 0
M  V30 317 N 28.0839 -0.256276 1.55502 0
M  V30 318 C 29.3119 -1.00342 1.8094 0
M  V30 319 C 29.7269 -1.79307 0.59114 0
M  V30 320 O 29.0839 -1.77114 -0.440081 0
M  V30 321 C 29.1349 -1.94875 3.04476 0
M  V30 322 O 28.8559 -1.19107 4.21598 0
M  V30 323 C 30.3569 -2.81266 3.42644 0
M  V30 324 H 27.5769 -0.295685 0.602338 0
M  V30 325 H 30.1209 -0.281998 2.02546 0
M  V30 326 H 28.2759 -2.62457 2.84947 0
M  V30 327 H 28.6899 -1.82969 4.91551 0
M  V30 328 H 30.1639 -3.43362 4.32211 0
M  V30 329 H 30.6409 -3.51897 2.62802 0
M  V30 330 H 31.2469 -2.1915 3.64491 0
M  V30 331 N 29.562 -1.4872 -0.521534 0
M  V30 332 C 30.792 -1.6061 -1.29954 0
M  V30 333 C 31.2 -0.268728 -1.87282 0
M  V30 334 O 30.543 0.753221 -1.67548 0
M  V30 335 C 30.605 -2.60013 -2.48261 0
M  V30 336 C 30.269 -4.04874 -2.11957 0
M  V30 337 C 31.266 -4.92304 -1.67132 0
M  V30 338 C 28.951 -4.5047 -2.22221 0
M  V30 339 C 30.945 -6.2336 -1.33047 0
M  V30 340 C 28.632 -5.81544 -1.87748 0
M  V30 341 C 29.63 -6.67812 -1.43234 0
M  V30 342 O 29.318 -7.96446 -1.09217 0
M  V30 343 H 29.05 -0.544116 -0.401141 0
M  V30 344 H 31.604 -1.95339 -0.634958 0
M  V30 345 H 29.834 -2.20422 -3.17728 0
M  V30 346 H 31.523 -2.61648 -3.10315 0
M  V30 347 H 32.289 -4.58312 -1.58665 0
M  V30 348 H 28.168 -3.83504 -2.55823 0
M  V30 349 H 31.712 -6.90649 -0.982299 0
M  V30 350 H 27.609 -6.15069 -1.95858 0
M  V30 351 H 28.377 -8.09275 -1.22542 0
M  V30 352 N 31.0401 0.771051 -1.3745 0
M  V30 353 C 32.2871 1.52963 -1.32697 0
M  V30 354 C 32.6151 1.94299 0.0883274 0
M  V30 355 O 31.8701 1.64397 1.0617 0
M  V30 356 C 32.1691 2.80676 -2.2126 0
M  V30 357 C 31.8351 2.58389 -3.69521 0
M  V30 358 C 30.4971 2.52019 -4.09927 0
M  V30 359 C 32.8491 2.38469 -4.63446 0
M  V30 360 C 30.1771 2.23721 -5.42371 0
M  V30 361 C 32.5291 2.11694 -5.96128 0
M  V30 362 C 31.1931 2.03769 -6.35637 0
M  V30 363 H 30.4631 0.559732 -0.485573 0
M  V30 364 H 33.1101 0.888083 -1.69662 0
M  V30 365 H 31.4151 3.49392 -1.77291 0
M  V30 366 H 33.1121 3.38557 -2.14895 0
M  V30 367 H 29.7021 2.6421 -3.37478 0
M  V30 368 H 33.8861 2.4238 -4.33089 0
M  V30 369 H 29.1421 2.16081 -5.71943 0
M  V30 370 H 33.3161 1.9528 -6.6846 0
M  V30 371 H 30.9431 1.81606 -7.38189 0
M  V30 372 N 32.5182 1.22032 0.997298 0
M  V30 373 C 33.7462 1.06841 1.7718 0
M  V30 374 C 34.1612 -0.381325 1.84909 0
M  V30 375 O 33.5182 -1.26437 1.31605 0
M  V30 376 C 33.5692 1.66814 3.20711 0
M  V30 377 O 33.2902 3.06116 3.13408 0
M  V30 378 C 34.7912 1.56838 4.14628 0
M  V30 379 H 32.0112 0.374782 0.556578 0
M  V30 380 H 34.5552 1.61532 1.2541 0
M  V30 381 H 32.7102 1.16196 3.69564 0
M  V30 382 H 33.1242 3.34926 4.0364 0
M  V30 383 H 34.5982 2.03532 5.13107 0
M  V30 384 H 35.0752 0.524155 4.36061 0
M  V30 385 H 35.6812 2.06741 3.7167 0
M  V30 386 N 33.9963 -1.19345 1.0293 0
M  V30 387 C 34.9063 -2.26245 0.620515 0
M  V30 388 C 35.9223 -1.70486 -0.347928 0
M  V30 389 O 37.0983 -2.00347 -0.205704 0
M  V30 390 C 34.1633 -3.46693 -0.0218957 0
M  V30 391 C 33.2243 -4.17632 0.994102 0
M  V30 392 C 32.4573 -5.32329 0.382253 0
M  V30 393 O 32.6803 -5.64552 -0.814676 0
M  V30 394 O 31.6143 -5.91664 1.10531 0
M  V30 395 H 35.4403 -2.63453 1.51083 0
M  V30 396 H 33.0253 -1.26207 0.799513 0
M  V30 397 H 34.9073 -4.19683 -0.380072 0
M  V30 398 H 33.5823 -3.11333 -0.886209 0
M  V30 399 H 32.4893 -3.4676 1.40387 0
M  V30 400 H 33.8223 -4.56964 1.8288 0
M  V30 401 N 35.4744 -0.807222 -1.35358 0
M  V30 402 C 36.4214 -0.216037 -2.29787 0
M  V30 403 C 37.3914 0.650278 -1.52842 0
M  V30 404 O 38.5764 0.595227 -1.81278 0
M  V30 405 C 35.7164 0.628893 -3.39321 0
M  V30 406 C 34.8294 -0.257927 -4.31229 0
M  V30 407 C 33.9644 0.595069 -5.27856 0
M  V30 408 C 33.0034 -0.292111 -6.11403 0
M  V30 409 N 32.1404 0.520895 -7.00165 0
M  V30 410 H 36.9804 -1.02671 -2.79755 0
M  V30 411 H 34.5174 -0.517839 -1.37684 0
M  V30 412 H 36.4754 1.13393 -4.01494 0
M  V30 413 H 35.1054 1.40482 -2.90628 0
M  V30 414 H 34.1574 -0.881076 -3.70056 0
M  V30 415 H 35.4694 -0.940759 -4.89848 0
M  V30 416 H 34.6234 1.16522 -5.95405 0
M  V30 417 H 33.3624 1.31146 -4.69736 0
M  V30 418 H 32.3674 -0.874525 -5.428 0
M  V30 419 H 33.5924 -1.00638 -6.71602 0
M  V30 420 H 31.5384 1.22125 -6.44532 0
M  V30 421 H 31.4554 -0.103877 -7.55929 0
M  V30 422 H 32.7234 1.0743 -7.72062 0
M  V30 423 N 36.9525 1.47285 -0.560781 0
M  V30 424 C 37.8625 2.33846 0.187954 0
M  V30 425 C 38.8785 1.48412 0.908293 0
M  V30 426 O 40.0545 1.81332 0.876388 0
M  V30 427 C 37.1195 3.25178 1.2025 0
M  V30 428 C 36.1805 4.26504 0.489208 0
M  V30 429 C 35.4135 5.13472 1.45542 0
M  V30 430 O 35.6365 5.02959 2.6905 0
M  V30 431 O 34.5705 5.93902 0.977963 0
M  V30 432 H 38.3965 2.99177 -0.522177 0
M  V30 433 H 35.9815 1.45903 -0.321364 0
M  V30 434 H 37.8635 3.81584 1.78805 0
M  V30 435 H 36.5385 2.6247 1.89449 0
M  V30 436 H 35.4455 3.73847 -0.137627 0
M  V30 437 H 36.7785 4.91935 -0.161399 0
M  V30 438 N 38.4306 0.297415 1.54768 0
M  V30 439 C 39.6766 -0.313376 2.00364 0
M  V30 440 C 40.0096 -1.53815 1.18553 0
M  V30 441 O 39.2846 -1.92739 0.261103 0
M  V30 442 C 39.5676 -0.673525 3.53745 0
M  V30 443 C 39.4206 0.560133 4.46299 0
M  V30 444 C 40.7396 -1.50143 4.13697 0
M  V30 445 H 37.8586 -0.112428 0.728374 0
M  V30 446 H 40.5006 0.4088 1.8555 0
M  V30 447 H 38.6506 -1.28881 3.665 0
M  V30 448 H 40.3226 1.19863 4.45455 0
M  V30 449 H 38.5656 1.19405 4.17043 0
M  V30 450 H 39.2366 0.26405 5.51368 0
M  V30 451 H 41.7126 -0.981588 4.04356 0
M  V30 452 H 40.5886 -1.72221 5.21182 0
M  V30 453 H 40.8496 -2.48952 3.65343 0
M  V30 454 N 39.9087 -1.5758 0.0250728 0
M  V30 455 C 40.8407 -2.06869 -0.986796 0
M  V30 456 C 41.8537 -0.991332 -1.29137 0
M  V30 457 O 43.0427 -1.26761 -1.25674 0
M  V30 458 C 40.1427 -2.47486 -2.31525 0
M  V30 459 C 39.3157 -3.78253 -2.19643 0
M  V30 460 C 38.3747 -4.05464 -3.35388 0
M  V30 461 O 37.4007 -4.75774 -3.12454 0
M  V30 462 N 38.6027 -3.55321 -4.59051 0
M  V30 463 H 41.3677 -2.94302 -0.566276 0
M  V30 464 H 38.9287 -1.6109 -0.161776 0
M  V30 465 H 40.9207 -2.62785 -3.07776 0
M  V30 466 H 39.4907 -1.65441 -2.65232 0
M  V30 467 H 38.7107 -3.7279 -1.28144 0
M  V30 468 H 39.9987 -4.63936 -2.08903 0
M  V30 469 H 39.3967 -2.98431 -4.80578 0
M  V30 470 H 37.9537 -3.75905 -5.32483 0
M  V30 471 N 41.3868 0.248026 -1.55636 0
M  V30 472 C 42.3188 1.32993 -1.8667 0
M  V30 473 C 43.3318 1.44345 -0.752877 0
M  V30 474 O 44.5208 1.45715 -1.03098 0
M  V30 475 C 41.6208 2.70863 -2.03682 0
M  V30 476 C 40.7938 2.81792 -3.34532 0
M  V30 477 C 39.8528 4.005 -3.41301 0
M  V30 478 O 38.8788 3.9008 -4.14519 0
M  V30 479 N 40.0808 5.13618 -2.70512 0
M  V30 480 H 42.8458 1.06707 -2.8006 0
M  V30 481 H 40.4068 0.438129 -1.55859 0
M  V30 482 H 42.3988 3.48612 -2.05553 0
M  V30 483 H 40.9688 2.89862 -1.17041 0
M  V30 484 H 40.1888 1.90729 -3.44987 0
M  V30 485 H 41.4768 2.86043 -4.20781 0
M  V30 486 H 40.8748 5.24975 -2.10755 0
M  V30 487 H 39.4318 5.89505 -2.78077 0
M  V30 488 N 42.8649 1.48995 0.513639 0
M  V30 489 C 44.1109 1.59053 1.26783 0
M  V30 490 C 44.4659 0.268136 1.90522 0
M  V30 491 O 43.7589 -0.730534 1.77126 0
M  V30 492 C 43.9529 2.67756 2.36731 0
M  V30 493 C 43.7819 4.10437 1.83771 0
M  V30 494 C 42.5519 4.7738 1.65639 0
M  V30 495 C 44.7499 4.9608 1.35681 0
M  V30 496 N 42.7319 6.04419 1.07476 0
M  V30 497 C 44.1029 6.13496 0.895715 0
M  V30 498 C 46.1579 4.82177 1.24136 0
M  V30 499 C 44.8609 7.1854 0.3306 0
M  V30 500 C 46.8869 5.87358 0.690229 0
M  V30 501 C 46.2489 7.03993 0.239292 0
M  V30 502 H 42.3479 0.636463 0.454355 0
M  V30 503 H 44.9319 1.85948 0.577196 0
M  V30 504 H 43.1029 2.42655 3.03271 0
M  V30 505 H 44.8349 2.67406 3.0377 0
M  V30 506 H 41.5899 4.33974 1.8964 0
M  V30 507 H 42.0139 6.72214 0.803579 0
M  V30 508 H 46.6559 3.92329 1.57601 0
M  V30 509 H 44.3739 8.08098 -0.0163435 0
M  V30 510 H 47.9599 5.78658 0.603852 0
M  V30 511 H 46.8399 7.83992 -0.180526 0
M  V30 512 N 44.343 -0.763751 1.37857 0
M  V30 513 C 45.573 -1.55067 1.3652 0
M  V30 514 C 45.981 -1.89135 -0.0494227 0
M  V30 515 O 45.324 -1.52529 -1.02375 0
M  V30 516 C 45.386 -2.8838 2.14656 0
M  V30 517 C 45.05 -2.76905 3.63555 0
M  V30 518 C 46.047 -2.4739 4.57268 0
M  V30 519 C 43.732 -2.94676 4.06781 0
M  V30 520 C 45.726 -2.35786 5.92186 0
M  V30 521 C 43.413 -2.82692 5.41782 0
M  V30 522 C 44.411 -2.53289 6.34298 0
M  V30 523 O 44.099 -2.41345 7.66817 0
M  V30 524 H 43.831 -0.486776 0.469069 0
M  V30 525 H 46.385 -0.953812 1.81911 0
M  V30 526 H 44.615 -3.50217 1.63967 0
M  V30 527 H 46.304 -3.49828 2.05852 0
M  V30 528 H 47.07 -2.33339 4.2518 0
M  V30 529 H 42.949 -3.16563 3.35126 0
M  V30 530 H 46.493 -2.12757 6.64365 0
M  V30 531 H 42.39 -2.96314 5.7347 0
M  V30 532 H 43.158 -2.56634 7.77226 0
M  V30 533 N 45.8211 -1.22559 -0.990812 0
M  V30 534 C 46.7681 -0.997519 -2.0813 0
M  V30 535 C 47.7381 0.0814702 -1.659 0
M  V30 536 O 48.9231 -0.0685424 -1.90677 0
M  V30 537 C 46.0631 -0.583615 -3.40129 0
M  V30 538 C 45.1761 -1.7336 -3.9569 0
M  V30 539 C 44.3111 -1.26748 -5.15857 0
M  V30 540 C 43.3501 -2.38888 -5.63559 0
M  V30 541 N 42.4871 -1.93308 -6.74964 0
M  V30 542 H 47.3271 -1.93099 -2.26973 0
M  V30 543 H 44.8641 -0.962114 -1.11273 0
M  V30 544 H 46.8221 -0.324801 -4.15934 0
M  V30 545 H 45.4521 0.312845 -3.2128 0
M  V30 546 H 44.5041 -2.10669 -3.16738 0
M  V30 547 H 45.8161 -2.57704 -4.27071 0
M  V30 548 H 44.9701 -0.966173 -5.98957 0
M  V30 549 H 43.7091 -0.394272 -4.86104 0
M  V30 550 H 42.7141 -2.69805 -4.79046 0
M  V30 551 H 43.9391 -3.26728 -5.95336 0
M  V30 552 H 41.8851 -1.08352 -6.4699 0
M  V30 553 H 41.8021 -2.71217 -7.05675 0
M  V30 554 H 43.0701 -1.66252 -7.61564 0
M  V30 555 N 47.2992 1.18797 -1.03562 0
M  V30 556 C 48.5472 1.88278 -0.734569 0
M  V30 557 C 48.8682 1.8043 0.739586 0
M  V30 558 O 48.1382 1.21925 1.53333 0
M  V30 559 H 46.7182 0.696991 -0.268725 0
M  V30 560 H 49.3802 1.44192 -1.31129 0
M  V30 561 H 48.4762 2.94443 -1.03489 0
M  V30 562 N 48.7773 0.814389 1.34928 0
M  V30 563 C 50.0243 0.398423 1.98542 0
M  V30 564 C 50.3523 -1.03638 1.64589 0
M  V30 565 O 49.6073 -1.73509 0.90516 0
M  V30 566 C 49.9063 0.537781 3.53331 0
M  V30 567 C 49.5723 1.93704 4.07172 0
M  V30 568 C 48.2343 2.31984 4.21589 0
M  V30 569 C 50.5863 2.85213 4.36237 0
M  V30 570 C 47.9143 3.61125 4.62391 0
M  V30 571 C 50.2663 4.13809 4.78482 0
M  V30 572 C 48.9303 4.52077 4.91104 0
M  V30 573 H 48.2003 0.145793 0.726516 0
M  V30 574 H 50.8473 1.03669 1.61012 0
M  V30 575 H 49.1523 -0.183906 3.91368 0
M  V30 576 H 50.8493 0.196588 4.00518 0
M  V30 577 H 47.4393 1.62966 3.96409 0
M  V30 578 H 51.6233 2.56885 4.24645 0
M  V30 579 H 46.8793 3.90612 4.70353 0
M  V30 580 H 51.0533 4.84811 4.99932 0
M  V30 581 H 48.6803 5.52196 5.22478 0
M  V30 582 N 50.2554 -1.46986 0.568584 0
M  V30 583 C 51.5044 -2.01646 0.0465894 0
M  V30 584 C 51.8174 -1.44721 -1.31587 0
M  V30 585 O 53.0234 -1.91113 -1.92842 0
M  V30 586 C 51.4794 -3.59885 0.032752 0
M  V30 587 C 51.0874 -4.25804 1.39266 0
M  V30 588 C 52.8314 -4.22255 -0.436038 0
M  V30 589 C 50.7384 -5.76081 1.33732 0
M  V30 590 H 49.6684 -0.753876 0.013647 0
M  V30 591 H 52.3194 -1.68864 0.718131 0
M  V30 592 H 50.7014 -3.8968 -0.704669 0
M  V30 593 H 51.8754 -4.07637 2.1487 0
M  V30 594 H 50.1904 -3.7547 1.80032 0
M  V30 595 H 52.7874 -5.32394 -0.49602 0
M  V30 596 H 53.1304 -3.90212 -1.45053 0
M  V30 597 H 53.6634 -3.97033 0.246877 0
M  V30 598 H 50.4024 -6.12761 2.32817 0
M  V30 599 H 49.9224 -5.96553 0.623267 0
M  V30 600 H 51.6014 -6.38518 1.0442 0
M  V30 601 N 51.7335 -0.305618 -1.54608 0
M  V30 602 C 52.6805 0.568421 -2.23691 0
M  V30 603 C 53.6505 1.12592 -1.22116 0
M  V30 604 O 54.8355 1.16959 -1.50749 0
M  V30 605 C 51.9755 1.7322 -2.98477 0
M  V30 606 C 51.0885 1.20566 -4.14835 0
M  V30 607 C 50.2235 2.33368 -4.77193 0
M  V30 608 C 49.2625 1.7787 -5.85686 0
M  V30 609 N 48.3995 2.84263 -6.4198 0
M  V30 610 H 53.2395 -0.0272867 -2.97988 0
M  V30 611 H 50.7765 -0.0252363 -1.47078 0
M  V30 612 H 52.7345 2.41675 -3.40072 0
M  V30 613 H 51.3645 2.29947 -2.26548 0
M  V30 614 H 50.4165 0.413223 -3.78149 0
M  V30 615 H 51.7285 0.759417 -4.92985 0
M  V30 616 H 50.8825 3.09761 -5.21664 0
M  V30 617 H 49.6215 2.8132 -3.98385 0
M  V30 618 H 48.6265 0.99968 -5.40635 0
M  V30 619 H 49.8515 1.30816 -6.66381 0
M  V30 620 H 47.7975 3.31541 -5.66053 0
M  V30 621 H 47.7145 2.44149 -7.15491 0
M  V30 622 H 48.9825 3.6054 -6.91109 0
M  V30 623 N 53.2116 1.57565 -0.0334293 0
M  V30 624 C 54.4886 1.83282 0.683163 0
M  V30 625 C 54.8686 0.91823 1.90084 0
M  V30 626 O 54.2166 -0.025113 2.28486 0
M  V30 627 C 54.4266 3.32599 1.0573 0
M  V30 628 C 55.7746 3.99179 1.44711 0
M  V30 629 O 56.7986 3.3712 1.15015 0
M  V30 630 O 55.6576 5.08565 2.0006 0
M  V30 631 H 52.7516 0.755869 0.335546 0
M  V30 632 H 55.2976 1.69589 -0.0614402 0
M  V30 633 H 54.0696 3.90834 0.190828 0
M  V30 634 H 53.6926 3.51415 1.85993 0
M  V30 635 N 54.6897 -0.239769 1.55765 0
M  V30 636 C 55.9297 -0.974076 1.79697 0
M  V30 637 C 56.2937 -1.82249 0.604088 0
M  V30 638 O 57.4947 -2.58913 0.722324 0
M  V30 639 C 55.7657 -1.80595 3.08416 0
M  V30 640 S 57.3247 -2.59838 3.53596 0
M  V30 641 H 54.1427 -0.327524 0.63107 0
M  V30 642 H 56.7447 -0.241277 1.94005 0
M  V30 643 H 55.4487 -1.17249 3.93295 0
M  V30 644 H 54.9797 -2.58137 2.96865 0
M  V30 645 H 56.9947 -3.82987 3.15492 0
M  V30 646 N 56.1678 -1.49265 -0.50573 0
M  V30 647 C 57.5788 -1.51769 -1.08734 0
M  V30 648 C 57.9298 -0.301192 -1.93874 0
M  V30 649 O 57.0548 0.589456 -2.08217 0
M  V30 650 C 57.6498 -2.75017 -1.97867 0
M  V30 651 C 56.2088 -2.80314 -2.51199 0
M  V30 652 C 55.3558 -2.4562 -1.28709 0
M  V30 653 H 58.3068 -1.56031 -0.289855 0
M  V30 654 H 58.3278 -2.5491 -2.82491 0
M  V30 655 H 57.8398 -3.63539 -1.35873 0
M  V30 656 H 55.9408 -1.96061 -3.16845 0
M  V30 657 H 56.0538 -3.82366 -2.88675 0
M  V30 658 H 54.4178 -1.97297 -1.61078 0
M  V30 659 H 55.2008 -3.36411 -0.6843 0
M  V30 660 N 57.6459 0.756429 -1.3826 0
M  V30 661 C 58.8709 1.55077 -1.37717 0
M  V30 662 C 59.2959 1.88073 0.03164 0
M  V30 663 O 58.6539 1.50364 1.01293 0
M  V30 664 C 58.7019 2.8283 -2.23695 0
M  V30 665 O 57.8059 3.77862 -1.6521 0
M  V30 666 H 57.1469 0.469152 -0.469885 0
M  V30 667 H 59.6769 0.935019 -1.81985 0
M  V30 668 H 59.6869 3.31783 -2.37453 0
M  V30 669 H 58.3619 2.58144 -3.2609 0
M  V30 670 H 56.9389 3.36555 -1.60578 0
M  V30 671 N 59.124 1.23083 0.984299 0
M  V30 672 C 60.372 1.05848 1.72165 0
M  V30 673 C 60.693 -0.406049 1.90726 0
M  V30 674 O 59.963 -1.29139 1.47309 0
M  V30 675 H 58.543 0.388685 0.637913 0
M  V30 676 H 61.205 1.54736 1.18503 0
M  V30 677 H 60.301 1.54327 2.71274 0
M  V30 678 N 60.6021 -1.18246 1.0419 0
M  V30 679 C 61.5341 -2.2142 0.592088 0
M  V30 680 C 62.5471 -1.59233 -0.338909 0
M  V30 681 O 63.7361 -1.78002 -0.133231 0
M  V30 682 C 60.8361 -3.38546 -0.154854 0
M  V30 683 C 60.0091 -4.3031 0.784328 0
M  V30 684 C 59.0681 -5.26138 0.0804583 0
M  V30 685 O 58.0941 -5.64738 0.711292 0
M  V30 686 N 59.2961 -5.68261 -1.18574 0
M  V30 687 H 62.0611 -2.60636 1.47949 0
M  V30 688 H 59.6221 -1.33044 0.922544 0
M  V30 689 H 61.6141 -3.99678 -0.635606 0
M  V30 690 H 60.1841 -2.98012 -0.943811 0
M  V30 691 H 59.4041 -3.66764 1.44491 0
M  V30 692 H 60.6921 -4.8852 1.42218 0
M  V30 693 H 60.0901 -5.38957 -1.71876 0
M  V30 694 H 58.6471 -6.31584 -1.61074 0
M  V30 695 N 62.0802 -0.821533 -1.34494 0
M  V30 696 C 63.0102 -0.257138 -2.3208 0
M  V30 697 C 63.9912 0.625645 -1.58176 0
M  V30 698 O 65.1762 0.552811 -1.86166 0
M  V30 699 C 62.3062 0.582958 -3.42372 0
M  V30 700 C 61.2602 -0.202571 -4.2752 0
M  V30 701 C 60.5862 0.760179 -5.29269 0
M  V30 702 C 61.8862 -1.40998 -5.02908 0
M  V30 703 H 63.5802 -1.07247 -2.79532 0
M  V30 704 H 61.1262 -0.517163 -1.34393 0
M  V30 705 H 63.0792 0.987972 -4.09655 0
M  V30 706 H 61.8032 1.43133 -2.93565 0
M  V30 707 H 60.4622 -0.588936 -3.61838 0
M  V30 708 H 60.1102 1.60447 -4.76724 0
M  V30 709 H 59.8102 0.238809 -5.87115 0
M  V30 710 H 61.3342 1.16308 -5.9942 0
M  V30 711 H 62.7482 -1.07905 -5.63054 0
M  V30 712 H 61.1452 -1.86689 -5.70322 0
M  V30 713 H 62.2152 -2.1889 -4.32684 0
M  V30 714 N 63.5583 1.46682 -0.576371 0
M  V30 715 C 64.8353 1.95599 0.00703437 0
M  V30 716 C 65.2153 1.51904 1.46589 0
M  V30 717 O 64.5633 0.766755 2.15251 0
M  V30 718 C 64.7733 3.4864 -0.158404 0
M  V30 719 C 66.1213 4.24594 -0.0229439 0
M  V30 720 O 67.1453 3.56094 -0.0869173 0
M  V30 721 O 66.0043 5.46373 0.118015 0
M  V30 722 H 63.0983 0.825275 0.053384 0
M  V30 723 H 65.6443 1.56996 -0.644244 0
M  V30 724 H 64.4163 3.7331 -1.17282 0
M  V30 725 H 64.0393 3.94057 0.5296 0
M  V30 726 N 65.0364 0.313813 1.54444 0
M  V30 727 C 65.9994 -0.54379 2.22656 0
M  V30 728 C 66.9994 -1.05124 1.21678 0
M  V30 729 O 68.1894 -0.945225 1.46325 0
M  V30 730 C 65.3214 -1.75427 2.92298 0
M  V30 731 H 66.5144 0.0523599 2.99854 0
M  V30 732 H 64.0674 0.0647834 1.56166 0
M  V30 733 H 64.8024 -2.38991 2.19211 0
M  V30 734 H 64.5874 -1.39791 3.66334 0
M  V30 735 H 66.0774 -2.36325 3.44297 0
M  V30 736 N 66.5145 -1.57545 0.0417849 0
M  V30 737 C 67.4775 -2.09885 -0.92093 0
M  V30 738 C 68.4775 -1.01648 -1.24596 0
M  V30 739 O 69.6675 -1.27759 -1.1842 0
M  V30 740 C 66.7995 -2.57527 -2.23367 0
M  V30 741 H 67.9925 -2.96236 -0.467382 0
M  V30 742 H 65.5455 -1.5493 -0.206467 0
M  V30 743 H 66.2805 -1.74542 -2.73323 0
M  V30 744 H 66.0655 -3.36613 -2.01083 0
M  V30 745 H 67.5555 -2.98201 -2.92346 0
M  V30 746 N 67.9926 0.231505 -1.5589 0
M  V30 747 C 69.2406 0.955461 -1.78088 0
M  V30 748 C 69.5616 1.85262 -0.608533 0
M  V30 749 O 68.8316 1.92277 0.375035 0
M  V30 750 H 67.4116 0.355787 -0.656829 0
M  V30 751 H 70.0736 0.245751 -1.93344 0
M  V30 752 H 69.1696 1.56814 -2.69844 0
M  V30 753 N 69.4707 1.49531 0.497807 0
M  V30 754 C 70.7177 1.59179 1.25173 0
M  V30 755 C 71.0457 0.279932 1.92475 0
M  V30 756 O 70.3007 -0.732383 1.81479 0
M  V30 757 C 70.5997 2.70252 2.33878 0
M  V30 758 C 70.2657 4.11644 1.84012 0
M  V30 759 C 68.9277 4.50121 1.70132 0
M  V30 760 C 71.2797 5.00121 1.46725 0
M  V30 761 C 68.6077 5.74845 1.17348 0
M  V30 762 C 70.9597 6.25366 0.95392 0
M  V30 763 C 69.6237 6.6267 0.801538 0
M  V30 764 H 68.8937 0.582478 0.45804 0
M  V30 765 H 71.5407 1.83373 0.551948 0
M  V30 766 H 69.8457 2.40041 3.09657 0
M  V30 767 H 71.5427 2.74925 2.9192 0
M  V30 768 H 68.1327 3.81274 1.95775 0
M  V30 769 H 72.3167 4.71048 1.56294 0
M  V30 770 H 67.5727 6.02444 1.04264 0
M  V30 771 H 71.7467 6.93301 0.656225 0
M  V30 772 H 69.3737 7.59197 0.390351 0
M  V30 773 N 70.9488 -0.749086 1.3866 0
M  V30 774 C 71.8808 -1.87273 1.32142 0
M  V30 775 C 72.8938 -1.61127 0.232787 0
M  V30 776 O 74.0828 -1.71623 0.49069 0
M  V30 777 C 71.1828 -3.23005 1.02571 0
M  V30 778 C 70.3558 -3.7662 2.22433 0
M  V30 779 C 69.4148 -4.90879 1.89537 0
M  V30 780 O 68.4408 -5.05276 2.62078 0
M  V30 781 N 69.6428 -5.74198 0.853031 0
M  V30 782 H 72.4078 -1.93373 2.28969 0
M  V30 783 H 69.9688 -0.929216 1.32579 0
M  V30 784 H 71.9608 -3.96992 0.786085 0
M  V30 785 H 70.5308 -3.12262 0.145249 0
M  V30 786 H 69.7508 -2.94147 2.62434 0
M  V30 787 H 71.0388 -4.09173 3.02415 0
M  V30 788 H 70.4368 -5.6514 0.25155 0
M  V30 789 H 68.9938 -6.48313 0.67329 0
M  V30 790 N 72.4269 -1.23603 -0.977757 0
M  V30 791 C 73.3739 -1.01954 -2.07061 0
M  V30 792 C 74.3439 0.0638697 -1.65977 0
M  V30 793 O 75.5289 -0.0887624 -1.90593 0
M  V30 794 C 72.6689 -0.619658 -3.39491 0
M  V30 795 C 71.7819 -1.77547 -3.93829 0
M  V30 796 C 70.9169 -1.32212 -5.14484 0
M  V30 797 C 69.9559 -2.44852 -5.60994 0
M  V30 798 N 69.0929 -2.00456 -6.72876 0
M  V30 799 H 73.9329 -1.95495 -2.24913 0
M  V30 800 H 71.4699 -0.973861 -1.10247 0
M  V30 801 H 73.4279 -0.368898 -4.15566 0
M  V30 802 H 72.0579 0.278752 -3.21594 0
M  V30 803 H 71.1099 -2.14016 -3.14486 0
M  V30 804 H 72.4219 -2.62219 -4.24314 0
M  V30 805 H 71.5759 -1.02965 -5.97899 0
M  V30 806 H 70.3149 -0.445808 -4.85658 0
M  V30 807 H 69.3199 -2.74871 -4.76157 0
M  V30 808 H 70.5449 -3.33024 -5.91837 0
M  V30 809 H 68.4909 -1.15208 -6.45804 0
M  V30 810 H 68.4079 -2.78687 -7.02759 0
M  V30 811 H 69.6759 -1.7432 -7.59758 0
M  V30 812 N 73.905 1.17692 -1.04816 0
M  V30 813 C 75.154 1.87192 -0.751132 0
M  V30 814 C 75.467 1.8169 0.724441 0
M  V30 815 O 76.673 2.46625 1.13527 0
M  V30 816 C 75.129 3.35857 -1.29338 0
M  V30 817 C 74.737 3.4987 -2.79812 0
M  V30 818 C 76.481 4.10709 -1.07322 0
M  V30 819 C 74.388 4.92536 -3.27356 0
M  V30 820 H 73.318 0.701162 -0.277288 0
M  V30 821 H 75.969 1.32932 -1.26496 0
M  V30 822 H 74.351 3.89631 -0.707376 0
M  V30 823 H 75.525 3.06332 -3.44235 0
M  V30 824 H 73.84 2.88433 -3.00325 0
M  V30 825 H 76.437 5.15952 -1.4035 0
M  V30 826 H 76.78 4.16299 -0.0108001 0
M  V30 827 H 77.313 3.6313 -1.62423 0
M  V30 828 H 74.052 4.92119 -4.33012 0
M  V30 829 H 73.572 5.3676 -2.67673 0
M  V30 830 H 75.251 5.61288 -3.21815 0
M  V30 831 N 75.3831 0.828654 1.34056 0
M  V30 832 C 76.6131 0.431993 2.02033 0
M  V30 833 C 77.0211 -0.96844 1.62536 0
M  V30 834 O 76.3641 -1.6391 0.829408 0
M  V30 835 C 76.4261 0.461224 3.56529 0
M  V30 836 C 76.0901 1.81599 4.1937 0
M  V30 837 C 77.0871 2.7777 4.39477 0
M  V30 838 C 74.7721 2.10604 4.56017 0
M  V30 839 C 76.7661 4.01115 4.95364 0
M  V30 840 C 74.4531 3.34207 5.11614 0
M  V30 841 C 75.4511 4.2928 5.31232 0
M  V30 842 O 75.1391 5.50699 5.8565 0
M  V30 843 H 74.8711 0.170943 0.654029 0
M  V30 844 H 77.4251 1.11988 1.72185 0
M  V30 845 H 75.6551 -0.283388 3.8566 0
M  V30 846 H 77.3441 0.0838149 4.05813 0
M  V30 847 H 78.1101 2.56659 4.11523 0
M  V30 848 H 73.9891 1.37402 4.40047 0
M  V30 849 H 77.5331 4.75333 5.10592 0
M  V30 850 H 73.4301 3.55179 5.38997 0
M  V30 851 H 74.1981 5.52298 6.04077 0
M  V30 852 N 76.8612 -1.46375 0.584142 0
M  V30 853 C 77.8082 -2.30323 -0.148286 0
M  V30 854 C 78.7782 -1.40703 -0.882713 0
M  V30 855 O 79.9632 -1.69651 -0.873099 0
M  V30 856 C 77.1032 -3.25196 -1.15507 0
M  V30 857 C 76.2162 -4.29915 -0.423943 0
M  V30 858 C 75.3512 -5.11914 -1.41838 0
M  V30 859 C 74.3902 -6.08381 -0.673736 0
M  V30 860 N 73.5272 -6.83242 -1.6163 0
M  V30 861 H 78.3672 -2.92427 0.573644 0
M  V30 862 H 75.9042 -1.44118 0.294703 0
M  V30 863 H 77.8622 -3.78646 -1.75166 0
M  V30 864 H 76.4922 -2.64898 -1.8447 0
M  V30 865 H 75.5442 -3.7931 0.287714 0
M  V30 866 H 76.8562 -4.98549 0.158128 0
M  V30 867 H 76.0102 -5.69648 -2.08773 0
M  V30 868 H 74.7492 -4.43243 -2.03438 0
M  V30 869 H 73.7542 -5.49799 0.00938483 0
M  V30 870 H 74.9792 -6.79071 -0.0631082 0
M  V30 871 H 72.9252 -6.1728 -2.22038 0
M  V30 872 H 72.8422 -7.48144 -1.08707 0
M  V30 873 H 74.1102 -7.45534 -2.27596 0
M  V30 874 N 78.3393 -0.321999 -1.54275 0
M  V30 875 C 79.2713 0.578671 -2.21775 0
M  V30 876 C 80.2843 1.08109 -1.21722 0
M  V30 877 O 81.4733 0.994938 -1.482 0
M  V30 878 C 78.5733 1.80661 -2.86731 0
M  V30 879 C 77.7463 1.44314 -4.12907 0
M  V30 880 C 76.8053 2.52845 -4.61472 0
M  V30 881 O 75.8313 2.17054 -5.2619 0
M  V30 882 N 77.0333 3.83748 -4.35566 0
M  V30 883 H 79.7983 0.000709447 -2.997 0
M  V30 884 H 77.3593 -0.145132 -1.61248 0
M  V30 885 H 79.3513 2.52655 -3.16145 0
M  V30 886 H 77.9213 2.29245 -2.12521 0
M  V30 887 H 77.1413 0.554906 -3.90275 0
M  V30 888 H 78.4293 1.17598 -4.95023 0
M  V30 889 H 77.8273 4.15625 -3.83761 0
M  V30 890 H 76.3843 4.51977 -4.69638 0
M  V30 891 N 79.8174 1.5752 -0.0501392 0
M  V30 892 C 81.0644 1.9265 0.623874 0
M  V30 893 C 81.3924 0.928411 1.70912 0
M  V30 894 O 80.6474 -0.0594525 1.9561 0
M  V30 895 C 80.9464 3.34467 1.25963 0
M  V30 896 C 80.6124 4.49883 0.302689 0
M  V30 897 C 79.2744 4.81184 0.0393636 0
M  V30 898 C 81.6264 5.20002 -0.353205 0
M  V30 899 C 78.9544 5.79951 -0.887308 0
M  V30 900 C 81.3064 6.1976 -1.26806 0
M  V30 901 C 79.9704 6.49491 -1.54007 0
M  V30 902 H 79.2404 0.704957 0.228292 0
M  V30 903 H 81.8874 1.91146 -0.116398 0
M  V30 904 H 80.1924 3.32333 2.07514 0
M  V30 905 H 81.8894 3.58928 1.78806 0
M  V30 906 H 78.4794 4.25457 0.518109 0
M  V30 907 H 82.6634 4.96033 -0.162854 0
M  V30 908 H 77.9194 6.01322 -1.10553 0
M  V30 909 H 82.0934 6.73205 -1.78236 0
M  V30 910 H 79.7204 7.25837 -2.25976 0
M  V30 911 N 81.2955 -0.223234 1.56011 0
M  V30 912 C 82.5425 -0.947875 1.78946 0
M  V30 913 C 82.8705 -1.844 0.618608 0
M  V30 914 O 82.1255 -1.91629 -0.397093 0
M  V30 915 C 82.4245 -1.81948 3.0762 0
M  V30 916 C 82.0905 -1.07672 4.37856 0
M  V30 917 C 80.7525 -0.871544 4.73242 0
M  V30 918 C 83.1045 -0.552081 5.18268 0
M  V30 919 C 80.4325 -0.129791 5.86556 0
M  V30 920 C 82.7845 0.17632 6.32354 0
M  V30 921 C 81.4485 0.39277 6.66343 0
M  V30 922 H 80.7185 -0.346852 0.654809 0
M  V30 923 H 83.3655 -0.216171 1.90276 0
M  V30 924 H 81.6705 -2.61899 2.91404 0
M  V30 925 H 83.3675 -2.38227 3.22566 0
M  V30 926 H 79.9575 -1.24662 4.1007 0
M  V30 927 H 84.1415 -0.698076 4.91366 0
M  V30 928 H 79.3975 0.048153 6.11381 0
M  V30 929 H 83.5715 0.590367 6.93893 0
M  V30 930 H 81.1985 0.969466 7.53993 0
M  V30 931 N 82.7736 -1.49793 -0.48987 0
M  V30 932 C 84.1846 -1.52914 -1.07118 0
M  V30 933 C 84.5356 -0.321738 -1.93544 0
M  V30 934 O 83.6606 0.567338 -2.08831 0
M  V30 935 C 84.2556 -2.771 -1.94938 0
M  V30 936 C 82.8146 -2.82963 -2.48212 0
M  V30 937 C 81.9616 -2.46972 -1.26096 0
M  V30 938 H 84.9126 -1.56329 -0.273289 0
M  V30 939 H 84.9336 -2.57892 -2.79771 0
M  V30 940 H 84.4456 -3.64959 -1.32009 0
M  V30 941 H 82.5466 -1.99411 -3.14748 0
M  V30 942 H 82.6596 -3.85406 -2.84603 0
M  V30 943 H 81.0236 -1.98994 -1.58976 0
M  V30 944 H 81.8066 -3.37118 -0.648581 0
M  V30 945 N 84.2517 0.741722 -1.39055 0
M  V30 946 C 85.4987 1.50114 -1.35912 0
M  V30 947 C 85.8267 1.94443 0.0470937 0
M  V30 948 O 85.0817 1.66612 1.02659 0
M  V30 949 C 85.3807 2.7592 -2.27163 0
M  V30 950 C 85.0467 2.50493 -3.74919 0
M  V30 951 C 83.7087 2.43267 -4.1518 0
M  V30 952 C 86.0607 2.28585 -4.684 0
M  V30 953 C 83.3887 2.12166 -5.46994 0
M  V30 954 C 85.7407 1.99002 -6.00484 0
M  V30 955 C 84.4047 1.90241 -6.39816 0
M  V30 956 H 83.6747 0.549306 -0.497336 0
M  V30 957 H 86.3217 0.851896 -1.71508 0
M  V30 958 H 84.6267 3.45553 -1.84663 0
M  V30 959 H 86.3237 3.33923 -2.22028 0
M  V30 960 H 82.9137 2.56992 -3.43006 0
M  V30 961 H 87.0977 2.33139 -4.38132 0
M  V30 962 H 82.3537 2.03901 -5.76398 0
M  V30 963 H 86.5277 1.81057 -6.72452 0
M  V30 964 H 84.1547 1.65907 -7.41875 0
M  V30 965 N 85.7298 1.2412 0.971189 0
M  V30 966 C 86.9778 1.07668 1.71032 0
M  V30 967 C 87.2988 -0.385797 1.91146 0
M  V30 968 O 86.5688 -1.27569 1.4867 0
M  V30 969 H 85.1488 0.395429 0.633755 0
M  V30 970 H 87.8108 1.55984 1.16855 0
M  V30 971 H 86.9068 1.57195 2.69622 0
M  V30 972 N 87.2079 -1.17134 1.05439 0
M  V30 973 C 88.4849 -1.83411 0.679699 0
M  V30 974 C 88.8649 -1.9368 -0.839726 0
M  V30 975 O 88.2129 -1.47325 -1.74664 0
M  V30 976 C 88.4229 -3.20918 1.37159 0
M  V30 977 C 89.7709 -3.96796 1.51123 0
M  V30 978 O 90.7949 -3.30406 1.3308 0
M  V30 979 O 89.6539 -5.15778 1.80651 0
M  V30 980 H 86.7479 -0.79154 0.239569 0
M  V30 981 H 89.2939 -1.24411 1.15413 0
M  V30 982 H 88.0659 -3.08428 2.40807 0
M  V30 983 H 87.6889 -3.87587 0.886674 0
M  V30 984 N 88.686 -0.835752 -1.33615 0
M  V30 985 C 90.097 -0.487099 -1.80234 0
M  V30 986 C 90.448 0.993627 -1.69179 0
M  V30 987 O 89.573 1.77403 -1.23924 0
M  V30 988 C 90.168 -0.877385 -3.27242 0
M  V30 989 C 88.727 -0.580915 -3.7189 0
M  V30 990 C 87.874 -1.0874 -2.5509 0
M  V30 991 H 90.825 -1.02474 -1.2118 0
M  V30 992 H 90.846 -0.186195 -3.80044 0
M  V30 993 H 90.358 -1.95512 -3.35256 0
M  V30 994 H 88.459 0.486881 -3.69405 0
M  V30 995 H 88.572 -1.13396 -4.65487 0
M  V30 996 H 86.936 -0.508392 -2.49575 0
M  V30 997 H 87.719 -2.17184 -2.65868 0
M  V30 998 N 90.1641 1.46063 -0.591896 0
M  V30 999 C 91.3921 2.06717 -0.0868936 0
M  V30 1000 C 91.8071 1.43916 1.22203 0
M  V30 1001 O 91.1641 0.547698 1.74088 0
M  V30 1002 C 91.2151 3.6142 0.0758725 0
M  V30 1003 O 90.9361 4.21874 -1.18126 0
M  V30 1004 C 92.4371 4.39025 0.61416 0
M  V30 1005 H 89.6571 0.668162 -0.0616518 0
M  V30 1006 H 92.2011 1.8755 -0.815175 0
M  V30 1007 H 90.3561 3.79983 0.754413 0
M  V30 1008 H 90.7701 5.14861 -1.00092 0
M  V30 1009 H 92.2441 5.4783 0.677193 0
M  V30 1010 H 92.7211 4.07708 1.63312 0
M  V30 1011 H 93.3271 4.2529 -0.0298142 0
M  V30 1012 N 91.6422 0.330177 1.54103 0
M  V30 1013 C 92.5892 -0.532762 2.24567 0
M  V30 1014 C 93.5592 -1.10635 1.23892 0
M  V30 1015 O 94.7442 -1.14546 1.5259 0
M  V30 1016 C 91.8842 -1.6845 3.01195 0
M  V30 1017 C 90.9972 -1.13951 4.167 0
M  V30 1018 C 90.1322 -2.25746 4.80845 0
M  V30 1019 C 89.1712 -1.6853 5.88442 0
M  V30 1020 N 88.3082 -2.74014 6.46421 0
M  V30 1021 H 93.1482 0.0746905 2.97906 0
M  V30 1022 H 90.6852 0.048632 1.4702 0
M  V30 1023 H 92.6432 -2.36234 3.43874 0
M  V30 1024 H 91.2732 -2.26314 2.30178 0
M  V30 1025 H 90.3252 -0.35301 3.78758 0
M  V30 1026 H 91.6372 -0.680892 4.94131 0
M  V30 1027 H 90.7912 -3.01422 5.26526 0
M  V30 1028 H 89.5302 -2.74947 4.0281 0
M  V30 1029 H 88.5352 -0.913543 5.42157 0
M  V30 1030 H 89.7602 -1.20198 6.68378 0
M  V30 1031 H 87.7062 -3.22494 5.71256 0
M  V30 1032 H 87.6232 -2.32735 7.19285 0
M  V30 1033 H 88.8912 -3.49499 6.96757 0
M  V30 1034 N 93.1203 -1.57491 0.0584922 0
M  V30 1035 C 94.3673 -1.92978 -0.613648 0
M  V30 1036 C 94.6953 -0.937461 -1.70417 0
M  V30 1037 O 93.9503 0.049078 -1.95638 0
M  V30 1038 C 94.2493 -3.3513 -1.24188 0
M  V30 1039 C 93.9153 -4.50037 -0.278826 0
M  V30 1040 C 92.5773 -4.81198 -0.0138447 0
M  V30 1041 C 94.9293 -5.19807 0.380777 0
M  V30 1042 C 92.2573 -5.79473 0.918052 0
M  V30 1043 C 94.6093 -6.19079 1.30091 0
M  V30 1044 C 93.2733 -6.48665 1.57449 0
M  V30 1045 H 92.5433 -0.706157 -0.22455 0
M  V30 1046 H 95.1903 -1.91082 0.126533 0
M  V30 1047 H 93.4953 -3.33429 -2.05749 0
M  V30 1048 H 95.1923 -3.59871 -1.769 0
M  V30 1049 H 91.7823 -4.25726 -0.495539 0
M  V30 1050 H 95.9663 -4.95939 0.189158 0
M  V30 1051 H 91.2223 -6.00727 1.1374 0
M  V30 1052 H 95.3963 -6.7225 1.81804 0
M  V30 1053 H 93.0233 -7.24628 2.29822 0
M  V30 1054 N 94.5984 0.214957 -1.56127 0
M  V30 1055 C 95.5614 1.24997 -1.92116 0
M  V30 1056 C 96.5614 1.39467 -0.800344 0
M  V30 1057 O 97.7514 1.37619 -1.06802 0
M  V30 1058 C 94.8834 2.62271 -2.17777 0
M  V30 1059 H 96.0764 0.942875 -2.84693 0
M  V30 1060 H 93.6294 0.455654 -1.49511 0
M  V30 1061 H 94.3644 2.98068 -1.27773 0
M  V30 1062 H 94.1494 2.53143 -2.99434 0
M  V30 1063 H 95.6394 3.36946 -2.46693 0
M  V30 1064 N 96.0765 1.50051 0.48192 0
M  V30 1065 C 97.3045 1.64237 1.25832 0
M  V30 1066 C 97.7195 0.321336 1.86045 0
M  V30 1067 O 97.0765 -0.695478 1.68729 0
M  V30 1068 C 97.1275 2.72548 2.37487 0
M  V30 1069 O 96.8485 3.99529 1.79745 0
M  V30 1070 C 98.3495 2.9761 3.28547 0
M  V30 1071 H 95.5695 0.55237 0.380957 0
M  V30 1072 H 98.1135 1.96207 0.576467 0
M  V30 1073 H 96.2685 2.43303 3.01467 0
M  V30 1074 H 96.6825 4.59342 2.5319 0
M  V30 1075 H 98.1565 3.77084 4.03127 0
M  V30 1076 H 98.6335 2.0826 3.86684 0
M  V30 1077 H 99.2395 3.28345 2.70314 0
M  V30 1078 N 97.5546 -0.734337 1.39446 0
M  V30 1079 C 98.8016 -1.49391 1.36706 0
M  V30 1080 C 99.1296 -1.94465 -0.0367813 0
M  V30 1081 O 98.3846 -1.67154 -1.01774 0
M  V30 1082 C 98.6836 -2.74711 2.28623 0
M  V30 1083 C 98.3496 -2.48501 3.76242 0
M  V30 1084 C 97.0116 -2.41062 4.16464 0
M  V30 1085 C 99.3636 -2.26098 4.69606 0
M  V30 1086 C 96.6916 -2.09262 5.48112 0
M  V30 1087 C 99.0436 -1.95814 6.01531 0
M  V30 1088 C 97.7076 -1.86845 6.40816 0
M  V30 1089 H 96.9776 -0.546661 0.500243 0
M  V30 1090 H 99.6246 -0.842788 1.71957 0
M  V30 1091 H 97.9296 -3.44569 1.86492 0
M  V30 1092 H 99.6266 -3.32741 2.23796 0
M  V30 1093 H 96.2166 -2.55169 3.44364 0
M  V30 1094 H 100.401 -2.30812 4.39363 0
M  V30 1095 H 95.6566 -2.00841 5.77471 0
M  V30 1096 H 99.8306 -1.77488 6.73403 0
M  V30 1097 H 97.4576 -1.6197 7.42745 0
M  V30 1098 N 99.0327 -1.24633 -0.964593 0
M  V30 1099 C 100.279 -1.08949 -1.71049 0
M  V30 1100 C 100.612 0.370302 -1.90637 0
M  V30 1101 O 99.8867 1.27349 -1.47011 0
M  V30 1102 C 100.17 -1.83329 -3.0994 0
M  V30 1103 C 100.023 -3.37077 -2.97824 0
M  V30 1104 C 101.342 -1.60846 -4.09654 0
M  V30 1105 H 98.4607 -0.397178 -0.620821 0
M  V30 1106 H 101.103 -1.5334 -1.12191 0
M  V30 1107 H 99.2527 -1.45597 -3.60186 0
M  V30 1108 H 100.925 -3.84425 -2.5498 0
M  V30 1109 H 99.1677 -3.65298 -2.33965 0
M  V30 1110 H 99.8387 -3.84324 -3.96231 0
M  V30 1111 H 102.315 -1.93674 -3.68279 0
M  V30 1112 H 101.191 -2.1534 -5.04896 0
M  V30 1113 H 101.452 -0.547434 -4.38698 0
M  V30 1114 N 100.511 1.16574 -1.06058 0
M  V30 1115 C 101.758 1.87047 -0.775873 0
M  V30 1116 C 102.086 1.81562 0.697534 0
M  V30 1117 O 101.341 1.22445 1.52662 0
M  V30 1118 C 101.64 3.36195 -1.21275 0
M  V30 1119 C 101.306 3.6188 -2.68986 0
M  V30 1120 C 99.9678 3.68599 -3.09335 0
M  V30 1121 C 102.32 3.72648 -3.64394 0
M  V30 1122 C 99.6478 3.83584 -4.43937 0
M  V30 1123 C 102 3.89154 -4.98741 0
M  V30 1124 C 100.664 3.94114 -5.3873 0
M  V30 1125 H 99.9338 0.684452 -0.283912 0
M  V30 1126 H 102.581 1.37853 -1.32925 0
M  V30 1127 H 100.886 3.87505 -0.578528 0
M  V30 1128 H 102.583 3.89103 -0.969542 0
M  V30 1129 H 99.1728 3.57281 -2.36744 0
M  V30 1130 H 103.357 3.66769 -3.34356 0
M  V30 1131 H 98.6128 3.85677 -4.74409 0
M  V30 1132 H 102.787 3.96427 -5.72554 0
M  V30 1133 H 100.414 4.05478 -6.43033 0
M  V30 1134 N 101.989 0.842826 1.3317 0
M  V30 1135 C 102.937 0.267495 2.31057 0
M  V30 1136 C 103.931 -0.602682 1.58316 0
M  V30 1137 O 105.137 -0.491803 1.73151 0
M  V30 1138 H 101.512 0.0677813 0.748939 0
M  V30 1139 H 103.483 1.10754 2.77085 0
M  V30 1140 C 102.232 -0.539331 3.43492 0
M  V30 1141 H 101.555 0.12095 3.99617 0
M  V30 1142 H 102.995 -0.90767 4.14171 0
M  V30 1143 C 101.454 -1.71981 2.89697 0
M  V30 1144 O 101.984 -2.81862 2.86211 0
M  V30 1145 N 100.19 -1.54299 2.46252 0
M  V30 1146 H 99.7369 -0.649143 2.49287 0
M  V30 1147 H 99.6949 -2.33431 2.10612 0
M  V30 1148 N 103.467 -1.45747 0.599634 0
M  V30 1149 C 104.713 -2.02592 0.0918643 0
M  V30 1150 C 105.046 -1.46806 -1.27128 0
M  V30 1151 O 104.321 -0.639658 -1.83681 0
M  V30 1152 C 104.604 -3.60073 0.0443398 0
M  V30 1153 C 104.457 -4.26208 1.43759 0
M  V30 1154 C 105.776 -4.35309 -0.647608 0
M  V30 1155 H 102.895 -0.736175 0.034857 0
M  V30 1156 H 105.537 -1.73694 0.770081 0
M  V30 1157 H 103.687 -3.84823 -0.533224 0
M  V30 1158 H 105.359 -4.12668 2.06162 0
M  V30 1159 H 103.602 -3.84916 2.00056 0
M  V30 1160 H 104.273 -5.35069 1.35665 0
M  V30 1161 H 106.749 -4.15805 -0.156776 0
M  V30 1162 H 105.625 -5.45038 -0.649942 0
M  V30 1163 H 105.886 -4.07598 -1.71219 0
M  V30 1164 N 104.945 -0.338344 -1.53925 0
M  V30 1165 C 106.192 0.259758 -2.00827 0
M  V30 1166 C 106.52 1.50973 -1.22628 0
M  V30 1167 O 105.775 1.93379 -0.300509 0
M  V30 1168 C 106.074 0.62448 -3.51902 0
M  V30 1169 C 105.74 -0.528006 -4.47798 0
M  V30 1170 C 104.402 -0.844298 -4.73735 0
M  V30 1171 C 106.754 -1.30143 -5.0469 0
M  V30 1172 C 104.082 -1.93648 -5.53821 0
M  V30 1173 C 106.434 -2.38382 -5.85967 0
M  V30 1174 C 105.098 -2.70576 -6.10201 0
M  V30 1175 H 104.368 0.0950523 -0.734878 0
M  V30 1176 H 107.015 -0.465182 -1.85764 0
M  V30 1177 H 105.32 1.43006 -3.64769 0
M  V30 1178 H 107.017 1.09905 -3.85645 0
M  V30 1179 H 103.607 -0.271421 -4.2774 0
M  V30 1180 H 107.791 -1.07033 -4.84621 0
M  V30 1181 H 103.047 -2.19021 -5.70824 0
M  V30 1182 H 107.221 -2.98746 -6.29066 0
M  V30 1183 H 104.848 -3.55333 -6.72044 0
M  V30 1184 N 106.423 1.57458 -0.0668435 0
M  V30 1185 C 107.7 1.8469 0.644132 0
M  V30 1186 C 108.08 0.958343 1.88093 0
M  V30 1187 O 107.428 0.0233579 2.28488 0
M  V30 1188 C 107.638 3.34767 0.986509 0
M  V30 1189 C 108.986 4.02159 1.36212 0
M  V30 1190 O 110.01 3.39484 1.07839 0
M  V30 1191 O 108.869 5.12694 1.89227 0
M  V30 1192 H 105.963 0.762816 0.319437 0
M  V30 1193 H 108.509 1.6942 -0.0973986 0
M  V30 1194 H 107.281 3.91151 0.107883 0
M  V30 1195 H 106.904 3.55281 1.78497 0
M  V30 1196 N 107.901 -0.206675 1.56239 0
M  V30 1197 C 108.811 -1.27686 1.96808 0
M  V30 1198 C 109.827 -1.50455 0.874035 0
M  V30 1199 O 111.003 -1.63295 1.17884 0
M  V30 1200 C 108.068 -2.60358 2.28942 0
M  V30 1201 C 107.129 -2.45762 3.51994 0
M  V30 1202 C 106.362 -3.72108 3.82585 0
M  V30 1203 O 106.585 -4.75776 3.14631 0
M  V30 1204 O 105.519 -3.6833 4.76043 0
M  V30 1205 H 109.345 -0.962593 2.88041 0
M  V30 1206 H 106.93 -0.410746 1.43643 0
M  V30 1207 H 108.812 -3.38687 2.50737 0
M  V30 1208 H 107.487 -2.91435 1.4088 0
M  V30 1209 H 106.394 -1.65584 3.35459 0
M  V30 1210 H 107.727 -2.19621 4.40486 0
M  V30 1211 N 109.379 -1.50304 -0.473955 0
M  V30 1212 C 110.327 -1.69482 -1.59307 0
M  V30 1213 C 111.321 -0.560669 -1.59853 0
M  V30 1214 O 112.527 -0.741087 -1.64036 0
M  V30 1215 H 108.902 -0.534892 -0.528578 0
M  V30 1216 H 110.873 -2.63364 -1.40293 0
M  V30 1217 C 109.622 -1.80354 -2.97267 0
M  V30 1218 H 108.945 -2.67012 -2.97564 0
M  V30 1219 H 110.385 -1.97798 -3.75036 0
M  V30 1220 C 108.844 -0.55448 -3.32306 0
M  V30 1221 O 109.374 0.307661 -4.0052 0
M  V30 1222 N 107.58 -0.409354 -2.87702 0
M  V30 1223 H 107.127 -1.11196 -2.32364 0
M  V30 1224 H 107.085 0.425223 -3.11511 0
M  V30 1225 N 110.857 0.726932 -1.39834 0
M  V30 1226 C 111.804 1.841 -1.39197 0
M  V30 1227 C 112.774 1.642 -0.250502 0
M  V30 1228 O 113.959 1.85494 -0.446846 0
M  V30 1229 C 111.099 3.21697 -1.24919 0
M  V30 1230 C 110.212 3.53247 -2.48678 0
M  V30 1231 C 109.347 4.80289 -2.26928 0
M  V30 1232 C 108.386 5.04707 -3.4632 0
M  V30 1233 N 107.523 6.22956 -3.23836 0
M  V30 1234 H 112.363 1.83979 -2.34427 0
M  V30 1235 H 109.9 0.898876 -1.16442 0
M  V30 1236 H 111.858 4.01137 -1.1465 0
M  V30 1237 H 110.488 3.21076 -0.333153 0
M  V30 1238 H 109.54 2.68447 -2.69519 0
M  V30 1239 H 110.852 3.67205 -3.37582 0
M  V30 1240 H 110.006 5.67725 -2.13947 0
M  V30 1241 H 108.745 4.68519 -1.35431 0
M  V30 1242 H 107.75 4.1573 -3.5979 0
M  V30 1243 H 108.975 5.18357 -4.38729 0
M  V30 1244 H 106.921 6.12459 -2.35011 0
M  V30 1245 H 106.838 6.37539 -4.063 0
M  V30 1246 H 108.106 7.1321 -3.14566 0
M  V30 1247 N 112.336 1.25143 0.95797 0
M  V30 1248 C 113.613 1.00472 1.67823 0
M  V30 1249 C 113.993 -0.470056 2.058 0
M  V30 1250 O 113.341 -1.44663 1.76875 0
M  V30 1251 C 113.551 1.9372 2.90299 0
M  V30 1252 C 114.899 2.21371 3.62326 0
M  V30 1253 O 115.923 1.91451 3.00375 0
M  V30 1254 O 114.782 2.72231 4.7387 0
M  V30 1255 H 111.876 0.380752 0.734137 0
M  V30 1256 H 114.422 1.36283 1.01119 0
M  V30 1257 H 113.194 2.93316 2.59001 0
M  V30 1258 H 112.817 1.58286 3.64735 0
M  V30 1259 N 113.814 -1.1601 1.06675 0
M  V30 1260 C 115.062 -1.86264 0.784229 0
M  V30 1261 C 115.383 -1.82328 -0.691488 0
M  V30 1262 O 114.653 -1.25947 -1.50047 0
M  V30 1263 H 113.233 -0.689621 0.28711 0
M  V30 1264 H 115.895 -1.40664 1.34906 0
M  V30 1265 H 114.991 -2.91595 1.11259 0
M  V30 1266 N 115.292 -0.849877 -1.32721 0
M  V30 1267 C 116.708 -0.539102 -1.50219 0
M  V30 1268 C 116.908 0.931271 -1.78689 0
M  V30 1269 O 115.964 1.71455 -1.85363 0
M  V30 1270 C 117.277 -1.42196 -2.64954 0
M  V30 1271 C 118.825 -1.42189 -2.78839 0
M  V30 1272 C 119.3 -2.28985 -3.96648 0
M  V30 1273 N 120.791 -2.26754 -4.03902 0
M  V30 1274 C 121.526 -2.90644 -4.94281 0
M  V30 1275 N 121.022 -3.63629 -5.897 0
M  V30 1276 N 122.815 -2.80057 -4.87365 0
M  V30 1277 H 114.966 -1.80156 -1.12506 0
M  V30 1278 H 117.229 -0.769217 -0.554085 0
M  V30 1279 H 116.935 -2.46733 -2.50631 0
M  V30 1280 H 116.809 -1.10591 -3.60624 0
M  V30 1281 H 119.196 -0.38419 -2.92588 0
M  V30 1282 H 119.277 -1.77807 -1.83898 0
M  V30 1283 H 118.921 -3.32819 -3.83658 0
M  V30 1284 H 118.851 -1.90702 -4.90857 0
M  V30 1285 H 121.342 -1.73688 -3.3562 0
M  V30 1286 H 121.655 -4.09558 -6.55349 0
M  V30 1287 H 120 -3.67737 -5.89741 0
M  V30 1288 H 123.191 -2.22593 -4.11789 0
M  V30 1289 H 123.364 -3.30132 -5.57599 0
M  V30 1290 N 116.77 1.45427 -0.607355 0
M  V30 1291 C 118.019 2.01452 -0.100036 0
M  V30 1292 C 118.332 1.48159 1.27704 0
M  V30 1293 O 119.538 1.96159 1.87707 0
M  V30 1294 C 117.994 3.59672 -0.128158 0
M  V30 1295 C 117.602 4.21962 -1.50507 0
M  V30 1296 C 119.346 4.23262 0.323932 0
M  V30 1297 C 117.253 5.72333 -1.48959 0
M  V30 1298 H 116.183 0.75325 -0.0336299 0
M  V30 1299 H 118.834 1.66901 -0.76265 0
M  V30 1300 H 117.216 3.91411 0.601105 0
M  V30 1301 H 118.39 4.01796 -2.25602 0
M  V30 1302 H 116.705 3.70565 -1.89923 0
M  V30 1303 H 119.302 5.33522 0.354691 0
M  V30 1304 H 119.645 3.93921 1.34656 0
M  V30 1305 H 120.178 3.96239 -0.352056 0
M  V30 1306 H 116.917 6.06373 -2.48981 0
M  V30 1307 H 116.437 5.94691 -0.781214 0
M  V30 1308 H 118.116 6.35525 -1.21313 0
M  V30 1309 N 118.248 0.346503 1.53744 0
M  V30 1310 C 119.158 -0.517293 2.28826 0
M  V30 1311 C 120.174 -1.10935 1.3405 0
M  V30 1312 O 121.35 -1.1244 1.6709 0
M  V30 1313 C 118.415 -1.65098 3.04866 0
M  V30 1314 C 117.476 -1.0884 4.15274 0
M  V30 1315 C 116.709 -2.16806 4.87679 0
M  V30 1316 O 116.932 -3.3758 4.59778 0
M  V30 1317 O 115.866 -1.80934 5.74061 0
M  V30 1318 H 119.692 0.0931396 3.03557 0
M  V30 1319 H 117.277 0.111458 1.48984 0
M  V30 1320 H 119.159 -2.31053 3.5241 0
M  V30 1321 H 117.834 -2.24717 2.32989 0
M  V30 1322 H 116.741 -0.3933 3.72027 0
M  V30 1323 H 118.074 -0.537036 4.89261 0
M  V30 1324 N 119.726 -1.57421 0.075193 0
M  V30 1325 C 120.973 -1.93618 -0.593146 0
M  V30 1326 C 121.301 -0.955484 -1.69413 0
M  V30 1327 O 120.556 0.0283251 -1.9568 0
M  V30 1328 C 120.855 -3.36428 -1.20626 0
M  V30 1329 C 120.521 -4.50307 -0.231078 0
M  V30 1330 C 119.183 -4.81186 0.0371936 0
M  V30 1331 C 121.535 -5.19374 0.435888 0
M  V30 1332 C 118.863 -5.78466 0.979461 0
M  V30 1333 C 121.215 -6.17665 1.3665 0
M  V30 1334 C 119.879 -6.46958 1.6432 0
M  V30 1335 H 119.149 -0.708499 -0.217047 0
M  V30 1336 H 121.796 -1.90937 0.146793 0
M  V30 1337 H 120.101 -3.35592 -2.02201 0
M  V30 1338 H 121.798 -3.61727 -1.73073 0
M  V30 1339 H 118.388 -4.26227 -0.450357 0
M  V30 1340 H 122.572 -4.95711 0.241748 0
M  V30 1341 H 117.828 -5.99487 1.20106 0
M  V30 1342 H 122.002 -6.70284 1.88924 0
M  V30 1343 H 119.629 -7.2215 2.37494 0
M  V30 1344 N 121.204 0.198386 -1.56346 0
M  V30 1345 C 122.429 0.939682 -1.84891 0
M  V30 1346 C 122.854 1.76202 -0.658369 0
M  V30 1347 O 122.212 1.76993 0.392851 0
M  V30 1348 C 122.26 1.81428 -3.11635 0
M  V30 1349 O 121.364 2.91265 -2.91956 0
M  V30 1350 H 120.705 0.264807 -0.608912 0
M  V30 1351 H 123.235 0.204695 -2.03573 0
M  V30 1352 H 123.245 2.21958 -3.42343 0
M  V30 1353 H 121.92 1.21004 -3.97908 0
M  V30 1354 H 120.497 2.54514 -2.72538 0
M  V30 1355 N 122.682 1.50554 0.465978 0
M  V30 1356 C 123.592 1.72585 1.58907 0
M  V30 1357 C 124.608 0.60911 1.6299 0
M  V30 1358 O 125.784 0.88804 1.80765 0
M  V30 1359 C 122.849 1.81995 2.95091 0
M  V30 1360 C 121.91 3.05751 3.01355 0
M  V30 1361 C 121.143 3.14702 4.31043 0
M  V30 1362 O 121.366 2.30313 5.21835 0
M  V30 1363 O 120.3 4.07468 4.43005 0
M  V30 1364 H 124.126 2.67799 1.43239 0
M  V30 1365 H 121.711 1.34711 0.646013 0
M  V30 1366 H 123.593 1.90335 3.75966 0
M  V30 1367 H 122.268 0.899659 3.10947 0
M  V30 1368 H 121.175 3.02908 2.19539 0
M  V30 1369 H 122.508 3.97375 2.90437 0
M  V30 1370 N 124.16 -0.719506 1.40217 0
M  V30 1371 C 125.407 -1.47933 1.38283 0
M  V30 1372 C 125.735 -1.94493 -0.0161536 0
M  V30 1373 O 124.99 -1.68224 -0.999956 0
M  V30 1374 C 125.289 -2.72271 2.31524 0
M  V30 1375 C 124.955 -2.44496 3.78857 0
M  V30 1376 C 123.617 -2.36631 4.18998 0
M  V30 1377 C 125.969 -2.21104 4.71977 0
M  V30 1378 C 123.297 -2.03437 5.503 0
M  V30 1379 C 125.649 -1.89423 6.03574 0
M  V30 1380 C 124.313 -1.80038 6.42762 0
M  V30 1381 H 123.583 -0.541325 0.506012 0
M  V30 1382 H 126.23 -0.824502 1.72842 0
M  V30 1383 H 124.535 -3.42572 1.90137 0
M  V30 1384 H 126.232 -3.30348 2.27313 0
M  V30 1385 H 122.822 -2.51503 3.47051 0
M  V30 1386 H 127.006 -2.26139 4.41786 0
M  V30 1387 H 122.262 -1.94705 5.79569 0
M  V30 1388 H 126.436 -1.70336 6.75247 0
M  V30 1389 H 124.063 -1.54083 7.44421 0
M  V30 1390 N 125.638 -1.25649 -0.95132 0
M  V30 1391 C 126.887 -1.09988 -1.69073 0
M  V30 1392 C 127.2 0.358355 -1.92289 0
M  V30 1393 O 128.406 0.635466 -2.63958 0
M  V30 1394 C 126.862 -1.92012 -3.044 0
M  V30 1395 C 126.47 -3.42347 -2.88968 0
M  V30 1396 C 128.214 -1.8493 -3.82101 0
M  V30 1397 C 126.121 -4.16655 -4.19705 0
M  V30 1398 H 125.051 -0.407993 -0.63408 0
M  V30 1399 H 127.702 -1.49873 -1.05879 0
M  V30 1400 H 126.084 -1.44952 -3.68517 0
M  V30 1401 H 127.258 -3.97104 -2.33762 0
M  V30 1402 H 125.573 -3.50557 -2.24719 0
M  V30 1403 H 128.17 -2.37739 -4.78941 0
M  V30 1404 H 128.513 -0.817883 -4.08187 0
M  V30 1405 H 129.046 -2.29758 -3.2474 0
M  V30 1406 H 125.785 -5.20224 -3.98807 0
M  V30 1407 H 125.305 -3.66681 -4.74663 0
M  V30 1408 H 126.984 -4.24551 -4.88227 0
M  V30 1409 N 127.117 1.15442 -1.07289 0
M  V30 1410 C 128.049 2.19773 -0.650585 0
M  V30 1411 C 129.062 1.60076 0.296572 0
M  V30 1412 O 130.251 1.78293 0.0859905 0
M  V30 1413 C 127.351 3.38838 0.0650398 0
M  V30 1414 C 126.524 4.2808 -0.898141 0
M  V30 1415 C 125.583 5.2574 -0.219926 0
M  V30 1416 O 124.609 5.62654 -0.860773 0
M  V30 1417 N 125.811 5.71205 1.03466 0
M  V30 1418 H 128.576 2.56622 -1.54808 0
M  V30 1419 H 126.137 1.30551 -0.957494 0
M  V30 1420 H 128.129 4.01222 0.529415 0
M  V30 1421 H 126.699 3.00409 0.864466 0
M  V30 1422 H 125.919 3.62804 -1.54165 0
M  V30 1423 H 127.207 4.84577 -1.5512 0
M  V30 1424 H 126.605 5.43325 1.57526 0
M  V30 1425 H 125.162 6.35633 1.44272 0
M  V30 1426 N 128.595 0.856903 1.32268 0
M  V30 1427 C 129.558 0.308171 2.27119 0
M  V30 1428 C 130.558 -0.533421 1.51695 0
M  V30 1429 O 131.748 -0.344607 1.70757 0
M  V30 1430 C 128.88 -0.563757 3.36206 0
M  V30 1431 H 130.073 1.14535 2.77167 0
M  V30 1432 H 127.626 0.631421 1.42978 0
M  V30 1433 H 128.361 -1.42266 2.91429 0
M  V30 1434 H 128.146 0.0386749 3.92081 0
M  V30 1435 H 129.636 -0.940386 4.06874 0
M  V30 1436 N 130.073 -1.45103 0.615059 0
M  V30 1437 C 131.003 -2.33339 -0.0865619 0
M  V30 1438 C 131.984 -1.4727 -0.851209 0
M  V30 1439 O 133.169 -1.76026 -0.820281 0
M  V30 1440 C 130.299 -3.30095 -1.07956 0
M  V30 1441 C 129.253 -4.25858 -0.427628 0
M  V30 1442 C 128.579 -5.12361 -1.5294 0
M  V30 1443 C 129.879 -5.18165 0.655944 0
M  V30 1444 H 131.573 -2.92254 0.650224 0
M  V30 1445 H 129.119 -1.40532 0.314138 0
M  V30 1446 H 131.072 -3.90698 -1.57901 0
M  V30 1447 H 129.796 -2.69355 -1.84703 0
M  V30 1448 H 128.455 -3.66564 0.0510292 0
M  V30 1449 H 128.103 -4.47984 -2.28734 0
M  V30 1450 H 127.803 -5.77238 -1.09865 0
M  V30 1451 H 129.327 -5.75833 -2.03098 0
M  V30 1452 H 130.741 -5.72796 0.240257 0
M  V30 1453 H 129.138 -5.91559 1.00888 0
M  V30 1454 H 130.208 -4.60144 1.52957 0
M  V30 1455 N 131.551 -0.354651 -1.53558 0
M  V30 1456 C 132.776 0.242153 -2.05981 0
M  V30 1457 C 133.201 1.42553 -1.2272 0
M  V30 1458 O 132.559 1.79656 -0.243604 0
M  V30 1459 C 132.607 0.624367 -3.55154 0
M  V30 1460 O 131.711 1.72301 -3.74681 0
M  V30 1461 H 131.052 0.0378432 -0.662921 0
M  V30 1462 H 133.582 -0.512087 -1.98088 0
M  V30 1463 H 133.592 0.898433 -3.97985 0
M  V30 1464 H 132.267 -0.240989 -4.15201 0
M  V30 1465 H 130.844 1.44535 -3.4375 0
M  V30 1466 N 133.029 1.57378 -0.0835403 0
M  V30 1467 C 134.275 1.94217 0.583733 0
M  V30 1468 C 134.608 0.964653 1.68547 0
M  V30 1469 O 133.883 -0.00422258 1.945 0
M  V30 1470 C 134.166 3.41253 1.14972 0
M  V30 1471 C 134.019 4.49768 0.0538277 0
M  V30 1472 C 135.338 3.89352 2.05166 0
M  V30 1473 H 132.457 0.706233 0.210724 0
M  V30 1474 H 135.099 1.89392 -0.1519 0
M  V30 1475 H 133.249 3.45496 1.77665 0
M  V30 1476 H 134.921 4.57641 -0.579851 0
M  V30 1477 H 133.164 4.29432 -0.614068 0
M  V30 1478 H 133.835 5.49817 0.490452 0
M  V30 1479 H 136.311 3.87189 1.52393 0
M  V30 1480 H 135.187 4.92822 2.41698 0
M  V30 1481 H 135.448 3.27973 2.96456 0
M  V30 1482 N 134.507 -0.190092 1.56449 0
M  V30 1483 C 135.735 -0.925772 1.85033 0
M  V30 1484 C 136.15 -1.76638 0.666658 0
M  V30 1485 O 135.507 -1.78822 -0.364565 0
M  V30 1486 C 135.558 -1.81786 3.12468 0
M  V30 1487 O 135.279 -1.01118 4.26271 0
M  V30 1488 C 136.78 -2.6648 3.54265 0
M  V30 1489 H 134 -0.269872 0.614337 0
M  V30 1490 H 136.544 -0.195837 2.0356 0
M  V30 1491 H 134.699 -2.50136 2.95822 0
M  V30 1492 H 135.113 -1.61956 4.98869 0
M  V30 1493 H 136.587 -3.24722 4.46385 0
M  V30 1494 H 137.064 -3.40434 2.77491 0
M  V30 1495 H 137.67 -2.03493 3.73458 0
M  V30 1496 N 135.985 -1.50799 -0.457987 0
M  V30 1497 C 137.21 -1.66496 -1.23668 0
M  V30 1498 C 137.635 -0.353288 -1.84752 0
M  V30 1499 O 136.993 0.684346 -1.67888 0
M  V30 1500 C 137.041 -2.76763 -2.3116 0
M  V30 1501 O 136.145 -2.38928 -3.36136 0
M  V30 1502 H 135.486 -0.555828 -0.363252 0
M  V30 1503 H 138.016 -1.9725 -0.543474 0
M  V30 1504 H 138.026 -3.00232 -2.76269 0
M  V30 1505 H 136.701 -3.71954 -1.86073 0
M  V30 1506 H 135.278 -2.25953 -2.96647 0
M  V30 1507 N 137.463 0.71206 -1.40597 0
M  V30 1508 C 138.879 1.02058 -1.22704 0
M  V30 1509 C 139.079 2.01228 -0.104729 0
M  V30 1510 O 138.135 2.4674 0.53624 0
M  V30 1511 C 139.448 1.56094 -2.57012 0
M  V30 1512 C 140.996 1.6806 -2.64054 0
M  V30 1513 C 141.471 2.25501 -3.9864 0
M  V30 1514 N 142.962 2.32882 -4.004 0
M  V30 1515 C 143.697 2.78317 -5.01325 0
M  V30 1516 N 143.193 3.23478 -6.12645 0
M  V30 1517 N 144.986 2.77733 -4.88693 0
M  V30 1518 H 137.137 0.0547896 -2.12329 0
M  V30 1519 H 139.4 0.0869027 -0.944008 0
M  V30 1520 H 139.106 0.906865 -3.39807 0
M  V30 1521 H 138.98 2.54564 -2.78347 0
M  V30 1522 H 141.367 2.32583 -1.81629 0
M  V30 1523 H 141.448 0.681802 -2.46546 0
M  V30 1524 H 141.092 1.61598 -4.81506 0
M  V30 1525 H 141.022 3.26102 -4.13479 0
M  V30 1526 H 143.513 2.00991 -3.20017 0
M  V30 1527 H 143.826 3.56725 -6.85542 0
M  V30 1528 H 142.171 3.21429 -6.16205 0
M  V30 1529 H 145.362 2.4179 -4.00818 0
M  V30 1530 H 145.535 3.12826 -5.67489 0
M  V30 1531 N 138.941 1.26152 0.944643 0
M  V30 1532 C 140.189 1.11271 1.6871 0
M  V30 1533 C 140.51 -0.345166 1.91921 0
M  V30 1534 O 139.78 -1.24387 1.51343 0
M  V30 1535 H 138.36 0.408783 0.625224 0
M  V30 1536 H 141.022 1.58427 1.1352 0
M  V30 1537 H 140.118 1.62879 2.66227 0
M  V30 1538 N 140.419 -1.14872 1.07899 0
M  V30 1539 C 141.647 -1.89661 0.82683 0
M  V30 1540 C 142.062 -1.78312 -0.620519 0
M  V30 1541 O 141.419 -1.13888 -1.42604 0
M  V30 1542 C 141.47 -3.39817 1.23316 0
M  V30 1543 O 141.191 -3.50845 2.62372 0
M  V30 1544 C 142.692 -4.31615 1.0111 0
M  V30 1545 H 139.912 -0.60092 0.298557 0
M  V30 1546 H 142.456 -1.4551 1.43691 0
M  V30 1547 H 140.611 -3.8161 0.667286 0
M  V30 1548 H 141.025 -4.44076 2.79101 0
M  V30 1549 H 142.499 -5.35367 1.34486 0
M  V30 1550 H 142.976 -4.39169 -0.0522168 0
M  V30 1551 H 143.582 -3.95572 1.56215 0
M  V30 1552 N 141.898 -0.863906 -1.31812 0
M  V30 1553 C 142.828 -0.330843 -2.31144 0
M  V30 1554 C 143.809 0.575005 -1.60087 0
M  V30 1555 O 144.994 0.493304 -1.8783 0
M  V30 1556 C 142.124 0.47374 -3.44054 0
M  V30 1557 C 141.078 -0.338481 -4.26659 0
M  V30 1558 C 140.404 0.591412 -5.31419 0
M  V30 1559 C 141.704 -1.56926 -4.98168 0
M  V30 1560 H 143.398 -1.16086 -2.75979 0
M  V30 1561 H 140.944 -0.559657 -1.32679 0
M  V30 1562 H 142.897 0.857143 -4.12591 0
M  V30 1563 H 141.621 1.33721 -2.9797 0
M  V30 1564 H 140.28 -0.703754 -3.59782 0
M  V30 1565 H 139.928 1.45199 -4.81587 0
M  V30 1566 H 139.628 0.0519022 -5.87577 0
M  V30 1567 H 141.152 0.97179 -6.02817 0
M  V30 1568 H 142.566 -1.25764 -5.59336 0
M  V30 1569 H 140.963 -2.04739 -5.64094 0
M  V30 1570 H 142.033 -2.32544 -4.25501 0
M  V30 1571 N 143.376 1.44774 -0.622745 0
M  V30 1572 C 144.653 1.95522 -0.0551974 0
M  V30 1573 C 145.033 1.5649 1.41683 0
M  V30 1574 O 144.381 0.834848 2.12703 0
M  V30 1575 C 144.591 3.4796 -0.269242 0
M  V30 1576 C 145.939 4.24306 -0.158014 0
M  V30 1577 O 146.963 3.55637 -0.200162 0
M  V30 1578 O 145.822 5.46471 -0.0558693 0
M  V30 1579 H 142.916 0.826556 0.0271015 0
M  V30 1580 H 145.462 1.54866 -0.693864 0
M  V30 1581 H 144.234 3.6939 -1.29099 0
M  V30 1582 H 143.857 3.95543 0.403966 0
M  V30 1583 N 144.854 0.36279 1.53368 0
M  V30 1584 C 145.764 -0.492994 2.29362 0
M  V30 1585 C 146.78 -1.09507 1.35219 0
M  V30 1586 O 147.956 -1.10662 1.68273 0
M  V30 1587 C 145.021 -1.61855 3.066 0
M  V30 1588 C 144.082 -1.04429 4.16405 0
M  V30 1589 C 143.315 -2.11621 4.89951 0
M  V30 1590 O 143.538 -3.32684 4.63333 0
M  V30 1591 O 142.472 -1.74835 5.75948 0
M  V30 1592 H 146.298 0.125331 3.03441 0
M  V30 1593 H 143.883 0.127253 1.48857 0
M  V30 1594 H 145.765 -2.27302 3.54841 0
M  V30 1595 H 144.44 -2.22233 2.3536 0
M  V30 1596 H 143.347 -0.353819 3.72423 0
M  V30 1597 H 144.68 -0.485113 4.89804 0
M  V30 1598 N 146.332 -1.57332 0.0918853 0
M  V30 1599 C 147.279 -2.13847 -0.868211 0
M  V30 1600 C 148.249 -1.05618 -1.28196 0
M  V30 1601 O 149.434 -1.33387 -1.36427 0
M  V30 1602 C 146.574 -2.72062 -2.12312 0
M  V30 1603 C 145.687 -3.94514 -1.7602 0
M  V30 1604 C 144.822 -4.40903 -2.96273 0
M  V30 1605 C 143.861 -5.55953 -2.56092 0
M  V30 1606 N 142.998 -5.97209 -3.69169 0
M  V30 1607 H 147.838 -2.95575 -0.379406 0
M  V30 1608 H 145.375 -1.46048 -0.175606 0
M  V30 1609 H 147.333 -3.03931 -2.858 0
M  V30 1610 H 145.963 -1.93068 -2.58698 0
M  V30 1611 H 145.015 -3.68979 -0.925135 0
M  V30 1612 H 146.327 -4.7802 -1.42472 0
M  V30 1613 H 145.481 -4.74539 -3.78018 0
M  V30 1614 H 144.22 -3.56291 -3.33029 0
M  V30 1615 H 143.225 -5.21948 -1.72773 0
M  V30 1616 H 144.45 -6.42311 -2.20484 0
M  V30 1617 H 142.396 -5.15543 -4.05649 0
M  V30 1618 H 142.313 -6.75504 -3.39456 0
M  V30 1619 H 143.581 -6.35475 -4.51434 0
M  V30 1620 N 147.81 0.181792 -1.56548 0
M  V30 1621 C 148.74 1.22765 -1.98623 0
M  V30 1622 C 149.721 1.46747 -0.860189 0
M  V30 1623 O 150.906 1.58259 -1.12551 0
M  V30 1624 C 148.036 2.56894 -2.33715 0
M  V30 1625 C 146.99 2.475 -3.49182 0
M  V30 1626 C 146.316 3.86023 -3.69986 0
M  V30 1627 C 147.616 1.98866 -4.82959 0
M  V30 1628 H 149.31 0.877942 -2.86239 0
M  V30 1629 H 146.856 0.42088 -1.37712 0
M  V30 1630 H 148.809 3.30253 -2.61746 0
M  V30 1631 H 147.533 2.93632 -1.42997 0
M  V30 1632 H 146.192 1.76596 -3.21262 0
M  V30 1633 H 145.84 4.20136 -2.76576 0
M  V30 1634 H 145.54 3.80609 -4.47672 0
M  V30 1635 H 147.064 4.60984 -4.00407 0
M  V30 1636 H 148.478 2.61992 -5.09934 0
M  V30 1637 H 146.875 2.04424 -5.64208 0
M  V30 1638 H 147.945 0.942465 -4.75653 0
M  V30 1639 N 149.288 1.51039 0.449983 0
M  V30 1640 C 150.704 1.38934 0.785462 0
M  V30 1641 C 150.904 0.461817 1.96136 0
M  V30 1642 O 149.96 -0.0877389 2.52348 0
M  V30 1643 C 151.273 2.80724 1.0777 0
M  V30 1644 C 152.821 2.89787 1.1829 0
M  V30 1645 C 153.296 4.32457 1.50815 0
M  V30 1646 N 154.787 4.35505 1.57764 0
M  V30 1647 C 155.522 5.42914 1.84477 0
M  V30 1648 N 155.018 6.60502 2.09068 0
M  V30 1649 N 156.811 5.3038 1.86155 0
M  V30 1650 H 148.962 2.09904 -0.324647 0
M  V30 1651 H 151.225 0.944378 -0.0827957 0
M  V30 1652 H 150.931 3.50531 0.286498 0
M  V30 1653 H 150.805 3.19273 2.00859 0
M  V30 1654 H 153.192 2.20186 1.96474 0
M  V30 1655 H 153.273 2.54752 0.231314 0
M  V30 1656 H 152.917 5.02603 0.731622 0
M  V30 1657 H 152.847 4.64995 2.47158 0
M  V30 1658 H 155.338 3.50724 1.40715 0
M  V30 1659 H 155.651 7.38158 2.28785 0
M  V30 1660 H 153.996 6.63639 2.06416 0
M  V30 1661 H 157.187 4.37505 1.66454 0
M  V30 1662 H 157.36 6.1417 2.06637 0
M  V30 1663 N 150.766 -0.704594 1.40972 0
M  V30 1664 C 152.012 -1.46546 1.41053 0
M  V30 1665 C 152.367 -1.92393 0.0159714 0
M  V30 1666 O 151.66 -1.66017 -0.956506 0
M  V30 1667 C 151.854 -2.698 2.34399 0
M  V30 1668 C 151.683 -2.36008 3.82793 0
M  V30 1669 C 150.453 -2.26812 4.51536 0
M  V30 1670 C 152.651 -1.99565 4.74003 0
M  V30 1671 N 150.633 -1.8581 5.85105 0
M  V30 1672 C 152.004 -1.69251 5.96451 0
M  V30 1673 C 154.059 -1.86296 4.61734 0
M  V30 1674 C 152.762 -1.27003 7.07999 0
M  V30 1675 C 154.788 -1.45452 5.73234 0
M  V30 1676 C 154.15 -1.16043 6.94776 0
M  V30 1677 H 150.249 -0.533896 0.571383 0
M  V30 1678 H 152.833 -0.816061 1.76773 0
M  V30 1679 H 151.004 -3.32473 2.00789 0
M  V30 1680 H 152.736 -3.36214 2.25261 0
M  V30 1681 H 149.491 -2.44913 4.05357 0
M  V30 1682 H 149.915 -1.67817 6.55871 0
M  V30 1683 H 154.557 -2.0769 3.68273 0
M  V30 1684 H 152.275 -1.04353 8.01334 0
M  V30 1685 H 155.861 -1.35748 5.65742 0
M  V30 1686 H 154.741 -0.84915 7.79589 0
M  V30 1687 N 152.244 -1.26651 -0.937939 0
M  V30 1688 C 153.207 -1.08546 -2.01867 0
M  V30 1689 C 154.207 -0.0327327 -1.60767 0
M  V30 1690 O 155.397 -0.276427 -1.71993 0
M  V30 1691 C 152.529 -0.651711 -3.34613 0
M  V30 1692 H 153.722 -2.04502 -2.1936 0
M  V30 1693 H 151.275 -1.09294 -1.11734 0
M  V30 1694 H 152.01 0.309696 -3.22818 0
M  V30 1695 H 151.795 -1.41189 -3.65798 0
M  V30 1696 H 153.285 -0.546973 -4.14002 0
M  V30 1697 N 153.722 1.14298 -1.08507 0
M  V30 1698 C 154.969 1.85359 -0.815373 0
M  V30 1699 C 155.297 1.83001 0.658865 0
M  V30 1700 O 154.552 1.25655 1.50031 0
M  V30 1701 C 154.851 3.33547 -1.28379 0
M  V30 1702 C 154.517 3.56093 -2.76602 0
M  V30 1703 C 153.179 3.61955 -3.17084 0
M  V30 1704 C 155.531 3.64834 -3.72217 0
M  V30 1705 C 152.859 3.74082 -4.51973 0
M  V30 1706 C 155.211 3.78487 -5.06883 0
M  V30 1707 C 153.875 3.82598 -5.46969 0
M  V30 1708 H 153.145 0.678276 -0.298366 0
M  V30 1709 H 155.792 1.35002 -1.35819 0
M  V30 1710 H 154.097 3.86191 -0.660593 0
M  V30 1711 H 155.794 3.86959 -1.05186 0
M  V30 1712 H 152.384 3.52179 -2.4427 0
M  V30 1713 H 156.568 3.59595 -3.42061 0
M  V30 1714 H 151.824 3.75527 -4.82483 0
M  V30 1715 H 155.998 3.84193 -5.80834 0
M  V30 1716 H 153.625 3.91747 -6.51489 0
M  V30 1717 N 155.201 0.870884 1.31352 0
M  V30 1718 C 156.148 0.325425 2.28494 0
M  V30 1719 C 157.118 -0.576615 1.5577 0
M  V30 1720 O 158.303 -0.508059 1.83911 0
M  V30 1721 C 155.443 -0.466283 3.41935 0
M  V30 1722 C 154.556 0.463378 4.29508 0
M  V30 1723 C 153.691 -0.342544 5.30094 0
M  V30 1724 C 152.73 0.583486 6.09313 0
M  V30 1725 N 151.867 -0.186244 7.01853 0
M  V30 1726 H 156.707 1.15901 2.74538 0
M  V30 1727 H 154.244 0.58294 1.35056 0
M  V30 1728 H 156.202 -0.941085 4.06447 0
M  V30 1729 H 154.832 -1.26456 2.97 0
M  V30 1730 H 153.884 1.05663 3.65431 0
M  V30 1731 H 155.196 1.1734 4.84802 0
M  V30 1732 H 154.35 -0.879816 6.00287 0
M  V30 1733 H 153.089 -1.08585 4.75458 0
M  V30 1734 H 152.094 1.13251 5.3801 0
M  V30 1735 H 153.319 1.32566 6.66035 0
M  V30 1736 H 151.265 -0.912348 6.49625 0
M  V30 1737 H 151.182 0.464422 7.54572 0
M  V30 1738 H 152.45 -0.704716 7.76308 0
M  V30 1739 N 156.679 -1.44442 0.630414 0
M  V30 1740 C 157.609 -2.33418 -0.0618083 0
M  V30 1741 C 158.59 -1.48165 -0.835541 0
M  V30 1742 O 159.775 -1.76886 -0.801564 0
M  V30 1743 C 156.905 -3.31222 -1.04449 0
M  V30 1744 C 155.859 -4.26288 -0.382436 0
M  V30 1745 C 155.185 -5.13954 -1.47497 0
M  V30 1746 C 156.485 -5.1744 0.710865 0
M  V30 1747 H 158.179 -2.91548 0.681184 0
M  V30 1748 H 155.725 -1.40191 0.329026 0
M  V30 1749 H 157.678 -3.92351 -1.53748 0
M  V30 1750 H 156.402 -2.71299 -1.81836 0
M  V30 1751 H 155.061 -3.6649 0.0899054 0
M  V30 1752 H 154.709 -4.50385 -2.2397 0
M  V30 1753 H 154.409 -5.7837 -1.03737 0
M  V30 1754 H 155.933 -5.77955 -1.96979 0
M  V30 1755 H 157.347 -5.72509 0.300996 0
M  V30 1756 H 155.744 -5.90455 1.07156 0
M  V30 1757 H 156.814 -4.58496 1.57829 0
M  V30 1758 N 158.157 -0.370918 -1.53173 0
M  V30 1759 C 159.387 0.217389 -2.05453 0
M  V30 1760 C 159.795 1.42568 -1.24382 0
M  V30 1761 O 159.138 1.81571 -0.278839 0
M  V30 1762 C 159.2 0.669827 -3.53205 0
M  V30 1763 C 158.864 -0.4225 -4.55043 0
M  V30 1764 C 159.861 -1.27407 -5.04047 0
M  V30 1765 C 157.546 -0.58427 -4.9889 0
M  V30 1766 C 159.54 -2.27271 -5.95505 0
M  V30 1767 C 157.227 -1.58627 -5.90153 0
M  V30 1768 C 158.225 -2.42892 -6.38351 0
M  V30 1769 O 157.913 -3.41382 -7.27814 0
M  V30 1770 H 157.645 0.0408171 -0.674767 0
M  V30 1771 H 160.199 -0.5292 -1.98466 0
M  V30 1772 H 158.429 1.4681 -3.57748 0
M  V30 1773 H 160.118 1.18173 -3.88317 0
M  V30 1774 H 160.884 -1.16031 -4.70916 0
M  V30 1775 H 156.763 0.061851 -4.60959 0
M  V30 1776 H 160.307 -2.93079 -6.33049 0
M  V30 1777 H 156.204 -1.70048 -6.22699 0
M  V30 1778 H 156.972 -3.37173 -7.45826 0
M  V30 1779 N 159.635 1.57281 -0.100228 0
M  V30 1780 C 160.912 1.86014 0.604812 0
M  V30 1781 C 161.292 0.998025 1.86018 0
M  V30 1782 O 160.64 0.0718184 2.28387 0
M  V30 1783 C 160.85 3.36784 0.915278 0
M  V30 1784 C 162.198 4.04957 1.27651 0
M  V30 1785 O 163.222 3.41695 1.00613 0
M  V30 1786 O 162.081 5.16593 1.7831 0
M  V30 1787 H 159.175 0.76942 0.303185 0
M  V30 1788 H 161.721 1.69176 -0.133313 0
M  V30 1789 H 160.493 3.91292 0.0248896 0
M  V30 1790 H 160.116 3.58987 1.70921 0
M  V30 1791 N 161.113 -0.173488 1.56642 0
M  V30 1792 C 162.043 -1.2171 1.99271 0
M  V30 1793 C 163.024 -1.46289 0.867959 0
M  V30 1794 O 164.209 -1.5766 1.13388 0
M  V30 1795 C 161.339 -2.55651 2.35074 0
M  V30 1796 C 160.293 -2.45645 3.50489 0
M  V30 1797 C 159.619 -3.84056 3.72028 0
M  V30 1798 C 160.919 -1.96302 4.84007 0
M  V30 1799 H 162.613 -0.86275 2.867 0
M  V30 1800 H 160.159 -0.413571 1.37933 0
M  V30 1801 H 162.112 -3.2886 2.63494 0
M  V30 1802 H 160.836 -2.92869 1.44552 0
M  V30 1803 H 159.495 -1.7489 3.22194 0
M  V30 1804 H 159.143 -4.18664 2.788 0
M  V30 1805 H 158.843 -3.7823 4.49684 0
M  V30 1806 H 160.367 -4.58854 4.02846 0
M  V30 1807 H 161.781 -2.59284 5.11317 0
M  V30 1808 H 160.178 -2.01429 5.65284 0
M  V30 1809 H 161.248 -0.917226 4.76146 0
M  V30 1810 N 162.591 -1.51276 -0.441967 0
M  V30 1811 C 163.868 -1.54252 -1.20273 0
M  V30 1812 C 164.248 -0.30408 -2.08898 0
M  V30 1813 O 163.596 0.711084 -2.17154 0
M  V30 1814 C 163.806 -2.85406 -2.00859 0
M  V30 1815 C 165.154 -3.37181 -2.58059 0
M  V30 1816 O 166.178 -2.86925 -2.11074 0
M  V30 1817 O 165.037 -4.24858 -3.43741 0
M  V30 1818 H 162.131 -0.619969 -0.547328 0
M  V30 1819 H 164.677 -1.63586 -0.451413 0
M  V30 1820 H 163.449 -3.67003 -1.35736 0
M  V30 1821 H 163.072 -2.79213 -2.83065 0
M  V30 1822 N 164.069 0.697108 -1.41344 0
M  V30 1823 C 165.017 1.83237 -1.43272 0
M  V30 1824 C 166.011 1.66522 -0.310947 0
M  V30 1825 O 167.217 1.73402 -0.482899 0
M  V30 1826 H 163.592 0.603802 -0.448249 0
M  V30 1827 H 165.563 1.78727 -2.38954 0
M  V30 1828 C 164.312 3.21245 -1.33029 0
M  V30 1829 H 163.635 3.34723 -2.18633 0
M  V30 1830 H 165.075 4.00763 -1.38439 0
M  V30 1831 C 163.534 3.36873 -0.0424635 0
M  V30 1832 O 164.064 3.91177 0.913421 0
M  V30 1833 N 162.27 2.90581 0.0331145 0
M  V30 1834 H 161.817 2.46577 -0.745506 0
M  V30 1835 H 161.775 3.01416 0.894199 0
M  V30 1836 N 165.547 1.27147 0.931209 0
M  V30 1837 C 166.824 1.0401 1.65654 0
M  V30 1838 C 167.204 -0.426297 2.06751 0
M  V30 1839 O 166.552 -1.40879 1.79904 0
M  V30 1840 C 166.762 1.99834 2.86125 0
M  V30 1841 C 168.11 2.29007 3.57549 0
M  V30 1842 O 169.134 1.97779 2.96246 0
M  V30 1843 O 167.993 2.82222 4.67989 0
M  V30 1844 H 165.087 0.396239 0.725895 0
M  V30 1845 H 167.633 1.38397 0.982056 0
M  V30 1846 H 166.405 2.98744 2.52721 0
M  V30 1847 H 166.028 1.65987 3.61295 0
M  V30 1848 N 167.025 -1.13721 1.09112 0
M  V30 1849 C 168.273 -1.84559 0.823562 0
M  V30 1850 C 168.594 -1.83754 -0.652658 0
M  V30 1851 O 167.864 -1.29102 -1.47342 0
M  V30 1852 H 166.444 -0.683376 0.301673 0
M  V30 1853 H 169.106 -1.37771 1.37859 0
M  V30 1854 H 168.202 -2.8917 1.17419 0
M  V30 1855 N 168.503 -0.877838 -1.30888 0
M  V30 1856 C 169.733 -0.506678 -2.00291 0
M  V30 1857 C 170.141 0.907449 -1.66018 0
M  V30 1858 O 169.484 1.60719 -0.88967 0
M  V30 1859 C 169.546 -0.59323 -3.54572 0
M  V30 1860 C 169.21 -1.97038 -4.12341 0
M  V30 1861 C 170.207 -2.93889 -4.28865 0
M  V30 1862 C 167.892 -2.27383 -4.47886 0
M  V30 1863 C 169.886 -4.19224 -4.80136 0
M  V30 1864 C 167.573 -3.52965 -4.98857 0
M  V30 1865 C 168.571 -4.48701 -5.14934 0
M  V30 1866 O 168.259 -5.72056 -5.64808 0
M  V30 1867 H 167.991 -0.1951 -0.647234 0
M  V30 1868 H 170.545 -1.18301 -1.6791 0
M  V30 1869 H 168.775 0.140057 -3.86446 0
M  V30 1870 H 170.464 -0.234372 -4.05223 0
M  V30 1871 H 171.23 -2.71756 -4.01714 0
M  V30 1872 H 167.109 -1.53639 -4.34645 0
M  V30 1873 H 170.653 -4.93956 -4.92599 0
M  V30 1874 H 166.55 -3.74939 -5.25443 0
M  V30 1875 H 167.318 -5.74337 -5.83163 0
M  V30 1876 N 169.982 1.44106 -0.638065 0
M  V30 1877 C 171.231 2.01194 -0.142744 0
M  V30 1878 C 171.544 1.50835 1.24532 0
M  V30 1879 O 172.75 2.00096 1.83504 0
M  V30 1880 C 171.206 3.59319 -0.20442 0
M  V30 1881 C 170.814 4.18674 -1.59423 0
M  V30 1882 C 172.558 4.23854 0.234079 0
M  V30 1883 C 170.465 5.69045 -1.61065 0
M  V30 1884 H 169.395 0.752367 -0.0495998 0
M  V30 1885 H 172.046 1.65246 -0.797881 0
M  V30 1886 H 170.428 3.92598 0.517946 0
M  V30 1887 H 171.602 3.96921 -2.34074 0
M  V30 1888 H 169.917 3.66453 -1.97741 0
M  V30 1889 H 172.514 5.34155 0.241443 0
M  V30 1890 H 172.857 3.96688 1.2627 0
M  V30 1891 H 173.39 3.95403 -0.436025 0
M  V30 1892 H 170.129 6.00956 -2.61787 0
M  V30 1893 H 169.649 5.929 -0.90718 0
M  V30 1894 H 171.328 6.32809 -1.34766 0
M  V30 1895 N 171.46 0.379036 1.52974 0
M  V30 1896 C 172.688 -0.20679 2.05864 0
M  V30 1897 C 173.103 -1.41356 1.25155 0
M  V30 1898 O 172.46 -1.8009 0.295588 0
M  V30 1899 C 172.511 -0.587045 3.56702 0
M  V30 1900 O 172.232 0.571776 4.34353 0
M  V30 1901 C 173.733 -1.22983 4.25899 0
M  V30 1902 H 170.953 -0.0336123 0.670158 0
M  V30 1903 H 173.497 0.541298 1.97206 0
M  V30 1904 H 171.652 -1.28504 3.65466 0
M  V30 1905 H 172.066 0.261544 5.23847 0
M  V30 1906 H 173.54 -1.44635 5.32715 0
M  V30 1907 H 174.017 -2.19416 3.80465 0
M  V30 1908 H 174.623 -0.572892 4.21424 0
M  V30 1909 N 172.938 -1.57226 0.108567 0
M  V30 1910 C 174.354 -1.5766 -0.248058 0
M  V30 1911 C 174.554 -1.12063 -1.67464 0
M  V30 1912 O 173.61 -0.803236 -2.39383 0
M  V30 1913 C 174.923 -3.0069 -0.0242287 0
M  V30 1914 C 176.471 -3.12868 -0.0909372 0
M  V30 1915 C 176.946 -4.57879 0.105067 0
M  V30 1916 N 178.437 -4.63172 0.0506846 0
M  V30 1917 C 179.172 -5.73126 0.177396 0
M  V30 1918 N 178.668 -6.91866 0.359696 0
M  V30 1919 N 180.461 -5.61977 0.117709 0
M  V30 1920 H 172.612 -1.85169 1.04049 0
M  V30 1921 H 174.875 -0.85529 0.40888 0
M  V30 1922 H 174.581 -3.38299 0.961604 0
M  V30 1923 H 174.455 -3.6945 -0.76068 0
M  V30 1924 H 176.842 -2.75124 -1.06729 0
M  V30 1925 H 176.923 -2.46672 0.677225 0
M  V30 1926 H 176.567 -4.96321 1.07834 0
M  V30 1927 H 176.497 -5.22153 -0.682954 0
M  V30 1928 H 178.988 -3.778 -0.0871266 0
M  V30 1929 H 179.301 -7.71503 0.447529 0
M  V30 1930 H 177.646 -6.93874 0.395536 0
M  V30 1931 H 180.837 -4.68094 -0.0236741 0
M  V30 1932 H 181.01 -6.47627 0.219905 0
M  V30 1933 N 174.416 0.165178 -1.56732 0
M  V30 1934 C 175.364 1.22369 -1.97809 0
M  V30 1935 C 176.358 1.45488 -0.867741 0
M  V30 1936 O 177.564 1.45995 -1.05288 0
M  V30 1937 H 173.939 0.411486 -0.629431 0
M  V30 1938 H 175.91 0.850425 -2.86025 0
M  V30 1939 C 174.659 2.55403 -2.35934 0
M  V30 1940 H 173.982 2.38438 -3.20916 0
M  V30 1941 H 175.422 3.2814 -2.68514 0
M  V30 1942 C 173.881 3.14611 -1.20506 0
M  V30 1943 O 174.411 3.98626 -0.496016 0
M  V30 1944 N 172.617 2.7379 -0.97403 0
M  V30 1945 H 172.164 2.0557 -1.55238 0
M  V30 1946 H 172.122 3.1374 -0.203573 0
M  V30 1947 N 175.894 1.51508 0.433938 0
M  V30 1948 C 176.804 1.75917 1.5521 0
M  V30 1949 C 177.82 0.643545 1.61662 0
M  V30 1950 O 178.996 0.926183 1.7884 0
M  V30 1951 C 176.061 1.88213 2.91164 0
M  V30 1952 C 175.122 3.12074 2.94802 0
M  V30 1953 C 174.355 3.23774 4.24271 0
M  V30 1954 O 174.578 2.4133 5.16833 0
M  V30 1955 O 173.512 4.16774 4.34262 0
M  V30 1956 H 177.338 2.70777 1.37527 0
M  V30 1957 H 174.923 1.36051 0.617293 0
M  V30 1958 H 176.805 1.98267 3.71845 0
M  V30 1959 H 175.48 0.965413 3.08968 0
M  V30 1960 H 174.387 3.07497 2.13065 0
M  V30 1961 H 175.72 4.03446 2.81943 0
M  V30 1962 N 177.372 -0.689602 1.41712 0
M  V30 1963 C 178.305 -1.81403 1.3845 0
M  V30 1964 C 179.283 -1.60653 0.250874 0
M  V30 1965 O 180.467 -1.83323 0.43874 0
M  V30 1966 C 177.594 -3.18176 1.1611 0
M  V30 1967 C 176.64 -3.57705 2.3227 0
M  V30 1968 S 177.473 -3.61827 3.94767 0
M  V30 1969 C 178.629 -5.01318 3.74742 0
M  V30 1970 H 178.862 -1.83893 2.33603 0
M  V30 1971 H 176.395 -0.858878 1.28307 0
M  V30 1972 H 178.353 -3.97132 1.03907 0
M  V30 1973 H 177.014 -3.13288 0.225668 0
M  V30 1974 H 176.207 -4.57082 2.12349 0
M  V30 1975 H 175.809 -2.86073 2.40911 0
M  V30 1976 H 178.101 -5.88986 3.34817 0
M  V30 1977 H 179.044 -5.26283 4.73743 0
M  V30 1978 H 179.452 -4.73138 3.07898 0
M  V30 1979 N 178.85 -1.27639 -0.924453 0
M  V30 1980 C 179.78 -1.13166 -2.04244 0
M  V30 1981 C 180.761 -0.032256 -1.70069 0
M  V30 1982 O 181.946 -0.207328 -1.9309 0
M  V30 1983 C 179.076 -0.781496 -3.38393 0
M  V30 1984 C 178.03 -1.83449 -3.86692 0
M  V30 1985 C 177.356 -1.33822 -5.17683 0
M  V30 1986 C 178.656 -3.23917 -4.09726 0
M  V30 1987 H 180.35 -2.06689 -2.1661 0
M  V30 1988 H 177.896 -0.995136 -1.04082 0
M  V30 1989 H 179.849 -0.667057 -4.16087 0
M  V30 1990 H 178.573 0.189439 -3.2605 0
M  V30 1991 H 177.232 -1.93789 -3.11193 0
M  V30 1992 H 176.88 -0.35665 -5.01734 0
M  V30 1993 H 176.58 -2.04224 -5.50968 0
M  V30 1994 H 178.104 -1.23679 -5.97943 0
M  V30 1995 H 179.518 -3.16559 -4.77978 0
M  V30 1996 H 177.915 -3.92059 -4.54324 0
M  V30 1997 H 178.985 -3.68729 -3.14908 0
M  V30 1998 N 180.328 1.1314 -1.09713 0
M  V30 1999 C 181.605 1.80762 -0.747302 0
M  V30 2000 C 181.985 1.96663 0.767265 0
M  V30 2001 O 181.333 1.53706 1.69076 0
M  V30 2002 C 181.543 3.15606 -1.48975 0
M  V30 2003 C 182.891 3.90914 -1.65746 0
M  V30 2004 O 183.915 3.25239 -1.45251 0
M  V30 2005 O 182.774 5.08718 -1.9967 0
M  V30 2006 H 179.868 0.782103 -0.268782 0
M  V30 2007 H 182.414 1.20041 -1.19951 0
M  V30 2008 H 181.186 2.99278 -2.52088 0
M  V30 2009 H 180.809 3.84029 -1.02991 0
M  V30 2010 N 181.806 0.884767 1.30421 0
M  V30 2011 C 183.055 0.499164 1.95426 0
M  V30 2012 C 183.368 -0.95645 1.70621 0
M  V30 2013 O 184.574 -1.44889 2.29607 0
M  V30 2014 C 183.03 0.84177 3.49917 0
M  V30 2015 C 182.638 2.31514 3.83543 0
M  V30 2016 C 184.382 0.525355 4.21237 0
M  V30 2017 C 182.289 2.59939 5.31212 0
M  V30 2018 H 181.219 0.182944 0.73147 0
M  V30 2019 H 183.87 1.07971 1.48373 0
M  V30 2020 H 182.252 0.190311 3.95542 0
M  V30 2021 H 183.426 3.0109 3.48829 0
M  V30 2022 H 181.741 2.59907 3.25326 0
M  V30 2023 H 184.338 0.714762 5.29901 0
M  V30 2024 H 184.681 -0.535222 4.12845 0
M  V30 2025 H 185.214 1.134 3.81294 0
M  V30 2026 H 181.953 3.64736 5.44654 0
M  V30 2027 H 181.473 1.94972 5.67227 0
M  V30 2028 H 183.152 2.45429 5.98643 0
M  V30 2029 N 183.284 -1.43765 0.645699 0
M  V30 2030 C 184.53 -2.02197 0.156271 0
M  V30 2031 C 184.863 -1.50776 -1.22393 0
M  V30 2032 O 184.138 -0.697771 -1.81553 0
M  V30 2033 C 184.421 -3.59749 0.158872 0
M  V30 2034 C 184.274 -4.21419 1.57245 0
M  V30 2035 C 185.593 -4.37149 -0.50879 0
M  V30 2036 H 182.712 -0.734694 0.0582602 0
M  V30 2037 H 185.354 -1.71157 0.824951 0
M  V30 2038 H 183.504 -3.86325 -0.410525 0
M  V30 2039 H 185.176 -4.059 2.19186 0
M  V30 2040 H 183.419 -3.78356 2.122 0
M  V30 2041 H 184.09 -5.30482 1.52619 0
M  V30 2042 H 186.566 -4.16093 -0.024412 0
M  V30 2043 H 185.442 -5.4683 -0.476213 0
M  V30 2044 H 185.703 -4.12839 -1.58165 0
M  V30 2045 N 184.763 -0.387143 -1.52771 0
M  V30 2046 C 186.04 0.253197 -1.93954 0
M  V30 2047 C 186.42 1.64545 -1.32243 0
M  V30 2048 O 185.768 2.23191 -0.489699 0
M  V30 2049 C 185.978 0.281722 -3.47861 0
M  V30 2050 C 187.326 0.511715 -4.21505 0
M  V30 2051 O 188.35 0.362023 -3.54356 0
M  V30 2052 O 187.209 0.804847 -5.40541 0
M  V30 2053 H 184.303 0.156845 -0.811991 0
M  V30 2054 H 186.849 -0.441494 -1.63856 0
M  V30 2055 H 185.621 -0.693571 -3.85104 0
M  V30 2056 H 185.244 1.02142 -3.84256 0
M  V30 2057 N 186.241 1.57166 -0.116904 0
M  V30 2058 C 187.204 2.14039 0.819742 0
M  V30 2059 C 188.204 1.07477 1.19605 0
M  V30 2060 O 189.394 1.33263 1.1219 0
M  V30 2061 C 186.526 2.67891 2.10826 0
M  V30 2062 H 187.719 2.98128 0.325511 0
M  V30 2063 H 185.272 1.55739 0.132312 0
M  V30 2064 H 186.007 1.87384 2.64685 0
M  V30 2065 H 185.792 3.45823 1.84793 0
M  V30 2066 H 187.282 3.11809 2.77785 0
M  V30 2067 N 187.719 -0.156864 1.56817 0
M  V30 2068 C 188.968 -0.869504 1.81996 0
M  V30 2069 C 189.281 -1.82777 0.696545 0
M  V30 2070 O 190.487 -2.58384 0.833658 0
M  V30 2071 C 188.943 -1.59679 3.22538 0
M  V30 2072 C 188.551 -0.681431 4.42787 0
M  V30 2073 C 190.295 -2.2968 3.56997 0
M  V30 2074 C 188.202 -1.40978 5.74351 0
M  V30 2075 H 187.132 -0.328438 0.678708 0
M  V30 2076 H 189.783 -0.1223 1.83092 0
M  V30 2077 H 188.165 -2.38927 3.158 0
M  V30 2078 H 189.339 0.0751166 4.60739 0
M  V30 2079 H 187.654 -0.0903431 4.16302 0
M  V30 2080 H 190.251 -2.84794 4.52544 0
M  V30 2081 H 190.594 -3.05707 2.82576 0
M  V30 2082 H 191.127 -1.57361 3.65352 0
M  V30 2083 H 187.866 -0.691561 6.51842 0
M  V30 2084 H 187.386 -2.13929 5.60352 0
M  V30 2085 H 189.065 -1.95337 6.16808 0
M  V30 2086 N 189.197 -1.51736 -0.425897 0
M  V30 2087 C 190.427 -1.68549 -1.19476 0
M  V30 2088 C 190.835 -0.387288 -1.85194 0
M  V30 2089 O 190.178 0.645142 -1.71999 0
M  V30 2090 C 190.24 -2.75275 -2.31223 0
M  V30 2091 C 189.904 -4.17534 -1.8578 0
M  V30 2092 C 190.901 -5.01936 -1.35485 0
M  V30 2093 C 188.586 -4.6369 -1.93123 0
M  V30 2094 C 190.58 -6.30559 -0.931347 0
M  V30 2095 C 188.267 -5.92307 -1.50384 0
M  V30 2096 C 189.265 -6.75569 -1.00473 0
M  V30 2097 O 188.953 -8.0178 -0.583452 0
M  V30 2098 H 188.685 -0.568525 -0.365725 0
M  V30 2099 H 191.239 -1.98982 -0.509444 0
M  V30 2100 H 189.469 -2.40182 -3.03067 0
M  V30 2101 H 191.158 -2.80853 -2.93047 0
M  V30 2102 H 191.924 -4.67475 -1.29197 0
M  V30 2103 H 187.803 -3.98997 -2.30916 0
M  V30 2104 H 191.347 -6.95498 -0.541084 0
M  V30 2105 H 187.244 -6.2628 -1.56346 0
M  V30 2106 H 188.012 -8.1543 -0.708275 0
M  V30 2107 N 190.675 0.682077 -1.42076 0
M  V30 2108 C 191.607 1.80755 -1.40926 0
M  V30 2109 C 192.62 1.59833 -0.309398 0
M  V30 2110 O 193.809 1.69087 -0.572014 0
M  V30 2111 C 190.909 3.17744 -1.17865 0
M  V30 2112 C 190.082 3.65578 -2.40149 0
M  V30 2113 C 189.141 4.81277 -2.12742 0
M  V30 2114 O 188.167 4.92197 -2.85887 0
M  V30 2115 N 189.369 5.69474 -1.12602 0
M  V30 2116 H 192.134 1.82229 -2.37935 0
M  V30 2117 H 189.695 0.864903 -1.36861 0
M  V30 2118 H 191.687 3.9279 -0.9746 0
M  V30 2119 H 190.257 3.11214 -0.294068 0
M  V30 2120 H 189.477 2.81291 -2.76169 0
M  V30 2121 H 190.765 3.94278 -3.21593 0
M  V30 2122 H 190.163 5.63297 -0.520899 0
M  V30 2123 H 188.72 6.44363 -0.981842 0
M  V30 2124 N 192.153 1.28127 0.917671 0
M  V30 2125 C 193.086 1.06039 2.02067 0
M  V30 2126 C 194.064 -0.0223285 1.62585 0
M  V30 2127 O 195.248 0.124823 1.88086 0
M  V30 2128 C 192.375 0.610596 3.33151 0
M  V30 2129 C 191.421 1.68937 3.91615 0
M  V30 2130 S 192.254 3.28437 4.22953 0
M  V30 2131 C 193.41 2.85283 5.57103 0
M  V30 2132 H 193.643 1.99425 2.20493 0
M  V30 2133 H 191.176 1.12071 1.06205 0
M  V30 2134 H 193.134 0.357778 4.08938 0
M  V30 2135 H 191.795 -0.303364 3.12632 0
M  V30 2136 H 190.988 1.32619 4.86239 0
M  V30 2137 H 190.59 1.89478 3.2245 0
M  V30 2138 H 192.882 2.3121 6.36827 0
M  V30 2139 H 193.825 3.7869 5.98331 0
M  V30 2140 H 194.233 2.24118 5.18104 0
M  V30 2141 N 193.631 -1.12557 1.10312 0
M  V30 2142 C 194.877 -1.84311 0.846011 0
M  V30 2143 C 195.21 -1.83805 -0.626859 0
M  V30 2144 O 194.485 -1.28268 -1.46211 0
M  V30 2145 C 194.768 -3.32048 1.39341 0
M  V30 2146 C 194.621 -3.41016 2.93305 0
M  V30 2147 C 195.94 -4.27764 1.03468 0
M  V30 2148 H 193.059 -0.669192 0.30879 0
M  V30 2149 H 195.701 -1.32057 1.36605 0
M  V30 2150 H 193.851 -3.76678 0.951087 0
M  V30 2151 H 195.523 -3.05031 3.46055 0
M  V30 2152 H 193.766 -2.81603 3.29973 0
M  V30 2153 H 194.437 -4.44948 3.26689 0
M  V30 2154 H 196.913 -3.91253 1.41633 0
M  V30 2155 H 195.789 -5.29549 1.44463 0
M  V30 2156 H 196.05 -4.42064 -0.0560404 0
M  V30 2157 N 195.109 -0.891671 -1.2995 0
M  V30 2158 C 196.357 -0.512486 -1.95494 0
M  V30 2159 C 196.678 0.942776 -1.70695 0
M  V30 2160 O 195.948 1.66374 -1.03424 0
M  V30 2161 H 194.528 -0.186533 -0.723336 0
M  V30 2162 H 197.19 -1.13621 -1.58355 0
M  V30 2163 H 196.286 -0.688342 -3.04415 0
M  V30 2164 N 196.587 1.43421 -0.653314 0
M  V30 2165 C 197.535 2.32546 0.0501531 0
M  V30 2166 C 198.529 1.48617 0.812985 0
M  V30 2167 O 199.735 1.64825 0.723375 0
M  V30 2168 H 196.11 0.751185 0.0350032 0
M  V30 2169 H 198.081 2.89602 -0.719261 0
M  V30 2170 C 196.83 3.32925 1.00279 0
M  V30 2171 H 196.153 3.97532 0.425236 0
M  V30 2172 H 197.593 3.9792 1.46409 0
M  V30 2173 C 196.052 2.63532 2.09886 0
M  V30 2174 O 196.582 2.45092 3.18265 0
M  V30 2175 N 194.788 2.22905 1.86445 0
M  V30 2176 H 194.335 2.38103 0.98309 0
M  V30 2177 H 194.293 1.76805 2.59976 0
M  V30 2178 N 198.065 0.39524 1.52563 0
M  V30 2179 C 199.293 -0.184943 2.06072 0
M  V30 2180 C 199.708 -1.40021 1.26647 0
M  V30 2181 O 199.065 -1.79767 0.314672 0
M  V30 2182 C 199.116 -0.549179 3.57304 0
M  V30 2183 O 198.837 0.617813 4.33722 0
M  V30 2184 C 200.338 -1.18459 4.2718 0
M  V30 2185 H 197.558 -0.0265025 0.670476 0
M  V30 2186 H 200.102 0.562184 1.96621 0
M  V30 2187 H 198.257 -1.2462 3.66809 0
M  V30 2188 H 198.671 0.317091 5.23541 0
M  V30 2189 H 200.145 -1.38976 5.34219 0
M  V30 2190 H 200.622 -2.15368 3.82771 0
M  V30 2191 H 201.228 -0.528163 4.22008 0
M  V30 2192 N 199.544 -1.57102 0.125237 0
M  V30 2193 C 200.79 -1.95697 -0.532035 0
M  V30 2194 C 201.123 -1.009 -1.6593 0
M  V30 2195 O 200.398 -0.047347 -1.94442 0
M  V30 2196 C 200.681 -3.44181 -1.05884 0
M  V30 2197 C 200.534 -4.49752 0.0654392 0
M  V30 2198 C 201.853 -3.94655 -1.9477 0
M  V30 2199 H 198.972 -0.711571 -0.191925 0
M  V30 2200 H 201.614 -1.88923 0.20206 0
M  V30 2201 H 199.764 -3.50085 -1.68442 0
M  V30 2202 H 201.436 -4.55943 0.700982 0
M  V30 2203 H 199.679 -4.27653 0.727709 0
M  V30 2204 H 200.35 -5.50924 -0.344505 0
M  V30 2205 H 202.826 -3.91094 -1.42074 0
M  V30 2206 H 201.702 -4.99057 -2.28546 0
M  V30 2207 H 201.963 -3.35718 -2.87656 0
M  V30 2208 N 201.022 0.148545 -1.56898 0
M  V30 2209 C 201.932 1.20293 -2.01412 0
M  V30 2210 C 202.948 1.47107 -0.929273 0
M  V30 2211 O 204.124 1.58807 -1.23863 0
M  V30 2212 C 201.189 2.51682 -2.38447 0
M  V30 2213 C 200.25 2.32529 -3.60872 0
M  V30 2214 C 199.483 3.57653 -3.96132 0
M  V30 2215 O 199.706 4.63771 -3.32073 0
M  V30 2216 O 198.64 3.50408 -4.89385 0
M  V30 2217 H 202.466 0.855025 -2.91416 0
M  V30 2218 H 200.051 0.357151 -1.45068 0
M  V30 2219 H 201.933 3.29147 -2.63135 0
M  V30 2220 H 200.608 2.86006 -1.51599 0
M  V30 2221 H 199.515 1.53019 -3.41373 0
M  V30 2222 H 200.848 2.03121 -4.48333 0
M  V30 2223 N 202.5 1.5196 0.417844 0
M  V30 2224 C 203.43 1.77634 1.51554 0
M  V30 2225 C 204.411 0.626918 1.58126 0
M  V30 2226 O 205.596 0.871632 1.7354 0
M  V30 2227 C 202.726 1.91911 2.8946 0
M  V30 2228 C 201.68 3.07463 2.97743 0
M  V30 2229 C 201.006 3.06951 4.37819 0
M  V30 2230 C 202.306 4.47082 2.70027 0
M  V30 2231 H 204 2.6955 1.3032 0
M  V30 2232 H 201.546 1.29706 0.625492 0
M  V30 2233 H 203.499 2.08455 3.6623 0
M  V30 2234 H 202.223 0.966598 3.11969 0
M  V30 2235 H 200.882 2.90656 2.23416 0
M  V30 2236 H 200.53 2.09438 4.57323 0
M  V30 2237 H 200.23 3.84556 4.44286 0
M  V30 2238 H 201.754 3.25613 5.16535 0
M  V30 2239 H 203.168 4.6414 3.36522 0
M  V30 2240 H 201.565 5.2654 2.87881 0
M  V30 2241 H 202.635 4.55777 1.65514 0
M  V30 2242 N 203.978 -0.674533 1.42435 0
M  V30 2243 C 205.389 -1.25514 1.38214 0
M  V30 2244 C 205.74 -1.96055 0.0755464 0
M  V30 2245 O 204.865 -2.00028 -0.8257 0
M  V30 2246 C 205.46 -2.28269 2.50357 0
M  V30 2247 C 204.019 -2.81856 2.49467 0
M  V30 2248 C 203.166 -1.56182 2.29134 0
M  V30 2249 H 206.117 -0.467902 1.51646 0
M  V30 2250 H 206.138 -3.10009 2.20624 0
M  V30 2251 H 205.65 -1.769 3.45439 0
M  V30 2252 H 203.751 -3.37346 1.58204 0
M  V30 2253 H 203.864 -3.30854 3.46515 0
M  V30 2254 H 202.228 -1.82761 1.774 0
M  V30 2255 H 203.011 -1.06778 3.26272 0
M  V30 2256 N 205.456 -1.28612 -0.910864 0
M  V30 2257 C 206.366 -1.14643 -2.0468 0
M  V30 2258 C 207.382 -0.0723121 -1.7385 0
M  V30 2259 O 208.558 -0.282178 -1.99413 0
M  V30 2260 C 205.623 -0.812561 -3.37044 0
M  V30 2261 C 204.684 -1.96935 -3.81465 0
M  V30 2262 C 203.917 -1.65131 -5.07511 0
M  V30 2263 O 204.14 -0.567013 -5.67575 0
M  V30 2264 O 203.074 -2.49585 -5.47714 0
M  V30 2265 H 206.9 -2.1001 -2.19384 0
M  V30 2266 H 204.485 -1.07958 -1.03274 0
M  V30 2267 H 206.367 -0.640441 -4.16505 0
M  V30 2268 H 205.042 0.111426 -3.23508 0
M  V30 2269 H 203.949 -2.19664 -3.02818 0
M  V30 2270 H 205.282 -2.87414 -3.99567 0
M  V30 2271 N 206.934 1.1197 -1.10907 0
M  V30 2272 C 207.844 2.21433 -0.774896 0
M  V30 2273 C 208.86 1.72478 0.229657 0
M  V30 2274 O 210.036 2.01288 0.0672008 0
M  V30 2275 C 207.101 3.4602 -0.216986 0
M  V30 2276 C 206.162 4.09791 -1.27944 0
M  V30 2277 C 205.395 5.28431 -0.748055 0
M  V30 2278 O 205.618 5.68823 0.423833 0
M  V30 2279 O 204.552 5.82644 -1.51027 0
M  V30 2280 H 208.378 2.5242 -1.68873 0
M  V30 2281 H 205.963 1.20399 -0.884555 0
M  V30 2282 H 207.845 4.21304 0.090059 0
M  V30 2283 H 206.52 3.16698 0.669633 0
M  V30 2284 H 205.427 3.36265 -1.63941 0
M  V30 2285 H 206.76 4.4328 -2.13925 0
M  V30 2286 N 208.412 0.89855 1.29475 0
M  V30 2287 C 209.322 0.379974 2.31502 0
M  V30 2288 C 210.338 -0.524695 1.659 0
M  V30 2289 O 211.514 -0.414551 1.97087 0
M  V30 2290 C 208.579 -0.385138 3.44554 0
M  V30 2291 C 207.64 0.550914 4.2575 0
M  V30 2292 C 206.873 -0.177778 5.33404 0
M  V30 2293 O 207.096 -1.40189 5.52904 0
M  V30 2294 O 206.03 0.479106 5.9999 0
M  V30 2295 H 209.856 1.22639 2.77837 0
M  V30 2296 H 207.441 0.662834 1.33891 0
M  V30 2297 H 209.323 -0.817841 4.13388 0
M  V30 2298 H 207.998 -1.20763 3.0033 0
M  V30 2299 H 206.905 1.03271 3.59564 0
M  V30 2300 H 208.238 1.33979 4.73614 0
M  V30 2301 N 209.89 -1.43072 0.660911 0
M  V30 2302 C 210.838 -2.32569 -0.0378199 0
M  V30 2303 C 211.832 -1.49046 -0.805092 0
M  V30 2304 O 213.038 -1.65206 -0.714624 0
M  V30 2305 H 209.413 -0.75136 -0.031019 0
M  V30 2306 H 211.384 -2.89216 0.734609 0
M  V30 2307 C 210.133 -3.33453 -0.985124 0
M  V30 2308 H 209.456 -3.97752 -0.404147 0
M  V30 2309 H 210.896 -3.98691 -1.44297 0
M  V30 2310 C 209.355 -2.64642 -2.08486 0
M  V30 2311 O 209.885 -2.46776 -3.16961 0
M  V30 2312 N 208.091 -2.23891 -1.8526 0
M  V30 2313 H 207.638 -2.38621 -0.970449 0
M  V30 2314 H 207.596 -1.78181 -2.59034 0
M  V30 2315 N 211.368 -0.403325 -1.52352 0
M  V30 2316 C 212.596 0.174012 -2.06167 0
M  V30 2317 C 213.011 1.39347 -1.27388 0
M  V30 2318 O 212.368 1.79597 -0.324201 0
M  V30 2319 C 212.419 0.530223 -3.5759 0
M  V30 2320 O 212.14 -0.640806 -4.33388 0
M  V30 2321 C 213.641 1.16192 -4.27802 0
M  V30 2322 H 210.861 0.0229464 -0.670608 0
M  V30 2323 H 213.405 -0.572604 -1.9632 0
M  V30 2324 H 211.56 1.22673 -3.67464 0
M  V30 2325 H 211.974 -0.344851 -5.23365 0
M  V30 2326 H 213.448 1.36141 -5.34948 0
M  V30 2327 H 213.925 2.13335 -3.83907 0
M  V30 2328 H 214.531 0.505775 -4.22282 0
M  V30 2329 N 212.846 1.57033 -0.133567 0
M  V30 2330 C 214.257 1.82593 0.389464 0
M  V30 2331 C 214.608 1.05156 1.6564 0
M  V30 2332 O 213.733 0.292644 2.14412 0
M  V30 2333 C 214.328 3.31204 0.713377 0
M  V30 2334 C 212.887 3.57393 1.18098 0
M  V30 2335 C 212.034 2.76598 0.197126 0
M  V30 2336 H 214.985 1.54598 -0.358481 0
M  V30 2337 H 215.006 3.46627 1.56939 0
M  V30 2338 H 214.518 3.87537 -0.2089 0
M  V30 2339 H 212.619 3.06433 2.11966 0
M  V30 2340 H 212.732 4.65915 1.11624 0
M  V30 2341 H 211.096 2.45257 0.687088 0
M  V30 2342 H 211.879 3.35697 -0.718504 0
M  V30 2343 N 214.325 -0.140222 1.56975 0
M  V30 2344 C 215.235 -1.19223 2.02047 0
M  V30 2345 C 216.251 -1.46612 0.937062 0
M  V30 2346 O 217.427 -1.58148 1.24704 0
M  V30 2347 C 214.492 -2.50414 2.39778 0
M  V30 2348 C 213.553 -2.30612 3.621 0
M  V30 2349 C 212.786 -3.55547 3.98023 0
M  V30 2350 O 213.009 -4.62004 3.34528 0
M  V30 2351 O 211.943 -3.47808 4.91237 0
M  V30 2352 H 215.769 -0.839559 2.91865 0
M  V30 2353 H 213.354 -0.349453 1.45256 0
M  V30 2354 H 215.236 -3.27747 2.64877 0
M  V30 2355 H 213.911 -2.85198 1.53114 0
M  V30 2356 H 212.818 -1.51207 3.4218 0
M  V30 2357 H 214.151 -2.00741 4.49404 0
M  V30 2358 N 215.803 -1.52179 -0.40978 0
M  V30 2359 C 216.75 -1.75475 -1.49924 0
M  V30 2360 C 217.72 -0.597175 -1.54994 0
M  V30 2361 O 218.905 -0.834655 -1.71575 0
M  V30 2362 C 216.045 -1.9107 -2.87378 0
M  V30 2363 C 215.158 -3.18717 -2.91622 0
M  V30 2364 C 214.293 -3.24747 -4.20372 0
M  V30 2365 C 213.332 -4.46598 -4.18588 0
M  V30 2366 N 212.469 -4.50025 -5.38908 0
M  V30 2367 H 217.309 -2.68458 -1.29361 0
M  V30 2368 H 214.846 -1.33024 -0.627934 0
M  V30 2369 H 216.804 -1.98096 -3.6717 0
M  V30 2370 H 215.434 -1.01469 -3.06437 0
M  V30 2371 H 214.486 -3.20866 -2.04326 0
M  V30 2372 H 215.798 -4.08544 -2.86169 0
M  V30 2373 H 214.952 -3.30841 -5.08556 0
M  V30 2374 H 213.691 -2.32857 -4.28519 0
M  V30 2375 H 212.696 -4.40652 -3.28794 0
M  V30 2376 H 213.921 -5.39783 -4.12081 0
M  V30 2377 H 211.867 -3.61017 -5.47725 0
M  V30 2378 H 211.784 -5.33697 -5.35447 0
M  V30 2379 H 213.052 -4.60347 -6.29048 0
M  V30 2380 N 217.281 0.66697 -1.42791 0
M  V30 2381 C 218.697 0.981027 -1.25889 0
M  V30 2382 C 218.897 2.00793 -0.168695 0
M  V30 2383 O 217.953 2.48321 0.45747 0
M  V30 2384 C 219.266 1.47838 -2.61848 0
M  V30 2385 C 220.814 1.59575 -2.69267 0
M  V30 2386 C 221.289 2.12704 -4.05612 0
M  V30 2387 N 222.78 2.20026 -4.07606 0
M  V30 2388 C 223.515 2.62227 -5.09926 0
M  V30 2389 N 223.011 3.03824 -6.22626 0
M  V30 2390 N 224.804 2.62045 -4.97281 0
M  V30 2391 H 216.955 -0.0127891 -2.12396 0
M  V30 2392 H 219.218 0.0568258 -0.946295 0
M  V30 2393 H 218.924 0.798299 -3.4252 0
M  V30 2394 H 218.798 2.45579 -2.86305 0
M  V30 2395 H 221.185 2.26687 -1.88936 0
M  V30 2396 H 221.266 0.60302 -2.48591 0
M  V30 2397 H 220.91 1.46198 -4.86404 0
M  V30 2398 H 220.84 3.12782 -4.23645 0
M  V30 2399 H 223.331 1.90708 -3.2625 0
M  V30 2400 H 223.644 3.34734 -6.96544 0
M  V30 2401 H 221.989 3.01662 -6.26119 0
M  V30 2402 H 225.18 2.28916 -4.08308 0
M  V30 2403 H 225.353 2.94613 -5.77154 0
M  V30 2404 N 218.759 1.29093 0.90403 0
M  V30 2405 C 220.005 1.16986 1.65656 0
M  V30 2406 C 220.338 -0.278925 1.92186 0
M  V30 2407 O 219.613 -1.2019 1.5292 0
M  V30 2408 C 219.896 1.97908 3.0084 0
M  V30 2409 C 219.749 3.50903 2.81403 0
M  V30 2410 C 221.068 1.80208 4.01513 0
M  V30 2411 H 218.187 0.426346 0.601164 0
M  V30 2412 H 220.829 1.58518 1.04747 0
M  V30 2413 H 218.979 1.62616 3.52829 0
M  V30 2414 H 220.651 3.96153 2.36348 0
M  V30 2415 H 218.894 3.76045 2.1627 0
M  V30 2416 H 219.565 4.02791 3.77443 0
M  V30 2417 H 222.041 2.11025 3.58619 0
M  V30 2418 H 220.917 2.39184 4.94047 0
M  V30 2419 H 221.178 0.756119 4.35586 0
M  V30 2420 N 220.237 -1.11381 1.11499 0
M  V30 2421 C 221.514 -1.7955 0.775965 0
M  V30 2422 C 221.894 -1.97859 -0.73588 0
M  V30 2423 O 221.242 -1.56376 -1.66609 0
M  V30 2424 C 221.452 -3.13196 1.53977 0
M  V30 2425 C 222.8 -3.88227 1.71944 0
M  V30 2426 O 223.824 -3.22887 1.50407 0
M  V30 2427 O 222.683 -5.05477 2.07738 0
M  V30 2428 H 219.777 -0.777728 0.28119 0
M  V30 2429 H 222.323 -1.18118 1.21845 0
M  V30 2430 H 221.095 -2.95229 2.56818 0
M  V30 2431 H 220.718 -3.82342 1.09088 0
M  V30 2432 N 221.715 -0.905404 -1.28997 0
M  V30 2433 C 223.131 -0.60233 -1.47798 0
M  V30 2434 C 223.331 0.854645 -1.82478 0
M  V30 2435 O 222.387 1.63439 -1.92468 0
M  V30 2436 C 223.7 -1.53306 -2.58685 0
M  V30 2437 C 225.248 -1.53887 -2.72558 0
M  V30 2438 C 225.723 -2.45602 -3.86579 0
M  V30 2439 N 227.214 -2.43681 -3.93921 0
M  V30 2440 C 227.949 -3.11347 -4.81509 0
M  V30 2441 N 227.445 -3.88313 -5.73746 0
M  V30 2442 N 229.238 -3.00476 -4.75048 0
M  V30 2443 H 221.389 -1.84765 -1.04764 0
M  V30 2444 H 223.652 -0.792025 -0.520961 0
M  V30 2445 H 223.358 -2.57141 -2.39941 0
M  V30 2446 H 223.232 -1.25787 -3.55609 0
M  V30 2447 H 225.619 -0.507941 -2.90696 0
M  V30 2448 H 225.7 -1.85447 -1.76191 0
M  V30 2449 H 225.344 -3.48792 -3.69197 0
M  V30 2450 H 225.274 -2.11349 -4.82327 0
M  V30 2451 H 227.765 -1.87767 -3.27951 0
M  V30 2452 H 228.078 -4.36985 -6.37389 0
M  V30 2453 H 226.423 -3.92419 -5.73614 0
M  V30 2454 H 229.614 -2.39858 -4.01977 0
M  V30 2455 H 229.787 -3.53485 -5.43095 0
M  V30 2456 N 223.193 1.4272 -0.668489 0
M  V30 2457 C 224.442 2.00846 -0.185389 0
M  V30 2458 C 224.755 1.53442 1.21305 0
M  V30 2459 O 225.961 2.03944 1.79218 0
M  V30 2460 C 224.417 3.58805 -0.280591 0
M  V30 2461 C 224.025 4.15198 -1.68268 0
M  V30 2462 C 225.769 4.24255 0.14412 0
M  V30 2463 C 223.676 5.655 -1.73099 0
M  V30 2464 H 222.606 0.751145 -0.0655475 0
M  V30 2465 H 225.257 1.63516 -0.832752 0
M  V30 2466 H 223.639 3.93608 0.434553 0
M  V30 2467 H 224.813 3.91866 -2.42441 0
M  V30 2468 H 223.128 3.62176 -2.05469 0
M  V30 2469 H 225.725 5.34547 0.128086 0
M  V30 2470 H 226.068 3.99277 1.17827 0
M  V30 2471 H 226.601 3.94389 -0.519798 0
M  V30 2472 H 223.34 5.95268 -2.74475 0
M  V30 2473 H 222.86 5.90842 -1.03274 0
M  V30 2474 H 224.539 6.29808 -1.48158 0
M  V30 2475 N 224.671 0.411399 1.52136 0
M  V30 2476 C 225.918 -0.163645 2.01838 0
M  V30 2477 C 226.246 -1.4495 1.29691 0
M  V30 2478 O 225.501 -1.91725 0.392431 0
M  V30 2479 C 225.8 -0.455872 3.54481 0
M  V30 2480 C 225.466 0.741055 4.44769 0
M  V30 2481 C 224.128 1.06936 4.69167 0
M  V30 2482 C 226.48 1.54075 4.97906 0
M  V30 2483 C 223.808 2.19851 5.43951 0
M  V30 2484 C 226.16 2.66067 5.73926 0
M  V30 2485 C 224.824 2.99381 5.96596 0
M  V30 2486 H 224.094 -0.0598821 0.738576 0
M  V30 2487 H 226.741 0.553283 1.83333 0
M  V30 2488 H 225.046 -1.2544 3.71177 0
M  V30 2489 H 226.743 -0.913802 3.90449 0
M  V30 2490 H 223.333 0.475192 4.25958 0
M  V30 2491 H 227.517 1.30033 4.78963 0
M  V30 2492 H 222.773 2.46006 5.59724 0
M  V30 2493 H 226.947 3.28419 6.14096 0
M  V30 2494 H 224.574 3.86992 6.54325 0
M  V30 2495 N 226.149 -1.5696 0.141893 0
M  V30 2496 C 227.112 -2.15316 -0.785587 0
M  V30 2497 C 228.112 -1.09366 -1.1788 0
M  V30 2498 O 229.302 -1.35031 -1.10056 0
M  V30 2499 C 226.434 -2.71211 -2.06537 0
M  V30 2500 H 227.627 -2.98608 -0.278041 0
M  V30 2501 H 225.18 -1.5593 -0.107519 0
M  V30 2502 H 225.915 -1.91571 -2.6167 0
M  V30 2503 H 225.7 -3.4872 -1.79268 0
M  V30 2504 H 227.19 -3.16189 -2.72789 0
M  V30 2505 N 227.627 0.131896 -1.57047 0
M  V30 2506 C 228.56 1.19236 -1.94571 0
M  V30 2507 C 229.538 1.40782 -0.813576 0
M  V30 2508 O 230.722 1.55148 -1.07058 0
M  V30 2509 C 227.849 2.54858 -2.23081 0
M  V30 2510 C 226.895 2.49817 -3.45679 0
M  V30 2511 S 227.728 1.95036 -4.98719 0
M  V30 2512 C 228.884 3.32357 -5.30367 0
M  V30 2513 H 229.117 0.872297 -2.84215 0
M  V30 2514 H 226.65 0.338134 -1.50652 0
M  V30 2515 H 228.608 3.32898 -2.40185 0
M  V30 2516 H 227.269 2.84047 -1.34074 0
M  V30 2517 H 226.462 3.49688 -3.62952 0
M  V30 2518 H 226.064 1.79892 -3.27895 0
M  V30 2519 H 228.356 4.28525 -5.2476 0
M  V30 2520 H 229.299 3.19923 -6.31708 0
M  V30 2521 H 229.707 3.3019 -4.57859 0
M  V30 2522 N 229.106 1.52395 0.401703 0
M  V30 2523 C 230.039 1.70999 1.51111 0
M  V30 2524 C 231.017 0.55765 1.52738 0
M  V30 2525 O 232.201 0.785912 1.71335 0
M  V30 2526 C 229.328 1.75607 2.8962 0
M  V30 2527 C 228.374 2.97227 3.05873 0
M  V30 2528 S 229.207 4.57439 2.78405 0
M  V30 2529 C 230.363 4.64844 4.19131 0
M  V30 2530 H 230.596 2.6483 1.35102 0
M  V30 2531 H 228.129 1.42527 0.593762 0
M  V30 2532 H 230.087 1.78947 3.69443 0
M  V30 2533 H 228.748 0.828914 3.02965 0
M  V30 2534 H 227.941 2.96955 4.07227 0
M  V30 2535 H 227.543 2.91813 2.33925 0
M  V30 2536 H 229.835 4.42677 5.12877 0
M  V30 2537 H 230.778 5.66807 4.24424 0
M  V30 2538 H 231.186 3.93804 4.04448 0
M  V30 2539 N 230.584 -0.659388 1.43143 0
M  V30 2540 C 231.861 -1.41627 1.34912 0
M  V30 2541 C 232.241 -2.11099 -0.00607785 0
M  V30 2542 O 231.589 -2.04353 -1.02236 0
M  V30 2543 C 231.799 -2.40604 2.52805 0
M  V30 2544 C 233.147 -3.04789 2.95616 0
M  V30 2545 O 234.171 -2.50932 2.52807 0
M  V30 2546 O 233.03 -4.02421 3.69756 0
M  V30 2547 H 230.124 -0.63246 0.532844 0
M  V30 2548 H 232.67 -0.686814 1.5518 0
M  V30 2549 H 231.442 -1.88174 3.43083 0
M  V30 2550 H 231.065 -3.21009 2.34604 0
M  V30 2551 N 232.062 -1.29571 -0.897171 0
M  V30 2552 C 233.009 -1.14916 -2.00158 0
M  V30 2553 C 233.979 -0.0418149 -1.66047 0
M  V30 2554 O 235.164 -0.209793 -1.89643 0
M  V30 2555 C 232.304 -0.834307 -3.34863 0
M  V30 2556 C 231.417 -2.02234 -3.8174 0
M  V30 2557 C 230.552 -1.64664 -5.05034 0
M  V30 2558 C 229.591 -2.80033 -5.44286 0
M  V30 2559 N 228.728 -2.42843 -6.58765 0
M  V30 2560 H 233.568 -2.09403 -2.12025 0
M  V30 2561 H 231.105 -1.042 -1.0383 0
M  V30 2562 H 233.063 -0.632436 -4.12379 0
M  V30 2563 H 231.693 0.0736656 -3.22716 0
M  V30 2564 H 230.745 -2.33583 -3.00238 0
M  V30 2565 H 232.057 -2.88673 -4.06779 0
M  V30 2566 H 231.211 -1.4078 -5.9014 0
M  V30 2567 H 229.95 -0.753766 -4.8184 0
M  V30 2568 H 228.955 -3.04596 -4.57713 0
M  V30 2569 H 230.18 -3.69989 -5.6946 0
M  V30 2570 H 228.126 -1.56046 -6.3717 0
M  V30 2571 H 228.043 -3.22815 -6.83613 0
M  V30 2572 H 229.311 -2.22285 -7.47134 0
M  V30 2573 N 233.54 1.10788 -1.12088 0
M  V30 2574 C 234.488 2.19111 -0.780587 0
M  V30 2575 C 235.482 1.67818 0.230961 0
M  V30 2576 O 236.688 1.79777 0.0895427 0
M  V30 2577 H 233.063 0.714477 -0.234578 0
M  V30 2578 H 235.034 2.45055 -1.70266 0
M  V30 2579 C 233.783 3.46818 -0.24747 0
M  V30 2580 H 233.106 3.86646 -1.01712 0
M  V30 2581 H 234.546 4.23973 -0.0476291 0
M  V30 2582 C 233.005 3.20968 1.02378 0
M  V30 2583 O 233.535 3.42298 2.10226 0
M  V30 2584 N 231.741 2.74658 0.949271 0
M  V30 2585 H 231.288 2.57501 0.0715173 0
M  V30 2586 H 231.246 2.57739 1.80049 0
M  V30 2587 N 235.018 0.912232 1.28515 0
M  V30 2588 C 235.981 0.404223 2.25607 0
M  V30 2589 C 236.981 -0.468602 1.53821 0
M  V30 2590 O 238.171 -0.271873 1.72065 0
M  V30 2591 C 235.303 -0.420653 3.38295 0
M  V30 2592 H 236.496 1.26188 2.7206 0
M  V30 2593 H 234.049 0.691495 1.40171 0
M  V30 2594 H 234.784 -1.29777 2.97201 0
M  V30 2595 H 234.569 0.204935 3.91564 0
M  V30 2596 H 236.059 -0.766971 4.10496 0
M  V30 2597 N 236.496 -1.42363 0.676048 0
M  V30 2598 C 237.773 -1.95183 0.127726 0
M  V30 2599 C 238.153 -1.61641 -1.35777 0
M  V30 2600 O 237.501 -0.913216 -2.09458 0
M  V30 2601 C 237.711 -3.46721 0.398199 0
M  V30 2602 C 239.059 -4.23427 0.315383 0
M  V30 2603 O 240.083 -3.54649 0.332016 0
M  V30 2604 O 238.942 -5.45888 0.25865 0
M  V30 2605 H 236.036 -0.826992 0.00359427 0
M  V30 2606 H 238.582 -1.52184 0.750864 0
M  V30 2607 H 237.354 -3.64344 1.4272 0
M  V30 2608 H 236.977 -3.96769 -0.256885 0
M  V30 2609 N 237.974 -0.419461 -1.51915 0
M  V30 2610 C 239.222 0.152637 -2.01523 0
M  V30 2611 C 239.543 1.44762 -1.30649 0
M  V30 2612 O 238.813 1.90997 -0.435535 0
M  V30 2613 H 237.393 0.0593966 -0.744635 0
M  V30 2614 H 240.055 -0.558073 -1.86739 0
M  V30 2615 H 239.151 0.341369 -3.10227 0
M  V30 2616 N 239.452 1.56882 -0.150215 0
M  V30 2617 C 240.399 2.16922 0.788244 0
M  V30 2618 C 241.369 1.10303 1.24187 0
M  V30 2619 O 242.554 1.38359 1.31383 0
M  V30 2620 C 239.694 2.79754 2.02068 0
M  V30 2621 C 238.807 4.00775 1.61257 0
M  V30 2622 C 237.942 4.51595 2.79705 0
M  V30 2623 C 236.981 5.65074 2.35282 0
M  V30 2624 N 236.118 6.10499 3.4675 0
M  V30 2625 H 240.958 2.96779 0.269444 0
M  V30 2626 H 238.495 1.46599 0.12128 0
M  V30 2627 H 240.453 3.14329 2.74323 0
M  V30 2628 H 239.083 2.02536 2.51354 0
M  V30 2629 H 238.135 3.72158 0.787553 0
M  V30 2630 H 239.447 4.82978 1.24633 0
M  V30 2631 H 238.601 4.88242 3.60145 0
M  V30 2632 H 237.34 3.68406 3.19576 0
M  V30 2633 H 236.345 5.28 1.53283 0
M  V30 2634 H 237.57 6.50052 1.96493 0
M  V30 2635 H 235.516 5.30243 3.86236 0
M  V30 2636 H 235.433 6.87637 3.14152 0
M  V30 2637 H 236.701 6.51791 4.27537 0
M  V30 2638 N 240.93 -0.123565 1.57115 0
M  V30 2639 C 241.86 -1.15309 2.03042 0
M  V30 2640 C 242.841 -1.43454 0.914061 0
M  V30 2641 O 244.026 -1.53973 1.18347 0
M  V30 2642 C 241.156 -2.48043 2.43089 0
M  V30 2643 C 240.11 -2.3437 3.58127 0
M  V30 2644 C 239.436 -3.72026 3.84059 0
M  V30 2645 C 240.736 -1.80804 4.90007 0
M  V30 2646 H 242.43 -0.771102 2.893 0
M  V30 2647 H 239.976 -0.369479 1.39179 0
M  V30 2648 H 241.929 -3.20311 2.73823 0
M  V30 2649 H 240.653 -2.88122 1.53796 0
M  V30 2650 H 239.312 -1.64551 3.27595 0
M  V30 2651 H 238.96 -4.09582 2.91979 0
M  V30 2652 H 238.66 -3.63732 4.6149 0
M  V30 2653 H 240.184 -4.45806 4.1724 0
M  V30 2654 H 241.598 -2.42886 5.19307 0
M  V30 2655 H 239.995 -1.83343 5.71407 0
M  V30 2656 H 241.065 -0.76528 4.78823 0
M  V30 2657 N 242.408 -1.52605 -0.393616 0
M  V30 2658 C 243.636 -1.71294 -1.16043 0
M  V30 2659 C 244.051 -0.429259 -1.83855 0
M  V30 2660 O 243.408 0.595921 -1.72496 0
M  V30 2661 C 243.459 -2.8593 -2.21193 0
M  V30 2662 O 243.18 -4.09329 -1.56146 0
M  V30 2663 C 244.681 -3.16259 -3.10636 0
M  V30 2664 H 241.901 -0.573641 -0.348104 0
M  V30 2665 H 244.445 -1.99234 -0.461092 0
M  V30 2666 H 242.6 -2.60465 -2.86769 0
M  V30 2667 H 243.014 -4.73323 -2.25978 0
M  V30 2668 H 244.488 -3.99946 -3.80456 0
M  V30 2669 H 244.965 -2.3045 -3.73884 0
M  V30 2670 H 245.571 -3.43547 -2.50711 0
M  V30 2671 N 243.887 0.651787 -1.4349 0
M  V30 2672 C 244.817 1.77621 -1.51569 0
M  V30 2673 C 245.798 1.66022 -0.370253 0
M  V30 2674 O 246.983 1.85095 -0.587658 0
M  V30 2675 C 244.113 3.16056 -1.43966 0
M  V30 2676 C 243.067 3.4242 -2.56774 0
M  V30 2677 C 242.393 4.8067 -2.34223 0
M  V30 2678 C 243.693 3.37023 -3.99015 0
M  V30 2679 H 245.387 1.71117 -2.45681 0
M  V30 2680 H 242.933 0.821825 -1.18246 0
M  V30 2681 H 244.886 3.94472 -1.48221 0
M  V30 2682 H 243.61 3.23293 -0.463586 0
M  V30 2683 H 242.269 2.66375 -2.51873 0
M  V30 2684 H 241.917 4.84585 -1.34856 0
M  V30 2685 H 241.617 4.9927 -3.09844 0
M  V30 2686 H 243.141 5.61342 -2.40265 0
M  V30 2687 H 244.555 4.05374 -4.05395 0
M  V30 2688 H 242.952 3.67159 -4.74673 0
M  V30 2689 H 244.022 2.3518 -4.2405 0
M  V30 2690 N 245.365 1.30045 0.890287 0
M  V30 2691 C 246.297 1.11786 2.00091 0
M  V30 2692 C 247.31 0.0626307 1.62679 0
M  V30 2693 O 248.499 0.308112 1.75821 0
M  V30 2694 C 245.599 0.681527 3.31977 0
M  V30 2695 C 244.772 1.81735 3.97858 0
M  V30 2696 C 243.831 1.37045 5.08041 0
M  V30 2697 O 242.857 2.07677 5.29961 0
M  V30 2698 N 244.059 0.246525 5.79976 0
M  V30 2699 H 246.824 2.07441 2.16306 0
M  V30 2700 H 244.385 1.2211 1.06305 0
M  V30 2701 H 246.377 0.365675 4.03045 0
M  V30 2702 H 244.947 -0.182828 3.12065 0
M  V30 2703 H 244.167 2.30159 3.20032 0
M  V30 2704 H 245.455 2.57865 4.38615 0
M  V30 2705 H 244.853 -0.34215 5.64664 0
M  V30 2706 H 243.41 -0.00990438 6.51799 0
M  V30 2707 N 246.843 -1.10192 1.12674 0
M  V30 2708 C 247.753 -2.20172 0.810026 0
M  V30 2709 C 248.769 -1.72821 -0.202188 0
M  V30 2710 O 249.945 -2.01369 -0.0351691 0
M  V30 2711 C 247.01 -3.45631 0.272007 0
M  V30 2712 C 246.071 -4.07704 1.34447 0
M  V30 2713 C 245.304 -5.27175 0.832029 0
M  V30 2714 O 245.527 -5.69425 -0.333284 0
M  V30 2715 O 244.461 -5.80168 1.60277 0
M  V30 2716 H 248.287 -2.49701 1.72867 0
M  V30 2717 H 245.872 -1.18977 0.903597 0
M  V30 2718 H 247.754 -4.21394 -0.0230219 0
M  V30 2719 H 246.429 -3.17723 -0.619164 0
M  V30 2720 H 245.336 -3.33614 1.6927 0
M  V30 2721 H 246.669 -4.3982 2.2095 0
M  V30 2722 N 248.321 -0.919034 -1.28029 0
M  V30 2723 C 249.568 -0.554934 -1.94748 0
M  V30 2724 C 249.896 0.90231 -1.72304 0
M  V30 2725 O 249.151 1.65767 -1.04018 0
M  V30 2726 C 249.45 -0.816855 -3.4794 0
M  V30 2727 C 249.116 -2.25448 -3.90492 0
M  V30 2728 C 247.778 -2.64752 -4.01821 0
M  V30 2729 C 250.13 -3.18977 -4.12193 0
M  V30 2730 C 247.458 -3.96727 -4.32232 0
M  V30 2731 C 249.81 -4.50523 -4.44086 0
M  V30 2732 C 248.474 -4.89673 -4.53626 0
M  V30 2733 H 247.744 -0.203065 -0.712633 0
M  V30 2734 H 250.391 -1.16136 -1.52265 0
M  V30 2735 H 248.696 -0.127677 -3.91592 0
M  V30 2736 H 250.393 -0.514238 -3.97689 0
M  V30 2737 H 246.983 -1.93952 -3.82205 0
M  V30 2738 H 251.167 -2.89817 -4.02889 0
M  V30 2739 H 246.423 -4.26754 -4.37825 0
M  V30 2740 H 250.597 -5.23005 -4.59825 0
M  V30 2741 H 248.224 -5.91969 -4.76946 0
M  V30 2742 N 249.799 1.42003 -0.683588 0
M  V30 2743 C 250.731 2.29183 0.0283068 0
M  V30 2744 C 251.744 1.4415 0.756611 0
M  V30 2745 O 252.933 1.67779 0.609306 0
M  V30 2746 C 250.033 3.21765 1.06398 0
M  V30 2747 C 249.206 4.35496 0.407723 0
M  V30 2748 C 248.265 5.08737 1.34437 0
M  V30 2749 O 247.291 5.62948 0.841318 0
M  V30 2750 N 248.493 5.15075 2.67728 0
M  V30 2751 H 251.258 2.9092 -0.720105 0
M  V30 2752 H 248.819 1.53025 -0.528682 0
M  V30 2753 H 250.811 3.6763 1.69204 0
M  V30 2754 H 249.381 2.61418 1.71404 0
M  V30 2755 H 248.601 3.92165 -0.400012 0
M  V30 2756 H 249.889 5.08776 -0.0490956 0
M  V30 2757 H 249.287 4.72457 3.11129 0
M  V30 2758 H 247.844 5.64556 3.2576 0
M  V30 2759 N 251.277 0.427512 1.51691 0
M  V30 2760 C 252.187 -0.39527 2.31246 0
M  V30 2761 C 253.203 -1.03674 1.39742 0
M  V30 2762 O 254.379 -1.03425 1.72816 0
M  V30 2763 C 251.444 -1.48706 3.13189 0
M  V30 2764 C 250.505 -0.866743 4.20459 0
M  V30 2765 C 249.738 -1.90651 4.98486 0
M  V30 2766 O 249.961 -3.12733 4.77026 0
M  V30 2767 O 248.895 -1.5025 5.82845 0
M  V30 2768 H 252.721 0.253918 3.02637 0
M  V30 2769 H 250.306 0.190274 1.48183 0
M  V30 2770 H 252.188 -2.12047 3.64162 0
M  V30 2771 H 250.863 -2.12051 2.44573 0
M  V30 2772 H 249.77 -0.195544 3.73589 0
M  V30 2773 H 251.103 -0.276934 4.9142 0
M  V30 2774 N 252.755 -1.56801 0.158532 0
M  V30 2775 C 254.003 -1.96102 -0.488712 0
M  V30 2776 C 254.324 -1.04498 -1.64636 0
M  V30 2777 O 253.594 -0.108783 -1.95598 0
M  V30 2778 H 252.174 -0.724102 -0.183535 0
M  V30 2779 H 254.836 -1.93457 0.236728 0
M  V30 2780 H 253.932 -3.00097 -0.857219 0
M  V30 2781 N 254.233 0.115231 -1.57178 0
M  V30 2782 C 255.458 0.840354 -1.89612 0
M  V30 2783 C 255.883 1.72464 -0.750845 0
M  V30 2784 O 255.241 1.78826 0.298478 0
M  V30 2785 C 255.289 1.64654 -3.20814 0
M  V30 2786 O 254.393 2.7538 -3.06985 0
M  V30 2787 H 253.734 0.232158 -0.622092 0
M  V30 2788 H 256.264 0.0964977 -2.04372 0
M  V30 2789 H 256.274 2.03499 -3.53627 0
M  V30 2790 H 254.949 0.997416 -4.03763 0
M  V30 2791 H 253.526 2.3971 -2.85646 0
M  V30 2792 N 255.711 1.52812 0.385517 0
M  V30 2793 C 256.658 1.77838 1.47113 0
M  V30 2794 C 257.628 0.621757 1.54024 0
M  V30 2795 O 258.813 0.861846 1.70226 0
M  V30 2796 C 255.953 1.95618 2.84302 0
M  V30 2797 C 255.066 3.23316 2.86515 0
M  V30 2798 C 254.201 3.31394 4.15152 0
M  V30 2799 C 253.24 4.53201 4.1143 0
M  V30 2800 N 252.377 4.58542 5.3168 0
M  V30 2801 H 257.217 2.70482 1.25073 0
M  V30 2802 H 254.754 1.34006 0.606692 0
M  V30 2803 H 256.712 2.03912 3.63972 0
M  V30 2804 H 255.342 1.06331 3.04784 0
M  V30 2805 H 254.394 3.24076 1.99195 0
M  V30 2806 H 255.706 4.13045 2.79634 0
M  V30 2807 H 254.86 3.3889 5.03228 0
M  V30 2808 H 253.599 2.39645 4.24761 0
M  V30 2809 H 252.604 4.45827 3.21742 0
M  V30 2810 H 253.829 5.46271 4.03442 0
M  V30 2811 H 251.775 3.69686 5.41912 0
M  V30 2812 H 251.692 5.42148 5.26889 0
M  V30 2813 H 252.96 4.70296 6.21644 0
M  V30 2814 N 257.189 -0.644168 1.43834 0
M  V30 2815 C 258.152 -1.73857 1.49353 0
M  V30 2816 C 259.152 -1.56315 0.377112 0
M  V30 2817 O 260.342 -1.62048 0.639226 0
M  V30 2818 C 257.474 -3.12819 1.35488 0
M  V30 2819 H 258.667 -1.70342 2.46827 0
M  V30 2820 H 256.22 -0.856652 1.30733 0
M  V30 2821 H 256.955 -3.2194 0.390569 0
M  V30 2822 H 256.74 -3.26958 2.16428 0
M  V30 2823 H 258.23 -3.92606 1.42302 0
M  V30 2824 N 258.668 -1.30515 -0.883378 0
M  V30 2825 C 259.945 -1.10086 -1.6168 0
M  V30 2826 C 260.325 0.349269 -2.08191 0
M  V30 2827 O 259.673 1.34105 -1.85008 0
M  V30 2828 C 259.883 -2.10315 -2.78511 0
M  V30 2829 C 261.231 -2.42119 -3.48803 0
M  V30 2830 O 262.255 -2.08638 -2.88702 0
M  V30 2831 O 261.114 -2.99396 -4.57192 0
M  V30 2832 H 258.208 -0.422907 -0.710689 0
M  V30 2833 H 260.754 -1.41947 -0.930015 0
M  V30 2834 H 259.526 -3.07917 -2.41459 0
M  V30 2835 H 259.149 -1.79282 -3.54886 0
M  V30 2836 N 260.146 1.09593 -1.13257 0
M  V30 2837 C 261.557 1.63229 -0.906274 0
M  V30 2838 C 261.908 1.8811 0.557578 0
M  V30 2839 O 261.033 1.62953 1.42391 0
M  V30 2840 C 261.628 2.96535 -1.63867 0
M  V30 2841 C 260.187 3.47003 -1.45828 0
M  V30 2842 C 259.334 2.2145 -1.66898 0
M  V30 2843 H 262.285 0.92978 -1.28611 0
M  V30 2844 H 262.306 3.64411 -1.09476 0
M  V30 2845 H 261.818 2.78394 -2.70404 0
M  V30 2846 H 259.919 3.70272 -0.415848 0
M  V30 2847 H 260.032 4.24551 -2.2202 0
M  V30 2848 H 258.396 2.30022 -1.09371 0
M  V30 2849 H 259.179 2.0583 -2.74752 0
M  V30 2850 N 261.624 0.925811 1.2754 0
M  V30 2851 C 262.849 0.580924 1.99098 0
M  V30 2852 C 263.274 -0.833555 1.68622 0
M  V30 2853 O 262.632 -1.55903 0.925422 0
M  V30 2854 C 262.68 0.811186 3.51358 0
M  V30 2855 O 261.784 -0.124129 4.12213 0
M  V30 2856 H 261.125 0.223873 0.625122 0
M  V30 2857 H 263.655 1.24455 1.62395 0
M  V30 2858 H 263.665 0.72601 4.01489 0
M  V30 2859 H 262.34 1.84227 3.72872 0
M  V30 2860 H 260.917 0.0108006 3.72898 0
M  V30 2861 N 263.102 -1.41638 0.69111 0
M  V30 2862 C 264.351 -2.00526 0.217318 0
M  V30 2863 C 264.664 -1.55353 -1.18848 0
M  V30 2864 O 265.87 -2.06769 -1.75951 0
M  V30 2865 C 264.326 -3.58313 0.337639 0
M  V30 2866 C 263.934 -4.12469 1.74852 0
M  V30 2867 C 265.678 -4.24431 -0.0766066 0
M  V30 2868 C 263.585 -5.62675 1.82074 0
M  V30 2869 H 262.515 -0.750008 0.0774893 0
M  V30 2870 H 265.166 -1.6217 0.858661 0
M  V30 2871 H 263.548 -3.9425 -0.371879 0
M  V30 2872 H 264.722 -3.8796 2.48644 0
M  V30 2873 H 263.037 -3.58861 2.11205 0
M  V30 2874 H 265.634 -5.34683 -0.0430284 0
M  V30 2875 H 265.977 -4.01101 -1.1146 0
M  V30 2876 H 266.51 -3.93512 0.582476 0
M  V30 2877 H 263.249 -5.90826 2.83911 0
M  V30 2878 H 262.769 -5.89124 1.12661 0
M  V30 2879 H 264.448 -6.27371 1.58159 0
M  V30 2880 N 264.58 -0.43555 -1.51462 0
M  V30 2881 C 265.826 0.131709 -2.02372 0
M  V30 2882 C 266.159 1.42516 -1.3192 0
M  V30 2883 O 265.434 1.89606 -0.433573 0
M  V30 2884 C 265.717 0.352301 -3.58373 0
M  V30 2885 C 265.57 -0.959676 -4.39443 0
M  V30 2886 C 266.889 1.12286 -4.25535 0
M  V30 2887 H 264.008 0.0463936 -0.735538 0
M  V30 2888 H 266.65 -0.574197 -1.81116 0
M  V30 2889 H 264.8 0.9536 -3.76615 0
M  V30 2890 H 266.472 -1.59482 -4.32855 0
M  V30 2891 H 264.715 -1.56468 -4.04599 0
M  V30 2892 H 265.386 -0.759394 -5.46752 0
M  V30 2893 H 267.862 0.613545 -4.11552 0
M  V30 2894 H 266.738 1.24598 -5.34571 0
M  V30 2895 H 266.999 2.15048 -3.86273 0
M  V30 2896 N 266.058 1.56714 -0.166846 0
M  V30 2897 C 266.99 2.14914 0.796537 0
M  V30 2898 C 268.003 1.10357 1.19688 0
M  V30 2899 O 269.192 1.37561 1.13751 0
M  V30 2900 C 266.292 2.67326 2.08303 0
M  V30 2901 C 265.465 3.96493 1.84696 0
M  V30 2902 C 264.524 4.34014 2.97521 0
M  V30 2903 O 263.55 5.01973 2.6835 0
M  V30 2904 N 264.752 3.95208 4.25196 0
M  V30 2905 H 267.517 2.98205 0.299006 0
M  V30 2906 H 265.078 1.61892 0.0160839 0
M  V30 2907 H 267.07 2.89428 2.82867 0
M  V30 2908 H 265.64 1.88649 2.4926 0
M  V30 2909 H 264.86 3.82814 0.940602 0
M  V30 2910 H 266.148 4.8086 1.66285 0
M  V30 2911 H 265.546 3.40487 4.51758 0
M  V30 2912 H 264.103 4.2232 4.96477 0
M  V30 2913 N 267.536 -0.106894 1.57237 0
M  V30 2914 C 268.499 -1.11466 2.0027 0
M  V30 2915 C 269.499 -1.33623 0.894519 0
M  V30 2916 O 270.689 -1.29935 1.16028 0
M  V30 2917 C 267.821 -2.46646 2.35327 0
M  V30 2918 H 269.014 -0.744516 2.90512 0
M  V30 2919 H 266.567 -0.351576 1.52295 0
M  V30 2920 H 267.302 -2.88558 1.48003 0
M  V30 2921 H 267.087 -2.31915 3.16161 0
M  V30 2922 H 268.577 -3.19151 2.69318 0
M  V30 2923 N 269.014 -1.53014 -0.377408 0
M  V30 2924 C 269.944 -1.81589 -1.46791 0
M  V30 2925 C 270.925 -0.668622 -1.56408 0
M  V30 2926 O 272.11 -0.917337 -1.71168 0
M  V30 2927 C 269.24 -1.99519 -2.8427 0
M  V30 2928 C 268.194 -3.15249 -2.89486 0
M  V30 2929 C 267.52 -3.18451 -4.29527 0
M  V30 2930 C 268.82 -4.54084 -2.58079 0
M  V30 2931 H 270.514 -2.7291 -1.23127 0
M  V30 2932 H 268.06 -1.31319 -0.590883 0
M  V30 2933 H 270.013 -2.18092 -3.60575 0
M  V30 2934 H 268.737 -1.04897 -3.09296 0
M  V30 2935 H 267.396 -2.96477 -2.15631 0
M  V30 2936 H 267.044 -2.2149 -4.5161 0
M  V30 2937 H 266.744 -3.962 -4.33934 0
M  V30 2938 H 268.268 -3.39193 -5.07721 0
M  V30 2939 H 269.682 -4.72899 -3.24098 0
M  V30 2940 H 268.079 -5.33987 -2.7382 0
M  V30 2941 H 269.149 -4.60006 -1.53372 0
M  V30 2942 N 270.492 0.636531 -1.44174 0
M  V30 2943 C 271.717 1.42847 -1.50364 0
M  V30 2944 C 272.142 1.87665 -0.127867 0
M  V30 2945 O 271.5 1.58408 0.88185 0
M  V30 2946 C 271.548 2.62854 -2.4686 0
M  V30 2947 O 270.652 3.62501 -1.9664 0
M  V30 2948 H 269.993 0.427642 -0.507955 0
M  V30 2949 H 272.523 0.777422 -1.89255 0
M  V30 2950 H 272.533 3.10465 -2.64718 0
M  V30 2951 H 271.208 2.29578 -3.46795 0
M  V30 2952 H 269.785 3.21735 -1.88523 0
M  V30 2953 N 271.97 1.30982 0.876444 0
M  V30 2954 C 272.9 1.20668 1.99903 0
M  V30 2955 C 273.881 0.095354 1.69833 0
M  V30 2956 O 275.066 0.27885 1.92188 0
M  V30 2957 C 272.196 0.90655 3.3526 0
M  V30 2958 C 271.15 1.97675 3.79617 0
M  V30 2959 C 270.476 1.52943 5.1236 0
M  V30 2960 C 271.776 3.389 3.97422 0
M  V30 2961 H 273.47 2.14586 2.0879 0
M  V30 2962 H 271.016 1.03308 1.00317 0
M  V30 2963 H 272.969 0.821025 4.13324 0
M  V30 2964 H 271.693 -0.0682969 3.26529 0
M  V30 2965 H 270.352 2.05205 3.03787 0
M  V30 2966 H 270 0.54262 5.00065 0
M  V30 2967 H 269.7 2.24532 5.43009 0
M  V30 2968 H 271.224 1.45786 5.92941 0
M  V30 2969 H 272.638 3.34081 4.659 0
M  V30 2970 H 271.035 4.0865 4.3946 0
M  V30 2971 H 272.105 3.80163 3.01006 0
M  V30 2972 N 273.449 -1.08991 1.13837 0
M  V30 2973 C 274.679 -1.84743 0.924859 0
M  V30 2974 C 275.087 -1.81629 -0.529874 0
M  V30 2975 O 274.43 -1.21397 -1.37872 0
M  V30 2976 C 274.492 -3.33568 1.34061 0
M  V30 2977 C 274.156 -3.60425 2.80968 0
M  V30 2978 C 275.153 -3.55771 3.79108 0
M  V30 2979 C 272.838 -3.88627 3.18236 0
M  V30 2980 C 274.832 -3.78939 5.12527 0
M  V30 2981 C 272.519 -4.11449 4.51833 0
M  V30 2982 C 273.517 -4.06598 5.48787 0
M  V30 2983 O 273.205 -4.28826 6.79973 0
M  V30 2984 H 272.937 -0.590258 0.329502 0
M  V30 2985 H 275.491 -1.38598 1.51591 0
M  V30 2986 H 273.721 -3.80442 0.692853 0
M  V30 2987 H 275.41 -3.90743 1.09886 0
M  V30 2988 H 276.176 -3.34005 3.51661 0
M  V30 2989 H 272.055 -3.91526 2.43369 0
M  V30 2990 H 275.599 -3.75068 5.88192 0
M  V30 2991 H 271.496 -4.32698 4.79002 0
M  V30 2992 H 272.264 -4.46264 6.86142 0
M  V30 2993 N 274.927 -0.932562 -1.27047 0
M  V30 2994 C 276.204 -0.49377 -1.89265 0
M  V30 2995 C 276.584 1.02833 -1.8436 0
M  V30 2996 O 275.932 1.88461 -1.29209 0
M  V30 2997 C 276.142 -1.04536 -3.32976 0
M  V30 2998 C 277.49 -1.10879 -4.09867 0
M  V30 2999 O 278.514 -0.995327 -3.42011 0
M  V30 3000 O 277.373 -1.28417 -5.31198 0
M  V30 3001 H 274.467 -0.159596 -0.811454 0
M  V30 3002 H 277.013 -1.02457 -1.3528 0
M  V30 3003 H 275.785 -2.08913 -3.30864 0
M  V30 3004 H 275.408 -0.496494 -3.94488 0
M  V30 3005 N 276.405 1.4127 -0.698611 0
M  V30 3006 C 277.653 2.00782 -0.230409 0
M  V30 3007 C 277.974 1.5562 1.17505 0
M  V30 3008 O 277.244 0.78815 1.79346 0
M  V30 3009 H 275.824 0.742464 -0.0821944 0
M  V30 3010 H 278.486 1.72852 -0.90045 0
M  V30 3011 H 277.582 3.11095 -0.25021 0
M  V30 3012 N 277.883 0.443576 1.51229 0
M  V30 3013 C 278.813 -0.355142 2.30783 0
M  V30 3014 C 279.794 -1.0154 1.36468 0
M  V30 3015 O 280.979 -1.01785 1.65389 0
M  V30 3016 C 278.109 -1.45312 3.15439 0
M  V30 3017 C 277.063 -0.916002 4.18083 0
M  V30 3018 C 276.389 -2.1102 4.91299 0
M  V30 3019 C 277.689 0.0538602 5.22272 0
M  V30 3020 H 279.383 0.308767 2.97804 0
M  V30 3021 H 276.929 0.149937 1.43217 0
M  V30 3022 H 278.882 -2.01914 3.69876 0
M  V30 3023 H 277.606 -2.14541 2.46252 0
M  V30 3024 H 276.265 -0.372145 3.64706 0
M  V30 3025 H 275.913 -2.78882 4.18609 0
M  V30 3026 H 275.613 -1.75717 5.60712 0
M  V30 3027 H 277.137 -2.68164 5.48562 0
M  V30 3028 H 278.551 -0.422069 5.71744 0
M  V30 3029 H 276.948 0.319776 5.99247 0
M  V30 3030 H 278.018 0.98858 4.74716 0
M  V30 3031 N 279.361 -1.56624 0.175154 0
M  V30 3032 C 280.607 -1.9729 -0.469506 0
M  V30 3033 C 280.94 -1.06128 -1.62636 0
M  V30 3034 O 280.215 -0.109183 -1.94193 0
M  V30 3035 C 280.498 -3.47375 -0.948804 0
M  V30 3036 C 280.351 -4.49317 0.208491 0
M  V30 3037 C 281.67 -4.00652 -1.82116 0
M  V30 3038 H 278.789 -0.717317 -0.16919 0
M  V30 3039 H 281.431 -1.88184 0.262062 0
M  V30 3040 H 279.581 -3.55267 -1.57219 0
M  V30 3041 H 281.253 -4.53482 0.845682 0
M  V30 3042 H 279.496 -4.25121 0.863395 0
M  V30 3043 H 280.167 -5.51741 -0.169059 0
M  V30 3044 H 282.643 -3.95416 -1.2956 0
M  V30 3045 H 281.519 -5.06075 -2.12554 0
M  V30 3046 H 281.78 -3.44699 -2.7683 0
M  V30 3047 O 280.878 -0.0374081 -1.61457 0
M  V30 3048 H 281.569 0.573968 -1.85001 0
M  V30 END ATOM
M  V30 BEGIN BOND
M  V30 END BOND
M  V30 END CTAB
M  END
$$$$
