drugbank_target|P62269 40S ribosomal protein S18 (DB11638)
 OpenBabel12092121093D

  0  0  0     0  0            999 V3000
M  V30 BEGIN CTAB
M  V30 COUNTS 2576 2594 0 0 0
M  V30 BEGIN ATOM
M  V30 1 H -0.908 1.98254 -0.117106 0
M  V30 2 N 0 1.576 0 0
M  V30 3 C 0.933 2.03868 1.02534 0
M  V30 4 C 1.911 0.928543 1.3348 0
M  V30 5 O 3.095 1.19667 1.45644 0
M  V30 6 C 0.222 2.43627 2.35294 0
M  V30 7 C -0.732 3.65373 2.2001 0
M  V30 8 S 0.101 5.13292 1.52614 0
M  V30 9 C 1.257 5.56322 2.86805 0
M  V30 10 H 1.49 2.90518 0.631377 0
M  V30 11 H -0.977 1.52953 0.210867 0
M  V30 12 H 0.981 2.67203 3.11629 0
M  V30 13 H -0.358 1.57376 2.7183 0
M  V30 14 H -1.165 3.90944 3.18086 0
M  V30 15 H -1.563 3.418 1.51819 0
M  V30 16 H 0.729 5.58782 3.83104 0
M  V30 17 H 1.672 6.56266 2.65933 0
M  V30 18 H 2.08 4.83886 2.90714 0
M  V30 19 N 1.4781 -0.272755 1.55222 0
M  V30 20 C 2.7031 -1.02683 1.80197 0
M  V30 21 C 3.1281 -1.79142 0.573551 0
M  V30 22 O 2.4861 -1.74917 -0.476849 0
M  V30 23 C 2.5341 -1.9609 3.02624 0
M  V30 24 O 1.6381 -3.04863 2.77727 0
M  V30 25 H 0.9791 -0.293557 0.595584 0
M  V30 26 H 3.5091 -0.30159 2.02365 0
M  V30 27 H 3.5191 -2.38039 3.31363 0
M  V30 28 H 2.1941 -1.39851 3.91682 0
M  V30 29 H 0.7711 -2.67228 2.60084 0
M  V30 30 N 2.9562 -1.48159 -0.537278 0
M  V30 31 C 3.8862 -1.65029 -1.6519 0
M  V30 32 C 4.8672 -0.499281 -1.62607 0
M  V30 33 O 6.0522 -0.730972 -1.79918 0
M  V30 34 C 3.1822 -1.68303 -3.03795 0
M  V30 35 C 2.1362 -2.8283 -3.21234 0
M  V30 36 C 1.4622 -2.71189 -4.60826 0
M  V30 37 C 2.7622 -4.24211 -3.04701 0
M  V30 38 H 4.4562 -2.58341 -1.51328 0
M  V30 39 H 2.0022 -1.24325 -0.726585 0
M  V30 40 H 3.9552 -1.78693 -3.81637 0
M  V30 41 H 2.6792 -0.715635 -3.18663 0
M  V30 42 H 1.3382 -2.71983 -2.45807 0
M  V30 43 H 0.9862 -1.72435 -4.7252 0
M  V30 44 H 0.6862 -3.48035 -4.7344 0
M  V30 45 H 2.2102 -2.83537 -5.40777 0
M  V30 46 H 3.6242 -4.3593 -3.72341 0
M  V30 47 H 2.0212 -5.01998 -3.28813 0
M  V30 48 H 3.0912 -4.41184 -2.01209 0
M  V30 49 N 4.4343 0.785586 -1.36625 0
M  V30 50 C 5.6803 1.54591 -1.31261 0
M  V30 51 C 6.0133 1.93906 0.106823 0
M  V30 52 O 5.2883 1.63007 1.06108 0
M  V30 53 C 5.5713 2.82038 -2.23889 0
M  V30 54 C 5.4243 2.49066 -3.74548 0
M  V30 55 C 6.7433 3.83887 -2.15217 0
M  V30 56 H 3.8623 0.560846 -0.478143 0
M  V30 57 H 6.5043 0.902278 -1.67209 0
M  V30 58 H 4.6543 3.36961 -1.93363 0
M  V30 59 H 6.3263 2.00164 -4.15611 0
M  V30 60 H 4.5693 1.81954 -3.93796 0
M  V30 61 H 5.2403 3.40109 -4.34776 0
M  V30 62 H 7.7163 3.38421 -2.42096 0
M  V30 63 H 6.5923 4.70806 -2.82193 0
M  V30 64 H 6.8533 4.27131 -1.14068 0
M  V30 65 N 5.9124 1.20967 1.01018 0
M  V30 66 C 7.1614 1.01796 1.74128 0
M  V30 67 C 7.4744 -0.449691 1.90361 0
M  V30 68 O 8.6804 -0.76068 2.60626 0
M  V30 69 C 7.1364 1.7727 3.13215 0
M  V30 70 C 6.7444 3.28171 3.04972 0
M  V30 71 C 8.4884 1.66489 3.90489 0
M  V30 72 C 6.3954 3.96156 4.39107 0
M  V30 73 H 5.3254 0.377276 0.652824 0
M  V30 74 H 7.9764 1.44651 1.12909 0
M  V30 75 H 6.3584 1.27205 3.75013 0
M  V30 76 H 7.5324 3.85499 2.52443 0
M  V30 77 H 5.8474 3.39437 2.41188 0
M  V30 78 H 8.4444 2.14617 4.89738 0
M  V30 79 H 8.7874 0.6222 4.11624 0
M  V30 80 H 9.3204 2.14003 3.35332 0
M  V30 81 H 6.0594 5.00604 4.23174 0
M  V30 82 H 5.5794 3.43617 4.91617 0
M  V30 83 H 7.2584 4.00774 5.07926 0
M  V30 84 N 7.3905 -1.2043 1.01659 0
M  V30 85 C 8.8015 -1.71517 0.737482 0
M  V30 86 C 9.1525 -1.81547 -0.743973 0
M  V30 87 O 8.2775 -1.47803 -1.58061 0
M  V30 88 C 8.8725 -3.11515 1.33206 0
M  V30 89 C 7.4315 -3.59912 1.10183 0
M  V30 90 C 6.5785 -2.37116 1.43776 0
M  V30 91 H 9.5295 -1.05444 1.18606 0
M  V30 92 H 9.5505 -3.73575 0.722636 0
M  V30 93 H 9.0625 -3.04182 2.41028 0
M  V30 94 H 7.1635 -3.72577 0.0412756 0
M  V30 95 H 7.2765 -4.44731 1.78188 0
M  V30 96 H 5.6405 -2.39857 0.856778 0
M  V30 97 H 6.4235 -2.32424 2.52654 0
M  V30 98 N 8.8686 -0.792821 -1.36206 0
M  V30 99 C 9.7786 -0.194808 -2.3379 0
M  V30 100 C 10.7946 0.654869 -1.61206 0
M  V30 101 O 11.9706 0.569856 -1.9317 0
M  V30 102 C 9.0356 0.657721 -3.40404 0
M  V30 103 C 8.0966 -0.210849 -4.28782 0
M  V30 104 C 7.3296 0.601086 -5.30304 0
M  V30 105 O 7.5526 1.83682 -5.40016 0
M  V30 106 O 6.4866 -0.000808277 -6.019 0
M  V30 107 H 10.3126 -1.00172 -2.86704 0
M  V30 108 H 7.8976 -0.554341 -1.38735 0
M  V30 109 H 9.7796 1.14375 -4.05581 0
M  V30 110 H 8.4546 1.44247 -2.89784 0
M  V30 111 H 7.3616 -0.743714 -3.66633 0
M  V30 112 H 8.6946 -0.959195 -4.82763 0
M  V30 113 N 10.3467 1.47872 -0.545128 0
M  V30 114 C 11.2937 2.29849 0.2093 0
M  V30 115 C 12.2637 1.38313 0.919707 0
M  V30 116 O 13.4487 1.67277 0.917772 0
M  V30 117 C 10.5887 3.22019 1.24088 0
M  V30 118 C 9.7017 4.2864 0.537778 0
M  V30 119 C 8.8367 5.07973 1.5536 0
M  V30 120 C 7.8757 6.06381 0.8348 0
M  V30 121 N 7.0127 6.78717 1.79688 0
M  V30 122 H 11.8527 2.93845 -0.49591 0
M  V30 123 H 9.3897 1.44848 -0.256389 0
M  V30 124 H 11.3477 3.73868 1.85144 0
M  V30 125 H 9.9777 2.59914 1.91428 0
M  V30 126 H 9.0297 3.7994 -0.187046 0
M  V30 127 H 10.3417 4.98793 -0.0258907 0
M  V30 128 H 9.4957 5.63912 2.23803 0
M  V30 129 H 8.2347 4.37693 2.15118 0
M  V30 130 H 7.2397 5.49631 0.136388 0
M  V30 131 H 8.4647 6.78665 0.24313 0
M  V30 132 H 6.4107 6.11177 2.38326 0
M  V30 133 H 6.3277 7.44998 1.28505 0
M  V30 134 H 7.5957 7.39237 2.47282 0
M  V30 135 N 11.8248 0.280983 1.55075 0
M  V30 136 C 13.0718 -0.334115 1.99725 0
M  V30 137 C 13.3998 -1.5542 1.1694 0
M  V30 138 O 12.6548 -1.94361 0.228531 0
M  V30 139 C 12.9538 -0.754656 3.49342 0
M  V30 140 C 12.6198 0.361445 4.49449 0
M  V30 141 C 11.2818 0.667893 4.76542 0
M  V30 142 C 13.6338 1.11322 5.09173 0
M  V30 143 C 10.9618 1.7296 5.60626 0
M  V30 144 C 13.3138 2.1647 5.9441 0
M  V30 145 C 11.9778 2.47742 6.19822 0
M  V30 146 H 11.2478 -0.122261 0.730844 0
M  V30 147 H 13.8948 0.395917 1.87363 0
M  V30 148 H 12.1998 -1.56446 3.5921 0
M  V30 149 H 13.8968 -1.24142 3.813 0
M  V30 150 H 10.4868 0.112481 4.28452 0
M  V30 151 H 14.6708 0.88973 4.8826 0
M  V30 152 H 9.9268 1.97684 5.78559 0
M  V30 153 H 14.1008 2.75193 6.3972 0
M  V30 154 H 11.7278 3.30145 6.84769 0
M  V30 155 N 13.3029 -1.57598 0.00835791 0
M  V30 156 C 14.2349 -2.05811 -1.00868 0
M  V30 157 C 15.2479 -0.977579 -1.30182 0
M  V30 158 O 16.4369 -1.25421 -1.27011 0
M  V30 159 C 13.5369 -2.45016 -2.34137 0
M  V30 160 C 12.7099 -3.75903 -2.23643 0
M  V30 161 C 11.7689 -4.01884 -3.3967 0
M  V30 162 O 10.7949 -4.72433 -3.17483 0
M  V30 163 N 11.9969 -3.50432 -4.62793 0
M  V30 164 H 14.7619 -2.93684 -0.597458 0
M  V30 165 H 12.3229 -1.60909 -0.178852 0
M  V30 166 H 14.3149 -2.59506 -3.10546 0
M  V30 167 H 12.8849 -1.62618 -2.66972 0
M  V30 168 H 12.1049 -3.7141 -1.32091 0
M  V30 169 H 13.3929 -4.61695 -2.13812 0
M  V30 170 H 12.7909 -2.93317 -4.83716 0
M  V30 171 H 11.3479 -3.70236 -5.3644 0
M  V30 172 N 14.781 0.264519 -1.55364 0
M  V30 173 C 15.731 1.32966 -1.85214 0
M  V30 174 C 16.715 1.44306 -0.711653 0
M  V30 175 O 17.907 1.47844 -0.973192 0
M  V30 176 C 15.036 2.68839 -2.13495 0
M  V30 177 C 14.122 2.61575 -3.33825 0
M  V30 178 N 14.513 2.23933 -4.53528 0
M  V30 179 C 12.811 2.92621 -3.36584 0
M  V30 180 C 13.512 2.26868 -5.35636 0
M  V30 181 N 12.488 2.65677 -4.74254 0
M  V30 182 H 16.29 1.02884 -2.75304 0
M  V30 183 H 13.804 0.473157 -1.55354 0
M  V30 184 H 15.801 3.45685 -2.33039 0
M  V30 185 H 14.461 2.99802 -1.24694 0
M  V30 186 H 15.472 1.95769 -4.79474 0
M  V30 187 H 12.149 3.2824 -2.58002 0
M  V30 188 H 13.539 2.00254 -6.41364 0
M  V30 189 N 16.2591 1.48442 0.529413 0
M  V30 190 C 17.5081 1.55742 1.28169 0
M  V30 191 C 17.8211 0.236511 1.94165 0
M  V30 192 O 19.0271 0.187761 2.7085 0
M  V30 193 C 17.4831 2.74667 2.32564 0
M  V30 194 C 17.0911 4.13402 1.72636 0
M  V30 195 C 18.8351 2.9128 3.08798 0
M  V30 196 C 16.7421 5.23587 2.74975 0
M  V30 197 H 15.6721 0.579796 0.48203 0
M  V30 198 H 18.3231 1.74776 0.559056 0
M  V30 199 H 16.7051 2.49067 3.07866 0
M  V30 200 H 17.8791 4.49022 1.03519 0
M  V30 201 H 16.1941 4.0191 1.08892 0
M  V30 202 H 18.7911 3.70767 3.85274 0
M  V30 203 H 19.1341 2.00757 3.64695 0
M  V30 204 H 19.6671 3.16782 2.40611 0
M  V30 205 H 16.4061 6.16076 2.23897 0
M  V30 206 H 15.9261 4.92454 3.42417 0
M  V30 207 H 17.6051 5.51724 3.37949 0
M  V30 208 N 17.7372 -0.778329 1.37039 0
M  V30 209 C 18.6672 -1.90546 1.34962 0
M  V30 210 C 19.6482 -1.68681 0.219274 0
M  V30 211 O 20.8332 -1.89634 0.418624 0
M  V30 212 C 17.9632 -3.27734 1.14925 0
M  V30 213 C 16.9172 -3.64147 2.24902 0
M  V30 214 C 16.2432 -4.99806 1.89996 0
M  V30 215 C 17.5432 -3.71579 3.67051 0
M  V30 216 H 19.2372 -1.92541 2.29277 0
M  V30 217 H 16.7832 -0.924948 1.10366 0
M  V30 218 H 18.7362 -4.06215 1.12104 0
M  V30 219 H 17.4602 -3.26154 0.170631 0
M  V30 220 H 16.1192 -2.8797 2.26868 0
M  V30 221 H 15.7672 -4.94759 0.906796 0
M  V30 222 H 15.4672 -5.25139 2.63634 0
M  V30 223 H 16.9912 -5.80694 1.88749 0
M  V30 224 H 18.4052 -4.40227 3.67251 0
M  V30 225 H 16.8022 -4.08405 4.39688 0
M  V30 226 H 17.8722 -2.72404 4.01154 0
M  V30 227 N 19.2153 -1.21501 -1.00376 0
M  V30 228 C 20.6313 -0.972629 -1.26539 0
M  V30 229 C 20.8313 0.340257 -1.98606 0
M  V30 230 O 19.8873 1.06561 -2.28913 0
M  V30 231 C 21.2003 -2.16404 -2.08781 0
M  V30 232 C 22.7483 -2.20643 -2.22004 0
M  V30 233 C 23.2233 -3.39306 -3.07629 0
M  V30 234 N 24.7143 -3.39401 -3.15217 0
M  V30 235 C 25.4493 -4.27867 -3.81729 0
M  V30 236 N 24.9453 -5.26533 -4.5026 0
M  V30 237 N 26.7383 -4.15672 -3.78382 0
M  V30 238 H 18.8893 -2.05929 -0.520281 0
M  V30 239 H 21.1523 -0.901803 -0.292328 0
M  V30 240 H 20.8583 -3.11554 -1.63178 0
M  V30 241 H 20.7323 -2.15567 -3.09533 0
M  V30 242 H 23.1193 -1.26048 -2.66825 0
M  V30 243 H 23.2003 -2.25523 -1.20718 0
M  V30 244 H 22.8443 -4.34195 -2.63509 0
M  V30 245 H 22.7743 -3.31665 -4.09031 0
M  V30 246 H 25.2653 -2.67997 -2.66432 0
M  V30 247 H 25.5783 -5.90337 -4.98721 0
M  V30 248 H 23.9233 -5.30457 -4.49044 0
M  V30 249 H 27.1143 -3.3785 -3.23998 0
M  V30 250 H 27.2873 -4.84825 -4.2994 0
M  V30 251 N 20.6934 1.19889 -1.02296 0
M  V30 252 C 21.9394 1.89701 -0.717033 0
M  V30 253 C 22.2724 1.7905 0.751989 0
M  V30 254 O 21.5474 1.17891 1.547 0
M  V30 255 C 21.8304 3.40858 -1.16136 0
M  V30 256 C 21.6834 3.60411 -2.69117 0
M  V30 257 C 23.0024 4.33876 -0.737549 0
M  V30 258 H 20.1214 0.688874 -0.261957 0
M  V30 259 H 22.7634 1.41154 -1.27183 0
M  V30 260 H 20.9134 3.82335 -0.689342 0
M  V30 261 H 22.5854 3.28145 -3.2422 0
M  V30 262 H 20.8284 3.03665 -3.0979 0
M  V30 263 H 21.4994 4.66396 -2.95261 0
M  V30 264 H 23.9754 4.00081 -1.14344 0
M  V30 265 H 22.8514 5.38242 -1.0764 0
M  V30 266 H 23.1124 4.40628 0.360436 0
M  V30 267 N 22.1715 0.800033 1.35784 0
M  V30 268 C 23.1015 0.220184 2.3246 0
M  V30 269 C 24.0825 -0.65073 1.57161 0
M  V30 270 O 25.2675 -0.582359 1.85263 0
M  V30 271 C 22.3975 -0.637353 3.41402 0
M  V30 272 C 21.3515 0.134531 4.27789 0
M  V30 273 C 20.6775 -0.844285 5.27992 0
M  V30 274 C 21.9775 1.32979 5.05088 0
M  V30 275 H 23.6715 1.02787 2.81203 0
M  V30 276 H 21.2175 0.495717 1.35199 0
M  V30 277 H 23.1705 -1.05302 4.08031 0
M  V30 278 H 21.8945 -1.47785 2.91251 0
M  V30 279 H 20.5535 0.531296 3.6273 0
M  V30 280 H 20.2015 -1.68011 4.74111 0
M  V30 281 H 19.9015 -0.332184 5.8666 0
M  V30 282 H 21.4255 -1.2583 5.97494 0
M  V30 283 H 22.8395 0.98934 5.64699 0
M  V30 284 H 21.2365 1.77593 5.7322 0
M  V30 285 H 22.3065 2.11978 4.36111 0
M  V30 286 N 23.6496 -1.47581 0.552962 0
M  V30 287 C 24.5976 -2.31648 -0.21023 0
M  V30 288 C 25.5916 -1.42663 -0.913432 0
M  V30 289 O 26.7976 -1.5945 -0.835201 0
M  V30 290 H 23.1726 -0.746989 -0.0866676 0
M  V30 291 H 25.1436 -2.93869 0.518051 0
M  V30 292 C 23.8926 -3.25226 -1.22976 0
M  V30 293 H 23.2156 -3.93658 -0.698077 0
M  V30 294 H 24.6556 -3.86889 -1.73473 0
M  V30 295 C 23.1146 -2.48448 -2.27542 0
M  V30 296 O 23.6446 -2.22585 -3.34393 0
M  V30 297 N 21.8506 -2.09532 -2.01357 0
M  V30 298 H 21.3976 -2.30765 -1.14478 0
M  V30 299 H 21.3556 -1.58476 -2.71538 0
M  V30 300 N 25.1277 -0.289203 -1.54924 0
M  V30 301 C 26.3557 0.326463 -2.04308 0
M  V30 302 C 26.7707 1.48413 -1.16701 0
M  V30 303 O 26.1277 1.81507 -0.190087 0
M  V30 304 C 26.1787 0.794014 -3.52672 0
M  V30 305 O 25.8997 -0.317564 -4.36948 0
M  V30 306 C 27.4007 1.47605 -4.18004 0
M  V30 307 H 24.6207 0.0726272 -0.667058 0
M  V30 308 H 27.1647 -0.425401 -2.00026 0
M  V30 309 H 25.3197 1.49593 -3.57352 0
M  V30 310 H 25.7337 0.0443186 -5.24481 0
M  V30 311 H 27.2077 1.75447 -5.23376 0
M  V30 312 H 27.6847 2.41224 -3.67025 0
M  V30 313 H 28.2907 0.81762 -4.17367 0
M  V30 314 N 26.6058 1.57591 -0.0167156 0
M  V30 315 C 27.5538 2.10604 0.987353 0
M  V30 316 C 28.5478 1.02977 1.34507 0
M  V30 317 O 29.7538 1.21425 1.32875 0
M  V30 318 H 26.1288 0.672695 0.336134 0
M  V30 319 H 28.0998 2.93925 0.514817 0
M  V30 320 C 26.8488 2.6382 2.26483 0
M  V30 321 H 26.1718 3.46278 1.99829 0
M  V30 322 H 27.6118 3.04573 2.94977 0
M  V30 323 C 26.0708 1.55992 2.9861 0
M  V30 324 O 26.6008 0.952521 3.90243 0
M  V30 325 N 24.8068 1.28335 2.60727 0
M  V30 326 H 24.3538 1.77914 1.86291 0
M  V30 327 H 24.3118 0.564115 3.09298 0
M  V30 328 N 28.0839 -0.256276 1.55502 0
M  V30 329 C 29.3329 -0.983486 1.76098 0
M  V30 330 C 29.6459 -1.86837 0.578896 0
M  V30 331 O 30.8519 -2.63163 0.667648 0
M  V30 332 C 29.3079 -1.79868 3.1173 0
M  V30 333 C 28.9159 -0.961648 4.37557 0
M  V30 334 C 30.6599 -2.51919 3.41668 0
M  V30 335 C 28.5669 -1.77219 5.64223 0
M  V30 336 H 27.4969 -0.370936 0.656447 0
M  V30 337 H 30.1479 -0.238492 1.81944 0
M  V30 338 H 28.5299 -2.58527 2.99966 0
M  V30 339 H 29.7039 -0.218048 4.60284 0
M  V30 340 H 28.0189 -0.354913 4.14885 0
M  V30 341 H 30.6159 -3.12998 4.33516 0
M  V30 342 H 30.9589 -3.23059 2.62562 0
M  V30 343 H 31.4919 -1.80278 3.54605 0
M  V30 344 H 28.2309 -1.10471 6.46124 0
M  V30 345 H 27.7509 -2.49132 5.45613 0
M  V30 346 H 29.4299 -2.34169 6.03137 0
M  V30 347 N 29.562 -1.4872 -0.521534 0
M  V30 348 C 30.839 -1.4766 -1.2828 0
M  V30 349 C 31.219 -0.19292 -2.10217 0
M  V30 350 O 30.567 0.825193 -2.13079 0
M  V30 351 C 30.777 -2.74358 -2.15705 0
M  V30 352 C 32.125 -3.23028 -2.75569 0
M  V30 353 O 33.149 -2.75333 -2.25987 0
M  V30 354 O 32.008 -4.0604 -3.65778 0
M  V30 355 H 29.102 -0.590085 -0.579421 0
M  V30 356 H 31.648 -1.60963 -0.537492 0
M  V30 357 H 30.42 -3.59292 -1.54999 0
M  V30 358 H 30.043 -2.63816 -2.97467 0
M  V30 359 N 31.0401 0.771051 -1.3745 0
M  V30 360 C 32.2881 1.52661 -1.32435 0
M  V30 361 C 32.6091 1.9479 0.0905024 0
M  V30 362 O 31.8791 1.66348 1.03466 0
M  V30 363 H 30.4591 0.566218 -0.487244 0
M  V30 364 H 33.1211 0.917636 -1.71946 0
M  V30 365 H 32.2171 2.42568 -1.96385 0
M  V30 366 N 32.5182 1.22032 0.997298 0
M  V30 367 C 33.9342 0.979326 1.26021 0
M  V30 368 C 34.1342 -0.32972 1.98784 0
M  V30 369 O 33.1902 -1.05345 2.29475 0
M  V30 370 C 34.5032 2.17509 2.07631 0
M  V30 371 C 36.0512 2.21817 2.2083 0
M  V30 372 C 36.5262 3.40933 3.05825 0
M  V30 373 N 38.0172 3.41067 3.13412 0
M  V30 374 C 38.7522 4.29885 3.79455 0
M  V30 375 N 38.2482 5.28914 4.47462 0
M  V30 376 N 40.0412 4.17673 3.76173 0
M  V30 377 H 32.1922 2.06202 0.509352 0
M  V30 378 H 34.4552 0.90334 0.287541 0
M  V30 379 H 34.1612 3.12415 1.61524 0
M  V30 380 H 34.0352 2.17206 3.08385 0
M  V30 381 H 36.4222 1.27462 2.66153 0
M  V30 382 H 36.5032 2.2616 1.1952 0
M  V30 383 H 36.1472 4.35586 2.61203 0
M  V30 384 H 36.0772 3.33829 4.07266 0
M  V30 385 H 38.5682 2.69406 2.65007 0
M  V30 386 H 38.8812 5.92973 4.95583 0
M  V30 387 H 37.2262 5.32831 4.46224 0
M  V30 388 H 40.4172 3.39564 3.22202 0
M  V30 389 H 40.5902 4.87098 4.27363 0
M  V30 390 N 33.9963 -1.19345 1.0293 0
M  V30 391 C 35.4123 -1.41069 0.746446 0
M  V30 392 C 35.6123 -1.90078 -0.668776 0
M  V30 393 O 34.6683 -2.0778 -1.4347 0
M  V30 394 C 35.9813 -2.42141 1.78292 0
M  V30 395 C 37.5293 -2.55887 1.80252 0
M  V30 396 C 38.0043 -3.60214 2.8286 0
M  V30 397 N 39.4953 -3.67711 2.81679 0
M  V30 398 C 40.2303 -4.48128 3.57727 0
M  V30 399 N 39.7263 -5.32248 4.43491 0
M  V30 400 N 41.5193 -4.42782 3.46267 0
M  V30 401 H 33.6703 -0.858536 1.94275 0
M  V30 402 H 35.9333 -0.439541 0.839945 0
M  V30 403 H 35.6393 -2.13155 2.79746 0
M  V30 404 H 35.5133 -3.41323 1.60557 0
M  V30 405 H 37.9003 -2.84196 0.794757 0
M  V30 406 H 37.9813 -1.56858 2.02062 0
M  V30 407 H 37.6253 -3.32647 3.83807 0
M  V30 408 H 37.5553 -4.58895 2.58307 0
M  V30 409 H 40.0463 -3.07634 2.19476 0
M  V30 410 H 40.3593 -5.90729 4.98256 0
M  V30 411 H 38.7043 -5.31707 4.47564 0
M  V30 412 H 41.8953 -3.76107 2.78677 0
M  V30 413 H 42.0683 -5.05215 4.05785 0
M  V30 414 N 35.4744 -0.807222 -1.35358 0
M  V30 415 C 36.4214 -0.216037 -2.29787 0
M  V30 416 C 37.3914 0.650278 -1.52842 0
M  V30 417 O 38.5764 0.595227 -1.81278 0
M  V30 418 C 35.7164 0.628893 -3.39321 0
M  V30 419 C 34.8294 -0.257927 -4.31229 0
M  V30 420 C 33.9644 0.595069 -5.27856 0
M  V30 421 C 33.0034 -0.292111 -6.11403 0
M  V30 422 N 32.1404 0.520895 -7.00165 0
M  V30 423 H 36.9804 -1.02671 -2.79755 0
M  V30 424 H 34.5174 -0.517839 -1.37684 0
M  V30 425 H 36.4754 1.13393 -4.01494 0
M  V30 426 H 35.1054 1.40482 -2.90628 0
M  V30 427 H 34.1574 -0.881076 -3.70056 0
M  V30 428 H 35.4694 -0.940759 -4.89848 0
M  V30 429 H 34.6234 1.16522 -5.95405 0
M  V30 430 H 33.3624 1.31146 -4.69736 0
M  V30 431 H 32.3674 -0.874525 -5.428 0
M  V30 432 H 33.5924 -1.00638 -6.71602 0
M  V30 433 H 31.5384 1.22125 -6.44532 0
M  V30 434 H 31.4554 -0.103877 -7.55929 0
M  V30 435 H 32.7234 1.0743 -7.72062 0
M  V30 436 N 36.9525 1.47285 -0.560781 0
M  V30 437 C 38.2015 2.01668 -0.035895 0
M  V30 438 C 38.5145 1.44021 1.32353 0
M  V30 439 O 39.7205 1.90088 1.93853 0
M  V30 440 C 38.1765 3.59897 -0.0136659 0
M  V30 441 C 37.7845 4.26536 -1.37006 0
M  V30 442 C 39.5285 4.22017 0.458425 0
M  V30 443 C 37.4355 5.76782 -1.30675 0
M  V30 444 H 36.3655 0.753938 -0.00964879 0
M  V30 445 H 39.0165 1.69243 -0.709166 0
M  V30 446 H 37.3985 3.89301 0.725325 0
M  V30 447 H 38.5725 4.0877 -2.12705 0
M  V30 448 H 36.8875 3.76419 -1.78038 0
M  V30 449 H 39.4845 5.32124 0.524247 0
M  V30 450 H 39.8275 3.89437 1.4712 0
M  V30 451 H 40.3605 3.97159 -0.225818 0
M  V30 452 H 37.0995 6.13988 -2.29564 0
M  V30 453 H 36.6195 5.96875 -0.591622 0
M  V30 454 H 38.2985 6.39063 -1.01033 0
M  V30 455 N 38.4306 0.297415 1.54768 0
M  V30 456 C 39.3936 -0.567375 2.22066 0
M  V30 457 C 40.3936 -1.06409 1.20556 0
M  V30 458 O 41.5836 -0.960691 1.45315 0
M  V30 459 C 38.7156 -1.78517 2.90421 0
M  V30 460 H 39.9086 0.0205534 2.99893 0
M  V30 461 H 37.4616 0.0482163 1.56226 0
M  V30 462 H 38.1966 -2.41303 2.16664 0
M  V30 463 H 37.9816 -1.43669 3.64831 0
M  V30 464 H 39.4716 -2.39964 3.41771 0
M  V30 465 N 39.9087 -1.5758 0.0250728 0
M  V30 466 C 41.1557 -1.91633 -0.654444 0
M  V30 467 C 41.4837 -0.901103 -1.72367 0
M  V30 468 O 40.7387 0.0905647 -1.9549 0
M  V30 469 C 41.0377 -3.32421 -1.31268 0
M  V30 470 C 40.7037 -4.49344 -0.374223 0
M  V30 471 C 39.3657 -4.8106 -0.115911 0
M  V30 472 C 41.7177 -5.20498 0.270432 0
M  V30 473 C 39.0457 -5.8129 0.79493 0
M  V30 474 C 41.3977 -6.21699 1.1693 0
M  V30 475 C 40.0617 -6.51859 1.43655 0
M  V30 476 H 39.3317 -0.701236 -0.239478 0
M  V30 477 H 41.9787 -1.91307 0.0859734 0
M  V30 478 H 40.2837 -3.28989 -2.12775 0
M  V30 479 H 41.9807 -3.56038 -1.84494 0
M  V30 480 H 38.5707 -4.24579 -0.58573 0
M  V30 481 H 42.7547 -4.96229 0.0839194 0
M  V30 482 H 38.0107 -6.03005 1.00973 0
M  V30 483 H 42.1847 -6.75955 1.67504 0
M  V30 484 H 39.8117 -7.2934 2.144 0
M  V30 485 N 41.3868 0.248026 -1.55636 0
M  V30 486 C 42.3498 1.29044 -1.89421 0
M  V30 487 C 43.3498 1.41134 -0.770581 0
M  V30 488 O 44.5398 1.39854 -1.03858 0
M  V30 489 C 41.6718 2.66831 -2.12165 0
M  V30 490 H 42.8648 1.00305 -2.82629 0
M  V30 491 H 40.4178 0.487265 -1.48511 0
M  V30 492 H 41.1528 3.00711 -1.21422 0
M  V30 493 H 40.9378 2.59438 -2.93997 0
M  V30 494 H 42.4278 3.42103 -2.3949 0
M  V30 495 N 42.8649 1.48995 0.513639 0
M  V30 496 C 44.1139 1.57093 1.2651 0
M  V30 497 C 44.4269 0.257091 1.93903 0
M  V30 498 O 45.6329 0.216478 2.70636 0
M  V30 499 C 44.0889 2.77118 2.29638 0
M  V30 500 C 43.6969 4.15209 1.68241 0
M  V30 501 C 45.4409 2.94538 3.05692 0
M  V30 502 C 43.3479 5.26474 2.69406 0
M  V30 503 H 42.2779 0.584876 0.475854 0
M  V30 504 H 44.9289 1.7536 0.540487 0
M  V30 505 H 43.3109 2.52319 3.05207 0
M  V30 506 H 44.4849 4.50094 0.987505 0
M  V30 507 H 42.7999 4.03042 1.04623 0
M  V30 508 H 45.3969 3.74832 3.8132 0
M  V30 509 H 45.7399 2.04614 3.62545 0
M  V30 510 H 46.2729 3.19316 2.37238 0
M  V30 511 H 43.0119 6.18417 2.17351 0
M  V30 512 H 42.5319 4.96058 3.37175 0
M  V30 513 H 44.2109 5.55277 3.32078 0
M  V30 514 N 44.343 -0.763751 1.37857 0
M  V30 515 C 45.571 -1.55293 1.36718 0
M  V30 516 C 45.986 -1.88745 -0.0455434 0
M  V30 517 O 45.343 -1.52039 -1.00947 0
M  V30 518 C 45.394 -2.85831 2.2132 0
M  V30 519 O 45.115 -2.5381 3.57089 0
M  V30 520 C 46.616 -3.80023 2.28249 0
M  V30 521 H 43.836 -0.480841 0.468009 0
M  V30 522 H 46.38 -0.946009 1.81303 0
M  V30 523 H 44.535 -3.42926 1.80223 0
M  V30 524 H 44.949 -3.37459 4.01524 0
M  V30 525 H 46.423 -4.68599 2.91752 0
M  V30 526 H 46.9 -4.1973 1.2932 0
M  V30 527 H 47.506 -3.28855 2.69693 0
M  V30 528 N 45.8211 -1.22559 -0.990812 0
M  V30 529 C 46.7841 -0.998863 -2.0629 0
M  V30 530 C 47.7841 0.0354834 -1.60761 0
M  V30 531 O 48.9741 -0.203231 -1.7301 0
M  V30 532 C 46.1061 -0.509203 -3.37076 0
M  V30 533 H 47.2991 -1.95014 -2.27837 0
M  V30 534 H 44.8521 -1.04456 -1.16269 0
M  V30 535 H 45.5871 0.446335 -3.21214 0
M  V30 536 H 45.3721 -1.25547 -3.71457 0
M  V30 537 H 46.8621 -0.370888 -4.1595 0
M  V30 538 N 47.2992 1.18797 -1.03562 0
M  V30 539 C 48.5482 1.87978 -0.731235 0
M  V30 540 C 48.8612 1.80911 0.743671 0
M  V30 541 O 50.0672 2.45407 1.16137 0
M  V30 542 C 48.5232 3.3721 -1.25768 0
M  V30 543 C 48.1312 3.52818 -2.76085 0
M  V30 544 C 49.8752 4.11825 -1.0296 0
M  V30 545 C 47.7822 4.9598 -3.22114 0
M  V30 546 H 46.7122 0.704063 -0.269835 0
M  V30 547 H 49.3632 1.34266 -1.25079 0
M  V30 548 H 47.7452 3.90359 -0.666011 0
M  V30 549 H 48.9192 3.09965 -3.40966 0
M  V30 550 H 47.2342 2.91602 -2.97249 0
M  V30 551 H 49.8312 5.17411 -1.34869 0
M  V30 552 H 50.1742 4.16287 0.0333546 0
M  V30 553 H 50.7072 3.64833 -1.58562 0
M  V30 554 H 47.4462 4.96684 -4.27768 0
M  V30 555 H 46.9662 5.39569 -2.61965 0
M  V30 556 H 48.6452 5.6467 -3.15844 0
M  V30 557 N 48.7773 0.814389 1.34928 0
M  V30 558 C 49.7243 0.22822 2.29669 0
M  V30 559 C 50.6943 -0.642164 1.53184 0
M  V30 560 O 51.8793 -0.585605 1.81591 0
M  V30 561 C 49.0193 -0.61089 3.3965 0
M  V30 562 C 48.1323 0.280792 4.31086 0
M  V30 563 C 47.2673 -0.567067 5.28165 0
M  V30 564 C 46.3063 0.324531 6.11239 0
M  V30 565 N 45.4433 -0.483756 7.00431 0
M  V30 566 H 50.2833 1.04153 2.79206 0
M  V30 567 H 47.8203 0.525133 1.37407 0
M  V30 568 H 49.7783 -1.11263 4.0209 0
M  V30 569 H 48.4083 -1.38939 2.91369 0
M  V30 570 H 47.4603 0.900688 3.69583 0
M  V30 571 H 48.7723 0.966723 4.89342 0
M  V30 572 H 47.9263 -1.13363 5.96015 0
M  V30 573 H 46.6653 -1.28654 4.70425 0
M  V30 574 H 45.6703 0.903298 5.42329 0
M  V30 575 H 46.8953 1.04198 6.71059 0
M  V30 576 H 44.8413 -1.18706 6.45171 0
M  V30 577 H 44.7583 0.143965 7.55863 0
M  V30 578 H 46.0263 -1.03334 7.7262 0
M  V30 579 N 50.2554 -1.46986 0.568584 0
M  V30 580 C 51.5034 -2.02041 0.0487022 0
M  V30 581 C 51.8244 -1.44408 -1.31039 0
M  V30 582 O 51.0944 -0.623477 -1.85714 0
M  V30 583 H 49.6744 -0.746849 0.015014 0
M  V30 584 H 52.3364 -1.80257 0.741168 0
M  V30 585 H 51.4324 -3.12085 -0.0308961 0
M  V30 586 N 51.7335 -0.305618 -1.54608 0
M  V30 587 C 52.9795 0.302746 -2.00528 0
M  V30 588 C 53.3125 1.53184 -1.19367 0
M  V30 589 O 52.5875 1.92598 -0.271321 0
M  V30 590 C 52.8705 0.654756 -3.54097 0
M  V30 591 C 52.7235 -0.583793 -4.45995 0
M  V30 592 C 54.0425 1.47947 -4.14487 0
M  V30 593 H 51.1615 0.108564 -0.72896 0
M  V30 594 H 53.8035 -0.418634 -1.85331 0
M  V30 595 H 51.9535 1.26935 -3.67178 0
M  V30 596 H 53.6255 -1.22224 -4.44814 0
M  V30 597 H 51.8685 -1.21615 -4.16404 0
M  V30 598 H 52.5395 -0.293287 -5.5122 0
M  V30 599 H 55.0155 0.96013 -4.04871 0
M  V30 600 H 53.8915 1.69454 -5.22088 0
M  V30 601 H 54.1525 2.47011 -3.66658 0
M  V30 602 N 53.2116 1.57565 -0.0334293 0
M  V30 603 C 54.4596 1.91598 0.642999 0
M  V30 604 C 54.7806 0.910847 1.7242 0
M  V30 605 O 54.0506 -0.0469931 1.95844 0
M  V30 606 H 52.6306 0.707228 0.240496 0
M  V30 607 H 55.2926 1.94726 -0.0822488 0
M  V30 608 H 54.3886 2.92336 1.09298 0
M  V30 609 N 54.6897 -0.239769 1.55765 0
M  V30 610 C 56.1057 -0.588624 1.48349 0
M  V30 611 C 56.3057 -1.88005 0.72502 0
M  V30 612 O 55.3617 -2.51186 0.257269 0
M  V30 613 C 56.6747 -0.68474 2.928 0
M  V30 614 C 58.2227 -0.77659 3.03213 0
M  V30 615 C 58.6977 -0.904207 4.48986 0
M  V30 616 N 60.1887 -0.968896 4.52953 0
M  V30 617 C 60.9237 -1.08703 5.63002 0
M  V30 618 N 60.4197 -1.17026 6.82845 0
M  V30 619 N 62.2127 -1.12074 5.50814 0
M  V30 620 H 54.3637 0.607911 2.03515 0
M  V30 621 H 56.6267 0.21083 0.924259 0
M  V30 622 H 56.3327 0.194284 3.51163 0
M  V30 623 H 56.2067 -1.55435 3.43686 0
M  V30 624 H 58.5937 -1.64606 2.44926 0
M  V30 625 H 58.6747 0.118315 2.55526 0
M  V30 626 H 58.3187 -0.0392633 5.07885 0
M  V30 627 H 58.2487 -1.81426 4.9436 0
M  V30 628 H 60.7397 -0.915633 3.6664 0
M  V30 629 H 61.0527 -1.25966 7.62465 0
M  V30 630 H 59.3977 -1.13971 6.85591 0
M  V30 631 H 62.5887 -1.05226 4.5612 0
M  V30 632 H 62.7617 -1.20936 6.36615 0
M  V30 633 N 56.1678 -1.49265 -0.50573 0
M  V30 634 C 57.5838 -1.35923 -0.836486 0
M  V30 635 C 57.7838 -0.388704 -1.97715 0
M  V30 636 O 56.8398 0.181336 -2.51848 0
M  V30 637 C 58.1528 -2.76531 -1.18115 0
M  V30 638 C 59.7008 -2.85197 -1.28964 0
M  V30 639 C 60.1758 -4.26561 -1.66761 0
M  V30 640 N 61.6668 -4.2935 -1.73819 0
M  V30 641 C 62.4018 -5.35693 -2.045 0
M  V30 642 N 61.8978 -6.52287 -2.33438 0
M  V30 643 N 63.6908 -5.23105 -2.05711 0
M  V30 644 H 55.8418 -2.10965 0.246519 0
M  V30 645 H 58.1048 -0.9468 0.0476887 0
M  V30 646 H 57.8108 -3.49226 -0.416398 0
M  V30 647 H 57.6848 -3.11599 -2.1257 0
M  V30 648 H 60.0718 -2.12742 -2.04511 0
M  V30 649 H 60.1528 -2.53718 -0.325704 0
M  V30 650 H 59.7968 -4.99541 -0.917656 0
M  V30 651 H 59.7268 -4.55502 -2.64246 0
M  V30 652 H 62.2178 -3.4526 -1.53635 0
M  V30 653 H 62.5308 -7.29158 -2.56024 0
M  V30 654 H 60.8758 -6.55521 -2.30905 0
M  V30 655 H 64.0668 -4.31026 -1.82577 0
M  V30 656 H 64.2398 -6.06078 -2.29289 0
M  V30 657 N 57.6459 0.756429 -1.3826 0
M  V30 658 C 58.8759 1.54341 -1.3734 0
M  V30 659 C 59.2839 1.89159 0.0393917 0
M  V30 660 O 58.6269 1.5307 1.01565 0
M  V30 661 C 58.6889 2.87238 -2.16182 0
M  V30 662 C 58.3529 2.74973 -3.65019 0
M  V30 663 C 59.3499 2.44962 -4.58574 0
M  V30 664 C 57.0349 2.92515 -4.08338 0
M  V30 665 C 59.0289 2.32642 -5.93428 0
M  V30 666 C 56.7159 2.79815 -5.43274 0
M  V30 667 C 57.7139 2.49921 -6.35632 0
M  V30 668 O 57.4019 2.37275 -7.68086 0
M  V30 669 H 57.1339 0.484281 -0.471643 0
M  V30 670 H 59.6879 0.944152 -1.82414 0
M  V30 671 H 57.9179 3.49342 -1.65822 0
M  V30 672 H 59.6069 3.48731 -2.07705 0
M  V30 673 H 60.3729 2.31081 -4.26412 0
M  V30 674 H 56.2519 3.14781 -3.368 0
M  V30 675 H 59.7959 2.0923 -6.65484 0
M  V30 676 H 55.6929 2.93269 -5.75034 0
M  V30 677 H 56.4609 2.52509 -7.78577 0
M  V30 678 N 59.124 1.23083 0.984299 0
M  V30 679 C 60.087 1.00979 2.05757 0
M  V30 680 C 61.087 -0.0269573 1.60777 0
M  V30 681 O 62.277 0.212403 1.729 0
M  V30 682 C 59.409 0.527072 3.36801 0
M  V30 683 H 60.602 1.9622 2.26799 0
M  V30 684 H 58.155 1.05072 1.15714 0
M  V30 685 H 58.89 -0.429294 3.21446 0
M  V30 686 H 58.675 1.27515 3.70786 0
M  V30 687 H 60.165 0.392942 4.15747 0
M  V30 688 N 60.6021 -1.18246 1.0419 0
M  V30 689 C 61.5521 -2.19843 0.604392 0
M  V30 690 C 62.5361 -1.56962 -0.353814 0
M  V30 691 O 63.7281 -1.76156 -0.17267 0
M  V30 692 C 60.8571 -3.43287 -0.0298975 0
M  V30 693 C 59.9431 -4.13288 0.951531 0
M  V30 694 N 60.3341 -4.59271 2.11906 0
M  V30 695 C 58.6321 -4.39165 0.7778 0
M  V30 696 C 59.3331 -5.13173 2.73912 0
M  V30 697 N 58.3091 -5.04763 2.01779 0
M  V30 698 H 62.1111 -2.53089 1.4941 0
M  V30 699 H 59.6251 -1.34465 0.910658 0
M  V30 700 H 61.6221 -4.15334 -0.361037 0
M  V30 701 H 60.2821 -3.11537 -0.915127 0
M  V30 702 H 61.2931 -4.5368 2.49789 0
M  V30 703 H 57.9701 -4.17461 -0.0572331 0
M  V30 704 H 59.3601 -5.58947 3.72864 0
M  V30 705 N 62.0802 -0.821533 -1.34494 0
M  V30 706 C 63.3262 -0.409552 -1.98622 0
M  V30 707 C 63.6592 1.0244 -1.64984 0
M  V30 708 O 62.9342 1.71325 -0.920758 0
M  V30 709 C 63.2172 -0.610458 -3.54888 0
M  V30 710 C 63.0702 -2.09043 -3.98273 0
M  V30 711 C 64.3892 -0.0455379 -4.40076 0
M  V30 712 H 61.5082 -0.15028 -0.721516 0
M  V30 713 H 64.1502 -1.03384 -1.59411 0
M  V30 714 H 62.3002 -0.079044 -3.8842 0
M  V30 715 H 63.9722 -2.68537 -3.75081 0
M  V30 716 H 62.2152 -2.58139 -3.48635 0
M  V30 717 H 62.8862 -2.18182 -5.07051 0
M  V30 718 H 65.3622 -0.499557 -4.1309 0
M  V30 719 H 64.2382 -0.215922 -5.48475 0
M  V30 720 H 64.4992 1.04939 -4.29465 0
M  V30 721 N 63.5583 1.46682 -0.576371 0
M  V30 722 C 64.8043 2.02712 -0.0596221 0
M  V30 723 C 65.1373 1.44765 1.29448 0
M  V30 724 O 64.4123 0.610355 1.84675 0
M  V30 725 C 64.6953 3.60098 0.0129503 0
M  V30 726 C 64.5483 4.28441 -1.3696 0
M  V30 727 C 65.8673 4.34224 0.71678 0
M  V30 728 H 62.9863 0.736637 -0.0231407 0
M  V30 729 H 65.6283 1.74898 -0.742351 0
M  V30 730 H 63.7783 3.83926 0.594378 0
M  V30 731 H 65.4503 4.15896 -1.9957 0
M  V30 732 H 63.6933 3.8805 -1.93907 0
M  V30 733 H 64.3643 5.3716 -1.27135 0
M  V30 734 H 66.8403 4.15503 0.222908 0
M  V30 735 H 65.7163 5.43936 0.73657 0
M  V30 736 H 65.9773 4.04823 1.77682 0
M  V30 737 N 65.0364 0.313813 1.54444 0
M  V30 738 C 65.9664 -0.549454 2.26943 0
M  V30 739 C 66.9474 -1.12741 1.27372 0
M  V30 740 O 68.1324 -1.15436 1.56167 0
M  V30 741 C 65.2624 -1.71523 3.01989 0
M  V30 742 C 64.2164 -1.26703 4.08816 0
M  V30 743 C 63.5424 -2.51898 4.71647 0
M  V30 744 C 64.8424 -0.388962 5.2085 0
M  V30 745 H 66.5364 0.0552661 2.99349 0
M  V30 746 H 64.0824 0.0280207 1.43973 0
M  V30 747 H 66.0354 -2.32535 3.51433 0
M  V30 748 H 64.7594 -2.34639 2.27183 0
M  V30 749 H 63.4184 -0.679896 3.6024 0
M  V30 750 H 63.0664 -3.13356 3.93468 0
M  V30 751 H 62.7664 -2.22605 5.43802 0
M  V30 752 H 64.2904 -3.1369 5.23861 0
M  V30 753 H 65.7044 -0.905107 5.6611 0
M  V30 754 H 64.1014 -0.18924 5.99802 0
M  V30 755 H 65.1714 0.582699 4.81386 0
M  V30 756 N 66.5145 -1.57545 0.0417849 0
M  V30 757 C 67.9305 -1.56467 -0.314704 0
M  V30 758 C 68.1305 -1.04859 -1.72066 0
M  V30 759 O 67.1865 -0.700983 -2.42575 0
M  V30 760 C 68.4995 -3.00317 -0.15174 0
M  V30 761 C 70.0475 -3.12201 -0.223553 0
M  V30 762 C 70.5225 -4.57913 -0.0892295 0
M  V30 763 N 72.0135 -4.6297 -0.145808 0
M  V30 764 C 72.7485 -5.73362 -0.0658459 0
M  V30 765 N 72.2445 -6.92769 0.0659282 0
M  V30 766 N 74.0375 -5.6197 -0.12075 0
M  V30 767 H 66.1885 -1.89416 0.961014 0
M  V30 768 H 68.4515 -0.871862 0.372237 0
M  V30 769 H 68.1575 -3.42073 0.817254 0
M  V30 770 H 68.0315 -3.65892 -0.916692 0
M  V30 771 H 70.4185 -2.70349 -1.18301 0
M  V30 772 H 70.4995 -2.49323 0.571994 0
M  V30 773 H 70.1435 -5.00448 0.866867 0
M  V30 774 H 70.0735 -5.18786 -0.903802 0
M  V30 775 H 72.5645 -3.7709 -0.247286 0
M  V30 776 H 72.8775 -7.72707 0.119905 0
M  V30 777 H 71.2225 -6.94927 0.100885 0
M  V30 778 H 74.4135 -4.67572 -0.222187 0
M  V30 779 H 74.5865 -6.47977 -0.0549735 0
M  V30 780 N 67.9926 0.231505 -1.5589 0
M  V30 781 C 68.9396 1.28682 -1.91598 0
M  V30 782 C 69.9096 1.47071 -0.771974 0
M  V30 783 O 71.0946 1.60802 -1.027 0
M  V30 784 C 68.2346 2.6342 -2.22944 0
M  V30 785 C 67.3476 2.52912 -3.50228 0
M  V30 786 C 66.4826 3.80106 -3.7107 0
M  V30 787 C 65.5216 3.64279 -4.91902 0
M  V30 788 N 64.6586 4.834 -5.09184 0
M  V30 789 H 69.4986 0.975305 -2.81588 0
M  V30 790 H 67.0356 0.470299 -1.39379 0
M  V30 791 H 68.9936 3.41869 -2.39126 0
M  V30 792 H 67.6236 2.92687 -1.36139 0
M  V30 793 H 66.6756 1.6595 -3.42294 0
M  V30 794 H 67.9876 2.37133 -4.38827 0
M  V30 795 H 67.1416 4.66999 -3.87295 0
M  V30 796 H 65.8806 3.98799 -2.80733 0
M  V30 797 H 64.8856 2.7577 -4.75637 0
M  V30 798 H 66.1106 3.47067 -5.83714 0
M  V30 799 H 64.0566 5.02425 -4.21788 0
M  V30 800 H 63.9736 4.70311 -5.91898 0
M  V30 801 H 65.2416 5.71747 -5.29835 0
M  V30 802 N 69.4707 1.49531 0.497807 0
M  V30 803 C 70.4337 1.65916 1.58128 0
M  V30 804 C 71.4337 0.530825 1.51786 0
M  V30 805 O 72.6237 0.797342 1.54881 0
M  V30 806 C 69.7557 1.65951 2.9778 0
M  V30 807 H 70.9487 2.62556 1.44929 0
M  V30 808 H 68.5017 1.38611 0.722275 0
M  V30 809 H 69.2367 0.709065 3.16453 0
M  V30 810 H 69.0217 2.47897 3.03792 0
M  V30 811 H 70.5117 1.80673 3.76493 0
M  V30 812 N 70.9488 -0.749086 1.3866 0
M  V30 813 C 72.2258 -1.4992 1.25632 0
M  V30 814 C 72.6058 -2.10633 -0.140317 0
M  V30 815 O 71.9538 -1.97437 -1.15025 0
M  V30 816 C 72.1638 -2.56195 2.36992 0
M  V30 817 C 73.5118 -3.22972 2.75634 0
M  V30 818 O 74.5358 -2.66502 2.36337 0
M  V30 819 O 73.3948 -4.25122 3.43415 0
M  V30 820 H 70.4888 -0.665067 0.491544 0
M  V30 821 H 73.0348 -0.784113 1.50498 0
M  V30 822 H 71.8068 -2.09612 3.30422 0
M  V30 823 H 71.4298 -3.35279 2.13714 0
M  V30 824 N 72.4269 -1.23603 -0.977757 0
M  V30 825 C 73.6759 -1.06377 -1.71368 0
M  V30 826 C 73.9889 0.399062 -1.91486 0
M  V30 827 O 75.1949 0.691312 -2.62551 0
M  V30 828 C 73.6509 -1.85512 -3.08404 0
M  V30 829 C 73.2589 -3.36141 -2.96164 0
M  V30 830 C 75.0029 -1.76783 -3.85938 0
M  V30 831 C 72.9099 -4.07659 -4.28449 0
M  V30 832 H 71.8399 -0.394452 -0.642591 0
M  V30 833 H 74.4909 -1.47594 -1.09034 0
M  V30 834 H 72.8729 -1.37103 -3.71509 0
M  V30 835 H 74.0469 -3.92056 -2.42133 0
M  V30 836 H 72.3619 -3.45712 -2.32104 0
M  V30 837 H 74.9589 -2.27526 -4.83876 0
M  V30 838 H 75.3019 -0.731116 -4.0983 0
M  V30 839 H 75.8349 -2.22818 -3.2954 0
M  V30 840 H 72.5739 -5.11648 -4.09752 0
M  V30 841 H 72.0939 -3.5653 -4.82334 0
M  V30 842 H 73.7729 -4.141 -4.97122 0
M  V30 843 N 73.905 1.17692 -1.04816 0
M  V30 844 C 75.182 1.83768 -0.669963 0
M  V30 845 C 75.562 1.93232 0.849986 0
M  V30 846 O 74.91 1.46397 1.75443 0
M  V30 847 C 75.12 3.21641 -1.35455 0
M  V30 848 C 76.468 3.97592 -1.49017 0
M  V30 849 O 77.492 3.31107 -1.31326 0
M  V30 850 O 76.351 5.16729 -1.77914 0
M  V30 851 H 73.445 0.792799 -0.235368 0
M  V30 852 H 75.991 1.25021 -1.14751 0
M  V30 853 H 74.763 3.097 -2.39168 0
M  V30 854 H 74.386 3.88052 -0.866107 0
M  V30 855 N 75.3831 0.828654 1.34056 0
M  V30 856 C 76.3131 0.269443 2.3194 0
M  V30 857 C 77.2941 -0.617247 1.58506 0
M  V30 858 O 78.4791 -0.542931 1.86456 0
M  V30 859 C 75.6091 -0.564793 3.42677 0
M  V30 860 C 74.5631 0.225241 4.27407 0
M  V30 861 C 73.8891 -0.7321 5.29664 0
M  V30 862 C 75.1891 1.43663 5.02154 0
M  V30 863 H 76.8831 1.08728 2.7896 0
M  V30 864 H 74.4291 0.524283 1.34117 0
M  V30 865 H 76.3821 -0.966233 4.10173 0
M  V30 866 H 75.1061 -1.41574 2.9432 0
M  V30 867 H 73.7651 0.608117 3.61521 0
M  V30 868 H 73.4131 -1.57916 4.77568 0
M  V30 869 H 73.1131 -0.20767 5.87233 0
M  V30 870 H 74.6371 -1.13128 6.00029 0
M  V30 871 H 76.0511 1.1089 5.62473 0
M  V30 872 H 74.4481 1.89711 5.69324 0
M  V30 873 H 75.5181 2.21181 4.31517 0
M  V30 874 N 76.8612 -1.46375 0.584142 0
M  V30 875 C 78.0892 -2.06761 0.0759296 0
M  V30 876 C 78.5042 -1.43266 -1.22965 0
M  V30 877 O 77.8612 -0.538458 -1.74376 0
M  V30 878 C 77.9122 -3.61375 -0.0950384 0
M  V30 879 O 77.6332 -4.22495 1.15887 0
M  V30 880 C 79.1342 -4.38693 -0.637434 0
M  V30 881 H 76.3542 -0.668479 0.0581075 0
M  V30 882 H 78.8982 -1.8798 0.805218 0
M  V30 883 H 77.0532 -3.79578 -0.774554 0
M  V30 884 H 77.4672 -5.15385 0.973598 0
M  V30 885 H 78.9412 -5.47464 -0.706237 0
M  V30 886 H 79.4182 -4.06836 -1.65472 0
M  V30 887 H 80.0242 -4.25299 0.00725967 0
M  V30 888 N 78.3393 -0.321999 -1.54275 0
M  V30 889 C 79.2863 0.544664 -2.24281 0
M  V30 890 C 80.2563 1.1129 -1.23303 0
M  V30 891 O 81.4413 1.15354 -1.51981 0
M  V30 892 C 78.5813 1.70045 -3.00298 0
M  V30 893 C 77.6943 1.16159 -4.1609 0
M  V30 894 C 76.8293 2.28293 -4.79641 0
M  V30 895 C 75.8683 1.71648 -5.8754 0
M  V30 896 N 75.0053 2.77438 -6.44959 0
M  V30 897 H 79.8453 -0.0588907 -2.97942 0
M  V30 898 H 77.3823 -0.0408345 -1.47043 0
M  V30 899 H 79.3403 2.38054 -3.42616 0
M  V30 900 H 77.9703 2.27531 -2.28975 0
M  V30 901 H 77.0223 0.373092 -3.78566 0
M  V30 902 H 78.3343 0.707087 -4.93763 0
M  V30 903 H 77.4883 3.0421 -5.2492 0
M  V30 904 H 76.2273 2.77079 -4.01346 0
M  V30 905 H 75.2323 0.942282 -5.41665 0
M  V30 906 H 76.4573 1.23741 -6.67731 0
M  V30 907 H 74.4033 3.25519 -5.69538 0
M  V30 908 H 74.3203 2.36547 -7.1804 0
M  V30 909 H 75.5883 3.53189 -6.94894 0
M  V30 910 N 79.8174 1.5752 -0.0501392 0
M  V30 911 C 81.2334 1.56631 0.306402 0
M  V30 912 C 81.4334 1.0577 1.71508 0
M  V30 913 O 80.4894 0.713837 2.422 0
M  V30 914 C 81.8024 3.00393 0.135811 0
M  V30 915 C 83.3504 3.12315 0.206993 0
M  V30 916 C 83.8254 4.57954 0.064944 0
M  V30 917 N 85.3164 4.63041 0.121254 0
M  V30 918 C 86.0514 5.73389 0.0354381 0
M  V30 919 N 85.5474 6.92724 -0.102666 0
M  V30 920 N 87.3404 5.62026 0.090946 0
M  V30 921 H 79.4914 1.88903 -0.971046 0
M  V30 922 H 81.7544 0.869876 -0.376855 0
M  V30 923 H 81.4604 3.41635 -0.835384 0
M  V30 924 H 81.3344 3.66373 0.897275 0
M  V30 925 H 83.7214 2.70973 1.16866 0
M  V30 926 H 83.8024 2.49016 -0.585208 0
M  V30 927 H 83.4464 4.99981 -0.893394 0
M  V30 928 H 83.3764 5.19258 0.876277 0
M  V30 929 H 85.8674 3.77216 0.227284 0
M  V30 930 H 86.1804 7.72633 -0.160882 0
M  V30 931 H 84.5254 6.94864 -0.137737 0
M  V30 932 H 87.7164 4.67684 0.197388 0
M  V30 933 H 87.8894 6.47997 0.0206089 0
M  V30 934 N 81.2955 -0.223234 1.56011 0
M  V30 935 C 82.2585 -1.26014 1.9145 0
M  V30 936 C 83.2585 -1.3989 0.792937 0
M  V30 937 O 84.4485 -1.38184 1.0607 0
M  V30 938 C 81.5805 -2.63422 2.16383 0
M  V30 939 H 82.7735 -0.95796 2.84189 0
M  V30 940 H 80.3265 -0.463576 1.49267 0
M  V30 941 H 81.0615 -2.98741 1.2619 0
M  V30 942 H 80.8465 -2.54728 2.98088 0
M  V30 943 H 82.3365 -3.38249 2.44903 0
M  V30 944 N 82.7736 -1.49793 -0.48987 0
M  V30 945 C 84.0216 -1.59525 -1.24081 0
M  V30 946 C 84.3426 -0.288953 -1.92847 0
M  V30 947 O 83.6126 0.692436 -1.83254 0
M  V30 948 H 82.1926 -0.587796 -0.460983 0
M  V30 949 H 84.8546 -1.86477 -0.566778 0
M  V30 950 H 83.9506 -2.39696 -1.99881 0
M  V30 951 N 84.2517 0.741722 -1.39055 0
M  V30 952 C 85.1617 1.88621 -1.39496 0
M  V30 953 C 86.1777 1.71557 -0.290578 0
M  V30 954 O 87.3537 1.94275 -0.530954 0
M  V30 955 C 84.4187 3.24134 -1.23037 0
M  V30 956 C 83.4797 3.5364 -2.43387 0
M  V30 957 C 82.7127 4.82687 -2.27703 0
M  V30 958 O 82.9357 5.55922 -1.27696 0
M  V30 959 O 81.8697 5.1194 -3.16545 0
M  V30 960 H 85.6957 1.91203 -2.35956 0
M  V30 961 H 83.2807 0.888625 -1.20099 0
M  V30 962 H 85.1627 4.0513 -1.15964 0
M  V30 963 H 83.8377 3.22337 -0.296691 0
M  V30 964 H 82.7447 2.72758 -2.56035 0
M  V30 965 H 84.0777 3.60209 -3.35425 0
M  V30 966 N 85.7298 1.2412 0.971189 0
M  V30 967 C 86.6598 1.05508 2.08304 0
M  V30 968 C 87.6408 -0.0308864 1.70072 0
M  V30 969 O 88.8258 0.135521 1.93727 0
M  V30 970 C 85.9558 0.655365 3.4106 0
M  V30 971 C 84.9098 1.68971 3.93234 0
M  V30 972 C 84.2358 1.14516 5.22293 0
M  V30 973 C 85.5358 3.08487 4.21465 0
M  V30 974 H 87.2298 1.98507 2.24132 0
M  V30 975 H 84.7758 0.955821 1.07704 0
M  V30 976 H 86.7288 0.51217 4.18276 0
M  V30 977 H 85.4528 -0.31032 3.25122 0
M  V30 978 H 84.1118 1.82106 3.18171 0
M  V30 979 H 83.7598 0.170189 5.02712 0
M  V30 980 H 83.4598 1.83635 5.58168 0
M  V30 981 H 84.9838 1.01401 6.02121 0
M  V30 982 H 86.3978 2.98601 4.89398 0
M  V30 983 H 84.7948 3.74926 4.68562 0
M  V30 984 H 85.8648 3.56787 3.28376 0
M  V30 985 N 87.2079 -1.17134 1.05439 0
M  V30 986 C 88.4359 -1.91372 0.786414 0
M  V30 987 C 88.8509 -1.76955 -0.658202 0
M  V30 988 O 88.2079 -1.10838 -1.44987 0
M  V30 989 C 88.2589 -3.42356 1.1608 0
M  V30 990 O 87.9799 -3.56332 2.54871 0
M  V30 991 C 89.4809 -4.33663 0.919322 0
M  V30 992 H 86.7009 -0.607118 0.285743 0
M  V30 993 H 89.2449 -1.48525 1.40572 0
M  V30 994 H 87.3999 -3.82939 0.586191 0
M  V30 995 H 87.8139 -4.49896 2.69618 0
M  V30 996 H 89.2879 -5.38099 1.231 0
M  V30 997 H 89.7649 -4.38959 -0.145359 0
M  V30 998 H 90.3709 -3.98796 1.47789 0
M  V30 999 N 88.686 -0.835752 -1.33615 0
M  V30 1000 C 89.596 -0.269088 -2.33052 0
M  V30 1001 C 90.612 0.603251 -1.63208 0
M  V30 1002 O 91.788 0.508112 -1.94885 0
M  V30 1003 C 88.853 0.549091 -3.42324 0
M  V30 1004 C 87.914 -0.347156 -4.27894 0
M  V30 1005 C 87.147 0.43207 -5.31948 0
M  V30 1006 O 87.37 1.66409 -5.45586 0
M  V30 1007 O 86.304 -0.192298 -6.01593 0
M  V30 1008 H 90.13 -1.09243 -2.83372 0
M  V30 1009 H 87.715 -0.598198 -1.36901 0
M  V30 1010 H 89.597 1.01414 -4.09015 0
M  V30 1011 H 88.272 1.34955 -2.94226 0
M  V30 1012 H 87.179 -0.859979 -3.64081 0
M  V30 1013 H 88.512 -1.1123 -4.79467 0
M  V30 1014 N 90.1641 1.46063 -0.591896 0
M  V30 1015 C 91.4411 1.95595 -0.0137119 0
M  V30 1016 C 91.8211 1.5345 1.4497 0
M  V30 1017 O 91.1691 0.789543 2.14426 0
M  V30 1018 C 91.3791 3.48453 -0.195373 0
M  V30 1019 C 92.7271 4.24546 -0.0679765 0
M  V30 1020 O 93.7511 3.55982 -0.124681 0
M  V30 1021 O 92.6101 5.46467 0.0600579 0
M  V30 1022 H 89.7041 0.825795 0.0446279 0
M  V30 1023 H 92.2501 1.56303 -0.660859 0
M  V30 1024 H 91.0221 3.72045 -1.21235 0
M  V30 1025 H 90.6451 3.94597 0.487775 0
M  V30 1026 N 91.6422 0.330177 1.54103 0
M  V30 1027 C 92.5522 -0.541534 2.28264 0
M  V30 1028 C 93.5682 -1.12351 1.32866 0
M  V30 1029 O 94.7442 -1.14206 1.65888 0
M  V30 1030 C 91.8092 -1.68322 3.03098 0
M  V30 1031 C 90.8702 -1.13238 4.14096 0
M  V30 1032 C 90.1032 -2.21966 4.85352 0
M  V30 1033 O 90.3262 -3.42437 4.56172 0
M  V30 1034 O 89.2602 -1.87013 5.7211 0
M  V30 1035 H 93.0862 0.060938 3.03639 0
M  V30 1036 H 90.6712 0.09565 1.49093 0
M  V30 1037 H 92.5532 -2.34777 3.49939 0
M  V30 1038 H 91.2282 -2.27176 2.30593 0
M  V30 1039 H 90.1352 -0.432736 3.71589 0
M  V30 1040 H 91.4682 -0.588898 4.88664 0
M  V30 1041 N 93.1203 -1.57491 0.0584922 0
M  V30 1042 C 94.3663 -1.93264 -0.614558 0
M  V30 1043 C 94.6993 -0.937717 -1.7006 0
M  V30 1044 O 93.9743 0.0351652 -1.94468 0
M  V30 1045 C 94.2573 -3.3938 -1.20386 0
M  V30 1046 C 94.1103 -4.49625 -0.125375 0
M  V30 1047 C 95.4293 -3.86039 -2.11334 0
M  V30 1048 H 92.5483 -0.702791 -0.221933 0
M  V30 1049 H 95.1903 -1.8961 0.12175 0
M  V30 1050 H 93.3403 -3.42626 -1.83139 0
M  V30 1051 H 95.0123 -4.58506 0.506971 0
M  V30 1052 H 93.2553 -4.30354 0.545672 0
M  V30 1053 H 93.9263 -5.48967 -0.577861 0
M  V30 1054 H 96.4023 -3.84716 -1.58534 0
M  V30 1055 H 95.2783 -4.88914 -2.49507 0
M  V30 1056 H 95.5393 -3.23215 -3.01636 0
M  V30 1057 N 94.5984 0.214957 -1.56127 0
M  V30 1058 C 95.5084 1.28727 -1.96129 0
M  V30 1059 C 96.5244 1.50916 -0.866044 0
M  V30 1060 O 97.7004 1.63918 -1.17016 0
M  V30 1061 C 94.7654 2.61569 -2.27558 0
M  V30 1062 C 93.8264 2.47625 -3.50685 0
M  V30 1063 C 93.0594 3.74132 -3.80606 0
M  V30 1064 O 93.2824 4.77438 -3.12104 0
M  V30 1065 O 92.2164 3.70849 -4.74083 0
M  V30 1066 H 96.0424 0.977855 -2.87527 0
M  V30 1067 H 93.6274 0.418358 -1.43423 0
M  V30 1068 H 95.5094 3.40012 -2.48938 0
M  V30 1069 H 94.1844 2.92178 -1.39332 0
M  V30 1070 H 93.0914 1.67361 -3.34576 0
M  V30 1071 H 94.4244 2.21954 -4.39315 0
M  V30 1072 N 96.0765 1.50051 0.48192 0
M  V30 1073 C 97.4925 1.37237 0.814756 0
M  V30 1074 C 97.6925 0.420109 1.97072 0
M  V30 1075 O 96.7485 -0.141246 2.52105 0
M  V30 1076 C 98.0615 2.78375 1.13701 0
M  V30 1077 C 99.6095 2.87213 1.2441 0
M  V30 1078 C 100.084 4.29161 1.59954 0
M  V30 1079 N 101.575 4.32061 1.66967 0
M  V30 1080 C 102.31 5.38879 1.95952 0
M  V30 1081 N 101.806 6.55918 2.23031 0
M  V30 1082 N 103.599 5.26312 1.97363 0
M  V30 1083 H 95.7505 2.10546 -0.28005 0
M  V30 1084 H 98.0135 0.945921 -0.0627454 0
M  V30 1085 H 97.7195 3.49845 0.360787 0
M  V30 1086 H 97.5935 3.14941 2.07586 0
M  V30 1087 H 99.9805 2.15969 2.01101 0
M  V30 1088 H 100.061 2.54204 0.285299 0
M  V30 1089 H 99.7055 5.00938 0.838067 0
M  V30 1090 H 99.6355 4.59648 2.56966 0
M  V30 1091 H 102.126 3.47661 1.48123 0
M  V30 1092 H 102.439 7.33139 2.44391 0
M  V30 1093 H 100.784 6.59112 2.20447 0
M  V30 1094 H 103.975 4.33876 1.75697 0
M  V30 1095 H 104.148 6.09649 2.19618 0
M  V30 1096 N 97.5546 -0.734337 1.39446 0
M  V30 1097 C 98.8006 -1.49613 1.36908 0
M  V30 1098 C 99.1336 -1.94169 -0.0347829 0
M  V30 1099 O 98.4086 -1.66833 -0.999847 0
M  V30 1100 C 98.6916 -2.73534 2.34203 0
M  V30 1101 C 98.5446 -2.34993 3.83534 0
M  V30 1102 C 99.8636 -3.75635 2.29317 0
M  V30 1103 H 96.9826 -0.542714 0.498629 0
M  V30 1104 H 99.6246 -0.839597 1.70443 0
M  V30 1105 H 97.7746 -3.29553 2.05736 0
M  V30 1106 H 99.4466 -1.84601 4.22753 0
M  V30 1107 H 97.6896 -1.67213 4.00278 0
M  V30 1108 H 98.3606 -3.23738 4.47099 0
M  V30 1109 H 100.837 -3.29203 2.54489 0
M  V30 1110 H 99.7126 -4.60008 2.99472 0
M  V30 1111 H 99.9736 -4.22603 1.29842 0
M  V30 1112 N 99.0327 -1.24633 -0.964593 0
M  V30 1113 C 100.282 -1.08188 -1.7023 0
M  V30 1114 C 100.595 0.37873 -1.91898 0
M  V30 1115 O 101.801 0.663427 -2.6327 0
M  V30 1116 C 100.257 -1.88773 -3.06419 0
M  V30 1117 C 99.8647 -3.39263 -2.92582 0
M  V30 1118 C 101.609 -1.80867 -3.84041 0
M  V30 1119 C 99.5157 -4.1218 -4.24101 0
M  V30 1120 H 98.4457 -0.401245 -0.638372 0
M  V30 1121 H 101.097 -1.48742 -1.07462 0
M  V30 1122 H 99.4787 -1.41035 -3.70034 0
M  V30 1123 H 100.653 -3.94603 -2.37961 0
M  V30 1124 H 98.9677 -3.48154 -2.28424 0
M  V30 1125 H 101.565 -2.32646 -4.81435 0
M  V30 1126 H 101.908 -0.774543 -4.09031 0
M  V30 1127 H 102.441 -2.26301 -3.27159 0
M  V30 1128 H 99.1797 -5.15965 -4.04303 0
M  V30 1129 H 98.6997 -3.61626 -4.78526 0
M  V30 1130 H 100.379 -4.19349 -4.92702 0
M  V30 1131 N 100.511 1.16574 -1.06058 0
M  V30 1132 C 101.739 1.90952 -0.796552 0
M  V30 1133 C 102.154 1.77302 0.648808 0
M  V30 1134 O 101.511 1.11605 1.44397 0
M  V30 1135 C 101.562 3.41736 -1.17894 0
M  V30 1136 O 101.283 3.54975 -2.56758 0
M  V30 1137 C 102.784 4.33169 -0.942308 0
M  V30 1138 H 100.004 0.605594 -0.288959 0
M  V30 1139 H 102.548 1.47777 -1.41358 0
M  V30 1140 H 100.703 3.82623 -0.606491 0
M  V30 1141 H 101.117 4.4846 -2.72 0
M  V30 1142 H 102.591 5.37439 -1.25952 0
M  V30 1143 H 103.068 4.3903 0.122078 0
M  V30 1144 H 103.674 3.98007 -1.49902 0
M  V30 1145 N 101.989 0.842826 1.3317 0
M  V30 1146 C 103.238 0.436738 1.96915 0
M  V30 1147 C 103.551 -1.01025 1.67491 0
M  V30 1148 O 104.757 -1.5212 2.24881 0
M  V30 1149 C 103.213 0.730021 3.52418 0
M  V30 1150 C 102.821 2.19195 3.90714 0
M  V30 1151 C 104.565 0.391076 4.22695 0
M  V30 1152 C 102.472 2.42907 5.39212 0
M  V30 1153 H 101.402 0.15958 0.736919 0
M  V30 1154 H 104.053 1.03196 1.51733 0
M  V30 1155 H 102.435 0.0643755 3.95948 0
M  V30 1156 H 103.609 2.8984 3.58231 0
M  V30 1157 H 101.924 2.49425 3.33431 0
M  V30 1158 H 104.521 0.545817 5.31907 0
M  V30 1159 H 104.864 -0.666294 4.10933 0
M  V30 1160 H 105.397 1.01212 3.84709 0
M  V30 1161 H 102.136 3.47224 5.55982 0
M  V30 1162 H 101.656 1.76827 5.73142 0
M  V30 1163 H 103.335 2.2626 6.06148 0
M  V30 1164 N 103.467 -1.45747 0.599634 0
M  V30 1165 C 104.4 -2.27547 -0.172552 0
M  V30 1166 C 105.378 -1.36657 -0.881116 0
M  V30 1167 O 106.562 -1.66081 -0.891595 0
M  V30 1168 C 103.689 -3.14829 -1.24903 0
M  V30 1169 C 102.735 -4.21603 -0.644465 0
M  V30 1170 S 103.568 -5.32754 0.541606 0
M  V30 1171 C 104.724 -6.23604 -0.535656 0
M  V30 1172 H 104.957 -2.92691 0.521468 0
M  V30 1173 H 102.49 -1.49473 0.386947 0
M  V30 1174 H 104.448 -3.65675 -1.86527 0
M  V30 1175 H 103.109 -2.48965 -1.91508 0
M  V30 1176 H 102.302 -4.82566 -1.45417 0
M  V30 1177 H 101.904 -3.73857 -0.103534 0
M  V30 1178 H 104.196 -6.62519 -1.41686 0
M  V30 1179 H 105.139 -7.0809 0.0376246 0
M  V30 1180 H 105.547 -5.58103 -0.84741 0
M  V30 1181 N 104.945 -0.338344 -1.53925 0
M  V30 1182 C 105.877 0.555117 -2.22376 0
M  V30 1183 C 106.89 1.06812 -1.22862 0
M  V30 1184 O 108.079 0.979163 -1.49247 0
M  V30 1185 C 105.179 1.77609 -2.88631 0
M  V30 1186 C 104.352 1.39927 -4.14414 0
M  V30 1187 C 103.411 2.47936 -4.64127 0
M  V30 1188 O 102.437 2.11461 -5.28463 0
M  V30 1189 N 103.639 3.79107 -4.39612 0
M  V30 1190 H 106.404 -0.0310778 -2.99684 0
M  V30 1191 H 103.965 -0.162226 -1.61085 0
M  V30 1192 H 105.957 2.49287 -3.18807 0
M  V30 1193 H 104.527 2.26978 -2.14941 0
M  V30 1194 H 103.747 0.513481 -3.90841 0
M  V30 1195 H 105.035 1.12341 -4.96243 0
M  V30 1196 H 104.433 4.11531 -3.88148 0
M  V30 1197 H 102.99 4.4697 -4.74406 0
M  V30 1198 N 106.423 1.57458 -0.0668435 0
M  V30 1199 C 107.371 2.13639 0.919851 0
M  V30 1200 C 108.365 1.07204 1.31163 0
M  V30 1201 O 109.571 1.25591 1.28945 0
M  V30 1202 H 105.946 0.683048 0.314562 0
M  V30 1203 H 107.917 2.95415 0.421047 0
M  V30 1204 C 106.666 2.70892 2.17975 0
M  V30 1205 H 105.989 3.5246 1.88711 0
M  V30 1206 H 107.429 3.13803 2.85138 0
M  V30 1207 C 105.888 1.65414 2.93496 0
M  V30 1208 O 106.418 1.07619 3.87015 0
M  V30 1209 N 104.624 1.36564 2.56512 0
M  V30 1210 H 104.171 1.83751 1.80536 0
M  V30 1211 H 104.129 0.66223 3.07347 0
M  V30 1212 N 107.901 -0.206675 1.56239 0
M  V30 1213 C 109.312 -0.772383 1.69974 0
M  V30 1214 C 109.663 -1.84353 0.671436 0
M  V30 1215 O 108.788 -2.15695 -0.174491 0
M  V30 1216 C 109.383 -1.40779 3.08167 0
M  V30 1217 C 107.942 -1.92072 3.23706 0
M  V30 1218 C 107.089 -0.786347 2.65917 0
M  V30 1219 H 110.04 0.0182223 1.5869 0
M  V30 1220 H 110.061 -2.27696 3.04852 0
M  V30 1221 H 109.573 -0.627958 3.82986 0
M  V30 1222 H 107.674 -2.7281 2.53782 0
M  V30 1223 H 107.787 -2.09046 4.31087 0
M  V30 1224 H 106.151 -1.1976 2.24788 0
M  V30 1225 H 106.934 -0.0189416 3.43295 0
M  V30 1226 N 109.379 -1.50304 -0.473955 0
M  V30 1227 C 110.795 -1.37667 -0.807466 0
M  V30 1228 C 110.995 -0.430555 -1.96846 0
M  V30 1229 O 110.051 0.127874 -2.52176 0
M  V30 1230 C 111.364 -2.78974 -1.12223 0
M  V30 1231 C 112.912 -2.87868 -1.22885 0
M  V30 1232 C 113.387 -4.30003 -1.57676 0
M  V30 1233 N 114.878 -4.3294 -1.64673 0
M  V30 1234 C 115.613 -5.3991 -1.93091 0
M  V30 1235 N 115.109 -6.57092 -2.1955 0
M  V30 1236 N 116.902 -5.27351 -1.94569 0
M  V30 1237 H 109.053 -2.10394 0.291212 0
M  V30 1238 H 111.316 -0.945575 0.0677609 0
M  V30 1239 H 111.022 -3.50031 -0.342229 0
M  V30 1240 H 110.896 -3.16038 -2.05913 0
M  V30 1241 H 113.283 -2.17032 -1.99953 0
M  V30 1242 H 113.364 -2.54352 -0.271814 0
M  V30 1243 H 113.008 -5.01375 -0.81149 0
M  V30 1244 H 112.938 -4.61004 -2.54525 0
M  V30 1245 H 115.429 -3.48441 -1.46277 0
M  V30 1246 H 115.742 -7.34425 -2.405 0
M  V30 1247 H 114.087 -6.60272 -2.16948 0
M  V30 1248 H 117.278 -4.34801 -1.73394 0
M  V30 1249 H 117.451 -6.10805 -2.16381 0
M  V30 1250 N 110.857 0.726932 -1.39834 0
M  V30 1251 C 111.789 1.85147 -1.35104 0
M  V30 1252 C 112.802 1.60736 -0.258392 0
M  V30 1253 O 113.991 1.70821 -0.517931 0
M  V30 1254 C 111.091 3.21332 -1.07697 0
M  V30 1255 C 110.264 3.73033 -2.28396 0
M  V30 1256 C 109.323 4.87802 -1.97322 0
M  V30 1257 O 108.349 5.01043 -2.70083 0
M  V30 1258 N 109.551 5.72768 -0.944273 0
M  V30 1259 H 112.316 1.89706 -2.32017 0
M  V30 1260 H 109.877 0.908006 -1.3404 0
M  V30 1261 H 111.869 3.95691 -0.849144 0
M  V30 1262 H 110.439 3.11992 -0.194909 0
M  V30 1263 H 109.659 2.89934 -2.6708 0
M  V30 1264 H 110.947 4.0431 -3.08887 0
M  V30 1265 H 110.345 5.64669 -0.341427 0
M  V30 1266 H 108.902 6.4716 -0.776346 0
M  V30 1267 N 112.336 1.25143 0.95797 0
M  V30 1268 C 113.566 1.12261 1.73439 0
M  V30 1269 C 113.974 -0.326715 1.86358 0
M  V30 1270 O 113.317 -1.2367 1.35836 0
M  V30 1271 C 113.379 1.69966 3.16784 0
M  V30 1272 C 113.043 3.18936 3.27305 0
M  V30 1273 C 114.04 4.15968 3.11877 0
M  V30 1274 C 111.725 3.59083 3.51234 0
M  V30 1275 C 113.719 5.51126 3.20217 0
M  V30 1276 C 111.406 4.9438 3.5921 0
M  V30 1277 C 112.404 5.90211 3.43716 0
M  V30 1278 O 112.092 7.23046 3.51368 0
M  V30 1279 H 111.824 0.392476 0.550399 0
M  V30 1280 H 114.378 1.65927 1.21068 0
M  V30 1281 H 112.608 1.10744 3.70503 0
M  V30 1282 H 114.297 1.52232 3.76272 0
M  V30 1283 H 115.063 3.86292 2.93264 0
M  V30 1284 H 110.942 2.84989 3.62356 0
M  V30 1285 H 114.486 6.25905 3.0804 0
M  V30 1286 H 110.383 5.23723 3.77339 0
M  V30 1287 H 111.151 7.31097 3.6802 0
M  V30 1288 N 113.814 -1.1601 1.06675 0
M  V30 1289 C 114.761 -2.20525 0.680967 0
M  V30 1290 C 115.731 -1.62904 -0.324283 0
M  V30 1291 O 116.916 -1.89615 -0.212294 0
M  V30 1292 C 114.056 -3.45013 0.0776551 0
M  V30 1293 C 113.169 -4.16863 1.13355 0
M  V30 1294 C 112.304 -5.2888 0.49597 0
M  V30 1295 C 111.343 -5.92537 1.53513 0
M  V30 1296 N 110.48 -6.96038 0.920631 0
M  V30 1297 H 115.32 -2.52876 1.57663 0
M  V30 1298 H 112.857 -1.24199 0.788223 0
M  V30 1299 H 114.815 -4.16193 -0.289704 0
M  V30 1300 H 113.445 -3.132 -0.781393 0
M  V30 1301 H 112.497 -3.44248 1.61857 0
M  V30 1302 H 113.809 -4.60294 1.92174 0
M  V30 1303 H 112.963 -6.06653 0.0758604 0
M  V30 1304 H 111.702 -4.86622 -0.324062 0
M  V30 1305 H 110.707 -5.13482 1.9651 0
M  V30 1306 H 111.932 -6.36873 2.35733 0
M  V30 1307 H 109.878 -6.55888 0.12138 0
M  V30 1308 H 109.795 -7.3786 1.64616 0
M  V30 1309 H 111.063 -7.77725 0.525795 0
M  V30 1310 N 115.292 -0.849877 -1.32721 0
M  V30 1311 C 116.541 -0.447175 -1.96681 0
M  V30 1312 C 116.854 1.00135 -1.68025 0
M  V30 1313 O 118.06 1.50926 -2.25685 0
M  V30 1314 C 116.516 -0.7487 -3.52026 0
M  V30 1315 C 116.124 -2.21264 -3.89546 0
M  V30 1316 C 117.868 -0.413487 -4.22481 0
M  V30 1317 C 115.775 -2.45763 -5.37917 0
M  V30 1318 H 114.705 -0.163486 -0.736063 0
M  V30 1319 H 117.356 -1.03999 -1.51183 0
M  V30 1320 H 115.738 -0.0853727 -3.95908 0
M  V30 1321 H 116.912 -2.91736 -3.56689 0
M  V30 1322 H 115.227 -2.5119 -3.32103 0
M  V30 1323 H 117.824 -0.574017 -5.3161 0
M  V30 1324 H 118.167 0.644492 -4.11281 0
M  V30 1325 H 118.7 -1.03251 -3.84167 0
M  V30 1326 H 115.439 -3.50168 -5.54132 0
M  V30 1327 H 114.959 -1.79864 -5.72197 0
M  V30 1328 H 116.638 -2.29471 -6.0494 0
M  V30 1329 N 116.77 1.45427 -0.607355 0
M  V30 1330 C 118.181 1.85756 -0.187535 0
M  V30 1331 C 118.532 1.5077 1.25551 0
M  V30 1332 O 117.657 0.93427 1.95193 0
M  V30 1333 C 118.252 3.37154 -0.333572 0
M  V30 1334 C 116.811 3.76387 0.0315542 0
M  V30 1335 C 115.958 2.69377 -0.658117 0
M  V30 1336 H 118.909 1.36231 -0.81405 0
M  V30 1337 H 118.93 3.78014 0.43428 0
M  V30 1338 H 118.442 3.62586 -1.38393 0
M  V30 1339 H 116.543 3.56571 1.0811 0
M  V30 1340 H 116.656 4.77731 -0.361935 0
M  V30 1341 H 115.02 2.5452 -0.0957873 0
M  V30 1342 H 115.803 2.97646 -1.7106 0
M  V30 1343 N 118.248 0.346503 1.53744 0
M  V30 1344 C 119.525 -0.304532 1.93215 0
M  V30 1345 C 119.905 -1.67993 1.27834 0
M  V30 1346 O 119.253 -2.24411 0.430352 0
M  V30 1347 C 119.463 -0.373852 3.46992 0
M  V30 1348 C 120.811 -0.62329 4.2 0
M  V30 1349 O 121.835 -0.455847 3.53271 0
M  V30 1350 O 120.694 -0.947879 5.38217 0
M  V30 1351 H 117.788 -0.178318 0.807547 0
M  V30 1352 H 120.334 0.397895 1.64969 0
M  V30 1353 H 119.106 0.591224 3.86808 0
M  V30 1354 H 118.729 -1.12294 3.81413 0
M  V30 1355 N 119.726 -1.57421 0.075193 0
M  V30 1356 C 120.972 -1.94716 -0.587998 0
M  V30 1357 C 121.327 -0.955205 -1.67014 0
M  V30 1358 O 120.62 0.0219842 -1.91587 0
M  V30 1359 C 120.814 -3.36428 -1.20626 0
M  V30 1360 C 120.643 -4.49317 -0.185541 0
M  V30 1361 C 119.413 -5.04772 0.23099 0
M  V30 1362 C 121.611 -5.11036 0.57854 0
M  V30 1363 N 119.593 -6.01204 1.24206 0
M  V30 1364 C 120.964 -6.02998 1.44199 0
M  V30 1365 C 123.019 -4.93844 0.634237 0
M  V30 1366 C 121.722 -6.79614 2.3562 0
M  V30 1367 C 123.748 -5.71106 1.53597 0
M  V30 1368 C 123.11 -6.6272 2.38709 0
M  V30 1369 H 119.209 -0.759536 -0.186089 0
M  V30 1370 H 121.793 -1.94097 0.153128 0
M  V30 1371 H 119.964 -3.37778 -1.9173 0
M  V30 1372 H 121.696 -3.60951 -1.8302 0
M  V30 1373 H 118.451 -4.73353 -0.152807 0
M  V30 1374 H 118.875 -6.54119 1.74521 0
M  V30 1375 H 123.517 -4.22799 -0.00960004 0
M  V30 1376 H 121.235 -7.49934 3.01038 0
M  V30 1377 H 124.821 -5.59824 1.58394 0
M  V30 1378 H 123.701 -7.2146 3.07352 0
M  V30 1379 N 121.204 0.198386 -1.56346 0
M  V30 1380 C 122.451 0.919286 -1.80431 0
M  V30 1381 C 122.779 1.83393 -0.647866 0
M  V30 1382 O 122.034 1.92236 0.366556 0
M  V30 1383 C 122.333 1.77031 -3.10475 0
M  V30 1384 C 121.999 1.00693 -4.39513 0
M  V30 1385 C 120.661 0.796145 -4.74568 0
M  V30 1386 C 123.013 0.469559 -5.19081 0
M  V30 1387 C 120.341 0.0364588 -5.86689 0
M  V30 1388 C 122.693 -0.2769 -6.31994 0
M  V30 1389 C 121.357 -0.49873 -6.65634 0
M  V30 1390 H 120.627 0.336391 -0.660244 0
M  V30 1391 H 123.274 0.185872 -1.90596 0
M  V30 1392 H 121.579 2.5723 -2.95533 0
M  V30 1393 H 123.276 2.33065 -3.26315 0
M  V30 1394 H 119.866 1.18122 -4.12001 0
M  V30 1395 H 124.05 0.619816 -4.92414 0
M  V30 1396 H 119.306 -0.145412 -6.11227 0
M  V30 1397 H 123.48 -0.700684 -6.92866 0
M  V30 1398 H 121.107 -1.0893 -7.52355 0
M  V30 1399 N 122.682 1.50554 0.465978 0
M  V30 1400 C 123.612 1.72722 1.57128 0
M  V30 1401 C 124.593 0.576294 1.6004 0
M  V30 1402 O 125.778 0.81598 1.76225 0
M  V30 1403 C 122.908 1.82605 2.95419 0
M  V30 1404 C 121.862 2.97835 3.07373 0
M  V30 1405 C 121.188 2.92867 4.47363 0
M  V30 1406 C 122.488 4.38265 2.84114 0
M  V30 1407 H 124.182 2.65267 1.38829 0
M  V30 1408 H 121.728 1.2765 0.666441 0
M  V30 1409 H 123.681 1.96698 3.72677 0
M  V30 1410 H 122.405 0.866858 3.14886 0
M  V30 1411 H 121.064 2.83401 2.3255 0
M  V30 1412 H 120.712 1.94783 4.63755 0
M  V30 1413 H 120.412 3.70227 4.56296 0
M  V30 1414 H 121.936 3.09015 5.26633 0
M  V30 1415 H 123.35 4.53198 3.51118 0
M  V30 1416 H 121.747 5.17115 3.04487 0
M  V30 1417 H 122.817 4.50281 1.7993 0
M  V30 1418 N 124.16 -0.719506 1.40217 0
M  V30 1419 C 125.108 -1.85493 1.40339 0
M  V30 1420 C 126.102 -1.66995 0.284415 0
M  V30 1421 O 127.308 -1.74148 0.455252 0
M  V30 1422 H 123.683 -0.610857 0.438586 0
M  V30 1423 H 125.654 -1.82506 2.36081 0
M  V30 1424 C 124.403 -3.23321 1.27901 0
M  V30 1425 H 123.726 -3.38159 2.1328 0
M  V30 1426 H 125.166 -4.02914 1.32045 0
M  V30 1427 C 123.625 -3.36898 -0.0111355 0
M  V30 1428 O 124.155 -3.89674 -0.975538 0
M  V30 1429 N 122.361 -2.90492 -0.0793393 0
M  V30 1430 H 121.908 -2.47731 0.706183 0
M  V30 1431 H 121.866 -2.99955 -0.942038 0
M  V30 1432 N 125.638 -1.25649 -0.95132 0
M  V30 1433 C 127.054 -1.02542 -1.223 0
M  V30 1434 C 127.254 0.255715 -1.99871 0
M  V30 1435 O 126.31 0.967558 -2.33226 0
M  V30 1436 C 127.623 -2.25065 -1.99415 0
M  V30 1437 C 129.171 -2.29861 -2.12446 0
M  V30 1438 C 129.646 -3.52048 -2.92961 0
M  V30 1439 N 131.137 -3.52465 -3.00538 0
M  V30 1440 C 131.872 -4.43672 -3.63239 0
M  V30 1441 N 131.368 -5.45157 -4.27523 0
M  V30 1442 N 133.161 -4.31346 -3.60412 0
M  V30 1443 H 125.312 -2.07951 -0.432471 0
M  V30 1444 H 127.575 -0.91339 -0.253816 0
M  V30 1445 H 127.281 -3.18194 -1.49817 0
M  V30 1446 H 127.155 -2.28502 -3.00111 0
M  V30 1447 H 129.542 -1.37252 -2.61239 0
M  V30 1448 H 129.623 -2.3044 -1.11044 0
M  V30 1449 H 129.267 -4.44981 -2.44856 0
M  V30 1450 H 129.197 -3.48715 -3.94596 0
M  V30 1451 H 131.688 -2.79056 -2.54826 0
M  V30 1452 H 132.001 -6.10958 -4.73234 0
M  V30 1453 H 130.346 -5.49025 -4.26141 0
M  V30 1454 H 133.537 -3.51288 -3.09377 0
M  V30 1455 H 133.71 -5.02624 -4.0899 0
M  V30 1456 N 127.117 1.15442 -1.07289 0
M  V30 1457 C 128.049 2.19773 -0.650585 0
M  V30 1458 C 129.062 1.60076 0.296572 0
M  V30 1459 O 130.251 1.78293 0.0859905 0
M  V30 1460 C 127.351 3.38838 0.0650398 0
M  V30 1461 C 126.524 4.2808 -0.898141 0
M  V30 1462 C 125.583 5.2574 -0.219926 0
M  V30 1463 O 124.609 5.62654 -0.860773 0
M  V30 1464 N 125.811 5.71205 1.03466 0
M  V30 1465 H 128.576 2.56622 -1.54808 0
M  V30 1466 H 126.137 1.30551 -0.957494 0
M  V30 1467 H 128.129 4.01222 0.529415 0
M  V30 1468 H 126.699 3.00409 0.864466 0
M  V30 1469 H 125.919 3.62804 -1.54165 0
M  V30 1470 H 127.207 4.84577 -1.5512 0
M  V30 1471 H 126.605 5.43325 1.57526 0
M  V30 1472 H 125.162 6.35633 1.44272 0
M  V30 1473 N 128.595 0.856903 1.32268 0
M  V30 1474 C 129.542 0.301172 2.28827 0
M  V30 1475 C 130.512 -0.593104 1.5515 0
M  V30 1476 O 131.697 -0.527537 1.83362 0
M  V30 1477 C 128.837 -0.502523 3.41422 0
M  V30 1478 C 127.95 0.417797 4.29975 0
M  V30 1479 C 127.085 -0.398749 5.29701 0
M  V30 1480 C 126.124 0.518827 6.09897 0
M  V30 1481 N 125.261 -0.260674 7.01616 0
M  V30 1482 H 130.101 1.12983 2.75751 0
M  V30 1483 H 127.638 0.568582 1.35667 0
M  V30 1484 H 129.596 -0.984141 4.05426 0
M  V30 1485 H 128.226 -1.29599 2.95642 0
M  V30 1486 H 127.278 1.01781 3.66531 0
M  V30 1487 H 128.59 1.12191 4.86019 0
M  V30 1488 H 127.744 -0.943435 5.9932 0
M  V30 1489 H 126.483 -1.13622 4.7428 0
M  V30 1490 H 125.488 1.07538 5.39181 0
M  V30 1491 H 126.713 1.25495 6.67404 0
M  V30 1492 H 124.659 -0.981198 6.4862 0
M  V30 1493 H 124.576 0.384364 7.55022 0
M  V30 1494 H 125.844 -0.787014 7.75517 0
M  V30 1495 N 130.073 -1.45103 0.615059 0
M  V30 1496 C 131.35 -1.95549 0.0448276 0
M  V30 1497 C 131.73 -1.55737 -1.4251 0
M  V30 1498 O 131.078 -0.823556 -2.13143 0
M  V30 1499 C 131.288 -3.48098 0.250785 0
M  V30 1500 C 132.636 -4.24384 0.135509 0
M  V30 1501 O 133.66 -3.55738 0.181299 0
M  V30 1502 O 132.519 -5.46493 0.0268878 0
M  V30 1503 H 129.613 -0.8264 -0.0314845 0
M  V30 1504 H 132.159 -1.55232 0.685642 0
M  V30 1505 H 130.931 -3.7007 1.27139 0
M  V30 1506 H 130.554 -3.95323 -0.424937 0
M  V30 1507 N 131.551 -0.354651 -1.53558 0
M  V30 1508 C 132.797 0.238797 -2.01389 0
M  V30 1509 C 133.13 1.49309 -1.2418 0
M  V30 1510 O 132.405 1.91638 -0.332457 0
M  V30 1511 C 132.688 0.541771 -3.56001 0
M  V30 1512 C 132.541 -0.725388 -4.43912 0
M  V30 1513 C 133.86 1.34685 -4.18984 0
M  V30 1514 H 130.979 0.0853177 -0.732045 0
M  V30 1515 H 133.621 -0.477384 -1.83905 0
M  V30 1516 H 131.771 1.15189 -3.71031 0
M  V30 1517 H 133.443 -1.36313 -4.407 0
M  V30 1518 H 131.686 -1.34801 -4.12324 0
M  V30 1519 H 132.357 -0.468505 -5.50008 0
M  V30 1520 H 134.833 0.830837 -4.07721 0
M  V30 1521 H 133.709 1.52759 -5.27215 0
M  V30 1522 H 133.97 2.35221 -3.74331 0
M  V30 1523 N 133.029 1.57378 -0.0835403 0
M  V30 1524 C 133.976 2.13384 0.879539 0
M  V30 1525 C 134.946 1.04936 1.28754 0
M  V30 1526 O 136.131 1.32662 1.37133 0
M  V30 1527 C 133.271 2.70932 2.13752 0
M  V30 1528 C 132.384 3.93575 1.7811 0
M  V30 1529 C 131.519 4.39326 2.98607 0
M  V30 1530 C 130.558 5.54587 2.59037 0
M  V30 1531 N 129.695 5.95243 3.72331 0
M  V30 1532 H 134.535 2.9537 0.395076 0
M  V30 1533 H 132.072 1.45953 0.183349 0
M  V30 1534 H 134.03 3.02411 2.87408 0
M  V30 1535 H 132.66 1.91693 2.59718 0
M  V30 1536 H 131.712 3.68483 0.94469 0
M  V30 1537 H 133.024 4.77258 1.45005 0
M  V30 1538 H 132.178 4.72528 3.80529 0
M  V30 1539 H 130.917 3.5452 3.34913 0
M  V30 1540 H 129.922 5.21024 1.75539 0
M  V30 1541 H 131.147 6.41133 2.23887 0
M  V30 1542 H 129.093 5.13385 4.08378 0
M  V30 1543 H 129.01 6.73694 3.43034 0
M  V30 1544 H 130.278 6.33072 4.54797 0
M  V30 1545 N 134.507 -0.190092 1.56449 0
M  V30 1546 C 135.784 -0.935886 1.71757 0
M  V30 1547 C 136.164 -2.01173 0.639726 0
M  V30 1548 O 135.512 -2.25827 -0.348502 0
M  V30 1549 C 135.722 -1.51775 3.1427 0
M  V30 1550 C 137.07 -1.99794 3.74656 0
M  V30 1551 O 138.094 -1.61607 3.1743 0
M  V30 1552 O 136.953 -2.70079 4.751 0
M  V30 1553 H 134.047 -0.439229 0.700719 0
M  V30 1554 H 136.593 -0.179395 1.68749 0
M  V30 1555 H 135.365 -0.742505 3.84191 0
M  V30 1556 H 134.988 -2.33894 3.21527 0
M  V30 1557 N 135.985 -1.50799 -0.457987 0
M  V30 1558 C 137.233 -1.62121 -1.2067 0
M  V30 1559 C 137.554 -0.329793 -1.92191 0
M  V30 1560 O 136.824 0.653409 -1.84682 0
M  V30 1561 H 135.404 -0.597441 -0.448411 0
M  V30 1562 H 138.066 -1.87637 -0.527096 0
M  V30 1563 H 137.162 -2.43882 -1.94751 0
M  V30 1564 N 137.463 0.71206 -1.40597 0
M  V30 1565 C 138.41 1.82613 -1.41142 0
M  V30 1566 C 139.38 1.63925 -0.267903 0
M  V30 1567 O 140.565 1.85009 -0.466495 0
M  V30 1568 C 137.705 3.20354 -1.28324 0
M  V30 1569 C 136.818 3.50589 -2.52411 0
M  V30 1570 C 135.953 4.77855 -2.32009 0
M  V30 1571 C 134.992 5.01005 -3.51654 0
M  V30 1572 N 134.129 6.19487 -3.30425 0
M  V30 1573 H 138.969 1.81482 -2.36365 0
M  V30 1574 H 136.506 0.886475 -1.17388 0
M  V30 1575 H 138.464 3.99899 -1.18899 0
M  V30 1576 H 137.094 3.20705 -0.367189 0
M  V30 1577 H 136.146 2.65573 -2.72351 0
M  V30 1578 H 137.458 3.63604 -3.41458 0
M  V30 1579 H 136.612 5.65424 -2.19956 0
M  V30 1580 H 135.351 4.67056 -1.40392 0
M  V30 1581 H 134.356 4.1189 -3.64179 0
M  V30 1582 H 135.581 5.13674 -4.44202 0
M  V30 1583 H 133.527 6.09932 -2.41494 0
M  V30 1584 H 133.444 6.33194 -4.13039 0
M  V30 1585 H 134.712 7.09834 -3.22113 0
M  V30 1586 N 138.941 1.26152 0.944643 0
M  V30 1587 C 140.171 1.14094 1.72239 0
M  V30 1588 C 140.579 -0.306931 1.86694 0
M  V30 1589 O 139.922 -1.22222 1.3714 0
M  V30 1590 C 139.984 1.73316 3.14963 0
M  V30 1591 C 139.648 3.2239 3.23904 0
M  V30 1592 C 140.645 4.19252 3.07447 0
M  V30 1593 C 138.33 3.62788 3.47405 0
M  V30 1594 C 140.324 5.54491 3.14353 0
M  V30 1595 C 138.011 4.98162 3.53947 0
M  V30 1596 C 139.009 5.93823 3.37436 0
M  V30 1597 O 138.697 7.26732 3.43679 0
M  V30 1598 H 138.429 0.398292 0.546205 0
M  V30 1599 H 140.983 1.67201 1.19301 0
M  V30 1600 H 139.213 1.14667 3.69308 0
M  V30 1601 H 140.902 1.56214 3.74636 0
M  V30 1602 H 141.668 3.8938 2.8915 0
M  V30 1603 H 137.547 2.88816 3.59313 0
M  V30 1604 H 141.091 6.29137 3.01384 0
M  V30 1605 H 136.988 5.27695 3.71763 0
M  V30 1606 H 137.756 7.3496 3.60245 0
M  V30 1607 N 140.419 -1.14872 1.07899 0
M  V30 1608 C 141.644 -1.90202 0.826926 0
M  V30 1609 C 142.069 -1.77774 -0.614664 0
M  V30 1610 O 141.427 -1.11431 -1.43013 0
M  V30 1611 C 141.475 -3.38352 1.24702 0
M  V30 1612 O 140.579 -4.10497 0.39575 0
M  V30 1613 H 139.92 -0.591968 0.300782 0
M  V30 1614 H 142.45 -1.45437 1.43907 0
M  V30 1615 H 142.46 -3.89156 1.22563 0
M  V30 1616 H 141.135 -3.46715 2.29698 0
M  V30 1617 H 139.712 -3.69796 0.480117 0
M  V30 1618 N 141.898 -0.863906 -1.31812 0
M  V30 1619 C 142.83 -0.272485 -2.27575 0
M  V30 1620 C 143.843 0.56104 -1.52827 0
M  V30 1621 O 145.032 0.384021 -1.7432 0
M  V30 1622 C 142.132 0.63283 -3.32939 0
M  V30 1623 C 141.305 -0.166902 -4.37081 0
M  V30 1624 C 140.364 0.665608 -5.21973 0
M  V30 1625 O 139.39 0.0958091 -5.69119 0
M  V30 1626 N 140.592 1.9787 -5.45736 0
M  V30 1627 H 143.357 -1.0954 -2.78964 0
M  V30 1628 H 140.918 -0.724791 -1.4477 0
M  V30 1629 H 142.91 1.19532 -3.86645 0
M  V30 1630 H 141.48 1.35642 -2.81638 0
M  V30 1631 H 140.7 -0.910838 -3.83533 0
M  V30 1632 H 141.988 -0.715874 -5.03739 0
M  V30 1633 H 141.386 2.46484 -5.09178 0
M  V30 1634 H 139.943 2.48911 -6.024 0
M  V30 1635 N 143.376 1.44774 -0.622745 0
M  V30 1636 C 144.622 2.0242 -0.124083 0
M  V30 1637 C 144.955 1.4881 1.24777 0
M  V30 1638 O 144.23 0.668799 1.8264 0
M  V30 1639 C 144.513 3.59957 -0.101619 0
M  V30 1640 C 144.366 4.23867 -1.50521 0
M  V30 1641 C 145.685 4.36284 0.578272 0
M  V30 1642 H 142.804 0.735528 -0.0465645 0
M  V30 1643 H 145.446 1.72447 -0.797617 0
M  V30 1644 H 143.596 3.85623 0.471934 0
M  V30 1645 H 145.268 4.09336 -2.12701 0
M  V30 1646 H 143.511 3.81684 -2.06154 0
M  V30 1647 H 144.182 5.32843 -1.4416 0
M  V30 1648 H 146.658 4.16001 0.0906057 0
M  V30 1649 H 145.534 5.46004 0.563149 0
M  V30 1650 H 145.795 4.10271 1.64713 0
M  V30 1651 N 144.854 0.36279 1.53368 0
M  V30 1652 C 145.784 -0.476976 2.28576 0
M  V30 1653 C 146.765 -1.08631 1.30894 0
M  V30 1654 O 147.95 -1.10409 1.59761 0
M  V30 1655 C 145.08 -1.61828 3.07293 0
M  V30 1656 C 144.034 -1.13633 4.1264 0
M  V30 1657 C 143.36 -2.36766 4.79423 0
M  V30 1658 C 144.66 -0.223061 5.21823 0
M  V30 1659 H 146.354 0.150474 2.99022 0
M  V30 1660 H 143.9 0.0738103 1.43811 0
M  V30 1661 H 145.853 -2.21237 3.58653 0
M  V30 1662 H 144.577 -2.27292 2.34533 0
M  V30 1663 H 143.236 -0.564945 3.62221 0
M  V30 1664 H 142.884 -3.0068 4.03238 0
M  V30 1665 H 142.584 -2.05192 5.50609 0
M  V30 1666 H 144.108 -2.96865 5.33576 0
M  V30 1667 H 145.522 -0.724545 5.68703 0
M  V30 1668 H 143.919 0.001678 6.001 0
M  V30 1669 H 144.989 0.735553 4.79289 0
M  V30 1670 N 146.332 -1.57332 0.0918853 0
M  V30 1671 C 147.295 -2.12708 -0.85369 0
M  V30 1672 C 148.295 -1.05561 -1.213 0
M  V30 1673 O 149.485 -1.31461 -1.14296 0
M  V30 1674 C 146.617 -2.64503 -2.15061 0
M  V30 1675 H 147.81 -2.97573 -0.3729 0
M  V30 1676 H 145.363 -1.55509 -0.157072 0
M  V30 1677 H 146.098 -1.83149 -2.67632 0
M  V30 1678 H 145.883 -3.4284 -1.90272 0
M  V30 1679 H 147.373 -3.07351 -2.82711 0
M  V30 1680 N 147.81 0.181792 -1.56548 0
M  V30 1681 C 148.758 1.24461 -1.965 0
M  V30 1682 C 149.752 1.464 -0.852261 0
M  V30 1683 O 150.958 1.47103 -1.03733 0
M  V30 1684 H 147.333 0.418138 -0.625031 0
M  V30 1685 H 149.304 0.880714 -2.85107 0
M  V30 1686 C 148.053 2.57891 -2.33212 0
M  V30 1687 H 147.376 2.41829 -3.18369 0
M  V30 1688 H 148.816 3.3097 -2.65019 0
M  V30 1689 C 147.275 3.15871 -1.17163 0
M  V30 1690 O 147.805 3.9913 -0.453708 0
M  V30 1691 N 146.011 2.74808 -0.944936 0
M  V30 1692 H 145.558 2.07205 -1.53049 0
M  V30 1693 H 145.516 3.13939 -0.170286 0
M  V30 1694 N 149.288 1.51039 0.449983 0
M  V30 1695 C 150.536 1.62759 1.19808 0
M  V30 1696 C 150.857 0.339981 1.92013 0
M  V30 1697 O 150.127 -0.643606 1.85026 0
M  V30 1698 H 148.707 0.599811 0.445237 0
M  V30 1699 H 151.369 1.87914 0.517138 0
M  V30 1700 H 150.465 2.44911 1.93455 0
M  V30 1701 N 150.766 -0.704594 1.40972 0
M  V30 1702 C 151.696 -1.83124 1.44872 0
M  V30 1703 C 152.677 -1.67281 0.30838 0
M  V30 1704 O 153.862 -1.87149 0.518556 0
M  V30 1705 C 150.992 -3.21181 1.32136 0
M  V30 1706 C 149.946 -3.51714 2.43888 0
M  V30 1707 C 149.272 -4.89032 2.16222 0
M  V30 1708 C 150.572 -3.516 3.86232 0
M  V30 1709 H 152.266 -1.80117 2.39161 0
M  V30 1710 H 149.812 -0.865145 1.15114 0
M  V30 1711 H 151.765 -3.99702 1.33479 0
M  V30 1712 H 150.489 -3.24791 0.343279 0
M  V30 1713 H 149.148 -2.75539 2.41813 0
M  V30 1714 H 148.796 -4.89256 1.16778 0
M  V30 1715 H 148.496 -5.10426 2.911 0
M  V30 1716 H 150.02 -5.69873 2.19265 0
M  V30 1717 H 151.434 -4.2014 3.9007 0
M  V30 1718 H 149.831 -3.84523 4.60719 0
M  V30 1719 H 150.901 -2.50757 4.15029 0
M  V30 1720 N 152.244 -1.26651 -0.937939 0
M  V30 1721 C 153.521 -1.0313 -1.66204 0
M  V30 1722 C 153.901 0.437256 -2.06522 0
M  V30 1723 O 153.249 1.41831 -1.79154 0
M  V30 1724 C 153.459 -1.98314 -2.87181 0
M  V30 1725 C 154.807 -2.27107 -3.58758 0
M  V30 1726 O 155.831 -1.96205 -2.97291 0
M  V30 1727 O 154.69 -2.79736 -4.69479 0
M  V30 1728 H 151.784 -0.392384 -0.727986 0
M  V30 1729 H 154.33 -1.37874 -0.989382 0
M  V30 1730 H 153.102 -2.97399 -2.54302 0
M  V30 1731 H 152.725 -1.64068 -3.6217 0
M  V30 1732 N 153.722 1.14298 -1.08507 0
M  V30 1733 C 154.67 2.21483 -0.710483 0
M  V30 1734 C 155.664 1.66998 0.284234 0
M  V30 1735 O 156.87 1.79401 0.146692 0
M  V30 1736 H 153.245 0.721578 -0.211729 0
M  V30 1737 H 155.216 2.50348 -1.62384 0
M  V30 1738 C 153.965 3.4743 -0.137007 0
M  V30 1739 H 153.288 3.89686 -0.893592 0
M  V30 1740 H 154.728 4.2391 0.0872789 0
M  V30 1741 C 153.187 3.17548 1.12538 0
M  V30 1742 O 153.717 3.35437 2.21009 0
M  V30 1743 N 151.923 2.71499 1.03617 0
M  V30 1744 H 151.47 2.57143 0.153403 0
M  V30 1745 H 151.428 2.51881 1.88158 0
M  V30 1746 N 155.201 0.870884 1.31352 0
M  V30 1747 C 156.148 0.325425 2.28494 0
M  V30 1748 C 157.118 -0.576615 1.5577 0
M  V30 1749 O 158.303 -0.508059 1.83911 0
M  V30 1750 C 155.443 -0.466283 3.41935 0
M  V30 1751 C 154.556 0.463378 4.29508 0
M  V30 1752 C 153.691 -0.342544 5.30094 0
M  V30 1753 C 152.73 0.583486 6.09313 0
M  V30 1754 N 151.867 -0.186244 7.01853 0
M  V30 1755 H 156.707 1.15901 2.74538 0
M  V30 1756 H 154.244 0.58294 1.35056 0
M  V30 1757 H 156.202 -0.941085 4.06447 0
M  V30 1758 H 154.832 -1.26456 2.97 0
M  V30 1759 H 153.884 1.05663 3.65431 0
M  V30 1760 H 155.196 1.1734 4.84802 0
M  V30 1761 H 154.35 -0.879816 6.00287 0
M  V30 1762 H 153.089 -1.08585 4.75458 0
M  V30 1763 H 152.094 1.13251 5.3801 0
M  V30 1764 H 153.319 1.32566 6.66035 0
M  V30 1765 H 151.265 -0.912348 6.49625 0
M  V30 1766 H 151.182 0.464422 7.54572 0
M  V30 1767 H 152.45 -0.704716 7.76308 0
M  V30 1768 N 156.679 -1.44442 0.630414 0
M  V30 1769 C 157.609 -2.33418 -0.0618083 0
M  V30 1770 C 158.59 -1.48165 -0.835541 0
M  V30 1771 O 159.775 -1.76886 -0.801564 0
M  V30 1772 C 156.905 -3.31222 -1.04449 0
M  V30 1773 C 155.859 -4.26288 -0.382436 0
M  V30 1774 C 155.185 -5.13954 -1.47497 0
M  V30 1775 C 156.485 -5.1744 0.710865 0
M  V30 1776 H 158.179 -2.91548 0.681184 0
M  V30 1777 H 155.725 -1.40191 0.329026 0
M  V30 1778 H 157.678 -3.92351 -1.53748 0
M  V30 1779 H 156.402 -2.71299 -1.81836 0
M  V30 1780 H 155.061 -3.6649 0.0899054 0
M  V30 1781 H 154.709 -4.50385 -2.2397 0
M  V30 1782 H 154.409 -5.7837 -1.03737 0
M  V30 1783 H 155.933 -5.77955 -1.96979 0
M  V30 1784 H 157.347 -5.72509 0.300996 0
M  V30 1785 H 155.744 -5.90455 1.07156 0
M  V30 1786 H 156.814 -4.58496 1.57829 0
M  V30 1787 N 158.157 -0.370918 -1.53173 0
M  V30 1788 C 159.573 -0.0200818 -1.59587 0
M  V30 1789 C 159.773 1.46279 -1.38581 0
M  V30 1790 O 158.829 2.22506 -1.19363 0
M  V30 1791 C 160.142 -0.4808 -2.96831 0
M  V30 1792 C 161.69 -0.435477 -3.09956 0
M  V30 1793 C 162.165 -0.872092 -4.4962 0
M  V30 1794 N 163.656 -0.827364 -4.55751 0
M  V30 1795 C 164.391 -1.13683 -5.62018 0
M  V30 1796 N 163.887 -1.51584 -6.76014 0
M  V30 1797 N 165.68 -1.05927 -5.52029 0
M  V30 1798 H 157.831 -1.33652 -1.65079 0
M  V30 1799 H 160.094 -0.546634 -0.774529 0
M  V30 1800 H 159.8 -1.51577 -3.1736 0
M  V30 1801 H 159.674 0.129796 -3.76977 0
M  V30 1802 H 162.061 0.590371 -2.89134 0
M  V30 1803 H 162.142 -1.08164 -2.31806 0
M  V30 1804 H 161.786 -1.89608 -4.71181 0
M  V30 1805 H 161.716 -0.203127 -5.26208 0
M  V30 1806 H 164.207 -0.548216 -3.73902 0
M  V30 1807 H 164.52 -1.73609 -7.53047 0
M  V30 1808 H 162.865 -1.55454 -6.77391 0
M  V30 1809 H 166.056 -0.762321 -4.61851 0
M  V30 1810 H 166.229 -1.30378 -6.34749 0
M  V30 1811 N 159.635 1.57281 -0.100228 0
M  V30 1812 C 160.545 2.17833 0.870965 0
M  V30 1813 C 161.561 1.14921 1.30649 0
M  V30 1814 O 162.737 1.47313 1.37335 0
M  V30 1815 C 159.802 2.75085 2.1102 0
M  V30 1816 C 158.863 3.9297 1.72838 0
M  V30 1817 C 158.096 4.47482 2.90854 0
M  V30 1818 O 158.319 4.00922 4.05731 0
M  V30 1819 O 157.253 5.38433 2.69023 0
M  V30 1820 H 161.079 3.0124 0.38575 0
M  V30 1821 H 158.664 1.48881 0.124397 0
M  V30 1822 H 160.546 3.11656 2.83634 0
M  V30 1823 H 159.221 1.94721 2.58584 0
M  V30 1824 H 158.128 3.61201 0.973883 0
M  V30 1825 H 159.461 4.74713 1.30033 0
M  V30 1826 N 161.113 -0.173488 1.56642 0
M  V30 1827 C 162.39 -0.917617 1.7274 0
M  V30 1828 C 162.77 -2.00484 0.661027 0
M  V30 1829 O 162.118 -2.26184 -0.32453 0
M  V30 1830 C 162.328 -1.48433 3.15862 0
M  V30 1831 C 163.676 -1.95809 3.76754 0
M  V30 1832 O 164.7 -1.58231 3.19126 0
M  V30 1833 O 163.559 -2.65024 4.77938 0
M  V30 1834 H 160.653 -0.431772 0.705338 0
M  V30 1835 H 163.199 -0.161487 1.6893 0
M  V30 1836 H 161.971 -0.701715 3.84957 0
M  V30 1837 H 161.594 -2.30471 3.23989 0
M  V30 1838 N 162.591 -1.51276 -0.441967 0
M  V30 1839 C 163.521 -1.752 -1.54361 0
M  V30 1840 C 164.502 -0.601682 -1.59103 0
M  V30 1841 O 165.687 -0.843913 -1.74905 0
M  V30 1842 C 162.817 -1.87282 -2.92477 0
M  V30 1843 C 161.771 -3.02687 -3.02596 0
M  V30 1844 C 161.097 -2.99947 -4.42647 0
M  V30 1845 C 162.397 -4.4273 -2.77106 0
M  V30 1846 H 164.091 -2.67442 -1.34592 0
M  V30 1847 H 161.637 -1.28694 -0.646048 0
M  V30 1848 H 163.59 -2.02602 -3.695 0
M  V30 1849 H 162.314 -0.916844 -3.13467 0
M  V30 1850 H 160.973 -2.87065 -2.28012 0
M  V30 1851 H 160.621 -2.02136 -4.60597 0
M  V30 1852 H 160.321 -3.77439 -4.50348 0
M  V30 1853 H 161.845 -3.17354 -5.2165 0
M  V30 1854 H 163.259 -4.58727 -3.43864 0
M  V30 1855 H 161.656 -5.21893 -2.96222 0
M  V30 1856 H 162.726 -4.53087 -1.72744 0
M  V30 1857 N 164.069 0.697108 -1.41344 0
M  V30 1858 C 164.979 1.84088 -1.45427 0
M  V30 1859 C 165.995 1.70545 -0.34501 0
M  V30 1860 O 167.171 1.92488 -0.592492 0
M  V30 1861 C 164.236 3.20056 -1.33286 0
M  V30 1862 C 163.297 3.45718 -2.54514 0
M  V30 1863 C 162.53 4.75199 -2.42944 0
M  V30 1864 O 162.753 5.51579 -1.45318 0
M  V30 1865 O 161.687 5.0161 -3.32672 0
M  V30 1866 H 165.513 1.836 -2.41919 0
M  V30 1867 H 163.098 0.849966 -1.22866 0
M  V30 1868 H 164.98 4.01236 -1.28794 0
M  V30 1869 H 163.655 3.2123 -0.39909 0
M  V30 1870 H 162.562 2.64474 -2.64583 0
M  V30 1871 H 163.895 3.49356 -3.46715 0
M  V30 1872 N 165.547 1.27147 0.931209 0
M  V30 1873 C 166.963 1.04475 1.20653 0
M  V30 1874 C 167.163 -0.223885 2.00252 0
M  V30 1875 O 166.219 -0.930332 2.34736 0
M  V30 1876 C 167.532 2.28209 1.95809 0
M  V30 1877 C 169.08 2.33211 2.08762 0
M  V30 1878 C 169.555 3.56665 2.87323 0
M  V30 1879 N 171.046 3.57201 2.94892 0
M  V30 1880 C 171.781 4.49395 3.56134 0
M  V30 1881 N 171.277 5.51889 4.18796 0
M  V30 1882 N 173.07 4.37026 3.53504 0
M  V30 1883 H 165.221 2.08612 0.399333 0
M  V30 1884 H 167.484 0.917312 0.239253 0
M  V30 1885 H 167.19 3.20538 1.44736 0
M  V30 1886 H 167.064 2.33247 2.96438 0
M  V30 1887 H 169.451 1.41391 2.59023 0
M  V30 1888 H 169.532 2.32178 1.07364 0
M  V30 1889 H 169.176 4.4882 2.37746 0
M  V30 1890 H 169.106 3.54948 3.88998 0
M  V30 1891 H 171.597 2.83074 2.50354 0
M  V30 1892 H 171.91 6.18409 4.63454 0
M  V30 1893 H 170.255 5.55735 4.17353 0
M  V30 1894 H 173.446 3.56166 3.03749 0
M  V30 1895 H 173.619 5.09067 4.00942 0
M  V30 1896 N 167.025 -1.13721 1.09112 0
M  V30 1897 C 167.955 -2.21148 0.749385 0
M  V30 1898 C 168.936 -1.6792 -0.271475 0
M  V30 1899 O 170.121 -1.93693 -0.140251 0
M  V30 1900 C 167.251 -3.46905 0.165659 0
M  V30 1901 C 166.205 -4.13203 1.11567 0
M  V30 1902 C 165.531 -5.33248 0.393809 0
M  V30 1903 C 166.831 -4.60912 2.45678 0
M  V30 1904 H 168.525 -2.4999 1.64758 0
M  V30 1905 H 166.071 -1.20156 0.793626 0
M  V30 1906 H 168.024 -4.21313 -0.085466 0
M  V30 1907 H 166.748 -3.17449 -0.767714 0
M  V30 1908 H 165.407 -3.40758 1.35202 0
M  V30 1909 H 165.055 -5.00054 -0.543599 0
M  V30 1910 H 164.755 -5.78552 1.02721 0
M  V30 1911 H 166.279 -6.10413 0.150908 0
M  V30 1912 H 167.693 -5.26759 2.26269 0
M  V30 1913 H 166.09 -5.16944 3.04776 0
M  V30 1914 H 167.16 -3.75603 3.06677 0
M  V30 1915 N 168.503 -0.877838 -1.30888 0
M  V30 1916 C 169.45 -0.337538 -2.28318 0
M  V30 1917 C 170.42 0.568346 -1.56074 0
M  V30 1918 O 171.605 0.498298 -1.84178 0
M  V30 1919 C 168.745 0.448142 -3.42178 0
M  V30 1920 C 167.858 -0.48615 -4.29256 0
M  V30 1921 C 166.993 0.314427 -5.30269 0
M  V30 1922 C 166.032 -0.615791 -6.08995 0
M  V30 1923 N 165.169 0.14902 -7.01942 0
M  V30 1924 H 170.009 -1.17356 -2.73919 0
M  V30 1925 H 167.546 -0.590094 -1.34745 0
M  V30 1926 H 169.504 0.919517 -4.06941 0
M  V30 1927 H 168.134 1.24879 -2.97666 0
M  V30 1928 H 167.186 -1.076 -3.64865 0
M  V30 1929 H 168.498 -1.19909 -4.84173 0
M  V30 1930 H 167.652 0.847969 -6.00745 0
M  V30 1931 H 166.391 1.06062 -4.76027 0
M  V30 1932 H 165.396 -1.16102 -5.37401 0
M  V30 1933 H 166.621 -1.36097 -6.65323 0
M  V30 1934 H 164.567 0.877884 -6.50099 0
M  V30 1935 H 164.484 -0.504433 -7.54315 0
M  V30 1936 H 165.752 0.663537 -7.76671 0
M  V30 1937 N 169.982 1.44106 -0.638065 0
M  V30 1938 C 170.929 2.30715 0.062701 0
M  V30 1939 C 171.899 1.43882 0.829883 0
M  V30 1940 O 173.084 1.72775 0.809532 0
M  V30 1941 C 170.224 3.29258 1.03358 0
M  V30 1942 C 169.337 4.31192 0.26409 0
M  V30 1943 C 168.472 5.16825 1.22741 0
M  V30 1944 C 167.511 6.10462 0.447475 0
M  V30 1945 N 166.648 6.8877 1.36161 0
M  V30 1946 H 171.488 2.90096 -0.681781 0
M  V30 1947 H 169.025 1.42925 -0.347988 0
M  V30 1948 H 170.983 3.84886 1.60992 0
M  V30 1949 H 169.613 2.71562 1.74511 0
M  V30 1950 H 168.665 3.77981 -0.428295 0
M  V30 1951 H 169.977 4.97619 -0.343052 0
M  V30 1952 H 169.131 5.77004 1.87487 0
M  V30 1953 H 167.87 4.50488 1.86847 0
M  V30 1954 H 166.875 5.49386 -0.213433 0
M  V30 1955 H 168.1 6.78837 -0.188968 0
M  V30 1956 H 166.046 6.25096 1.98975 0
M  V30 1957 H 165.963 7.51663 0.808656 0
M  V30 1958 H 167.231 7.53467 1.99769 0
M  V30 1959 N 171.46 0.379036 1.52974 0
M  V30 1960 C 172.709 -0.207612 2.00629 0
M  V30 1961 C 173.022 -1.48758 1.27006 0
M  V30 1962 O 174.228 -2.15365 1.65318 0
M  V30 1963 C 172.684 -0.42053 3.57435 0
M  V30 1964 C 172.292 0.845587 4.39948 0
M  V30 1965 C 174.036 -0.964102 4.13407 0
M  V30 1966 C 171.943 0.601513 5.88333 0
M  V30 1967 H 170.873 -0.0813591 0.749598 0
M  V30 1968 H 173.524 0.499853 1.76561 0
M  V30 1969 H 171.906 -1.18959 3.7771 0
M  V30 1970 H 173.08 1.61848 4.31442 0
M  V30 1971 H 171.395 1.31336 3.95145 0
M  V30 1972 H 173.992 -1.16225 5.21916 0
M  V30 1973 H 174.335 -1.93019 3.68849 0
M  V30 1974 H 174.868 -0.25487 3.96983 0
M  V30 1975 H 171.607 1.53831 6.37194 0
M  V30 1976 H 171.127 -0.132628 5.99653 0
M  V30 1977 H 172.806 0.232134 6.46583 0
M  V30 1978 N 172.938 -1.57226 0.108567 0
M  V30 1979 C 174.354 -1.5766 -0.248058 0
M  V30 1980 C 174.554 -1.12063 -1.67464 0
M  V30 1981 O 173.61 -0.803236 -2.39383 0
M  V30 1982 C 174.923 -3.0069 -0.0242287 0
M  V30 1983 C 176.471 -3.12868 -0.0909372 0
M  V30 1984 C 176.946 -4.57879 0.105067 0
M  V30 1985 N 178.437 -4.63172 0.0506846 0
M  V30 1986 C 179.172 -5.73126 0.177396 0
M  V30 1987 N 178.668 -6.91866 0.359696 0
M  V30 1988 N 180.461 -5.61977 0.117709 0
M  V30 1989 H 172.612 -1.85169 1.04049 0
M  V30 1990 H 174.875 -0.85529 0.40888 0
M  V30 1991 H 174.581 -3.38299 0.961604 0
M  V30 1992 H 174.455 -3.6945 -0.76068 0
M  V30 1993 H 176.842 -2.75124 -1.06729 0
M  V30 1994 H 176.923 -2.46672 0.677225 0
M  V30 1995 H 176.567 -4.96321 1.07834 0
M  V30 1996 H 176.497 -5.22153 -0.682954 0
M  V30 1997 H 178.988 -3.778 -0.0871266 0
M  V30 1998 H 179.301 -7.71503 0.447529 0
M  V30 1999 H 177.646 -6.93874 0.395536 0
M  V30 2000 H 180.837 -4.68094 -0.0236741 0
M  V30 2001 H 181.01 -6.47627 0.219905 0
M  V30 2002 N 174.416 0.165178 -1.56732 0
M  V30 2003 C 175.379 1.18822 -1.95995 0
M  V30 2004 C 176.379 1.3685 -0.84431 0
M  V30 2005 O 177.569 1.34152 -1.11126 0
M  V30 2006 C 174.701 2.5521 -2.26011 0
M  V30 2007 H 175.894 0.851825 -2.87548 0
M  V30 2008 H 173.447 0.407857 -1.50885 0
M  V30 2009 H 174.182 2.93852 -1.37191 0
M  V30 2010 H 173.967 2.43489 -3.07336 0
M  V30 2011 H 175.457 3.28927 -2.57288 0
M  V30 2012 N 175.894 1.51508 0.433938 0
M  V30 2013 C 176.844 1.69451 1.52546 0
M  V30 2014 C 177.828 0.548474 1.51263 0
M  V30 2015 O 179.02 0.804529 1.57659 0
M  V30 2016 C 176.149 1.82604 2.90707 0
M  V30 2017 C 175.235 3.03002 2.96733 0
M  V30 2018 N 175.626 4.26121 2.72496 0
M  V30 2019 C 173.924 3.02327 3.27894 0
M  V30 2020 C 174.625 5.07407 2.84452 0
M  V30 2021 N 173.601 4.42126 3.16269 0
M  V30 2022 H 177.403 2.62305 1.32564 0
M  V30 2023 H 174.917 1.49202 0.641297 0
M  V30 2024 H 176.914 1.93569 3.69238 0
M  V30 2025 H 175.574 0.909339 3.11707 0
M  V30 2026 H 176.585 4.55009 2.4736 0
M  V30 2027 H 173.262 2.20301 3.54646 0
M  V30 2028 H 174.652 6.15422 2.69639 0
M  V30 2029 N 177.372 -0.689602 1.41712 0
M  V30 2030 C 178.788 -1.00093 1.24312 0
M  V30 2031 C 178.988 -2.01036 0.136729 0
M  V30 2032 O 178.044 -2.47562 -0.496918 0
M  V30 2033 C 179.357 -1.51985 2.59463 0
M  V30 2034 C 180.905 -1.63838 2.66695 0
M  V30 2035 C 181.38 -2.1913 4.02177 0
M  V30 2036 N 182.871 -2.26483 4.04054 0
M  V30 2037 C 183.606 -2.70306 5.0569 0
M  V30 2038 N 183.102 -3.13691 6.17713 0
M  V30 2039 N 184.895 -2.69923 4.9305 0
M  V30 2040 H 177.046 -0.0210029 2.1239 0
M  V30 2041 H 179.309 -0.0718733 0.945272 0
M  V30 2042 H 179.015 -0.85269 3.41207 0
M  V30 2043 H 178.889 -2.50103 2.82362 0
M  V30 2044 H 181.276 -2.29664 1.85306 0
M  V30 2045 H 181.357 -0.642492 2.476 0
M  V30 2046 H 181.001 -1.53918 4.84016 0
M  V30 2047 H 180.931 -3.19482 4.18615 0
M  V30 2048 H 183.422 -1.95874 3.23174 0
M  V30 2049 H 183.735 -3.45773 6.9113 0
M  V30 2050 H 182.08 -3.11585 6.21241 0
M  V30 2051 H 185.271 -2.35382 4.04614 0
M  V30 2052 H 185.444 -3.03758 5.72394 0
M  V30 2053 N 178.85 -1.27639 -0.924453 0
M  V30 2054 C 180.098 -1.13941 -1.66918 0
M  V30 2055 C 180.419 0.314589 -1.92446 0
M  V30 2056 O 179.689 1.21964 -1.53303 0
M  V30 2057 H 178.269 -0.418678 -0.618642 0
M  V30 2058 H 180.931 -1.60213 -1.10985 0
M  V30 2059 H 180.027 -1.67094 -2.63602 0
M  V30 2060 N 180.328 1.1314 -1.09713 0
M  V30 2061 C 181.258 2.20748 -0.761102 0
M  V30 2062 C 182.239 1.68061 0.262566 0
M  V30 2063 O 183.424 1.93765 0.129977 0
M  V30 2064 C 180.554 3.46812 -0.184054 0
M  V30 2065 C 179.508 4.12606 -1.13757 0
M  V30 2066 C 178.834 5.33031 -0.422083 0
M  V30 2067 C 180.134 4.59603 -2.48118 0
M  V30 2068 H 181.828 2.49113 -1.66082 0
M  V30 2069 H 179.374 1.19734 -0.799987 0
M  V30 2070 H 181.327 4.21353 0.0631215 0
M  V30 2071 H 180.051 3.17851 0.750868 0
M  V30 2072 H 178.71 3.40036 -1.37007 0
M  V30 2073 H 178.358 5.00335 0.517072 0
M  V30 2074 H 178.058 5.77999 -1.05788 0
M  V30 2075 H 179.582 6.10325 -0.183277 0
M  V30 2076 H 180.996 5.25552 -2.29059 0
M  V30 2077 H 179.393 5.15321 -3.07514 0
M  V30 2078 H 180.463 3.73971 -3.08665 0
M  V30 2079 N 181.806 0.884767 1.30421 0
M  V30 2080 C 183.222 0.57874 1.48737 0
M  V30 2081 C 183.422 -0.883567 1.81095 0
M  V30 2082 O 182.478 -1.6648 1.89844 0
M  V30 2083 C 183.791 1.49171 2.61091 0
M  V30 2084 C 185.339 1.49532 2.74971 0
M  V30 2085 C 185.814 2.39421 3.90438 0
M  V30 2086 N 187.305 2.37383 3.97748 0
M  V30 2087 C 188.04 3.03647 4.86401 0
M  V30 2088 N 187.536 3.79136 5.79852 0
M  V30 2089 N 189.329 2.9288 4.79768 0
M  V30 2090 H 181.48 1.83075 1.0769 0
M  V30 2091 H 183.743 0.783637 0.533495 0
M  V30 2092 H 183.449 2.53291 2.44001 0
M  V30 2093 H 183.323 1.20113 3.57565 0
M  V30 2094 H 185.71 0.46163 2.91467 0
M  V30 2095 H 185.791 1.8262 1.79119 0
M  V30 2096 H 185.435 3.42874 3.74699 0
M  V30 2097 H 185.365 2.03649 4.85628 0
M  V30 2098 H 187.856 1.82525 3.30897 0
M  V30 2099 H 188.169 4.26789 6.4426 0
M  V30 2100 H 186.514 3.83243 5.79784 0
M  V30 2101 H 189.705 2.33433 4.05742 0
M  V30 2102 H 189.878 3.448 5.4865 0
M  V30 2103 N 183.284 -1.43765 0.645699 0
M  V30 2104 C 184.234 -2.27884 -0.0726442 0
M  V30 2105 C 185.218 -1.39483 -0.802086 0
M  V30 2106 O 186.41 -1.63174 -0.685791 0
M  V30 2107 C 183.539 -3.27055 -1.04356 0
M  V30 2108 C 182.625 -4.22944 -0.312985 0
M  V30 2109 N 183.016 -5.01391 0.666386 0
M  V30 2110 C 181.314 -4.42528 -0.55546 0
M  V30 2111 C 182.015 -5.71217 1.09935 0
M  V30 2112 N 180.991 -5.41856 0.435137 0
M  V30 2113 H 184.793 -2.85949 0.678988 0
M  V30 2114 H 182.307 -1.55378 0.472368 0
M  V30 2115 H 184.304 -3.86089 -1.57292 0
M  V30 2116 H 182.964 -2.70551 -1.79534 0
M  V30 2117 H 183.975 -5.07252 1.04481 0
M  V30 2118 H 180.652 -3.97104 -1.28899 0
M  V30 2119 H 182.042 -6.44202 1.90929 0
M  V30 2120 N 184.763 -0.387143 -1.52771 0
M  V30 2121 C 186.01 0.195735 -2.01552 0
M  V30 2122 C 186.338 1.46995 -1.27369 0
M  V30 2123 O 185.593 1.92325 -0.361879 0
M  V30 2124 C 185.892 0.512209 -3.53711 0
M  V30 2125 C 185.558 -0.670202 -4.45891 0
M  V30 2126 C 184.22 -0.994586 -4.70809 0
M  V30 2127 C 186.572 -1.46134 -5.00294 0
M  V30 2128 C 183.9 -2.11169 -5.4738 0
M  V30 2129 C 186.252 -2.56903 -5.78086 0
M  V30 2130 C 184.916 -2.89852 -6.01284 0
M  V30 2131 H 184.186 0.0716246 -0.73753 0
M  V30 2132 H 186.833 -0.524046 -1.8419 0
M  V30 2133 H 185.138 1.31329 -3.69134 0
M  V30 2134 H 186.835 0.975804 -3.88946 0
M  V30 2135 H 183.425 -0.407366 -4.2666 0
M  V30 2136 H 187.609 -1.22397 -4.80971 0
M  V30 2137 H 182.865 -2.3707 -5.63567 0
M  V30 2138 H 187.039 -3.18608 -6.19243 0
M  V30 2139 H 184.666 -3.76533 -6.60399 0
M  V30 2140 N 186.241 1.57166 -0.116904 0
M  V30 2141 C 187.487 1.96206 0.536166 0
M  V30 2142 C 187.842 0.99915 1.64422 0
M  V30 2143 O 187.135 0.0288195 1.91578 0
M  V30 2144 C 187.329 3.39508 1.11664 0
M  V30 2145 C 187.158 4.49651 0.0663474 0
M  V30 2146 C 185.928 5.03982 -0.36474 0
M  V30 2147 C 188.126 5.09322 -0.713829 0
M  V30 2148 N 186.108 5.97699 -1.40102 0
M  V30 2149 C 187.479 5.98963 -1.60136 0
M  V30 2150 C 189.534 4.91989 -0.764948 0
M  V30 2151 C 188.237 6.73128 -2.53556 0
M  V30 2152 C 190.263 5.66833 -1.68685 0
M  V30 2153 C 189.625 6.56158 -2.56196 0
M  V30 2154 H 185.724 0.764203 0.165886 0
M  V30 2155 H 188.308 1.93623 -0.204535 0
M  V30 2156 H 186.479 3.42743 1.82707 0
M  V30 2157 H 188.211 3.65677 1.73386 0
M  V30 2158 H 184.966 4.73592 0.027252 0
M  V30 2159 H 185.39 6.49262 -1.91802 0
M  V30 2160 H 190.032 4.22676 -0.102501 0
M  V30 2161 H 187.75 7.41689 -3.20816 0
M  V30 2162 H 191.336 5.55427 -1.73181 0
M  V30 2163 H 190.216 7.13057 -3.26372 0
M  V30 2164 N 187.719 -0.156864 1.56817 0
M  V30 2165 C 188.967 -0.869404 1.82444 0
M  V30 2166 C 189.288 -1.82147 0.69623 0
M  V30 2167 O 188.558 -1.93847 -0.28287 0
M  V30 2168 H 187.138 -0.324043 0.673056 0
M  V30 2169 H 189.8 -0.153224 1.94297 0
M  V30 2170 H 188.896 -1.43761 2.77019 0
M  V30 2171 N 189.197 -1.51736 -0.425897 0
M  V30 2172 C 190.127 -1.76827 -1.52494 0
M  V30 2173 C 191.108 -0.618524 -1.58456 0
M  V30 2174 O 192.293 -0.862416 -1.74 0
M  V30 2175 C 189.423 -1.90374 -2.90474 0
M  V30 2176 C 188.377 -3.0588 -2.99369 0
M  V30 2177 C 187.703 -3.04625 -4.3944 0
M  V30 2178 C 189.003 -4.45644 -2.72394 0
M  V30 2179 H 190.697 -2.68855 -1.31748 0
M  V30 2180 H 188.243 -1.29372 -0.632362 0
M  V30 2181 H 190.196 -2.0651 -3.6733 0
M  V30 2182 H 188.92 -0.95004 -3.12477 0
M  V30 2183 H 187.579 -2.89467 -2.24954 0
M  V30 2184 H 187.227 -2.0701 -4.58428 0
M  V30 2185 H 186.927 -3.82195 -4.46319 0
M  V30 2186 H 188.451 -3.22869 -5.18255 0
M  V30 2187 H 189.865 -4.62348 -3.38979 0
M  V30 2188 H 188.262 -5.25006 -2.9067 0
M  V30 2189 H 189.332 -4.54893 -1.67929 0
M  V30 2190 N 190.675 0.682077 -1.42076 0
M  V30 2191 C 192.091 0.994324 -1.24841 0
M  V30 2192 C 192.291 2.0096 -0.147389 0
M  V30 2193 O 191.347 2.47822 0.483782 0
M  V30 2194 C 192.66 1.50607 -2.60265 0
M  V30 2195 C 194.208 1.62421 -2.6756 0
M  V30 2196 C 194.683 2.16994 -4.03333 0
M  V30 2197 N 196.174 2.24337 -4.0525 0
M  V30 2198 C 196.909 2.67621 -5.07116 0
M  V30 2199 N 196.405 3.1041 -6.19368 0
M  V30 2200 N 198.198 2.67305 -4.94474 0
M  V30 2201 H 190.349 0.00973908 -2.12398 0
M  V30 2202 H 192.612 0.0668593 -0.945639 0
M  V30 2203 H 192.318 0.834583 -3.41654 0
M  V30 2204 H 192.192 2.48602 -2.83684 0
M  V30 2205 H 194.579 2.28678 -1.86521 0
M  V30 2206 H 194.66 0.629352 -2.47937 0
M  V30 2207 H 194.304 1.51349 -4.84826 0
M  V30 2208 H 194.234 3.17258 -4.20304 0
M  V30 2209 H 196.725 1.94158 -3.24209 0
M  V30 2210 H 197.038 3.42103 -6.92954 0
M  V30 2211 H 195.383 3.08286 -6.22884 0
M  V30 2212 H 198.574 2.33233 -4.05857 0
M  V30 2213 H 198.747 3.00718 -5.73997 0
M  V30 2214 N 192.153 1.28127 0.917671 0
M  V30 2215 C 193.399 1.15223 1.66888 0
M  V30 2216 C 193.732 -0.299293 1.9188 0
M  V30 2217 O 193.007 -1.21805 1.51637 0
M  V30 2218 C 193.29 1.94706 3.02922 0
M  V30 2219 C 193.143 3.47898 2.85109 0
M  V30 2220 C 194.462 1.75939 4.03402 0
M  V30 2221 H 191.581 0.419946 0.605652 0
M  V30 2222 H 194.223 1.57398 1.06423 0
M  V30 2223 H 192.373 1.58864 3.54534 0
M  V30 2224 H 194.045 3.93624 2.40537 0
M  V30 2225 H 192.288 3.7373 2.20246 0
M  V30 2226 H 192.959 3.98765 3.81694 0
M  V30 2227 H 195.435 2.07209 3.60837 0
M  V30 2228 H 194.311 2.33931 4.96556 0
M  V30 2229 H 194.572 0.709877 4.36364 0
M  V30 2230 N 193.631 -1.12557 1.10312 0
M  V30 2231 C 195.047 -1.36036 0.834649 0
M  V30 2232 C 195.247 -1.93946 -0.546539 0
M  V30 2233 O 194.303 -2.16484 -1.29966 0
M  V30 2234 C 195.616 -2.30312 1.9333 0
M  V30 2235 C 197.164 -2.43906 1.9616 0
M  V30 2236 C 197.639 -3.41496 3.05195 0
M  V30 2237 N 199.13 -3.49053 3.04494 0
M  V30 2238 C 199.865 -4.24471 3.85502 0
M  V30 2239 N 199.361 -5.02966 4.76442 0
M  V30 2240 N 201.154 -4.19864 3.73725 0
M  V30 2241 H 193.305 -0.733246 1.99342 0
M  V30 2242 H 195.568 -0.385234 0.866198 0
M  V30 2243 H 195.274 -1.94933 2.92735 0
M  V30 2244 H 195.148 -3.30421 1.81939 0
M  V30 2245 H 197.535 -2.78567 0.973886 0
M  V30 2246 H 197.616 -1.4369 2.11629 0
M  V30 2247 H 197.26 -3.07565 4.04186 0
M  V30 2248 H 197.19 -4.41539 2.86968 0
M  V30 2249 H 199.681 -2.93053 2.38596 0
M  V30 2250 H 199.994 -5.57846 5.34815 0
M  V30 2251 H 198.339 -5.02167 4.80472 0
M  V30 2252 H 201.53 -3.57623 3.02032 0
M  V30 2253 H 201.703 -4.78386 4.37093 0
M  V30 2254 N 195.109 -0.891671 -1.2995 0
M  V30 2255 C 196.357 -0.512486 -1.95494 0
M  V30 2256 C 196.678 0.942776 -1.70695 0
M  V30 2257 O 195.948 1.66374 -1.03424 0
M  V30 2258 H 194.528 -0.186533 -0.723336 0
M  V30 2259 H 197.19 -1.13621 -1.58355 0
M  V30 2260 H 196.286 -0.688342 -3.04415 0
M  V30 2261 N 196.587 1.43421 -0.653314 0
M  V30 2262 C 197.519 2.29071 0.0769134 0
M  V30 2263 C 198.532 1.42513 0.787017 0
M  V30 2264 O 199.721 1.66449 0.644757 0
M  V30 2265 C 196.821 3.19436 1.13199 0
M  V30 2266 C 195.994 4.34533 0.500006 0
M  V30 2267 C 195.053 5.05771 1.45198 0
M  V30 2268 O 194.079 5.61037 0.960538 0
M  V30 2269 N 195.281 5.0928 2.78594 0
M  V30 2270 H 198.046 2.92382 -0.658235 0
M  V30 2271 H 195.607 1.54112 -0.496104 0
M  V30 2272 H 197.599 3.63958 1.76964 0
M  V30 2273 H 196.169 2.57724 1.7691 0
M  V30 2274 H 195.389 3.92925 -0.316738 0
M  V30 2275 H 196.677 5.08766 0.0588345 0
M  V30 2276 H 196.075 4.65751 3.2108 0
M  V30 2277 H 194.632 5.57519 3.37662 0
M  V30 2278 N 198.065 0.39524 1.52563 0
M  V30 2279 C 199.015 -0.4541 2.23432 0
M  V30 2280 C 199.999 -1.02482 1.24042 0
M  V30 2281 O 201.191 -0.949938 1.49349 0
M  V30 2282 C 198.32 -1.57769 3.049 0
M  V30 2283 C 197.406 -1.01842 4.1169 0
M  V30 2284 N 197.797 -0.184613 5.05463 0
M  V30 2285 C 196.095 -1.29033 4.26927 0
M  V30 2286 C 196.796 0.125013 5.81566 0
M  V30 2287 N 195.772 -0.480498 5.41472 0
M  V30 2288 H 199.574 0.189413 2.93289 0
M  V30 2289 H 197.088 0.204877 1.61102 0
M  V30 2290 H 199.085 -2.19862 3.54212 0
M  V30 2291 H 197.745 -2.22397 2.36579 0
M  V30 2292 H 198.756 0.178602 5.17592 0
M  V30 2293 H 195.433 -1.93721 3.69836 0
M  V30 2294 H 196.823 0.800962 6.67109 0
M  V30 2295 N 199.544 -1.57102 0.125237 0
M  V30 2296 C 200.772 -1.99761 -0.538797 0
M  V30 2297 C 201.187 -1.00503 -1.59827 0
M  V30 2298 O 200.544 0.00119474 -1.825 0
M  V30 2299 C 200.595 -3.42408 -1.15927 0
M  V30 2300 O 200.316 -4.37869 -0.142143 0
M  V30 2301 C 201.817 -4.00232 -1.90602 0
M  V30 2302 H 199.037 -0.655772 -0.14214 0
M  V30 2303 H 201.581 -2.03383 0.213413 0
M  V30 2304 H 199.736 -3.39706 -1.86223 0
M  V30 2305 H 200.15 -5.21128 -0.593775 0
M  V30 2306 H 201.624 -5.02105 -2.29335 0
M  V30 2307 H 202.101 -3.39721 -2.78363 0
M  V30 2308 H 202.707 -4.06499 -1.25055 0
M  V30 2309 N 201.022 0.148545 -1.56898 0
M  V30 2310 C 201.969 1.18345 -1.98149 0
M  V30 2311 C 202.939 1.42772 -0.848848 0
M  V30 2312 O 204.124 1.55132 -1.11079 0
M  V30 2313 C 201.264 2.51231 -2.36594 0
M  V30 2314 C 200.377 2.33991 -3.63142 0
M  V30 2315 C 199.512 3.59902 -3.90697 0
M  V30 2316 C 198.551 3.37692 -5.1052 0
M  V30 2317 N 197.688 4.5573 -5.34092 0
M  V30 2318 H 202.528 0.82467 -2.86362 0
M  V30 2319 H 200.065 0.395756 -1.41676 0
M  V30 2320 H 202.023 3.28713 -2.56912 0
M  V30 2321 H 200.653 2.85059 -1.51463 0
M  V30 2322 H 199.705 1.47572 -3.50609 0
M  V30 2323 H 201.017 2.13539 -4.5078 0
M  V30 2324 H 200.171 4.45813 -4.11505 0
M  V30 2325 H 198.91 3.83357 -3.01477 0
M  V30 2326 H 197.915 2.5017 -4.89587 0
M  V30 2327 H 199.14 3.15637 -6.0129 0
M  V30 2328 H 197.086 4.79361 -4.47827 0
M  V30 2329 H 197.003 4.38274 -6.15996 0
M  V30 2330 H 198.271 5.42858 -5.59397 0
M  V30 2331 N 202.5 1.5196 0.417844 0
M  V30 2332 C 203.728 1.69426 1.18753 0
M  V30 2333 C 204.143 0.399955 1.84515 0
M  V30 2334 O 203.5 -0.623288 1.71527 0
M  V30 2335 C 203.551 2.82375 2.25714 0
M  V30 2336 O 203.272 4.06793 1.62638 0
M  V30 2337 C 204.773 3.11277 3.15628 0
M  V30 2338 H 201.993 0.568031 0.357186 0
M  V30 2339 H 204.537 1.98475 0.49273 0
M  V30 2340 H 202.692 2.5587 2.90877 0
M  V30 2341 H 203.106 4.69667 2.3348 0
M  V30 2342 H 204.58 3.93843 3.86771 0
M  V30 2343 H 205.057 2.24473 3.77503 0
M  V30 2344 H 205.663 3.39515 2.56144 0
M  V30 2345 N 203.978 -0.674533 1.42435 0
M  V30 2346 C 205.206 -1.46283 1.46317 0
M  V30 2347 C 205.621 -1.88653 0.0745836 0
M  V30 2348 O 204.978 -1.58151 -0.91074 0
M  V30 2349 C 205.029 -2.71178 2.3905 0
M  V30 2350 O 204.75 -2.30586 3.72507 0
M  V30 2351 C 206.251 -3.64738 2.51955 0
M  V30 2352 H 203.471 -0.450104 0.497642 0
M  V30 2353 H 206.015 -0.828792 1.86953 0
M  V30 2354 H 204.17 -3.3077 2.01667 0
M  V30 2355 H 204.584 -3.11241 4.22172 0
M  V30 2356 H 206.058 -4.49096 3.20962 0
M  V30 2357 H 206.535 -4.10656 1.55752 0
M  V30 2358 H 207.141 -3.11038 2.90061 0
M  V30 2359 N 205.456 -1.28612 -0.910864 0
M  V30 2360 C 206.704 -1.15705 -1.65701 0
M  V30 2361 C 207.025 0.29416 -1.92769 0
M  V30 2362 O 206.295 1.20331 -1.54588 0
M  V30 2363 H 204.875 -0.425216 -0.614167 0
M  V30 2364 H 207.537 -1.61381 -1.0928 0
M  V30 2365 H 206.633 -1.6988 -2.61815 0
M  V30 2366 N 206.934 1.1197 -1.10907 0
M  V30 2367 C 208.35 1.35591 -0.841852 0
M  V30 2368 C 208.55 1.94233 0.536246 0
M  V30 2369 O 207.606 2.1717 1.28816 0
M  V30 2370 C 208.919 2.29284 -1.94549 0
M  V30 2371 C 210.467 2.42862 -1.97451 0
M  V30 2372 C 210.942 3.39873 -3.07002 0
M  V30 2373 N 212.433 3.47433 -3.06341 0
M  V30 2374 C 213.168 4.22421 -3.87748 0
M  V30 2375 N 212.664 5.00432 -4.79103 0
M  V30 2376 N 214.457 4.17876 -3.75946 0
M  V30 2377 H 206.608 0.722664 -1.99728 0
M  V30 2378 H 208.871 0.380635 -0.868229 0
M  V30 2379 H 208.577 1.93378 -2.93765 0
M  V30 2380 H 208.451 3.29452 -1.83688 0
M  V30 2381 H 210.838 2.78046 -0.988645 0
M  V30 2382 H 210.919 1.42566 -2.12388 0
M  V30 2383 H 210.563 3.05417 -4.05811 0
M  V30 2384 H 210.493 4.40011 -2.89306 0
M  V30 2385 H 212.984 2.91784 -2.40147 0
M  V30 2386 H 213.297 5.55002 -5.37766 0
M  V30 2387 H 211.642 4.99612 -4.83128 0
M  V30 2388 H 214.833 3.56016 -3.03924 0
M  V30 2389 H 215.006 4.76061 -4.39624 0
M  V30 2390 N 208.412 0.89855 1.29475 0
M  V30 2391 C 209.828 0.594483 1.48115 0
M  V30 2392 C 210.028 -0.86431 1.82022 0
M  V30 2393 O 209.084 -1.64457 1.91599 0
M  V30 2394 C 210.397 1.51932 2.59494 0
M  V30 2395 C 211.945 1.5244 2.7337 0
M  V30 2396 C 212.42 2.43548 3.87877 0
M  V30 2397 N 213.911 2.41589 3.95208 0
M  V30 2398 C 214.646 3.08789 4.83153 0
M  V30 2399 N 214.142 3.85265 5.75798 0
M  V30 2400 N 215.935 2.97952 4.76635 0
M  V30 2401 H 208.086 1.84207 1.05742 0
M  V30 2402 H 210.349 0.789251 0.525154 0
M  V30 2403 H 210.055 2.55865 2.41301 0
M  V30 2404 H 209.929 1.23899 3.56271 0
M  V30 2405 H 212.316 0.492518 2.90961 0
M  V30 2406 H 212.397 1.8451 1.77172 0
M  V30 2407 H 212.041 3.46829 3.71041 0
M  V30 2408 H 211.971 2.08788 4.83441 0
M  V30 2409 H 214.462 1.86025 3.28943 0
M  V30 2410 H 214.775 4.33598 6.39697 0
M  V30 2411 H 213.12 3.89371 5.75687 0
M  V30 2412 H 216.311 2.37723 4.03244 0
M  V30 2413 H 216.484 3.50599 5.44962 0
M  V30 2414 N 209.89 -1.43072 0.660911 0
M  V30 2415 C 211.138 -2.01323 0.177094 0
M  V30 2416 C 211.459 -1.5245 -1.2159 0
M  V30 2417 O 210.729 -0.740322 -1.81373 0
M  V30 2418 H 209.309 -0.744382 0.0624804 0
M  V30 2419 H 211.971 -1.75179 0.854305 0
M  V30 2420 H 211.067 -3.11649 0.167641 0
M  V30 2421 N 211.368 -0.403325 -1.52352 0
M  V30 2422 C 212.784 -0.0539281 -1.59509 0
M  V30 2423 C 212.984 1.43307 -1.41652 0
M  V30 2424 O 212.04 2.19924 -1.24056 0
M  V30 2425 C 213.353 -0.543654 -2.95745 0
M  V30 2426 C 214.901 -0.501125 -3.08962 0
M  V30 2427 C 215.376 -0.967267 -4.47669 0
M  V30 2428 N 216.867 -0.923849 -4.53893 0
M  V30 2429 C 217.602 -1.25578 -5.5948 0
M  V30 2430 N 217.098 -1.65889 -6.72646 0
M  V30 2431 N 218.891 -1.17613 -5.49658 0
M  V30 2432 H 211.042 -1.37123 -1.62206 0
M  V30 2433 H 213.305 -0.56294 -0.76276 0
M  V30 2434 H 213.011 -1.58275 -3.14073 0
M  V30 2435 H 212.885 0.0498042 -3.77167 0
M  V30 2436 H 215.272 0.528909 -2.90321 0
M  V30 2437 H 215.353 -1.13056 -2.2946 0
M  V30 2438 H 214.997 -1.9956 -4.67053 0
M  V30 2439 H 214.927 -0.314698 -5.25659 0
M  V30 2440 H 217.418 -0.627403 -3.72655 0
M  V30 2441 H 217.731 -1.89543 -7.49195 0
M  V30 2442 H 216.076 -1.69787 -6.73942 0
M  V30 2443 H 219.267 -0.860115 -4.6013 0
M  V30 2444 H 219.44 -1.43812 -6.3184 0
M  V30 2445 N 212.846 1.57033 -0.133567 0
M  V30 2446 C 214.074 2.00044 0.528195 0
M  V30 2447 C 214.489 1.01349 1.59291 0
M  V30 2448 O 213.846 0.00848369 1.82498 0
M  V30 2449 C 213.897 3.43018 1.1411 0
M  V30 2450 O 213.618 4.37939 0.11892 0
M  V30 2451 C 215.119 4.01237 1.88477 0
M  V30 2452 H 212.339 0.656517 0.138661 0
M  V30 2453 H 214.883 2.03267 -0.224196 0
M  V30 2454 H 213.038 3.40688 1.84418 0
M  V30 2455 H 213.452 5.21436 0.56613 0
M  V30 2456 H 214.926 5.03314 2.26669 0
M  V30 2457 H 215.403 3.41193 2.76558 0
M  V30 2458 H 216.009 4.07156 1.22898 0
M  V30 2459 N 214.325 -0.140222 1.56975 0
M  V30 2460 C 215.571 -0.852949 1.83991 0
M  V30 2461 C 215.904 -1.80512 0.716187 0
M  V30 2462 O 215.179 -1.92479 -0.279681 0
M  V30 2463 C 215.462 -1.6215 3.21527 0
M  V30 2464 C 215.315 -0.690363 4.4447 0
M  V30 2465 C 216.634 -2.58247 3.56366 0
M  V30 2466 H 213.753 -0.308634 0.669264 0
M  V30 2467 H 216.395 -0.117898 1.89634 0
M  V30 2468 H 214.545 -2.24812 3.16847 0
M  V30 2469 H 216.217 -0.0742264 4.6124 0
M  V30 2470 H 214.46 -0.000396433 4.338 0
M  V30 2471 H 215.131 -1.2643 5.37326 0
M  V30 2472 H 217.607 -2.05701 3.61699 0
M  V30 2473 H 216.483 -3.09067 4.53617 0
M  V30 2474 H 216.744 -3.39923 2.82674 0
M  V30 2475 N 215.803 -1.52179 -0.40978 0
M  V30 2476 C 217.051 -1.65878 -1.15451 0
M  V30 2477 C 217.372 -0.390771 -1.91044 0
M  V30 2478 O 216.642 0.594323 -1.86667 0
M  V30 2479 H 215.222 -0.611405 -0.429177 0
M  V30 2480 H 217.884 -1.89219 -0.467134 0
M  V30 2481 H 216.98 -2.49954 -1.86894 0
M  V30 2482 N 217.281 0.66697 -1.42791 0
M  V30 2483 C 218.527 1.4291 -1.43891 0
M  V30 2484 C 218.86 1.94114 -0.0578972 0
M  V30 2485 O 218.135 1.71414 0.91911 0
M  V30 2486 C 218.418 2.62049 -2.46987 0
M  V30 2487 C 218.271 2.16426 -3.94309 0
M  V30 2488 C 219.59 3.64266 -2.46978 0
M  V30 2489 H 216.709 0.518306 -0.523954 0
M  V30 2490 H 219.351 0.757321 -1.74255 0
M  V30 2491 H 217.501 3.19361 -2.21225 0
M  V30 2492 H 219.173 1.64221 -4.31079 0
M  V30 2493 H 217.416 1.47925 -4.078 0
M  V30 2494 H 218.087 3.02038 -4.62036 0
M  V30 2495 H 220.563 3.16686 -2.69906 0
M  V30 2496 H 219.439 4.45196 -3.21079 0
M  V30 2497 H 219.7 4.15927 -1.49857 0
M  V30 2498 N 218.759 1.29093 0.90403 0
M  V30 2499 C 219.984 1.19809 1.69294 0
M  V30 2500 C 220.409 -0.238481 1.86582 0
M  V30 2501 O 219.767 -1.1723 1.383 0
M  V30 2502 C 219.815 1.91202 3.05736 0
M  V30 2503 O 218.919 1.22611 3.93752 0
M  V30 2504 H 218.26 0.415385 0.518027 0
M  V30 2505 H 220.79 1.70586 1.12967 0
M  V30 2506 H 220.8 1.99487 3.55906 0
M  V30 2507 H 219.475 2.95692 2.92471 0
M  V30 2508 H 218.052 1.22554 3.52186 0
M  V30 2509 N 220.237 -1.11381 1.11499 0
M  V30 2510 C 221.184 -2.17439 0.773887 0
M  V30 2511 C 222.154 -1.64132 -0.254899 0
M  V30 2512 O 223.339 -1.90345 -0.13168 0
M  V30 2513 C 220.479 -3.44373 0.223917 0
M  V30 2514 C 219.592 -4.1168 1.30934 0
M  V30 2515 C 218.727 -5.263 0.71984 0
M  V30 2516 C 217.766 -5.85493 1.78507 0
M  V30 2517 N 216.903 -6.91507 1.21502 0
M  V30 2518 H 221.743 -2.45962 1.68246 0
M  V30 2519 H 219.28 -1.20744 0.840191 0
M  V30 2520 H 221.238 -4.17047 -0.112921 0
M  V30 2521 H 219.868 -3.16232 -0.647851 0
M  V30 2522 H 218.92 -3.37073 1.76312 0
M  V30 2523 H 220.232 -4.51729 2.11524 0
M  V30 2524 H 219.386 -6.05785 0.333094 0
M  V30 2525 H 218.125 -4.87559 -0.117377 0
M  V30 2526 H 217.13 -5.04686 2.18111 0
M  V30 2527 H 218.355 -6.26301 2.62533 0
M  V30 2528 H 216.301 -6.54783 0.399455 0
M  V30 2529 H 216.218 -7.30214 1.95763 0
M  V30 2530 H 217.486 -7.74795 0.855181 0
M  V30 2531 N 221.715 -0.905404 -1.28997 0
M  V30 2532 C 222.662 -0.385892 -2.27551 0
M  V30 2533 C 223.632 0.535113 -1.57244 0
M  V30 2534 O 224.817 0.459119 -1.85194 0
M  V30 2535 C 221.957 0.375461 -3.43051 0
M  V30 2536 C 221.07 -0.577092 -4.28128 0
M  V30 2537 C 220.205 0.201879 -5.30816 0
M  V30 2538 C 219.244 -0.744829 -6.07551 0
M  V30 2539 N 218.381 9.42587e-05 -7.021 0
M  V30 2540 H 223.221 -1.23139 -2.71368 0
M  V30 2541 H 220.758 -0.618542 -1.33463 0
M  V30 2542 H 222.716 0.832992 -4.088 0
M  V30 2543 H 221.346 1.18537 -3.00248 0
M  V30 2544 H 220.398 -1.15315 -3.62501 0
M  V30 2545 H 221.71 -1.30152 -4.8152 0
M  V30 2546 H 220.864 0.720351 -6.02408 0
M  V30 2547 H 219.603 0.959413 -4.7817 0
M  V30 2548 H 218.608 -1.27475 -5.34818 0
M  V30 2549 H 219.833 -1.50178 -6.62286 0
M  V30 2550 H 217.779 0.739791 -6.51815 0
M  V30 2551 H 217.696 -0.664321 -7.53076 0
M  V30 2552 H 218.964 0.498644 -7.77903 0
M  V30 2553 N 223.193 1.4272 -0.668489 0
M  V30 2554 C 224.14 2.30796 0.0137489 0
M  V30 2555 C 225.11 1.4561 0.799177 0
M  V30 2556 O 226.295 1.74453 0.772702 0
M  V30 2557 C 223.435 3.31377 0.963507 0
M  V30 2558 C 222.548 4.31655 0.172569 0
M  V30 2559 C 221.683 5.19312 1.1175 0
M  V30 2560 C 220.722 6.11274 0.317886 0
M  V30 2561 N 219.859 6.91504 1.2152 0
M  V30 2562 H 224.699 2.88585 -0.743161 0
M  V30 2563 H 222.236 1.42154 -0.378226 0
M  V30 2564 H 224.194 3.88214 1.52792 0
M  V30 2565 H 222.824 2.75202 1.68712 0
M  V30 2566 H 221.876 3.76988 -0.508374 0
M  V30 2567 H 223.188 4.96779 -0.448527 0
M  V30 2568 H 222.342 5.80851 1.75206 0
M  V30 2569 H 221.081 4.5435 1.77249 0
M  V30 2570 H 220.086 5.48809 -0.329918 0
M  V30 2571 H 221.311 6.78283 -0.332917 0
M  V30 2572 H 219.257 6.29176 1.85671 0
M  V30 2573 H 219.174 7.53209 0.649036 0
M  V30 2574 H 220.442 7.57535 1.83742 0
M  V30 2575 O 224.71 0.553536 1.51718 0
M  V30 2576 H 225.401 0.050045 1.93635 0
M  V30 END ATOM
M  V30 BEGIN BOND
M  V30 END BOND
M  V30 END CTAB
M  END
$$$$
