drugbank_target|P62316 Small nuclear ribonucleoprotein Sm D2 (DB11638)
 OpenBabel12092121093D

  0  0  0     0  0            999 V3000
M  V30 BEGIN CTAB
M  V30 COUNTS 1949 1961 0 0 0
M  V30 BEGIN ATOM
M  V30 1 H -0.908 1.98254 -0.117106 0
M  V30 2 N 0 1.576 0 0
M  V30 3 C 0.933 2.03868 1.02534 0
M  V30 4 C 1.911 0.928543 1.3348 0
M  V30 5 O 3.095 1.19667 1.45644 0
M  V30 6 C 0.222 2.43627 2.35294 0
M  V30 7 C -0.732 3.65373 2.2001 0
M  V30 8 S 0.101 5.13292 1.52614 0
M  V30 9 C 1.257 5.56322 2.86805 0
M  V30 10 H 1.49 2.90518 0.631377 0
M  V30 11 H -0.977 1.52953 0.210867 0
M  V30 12 H 0.981 2.67203 3.11629 0
M  V30 13 H -0.358 1.57376 2.7183 0
M  V30 14 H -1.165 3.90944 3.18086 0
M  V30 15 H -1.563 3.418 1.51819 0
M  V30 16 H 0.729 5.58782 3.83104 0
M  V30 17 H 1.672 6.56266 2.65933 0
M  V30 18 H 2.08 4.83886 2.90714 0
M  V30 19 N 1.4781 -0.272755 1.55222 0
M  V30 20 C 2.7031 -1.02683 1.80197 0
M  V30 21 C 3.1281 -1.79142 0.573551 0
M  V30 22 O 2.4861 -1.74917 -0.476849 0
M  V30 23 C 2.5341 -1.9609 3.02624 0
M  V30 24 O 1.6381 -3.04863 2.77727 0
M  V30 25 H 0.9791 -0.293557 0.595584 0
M  V30 26 H 3.5091 -0.30159 2.02365 0
M  V30 27 H 3.5191 -2.38039 3.31363 0
M  V30 28 H 2.1941 -1.39851 3.91682 0
M  V30 29 H 0.7711 -2.67228 2.60084 0
M  V30 30 N 2.9562 -1.48159 -0.537278 0
M  V30 31 C 3.8862 -1.65029 -1.6519 0
M  V30 32 C 4.8672 -0.499281 -1.62607 0
M  V30 33 O 6.0522 -0.730972 -1.79918 0
M  V30 34 C 3.1822 -1.68303 -3.03795 0
M  V30 35 C 2.1362 -2.8283 -3.21234 0
M  V30 36 C 1.4622 -2.71189 -4.60826 0
M  V30 37 C 2.7622 -4.24211 -3.04701 0
M  V30 38 H 4.4562 -2.58341 -1.51328 0
M  V30 39 H 2.0022 -1.24325 -0.726585 0
M  V30 40 H 3.9552 -1.78693 -3.81637 0
M  V30 41 H 2.6792 -0.715635 -3.18663 0
M  V30 42 H 1.3382 -2.71983 -2.45807 0
M  V30 43 H 0.9862 -1.72435 -4.7252 0
M  V30 44 H 0.6862 -3.48035 -4.7344 0
M  V30 45 H 2.2102 -2.83537 -5.40777 0
M  V30 46 H 3.6242 -4.3593 -3.72341 0
M  V30 47 H 2.0212 -5.01998 -3.28813 0
M  V30 48 H 3.0912 -4.41184 -2.01209 0
M  V30 49 N 4.4343 0.785586 -1.36625 0
M  V30 50 C 5.3643 1.91259 -1.33949 0
M  V30 51 C 6.3453 1.68795 -0.210325 0
M  V30 52 O 7.5303 1.89854 -0.408561 0
M  V30 53 C 4.6603 3.28339 -1.13186 0
M  V30 54 C 3.6143 3.65335 -2.22967 0
M  V30 55 C 2.9403 5.00806 -1.87342 0
M  V30 56 C 4.2403 3.7352 -3.65075 0
M  V30 57 H 5.9343 1.93755 -2.28253 0
M  V30 58 H 3.4803 0.930788 -1.09874 0
M  V30 59 H 5.4333 4.06804 -1.09948 0
M  V30 60 H 4.1573 3.2624 -0.153332 0
M  V30 61 H 2.8163 2.89169 -2.25337 0
M  V30 62 H 2.4643 4.95233 -0.880545 0
M  V30 63 H 2.1643 5.26529 -2.60846 0
M  V30 64 H 3.6883 5.81687 -1.85667 0
M  V30 65 H 5.1023 4.42168 -3.64911 0
M  V30 66 H 3.4993 4.10731 -4.37516 0
M  V30 67 H 4.5693 2.74527 -3.99703 0
M  V30 68 N 5.9124 1.20967 1.01018 0
M  V30 69 C 6.8604 0.961223 2.1181 0
M  V30 70 C 7.8544 -0.0897034 1.69162 0
M  V30 71 O 9.0604 0.0612271 1.79896 0
M  V30 72 H 5.4354 0.29355 0.692338 0
M  V30 73 H 7.4064 1.90178 2.29946 0
M  V30 74 C 6.1554 0.536854 3.4353 0
M  V30 75 H 5.4784 1.33713 3.76777 0
M  V30 76 H 6.9184 0.402286 4.22087 0
M  V30 77 C 5.3774 -0.751574 3.2841 0
M  V30 78 O 5.9074 -1.80841 3.58691 0
M  V30 79 N 4.1134 -0.716079 2.81639 0
M  V30 80 H 3.6604 0.144236 2.57196 0
M  V30 81 H 3.6184 -1.57847 2.71904 0
M  V30 82 N 7.3905 -1.2043 1.01659 0
M  V30 83 C 8.3375 -2.23215 0.586822 0
M  V30 84 C 9.3075 -1.61382 -0.393085 0
M  V30 85 O 10.4925 -1.88544 -0.292525 0
M  V30 86 C 7.6325 -3.45032 -0.0687464 0
M  V30 87 C 6.7455 -4.21296 0.955724 0
M  V30 88 C 5.8805 -5.30507 0.271208 0
M  V30 89 C 4.9195 -5.98515 1.28244 0
M  V30 90 N 4.0565 -6.99316 0.62459 0
M  V30 91 H 8.8965 -2.59336 1.46796 0
M  V30 92 H 6.4335 -1.27431 0.734836 0
M  V30 93 H 8.3915 -4.1459 -0.465965 0
M  V30 94 H 7.0215 -3.09604 -0.913529 0
M  V30 95 H 6.0735 -3.50803 1.4711 0
M  V30 96 H 7.3855 -4.6803 1.72479 0
M  V30 97 H 6.5395 -6.06428 -0.18151 0
M  V30 98 H 5.2785 -4.8481 -0.530163 0
M  V30 99 H 4.2835 -5.21355 1.74554 0
M  V30 100 H 5.5085 -6.46298 2.08509 0
M  V30 101 H 3.4545 -6.55812 -0.156914 0
M  V30 102 H 3.3715 -7.44178 1.33172 0
M  V30 103 H 4.6395 -7.79255 0.195462 0
M  V30 104 N 8.8686 -0.792821 -1.36206 0
M  V30 105 C 10.2796 -0.429513 -1.81692 0
M  V30 106 C 10.6306 1.04695 -1.65932 0
M  V30 107 O 9.7556 1.81256 -1.18218 0
M  V30 108 C 10.3506 -0.772831 -3.29868 0
M  V30 109 C 8.9096 -0.462307 -3.7355 0
M  V30 110 C 8.0566 -1.00569 -2.5842 0
M  V30 111 H 11.0076 -0.985672 -1.24379 0
M  V30 112 H 11.0286 -0.0651928 -3.80444 0
M  V30 113 H 10.5406 -1.84747 -3.41307 0
M  V30 114 H 8.6416 0.604158 -3.67669 0
M  V30 115 H 8.7546 -0.985299 -4.68859 0
M  V30 116 H 7.1186 -0.428734 -2.51066 0
M  V30 117 H 7.9016 -2.08616 -2.72643 0
M  V30 118 N 10.3467 1.47872 -0.545128 0
M  V30 119 C 11.2937 2.29849 0.2093 0
M  V30 120 C 12.2637 1.38313 0.919707 0
M  V30 121 O 13.4487 1.67277 0.917772 0
M  V30 122 C 10.5887 3.22019 1.24088 0
M  V30 123 C 9.7017 4.2864 0.537778 0
M  V30 124 C 8.8367 5.07973 1.5536 0
M  V30 125 C 7.8757 6.06381 0.8348 0
M  V30 126 N 7.0127 6.78717 1.79688 0
M  V30 127 H 11.8527 2.93845 -0.49591 0
M  V30 128 H 9.3897 1.44848 -0.256389 0
M  V30 129 H 11.3477 3.73868 1.85144 0
M  V30 130 H 9.9777 2.59914 1.91428 0
M  V30 131 H 9.0297 3.7994 -0.187046 0
M  V30 132 H 10.3417 4.98793 -0.0258907 0
M  V30 133 H 9.4957 5.63912 2.23803 0
M  V30 134 H 8.2347 4.37693 2.15118 0
M  V30 135 H 7.2397 5.49631 0.136388 0
M  V30 136 H 8.4647 6.78665 0.24313 0
M  V30 137 H 6.4107 6.11177 2.38326 0
M  V30 138 H 6.3277 7.44998 1.28505 0
M  V30 139 H 7.5957 7.39237 2.47282 0
M  V30 140 N 11.8248 0.280983 1.55075 0
M  V30 141 C 13.0498 -0.340154 2.04592 0
M  V30 142 C 13.4748 -1.48246 1.15779 0
M  V30 143 O 12.8328 -1.80614 0.15761 0
M  V30 144 C 12.8808 -0.793104 3.5177 0
M  V30 145 O 11.9848 -1.89981 3.66034 0
M  V30 146 H 11.3258 -0.0694289 0.66036 0
M  V30 147 H 13.8558 0.416993 2.00306 0
M  V30 148 H 13.8658 -1.08729 3.93245 0
M  V30 149 H 12.5408 0.0426163 4.15878 0
M  V30 150 H 11.1178 -1.60771 3.36463 0
M  V30 151 N 13.3029 -1.57598 0.00835791 0
M  V30 152 C 14.2129 -2.12385 -0.996487 0
M  V30 153 C 15.2289 -1.07108 -1.37127 0
M  V30 154 O 16.4049 -1.39055 -1.4569 0
M  V30 155 C 13.4699 -2.62314 -2.26699 0
M  V30 156 C 12.5309 -3.82225 -1.95456 0
M  V30 157 C 11.7639 -4.29763 -3.16449 0
M  V30 158 O 11.9869 -3.76584 -4.28416 0
M  V30 159 O 10.9209 -5.21832 -2.99958 0
M  V30 160 H 14.7469 -2.98479 -0.560725 0
M  V30 161 H 12.3319 -1.47903 -0.210987 0
M  V30 162 H 14.2139 -2.94589 -3.01322 0
M  V30 163 H 12.8889 -1.79313 -2.69497 0
M  V30 164 H 11.7959 -3.54909 -1.18282 0
M  V30 165 H 13.1289 -4.66324 -1.57489 0
M  V30 166 N 14.781 0.264519 -1.55364 0
M  V30 167 C 15.714 1.35297 -1.83766 0
M  V30 168 C 16.692 1.47171 -0.691336 0
M  V30 169 O 17.876 1.63663 -0.935238 0
M  V30 170 C 15.003 2.72847 -2.00679 0
M  V30 171 C 14.049 2.78214 -3.23263 0
M  V30 172 S 14.882 2.36601 -4.80396 0
M  V30 173 C 16.038 3.7611 -5.00292 0
M  V30 174 H 16.271 1.11003 -2.758 0
M  V30 175 H 13.804 0.464596 -1.47244 0
M  V30 176 H 15.762 3.52057 -2.11108 0
M  V30 177 H 14.423 2.94388 -1.09518 0
M  V30 178 H 13.616 3.7919 -3.3201 0
M  V30 179 H 13.218 2.07034 -3.11469 0
M  V30 180 H 15.51 4.71457 -4.86554 0
M  V30 181 H 16.453 3.7231 -6.02321 0
M  V30 182 H 16.861 3.67806 -4.28228 0
M  V30 183 N 16.2591 1.48442 0.529413 0
M  V30 184 C 17.4871 1.60151 1.30994 0
M  V30 185 C 17.9021 0.261985 1.86973 0
M  V30 186 O 17.2591 -0.748805 1.66431 0
M  V30 187 C 17.3101 2.64854 2.46038 0
M  V30 188 O 17.0311 3.93608 1.92365 0
M  V30 189 C 18.5321 2.87007 3.37849 0
M  V30 190 H 15.7521 0.539971 0.398338 0
M  V30 191 H 18.2961 1.94273 0.638597 0
M  V30 192 H 16.4511 2.33589 3.09055 0
M  V30 193 H 16.8651 4.51055 2.67675 0
M  V30 194 H 18.3391 3.64068 4.14919 0
M  V30 195 H 18.8161 1.95852 3.93114 0
M  V30 196 H 19.4221 3.19579 2.80623 0
M  V30 197 N 17.7372 -0.778329 1.37039 0
M  V30 198 C 19.1482 -1.35421 1.28523 0
M  V30 199 C 19.4992 -1.96075 -0.0700901 0
M  V30 200 O 18.6242 -1.93352 -0.971801 0
M  V30 201 C 19.2192 -2.46211 2.32735 0
M  V30 202 C 17.7782 -2.99585 2.27873 0
M  V30 203 C 16.9252 -1.72748 2.16918 0
M  V30 204 H 19.8762 -0.5791 1.47757 0
M  V30 205 H 19.8972 -3.2552 1.9702 0
M  V30 206 H 19.4092 -2.02036 3.31365 0
M  V30 207 H 17.5102 -3.48152 1.32745 0
M  V30 208 H 17.6232 -3.55646 3.21018 0
M  V30 209 H 15.9872 -1.95416 1.63354 0
M  V30 210 H 16.7702 -1.30686 3.17452 0
M  V30 211 N 19.2153 -1.21501 -1.00376 0
M  V30 212 C 20.1253 -0.991447 -2.12621 0
M  V30 213 C 21.1413 0.0568446 -1.73907 0
M  V30 214 O 22.3173 -0.13348 -2.00957 0
M  V30 215 C 19.3823 -0.560312 -3.42142 0
M  V30 216 C 18.4433 -1.68096 -3.95022 0
M  V30 217 C 17.6763 -1.2703 -5.18362 0
M  V30 218 O 17.8993 -0.144438 -5.70217 0
M  V30 219 O 16.8333 -2.08269 -5.64719 0
M  V30 220 H 20.6593 -1.93158 -2.34358 0
M  V30 221 H 18.2443 -0.999999 -1.10997 0
M  V30 222 H 20.1263 -0.329724 -4.20108 0
M  V30 223 H 18.8013 0.351089 -3.2179 0
M  V30 224 H 17.7083 -1.96597 -3.18278 0
M  V30 225 H 19.0413 -2.56983 -4.19786 0
M  V30 226 N 20.6934 1.19889 -1.02296 0
M  V30 227 C 21.6034 2.26571 -0.608508 0
M  V30 228 C 22.6194 1.70299 0.356964 0
M  V30 229 O 23.7954 2.00235 0.216326 0
M  V30 230 C 20.8604 3.46677 0.0402814 0
M  V30 231 C 19.9214 4.18153 -0.97194 0
M  V30 232 C 19.1544 5.32525 -0.354016 0
M  V30 233 O 19.3774 5.64112 0.844604 0
M  V30 234 O 18.3114 5.92242 -1.07391 0
M  V30 235 H 22.1374 2.64251 -1.49684 0
M  V30 236 H 19.7224 1.26629 -0.792809 0
M  V30 237 H 21.6044 4.19475 0.402324 0
M  V30 238 H 20.2794 3.10858 0.902707 0
M  V30 239 H 19.1864 3.47499 -1.38546 0
M  V30 240 H 20.5194 4.57927 -1.80454 0
M  V30 241 N 22.1715 0.800033 1.35784 0
M  V30 242 C 23.1015 0.220184 2.3246 0
M  V30 243 C 24.0825 -0.65073 1.57161 0
M  V30 244 O 25.2675 -0.582359 1.85263 0
M  V30 245 C 22.3975 -0.637353 3.41402 0
M  V30 246 C 21.3515 0.134531 4.27789 0
M  V30 247 C 20.6775 -0.844285 5.27992 0
M  V30 248 C 21.9775 1.32979 5.05088 0
M  V30 249 H 23.6715 1.02787 2.81203 0
M  V30 250 H 21.2175 0.495717 1.35199 0
M  V30 251 H 23.1705 -1.05302 4.08031 0
M  V30 252 H 21.8945 -1.47785 2.91251 0
M  V30 253 H 20.5535 0.531296 3.6273 0
M  V30 254 H 20.2015 -1.68011 4.74111 0
M  V30 255 H 19.9015 -0.332184 5.8666 0
M  V30 256 H 21.4255 -1.2583 5.97494 0
M  V30 257 H 22.8395 0.98934 5.64699 0
M  V30 258 H 21.2365 1.77593 5.7322 0
M  V30 259 H 22.3065 2.11978 4.36111 0
M  V30 260 N 23.6496 -1.47581 0.552962 0
M  V30 261 C 24.5816 -2.27997 -0.234533 0
M  V30 262 C 25.5946 -1.36753 -0.883321 0
M  V30 263 O 26.7836 -1.61612 -0.757889 0
M  V30 264 C 23.8836 -3.10879 -1.34935 0
M  V30 265 C 23.0566 -4.30056 -0.798158 0
M  V30 266 C 22.1156 -4.94567 -1.79694 0
M  V30 267 O 21.1416 -5.53087 -1.34474 0
M  V30 268 N 22.3436 -4.88878 -3.13015 0
M  V30 269 H 25.1086 -2.96222 0.455255 0
M  V30 270 H 22.6696 -1.57163 0.388761 0
M  V30 271 H 24.6616 -3.50903 -2.01616 0
M  V30 272 H 23.2316 -2.44924 -1.94244 0
M  V30 273 H 22.4516 -3.94174 0.0453079 0
M  V30 274 H 23.7396 -5.07152 -0.409173 0
M  V30 275 H 23.1376 -4.42526 -3.52402 0
M  V30 276 H 21.6946 -5.32934 -3.75266 0
M  V30 277 N 25.1277 -0.289203 -1.54924 0
M  V30 278 C 26.0747 0.592115 -2.23075 0
M  V30 279 C 27.0447 1.13881 -1.20915 0
M  V30 280 O 28.2297 1.18551 -1.495 0
M  V30 281 C 25.3697 1.76376 -2.96623 0
M  V30 282 C 24.4827 1.24959 -4.13533 0
M  V30 283 C 23.6177 2.38416 -4.74691 0
M  V30 284 C 22.6567 1.84072 -5.83767 0
M  V30 285 N 21.7937 2.91057 -6.38929 0
M  V30 286 H 26.6337 0.00432038 -2.98 0
M  V30 287 H 24.1707 -0.00963529 -1.47097 0
M  V30 288 H 26.1287 2.45268 -3.3749 0
M  V30 289 H 24.7587 2.32337 -2.24097 0
M  V30 290 H 23.8107 0.453307 -3.77689 0
M  V30 291 H 25.1227 0.811662 -4.92152 0
M  V30 292 H 24.2767 3.15276 -5.18349 0
M  V30 293 H 23.0157 2.8553 -3.95378 0
M  V30 294 H 22.0207 1.05697 -5.39545 0
M  V30 295 H 23.2457 1.37877 -6.64956 0
M  V30 296 H 21.1917 3.37526 -5.62505 0
M  V30 297 H 21.1087 2.51724 -7.12861 0
M  V30 298 H 22.3767 3.6785 -6.87246 0
M  V30 299 N 26.6058 1.57591 -0.0167156 0
M  V30 300 C 28.0218 1.55946 0.339557 0
M  V30 301 C 28.2218 1.02109 1.73713 0
M  V30 302 O 27.2778 0.662303 2.43659 0
M  V30 303 C 28.5908 3.00037 0.199499 0
M  V30 304 C 30.1388 3.11805 0.273193 0
M  V30 305 C 30.6138 4.57713 0.162068 0
M  V30 306 N 32.1048 4.6268 0.219444 0
M  V30 307 C 32.8398 5.73185 0.157054 0
M  V30 308 N 32.3358 6.92786 0.0442936 0
M  V30 309 N 34.1288 5.61707 0.21014 0
M  V30 310 H 26.2798 1.90921 -0.930758 0
M  V30 311 H 28.5428 0.877674 -0.358319 0
M  V30 312 H 28.2488 3.4333 -0.76273 0
M  V30 313 H 28.1228 3.64387 0.974786 0
M  V30 314 H 30.5098 2.68433 1.22587 0
M  V30 315 H 30.5908 2.50201 -0.532256 0
M  V30 316 H 30.2348 5.01763 -0.78714 0
M  V30 317 H 30.1648 5.17283 0.986222 0
M  V30 318 H 32.6558 3.76649 0.307246 0
M  V30 319 H 32.9688 7.728 0.00304069 0
M  V30 320 H 31.3138 6.94999 0.00968457 0
M  V30 321 H 34.5048 4.6716 0.296546 0
M  V30 322 H 34.6778 6.47807 0.158054 0
M  V30 323 N 28.0839 -0.256276 1.55502 0
M  V30 324 C 28.9939 -1.33882 1.92647 0
M  V30 325 C 30.0099 -1.53159 0.825727 0
M  V30 326 O 31.1859 -1.66963 1.12629 0
M  V30 327 C 28.2509 -2.6751 2.20543 0
M  V30 328 C 27.3119 -2.56836 3.43997 0
M  V30 329 C 26.5449 -3.84092 3.70553 0
M  V30 330 O 26.7679 -4.85545 2.99336 0
M  V30 331 O 25.7019 -3.83288 4.64084 0
M  V30 332 H 29.5279 -1.05374 2.84833 0
M  V30 333 H 27.1129 -0.456237 1.42263 0
M  V30 334 H 28.9949 -3.46492 2.39835 0
M  V30 335 H 27.6699 -2.9577 1.31536 0
M  V30 336 H 26.5769 -1.76172 3.30021 0
M  V30 337 H 27.9099 -2.33523 4.33275 0
M  V30 338 N 29.562 -1.4872 -0.521534 0
M  V30 339 C 30.472 -1.66569 -1.65203 0
M  V30 340 C 31.488 -0.548197 -1.65139 0
M  V30 341 O 32.664 -0.820339 -1.83936 0
M  V30 342 C 29.729 -1.70917 -3.01642 0
M  V30 343 C 28.79 -2.94356 -3.12495 0
M  V30 344 C 28.023 -2.98487 -4.42426 0
M  V30 345 O 28.246 -2.10786 -5.30024 0
M  V30 346 O 27.18 -3.90746 -4.57822 0
M  V30 347 H 31.006 -2.62298 -1.5308 0
M  V30 348 H 28.591 -1.3222 -0.695565 0
M  V30 349 H 30.473 -1.7625 -3.82771 0
M  V30 350 H 29.148 -0.783633 -3.14071 0
M  V30 351 H 28.055 -2.94552 -2.3063 0
M  V30 352 H 29.388 -3.86322 -3.04986 0
M  V30 353 N 31.0401 0.771051 -1.3745 0
M  V30 354 C 31.9501 1.91538 -1.35464 0
M  V30 355 C 32.9661 1.72134 -0.254123 0
M  V30 356 O 34.1421 1.95358 -0.489626 0
M  V30 357 C 31.2071 3.26671 -1.16134 0
M  V30 358 C 30.2681 3.58723 -2.35831 0
M  V30 359 C 29.5011 4.87409 -2.17413 0
M  V30 360 O 29.7241 5.58506 -1.15876 0
M  V30 361 O 28.6581 5.18539 -3.05615 0
M  V30 362 H 32.4841 1.96165 -2.31847 0
M  V30 363 H 30.0691 0.9139 -1.18187 0
M  V30 364 H 31.9511 4.07499 -1.07345 0
M  V30 365 H 30.6261 3.22894 -0.228251 0
M  V30 366 H 29.5331 2.78127 -2.50192 0
M  V30 367 H 30.8661 3.67243 -3.27709 0
M  V30 368 N 32.5182 1.22032 0.997298 0
M  V30 369 C 33.4282 1.00271 2.12092 0
M  V30 370 C 34.4442 -0.047621 1.73935 0
M  V30 371 O 35.6202 0.144136 2.00884 0
M  V30 372 C 32.6852 0.578449 3.4184 0
M  V30 373 C 31.7462 1.70189 3.94125 0
M  V30 374 C 30.9792 1.29778 5.17681 0
M  V30 375 O 31.2022 0.174676 5.70132 0
M  V30 376 O 30.1362 2.11261 5.63607 0
M  V30 377 H 33.9622 1.94398 2.3333 0
M  V30 378 H 31.5472 1.00587 1.10465 0
M  V30 379 H 33.4292 0.351998 4.19927 0
M  V30 380 H 32.1042 -0.334019 3.21972 0
M  V30 381 H 31.0112 1.98282 3.1723 0
M  V30 382 H 32.3442 2.59206 4.18417 0
M  V30 383 N 33.9963 -1.19345 1.0293 0
M  V30 384 C 35.2433 -1.89038 0.726008 0
M  V30 385 C 35.5713 -1.79649 -0.745427 0
M  V30 386 O 34.8263 -1.18354 -1.55855 0
M  V30 387 C 35.1253 -3.39292 1.12319 0
M  V30 388 C 34.7913 -3.68885 2.59297 0
M  V30 389 C 33.4533 -3.76671 2.99453 0
M  V30 390 C 35.8053 -3.82178 3.54386 0
M  V30 391 C 33.1333 -3.9522 4.33611 0
M  V30 392 C 35.4853 -4.0224 4.88248 0
M  V30 393 C 34.1493 -4.08259 5.28092 0
M  V30 394 H 33.4193 -0.691739 0.265665 0
M  V30 395 H 36.0663 -1.41328 1.29223 0
M  V30 396 H 34.3713 -3.88903 0.475584 0
M  V30 397 H 36.0683 -3.91536 0.866037 0
M  V30 398 H 32.6583 -3.63433 2.27189 0
M  V30 399 H 36.8423 -3.75505 3.24514 0
M  V30 400 H 32.0983 -3.98119 4.64016 0
M  V30 401 H 36.2723 -4.11468 5.61843 0
M  V30 402 H 33.8993 -4.22384 6.32057 0
M  V30 403 N 35.4744 -0.807222 -1.35358 0
M  V30 404 C 36.4224 -0.20614 -2.31685 0
M  V30 405 C 37.4164 0.644445 -1.56663 0
M  V30 406 O 38.6224 0.537538 -1.71786 0
M  V30 407 H 34.9974 -0.0479006 -0.750473 0
M  V30 408 H 36.9684 -1.03369 -2.79924 0
M  V30 409 C 35.7174 0.630212 -3.41941 0
M  V30 410 H 35.0404 -0.0149558 -3.99797 0
M  V30 411 H 36.4804 1.01716 -4.11619 0
M  V30 412 C 34.9394 1.79601 -2.85035 0
M  V30 413 O 35.4694 2.89351 -2.78637 0
M  V30 414 N 33.6754 1.60774 -2.42074 0
M  V30 415 H 33.2224 0.715009 -2.47478 0
M  V30 416 H 33.1804 2.38933 -2.04349 0
M  V30 417 N 36.9525 1.47285 -0.560781 0
M  V30 418 C 38.1805 2.06855 -0.0430262 0
M  V30 419 C 38.5955 1.41291 1.25229 0
M  V30 420 O 37.9525 0.510648 1.7521 0
M  V30 421 C 38.0035 3.61178 0.152518 0
M  V30 422 O 37.7245 4.24285 -1.0915 0
M  V30 423 C 39.2255 4.37624 0.707145 0
M  V30 424 H 36.4455 0.669319 -0.0474652 0
M  V30 425 H 38.9895 1.89237 -0.77521 0
M  V30 426 H 37.1445 3.78298 0.834843 0
M  V30 427 H 37.5585 5.16868 -0.891482 0
M  V30 428 H 39.0325 5.46271 0.793244 0
M  V30 429 H 39.5095 4.04152 1.71923 0
M  V30 430 H 40.1155 4.25257 0.0604027 0
M  V30 431 N 38.4306 0.297415 1.54768 0
M  V30 432 C 39.6786 -0.312295 1.99673 0
M  V30 433 C 39.9996 -1.54686 1.18732 0
M  V30 434 O 39.2696 -1.93854 0.282382 0
M  V30 435 H 37.8496 -0.118381 0.73756 0
M  V30 436 H 40.5116 0.407915 1.90583 0
M  V30 437 H 39.6076 -0.586813 3.06534 0
M  V30 438 N 39.9087 -1.5758 0.0250728 0
M  V30 439 C 41.3197 -1.79476 -0.514323 0
M  V30 440 C 41.6707 -0.934956 -1.72491 0
M  V30 441 O 40.7957 -0.144245 -2.15919 0
M  V30 442 C 41.3907 -3.25503 -0.939842 0
M  V30 443 C 39.9497 -3.48408 -1.42438 0
M  V30 444 C 39.0967 -2.74583 -0.387201 0
M  V30 445 H 42.0477 -1.567 0.25113 0
M  V30 446 H 42.0687 -3.34992 -1.80445 0
M  V30 447 H 41.5807 -3.88056 -0.0585628 0
M  V30 448 H 39.6817 -2.91103 -2.32572 0
M  V30 449 H 39.7947 -4.57119 -1.43455 0
M  V30 450 H 38.1587 -2.39942 -0.854409 0
M  V30 451 H 38.9417 -3.39849 0.485543 0
M  V30 452 N 41.3868 0.248026 -1.55636 0
M  V30 453 C 42.3168 1.31079 -1.93237 0
M  V30 454 C 43.2978 1.50264 -0.797174 0
M  V30 455 O 44.4828 1.62891 -1.05737 0
M  V30 456 C 41.6128 2.66575 -2.22609 0
M  V30 457 C 40.5668 2.62087 -3.3837 0
M  V30 458 C 39.8928 4.01369 -3.53281 0
M  V30 459 C 41.1928 2.19171 -4.7409 0
M  V30 460 H 42.8868 0.998556 -2.82257 0
M  V30 461 H 40.4328 0.47891 -1.35803 0
M  V30 462 H 42.3858 3.41057 -2.47503 0
M  V30 463 H 41.1098 2.99432 -1.30414 0
M  V30 464 H 39.7688 1.90063 -3.13483 0
M  V30 465 H 39.4168 4.31489 -2.58508 0
M  V30 466 H 39.1168 3.99254 -4.31127 0
M  V30 467 H 40.6408 4.77552 -3.80495 0
M  V30 468 H 42.0548 2.83384 -4.98363 0
M  V30 469 H 40.4518 2.2817 -5.5503 0
M  V30 470 H 41.5218 1.14336 -4.71227 0
M  V30 471 N 42.8649 1.48995 0.513639 0
M  V30 472 C 44.0899 1.61792 1.29762 0
M  V30 473 C 44.5149 0.284475 1.85936 0
M  V30 474 O 43.8729 -0.746185 1.65232 0
M  V30 475 C 43.9209 2.67993 2.41272 0
M  V30 476 O 43.0249 2.26287 3.44772 0
M  V30 477 H 42.3659 0.541963 0.38363 0
M  V30 478 H 44.8959 1.95097 0.616307 0
M  V30 479 H 44.9059 2.89772 2.87221 0
M  V30 480 H 43.5809 3.64791 1.9975 0
M  V30 481 H 42.1579 2.14788 3.04829 0
M  V30 482 N 44.343 -0.763751 1.37857 0
M  V30 483 C 45.589 -1.52483 1.33704 0
M  V30 484 C 45.922 -1.94051 -0.0759612 0
M  V30 485 O 45.197 -1.64675 -1.03501 0
M  V30 486 C 45.48 -2.78441 2.28348 0
M  V30 487 C 45.333 -2.43075 3.78463 0
M  V30 488 C 46.652 -3.80415 2.21298 0
M  V30 489 H 43.771 -0.553169 0.487005 0
M  V30 490 H 46.413 -0.875562 1.68624 0
M  V30 491 H 44.563 -3.33842 1.987 0
M  V30 492 H 46.235 -1.93527 4.18742 0
M  V30 493 H 44.478 -1.75666 3.96641 0
M  V30 494 H 45.149 -3.33149 4.40132 0
M  V30 495 H 47.625 -3.34527 2.47449 0
M  V30 496 H 46.501 -4.66257 2.89647 0
M  V30 497 H 46.762 -4.25262 1.20849 0
M  V30 498 N 45.8211 -1.22559 -0.990812 0
M  V30 499 C 46.7511 -1.0218 -2.09956 0
M  V30 500 C 47.7321 0.0579394 -1.70001 0
M  V30 501 O 48.9171 -0.104684 -1.93918 0
M  V30 502 C 46.0471 -0.601023 -3.4206 0
M  V30 503 C 45.0011 -1.62694 -3.95872 0
M  V30 504 C 44.3271 -1.06193 -5.24049 0
M  V30 505 C 45.6271 -3.01743 -4.2632 0
M  V30 506 H 47.3211 -1.94916 -2.27262 0
M  V30 507 H 44.8671 -0.938566 -1.09211 0
M  V30 508 H 46.8201 -0.445561 -4.19038 0
M  V30 509 H 45.5441 0.362005 -3.24588 0
M  V30 510 H 44.2031 -1.77021 -3.21028 0
M  V30 511 H 43.8511 -0.0901903 -5.02919 0
M  V30 512 H 43.5511 -1.74732 -5.61019 0
M  V30 513 H 45.0751 -0.918092 -6.03658 0
M  V30 514 H 46.4891 -2.90777 -4.94087 0
M  V30 515 H 44.8861 -3.67425 -4.74467 0
M  V30 516 H 45.9561 -3.51518 -3.34011 0
M  V30 517 N 47.2992 1.18797 -1.03562 0
M  V30 518 C 48.5272 1.92599 -0.755869 0
M  V30 519 C 48.9422 1.75886 0.686271 0
M  V30 520 O 48.2992 1.08517 1.46732 0
M  V30 521 C 48.3502 3.44159 -1.10619 0
M  V30 522 O 48.0712 3.60341 -2.4917 0
M  V30 523 C 49.5722 4.3507 -0.850214 0
M  V30 524 H 46.7922 0.611587 -0.276048 0
M  V30 525 H 49.3362 1.50742 -1.38192 0
M  V30 526 H 47.4912 3.83823 -0.525194 0
M  V30 527 H 47.9052 4.54128 -2.62427 0
M  V30 528 H 49.3792 5.39989 -1.14523 0
M  V30 529 H 49.8562 4.38673 0.215176 0
M  V30 530 H 50.4622 4.01097 -1.41426 0
M  V30 531 N 48.7773 0.814389 1.34928 0
M  V30 532 C 49.7093 0.187834 2.28429 0
M  V30 533 C 50.7223 -0.617374 1.5064 0
M  V30 534 O 51.9113 -0.448454 1.72775 0
M  V30 535 C 49.0113 -0.755962 3.30361 0
M  V30 536 C 48.1843 0.00456686 4.374 0
M  V30 537 C 47.2433 -0.858876 5.19143 0
M  V30 538 O 46.2693 -0.306968 5.68372 0
M  V30 539 N 47.4713 -2.17988 5.38016 0
M  V30 540 H 50.2363 0.991105 2.82838 0
M  V30 541 H 47.7973 0.670561 1.4736 0
M  V30 542 H 49.7893 -1.338 3.81942 0
M  V30 543 H 48.3593 -1.46001 2.7641 0
M  V30 544 H 47.5793 0.767865 3.86649 0
M  V30 545 H 48.8673 0.528422 5.06049 0
M  V30 546 H 48.2653 -2.65212 4.99679 0
M  V30 547 H 46.8223 -2.71098 5.92747 0
M  V30 548 N 50.2554 -1.46986 0.568584 0
M  V30 549 C 51.4804 -2.07335 0.0520528 0
M  V30 550 C 51.9054 -1.41675 -1.23733 0
M  V30 551 O 51.2634 -0.495623 -1.74394 0
M  V30 552 C 51.3114 -3.60417 -0.11501 0
M  V30 553 O 50.4154 -3.95309 -1.17492 0
M  V30 554 H 49.7564 -0.661597 0.0564385 0
M  V30 555 H 52.2864 -1.88837 0.787507 0
M  V30 556 H 52.2964 -4.06698 -0.325644 0
M  V30 557 H 50.9714 -4.07601 0.826675 0
M  V30 558 H 49.5484 -3.60757 -0.943869 0
M  V30 559 N 51.7335 -0.305618 -1.54608 0
M  V30 560 C 52.9795 0.302746 -2.00528 0
M  V30 561 C 53.3125 1.53184 -1.19367 0
M  V30 562 O 52.5875 1.92598 -0.271321 0
M  V30 563 C 52.8705 0.654756 -3.54097 0
M  V30 564 C 52.7235 -0.583793 -4.45995 0
M  V30 565 C 54.0425 1.47947 -4.14487 0
M  V30 566 H 51.1615 0.108564 -0.72896 0
M  V30 567 H 53.8035 -0.418634 -1.85331 0
M  V30 568 H 51.9535 1.26935 -3.67178 0
M  V30 569 H 53.6255 -1.22224 -4.44814 0
M  V30 570 H 51.8685 -1.21615 -4.16404 0
M  V30 571 H 52.5395 -0.293287 -5.5122 0
M  V30 572 H 55.0155 0.96013 -4.04871 0
M  V30 573 H 53.8915 1.69454 -5.22088 0
M  V30 574 H 54.1525 2.47011 -3.66658 0
M  V30 575 N 53.2116 1.57565 -0.0334293 0
M  V30 576 C 54.1586 2.10478 0.946981 0
M  V30 577 C 55.1286 1.00787 1.32027 0
M  V30 578 O 56.3136 1.28232 1.41284 0
M  V30 579 C 53.4536 2.63994 2.22263 0
M  V30 580 C 52.5666 3.87709 1.90541 0
M  V30 581 C 51.7016 4.29604 3.12433 0
M  V30 582 C 50.7406 5.46065 2.76549 0
M  V30 583 N 49.8776 5.83096 3.9108 0
M  V30 584 H 54.7176 2.93963 0.488846 0
M  V30 585 H 52.2546 1.45296 0.22969 0
M  V30 586 H 54.2126 2.93114 2.96884 0
M  V30 587 H 52.8426 1.83333 2.65685 0
M  V30 588 H 51.8946 3.65291 1.06144 0
M  V30 589 H 53.2066 4.72403 1.60116 0
M  V30 590 H 52.3606 4.60182 3.9537 0
M  V30 591 H 51.0996 3.43685 3.46023 0
M  V30 592 H 50.1046 5.15176 1.92026 0
M  V30 593 H 51.3296 6.33685 2.44171 0
M  V30 594 H 49.2756 5.00132 4.24504 0
M  V30 595 H 49.1926 6.6244 3.64293 0
M  V30 596 H 50.4606 6.18282 4.74708 0
M  V30 597 N 54.6897 -0.239769 1.55765 0
M  V30 598 C 55.6377 -1.31668 1.91745 0
M  V30 599 C 56.6317 -1.49462 0.797338 0
M  V30 600 O 57.8377 -1.50852 0.982021 0
M  V30 601 H 54.2127 -0.441048 0.609082 0
M  V30 602 H 56.1837 -0.985923 2.81642 0
M  V30 603 C 54.9327 -2.66368 2.2348 0
M  V30 604 H 54.2557 -2.53478 3.09175 0
M  V30 605 H 55.6957 -3.40578 2.52553 0
M  V30 606 C 54.1547 -3.20002 1.05359 0
M  V30 607 O 54.6847 -4.00538 0.305261 0
M  V30 608 N 52.8907 -2.78126 0.842292 0
M  V30 609 H 52.4377 -2.12742 1.45253 0
M  V30 610 H 52.3957 -3.14354 0.053652 0
M  V30 611 N 56.1678 -1.49265 -0.50573 0
M  V30 612 C 57.1158 -1.66065 -1.62866 0
M  V30 613 C 58.1098 -0.526636 -1.61006 0
M  V30 614 O 59.3158 -0.706126 -1.65571 0
M  V30 615 H 55.6908 -0.52356 -0.539805 0
M  V30 616 H 57.6618 -2.60329 -1.45848 0
M  V30 617 C 56.4108 -1.74008 -3.01026 0
M  V30 618 H 55.7338 -2.6064 -3.03161 0
M  V30 619 H 57.1738 -1.89798 -3.79147 0
M  V30 620 C 55.6328 -0.483868 -3.33407 0
M  V30 621 O 56.1628 0.392548 -3.99777 0
M  V30 622 N 54.3688 -0.348236 -2.88506 0
M  V30 623 H 53.9158 -1.06242 -2.34671 0
M  V30 624 H 53.8738 0.491204 -3.10539 0
M  V30 625 N 57.6459 0.756429 -1.3826 0
M  V30 626 C 58.8739 1.54565 -1.3754 0
M  V30 627 C 59.2889 1.88767 0.0355331 0
M  V30 628 O 58.6459 1.52572 1.0014 0
M  V30 629 C 58.6969 2.84654 -2.22833 0
M  V30 630 O 58.4179 2.51912 -3.5843 0
M  V30 631 C 59.9189 3.78807 -2.30261 0
M  V30 632 H 57.1389 0.478353 -0.470553 0
M  V30 633 H 59.6829 0.936381 -1.81803 0
M  V30 634 H 57.8379 3.41965 -1.8204 0
M  V30 635 H 58.2519 3.35325 -4.03308 0
M  V30 636 H 59.7259 4.67045 -2.94233 0
M  V30 637 H 60.2029 4.19038 -1.31545 0
M  V30 638 H 60.8089 3.2742 -2.71433 0
M  V30 639 N 59.124 1.23083 0.984299 0
M  V30 640 C 60.056 0.96636 2.07832 0
M  V30 641 C 61.069 -0.0582135 1.62696 0
M  V30 642 O 62.258 0.176843 1.77622 0
M  V30 643 C 59.358 0.433397 3.36117 0
M  V30 644 C 58.531 1.51722 4.10243 0
M  V30 645 C 57.59 0.989821 5.16807 0
M  V30 646 O 56.616 1.67794 5.43906 0
M  V30 647 N 57.818 -0.184367 5.80207 0
M  V30 648 H 60.583 1.90824 2.31098 0
M  V30 649 H 58.144 1.13888 1.1507 0
M  V30 650 H 60.136 0.065699 4.04647 0
M  V30 651 H 58.706 -0.413806 3.09849 0
M  V30 652 H 57.926 2.05786 3.36223 0
M  V30 653 H 59.214 2.24619 4.56534 0
M  V30 654 H 58.612 -0.760062 5.60571 0
M  V30 655 H 57.169 -0.493366 6.4993 0
M  V30 656 N 60.6021 -1.18246 1.0419 0
M  V30 657 C 61.8481 -1.88536 0.747122 0
M  V30 658 C 62.1811 -1.80223 -0.723409 0
M  V30 659 O 61.4561 -1.20337 -1.52804 0
M  V30 660 C 61.7391 -3.38968 1.21544 0
M  V30 661 C 61.5921 -3.56084 2.74816 0
M  V30 662 C 62.9111 -4.32648 0.806482 0
M  V30 663 H 60.0301 -0.684619 0.272883 0
M  V30 664 H 62.6721 -1.39113 1.29413 0
M  V30 665 H 60.8221 -3.8119 0.750081 0
M  V30 666 H 62.4941 -3.22946 3.29399 0
M  V30 667 H 60.7371 -2.98699 3.14582 0
M  V30 668 H 61.4081 -4.61639 3.02644 0
M  V30 669 H 63.8841 -3.98211 1.20695 0
M  V30 670 H 62.7601 -5.36462 1.1619 0
M  V30 671 H 63.0211 -4.41146 -0.29029 0
M  V30 672 N 62.0802 -0.821533 -1.34494 0
M  V30 673 C 63.0102 -0.257138 -2.3208 0
M  V30 674 C 63.9912 0.625645 -1.58176 0
M  V30 675 O 65.1762 0.552811 -1.86166 0
M  V30 676 C 62.3062 0.582958 -3.42372 0
M  V30 677 C 61.2602 -0.202571 -4.2752 0
M  V30 678 C 60.5862 0.760179 -5.29269 0
M  V30 679 C 61.8862 -1.40998 -5.02908 0
M  V30 680 H 63.5802 -1.07247 -2.79532 0
M  V30 681 H 61.1262 -0.517163 -1.34393 0
M  V30 682 H 63.0792 0.987972 -4.09655 0
M  V30 683 H 61.8032 1.43133 -2.93565 0
M  V30 684 H 60.4622 -0.588936 -3.61838 0
M  V30 685 H 60.1102 1.60447 -4.76724 0
M  V30 686 H 59.8102 0.238809 -5.87115 0
M  V30 687 H 61.3342 1.16308 -5.9942 0
M  V30 688 H 62.7482 -1.07905 -5.63054 0
M  V30 689 H 61.1452 -1.86689 -5.70322 0
M  V30 690 H 62.2152 -2.1889 -4.32684 0
M  V30 691 N 63.5583 1.46682 -0.576371 0
M  V30 692 C 64.8073 2.01619 -0.0572825 0
M  V30 693 C 65.1203 1.45417 1.30818 0
M  V30 694 O 66.3263 1.92133 1.91825 0
M  V30 695 C 64.7823 3.59863 -0.0518371 0
M  V30 696 C 64.3903 4.25059 -1.41523 0
M  V30 697 C 66.1343 4.2248 0.413639 0
M  V30 698 C 64.0413 5.75364 -1.36785 0
M  V30 699 H 62.9713 0.753794 -0.0176448 0
M  V30 700 H 65.6223 1.68481 -0.727076 0
M  V30 701 H 64.0043 3.90048 0.683994 0
M  V30 702 H 65.1783 4.06491 -2.17029 0
M  V30 703 H 63.4933 3.7451 -1.8202 0
M  V30 704 H 66.0903 5.3265 0.467779 0
M  V30 705 H 66.4333 3.90976 1.42982 0
M  V30 706 H 66.9663 3.96897 -0.267929 0
M  V30 707 H 63.7053 6.11518 -2.36063 0
M  V30 708 H 63.2253 5.96214 -0.654895 0
M  V30 709 H 64.9043 6.37955 -1.07805 0
M  V30 710 N 65.0364 0.313813 1.54444 0
M  V30 711 C 65.9844 -0.572171 2.25453 0
M  V30 712 C 66.9784 -1.12657 1.2651 0
M  V30 713 O 68.1844 -1.07573 1.44319 0
M  V30 714 H 64.5594 -0.203146 0.724041 0
M  V30 715 H 66.5304 0.0491145 2.9836 0
M  V30 716 C 65.2794 -1.72626 3.0182 0
M  V30 717 H 64.6024 -1.30891 3.77767 0
M  V30 718 H 66.0424 -2.32199 3.54767 0
M  V30 719 C 64.5014 -2.63806 2.09542 0
M  V30 720 O 65.0314 -3.65256 1.67185 0
M  V30 721 N 63.2374 -2.31824 1.75232 0
M  V30 722 H 62.7844 -1.49368 2.09873 0
M  V30 723 H 62.7424 -2.93095 1.13767 0
M  V30 724 N 66.5145 -1.57545 0.0417849 0
M  V30 725 C 67.7545 -1.94185 -0.63809 0
M  V30 726 C 68.1185 -0.919339 -1.68559 0
M  V30 727 O 69.3195 -1.17236 -2.41886 0
M  V30 728 C 67.5905 -3.35672 -1.22714 0
M  V30 729 S 69.1495 -3.94256 -1.92633 0
M  V30 730 H 65.9675 -0.679353 -0.209764 0
M  V30 731 H 68.5695 -1.95199 0.108479 0
M  V30 732 H 67.2735 -4.07898 -0.452503 0
M  V30 733 H 66.8045 -3.38132 -2.01073 0
M  V30 734 H 68.8195 -3.7872 -3.20602 0
M  V30 735 N 67.9926 0.231505 -1.5589 0
M  V30 736 C 69.4086 0.580748 -1.48659 0
M  V30 737 C 69.6086 1.87617 -0.73498 0
M  V30 738 O 68.6646 2.51046 -0.270586 0
M  V30 739 C 69.9776 0.669202 -2.93159 0
M  V30 740 C 71.5256 0.760499 -3.03621 0
M  V30 741 C 72.0006 0.880383 -4.49459 0
M  V30 742 N 73.4916 0.944861 -4.53461 0
M  V30 743 C 74.2266 1.05716 -5.63571 0
M  V30 744 N 73.7226 1.13403 -6.83456 0
M  V30 745 N 75.5156 1.09152 -5.514 0
M  V30 746 H 67.6666 -0.618695 -2.03189 0
M  V30 747 H 69.9296 -0.215728 -0.923128 0
M  V30 748 H 69.6356 -0.212904 -3.51055 0
M  V30 749 H 69.5096 1.5361 -3.44505 0
M  V30 750 H 71.8966 1.63305 -2.45796 0
M  V30 751 H 71.9776 -0.131864 -2.5546 0
M  V30 752 H 71.6216 0.0123284 -5.07899 0
M  V30 753 H 71.5516 1.78802 -4.95316 0
M  V30 754 H 74.0426 0.896176 -3.6712 0
M  V30 755 H 74.3556 1.21921 -7.63122 0
M  V30 756 H 72.7006 1.10333 -6.86186 0
M  V30 757 H 75.8916 1.02805 -4.56671 0
M  V30 758 H 76.0646 1.17558 -6.37247 0
M  V30 759 N 69.4707 1.49531 0.497807 0
M  V30 760 C 70.4187 1.66926 1.61983 0
M  V30 761 C 71.4127 0.535167 1.60724 0
M  V30 762 O 72.6187 0.714896 1.65195 0
M  V30 763 H 68.9937 0.526415 0.537021 0
M  V30 764 H 70.9647 2.61098 1.44465 0
M  V30 765 C 69.7137 1.75602 3.00099 0
M  V30 766 H 69.0367 2.62244 3.01775 0
M  V30 767 H 70.4767 1.91807 3.78135 0
M  V30 768 C 68.9357 0.501543 3.33146 0
M  V30 769 O 69.4657 -0.371342 3.9998 0
M  V30 770 N 67.6717 0.363531 2.88317 0
M  V30 771 H 67.2187 1.07485 2.34104 0
M  V30 772 H 67.1767 -0.474728 3.10795 0
M  V30 773 N 70.9488 -0.749086 1.3866 0
M  V30 774 C 71.8968 -1.88428 1.36373 0
M  V30 775 C 72.8908 -1.67561 0.248929 0
M  V30 776 O 74.0968 -1.75074 0.41821 0
M  V30 777 H 70.4718 -0.620023 0.42553 0
M  V30 778 H 72.4428 -1.87473 2.32156 0
M  V30 779 C 71.1918 -3.25961 1.21014 0
M  V30 780 H 70.5148 -3.42607 2.06059 0
M  V30 781 H 71.9548 -4.05625 1.23469 0
M  V30 782 C 70.4138 -3.36799 -0.0825941 0
M  V30 783 O 70.9438 -3.87517 -1.05797 0
M  V30 784 N 69.1498 -2.90258 -0.140939 0
M  V30 785 H 68.6968 -2.49174 0.653477 0
M  V30 786 H 68.6548 -2.97889 -1.00545 0
M  V30 787 N 72.4269 -1.23603 -0.977757 0
M  V30 788 C 73.3739 -1.01954 -2.07061 0
M  V30 789 C 74.3439 0.0638697 -1.65977 0
M  V30 790 O 75.5289 -0.0887624 -1.90593 0
M  V30 791 C 72.6689 -0.619658 -3.39491 0
M  V30 792 C 71.7819 -1.77547 -3.93829 0
M  V30 793 C 70.9169 -1.32212 -5.14484 0
M  V30 794 C 69.9559 -2.44852 -5.60994 0
M  V30 795 N 69.0929 -2.00456 -6.72876 0
M  V30 796 H 73.9329 -1.95495 -2.24913 0
M  V30 797 H 71.4699 -0.973861 -1.10247 0
M  V30 798 H 73.4279 -0.368898 -4.15566 0
M  V30 799 H 72.0579 0.278752 -3.21594 0
M  V30 800 H 71.1099 -2.14016 -3.14486 0
M  V30 801 H 72.4219 -2.62219 -4.24314 0
M  V30 802 H 71.5759 -1.02965 -5.97899 0
M  V30 803 H 70.3149 -0.445808 -4.85658 0
M  V30 804 H 69.3199 -2.74871 -4.76157 0
M  V30 805 H 70.5449 -3.33024 -5.91837 0
M  V30 806 H 68.4909 -1.15208 -6.45804 0
M  V30 807 H 68.4079 -2.78687 -7.02759 0
M  V30 808 H 69.6759 -1.7432 -7.59758 0
M  V30 809 N 73.905 1.17692 -1.04816 0
M  V30 810 C 74.852 2.21581 -0.645797 0
M  V30 811 C 75.822 1.62367 0.350159 0
M  V30 812 O 77.007 1.89254 0.242433 0
M  V30 813 C 74.147 3.45092 -0.0227568 0
M  V30 814 C 73.26 4.18613 -1.06709 0
M  V30 815 C 72.395 5.29602 -0.411767 0
M  V30 816 C 71.434 5.94904 -1.44067 0
M  V30 817 N 70.571 6.97414 -0.809781 0
M  V30 818 H 75.411 2.55353 -1.5362 0
M  V30 819 H 72.948 1.25438 -0.768364 0
M  V30 820 H 74.906 4.15679 0.35588 0
M  V30 821 H 73.536 3.11917 0.831122 0
M  V30 822 H 72.588 3.46779 -1.5636 0
M  V30 823 H 73.9 4.63293 -1.84827 0
M  V30 824 H 73.054 6.06696 0.0206623 0
M  V30 825 H 71.793 4.86045 0.401438 0
M  V30 826 H 70.798 5.16544 -1.88316 0
M  V30 827 H 72.023 6.40542 -2.25571 0
M  V30 828 H 69.969 6.55998 -0.0170186 0
M  V30 829 H 69.886 7.40386 -1.52856 0
M  V30 830 H 71.154 7.78463 -0.401999 0
M  V30 831 N 75.3831 0.828654 1.34056 0
M  V30 832 C 76.3131 0.269443 2.3194 0
M  V30 833 C 77.2941 -0.617247 1.58506 0
M  V30 834 O 78.4791 -0.542931 1.86456 0
M  V30 835 C 75.6091 -0.564793 3.42677 0
M  V30 836 C 74.5631 0.225241 4.27407 0
M  V30 837 C 73.8891 -0.7321 5.29664 0
M  V30 838 C 75.1891 1.43663 5.02154 0
M  V30 839 H 76.8831 1.08728 2.7896 0
M  V30 840 H 74.4291 0.524283 1.34117 0
M  V30 841 H 76.3821 -0.966233 4.10173 0
M  V30 842 H 75.1061 -1.41574 2.9432 0
M  V30 843 H 73.7651 0.608117 3.61521 0
M  V30 844 H 73.4131 -1.57916 4.77568 0
M  V30 845 H 73.1131 -0.20767 5.87233 0
M  V30 846 H 74.6371 -1.13128 6.00029 0
M  V30 847 H 76.0511 1.1089 5.62473 0
M  V30 848 H 74.4481 1.89711 5.69324 0
M  V30 849 H 75.5181 2.21181 4.31517 0
M  V30 850 N 76.8612 -1.46375 0.584142 0
M  V30 851 C 77.7912 -2.33103 -0.136037 0
M  V30 852 C 78.7722 -1.45431 -0.882255 0
M  V30 853 O 79.9572 -1.74246 -0.857434 0
M  V30 854 C 77.0872 -3.27731 -1.14933 0
M  V30 855 C 76.0412 -4.24855 -0.517862 0
M  V30 856 C 75.3672 -5.09001 -1.63773 0
M  V30 857 C 76.6672 -5.19439 0.545886 0
M  V30 858 H 78.3612 -2.93568 0.588086 0
M  V30 859 H 75.9072 -1.41166 0.284259 0
M  V30 860 H 77.8602 -3.87261 -1.66153 0
M  V30 861 H 76.5842 -2.65377 -1.90375 0
M  V30 862 H 75.2432 -3.6659 -0.0267361 0
M  V30 863 H 74.8912 -4.43031 -2.38185 0
M  V30 864 H 74.5912 -5.74777 -1.22085 0
M  V30 865 H 76.1152 -5.71396 -2.15266 0
M  V30 866 H 77.5292 -5.73177 0.118704 0
M  V30 867 H 75.9262 -5.93566 0.88317 0
M  V30 868 H 76.9962 -4.63285 1.43162 0
M  V30 869 N 78.3393 -0.321999 -1.54275 0
M  V30 870 C 79.5873 0.280489 -2.00144 0
M  V30 871 C 79.9083 1.52777 -1.21178 0
M  V30 872 O 79.1783 1.9338 -0.313187 0
M  V30 873 H 77.7583 0.106632 -0.73935 0
M  V30 874 H 80.4203 -0.438184 -1.8991 0
M  V30 875 H 79.5163 0.537972 -3.07428 0
M  V30 876 N 79.8174 1.5752 -0.0501392 0
M  V30 877 C 81.2334 1.56631 0.306402 0
M  V30 878 C 81.4334 1.0577 1.71508 0
M  V30 879 O 80.4894 0.713837 2.422 0
M  V30 880 C 81.8024 3.00393 0.135811 0
M  V30 881 C 83.3504 3.12315 0.206993 0
M  V30 882 C 83.8254 4.57954 0.064944 0
M  V30 883 N 85.3164 4.63041 0.121254 0
M  V30 884 C 86.0514 5.73389 0.0354381 0
M  V30 885 N 85.5474 6.92724 -0.102666 0
M  V30 886 N 87.3404 5.62026 0.090946 0
M  V30 887 H 79.4914 1.88903 -0.971046 0
M  V30 888 H 81.7544 0.869876 -0.376855 0
M  V30 889 H 81.4604 3.41635 -0.835384 0
M  V30 890 H 81.3344 3.66373 0.897275 0
M  V30 891 H 83.7214 2.70973 1.16866 0
M  V30 892 H 83.8024 2.49016 -0.585208 0
M  V30 893 H 83.4464 4.99981 -0.893394 0
M  V30 894 H 83.3764 5.19258 0.876277 0
M  V30 895 H 85.8674 3.77216 0.227284 0
M  V30 896 H 86.1804 7.72633 -0.160882 0
M  V30 897 H 84.5254 6.94864 -0.137737 0
M  V30 898 H 87.7164 4.67684 0.197388 0
M  V30 899 H 87.8894 6.47997 0.0206089 0
M  V30 900 N 81.2955 -0.223234 1.56011 0
M  V30 901 C 82.5415 -0.949279 1.79211 0
M  V30 902 C 82.8745 -1.84054 0.619494 0
M  V30 903 O 82.1495 -1.90726 -0.381317 0
M  V30 904 C 82.4325 -1.78965 3.12479 0
M  V30 905 C 82.2855 -0.924997 4.40186 0
M  V30 906 C 83.6045 -2.76774 3.42175 0
M  V30 907 H 80.7235 -0.343676 0.651963 0
M  V30 908 H 83.3655 -0.218253 1.88742 0
M  V30 909 H 81.5155 -2.41291 3.04485 0
M  V30 910 H 83.1875 -0.318615 4.60198 0
M  V30 911 H 81.4305 -0.230344 4.33188 0
M  V30 912 H 82.1015 -1.54735 5.29869 0
M  V30 913 H 84.5775 -2.24584 3.50287 0
M  V30 914 H 83.4535 -3.32678 4.36597 0
M  V30 915 H 83.7145 -3.54429 2.64258 0
M  V30 916 N 82.7736 -1.49793 -0.48987 0
M  V30 917 C 83.7206 -1.67281 -1.59014 0
M  V30 918 C 84.6906 -0.514177 -1.57941 0
M  V30 919 O 85.8756 -0.742533 -1.75759 0
M  V30 920 C 83.0156 -1.75569 -2.97102 0
M  V30 921 C 82.1286 -3.0281 -3.08107 0
M  V30 922 C 81.2636 -3.02008 -4.36995 0
M  V30 923 C 80.3026 -4.23782 -4.41673 0
M  V30 924 N 79.4396 -4.20826 -5.62005 0
M  V30 925 H 84.2796 -2.61224 -1.43409 0
M  V30 926 H 81.8166 -1.29508 -0.697565 0
M  V30 927 H 83.7746 -1.78354 -3.77155 0
M  V30 928 H 82.4046 -0.850827 -3.11385 0
M  V30 929 H 81.4566 -3.09584 -2.21047 0
M  V30 930 H 82.7686 -3.92801 -3.07423 0
M  V30 931 H 81.9226 -3.03418 -5.25378 0
M  V30 932 H 80.6616 -2.09815 -4.4026 0
M  V30 933 H 79.6666 -4.22604 -3.5169 0
M  V30 934 H 80.8916 -5.17181 -4.40115 0
M  V30 935 H 78.8376 -3.31476 -5.66091 0
M  V30 936 H 78.7546 -5.04564 -5.62984 0
M  V30 937 H 80.0226 -4.26355 -6.52565 0
M  V30 938 N 84.2517 0.741722 -1.39055 0
M  V30 939 C 85.2147 1.83733 -1.37021 0
M  V30 940 C 86.2147 1.58542 -0.268534 0
M  V30 941 O 87.4047 1.66067 -0.526076 0
M  V30 942 C 84.5367 3.2141 -1.13617 0
M  V30 943 H 85.7297 1.86941 -2.34506 0
M  V30 944 H 83.2827 0.944676 -1.24521 0
M  V30 945 H 84.0177 3.23865 -0.167863 0
M  V30 946 H 83.8027 3.4109 -1.93391 0
M  V30 947 H 85.2927 4.01477 -1.14918 0
M  V30 948 N 85.7298 1.2412 0.971189 0
M  V30 949 C 86.9768 1.07881 1.71371 0
M  V30 950 C 87.3048 -0.382901 1.90694 0
M  V30 951 O 86.5598 -1.29945 1.46331 0
M  V30 952 C 86.8588 1.75983 3.11071 0
M  V30 953 C 86.5248 3.25909 3.11599 0
M  V30 954 C 85.1868 3.66813 3.11451 0
M  V30 955 C 87.5388 4.21771 3.062 0
M  V30 956 C 84.8668 5.02021 3.03631 0
M  V30 957 C 87.2188 5.56982 2.99923 0
M  V30 958 C 85.8828 5.97237 2.98102 0
M  V30 959 H 85.1528 0.394764 0.62709 0
M  V30 960 H 87.7998 1.54176 1.13587 0
M  V30 961 H 86.1048 1.22072 3.72298 0
M  V30 962 H 87.8018 1.60887 3.6731 0
M  V30 963 H 84.3918 2.93353 3.12477 0
M  V30 964 H 88.5758 3.91172 3.05447 0
M  V30 965 H 83.8318 5.32411 3.0058 0
M  V30 966 H 88.0058 6.30969 2.94704 0
M  V30 967 H 85.6328 7.01967 2.91798 0
M  V30 968 N 87.2079 -1.17134 1.05439 0
M  V30 969 C 88.4849 -1.83411 0.679699 0
M  V30 970 C 88.8649 -1.9368 -0.839726 0
M  V30 971 O 88.2129 -1.47325 -1.74664 0
M  V30 972 C 88.4229 -3.20918 1.37159 0
M  V30 973 C 89.7709 -3.96796 1.51123 0
M  V30 974 O 90.7949 -3.30406 1.3308 0
M  V30 975 O 89.6539 -5.15778 1.80651 0
M  V30 976 H 86.7479 -0.79154 0.239569 0
M  V30 977 H 89.2939 -1.24411 1.15413 0
M  V30 978 H 88.0659 -3.08428 2.40807 0
M  V30 979 H 87.6889 -3.87587 0.886674 0
M  V30 980 N 88.686 -0.835752 -1.33615 0
M  V30 981 C 90.102 -0.523139 -1.50783 0
M  V30 982 C 90.302 0.950171 -1.77691 0
M  V30 983 O 89.358 1.73411 -1.83534 0
M  V30 984 C 90.671 -1.39378 -2.66448 0
M  V30 985 C 92.219 -1.39223 -2.80332 0
M  V30 986 C 92.694 -2.24765 -3.99055 0
M  V30 987 N 94.185 -2.22458 -4.06284 0
M  V30 988 C 94.92 -2.85386 -4.97336 0
M  V30 989 N 94.416 -3.57354 -5.93523 0
M  V30 990 N 96.209 -2.74872 -4.90308 0
M  V30 991 H 88.36 -1.78952 -1.14411 0
M  V30 992 H 90.623 -0.763297 -0.562212 0
M  V30 993 H 90.329 -2.44061 -2.53234 0
M  V30 994 H 90.203 -1.0676 -3.61776 0
M  V30 995 H 92.59 -0.353136 -2.92979 0
M  V30 996 H 92.671 -1.75846 -1.85773 0
M  V30 997 H 92.315 -3.28732 -3.87167 0
M  V30 998 H 92.245 -1.85485 -4.92852 0
M  V30 999 H 94.736 -1.70119 -3.37443 0
M  V30 1000 H 95.049 -4.02584 -6.59656 0
M  V30 1001 H 93.394 -3.61461 -5.93608 0
M  V30 1002 H 96.585 -2.18213 -4.14126 0
M  V30 1003 H 96.758 -3.24199 -5.61069 0
M  V30 1004 N 90.1641 1.46063 -0.591896 0
M  V30 1005 C 91.1141 2.27458 0.157172 0
M  V30 1006 C 92.0981 1.3641 0.853301 0
M  V30 1007 O 93.2901 1.60517 0.74588 0
M  V30 1008 C 90.4191 3.22956 1.16423 0
M  V30 1009 C 89.5051 4.2149 0.469742 0
M  V30 1010 N 89.8961 5.03519 -0.479839 0
M  V30 1011 C 88.1941 4.40161 0.719319 0
M  V30 1012 C 88.8951 5.74904 -0.886591 0
M  V30 1013 N 87.8711 5.43097 -0.233731 0
M  V30 1014 H 91.6731 2.88272 -0.572392 0
M  V30 1015 H 89.1871 1.57024 -0.414375 0
M  V30 1016 H 91.1841 3.79986 1.71513 0
M  V30 1017 H 89.8441 2.63701 1.89451 0
M  V30 1018 H 90.8551 5.1078 -0.855823 0
M  V30 1019 H 87.5321 3.92046 1.43548 0
M  V30 1020 H 88.9221 6.50844 -1.66888 0
M  V30 1021 N 91.6422 0.330177 1.54103 0
M  V30 1022 C 92.8822 -0.270916 2.02597 0
M  V30 1023 C 93.2462 -1.48826 1.21304 0
M  V30 1024 O 94.4472 -2.16266 1.59633 0
M  V30 1025 C 92.7182 -0.590328 3.52491 0
M  V30 1026 S 94.2772 -1.17014 4.2291 0
M  V30 1027 H 91.0952 -0.0815379 0.706309 0
M  V30 1028 H 93.6972 0.464835 1.89893 0
M  V30 1029 H 92.4012 0.303691 4.09275 0
M  V30 1030 H 91.9322 -1.3561 3.69288 0
M  V30 1031 H 93.9472 -2.45662 4.3112 0
M  V30 1032 N 93.1203 -1.57491 0.0584922 0
M  V30 1033 C 94.0683 -2.13148 -0.931168 0
M  V30 1034 C 95.0623 -1.06507 -1.31729 0
M  V30 1035 O 96.2683 -1.24906 -1.29609 0
M  V30 1036 H 92.6433 -0.68137 -0.31818 0
M  V30 1037 H 94.6143 -2.95187 -0.436707 0
M  V30 1038 C 93.3633 -2.69732 -2.19408 0
M  V30 1039 H 92.6863 -3.51454 -1.90578 0
M  V30 1040 H 94.1263 -3.12287 -2.86798 0
M  V30 1041 C 92.5853 -1.63855 -2.94369 0
M  V30 1042 O 93.1153 -1.05565 -3.87581 0
M  V30 1043 N 91.3213 -1.35202 -2.57233 0
M  V30 1044 H 90.8683 -1.82791 -1.81508 0
M  V30 1045 H 90.8263 -0.645922 -3.07693 0
M  V30 1046 N 94.5984 0.214957 -1.56127 0
M  V30 1047 C 95.5314 1.29382 -1.87977 0
M  V30 1048 C 96.5094 1.44897 -0.737807 0
M  V30 1049 O 97.6934 1.60605 -0.986833 0
M  V30 1050 C 94.8204 2.66325 -2.09258 0
M  V30 1051 C 93.8664 2.67789 -3.31951 0
M  V30 1052 S 94.6994 2.21198 -4.8768 0
M  V30 1053 C 95.8554 3.60003 -5.12004 0
M  V30 1054 H 96.0884 1.02173 -2.79192 0
M  V30 1055 H 93.6214 0.417516 -1.48648 0
M  V30 1056 H 95.5794 3.45162 -2.22201 0
M  V30 1057 H 94.2404 2.90755 -1.18829 0
M  V30 1058 H 93.4334 3.68436 -3.43906 0
M  V30 1059 H 93.0354 1.9702 -3.17898 0
M  V30 1060 H 95.3274 4.55739 -5.01307 0
M  V30 1061 H 96.2704 3.52959 -6.13861 0
M  V30 1062 H 96.6784 3.53996 -4.39712 0
M  V30 1063 N 96.0765 1.50051 0.48192 0
M  V30 1064 C 97.3225 1.60736 1.2366 0
M  V30 1065 C 97.6555 0.301786 1.91841 0
M  V30 1066 O 96.9305 -0.696025 1.8162 0
M  V30 1067 C 97.2135 2.78009 2.28874 0
M  V30 1068 C 97.0665 4.18416 1.65069 0
M  V30 1069 C 98.3855 2.90867 3.30279 0
M  V30 1070 H 95.5045 0.585031 0.448228 0
M  V30 1071 H 98.1465 1.82402 0.531946 0
M  V30 1072 H 96.2965 2.59667 2.88973 0
M  V30 1073 H 97.9685 4.48322 1.0865 0
M  V30 1074 H 96.2115 4.23177 0.954148 0
M  V30 1075 H 96.8825 4.96381 2.41474 0
M  V30 1076 H 99.3585 3.07623 2.80191 0
M  V30 1077 H 98.2345 3.74566 4.01238 0
M  V30 1078 H 98.4955 2.01021 3.93755 0
M  V30 1079 N 97.5546 -0.734337 1.39446 0
M  V30 1080 C 98.4846 -1.86155 1.40955 0
M  V30 1081 C 99.4656 -1.67898 0.272827 0
M  V30 1082 O 100.651 -1.88207 0.478743 0
M  V30 1083 C 97.7806 -3.23912 1.25294 0
M  V30 1084 C 96.7346 -3.56808 2.36373 0
M  V30 1085 C 96.0606 -4.93508 2.058 0
M  V30 1086 C 97.3606 -3.59713 3.78687 0
M  V30 1087 H 99.0546 -1.8515 2.35287 0
M  V30 1088 H 96.6006 -0.889367 1.13253 0
M  V30 1089 H 98.5536 -4.02443 1.2497 0
M  V30 1090 H 97.2776 -3.25446 0.274308 0
M  V30 1091 H 95.9366 -2.80606 2.35914 0
M  V30 1092 H 95.5846 -4.91623 1.06374 0
M  V30 1093 H 95.2846 -5.16486 2.80208 0
M  V30 1094 H 96.8086 -5.74396 2.07128 0
M  V30 1095 H 98.2226 -4.2832 3.81071 0
M  V30 1096 H 96.6196 -3.94209 4.52459 0
M  V30 1097 H 97.6896 -2.59504 4.09617 0
M  V30 1098 N 99.0327 -1.24633 -0.964593 0
M  V30 1099 C 99.9427 -1.05859 -2.09359 0
M  V30 1100 C 100.959 0.00148855 -1.74 0
M  V30 1101 O 102.135 -0.197346 -2.00431 0
M  V30 1102 C 99.1997 -0.668879 -3.40187 0
M  V30 1103 C 98.2607 -1.80578 -3.89474 0
M  V30 1104 C 97.4937 -1.43457 -5.14058 0
M  V30 1105 O 97.7167 -0.325775 -5.69469 0
M  V30 1106 O 96.6507 -2.2613 -5.57807 0
M  V30 1107 H 100.477 -2.00516 -2.28094 0
M  V30 1108 H 98.0617 -1.03481 -1.0776 0
M  V30 1109 H 99.9437 -0.463211 -4.18846 0
M  V30 1110 H 98.6187 0.248536 -3.22744 0
M  V30 1111 H 97.5257 -2.06623 -3.11862 0
M  V30 1112 H 98.8587 -2.70208 -4.11398 0
M  V30 1113 N 100.511 1.16574 -1.06058 0
M  V30 1114 C 101.459 2.22941 -0.663343 0
M  V30 1115 C 102.453 1.66358 0.319593 0
M  V30 1116 O 103.659 1.7905 0.184713 0
M  V30 1117 H 100.034 0.725907 -0.196376 0
M  V30 1118 H 102.005 2.53736 -1.57037 0
M  V30 1119 C 100.754 3.47642 -0.0632808 0
M  V30 1120 H 100.077 3.91493 -0.810733 0
M  V30 1121 H 101.517 4.2363 0.177177 0
M  V30 1122 C 99.9758 3.1509 1.19248 0
M  V30 1123 O 100.506 3.30673 2.28075 0
M  V30 1124 N 98.7118 2.6924 1.09353 0
M  V30 1125 H 98.2588 2.5676 0.207912 0
M  V30 1126 H 98.2168 2.47833 1.93458 0
M  V30 1127 N 101.989 0.842826 1.3317 0
M  V30 1128 C 103.235 0.441099 1.97945 0
M  V30 1129 C 103.568 -0.998024 1.66593 0
M  V30 1130 O 102.843 -1.69839 0.947898 0
M  V30 1131 C 103.126 0.666841 3.53872 0
M  V30 1132 C 102.979 2.15352 3.94897 0
M  V30 1133 C 104.298 0.115544 4.39948 0
M  V30 1134 H 101.417 0.161739 0.719034 0
M  V30 1135 H 104.059 1.05907 1.57746 0
M  V30 1136 H 102.209 0.140828 3.88245 0
M  V30 1137 H 103.881 2.7447 3.70761 0
M  V30 1138 H 102.124 2.63653 3.44484 0
M  V30 1139 H 102.795 2.26221 5.03516 0
M  V30 1140 H 105.271 0.565213 4.12243 0
M  V30 1141 H 104.147 0.303152 5.48062 0
M  V30 1142 H 104.408 -0.980935 4.3108 0
M  V30 1143 N 103.467 -1.45747 0.599634 0
M  V30 1144 C 104.414 -2.30467 -0.123849 0
M  V30 1145 C 105.384 -1.41632 -0.86774 0
M  V30 1146 O 106.569 -1.70568 -0.855056 0
M  V30 1147 C 103.709 -3.26402 -1.12051 0
M  V30 1148 C 102.822 -4.3034 -0.37832 0
M  V30 1149 C 101.957 -5.13389 -1.364 0
M  V30 1150 C 100.996 -6.09061 -0.609171 0
M  V30 1151 N 100.133 -6.84918 -1.54374 0
M  V30 1152 H 104.973 -2.91802 0.604627 0
M  V30 1153 H 102.51 -1.43797 0.309972 0
M  V30 1154 H 104.468 -3.80482 -1.7114 0
M  V30 1155 H 103.098 -2.66839 -1.8165 0
M  V30 1156 H 102.15 -3.78984 0.327929 0
M  V30 1157 H 103.462 -4.98354 0.210997 0
M  V30 1158 H 102.616 -5.7183 -2.02719 0
M  V30 1159 H 101.355 -4.45376 -1.98725 0
M  V30 1160 H 100.36 -5.49758 0.0676979 0
M  V30 1161 H 101.585 -6.79099 0.00891991 0
M  V30 1162 H 99.531 -6.19601 -2.15478 0
M  V30 1163 H 99.448 -7.49254 -1.00766 0
M  V30 1164 H 100.716 -7.47906 -2.19676 0
M  V30 1165 N 104.945 -0.338344 -1.53925 0
M  V30 1166 C 105.855 0.529421 -2.28548 0
M  V30 1167 C 106.871 1.11645 -1.3346 0
M  V30 1168 O 108.047 1.13325 -1.66492 0
M  V30 1169 C 105.112 1.66713 -3.03987 0
M  V30 1170 C 104.173 1.11041 -4.14691 0
M  V30 1171 C 103.406 2.19389 -4.86522 0
M  V30 1172 O 103.629 3.40013 -4.57982 0
M  V30 1173 O 102.563 1.83976 -5.73094 0
M  V30 1174 H 106.389 -0.0770399 -3.03602 0
M  V30 1175 H 103.974 -0.103555 -1.49041 0
M  V30 1176 H 105.856 2.32918 -3.5118 0
M  V30 1177 H 104.531 2.25949 -2.31794 0
M  V30 1178 H 103.438 0.413024 -3.71813 0
M  V30 1179 H 104.771 0.562975 -4.8897 0
M  V30 1180 N 106.423 1.57458 -0.0668435 0
M  V30 1181 C 107.356 2.08033 0.93795 0
M  V30 1182 C 108.334 0.984321 1.29421 0
M  V30 1183 O 109.518 1.25736 1.40437 0
M  V30 1184 C 106.645 2.53388 2.24749 0
M  V30 1185 C 105.691 3.74376 2.04315 0
M  V30 1186 S 106.524 5.19303 1.30706 0
M  V30 1187 C 107.68 5.67986 2.62951 0
M  V30 1188 H 107.913 2.92935 0.50759 0
M  V30 1189 H 105.446 1.5371 0.145804 0
M  V30 1190 H 107.404 2.8018 3.00016 0
M  V30 1191 H 106.065 1.68763 2.64911 0
M  V30 1192 H 105.258 4.04083 3.01218 0
M  V30 1193 H 104.86 3.47931 1.37186 0
M  V30 1194 H 107.152 5.74528 3.5906 0
M  V30 1195 H 108.095 6.66955 2.3786 0
M  V30 1196 H 108.503 4.95781 2.69929 0
M  V30 1197 N 107.901 -0.206675 1.56239 0
M  V30 1198 C 109.147 -0.925733 1.81113 0
M  V30 1199 C 109.502 -1.81368 0.642135 0
M  V30 1200 O 108.795 -1.88126 -0.363211 0
M  V30 1201 C 108.989 -1.78675 3.09532 0
M  V30 1202 C 108.818 -0.98365 4.3881 0
M  V30 1203 C 107.588 -0.672661 5.00803 0
M  V30 1204 C 109.786 -0.341847 5.13163 0
M  V30 1205 N 107.768 0.150283 6.13716 0
M  V30 1206 C 109.139 0.343815 6.19046 0
M  V30 1207 C 111.194 -0.256392 4.97239 0
M  V30 1208 C 109.897 1.10678 7.10734 0
M  V30 1209 C 111.923 0.493142 5.8934 0
M  V30 1210 C 111.285 1.16729 6.94661 0
M  V30 1211 H 107.384 -0.318524 0.714189 0
M  V30 1212 H 109.968 -0.195378 1.93717 0
M  V30 1213 H 108.139 -2.4888 2.98183 0
M  V30 1214 H 109.871 -2.44441 3.22538 0
M  V30 1215 H 106.626 -0.994294 4.63045 0
M  V30 1216 H 107.05 0.551026 6.74754 0
M  V30 1217 H 111.692 -0.763249 4.15854 0
M  V30 1218 H 109.41 1.6251 7.91591 0
M  V30 1219 H 112.996 0.560465 5.79094 0
M  V30 1220 H 111.876 1.738 7.64698 0
M  V30 1221 N 109.379 -1.50304 -0.473955 0
M  V30 1222 C 110.607 -1.64902 -1.24959 0
M  V30 1223 C 111.022 -0.331198 -1.85872 0
M  V30 1224 O 110.379 0.68652 -1.69095 0
M  V30 1225 C 110.43 -2.73803 -2.36038 0
M  V30 1226 O 110.151 -4.00477 -1.77624 0
M  V30 1227 C 111.652 -2.99349 -3.26964 0
M  V30 1228 H 108.872 -0.554383 -0.378022 0
M  V30 1229 H 111.416 -1.9651 -0.566054 0
M  V30 1230 H 109.571 -2.44898 -3.00173 0
M  V30 1231 H 109.985 -4.60678 -2.5075 0
M  V30 1232 H 111.459 -3.79217 -4.01121 0
M  V30 1233 H 111.936 -2.10307 -3.85574 0
M  V30 1234 H 112.542 -3.29774 -2.68569 0
M  V30 1235 N 110.857 0.726932 -1.39834 0
M  V30 1236 C 111.767 1.87131 -1.41489 0
M  V30 1237 C 112.783 1.71239 -0.308757 0
M  V30 1238 O 113.959 1.93701 -0.551529 0
M  V30 1239 C 111.024 3.22811 -1.26468 0
M  V30 1240 C 110.085 3.51039 -2.47124 0
M  V30 1241 C 109.318 4.80245 -2.3281 0
M  V30 1242 O 109.541 5.54537 -1.33585 0
M  V30 1243 O 108.475 5.08554 -3.21957 0
M  V30 1244 H 112.301 1.8869 -2.3797 0
M  V30 1245 H 109.886 0.875837 -1.21035 0
M  V30 1246 H 111.768 4.03877 -1.20255 0
M  V30 1247 H 110.443 3.22005 -0.330862 0
M  V30 1248 H 109.35 2.70027 -2.58914 0
M  V30 1249 H 110.683 3.56632 -3.39227 0
M  V30 1250 N 112.336 1.25143 0.95797 0
M  V30 1251 C 113.582 1.09855 1.70469 0
M  V30 1252 C 113.915 -0.360187 1.90831 0
M  V30 1253 O 113.19 -1.26568 1.47685 0
M  V30 1254 C 113.473 1.8497 3.08963 0
M  V30 1255 C 113.326 3.38652 2.96032 0
M  V30 1256 C 114.645 1.63016 4.08795 0
M  V30 1257 H 111.764 0.400465 0.618706 0
M  V30 1258 H 114.406 1.53933 1.11376 0
M  V30 1259 H 112.556 1.47505 3.59409 0
M  V30 1260 H 114.228 3.85772 2.52938 0
M  V30 1261 H 112.471 3.66534 2.32025 0
M  V30 1262 H 113.142 3.8642 3.94187 0
M  V30 1263 H 115.618 1.95625 3.67247 0
M  V30 1264 H 114.494 2.18015 5.03747 0
M  V30 1265 H 114.755 0.570692 4.38401 0
M  V30 1266 N 113.814 -1.1601 1.06675 0
M  V30 1267 C 115.225 -1.68235 0.809565 0
M  V30 1268 C 115.576 -1.8454 -0.666303 0
M  V30 1269 O 114.701 -1.54374 -1.5165 0
M  V30 1270 C 115.296 -3.05585 1.46299 0
M  V30 1271 C 113.855 -3.54915 1.25349 0
M  V30 1272 C 113.002 -2.30804 1.53703 0
M  V30 1273 H 115.953 -1.00318 1.22971 0
M  V30 1274 H 115.974 -3.70174 0.880431 0
M  V30 1275 H 115.486 -2.93686 2.53713 0
M  V30 1276 H 113.587 -3.72067 0.199261 0
M  V30 1277 H 113.7 -4.36774 1.9689 0
M  V30 1278 H 112.064 -2.36007 0.957739 0
M  V30 1279 H 112.847 -2.21499 2.62284 0
M  V30 1280 N 115.292 -0.849877 -1.32721 0
M  V30 1281 C 116.239 -0.289033 -2.28983 0
M  V30 1282 C 117.209 0.601324 -1.54833 0
M  V30 1283 O 118.394 0.537253 -1.8308 0
M  V30 1284 C 115.534 0.520623 -3.4115 0
M  V30 1285 C 114.647 -0.394989 -4.3019 0
M  V30 1286 C 113.782 0.426834 -5.29482 0
M  V30 1287 C 112.821 -0.486476 -6.10164 0
M  V30 1288 N 111.958 0.297879 -7.01468 0
M  V30 1289 H 116.798 -1.11519 -2.76347 0
M  V30 1290 H 114.335 -0.56138 -1.35967 0
M  V30 1291 H 116.293 1.00563 -4.04899 0
M  V30 1292 H 114.923 1.31165 -2.9495 0
M  V30 1293 H 113.975 -0.99836 -3.67065 0
M  V30 1294 H 115.287 -1.09612 -4.86607 0
M  V30 1295 H 114.441 0.975205 -5.98811 0
M  V30 1296 H 113.18 1.16136 -4.73671 0
M  V30 1297 H 112.185 -1.04677 -5.39743 0
M  V30 1298 H 113.41 -1.21953 -6.6806 0
M  V30 1299 H 111.356 1.01558 -6.48091 0
M  V30 1300 H 111.273 -0.344318 -7.55216 0
M  V30 1301 H 112.541 0.828131 -7.75089 0
M  V30 1302 N 116.77 1.45427 -0.607355 0
M  V30 1303 C 117.995 2.07124 -0.107006 0
M  V30 1304 C 118.42 1.44906 1.19933 0
M  V30 1305 O 117.778 0.541687 1.73019 0
M  V30 1306 C 117.826 3.60595 0.0194119 0
M  V30 1307 O 116.93 3.98285 1.0697 0
M  V30 1308 H 116.271 0.659868 -0.0739597 0
M  V30 1309 H 118.801 1.86683 -0.837297 0
M  V30 1310 H 118.811 4.07419 0.2177 0
M  V30 1311 H 117.486 4.05266 -0.934453 0
M  V30 1312 H 116.063 3.63133 0.847889 0
M  V30 1313 N 118.248 0.346503 1.53744 0
M  V30 1314 C 119.496 -0.248612 2.00565 0
M  V30 1315 C 119.817 -1.5083 1.23593 0
M  V30 1316 O 119.087 -1.92858 0.343912 0
M  V30 1317 H 117.667 -0.0948564 0.740953 0
M  V30 1318 H 120.329 0.468341 1.89189 0
M  V30 1319 H 119.425 -0.488994 3.08245 0
M  V30 1320 N 119.726 -1.57421 0.075193 0
M  V30 1321 C 120.673 -2.12915 -0.890843 0
M  V30 1322 C 121.643 -1.04252 -1.29309 0
M  V30 1323 O 122.828 -1.31933 -1.37834 0
M  V30 1324 C 119.968 -2.69795 -2.15186 0
M  V30 1325 C 119.081 -3.92624 -1.80194 0
M  V30 1326 C 118.216 -4.37736 -3.00933 0
M  V30 1327 C 117.255 -5.53205 -2.61974 0
M  V30 1328 N 116.392 -5.9326 -3.75483 0
M  V30 1329 H 121.232 -2.95156 -0.410735 0
M  V30 1330 H 118.769 -1.45854 -0.191086 0
M  V30 1331 H 120.727 -3.00883 -2.89008 0
M  V30 1332 H 119.357 -1.90313 -2.60731 0
M  V30 1333 H 118.409 -3.67977 -0.964218 0
M  V30 1334 H 119.721 -4.76482 -1.47534 0
M  V30 1335 H 118.875 -4.70503 -3.8303 0
M  V30 1336 H 117.614 -3.52739 -3.36789 0
M  V30 1337 H 116.619 -5.20086 -1.783 0
M  V30 1338 H 117.844 -6.39936 -2.27284 0
M  V30 1339 H 115.79 -5.11212 -4.11094 0
M  V30 1340 H 115.707 -6.71865 -3.46602 0
M  V30 1341 H 116.975 -6.30651 -4.58148 0
M  V30 1342 N 121.204 0.198386 -1.56346 0
M  V30 1343 C 122.452 0.91747 -1.80075 0
M  V30 1344 C 122.773 1.83929 -0.647692 0
M  V30 1345 O 122.043 1.93029 0.334166 0
M  V30 1346 H 120.623 0.341774 -0.664228 0
M  V30 1347 H 123.285 0.204684 -1.93822 0
M  V30 1348 H 122.381 1.51055 -2.7311 0
M  V30 1349 N 122.682 1.50554 0.465978 0
M  V30 1350 C 123.629 1.6979 1.56333 0
M  V30 1351 C 124.599 0.539239 1.57103 0
M  V30 1352 O 125.784 0.770401 1.74555 0
M  V30 1353 C 122.924 1.80273 2.94271 0
M  V30 1354 C 122.037 3.07674 3.0325 0
M  V30 1355 C 121.172 3.08922 4.32135 0
M  V30 1356 C 120.211 4.30755 4.34875 0
M  V30 1357 N 119.348 4.29714 5.55239 0
M  V30 1358 H 124.188 2.63472 1.39235 0
M  V30 1359 H 121.725 1.30602 0.676873 0
M  V30 1360 H 123.683 1.84332 3.74269 0
M  V30 1361 H 122.313 0.900258 3.09992 0
M  V30 1362 H 121.365 3.13062 2.16094 0
M  V30 1363 H 122.677 3.97642 3.01135 0
M  V30 1364 H 121.831 3.11738 5.20485 0
M  V30 1365 H 120.57 2.16792 4.36866 0
M  V30 1366 H 119.575 4.28146 3.44922 0
M  V30 1367 H 120.8 5.24117 4.31831 0
M  V30 1368 H 118.746 3.4044 5.60746 0
M  V30 1369 H 118.663 5.13456 5.54886 0
M  V30 1370 H 119.931 4.36683 6.457 0
M  V30 1371 N 124.16 -0.719506 1.40217 0
M  V30 1372 C 125.107 -1.83359 1.40172 0
M  V30 1373 C 126.077 -1.64065 0.259206 0
M  V30 1374 O 127.262 -1.85254 0.456677 0
M  V30 1375 C 124.402 -3.2103 1.26624 0
M  V30 1376 C 123.515 -3.51923 2.50548 0
M  V30 1377 C 122.65 -4.79079 2.29471 0
M  V30 1378 C 121.689 -5.02863 3.48992 0
M  V30 1379 N 120.826 -6.2123 3.27135 0
M  V30 1380 H 125.666 -1.82733 2.35399 0
M  V30 1381 H 123.203 -0.892688 1.16917 0
M  V30 1382 H 125.161 -4.00524 1.16776 0
M  V30 1383 H 123.791 -3.20895 0.350176 0
M  V30 1384 H 122.843 -2.67014 2.70939 0
M  V30 1385 H 124.155 -3.6541 3.39525 0
M  V30 1386 H 123.309 -5.66582 2.16955 0
M  V30 1387 H 122.048 -4.67794 1.37913 0
M  V30 1388 H 121.053 -4.13816 3.6199 0
M  V30 1389 H 122.278 -5.16023 4.41472 0
M  V30 1390 H 120.224 -6.11204 2.38256 0
M  V30 1391 H 120.141 -6.35375 4.09675 0
M  V30 1392 H 121.409 -7.11532 3.18344 0
M  V30 1393 N 125.638 -1.25649 -0.95132 0
M  V30 1394 C 126.585 -1.06323 -2.04851 0
M  V30 1395 C 127.555 0.0286491 -1.66075 0
M  V30 1396 O 128.74 -0.12917 -1.90362 0
M  V30 1397 C 125.88 -0.691529 -3.381 0
M  V30 1398 C 124.993 -1.85861 -3.89974 0
M  V30 1399 C 124.128 -1.43096 -5.11563 0
M  V30 1400 C 123.167 -2.56696 -5.55674 0
M  V30 1401 N 122.304 -2.14684 -6.68472 0
M  V30 1402 H 127.144 -2.00222 -2.20715 0
M  V30 1403 H 124.681 -0.997027 -1.08156 0
M  V30 1404 H 126.639 -0.456963 -4.1469 0
M  V30 1405 H 125.269 0.210474 -3.22113 0
M  V30 1406 H 124.321 -2.20639 -3.09875 0
M  V30 1407 H 125.633 -2.71161 -4.18657 0
M  V30 1408 H 124.787 -1.15624 -5.9558 0
M  V30 1409 H 123.526 -0.548722 -4.84603 0
M  V30 1410 H 122.531 -2.84909 -4.7022 0
M  V30 1411 H 123.756 -3.45503 -5.8464 0
M  V30 1412 H 121.702 -1.28881 -6.43215 0
M  V30 1413 H 121.619 -2.9353 -6.96689 0
M  V30 1414 H 122.887 -1.90397 -7.5589 0
M  V30 1415 N 127.117 1.15442 -1.07289 0
M  V30 1416 C 128.342 1.90638 -0.816828 0
M  V30 1417 C 128.767 1.77445 0.624083 0
M  V30 1418 O 128.125 1.10671 1.43602 0
M  V30 1419 C 128.173 3.39008 -1.22906 0
M  V30 1420 O 127.277 4.10701 -0.373975 0
M  V30 1421 H 126.618 0.593555 -0.297638 0
M  V30 1422 H 129.148 1.46198 -1.43134 0
M  V30 1423 H 129.158 3.89801 -1.20497 0
M  V30 1424 H 127.833 3.47929 -2.27856 0
M  V30 1425 H 126.41 3.70046 -0.460499 0
M  V30 1426 N 128.595 0.856903 1.32268 0
M  V30 1427 C 129.542 0.301172 2.28827 0
M  V30 1428 C 130.512 -0.593104 1.5515 0
M  V30 1429 O 131.697 -0.527537 1.83362 0
M  V30 1430 C 128.837 -0.502523 3.41422 0
M  V30 1431 C 127.95 0.417797 4.29975 0
M  V30 1432 C 127.085 -0.398749 5.29701 0
M  V30 1433 C 126.124 0.518827 6.09897 0
M  V30 1434 N 125.261 -0.260674 7.01616 0
M  V30 1435 H 130.101 1.12983 2.75751 0
M  V30 1436 H 127.638 0.568582 1.35667 0
M  V30 1437 H 129.596 -0.984141 4.05426 0
M  V30 1438 H 128.226 -1.29599 2.95642 0
M  V30 1439 H 127.278 1.01781 3.66531 0
M  V30 1440 H 128.59 1.12191 4.86019 0
M  V30 1441 H 127.744 -0.943435 5.9932 0
M  V30 1442 H 126.483 -1.13622 4.7428 0
M  V30 1443 H 125.488 1.07538 5.39181 0
M  V30 1444 H 126.713 1.25495 6.67404 0
M  V30 1445 H 124.659 -0.981198 6.4862 0
M  V30 1446 H 124.576 0.384364 7.55022 0
M  V30 1447 H 125.844 -0.787014 7.75517 0
M  V30 1448 N 130.073 -1.45103 0.615059 0
M  V30 1449 C 131.484 -1.85654 0.197383 0
M  V30 1450 C 131.835 -1.51433 -1.24749 0
M  V30 1451 O 130.96 -0.944608 -1.94695 0
M  V30 1452 C 131.555 -3.36972 0.351448 0
M  V30 1453 C 130.114 -3.76398 -0.011593 0
M  V30 1454 C 129.261 -2.69024 0.672394 0
M  V30 1455 H 132.212 -1.35797 0.821263 0
M  V30 1456 H 132.233 -3.78239 -0.414227 0
M  V30 1457 H 131.745 -3.61847 1.40314 0
M  V30 1458 H 129.846 -3.5714 -1.06217 0
M  V30 1459 H 129.959 -4.77532 0.387265 0
M  V30 1460 H 128.323 -2.54465 0.109284 0
M  V30 1461 H 129.106 -2.96735 1.72636 0
M  V30 1462 N 131.551 -0.354651 -1.53558 0
M  V30 1463 C 132.797 0.238797 -2.01389 0
M  V30 1464 C 133.13 1.49309 -1.2418 0
M  V30 1465 O 132.405 1.91638 -0.332457 0
M  V30 1466 C 132.688 0.541771 -3.56001 0
M  V30 1467 C 132.541 -0.725388 -4.43912 0
M  V30 1468 C 133.86 1.34685 -4.18984 0
M  V30 1469 H 130.979 0.0853177 -0.732045 0
M  V30 1470 H 133.621 -0.477384 -1.83905 0
M  V30 1471 H 131.771 1.15189 -3.71031 0
M  V30 1472 H 133.443 -1.36313 -4.407 0
M  V30 1473 H 131.686 -1.34801 -4.12324 0
M  V30 1474 H 132.357 -0.468505 -5.50008 0
M  V30 1475 H 134.833 0.830837 -4.07721 0
M  V30 1476 H 133.709 1.52759 -5.27215 0
M  V30 1477 H 133.97 2.35221 -3.74331 0
M  V30 1478 N 133.029 1.57378 -0.0835403 0
M  V30 1479 C 133.977 2.14602 0.89714 0
M  V30 1480 C 134.971 1.08589 1.30018 0
M  V30 1481 O 136.177 1.26952 1.27606 0
M  V30 1482 H 132.552 0.686346 0.3073 0
M  V30 1483 H 134.523 2.95845 0.38969 0
M  V30 1484 C 133.272 2.73188 2.15089 0
M  V30 1485 H 132.595 3.54442 1.84962 0
M  V30 1486 H 134.035 3.1681 2.81793 0
M  V30 1487 C 132.494 1.68517 2.91725 0
M  V30 1488 O 133.024 1.11718 3.85852 0
M  V30 1489 N 131.23 1.39277 2.55049 0
M  V30 1490 H 130.777 1.85655 1.78577 0
M  V30 1491 H 130.735 0.694791 3.06627 0
M  V30 1492 N 134.507 -0.190092 1.56449 0
M  V30 1493 C 135.454 -1.23557 1.94942 0
M  V30 1494 C 136.424 -1.44972 0.810696 0
M  V30 1495 O 137.609 -1.58023 1.06927 0
M  V30 1496 C 134.749 -2.57416 2.2985 0
M  V30 1497 C 133.862 -2.43537 3.5681 0
M  V30 1498 C 132.997 -3.70134 3.81017 0
M  V30 1499 C 132.036 -3.51109 5.01387 0
M  V30 1500 N 131.173 -4.6973 5.21822 0
M  V30 1501 H 136.013 -0.900304 2.84075 0
M  V30 1502 H 133.55 -0.43318 1.40577 0
M  V30 1503 H 135.508 -3.35409 2.48106 0
M  V30 1504 H 134.138 -2.88975 1.43852 0
M  V30 1505 H 133.19 -1.56816 3.46573 0
M  V30 1506 H 134.502 -2.25415 4.4496 0
M  V30 1507 H 133.656 -4.56566 3.9954 0
M  V30 1508 H 132.395 -3.91215 2.91207 0
M  V30 1509 H 131.4 -2.63063 4.82782 0
M  V30 1510 H 132.625 -3.31468 5.9271 0
M  V30 1511 H 130.571 -4.91065 4.34961 0
M  V30 1512 H 130.488 -4.54452 6.0416 0
M  V30 1513 H 131.756 -5.57499 5.44808 0
M  V30 1514 N 135.985 -1.50799 -0.457987 0
M  V30 1515 C 137.262 -1.52968 -1.21902 0
M  V30 1516 C 137.642 -0.281906 -2.09209 0
M  V30 1517 O 136.99 0.734076 -2.16388 0
M  V30 1518 C 137.2 -2.8326 -2.03875 0
M  V30 1519 C 138.548 -3.34425 -2.6162 0
M  V30 1520 O 139.572 -2.8467 -2.14106 0
M  V30 1521 O 138.431 -4.21188 -3.48228 0
M  V30 1522 H 135.525 -0.614129 -0.553873 0
M  V30 1523 H 138.071 -1.63098 -0.468739 0
M  V30 1524 H 136.843 -3.65543 -1.39621 0
M  V30 1525 H 136.466 -2.76195 -2.8601 0
M  V30 1526 N 137.463 0.71206 -1.40597 0
M  V30 1527 C 138.879 1.02058 -1.22704 0
M  V30 1528 C 139.079 2.01228 -0.104729 0
M  V30 1529 O 138.135 2.4674 0.53624 0
M  V30 1530 C 139.448 1.56094 -2.57012 0
M  V30 1531 C 140.996 1.6806 -2.64054 0
M  V30 1532 C 141.471 2.25501 -3.9864 0
M  V30 1533 N 142.962 2.32882 -4.004 0
M  V30 1534 C 143.697 2.78317 -5.01325 0
M  V30 1535 N 143.193 3.23478 -6.12645 0
M  V30 1536 N 144.986 2.77733 -4.88693 0
M  V30 1537 H 137.137 0.0547896 -2.12329 0
M  V30 1538 H 139.4 0.0869027 -0.944008 0
M  V30 1539 H 139.106 0.906865 -3.39807 0
M  V30 1540 H 138.98 2.54564 -2.78347 0
M  V30 1541 H 141.367 2.32583 -1.81629 0
M  V30 1542 H 141.448 0.681802 -2.46546 0
M  V30 1543 H 141.092 1.61598 -4.81506 0
M  V30 1544 H 141.022 3.26102 -4.13479 0
M  V30 1545 H 143.513 2.00991 -3.20017 0
M  V30 1546 H 143.826 3.56725 -6.85542 0
M  V30 1547 H 142.171 3.21429 -6.16205 0
M  V30 1548 H 145.362 2.4179 -4.00818 0
M  V30 1549 H 145.535 3.12826 -5.67489 0
M  V30 1550 N 138.941 1.26152 0.944643 0
M  V30 1551 C 140.171 1.14094 1.72239 0
M  V30 1552 C 140.579 -0.306931 1.86694 0
M  V30 1553 O 139.922 -1.22222 1.3714 0
M  V30 1554 C 139.984 1.73316 3.14963 0
M  V30 1555 C 139.648 3.2239 3.23904 0
M  V30 1556 C 140.645 4.19252 3.07447 0
M  V30 1557 C 138.33 3.62788 3.47405 0
M  V30 1558 C 140.324 5.54491 3.14353 0
M  V30 1559 C 138.011 4.98162 3.53947 0
M  V30 1560 C 139.009 5.93823 3.37436 0
M  V30 1561 O 138.697 7.26732 3.43679 0
M  V30 1562 H 138.429 0.398292 0.546205 0
M  V30 1563 H 140.983 1.67201 1.19301 0
M  V30 1564 H 139.213 1.14667 3.69308 0
M  V30 1565 H 140.902 1.56214 3.74636 0
M  V30 1566 H 141.668 3.8938 2.8915 0
M  V30 1567 H 137.547 2.88816 3.59313 0
M  V30 1568 H 141.091 6.29137 3.01384 0
M  V30 1569 H 136.988 5.27695 3.71763 0
M  V30 1570 H 137.756 7.3496 3.60245 0
M  V30 1571 N 140.419 -1.14872 1.07899 0
M  V30 1572 C 141.668 -1.85135 0.800499 0
M  V30 1573 C 141.981 -1.83547 -0.676014 0
M  V30 1574 O 143.187 -2.49548 -1.06948 0
M  V30 1575 C 141.643 -3.3231 1.38197 0
M  V30 1576 C 141.251 -3.42329 2.8899 0
M  V30 1577 C 142.995 -4.0772 1.18174 0
M  V30 1578 C 140.902 -4.83684 3.403 0
M  V30 1579 H 139.832 -0.693563 0.29578 0
M  V30 1580 H 142.483 -1.29532 1.29976 0
M  V30 1581 H 140.865 -3.87618 0.810431 0
M  V30 1582 H 142.039 -2.97097 3.52236 0
M  V30 1583 H 140.354 -2.80369 3.07867 0
M  V30 1584 H 142.951 -5.12049 1.5398 0
M  V30 1585 H 143.294 -4.16124 0.12117 0
M  V30 1586 H 143.827 -3.58696 1.71994 0
M  V30 1587 H 140.566 -4.80465 4.45907 0
M  V30 1588 H 140.086 -5.29474 2.81811 0
M  V30 1589 H 141.765 -5.52558 3.36584 0
M  V30 1590 N 141.898 -0.863906 -1.31812 0
M  V30 1591 C 143.123 -0.48527 -2.01643 0
M  V30 1592 C 143.548 0.913058 -1.64453 0
M  V30 1593 O 142.906 1.6014 -0.849985 0
M  V30 1594 C 142.954 -0.642625 -3.54828 0
M  V30 1595 O 142.058 0.320659 -4.11151 0
M  V30 1596 H 141.399 -0.193793 -0.635091 0
M  V30 1597 H 143.929 -1.16565 -1.68148 0
M  V30 1598 H 143.939 -0.533628 -4.04495 0
M  V30 1599 H 142.614 -1.66227 -3.81237 0
M  V30 1600 H 141.191 0.167126 -3.72525 0
M  V30 1601 N 143.376 1.44774 -0.622745 0
M  V30 1602 C 144.323 2.30635 0.0871679 0
M  V30 1603 C 145.293 1.42994 0.845097 0
M  V30 1604 O 146.478 1.71907 0.827812 0
M  V30 1605 C 143.618 3.28144 1.06844 0
M  V30 1606 C 142.731 4.30888 0.309809 0
M  V30 1607 C 141.866 5.15494 1.28215 0
M  V30 1608 C 140.905 6.09953 0.512198 0
M  V30 1609 N 140.042 6.87287 1.43458 0
M  V30 1610 H 144.882 2.90803 -0.650974 0
M  V30 1611 H 142.419 1.43286 -0.33281 0
M  V30 1612 H 144.377 3.83157 1.65066 0
M  V30 1613 H 143.007 2.69695 1.77382 0
M  V30 1614 H 142.059 3.78414 -0.388181 0
M  V30 1615 H 143.371 4.97955 -0.290254 0
M  V30 1616 H 142.525 5.74983 1.93596 0
M  V30 1617 H 141.264 4.48481 1.91614 0
M  V30 1618 H 140.269 5.49581 -0.155151 0
M  V30 1619 H 141.494 6.78999 -0.116958 0
M  V30 1620 H 139.44 6.2295 2.05594 0
M  V30 1621 H 139.357 7.50763 0.888335 0
M  V30 1622 H 140.625 7.51306 2.07749 0
M  V30 1623 N 144.854 0.36279 1.53368 0
M  V30 1624 C 145.787 -0.528507 2.21996 0
M  V30 1625 C 146.765 -1.0852 1.21087 0
M  V30 1626 O 147.949 -1.14186 1.4998 0
M  V30 1627 C 145.076 -1.72893 2.91249 0
M  V30 1628 C 144.122 -1.29994 4.06207 0
M  V30 1629 S 144.955 -0.303575 5.34639 0
M  V30 1630 C 146.111 -1.51039 6.07403 0
M  V30 1631 H 146.344 0.0543423 2.9725 0
M  V30 1632 H 143.877 0.146889 1.537 0
M  V30 1633 H 145.835 -2.41751 3.31763 0
M  V30 1634 H 144.496 -2.28303 2.15724 0
M  V30 1635 H 143.689 -2.19549 4.53667 0
M  V30 1636 H 143.291 -0.690608 3.67569 0
M  V30 1637 H 145.583 -2.44186 6.31965 0
M  V30 1638 H 146.526 -1.07721 6.99858 0
M  V30 1639 H 146.934 -1.71518 5.37812 0
M  V30 1640 N 146.332 -1.57332 0.0918853 0
M  V30 1641 C 147.579 -1.94236 -0.572577 0
M  V30 1642 C 147.907 -0.973398 -1.6839 0
M  V30 1643 O 147.162 0.00756912 -1.95699 0
M  V30 1644 C 147.461 -3.37689 -1.17051 0
M  V30 1645 C 147.127 -4.50527 -0.183304 0
M  V30 1646 C 145.789 -4.81119 0.0882276 0
M  V30 1647 C 148.141 -5.18883 0.49095 0
M  V30 1648 C 145.469 -5.77395 1.04076 0
M  V30 1649 C 147.821 -6.1618 1.43193 0
M  V30 1650 C 146.485 -6.45179 1.71173 0
M  V30 1651 H 145.755 -0.710762 -0.209521 0
M  V30 1652 H 148.402 -1.9077 0.167036 0
M  V30 1653 H 146.707 -3.37718 -1.9863 0
M  V30 1654 H 148.404 -3.63543 -1.69227 0
M  V30 1655 H 144.994 -4.26681 -0.405124 0
M  V30 1656 H 149.178 -4.95427 0.294312 0
M  V30 1657 H 144.434 -5.98179 1.26457 0
M  V30 1658 H 148.608 -6.68243 1.96023 0
M  V30 1659 H 146.235 -7.1959 2.4514 0
M  V30 1660 N 147.81 0.181792 -1.56548 0
M  V30 1661 C 148.74 1.22765 -1.98623 0
M  V30 1662 C 149.721 1.46747 -0.860189 0
M  V30 1663 O 150.906 1.58259 -1.12551 0
M  V30 1664 C 148.036 2.56894 -2.33715 0
M  V30 1665 C 146.99 2.475 -3.49182 0
M  V30 1666 C 146.316 3.86023 -3.69986 0
M  V30 1667 C 147.616 1.98866 -4.82959 0
M  V30 1668 H 149.31 0.877942 -2.86239 0
M  V30 1669 H 146.856 0.42088 -1.37712 0
M  V30 1670 H 148.809 3.30253 -2.61746 0
M  V30 1671 H 147.533 2.93632 -1.42997 0
M  V30 1672 H 146.192 1.76596 -3.21262 0
M  V30 1673 H 145.84 4.20136 -2.76576 0
M  V30 1674 H 145.54 3.80609 -4.47672 0
M  V30 1675 H 147.064 4.60984 -4.00407 0
M  V30 1676 H 148.478 2.61992 -5.09934 0
M  V30 1677 H 146.875 2.04424 -5.64208 0
M  V30 1678 H 147.945 0.942465 -4.75653 0
M  V30 1679 N 149.288 1.51039 0.449983 0
M  V30 1680 C 150.704 1.38934 0.785462 0
M  V30 1681 C 150.904 0.461817 1.96136 0
M  V30 1682 O 149.96 -0.0877389 2.52348 0
M  V30 1683 C 151.273 2.80724 1.0777 0
M  V30 1684 C 152.821 2.89787 1.1829 0
M  V30 1685 C 153.296 4.32457 1.50815 0
M  V30 1686 N 154.787 4.35505 1.57764 0
M  V30 1687 C 155.522 5.42914 1.84477 0
M  V30 1688 N 155.018 6.60502 2.09068 0
M  V30 1689 N 156.811 5.3038 1.86155 0
M  V30 1690 H 148.962 2.09904 -0.324647 0
M  V30 1691 H 151.225 0.944378 -0.0827957 0
M  V30 1692 H 150.931 3.50531 0.286498 0
M  V30 1693 H 150.805 3.19273 2.00859 0
M  V30 1694 H 153.192 2.20186 1.96474 0
M  V30 1695 H 153.273 2.54752 0.231314 0
M  V30 1696 H 152.917 5.02603 0.731622 0
M  V30 1697 H 152.847 4.64995 2.47158 0
M  V30 1698 H 155.338 3.50724 1.40715 0
M  V30 1699 H 155.651 7.38158 2.28785 0
M  V30 1700 H 153.996 6.63639 2.06416 0
M  V30 1701 H 157.187 4.37505 1.66454 0
M  V30 1702 H 157.36 6.1417 2.06637 0
M  V30 1703 N 150.766 -0.704594 1.40972 0
M  V30 1704 C 152.014 -1.46169 1.39568 0
M  V30 1705 C 152.335 -1.95 0.00253745 0
M  V30 1706 O 151.605 -1.71095 -0.954114 0
M  V30 1707 H 150.185 -0.542326 0.513704 0
M  V30 1708 H 152.847 -0.834553 1.76128 0
M  V30 1709 H 151.943 -2.32922 2.07735 0
M  V30 1710 N 152.244 -1.26651 -0.937939 0
M  V30 1711 C 153.521 -1.0313 -1.66204 0
M  V30 1712 C 153.901 0.437256 -2.06522 0
M  V30 1713 O 153.249 1.41831 -1.79154 0
M  V30 1714 C 153.459 -1.98314 -2.87181 0
M  V30 1715 C 154.807 -2.27107 -3.58758 0
M  V30 1716 O 155.831 -1.96205 -2.97291 0
M  V30 1717 O 154.69 -2.79736 -4.69479 0
M  V30 1718 H 151.784 -0.392384 -0.727986 0
M  V30 1719 H 154.33 -1.37874 -0.989382 0
M  V30 1720 H 153.102 -2.97399 -2.54302 0
M  V30 1721 H 152.725 -1.64068 -3.6217 0
M  V30 1722 N 153.722 1.14298 -1.08507 0
M  V30 1723 C 154.947 1.8976 -0.837001 0
M  V30 1724 C 155.372 1.78097 0.605228 0
M  V30 1725 O 154.73 1.12188 1.4242 0
M  V30 1726 C 154.778 3.37685 -1.26495 0
M  V30 1727 O 153.882 4.10281 -0.417514 0
M  V30 1728 H 153.223 0.590365 -0.303917 0
M  V30 1729 H 155.753 1.44672 -1.44676 0
M  V30 1730 H 155.763 3.88501 -1.24625 0
M  V30 1731 H 154.438 3.45492 -2.31534 0
M  V30 1732 H 153.015 3.69536 -0.499722 0
M  V30 1733 N 155.201 0.870884 1.31352 0
M  V30 1734 C 156.447 0.482987 1.96965 0
M  V30 1735 C 156.78 -0.962462 1.68672 0
M  V30 1736 O 156.055 -1.6779 0.98371 0
M  V30 1737 C 156.338 0.741752 3.52378 0
M  V30 1738 C 156.191 2.2368 3.9024 0
M  V30 1739 C 157.51 0.208838 4.39604 0
M  V30 1740 H 154.629 0.176955 0.715441 0
M  V30 1741 H 157.271 1.09229 1.55464 0
M  V30 1742 H 155.421 0.223149 3.87859 0
M  V30 1743 H 157.093 2.82273 3.64856 0
M  V30 1744 H 155.336 2.70901 3.38814 0
M  V30 1745 H 156.007 2.3685 4.98604 0
M  V30 1746 H 158.483 0.652529 4.10952 0
M  V30 1747 H 157.359 0.419336 5.47296 0
M  V30 1748 H 157.62 -0.889275 4.33064 0
M  V30 1749 N 156.679 -1.44442 0.630414 0
M  V30 1750 C 157.928 -2.01267 0.132073 0
M  V30 1751 C 158.241 -1.50172 -1.25331 0
M  V30 1752 O 159.447 -1.9912 -1.84562 0
M  V30 1753 C 157.903 -3.59422 0.185362 0
M  V30 1754 C 157.511 -4.19514 1.57201 0
M  V30 1755 C 159.255 -4.23724 -0.256553 0
M  V30 1756 C 157.162 -5.69891 1.58045 0
M  V30 1757 H 156.092 -0.752619 0.0456092 0
M  V30 1758 H 158.743 -1.65666 0.789106 0
M  V30 1759 H 157.125 -3.92318 -0.538759 0
M  V30 1760 H 158.299 -3.98156 2.31966 0
M  V30 1761 H 156.614 -3.67496 1.95795 0
M  V30 1762 H 159.211 -5.34019 -0.269767 0
M  V30 1763 H 159.554 -3.96013 -1.28372 0
M  V30 1764 H 160.087 -3.95629 0.41505 0
M  V30 1765 H 156.826 -6.02336 2.58597 0
M  V30 1766 H 156.346 -5.93373 0.875725 0
M  V30 1767 H 158.025 -6.33515 1.31408 0
M  V30 1768 N 158.157 -0.370918 -1.53173 0
M  V30 1769 C 159.403 0.217423 -2.01631 0
M  V30 1770 C 159.736 1.47983 -1.25756 0
M  V30 1771 O 159.011 1.91274 -0.352764 0
M  V30 1772 C 159.294 0.503982 -3.56556 0
M  V30 1773 C 159.147 -0.77243 -4.43118 0
M  V30 1774 C 160.466 1.30234 -4.20389 0
M  V30 1775 H 157.585 0.0775486 -0.732909 0
M  V30 1776 H 160.227 -0.496863 -1.83388 0
M  V30 1777 H 158.377 1.11248 -3.72231 0
M  V30 1778 H 160.049 -1.4098 -4.39229 0
M  V30 1779 H 158.292 -1.39167 -4.10871 0
M  V30 1780 H 158.963 -0.526815 -5.4948 0
M  V30 1781 H 161.439 0.787546 -4.08579 0
M  V30 1782 H 160.315 1.47158 -5.28806 0
M  V30 1783 H 160.576 2.31237 -3.76805 0
M  V30 1784 N 159.635 1.57281 -0.100228 0
M  V30 1785 C 160.881 1.94826 0.563101 0
M  V30 1786 C 161.214 0.982475 1.67514 0
M  V30 1787 O 160.489 0.0164069 1.94493 0
M  V30 1788 C 160.772 3.42453 1.11346 0
M  V30 1789 C 160.625 4.498 0.00612081 0
M  V30 1790 C 161.944 3.91506 2.01024 0
M  V30 1791 H 159.063 0.708428 0.203221 0
M  V30 1792 H 161.705 1.8922 -0.171979 0
M  V30 1793 H 159.855 3.47361 1.7399 0
M  V30 1794 H 161.527 4.57 -0.628357 0
M  V30 1795 H 159.77 4.28756 -0.659581 0
M  V30 1796 H 160.441 5.50306 0.432109 0
M  V30 1797 H 162.917 3.88784 1.48278 0
M  V30 1798 H 161.793 4.95358 2.36457 0
M  V30 1799 H 162.054 3.31099 2.92961 0
M  V30 1800 N 161.113 -0.173488 1.56642 0
M  V30 1801 C 162.043 -1.2171 1.99271 0
M  V30 1802 C 163.024 -1.46289 0.867959 0
M  V30 1803 O 164.209 -1.5766 1.13388 0
M  V30 1804 C 161.339 -2.55651 2.35074 0
M  V30 1805 C 160.293 -2.45645 3.50489 0
M  V30 1806 C 159.619 -3.84056 3.72028 0
M  V30 1807 C 160.919 -1.96302 4.84007 0
M  V30 1808 H 162.613 -0.86275 2.867 0
M  V30 1809 H 160.159 -0.413571 1.37933 0
M  V30 1810 H 162.112 -3.2886 2.63494 0
M  V30 1811 H 160.836 -2.92869 1.44552 0
M  V30 1812 H 159.495 -1.7489 3.22194 0
M  V30 1813 H 159.143 -4.18664 2.788 0
M  V30 1814 H 158.843 -3.7823 4.49684 0
M  V30 1815 H 160.367 -4.58854 4.02846 0
M  V30 1816 H 161.781 -2.59284 5.11317 0
M  V30 1817 H 160.178 -2.01429 5.65284 0
M  V30 1818 H 161.248 -0.917226 4.76146 0
M  V30 1819 N 162.591 -1.51276 -0.441967 0
M  V30 1820 C 164.007 -1.39349 -0.778083 0
M  V30 1821 C 164.207 -0.472212 -1.95889 0
M  V30 1822 O 163.263 0.0743551 -2.5239 0
M  V30 1823 C 164.576 -2.81292 -1.0628 0
M  V30 1824 C 166.124 -2.9041 -1.16751 0
M  V30 1825 C 166.599 -4.33251 -1.48519 0
M  V30 1826 N 168.09 -4.36336 -1.55453 0
M  V30 1827 C 168.825 -5.43885 -1.81596 0
M  V30 1828 N 168.321 -6.61601 -2.05562 0
M  V30 1829 N 170.114 -5.3136 -1.8334 0
M  V30 1830 H 162.265 -2.09729 0.335774 0
M  V30 1831 H 164.528 -0.943925 0.0878028 0
M  V30 1832 H 164.234 -3.50678 -0.267905 0
M  V30 1833 H 164.108 -3.20334 -1.99163 0
M  V30 1834 H 166.495 -2.21225 -1.95304 0
M  V30 1835 H 166.576 -2.54871 -0.217801 0
M  V30 1836 H 166.22 -5.02984 -0.704958 0
M  V30 1837 H 166.15 -4.66299 -2.44689 0
M  V30 1838 H 168.641 -3.51466 -1.38853 0
M  V30 1839 H 168.954 -7.39361 -2.24867 0
M  V30 1840 H 167.299 -6.64725 -2.02894 0
M  V30 1841 H 170.49 -4.38382 -1.64132 0
M  V30 1842 H 170.663 -6.15258 -2.03377 0
M  V30 1843 N 164.069 0.697108 -1.41344 0
M  V30 1844 C 165.017 1.83237 -1.43272 0
M  V30 1845 C 166.011 1.66522 -0.310947 0
M  V30 1846 O 167.217 1.73402 -0.482899 0
M  V30 1847 H 163.592 0.603802 -0.448249 0
M  V30 1848 H 165.563 1.78727 -2.38954 0
M  V30 1849 C 164.312 3.21245 -1.33029 0
M  V30 1850 H 163.635 3.34723 -2.18633 0
M  V30 1851 H 165.075 4.00763 -1.38439 0
M  V30 1852 C 163.534 3.36873 -0.0424635 0
M  V30 1853 O 164.064 3.91177 0.913421 0
M  V30 1854 N 162.27 2.90581 0.0331145 0
M  V30 1855 H 161.817 2.46577 -0.745506 0
M  V30 1856 H 161.775 3.01416 0.894199 0
M  V30 1857 N 165.547 1.27147 0.931209 0
M  V30 1858 C 166.958 1.12044 1.49342 0
M  V30 1859 C 167.309 -0.295795 1.93957 0
M  V30 1860 O 166.434 -1.18835 1.80852 0
M  V30 1861 C 167.029 2.02781 2.71414 0
M  V30 1862 C 165.588 1.91794 3.2387 0
M  V30 1863 C 164.735 1.95543 1.96617 0
M  V30 1864 H 167.686 1.40091 0.745672 0
M  V30 1865 H 167.707 1.58156 3.46074 0
M  V30 1866 H 167.219 3.05848 2.38911 0
M  V30 1867 H 165.32 0.916992 3.6114 0
M  V30 1868 H 165.433 2.77852 3.90302 0
M  V30 1869 H 163.797 1.39722 2.12955 0
M  V30 1870 H 164.58 3.00259 1.66432 0
M  V30 1871 N 167.025 -1.13721 1.09112 0
M  V30 1872 C 167.955 -2.21148 0.749385 0
M  V30 1873 C 168.936 -1.6792 -0.271475 0
M  V30 1874 O 170.121 -1.93693 -0.140251 0
M  V30 1875 C 167.251 -3.46905 0.165659 0
M  V30 1876 C 166.205 -4.13203 1.11567 0
M  V30 1877 C 165.531 -5.33248 0.393809 0
M  V30 1878 C 166.831 -4.60912 2.45678 0
M  V30 1879 H 168.525 -2.4999 1.64758 0
M  V30 1880 H 166.071 -1.20156 0.793626 0
M  V30 1881 H 168.024 -4.21313 -0.085466 0
M  V30 1882 H 166.748 -3.17449 -0.767714 0
M  V30 1883 H 165.407 -3.40758 1.35202 0
M  V30 1884 H 165.055 -5.00054 -0.543599 0
M  V30 1885 H 164.755 -5.78552 1.02721 0
M  V30 1886 H 166.279 -6.10413 0.150908 0
M  V30 1887 H 167.693 -5.26759 2.26269 0
M  V30 1888 H 166.09 -5.16944 3.04776 0
M  V30 1889 H 167.16 -3.75603 3.06677 0
M  V30 1890 N 168.503 -0.877838 -1.30888 0
M  V30 1891 C 169.752 -0.488793 -1.95688 0
M  V30 1892 C 170.065 0.965485 -1.70111 0
M  V30 1893 O 171.271 1.46104 -2.28836 0
M  V30 1894 C 169.727 -0.823201 -3.50359 0
M  V30 1895 C 169.335 -2.29477 -3.84765 0
M  V30 1896 C 171.079 -0.503009 -4.21509 0
M  V30 1897 C 168.986 -2.57118 -5.32583 0
M  V30 1898 H 167.916 -0.179062 -0.732429 0
M  V30 1899 H 170.567 -1.07183 -1.48943 0
M  V30 1900 H 168.949 -0.169331 -3.95638 0
M  V30 1901 H 170.123 -2.99236 -3.5042 0
M  V30 1902 H 168.438 -2.58178 -3.267 0
M  V30 1903 H 171.035 -0.68665 -5.30273 0
M  V30 1904 H 171.378 0.557109 -4.12555 0
M  V30 1905 H 171.911 -1.11376 -3.8189 0
M  V30 1906 H 168.65 -3.61843 -5.4658 0
M  V30 1907 H 168.17 -1.91961 -5.68253 0
M  V30 1908 H 169.849 -2.42251 -5.99936 0
M  V30 1909 N 169.982 1.44106 -0.638065 0
M  V30 1910 C 170.945 2.29138 0.0531013 0
M  V30 1911 C 171.945 1.41409 0.765506 0
M  V30 1912 O 173.135 1.63206 0.609046 0
M  V30 1913 C 170.267 3.23144 1.08584 0
M  V30 1914 H 171.46 2.91739 -0.694883 0
M  V30 1915 H 169.013 1.51134 -0.398538 0
M  V30 1916 H 169.748 2.65408 1.86357 0
M  V30 1917 H 169.533 3.87804 0.578852 0
M  V30 1918 H 171.023 3.87004 1.56899 0
M  V30 1919 N 171.46 0.379036 1.52974 0
M  V30 1920 C 172.708 -0.206014 2.01047 0
M  V30 1921 C 173.029 -1.48175 1.26765 0
M  V30 1922 O 172.299 -1.92085 0.384743 0
M  V30 1923 H 170.879 -0.0791184 0.742798 0
M  V30 1924 H 173.541 0.508366 1.88153 0
M  V30 1925 H 172.637 -0.423501 3.09213 0
M  V30 1926 N 172.938 -1.57226 0.108567 0
M  V30 1927 C 173.885 -2.14756 -0.845481 0
M  V30 1928 C 174.855 -1.06971 -1.27068 0
M  V30 1929 O 176.04 -1.34827 -1.35005 0
M  V30 1930 C 173.18 -2.74298 -2.09415 0
M  V30 1931 C 172.293 -3.96358 -1.71826 0
M  V30 1932 C 171.428 -4.44021 -2.9158 0
M  V30 1933 C 170.467 -5.58637 -2.50181 0
M  V30 1934 N 169.604 -6.01091 -3.62814 0
M  V30 1935 H 174.444 -2.95961 -0.348035 0
M  V30 1936 H 171.981 -1.46226 -0.160106 0
M  V30 1937 H 173.939 -3.06945 -2.82561 0
M  V30 1938 H 172.569 -1.95801 -2.56636 0
M  V30 1939 H 171.621 -3.69939 -0.885947 0
M  V30 1940 H 172.933 -4.79504 -1.37394 0
M  V30 1941 H 172.087 -4.78522 -3.72963 0
M  V30 1942 H 170.826 -3.59803 -3.29231 0
M  V30 1943 H 169.831 -5.23751 -1.67228 0
M  V30 1944 H 171.056 -6.44613 -2.13659 0
M  V30 1945 H 169.002 -5.19817 -4.00158 0
M  V30 1946 H 168.919 -6.79066 -3.32273 0
M  V30 1947 H 170.187 -6.40227 -4.44668 0
M  V30 1948 O 174.455 0.0311049 -1.6147 0
M  V30 1949 H 175.146 0.651916 -1.824 0
M  V30 END ATOM
M  V30 BEGIN BOND
M  V30 END BOND
M  V30 END CTAB
M  END
$$$$
