drugbank_target|P62745 Rho-related GTP-binding protein RhoB (DB00083)
 OpenBabel12092120343D

  0  0  0     0  0            999 V3000
M  V30 BEGIN CTAB
M  V30 COUNTS 3097 3125 0 0 0
M  V30 BEGIN ATOM
M  V30 1 H -0.908 1.98254 -0.117106 0
M  V30 2 N 0 1.576 0 0
M  V30 3 C 0.933 2.03868 1.02534 0
M  V30 4 C 1.911 0.928543 1.3348 0
M  V30 5 O 3.095 1.19667 1.45644 0
M  V30 6 C 0.222 2.43627 2.35294 0
M  V30 7 C -0.732 3.65373 2.2001 0
M  V30 8 S 0.101 5.13292 1.52614 0
M  V30 9 C 1.257 5.56322 2.86805 0
M  V30 10 H 1.49 2.90518 0.631377 0
M  V30 11 H -0.977 1.52953 0.210867 0
M  V30 12 H 0.981 2.67203 3.11629 0
M  V30 13 H -0.358 1.57376 2.7183 0
M  V30 14 H -1.165 3.90944 3.18086 0
M  V30 15 H -1.563 3.418 1.51819 0
M  V30 16 H 0.729 5.58782 3.83104 0
M  V30 17 H 1.672 6.56266 2.65933 0
M  V30 18 H 2.08 4.83886 2.90714 0
M  V30 19 N 1.4781 -0.272755 1.55222 0
M  V30 20 C 2.4411 -1.32041 1.87344 0
M  V30 21 C 3.4411 -1.42342 0.74803 0
M  V30 22 O 4.6311 -1.41488 1.0162 0
M  V30 23 C 1.7631 -2.70173 2.07893 0
M  V30 24 H 2.9561 -1.04789 2.80997 0
M  V30 25 H 0.5091 -0.51083 1.47717 0
M  V30 26 H 1.2441 -3.02605 1.16622 0
M  V30 27 H 1.0291 -2.64082 2.89833 0
M  V30 28 H 2.5191 -3.45869 2.34017 0
M  V30 29 N 2.9562 -1.48159 -0.537278 0
M  V30 30 C 3.9192 -1.61665 -1.62472 0
M  V30 31 C 4.9192 -0.490395 -1.5314 0
M  V30 32 O 6.1092 -0.755998 -1.5694 0
M  V30 33 C 3.2412 -1.57997 -3.02076 0
M  V30 34 H 4.4342 -2.58621 -1.51839 0
M  V30 35 H 1.9872 -1.36647 -0.758771 0
M  V30 36 H 2.7222 -0.624913 -3.18222 0
M  V30 37 H 2.5072 -2.39755 -3.10258 0
M  V30 38 H 3.9972 -1.70627 -3.81151 0
M  V30 39 N 4.4343 0.785586 -1.36625 0
M  V30 40 C 5.6833 1.53883 -1.30396 0
M  V30 41 C 5.9963 1.95271 0.113452 0
M  V30 42 O 7.2023 2.69858 0.298142 0
M  V30 43 C 5.6583 2.77808 -2.28802 0
M  V30 44 C 5.2663 2.43574 -3.75999 0
M  V30 45 C 7.0103 3.55783 -2.31558 0
M  V30 46 C 4.9173 3.63919 -4.66173 0
M  V30 47 H 3.8473 0.577678 -0.484566 0
M  V30 48 H 6.4983 0.861705 -1.62009 0
M  V30 49 H 4.8803 3.47339 -1.90188 0
M  V30 50 H 6.0543 1.81916 -4.23371 0
M  V30 51 H 4.3693 1.78803 -3.76056 0
M  V30 52 H 6.9663 4.45205 -2.96137 0
M  V30 53 H 7.3093 3.94644 -1.3252 0
M  V30 54 H 7.8423 2.93235 -2.68809 0
M  V30 55 H 4.5813 3.3015 -5.66287 0
M  V30 56 H 4.1013 4.2473 -4.23515 0
M  V30 57 H 5.7803 4.30901 -4.82632 0
M  V30 58 N 5.9124 1.20967 1.01018 0
M  V30 59 C 7.3284 0.965905 1.27053 0
M  V30 60 C 7.5284 -0.350785 1.98423 0
M  V30 61 O 6.5844 -1.07773 2.28344 0
M  V30 62 C 7.8974 2.15294 2.09926 0
M  V30 63 C 9.4454 2.19463 2.23171 0
M  V30 64 C 9.9204 3.3767 3.09424 0
M  V30 65 N 11.4114 3.37724 3.17012 0
M  V30 66 C 12.1464 4.25837 3.83993 0
M  V30 67 N 11.6424 5.24138 4.53047 0
M  V30 68 N 13.4354 4.1366 3.80581 0
M  V30 69 H 5.5864 2.0565 0.531194 0
M  V30 70 H 7.8494 0.90024 0.297106 0
M  V30 71 H 7.5554 3.10684 1.64828 0
M  V30 72 H 7.4294 2.13923 3.10672 0
M  V30 73 H 9.8164 1.24632 2.6749 0
M  V30 74 H 9.8974 2.2488 1.21912 0
M  V30 75 H 9.5414 4.32791 2.65808 0
M  V30 76 H 9.4714 3.29491 4.10784 0
M  V30 77 H 11.9624 2.6658 2.6785 0
M  V30 78 H 12.2754 5.87684 5.01844 0
M  V30 79 H 10.6204 5.28068 4.5185 0
M  V30 80 H 13.8114 3.36127 3.25785 0
M  V30 81 H 13.9844 4.82538 4.32505 0
M  V30 82 N 7.3905 -1.2043 1.01659 0
M  V30 83 C 8.3375 -2.23215 0.586822 0
M  V30 84 C 9.3075 -1.61382 -0.393085 0
M  V30 85 O 10.4925 -1.88544 -0.292525 0
M  V30 86 C 7.6325 -3.45032 -0.0687464 0
M  V30 87 C 6.7455 -4.21296 0.955724 0
M  V30 88 C 5.8805 -5.30507 0.271208 0
M  V30 89 C 4.9195 -5.98515 1.28244 0
M  V30 90 N 4.0565 -6.99316 0.62459 0
M  V30 91 H 8.8965 -2.59336 1.46796 0
M  V30 92 H 6.4335 -1.27431 0.734836 0
M  V30 93 H 8.3915 -4.1459 -0.465965 0
M  V30 94 H 7.0215 -3.09604 -0.913529 0
M  V30 95 H 6.0735 -3.50803 1.4711 0
M  V30 96 H 7.3855 -4.6803 1.72479 0
M  V30 97 H 6.5395 -6.06428 -0.18151 0
M  V30 98 H 5.2785 -4.8481 -0.530163 0
M  V30 99 H 4.2835 -5.21355 1.74554 0
M  V30 100 H 5.5085 -6.46298 2.08509 0
M  V30 101 H 3.4545 -6.55812 -0.156914 0
M  V30 102 H 3.3715 -7.44178 1.33172 0
M  V30 103 H 4.6395 -7.79255 0.195462 0
M  V30 104 N 8.8686 -0.792821 -1.36206 0
M  V30 105 C 9.8156 -0.191653 -2.30003 0
M  V30 106 C 10.7856 0.666453 -1.52143 0
M  V30 107 O 11.9706 0.61442 -1.80636 0
M  V30 108 C 9.1106 0.664848 -3.38635 0
M  V30 109 C 8.2236 -0.212175 -4.31479 0
M  V30 110 C 7.3586 0.651022 -5.27196 0
M  V30 111 C 6.3976 -0.227247 -6.11678 0
M  V30 112 N 5.5346 0.595127 -6.99573 0
M  V30 113 H 10.3746 -0.996978 -2.80828 0
M  V30 114 H 7.9116 -0.503206 -1.38225 0
M  V30 115 H 9.8696 1.17645 -4.00269 0
M  V30 116 H 8.4996 1.43557 -2.89122 0
M  V30 117 H 7.5516 -0.841777 -3.70969 0
M  V30 118 H 8.8636 -0.888751 -4.90818 0
M  V30 119 H 8.0176 1.2283 -5.94136 0
M  V30 120 H 6.7566 1.36121 -4.68319 0
M  V30 121 H 5.7616 -0.816904 -5.43697 0
M  V30 122 H 6.9866 -0.93509 -6.72631 0
M  V30 123 H 4.9326 1.28955 -6.432 0
M  V30 124 H 4.8496 -0.0236952 -7.55996 0
M  V30 125 H 6.1176 1.15613 -7.70879 0
M  V30 126 N 10.3467 1.47872 -0.545128 0
M  V30 127 C 11.2767 2.32661 0.197793 0
M  V30 128 C 12.2577 1.43041 0.920504 0
M  V30 129 O 13.4427 1.71912 0.90333 0
M  V30 130 C 10.5727 3.24569 1.23582 0
M  V30 131 C 9.5267 4.23333 0.630323 0
M  V30 132 C 8.8527 5.0448 1.77211 0
M  V30 133 C 10.1527 5.20704 -0.407974 0
M  V30 134 H 11.8467 2.95024 -0.510045 0
M  V30 135 H 9.3927 1.4187 -0.246731 0
M  V30 136 H 11.3457 3.8272 1.76362 0
M  V30 137 H 10.0697 2.60236 1.97344 0
M  V30 138 H 8.7287 3.6639 0.123922 0
M  V30 139 H 8.3767 4.36561 2.49847 0
M  V30 140 H 8.0767 5.71339 1.37281 0
M  V30 141 H 9.6007 5.65487 2.3034 0
M  V30 142 H 11.0147 5.7329 0.033305 0
M  V30 143 H 9.4117 5.95699 -0.725486 0
M  V30 144 H 10.4817 4.66917 -1.30828 0
M  V30 145 N 11.8248 0.280983 1.55075 0
M  V30 146 C 13.0708 -0.33461 2.00021 0
M  V30 147 C 13.4038 -1.55063 1.16915 0
M  V30 148 O 12.6788 -1.93006 0.240646 0
M  V30 149 C 12.9618 -0.711007 3.53011 0
M  V30 150 C 12.8148 0.512766 4.46868 0
M  V30 151 C 14.1338 -1.54522 4.12081 0
M  V30 152 H 11.2528 -0.120147 0.727141 0
M  V30 153 H 13.8948 0.389097 1.85973 0
M  V30 154 H 12.0448 -1.32761 3.65112 0
M  V30 155 H 13.7168 1.15131 4.46702 0
M  V30 156 H 11.9598 1.14975 4.18286 0
M  V30 157 H 12.6308 0.205556 5.51617 0
M  V30 158 H 15.1068 -1.02442 4.03293 0
M  V30 159 H 13.9828 -1.77739 5.19327 0
M  V30 160 H 14.2438 -2.52813 3.62682 0
M  V30 161 N 13.3029 -1.57598 0.00835791 0
M  V30 162 C 14.5489 -1.91211 -0.675732 0
M  V30 163 C 14.8819 -0.883139 -1.72958 0
M  V30 164 O 14.1569 0.097016 -1.94258 0
M  V30 165 C 14.4399 -3.35379 -1.31123 0
M  V30 166 C 14.2929 -4.48999 -0.268356 0
M  V30 167 C 15.6119 -3.7912 -2.23508 0
M  V30 168 H 12.7309 -0.695374 -0.244179 0
M  V30 169 H 15.3729 -1.89901 0.0613655 0
M  V30 170 H 13.5229 -3.36626 -1.93946 0
M  V30 171 H 15.1949 -4.59887 0.360844 0
M  V30 172 H 13.4379 -4.31873 0.408482 0
M  V30 173 H 14.1089 -5.46851 -0.752218 0
M  V30 174 H 16.5849 -3.79477 -1.70693 0
M  V30 175 H 15.4609 -4.80729 -2.64936 0
M  V30 176 H 15.7219 -3.13455 -3.11766 0
M  V30 177 N 14.781 0.264519 -1.55364 0
M  V30 178 C 16.027 0.99646 -1.76631 0
M  V30 179 C 16.36 1.85632 -0.570478 0
M  V30 180 O 15.635 1.89647 0.43175 0
M  V30 181 C 15.918 1.87187 -3.07625 0
M  V30 182 C 15.771 1.04138 -4.37579 0
M  V30 183 C 17.09 2.85749 -3.34717 0
M  V30 184 H 14.209 0.360841 -0.642622 0
M  V30 185 H 16.851 0.268218 -1.88097 0
M  V30 186 H 15.001 2.49279 -2.9798 0
M  V30 187 H 16.673 0.440517 -4.59192 0
M  V30 188 H 14.916 0.345115 -4.32425 0
M  V30 189 H 15.587 1.68729 -5.2558 0
M  V30 190 H 18.063 2.33793 -3.4421 0
M  V30 191 H 16.939 3.44136 -4.27623 0
M  V30 192 H 17.2 3.61311 -2.54768 0
M  V30 193 N 16.2591 1.48442 0.529413 0
M  V30 194 C 17.5071 1.56179 1.28267 0
M  V30 195 C 17.8281 0.237721 1.93546 0
M  V30 196 O 17.0981 -0.740779 1.81354 0
M  V30 197 H 15.6781 0.575367 0.476405 0
M  V30 198 H 18.3401 1.84909 0.61602 0
M  V30 199 H 17.4361 2.34312 2.06165 0
M  V30 200 N 17.7372 -0.778329 1.37039 0
M  V30 201 C 19.0142 -1.52551 1.22424 0
M  V30 202 C 19.3942 -2.10288 -0.184964 0
M  V30 203 O 18.7422 -1.94953 -1.19187 0
M  V30 204 C 18.9522 -2.61164 2.31504 0
M  V30 205 C 20.3002 -3.28746 2.68721 0
M  V30 206 O 21.3242 -2.71455 2.30631 0
M  V30 207 O 20.1832 -4.3231 3.3432 0
M  V30 208 H 17.2772 -0.675343 0.477326 0
M  V30 209 H 19.8232 -0.815859 1.48801 0
M  V30 210 H 18.5952 -2.16574 3.25901 0
M  V30 211 H 18.2182 -3.39737 2.06554 0
M  V30 212 N 19.2153 -1.21501 -1.00376 0
M  V30 213 C 20.4633 -1.03095 -1.73827 0
M  V30 214 C 20.7843 0.436341 -1.90055 0
M  V30 215 O 20.0543 1.31466 -1.45236 0
M  V30 216 H 18.6343 -0.378487 -0.644016 0
M  V30 217 H 21.2963 -1.52831 -1.20949 0
M  V30 218 H 20.3923 -1.49991 -2.73695 0
M  V30 219 N 20.6934 1.19889 -1.02296 0
M  V30 220 C 21.6564 2.21116 -0.603351 0
M  V30 221 C 22.6564 1.5738 0.329884 0
M  V30 222 O 23.8464 1.73802 0.117702 0
M  V30 223 C 20.9784 3.40696 0.117992 0
M  V30 224 H 22.1714 2.59754 -1.49893 0
M  V30 225 H 19.7244 1.33463 -0.813468 0
M  V30 226 H 20.4594 3.07569 1.0282 0
M  V30 227 H 20.2444 3.88188 -0.552511 0
M  V30 228 H 21.7344 4.15692 0.398696 0
M  V30 229 N 22.1715 0.800033 1.35784 0
M  V30 230 C 23.4115 0.382891 2.00782 0
M  V30 231 C 23.7755 -1.02891 1.62103 0
M  V30 232 O 24.9765 -1.54771 2.19771 0
M  V30 233 C 23.2475 0.553299 3.53091 0
M  V30 234 S 24.8065 0.225608 4.3822 0
M  V30 235 H 21.6245 0.145737 0.695904 0
M  V30 236 H 24.2265 1.04085 1.65489 0
M  V30 237 H 22.9305 1.58091 3.78729 0
M  V30 238 H 22.4615 -0.120214 3.93216 0
M  V30 239 H 24.4765 -0.969074 4.86645 0
M  V30 240 N 23.6496 -1.47581 0.552962 0
M  V30 241 C 24.8976 -2.02082 0.0272703 0
M  V30 242 C 25.2186 -1.4301 -1.32563 0
M  V30 243 O 24.4886 -0.603745 -1.86365 0
M  V30 244 H 23.0686 -0.746966 0.00709182 0
M  V30 245 H 25.7306 -1.81033 0.722008 0
M  V30 246 H 24.8266 -3.12034 -0.0639951 0
M  V30 247 N 25.1277 -0.289203 -1.54924 0
M  V30 248 C 26.0747 0.592115 -2.23075 0
M  V30 249 C 27.0447 1.13881 -1.20915 0
M  V30 250 O 28.2297 1.18551 -1.495 0
M  V30 251 C 25.3697 1.76376 -2.96623 0
M  V30 252 C 24.4827 1.24959 -4.13533 0
M  V30 253 C 23.6177 2.38416 -4.74691 0
M  V30 254 C 22.6567 1.84072 -5.83767 0
M  V30 255 N 21.7937 2.91057 -6.38929 0
M  V30 256 H 26.6337 0.00432038 -2.98 0
M  V30 257 H 24.1707 -0.00963529 -1.47097 0
M  V30 258 H 26.1287 2.45268 -3.3749 0
M  V30 259 H 24.7587 2.32337 -2.24097 0
M  V30 260 H 23.8107 0.453307 -3.77689 0
M  V30 261 H 25.1227 0.811662 -4.92152 0
M  V30 262 H 24.2767 3.15276 -5.18349 0
M  V30 263 H 23.0157 2.8553 -3.95378 0
M  V30 264 H 22.0207 1.05697 -5.39545 0
M  V30 265 H 23.2457 1.37877 -6.64956 0
M  V30 266 H 21.1917 3.37526 -5.62505 0
M  V30 267 H 21.1087 2.51724 -7.12861 0
M  V30 268 H 22.3767 3.6785 -6.87246 0
M  V30 269 N 26.6058 1.57591 -0.0167156 0
M  V30 270 C 27.8338 1.95575 0.675128 0
M  V30 271 C 28.2488 0.892542 1.6637 0
M  V30 272 O 27.6058 -0.126912 1.82058 0
M  V30 273 C 27.6568 3.33608 1.39239 0
M  V30 274 O 27.3778 4.3585 0.443444 0
M  V30 275 C 28.8788 3.86151 2.17721 0
M  V30 276 H 26.0988 0.644423 0.186978 0
M  V30 277 H 28.6428 2.0437 -0.0728 0
M  V30 278 H 26.7978 3.2607 2.09182 0
M  V30 279 H 27.2118 5.158 0.951358 0
M  V30 280 H 28.6858 4.85114 2.63379 0
M  V30 281 H 29.1628 3.19738 3.01105 0
M  V30 282 H 29.7688 3.96918 1.52761 0
M  V30 283 N 28.0839 -0.256276 1.55502 0
M  V30 284 C 29.3239 -0.993081 1.78654 0
M  V30 285 C 29.6879 -1.8288 0.584724 0
M  V30 286 O 30.8889 -2.59665 0.694822 0
M  V30 287 C 29.1599 -1.83856 3.06483 0
M  V30 288 S 30.7189 -2.63573 3.5082 0
M  V30 289 H 27.5369 -0.334199 0.62756 0
M  V30 290 H 30.1389 -0.26184 1.93739 0
M  V30 291 H 28.8429 -1.21414 3.92029 0
M  V30 292 H 28.3739 -2.61271 2.94111 0
M  V30 293 H 30.3889 -3.86312 3.11412 0
M  V30 294 N 29.562 -1.4872 -0.521534 0
M  V30 295 C 30.492 -1.66771 -1.63431 0
M  V30 296 C 31.473 -0.516499 -1.62069 0
M  V30 297 O 32.658 -0.750013 -1.79132 0
M  V30 298 C 29.788 -1.71515 -3.01993 0
M  V30 299 C 28.742 -2.86222 -3.18216 0
M  V30 300 C 28.068 -2.76061 -4.57924 0
M  V30 301 C 29.368 -4.27419 -3.00184 0
M  V30 302 H 31.062 -2.59932 -1.48579 0
M  V30 303 H 28.608 -1.25089 -0.713358 0
M  V30 304 H 30.561 -1.82731 -3.7972 0
M  V30 305 H 29.285 -0.749393 -3.17886 0
M  V30 306 H 27.944 -2.74575 -2.42908 0
M  V30 307 H 27.592 -1.77437 -4.70665 0
M  V30 308 H 27.292 -3.53037 -4.69722 0
M  V30 309 H 28.816 -2.89256 -5.37739 0
M  V30 310 H 30.23 -4.39855 -3.67697 0
M  V30 311 H 28.627 -5.05458 -3.2347 0
M  V30 312 H 29.697 -4.43293 -1.96518 0
M  V30 313 N 31.0401 0.771051 -1.3745 0
M  V30 314 C 31.9701 1.89827 -1.3597 0
M  V30 315 C 32.9511 1.68562 -0.228216 0
M  V30 316 O 34.1361 1.8941 -0.428675 0
M  V30 317 C 31.2661 3.2712 -1.16662 0
M  V30 318 C 30.2201 3.6295 -2.2683 0
M  V30 319 C 29.5461 4.98791 -1.92644 0
M  V30 320 C 30.8461 3.69627 -3.69017 0
M  V30 321 H 32.5401 1.91323 -2.30295 0
M  V30 322 H 30.0861 0.919082 -1.10855 0
M  V30 323 H 32.0391 4.05615 -1.14256 0
M  V30 324 H 30.7631 3.26059 -0.187926 0
M  V30 325 H 29.4221 2.86763 -2.28392 0
M  V30 326 H 29.0701 4.94271 -0.933021 0
M  V30 327 H 28.7701 5.23733 -2.66416 0
M  V30 328 H 30.2941 5.79685 -1.91826 0
M  V30 329 H 31.7081 4.38273 -3.69581 0
M  V30 330 H 30.1051 4.06067 -4.41848 0
M  V30 331 H 31.1751 2.70273 -4.02592 0
M  V30 332 N 32.5182 1.22032 0.997298 0
M  V30 333 C 33.7672 1.03637 1.73038 0
M  V30 334 C 34.0802 -0.429475 1.90827 0
M  V30 335 O 35.2862 -0.732995 2.61418 0
M  V30 336 C 33.7422 1.80582 3.11317 0
M  V30 337 C 33.3502 3.31387 3.01474 0
M  V30 338 C 35.0942 1.70621 3.88701 0
M  V30 339 C 33.0012 4.00791 4.3488 0
M  V30 340 H 31.9312 0.384179 0.648785 0
M  V30 341 H 34.5822 1.4584 1.11368 0
M  V30 342 H 32.9642 1.31175 3.73643 0
M  V30 343 H 34.1382 3.88155 2.4834 0
M  V30 344 H 32.4532 3.41976 2.37575 0
M  V30 345 H 35.0502 2.19799 4.87434 0
M  V30 346 H 35.3932 0.665823 4.10941 0
M  V30 347 H 35.9262 2.17547 3.33044 0
M  V30 348 H 32.6652 5.05064 4.1784 0
M  V30 349 H 32.1852 3.48811 4.87945 0
M  V30 350 H 33.8642 4.06139 5.03647 0
M  V30 351 N 33.9963 -1.19345 1.0293 0
M  V30 352 C 35.2423 -1.89318 0.727083 0
M  V30 353 C 35.5753 -1.79446 -0.742483 0
M  V30 354 O 34.8503 -1.1871 -1.54072 0
M  V30 355 C 35.1333 -3.40238 1.17942 0
M  V30 356 C 34.9863 -3.58979 2.71024 0
M  V30 357 C 36.3053 -4.33479 0.760548 0
M  V30 358 H 33.4243 -0.687475 0.265606 0
M  V30 359 H 36.0663 -1.40477 1.2793 0
M  V30 360 H 34.2163 -3.81964 0.709608 0
M  V30 361 H 35.8883 -3.26421 3.25955 0
M  V30 362 H 34.1313 -3.02018 3.11396 0
M  V30 363 H 34.8023 -4.64823 2.9773 0
M  V30 364 H 37.2783 -3.99469 1.16464 0
M  V30 365 H 36.1543 -5.37664 1.10493 0
M  V30 366 H 36.4153 -4.40813 -0.337063 0
M  V30 367 N 35.4744 -0.807222 -1.35358 0
M  V30 368 C 36.7214 -0.387888 -1.9875 0
M  V30 369 C 37.0494 1.04509 -1.64037 0
M  V30 370 O 36.3044 1.73986 -0.895946 0
M  V30 371 C 36.6034 -0.519036 -3.53611 0
M  V30 372 C 36.2694 -1.91542 -4.08194 0
M  V30 373 C 34.9314 -2.29745 -4.22813 0
M  V30 374 C 37.2834 -2.82896 -4.37744 0
M  V30 375 C 34.6114 -3.58668 -4.643 0
M  V30 376 C 36.9634 -4.11265 -4.8067 0
M  V30 377 C 35.6274 -4.49466 -4.93494 0
M  V30 378 H 34.8974 -0.141938 -0.727279 0
M  V30 379 H 37.5444 -1.02814 -1.6156 0
M  V30 380 H 35.8494 0.204658 -3.91265 0
M  V30 381 H 37.5464 -0.175345 -4.00616 0
M  V30 382 H 34.1364 -1.60862 -3.97268 0
M  V30 383 H 38.3204 -2.54629 -4.26002 0
M  V30 384 H 33.5764 -3.88113 -4.72418 0
M  V30 385 H 37.7504 -4.82153 -5.02496 0
M  V30 386 H 35.3774 -5.49418 -5.25399 0
M  V30 387 N 36.9525 1.47285 -0.560781 0
M  V30 388 C 38.1775 2.07359 -0.0410566 0
M  V30 389 C 38.6025 1.41017 1.24483 0
M  V30 390 O 37.9605 0.486368 1.74654 0
M  V30 391 C 38.0085 3.6035 0.134123 0
M  V30 392 O 37.1125 3.94681 1.19587 0
M  V30 393 H 36.4535 0.661887 -0.0529291 0
M  V30 394 H 38.9835 1.89252 -0.777482 0
M  V30 395 H 38.9935 4.0652 0.347207 0
M  V30 396 H 37.6685 4.08034 -0.805047 0
M  V30 397 H 36.2455 3.60251 0.962987 0
M  V30 398 N 38.4306 0.297415 1.54768 0
M  V30 399 C 39.3776 -0.580276 2.23386 0
M  V30 400 C 40.3476 -1.13238 1.21517 0
M  V30 401 O 41.5326 -1.17757 1.50126 0
M  V30 402 C 38.6726 -1.74801 2.97555 0
M  V30 403 C 37.7856 -1.22764 4.1419 0
M  V30 404 C 36.9206 -2.35895 4.75949 0
M  V30 405 C 35.9596 -1.80974 5.84735 0
M  V30 406 N 35.0966 -2.87664 6.40464 0
M  V30 407 H 39.9366 0.0114833 2.97998 0
M  V30 408 H 37.4736 0.0174361 1.4709 0
M  V30 409 H 39.4316 -2.43475 3.38786 0
M  V30 410 H 38.0616 -2.31145 2.25326 0
M  V30 411 H 37.1136 -0.433271 3.77924 0
M  V30 412 H 38.4256 -0.785551 4.92575 0
M  V30 413 H 37.5796 -3.12523 5.20014 0
M  V30 414 H 36.3186 -2.83429 3.96887 0
M  V30 415 H 35.3236 -1.02834 5.40097 0
M  V30 416 H 36.5486 -1.34348 6.65678 0
M  V30 417 H 34.4946 -3.34538 5.64287 0
M  V30 418 H 34.4116 -2.4794 7.14186 0
M  V30 419 H 35.6796 -3.642 6.89187 0
M  V30 420 N 39.9087 -1.5758 0.0250728 0
M  V30 421 C 41.1857 -1.82917 -0.692873 0
M  V30 422 C 41.5657 -0.908137 -1.90568 0
M  V30 423 O 40.9137 0.0372298 -2.2847 0
M  V30 424 C 41.1237 -3.32034 -1.07492 0
M  V30 425 C 42.4717 -3.98406 -1.46826 0
M  V30 426 O 43.4957 -3.36505 -1.16801 0
M  V30 427 O 42.3547 -5.07497 -2.02754 0
M  V30 428 H 39.4487 -0.754079 -0.33955 0
M  V30 429 H 41.9947 -1.69619 0.0524456 0
M  V30 430 H 40.7667 -3.90728 -0.211552 0
M  V30 431 H 40.3897 -3.50424 -1.87854 0
M  V30 432 N 41.3868 0.248026 -1.55636 0
M  V30 433 C 42.2968 1.32859 -1.93354 0
M  V30 434 C 43.3128 1.52719 -0.833838 0
M  V30 435 O 44.4888 1.66363 -1.13513 0
M  V30 436 C 41.5538 2.66337 -2.21958 0
M  V30 437 C 40.6148 2.55008 -3.45354 0
M  V30 438 C 39.8478 3.82121 -3.72584 0
M  V30 439 O 40.0708 4.83951 -3.01907 0
M  V30 440 O 39.0048 3.80822 -4.6611 0
M  V30 441 H 42.8308 1.03862 -2.85388 0
M  V30 442 H 40.4158 0.448686 -1.42503 0
M  V30 443 H 42.2978 3.45216 -2.4167 0
M  V30 444 H 40.9728 2.95068 -1.33103 0
M  V30 445 H 39.8798 1.7442 -3.30951 0
M  V30 446 H 41.2128 2.31222 -4.34508 0
M  V30 447 N 42.8649 1.48995 0.513639 0
M  V30 448 C 44.1119 1.57843 1.26854 0
M  V30 449 C 44.4399 0.259501 1.92761 0
M  V30 450 O 43.6949 -0.75159 1.80692 0
M  V30 451 C 43.9939 2.67756 2.36731 0
M  V30 452 C 43.6599 4.09669 1.88368 0
M  V30 453 C 42.3219 4.48291 1.74896 0
M  V30 454 C 44.6739 4.98537 1.52021 0
M  V30 455 C 42.0019 5.73568 1.23438 0
M  V30 456 C 44.3539 6.24319 1.0202 0
M  V30 457 C 43.0179 6.61783 0.871778 0
M  V30 458 H 42.2879 0.577587 0.464192 0
M  V30 459 H 44.9349 1.82778 0.571366 0
M  V30 460 H 43.2399 2.36743 3.12185 0
M  V30 461 H 44.9369 2.71813 2.9482 0
M  V30 462 H 41.5269 3.79176 1.99808 0
M  V30 463 H 45.7109 4.69363 1.61281 0
M  V30 464 H 40.9669 6.01304 1.10648 0
M  V30 465 H 45.1409 6.92566 0.729722 0
M  V30 466 H 42.7679 7.5874 0.470852 0
M  V30 467 N 44.343 -0.763751 1.37857 0
M  V30 468 C 45.754 -1.3405 1.29952 0
M  V30 469 C 46.105 -1.96138 -0.0492898 0
M  V30 470 O 45.23 -1.94372 -0.951239 0
M  V30 471 C 45.825 -2.43729 2.35333 0
M  V30 472 C 44.384 -2.97151 2.31037 0
M  V30 473 C 43.531 -1.70438 2.18738 0
M  V30 474 H 46.482 -0.563396 1.48363 0
M  V30 475 H 46.503 -3.23412 2.00462 0
M  V30 476 H 46.015 -1.9851 3.33489 0
M  V30 477 H 44.116 -3.46724 1.3643 0
M  V30 478 H 44.229 -3.52221 3.24772 0
M  V30 479 H 42.593 -1.93673 1.65418 0
M  V30 480 H 43.376 -1.27312 3.18821 0
M  V30 481 N 45.8211 -1.22559 -0.990812 0
M  V30 482 C 46.7311 -1.01394 -2.11557 0
M  V30 483 C 47.7471 0.0383962 -1.73958 0
M  V30 484 O 48.9231 -0.154787 -2.00804 0
M  V30 485 C 45.9881 -0.596569 -3.41529 0
M  V30 486 C 45.0491 -1.72276 -3.93217 0
M  V30 487 C 44.2821 -1.32521 -5.16985 0
M  V30 488 O 44.5051 -0.204909 -5.70032 0
M  V30 489 O 43.4391 -2.14247 -5.62478 0
M  V30 490 H 47.2651 -1.95633 -2.32296 0
M  V30 491 H 44.8501 -1.01172 -1.0993 0
M  V30 492 H 46.7321 -0.374263 -4.19735 0
M  V30 493 H 45.4071 0.316939 -3.22145 0
M  V30 494 H 44.3141 -1.99961 -3.16174 0
M  V30 495 H 45.6471 -2.61421 -4.17037 0
M  V30 496 N 47.2992 1.18797 -1.03562 0
M  V30 497 C 48.5452 1.8893 -0.737113 0
M  V30 498 C 48.8782 1.79837 0.732956 0
M  V30 499 O 48.1532 1.19525 1.5344 0
M  V30 500 C 48.4362 3.39607 -1.19745 0
M  V30 501 C 48.2892 3.57537 -2.72924 0
M  V30 502 C 49.6082 4.33069 -0.783526 0
M  V30 503 H 46.7272 0.686057 -0.269249 0
M  V30 504 H 49.3692 1.39797 -1.28673 0
M  V30 505 H 47.5192 3.81583 -0.729855 0
M  V30 506 H 49.1912 3.24688 -3.27682 0
M  V30 507 H 47.4342 3.00363 -3.12993 0
M  V30 508 H 48.1052 4.63238 -3.00191 0
M  V30 509 H 50.5812 3.98846 -1.18581 0
M  V30 510 H 49.4572 5.3707 -1.13343 0
M  V30 511 H 49.7182 4.40986 0.313681 0
M  V30 512 N 48.7773 0.814389 1.34928 0
M  V30 513 C 50.0073 0.41054 2.0248 0
M  V30 514 C 50.4153 -0.985625 1.61499 0
M  V30 515 O 49.7583 -1.64781 0.811976 0
M  V30 516 C 49.8203 0.423384 3.56998 0
M  V30 517 C 49.4843 1.77141 4.21272 0
M  V30 518 C 50.4813 2.73093 4.42398 0
M  V30 519 C 48.1663 2.05755 4.58225 0
M  V30 520 C 50.1603 3.95838 4.9959 0
M  V30 521 C 47.8473 3.28762 5.1513 0
M  V30 522 C 48.8453 4.23621 5.35755 0
M  V30 523 O 48.5333 5.44456 5.91458 0
M  V30 524 H 48.2653 0.163997 0.655806 0
M  V30 525 H 50.8193 1.10155 1.73364 0
M  V30 526 H 49.0493 -0.324276 3.85338 0
M  V30 527 H 50.7383 0.0407683 4.0588 0
M  V30 528 H 51.5043 2.5228 4.14222 0
M  V30 529 H 47.3833 1.32727 4.4148 0
M  V30 530 H 50.9273 4.69891 5.15605 0
M  V30 531 H 46.8243 3.49443 5.42734 0
M  V30 532 H 47.5923 5.4586 6.09901 0
M  V30 533 N 50.2554 -1.46986 0.568584 0
M  V30 534 C 51.5014 -2.02741 0.0488709 0
M  V30 535 C 51.8344 -1.44077 -1.30214 0
M  V30 536 O 51.1094 -0.600552 -1.84996 0
M  V30 537 C 51.3924 -3.60086 -0.032047 0
M  V30 538 C 51.2454 -4.29162 1.34686 0
M  V30 539 C 52.5644 -4.33838 -0.739798 0
M  V30 540 H 49.6834 -0.736749 0.0192338 0
M  V30 541 H 52.3254 -1.75289 0.733065 0
M  V30 542 H 50.4754 -3.83606 -0.61473 0
M  V30 543 H 52.1474 -4.16948 1.97362 0
M  V30 544 H 50.3904 -3.89073 1.91846 0
M  V30 545 H 51.0614 -5.37826 1.24285 0
M  V30 546 H 53.5374 -4.15378 -0.244939 0
M  V30 547 H 52.4134 -5.43537 -0.765406 0
M  V30 548 H 52.6744 -4.03875 -1.79827 0
M  V30 549 N 51.7335 -0.305618 -1.54608 0
M  V30 550 C 53.1445 0.186098 -1.8577 0
M  V30 551 C 53.4955 1.53058 -1.22751 0
M  V30 552 O 52.6205 2.09888 -0.526893 0
M  V30 553 C 53.2155 0.344449 -3.37044 0
M  V30 554 C 51.7745 0.780384 -3.68221 0
M  V30 555 C 50.9215 -0.108554 -2.77087 0
M  V30 556 H 53.8725 -0.526485 -1.49712 0
M  V30 557 H 53.8935 1.17828 -3.61796 0
M  V30 558 H 53.4055 -0.634235 -3.82883 0
M  V30 559 H 51.5065 1.76945 -3.27904 0
M  V30 560 H 51.6195 0.596572 -4.75371 0
M  V30 561 H 49.9835 0.412931 -2.5133 0
M  V30 562 H 50.7665 -1.08368 -3.25747 0
M  V30 563 N 53.2116 1.57565 -0.0334293 0
M  V30 564 C 54.4396 1.9628 0.654347 0
M  V30 565 C 54.8546 0.910138 1.65414 0
M  V30 566 O 54.2116 -0.107595 1.82183 0
M  V30 567 C 54.2626 3.35067 1.35693 0
M  V30 568 O 53.9836 4.36296 0.397191 0
M  V30 569 C 55.4846 3.88439 2.13613 0
M  V30 570 H 52.7046 0.646369 0.180132 0
M  V30 571 H 55.2486 2.04282 -0.0944721 0
M  V30 572 H 53.4036 3.2827 2.05712 0
M  V30 573 H 53.8176 5.1678 0.896597 0
M  V30 574 H 55.2916 4.8788 2.58219 0
M  V30 575 H 55.7686 3.22914 2.97696 0
M  V30 576 H 56.3746 3.98516 1.48543 0
M  V30 577 N 54.6897 -0.239769 1.55765 0
M  V30 578 C 55.9357 -0.968234 1.78194 0
M  V30 579 C 56.2687 -1.84701 0.599938 0
M  V30 580 O 55.5437 -1.9031 -0.401524 0
M  V30 581 C 55.8267 -1.8227 3.10564 0
M  V30 582 C 55.6797 -0.971633 4.3918 0
M  V30 583 C 56.9987 -2.80388 3.39221 0
M  V30 584 H 54.1177 -0.350572 0.648281 0
M  V30 585 H 56.7597 -0.238259 1.885 0
M  V30 586 H 54.9097 -2.44507 3.01908 0
M  V30 587 H 56.5817 -0.367408 4.59835 0
M  V30 588 H 54.8247 -0.276276 4.32919 0
M  V30 589 H 55.4957 -1.60346 5.28198 0
M  V30 590 H 57.9717 -2.28287 3.47885 0
M  V30 591 H 56.8477 -3.3729 4.33044 0
M  V30 592 H 57.1087 -3.57212 2.60484 0
M  V30 593 N 56.1678 -1.49265 -0.50573 0
M  V30 594 C 57.4148 -1.58513 -1.26015 0
M  V30 595 C 57.7428 -0.26972 -1.92621 0
M  V30 596 O 56.9978 0.741997 -1.81088 0
M  V30 597 C 57.2968 -2.69008 -2.35308 0
M  V30 598 C 56.9628 -4.10662 -1.86192 0
M  V30 599 C 55.6248 -4.49212 -1.72516 0
M  V30 600 C 57.9768 -4.99336 -1.49375 0
M  V30 601 C 55.3048 -5.74214 -1.20394 0
M  V30 602 C 57.6568 -6.24852 -0.987072 0
M  V30 603 C 56.3208 -6.62236 -0.836669 0
M  V30 604 H 55.5908 -0.580041 -0.461122 0
M  V30 605 H 58.2378 -1.83078 -0.561665 0
M  V30 606 H 56.5428 -2.38396 -3.10926 0
M  V30 607 H 58.2398 -2.73373 -2.93374 0
M  V30 608 H 54.8298 -3.8023 -1.97795 0
M  V30 609 H 59.0138 -4.70212 -1.5879 0
M  V30 610 H 54.2698 -6.01883 -1.07458 0
M  V30 611 H 58.4438 -6.92944 -0.692983 0
M  V30 612 H 56.0708 -7.58979 -0.430607 0
M  V30 613 N 57.6459 0.756429 -1.3826 0
M  V30 614 C 58.5559 1.9009 -1.37488 0
M  V30 615 C 59.5719 1.71855 -0.272366 0
M  V30 616 O 60.7479 1.94827 -0.510318 0
M  V30 617 C 57.8129 3.25421 -1.19592 0
M  V30 618 C 56.8739 3.56202 -2.39622 0
M  V30 619 C 56.1069 4.85075 -2.2257 0
M  V30 620 O 56.3299 5.57246 -1.21793 0
M  V30 621 O 55.2639 5.15269 -3.11098 0
M  V30 622 H 59.0899 1.93695 -2.33914 0
M  V30 623 H 56.6749 0.901313 -1.1915 0
M  V30 624 H 58.5569 4.06337 -1.11661 0
M  V30 625 H 57.2319 3.22634 -0.262486 0
M  V30 626 H 56.1389 2.75458 -2.53128 0
M  V30 627 H 57.4719 3.63747 -3.31586 0
M  V30 628 N 59.124 1.23083 0.984299 0
M  V30 629 C 60.072 1.00593 2.09723 0
M  V30 630 C 61.066 -0.0538014 1.69315 0
M  V30 631 O 62.272 0.0993719 1.79725 0
M  V30 632 H 58.647 0.30817 0.685956 0
M  V30 633 H 60.618 1.95012 2.2586 0
M  V30 634 C 59.367 0.609601 3.42314 0
M  V30 635 H 58.69 1.41675 3.73856 0
M  V30 636 H 60.13 0.491726 4.21139 0
M  V30 637 C 58.589 -0.681745 3.2993 0
M  V30 638 O 59.119 -1.73192 3.62446 0
M  V30 639 N 57.325 -0.656178 2.83095 0
M  V30 640 H 56.872 0.198759 2.56832 0
M  V30 641 H 56.83 -1.52044 2.75191 0
M  V30 642 N 60.6021 -1.18246 1.0419 0
M  V30 643 C 61.8321 -1.91916 0.764961 0
M  V30 644 C 62.2401 -1.76485 -0.681898 0
M  V30 645 O 61.5831 -1.09275 -1.47664 0
M  V30 646 C 61.6451 -3.4373 1.05309 0
M  V30 647 C 61.3091 -3.8294 2.4941 0
M  V30 648 C 62.3061 -3.86621 3.47592 0
M  V30 649 C 59.9911 -4.142 2.84155 0
M  V30 650 C 61.9851 -4.21013 4.78568 0
M  V30 651 C 59.6721 -4.48262 4.15337 0
M  V30 652 C 60.6701 -4.51645 5.12353 0
M  V30 653 O 60.3581 -4.84911 6.41183 0
M  V30 654 H 60.0901 -0.61606 0.278292 0
M  V30 655 H 62.6441 -1.50947 1.39299 0
M  V30 656 H 60.8741 -3.84946 0.367933 0
M  V30 657 H 62.5631 -3.9865 0.763752 0
M  V30 658 H 63.3291 -3.62607 3.22089 0
M  V30 659 H 59.2081 -4.10743 2.09311 0
M  V30 660 H 62.7521 -4.23568 5.54289 0
M  V30 661 H 58.6491 -4.71737 4.40607 0
M  V30 662 H 59.4171 -5.02809 6.45852 0
M  V30 663 N 62.0802 -0.821533 -1.34494 0
M  V30 664 C 63.3262 -0.409552 -1.98622 0
M  V30 665 C 63.6592 1.0244 -1.64984 0
M  V30 666 O 62.9342 1.71325 -0.920758 0
M  V30 667 C 63.2172 -0.610458 -3.54888 0
M  V30 668 C 63.0702 -2.09043 -3.98273 0
M  V30 669 C 64.3892 -0.0455379 -4.40076 0
M  V30 670 H 61.5082 -0.15028 -0.721516 0
M  V30 671 H 64.1502 -1.03384 -1.59411 0
M  V30 672 H 62.3002 -0.079044 -3.8842 0
M  V30 673 H 63.9722 -2.68537 -3.75081 0
M  V30 674 H 62.2152 -2.58139 -3.48635 0
M  V30 675 H 62.8862 -2.18182 -5.07051 0
M  V30 676 H 65.3622 -0.499557 -4.1309 0
M  V30 677 H 64.2382 -0.215922 -5.48475 0
M  V30 678 H 64.4992 1.04939 -4.29465 0
M  V30 679 N 63.5583 1.46682 -0.576371 0
M  V30 680 C 64.5213 2.28707 0.150239 0
M  V30 681 C 65.5213 1.38035 0.824794 0
M  V30 682 O 66.7113 1.60476 0.677719 0
M  V30 683 C 63.8433 3.18248 1.22192 0
M  V30 684 H 65.0363 2.94423 -0.570521 0
M  V30 685 H 62.5893 1.52688 -0.334078 0
M  V30 686 H 63.3243 2.57265 1.97447 0
M  V30 687 H 63.1093 3.85 0.742812 0
M  V30 688 H 64.5993 3.80001 1.73172 0
M  V30 689 N 65.0364 0.313813 1.54444 0
M  V30 690 C 66.3134 -0.345447 1.92525 0
M  V30 691 C 66.6934 -1.70667 1.24242 0
M  V30 692 O 66.0414 -2.25273 0.382654 0
M  V30 693 C 66.2514 -0.44737 3.46121 0
M  V30 694 C 67.5994 -0.712238 4.18584 0
M  V30 695 O 68.6234 -0.530678 3.52225 0
M  V30 696 O 67.4824 -1.06183 5.36085 0
M  V30 697 H 64.5764 -0.195407 0.803583 0
M  V30 698 H 67.1224 0.362813 1.65776 0
M  V30 699 H 65.8944 0.509043 3.87975 0
M  V30 700 H 65.5174 -1.20359 3.78945 0
M  V30 701 N 66.5145 -1.57545 0.0417849 0
M  V30 702 C 67.7635 -1.91494 -0.633492 0
M  V30 703 C 68.0765 -0.921084 -1.72556 0
M  V30 704 O 69.2825 -1.15228 -2.45835 0
M  V30 705 C 67.7385 -3.40072 -1.17808 0
M  V30 706 C 67.3465 -4.47843 -0.118633 0
M  V30 707 C 69.0905 -3.8307 -1.82915 0
M  V30 708 C 66.9975 -5.87529 -0.675578 0
M  V30 709 H 65.9275 -0.714653 -0.24039 0
M  V30 710 H 68.5785 -1.83175 0.109148 0
M  V30 711 H 66.9605 -3.43364 -1.97274 0
M  V30 712 H 68.1345 -4.56128 0.654494 0
M  V30 713 H 66.4495 -4.14128 0.434414 0
M  V30 714 H 69.0465 -4.84794 -2.25563 0
M  V30 715 H 69.3895 -3.1881 -2.67705 0
M  V30 716 H 69.9225 -3.82255 -1.10119 0
M  V30 717 H 66.6615 -6.55362 0.134475 0
M  V30 718 H 66.1815 -5.82824 -1.4169 0
M  V30 719 H 67.8605 -6.36491 -1.1614 0
M  V30 720 N 67.9926 0.231505 -1.5589 0
M  V30 721 C 68.9026 1.308 -1.94752 0
M  V30 722 C 69.9186 1.51826 -0.849989 0
M  V30 723 O 71.0946 1.6515 -1.15271 0
M  V30 724 C 68.1596 2.63968 -2.24771 0
M  V30 725 C 67.2206 2.51331 -3.48039 0
M  V30 726 C 66.4536 3.78148 -3.76616 0
M  V30 727 O 66.6766 4.80722 -3.07022 0
M  V30 728 O 65.6106 3.75857 -4.70123 0
M  V30 729 H 69.4366 1.0083 -2.86474 0
M  V30 730 H 67.0216 0.433547 -1.42971 0
M  V30 731 H 68.9036 3.42633 -2.45318 0
M  V30 732 H 67.5786 2.9364 -1.36225 0
M  V30 733 H 66.4856 1.709 -3.32782 0
M  V30 734 H 67.8186 2.26601 -4.36936 0
M  V30 735 N 69.4707 1.49531 0.497807 0
M  V30 736 C 70.7167 1.59415 1.25358 0
M  V30 737 C 71.0497 0.281422 1.9215 0
M  V30 738 O 70.3247 -0.715249 1.80871 0
M  V30 739 C 70.6077 2.75566 2.3181 0
M  V30 740 C 70.4607 4.16642 1.69498 0
M  V30 741 C 71.7797 2.87347 3.33346 0
M  V30 742 H 68.8987 0.580244 0.454408 0
M  V30 743 H 71.5407 1.81827 0.551262 0
M  V30 744 H 69.6907 2.56587 2.91711 0
M  V30 745 H 71.3627 4.47145 1.13399 0
M  V30 746 H 69.6057 4.22141 0.998978 0
M  V30 747 H 70.2767 4.93792 2.46725 0
M  V30 748 H 72.7527 3.04634 2.83438 0
M  V30 749 H 71.6287 3.70289 4.05188 0
M  V30 750 H 71.8897 1.96834 3.95865 0
M  V30 751 N 70.9488 -0.749086 1.3866 0
M  V30 752 C 72.2258 -1.4992 1.25632 0
M  V30 753 C 72.6058 -2.10633 -0.140317 0
M  V30 754 O 71.9538 -1.97437 -1.15025 0
M  V30 755 C 72.1638 -2.56195 2.36992 0
M  V30 756 C 73.5118 -3.22972 2.75634 0
M  V30 757 O 74.5358 -2.66502 2.36337 0
M  V30 758 O 73.3948 -4.25122 3.43415 0
M  V30 759 H 70.4888 -0.665067 0.491544 0
M  V30 760 H 73.0348 -0.784113 1.50498 0
M  V30 761 H 71.8068 -2.09612 3.30422 0
M  V30 762 H 71.4298 -3.35279 2.13714 0
M  V30 763 N 72.4269 -1.23603 -0.977757 0
M  V30 764 C 73.6749 -1.06759 -1.71601 0
M  V30 765 C 73.9959 0.395929 -1.90938 0
M  V30 766 O 73.2659 1.28356 -1.47992 0
M  V30 767 H 71.8459 -0.392062 -0.635843 0
M  V30 768 H 74.5079 -1.55362 -1.1768 0
M  V30 769 H 73.6039 -1.55763 -2.70452 0
M  V30 770 N 73.905 1.17692 -1.04816 0
M  V30 771 C 74.852 2.21581 -0.645797 0
M  V30 772 C 75.822 1.62367 0.350159 0
M  V30 773 O 77.007 1.89254 0.242433 0
M  V30 774 C 74.147 3.45092 -0.0227568 0
M  V30 775 C 73.26 4.18613 -1.06709 0
M  V30 776 C 72.395 5.29602 -0.411767 0
M  V30 777 C 71.434 5.94904 -1.44067 0
M  V30 778 N 70.571 6.97414 -0.809781 0
M  V30 779 H 75.411 2.55353 -1.5362 0
M  V30 780 H 72.948 1.25438 -0.768364 0
M  V30 781 H 74.906 4.15679 0.35588 0
M  V30 782 H 73.536 3.11917 0.831122 0
M  V30 783 H 72.588 3.46779 -1.5636 0
M  V30 784 H 73.9 4.63293 -1.84827 0
M  V30 785 H 73.054 6.06696 0.0206623 0
M  V30 786 H 71.793 4.86045 0.401438 0
M  V30 787 H 70.798 5.16544 -1.88316 0
M  V30 788 H 72.023 6.40542 -2.25571 0
M  V30 789 H 69.969 6.55998 -0.0170186 0
M  V30 790 H 69.886 7.40386 -1.52856 0
M  V30 791 H 71.154 7.78463 -0.401999 0
M  V30 792 N 75.3831 0.828654 1.34056 0
M  V30 793 C 76.3151 0.212052 2.28217 0
M  V30 794 C 77.3281 -0.601362 1.51286 0
M  V30 795 O 78.5171 -0.430104 1.73241 0
M  V30 796 C 75.6171 -0.72088 3.31144 0
M  V30 797 C 74.7901 0.0509587 4.3737 0
M  V30 798 C 73.8491 -0.803766 5.20025 0
M  V30 799 O 72.8751 -0.246667 5.68665 0
M  V30 800 N 74.0771 -2.1227 5.40298 0
M  V30 801 H 76.8421 1.02105 2.81771 0
M  V30 802 H 74.4031 0.686153 1.46641 0
M  V30 803 H 76.3951 -1.29742 3.8334 0
M  V30 804 H 74.9651 -1.43061 2.77943 0
M  V30 805 H 74.1851 0.808831 3.85813 0
M  V30 806 H 75.4731 0.582065 5.0546 0
M  V30 807 H 74.8711 -2.59898 5.02464 0
M  V30 808 H 73.4281 -2.64796 5.95589 0
M  V30 809 N 76.8612 -1.46375 0.584142 0
M  V30 810 C 78.1072 -2.02678 0.0703716 0
M  V30 811 C 78.4402 -1.4545 -1.28678 0
M  V30 812 O 77.7152 -0.62014 -1.84349 0
M  V30 813 C 77.9982 -3.60099 0.00614674 0
M  V30 814 C 77.8512 -4.27709 1.3923 0
M  V30 815 C 79.1702 -4.34598 -0.693742 0
M  V30 816 H 76.2892 -0.736504 0.027047 0
M  V30 817 H 78.9312 -1.74501 0.751615 0
M  V30 818 H 77.0812 -3.84236 -0.574009 0
M  V30 819 H 78.7532 -4.14832 2.01773 0
M  V30 820 H 76.9962 -3.87016 1.95962 0
M  V30 821 H 77.6672 -5.36478 1.29982 0
M  V30 822 H 80.1432 -4.15615 -0.200869 0
M  V30 823 H 79.0192 -5.44318 -0.707714 0
M  V30 824 H 79.2802 -4.05759 -1.75533 0
M  V30 825 N 78.3393 -0.321999 -1.54275 0
M  V30 826 C 79.2493 0.553631 -2.27974 0
M  V30 827 C 80.2653 1.13054 -1.32268 0
M  V30 828 O 81.4413 1.15084 -1.6528 0
M  V30 829 C 78.5063 1.69927 -3.02201 0
M  V30 830 C 77.5673 1.15433 -4.1349 0
M  V30 831 C 76.8003 2.24537 -4.84168 0
M  V30 832 O 77.0233 3.44852 -4.5435 0
M  V30 833 O 75.9573 1.90044 -5.7111 0
M  V30 834 H 79.7833 -0.0448345 -3.03667 0
M  V30 835 H 77.3683 -0.0877418 -1.49142 0
M  V30 836 H 79.2503 2.3663 -3.48689 0
M  V30 837 H 77.9253 2.28395 -2.29385 0
M  V30 838 H 76.8323 0.452436 -3.71354 0
M  V30 839 H 78.1653 0.614805 -4.88345 0
M  V30 840 N 79.8174 1.5752 -0.0501392 0
M  V30 841 C 80.7474 2.14502 0.922566 0
M  V30 842 C 81.7284 1.06642 1.3252 0
M  V30 843 O 82.9134 1.34577 1.4001 0
M  V30 844 C 80.0434 2.68916 2.19776 0
M  V30 845 C 78.9974 3.8175 1.93523 0
M  V30 846 C 78.3234 4.22677 3.27487 0
M  V30 847 C 79.6234 5.06932 1.25765 0
M  V30 848 H 81.3174 2.9603 0.447952 0
M  V30 849 H 78.8634 1.42401 0.214024 0
M  V30 850 H 80.8164 3.07419 2.88222 0
M  V30 851 H 79.5404 1.84578 2.69441 0
M  V30 852 H 78.1994 3.43718 1.27489 0
M  V30 853 H 77.8474 3.35291 3.74952 0
M  V30 854 H 77.5474 4.98725 3.1072 0
M  V30 855 H 79.0714 4.63779 3.97166 0
M  V30 856 H 80.4854 5.42888 1.84244 0
M  V30 857 H 78.8824 5.88116 1.19328 0
M  V30 858 H 79.9524 4.84337 0.233536 0
M  V30 859 N 81.2955 -0.223234 1.56011 0
M  V30 860 C 82.2585 -1.26014 1.9145 0
M  V30 861 C 83.2585 -1.3989 0.792937 0
M  V30 862 O 84.4485 -1.38184 1.0607 0
M  V30 863 C 81.5805 -2.63422 2.16383 0
M  V30 864 H 82.7735 -0.95796 2.84189 0
M  V30 865 H 80.3265 -0.463576 1.49267 0
M  V30 866 H 81.0615 -2.98741 1.2619 0
M  V30 867 H 80.8465 -2.54728 2.98088 0
M  V30 868 H 82.3365 -3.38249 2.44903 0
M  V30 869 N 82.7736 -1.49793 -0.48987 0
M  V30 870 C 83.7036 -1.70201 -1.59856 0
M  V30 871 C 84.6846 -0.55076 -1.60937 0
M  V30 872 O 85.8696 -0.787841 -1.77501 0
M  V30 873 C 82.9996 -1.77882 -2.98287 0
M  V30 874 C 81.9536 -2.92907 -3.12073 0
M  V30 875 C 81.2796 -2.85712 -4.51965 0
M  V30 876 C 82.5796 -4.3369 -2.91051 0
M  V30 877 H 84.2736 -2.63025 -1.43032 0
M  V30 878 H 81.8196 -1.26574 -0.686664 0
M  V30 879 H 83.7726 -1.90744 -3.75759 0
M  V30 880 H 82.4966 -0.816653 -3.16225 0
M  V30 881 H 81.1556 -2.79665 -2.37029 0
M  V30 882 H 80.8036 -1.8738 -4.66795 0
M  V30 883 H 80.5036 -3.62921 -4.62128 0
M  V30 884 H 82.0276 -3.00598 -5.31482 0
M  V30 885 H 83.4416 -4.47555 -3.58284 0
M  V30 886 H 81.8386 -5.12205 -3.12675 0
M  V30 887 H 82.9086 -4.47362 -1.87071 0
M  V30 888 N 84.2517 0.741722 -1.39055 0
M  V30 889 C 85.4977 1.50234 -1.37118 0
M  V30 890 C 85.8527 1.92368 0.0350439 0
M  V30 891 O 85.1457 1.63422 1.00019 0
M  V30 892 C 85.3397 2.7592 -2.27163 0
M  V30 893 C 85.1687 2.46074 -3.76401 0
M  V30 894 C 83.9387 2.38704 -4.45364 0
M  V30 895 C 86.1367 2.12062 -4.68545 0
M  V30 896 N 84.1187 2.01258 -5.79973 0
M  V30 897 C 85.4897 1.85005 -5.91754 0
M  V30 898 C 87.5447 1.98473 -4.56632 0
M  V30 899 C 86.2477 1.4573 -7.04383 0
M  V30 900 C 88.2737 1.60599 -5.69176 0
M  V30 901 C 87.6357 1.34423 -6.91455 0
M  V30 902 H 83.7347 0.548858 -0.557027 0
M  V30 903 H 86.3187 0.862642 -1.74547 0
M  V30 904 H 84.4897 3.3768 -1.91904 0
M  V30 905 H 86.2217 3.42068 -2.16267 0
M  V30 906 H 82.9767 2.55574 -3.98721 0
M  V30 907 H 83.4007 1.85147 -6.51191 0
M  V30 908 H 88.0427 2.17381 -3.62637 0
M  V30 909 H 85.7607 1.25562 -7.98286 0
M  V30 910 H 89.3467 1.507 -5.61944 0
M  V30 911 H 88.2267 1.05555 -7.77064 0
M  V30 912 N 85.7298 1.2412 0.971189 0
M  V30 913 C 87.0068 0.986867 1.6888 0
M  V30 914 C 87.3868 -0.491857 2.0529 0
M  V30 915 O 86.7348 -1.46531 1.75331 0
M  V30 916 C 86.9448 1.9063 2.92338 0
M  V30 917 C 88.2928 2.17515 3.64654 0
M  V30 918 O 89.3168 1.88254 3.02388 0
M  V30 919 O 88.1758 2.6719 4.7673 0
M  V30 920 H 85.2698 0.372944 0.738134 0
M  V30 921 H 87.8158 1.35203 1.02559 0
M  V30 922 H 86.5878 2.90552 2.62097 0
M  V30 923 H 86.2108 1.54408 3.66393 0
M  V30 924 N 87.2079 -1.17134 1.05439 0
M  V30 925 C 88.4359 -1.91372 0.786414 0
M  V30 926 C 88.8509 -1.76955 -0.658202 0
M  V30 927 O 88.2079 -1.10838 -1.44987 0
M  V30 928 C 88.2589 -3.42356 1.1608 0
M  V30 929 O 87.9799 -3.56332 2.54871 0
M  V30 930 C 89.4809 -4.33663 0.919322 0
M  V30 931 H 86.7009 -0.607118 0.285743 0
M  V30 932 H 89.2449 -1.48525 1.40572 0
M  V30 933 H 87.3999 -3.82939 0.586191 0
M  V30 934 H 87.8139 -4.49896 2.69618 0
M  V30 935 H 89.2879 -5.38099 1.231 0
M  V30 936 H 89.7649 -4.38959 -0.145359 0
M  V30 937 H 90.3709 -3.98796 1.47789 0
M  V30 938 N 88.686 -0.835752 -1.33615 0
M  V30 939 C 89.649 -0.272 -2.2758 0
M  V30 940 C 90.649 0.557487 -1.50827 0
M  V30 941 O 91.839 0.37173 -1.70188 0
M  V30 942 C 88.971 0.617173 -3.35267 0
M  V30 943 H 90.164 -1.10111 -2.78954 0
M  V30 944 H 87.717 -0.608594 -1.43965 0
M  V30 945 H 88.452 1.46884 -2.89129 0
M  V30 946 H 88.237 0.0237066 -3.92093 0
M  V30 947 H 89.727 1.005 -4.05326 0
M  V30 948 N 90.1641 1.46063 -0.591896 0
M  V30 949 C 91.4121 2.01938 -0.0808391 0
M  V30 950 C 91.7331 1.46475 1.28725 0
M  V30 951 O 91.0031 0.652944 1.84698 0
M  V30 952 H 89.5831 0.746516 -0.0268938 0
M  V30 953 H 92.2451 1.79055 -0.769752 0
M  V30 954 H 91.3411 3.12094 -0.0187578 0
M  V30 955 N 91.6422 0.330177 1.54103 0
M  V30 956 C 92.5742 -0.566902 2.22079 0
M  V30 957 C 93.5872 -1.07462 1.22294 0
M  V30 958 O 94.7762 -0.987065 1.48726 0
M  V30 959 C 91.8762 -1.79138 2.87685 0
M  V30 960 C 91.0492 -1.42123 4.13666 0
M  V30 961 C 90.1082 -2.50394 4.62806 0
M  V30 962 O 89.1342 -2.14261 5.27334 0
M  V30 963 N 90.3362 -3.81433 4.37595 0
M  V30 964 H 93.1012 0.0151844 2.99696 0
M  V30 965 H 90.6622 0.153681 1.61169 0
M  V30 966 H 92.6542 -2.50975 3.1748 0
M  V30 967 H 91.2242 -2.28115 2.13734 0
M  V30 968 H 90.4442 -0.534201 3.90564 0
M  V30 969 H 91.7322 -1.14971 4.9564 0
M  V30 970 H 91.1302 -4.13584 3.8596 0
M  V30 971 H 89.6872 -4.4948 4.72029 0
M  V30 972 N 93.1203 -1.57491 0.0584922 0
M  V30 973 C 94.0303 -2.15448 -0.928414 0
M  V30 974 C 95.0463 -1.11416 -1.3365 0
M  V30 975 O 96.2223 -1.4362 -1.41193 0
M  V30 976 C 93.2873 -2.69393 -2.18239 0
M  V30 977 C 92.3483 -3.88249 -1.83196 0
M  V30 978 C 91.5813 -4.39613 -3.02616 0
M  V30 979 O 91.8043 -3.90023 -4.16219 0
M  V30 980 O 90.7383 -5.31111 -2.83204 0
M  V30 981 H 94.5643 -3.00112 -0.465483 0
M  V30 982 H 92.1493 -1.48499 -0.163826 0
M  V30 983 H 94.0313 -3.04026 -2.91798 0
M  V30 984 H 92.7063 -1.87796 -2.63656 0
M  V30 985 H 91.6133 -3.58492 -1.06931 0
M  V30 986 H 92.9463 -4.71098 -1.42573 0
M  V30 987 N 94.5984 0.214957 -1.56127 0
M  V30 988 C 95.8754 0.963093 -1.70247 0
M  V30 989 C 96.2554 2.02166 -0.60764 0
M  V30 990 O 95.6034 2.25244 0.384385 0
M  V30 991 C 95.8134 1.56756 -3.11815 0
M  V30 992 C 97.1614 2.0573 -3.7143 0
M  V30 993 O 98.1854 1.66637 -3.14818 0
M  V30 994 O 97.0444 2.77603 -4.70743 0
M  V30 995 H 94.1384 0.450321 -0.693643 0
M  V30 996 H 96.6844 0.206219 -1.68442 0
M  V30 997 H 95.4564 0.803533 -3.82961 0
M  V30 998 H 95.0794 2.3898 -3.17765 0
M  V30 999 N 96.0765 1.50051 0.48192 0
M  V30 1000 C 97.3065 1.63999 1.2565 0
M  V30 1001 C 97.7145 0.318288 1.86504 0
M  V30 1002 O 97.0575 -0.708534 1.69486 0
M  V30 1003 C 97.1195 2.66504 2.4128 0
M  V30 1004 C 96.7835 4.10352 2.01148 0
M  V30 1005 C 97.7805 4.96562 1.54021 0
M  V30 1006 C 95.4655 4.56203 2.10199 0
M  V30 1007 C 97.4595 6.26668 1.16473 0
M  V30 1008 C 95.1465 5.86318 1.72264 0
M  V30 1009 C 96.1445 6.71375 1.25477 0
M  V30 1010 O 95.8325 7.99062 0.880626 0
M  V30 1011 H 95.5645 0.55456 0.386574 0
M  V30 1012 H 98.1185 1.96954 0.582944 0
M  V30 1013 H 96.3485 2.28769 3.11772 0
M  V30 1014 H 98.0375 2.69783 3.03268 0
M  V30 1015 H 98.8035 4.62358 1.46458 0
M  V30 1016 H 94.6825 3.90152 2.45566 0
M  V30 1017 H 98.2265 6.93011 0.798841 0
M  V30 1018 H 94.1235 6.20046 1.79482 0
M  V30 1019 H 94.8915 8.12239 1.01043 0
M  V30 1020 N 97.5546 -0.734337 1.39446 0
M  V30 1021 C 98.8316 -1.48579 1.27215 0
M  V30 1022 C 99.2116 -2.1077 -0.117968 0
M  V30 1023 O 98.5596 -1.98646 -1.12924 0
M  V30 1024 C 98.7696 -2.53667 2.39696 0
M  V30 1025 C 100.118 -3.20031 2.79044 0
M  V30 1026 O 101.142 -2.6398 2.39151 0
M  V30 1027 O 100.001 -4.21455 3.47905 0
M  V30 1028 H 97.0946 -0.659816 0.49857 0
M  V30 1029 H 99.6406 -0.768106 1.51322 0
M  V30 1030 H 98.4126 -2.06096 3.32626 0
M  V30 1031 H 98.0356 -3.32994 2.17258 0
M  V30 1032 N 99.0327 -1.24633 -0.964593 0
M  V30 1033 C 100.449 -1.01239 -1.2338 0
M  V30 1034 C 100.649 0.2769 -1.99588 0
M  V30 1035 O 99.7047 0.992241 -2.32187 0
M  V30 1036 C 101.018 -2.22937 -2.01791 0
M  V30 1037 C 102.566 -2.27594 -2.14872 0
M  V30 1038 C 103.041 -3.48921 -2.96678 0
M  V30 1039 N 104.532 -3.49257 -3.04259 0
M  V30 1040 C 105.267 -4.39795 -3.67924 0
M  V30 1041 N 104.763 -5.40591 -4.33281 0
M  V30 1042 N 106.556 -4.275 -3.64966 0
M  V30 1043 H 98.7067 -2.0748 -0.454502 0
M  V30 1044 H 100.97 -0.910647 -0.26349 0
M  V30 1045 H 100.676 -3.16587 -1.53184 0
M  V30 1046 H 100.55 -2.25306 -3.02518 0
M  V30 1047 H 102.937 -1.34473 -2.6268 0
M  V30 1048 H 103.018 -2.2925 -1.13482 0
M  V30 1049 H 102.662 -4.42359 -2.49562 0
M  V30 1050 H 102.592 -3.4451 -3.98272 0
M  V30 1051 H 105.083 -2.76337 -2.57771 0
M  V30 1052 H 105.396 -6.05904 -4.79687 0
M  V30 1053 H 103.741 -5.44475 -4.3194 0
M  V30 1054 H 106.932 -3.47987 -3.13086 0
M  V30 1055 H 107.105 -4.98258 -4.14298 0
M  V30 1056 N 100.511 1.16574 -1.06058 0
M  V30 1057 C 101.441 2.23057 -0.690488 0
M  V30 1058 C 102.422 1.67141 0.315901 0
M  V30 1059 O 103.607 1.93253 0.191556 0
M  V30 1060 C 100.737 3.47222 -0.073625 0
M  V30 1061 C 99.6908 4.16016 -1.00573 0
M  V30 1062 C 99.0168 5.34104 -0.252289 0
M  V30 1063 C 100.317 4.67264 -2.33371 0
M  V30 1064 H 102.011 2.54271 -1.58072 0
M  V30 1065 H 99.5568 1.22218 -0.76149 0
M  V30 1066 H 101.51 4.20939 0.19714 0
M  V30 1067 H 100.234 3.15302 0.85161 0
M  V30 1068 H 98.8928 3.44223 -1.2612 0
M  V30 1069 H 98.5408 4.98437 0.675988 0
M  V30 1070 H 98.2408 5.81072 -0.873455 0
M  V30 1071 H 99.7648 6.10599 0.0109857 0
M  V30 1072 H 101.179 5.32573 -2.12223 0
M  V30 1073 H 99.5758 5.24843 -2.90963 0
M  V30 1074 H 100.646 3.83602 -2.96611 0
M  V30 1075 N 101.989 0.842826 1.3317 0
M  V30 1076 C 103.405 0.531128 1.50503 0
M  V30 1077 C 103.605 -0.940734 1.78192 0
M  V30 1078 O 102.661 -1.72436 1.84451 0
M  V30 1079 C 103.974 1.40789 2.65705 0
M  V30 1080 C 105.522 1.40708 2.79589 0
M  V30 1081 C 105.997 2.26878 3.97857 0
M  V30 1082 N 107.488 2.24609 4.05099 0
M  V30 1083 C 108.223 2.88019 4.95815 0
M  V30 1084 N 107.719 3.60496 5.9162 0
M  V30 1085 N 109.512 2.77469 4.88843 0
M  V30 1086 H 101.663 1.79557 1.1346 0
M  V30 1087 H 103.926 0.766267 0.558156 0
M  V30 1088 H 103.632 2.454 2.51936 0
M  V30 1089 H 103.506 1.08677 3.61205 0
M  V30 1090 H 105.893 0.368668 2.92788 0
M  V30 1091 H 105.974 1.76829 1.84838 0
M  V30 1092 H 105.618 3.3078 3.85418 0
M  V30 1093 H 105.548 1.88096 4.91861 0
M  V30 1094 H 108.039 1.71906 3.36536 0
M  V30 1095 H 108.352 4.06076 6.57512 0
M  V30 1096 H 106.697 3.64604 5.91683 0
M  V30 1097 H 109.888 2.20406 4.12963 0
M  V30 1098 H 110.061 3.2717 5.59342 0
M  V30 1099 N 103.467 -1.45747 0.599634 0
M  V30 1100 C 104.878 -1.85853 0.177681 0
M  V30 1101 C 105.229 -1.50102 -1.26348 0
M  V30 1102 O 104.354 -0.923905 -1.95686 0
M  V30 1103 C 104.949 -3.37326 0.315688 0
M  V30 1104 C 103.508 -3.76365 -0.0515144 0
M  V30 1105 C 102.655 -2.69722 0.643822 0
M  V30 1106 H 105.606 -1.36661 0.806814 0
M  V30 1107 H 105.627 -3.77778 -0.454321 0
M  V30 1108 H 105.139 -3.63315 1.36468 0
M  V30 1109 H 103.24 -3.55993 -1.09999 0
M  V30 1110 H 103.353 -4.77916 0.336594 0
M  V30 1111 H 101.717 -2.54567 0.0822881 0
M  V30 1112 H 102.5 -2.98549 1.6948 0
M  V30 1113 N 104.945 -0.338344 -1.53925 0
M  V30 1114 C 105.875 0.51328 -2.27789 0
M  V30 1115 C 106.856 1.107 -1.29149 0
M  V30 1116 O 108.041 1.12937 -1.57984 0
M  V30 1117 C 105.171 1.66697 -3.04679 0
M  V30 1118 C 104.125 1.20183 -4.1078 0
M  V30 1119 C 103.451 2.44363 -4.75595 0
M  V30 1120 C 104.751 0.30605 -5.21403 0
M  V30 1121 H 106.445 -0.102883 -2.99223 0
M  V30 1122 H 103.991 -0.0509219 -1.4391 0
M  V30 1123 H 105.944 2.26915 -3.55088 0
M  V30 1124 H 104.668 2.30995 -2.30887 0
M  V30 1125 H 103.327 0.622499 -3.61276 0
M  V30 1126 H 102.975 3.07057 -3.98403 0
M  V30 1127 H 102.675 2.13925 -5.47275 0
M  V30 1128 H 104.199 3.05317 -5.28786 0
M  V30 1129 H 105.613 0.814929 -5.67478 0
M  V30 1130 H 104.01 0.0937929 -6.00027 0
M  V30 1131 H 105.08 -0.65921 -4.80398 0
M  V30 1132 N 106.423 1.57458 -0.0668435 0
M  V30 1133 C 107.648 1.9804 0.616027 0
M  V30 1134 C 108.073 0.944771 1.62652 0
M  V30 1135 O 107.431 -0.0902094 1.81075 0
M  V30 1136 C 107.479 3.37665 1.26549 0
M  V30 1137 O 106.583 3.36701 2.38131 0
M  V30 1138 H 105.924 0.644719 0.158849 0
M  V30 1139 H 108.454 2.04121 -0.139891 0
M  V30 1140 H 108.464 3.7474 1.6135 0
M  V30 1141 H 107.139 4.12573 0.525016 0
M  V30 1142 H 105.716 3.1139 2.0516 0
M  V30 1143 N 107.901 -0.206675 1.56239 0
M  V30 1144 C 109.131 -0.943975 1.83773 0
M  V30 1145 C 109.539 -1.77841 0.645703 0
M  V30 1146 O 108.882 -1.79403 -0.395008 0
M  V30 1147 C 108.944 -1.899 3.05251 0
M  V30 1148 C 108.608 -1.24764 4.39639 0
M  V30 1149 C 109.605 -0.630216 5.16066 0
M  V30 1150 C 107.29 -1.25496 4.8637 0
M  V30 1151 C 109.284 -0.0287946 6.37393 0
M  V30 1152 C 106.971 -0.649698 6.07637 0
M  V30 1153 C 107.969 -0.0376845 6.8299 0
M  V30 1154 O 107.657 0.55812 8.0196 0
M  V30 1155 H 107.389 -0.281508 0.614597 0
M  V30 1156 H 109.943 -0.222458 2.04192 0
M  V30 1157 H 108.173 -2.6599 2.80689 0
M  V30 1158 H 109.862 -2.5031 3.1953 0
M  V30 1159 H 110.628 -0.616785 4.81062 0
M  V30 1160 H 106.507 -1.72072 4.27683 0
M  V30 1161 H 110.051 0.449518 6.9615 0
M  V30 1162 H 105.948 -0.660592 6.42111 0
M  V30 1163 H 106.716 0.453891 8.17241 0
M  V30 1164 N 109.379 -1.50304 -0.473955 0
M  V30 1165 C 110.79 -1.54042 -1.0549 0
M  V30 1166 C 111.141 -0.342248 -1.93192 0
M  V30 1167 O 110.266 0.545157 -2.09421 0
M  V30 1168 C 110.861 -2.79152 -1.91989 0
M  V30 1169 C 109.42 -2.8558 -2.45196 0
M  V30 1170 C 108.567 -2.48295 -1.2347 0
M  V30 1171 H 111.518 -1.5661 -0.256693 0
M  V30 1172 H 111.539 -2.60845 -2.7702 0
M  V30 1173 H 111.051 -3.66339 -1.28131 0
M  V30 1174 H 109.152 -2.02738 -3.12615 0
M  V30 1175 H 109.265 -3.88403 -2.80499 0
M  V30 1176 H 107.629 -2.00669 -1.56856 0
M  V30 1177 H 108.412 -3.37787 -0.612789 0
M  V30 1178 N 110.857 0.726932 -1.39834 0
M  V30 1179 C 112.134 1.47902 -1.28001 0
M  V30 1180 C 112.514 2.1083 0.106789 0
M  V30 1181 O 111.862 1.99242 1.11869 0
M  V30 1182 C 112.072 2.52392 -2.41038 0
M  V30 1183 C 113.42 3.18546 -2.80737 0
M  V30 1184 O 114.444 2.62708 -2.40547 0
M  V30 1185 O 113.303 4.19604 -3.50135 0
M  V30 1186 H 110.397 0.657163 -0.502062 0
M  V30 1187 H 112.943 0.760071 -1.51727 0
M  V30 1188 H 111.715 2.04329 -3.33715 0
M  V30 1189 H 111.338 3.31837 -2.19021 0
M  V30 1190 N 112.336 1.25143 0.95797 0
M  V30 1191 C 113.564 1.12424 1.73691 0
M  V30 1192 C 113.979 -0.322304 1.86029 0
M  V30 1193 O 113.336 -1.22186 1.35561 0
M  V30 1194 C 113.387 1.76933 3.15241 0
M  V30 1195 O 113.108 3.15932 3.03511 0
M  V30 1196 C 114.609 1.6995 4.09429 0
M  V30 1197 H 111.829 0.3923 0.544373 0
M  V30 1198 H 114.373 1.6544 1.20207 0
M  V30 1199 H 112.528 1.27895 3.6568 0
M  V30 1200 H 112.942 3.47598 3.9278 0
M  V30 1201 H 114.416 2.19753 5.06372 0
M  V30 1202 H 114.893 0.662619 4.34173 0
M  V30 1203 H 115.499 2.18461 3.64904 0
M  V30 1204 N 113.814 -1.1601 1.06675 0
M  V30 1205 C 115.091 -1.82679 0.699114 0
M  V30 1206 C 115.471 -1.94559 -0.819137 0
M  V30 1207 O 114.819 -1.49169 -1.73092 0
M  V30 1208 C 115.029 -3.19445 1.40555 0
M  V30 1209 C 116.377 -3.95171 1.55323 0
M  V30 1210 O 117.401 -3.28976 1.36577 0
M  V30 1211 O 116.26 -5.13833 1.86112 0
M  V30 1212 H 113.354 -0.788954 0.247951 0
M  V30 1213 H 115.9 -1.23179 1.16726 0
M  V30 1214 H 114.672 -3.05856 2.44065 0
M  V30 1215 H 114.295 -3.86625 0.927733 0
M  V30 1216 N 115.292 -0.849877 -1.32721 0
M  V30 1217 C 116.538 -0.451591 -1.97708 0
M  V30 1218 C 116.871 0.989175 -1.6712 0
M  V30 1219 O 116.146 1.69334 -0.956891 0
M  V30 1220 C 116.429 -0.685598 -3.53513 0
M  V30 1221 C 116.282 -2.17444 -3.93749 0
M  V30 1222 C 117.601 -0.138874 -4.39881 0
M  V30 1223 H 114.72 -0.16555 -0.718166 0
M  V30 1224 H 117.362 -1.06742 -1.57182 0
M  V30 1225 H 115.512 -0.161416 -3.88165 0
M  V30 1226 H 117.184 -2.76433 -3.693 0
M  V30 1227 H 115.427 -2.65476 -3.43081 0
M  V30 1228 H 116.098 -2.28888 -5.02309 0
M  V30 1229 H 118.574 -0.587068 -4.11938 0
M  V30 1230 H 117.45 -0.332213 -5.47894 0
M  V30 1231 H 117.711 0.95806 -4.31594 0
M  V30 1232 N 116.77 1.45427 -0.607355 0
M  V30 1233 C 118.019 2.01452 -0.100036 0
M  V30 1234 C 118.332 1.48159 1.27704 0
M  V30 1235 O 119.538 1.96159 1.87707 0
M  V30 1236 C 117.994 3.59672 -0.128158 0
M  V30 1237 C 117.602 4.21962 -1.50507 0
M  V30 1238 C 119.346 4.23262 0.323932 0
M  V30 1239 C 117.253 5.72333 -1.48959 0
M  V30 1240 H 116.183 0.75325 -0.0336299 0
M  V30 1241 H 118.834 1.66901 -0.76265 0
M  V30 1242 H 117.216 3.91411 0.601105 0
M  V30 1243 H 118.39 4.01796 -2.25602 0
M  V30 1244 H 116.705 3.70565 -1.89923 0
M  V30 1245 H 119.302 5.33522 0.354691 0
M  V30 1246 H 119.645 3.93921 1.34656 0
M  V30 1247 H 120.178 3.96239 -0.352056 0
M  V30 1248 H 116.917 6.06373 -2.48981 0
M  V30 1249 H 116.437 5.94691 -0.781214 0
M  V30 1250 H 118.116 6.35525 -1.21313 0
M  V30 1251 N 118.248 0.346503 1.53744 0
M  V30 1252 C 119.178 -0.501193 2.28058 0
M  V30 1253 C 120.159 -1.10014 1.29734 0
M  V30 1254 O 121.344 -1.12097 1.58581 0
M  V30 1255 C 118.474 -1.65078 3.05559 0
M  V30 1256 C 117.428 -1.18003 4.11411 0
M  V30 1257 C 116.754 -2.41837 4.76884 0
M  V30 1258 C 118.054 -0.278394 5.21558 0
M  V30 1259 H 119.748 0.11875 2.99164 0
M  V30 1260 H 117.294 0.0585531 1.43881 0
M  V30 1261 H 119.247 -2.25028 3.56287 0
M  V30 1262 H 117.971 -2.29767 2.32109 0
M  V30 1263 H 116.63 -0.603331 3.61601 0
M  V30 1264 H 116.278 -3.0494 4.00026 0
M  V30 1265 H 115.978 -2.1102 5.48402 0
M  V30 1266 H 117.502 -3.02508 5.30397 0
M  V30 1267 H 118.916 -0.784823 5.67903 0
M  V30 1268 H 117.313 -0.0619707 6.00068 0
M  V30 1269 H 118.383 0.684677 4.80042 0
M  V30 1270 N 119.726 -1.57421 0.075193 0
M  V30 1271 C 120.659 -2.08528 -0.926904 0
M  V30 1272 C 121.637 -0.991171 -1.28898 0
M  V30 1273 O 122.821 -1.26479 -1.39769 0
M  V30 1274 C 119.948 -2.54576 -2.23402 0
M  V30 1275 C 118.994 -3.75454 -2.02327 0
M  V30 1276 S 119.827 -5.19989 -1.27951 0
M  V30 1277 C 120.983 -5.69372 -2.59935 0
M  V30 1278 H 121.216 -2.932 -0.492048 0
M  V30 1279 H 118.749 -1.53785 -0.137651 0
M  V30 1280 H 120.707 -2.81767 -2.98526 0
M  V30 1281 H 119.368 -1.70166 -2.64012 0
M  V30 1282 H 118.561 -4.05675 -2.99071 0
M  V30 1283 H 118.163 -3.48654 -1.35339 0
M  V30 1284 H 120.455 -5.76424 -3.56008 0
M  V30 1285 H 121.398 -6.68207 -2.34319 0
M  V30 1286 H 121.806 -4.97205 -2.67296 0
M  V30 1287 N 121.204 0.198386 -1.56346 0
M  V30 1288 C 122.444 0.92609 -1.82217 0
M  V30 1289 C 122.808 1.80584 -0.652195 0
M  V30 1290 O 124.009 2.56907 -0.790716 0
M  V30 1291 C 122.28 1.72354 -3.13096 0
M  V30 1292 S 123.839 2.50371 -3.6036 0
M  V30 1293 H 120.657 0.310677 -0.639532 0
M  V30 1294 H 123.259 0.189755 -1.94577 0
M  V30 1295 H 121.963 1.0678 -3.96265 0
M  V30 1296 H 121.494 2.50175 -3.03605 0
M  V30 1297 H 123.509 3.74488 -3.25535 0
M  V30 1298 N 122.682 1.50554 0.465978 0
M  V30 1299 C 123.929 1.61798 1.21768 0
M  V30 1300 C 124.257 0.320696 1.91838 0
M  V30 1301 O 123.512 -0.693724 1.82992 0
M  V30 1302 C 123.811 2.75152 2.28093 0
M  V30 1303 C 123.477 4.15454 1.75239 0
M  V30 1304 C 122.139 4.53628 1.60546 0
M  V30 1305 C 124.491 5.03121 1.36083 0
M  V30 1306 C 121.819 5.77204 1.05128 0
M  V30 1307 C 124.171 6.27249 0.821056 0
M  V30 1308 C 122.835 6.64221 0.660795 0
M  V30 1309 H 122.105 0.592063 0.445582 0
M  V30 1310 H 124.752 1.84503 0.512927 0
M  V30 1311 H 123.057 2.46556 3.04496 0
M  V30 1312 H 124.754 2.81055 2.86023 0
M  V30 1313 H 121.344 3.85341 1.87644 0
M  V30 1314 H 125.528 4.74257 1.46267 0
M  V30 1315 H 120.784 6.0452 0.91462 0
M  V30 1316 H 124.958 6.94537 0.509018 0
M  V30 1317 H 122.585 7.59854 0.229226 0
M  V30 1318 N 124.16 -0.719506 1.40217 0
M  V30 1319 C 125.385 -1.51371 1.4178 0
M  V30 1320 C 125.81 -1.88091 0.0182355 0
M  V30 1321 O 125.168 -1.52997 -0.972707 0
M  V30 1322 C 125.216 -2.768 2.31115 0
M  V30 1323 O 124.32 -3.73349 1.7517 0
M  V30 1324 H 123.661 -0.456529 0.482159 0
M  V30 1325 H 126.191 -0.88644 1.844 0
M  V30 1326 H 126.201 -3.25371 2.46167 0
M  V30 1327 H 124.876 -2.49407 3.3282 0
M  V30 1328 H 123.453 -3.32179 1.69444 0
M  V30 1329 N 125.638 -1.25649 -0.95132 0
M  V30 1330 C 126.884 -1.10757 -1.69884 0
M  V30 1331 C 127.217 0.350061 -1.91019 0
M  V30 1332 O 126.492 1.25783 -1.48354 0
M  V30 1333 C 126.775 -1.86606 -3.07978 0
M  V30 1334 C 126.628 -3.40217 -2.94232 0
M  V30 1335 C 127.947 -1.65182 -4.07925 0
M  V30 1336 H 125.066 -0.40374 -0.616574 0
M  V30 1337 H 127.708 -1.54521 -1.10558 0
M  V30 1338 H 125.858 -1.49409 -3.58621 0
M  V30 1339 H 127.53 -3.87108 -2.50889 0
M  V30 1340 H 125.773 -3.67759 -2.30078 0
M  V30 1341 H 126.444 -3.88505 -3.92133 0
M  V30 1342 H 128.92 -1.9757 -3.66204 0
M  V30 1343 H 127.796 -2.20683 -5.02583 0
M  V30 1344 H 128.057 -0.593933 -4.38092 0
M  V30 1345 N 127.117 1.15442 -1.07289 0
M  V30 1346 C 128.394 1.82306 -0.708792 0
M  V30 1347 C 128.774 1.94991 0.808807 0
M  V30 1348 O 128.122 1.50085 1.72298 0
M  V30 1349 C 128.332 3.18695 -1.42247 0
M  V30 1350 C 129.68 3.94341 -1.57417 0
M  V30 1351 O 130.704 3.28247 -1.38319 0
M  V30 1352 O 129.563 5.12839 -1.88834 0
M  V30 1353 H 126.657 0.787628 -0.252132 0
M  V30 1354 H 129.203 1.22559 -1.17377 0
M  V30 1355 H 127.975 3.04557 -2.45684 0
M  V30 1356 H 127.598 3.86128 -0.948223 0
M  V30 1357 N 128.595 0.856903 1.32268 0
M  V30 1358 C 129.82 0.474569 2.01897 0
M  V30 1359 C 130.245 -0.921766 1.63967 0
M  V30 1360 O 129.603 -1.60589 0.84148 0
M  V30 1361 C 129.651 0.623799 3.55164 0
M  V30 1362 O 128.755 -0.342459 4.10976 0
M  V30 1363 H 128.096 0.190422 0.63611 0
M  V30 1364 H 130.626 1.15672 1.68764 0
M  V30 1365 H 130.636 0.512169 4.04773 0
M  V30 1366 H 129.311 1.64202 3.82113 0
M  V30 1367 H 127.888 -0.18688 3.72431 0
M  V30 1368 N 130.073 -1.45103 0.615059 0
M  V30 1369 C 131.484 -1.85654 0.197383 0
M  V30 1370 C 131.835 -1.51433 -1.24749 0
M  V30 1371 O 130.96 -0.944608 -1.94695 0
M  V30 1372 C 131.555 -3.36972 0.351448 0
M  V30 1373 C 130.114 -3.76398 -0.011593 0
M  V30 1374 C 129.261 -2.69024 0.672394 0
M  V30 1375 H 132.212 -1.35797 0.821263 0
M  V30 1376 H 132.233 -3.78239 -0.414227 0
M  V30 1377 H 131.745 -3.61847 1.40314 0
M  V30 1378 H 129.846 -3.5714 -1.06217 0
M  V30 1379 H 129.959 -4.77532 0.387265 0
M  V30 1380 H 128.323 -2.54465 0.109284 0
M  V30 1381 H 129.106 -2.96735 1.72636 0
M  V30 1382 N 131.551 -0.354651 -1.53558 0
M  V30 1383 C 132.828 0.294281 -1.93374 0
M  V30 1384 C 133.208 1.67313 -1.28723 0
M  V30 1385 O 132.556 2.24179 -0.442247 0
M  V30 1386 C 132.766 0.355445 -3.47185 0
M  V30 1387 C 134.114 0.601007 -4.20325 0
M  V30 1388 O 135.138 0.437106 -3.53508 0
M  V30 1389 O 133.997 0.919322 -5.38712 0
M  V30 1390 H 131.091 0.174033 -0.808481 0
M  V30 1391 H 133.637 -0.406638 -1.64756 0
M  V30 1392 H 132.409 -0.611729 -3.86489 0
M  V30 1393 H 132.032 1.1027 -3.82003 0
M  V30 1394 N 133.029 1.57378 -0.0835403 0
M  V30 1395 C 134.254 1.98682 0.594987 0
M  V30 1396 C 134.679 0.961969 1.61641 0
M  V30 1397 O 134.037 -0.0709989 1.81161 0
M  V30 1398 C 134.085 3.38988 1.2296 0
M  V30 1399 O 133.189 3.39208 2.34546 0
M  V30 1400 H 132.53 0.646368 0.152002 0
M  V30 1401 H 135.06 2.03961 -0.161533 0
M  V30 1402 H 135.07 3.76431 1.57366 0
M  V30 1403 H 133.745 4.13107 0.481228 0
M  V30 1404 H 132.322 3.13548 2.01846 0
M  V30 1405 N 134.507 -0.190092 1.56449 0
M  V30 1406 C 135.437 -1.23816 1.97969 0
M  V30 1407 C 136.418 -1.47201 0.852395 0
M  V30 1408 O 137.603 -1.58854 1.1171 0
M  V30 1409 C 134.733 -2.5813 2.3235 0
M  V30 1410 C 133.687 -2.49348 3.47864 0
M  V30 1411 C 133.013 -3.8798 3.67934 0
M  V30 1412 C 134.313 -2.01424 4.81898 0
M  V30 1413 H 136.007 -0.89311 2.85769 0
M  V30 1414 H 133.553 -0.428177 1.37487 0
M  V30 1415 H 135.506 -3.31637 2.59991 0
M  V30 1416 H 134.23 -2.94386 1.41438 0
M  V30 1417 H 132.889 -1.78297 3.20321 0
M  V30 1418 H 132.537 -4.21597 2.74344 0
M  V30 1419 H 132.237 -3.82978 4.45648 0
M  V30 1420 H 133.761 -4.63101 3.97957 0
M  V30 1421 H 135.175 -2.64693 5.08538 0
M  V30 1422 H 133.572 -2.07413 5.63116 0
M  V30 1423 H 134.642 -0.967677 4.75146 0
M  V30 1424 N 135.985 -1.50799 -0.457987 0
M  V30 1425 C 136.895 -1.73426 -1.57989 0
M  V30 1426 C 137.911 -0.617745 -1.62665 0
M  V30 1427 O 139.087 -0.897614 -1.80291 0
M  V30 1428 C 136.152 -1.83557 -2.94122 0
M  V30 1429 C 135.213 -3.07345 -2.99729 0
M  V30 1430 C 134.446 -3.16983 -4.29368 0
M  V30 1431 O 134.669 -2.33077 -5.20607 0
M  V30 1432 O 133.603 -4.09812 -4.40837 0
M  V30 1433 H 137.429 -2.68555 -1.41817 0
M  V30 1434 H 135.014 -1.35052 -0.638859 0
M  V30 1435 H 136.896 -1.92326 -3.74952 0
M  V30 1436 H 135.571 -0.916137 -3.10465 0
M  V30 1437 H 134.478 -3.04068 -2.1793 0
M  V30 1438 H 135.811 -3.9891 -2.88326 0
M  V30 1439 N 137.463 0.71206 -1.40597 0
M  V30 1440 C 138.411 1.84746 -1.41321 0
M  V30 1441 C 139.405 1.66842 -0.293268 0
M  V30 1442 O 140.611 1.73904 -0.464481 0
M  V30 1443 H 136.986 0.608522 -0.441819 0
M  V30 1444 H 138.957 1.81252 -2.37045 0
M  V30 1445 C 137.706 3.22638 -1.29614 0
M  V30 1446 H 137.029 3.37023 -2.15071 0
M  V30 1447 H 138.469 4.02209 -1.3418 0
M  V30 1448 C 136.928 3.36899 -0.00673121 0
M  V30 1449 O 137.458 3.90186 0.954859 0
M  V30 1450 N 135.664 2.9053 0.0639327 0
M  V30 1451 H 135.211 2.47353 -0.719311 0
M  V30 1452 H 135.169 3.0045 0.926118 0
M  V30 1453 N 138.941 1.26152 0.944643 0
M  V30 1454 C 140.19 1.10883 1.68487 0
M  V30 1455 C 140.503 -0.348153 1.92477 0
M  V30 1456 O 141.709 -0.621459 2.64292 0
M  V30 1457 C 140.165 1.93624 3.03377 0
M  V30 1458 C 139.773 3.43875 2.87148 0
M  V30 1459 C 141.517 1.86954 3.81115 0
M  V30 1460 C 139.424 4.18875 4.1749 0
M  V30 1461 H 138.354 0.41135 0.631907 0
M  V30 1462 H 141.005 1.50433 1.05082 0
M  V30 1463 H 139.387 1.46904 3.67743 0
M  V30 1464 H 140.561 3.98338 2.31653 0
M  V30 1465 H 138.876 3.51744 2.22856 0
M  V30 1466 H 141.473 2.40275 4.77673 0
M  V30 1467 H 141.816 0.839518 4.07747 0
M  V30 1468 H 142.349 2.31477 3.23517 0
M  V30 1469 H 139.088 5.22332 3.96043 0
M  V30 1470 H 138.608 3.69193 4.72712 0
M  V30 1471 H 140.287 4.27134 4.85968 0
M  V30 1472 N 140.419 -1.14872 1.07899 0
M  V30 1473 C 141.83 -1.67367 0.827363 0
M  V30 1474 C 142.181 -1.85236 -0.646693 0
M  V30 1475 O 141.306 -1.55974 -1.50004 0
M  V30 1476 C 141.901 -3.04016 1.49532 0
M  V30 1477 C 140.46 -3.53566 1.29106 0
M  V30 1478 C 139.607 -2.29161 1.56143 0
M  V30 1479 H 142.558 -0.990083 1.24028 0
M  V30 1480 H 142.579 -3.69219 0.919643 0
M  V30 1481 H 142.091 -2.90978 2.56814 0
M  V30 1482 H 140.192 -3.71835 0.238713 0
M  V30 1483 H 140.305 -4.34661 2.01511 0
M  V30 1484 H 138.669 -2.34978 0.982717 0
M  V30 1485 H 139.452 -2.18705 2.64619 0
M  V30 1486 N 141.898 -0.863906 -1.31812 0
M  V30 1487 C 142.808 -0.318461 -2.32428 0
M  V30 1488 C 143.824 0.568496 -1.64451 0
M  V30 1489 O 145 0.46666 -1.95919 0
M  V30 1490 C 142.065 0.476355 -3.43412 0
M  V30 1491 C 141.126 -0.43784 -4.27061 0
M  V30 1492 C 140.359 0.319138 -5.32745 0
M  V30 1493 O 140.582 1.54799 -5.48993 0
M  V30 1494 O 139.516 -0.319861 -6.01049 0
M  V30 1495 H 143.342 -1.15229 -2.80991 0
M  V30 1496 H 140.927 -0.627103 -1.35602 0
M  V30 1497 H 142.809 0.927156 -4.11074 0
M  V30 1498 H 141.484 1.28683 -2.97022 0
M  V30 1499 H 140.391 -0.937013 -3.62175 0
M  V30 1500 H 141.724 -1.21375 -4.77 0
M  V30 1501 N 143.376 1.44774 -0.622745 0
M  V30 1502 C 144.323 2.30635 0.0871679 0
M  V30 1503 C 145.293 1.42994 0.845097 0
M  V30 1504 O 146.478 1.71907 0.827812 0
M  V30 1505 C 143.618 3.28144 1.06844 0
M  V30 1506 C 142.731 4.30888 0.309809 0
M  V30 1507 C 141.866 5.15494 1.28215 0
M  V30 1508 C 140.905 6.09953 0.512198 0
M  V30 1509 N 140.042 6.87287 1.43458 0
M  V30 1510 H 144.882 2.90803 -0.650974 0
M  V30 1511 H 142.419 1.43286 -0.33281 0
M  V30 1512 H 144.377 3.83157 1.65066 0
M  V30 1513 H 143.007 2.69695 1.77382 0
M  V30 1514 H 142.059 3.78414 -0.388181 0
M  V30 1515 H 143.371 4.97955 -0.290254 0
M  V30 1516 H 142.525 5.74983 1.93596 0
M  V30 1517 H 141.264 4.48481 1.91614 0
M  V30 1518 H 140.269 5.49581 -0.155151 0
M  V30 1519 H 141.494 6.78999 -0.116958 0
M  V30 1520 H 139.44 6.2295 2.05594 0
M  V30 1521 H 139.357 7.50763 0.888335 0
M  V30 1522 H 140.625 7.51306 2.07749 0
M  V30 1523 N 144.854 0.36279 1.53368 0
M  V30 1524 C 146.1 -0.220702 2.02199 0
M  V30 1525 C 146.455 -1.46649 1.24546 0
M  V30 1526 O 145.748 -1.88737 0.32996 0
M  V30 1527 C 145.942 -0.568417 3.52851 0
M  V30 1528 C 145.771 0.642126 4.45092 0
M  V30 1529 C 144.541 1.15335 4.91961 0
M  V30 1530 C 146.739 1.50649 4.91741 0
M  V30 1531 N 144.721 2.3242 5.68202 0
M  V30 1532 C 146.092 2.52404 5.66297 0
M  V30 1533 C 148.147 1.52969 4.73819 0
M  V30 1534 C 146.85 3.56331 6.24836 0
M  V30 1535 C 148.876 2.55789 5.33222 0
M  V30 1536 C 148.238 3.56268 6.07662 0
M  V30 1537 H 144.337 -0.0435508 0.780786 0
M  V30 1538 H 146.921 0.506704 1.87991 0
M  V30 1539 H 145.092 -1.2649 3.67226 0
M  V30 1540 H 146.824 -1.13676 3.88407 0
M  V30 1541 H 143.579 0.718412 4.68119 0
M  V30 1542 H 144.003 2.91591 6.10986 0
M  V30 1543 H 148.645 0.766418 4.15795 0
M  V30 1544 H 146.363 4.33543 6.81958 0
M  V30 1545 H 149.949 2.58435 5.21251 0
M  V30 1546 H 148.829 4.34524 6.52808 0
M  V30 1547 N 146.332 -1.57332 0.0918853 0
M  V30 1548 C 147.578 -1.94524 -0.573425 0
M  V30 1549 C 147.911 -0.973578 -1.68033 0
M  V30 1550 O 147.186 -0.00609226 -1.94499 0
M  V30 1551 C 147.469 -3.41858 -1.13161 0
M  V30 1552 C 147.322 -4.4979 -0.0299747 0
M  V30 1553 C 148.641 -3.90435 -2.03098 0
M  V30 1554 H 145.76 -0.70734 -0.206975 0
M  V30 1555 H 148.402 -1.89309 0.161942 0
M  V30 1556 H 146.552 -3.46433 -1.7583 0
M  V30 1557 H 148.224 -4.57327 0.604112 0
M  V30 1558 H 146.467 -4.291 0.636833 0
M  V30 1559 H 147.138 -5.50069 -0.461287 0
M  V30 1560 H 149.614 -3.87992 -1.50338 0
M  V30 1561 H 148.49 -4.94097 -2.39081 0
M  V30 1562 H 148.751 -3.29541 -2.94712 0
M  V30 1563 N 147.81 0.181792 -1.56548 0
M  V30 1564 C 149.221 0.745244 -1.71181 0
M  V30 1565 C 149.572 1.83262 -0.70068 0
M  V30 1566 O 148.697 2.15946 0.140154 0
M  V30 1567 C 149.292 1.35859 -3.10367 0
M  V30 1568 C 147.851 1.86898 -3.2672 0
M  V30 1569 C 146.998 0.743942 -2.67134 0
M  V30 1570 H 149.949 -0.0434661 -1.5864 0
M  V30 1571 H 149.97 2.22817 -3.08436 0
M  V30 1572 H 149.482 0.566948 -3.83937 0
M  V30 1573 H 147.583 2.68738 -2.5809 0
M  V30 1574 H 147.696 2.02162 -4.34359 0
M  V30 1575 H 146.06 1.16169 -2.26665 0
M  V30 1576 H 146.843 -0.035676 -3.43281 0
M  V30 1577 N 149.288 1.51039 0.449983 0
M  V30 1578 C 150.198 1.74261 1.57067 0
M  V30 1579 C 151.214 0.626363 1.62335 0
M  V30 1580 O 152.39 0.907162 1.79812 0
M  V30 1581 C 149.455 1.85114 2.93144 0
M  V30 1582 C 148.516 3.0893 2.98095 0
M  V30 1583 C 147.749 3.19256 4.27681 0
M  V30 1584 O 147.972 2.35835 5.19363 0
M  V30 1585 O 146.906 4.12144 4.38658 0
M  V30 1586 H 150.732 2.69303 1.40391 0
M  V30 1587 H 148.317 1.35389 0.631688 0
M  V30 1588 H 150.199 1.94311 3.73926 0
M  V30 1589 H 148.874 0.932588 3.09975 0
M  V30 1590 H 147.781 3.0522 2.16314 0
M  V30 1591 H 149.114 4.00433 2.86206 0
M  V30 1592 N 150.766 -0.704594 1.40972 0
M  V30 1593 C 152.012 -1.46675 1.40051 0
M  V30 1594 C 152.345 -1.94199 0.00641102 0
M  V30 1595 O 151.62 -1.68916 -0.964235 0
M  V30 1596 C 151.903 -2.68505 2.39952 0
M  V30 1597 C 151.756 -2.26805 3.88432 0
M  V30 1598 C 153.075 -3.70686 2.37233 0
M  V30 1599 H 150.194 -0.532015 0.510028 0
M  V30 1600 H 152.836 -0.803255 1.72185 0
M  V30 1601 H 150.986 -3.25114 2.1268 0
M  V30 1602 H 152.658 -1.75592 4.26574 0
M  V30 1603 H 150.901 -1.58685 4.03734 0
M  V30 1604 H 151.572 -3.14181 4.53866 0
M  V30 1605 H 154.048 -3.23731 2.61415 0
M  V30 1606 H 152.924 -4.53553 3.09162 0
M  V30 1607 H 153.185 -4.19754 1.38777 0
M  V30 1608 N 152.244 -1.26651 -0.937939 0
M  V30 1609 C 153.191 -1.0849 -2.03712 0
M  V30 1610 C 154.161 0.011033 -1.66096 0
M  V30 1611 O 155.346 -0.149353 -1.90215 0
M  V30 1612 C 152.486 -0.72735 -3.37348 0
M  V30 1613 C 151.599 -1.89986 -3.87981 0
M  V30 1614 C 150.734 -1.48513 -5.10017 0
M  V30 1615 C 149.773 -2.62575 -5.5292 0
M  V30 1616 N 148.91 -2.21762 -6.66158 0
M  V30 1617 H 153.75 -2.02551 -2.18579 0
M  V30 1618 H 151.287 -1.00844 -1.07093 0
M  V30 1619 H 153.245 -0.50092 -4.14182 0
M  V30 1620 H 151.875 0.176298 -3.22318 0
M  V30 1621 H 150.927 -2.23913 -3.07518 0
M  V30 1622 H 152.239 -2.75586 -4.15757 0
M  V30 1623 H 151.393 -1.21934 -5.94321 0
M  V30 1624 H 150.132 -0.60009 -4.83994 0
M  V30 1625 H 149.137 -2.8988 -4.67172 0
M  V30 1626 H 150.362 -3.51685 -5.80943 0
M  V30 1627 H 148.308 -1.35696 -6.41812 0
M  V30 1628 H 148.225 -3.00903 -6.93537 0
M  V30 1629 H 149.493 -1.98403 -7.53828 0
M  V30 1630 N 153.722 1.14298 -1.08507 0
M  V30 1631 C 154.672 2.17449 -0.685569 0
M  V30 1632 C 155.656 1.58167 0.295315 0
M  V30 1633 O 156.848 1.76675 0.107172 0
M  V30 1634 C 153.977 3.43161 -0.0975318 0
M  V30 1635 C 153.063 4.09471 -1.10426 0
M  V30 1636 N 153.454 4.51089 -2.28806 0
M  V30 1637 C 151.752 4.35976 -0.940258 0
M  V30 1638 C 152.453 5.02654 -2.9277 0
M  V30 1639 N 151.429 4.96927 -2.20374 0
M  V30 1640 H 155.231 2.47369 -1.587 0
M  V30 1641 H 152.745 1.30992 -0.959936 0
M  V30 1642 H 154.742 4.16388 0.20664 0
M  V30 1643 H 153.402 3.14719 0.798872 0
M  V30 1644 H 154.413 4.44097 -2.66455 0
M  V30 1645 H 151.09 4.17386 -0.0977441 0
M  V30 1646 H 152.48 5.44723 -3.93352 0
M  V30 1647 N 155.201 0.870884 1.31352 0
M  V30 1648 C 156.448 0.482273 1.96673 0
M  V30 1649 C 156.776 -0.965638 1.68836 0
M  V30 1650 O 156.031 -1.69514 0.977937 0
M  V30 1651 C 156.33 0.687157 3.50732 0
M  V30 1652 C 155.996 2.108 3.9859 0
M  V30 1653 C 154.658 2.49656 4.1137 0
M  V30 1654 C 157.01 3.03459 4.23748 0
M  V30 1655 C 154.338 3.80412 4.46659 0
M  V30 1656 C 156.69 4.3373 4.60501 0
M  V30 1657 C 155.354 4.725 4.71487 0
M  V30 1658 H 154.624 0.176476 0.719679 0
M  V30 1659 H 157.271 1.10405 1.56471 0
M  V30 1660 H 155.576 -0.0177476 3.91796 0
M  V30 1661 H 157.273 0.366284 3.99324 0
M  V30 1662 H 153.863 1.79633 3.8914 0
M  V30 1663 H 158.047 2.74665 4.13368 0
M  V30 1664 H 153.303 4.1021 4.53362 0
M  V30 1665 H 157.477 5.05578 4.78919 0
M  V30 1666 H 155.104 5.73859 4.98588 0
M  V30 1667 N 156.679 -1.44442 0.630414 0
M  V30 1668 C 157.919 -2.03934 0.137919 0
M  V30 1669 C 158.283 -1.48509 -1.21692 0
M  V30 1670 O 159.484 -1.99499 -1.80149 0
M  V30 1671 C 157.755 -3.57187 0.123373 0
M  V30 1672 S 159.314 -4.37741 -0.304604 0
M  V30 1673 H 156.132 -0.708401 0.0607353 0
M  V30 1674 H 158.734 -1.76835 0.833643 0
M  V30 1675 H 157.438 -3.95032 1.11256 0
M  V30 1676 H 156.969 -3.88895 -0.59362 0
M  V30 1677 H 158.984 -4.71403 -1.54897 0
M  V30 1678 N 158.157 -0.370918 -1.53173 0
M  V30 1679 C 159.568 0.107139 -1.86392 0
M  V30 1680 C 159.919 1.47714 -1.29132 0
M  V30 1681 O 159.044 2.07464 -0.615439 0
M  V30 1682 C 159.639 0.201187 -3.38202 0
M  V30 1683 C 158.198 0.623507 -3.712 0
M  V30 1684 C 157.345 -0.225978 -2.76378 0
M  V30 1685 H 160.296 -0.58951 -1.47345 0
M  V30 1686 H 160.317 1.02377 -3.66468 0
M  V30 1687 H 159.829 -0.796058 -3.79848 0
M  V30 1688 H 157.93 1.62879 -3.35114 0
M  V30 1689 H 158.043 0.394414 -4.77474 0
M  V30 1690 H 156.407 0.305962 -2.52856 0
M  V30 1691 H 157.19 -1.22086 -3.20858 0
M  V30 1692 N 159.635 1.57281 -0.100228 0
M  V30 1693 C 160.583 2.15542 0.874328 0
M  V30 1694 C 161.577 1.09962 1.28859 0
M  V30 1695 O 162.783 1.28298 1.26252 0
M  V30 1696 H 159.158 0.689567 0.300003 0
M  V30 1697 H 161.129 2.96241 0.35829 0
M  V30 1698 C 159.878 2.75454 2.1218 0
M  V30 1699 H 159.201 3.56384 1.81193 0
M  V30 1700 H 160.641 3.19781 2.78417 0
M  V30 1701 C 159.1 1.71602 2.89921 0
M  V30 1702 O 159.63 1.15804 3.84646 0
M  V30 1703 N 157.836 1.41975 2.53558 0
M  V30 1704 H 157.383 1.87539 1.76598 0
M  V30 1705 H 157.341 0.727274 3.05873 0
M  V30 1706 N 161.113 -0.173488 1.56642 0
M  V30 1707 C 162.359 -0.891784 1.8214 0
M  V30 1708 C 162.692 -1.8199 0.677736 0
M  V30 1709 O 161.967 -1.91842 -0.320446 0
M  V30 1710 C 162.25 -1.68933 3.18015 0
M  V30 1711 C 162.103 -0.784487 4.42906 0
M  V30 1712 C 163.422 -2.65748 3.50808 0
M  V30 1713 H 160.541 -0.322761 0.662567 0
M  V30 1714 H 163.183 -0.158095 1.89341 0
M  V30 1715 H 161.333 -2.31482 3.12007 0
M  V30 1716 H 163.005 -0.172046 4.60979 0
M  V30 1717 H 161.248 -0.0924117 4.33702 0
M  V30 1718 H 161.919 -1.37799 5.34524 0
M  V30 1719 H 164.395 -2.13327 3.57255 0
M  V30 1720 H 163.271 -3.18619 4.4696 0
M  V30 1721 H 163.532 -3.45842 2.75401 0
M  V30 1722 N 162.591 -1.51276 -0.441967 0
M  V30 1723 C 164.002 -1.56244 -1.02199 0
M  V30 1724 C 164.353 -0.383149 -1.92422 0
M  V30 1725 O 163.478 0.500613 -2.1053 0
M  V30 1726 C 164.073 -2.83162 -1.86024 0
M  V30 1727 C 162.632 -2.90716 -2.39084 0
M  V30 1728 C 161.779 -2.50858 -1.18175 0
M  V30 1729 H 164.73 -1.5712 -0.223416 0
M  V30 1730 H 164.751 -2.66663 -2.71425 0
M  V30 1731 H 164.263 -3.68974 -1.20331 0
M  V30 1732 H 162.364 -2.09323 -3.08244 0
M  V30 1733 H 162.477 -3.94266 -2.72198 0
M  V30 1734 H 160.841 -2.03951 -1.52565 0
M  V30 1735 H 161.624 -3.3901 -0.541001 0
M  V30 1736 N 164.069 0.697108 -1.41344 0
M  V30 1737 C 165.318 1.45279 -1.39918 0
M  V30 1738 C 165.631 1.95597 -0.0109624 0
M  V30 1739 O 166.837 2.71208 0.125919 0
M  V30 1740 C 165.293 2.62695 -2.46007 0
M  V30 1741 C 164.901 2.19169 -3.90729 0
M  V30 1742 C 166.645 3.40336 -2.53715 0
M  V30 1743 C 164.552 3.33535 -4.88373 0
M  V30 1744 H 163.482 0.545692 -0.520323 0
M  V30 1745 H 166.133 0.756929 -1.67161 0
M  V30 1746 H 164.515 3.34541 -2.11892 0
M  V30 1747 H 165.689 1.54623 -4.34083 0
M  V30 1748 H 164.004 1.54525 -3.86666 0
M  V30 1749 H 166.601 4.2547 -3.2385 0
M  V30 1750 H 166.944 3.85418 -1.5735 0
M  V30 1751 H 167.477 2.75546 -2.86913 0
M  V30 1752 H 164.216 2.93468 -5.86137 0
M  V30 1753 H 163.736 3.96936 -4.49668 0
M  V30 1754 H 165.415 3.99335 -5.09059 0
M  V30 1755 N 165.547 1.27147 0.931209 0
M  V30 1756 C 166.796 1.12664 1.67302 0
M  V30 1757 C 167.109 -0.327718 1.92835 0
M  V30 1758 O 168.315 -0.593392 2.64936 0
M  V30 1759 C 166.771 1.9683 3.01307 0
M  V30 1760 C 166.379 3.46901 2.83485 0
M  V30 1761 C 168.123 1.90985 3.79111 0
M  V30 1762 C 166.03 4.23279 4.13024 0
M  V30 1763 H 164.96 0.41803 0.627509 0
M  V30 1764 H 167.611 1.51539 1.03481 0
M  V30 1765 H 165.993 1.50797 3.66164 0
M  V30 1766 H 167.167 4.00773 2.27415 0
M  V30 1767 H 165.482 3.54088 2.19113 0
M  V30 1768 H 168.079 2.45328 4.75098 0
M  V30 1769 H 168.422 0.882718 4.06834 0
M  V30 1770 H 168.955 2.34895 3.21044 0
M  V30 1771 H 165.694 5.26503 3.90481 0
M  V30 1772 H 165.214 3.74186 4.6877 0
M  V30 1773 H 166.893 4.32265 4.81411 0
M  V30 1774 N 167.025 -1.13721 1.09112 0
M  V30 1775 C 167.955 -2.21148 0.749385 0
M  V30 1776 C 168.936 -1.6792 -0.271475 0
M  V30 1777 O 170.121 -1.93693 -0.140251 0
M  V30 1778 C 167.251 -3.46905 0.165659 0
M  V30 1779 C 166.205 -4.13203 1.11567 0
M  V30 1780 C 165.531 -5.33248 0.393809 0
M  V30 1781 C 166.831 -4.60912 2.45678 0
M  V30 1782 H 168.525 -2.4999 1.64758 0
M  V30 1783 H 166.071 -1.20156 0.793626 0
M  V30 1784 H 168.024 -4.21313 -0.085466 0
M  V30 1785 H 166.748 -3.17449 -0.767714 0
M  V30 1786 H 165.407 -3.40758 1.35202 0
M  V30 1787 H 165.055 -5.00054 -0.543599 0
M  V30 1788 H 164.755 -5.78552 1.02721 0
M  V30 1789 H 166.279 -6.10413 0.150908 0
M  V30 1790 H 167.693 -5.26759 2.26269 0
M  V30 1791 H 166.09 -5.16944 3.04776 0
M  V30 1792 H 167.16 -3.75603 3.06677 0
M  V30 1793 N 168.503 -0.877838 -1.30888 0
M  V30 1794 C 169.749 -0.493426 -1.96706 0
M  V30 1795 C 170.082 0.953504 -1.6918 0
M  V30 1796 O 169.357 1.67266 -0.992594 0
M  V30 1797 C 169.64 -0.760429 -3.51979 0
M  V30 1798 C 169.493 -2.25747 -3.89048 0
M  V30 1799 C 170.812 -0.232148 -4.39487 0
M  V30 1800 H 167.931 -0.180746 -0.714493 0
M  V30 1801 H 170.573 -1.10052 -1.54882 0
M  V30 1802 H 168.723 -0.243715 -3.87735 0
M  V30 1803 H 170.395 -2.84204 -3.63354 0
M  V30 1804 H 168.638 -2.72694 -3.37373 0
M  V30 1805 H 169.309 -2.39491 -4.97341 0
M  V30 1806 H 171.785 -0.674314 -4.106 0
M  V30 1807 H 170.661 -0.448355 -5.47066 0
M  V30 1808 H 170.922 0.866297 -4.33529 0
M  V30 1809 N 169.982 1.44106 -0.638065 0
M  V30 1810 C 170.945 2.29138 0.0531013 0
M  V30 1811 C 171.945 1.41409 0.765506 0
M  V30 1812 O 173.135 1.63206 0.609046 0
M  V30 1813 C 170.267 3.23144 1.08584 0
M  V30 1814 H 171.46 2.91739 -0.694883 0
M  V30 1815 H 169.013 1.51134 -0.398538 0
M  V30 1816 H 169.748 2.65408 1.86357 0
M  V30 1817 H 169.533 3.87804 0.578852 0
M  V30 1818 H 171.023 3.87004 1.56899 0
M  V30 1819 N 171.46 0.379036 1.52974 0
M  V30 1820 C 172.408 -0.476033 2.27677 0
M  V30 1821 C 173.402 -1.0719 1.31174 0
M  V30 1822 O 174.608 -1.01355 1.48752 0
M  V30 1823 H 170.983 -0.172255 0.732006 0
M  V30 1824 H 172.954 0.175615 2.97883 0
M  V30 1825 C 171.703 -1.5967 3.0887 0
M  V30 1826 H 171.026 -1.1475 3.82978 0
M  V30 1827 H 172.466 -2.16943 3.64296 0
M  V30 1828 C 170.925 -2.54682 2.20542 0
M  V30 1829 O 171.455 -3.57836 1.82527 0
M  V30 1830 N 169.661 -2.24183 1.84907 0
M  V30 1831 H 169.208 -1.40333 2.1602 0
M  V30 1832 H 169.166 -2.88006 1.26096 0
M  V30 1833 N 172.938 -1.57226 0.108567 0
M  V30 1834 C 173.885 -2.14756 -0.845481 0
M  V30 1835 C 174.855 -1.06971 -1.27068 0
M  V30 1836 O 176.04 -1.34827 -1.35005 0
M  V30 1837 C 173.18 -2.74298 -2.09415 0
M  V30 1838 C 172.293 -3.96358 -1.71826 0
M  V30 1839 C 171.428 -4.44021 -2.9158 0
M  V30 1840 C 170.467 -5.58637 -2.50181 0
M  V30 1841 N 169.604 -6.01091 -3.62814 0
M  V30 1842 H 174.444 -2.95961 -0.348035 0
M  V30 1843 H 171.981 -1.46226 -0.160106 0
M  V30 1844 H 173.939 -3.06945 -2.82561 0
M  V30 1845 H 172.569 -1.95801 -2.56636 0
M  V30 1846 H 171.621 -3.69939 -0.885947 0
M  V30 1847 H 172.933 -4.79504 -1.37394 0
M  V30 1848 H 172.087 -4.78522 -3.72963 0
M  V30 1849 H 170.826 -3.59803 -3.29231 0
M  V30 1850 H 169.831 -5.23751 -1.67228 0
M  V30 1851 H 171.056 -6.44613 -2.13659 0
M  V30 1852 H 169.002 -5.19817 -4.00158 0
M  V30 1853 H 168.919 -6.79066 -3.32273 0
M  V30 1854 H 170.187 -6.40227 -4.44668 0
M  V30 1855 N 174.416 0.165178 -1.56732 0
M  V30 1856 C 175.363 1.2044 -1.96883 0
M  V30 1857 C 176.333 1.43664 -0.833657 0
M  V30 1858 O 177.518 1.56302 -1.09427 0
M  V30 1859 C 174.658 2.53727 -2.33916 0
M  V30 1860 C 173.771 2.3783 -3.6064 0
M  V30 1861 C 172.906 3.64026 -3.86857 0
M  V30 1862 C 171.945 3.43088 -5.06909 0
M  V30 1863 N 171.082 4.61369 -5.29229 0
M  V30 1864 H 175.922 0.854996 -2.85471 0
M  V30 1865 H 173.459 0.41076 -1.41249 0
M  V30 1866 H 175.417 3.31419 -2.53411 0
M  V30 1867 H 174.047 2.8665 -1.48431 0
M  V30 1868 H 173.099 1.51282 -3.49024 0
M  V30 1869 H 174.411 2.18308 -4.4849 0
M  V30 1870 H 173.565 4.50152 -4.06753 0
M  V30 1871 H 172.304 3.86533 -2.97394 0
M  V30 1872 H 171.309 2.55349 -4.86906 0
M  V30 1873 H 172.534 3.21997 -5.97909 0
M  V30 1874 H 170.48 4.84084 -4.42718 0
M  V30 1875 H 170.397 4.44783 -6.11313 0
M  V30 1876 H 171.665 5.48761 -5.53608 0
M  V30 1877 N 175.894 1.51508 0.433938 0
M  V30 1878 C 177.171 1.54888 1.19453 0
M  V30 1879 C 177.551 0.315154 2.08734 0
M  V30 1880 O 176.899 -0.699558 2.17528 0
M  V30 1881 C 177.109 2.86467 1.99342 0
M  V30 1882 C 178.457 3.38545 2.56267 0
M  V30 1883 O 179.481 2.88041 2.0955 0
M  V30 1884 O 178.34 4.26675 3.41483 0
M  V30 1885 H 175.434 0.622863 0.544032 0
M  V30 1886 H 177.98 1.63823 0.442732 0
M  V30 1887 H 176.752 3.67718 1.33788 0
M  V30 1888 H 176.375 2.8071 2.8158 0
M  V30 1889 N 177.372 -0.689602 1.41712 0
M  V30 1890 C 178.302 -1.81577 1.46806 0
M  V30 1891 C 179.283 -1.66945 0.326105 0
M  V30 1892 O 180.468 -1.86588 0.538377 0
M  V30 1893 C 177.598 -3.19762 1.35535 0
M  V30 1894 C 176.552 -3.49107 2.47605 0
M  V30 1895 C 175.878 -4.86711 2.21397 0
M  V30 1896 C 177.178 -3.47483 3.89939 0
M  V30 1897 H 178.872 -1.7757 2.41058 0
M  V30 1898 H 176.418 -0.852887 1.16025 0
M  V30 1899 H 178.371 -3.98263 1.3771 0
M  V30 1900 H 177.095 -3.24409 0.377708 0
M  V30 1901 H 175.754 -2.72959 2.44722 0
M  V30 1902 H 175.402 -4.8799 1.21961 0
M  V30 1903 H 175.102 -5.0731 2.96497 0
M  V30 1904 H 176.626 -5.67515 2.25297 0
M  V30 1905 H 178.04 -4.1598 3.94505 0
M  V30 1906 H 176.437 -3.79615 4.64771 0
M  V30 1907 H 177.507 -2.46341 4.17665 0
M  V30 1908 N 178.85 -1.27639 -0.924453 0
M  V30 1909 C 180.266 -1.05113 -1.20097 0
M  V30 1910 C 180.466 0.213262 -2.00368 0
M  V30 1911 O 179.522 0.91787 -2.35226 0
M  V30 1912 C 180.835 -2.29244 -1.94596 0
M  V30 1913 C 182.383 -2.34315 -2.07522 0
M  V30 1914 C 182.858 -3.58183 -2.85427 0
M  V30 1915 N 184.349 -3.5876 -2.92994 0
M  V30 1916 C 185.084 -4.51277 -3.53746 0
M  V30 1917 N 184.58 -5.54102 -4.15863 0
M  V30 1918 N 186.373 -4.38894 -3.51181 0
M  V30 1919 H 178.524 -2.08821 -0.388264 0
M  V30 1920 H 180.787 -0.918568 -0.234385 0
M  V30 1921 H 180.493 -3.21301 -1.43034 0
M  V30 1922 H 180.367 -2.34816 -2.95197 0
M  V30 1923 H 182.754 -1.42762 -2.58269 0
M  V30 1924 H 182.835 -2.32744 -1.06131 0
M  V30 1925 H 182.479 -4.50074 -2.35363 0
M  V30 1926 H 182.409 -3.57006 -3.8711 0
M  V30 1927 H 184.9 -2.84398 -2.4885 0
M  V30 1928 H 185.213 -6.20859 -4.60168 0
M  V30 1929 H 183.558 -5.57941 -4.144 0
M  V30 1930 H 186.749 -3.57772 -3.01856 0
M  V30 1931 H 186.922 -5.11186 -3.98237 0
M  V30 1932 N 180.328 1.1314 -1.09713 0
M  V30 1933 C 181.553 1.88862 -0.857081 0
M  V30 1934 C 181.978 1.78729 0.586304 0
M  V30 1935 O 181.336 1.13692 1.41222 0
M  V30 1936 C 181.384 3.36325 -1.30069 0
M  V30 1937 O 180.488 4.09815 -0.461007 0
M  V30 1938 H 179.829 0.587108 -0.310162 0
M  V30 1939 H 182.359 1.43129 -1.46203 0
M  V30 1940 H 182.369 3.87157 -1.28738 0
M  V30 1941 H 181.044 3.43017 -2.35185 0
M  V30 1942 H 179.621 3.68986 -0.538888 0
M  V30 1943 N 181.806 0.884767 1.30421 0
M  V30 1944 C 183.083 0.423185 1.90967 0
M  V30 1945 C 183.463 -1.09605 1.80416 0
M  V30 1946 O 182.811 -1.93126 1.22125 0
M  V30 1947 C 183.021 0.921056 3.36627 0
M  V30 1948 C 184.369 0.955903 4.137 0
M  V30 1949 O 185.393 0.867706 3.4547 0
M  V30 1950 O 184.252 1.08614 5.35598 0
M  V30 1951 H 181.346 0.129369 0.816819 0
M  V30 1952 H 183.892 0.973653 1.3899 0
M  V30 1953 H 182.664 1.96489 3.3839 0
M  V30 1954 H 182.287 0.349741 3.96059 0
M  V30 1955 N 183.284 -1.43765 0.645699 0
M  V30 1956 C 184.194 -2.34544 -0.0512957 0
M  V30 1957 C 185.21 -1.53455 -0.82022 0
M  V30 1958 O 186.386 -1.86133 -0.769176 0
M  V30 1959 C 183.451 -3.31636 -1.01087 0
M  V30 1960 C 182.512 -4.2863 -0.239712 0
M  V30 1961 C 181.745 -5.21084 -1.15358 0
M  V30 1962 O 181.968 -5.1779 -2.39269 0
M  V30 1963 O 180.902 -5.98593 -0.630038 0
M  V30 1964 H 184.728 -2.95624 0.695718 0
M  V30 1965 H 182.313 -1.43781 0.405882 0
M  V30 1966 H 184.195 -3.9136 -1.56254 0
M  V30 1967 H 182.87 -2.73069 -1.73824 0
M  V30 1968 H 181.777 -3.72408 0.355356 0
M  V30 1969 H 183.11 -4.90157 0.447936 0
M  V30 1970 N 184.763 -0.387143 -1.52771 0
M  V30 1971 C 185.713 0.465942 -2.23188 0
M  V30 1972 C 186.697 1.03138 -1.23496 0
M  V30 1973 O 187.889 0.957845 -1.48843 0
M  V30 1974 C 185.018 1.59384 -3.04059 0
M  V30 1975 C 184.104 1.04024 -4.11144 0
M  V30 1976 N 184.495 0.211416 -5.05358 0
M  V30 1977 C 182.793 1.31295 -4.26237 0
M  V30 1978 C 183.494 -0.0941698 -5.81624 0
M  V30 1979 N 182.47 0.509207 -5.4121 0
M  V30 1980 H 186.272 -0.173856 -2.93385 0
M  V30 1981 H 183.786 -0.19633 -1.61209 0
M  V30 1982 H 185.783 2.21738 -3.53041 0
M  V30 1983 H 184.443 2.23648 -2.35397 0
M  V30 1984 H 185.454 -0.151151 -5.17679 0
M  V30 1985 H 182.131 1.95679 -3.68803 0
M  V30 1986 H 183.521 -0.765572 -6.67524 0
M  V30 1987 N 186.241 1.57166 -0.116904 0
M  V30 1988 C 187.487 1.95412 0.542405 0
M  V30 1989 C 187.82 1.00019 1.66463 0
M  V30 1990 O 187.095 0.0370346 1.94465 0
M  V30 1991 C 187.378 3.43615 1.07708 0
M  V30 1992 C 187.231 4.49781 -0.0415868 0
M  V30 1993 C 188.55 3.93616 1.96861 0
M  V30 1994 H 185.669 0.710543 0.195696 0
M  V30 1995 H 188.311 1.89027 -0.192038 0
M  V30 1996 H 186.461 3.49187 1.70296 0
M  V30 1997 H 188.133 4.56308 -0.676793 0
M  V30 1998 H 186.376 4.28033 -0.705019 0
M  V30 1999 H 187.047 5.50733 0.373717 0
M  V30 2000 H 189.523 3.90335 1.44146 0
M  V30 2001 H 188.399 4.97838 2.3119 0
M  V30 2002 H 188.66 3.34188 2.89432 0
M  V30 2003 N 187.719 -0.156864 1.56817 0
M  V30 2004 C 189.135 -0.50916 1.5126 0
M  V30 2005 C 189.335 -1.83897 0.823658 0
M  V30 2006 O 188.391 -2.49469 0.390055 0
M  V30 2007 C 189.704 -0.52857 2.96018 0
M  V30 2008 C 191.252 -0.614771 3.06903 0
M  V30 2009 C 191.727 -0.664938 4.53147 0
M  V30 2010 N 193.218 -0.727433 4.57452 0
M  V30 2011 C 193.953 -0.787067 5.67973 0
M  V30 2012 N 193.449 -0.806649 6.88088 0
M  V30 2013 N 195.242 -0.827195 5.5598 0
M  V30 2014 H 187.393 0.714935 2.00006 0
M  V30 2015 H 189.656 0.259526 0.911784 0
M  V30 2016 H 189.362 0.380154 3.49639 0
M  V30 2017 H 189.236 -1.36998 3.51442 0
M  V30 2018 H 191.623 -1.51392 2.53307 0
M  V30 2019 H 191.704 0.253597 2.5454 0
M  V30 2020 H 191.348 0.230011 5.07379 0
M  V30 2021 H 191.278 -1.54966 5.03282 0
M  V30 2022 H 193.769 -0.719998 3.70978 0
M  V30 2023 H 194.082 -0.853727 7.6807 0
M  V30 2024 H 192.427 -0.774687 6.90669 0
M  V30 2025 H 195.618 -0.808998 4.61056 0
M  V30 2026 H 195.791 -0.870206 6.4213 0
M  V30 2027 N 189.197 -1.51736 -0.425897 0
M  V30 2028 C 190.425 -1.68794 -1.1965 0
M  V30 2029 C 190.84 -0.390164 -1.84725 0
M  V30 2030 O 190.197 0.632376 -1.71194 0
M  V30 2031 C 190.248 -2.81174 -2.27208 0
M  V30 2032 O 189.969 -4.05925 -1.64793 0
M  V30 2033 C 191.47 -3.09599 -3.17275 0
M  V30 2034 H 188.69 -0.566128 -0.360194 0
M  V30 2035 H 191.234 -1.98211 -0.503249 0
M  V30 2036 H 189.389 -2.54324 -2.9223 0
M  V30 2037 H 189.803 -4.68423 -2.35967 0
M  V30 2038 H 191.277 -3.91786 -3.88854 0
M  V30 2039 H 191.754 -2.22468 -3.78688 0
M  V30 2040 H 192.36 -3.38151 -2.57941 0
M  V30 2041 N 190.675 0.682077 -1.42076 0
M  V30 2042 C 191.585 1.82535 -1.47371 0
M  V30 2043 C 192.601 1.7017 -0.363079 0
M  V30 2044 O 193.777 1.91848 -0.612875 0
M  V30 2045 C 190.842 3.18624 -1.36674 0
M  V30 2046 C 189.903 3.42999 -2.58167 0
M  V30 2047 C 189.136 4.72595 -2.4797 0
M  V30 2048 O 189.359 5.50006 -1.5116 0
M  V30 2049 O 188.293 4.98054 -3.37974 0
M  V30 2050 H 192.119 1.81023 -2.43853 0
M  V30 2051 H 189.704 0.836887 -1.2376 0
M  V30 2052 H 191.586 3.99847 -1.33043 0
M  V30 2053 H 190.261 3.20789 -0.433138 0
M  V30 2054 H 189.168 2.61653 -2.67373 0
M  V30 2055 H 190.501 3.45659 -3.50401 0
M  V30 2056 N 192.153 1.28127 0.917671 0
M  V30 2057 C 193.083 1.14248 2.03641 0
M  V30 2058 C 194.064 0.0412748 1.7005 0
M  V30 2059 O 195.249 0.217566 1.92977 0
M  V30 2060 C 192.379 0.799431 3.37974 0
M  V30 2061 C 191.333 1.85497 3.85713 0
M  V30 2062 C 190.659 1.36565 5.16966 0
M  V30 2063 C 191.959 3.26085 4.08002 0
M  V30 2064 H 193.653 2.07835 2.15511 0
M  V30 2065 H 191.199 1.00064 1.03553 0
M  V30 2066 H 193.152 0.689114 4.15727 0
M  V30 2067 H 191.876 -0.172145 3.26146 0
M  V30 2068 H 190.535 1.95437 3.10161 0
M  V30 2069 H 190.183 0.383253 5.01538 0
M  V30 2070 H 189.883 2.07143 5.49878 0
M  V30 2071 H 191.407 1.26848 5.97279 0
M  V30 2072 H 192.821 3.19089 4.76293 0
M  V30 2073 H 191.218 3.94462 4.52238 0
M  V30 2074 H 192.288 3.70394 3.12948 0
M  V30 2075 N 193.631 -1.12557 1.10312 0
M  V30 2076 C 194.594 -2.16434 0.75424 0
M  V30 2077 C 195.594 -1.59278 -0.220685 0
M  V30 2078 O 196.784 -1.742 0.00230591 0
M  V30 2079 C 193.916 -3.40699 0.116987 0
M  V30 2080 H 195.109 -2.48811 1.67431 0
M  V30 2081 H 192.662 -1.27542 0.903475 0
M  V30 2082 H 193.397 -3.13921 -0.813877 0
M  V30 2083 H 193.182 -3.83459 0.818613 0
M  V30 2084 H 194.672 -4.17451 -0.111387 0
M  V30 2085 N 195.109 -0.891671 -1.2995 0
M  V30 2086 C 196.525 -0.58662 -1.48428 0
M  V30 2087 C 196.725 0.873951 -1.81561 0
M  V30 2088 O 195.781 1.65471 -1.90724 0
M  V30 2089 C 197.094 -1.50553 -2.60296 0
M  V30 2090 C 198.642 -1.50988 -2.74175 0
M  V30 2091 C 199.117 -2.41488 -3.89163 0
M  V30 2092 N 200.608 -2.39489 -3.96483 0
M  V30 2093 C 201.343 -3.06223 -4.84784 0
M  V30 2094 N 200.839 -3.82206 -5.77833 0
M  V30 2095 N 202.632 -2.95421 -4.78208 0
M  V30 2096 H 194.783 -1.83644 -1.06718 0
M  V30 2097 H 197.046 -0.786455 -0.529332 0
M  V30 2098 H 196.752 -2.54581 -2.42654 0
M  V30 2099 H 196.626 -1.22008 -3.56923 0
M  V30 2100 H 199.013 -0.47708 -2.91218 0
M  V30 2101 H 199.094 -1.83567 -1.78148 0
M  V30 2102 H 198.738 -3.44857 -3.72876 0
M  V30 2103 H 198.668 -2.06222 -4.84541 0
M  V30 2104 H 201.159 -1.84278 -3.29924 0
M  V30 2105 H 201.472 -4.302 -6.41988 0
M  V30 2106 H 199.817 -3.86313 -5.77743 0
M  V30 2107 H 203.008 -2.35581 -4.04499 0
M  V30 2108 H 203.181 -3.47704 -5.46814 0
M  V30 2109 N 196.587 1.43421 -0.653314 0
M  V30 2110 C 197.52 2.2803 0.0879804 0
M  V30 2111 C 198.498 1.39833 0.82979 0
M  V30 2112 O 199.682 1.69275 0.829341 0
M  V30 2113 C 196.809 3.19247 1.13132 0
M  V30 2114 C 195.855 4.23704 0.487546 0
M  V30 2115 S 196.688 5.30377 -0.738961 0
M  V30 2116 C 197.844 6.25162 0.30384 0
M  V30 2117 H 198.077 2.90554 -0.629739 0
M  V30 2118 H 195.61 1.47934 -0.442156 0
M  V30 2119 H 197.568 3.72346 1.72827 0
M  V30 2120 H 196.229 2.55901 1.82136 0
M  V30 2121 H 195.422 4.87631 1.27407 0
M  V30 2122 H 195.024 3.73983 -0.0352915 0
M  V30 2123 H 197.316 6.67321 1.17 0
M  V30 2124 H 198.259 7.07463 -0.300402 0
M  V30 2125 H 198.667 5.60864 0.63969 0
M  V30 2126 N 198.065 0.39524 1.52563 0
M  V30 2127 C 199.012 -0.437036 2.26624 0
M  V30 2128 C 199.982 -1.05281 1.28472 0
M  V30 2129 O 201.167 -1.07971 1.57311 0
M  V30 2130 C 198.307 -1.55524 3.08069 0
M  V30 2131 C 197.42 -0.961745 4.21158 0
M  V30 2132 C 196.555 -2.05149 4.89987 0
M  V30 2133 C 195.594 -1.4342 5.95061 0
M  V30 2134 N 194.731 -2.46351 6.57462 0
M  V30 2135 H 199.571 0.200976 2.97322 0
M  V30 2136 H 197.108 0.110944 1.46681 0
M  V30 2137 H 199.066 -2.21437 3.53584 0
M  V30 2138 H 197.696 -2.16348 2.3957 0
M  V30 2139 H 196.748 -0.192048 3.79915 0
M  V30 2140 H 198.06 -0.470701 4.96574 0
M  V30 2141 H 197.214 -2.78819 5.38837 0
M  V30 2142 H 195.953 -2.57615 4.14109 0
M  V30 2143 H 194.958 -0.682774 5.45544 0
M  V30 2144 H 196.183 -0.917416 6.72875 0
M  V30 2145 H 194.129 -2.97975 5.8442 0
M  V30 2146 H 194.046 -2.02019 7.28508 0
M  V30 2147 H 195.314 -3.19633 7.10954 0
M  V30 2148 N 199.544 -1.57102 0.125237 0
M  V30 2149 C 200.476 -2.12726 -0.853237 0
M  V30 2150 C 201.489 -1.07145 -1.22571 0
M  V30 2151 O 202.678 -1.34497 -1.17358 0
M  V30 2152 C 199.778 -2.61709 -2.15317 0
M  V30 2153 C 198.951 -3.91456 -1.95143 0
M  V30 2154 C 198.01 -4.25973 -3.08923 0
M  V30 2155 O 197.036 -4.94682 -2.81564 0
M  V30 2156 N 198.238 -3.83795 -4.35524 0
M  V30 2157 H 201.003 -2.97307 -0.377964 0
M  V30 2158 H 198.564 -1.61792 -0.0590011 0
M  V30 2159 H 200.556 -2.81826 -2.90441 0
M  V30 2160 H 199.126 -1.81974 -2.54174 0
M  V30 2161 H 198.346 -3.80185 -1.04177 0
M  V30 2162 H 199.634 -4.76283 -1.78976 0
M  V30 2163 H 199.032 -3.2839 -4.60626 0
M  V30 2164 H 197.589 -4.09008 -5.07499 0
M  V30 2165 N 201.022 0.148545 -1.56898 0
M  V30 2166 C 201.932 1.20293 -2.01412 0
M  V30 2167 C 202.948 1.47107 -0.929273 0
M  V30 2168 O 204.124 1.58807 -1.23863 0
M  V30 2169 C 201.189 2.51682 -2.38447 0
M  V30 2170 C 200.25 2.32529 -3.60872 0
M  V30 2171 C 199.483 3.57653 -3.96132 0
M  V30 2172 O 199.706 4.63771 -3.32073 0
M  V30 2173 O 198.64 3.50408 -4.89385 0
M  V30 2174 H 202.466 0.855025 -2.91416 0
M  V30 2175 H 200.051 0.357151 -1.45068 0
M  V30 2176 H 201.933 3.29147 -2.63135 0
M  V30 2177 H 200.608 2.86006 -1.51599 0
M  V30 2178 H 199.515 1.53019 -3.41373 0
M  V30 2179 H 200.848 2.03121 -4.48333 0
M  V30 2180 N 202.5 1.5196 0.417844 0
M  V30 2181 C 203.911 1.57851 0.997 0
M  V30 2182 C 204.262 0.413714 1.91789 0
M  V30 2183 O 203.387 -0.467057 2.113 0
M  V30 2184 C 203.982 2.86085 1.81496 0
M  V30 2185 C 202.541 2.94483 2.34428 0
M  V30 2186 C 201.688 2.52707 1.14169 0
M  V30 2187 H 204.639 1.57455 0.198392 0
M  V30 2188 H 204.66 2.70947 2.67148 0
M  V30 2189 H 204.172 3.70842 1.14446 0
M  V30 2190 H 202.273 2.142 3.04875 0
M  V30 2191 H 202.386 3.98546 2.65891 0
M  V30 2192 H 200.75 2.06353 1.49301 0
M  V30 2193 H 201.533 3.39828 0.486999 0
M  V30 2194 N 203.978 -0.674533 1.42435 0
M  V30 2195 C 205.224 -1.43671 1.43131 0
M  V30 2196 C 205.557 -1.94142 0.0476021 0
M  V30 2197 O 204.832 -1.70924 -0.928188 0
M  V30 2198 C 205.115 -2.63355 2.45594 0
M  V30 2199 C 204.968 -2.18514 3.93156 0
M  V30 2200 C 206.287 -3.65571 2.45043 0
M  V30 2201 H 203.406 -0.521077 0.521198 0
M  V30 2202 H 206.048 -0.766551 1.7385 0
M  V30 2203 H 204.198 -3.2053 2.19528 0
M  V30 2204 H 205.87 -1.66504 4.30202 0
M  V30 2205 H 204.113 -1.50086 4.07009 0
M  V30 2206 H 204.784 -3.04484 4.60428 0
M  V30 2207 H 207.26 -3.18113 2.68223 0
M  V30 2208 H 206.136 -4.46893 3.18713 0
M  V30 2209 H 206.397 -4.16716 1.47649 0
M  V30 2210 N 205.456 -1.28612 -0.910864 0
M  V30 2211 C 206.872 -1.06381 -1.18976 0
M  V30 2212 C 207.072 0.191998 -2.00583 0
M  V30 2213 O 206.128 0.892869 -2.36187 0
M  V30 2214 C 207.441 -2.31295 -1.92154 0
M  V30 2215 C 208.989 -2.36503 -2.05025 0
M  V30 2216 C 209.464 -3.61191 -2.81612 0
M  V30 2217 N 210.955 -3.61847 -2.89172 0
M  V30 2218 C 211.69 -4.55004 -3.4894 0
M  V30 2219 N 211.186 -5.58482 -4.09963 0
M  V30 2220 N 212.979 -4.42594 -3.46506 0
M  V30 2221 H 205.13 -2.09221 -0.366094 0
M  V30 2222 H 207.393 -0.921003 -0.224629 0
M  V30 2223 H 207.099 -3.228 -1.39618 0
M  V30 2224 H 206.973 -2.37934 -2.9269 0
M  V30 2225 H 209.36 -1.45494 -2.5674 0
M  V30 2226 H 209.441 -2.33857 -1.03657 0
M  V30 2227 H 209.085 -4.52545 -2.30576 0
M  V30 2228 H 209.015 -3.61092 -3.83302 0
M  V30 2229 H 211.506 -2.87022 -2.45819 0
M  V30 2230 H 211.819 -6.25704 -4.53557 0
M  V30 2231 H 210.164 -5.62305 -4.08459 0
M  V30 2232 H 213.355 -3.60953 -2.98045 0
M  V30 2233 H 213.528 -5.15381 -3.92793 0
M  V30 2234 N 206.934 1.1197 -1.10907 0
M  V30 2235 C 208.162 1.87402 -0.876824 0
M  V30 2236 C 208.577 1.79894 0.573025 0
M  V30 2237 O 207.934 1.17629 1.39534 0
M  V30 2238 C 207.985 3.36428 -1.32282 0
M  V30 2239 O 207.706 3.43765 -2.71582 0
M  V30 2240 C 209.207 4.28783 -1.12518 0
M  V30 2241 H 206.427 0.592793 -0.314384 0
M  V30 2242 H 208.971 1.41649 -1.47499 0
M  V30 2243 H 207.126 3.79706 -0.768229 0
M  V30 2244 H 207.54 4.3652 -2.90776 0
M  V30 2245 H 209.014 5.31613 -1.48633 0
M  V30 2246 H 209.491 4.39153 -0.0642394 0
M  V30 2247 H 210.097 3.91291 -1.66648 0
M  V30 2248 N 208.412 0.89855 1.29475 0
M  V30 2249 C 209.689 0.443416 1.90508 0
M  V30 2250 C 210.069 -1.07685 1.81569 0
M  V30 2251 O 209.417 -1.9182 1.24166 0
M  V30 2252 C 209.627 0.956708 3.35631 0
M  V30 2253 C 210.975 0.999728 4.12663 0
M  V30 2254 O 211.999 0.904299 3.4453 0
M  V30 2255 O 210.858 1.14289 5.34416 0
M  V30 2256 H 207.952 0.138025 0.815401 0
M  V30 2257 H 210.498 0.98834 1.37949 0
M  V30 2258 H 209.27 2.00067 3.36287 0
M  V30 2259 H 208.893 0.391728 3.95666 0
M  V30 2260 N 209.89 -1.43072 0.660911 0
M  V30 2261 C 211.167 -1.95307 0.107017 0
M  V30 2262 C 211.547 -1.60192 -1.37484 0
M  V30 2263 O 210.895 -0.890949 -2.10415 0
M  V30 2264 C 211.105 -3.47124 0.361402 0
M  V30 2265 C 212.453 -4.23738 0.270455 0
M  V30 2266 O 213.477 -3.54981 0.294382 0
M  V30 2267 O 212.336 -5.46131 0.200737 0
M  V30 2268 H 209.43 -0.826984 -0.00517729 0
M  V30 2269 H 211.976 -1.52972 0.734681 0
M  V30 2270 H 210.748 -3.65837 1.38848 0
M  V30 2271 H 210.371 -3.96475 -0.298953 0
M  V30 2272 N 211.368 -0.403325 -1.52352 0
M  V30 2273 C 212.616 0.174003 -2.0135 0
M  V30 2274 C 212.937 1.46139 -1.29106 0
M  V30 2275 O 212.207 1.91448 -0.415253 0
M  V30 2276 H 210.787 0.0672911 -0.743963 0
M  V30 2277 H 213.449 -0.538235 -1.87321 0
M  V30 2278 H 212.545 0.374254 -3.09848 0
M  V30 2279 N 212.846 1.57033 -0.133567 0
M  V30 2280 C 214.262 1.58035 0.222944 0
M  V30 2281 C 214.462 1.14713 1.6566 0
M  V30 2282 O 213.518 0.841218 2.38075 0
M  V30 2283 C 214.831 3.00691 -0.0236116 0
M  V30 2284 C 216.379 3.12973 0.0411512 0
M  V30 2285 C 216.854 4.57654 -0.177899 0
M  V30 2286 N 218.345 4.63033 -0.124365 0
M  V30 2287 C 219.08 5.72771 -0.268553 0
M  V30 2288 N 218.576 6.91206 -0.46972 0
M  V30 2289 N 220.369 5.61718 -0.2071 0
M  V30 2290 H 212.52 1.8349 -1.06981 0
M  V30 2291 H 214.783 0.848677 -0.422436 0
M  V30 2292 H 214.489 3.36726 -1.0153 0
M  V30 2293 H 214.363 3.70614 0.701808 0
M  V30 2294 H 216.75 2.76787 1.02338 0
M  V30 2295 H 216.831 2.45564 -0.716383 0
M  V30 2296 H 216.475 4.94542 -1.15717 0
M  V30 2297 H 216.405 5.23173 0.599797 0
M  V30 2298 H 218.896 3.7789 0.027011 0
M  V30 2299 H 219.209 7.70693 -0.570212 0
M  V30 2300 H 217.554 6.93156 -0.505876 0
M  V30 2301 H 220.745 4.68072 -0.0507986 0
M  V30 2302 H 220.918 6.47195 -0.322909 0
M  V30 2303 N 214.325 -0.140222 1.56975 0
M  V30 2304 C 215.288 -1.15689 1.97861 0
M  V30 2305 C 216.288 -1.3549 0.865974 0
M  V30 2306 O 217.478 -1.32367 1.13246 0
M  V30 2307 C 214.61 -2.51582 2.30042 0
M  V30 2308 H 215.803 -0.805971 2.88867 0
M  V30 2309 H 213.356 -0.383801 1.51515 0
M  V30 2310 H 214.091 -2.91632 1.41849 0
M  V30 2311 H 213.876 -2.38569 3.11171 0
M  V30 2312 H 215.366 -3.24792 2.62488 0
M  V30 2313 N 215.803 -1.52179 -0.40978 0
M  V30 2314 C 216.736 -1.70196 -1.52015 0
M  V30 2315 C 217.714 -0.549542 -1.53032 0
M  V30 2316 O 218.898 -0.776815 -1.71749 0
M  V30 2317 C 216.025 -1.74069 -2.90547 0
M  V30 2318 C 215.071 -2.95601 -3.07445 0
M  V30 2319 S 215.904 -4.55956 -2.80827 0
M  V30 2320 C 217.06 -4.62614 -4.21591 0
M  V30 2321 H 217.293 -2.64109 -1.36504 0
M  V30 2322 H 214.826 -1.4221 -0.601312 0
M  V30 2323 H 216.784 -1.76985 -3.70387 0
M  V30 2324 H 215.445 -0.812835 -3.034 0
M  V30 2325 H 214.638 -2.94791 -4.08796 0
M  V30 2326 H 214.24 -2.90569 -2.35469 0
M  V30 2327 H 216.532 -4.39951 -5.15218 0
M  V30 2328 H 217.475 -5.64548 -4.27424 0
M  V30 2329 H 217.883 -3.91654 -4.06531 0
M  V30 2330 N 217.281 0.66697 -1.42791 0
M  V30 2331 C 218.244 1.76211 -1.46568 0
M  V30 2332 C 219.244 1.56896 -0.352196 0
M  V30 2333 O 220.434 1.63044 -0.613364 0
M  V30 2334 C 217.566 3.14935 -1.30494 0
M  V30 2335 H 218.759 1.74247 -2.44086 0
M  V30 2336 H 216.312 0.877342 -1.29354 0
M  V30 2337 H 217.047 3.2252 -0.339301 0
M  V30 2338 H 216.832 3.30359 -2.11199 0
M  V30 2339 H 218.322 3.94821 -1.36038 0
M  V30 2340 N 218.759 1.29093 0.90403 0
M  V30 2341 C 220.005 1.16986 1.65656 0
M  V30 2342 C 220.338 -0.278925 1.92186 0
M  V30 2343 O 219.613 -1.2019 1.5292 0
M  V30 2344 C 219.896 1.97908 3.0084 0
M  V30 2345 C 219.749 3.50903 2.81403 0
M  V30 2346 C 221.068 1.80208 4.01513 0
M  V30 2347 H 218.187 0.426346 0.601164 0
M  V30 2348 H 220.829 1.58518 1.04747 0
M  V30 2349 H 218.979 1.62616 3.52829 0
M  V30 2350 H 220.651 3.96153 2.36348 0
M  V30 2351 H 218.894 3.76045 2.1627 0
M  V30 2352 H 219.565 4.02791 3.77443 0
M  V30 2353 H 222.041 2.11025 3.58619 0
M  V30 2354 H 220.917 2.39184 4.94047 0
M  V30 2355 H 221.178 0.756119 4.35586 0
M  V30 2356 N 220.237 -1.11381 1.11499 0
M  V30 2357 C 221.653 -1.35143 0.849031 0
M  V30 2358 C 221.853 -1.94515 -0.525938 0
M  V30 2359 O 220.909 -2.1785 -1.27662 0
M  V30 2360 C 222.222 -2.28249 1.95762 0
M  V30 2361 C 223.77 -2.41812 1.98736 0
M  V30 2362 C 224.245 -3.3824 3.088 0
M  V30 2363 N 225.736 -3.45803 3.08179 0
M  V30 2364 C 226.471 -4.20358 3.89982 0
M  V30 2365 N 225.967 -4.97884 4.8175 0
M  V30 2366 N 227.76 -4.15877 3.78157 0
M  V30 2367 H 219.911 -0.712062 2.00109 0
M  V30 2368 H 222.174 -0.376025 0.870235 0
M  V30 2369 H 221.88 -1.91817 2.94787 0
M  V30 2370 H 221.754 -3.28473 1.85433 0
M  V30 2371 H 224.141 -2.77518 1.00338 0
M  V30 2372 H 224.222 -1.41437 2.13141 0
M  V30 2373 H 223.866 -3.03261 4.07425 0
M  V30 2374 H 223.796 -4.38471 2.91635 0
M  V30 2375 H 226.287 -2.90506 2.41691 0
M  V30 2376 H 226.6 -5.52142 5.40702 0
M  V30 2377 H 224.945 -4.97043 4.85771 0
M  V30 2378 H 228.136 -3.544 3.05808 0
M  V30 2379 H 228.309 -4.73723 4.42143 0
M  V30 2380 N 221.715 -0.905404 -1.28997 0
M  V30 2381 C 222.964 -0.530191 -1.94607 0
M  V30 2382 C 223.277 0.929185 -1.72121 0
M  V30 2383 O 224.483 1.41218 -2.31883 0
M  V30 2384 C 222.939 -0.897333 -3.48534 0
M  V30 2385 C 222.547 -2.37587 -3.79811 0
M  V30 2386 C 224.291 -0.592304 -4.20347 0
M  V30 2387 C 222.198 -2.68357 -5.27009 0
M  V30 2388 H 221.128 -0.194558 -0.728466 0
M  V30 2389 H 223.779 -1.10318 -1.46636 0
M  V30 2390 H 222.161 -0.253214 -3.9519 0
M  V30 2391 H 223.335 -3.06602 -3.43994 0
M  V30 2392 H 221.65 -2.6505 -3.2115 0
M  V30 2393 H 224.247 -0.798975 -5.28697 0
M  V30 2394 H 224.59 0.469474 -4.13644 0
M  V30 2395 H 225.123 -1.19452 -3.79442 0
M  V30 2396 H 221.862 -3.73355 -5.38782 0
M  V30 2397 H 221.382 -2.03971 -5.64053 0
M  V30 2398 H 223.061 -2.54922 -5.94663 0
M  V30 2399 N 223.193 1.4272 -0.668489 0
M  V30 2400 C 224.125 2.2914 0.052613 0
M  V30 2401 C 225.138 1.43339 0.771857 0
M  V30 2402 O 226.327 1.67123 0.627067 0
M  V30 2403 C 223.427 3.20618 1.09804 0
M  V30 2404 C 222.6 4.35039 0.45389 0
M  V30 2405 C 221.659 5.07282 1.39825 0
M  V30 2406 O 220.685 5.62024 0.900978 0
M  V30 2407 N 221.887 5.12206 2.73176 0
M  V30 2408 H 224.652 2.91668 -0.689209 0
M  V30 2409 H 222.213 1.53577 -0.512422 0
M  V30 2410 H 224.205 3.65815 1.73094 0
M  V30 2411 H 222.775 2.59585 1.74167 0
M  V30 2412 H 221.995 3.92567 -0.358396 0
M  V30 2413 H 223.283 5.088 0.00486972 0
M  V30 2414 H 222.681 4.6913 3.16122 0
M  V30 2415 H 221.238 5.61069 3.31729 0
M  V30 2416 N 224.671 0.411399 1.52136 0
M  V30 2417 C 225.634 -0.401089 2.25663 0
M  V30 2418 C 226.634 -0.971732 1.28117 0
M  V30 2419 O 227.824 -0.850254 1.52041 0
M  V30 2420 C 224.956 -1.56483 3.02863 0
M  V30 2421 H 226.149 0.24295 2.98914 0
M  V30 2422 H 223.702 0.163968 1.55438 0
M  V30 2423 H 224.437 -2.24567 2.33967 0
M  V30 2424 H 224.222 -1.16211 3.74483 0
M  V30 2425 H 225.712 -2.13951 3.58629 0
M  V30 2426 N 226.149 -1.5696 0.141893 0
M  V30 2427 C 227.379 -2.00031 -0.516828 0
M  V30 2428 C 227.787 -1.02091 -1.59293 0
M  V30 2429 O 227.13 -0.00909657 -1.83698 0
M  V30 2430 C 227.192 -3.39534 -1.1814 0
M  V30 2431 C 226.856 -4.56313 -0.250513 0
M  V30 2432 C 227.853 -5.17295 0.519839 0
M  V30 2433 C 225.538 -5.02061 -0.154907 0
M  V30 2434 C 227.532 -6.2243 1.3733 0
M  V30 2435 C 225.219 -6.07053 0.702161 0
M  V30 2436 C 226.217 -6.67106 1.46487 0
M  V30 2437 O 225.905 -7.70066 2.30767 0
M  V30 2438 H 225.637 -0.661451 -0.139493 0
M  V30 2439 H 228.191 -2.04086 0.231926 0
M  V30 2440 H 226.421 -3.32302 -1.97769 0
M  V30 2441 H 228.11 -3.66745 -1.73933 0
M  V30 2442 H 228.876 -4.82852 0.45598 0
M  V30 2443 H 224.755 -4.5505 -0.7383 0
M  V30 2444 H 228.299 -6.69233 1.96909 0
M  V30 2445 H 224.196 -6.40923 0.76733 0
M  V30 2446 H 224.964 -7.87264 2.23959 0
M  V30 2447 N 227.627 0.131896 -1.57047 0
M  V30 2448 C 228.904 0.871495 -1.75112 0
M  V30 2449 C 229.284 1.9866 -0.713949 0
M  V30 2450 O 228.632 2.26965 0.264447 0
M  V30 2451 C 228.842 1.40007 -3.19686 0
M  V30 2452 C 230.19 1.85752 -3.81813 0
M  V30 2453 O 231.214 1.49715 -3.23209 0
M  V30 2454 O 230.073 2.5226 -4.84796 0
M  V30 2455 H 227.167 0.412919 -0.716538 0
M  V30 2456 H 229.713 0.116641 -1.69299 0
M  V30 2457 H 228.485 0.599404 -3.86682 0
M  V30 2458 H 228.108 2.218 -3.29986 0
M  V30 2459 N 229.106 1.52395 0.401703 0
M  V30 2460 C 230.336 1.70429 1.1678 0
M  V30 2461 C 230.744 0.416702 1.84554 0
M  V30 2462 O 230.087 -0.617697 1.73003 0
M  V30 2463 C 230.149 2.78919 2.26814 0
M  V30 2464 C 229.813 4.20437 1.79113 0
M  V30 2465 C 230.81 5.04028 1.27482 0
M  V30 2466 C 228.495 4.66704 1.85722 0
M  V30 2467 C 230.489 6.31961 0.830913 0
M  V30 2468 C 228.176 5.94625 1.40942 0
M  V30 2469 C 229.174 6.77082 0.897128 0
M  V30 2470 O 228.862 8.02607 0.455822 0
M  V30 2471 H 228.594 0.574272 0.356634 0
M  V30 2472 H 231.148 1.99767 0.477724 0
M  V30 2473 H 229.378 2.44973 2.99207 0
M  V30 2474 H 231.067 2.8548 2.88541 0
M  V30 2475 H 231.833 4.69471 1.21744 0
M  V30 2476 H 227.712 4.0262 2.24539 0
M  V30 2477 H 231.256 6.96271 0.430368 0
M  V30 2478 H 227.153 6.28688 1.46362 0
M  V30 2479 H 227.921 8.16453 0.578457 0
M  V30 2480 N 230.584 -0.659388 1.43143 0
M  V30 2481 C 231.514 -1.78422 1.50625 0
M  V30 2482 C 232.495 -1.66216 0.361443 0
M  V30 2483 O 233.68 -1.85404 0.577834 0
M  V30 2484 C 230.81 -3.16815 1.42287 0
M  V30 2485 C 229.764 -3.43777 2.54954 0
M  V30 2486 C 229.09 -4.81905 2.31671 0
M  V30 2487 C 230.39 -3.39134 3.97222 0
M  V30 2488 H 232.084 -1.72417 2.44771 0
M  V30 2489 H 229.63 -0.828084 1.17808 0
M  V30 2490 H 231.583 -3.95253 1.46127 0
M  V30 2491 H 230.307 -3.23534 0.446435 0
M  V30 2492 H 228.966 -2.67707 2.50457 0
M  V30 2493 H 228.614 -4.85294 1.32284 0
M  V30 2494 H 228.314 -5.00906 3.07192 0
M  V30 2495 H 229.838 -5.62609 2.37284 0
M  V30 2496 H 231.252 -4.07518 4.03239 0
M  V30 2497 H 229.649 -3.69671 4.72719 0
M  V30 2498 H 230.719 -2.37426 4.22797 0
M  V30 2499 N 232.062 -1.29571 -0.897171 0
M  V30 2500 C 232.972 -1.16808 -2.03453 0
M  V30 2501 C 233.988 -0.0907471 -1.73763 0
M  V30 2502 O 235.164 -0.303312 -1.99103 0
M  V30 2503 C 232.229 -0.848264 -3.36163 0
M  V30 2504 C 231.29 -2.0097 -3.79354 0
M  V30 2505 C 230.523 -1.70505 -5.05731 0
M  V30 2506 O 230.746 -0.62718 -5.66941 0
M  V30 2507 O 229.68 -2.5538 -5.45036 0
M  V30 2508 H 233.506 -2.12325 -2.17144 0
M  V30 2509 H 231.091 -1.09047 -1.02123 0
M  V30 2510 H 232.973 -0.684581 -4.15802 0
M  V30 2511 H 231.648 0.0771071 -3.23608 0
M  V30 2512 H 230.555 -2.22863 -3.00471 0
M  V30 2513 H 231.888 -2.91636 -3.96496 0
M  V30 2514 N 233.54 1.10788 -1.12088 0
M  V30 2515 C 234.78 1.84297 -0.883974 0
M  V30 2516 C 235.144 1.83036 0.579797 0
M  V30 2517 O 236.345 2.52061 0.933734 0
M  V30 2518 C 234.616 3.27173 -1.43849 0
M  V30 2519 S 236.175 4.17853 -1.33957 0
M  V30 2520 H 232.993 0.635433 -0.318977 0
M  V30 2521 H 235.595 1.33341 -1.4297 0
M  V30 2522 H 234.299 3.25658 -2.49749 0
M  V30 2523 H 233.83 3.83198 -0.890096 0
M  V30 2524 H 235.845 4.95239 -0.308603 0
M  V30 2525 N 235.018 0.912232 1.28515 0
M  V30 2526 C 236.243 0.559774 1.99703 0
M  V30 2527 C 236.668 -0.851393 1.67729 0
M  V30 2528 O 236.026 -1.56875 0.908834 0
M  V30 2529 C 236.074 0.773874 3.52198 0
M  V30 2530 O 235.178 -0.167842 4.12058 0
M  V30 2531 H 234.519 0.21723 0.627461 0
M  V30 2532 H 237.049 1.22725 1.63706 0
M  V30 2533 H 237.059 0.683386 4.02236 0
M  V30 2534 H 235.734 1.80261 3.74805 0
M  V30 2535 H 234.311 -0.0287509 3.72889 0
M  V30 2536 N 236.496 -1.42363 0.676048 0
M  V30 2537 C 237.459 -2.29199 0.00766941 0
M  V30 2538 C 238.459 -1.43389 -0.727745 0
M  V30 2539 O 239.649 -1.64764 -0.56556 0
M  V30 2540 C 236.781 -3.2591 -0.999785 0
M  V30 2541 H 237.974 -2.89794 0.771988 0
M  V30 2542 H 235.527 -1.50024 0.438468 0
M  V30 2543 H 236.262 -2.70256 -1.79255 0
M  V30 2544 H 236.047 -3.89202 -0.475829 0
M  V30 2545 H 237.537 -3.91028 -1.46583 0
M  V30 2546 N 237.974 -0.419461 -1.51915 0
M  V30 2547 C 238.921 0.400927 -2.27291 0
M  V30 2548 C 239.891 1.03224 -1.30131 0
M  V30 2549 O 241.076 1.05455 -1.59009 0
M  V30 2550 C 238.216 1.50603 -3.10504 0
M  V30 2551 C 237.329 0.89462 -4.22635 0
M  V30 2552 C 236.464 1.97328 -4.93189 0
M  V30 2553 C 235.503 1.33935 -5.97267 0
M  V30 2554 N 234.64 2.3586 -6.61298 0
M  V30 2555 H 239.48 -0.248251 -2.96964 0
M  V30 2556 H 237.017 -0.134266 -1.46486 0
M  V30 2557 H 238.975 2.15783 -3.57062 0
M  V30 2558 H 237.605 2.12509 -2.42981 0
M  V30 2559 H 236.657 0.131583 -3.80172 0
M  V30 2560 H 237.969 0.391641 -4.9726 0
M  V30 2561 H 237.123 2.70211 -5.43204 0
M  V30 2562 H 235.862 2.50994 -4.18155 0
M  V30 2563 H 234.867 0.595896 -5.46561 0
M  V30 2564 H 236.092 0.810252 -6.74249 0
M  V30 2565 H 234.038 2.88639 -5.89087 0
M  V30 2566 H 233.955 1.90403 -7.3163 0
M  V30 2567 H 235.223 3.08282 -7.15949 0
M  V30 2568 N 239.452 1.56882 -0.150215 0
M  V30 2569 C 240.68 2.00593 0.506948 0
M  V30 2570 C 241.095 1.03033 1.58208 0
M  V30 2571 O 240.452 0.0278396 1.82479 0
M  V30 2572 C 240.503 3.44209 1.10465 0
M  V30 2573 O 240.224 4.3804 0.0724636 0
M  V30 2574 C 241.725 4.03214 1.84211 0
M  V30 2575 H 238.945 0.65795 0.13169 0
M  V30 2576 H 241.489 2.03018 -0.245743 0
M  V30 2577 H 239.644 3.42625 1.80795 0
M  V30 2578 H 240.058 5.22007 0.510793 0
M  V30 2579 H 241.532 5.0569 2.21318 0
M  V30 2580 H 242.009 3.44107 2.72923 0
M  V30 2581 H 242.615 4.08437 1.18572 0
M  V30 2582 N 240.93 -0.123565 1.57115 0
M  V30 2583 C 241.877 -1.15177 2.00007 0
M  V30 2584 C 242.847 -1.41403 0.871454 0
M  V30 2585 O 244.032 -1.53346 1.13533 0
M  V30 2586 C 241.172 -2.47436 2.40561 0
M  V30 2587 C 240.285 -2.28184 3.66819 0
M  V30 2588 C 239.42 -3.53641 3.96373 0
M  V30 2589 C 238.459 -3.29528 5.15827 0
M  V30 2590 N 237.596 -4.47175 5.41275 0
M  V30 2591 H 242.436 -0.779008 2.87638 0
M  V30 2592 H 239.973 -0.373166 1.42288 0
M  V30 2593 H 241.931 -3.24584 2.62109 0
M  V30 2594 H 240.561 -2.82614 1.55978 0
M  V30 2595 H 239.613 -1.41976 3.52912 0
M  V30 2596 H 240.925 -2.0634 4.5412 0
M  V30 2597 H 240.079 -4.39209 4.18545 0
M  V30 2598 H 238.818 -3.78512 3.07538 0
M  V30 2599 H 237.823 -2.42349 4.93505 0
M  V30 2600 H 239.048 -3.06031 6.06236 0
M  V30 2601 H 236.994 -4.72175 4.55397 0
M  V30 2602 H 236.911 -4.28419 6.22891 0
M  V30 2603 H 238.179 -5.3389 5.67963 0
M  V30 2604 N 242.408 -1.52605 -0.393616 0
M  V30 2605 C 243.318 -1.79971 -1.50492 0
M  V30 2606 C 244.334 -0.686181 -1.59899 0
M  V30 2607 O 245.51 -0.973274 -1.76322 0
M  V30 2608 C 242.575 -1.95867 -2.86072 0
M  V30 2609 C 241.636 -3.19781 -2.86424 0
M  V30 2610 C 240.869 -3.34909 -4.15538 0
M  V30 2611 O 241.092 -2.54948 -5.10253 0
M  V30 2612 O 240.026 -4.28141 -4.23059 0
M  V30 2613 H 243.852 -2.74328 -1.30299 0
M  V30 2614 H 241.437 -1.3764 -0.581005 0
M  V30 2615 H 243.319 -2.08056 -3.66457 0
M  V30 2616 H 241.994 -1.04699 -3.063 0
M  V30 2617 H 240.901 -3.13038 -2.04837 0
M  V30 2618 H 242.234 -4.1078 -2.71147 0
M  V30 2619 N 243.887 0.651787 -1.4349 0
M  V30 2620 C 245.135 1.40888 -1.44897 0
M  V30 2621 C 245.456 1.94856 -0.0749086 0
M  V30 2622 O 244.726 1.74518 0.889956 0
M  V30 2623 H 243.306 0.522887 -0.533478 0
M  V30 2624 H 245.968 0.768609 -1.79104 0
M  V30 2625 H 245.064 2.25052 -2.16236 0
M  V30 2626 N 245.365 1.30045 0.890287 0
M  V30 2627 C 246.611 1.18737 1.64406 0
M  V30 2628 C 246.944 -0.258525 1.92472 0
M  V30 2629 O 246.219 -1.18562 1.54186 0
M  V30 2630 C 246.502 2.01087 2.98724 0
M  V30 2631 C 246.355 3.53867 2.77665 0
M  V30 2632 C 247.674 1.84457 3.9958 0
M  V30 2633 H 244.793 0.432698 0.596608 0
M  V30 2634 H 247.435 1.5962 1.0306 0
M  V30 2635 H 245.585 1.66349 3.51084 0
M  V30 2636 H 247.257 3.98637 2.32133 0
M  V30 2637 H 245.5 3.78318 2.12269 0
M  V30 2638 H 246.171 4.06772 3.7315 0
M  V30 2639 H 248.647 2.14817 3.56361 0
M  V30 2640 H 247.523 2.44411 4.91482 0
M  V30 2641 H 247.784 0.802276 4.3476 0
M  V30 2642 N 246.843 -1.10192 1.12674 0
M  V30 2643 C 248.259 -1.34235 0.863317 0
M  V30 2644 C 248.459 -1.95062 -0.505277 0
M  V30 2645 O 247.515 -2.19192 -1.25345 0
M  V30 2646 C 248.828 -2.2616 1.98172 0
M  V30 2647 C 250.376 -2.3969 2.0129 0
M  V30 2648 C 250.851 -3.34946 3.1237 0
M  V30 2649 N 252.342 -3.42515 3.11829 0
M  V30 2650 C 253.077 -4.16199 3.94419 0
M  V30 2651 N 252.573 -4.92747 4.87004 0
M  V30 2652 N 254.366 -4.11843 3.82547 0
M  V30 2653 H 246.517 -0.690798 2.00853 0
M  V30 2654 H 248.78 -0.366774 0.874174 0
M  V30 2655 H 248.486 -1.8868 2.96804 0
M  V30 2656 H 248.36 -3.26488 1.88906 0
M  V30 2657 H 250.747 -2.76438 1.03276 0
M  V30 2658 H 250.828 -1.39169 2.14629 0
M  V30 2659 H 250.472 -2.98923 4.10619 0
M  V30 2660 H 250.402 -4.35353 2.96269 0
M  V30 2661 H 252.893 -2.87926 2.44759 0
M  V30 2662 H 253.206 -5.46376 5.46528 0
M  V30 2663 H 251.551 -4.91862 4.91016 0
M  V30 2664 H 254.742 -3.51136 3.0955 0
M  V30 2665 H 254.915 -4.69007 4.47142 0
M  V30 2666 N 248.321 -0.919034 -1.28029 0
M  V30 2667 C 249.231 -0.416756 -2.30869 0
M  V30 2668 C 250.247 0.498235 -1.66714 0
M  V30 2669 O 251.423 0.383144 -1.97722 0
M  V30 2670 C 248.488 0.330274 -3.45123 0
M  V30 2671 C 247.549 -0.618578 -4.2482 0
M  V30 2672 C 246.782 0.0928959 -5.33619 0
M  V30 2673 O 247.005 1.31375 -5.55065 0
M  V30 2674 O 245.939 -0.574499 -5.99152 0
M  V30 2675 H 249.765 -1.27043 -2.75851 0
M  V30 2676 H 247.35 -0.684052 -1.3282 0
M  V30 2677 H 249.232 0.751972 -4.14636 0
M  V30 2678 H 247.907 1.1597 -3.02213 0
M  V30 2679 H 246.814 -1.08978 -3.57875 0
M  V30 2680 H 248.147 -1.41497 -4.71423 0
M  V30 2681 N 249.799 1.42003 -0.683588 0
M  V30 2682 C 251.045 2.01712 -0.209825 0
M  V30 2683 C 251.378 1.53968 1.18353 0
M  V30 2684 O 250.653 0.745661 1.79639 0
M  V30 2685 C 250.936 3.59202 -0.254197 0
M  V30 2686 C 250.789 4.17102 -1.68363 0
M  V30 2687 C 252.108 4.38344 0.392709 0
M  V30 2688 H 249.227 0.732891 -0.0777189 0
M  V30 2689 H 251.869 1.68909 -0.87004 0
M  V30 2690 H 250.019 3.87278 0.307954 0
M  V30 2691 H 251.691 3.99946 -2.29871 0
M  V30 2692 H 249.934 3.72597 -2.22157 0
M  V30 2693 H 250.605 5.26249 -1.6663 0
M  V30 2694 H 253.081 4.16011 -0.0859162 0
M  V30 2695 H 251.957 5.47901 0.331063 0
M  V30 2696 H 252.218 4.16887 1.47164 0
M  V30 2697 N 251.277 0.427512 1.51691 0
M  V30 2698 C 252.524 -0.142229 2.02 0
M  V30 2699 C 252.852 -1.43566 1.31221 0
M  V30 2700 O 252.107 -1.91298 0.412744 0
M  V30 2701 C 252.406 -0.418249 3.54944 0
M  V30 2702 C 252.072 0.788187 4.43958 0
M  V30 2703 C 250.734 1.11906 4.68007 0
M  V30 2704 C 253.086 1.59347 4.96244 0
M  V30 2705 C 250.414 2.25608 5.41588 0
M  V30 2706 C 252.766 2.7214 5.71072 0
M  V30 2707 C 251.43 3.05692 5.93387 0
M  V30 2708 H 250.7 -0.0520451 0.73917 0
M  V30 2709 H 253.347 0.572697 1.82736 0
M  V30 2710 H 251.652 -1.21496 3.72486 0
M  V30 2711 H 253.349 -0.872339 3.91397 0
M  V30 2712 H 249.939 0.520344 4.2543 0
M  V30 2713 H 254.123 1.35106 4.77556 0
M  V30 2714 H 249.379 2.51929 5.57083 0
M  V30 2715 H 253.553 3.34914 6.10578 0
M  V30 2716 H 251.18 3.9391 6.50184 0
M  V30 2717 N 252.755 -1.56801 0.158532 0
M  V30 2718 C 253.665 -2.20916 -0.789518 0
M  V30 2719 C 254.681 -1.1969 -1.26294 0
M  V30 2720 O 255.857 -1.52308 -1.31773 0
M  V30 2721 C 252.922 -2.82727 -2.00665 0
M  V30 2722 C 251.983 -3.99114 -1.58134 0
M  V30 2723 C 251.216 -4.57968 -2.74045 0
M  V30 2724 O 251.439 -4.15704 -3.90572 0
M  V30 2725 O 250.373 -5.48047 -2.48855 0
M  V30 2726 H 254.199 -3.02464 -0.273681 0
M  V30 2727 H 251.784 -1.4924 -0.0690548 0
M  V30 2728 H 253.666 -3.21968 -2.71872 0
M  V30 2729 H 252.341 -2.04184 -2.51179 0
M  V30 2730 H 251.248 -3.64567 -0.839155 0
M  V30 2731 H 252.581 -4.79212 -1.12325 0
M  V30 2732 N 254.233 0.115231 -1.57178 0
M  V30 2733 C 255.461 0.836437 -1.89239 0
M  V30 2734 C 255.876 1.73256 -0.750175 0
M  V30 2735 O 255.233 1.80357 0.278832 0
M  V30 2736 C 255.284 1.66671 -3.20785 0
M  V30 2737 O 255.005 0.806652 -4.3061 0
M  V30 2738 C 256.506 2.49274 -3.66575 0
M  V30 2739 H 253.726 0.240253 -0.626514 0
M  V30 2740 H 256.27 0.0984932 -2.04263 0
M  V30 2741 H 254.425 2.35737 -3.0742 0
M  V30 2742 H 254.839 1.37969 -5.06028 0
M  V30 2743 H 256.313 3.03055 -4.6137 0
M  V30 2744 H 256.79 3.26807 -2.93417 0
M  V30 2745 H 257.396 1.85443 -3.82741 0
M  V30 2746 N 255.711 1.52812 0.385517 0
M  V30 2747 C 256.674 1.77188 1.45386 0
M  V30 2748 C 257.674 0.641953 1.4743 0
M  V30 2749 O 258.864 0.910033 1.4854 0
M  V30 2750 C 255.996 1.87582 2.8465 0
M  V30 2751 H 257.189 2.72583 1.25054 0
M  V30 2752 H 254.742 1.43586 0.617467 0
M  V30 2753 H 255.477 0.941849 3.10322 0
M  V30 2754 H 255.262 2.69748 2.84567 0
M  V30 2755 H 256.752 2.08102 3.62054 0
M  V30 2756 N 257.189 -0.644168 1.43834 0
M  V30 2757 C 258.417 -1.43147 1.49387 0
M  V30 2758 C 258.832 -1.88452 0.114583 0
M  V30 2759 O 258.189 -1.60047 -0.876989 0
M  V30 2760 C 258.24 -2.66046 2.44748 0
M  V30 2761 O 257.961 -2.22633 3.77314 0
M  V30 2762 C 259.462 -3.59311 2.59635 0
M  V30 2763 H 256.682 -0.439447 0.507077 0
M  V30 2764 H 259.226 -0.78895 1.88669 0
M  V30 2765 H 257.381 -3.26418 2.08638 0
M  V30 2766 H 257.795 -3.02216 4.28679 0
M  V30 2767 H 259.269 -4.42187 3.30416 0
M  V30 2768 H 259.746 -4.07259 1.64427 0
M  V30 2769 H 260.352 -3.04816 2.96593 0
M  V30 2770 N 258.668 -1.30515 -0.883378 0
M  V30 2771 C 260.084 -1.08881 -1.16692 0
M  V30 2772 C 260.284 0.149409 -2.00945 0
M  V30 2773 O 259.34 0.84257 -2.38027 0
M  V30 2774 C 260.653 -2.35319 -1.87204 0
M  V30 2775 C 262.201 -2.40799 -1.99962 0
M  V30 2776 C 262.676 -3.67083 -2.73887 0
M  V30 2777 N 264.167 -3.679 -2.81432 0
M  V30 2778 C 264.902 -4.62303 -3.3921 0
M  V30 2779 N 264.398 -5.67052 -3.98025 0
M  V30 2780 N 266.191 -4.49845 -3.3704 0
M  V30 2781 H 258.342 -2.09951 -0.321633 0
M  V30 2782 H 260.605 -0.92556 -0.205043 0
M  V30 2783 H 260.311 -3.25689 -1.3274 0
M  V30 2784 H 260.185 -2.44089 -2.87577 0
M  V30 2785 H 262.572 -1.50907 -2.53597 0
M  V30 2786 H 262.653 -2.36003 -0.98673 0
M  V30 2787 H 262.297 -4.57334 -2.20925 0
M  V30 2788 H 262.227 -3.69141 -3.75556 0
M  V30 2789 H 264.718 -2.92171 -2.39676 0
M  V30 2790 H 265.031 -6.35184 -4.40183 0
M  V30 2791 H 263.376 -5.70842 -3.96439 0
M  V30 2792 H 266.567 -3.67194 -2.90321 0
M  V30 2793 H 266.74 -5.23597 -3.81772 0
M  V30 2794 N 260.146 1.09593 -1.13257 0
M  V30 2795 C 261.109 2.14359 -0.811358 0
M  V30 2796 C 262.109 1.59808 0.178377 0
M  V30 2797 O 263.299 1.74132 -0.0484911 0
M  V30 2798 C 260.431 3.40269 -0.207276 0
M  V30 2799 H 261.624 2.44284 -1.73969 0
M  V30 2800 H 259.177 1.25102 -0.936973 0
M  V30 2801 H 259.912 3.15969 0.73036 0
M  V30 2802 H 259.697 3.81154 -0.919992 0
M  V30 2803 H 261.187 4.176 0.000667944 0
M  V30 2804 N 261.624 0.925811 1.2754 0
M  V30 2805 C 262.587 0.428129 2.25166 0
M  V30 2806 C 263.587 -0.452261 1.54309 0
M  V30 2807 O 264.777 -0.253608 1.72344 0
M  V30 2808 C 261.909 -0.384749 3.38722 0
M  V30 2809 H 263.102 1.29066 2.70706 0
M  V30 2810 H 260.655 0.706323 1.3943 0
M  V30 2811 H 261.39 -1.26618 2.98561 0
M  V30 2812 H 261.175 0.246454 3.91325 0
M  V30 2813 H 262.665 -0.723389 4.11287 0
M  V30 2814 N 263.102 -1.41638 0.69111 0
M  V30 2815 C 264.032 -2.3347 0.037248 0
M  V30 2816 C 265.013 -1.51575 -0.771947 0
M  V30 2817 O 266.198 -1.80126 -0.72582 0
M  V30 2818 C 263.328 -3.35354 -0.903064 0
M  V30 2819 C 262.282 -4.27526 -0.201288 0
M  V30 2820 C 261.608 -5.19747 -1.25565 0
M  V30 2821 C 262.908 -5.13959 0.929689 0
M  V30 2822 H 264.602 -2.88397 0.804227 0
M  V30 2823 H 262.148 -1.38669 0.388189 0
M  V30 2824 H 264.101 -3.98519 -1.36969 0
M  V30 2825 H 262.825 -2.78767 -1.70166 0
M  V30 2826 H 261.484 -3.65779 0.245265 0
M  V30 2827 H 261.132 -4.59479 -2.04666 0
M  V30 2828 H 260.832 -5.8225 -0.791128 0
M  V30 2829 H 262.356 -5.85789 -1.72288 0
M  V30 2830 H 263.77 -5.70718 0.543546 0
M  V30 2831 H 262.167 -5.85379 1.32103 0
M  V30 2832 H 263.237 -4.51389 1.77133 0
M  V30 2833 N 264.58 -0.43555 -1.51462 0
M  V30 2834 C 265.512 0.41257 -2.25456 0
M  V30 2835 C 266.525 0.987822 -1.29406 0
M  V30 2836 O 267.714 0.882266 -1.55172 0
M  V30 2837 C 264.814 1.58894 -2.99342 0
M  V30 2838 C 263.987 1.13288 -4.22474 0
M  V30 2839 C 263.046 2.17917 -4.78956 0
M  V30 2840 O 262.072 1.77425 -5.40841 0
M  V30 2841 N 263.274 3.50382 -4.62832 0
M  V30 2842 H 266.039 -0.221603 -2.9888 0
M  V30 2843 H 263.6 -0.264342 -1.59727 0
M  V30 2844 H 265.592 2.28508 -3.34015 0
M  V30 2845 H 264.162 2.12849 -2.28941 0
M  V30 2846 H 263.382 0.263881 -3.93316 0
M  V30 2847 H 264.67 0.805542 -5.02383 0
M  V30 2848 H 264.068 3.86013 -4.13534 0
M  V30 2849 H 262.625 4.15895 -5.01871 0
M  V30 2850 N 266.058 1.56714 -0.166846 0
M  V30 2851 C 267.005 2.17746 0.765193 0
M  V30 2852 C 267.975 1.11614 1.23011 0
M  V30 2853 O 269.16 1.39745 1.29908 0
M  V30 2854 C 266.3 2.81882 1.9909 0
M  V30 2855 C 265.413 4.02462 1.56997 0
M  V30 2856 C 264.548 4.54537 2.749 0
M  V30 2857 C 263.587 5.67538 2.29275 0
M  V30 2858 N 262.724 6.14142 3.40255 0
M  V30 2859 H 267.564 2.97048 0.237952 0
M  V30 2860 H 265.101 1.4672 0.105725 0
M  V30 2861 H 267.059 3.17221 2.70974 0
M  V30 2862 H 265.689 2.05191 2.49192 0
M  V30 2863 H 264.741 3.72973 0.748037 0
M  V30 2864 H 266.053 4.84273 1.19503 0
M  V30 2865 H 265.207 4.92035 3.54946 0
M  V30 2866 H 263.946 3.71774 3.1565 0
M  V30 2867 H 262.951 5.29597 1.47674 0
M  V30 2868 H 264.176 6.52099 1.89588 0
M  V30 2869 H 262.122 5.3431 3.8059 0
M  V30 2870 H 262.039 6.9093 3.06841 0
M  V30 2871 H 263.307 6.56289 4.206 0
M  V30 2872 N 267.536 -0.106894 1.57237 0
M  V30 2873 C 268.952 -0.46078 1.52804 0
M  V30 2874 C 269.152 -1.81184 0.881746 0
M  V30 2875 O 268.208 -2.48102 0.469224 0
M  V30 2876 C 269.521 -0.434127 2.9755 0
M  V30 2877 C 271.069 -0.516821 3.08704 0
M  V30 2878 C 271.544 -0.520436 4.55033 0
M  V30 2879 N 273.035 -0.58153 4.59535 0
M  V30 2880 C 273.77 -0.605973 5.70189 0
M  V30 2881 N 273.266 -0.587331 6.90306 0
M  V30 2882 N 275.059 -0.649895 5.5833 0
M  V30 2883 H 267.21 0.778203 1.9763 0
M  V30 2884 H 269.473 0.288403 0.903066 0
M  V30 2885 H 269.179 0.491197 3.48253 0
M  V30 2886 H 269.053 -1.25748 3.55622 0
M  V30 2887 H 271.44 -1.43256 2.57995 0
M  V30 2888 H 271.521 0.334449 2.53604 0
M  V30 2889 H 271.165 0.391313 5.0639 0
M  V30 2890 H 271.095 -1.38876 5.07958 0
M  V30 2891 H 273.586 -0.60161 3.73081 0
M  V30 2892 H 273.899 -0.60894 7.70397 0
M  V30 2893 H 272.244 -0.554564 6.92784 0
M  V30 2894 H 275.435 -0.661907 4.63397 0
M  V30 2895 H 275.608 -0.665476 6.44574 0
M  V30 2896 N 269.014 -1.53014 -0.377408 0
M  V30 2897 C 270.244 -1.72265 -1.14054 0
M  V30 2898 C 270.652 -0.44601 -1.83868 0
M  V30 2899 O 269.995 0.590095 -1.73964 0
M  V30 2900 C 270.057 -2.82492 -2.22348 0
M  V30 2901 C 269.721 -4.23233 -1.72402 0
M  V30 2902 C 270.718 -5.05992 -1.19448 0
M  V30 2903 C 268.403 -4.696 -1.78273 0
M  V30 2904 C 270.397 -6.33203 -0.730268 0
M  V30 2905 C 268.084 -5.96792 -1.31464 0
M  V30 2906 C 269.082 -6.78424 -0.789297 0
M  V30 2907 O 268.77 -8.0323 -0.328077 0
M  V30 2908 H 268.502 -0.579873 -0.347453 0
M  V30 2909 H 271.056 -2.00502 -0.445882 0
M  V30 2910 H 269.286 -2.49702 -2.95272 0
M  V30 2911 H 270.975 -2.90034 -2.83963 0
M  V30 2912 H 271.741 -4.71349 -1.14259 0
M  V30 2913 H 267.62 -4.06142 -2.18106 0
M  V30 2914 H 271.164 -6.96868 -0.319542 0
M  V30 2915 H 267.061 -6.30937 -1.36342 0
M  V30 2916 H 267.829 -8.1727 -0.448493 0
M  V30 2917 N 270.492 0.636531 -1.44174 0
M  V30 2918 C 271.74 1.39343 -1.46383 0
M  V30 2919 C 272.061 1.94766 -0.0955715 0
M  V30 2920 O 271.331 1.75452 0.871395 0
M  V30 2921 H 269.911 0.517199 -0.538994 0
M  V30 2922 H 272.573 0.74957 -1.7991 0
M  V30 2923 H 271.669 2.22746 -2.18611 0
M  V30 2924 N 271.97 1.30982 0.876444 0
M  V30 2925 C 273.195 1.23373 1.66715 0
M  V30 2926 C 273.62 -0.19885 1.87046 0
M  V30 2927 O 272.978 -1.1427 1.40756 0
M  V30 2928 C 273.026 1.97644 3.01611 0
M  V30 2929 O 272.13 1.30935 3.91062 0
M  V30 2930 H 271.471 0.426279 0.509099 0
M  V30 2931 H 274.001 1.72944 1.09323 0
M  V30 2932 H 274.011 2.06992 3.51594 0
M  V30 2933 H 272.686 3.01829 2.86133 0
M  V30 2934 H 271.263 1.29996 3.49507 0
M  V30 2935 N 273.449 -1.08991 1.13837 0
M  V30 2936 C 274.381 -2.15606 0.777612 0
M  V30 2937 C 275.394 -1.61533 -0.202739 0
M  V30 2938 O 276.583 -1.78491 0.0181055 0
M  V30 2939 C 273.683 -3.3864 0.132623 0
M  V30 2940 C 272.856 -4.22115 1.1462 0
M  V30 2941 C 271.915 -5.23564 0.526074 0
M  V30 2942 O 270.941 -5.56678 1.18735 0
M  V30 2943 N 272.143 -5.76266 -0.699866 0
M  V30 2944 H 274.908 -2.47159 1.69506 0
M  V30 2945 H 272.469 -1.24747 1.03198 0
M  V30 2946 H 274.461 -4.03626 -0.29459 0
M  V30 2947 H 273.031 -3.04938 -0.687849 0
M  V30 2948 H 272.251 -3.53199 1.75055 0
M  V30 2949 H 273.539 -4.74709 1.83109 0
M  V30 2950 H 272.937 -5.51585 -1.25581 0
M  V30 2951 H 271.494 -6.42963 -1.06968 0
M  V30 2952 N 274.927 -0.932562 -1.27047 0
M  V30 2953 C 275.875 -0.42603 -2.28665 0
M  V30 2954 C 276.869 0.49219 -1.62092 0
M  V30 2955 O 278.075 0.371355 -1.76128 0
M  V30 2956 H 274.45 -0.119213 -0.742491 0
M  V30 2957 H 276.421 -1.29579 -2.68797 0
M  V30 2958 C 275.17 0.301426 -3.46391 0
M  V30 2959 H 274.493 -0.39595 -3.97834 0
M  V30 2960 H 275.933 0.6202 -4.1944 0
M  V30 2961 C 274.392 1.51616 -3.00856 0
M  V30 2962 O 274.922 2.61476 -3.04948 0
M  V30 2963 N 273.128 1.36969 -2.56296 0
M  V30 2964 H 272.675 0.475873 -2.53166 0
M  V30 2965 H 272.633 2.18368 -2.26192 0
M  V30 2966 N 276.405 1.4127 -0.698611 0
M  V30 2967 C 277.653 2.00782 -0.230409 0
M  V30 2968 C 277.974 1.5562 1.17505 0
M  V30 2969 O 277.244 0.78815 1.79346 0
M  V30 2970 H 275.824 0.742464 -0.0821944 0
M  V30 2971 H 278.486 1.72852 -0.90045 0
M  V30 2972 H 277.582 3.11095 -0.25021 0
M  V30 2973 N 277.883 0.443576 1.51229 0
M  V30 2974 C 279.123 -0.119889 2.04048 0
M  V30 2975 C 279.487 -1.39418 1.32009 0
M  V30 2976 O 280.688 -2.03829 1.75235 0
M  V30 2977 C 278.959 -0.327233 3.55899 0
M  V30 2978 S 280.518 -0.853208 4.30425 0
M  V30 2979 H 277.336 -0.028921 0.710412 0
M  V30 2980 H 279.938 0.604413 1.85922 0
M  V30 2981 H 278.642 0.606445 4.05895 0
M  V30 2982 H 278.173 -1.07844 3.7833 0
M  V30 2983 H 280.188 -2.13005 4.48155 0
M  V30 2984 N 279.361 -1.56624 0.175154 0
M  V30 2985 C 280.61 -1.96173 -0.468921 0
M  V30 2986 C 280.923 -1.06401 -1.64128 0
M  V30 2987 O 282.129 -1.35648 -2.35185 0
M  V30 2988 C 280.585 -3.48833 -0.885633 0
M  V30 2989 C 280.193 -4.47237 0.261343 0
M  V30 2990 C 281.937 -3.97194 -1.49791 0
M  V30 2991 C 279.844 -5.9114 -0.175214 0
M  V30 2992 H 278.774 -0.732455 -0.178958 0
M  V30 2993 H 281.425 -1.81591 0.263997 0
M  V30 2994 H 279.807 -3.58848 -1.67464 0
M  V30 2995 H 280.981 -4.4894 1.03871 0
M  V30 2996 H 279.296 -4.08956 0.783827 0
M  V30 2997 H 281.893 -5.02167 -1.83665 0
M  V30 2998 H 282.236 -3.40351 -2.39722 0
M  V30 2999 H 282.769 -3.90212 -0.773267 0
M  V30 3000 H 279.508 -6.51865 0.689414 0
M  V30 3001 H 279.028 -5.92735 -0.91786 0
M  V30 3002 H 280.707 -6.44044 -0.617792 0
M  V30 3003 N 280.839 0.0985539 -1.57292 0
M  V30 3004 C 281.787 1.1387 -2.02821 0
M  V30 3005 C 282.781 1.41676 -0.928666 0
M  V30 3006 O 283.987 1.41398 -1.11385 0
M  V30 3007 H 280.362 0.384419 -0.646317 0
M  V30 3008 H 282.333 0.728347 -2.89375 0
M  V30 3009 C 281.082 2.45166 -2.46554 0
M  V30 3010 H 280.405 2.24613 -3.3074 0
M  V30 3011 H 281.845 3.16456 -2.8219 0
M  V30 3012 C 280.304 3.09216 -1.33742 0
M  V30 3013 O 280.834 3.96163 -0.66464 0
M  V30 3014 N 279.04 2.69413 -1.08928 0
M  V30 3015 H 278.587 1.98801 -1.63817 0
M  V30 3016 H 278.545 3.12594 -0.336458 0
M  V30 3017 N 282.317 1.53212 0.369288 0
M  V30 3018 C 283.557 1.70915 1.12105 0
M  V30 3019 C 283.921 0.449444 1.86665 0
M  V30 3020 O 285.122 0.503105 2.6405 0
M  V30 3021 C 283.393 2.9222 2.05772 0
M  V30 3022 S 284.952 3.30609 2.88519 0
M  V30 3023 H 281.77 0.601445 0.379189 0
M  V30 3024 H 284.372 1.91306 0.402794 0
M  V30 3025 H 283.076 3.82103 1.49752 0
M  V30 3026 H 282.607 2.7422 2.82076 0
M  V30 3027 H 284.622 2.82333 4.08047 0
M  V30 3028 N 283.795 -0.628877 1.44509 0
M  V30 3029 C 285.035 -1.39993 1.48934 0
M  V30 3030 C 285.399 -1.91627 0.119604 0
M  V30 3031 O 286.6 -2.68772 0.0385283 0
M  V30 3032 C 284.871 -2.53241 2.52198 0
M  V30 3033 S 286.43 -3.41383 2.75687 0
M  V30 3034 H 283.248 -0.477558 0.526744 0
M  V30 3035 H 285.85 -0.727804 1.81448 0
M  V30 3036 H 284.554 -2.13622 3.50419 0
M  V30 3037 H 284.085 -3.25278 2.21264 0
M  V30 3038 H 286.1 -4.50752 2.07453 0
M  V30 3039 N 285.273 -1.31445 -0.869486 0
M  V30 3040 C 286.22 -1.19135 -1.97675 0
M  V30 3041 C 287.19 -0.0770266 -1.65921 0
M  V30 3042 O 288.375 -0.249972 -1.89155 0
M  V30 3043 C 285.515 -0.905149 -3.33018 0
M  V30 3044 C 284.628 -2.10285 -3.77365 0
M  V30 3045 C 283.763 -1.75339 -5.01427 0
M  V30 3046 C 282.802 -2.91515 -5.38224 0
M  V30 3047 N 281.939 -2.56762 -6.53466 0
M  V30 3048 H 286.779 -2.13853 -2.07535 0
M  V30 3049 H 284.316 -1.06379 -1.01597 0
M  V30 3050 H 286.274 -0.719765 -4.10944 0
M  V30 3051 H 284.904 0.00519624 -3.228 0
M  V30 3052 H 283.956 -2.39899 -2.95216 0
M  V30 3053 H 285.268 -2.97237 -4.00564 0
M  V30 3054 H 284.422 -1.53266 -5.87022 0
M  V30 3055 H 283.161 -0.855801 -4.80133 0
M  V30 3056 H 282.166 -3.14237 -4.51149 0
M  V30 3057 H 283.391 -3.81985 -5.61484 0
M  V30 3058 H 281.337 -1.69526 -6.33717 0
M  V30 3059 H 281.254 -3.37243 -6.76612 0
M  V30 3060 H 282.522 -2.38083 -7.42251 0
M  V30 3061 N 286.751 1.08385 -1.14413 0
M  V30 3062 C 287.997 1.81044 -0.913834 0
M  V30 3063 C 288.33 1.86004 0.558209 0
M  V30 3064 O 287.605 1.33606 1.4135 0
M  V30 3065 C 287.888 3.26648 -1.51569 0
M  V30 3066 C 287.741 3.29895 -3.0576 0
M  V30 3067 C 289.06 4.23629 -1.19273 0
M  V30 3068 H 286.179 0.65727 -0.333414 0
M  V30 3069 H 288.821 1.26896 -1.41412 0
M  V30 3070 H 286.971 3.72889 -1.09023 0
M  V30 3071 H 288.643 2.91977 -3.57137 0
M  V30 3072 H 286.886 2.69163 -3.40197 0
M  V30 3073 H 287.557 4.32516 -3.42977 0
M  V30 3074 H 290.033 3.85727 -1.56057 0
M  V30 3075 H 288.909 5.23822 -1.64017 0
M  V30 3076 H 289.17 4.41968 -0.108068 0
M  V30 3077 N 288.23 0.939286 1.26551 0
M  V30 3078 C 289.16 0.465044 2.28822 0
M  V30 3079 C 290.141 -0.480692 1.63167 0
M  V30 3080 O 291.326 -0.382955 1.90387 0
M  V30 3081 C 288.456 -0.27234 3.46231 0
M  V30 3082 C 287.41 0.58666 4.2396 0
M  V30 3083 C 286.736 -0.280573 5.33963 0
M  V30 3084 C 288.036 1.85704 4.88171 0
M  V30 3085 H 289.73 1.31979 2.68741 0
M  V30 3086 H 287.276 0.636061 1.29191 0
M  V30 3087 H 289.229 -0.615133 4.16886 0
M  V30 3088 H 287.953 -1.16121 3.0526 0
M  V30 3089 H 286.612 0.91232 3.55067 0
M  V30 3090 H 286.26 -1.16874 4.89234 0
M  V30 3091 H 285.96 0.29076 5.8688 0
M  V30 3092 H 287.484 -0.618678 6.07458 0
M  V30 3093 H 288.898 1.58161 5.51052 0
M  V30 3094 H 287.295 2.37279 5.51197 0
M  V30 3095 H 288.365 2.56957 4.11219 0
M  V30 3096 O 289.747 -1.37657 0.844552 0
M  V30 3097 H 290.438 -1.88761 0.43461 0
M  V30 END ATOM
M  V30 BEGIN BOND
M  V30 END BOND
M  V30 END CTAB
M  END
$$$$
