drugbank_target|P62753 40S ribosomal protein S6 (DB11638)
 OpenBabel12092121093D

  0  0  0     0  0            999 V3000
M  V30 BEGIN CTAB
M  V30 COUNTS 4192 4215 0 0 0
M  V30 BEGIN ATOM
M  V30 1 H -0.908 1.98254 -0.117106 0
M  V30 2 N 0 1.576 0 0
M  V30 3 C 0.933 2.03868 1.02534 0
M  V30 4 C 1.911 0.928543 1.3348 0
M  V30 5 O 3.095 1.19667 1.45644 0
M  V30 6 C 0.222 2.43627 2.35294 0
M  V30 7 C -0.732 3.65373 2.2001 0
M  V30 8 S 0.101 5.13292 1.52614 0
M  V30 9 C 1.257 5.56322 2.86805 0
M  V30 10 H 1.49 2.90518 0.631377 0
M  V30 11 H -0.977 1.52953 0.210867 0
M  V30 12 H 0.981 2.67203 3.11629 0
M  V30 13 H -0.358 1.57376 2.7183 0
M  V30 14 H -1.165 3.90944 3.18086 0
M  V30 15 H -1.563 3.418 1.51819 0
M  V30 16 H 0.729 5.58782 3.83104 0
M  V30 17 H 1.672 6.56266 2.65933 0
M  V30 18 H 2.08 4.83886 2.90714 0
M  V30 19 N 1.4781 -0.272755 1.55222 0
M  V30 20 C 2.4251 -1.33716 1.88119 0
M  V30 21 C 3.3951 -1.49066 0.73271 0
M  V30 22 O 4.5801 -1.63469 0.984002 0
M  V30 23 C 1.7201 -2.69238 2.15882 0
M  V30 24 C 0.8331 -2.62108 3.43399 0
M  V30 25 C -0.0319 -3.89811 3.60861 0
M  V30 26 C -0.9929 -3.77193 4.8207 0
M  V30 27 N -1.8559 -4.9673 4.96189 0
M  V30 28 H 2.9841 -1.04962 2.78903 0
M  V30 29 H 0.5211 -0.507088 1.38083 0
M  V30 30 H 2.4791 -3.48089 2.29978 0
M  V30 31 H 1.1091 -2.96194 1.28331 0
M  V30 32 H 0.1611 -1.74967 3.37773 0
M  V30 33 H 1.4731 -2.48685 4.32386 0
M  V30 34 H 0.6271 -4.77103 3.74777 0
M  V30 35 H -0.6339 -4.06102 2.7006 0
M  V30 36 H -1.6289 -2.88284 4.68159 0
M  V30 37 H -0.4039 -3.62421 5.74307 0
M  V30 38 H -2.4579 -5.13431 4.08319 0
M  V30 39 H -2.5409 -4.85839 5.79221 0
M  V30 40 H -1.2729 -5.85594 5.1449 0
M  V30 41 N 2.9562 -1.48159 -0.537278 0
M  V30 42 C 3.8862 -1.65029 -1.6519 0
M  V30 43 C 4.8672 -0.499281 -1.62607 0
M  V30 44 O 6.0522 -0.730972 -1.79918 0
M  V30 45 C 3.1822 -1.68303 -3.03795 0
M  V30 46 C 2.1362 -2.8283 -3.21234 0
M  V30 47 C 1.4622 -2.71189 -4.60826 0
M  V30 48 C 2.7622 -4.24211 -3.04701 0
M  V30 49 H 4.4562 -2.58341 -1.51328 0
M  V30 50 H 2.0022 -1.24325 -0.726585 0
M  V30 51 H 3.9552 -1.78693 -3.81637 0
M  V30 52 H 2.6792 -0.715635 -3.18663 0
M  V30 53 H 1.3382 -2.71983 -2.45807 0
M  V30 54 H 0.9862 -1.72435 -4.7252 0
M  V30 55 H 0.6862 -3.48035 -4.7344 0
M  V30 56 H 2.2102 -2.83537 -5.40777 0
M  V30 57 H 3.6242 -4.3593 -3.72341 0
M  V30 58 H 2.0212 -5.01998 -3.28813 0
M  V30 59 H 3.0912 -4.41184 -2.01209 0
M  V30 60 N 4.4343 0.785586 -1.36625 0
M  V30 61 C 5.3823 1.91978 -1.31329 0
M  V30 62 C 6.3763 1.68162 -0.204416 0
M  V30 63 O 7.5823 1.76122 -0.371645 0
M  V30 64 H 3.9573 0.631087 -0.408942 0
M  V30 65 H 5.9283 1.93562 -2.27104 0
M  V30 66 C 4.6773 3.29055 -1.12329 0
M  V30 67 H 4.0003 3.4795 -1.96903 0
M  V30 68 H 5.4403 4.08756 -1.12671 0
M  V30 69 C 3.8993 3.36461 0.171861 0
M  V30 70 O 4.4293 3.84576 1.16035 0
M  V30 71 N 2.6353 2.89782 0.217846 0
M  V30 72 H 2.1823 2.50819 -0.587183 0
M  V30 73 H 2.1403 2.95119 1.08408 0
M  V30 74 N 5.9124 1.20967 1.01018 0
M  V30 75 C 7.1614 1.01796 1.74128 0
M  V30 76 C 7.4744 -0.449691 1.90361 0
M  V30 77 O 8.6804 -0.76068 2.60626 0
M  V30 78 C 7.1364 1.7727 3.13215 0
M  V30 79 C 6.7444 3.28171 3.04972 0
M  V30 80 C 8.4884 1.66489 3.90489 0
M  V30 81 C 6.3954 3.96156 4.39107 0
M  V30 82 H 5.3254 0.377276 0.652824 0
M  V30 83 H 7.9764 1.44651 1.12909 0
M  V30 84 H 6.3584 1.27205 3.75013 0
M  V30 85 H 7.5324 3.85499 2.52443 0
M  V30 86 H 5.8474 3.39437 2.41188 0
M  V30 87 H 8.4444 2.14617 4.89738 0
M  V30 88 H 8.7874 0.6222 4.11624 0
M  V30 89 H 9.3204 2.14003 3.35332 0
M  V30 90 H 6.0594 5.00604 4.23174 0
M  V30 91 H 5.5794 3.43617 4.91617 0
M  V30 92 H 7.2584 4.00774 5.07926 0
M  V30 93 N 7.3905 -1.2043 1.01659 0
M  V30 94 C 8.6155 -1.94318 0.724942 0
M  V30 95 C 9.0405 -1.74266 -0.708034 0
M  V30 96 O 8.3985 -1.03694 -1.48719 0
M  V30 97 C 8.4465 -3.44486 1.06591 0
M  V30 98 O 7.5505 -4.12017 0.177599 0
M  V30 99 H 6.8915 -0.60708 0.26898 0
M  V30 100 H 9.4215 -1.52861 1.35995 0
M  V30 101 H 9.4315 -3.95106 1.01762 0
M  V30 102 H 8.1065 -3.58404 2.10997 0
M  V30 103 H 6.6835 -3.71821 0.283421 0
M  V30 104 N 8.8686 -0.792821 -1.36206 0
M  V30 105 C 10.1156 -0.366786 -1.99151 0
M  V30 106 C 10.4436 1.06243 -1.62919 0
M  V30 107 O 9.6986 1.74927 -0.877442 0
M  V30 108 C 9.9976 -0.481501 -3.54142 0
M  V30 109 C 9.6636 -1.87202 -4.10203 0
M  V30 110 C 8.3256 -2.25248 -4.25226 0
M  V30 111 C 10.6776 -2.78237 -4.40719 0
M  V30 112 C 8.0056 -3.53723 -4.68078 0
M  V30 113 C 10.3576 -4.06144 -4.85005 0
M  V30 114 C 9.0216 -4.44207 -4.98234 0
M  V30 115 H 8.2916 -0.134217 -0.728743 0
M  V30 116 H 10.9386 -1.01094 -1.62641 0
M  V30 117 H 9.2436 0.246146 -3.91026 0
M  V30 118 H 10.9406 -0.132844 -4.0078 0
M  V30 119 H 7.5306 -1.56639 -3.98951 0
M  V30 120 H 11.7146 -2.50097 -4.28679 0
M  V30 121 H 6.9706 -3.8308 -4.76508 0
M  V30 122 H 11.1446 -4.76796 -5.07581 0
M  V30 123 H 8.7716 -5.43814 -5.31197 0
M  V30 124 N 10.3467 1.47872 -0.545128 0
M  V30 125 C 11.7577 1.86384 -0.108581 0
M  V30 126 C 12.1087 1.45309 1.31832 0
M  V30 127 O 11.2337 0.850641 1.9898 0
M  V30 128 C 11.8287 3.38265 -0.190274 0
M  V30 129 C 10.3877 3.75914 0.191164 0
M  V30 130 C 9.5347 2.71926 -0.543273 0
M  V30 131 H 12.4857 1.39561 -0.755537 0
M  V30 132 H 12.5067 3.75831 0.594217 0
M  V30 133 H 12.0187 3.6813 -1.2289 0
M  V30 134 H 10.1197 3.51665 1.23136 0
M  V30 135 H 10.2327 4.78836 -0.158987 0
M  V30 136 H 8.5967 2.54697 0.0122495 0
M  V30 137 H 9.3797 3.04634 -1.58282 0
M  V30 138 N 11.8248 0.280983 1.55075 0
M  V30 139 C 12.7878 -0.590896 2.21452 0
M  V30 140 C 13.7878 -1.07682 1.19421 0
M  V30 141 O 14.9778 -0.97605 1.44288 0
M  V30 142 C 12.1098 -1.81587 2.88511 0
M  V30 143 H 13.3028 -0.0112554 2.99898 0
M  V30 144 H 10.8558 0.0316438 1.56268 0
M  V30 145 H 11.5908 -2.43587 2.14093 0
M  V30 146 H 11.3758 -1.4753 3.63287 0
M  V30 147 H 12.8658 -2.43575 3.39206 0
M  V30 148 N 13.3029 -1.57598 0.00835791 0
M  V30 149 C 14.5309 -1.95214 -0.68549 0
M  V30 150 C 14.9459 -0.883706 -1.66841 0
M  V30 151 O 14.3029 0.136565 -1.81988 0
M  V30 152 C 14.3539 -3.32865 -1.41007 0
M  V30 153 O 14.0749 -4.35609 -0.466552 0
M  V30 154 C 15.5759 -3.84991 -2.19765 0
M  V30 155 H 12.7959 -0.643422 -0.190392 0
M  V30 156 H 15.3399 -2.04406 0.0619607 0
M  V30 157 H 13.4949 -3.24956 -2.10908 0
M  V30 158 H 13.9089 -5.15288 -0.978699 0
M  V30 159 H 15.3829 -4.8371 -2.65948 0
M  V30 160 H 15.8599 -3.18137 -3.02796 0
M  V30 161 H 16.4659 -3.96103 -1.54864 0
M  V30 162 N 14.781 0.264519 -1.55364 0
M  V30 163 C 16.029 0.993021 -1.76021 0
M  V30 164 C 16.35 1.86511 -0.569099 0
M  V30 165 O 15.62 1.91438 0.415735 0
M  V30 166 H 14.2 0.369639 -0.649135 0
M  V30 167 H 16.862 0.286707 -1.9278 0
M  V30 168 H 15.958 1.62502 -2.66457 0
M  V30 169 N 16.2591 1.48442 0.529413 0
M  V30 170 C 17.4991 1.58086 1.29569 0
M  V30 171 C 17.8631 0.249302 1.90375 0
M  V30 172 O 19.0641 0.220738 2.67892 0
M  V30 173 C 17.3351 2.68793 2.35552 0
M  V30 174 S 18.8941 2.98207 3.21898 0
M  V30 175 H 15.7121 0.557922 0.440732 0
M  V30 176 H 18.3141 1.85966 0.603059 0
M  V30 177 H 17.0181 3.64102 1.89363 0
M  V30 178 H 16.5491 2.42817 3.09522 0
M  V30 179 H 18.5641 2.37548 4.35644 0
M  V30 180 N 17.7372 -0.778329 1.37039 0
M  V30 181 C 18.6692 -1.90034 1.2814 0
M  V30 182 C 19.6822 -1.61585 0.198558 0
M  V30 183 O 20.8712 -1.72625 0.454175 0
M  V30 184 C 17.9712 -3.25108 0.956968 0
M  V30 185 C 17.1442 -3.81253 2.14394 0
M  V30 186 C 16.2032 -4.94789 1.79082 0
M  V30 187 O 15.2292 -5.10721 2.51301 0
M  V30 188 N 16.4312 -5.75878 0.731043 0
M  V30 189 H 19.1962 -1.98186 2.24816 0
M  V30 190 H 16.7572 -0.957129 1.30578 0
M  V30 191 H 18.7492 -3.9857 0.701701 0
M  V30 192 H 17.3192 -3.125 0.0789812 0
M  V30 193 H 16.5392 -2.99647 2.56135 0
M  V30 194 H 17.8272 -4.15495 2.93668 0
M  V30 195 H 17.2252 -5.65547 0.131618 0
M  V30 196 H 15.7822 -6.49596 0.535622 0
M  V30 197 N 19.2153 -1.21501 -1.00376 0
M  V30 198 C 20.1623 -0.975387 -2.09177 0
M  V30 199 C 21.1323 0.0990615 -1.65804 0
M  V30 200 O 22.3173 -0.0483147 -1.90739 0
M  V30 201 C 19.4573 -0.547507 -3.40729 0
M  V30 202 C 18.5703 -1.69153 -3.97506 0
M  V30 203 C 17.7053 -1.2127 -5.17172 0
M  V30 204 C 16.7443 -2.32897 -5.66061 0
M  V30 205 N 15.8813 -1.86138 -6.76976 0
M  V30 206 H 20.7213 -1.9068 -2.29009 0
M  V30 207 H 18.2583 -0.950257 -1.12288 0
M  V30 208 H 20.2163 -0.280667 -4.16255 0
M  V30 209 H 18.8463 0.346904 -3.20931 0
M  V30 210 H 17.8983 -2.07298 -3.18954 0
M  V30 211 H 19.2103 -2.5316 -4.29781 0
M  V30 212 H 18.3643 -0.902591 -5.99948 0
M  V30 213 H 17.1033 -0.342692 -4.86495 0
M  V30 214 H 16.1083 -2.64709 -4.81881 0
M  V30 215 H 17.3333 -3.20396 -5.98768 0
M  V30 216 H 15.2793 -1.01484 -6.48103 0
M  V30 217 H 15.1963 -2.63717 -7.08512 0
M  V30 218 H 16.4643 -1.58165 -7.63285 0
M  V30 219 N 20.6934 1.19889 -1.02296 0
M  V30 220 C 21.6234 2.25141 -0.619174 0
M  V30 221 C 22.6044 1.66051 0.368915 0
M  V30 222 O 23.7894 1.92546 0.252941 0
M  V30 223 C 20.9194 3.4728 0.0368783 0
M  V30 224 C 19.8734 4.19005 -0.872865 0
M  V30 225 C 19.1994 5.34637 -0.0822402 0
M  V30 226 C 20.4994 4.74452 -2.18387 0
M  V30 227 H 22.1934 2.59171 -1.49903 0
M  V30 228 H 19.7394 1.24579 -0.722222 0
M  V30 229 H 21.6924 4.20098 0.330958 0
M  V30 230 H 20.4164 3.12433 0.95149 0
M  V30 231 H 19.0754 3.48061 -1.15105 0
M  V30 232 H 18.7234 4.96034 0.83422 0
M  V30 233 H 18.4234 5.83557 -0.688149 0
M  V30 234 H 19.9474 6.10255 0.205238 0
M  V30 235 H 21.3614 5.39055 -1.95172 0
M  V30 236 H 19.7584 5.33834 -2.74119 0
M  V30 237 H 20.8284 3.92844 -2.84257 0
M  V30 238 N 22.1715 0.800033 1.35784 0
M  V30 239 C 23.4205 0.37387 1.98205 0
M  V30 240 C 23.7335 -1.06302 1.64193 0
M  V30 241 O 24.9395 -1.59198 2.19928 0
M  V30 242 C 23.3955 0.617532 3.54562 0
M  V30 243 C 23.0035 2.06654 3.9749 0
M  V30 244 C 24.7475 0.256401 4.23725 0
M  V30 245 C 22.6545 2.2563 5.46667 0
M  V30 246 H 21.5845 0.136055 0.741623 0
M  V30 247 H 24.2355 0.983166 1.54939 0
M  V30 248 H 22.6175 -0.0616248 3.95952 0
M  V30 249 H 23.7915 2.78296 3.67271 0
M  V30 250 H 22.1065 2.38691 3.41197 0
M  V30 251 H 24.7035 0.376318 5.33374 0
M  V30 252 H 25.0465 -0.796692 4.08606 0
M  V30 253 H 25.5795 0.889214 3.87734 0
M  V30 254 H 22.3185 3.2936 5.66747 0
M  V30 255 H 21.8385 1.58504 5.78478 0
M  V30 256 H 23.5175 2.06861 6.1304 0
M  V30 257 N 23.6496 -1.47581 0.552962 0
M  V30 258 C 24.5596 -2.33743 -0.200353 0
M  V30 259 C 25.5756 -1.47928 -0.916151 0
M  V30 260 O 26.7516 -1.80865 -0.885993 0
M  V30 261 C 23.8166 -3.24536 -1.21973 0
M  V30 262 C 22.8776 -4.26238 -0.511819 0
M  V30 263 C 22.1106 -5.12693 -1.48263 0
M  V30 264 O 22.3336 -5.01525 -2.71714 0
M  V30 265 O 21.2676 -5.93375 -1.00945 0
M  V30 266 H 25.0936 -2.9945 0.506304 0
M  V30 267 H 22.6786 -1.46071 0.313622 0
M  V30 268 H 24.5606 -3.80631 -1.80827 0
M  V30 269 H 23.2356 -2.61462 -1.90839 0
M  V30 270 H 22.1426 -3.73914 0.117799 0
M  V30 271 H 23.4756 -4.92014 0.135308 0
M  V30 272 N 25.1277 -0.289203 -1.54924 0
M  V30 273 C 26.3737 0.323998 -2.00195 0
M  V30 274 C 26.7067 1.54441 -1.17735 0
M  V30 275 O 25.9817 1.92875 -0.250878 0
M  V30 276 C 26.2647 0.692276 -3.53383 0
M  V30 277 C 26.1177 -0.536457 -4.46589 0
M  V30 278 C 27.4367 1.52335 -4.12895 0
M  V30 279 H 24.5557 0.116289 -0.727768 0
M  V30 280 H 27.1977 -0.398954 -1.85764 0
M  V30 281 H 25.3477 1.30822 -3.65811 0
M  V30 282 H 27.0197 -1.17499 -4.46085 0
M  V30 283 H 25.2627 -1.17192 -4.1767 0
M  V30 284 H 25.9337 -0.234806 -5.515 0
M  V30 285 H 28.4097 1.00302 -4.0383 0
M  V30 286 H 27.2857 1.74982 -5.20262 0
M  V30 287 H 27.5467 2.50886 -3.64018 0
M  V30 288 N 26.6058 1.57591 -0.0167156 0
M  V30 289 C 27.8828 1.82547 0.702564 0
M  V30 290 C 28.2628 0.898018 1.91047 0
M  V30 291 O 27.6108 -0.0493456 2.28447 0
M  V30 292 C 27.8208 3.31459 1.09251 0
M  V30 293 C 29.1688 3.97622 1.48937 0
M  V30 294 O 30.1928 3.35881 1.18584 0
M  V30 295 O 29.0518 5.06415 2.05442 0
M  V30 296 H 26.1458 0.752268 0.343544 0
M  V30 297 H 28.6918 1.69644 -0.0434495 0
M  V30 298 H 27.4638 3.9061 0.23227 0
M  V30 299 H 27.0868 3.49422 1.89709 0
M  V30 300 N 28.0839 -0.256276 1.55502 0
M  V30 301 C 29.3609 -1.00789 1.67633 0
M  V30 302 C 29.7409 -2.03706 0.553826 0
M  V30 303 O 29.0889 -2.24145 -0.443969 0
M  V30 304 C 29.2989 -1.64968 3.07549 0
M  V30 305 C 30.6469 -2.15505 3.65845 0
M  V30 306 O 31.6709 -1.74925 3.1029 0
M  V30 307 O 30.5299 -2.89986 4.63217 0
M  V30 308 H 27.6239 -0.468553 0.681459 0
M  V30 309 H 30.1699 -0.250806 1.67836 0
M  V30 310 H 28.9419 -0.904785 3.80696 0
M  V30 311 H 28.5649 -2.47321 3.11317 0
M  V30 312 N 29.562 -1.4872 -0.521534 0
M  V30 313 C 30.472 -1.66569 -1.65203 0
M  V30 314 C 31.488 -0.548197 -1.65139 0
M  V30 315 O 32.664 -0.820339 -1.83936 0
M  V30 316 C 29.729 -1.70917 -3.01642 0
M  V30 317 C 28.79 -2.94356 -3.12495 0
M  V30 318 C 28.023 -2.98487 -4.42426 0
M  V30 319 O 28.246 -2.10786 -5.30024 0
M  V30 320 O 27.18 -3.90746 -4.57822 0
M  V30 321 H 31.006 -2.62298 -1.5308 0
M  V30 322 H 28.591 -1.3222 -0.695565 0
M  V30 323 H 30.473 -1.7625 -3.82771 0
M  V30 324 H 29.148 -0.783633 -3.14071 0
M  V30 325 H 28.055 -2.94552 -2.3063 0
M  V30 326 H 29.388 -3.86322 -3.04986 0
M  V30 327 N 31.0401 0.771051 -1.3745 0
M  V30 328 C 32.4561 1.07171 -1.18265 0
M  V30 329 C 32.6561 2.01491 -0.019287 0
M  V30 330 O 31.7121 2.44244 0.640408 0
M  V30 331 C 33.0251 1.66854 -2.50161 0
M  V30 332 C 34.5731 1.79109 -2.56689 0
M  V30 333 C 35.0481 2.42205 -3.88717 0
M  V30 334 N 36.5391 2.49655 -3.90162 0
M  V30 335 C 37.2741 2.9933 -4.8907 0
M  V30 336 N 36.7701 3.49172 -5.98374 0
M  V30 337 N 38.5631 2.9821 -4.76474 0
M  V30 338 H 30.7141 0.144796 -2.11906 0
M  V30 339 H 32.9771 0.126863 -0.939473 0
M  V30 340 H 32.6831 1.05017 -3.35655 0
M  V30 341 H 32.5571 2.6614 -2.673 0
M  V30 342 H 34.9441 2.40077 -1.71601 0
M  V30 343 H 35.0251 0.785757 -2.43433 0
M  V30 344 H 34.6691 1.81875 -4.74219 0
M  V30 345 H 34.5991 3.43345 -3.99276 0
M  V30 346 H 37.0901 2.14383 -3.11205 0
M  V30 347 H 37.4031 3.8548 -6.69795 0
M  V30 348 H 35.7481 3.47275 -6.02018 0
M  V30 349 H 38.9391 2.58572 -3.90203 0
M  V30 350 H 39.1121 3.36613 -5.53711 0
M  V30 351 N 32.5182 1.22032 0.997298 0
M  V30 352 C 33.4652 0.986467 2.08656 0
M  V30 353 C 34.4352 -0.0902671 1.65855 0
M  V30 354 O 35.6202 0.0584294 1.90711 0
M  V30 355 C 32.7602 0.565569 3.40434 0
M  V30 356 C 31.8732 1.71259 3.96604 0
M  V30 357 C 31.0082 1.24011 5.16522 0
M  V30 358 C 30.0472 2.35896 5.64818 0
M  V30 359 N 29.1842 1.89726 6.7598 0
M  V30 360 H 34.0242 1.91892 2.27994 0
M  V30 361 H 31.5612 0.956199 1.11782 0
M  V30 362 H 33.5192 0.302738 4.161 0
M  V30 363 H 32.1492 -0.329879 3.2111 0
M  V30 364 H 31.2012 2.08986 3.17851 0
M  V30 365 H 32.5132 2.55436 4.28432 0
M  V30 366 H 31.6672 0.934395 5.99461 0
M  V30 367 H 30.4062 0.368487 4.86306 0
M  V30 368 H 29.4112 2.67261 4.8047 0
M  V30 369 H 30.6362 3.23567 5.97061 0
M  V30 370 H 28.5822 1.0492 6.47555 0
M  V30 371 H 28.4992 2.67471 7.07103 0
M  V30 372 H 29.7672 1.62211 7.62435 0
M  V30 373 N 33.9963 -1.19345 1.0293 0
M  V30 374 C 34.9263 -2.2481 0.631105 0
M  V30 375 C 35.9073 -1.66245 -0.360104 0
M  V30 376 O 37.0923 -1.92677 -0.242726 0
M  V30 377 C 34.2223 -3.47295 -0.0184607 0
M  V30 378 C 33.1763 -4.18536 0.895073 0
M  V30 379 C 32.5023 -5.34586 0.110592 0
M  V30 380 C 33.8023 -4.73287 2.209 0
M  V30 381 H 35.4963 -2.58372 1.51275 0
M  V30 382 H 33.0423 -1.24194 0.728818 0
M  V30 383 H 34.9953 -4.20268 -0.308675 0
M  V30 384 H 33.7193 -3.12933 -0.934907 0
M  V30 385 H 32.3783 -3.47446 1.16949 0
M  V30 386 H 32.0263 -4.96469 -0.807902 0
M  V30 387 H 31.7263 -5.83183 0.719087 0
M  V30 388 H 33.2503 -6.10355 -0.172871 0
M  V30 389 H 34.6643 -5.38013 1.98028 0
M  V30 390 H 33.0613 -5.32373 2.76946 0
M  V30 391 H 34.1313 -3.91331 2.86336 0
M  V30 392 N 35.4744 -0.807222 -1.35358 0
M  V30 393 C 36.8904 -0.491038 -1.51858 0
M  V30 394 C 37.0904 0.987648 -1.75635 0
M  V30 395 O 36.1464 1.77265 -1.79815 0
M  V30 396 C 37.4594 -1.33695 -2.69344 0
M  V30 397 C 39.0074 -1.33246 -2.83222 0
M  V30 398 C 39.4824 -2.1625 -4.03733 0
M  V30 399 N 40.9734 -2.1379 -4.10911 0
M  V30 400 C 41.7084 -2.74772 -5.03277 0
M  V30 401 N 41.2044 -3.44684 -6.0097 0
M  V30 402 N 42.9974 -2.6441 -4.96028 0
M  V30 403 H 35.1484 -1.76485 -1.18181 0
M  V30 404 H 37.4114 -0.751199 -0.578276 0
M  V30 405 H 37.1174 -2.38634 -2.58354 0
M  V30 406 H 36.9914 -0.990618 -3.6396 0
M  V30 407 H 39.3784 -0.290911 -2.93663 0
M  V30 408 H 39.4594 -1.71866 -1.89461 0
M  V30 409 H 39.1034 -3.20445 -3.94052 0
M  V30 410 H 39.0334 -1.74989 -4.96675 0
M  V30 411 H 41.5244 -1.62923 -3.40976 0
M  V30 412 H 41.8374 -3.88501 -6.68047 0
M  V30 413 H 40.1824 -3.48788 -6.01142 0
M  V30 414 H 43.3734 -2.0938 -4.18662 0
M  V30 415 H 43.5464 -3.12225 -5.6782 0
M  V30 416 N 36.9525 1.47285 -0.560781 0
M  V30 417 C 38.1805 2.06855 -0.0430262 0
M  V30 418 C 38.5955 1.41291 1.25229 0
M  V30 419 O 37.9525 0.510648 1.7521 0
M  V30 420 C 38.0035 3.61178 0.152518 0
M  V30 421 O 37.7245 4.24285 -1.0915 0
M  V30 422 C 39.2255 4.37624 0.707145 0
M  V30 423 H 36.4455 0.669319 -0.0474652 0
M  V30 424 H 38.9895 1.89237 -0.77521 0
M  V30 425 H 37.1445 3.78298 0.834843 0
M  V30 426 H 37.5585 5.16868 -0.891482 0
M  V30 427 H 39.0325 5.46271 0.793244 0
M  V30 428 H 39.5095 4.04152 1.71923 0
M  V30 429 H 40.1155 4.25257 0.0604027 0
M  V30 430 N 38.4306 0.297415 1.54768 0
M  V30 431 C 39.6776 -0.312913 2.00068 0
M  V30 432 C 40.0056 -1.54171 1.18582 0
M  V30 433 O 39.2606 -1.94108 0.249133 0
M  V30 434 C 39.5596 -0.717561 3.50123 0
M  V30 435 C 39.2256 0.409095 4.4904 0
M  V30 436 C 37.8876 0.718399 4.75807 0
M  V30 437 C 40.2396 1.16717 5.07963 0
M  V30 438 C 37.5676 1.78896 5.5876 0
M  V30 439 C 39.9196 2.22762 5.92081 0
M  V30 440 C 38.5836 2.54303 6.1716 0
M  V30 441 H 37.8536 -0.114503 0.7321 0
M  V30 442 H 40.5006 0.415767 1.86932 0
M  V30 443 H 38.8056 -1.52627 3.60849 0
M  V30 444 H 40.5026 -1.20091 3.82595 0
M  V30 445 H 37.0926 0.157918 4.28309 0
M  V30 446 H 41.2766 0.941466 4.87289 0
M  V30 447 H 36.5326 2.0381 5.7643 0
M  V30 448 H 40.7066 2.81962 6.36765 0
M  V30 449 H 38.3336 3.3739 6.81229 0
M  V30 450 N 39.9087 -1.5758 0.0250728 0
M  V30 451 C 41.1387 -1.95646 -0.663783 0
M  V30 452 C 41.5467 -0.899935 -1.66427 0
M  V30 453 O 40.8897 0.127191 -1.83259 0
M  V30 454 C 40.9517 -3.29835 -1.43 0
M  V30 455 C 40.6157 -4.53197 -0.588305 0
M  V30 456 C 41.6127 -5.19726 0.13469 0
M  V30 457 C 39.2977 -4.99529 -0.526897 0
M  V30 458 C 41.2917 -6.30902 0.90781 0
M  V30 459 C 38.9787 -6.10589 0.24993 0
M  V30 460 C 39.9767 -6.76134 0.965994 0
M  V30 461 O 39.6647 -7.85062 1.7301 0
M  V30 462 H 39.3967 -0.649282 -0.188174 0
M  V30 463 H 41.9507 -2.05245 0.0799006 0
M  V30 464 H 40.1807 -3.16716 -2.21873 0
M  V30 465 H 41.8697 -3.52833 -2.00658 0
M  V30 466 H 42.6357 -4.84904 0.0965562 0
M  V30 467 H 38.5147 -4.48319 -1.07381 0
M  V30 468 H 42.0587 -6.81995 1.46724 0
M  V30 469 H 37.9557 -6.44849 0.289795 0
M  V30 470 H 38.7237 -8.01708 1.64944 0
M  V30 471 N 41.3868 0.248026 -1.55636 0
M  V30 472 C 42.2968 1.32859 -1.93354 0
M  V30 473 C 43.3128 1.52719 -0.833838 0
M  V30 474 O 44.4888 1.66363 -1.13513 0
M  V30 475 C 41.5538 2.66337 -2.21958 0
M  V30 476 C 40.6148 2.55008 -3.45354 0
M  V30 477 C 39.8478 3.82121 -3.72584 0
M  V30 478 O 40.0708 4.83951 -3.01907 0
M  V30 479 O 39.0048 3.80822 -4.6611 0
M  V30 480 H 42.8308 1.03862 -2.85388 0
M  V30 481 H 40.4158 0.448686 -1.42503 0
M  V30 482 H 42.2978 3.45216 -2.4167 0
M  V30 483 H 40.9728 2.95068 -1.33103 0
M  V30 484 H 39.8798 1.7442 -3.30951 0
M  V30 485 H 41.2128 2.31222 -4.34508 0
M  V30 486 N 42.8649 1.48995 0.513639 0
M  V30 487 C 43.8119 1.6473 1.61656 0
M  V30 488 C 44.7819 0.488984 1.58739 0
M  V30 489 O 45.9669 0.714478 1.76918 0
M  V30 490 C 43.1069 1.7082 2.99858 0
M  V30 491 C 42.2199 2.9787 3.12885 0
M  V30 492 C 41.3549 2.95017 4.41744 0
M  V30 493 C 40.3939 4.16702 4.48359 0
M  V30 494 N 39.5309 4.11832 5.68629 0
M  V30 495 H 44.3709 2.58909 1.47547 0
M  V30 496 H 41.9079 1.28382 0.71808 0
M  V30 497 H 43.8659 1.72331 3.79944 0
M  V30 498 H 42.4959 0.801181 3.12699 0
M  V30 499 H 41.5479 3.06029 2.25944 0
M  V30 500 H 42.8599 3.8786 3.13633 0
M  V30 501 H 42.0139 2.95021 5.30139 0
M  V30 502 H 40.7529 2.02784 4.43542 0
M  V30 503 H 39.7579 4.16955 3.58369 0
M  V30 504 H 40.9829 5.10113 4.48287 0
M  V30 505 H 38.9289 3.22428 5.71293 0
M  V30 506 H 38.8459 4.95543 5.7094 0
M  V30 507 H 40.1139 4.1592 6.59266 0
M  V30 508 N 44.343 -0.763751 1.37857 0
M  V30 509 C 45.759 -1.06542 1.18832 0
M  V30 510 C 45.959 -2.01478 0.0299722 0
M  V30 511 O 45.015 -2.4458 -0.627447 0
M  V30 512 C 46.328 -1.65525 2.51042 0
M  V30 513 C 47.876 -1.77745 2.57635 0
M  V30 514 C 48.351 -2.4014 3.89996 0
M  V30 515 N 49.842 -2.47582 3.91481 0
M  V30 516 C 50.577 -2.96732 4.9065 0
M  V30 517 N 50.073 -3.45993 6.00217 0
M  V30 518 N 51.866 -2.95679 4.78048 0
M  V30 519 H 44.017 -0.133556 2.1198 0
M  V30 520 H 46.28 -0.121879 0.940133 0
M  V30 521 H 45.986 -1.03236 3.36207 0
M  V30 522 H 45.86 -2.64719 2.68707 0
M  V30 523 H 48.247 -2.39164 1.72872 0
M  V30 524 H 48.328 -0.772836 2.43846 0
M  V30 525 H 47.972 -1.79358 4.75177 0
M  V30 526 H 47.902 -3.41223 4.01092 0
M  V30 527 H 50.393 -2.1273 3.12337 0
M  V30 528 H 50.706 -3.81922 6.7183 0
M  V30 529 H 49.051 -3.44077 6.03851 0
M  V30 530 H 52.242 -2.56499 3.91568 0
M  V30 531 H 52.415 -3.33672 5.55488 0
M  V30 532 N 45.8211 -1.22559 -0.990812 0
M  V30 533 C 46.7541 -0.940773 -2.07905 0
M  V30 534 C 47.7321 0.117082 -1.62178 0
M  V30 535 O 48.9161 -0.0149506 -1.88494 0
M  V30 536 C 46.0431 -0.415321 -3.36144 0
M  V30 537 C 45.0891 -1.45818 -4.00799 0
M  V30 538 S 45.9221 -3.03219 -4.41382 0
M  V30 539 C 47.0781 -2.52317 -5.72789 0
M  V30 540 H 47.3111 -1.8623 -2.31745 0
M  V30 541 H 44.8441 -1.05688 -1.12558 0
M  V30 542 H 46.8021 -0.118747 -4.10328 0
M  V30 543 H 45.4631 0.485121 -3.10331 0
M  V30 544 H 44.6561 -1.04044 -4.93144 0
M  V30 545 H 44.2581 -1.70356 -3.32949 0
M  V30 546 H 46.5501 -1.93688 -6.49224 0
M  V30 547 H 47.4931 -3.43161 -6.19392 0
M  V30 548 H 47.9011 -1.93529 -5.30289 0
M  V30 549 N 47.2992 1.18797 -1.03562 0
M  V30 550 C 48.2622 2.20464 -0.626769 0
M  V30 551 C 49.2622 1.57721 0.313173 0
M  V30 552 O 50.4522 1.73917 0.0992615 0
M  V30 553 C 47.5842 3.40802 0.0818498 0
M  V30 554 H 48.7772 2.58149 -1.5264 0
M  V30 555 H 46.3302 1.32593 -0.827578 0
M  V30 556 H 47.0652 3.08642 0.995518 0
M  V30 557 H 46.8502 3.8758 -0.593652 0
M  V30 558 H 48.3402 4.16092 0.354584 0
M  V30 559 N 48.7773 0.814389 1.34928 0
M  V30 560 C 50.0053 0.411136 2.02774 0
M  V30 561 C 50.4203 -0.980316 1.61354 0
M  V30 562 O 49.7773 -1.63299 0.814847 0
M  V30 563 C 49.8283 0.493865 3.58111 0
M  V30 564 O 49.5493 1.83047 3.98027 0
M  V30 565 C 51.0503 0.0844174 4.4322 0
M  V30 566 H 48.2703 0.166037 0.650133 0
M  V30 567 H 50.8143 1.10018 1.72384 0
M  V30 568 H 48.9693 -0.147006 3.87121 0
M  V30 569 H 49.3833 1.79872 4.92693 0
M  V30 570 H 50.8573 0.193404 5.51661 0
M  V30 571 H 51.3343 -0.97113 4.28329 0
M  V30 572 H 51.9403 0.69875 4.19521 0
M  V30 573 N 50.2554 -1.46986 0.568584 0
M  V30 574 C 51.1654 -2.33942 -0.17555 0
M  V30 575 C 52.1814 -1.48891 -0.90041 0
M  V30 576 O 53.3574 -1.81794 -0.86676 0
M  V30 577 C 50.4224 -3.25811 -1.18524 0
M  V30 578 C 49.4834 -4.26757 -0.466582 0
M  V30 579 C 48.7164 -5.14236 -1.42817 0
M  V30 580 O 48.9394 -5.04379 -2.66379 0
M  V30 581 O 47.8734 -5.94412 -0.946453 0
M  V30 582 H 51.6994 -2.98896 0.538036 0
M  V30 583 H 49.2844 -1.4573 0.329097 0
M  V30 584 H 51.1664 -3.82527 -1.76779 0
M  V30 585 H 49.8414 -2.63471 -1.88055 0
M  V30 586 H 48.7484 -3.73769 0.157451 0
M  V30 587 H 50.0814 -4.91843 0.187485 0
M  V30 588 N 51.7335 -0.305618 -1.54608 0
M  V30 589 C 52.9795 0.302746 -2.00528 0
M  V30 590 C 53.3125 1.53184 -1.19367 0
M  V30 591 O 52.5875 1.92598 -0.271321 0
M  V30 592 C 52.8705 0.654756 -3.54097 0
M  V30 593 C 52.7235 -0.583793 -4.45995 0
M  V30 594 C 54.0425 1.47947 -4.14487 0
M  V30 595 H 51.1615 0.108564 -0.72896 0
M  V30 596 H 53.8035 -0.418634 -1.85331 0
M  V30 597 H 51.9535 1.26935 -3.67178 0
M  V30 598 H 53.6255 -1.22224 -4.44814 0
M  V30 599 H 51.8685 -1.21615 -4.16404 0
M  V30 600 H 52.5395 -0.293287 -5.5122 0
M  V30 601 H 55.0155 0.96013 -4.04871 0
M  V30 602 H 53.8915 1.69454 -5.22088 0
M  V30 603 H 54.1525 2.47011 -3.66658 0
M  V30 604 N 53.2116 1.57565 -0.0334293 0
M  V30 605 C 54.1746 2.09393 0.932048 0
M  V30 606 C 55.1746 1.00986 1.25134 0
M  V30 607 O 56.3646 1.27129 1.19096 0
M  V30 608 C 53.4966 2.56338 2.2473 0
M  V30 609 H 54.6896 2.95984 0.483085 0
M  V30 610 H 52.2426 1.54819 0.21468 0
M  V30 611 H 52.9776 1.7309 2.74245 0
M  V30 612 H 52.7626 3.35542 2.02865 0
M  V30 613 H 54.2526 2.96646 2.93923 0
M  V30 614 N 54.6897 -0.239769 1.55765 0
M  V30 615 C 55.6527 -1.28038 1.90103 0
M  V30 616 C 56.6527 -1.40723 0.778055 0
M  V30 617 O 57.8427 -1.39301 1.04599 0
M  V30 618 C 54.9747 -2.65702 2.13577 0
M  V30 619 H 56.1677 -0.988048 2.83157 0
M  V30 620 H 53.7207 -0.479382 1.48767 0
M  V30 621 H 54.4557 -3.00063 1.23015 0
M  V30 622 H 54.2407 -2.57875 2.95369 0
M  V30 623 H 55.7307 -3.40828 2.41301 0
M  V30 624 N 56.1678 -1.49265 -0.50573 0
M  V30 625 C 57.4448 -1.49012 -1.26707 0
M  V30 626 C 57.8248 -0.215205 -2.1 0
M  V30 627 O 57.1728 0.802547 -2.13943 0
M  V30 628 C 57.3828 -2.7663 -2.12783 0
M  V30 629 C 58.7308 -3.25932 -2.72127 0
M  V30 630 O 59.7548 -2.77715 -2.23054 0
M  V30 631 O 58.6138 -4.09897 -3.61451 0
M  V30 632 H 55.7078 -0.596197 -0.57313 0
M  V30 633 H 58.2538 -1.61524 -0.52039 0
M  V30 634 H 57.0258 -3.60916 -1.5118 0
M  V30 635 H 56.6488 -2.66956 -2.94653 0
M  V30 636 N 57.6459 0.756429 -1.3826 0
M  V30 637 C 58.6089 1.85176 -1.35065 0
M  V30 638 C 59.6089 1.58818 -0.251703 0
M  V30 639 O 60.7989 1.66615 -0.508433 0
M  V30 640 C 57.9309 3.22596 -1.10201 0
M  V30 641 H 59.1239 1.89417 -2.3251 0
M  V30 642 H 56.6769 0.95783 -1.23512 0
M  V30 643 H 57.4119 3.24025 -0.133504 0
M  V30 644 H 57.1969 3.43122 -1.89762 0
M  V30 645 H 58.6869 4.02673 -1.10654 0
M  V30 646 N 59.124 1.23083 0.984299 0
M  V30 647 C 60.054 1.03292 2.09411 0
M  V30 648 C 61.035 -0.048923 1.7003 0
M  V30 649 O 62.22 0.114967 1.93859 0
M  V30 650 C 59.35 0.619155 3.41736 0
M  V30 651 C 58.304 1.64791 3.95004 0
M  V30 652 C 57.63 1.0897 5.23478 0
M  V30 653 C 58.93 3.03999 4.24714 0
M  V30 654 H 60.624 1.96119 2.26225 0
M  V30 655 H 58.17 0.944344 1.08711 0
M  V30 656 H 60.123 0.467777 4.18796 0
M  V30 657 H 58.847 -0.344786 3.24775 0
M  V30 658 H 57.506 1.78721 3.20085 0
M  V30 659 H 57.154 0.11686 5.02864 0
M  V30 660 H 56.854 1.77704 5.60085 0
M  V30 661 H 58.378 0.950093 6.03163 0
M  V30 662 H 59.792 2.93393 4.92538 0
M  V30 663 H 58.189 3.69936 4.72512 0
M  V30 664 H 59.259 3.53285 3.32142 0
M  V30 665 N 60.6021 -1.18246 1.0419 0
M  V30 666 C 61.8501 -1.87886 0.744543 0
M  V30 667 C 62.1711 -1.8082 -0.730006 0
M  V30 668 O 61.4411 -1.22736 -1.52685 0
M  V30 669 H 60.0211 -0.695556 0.272417 0
M  V30 670 H 62.6831 -1.43494 1.31892 0
M  V30 671 H 61.7791 -2.9389 1.05049 0
M  V30 672 N 62.0802 -0.821533 -1.34494 0
M  V30 673 C 62.9902 -0.244355 -2.33324 0
M  V30 674 C 64.0062 0.620527 -1.62559 0
M  V30 675 O 65.1822 0.528754 -1.94335 0
M  V30 676 C 62.2472 0.585368 -3.41723 0
M  V30 677 C 61.3082 -0.301752 -4.28238 0
M  V30 678 C 60.5412 0.488466 -5.3146 0
M  V30 679 O 60.7642 1.72186 -5.4379 0
M  V30 680 O 59.6982 -0.12848 -6.01763 0
M  V30 681 H 63.5242 -1.06231 -2.84515 0
M  V30 682 H 61.1092 -0.583645 -1.37528 0
M  V30 683 H 62.9912 1.05747 -4.07916 0
M  V30 684 H 61.6662 1.38068 -2.92778 0
M  V30 685 H 60.5732 -0.821315 -3.64973 0
M  V30 686 H 61.9062 -1.06138 -4.8062 0
M  V30 687 N 63.5583 1.46682 -0.576371 0
M  V30 688 C 64.4683 2.34032 0.163141 0
M  V30 689 C 65.4843 1.49367 0.892501 0
M  V30 690 O 66.6603 1.82252 0.857106 0
M  V30 691 C 63.7253 3.26435 1.16795 0
M  V30 692 C 62.7863 4.26998 0.443944 0
M  V30 693 C 62.0193 5.14986 1.40088 0
M  V30 694 O 62.2423 5.05785 2.637 0
M  V30 695 O 61.1763 5.94906 0.914917 0
M  V30 696 H 65.0023 2.98607 -0.55388 0
M  V30 697 H 62.5873 1.45554 -0.336821 0
M  V30 698 H 64.4693 3.83459 1.74748 0
M  V30 699 H 63.1443 2.64465 1.86655 0
M  V30 700 H 62.0513 3.7368 -0.177271 0
M  V30 701 H 63.3843 4.91736 -0.213566 0
M  V30 702 N 65.0364 0.313813 1.54444 0
M  V30 703 C 66.2824 -0.284918 2.01395 0
M  V30 704 C 66.6374 -1.50537 1.19818 0
M  V30 705 O 65.9304 -1.89692 0.269748 0
M  V30 706 C 66.1244 -0.680386 3.50864 0
M  V30 707 C 65.9534 0.500198 4.4691 0
M  V30 708 C 64.7234 0.996248 4.95382 0
M  V30 709 C 66.9214 1.34928 4.96285 0
M  V30 710 N 64.9034 2.14226 5.75309 0
M  V30 711 C 66.2744 2.3426 5.7404 0
M  V30 712 C 68.3294 1.37818 4.78446 0
M  V30 713 C 67.0324 3.36272 6.35856 0
M  V30 714 C 69.0584 2.38695 5.4109 0
M  V30 715 C 68.4204 3.36755 6.18688 0
M  V30 716 H 64.5194 -0.0683689 0.779006 0
M  V30 717 H 67.1034 0.44664 1.89508 0
M  V30 718 H 65.2744 -1.38109 3.63016 0
M  V30 719 H 67.0064 -1.25975 3.84594 0
M  V30 720 H 63.7614 0.56912 4.70168 0
M  V30 721 H 64.1854 2.72005 6.19953 0
M  V30 722 H 68.8274 0.633747 4.18023 0
M  V30 723 H 66.5454 4.11627 6.95405 0
M  V30 724 H 70.1314 2.41721 5.29209 0
M  V30 725 H 69.0114 4.13535 6.66302 0
M  V30 726 N 66.5145 -1.57545 0.0417849 0
M  V30 727 C 67.4615 -2.10977 -0.935805 0
M  V30 728 C 68.4315 -1.01486 -1.31491 0
M  V30 729 O 69.6165 -1.2898 -1.40602 0
M  V30 730 C 66.7565 -2.65169 -2.2086 0
M  V30 731 C 65.8695 -3.88714 -1.88482 0
M  V30 732 C 65.0045 -4.31254 -3.1015 0
M  V30 733 C 64.0435 -5.47524 -2.7365 0
M  V30 734 N 63.1805 -5.85162 -3.87982 0
M  V30 735 H 68.0205 -2.94218 -0.473249 0
M  V30 736 H 65.5575 -1.45415 -0.221981 0
M  V30 737 H 67.5155 -2.94685 -2.95325 0
M  V30 738 H 66.1455 -1.8474 -2.64709 0
M  V30 739 H 65.1975 -3.65849 -1.04205 0
M  V30 740 H 66.5095 -4.73245 -1.57608 0
M  V30 741 H 65.6635 -4.62273 -3.92923 0
M  V30 742 H 64.4025 -3.45516 -3.44195 0
M  V30 743 H 63.4075 -5.16187 -1.89291 0
M  V30 744 H 64.6325 -6.34971 -2.40807 0
M  V30 745 H 62.5785 -5.02377 -4.21846 0
M  V30 746 H 62.4955 -6.64362 -3.60775 0
M  V30 747 H 63.7635 -6.20791 -4.71422 0
M  V30 748 N 67.9926 0.231505 -1.5589 0
M  V30 749 C 69.2406 0.955461 -1.78088 0
M  V30 750 C 69.5616 1.85262 -0.608533 0
M  V30 751 O 68.8316 1.92277 0.375035 0
M  V30 752 H 67.4116 0.355787 -0.656829 0
M  V30 753 H 70.0736 0.245751 -1.93344 0
M  V30 754 H 69.1696 1.56814 -2.69844 0
M  V30 755 N 69.4707 1.49531 0.497807 0
M  V30 756 C 70.7007 1.62657 1.27382 0
M  V30 757 C 71.1087 0.298488 1.86831 0
M  V30 758 O 70.4517 -0.72647 1.68725 0
M  V30 759 C 70.5137 2.6393 2.44093 0
M  V30 760 C 70.1777 4.08195 2.05489 0
M  V30 761 C 71.1747 4.949 1.59279 0
M  V30 762 C 68.8597 4.53948 2.15026 0
M  V30 763 C 70.8537 6.25397 1.23113 0
M  V30 764 C 68.5407 5.84458 1.78473 0
M  V30 765 C 69.5387 6.70006 1.32591 0
M  V30 766 O 69.2267 7.98083 0.965327 0
M  V30 767 H 68.9587 0.550429 0.392434 0
M  V30 768 H 71.5127 1.96325 0.603801 0
M  V30 769 H 69.7427 2.25449 3.14181 0
M  V30 770 H 71.4317 2.66552 3.06113 0
M  V30 771 H 72.1977 4.60779 1.51354 0
M  V30 772 H 68.0767 3.87525 2.4969 0
M  V30 773 H 71.6207 6.92125 0.872299 0
M  V30 774 H 67.5177 6.18107 1.86048 0
M  V30 775 H 68.2857 8.11122 1.09652 0
M  V30 776 N 70.9488 -0.749086 1.3866 0
M  V30 777 C 72.1948 -1.51056 1.35314 0
M  V30 778 C 72.5278 -1.94121 -0.0553751 0
M  V30 779 O 71.8028 -1.65763 -1.01749 0
M  V30 780 C 72.0858 -2.76003 2.31288 0
M  V30 781 C 71.9388 -2.39047 3.8102 0
M  V30 782 C 73.2578 -3.78046 2.2532 0
M  V30 783 H 70.3768 -0.547972 0.492844 0
M  V30 784 H 73.0188 -0.857628 1.69543 0
M  V30 785 H 71.1688 -3.31716 2.02229 0
M  V30 786 H 72.8408 -1.89074 4.20771 0
M  V30 787 H 71.0838 -1.71449 3.98482 0
M  V30 788 H 71.7548 -3.28462 4.4364 0
M  V30 789 H 74.2308 -3.31884 2.50983 0
M  V30 790 H 73.1068 -4.63159 2.94576 0
M  V30 791 H 73.3678 -4.23957 1.25352 0
M  V30 792 N 72.4269 -1.23603 -0.977757 0
M  V30 793 C 73.6729 -1.07129 -1.72195 0
M  V30 794 C 74.0059 0.390501 -1.90233 0
M  V30 795 O 73.2809 1.28902 -1.45653 0
M  V30 796 C 73.5639 -1.80031 -3.11867 0
M  V30 797 C 73.4169 -3.33899 -3.01383 0
M  V30 798 C 74.7359 -1.56492 -4.11337 0
M  V30 799 H 71.8549 -0.390571 -0.624999 0
M  V30 800 H 74.4969 -1.52142 -1.13811 0
M  V30 801 H 72.6469 -1.41768 -3.6171 0
M  V30 802 H 74.3189 -3.81699 -2.59043 0
M  V30 803 H 72.5619 -3.62796 -2.37827 0
M  V30 804 H 73.2329 -3.801 -4.00285 0
M  V30 805 H 75.7089 -1.89757 -3.70313 0
M  V30 806 H 74.5849 -2.09973 -5.07151 0
M  V30 807 H 74.8459 -0.500874 -4.39254 0
M  V30 808 N 73.905 1.17692 -1.04816 0
M  V30 809 C 75.321 1.39863 -0.768794 0
M  V30 810 C 75.521 1.91118 0.638451 0
M  V30 811 O 74.577 2.10036 1.40146 0
M  V30 812 C 75.89 2.39274 -1.82122 0
M  V30 813 C 77.438 2.52987 -1.843 0
M  V30 814 C 77.913 3.55669 -2.88555 0
M  V30 815 N 79.404 3.63183 -2.87493 0
M  V30 816 C 80.139 4.42381 -3.64811 0
M  V30 817 N 79.635 5.25125 -4.51903 0
M  V30 818 N 81.428 4.37217 -3.53267 0
M  V30 819 H 73.579 0.82752 -1.95617 0
M  V30 820 H 75.842 0.426123 -0.846831 0
M  V30 821 H 75.548 2.08678 -2.83102 0
M  V30 822 H 75.422 3.38725 -1.65967 0
M  V30 823 H 77.809 2.82896 -0.839869 0
M  V30 824 H 77.89 1.53623 -2.04532 0
M  V30 825 H 77.534 3.26499 -3.89051 0
M  V30 826 H 77.464 4.54728 -2.65575 0
M  V30 827 H 79.955 3.04103 -2.24343 0
M  V30 828 H 80.268 5.82728 -5.07591 0
M  V30 829 H 78.613 5.24519 -4.55966 0
M  V30 830 H 81.804 3.71626 -2.84625 0
M  V30 831 H 81.977 4.98696 -4.13771 0
M  V30 832 N 75.3831 0.828654 1.34056 0
M  V30 833 C 76.6321 0.415828 1.97367 0
M  V30 834 C 76.9451 -1.02796 1.6641 0
M  V30 835 O 78.1511 -1.54497 2.23255 0
M  V30 836 C 76.6071 0.692601 3.53173 0
M  V30 837 C 76.2151 2.15038 3.93017 0
M  V30 838 C 77.9591 0.346222 4.23086 0
M  V30 839 C 75.8661 2.37174 5.41758 0
M  V30 840 H 74.7961 0.151755 0.738571 0
M  V30 841 H 77.4471 1.01581 1.52819 0
M  V30 842 H 75.8291 0.0223764 3.95994 0
M  V30 843 H 77.0031 2.86024 3.61285 0
M  V30 844 H 75.3181 2.45875 3.36057 0
M  V30 845 H 77.9151 0.48937 5.32456 0
M  V30 846 H 78.2581 -0.709842 4.10204 0
M  V30 847 H 78.7911 0.971258 3.85761 0
M  V30 848 H 75.5301 3.41308 5.59633 0
M  V30 849 H 75.0501 1.70738 5.74986 0
M  V30 850 H 76.7291 2.19818 6.08514 0
M  V30 851 N 76.8612 -1.46375 0.584142 0
M  V30 852 C 78.0862 -2.07268 0.0740405 0
M  V30 853 C 78.5112 -1.42979 -1.22223 0
M  V30 854 O 77.8692 -0.514092 -1.73859 0
M  V30 855 C 77.9172 -3.60518 -0.0767769 0
M  V30 856 O 77.0212 -3.96533 -1.13292 0
M  V30 857 H 76.3622 -0.660961 0.0634524 0
M  V30 858 H 78.8922 -1.87991 0.807492 0
M  V30 859 H 78.9022 -4.07021 -0.282489 0
M  V30 860 H 77.5772 -4.06702 0.86986 0
M  V30 861 H 76.1542 -3.61738 -0.905553 0
M  V30 862 N 78.3393 -0.321999 -1.54275 0
M  V30 863 C 79.5873 0.280489 -2.00144 0
M  V30 864 C 79.9083 1.52777 -1.21178 0
M  V30 865 O 79.1783 1.9338 -0.313187 0
M  V30 866 H 77.7583 0.106632 -0.73935 0
M  V30 867 H 80.4203 -0.438184 -1.8991 0
M  V30 868 H 79.5163 0.537972 -3.07428 0
M  V30 869 N 79.8174 1.5752 -0.0501392 0
M  V30 870 C 81.0654 1.9227 0.622642 0
M  V30 871 C 81.3864 0.929083 1.71444 0
M  V30 872 O 80.6564 -0.0262186 1.95882 0
M  V30 873 H 79.2364 0.709739 0.232981 0
M  V30 874 H 81.8984 1.94628 -0.102898 0
M  V30 875 H 80.9944 2.93479 1.06191 0
M  V30 876 N 81.2955 -0.223234 1.56011 0
M  V30 877 C 82.2435 -1.29627 1.93131 0
M  V30 878 C 83.2375 -1.48608 0.813146 0
M  V30 879 O 84.4435 -1.49802 0.997966 0
M  V30 880 H 80.8185 -0.434563 0.613726 0
M  V30 881 H 82.7895 -0.955995 2.82672 0
M  V30 882 C 81.5385 -2.63983 2.26292 0
M  V30 883 H 80.8615 -2.50185 3.11846 0
M  V30 884 H 82.3015 -3.3788 2.56151 0
M  V30 885 C 80.7605 -3.18866 1.08747 0
M  V30 886 O 81.2905 -4.00192 0.347727 0
M  V30 887 N 79.4965 -2.77217 0.871743 0
M  V30 888 H 79.0435 -2.1119 1.47501 0
M  V30 889 H 79.0015 -3.1428 0.0869905 0
M  V30 890 N 82.7736 -1.49793 -0.48987 0
M  V30 891 C 84.0506 -1.50348 -1.25119 0
M  V30 892 C 84.4306 -0.237466 -2.0976 0
M  V30 893 O 83.7786 0.77981 -2.14782 0
M  V30 894 C 83.9886 -2.78872 -2.09837 0
M  V30 895 C 85.3366 -3.288 -2.68655 0
M  V30 896 O 86.3606 -2.80065 -2.20096 0
M  V30 897 O 85.2196 -4.13707 -3.57083 0
M  V30 898 H 82.3136 -0.602242 -0.566775 0
M  V30 899 H 84.8596 -1.62067 -0.503229 0
M  V30 900 H 83.6316 -3.62499 -1.47343 0
M  V30 901 H 83.2546 -2.70066 -2.91805 0
M  V30 902 N 84.2517 0.741722 -1.39055 0
M  V30 903 C 85.1987 1.85566 -1.37237 0
M  V30 904 C 86.1687 1.64457 -0.233072 0
M  V30 905 O 87.3537 1.85957 -0.427147 0
M  V30 906 C 84.4937 3.23004 -1.215 0
M  V30 907 C 83.6067 3.55864 -2.44918 0
M  V30 908 C 82.7417 4.82669 -2.21821 0
M  V30 909 C 81.7807 5.08351 -3.40948 0
M  V30 910 N 80.9177 6.26356 -3.17211 0
M  V30 911 H 85.7577 1.86455 -2.32462 0
M  V30 912 H 83.2947 0.911176 -1.15482 0
M  V30 913 H 85.2527 4.02331 -1.10389 0
M  V30 914 H 83.8827 3.21411 -0.29908 0
M  V30 915 H 82.9347 2.7129 -2.66657 0
M  V30 916 H 84.2467 3.70765 -3.33668 0
M  V30 917 H 83.4007 5.69962 -2.07914 0
M  V30 918 H 82.1397 4.69929 -1.30454 0
M  V30 919 H 81.1447 4.19522 -3.55361 0
M  V30 920 H 82.3697 5.22981 -4.33207 0
M  V30 921 H 80.3157 6.14917 -2.28502 0
M  V30 922 H 80.2327 6.41813 -3.99515 0
M  V30 923 H 81.5007 7.16506 -3.06984 0
M  V30 924 N 85.7298 1.2412 0.971189 0
M  V30 925 C 86.6618 0.988349 2.06795 0
M  V30 926 C 87.6748 -0.0409541 1.62748 0
M  V30 927 O 88.8638 0.195673 1.77424 0
M  V30 928 C 85.9638 0.469023 3.35639 0
M  V30 929 C 85.1368 1.56065 4.08611 0
M  V30 930 C 84.1958 1.04458 5.15728 0
M  V30 931 O 83.2218 1.73553 5.42096 0
M  V30 932 N 84.4238 -0.122817 5.8037 0
M  V30 933 H 87.1888 1.93265 2.29061 0
M  V30 934 H 84.7498 1.15102 1.13856 0
M  V30 935 H 86.7418 0.108613 4.04554 0
M  V30 936 H 85.3118 -0.380919 3.1027 0
M  V30 937 H 84.5318 2.09341 3.34021 0
M  V30 938 H 85.8198 2.29449 4.54126 0
M  V30 939 H 85.2178 -0.700563 5.61345 0
M  V30 940 H 83.7748 -0.424404 6.50417 0
M  V30 941 N 87.2079 -1.17134 1.05439 0
M  V30 942 C 88.4559 -1.87085 0.764429 0
M  V30 943 C 88.7769 -1.81584 -0.710787 0
M  V30 944 O 88.0469 -1.24349 -1.51374 0
M  V30 945 H 86.6269 -0.692627 0.279779 0
M  V30 946 H 89.2889 -1.42087 1.33406 0
M  V30 947 H 88.3849 -2.92759 1.0816 0
M  V30 948 N 88.686 -0.835752 -1.33615 0
M  V30 949 C 89.933 -0.429959 -1.97883 0
M  V30 950 C 90.261 1.01006 -1.66217 0
M  V30 951 O 89.516 1.72047 -0.93265 0
M  V30 952 C 89.815 -0.593925 -3.52431 0
M  V30 953 C 89.481 -2.00158 -4.04039 0
M  V30 954 C 88.143 -2.38662 -4.17844 0
M  V30 955 C 90.495 -2.92117 -4.31644 0
M  V30 956 C 87.823 -3.68435 -4.56588 0
M  V30 957 C 90.175 -4.21368 -4.71838 0
M  V30 958 C 88.839 -4.59833 -4.83849 0
M  V30 959 H 88.109 -0.157333 -0.724104 0
M  V30 960 H 90.756 -1.06217 -1.59343 0
M  V30 961 H 89.061 0.121619 -3.91611 0
M  V30 962 H 90.758 -0.260282 -4.00154 0
M  V30 963 H 87.348 -1.69252 -3.93766 0
M  V30 964 H 91.532 -2.63608 -4.20505 0
M  V30 965 H 86.788 -3.98046 -4.64079 0
M  V30 966 H 90.962 -4.92703 -4.92155 0
M  V30 967 H 88.589 -5.60438 -5.13627 0
M  V30 968 N 90.1641 1.46063 -0.591896 0
M  V30 969 C 91.5751 1.85944 -0.167822 0
M  V30 970 C 91.9261 1.49429 1.27143 0
M  V30 971 O 91.0511 0.913515 1.96173 0
M  V30 972 C 91.6461 3.37489 -0.297794 0
M  V30 973 C 90.2051 3.76332 0.0714732 0
M  V30 974 C 89.3521 2.7006 -0.629509 0
M  V30 975 H 92.3031 1.37087 -0.799555 0
M  V30 976 H 92.3241 3.77532 0.474349 0
M  V30 977 H 91.8361 3.64034 -1.3454 0
M  V30 978 H 89.9371 3.55405 1.11886 0
M  V30 979 H 90.0501 4.78088 -0.311245 0
M  V30 980 H 88.4141 2.54607 -0.0687867 0
M  V30 981 H 89.1971 2.99444 -1.67894 0
M  V30 982 N 91.6422 0.330177 1.54103 0
M  V30 983 C 92.5752 -0.575477 2.20825 0
M  V30 984 C 93.5532 -1.11064 1.18758 0
M  V30 985 O 94.7372 -1.17341 1.47524 0
M  V30 986 C 91.8642 -1.79032 2.87516 0
M  V30 987 C 90.9102 -1.38581 4.03358 0
M  V30 988 S 91.7432 -0.416911 5.33875 0
M  V30 989 C 92.8992 -1.63889 6.04062 0
M  V30 990 H 93.1322 -0.00872114 2.97299 0
M  V30 991 H 90.6652 0.114254 1.53977 0
M  V30 992 H 92.6232 -2.48734 3.2656 0
M  V30 993 H 91.2842 -2.32827 2.10832 0
M  V30 994 H 90.4772 -2.29123 4.48908 0
M  V30 995 H 90.0792 -0.768419 3.66021 0
M  V30 996 H 92.3712 -2.57536 6.26643 0
M  V30 997 H 93.3142 -1.22542 6.97416 0
M  V30 998 H 93.7222 -1.82887 5.34053 0
M  V30 999 N 93.1203 -1.57491 0.0584922 0
M  V30 1000 C 94.0673 -2.11958 -0.913376 0
M  V30 1001 C 95.0373 -1.02875 -1.30407 0
M  V30 1002 O 96.2223 -1.30464 -1.39226 0
M  V30 1003 C 93.3623 -2.67497 -2.18035 0
M  V30 1004 C 92.4753 -3.90691 -1.84349 0
M  V30 1005 C 91.6103 -4.3452 -3.05559 0
M  V30 1006 C 90.6493 -5.50395 -2.67827 0
M  V30 1007 N 89.7863 -5.89244 -3.81754 0
M  V30 1008 H 94.6263 -2.94704 -0.442017 0
M  V30 1009 H 92.1633 -1.45643 -0.206545 0
M  V30 1010 H 94.1213 -2.978 -2.92183 0
M  V30 1011 H 92.7513 -1.87537 -2.62735 0
M  V30 1012 H 91.8033 -3.66934 -1.00319 0
M  V30 1013 H 93.1153 -4.7489 -1.5258 0
M  V30 1014 H 92.2693 -4.66414 -3.87998 0
M  V30 1015 H 91.0083 -3.49147 -3.40511 0
M  V30 1016 H 90.0133 -5.18165 -1.83806 0
M  V30 1017 H 91.2383 -6.3749 -2.34059 0
M  V30 1018 H 89.1843 -5.06823 -4.16493 0
M  V30 1019 H 89.1013 -6.68151 -3.53708 0
M  V30 1020 H 90.3693 -6.25756 -4.64811 0
M  V30 1021 N 94.5984 0.214957 -1.56127 0
M  V30 1022 C 95.5304 1.29004 -1.89448 0
M  V30 1023 C 96.5434 1.42716 -0.783326 0
M  V30 1024 O 97.7324 1.43496 -1.06166 0
M  V30 1025 C 94.8324 2.66482 -2.09381 0
M  V30 1026 C 94.0054 2.74633 -3.40434 0
M  V30 1027 C 93.0644 3.9317 -3.49719 0
M  V30 1028 O 92.0904 3.812 -4.227 0
M  V30 1029 N 93.2924 5.07765 -2.81346 0
M  V30 1030 H 96.0574 1.00743 -2.82261 0
M  V30 1031 H 93.6184 0.40497 -1.56753 0
M  V30 1032 H 95.6104 3.44173 -2.12901 0
M  V30 1033 H 94.1804 2.87314 -1.23163 0
M  V30 1034 H 93.4004 1.83368 -3.48955 0
M  V30 1035 H 94.6884 2.77054 -4.26754 0
M  V30 1036 H 94.0864 5.20386 -2.21843 0
M  V30 1037 H 92.6434 5.83474 -2.90519 0
M  V30 1038 N 96.0765 1.50051 0.48192 0
M  V30 1039 C 97.3245 1.60181 1.23234 0
M  V30 1040 C 97.6455 0.299176 1.92691 0
M  V30 1041 O 96.9155 -0.682708 1.83619 0
M  V30 1042 H 95.4955 0.590232 0.457859 0
M  V30 1043 H 98.1575 1.86775 0.556881 0
M  V30 1044 H 97.2535 2.40753 1.98607 0
M  V30 1045 N 97.5546 -0.734337 1.39446 0
M  V30 1046 C 98.8006 -1.49613 1.36908 0
M  V30 1047 C 99.1336 -1.94169 -0.0347829 0
M  V30 1048 O 98.4086 -1.66833 -0.999847 0
M  V30 1049 C 98.6916 -2.73534 2.34203 0
M  V30 1050 C 98.5446 -2.34993 3.83534 0
M  V30 1051 C 99.8636 -3.75635 2.29317 0
M  V30 1052 H 96.9826 -0.542714 0.498629 0
M  V30 1053 H 99.6246 -0.839597 1.70443 0
M  V30 1054 H 97.7746 -3.29553 2.05736 0
M  V30 1055 H 99.4466 -1.84601 4.22753 0
M  V30 1056 H 97.6896 -1.67213 4.00278 0
M  V30 1057 H 98.3606 -3.23738 4.47099 0
M  V30 1058 H 100.837 -3.29203 2.54489 0
M  V30 1059 H 99.7126 -4.60008 2.99472 0
M  V30 1060 H 99.9736 -4.22603 1.29842 0
M  V30 1061 N 99.0327 -1.24633 -0.964593 0
M  V30 1062 C 99.9627 -1.06611 -2.07741 0
M  V30 1063 C 100.944 0.0218666 -1.70086 0
M  V30 1064 O 102.129 -0.145793 -1.93652 0
M  V30 1065 C 99.2587 -0.673444 -3.40708 0
M  V30 1066 C 98.2127 -1.71054 -3.92332 0
M  V30 1067 C 97.5387 -1.17285 -5.21678 0
M  V30 1068 C 98.8387 -3.10718 -4.19824 0
M  V30 1069 H 100.533 -1.99693 -2.23076 0
M  V30 1070 H 98.0787 -0.96152 -1.07195 0
M  V30 1071 H 100.032 -0.534345 -4.17998 0
M  V30 1072 H 98.7557 0.293073 -3.25282 0
M  V30 1073 H 97.4147 -1.83791 -3.17201 0
M  V30 1074 H 97.0627 -0.196847 -5.02615 0
M  V30 1075 H 96.7627 -1.86592 -5.57187 0
M  V30 1076 H 98.2867 -1.04593 -6.01575 0
M  V30 1077 H 99.7007 -3.01192 -4.87808 0
M  V30 1078 H 98.0977 -3.77406 -4.66567 0
M  V30 1079 H 99.1677 -3.58524 -3.26479 0
M  V30 1080 N 100.511 1.16574 -1.06058 0
M  V30 1081 C 101.739 1.90952 -0.796552 0
M  V30 1082 C 102.154 1.77302 0.648808 0
M  V30 1083 O 101.511 1.11605 1.44397 0
M  V30 1084 C 101.562 3.41736 -1.17894 0
M  V30 1085 O 101.283 3.54975 -2.56758 0
M  V30 1086 C 102.784 4.33169 -0.942308 0
M  V30 1087 H 100.004 0.605594 -0.288959 0
M  V30 1088 H 102.548 1.47777 -1.41358 0
M  V30 1089 H 100.703 3.82623 -0.606491 0
M  V30 1090 H 101.117 4.4846 -2.72 0
M  V30 1091 H 102.591 5.37439 -1.25952 0
M  V30 1092 H 103.068 4.3903 0.122078 0
M  V30 1093 H 103.674 3.98007 -1.49902 0
M  V30 1094 N 101.989 0.842826 1.3317 0
M  V30 1095 C 102.939 0.250877 2.26616 0
M  V30 1096 C 103.923 -0.596427 1.49437 0
M  V30 1097 O 105.115 -0.447747 1.71243 0
M  V30 1098 C 102.244 -0.569779 3.38539 0
M  V30 1099 C 101.33 0.289254 4.23112 0
M  V30 1100 N 101.721 1.36987 4.86897 0
M  V30 1101 C 100.019 0.0769631 4.45934 0
M  V30 1102 C 100.72 1.89737 5.49886 0
M  V30 1103 N 99.6959 1.19827 5.30229 0
M  V30 1104 H 103.498 1.07718 2.73448 0
M  V30 1105 H 101.012 0.687693 1.47121 0
M  V30 1106 H 103.009 -1.01018 4.04476 0
M  V30 1107 H 101.669 -1.39401 2.93253 0
M  V30 1108 H 102.68 1.75277 4.87338 0
M  V30 1109 H 99.3569 -0.713507 4.11358 0
M  V30 1110 H 100.747 2.80253 6.10662 0
M  V30 1111 N 103.467 -1.45747 0.599634 0
M  V30 1112 C 104.715 -2.01893 0.0915472 0
M  V30 1113 C 105.036 -1.47155 -1.27946 0
M  V30 1114 O 104.306 -0.66273 -1.84349 0
M  V30 1115 H 102.886 -0.746363 0.0308524 0
M  V30 1116 H 105.548 -1.78645 0.779237 0
M  V30 1117 H 104.644 -3.1208 0.0353086 0
M  V30 1118 N 104.945 -0.338344 -1.53925 0
M  V30 1119 C 106.361 0.0137736 -1.59594 0
M  V30 1120 C 106.561 1.49186 -1.35447 0
M  V30 1121 O 105.617 2.24987 -1.14616 0
M  V30 1122 C 106.93 -0.41773 -2.97784 0
M  V30 1123 C 108.478 -0.369633 -3.1081 0
M  V30 1124 C 108.953 -0.776524 -4.51369 0
M  V30 1125 N 110.444 -0.730506 -4.57403 0
M  V30 1126 C 111.179 -1.01736 -5.64303 0
M  V30 1127 N 110.675 -1.3721 -6.79077 0
M  V30 1128 N 112.468 -0.941942 -5.54151 0
M  V30 1129 H 104.619 -1.3012 -1.67876 0
M  V30 1130 H 106.882 -0.530082 -0.78595 0
M  V30 1131 H 106.588 -1.44811 -3.20504 0
M  V30 1132 H 106.462 0.209729 -3.76616 0
M  V30 1133 H 108.849 0.651568 -2.87817 0
M  V30 1134 H 108.93 -1.03223 -2.34049 0
M  V30 1135 H 108.574 -1.79571 -4.75096 0
M  V30 1136 H 108.504 -0.0914649 -5.26521 0
M  V30 1137 H 110.995 -0.468783 -3.74981 0
M  V30 1138 H 111.308 -1.57597 -7.5656 0
M  V30 1139 H 109.653 -1.4105 -6.80536 0
M  V30 1140 H 112.844 -0.664184 -4.63364 0
M  V30 1141 H 113.017 -1.16884 -6.37371 0
M  V30 1142 N 106.423 1.57458 -0.0668435 0
M  V30 1143 C 107.669 1.93587 0.6043 0
M  V30 1144 C 108.002 0.946722 1.69561 0
M  V30 1145 O 107.277 -0.0248516 1.94484 0
M  V30 1146 C 107.56 3.40014 1.18585 0
M  V30 1147 C 107.413 4.49685 0.101529 0
M  V30 1148 C 108.732 3.87154 2.09284 0
M  V30 1149 H 105.851 0.703958 0.218202 0
M  V30 1150 H 108.493 1.89542 -0.131804 0
M  V30 1151 H 106.643 3.43592 1.81319 0
M  V30 1152 H 108.315 4.5823 -0.531279 0
M  V30 1153 H 106.558 4.30059 -0.568487 0
M  V30 1154 H 107.229 5.49266 0.54874 0
M  V30 1155 H 109.705 3.85551 1.56491 0
M  V30 1156 H 108.581 4.90231 2.46911 0
M  V30 1157 H 108.842 3.2481 2.99918 0
M  V30 1158 N 107.901 -0.206675 1.56239 0
M  V30 1159 C 109.317 -0.557025 1.49564 0
M  V30 1160 C 109.517 -1.86424 0.764735 0
M  V30 1161 O 108.573 -2.50584 0.310491 0
M  V30 1162 C 109.886 -0.622478 2.94186 0
M  V30 1163 C 111.434 -0.712099 3.04792 0
M  V30 1164 C 111.909 -0.808767 4.50803 0
M  V30 1165 N 113.4 -0.8726 4.54907 0
M  V30 1166 C 114.135 -0.967365 5.65181 0
M  V30 1167 N 113.631 -1.02515 6.85173 0
M  V30 1168 N 115.424 -1.00366 5.53067 0
M  V30 1169 H 107.575 0.650943 2.02179 0
M  V30 1170 H 109.838 0.230387 0.919579 0
M  V30 1171 H 109.544 0.268727 3.50672 0
M  V30 1172 H 109.418 -1.4811 3.46905 0
M  V30 1173 H 111.805 -1.59374 2.48363 0
M  V30 1174 H 111.886 0.172489 2.55218 0
M  V30 1175 H 111.53 0.0684754 5.07854 0
M  V30 1176 H 111.46 -1.70899 4.98098 0
M  V30 1177 H 113.951 -0.837657 3.68499 0
M  V30 1178 H 114.264 -1.09765 7.64965 0
M  V30 1179 H 112.609 -0.994026 6.87855 0
M  V30 1180 H 115.8 -0.95527 4.58249 0
M  V30 1181 H 115.973 -1.07405 6.39037 0
M  V30 1182 N 109.379 -1.50304 -0.473955 0
M  V30 1183 C 110.309 -1.71886 -1.58042 0
M  V30 1184 C 111.29 -0.567799 -1.60344 0
M  V30 1185 O 112.475 -0.806623 -1.76656 0
M  V30 1186 C 109.605 -1.81036 -2.96384 0
M  V30 1187 C 108.559 -2.962 -3.08949 0
M  V30 1188 C 107.885 -2.9049 -4.48909 0
M  V30 1189 C 109.185 -4.36752 -2.86434 0
M  V30 1190 H 110.879 -2.64527 -1.40234 0
M  V30 1191 H 108.425 -1.27295 -0.673201 0
M  V30 1192 H 110.378 -1.94719 -3.73714 0
M  V30 1193 H 109.102 -0.850147 -3.15341 0
M  V30 1194 H 107.761 -2.82164 -2.3405 0
M  V30 1195 H 107.409 -1.92321 -4.64781 0
M  V30 1196 H 107.109 -3.67802 -4.58253 0
M  V30 1197 H 108.633 -3.06218 -5.28264 0
M  V30 1198 H 110.047 -4.5133 -3.53517 0
M  V30 1199 H 108.444 -5.15493 -3.07225 0
M  V30 1200 H 109.514 -4.49321 -1.82316 0
M  V30 1201 N 110.857 0.726932 -1.39834 0
M  V30 1202 C 111.787 1.85405 -1.41941 0
M  V30 1203 C 112.768 1.67751 -0.281728 0
M  V30 1204 O 113.953 1.8795 -0.488717 0
M  V30 1205 C 111.083 3.23243 -1.2701 0
M  V30 1206 C 110.037 3.55549 -2.38262 0
M  V30 1207 C 109.363 4.9241 -2.08415 0
M  V30 1208 C 110.663 3.577 -3.80589 0
M  V30 1209 H 112.357 1.83899 -2.36266 0
M  V30 1210 H 109.903 0.883349 -1.13723 0
M  V30 1211 H 111.856 4.01775 -1.27103 0
M  V30 1212 H 110.58 3.25296 -0.291564 0
M  V30 1213 H 109.239 2.79351 -2.37399 0
M  V30 1214 H 108.887 4.91052 -1.0898 0
M  V30 1215 H 108.587 5.14992 -2.82943 0
M  V30 1216 H 110.111 5.73289 -2.10171 0
M  V30 1217 H 111.525 4.26293 -3.83337 0
M  V30 1218 H 109.922 3.91804 -4.54543 0
M  V30 1219 H 110.992 2.57328 -4.10987 0
M  V30 1220 N 112.336 1.25143 0.95797 0
M  V30 1221 C 113.266 1.07711 2.07173 0
M  V30 1222 C 114.247 -0.0128462 1.70095 0
M  V30 1223 O 115.432 0.156061 1.93572 0
M  V30 1224 C 112.562 0.691503 3.40346 0
M  V30 1225 C 111.516 1.73132 3.9142 0
M  V30 1226 C 110.842 1.20049 5.21049 0
M  V30 1227 C 112.142 3.1294 4.1817 0
M  V30 1228 H 113.836 2.00873 2.22014 0
M  V30 1229 H 111.382 0.967191 1.06684 0
M  V30 1230 H 113.335 0.556505 4.17709 0
M  V30 1231 H 112.059 -0.275819 3.25433 0
M  V30 1232 H 110.718 1.8547 3.16222 0
M  V30 1233 H 110.366 0.223499 5.02503 0
M  V30 1234 H 110.066 1.89545 5.56189 0
M  V30 1235 H 111.59 1.07782 6.01012 0
M  V30 1236 H 113.004 3.03775 4.86203 0
M  V30 1237 H 111.401 3.79875 4.64559 0
M  V30 1238 H 112.471 3.6025 3.24573 0
M  V30 1239 N 113.814 -1.1601 1.06675 0
M  V30 1240 C 115.039 -1.91068 0.806706 0
M  V30 1241 C 115.464 -1.77112 -0.633485 0
M  V30 1242 O 114.822 -1.09908 -1.44187 0
M  V30 1243 C 114.87 -3.39655 1.21106 0
M  V30 1244 O 113.974 -4.10893 0.352189 0
M  V30 1245 H 113.315 -0.595125 0.294486 0
M  V30 1246 H 115.845 -1.46955 1.42356 0
M  V30 1247 H 115.855 -3.90434 1.18428 0
M  V30 1248 H 114.53 -3.49132 2.26008 0
M  V30 1249 H 113.107 -3.70285 0.440868 0
M  V30 1250 N 115.292 -0.849877 -1.32721 0
M  V30 1251 C 116.239 -0.289033 -2.28983 0
M  V30 1252 C 117.209 0.601324 -1.54833 0
M  V30 1253 O 118.394 0.537253 -1.8308 0
M  V30 1254 C 115.534 0.520623 -3.4115 0
M  V30 1255 C 114.647 -0.394989 -4.3019 0
M  V30 1256 C 113.782 0.426834 -5.29482 0
M  V30 1257 C 112.821 -0.486476 -6.10164 0
M  V30 1258 N 111.958 0.297879 -7.01468 0
M  V30 1259 H 116.798 -1.11519 -2.76347 0
M  V30 1260 H 114.335 -0.56138 -1.35967 0
M  V30 1261 H 116.293 1.00563 -4.04899 0
M  V30 1262 H 114.923 1.31165 -2.9495 0
M  V30 1263 H 113.975 -0.99836 -3.67065 0
M  V30 1264 H 115.287 -1.09612 -4.86607 0
M  V30 1265 H 114.441 0.975205 -5.98811 0
M  V30 1266 H 113.18 1.16136 -4.73671 0
M  V30 1267 H 112.185 -1.04677 -5.39743 0
M  V30 1268 H 113.41 -1.21953 -6.6806 0
M  V30 1269 H 111.356 1.01558 -6.48091 0
M  V30 1270 H 111.273 -0.344318 -7.55216 0
M  V30 1271 H 112.541 0.828131 -7.75089 0
M  V30 1272 N 116.77 1.45427 -0.607355 0
M  V30 1273 C 118.018 2.01841 -0.102253 0
M  V30 1274 C 118.339 1.47832 1.27164 0
M  V30 1275 O 117.609 0.672497 1.83995 0
M  V30 1276 H 116.189 0.746188 -0.0348101 0
M  V30 1277 H 118.851 1.78229 -0.7887 0
M  V30 1278 H 117.947 3.12057 -0.0518585 0
M  V30 1279 N 118.248 0.346503 1.53744 0
M  V30 1280 C 119.198 -0.524953 2.21874 0
M  V30 1281 C 120.182 -1.06376 1.20718 0
M  V30 1282 O 121.374 -0.996972 1.46251 0
M  V30 1283 C 118.503 -1.6739 2.99726 0
M  V30 1284 C 117.589 -1.14888 4.08242 0
M  V30 1285 N 117.98 -0.345329 5.0462 0
M  V30 1286 C 116.278 -1.4255 4.22606 0
M  V30 1287 C 116.979 -0.0600706 5.81669 0
M  V30 1288 N 115.955 -0.65252 5.39669 0
M  V30 1289 H 119.757 0.0960091 2.93743 0
M  V30 1290 H 117.271 0.15352 1.61673 0
M  V30 1291 H 119.268 -2.3102 3.47038 0
M  V30 1292 H 117.928 -2.29811 2.29384 0
M  V30 1293 H 118.939 0.0138439 5.17898 0
M  V30 1294 H 115.616 -2.05389 3.63486 0
M  V30 1295 H 117.006 0.588321 6.69319 0
M  V30 1296 N 119.726 -1.57421 0.075193 0
M  V30 1297 C 120.951 -1.98364 -0.605515 0
M  V30 1298 C 121.376 -0.953383 -1.62149 0
M  V30 1299 O 120.734 0.0806053 -1.81121 0
M  V30 1300 C 120.782 -3.38332 -1.24756 0
M  V30 1301 O 119.886 -3.37959 -2.36342 0
M  V30 1302 H 119.227 -0.645553 -0.155428 0
M  V30 1303 H 121.757 -2.04044 0.150714 0
M  V30 1304 H 121.767 -3.75591 -1.5936 0
M  V30 1305 H 120.442 -4.12846 -0.503129 0
M  V30 1306 H 119.019 -3.12474 -2.03506 0
M  V30 1307 N 121.204 0.198386 -1.56346 0
M  V30 1308 C 122.444 0.92609 -1.82217 0
M  V30 1309 C 122.808 1.80584 -0.652195 0
M  V30 1310 O 124.009 2.56907 -0.790716 0
M  V30 1311 C 122.28 1.72354 -3.13096 0
M  V30 1312 S 123.839 2.50371 -3.6036 0
M  V30 1313 H 120.657 0.310677 -0.639532 0
M  V30 1314 H 123.259 0.189755 -1.94577 0
M  V30 1315 H 121.963 1.0678 -3.96265 0
M  V30 1316 H 121.494 2.50175 -3.03605 0
M  V30 1317 H 123.509 3.74488 -3.25535 0
M  V30 1318 N 122.682 1.50554 0.465978 0
M  V30 1319 C 123.912 1.65323 1.23903 0
M  V30 1320 C 124.32 0.338051 1.86155 0
M  V30 1321 O 123.663 -0.690518 1.70228 0
M  V30 1322 C 123.725 2.69048 2.3844 0
M  V30 1323 C 123.389 4.12462 1.96784 0
M  V30 1324 C 124.386 4.98168 1.48745 0
M  V30 1325 C 122.071 4.58407 2.05349 0
M  V30 1326 C 124.065 6.27868 1.0982 0
M  V30 1327 C 121.752 5.88112 1.66035 0
M  V30 1328 C 122.75 6.72668 1.18349 0
M  V30 1329 O 122.438 7.99951 0.795825 0
M  V30 1330 H 122.17 0.558629 0.38067 0
M  V30 1331 H 124.724 1.97561 0.562022 0
M  V30 1332 H 122.954 2.32062 3.09328 0
M  V30 1333 H 124.643 2.72985 3.0039 0
M  V30 1334 H 125.409 4.63885 1.41546 0
M  V30 1335 H 121.288 3.92735 2.41414 0
M  V30 1336 H 124.832 6.93819 0.725293 0
M  V30 1337 H 120.729 6.21914 1.72895 0
M  V30 1338 H 121.497 8.13265 0.924222 0
M  V30 1339 N 124.16 -0.719506 1.40217 0
M  V30 1340 C 125.576 -1.02707 1.22161 0
M  V30 1341 C 125.776 -2.0128 0.0940557 0
M  V30 1342 O 124.832 -2.46452 -0.549318 0
M  V30 1343 C 126.145 -1.57454 2.56181 0
M  V30 1344 C 127.693 -1.69458 2.63159 0
M  V30 1345 C 128.168 -2.27611 3.97438 0
M  V30 1346 N 129.659 -2.35002 3.99159 0
M  V30 1347 C 130.394 -2.80972 4.99842 0
M  V30 1348 N 129.89 -3.26723 6.10921 0
M  V30 1349 N 131.683 -2.80321 4.87213 0
M  V30 1350 H 123.834 -0.0660492 2.12297 0
M  V30 1351 H 126.097 -0.0919077 0.943534 0
M  V30 1352 H 125.803 -0.924873 3.39321 0
M  V30 1353 H 125.677 -2.56036 2.76993 0
M  V30 1354 H 128.064 -2.33543 1.80393 0
M  V30 1355 H 128.145 -0.694867 2.46181 0
M  V30 1356 H 127.789 -1.6415 4.80643 0
M  V30 1357 H 127.719 -3.2829 4.11744 0
M  V30 1358 H 130.21 -2.02685 3.18947 0
M  V30 1359 H 130.523 -3.60355 6.8364 0
M  V30 1360 H 128.868 -3.24692 6.14492 0
M  V30 1361 H 132.059 -2.43912 3.9953 0
M  V30 1362 H 132.232 -3.15831 5.65822 0
M  V30 1363 N 125.638 -1.25649 -0.95132 0
M  V30 1364 C 127.049 -1.09654 -1.51106 0
M  V30 1365 C 127.4 0.326615 -1.93462 0
M  V30 1366 O 126.525 1.21697 -1.78938 0
M  V30 1367 C 127.12 -1.98437 -2.74605 0
M  V30 1368 C 125.679 -1.86618 -3.2688 0
M  V30 1369 C 124.826 -1.9239 -1.99703 0
M  V30 1370 H 127.777 -1.38887 -0.767865 0
M  V30 1371 H 127.798 -1.5263 -3.48546 0
M  V30 1372 H 127.31 -3.02009 -2.43746 0
M  V30 1373 H 125.411 -0.859421 -3.62553 0
M  V30 1374 H 125.524 -2.71607 -3.94673 0
M  V30 1375 H 123.888 -1.36317 -2.15151 0
M  V30 1376 H 124.671 -2.97573 -1.71188 0
M  V30 1377 N 127.117 1.15442 -1.07289 0
M  V30 1378 C 128.533 1.38201 -0.798288 0
M  V30 1379 C 128.733 1.92429 0.597769 0
M  V30 1380 O 127.789 2.12962 1.3566 0
M  V30 1381 C 129.102 2.35357 -1.87156 0
M  V30 1382 C 130.65 2.49021 -1.89624 0
M  V30 1383 C 131.125 3.49468 -2.96034 0
M  V30 1384 N 132.616 3.57003 -2.95132 0
M  V30 1385 C 133.351 4.34543 -3.74112 0
M  V30 1386 N 132.847 5.15421 -4.6294 0
M  V30 1387 N 134.64 4.29625 -3.62462 0
M  V30 1388 H 126.791 0.78584 -1.97328 0
M  V30 1389 H 129.054 0.408065 -0.855679 0
M  V30 1390 H 128.76 2.02626 -2.87464 0
M  V30 1391 H 128.634 3.35129 -1.73114 0
M  V30 1392 H 131.021 2.81051 -0.899687 0
M  V30 1393 H 131.102 1.4925 -2.07745 0
M  V30 1394 H 130.746 3.18173 -3.95889 0
M  V30 1395 H 130.676 4.48992 -2.75161 0
M  V30 1396 H 133.167 2.99276 -2.30743 0
M  V30 1397 H 133.48 5.7183 -5.19837 0
M  V30 1398 H 131.825 5.14729 -4.66989 0
M  V30 1399 H 135.016 3.65505 -2.92444 0
M  V30 1400 H 135.189 4.89807 -4.24256 0
M  V30 1401 N 128.595 0.856903 1.32268 0
M  V30 1402 C 130.011 0.547061 1.49931 0
M  V30 1403 C 130.211 -0.921781 1.7918 0
M  V30 1404 O 129.267 -1.70469 1.8627 0
M  V30 1405 C 130.58 1.43599 2.64196 0
M  V30 1406 C 132.128 1.43665 2.78081 0
M  V30 1407 C 132.603 2.31085 3.95428 0
M  V30 1408 N 134.094 2.28893 4.02694 0
M  V30 1409 C 134.829 2.93262 4.92732 0
M  V30 1410 N 134.325 3.66751 5.87763 0
M  V30 1411 N 136.118 2.82638 4.85873 0
M  V30 1412 H 128.269 1.8075 1.11549 0
M  V30 1413 H 130.532 0.772144 0.549997 0
M  V30 1414 H 130.238 2.48058 2.49319 0
M  V30 1415 H 130.112 1.12502 3.60032 0
M  V30 1416 H 132.499 0.399701 2.92381 0
M  V30 1417 H 132.58 1.7878 1.82952 0
M  V30 1418 H 132.224 3.34849 3.81888 0
M  V30 1419 H 132.154 1.93302 4.89839 0
M  V30 1420 H 134.645 1.75466 3.34694 0
M  V30 1421 H 134.958 4.13027 6.53168 0
M  V30 1422 H 133.303 3.70859 5.87783 0
M  V30 1423 H 136.494 2.24774 4.10602 0
M  V30 1424 H 136.667 3.33084 5.55841 0
M  V30 1425 N 130.073 -1.45103 0.615059 0
M  V30 1426 C 131.301 -2.06553 0.11977 0
M  V30 1427 C 131.716 -1.45842 -1.19898 0
M  V30 1428 O 131.073 -0.575325 -1.73194 0
M  V30 1429 C 131.124 -3.61495 -0.018364 0
M  V30 1430 O 130.845 -4.19942 1.24822 0
M  V30 1431 C 132.346 -4.39947 -0.544237 0
M  V30 1432 H 129.566 -0.667096 0.0722739 0
M  V30 1433 H 132.11 -1.8623 0.84491 0
M  V30 1434 H 130.265 -3.81135 -0.693865 0
M  V30 1435 H 130.679 -5.13204 1.0827 0
M  V30 1436 H 132.153 -5.48838 -0.589953 0
M  V30 1437 H 132.63 -4.10255 -1.56805 0
M  V30 1438 H 133.236 -4.25188 0.0974703 0
M  V30 1439 N 131.551 -0.354651 -1.53558 0
M  V30 1440 C 132.799 0.237972 -2.00694 0
M  V30 1441 C 133.12 1.50173 -1.24391 0
M  V30 1442 O 132.39 1.92673 -0.354135 0
M  V30 1443 H 130.97 0.0909256 -0.741446 0
M  V30 1444 H 133.632 -0.478368 -1.88938 0
M  V30 1445 H 132.728 0.47264 -3.085 0
M  V30 1446 N 133.029 1.57378 -0.0835403 0
M  V30 1447 C 133.939 2.16897 0.894021 0
M  V30 1448 C 134.955 1.13528 1.31861 0
M  V30 1449 O 136.131 1.45848 1.3889 0
M  V30 1450 C 133.196 2.72831 2.13925 0
M  V30 1451 C 132.257 3.91115 1.76997 0
M  V30 1452 C 131.49 4.44371 2.95584 0
M  V30 1453 O 131.713 3.96596 4.09961 0
M  V30 1454 O 130.647 5.35549 2.74719 0
M  V30 1455 H 134.473 3.00814 0.417679 0
M  V30 1456 H 132.058 1.48741 0.140181 0
M  V30 1457 H 133.94 3.0863 2.86924 0
M  V30 1458 H 132.615 1.91967 2.60635 0
M  V30 1459 H 131.522 3.60148 1.01214 0
M  V30 1460 H 132.855 4.73307 1.3506 0
M  V30 1461 N 134.507 -0.190092 1.56449 0
M  V30 1462 C 135.923 -0.54113 1.50146 0
M  V30 1463 C 136.123 -1.85603 0.784465 0
M  V30 1464 O 135.179 -2.5024 0.337051 0
M  V30 1465 C 136.492 -0.591241 2.9483 0
M  V30 1466 C 138.04 -0.679732 3.0553 0
M  V30 1467 C 138.515 -0.760908 4.51635 0
M  V30 1468 N 140.006 -0.824302 4.55806 0
M  V30 1469 C 140.741 -0.907365 5.66175 0
M  V30 1470 N 140.237 -0.952422 6.86222 0
M  V30 1471 N 142.03 -0.94494 5.541 0
M  V30 1472 H 134.181 0.67235 2.01478 0
M  V30 1473 H 136.444 0.240127 0.917084 0
M  V30 1474 H 136.15 0.305905 3.50367 0
M  V30 1475 H 136.024 -1.44422 3.48457 0
M  V30 1476 H 138.411 -1.56731 2.50039 0
M  V30 1477 H 138.492 0.199549 2.5502 0
M  V30 1478 H 138.136 0.122336 5.07753 0
M  V30 1479 H 138.066 -1.65606 4.99882 0
M  V30 1480 H 140.557 -0.798526 3.69367 0
M  V30 1481 H 140.87 -1.01645 7.66086 0
M  V30 1482 H 139.215 -0.921014 6.8887 0
M  V30 1483 H 142.406 -0.906612 4.59236 0
M  V30 1484 H 142.579 -1.00622 6.4014 0
M  V30 1485 N 135.985 -1.50799 -0.457987 0
M  V30 1486 C 136.932 -1.70617 -1.5543 0
M  V30 1487 C 137.902 -0.547562 -1.56815 0
M  V30 1488 O 139.087 -0.779647 -1.74144 0
M  V30 1489 C 136.227 -1.81831 -2.93311 0
M  V30 1490 C 135.34 -3.09278 -3.01615 0
M  V30 1491 C 134.475 -3.11209 -4.30491 0
M  V30 1492 C 133.514 -4.33055 -4.32585 0
M  V30 1493 N 132.651 -4.32652 -5.52952 0
M  V30 1494 H 137.491 -2.64207 -1.37836 0
M  V30 1495 H 135.028 -1.30959 -0.669937 0
M  V30 1496 H 136.986 -1.86314 -3.73287 0
M  V30 1497 H 135.616 -0.916685 -3.0951 0
M  V30 1498 H 134.668 -3.14203 -2.1443 0
M  V30 1499 H 135.98 -3.99233 -2.99022 0
M  V30 1500 H 135.134 -3.14494 -5.18824 0
M  V30 1501 H 133.873 -2.19106 -4.35711 0
M  V30 1502 H 132.878 -4.29969 -3.42647 0
M  V30 1503 H 134.103 -5.264 -4.29046 0
M  V30 1504 H 132.049 -3.43409 -5.58933 0
M  V30 1505 H 131.966 -5.16392 -5.52155 0
M  V30 1506 H 133.234 -4.40101 -6.43375 0
M  V30 1507 N 137.463 0.71206 -1.40597 0
M  V30 1508 C 138.879 1.02058 -1.22704 0
M  V30 1509 C 139.079 2.01228 -0.104729 0
M  V30 1510 O 138.135 2.4674 0.53624 0
M  V30 1511 C 139.448 1.56094 -2.57012 0
M  V30 1512 C 140.996 1.6806 -2.64054 0
M  V30 1513 C 141.471 2.25501 -3.9864 0
M  V30 1514 N 142.962 2.32882 -4.004 0
M  V30 1515 C 143.697 2.78317 -5.01325 0
M  V30 1516 N 143.193 3.23478 -6.12645 0
M  V30 1517 N 144.986 2.77733 -4.88693 0
M  V30 1518 H 137.137 0.0547896 -2.12329 0
M  V30 1519 H 139.4 0.0869027 -0.944008 0
M  V30 1520 H 139.106 0.906865 -3.39807 0
M  V30 1521 H 138.98 2.54564 -2.78347 0
M  V30 1522 H 141.367 2.32583 -1.81629 0
M  V30 1523 H 141.448 0.681802 -2.46546 0
M  V30 1524 H 141.092 1.61598 -4.81506 0
M  V30 1525 H 141.022 3.26102 -4.13479 0
M  V30 1526 H 143.513 2.00991 -3.20017 0
M  V30 1527 H 143.826 3.56725 -6.85542 0
M  V30 1528 H 142.171 3.21429 -6.16205 0
M  V30 1529 H 145.362 2.4179 -4.00818 0
M  V30 1530 H 145.535 3.12826 -5.67489 0
M  V30 1531 N 138.941 1.26152 0.944643 0
M  V30 1532 C 139.888 1.07408 2.04285 0
M  V30 1533 C 140.858 -0.0198413 1.66088 0
M  V30 1534 O 142.043 0.139264 1.90291 0
M  V30 1535 C 139.183 0.70945 3.37729 0
M  V30 1536 C 138.296 1.87926 3.88983 0
M  V30 1537 C 137.431 1.45807 5.10797 0
M  V30 1538 C 136.47 2.5964 5.54305 0
M  V30 1539 N 135.607 2.18226 6.67324 0
M  V30 1540 H 140.447 2.01389 2.1965 0
M  V30 1541 H 137.984 1.00275 1.07626 0
M  V30 1542 H 139.942 0.478948 4.14442 0
M  V30 1543 H 138.572 -0.193389 3.2222 0
M  V30 1544 H 137.624 2.22279 3.08701 0
M  V30 1545 H 138.936 2.73377 4.17213 0
M  V30 1546 H 138.09 1.18781 5.94959 0
M  V30 1547 H 136.829 0.574414 4.84305 0
M  V30 1548 H 135.834 2.87399 4.68702 0
M  V30 1549 H 137.059 3.48599 5.828 0
M  V30 1550 H 135.005 1.3229 6.42523 0
M  V30 1551 H 134.922 2.97221 6.95123 0
M  V30 1552 H 136.19 1.94403 7.54869 0
M  V30 1553 N 140.419 -1.14872 1.07899 0
M  V30 1554 C 141.644 -1.90202 0.826926 0
M  V30 1555 C 142.069 -1.77774 -0.614664 0
M  V30 1556 O 141.427 -1.11431 -1.43013 0
M  V30 1557 C 141.475 -3.38352 1.24702 0
M  V30 1558 O 140.579 -4.10497 0.39575 0
M  V30 1559 H 139.92 -0.591968 0.300782 0
M  V30 1560 H 142.45 -1.45437 1.43907 0
M  V30 1561 H 142.46 -3.89156 1.22563 0
M  V30 1562 H 141.135 -3.46715 2.29698 0
M  V30 1563 H 139.712 -3.69796 0.480117 0
M  V30 1564 N 141.898 -0.863906 -1.31812 0
M  V30 1565 C 143.144 -0.472535 -1.97218 0
M  V30 1566 C 143.477 0.971394 -1.68159 0
M  V30 1567 O 142.752 1.68309 -0.974798 0
M  V30 1568 C 143.035 -0.723054 -3.52766 0
M  V30 1569 C 142.888 -2.21608 -3.91421 0
M  V30 1570 C 144.207 -0.185522 -4.39709 0
M  V30 1571 H 141.326 -0.173158 -0.71637 0
M  V30 1572 H 143.968 -1.08403 -1.56041 0
M  V30 1573 H 142.118 -0.202577 -3.87971 0
M  V30 1574 H 143.79 -2.80334 -3.66347 0
M  V30 1575 H 142.033 -2.691 -3.40246 0
M  V30 1576 H 142.704 -2.34203 -4.99853 0
M  V30 1577 H 145.18 -0.630726 -4.11292 0
M  V30 1578 H 144.056 -0.390306 -5.47511 0
M  V30 1579 H 144.317 0.912229 -4.32586 0
M  V30 1580 N 143.376 1.44774 -0.622745 0
M  V30 1581 C 144.792 1.56986 -0.287652 0
M  V30 1582 C 144.992 1.61167 1.20944 0
M  V30 1583 O 144.048 1.55015 1.99315 0
M  V30 1584 C 145.361 2.84551 -0.972188 0
M  V30 1585 C 146.909 2.9825 -0.949536 0
M  V30 1586 C 147.384 4.28605 -1.61437 0
M  V30 1587 N 148.875 4.35399 -1.58057 0
M  V30 1588 C 149.61 5.34964 -2.064 0
M  V30 1589 N 149.106 6.40981 -2.62897 0
M  V30 1590 N 150.899 5.26419 -1.97078 0
M  V30 1591 H 143.05 1.40304 -1.59463 0
M  V30 1592 H 145.313 0.671794 -0.668878 0
M  V30 1593 H 145.019 2.87417 -2.02693 0
M  V30 1594 H 144.893 3.73807 -0.504771 0
M  V30 1595 H 147.28 2.94941 0.0967067 0
M  V30 1596 H 147.361 2.10364 -1.45536 0
M  V30 1597 H 147.005 4.32672 -2.66002 0
M  V30 1598 H 146.935 5.15334 -1.08344 0
M  V30 1599 H 149.426 3.59397 -1.16801 0
M  V30 1600 H 149.739 7.13225 -2.97539 0
M  V30 1601 H 148.084 6.4169 -2.66943 0
M  V30 1602 H 151.275 4.42504 -1.52669 0
M  V30 1603 H 151.448 6.03861 -2.35066 0
M  V30 1604 N 144.854 0.36279 1.53368 0
M  V30 1605 C 146.102 -0.227326 2.00817 0
M  V30 1606 C 146.423 -1.49511 1.25186 0
M  V30 1607 O 145.693 -1.92482 0.364348 0
M  V30 1608 H 144.273 -0.0869923 0.741917 0
M  V30 1609 H 146.935 0.488381 1.88682 0
M  V30 1610 H 146.031 -0.456273 3.08747 0
M  V30 1611 N 146.332 -1.57332 0.0918853 0
M  V30 1612 C 147.572 -1.96117 -0.575988 0
M  V30 1613 C 147.936 -0.972499 -1.65549 0
M  V30 1614 O 149.137 -1.24872 -2.38034 0
M  V30 1615 C 147.408 -3.39407 -1.11973 0
M  V30 1616 S 148.967 -4.00185 -1.79992 0
M  V30 1617 H 145.785 -0.685682 -0.188045 0
M  V30 1618 H 148.387 -1.94755 0.170525 0
M  V30 1619 H 147.091 -4.09131 -0.322504 0
M  V30 1620 H 146.622 -3.44358 -1.90214 0
M  V30 1621 H 148.637 -3.88728 -3.08391 0
M  V30 1622 N 147.81 0.181792 -1.56548 0
M  V30 1623 C 149.059 0.898348 -1.8059 0
M  V30 1624 C 149.372 1.83862 -0.667379 0
M  V30 1625 O 150.578 2.59678 -0.792446 0
M  V30 1626 C 149.034 1.64791 -3.19956 0
M  V30 1627 C 148.642 0.751789 -4.41647 0
M  V30 1628 C 150.386 2.35331 -3.53298 0
M  V30 1629 C 148.293 1.50098 -5.72035 0
M  V30 1630 H 147.223 0.339194 -0.673397 0
M  V30 1631 H 149.874 0.151413 -1.82874 0
M  V30 1632 H 148.256 2.43921 -3.11959 0
M  V30 1633 H 149.43 -0.0018076 -4.608 0
M  V30 1634 H 147.745 0.156562 -4.16106 0
M  V30 1635 H 150.342 2.91958 -4.47956 0
M  V30 1636 H 150.685 3.10164 -2.77676 0
M  V30 1637 H 151.218 1.63154 -3.62803 0
M  V30 1638 H 147.957 0.795175 -6.50659 0
M  V30 1639 H 147.477 2.22817 -5.56878 0
M  V30 1640 H 149.156 2.05125 -6.13622 0
M  V30 1641 N 149.288 1.51039 0.449983 0
M  V30 1642 C 150.534 1.63322 1.20223 0
M  V30 1643 C 150.867 0.34241 1.91158 0
M  V30 1644 O 150.142 -0.657344 1.83055 0
M  V30 1645 C 150.425 2.82801 2.22925 0
M  V30 1646 C 150.278 4.21823 1.56157 0
M  V30 1647 C 151.597 2.97807 3.24035 0
M  V30 1648 H 148.716 0.594407 0.435718 0
M  V30 1649 H 151.358 1.83489 0.493136 0
M  V30 1650 H 149.508 2.65738 2.834 0
M  V30 1651 H 151.18 4.50526 0.991162 0
M  V30 1652 H 149.423 4.25105 0.864172 0
M  V30 1653 H 150.094 5.01391 2.30891 0
M  V30 1654 H 152.57 3.13497 2.73603 0
M  V30 1655 H 151.446 3.82992 3.93202 0
M  V30 1656 H 151.707 2.09328 3.89402 0
M  V30 1657 N 150.766 -0.704594 1.40972 0
M  V30 1658 C 152.043 -1.45847 1.30338 0
M  V30 1659 C 152.423 -2.10973 -0.0732344 0
M  V30 1660 O 151.771 -2.00997 -1.08685 0
M  V30 1661 C 151.981 -2.48525 2.45023 0
M  V30 1662 C 153.329 -3.1404 2.8577 0
M  V30 1663 O 154.353 -2.58848 2.44696 0
M  V30 1664 O 153.212 -4.13981 3.56766 0
M  V30 1665 H 150.306 -0.649092 0.512454 0
M  V30 1666 H 152.852 -0.735836 1.52917 0
M  V30 1667 H 151.624 -1.98994 3.36923 0
M  V30 1668 H 151.247 -3.2831 2.24272 0
M  V30 1669 N 152.244 -1.26651 -0.937939 0
M  V30 1670 C 153.207 -1.08546 -2.01867 0
M  V30 1671 C 154.207 -0.0327327 -1.60767 0
M  V30 1672 O 155.397 -0.276427 -1.71993 0
M  V30 1673 C 152.529 -0.651711 -3.34613 0
M  V30 1674 H 153.722 -2.04502 -2.1936 0
M  V30 1675 H 151.275 -1.09294 -1.11734 0
M  V30 1676 H 152.01 0.309696 -3.22818 0
M  V30 1677 H 151.795 -1.41189 -3.65798 0
M  V30 1678 H 153.285 -0.546973 -4.14002 0
M  V30 1679 N 153.722 1.14298 -1.08507 0
M  V30 1680 C 154.67 2.21483 -0.710483 0
M  V30 1681 C 155.664 1.66998 0.284234 0
M  V30 1682 O 156.87 1.79401 0.146692 0
M  V30 1683 H 153.245 0.721578 -0.211729 0
M  V30 1684 H 155.216 2.50348 -1.62384 0
M  V30 1685 C 153.965 3.4743 -0.137007 0
M  V30 1686 H 153.288 3.89686 -0.893592 0
M  V30 1687 H 154.728 4.2391 0.0872789 0
M  V30 1688 C 153.187 3.17548 1.12538 0
M  V30 1689 O 153.717 3.35437 2.21009 0
M  V30 1690 N 151.923 2.71499 1.03617 0
M  V30 1691 H 151.47 2.57143 0.153403 0
M  V30 1692 H 151.428 2.51881 1.88158 0
M  V30 1693 N 155.201 0.870884 1.31352 0
M  V30 1694 C 156.131 0.343096 2.30966 0
M  V30 1695 C 157.112 -0.566507 1.60389 0
M  V30 1696 O 158.297 -0.483336 1.88089 0
M  V30 1697 C 155.427 -0.455487 3.443 0
M  V30 1698 C 154.381 0.361103 4.26474 0
M  V30 1699 C 153.707 -0.563221 5.31725 0
M  V30 1700 C 155.007 1.59566 4.97329 0
M  V30 1701 H 156.701 1.17548 2.75359 0
M  V30 1702 H 154.247 0.566686 1.32381 0
M  V30 1703 H 156.2 -0.83525 4.13039 0
M  V30 1704 H 154.924 -1.32139 2.98675 0
M  V30 1705 H 153.583 0.722825 3.59403 0
M  V30 1706 H 153.231 -1.42643 4.82351 0
M  V30 1707 H 152.931 -0.0207409 5.87596 0
M  V30 1708 H 154.455 -0.939808 6.03324 0
M  V30 1709 H 155.869 1.28728 5.58661 0
M  V30 1710 H 154.266 2.07728 5.63 0
M  V30 1711 H 155.336 2.34798 4.24262 0
M  V30 1712 N 156.679 -1.44442 0.630414 0
M  V30 1713 C 157.904 -2.06927 0.139944 0
M  V30 1714 C 158.329 -1.46795 -1.17613 0
M  V30 1715 O 157.687 -0.569144 -1.72135 0
M  V30 1716 C 157.735 -3.6058 0.0379581 0
M  V30 1717 O 156.839 -3.99937 -1.0062 0
M  V30 1718 H 156.18 -0.658608 0.0844483 0
M  V30 1719 H 158.71 -1.85327 0.866891 0
M  V30 1720 H 158.72 -4.07714 -0.152856 0
M  V30 1721 H 157.395 -4.03728 0.998809 0
M  V30 1722 H 155.972 -3.64436 -0.79001 0
M  V30 1723 N 158.157 -0.370918 -1.53173 0
M  V30 1724 C 159.403 0.217423 -2.01631 0
M  V30 1725 C 159.736 1.47983 -1.25756 0
M  V30 1726 O 159.011 1.91274 -0.352764 0
M  V30 1727 C 159.294 0.503982 -3.56556 0
M  V30 1728 C 159.147 -0.77243 -4.43118 0
M  V30 1729 C 160.466 1.30234 -4.20389 0
M  V30 1730 H 157.585 0.0775486 -0.732909 0
M  V30 1731 H 160.227 -0.496863 -1.83388 0
M  V30 1732 H 158.377 1.11248 -3.72231 0
M  V30 1733 H 160.049 -1.4098 -4.39229 0
M  V30 1734 H 158.292 -1.39167 -4.10871 0
M  V30 1735 H 158.963 -0.526815 -5.4948 0
M  V30 1736 H 161.439 0.787546 -4.08579 0
M  V30 1737 H 160.315 1.47158 -5.28806 0
M  V30 1738 H 160.576 2.31237 -3.76805 0
M  V30 1739 N 159.635 1.57281 -0.100228 0
M  V30 1740 C 160.565 2.17328 0.853857 0
M  V30 1741 C 161.546 1.10804 1.2906 0
M  V30 1742 O 162.731 1.38963 1.35657 0
M  V30 1743 C 159.861 2.75772 2.11109 0
M  V30 1744 C 158.815 3.87713 1.81279 0
M  V30 1745 C 158.141 4.32882 3.13874 0
M  V30 1746 C 159.441 5.10677 1.09574 0
M  V30 1747 H 161.135 2.97305 0.353545 0
M  V30 1748 H 158.681 1.43009 0.168612 0
M  V30 1749 H 160.634 3.16433 2.78296 0
M  V30 1750 H 159.358 1.93057 2.63432 0
M  V30 1751 H 158.017 3.476 1.16489 0
M  V30 1752 H 157.665 3.47051 3.64095 0
M  V30 1753 H 157.365 5.08358 2.94696 0
M  V30 1754 H 158.889 4.7618 3.82211 0
M  V30 1755 H 160.303 5.48474 1.66879 0
M  V30 1756 H 158.7 5.91615 1.00557 0
M  V30 1757 H 159.77 4.84835 0.0793299 0
M  V30 1758 N 161.113 -0.173488 1.56642 0
M  V30 1759 C 162.061 -1.23417 1.97157 0
M  V30 1760 C 163.055 -1.45946 0.860013 0
M  V30 1761 O 164.261 -1.46551 1.04512 0
M  V30 1762 H 160.636 -0.414818 0.62724 0
M  V30 1763 H 162.607 -0.865582 2.8557 0
M  V30 1764 C 161.356 -2.5665 2.34576 0
M  V30 1765 H 160.679 -2.40137 3.19647 0
M  V30 1766 H 162.119 -3.2956 2.6677 0
M  V30 1767 C 160.578 -3.15245 1.18836 0
M  V30 1768 O 161.108 -3.98883 0.474869 0
M  V30 1769 N 159.314 -2.74303 0.959497 0
M  V30 1770 H 158.861 -2.0639 1.54146 0
M  V30 1771 H 158.819 -3.13844 0.186932 0
M  V30 1772 N 162.591 -1.51276 -0.441967 0
M  V30 1773 C 163.521 -1.752 -1.54361 0
M  V30 1774 C 164.502 -0.601682 -1.59103 0
M  V30 1775 O 165.687 -0.843913 -1.74905 0
M  V30 1776 C 162.817 -1.87282 -2.92477 0
M  V30 1777 C 161.771 -3.02687 -3.02596 0
M  V30 1778 C 161.097 -2.99947 -4.42647 0
M  V30 1779 C 162.397 -4.4273 -2.77106 0
M  V30 1780 H 164.091 -2.67442 -1.34592 0
M  V30 1781 H 161.637 -1.28694 -0.646048 0
M  V30 1782 H 163.59 -2.02602 -3.695 0
M  V30 1783 H 162.314 -0.916844 -3.13467 0
M  V30 1784 H 160.973 -2.87065 -2.28012 0
M  V30 1785 H 160.621 -2.02136 -4.60597 0
M  V30 1786 H 160.321 -3.77439 -4.50348 0
M  V30 1787 H 161.845 -3.17354 -5.2165 0
M  V30 1788 H 163.259 -4.58727 -3.43864 0
M  V30 1789 H 161.656 -5.21893 -2.96222 0
M  V30 1790 H 162.726 -4.53087 -1.72744 0
M  V30 1791 N 164.069 0.697108 -1.41344 0
M  V30 1792 C 165.315 1.4593 -1.40827 0
M  V30 1793 C 165.648 1.94193 -0.0167098 0
M  V30 1794 O 164.923 1.69425 0.955263 0
M  V30 1795 C 165.206 2.67229 -2.41373 0
M  V30 1796 C 165.059 2.24741 -3.8963 0
M  V30 1797 C 166.378 3.69423 -2.39196 0
M  V30 1798 H 163.497 0.529303 -0.512842 0
M  V30 1799 H 166.139 0.794112 -1.72609 0
M  V30 1800 H 164.289 3.23982 -2.14401 0
M  V30 1801 H 165.961 1.73327 -4.27499 0
M  V30 1802 H 164.204 1.56542 -4.0457 0
M  V30 1803 H 164.875 3.1177 -4.55525 0
M  V30 1804 H 167.351 3.2234 -2.63128 0
M  V30 1805 H 166.227 4.51907 -3.11563 0
M  V30 1806 H 166.488 4.19012 -1.41001 0
M  V30 1807 N 165.547 1.27147 0.931209 0
M  V30 1808 C 166.796 1.12664 1.67302 0
M  V30 1809 C 167.109 -0.327718 1.92835 0
M  V30 1810 O 168.315 -0.593392 2.64936 0
M  V30 1811 C 166.771 1.9683 3.01307 0
M  V30 1812 C 166.379 3.46901 2.83485 0
M  V30 1813 C 168.123 1.90985 3.79111 0
M  V30 1814 C 166.03 4.23279 4.13024 0
M  V30 1815 H 164.96 0.41803 0.627509 0
M  V30 1816 H 167.611 1.51539 1.03481 0
M  V30 1817 H 165.993 1.50797 3.66164 0
M  V30 1818 H 167.167 4.00773 2.27415 0
M  V30 1819 H 165.482 3.54088 2.19113 0
M  V30 1820 H 168.079 2.45328 4.75098 0
M  V30 1821 H 168.422 0.882718 4.06834 0
M  V30 1822 H 168.955 2.34895 3.21044 0
M  V30 1823 H 165.694 5.26503 3.90481 0
M  V30 1824 H 165.214 3.74186 4.6877 0
M  V30 1825 H 166.893 4.32265 4.81411 0
M  V30 1826 N 167.025 -1.13721 1.09112 0
M  V30 1827 C 168.271 -1.85198 0.826414 0
M  V30 1828 C 168.604 -1.83129 -0.646319 0
M  V30 1829 O 167.879 -1.2671 -1.47563 0
M  V30 1830 C 168.162 -3.33507 1.35812 0
M  V30 1831 C 168.015 -3.44108 2.89672 0
M  V30 1832 C 169.334 -4.28838 0.989256 0
M  V30 1833 H 166.453 -0.67243 0.301675 0
M  V30 1834 H 169.095 -1.33499 1.35197 0
M  V30 1835 H 167.245 -3.77666 0.911082 0
M  V30 1836 H 168.917 -3.08684 3.428 0
M  V30 1837 H 167.16 -2.85087 3.26967 0
M  V30 1838 H 167.831 -4.48388 3.21951 0
M  V30 1839 H 170.307 -3.92734 1.37475 0
M  V30 1840 H 169.183 -5.31051 1.38838 0
M  V30 1841 H 169.444 -4.4198 -0.102924 0
M  V30 1842 N 168.503 -0.877838 -1.30888 0
M  V30 1843 C 169.45 -0.337538 -2.28318 0
M  V30 1844 C 170.42 0.568346 -1.56074 0
M  V30 1845 O 171.605 0.498298 -1.84178 0
M  V30 1846 C 168.745 0.448142 -3.42178 0
M  V30 1847 C 167.858 -0.48615 -4.29256 0
M  V30 1848 C 166.993 0.314427 -5.30269 0
M  V30 1849 C 166.032 -0.615791 -6.08995 0
M  V30 1850 N 165.169 0.14902 -7.01942 0
M  V30 1851 H 170.009 -1.17356 -2.73919 0
M  V30 1852 H 167.546 -0.590094 -1.34745 0
M  V30 1853 H 169.504 0.919517 -4.06941 0
M  V30 1854 H 168.134 1.24879 -2.97666 0
M  V30 1855 H 167.186 -1.076 -3.64865 0
M  V30 1856 H 168.498 -1.19909 -4.84173 0
M  V30 1857 H 167.652 0.847969 -6.00745 0
M  V30 1858 H 166.391 1.06062 -4.76027 0
M  V30 1859 H 165.396 -1.16102 -5.37401 0
M  V30 1860 H 166.621 -1.36097 -6.65323 0
M  V30 1861 H 164.567 0.877884 -6.50099 0
M  V30 1862 H 164.484 -0.504433 -7.54315 0
M  V30 1863 H 165.752 0.663537 -7.76671 0
M  V30 1864 N 169.982 1.44106 -0.638065 0
M  V30 1865 C 170.929 2.30715 0.062701 0
M  V30 1866 C 171.899 1.43882 0.829883 0
M  V30 1867 O 173.084 1.72775 0.809532 0
M  V30 1868 C 170.224 3.29258 1.03358 0
M  V30 1869 C 169.337 4.31192 0.26409 0
M  V30 1870 C 168.472 5.16825 1.22741 0
M  V30 1871 C 167.511 6.10462 0.447475 0
M  V30 1872 N 166.648 6.8877 1.36161 0
M  V30 1873 H 171.488 2.90096 -0.681781 0
M  V30 1874 H 169.025 1.42925 -0.347988 0
M  V30 1875 H 170.983 3.84886 1.60992 0
M  V30 1876 H 169.613 2.71562 1.74511 0
M  V30 1877 H 168.665 3.77981 -0.428295 0
M  V30 1878 H 169.977 4.97619 -0.343052 0
M  V30 1879 H 169.131 5.77004 1.87487 0
M  V30 1880 H 167.87 4.50488 1.86847 0
M  V30 1881 H 166.875 5.49386 -0.213433 0
M  V30 1882 H 168.1 6.78837 -0.188968 0
M  V30 1883 H 166.046 6.25096 1.98975 0
M  V30 1884 H 165.963 7.51663 0.808656 0
M  V30 1885 H 167.231 7.53467 1.99769 0
M  V30 1886 N 171.46 0.379036 1.52974 0
M  V30 1887 C 172.708 -0.206014 2.01047 0
M  V30 1888 C 173.029 -1.48175 1.26765 0
M  V30 1889 O 172.299 -1.92085 0.384743 0
M  V30 1890 H 170.879 -0.0791184 0.742798 0
M  V30 1891 H 173.541 0.508366 1.88153 0
M  V30 1892 H 172.637 -0.423501 3.09213 0
M  V30 1893 N 172.938 -1.57226 0.108567 0
M  V30 1894 C 173.848 -2.18292 -0.859401 0
M  V30 1895 C 174.864 -1.15612 -1.30038 0
M  V30 1896 O 176.04 -1.48039 -1.36552 0
M  V30 1897 C 173.105 -2.762 -2.09558 0
M  V30 1898 C 172.166 -3.93881 -1.70752 0
M  V30 1899 C 171.399 -4.49018 -2.88477 0
M  V30 1900 O 171.622 -4.03068 -4.036 0
M  V30 1901 O 170.556 -5.39852 -2.66164 0
M  V30 1902 H 174.382 -3.01441 -0.369769 0
M  V30 1903 H 171.967 -1.48945 -0.1165 0
M  V30 1904 H 173.849 -3.13156 -2.81978 0
M  V30 1905 H 172.524 -1.96089 -2.57548 0
M  V30 1906 H 171.431 -3.61713 -0.954714 0
M  V30 1907 H 172.764 -4.75396 -1.27513 0
M  V30 1908 N 174.416 0.165178 -1.56732 0
M  V30 1909 C 175.363 1.2044 -1.96883 0
M  V30 1910 C 176.333 1.43664 -0.833657 0
M  V30 1911 O 177.518 1.56302 -1.09427 0
M  V30 1912 C 174.658 2.53727 -2.33916 0
M  V30 1913 C 173.771 2.3783 -3.6064 0
M  V30 1914 C 172.906 3.64026 -3.86857 0
M  V30 1915 C 171.945 3.43088 -5.06909 0
M  V30 1916 N 171.082 4.61369 -5.29229 0
M  V30 1917 H 175.922 0.854996 -2.85471 0
M  V30 1918 H 173.459 0.41076 -1.41249 0
M  V30 1919 H 175.417 3.31419 -2.53411 0
M  V30 1920 H 174.047 2.8665 -1.48431 0
M  V30 1921 H 173.099 1.51282 -3.49024 0
M  V30 1922 H 174.411 2.18308 -4.4849 0
M  V30 1923 H 173.565 4.50152 -4.06753 0
M  V30 1924 H 172.304 3.86533 -2.97394 0
M  V30 1925 H 171.309 2.55349 -4.86906 0
M  V30 1926 H 172.534 3.21997 -5.97909 0
M  V30 1927 H 170.48 4.84084 -4.42718 0
M  V30 1928 H 170.397 4.44783 -6.11313 0
M  V30 1929 H 171.665 5.48761 -5.53608 0
M  V30 1930 N 175.894 1.51508 0.433938 0
M  V30 1931 C 177.171 1.54888 1.19453 0
M  V30 1932 C 177.551 0.315154 2.08734 0
M  V30 1933 O 176.899 -0.699558 2.17528 0
M  V30 1934 C 177.109 2.86467 1.99342 0
M  V30 1935 C 178.457 3.38545 2.56267 0
M  V30 1936 O 179.481 2.88041 2.0955 0
M  V30 1937 O 178.34 4.26675 3.41483 0
M  V30 1938 H 175.434 0.622863 0.544032 0
M  V30 1939 H 177.98 1.63823 0.442732 0
M  V30 1940 H 176.752 3.67718 1.33788 0
M  V30 1941 H 176.375 2.8071 2.8158 0
M  V30 1942 N 177.372 -0.689602 1.41712 0
M  V30 1943 C 178.621 -1.44534 1.40686 0
M  V30 1944 C 178.934 -1.95588 0.0213352 0
M  V30 1945 O 180.14 -2.71271 -0.111534 0
M  V30 1946 C 178.596 -2.61387 2.47396 0
M  V30 1947 C 178.204 -2.17094 3.91885 0
M  V30 1948 C 179.948 -3.38986 2.55517 0
M  V30 1949 C 177.855 -3.3094 4.90135 0
M  V30 1950 H 176.785 -0.542925 0.52321 0
M  V30 1951 H 179.436 -0.748054 1.6756 0
M  V30 1952 H 177.818 -3.33412 2.13664 0
M  V30 1953 H 178.992 -1.52318 4.34897 0
M  V30 1954 H 177.307 -1.52473 3.8748 0
M  V30 1955 H 179.904 -4.23747 3.26102 0
M  V30 1956 H 180.247 -3.84578 1.59391 0
M  V30 1957 H 180.78 -2.74021 2.8837 0
M  V30 1958 H 177.519 -2.90355 5.87685 0
M  V30 1959 H 177.039 -3.94546 4.51767 0
M  V30 1960 H 178.718 -3.9663 5.11169 0
M  V30 1961 N 178.85 -1.27639 -0.924453 0
M  V30 1962 C 180.261 -1.12834 -1.48746 0
M  V30 1963 C 180.612 0.285505 -1.94112 0
M  V30 1964 O 179.737 1.17874 -1.81479 0
M  V30 1965 C 180.332 -2.04217 -2.70334 0
M  V30 1966 C 178.891 -1.93509 -3.22848 0
M  V30 1967 C 178.038 -1.96583 -1.95577 0
M  V30 1968 H 180.989 -1.40484 -0.738233 0
M  V30 1969 H 181.01 -1.59989 -3.4523 0
M  V30 1970 H 180.522 -3.07111 -2.37285 0
M  V30 1971 H 178.623 -0.936131 -3.60649 0
M  V30 1972 H 178.736 -2.79917 -3.88823 0
M  V30 1973 H 177.1 -1.4085 -2.12211 0
M  V30 1974 H 177.883 -3.01137 -1.64837 0
M  V30 1975 N 180.328 1.1314 -1.09713 0
M  V30 1976 C 181.576 1.84119 -0.833338 0
M  V30 1977 C 181.897 1.84097 0.642904 0
M  V30 1978 O 181.167 1.29881 1.46655 0
M  V30 1979 H 179.747 0.681766 -0.305293 0
M  V30 1980 H 182.409 1.37038 -1.38588 0
M  V30 1981 H 181.505 2.88543 -1.18951 0
M  V30 1982 N 181.806 0.884767 1.30421 0
M  V30 1983 C 182.736 0.367574 2.30589 0
M  V30 1984 C 183.717 -0.549464 1.60981 0
M  V30 1985 O 184.902 -0.46336 1.88591 0
M  V30 1986 C 182.032 -0.418944 3.44764 0
M  V30 1987 C 180.986 0.406316 4.26067 0
M  V30 1988 C 180.312 -0.506793 5.32293 0
M  V30 1989 C 181.612 1.64832 4.95608 0
M  V30 1990 H 183.306 1.20462 2.74097 0
M  V30 1991 H 180.852 0.580695 1.31772 0
M  V30 1992 H 182.805 -0.791395 4.13902 0
M  V30 1993 H 181.529 -1.28964 3.0006 0
M  V30 1994 H 180.188 0.760903 3.58617 0
M  V30 1995 H 179.836 -1.37519 4.83836 0
M  V30 1996 H 179.536 0.0415828 5.87585 0
M  V30 1997 H 181.06 -0.875764 6.04287 0
M  V30 1998 H 182.474 1.34646 5.57264 0
M  V30 1999 H 180.871 2.13688 5.60765 0
M  V30 2000 H 181.941 2.39284 4.21748 0
M  V30 2001 N 183.284 -1.43765 0.645699 0
M  V30 2002 C 184.512 -2.06253 0.163556 0
M  V30 2003 C 184.927 -1.48352 -1.16778 0
M  V30 2004 O 184.284 -0.611932 -1.71935 0
M  V30 2005 C 184.335 -3.61453 0.0583186 0
M  V30 2006 O 184.056 -4.172 1.33702 0
M  V30 2007 C 185.557 -4.41002 -0.450795 0
M  V30 2008 H 182.777 -0.665413 0.0864077 0
M  V30 2009 H 185.321 -1.84396 0.884222 0
M  V30 2010 H 183.476 -3.82522 -0.612865 0
M  V30 2011 H 183.89 -5.10791 1.19131 0
M  V30 2012 H 185.364 -5.49966 -0.473403 0
M  V30 2013 H 185.841 -4.13488 -1.48068 0
M  V30 2014 H 186.447 -4.24886 0.187637 0
M  V30 2015 N 184.763 -0.387143 -1.52771 0
M  V30 2016 C 186.04 0.253197 -1.93954 0
M  V30 2017 C 186.42 1.64545 -1.32243 0
M  V30 2018 O 185.768 2.23191 -0.489699 0
M  V30 2019 C 185.978 0.281722 -3.47861 0
M  V30 2020 C 187.326 0.511715 -4.21505 0
M  V30 2021 O 188.35 0.362023 -3.54356 0
M  V30 2022 O 187.209 0.804847 -5.40541 0
M  V30 2023 H 184.303 0.156845 -0.811991 0
M  V30 2024 H 186.849 -0.441494 -1.63856 0
M  V30 2025 H 185.621 -0.693571 -3.85104 0
M  V30 2026 H 185.244 1.02142 -3.84256 0
M  V30 2027 N 186.241 1.57166 -0.116904 0
M  V30 2028 C 187.469 1.99473 0.549383 0
M  V30 2029 C 187.884 0.996541 1.60357 0
M  V30 2030 O 187.241 -0.0108731 1.82497 0
M  V30 2031 C 187.292 3.41788 1.17741 0
M  V30 2032 O 187.013 4.37788 0.165362 0
M  V30 2033 C 188.514 3.99216 1.92722 0
M  V30 2034 H 185.734 0.655009 0.145616 0
M  V30 2035 H 188.278 2.03494 -0.202625 0
M  V30 2036 H 186.433 3.38713 1.88021 0
M  V30 2037 H 186.847 5.20806 0.621403 0
M  V30 2038 H 188.321 5.00882 2.31995 0
M  V30 2039 H 188.798 3.3824 2.80161 0
M  V30 2040 H 189.404 4.0583 1.27209 0
M  V30 2041 N 187.719 -0.156864 1.56817 0
M  V30 2042 C 188.947 -0.886316 1.86955 0
M  V30 2043 C 189.362 -1.75185 0.703975 0
M  V30 2044 O 188.719 -1.79555 -0.326552 0
M  V30 2045 C 188.77 -1.75117 3.16253 0
M  V30 2046 O 188.491 -0.920537 4.2832 0
M  V30 2047 C 189.992 -2.58905 3.59837 0
M  V30 2048 H 187.212 -0.25678 0.619923 0
M  V30 2049 H 189.756 -0.152615 2.0393 0
M  V30 2050 H 187.911 -2.43805 3.01062 0
M  V30 2051 H 188.325 -1.51337 5.02192 0
M  V30 2052 H 189.799 -3.1518 4.53172 0
M  V30 2053 H 190.276 -3.34472 2.84649 0
M  V30 2054 H 190.882 -1.95526 3.7769 0
M  V30 2055 N 189.197 -1.51736 -0.425897 0
M  V30 2056 C 190.443 -1.65214 -1.1761 0
M  V30 2057 C 190.776 -0.372778 -1.90589 0
M  V30 2058 O 190.051 0.628139 -1.84078 0
M  V30 2059 C 190.334 -2.86312 -2.18398 0
M  V30 2060 C 190.187 -4.24254 -1.49426 0
M  V30 2061 C 191.506 -3.02925 -3.19256 0
M  V30 2062 H 188.625 -0.601263 -0.426206 0
M  V30 2063 H 191.267 -1.8425 -0.463882 0
M  V30 2064 H 189.417 -2.70213 -2.79137 0
M  V30 2065 H 191.089 -4.52046 -0.919362 0
M  V30 2066 H 189.332 -4.26426 -0.796432 0
M  V30 2067 H 190.003 -5.05001 -2.22885 0
M  V30 2068 H 192.479 -3.1781 -2.68581 0
M  V30 2069 H 191.355 -3.89199 -3.8706 0
M  V30 2070 H 191.616 -2.15497 -3.86023 0
M  V30 2071 N 190.675 0.682077 -1.42076 0
M  V30 2072 C 192.086 1.26246 -1.37546 0
M  V30 2073 C 192.437 1.96092 -0.0651481 0
M  V30 2074 O 191.562 1.99587 0.836297 0
M  V30 2075 C 192.157 2.29594 -2.49143 0
M  V30 2076 C 190.716 2.83175 -2.47969 0
M  V30 2077 C 189.863 1.57395 -2.28303 0
M  V30 2078 H 192.814 0.475937 -1.51395 0
M  V30 2079 H 192.835 3.11175 -2.18976 0
M  V30 2080 H 192.347 1.78729 -3.44496 0
M  V30 2081 H 190.448 3.3818 -1.56413 0
M  V30 2082 H 190.561 3.32687 -3.44755 0
M  V30 2083 H 188.925 1.83699 -1.76428 0
M  V30 2084 H 189.708 1.08507 -3.25701 0
M  V30 2085 N 192.153 1.28127 0.917671 0
M  V30 2086 C 193.569 1.05749 1.19538 0
M  V30 2087 C 193.769 -0.202633 2.00479 0
M  V30 2088 O 192.825 -0.905382 2.3571 0
M  V30 2089 C 194.138 2.30273 1.93378 0
M  V30 2090 C 195.686 2.35412 2.06277 0
M  V30 2091 C 196.161 3.59692 2.83524 0
M  V30 2092 N 197.652 3.60309 2.91087 0
M  V30 2093 C 198.387 4.53147 3.51348 0
M  V30 2094 N 197.883 5.563 4.12919 0
M  V30 2095 N 199.676 4.40751 3.48849 0
M  V30 2096 H 191.827 2.09024 0.377184 0
M  V30 2097 H 194.09 0.919798 0.22951 0
M  V30 2098 H 193.796 3.22055 1.41328 0
M  V30 2099 H 193.67 2.36378 2.93947 0
M  V30 2100 H 196.057 1.4413 2.57508 0
M  V30 2101 H 196.138 2.33304 1.04895 0
M  V30 2102 H 195.782 4.51316 2.32973 0
M  V30 2103 H 195.712 3.59054 3.85211 0
M  V30 2104 H 198.203 2.85714 2.47338 0
M  V30 2105 H 198.516 6.2329 4.56869 0
M  V30 2106 H 196.861 5.60131 4.11435 0
M  V30 2107 H 200.052 3.59367 2.99955 0
M  V30 2108 H 200.225 5.13291 3.9552 0
M  V30 2109 N 193.631 -1.12557 1.10312 0
M  V30 2110 C 195.047 -1.36036 0.834649 0
M  V30 2111 C 195.247 -1.93946 -0.546539 0
M  V30 2112 O 194.303 -2.16484 -1.29966 0
M  V30 2113 C 195.616 -2.30312 1.9333 0
M  V30 2114 C 197.164 -2.43906 1.9616 0
M  V30 2115 C 197.639 -3.41496 3.05195 0
M  V30 2116 N 199.13 -3.49053 3.04494 0
M  V30 2117 C 199.865 -4.24471 3.85502 0
M  V30 2118 N 199.361 -5.02966 4.76442 0
M  V30 2119 N 201.154 -4.19864 3.73725 0
M  V30 2120 H 193.305 -0.733246 1.99342 0
M  V30 2121 H 195.568 -0.385234 0.866198 0
M  V30 2122 H 195.274 -1.94933 2.92735 0
M  V30 2123 H 195.148 -3.30421 1.81939 0
M  V30 2124 H 197.535 -2.78567 0.973886 0
M  V30 2125 H 197.616 -1.4369 2.11629 0
M  V30 2126 H 197.26 -3.07565 4.04186 0
M  V30 2127 H 197.19 -4.41539 2.86968 0
M  V30 2128 H 199.681 -2.93053 2.38596 0
M  V30 2129 H 199.994 -5.57846 5.34815 0
M  V30 2130 H 198.339 -5.02167 4.80472 0
M  V30 2131 H 201.53 -3.57623 3.02032 0
M  V30 2132 H 201.703 -4.78386 4.37093 0
M  V30 2133 N 195.109 -0.891671 -1.2995 0
M  V30 2134 C 196.039 -0.379797 -2.30391 0
M  V30 2135 C 197.02 0.540919 -1.6127 0
M  V30 2136 O 198.205 0.453352 -1.88834 0
M  V30 2137 C 195.335 0.400654 -3.44981 0
M  V30 2138 C 194.289 -0.428905 -4.25846 0
M  V30 2139 C 193.615 0.478557 -5.32554 0
M  V30 2140 C 194.915 -1.67458 -4.94727 0
M  V30 2141 H 196.609 -1.21914 -2.73454 0
M  V30 2142 H 194.155 -0.587675 -1.31462 0
M  V30 2143 H 196.108 0.769434 -4.14316 0
M  V30 2144 H 194.832 1.27371 -3.0074 0
M  V30 2145 H 193.491 -0.779911 -3.58208 0
M  V30 2146 H 193.139 1.34951 -4.84559 0
M  V30 2147 H 192.839 -0.0727433 -5.87555 0
M  V30 2148 H 194.363 0.843705 -6.04743 0
M  V30 2149 H 195.777 -1.376 -5.56542 0
M  V30 2150 H 194.174 -2.16659 -5.59624 0
M  V30 2151 H 195.244 -2.41518 -4.20473 0
M  V30 2152 N 196.587 1.43421 -0.653314 0
M  V30 2153 C 197.835 2.01414 -0.166415 0
M  V30 2154 C 198.156 1.51803 1.22397 0
M  V30 2155 O 197.426 0.730693 1.81763 0
M  V30 2156 H 196.006 0.744703 -0.0585319 0
M  V30 2157 H 198.668 1.75629 -0.845003 0
M  V30 2158 H 197.764 3.11734 -0.151111 0
M  V30 2159 N 198.065 0.39524 1.52563 0
M  V30 2160 C 199.476 -0.0774719 1.86539 0
M  V30 2161 C 199.827 -1.45641 1.31466 0
M  V30 2162 O 198.952 -2.06459 0.648367 0
M  V30 2163 C 199.547 -0.147356 3.38479 0
M  V30 2164 C 198.106 -0.564373 3.72145 0
M  V30 2165 C 197.253 0.269919 2.75983 0
M  V30 2166 H 200.204 0.612876 1.46388 0
M  V30 2167 H 200.225 -0.965343 3.68051 0
M  V30 2168 H 199.737 0.856387 3.78534 0
M  V30 2169 H 197.838 -1.57527 3.37663 0
M  V30 2170 H 197.951 -0.318402 4.78041 0
M  V30 2171 H 196.315 -0.265696 2.5331 0
M  V30 2172 H 197.098 1.27175 3.18875 0
M  V30 2173 N 199.544 -1.57102 0.125237 0
M  V30 2174 C 200.491 -2.15641 -0.822655 0
M  V30 2175 C 201.461 -1.08313 -1.25927 0
M  V30 2176 O 202.646 -1.36251 -1.33567 0
M  V30 2177 C 199.786 -2.76504 -2.06494 0
M  V30 2178 C 198.899 -3.98158 -1.67612 0
M  V30 2179 C 198.034 -4.47088 -2.86854 0
M  V30 2180 C 197.073 -5.6126 -2.44242 0
M  V30 2181 N 196.21 -6.04905 -3.56419 0
M  V30 2182 H 201.05 -2.96313 -0.316625 0
M  V30 2183 H 198.587 -1.46388 -0.144588 0
M  V30 2184 H 200.545 -3.09925 -2.79289 0
M  V30 2185 H 199.175 -1.98512 -2.54545 0
M  V30 2186 H 198.227 -3.70858 -0.846661 0
M  V30 2187 H 199.539 -4.80934 -1.32301 0
M  V30 2188 H 198.693 -4.82451 -3.67867 0
M  V30 2189 H 197.432 -3.63275 -3.25396 0
M  V30 2190 H 196.437 -5.25495 -1.61663 0
M  V30 2191 H 197.662 -6.46843 -2.0681 0
M  V30 2192 H 195.608 -5.24032 -3.94623 0
M  V30 2193 H 195.525 -6.82552 -3.25051 0
M  V30 2194 H 196.793 -6.44907 -4.37853 0
M  V30 2195 N 201.022 0.148545 -1.56898 0
M  V30 2196 C 202.438 0.501131 -1.51528 0
M  V30 2197 C 202.638 1.83458 -0.833399 0
M  V30 2198 O 201.694 2.49259 -0.40328 0
M  V30 2199 C 203.007 0.512864 -2.96294 0
M  V30 2200 C 204.555 0.598487 -3.07225 0
M  V30 2201 C 205.03 0.640897 -4.53494 0
M  V30 2202 N 206.521 0.703163 -4.57832 0
M  V30 2203 C 207.256 0.756935 -5.68382 0
M  V30 2204 N 206.752 0.770147 -6.88506 0
M  V30 2205 N 208.545 0.797698 -5.56411 0
M  V30 2206 H 200.696 -0.725532 -1.99624 0
M  V30 2207 H 202.959 -0.264358 -0.910395 0
M  V30 2208 H 202.665 -0.398691 -3.49433 0
M  V30 2209 H 202.539 1.35133 -3.52163 0
M  V30 2210 H 204.926 1.50046 -2.54106 0
M  V30 2211 H 205.007 -0.267093 -2.54402 0
M  V30 2212 H 204.651 -0.256915 -5.0725 0
M  V30 2213 H 204.581 1.52295 -5.04097 0
M  V30 2214 H 207.072 0.700314 -3.71354 0
M  V30 2215 H 207.385 0.812983 -7.68512 0
M  V30 2216 H 205.73 0.738049 -6.9107 0
M  V30 2217 H 208.921 0.784535 -4.61479 0
M  V30 2218 H 209.094 0.83614 -6.42583 0
M  V30 2219 N 202.5 1.5196 0.417844 0
M  V30 2220 C 203.463 1.74065 1.49111 0
M  V30 2221 C 204.463 0.610537 1.48758 0
M  V30 2222 O 205.653 0.87832 1.50437 0
M  V30 2223 C 202.785 1.81502 2.88565 0
M  V30 2224 H 203.978 2.69869 1.30807 0
M  V30 2225 H 201.531 1.42244 0.647785 0
M  V30 2226 H 202.266 0.875813 3.1225 0
M  V30 2227 H 202.051 2.63651 2.90225 0
M  V30 2228 H 203.541 2.00376 3.66387 0
M  V30 2229 N 203.978 -0.674533 1.42435 0
M  V30 2230 C 205.203 -1.46784 1.46524 0
M  V30 2231 C 205.628 -1.87938 0.078066 0
M  V30 2232 O 204.986 -1.56014 -0.92354 0
M  V30 2233 C 205.034 -2.69307 2.39805 0
M  V30 2234 O 204.138 -3.67587 1.86959 0
M  V30 2235 H 203.479 -0.440959 0.496439 0
M  V30 2236 H 206.009 -0.827326 1.87127 0
M  V30 2237 H 206.019 -3.17374 2.56393 0
M  V30 2238 H 204.694 -2.38692 3.40586 0
M  V30 2239 H 203.271 -3.2662 1.79927 0
M  V30 2240 N 205.456 -1.28612 -0.910864 0
M  V30 2241 C 206.872 -1.06381 -1.18976 0
M  V30 2242 C 207.072 0.191998 -2.00583 0
M  V30 2243 O 206.128 0.892869 -2.36187 0
M  V30 2244 C 207.441 -2.31295 -1.92154 0
M  V30 2245 C 208.989 -2.36503 -2.05025 0
M  V30 2246 C 209.464 -3.61191 -2.81612 0
M  V30 2247 N 210.955 -3.61847 -2.89172 0
M  V30 2248 C 211.69 -4.55004 -3.4894 0
M  V30 2249 N 211.186 -5.58482 -4.09963 0
M  V30 2250 N 212.979 -4.42594 -3.46506 0
M  V30 2251 H 205.13 -2.09221 -0.366094 0
M  V30 2252 H 207.393 -0.921003 -0.224629 0
M  V30 2253 H 207.099 -3.228 -1.39618 0
M  V30 2254 H 206.973 -2.37934 -2.9269 0
M  V30 2255 H 209.36 -1.45494 -2.5674 0
M  V30 2256 H 209.441 -2.33857 -1.03657 0
M  V30 2257 H 209.085 -4.52545 -2.30576 0
M  V30 2258 H 209.015 -3.61092 -3.83302 0
M  V30 2259 H 211.506 -2.87022 -2.45819 0
M  V30 2260 H 211.819 -6.25704 -4.53557 0
M  V30 2261 H 210.164 -5.62305 -4.08459 0
M  V30 2262 H 213.355 -3.60953 -2.98045 0
M  V30 2263 H 213.528 -5.15381 -3.92793 0
M  V30 2264 N 206.934 1.1197 -1.10907 0
M  V30 2265 C 208.183 1.82947 -0.849302 0
M  V30 2266 C 208.496 1.85275 0.627112 0
M  V30 2267 O 209.702 2.52296 1.00295 0
M  V30 2268 C 208.158 3.28529 -1.46959 0
M  V30 2269 C 207.766 3.34546 -2.97965 0
M  V30 2270 C 209.51 4.04443 -1.28942 0
M  V30 2271 C 207.417 4.74491 -3.53004 0
M  V30 2272 H 206.347 0.685477 -0.314065 0
M  V30 2273 H 208.998 1.2604 -1.33365 0
M  V30 2274 H 207.38 3.85333 -0.912917 0
M  V30 2275 H 208.554 2.87654 -3.59989 0
M  V30 2276 H 206.869 2.72108 -3.15192 0
M  V30 2277 H 209.466 5.07787 -1.67502 0
M  V30 2278 H 209.809 4.15656 -0.231456 0
M  V30 2279 H 210.342 3.5401 -1.81443 0
M  V30 2280 H 207.081 4.68474 -4.58489 0
M  V30 2281 H 206.601 5.21816 -2.9575 0
M  V30 2282 H 208.28 5.4344 -3.51115 0
M  V30 2283 N 208.412 0.89855 1.29475 0
M  V30 2284 C 209.828 0.594483 1.48115 0
M  V30 2285 C 210.028 -0.86431 1.82022 0
M  V30 2286 O 209.084 -1.64457 1.91599 0
M  V30 2287 C 210.397 1.51932 2.59494 0
M  V30 2288 C 211.945 1.5244 2.7337 0
M  V30 2289 C 212.42 2.43548 3.87877 0
M  V30 2290 N 213.911 2.41589 3.95208 0
M  V30 2291 C 214.646 3.08789 4.83153 0
M  V30 2292 N 214.142 3.85265 5.75798 0
M  V30 2293 N 215.935 2.97952 4.76635 0
M  V30 2294 H 208.086 1.84207 1.05742 0
M  V30 2295 H 210.349 0.789251 0.525154 0
M  V30 2296 H 210.055 2.55865 2.41301 0
M  V30 2297 H 209.929 1.23899 3.56271 0
M  V30 2298 H 212.316 0.492518 2.90961 0
M  V30 2299 H 212.397 1.8451 1.77172 0
M  V30 2300 H 212.041 3.46829 3.71041 0
M  V30 2301 H 211.971 2.08788 4.83441 0
M  V30 2302 H 214.462 1.86025 3.28943 0
M  V30 2303 H 214.775 4.33598 6.39697 0
M  V30 2304 H 213.12 3.89371 5.75687 0
M  V30 2305 H 216.311 2.37723 4.03244 0
M  V30 2306 H 216.484 3.50599 5.44962 0
M  V30 2307 N 209.89 -1.43072 0.660911 0
M  V30 2308 C 210.837 -2.30785 -0.0259884 0
M  V30 2309 C 211.807 -1.45184 -0.806888 0
M  V30 2310 O 212.992 -1.74041 -0.781943 0
M  V30 2311 C 210.132 -3.30861 -0.981067 0
M  V30 2312 C 209.245 -4.31558 -0.195458 0
M  V30 2313 C 208.38 -5.18712 -1.14503 0
M  V30 2314 C 207.419 -6.11097 -0.350299 0
M  V30 2315 N 206.556 -6.90849 -1.25186 0
M  V30 2316 H 211.396 -2.88975 0.727846 0
M  V30 2317 H 208.933 -1.42353 0.370682 0
M  V30 2318 H 210.891 -3.87399 -1.54849 0
M  V30 2319 H 209.521 -2.74304 -1.70169 0
M  V30 2320 H 208.573 -3.77252 0.488374 0
M  V30 2321 H 209.885 -4.9701 0.422176 0
M  V30 2322 H 209.039 -5.79914 -1.78284 0
M  V30 2323 H 207.778 -4.53404 -1.79656 0
M  V30 2324 H 206.783 -5.48976 0.300808 0
M  V30 2325 H 208.008 -6.7845 0.296941 0
M  V30 2326 H 205.954 -6.28182 -1.89005 0
M  V30 2327 H 205.871 -7.52854 -0.688971 0
M  V30 2328 H 207.139 -7.5655 -1.87757 0
M  V30 2329 N 211.368 -0.403325 -1.52352 0
M  V30 2330 C 212.298 0.416205 -2.29761 0
M  V30 2331 C 213.279 1.05123 -1.33728 0
M  V30 2332 O 214.464 1.06134 -1.62632 0
M  V30 2333 C 211.594 1.53624 -3.11475 0
M  V30 2334 C 210.548 1.02653 -4.15507 0
M  V30 2335 C 209.874 2.23971 -4.85532 0
M  V30 2336 C 211.174 0.08463 -5.22231 0
M  V30 2337 H 212.868 -0.229701 -2.98518 0
M  V30 2338 H 210.414 -0.111913 -1.43564 0
M  V30 2339 H 212.367 2.1165 -3.64393 0
M  V30 2340 H 211.091 2.20994 -2.40477 0
M  V30 2341 H 209.75 0.46871 -3.63591 0
M  V30 2342 H 209.398 2.89883 -4.11068 0
M  V30 2343 H 209.098 1.90521 -5.55856 0
M  V30 2344 H 210.622 2.82614 -5.41259 0
M  V30 2345 H 212.036 0.573509 -5.70424 0
M  V30 2346 H 210.433 -0.160783 -5.99885 0
M  V30 2347 H 211.503 -0.86237 -4.7717 0
M  V30 2348 N 212.846 1.57033 -0.133567 0
M  V30 2349 C 214.093 1.95686 0.520877 0
M  V30 2350 C 214.421 1.0177 1.6575 0
M  V30 2351 O 213.676 0.0443195 1.9565 0
M  V30 2352 C 213.975 3.40674 1.08057 0
M  V30 2353 C 213.641 4.50855 0.0637899 0
M  V30 2354 C 212.303 4.80716 -0.215757 0
M  V30 2355 C 214.655 5.17398 -0.62835 0
M  V30 2356 C 211.983 5.74433 -1.19348 0
M  V30 2357 C 214.335 6.12167 -1.5948 0
M  V30 2358 C 212.999 6.40414 -1.88218 0
M  V30 2359 H 212.269 0.716067 0.190602 0
M  V30 2360 H 214.916 1.9026 -0.217556 0
M  V30 2361 H 213.221 3.42865 1.89606 0
M  V30 2362 H 214.918 3.67902 1.59529 0
M  V30 2363 H 211.508 4.27605 0.291855 0
M  V30 2364 H 215.692 4.94472 -0.425562 0
M  V30 2365 H 210.948 5.94616 -1.42272 0
M  V30 2366 H 215.122 6.6281 -2.13671 0
M  V30 2367 H 212.749 7.12838 -2.64133 0
M  V30 2368 N 214.325 -0.140222 1.56975 0
M  V30 2369 C 215.273 -1.19207 1.99731 0
M  V30 2370 C 216.267 -1.44089 0.890777 0
M  V30 2371 O 217.473 -1.44301 1.07597 0
M  V30 2372 H 213.848 -0.40142 0.635898 0
M  V30 2373 H 215.819 -0.804813 2.87342 0
M  V30 2374 C 214.568 -2.51617 2.39967 0
M  V30 2375 H 213.891 -2.33303 3.24669 0
M  V30 2376 H 215.331 -3.23827 2.73701 0
M  V30 2377 C 213.79 -3.12654 1.25496 0
M  V30 2378 O 214.32 -3.97786 0.559371 0
M  V30 2379 N 212.526 -2.72206 1.01746 0
M  V30 2380 H 212.073 -2.03074 1.58489 0
M  V30 2381 H 212.031 -3.13377 0.253461 0
M  V30 2382 N 215.803 -1.52179 -0.40978 0
M  V30 2383 C 216.733 -1.78435 -1.5061 0
M  V30 2384 C 217.714 -0.635295 -1.57791 0
M  V30 2385 O 218.899 -0.880823 -1.73076 0
M  V30 2386 C 216.029 -1.93444 -2.88439 0
M  V30 2387 C 214.983 -3.09038 -2.96108 0
M  V30 2388 C 214.309 -3.09268 -4.36185 0
M  V30 2389 C 215.609 -4.48508 -2.67652 0
M  V30 2390 H 217.303 -2.70237 -1.28889 0
M  V30 2391 H 214.849 -1.30036 -0.618605 0
M  V30 2392 H 216.802 -2.10394 -3.65119 0
M  V30 2393 H 215.526 -0.983129 -3.11452 0
M  V30 2394 H 214.185 -2.91837 -2.21872 0
M  V30 2395 H 213.833 -2.11861 -4.56206 0
M  V30 2396 H 213.533 -3.86907 -4.42241 0
M  V30 2397 H 215.057 -3.28348 -5.14801 0
M  V30 2398 H 216.471 -4.65918 -3.34056 0
M  V30 2399 H 214.868 -5.28059 -2.85085 0
M  V30 2400 H 215.938 -4.56649 -1.63095 0
M  V30 2401 N 217.281 0.66697 -1.42791 0
M  V30 2402 C 218.506 1.46004 -1.47301 0
M  V30 2403 C 218.931 1.87894 -0.0880317 0
M  V30 2404 O 218.289 1.56502 0.915253 0
M  V30 2405 C 218.337 2.68031 -2.41229 0
M  V30 2406 O 217.441 3.6659 -1.88906 0
M  V30 2407 H 216.782 0.43832 -0.49877 0
M  V30 2408 H 219.312 0.817391 -1.87563 0
M  V30 2409 H 219.322 3.1601 -2.58073 0
M  V30 2410 H 217.997 2.36883 -3.41847 0
M  V30 2411 H 216.574 3.25661 -1.81656 0
M  V30 2412 N 218.759 1.29093 0.90403 0
M  V30 2413 C 219.706 1.13853 2.00764 0
M  V30 2414 C 220.676 0.0330084 1.66067 0
M  V30 2415 O 221.861 0.199733 1.89752 0
M  V30 2416 C 219.001 0.816537 3.35301 0
M  V30 2417 C 218.114 2.00206 3.82807 0
M  V30 2418 C 217.249 1.61983 5.059 0
M  V30 2419 C 216.288 2.77143 5.45764 0
M  V30 2420 N 215.425 2.39346 6.60044 0
M  V30 2421 H 220.265 2.08276 2.13132 0
M  V30 2422 H 217.802 1.03648 1.04381 0
M  V30 2423 H 219.76 0.610557 4.12708 0
M  V30 2424 H 218.39 -0.090779 3.22672 0
M  V30 2425 H 217.442 2.31988 3.01473 0
M  V30 2426 H 218.754 2.86512 4.08304 0
M  V30 2427 H 217.908 1.37649 5.90879 0
M  V30 2428 H 216.647 0.728202 4.82233 0
M  V30 2429 H 215.652 3.02165 4.59322 0
M  V30 2430 H 216.877 3.66964 5.71414 0
M  V30 2431 H 214.823 1.52665 6.37989 0
M  V30 2432 H 214.74 3.19185 6.85315 0
M  V30 2433 H 216.008 2.1832 7.48303 0
M  V30 2434 N 220.237 -1.11381 1.11499 0
M  V30 2435 C 221.147 -2.21019 0.786628 0
M  V30 2436 C 222.163 -1.72597 -0.220507 0
M  V30 2437 O 223.339 -2.01321 -0.0565251 0
M  V30 2438 C 220.404 -3.459 0.235333 0
M  V30 2439 C 219.465 -4.09107 1.30115 0
M  V30 2440 C 218.698 -5.28027 0.776068 0
M  V30 2441 O 218.921 -5.6904 -0.393661 0
M  V30 2442 O 217.855 -5.81835 1.54114 0
M  V30 2443 H 221.681 -2.51521 1.70209 0
M  V30 2444 H 219.266 -1.19928 0.890928 0
M  V30 2445 H 221.148 -4.21346 -0.067715 0
M  V30 2446 H 219.823 -3.17049 -0.652828 0
M  V30 2447 H 218.73 -3.35391 1.65722 0
M  V30 2448 H 220.063 -4.42139 2.16273 0
M  V30 2449 N 221.715 -0.905404 -1.28997 0
M  V30 2450 C 222.992 -0.453513 -1.9027 0
M  V30 2451 C 223.372 1.06721 -1.82137 0
M  V30 2452 O 222.72 1.91159 -1.25182 0
M  V30 2453 C 222.93 -0.974494 -3.35119 0
M  V30 2454 C 224.278 -1.0216 -4.12127 0
M  V30 2455 O 225.302 -0.922557 -3.44046 0
M  V30 2456 O 224.161 -1.17121 -5.33802 0
M  V30 2457 H 221.255 -0.142347 -0.814657 0
M  V30 2458 H 223.801 -0.995642 -1.37423 0
M  V30 2459 H 222.573 -2.01848 -3.35221 0
M  V30 2460 H 222.196 -0.412706 -3.95452 0
M  V30 2461 N 223.193 1.4272 -0.668489 0
M  V30 2462 C 224.47 1.95248 -0.117373 0
M  V30 2463 C 224.85 1.60919 1.36632 0
M  V30 2464 O 224.198 0.902095 2.09939 0
M  V30 2465 C 224.408 3.46927 -0.379806 0
M  V30 2466 C 225.756 4.23588 -0.292923 0
M  V30 2467 O 226.78 3.5482 -0.313204 0
M  V30 2468 O 225.639 5.46017 -0.229697 0
M  V30 2469 H 222.733 0.827 0.00079152 0
M  V30 2470 H 225.279 1.52581 -0.742783 0
M  V30 2471 H 224.051 3.65096 -1.40786 0
M  V30 2472 H 223.674 3.96627 0.277923 0
M  V30 2473 N 224.671 0.411399 1.52136 0
M  V30 2474 C 225.917 -0.163888 2.02137 0
M  V30 2475 C 226.25 -1.44597 1.29636 0
M  V30 2476 O 225.525 -1.90272 0.403353 0
M  V30 2477 C 225.808 -0.40927 3.57767 0
M  V30 2478 C 225.661 0.889643 4.40914 0
M  V30 2479 C 226.98 -1.19042 4.23694 0
M  V30 2480 H 224.099 -0.0580896 0.734707 0
M  V30 2481 H 226.741 0.54531 1.82007 0
M  V30 2482 H 224.891 -1.0134 3.7505 0
M  V30 2483 H 226.563 1.52575 4.35337 0
M  V30 2484 H 224.806 1.50011 4.07037 0
M  V30 2485 H 225.477 0.672314 5.4789 0
M  V30 2486 H 227.953 -0.678942 4.10524 0
M  V30 2487 H 226.829 -1.33086 5.32522 0
M  V30 2488 H 227.09 -2.21166 3.82803 0
M  V30 2489 N 226.149 -1.5696 0.141893 0
M  V30 2490 C 227.565 -1.58151 -0.21456 0
M  V30 2491 C 227.765 -1.1559 -1.65049 0
M  V30 2492 O 226.821 -0.853832 -2.37626 0
M  V30 2493 C 228.134 -3.00674 0.0395576 0
M  V30 2494 C 229.682 -3.1299 -0.0245529 0
M  V30 2495 C 230.157 -4.57554 0.202167 0
M  V30 2496 N 231.648 -4.62961 0.148919 0
M  V30 2497 C 232.383 -5.7262 0.298924 0
M  V30 2498 N 231.879 -6.90947 0.50637 0
M  V30 2499 N 233.672 -5.61601 0.236886 0
M  V30 2500 H 225.823 -1.8292 1.07953 0
M  V30 2501 H 228.086 -0.846425 0.42693 0
M  V30 2502 H 227.792 -3.36183 1.03315 0
M  V30 2503 H 227.666 -3.70981 -0.682143 0
M  V30 2504 H 230.053 -2.77326 -1.00869 0
M  V30 2505 H 230.134 -2.4518 0.729396 0
M  V30 2506 H 229.778 -4.93922 1.18338 0
M  V30 2507 H 229.708 -5.23484 -0.572044 0
M  V30 2508 H 232.199 -3.77899 -0.00697015 0
M  V30 2509 H 232.512 -7.7038 0.611076 0
M  V30 2510 H 230.857 -6.92878 0.542628 0
M  V30 2511 H 234.048 -4.68039 0.0756209 0
M  V30 2512 H 234.221 -6.47015 0.357227 0
M  V30 2513 N 227.627 0.131896 -1.57047 0
M  V30 2514 C 228.559 1.1878 -1.9602 0
M  V30 2515 C 229.572 1.38363 -0.857875 0
M  V30 2516 O 230.761 1.37666 -1.13623 0
M  V30 2517 C 227.861 2.55008 -2.23213 0
M  V30 2518 C 227.034 2.56201 -3.54513 0
M  V30 2519 C 226.093 3.7408 -3.70069 0
M  V30 2520 O 225.119 3.58258 -4.42312 0
M  V30 2521 N 226.321 4.92137 -3.07866 0
M  V30 2522 H 229.086 0.85639 -2.87204 0
M  V30 2523 H 226.647 0.321309 -1.5868 0
M  V30 2524 H 228.639 3.32404 -2.30846 0
M  V30 2525 H 227.209 2.80382 -1.3822 0
M  V30 2526 H 226.429 1.64613 -3.58185 0
M  V30 2527 H 227.717 2.54043 -4.4084 0
M  V30 2528 H 227.115 5.07895 -2.49116 0
M  V30 2529 H 225.672 5.67254 -3.21039 0
M  V30 2530 N 229.106 1.52395 0.401703 0
M  V30 2531 C 230.336 1.70429 1.1678 0
M  V30 2532 C 230.744 0.416702 1.84554 0
M  V30 2533 O 230.087 -0.617697 1.73003 0
M  V30 2534 C 230.149 2.78919 2.26814 0
M  V30 2535 C 229.813 4.20437 1.79113 0
M  V30 2536 C 230.81 5.04028 1.27482 0
M  V30 2537 C 228.495 4.66704 1.85722 0
M  V30 2538 C 230.489 6.31961 0.830913 0
M  V30 2539 C 228.176 5.94625 1.40942 0
M  V30 2540 C 229.174 6.77082 0.897128 0
M  V30 2541 O 228.862 8.02607 0.455822 0
M  V30 2542 H 228.594 0.574272 0.356634 0
M  V30 2543 H 231.148 1.99767 0.477724 0
M  V30 2544 H 229.378 2.44973 2.99207 0
M  V30 2545 H 231.067 2.8548 2.88541 0
M  V30 2546 H 231.833 4.69471 1.21744 0
M  V30 2547 H 227.712 4.0262 2.24539 0
M  V30 2548 H 231.256 6.96271 0.430368 0
M  V30 2549 H 227.153 6.28688 1.46362 0
M  V30 2550 H 227.921 8.16453 0.578457 0
M  V30 2551 N 230.584 -0.659388 1.43143 0
M  V30 2552 C 231.83 -1.42145 1.44647 0
M  V30 2553 C 232.163 -1.9408 0.0681907 0
M  V30 2554 O 231.438 -1.71899 -0.910007 0
M  V30 2555 C 231.721 -2.60735 2.48373 0
M  V30 2556 C 231.574 -2.14332 3.95451 0
M  V30 2557 C 232.893 -3.62951 2.48906 0
M  V30 2558 H 230.012 -0.51552 0.526696 0
M  V30 2559 H 232.654 -0.748069 1.74654 0
M  V30 2560 H 230.804 -3.18184 2.22916 0
M  V30 2561 H 232.476 -1.61932 4.31944 0
M  V30 2562 H 230.719 -1.4576 4.08578 0
M  V30 2563 H 231.39 -2.99583 4.63631 0
M  V30 2564 H 233.866 -3.1525 2.71582 0
M  V30 2565 H 232.742 -4.43487 3.23435 0
M  V30 2566 H 233.003 -4.15126 1.52061 0
M  V30 2567 N 232.062 -1.29571 -0.897171 0
M  V30 2568 C 233.308 -1.17863 -1.65034 0
M  V30 2569 C 233.641 0.268729 -1.92332 0
M  V30 2570 O 232.916 1.19378 -1.53555 0
M  V30 2571 C 233.199 -1.995 -2.99786 0
M  V30 2572 C 233.052 -3.5239 -2.79538 0
M  V30 2573 C 234.371 -1.82335 -4.00552 0
M  V30 2574 H 231.49 -0.429528 -0.598895 0
M  V30 2575 H 234.132 -1.59072 -1.03905 0
M  V30 2576 H 232.282 -1.64485 -3.51962 0
M  V30 2577 H 233.954 -3.97401 -2.34244 0
M  V30 2578 H 232.197 -3.77187 -2.14273 0
M  V30 2579 H 232.868 -4.04787 -3.75302 0
M  V30 2580 H 235.344 -2.12924 -3.57495 0
M  V30 2581 H 234.22 -2.41801 -4.92771 0
M  V30 2582 H 234.481 -0.779209 -4.35179 0
M  V30 2583 N 233.54 1.10788 -1.12088 0
M  V30 2584 C 234.956 1.34691 -0.856186 0
M  V30 2585 C 235.156 1.94791 0.515615 0
M  V30 2586 O 234.212 2.18524 1.26505 0
M  V30 2587 C 235.525 2.27208 -1.9697 0
M  V30 2588 C 237.073 2.40755 -2.00016 0
M  V30 2589 C 237.548 3.36598 -3.1059 0
M  V30 2590 N 239.039 3.44164 -3.10008 0
M  V30 2591 C 239.774 4.18284 -3.92206 0
M  V30 2592 N 239.27 4.95322 -4.84384 0
M  V30 2593 N 241.063 4.13865 -3.80357 0
M  V30 2594 H 233.214 0.70144 -2.00483 0
M  V30 2595 H 235.477 0.371405 -0.872217 0
M  V30 2596 H 235.183 1.90251 -2.958 0
M  V30 2597 H 235.057 3.27485 -1.87172 0
M  V30 2598 H 237.444 2.76982 -1.01808 0
M  V30 2599 H 237.525 1.40305 -2.13888 0
M  V30 2600 H 237.169 3.01096 -4.09028 0
M  V30 2601 H 237.099 4.36918 -2.93956 0
M  V30 2602 H 239.59 2.8922 -2.43228 0
M  V30 2603 H 239.903 5.49267 -5.43623 0
M  V30 2604 H 238.248 4.94459 -4.884 0
M  V30 2605 H 241.439 3.52773 -3.07683 0
M  V30 2606 H 241.612 4.71372 -4.44649 0
M  V30 2607 N 235.018 0.912232 1.28515 0
M  V30 2608 C 235.965 0.397954 2.27343 0
M  V30 2609 C 236.935 -0.526766 1.57526 0
M  V30 2610 O 238.12 -0.449292 1.85435 0
M  V30 2611 C 235.26 -0.357263 3.43246 0
M  V30 2612 C 234.373 0.599788 4.27816 0
M  V30 2613 C 233.508 -0.173725 5.30916 0
M  V30 2614 C 232.547 0.777039 6.07148 0
M  V30 2615 N 231.684 0.0371398 7.0209 0
M  V30 2616 H 236.524 1.24577 2.70711 0
M  V30 2617 H 234.061 0.625612 1.33133 0
M  V30 2618 H 236.019 -0.8113 4.09236 0
M  V30 2619 H 234.649 -1.16943 3.00872 0
M  V30 2620 H 233.701 1.17235 3.61884 0
M  V30 2621 H 235.013 1.32704 4.80823 0
M  V30 2622 H 234.167 -0.688394 6.02782 0
M  V30 2623 H 232.906 -0.934041 4.78672 0
M  V30 2624 H 231.911 1.3031 5.34134 0
M  V30 2625 H 233.136 1.53689 6.61481 0
M  V30 2626 H 231.082 -0.705213 6.52198 0
M  V30 2627 H 230.999 0.704249 7.52713 0
M  V30 2628 H 232.267 -0.457383 7.78157 0
M  V30 2629 N 236.496 -1.42363 0.676048 0
M  V30 2630 C 237.907 -1.84649 0.275948 0
M  V30 2631 C 238.258 -1.56588 -1.18214 0
M  V30 2632 O 237.383 -1.02634 -1.90513 0
M  V30 2633 C 237.978 -3.35178 0.494053 0
M  V30 2634 C 236.537 -3.76109 0.148061 0
M  V30 2635 C 235.684 -2.65931 0.785891 0
M  V30 2636 H 238.635 -1.32192 0.878121 0
M  V30 2637 H 238.656 -3.79655 -0.25343 0
M  V30 2638 H 238.168 -3.55571 1.55535 0
M  V30 2639 H 236.269 -3.61323 -0.909742 0
M  V30 2640 H 236.382 -4.7546 0.589454 0
M  V30 2641 H 234.746 -2.53773 0.217113 0
M  V30 2642 H 235.529 -2.89146 1.85067 0
M  V30 2643 N 237.974 -0.419461 -1.51915 0
M  V30 2644 C 238.904 0.391813 -2.30189 0
M  V30 2645 C 239.885 1.03699 -1.34836 0
M  V30 2646 O 241.07 1.04403 -1.63748 0
M  V30 2647 C 238.2 1.50312 -3.13087 0
M  V30 2648 C 237.154 0.9824 -4.16573 0
M  V30 2649 C 236.48 2.18809 -4.8788 0
M  V30 2650 C 237.78 0.0292356 -5.22292 0
M  V30 2651 H 239.474 -0.26135 -2.98257 0
M  V30 2652 H 237.02 -0.127134 -1.43438 0
M  V30 2653 H 238.973 2.07773 -3.66617 0
M  V30 2654 H 237.697 2.18431 -2.42807 0
M  V30 2655 H 236.356 0.430119 -3.64068 0
M  V30 2656 H 236.004 2.85507 -4.14119 0
M  V30 2657 H 235.704 1.84615 -5.57845 0
M  V30 2658 H 237.228 2.76858 -5.44226 0
M  V30 2659 H 238.642 0.512976 -5.71 0
M  V30 2660 H 237.039 -0.2244 -5.9968 0
M  V30 2661 H 238.109 -0.912931 -4.76228 0
M  V30 2662 N 239.452 1.56882 -0.150215 0
M  V30 2663 C 240.4 2.18214 0.805313 0
M  V30 2664 C 241.394 1.14006 1.25296 0
M  V30 2665 O 242.6 1.3225 1.22107 0
M  V30 2666 H 238.975 0.698762 0.277913 0
M  V30 2667 H 240.946 2.97231 0.263862 0
M  V30 2668 C 239.695 2.82065 2.03309 0
M  V30 2669 H 239.018 3.61968 1.69763 0
M  V30 2670 H 240.458 3.28477 2.68103 0
M  V30 2671 C 238.917 1.80739 2.84315 0
M  V30 2672 O 239.447 1.27983 3.80767 0
M  V30 2673 N 237.653 1.4997 2.48913 0
M  V30 2674 H 237.2 1.93062 1.70542 0
M  V30 2675 H 237.158 0.824217 3.03404 0
M  V30 2676 N 240.93 -0.123565 1.57115 0
M  V30 2677 C 241.877 -1.15177 2.00007 0
M  V30 2678 C 242.847 -1.41403 0.871454 0
M  V30 2679 O 244.032 -1.53346 1.13533 0
M  V30 2680 C 241.172 -2.47436 2.40561 0
M  V30 2681 C 240.285 -2.28184 3.66819 0
M  V30 2682 C 239.42 -3.53641 3.96373 0
M  V30 2683 C 238.459 -3.29528 5.15827 0
M  V30 2684 N 237.596 -4.47175 5.41275 0
M  V30 2685 H 242.436 -0.779008 2.87638 0
M  V30 2686 H 239.973 -0.373166 1.42288 0
M  V30 2687 H 241.931 -3.24584 2.62109 0
M  V30 2688 H 240.561 -2.82614 1.55978 0
M  V30 2689 H 239.613 -1.41976 3.52912 0
M  V30 2690 H 240.925 -2.0634 4.5412 0
M  V30 2691 H 240.079 -4.39209 4.18545 0
M  V30 2692 H 238.818 -3.78512 3.07538 0
M  V30 2693 H 237.823 -2.42349 4.93505 0
M  V30 2694 H 239.048 -3.06031 6.06236 0
M  V30 2695 H 236.994 -4.72175 4.55397 0
M  V30 2696 H 236.911 -4.28419 6.22891 0
M  V30 2697 H 238.179 -5.3389 5.67963 0
M  V30 2698 N 242.408 -1.52605 -0.393616 0
M  V30 2699 C 243.318 -1.79971 -1.50492 0
M  V30 2700 C 244.334 -0.686181 -1.59899 0
M  V30 2701 O 245.51 -0.973274 -1.76322 0
M  V30 2702 C 242.575 -1.95867 -2.86072 0
M  V30 2703 C 241.636 -3.19781 -2.86424 0
M  V30 2704 C 240.869 -3.34909 -4.15538 0
M  V30 2705 O 241.092 -2.54948 -5.10253 0
M  V30 2706 O 240.026 -4.28141 -4.23059 0
M  V30 2707 H 243.852 -2.74328 -1.30299 0
M  V30 2708 H 241.437 -1.3764 -0.581005 0
M  V30 2709 H 243.319 -2.08056 -3.66457 0
M  V30 2710 H 241.994 -1.04699 -3.063 0
M  V30 2711 H 240.901 -3.13038 -2.04837 0
M  V30 2712 H 242.234 -4.1078 -2.71147 0
M  V30 2713 N 243.887 0.651787 -1.4349 0
M  V30 2714 C 245.135 1.40888 -1.44897 0
M  V30 2715 C 245.456 1.94856 -0.0749086 0
M  V30 2716 O 244.726 1.74518 0.889956 0
M  V30 2717 H 243.306 0.522887 -0.533478 0
M  V30 2718 H 245.968 0.768609 -1.79104 0
M  V30 2719 H 245.064 2.25052 -2.16236 0
M  V30 2720 N 245.365 1.30045 0.890287 0
M  V30 2721 C 246.312 1.15976 1.99545 0
M  V30 2722 C 247.282 0.0506202 1.66023 0
M  V30 2723 O 248.467 0.219847 1.89529 0
M  V30 2724 C 245.607 0.852054 3.34416 0
M  V30 2725 C 244.72 2.04255 3.80662 0
M  V30 2726 C 243.855 1.6734 5.04154 0
M  V30 2727 C 242.894 2.82916 5.42794 0
M  V30 2728 N 242.031 2.46333 6.57468 0
M  V30 2729 H 246.871 2.10524 2.10911 0
M  V30 2730 H 244.408 1.04749 1.03276 0
M  V30 2731 H 246.366 0.654296 4.12037 0
M  V30 2732 H 244.996 -0.0565502 3.2275 0
M  V30 2733 H 244.048 2.35172 2.98995 0
M  V30 2734 H 245.36 2.90826 4.05242 0
M  V30 2735 H 244.514 1.43908 5.89386 0
M  V30 2736 H 243.253 0.779308 4.81433 0
M  V30 2737 H 242.258 3.0702 4.56091 0
M  V30 2738 H 243.483 3.73004 5.6749 0
M  V30 2739 H 241.429 1.59423 6.36334 0
M  V30 2740 H 241.346 3.26436 6.81891 0
M  V30 2741 H 242.614 2.26244 7.45945 0
M  V30 2742 N 246.843 -1.10192 1.12674 0
M  V30 2743 C 247.79 -2.16606 0.796906 0
M  V30 2744 C 248.76 -1.64394 -0.237476 0
M  V30 2745 O 249.945 -1.90474 -0.111484 0
M  V30 2746 C 247.085 -3.44116 0.26043 0
M  V30 2747 C 246.198 -4.10268 1.35293 0
M  V30 2748 C 245.333 -5.25507 0.775621 0
M  V30 2749 C 244.372 -5.83567 1.84706 0
M  V30 2750 N 243.509 -6.90179 1.28829 0
M  V30 2751 H 248.349 -2.44163 1.70846 0
M  V30 2752 H 245.886 -1.19846 0.85295 0
M  V30 2753 H 247.844 -4.17143 -0.0686814 0
M  V30 2754 H 246.474 -3.16901 -0.614274 0
M  V30 2755 H 245.526 -3.35184 1.79877 0
M  V30 2756 H 246.838 -4.4946 2.16303 0
M  V30 2757 H 245.992 -6.05398 0.397327 0
M  V30 2758 H 244.731 -4.87656 -0.0656581 0
M  V30 2759 H 243.736 -5.02344 2.23452 0
M  V30 2760 H 244.961 -6.23482 2.69161 0
M  V30 2761 H 242.907 -6.54322 0.468881 0
M  V30 2762 H 242.824 -7.28097 2.03497 0
M  V30 2763 H 244.092 -7.73844 0.937311 0
M  V30 2764 N 248.321 -0.919034 -1.28029 0
M  V30 2765 C 249.732 -0.600735 -1.76771 0
M  V30 2766 C 250.083 0.884024 -1.75156 0
M  V30 2767 O 249.208 1.69163 -1.34956 0
M  V30 2768 C 249.803 -1.08372 -3.21 0
M  V30 2769 C 248.362 -0.816248 -3.67443 0
M  V30 2770 C 247.509 -1.24742 -2.47658 0
M  V30 2771 H 250.46 -1.09974 -1.14418 0
M  V30 2772 H 250.481 -0.427512 -3.78091 0
M  V30 2773 H 249.993 -2.16437 -3.22144 0
M  V30 2774 H 248.094 0.250968 -3.71754 0
M  V30 2775 H 248.207 -1.4277 -4.57333 0
M  V30 2776 H 246.571 -0.666083 -2.45836 0
M  V30 2777 H 247.354 -2.33653 -2.51518 0
M  V30 2778 N 249.799 1.42003 -0.683588 0
M  V30 2779 C 251.215 1.55625 -0.353976 0
M  V30 2780 C 251.415 1.66151 1.14 0
M  V30 2781 O 250.471 1.63329 1.92561 0
M  V30 2782 C 251.784 2.80171 -1.092 0
M  V30 2783 C 253.332 2.93954 -1.07518 0
M  V30 2784 C 253.807 4.21372 -1.79471 0
M  V30 2785 N 255.298 4.28303 -1.76381 0
M  V30 2786 C 256.033 5.25729 -2.28904 0
M  V30 2787 N 255.529 6.29254 -2.89846 0
M  V30 2788 N 257.322 5.17586 -2.19228 0
M  V30 2789 H 249.473 1.33415 -1.6527 0
M  V30 2790 H 251.736 0.64282 -0.696769 0
M  V30 2791 H 251.442 2.78561 -2.14701 0
M  V30 2792 H 251.316 3.7133 -0.662862 0
M  V30 2793 H 253.703 2.95086 -0.028475 0
M  V30 2794 H 253.784 2.04002 -1.54328 0
M  V30 2795 H 253.428 4.21001 -2.84114 0
M  V30 2796 H 253.358 5.10275 -1.30104 0
M  V30 2797 H 255.849 3.54119 -1.31939 0
M  V30 2798 H 256.162 6.99964 -3.27522 0
M  V30 2799 H 254.507 6.29791 -2.93919 0
M  V30 2800 H 257.698 4.35631 -1.71299 0
M  V30 2801 H 257.871 5.93348 -2.60466 0
M  V30 2802 N 251.277 0.427512 1.51691 0
M  V30 2803 C 252.505 -0.141191 2.06418 0
M  V30 2804 C 252.92 -1.37303 1.29589 0
M  V30 2805 O 252.277 -1.79059 0.352732 0
M  V30 2806 C 252.328 -0.473266 3.58389 0
M  V30 2807 O 252.049 0.709673 4.32314 0
M  V30 2808 C 253.55 -1.09371 4.29596 0
M  V30 2809 H 250.77 -0.0122747 0.670888 0
M  V30 2810 H 253.314 0.603764 1.95384 0
M  V30 2811 H 251.469 -1.16812 3.69369 0
M  V30 2812 H 251.883 0.42807 5.2275 0
M  V30 2813 H 253.357 -1.27613 5.37046 0
M  V30 2814 H 253.834 -2.072 3.87253 0
M  V30 2815 H 254.44 -0.43853 4.23033 0
M  V30 2816 N 252.755 -1.56801 0.158532 0
M  V30 2817 C 253.702 -2.17337 -0.776729 0
M  V30 2818 C 254.672 -1.1096 -1.23601 0
M  V30 2819 O 255.857 -1.39054 -1.30647 0
M  V30 2820 C 252.997 -2.80822 -2.00582 0
M  V30 2821 C 252.11 -4.01624 -1.59129 0
M  V30 2822 C 251.245 -4.53072 -2.77306 0
M  V30 2823 C 250.284 -5.66314 -2.32282 0
M  V30 2824 N 249.421 -6.12329 -3.43508 0
M  V30 2825 H 254.261 -2.96918 -0.253701 0
M  V30 2826 H 251.798 -1.46661 -0.113504 0
M  V30 2827 H 253.756 -3.15779 -2.72652 0
M  V30 2828 H 252.386 -2.03866 -2.50277 0
M  V30 2829 H 251.438 -3.72571 -0.767806 0
M  V30 2830 H 252.75 -4.83633 -1.2207 0
M  V30 2831 H 251.904 -4.90145 -3.57551 0
M  V30 2832 H 250.643 -3.70095 -3.17617 0
M  V30 2833 H 249.648 -5.28806 -1.5048 0
M  V30 2834 H 250.873 -6.51085 -1.93043 0
M  V30 2835 H 248.819 -5.32284 -3.83418 0
M  V30 2836 H 248.736 -6.89293 -3.105 0
M  V30 2837 H 250.004 -6.5405 -4.24075 0
M  V30 2838 N 254.233 0.115231 -1.57178 0
M  V30 2839 C 255.196 1.12526 -1.99676 0
M  V30 2840 C 256.196 1.34095 -0.88742 0
M  V30 2841 O 257.386 1.30548 -1.15337 0
M  V30 2842 C 254.518 2.4789 -2.34015 0
M  V30 2843 H 255.711 0.759912 -2.90113 0
M  V30 2844 H 253.264 0.359648 -1.52106 0
M  V30 2845 H 253.999 2.89339 -1.4647 0
M  V30 2846 H 253.784 2.33588 -3.14927 0
M  V30 2847 H 255.274 3.20575 -2.67622 0
M  V30 2848 N 255.711 1.52812 0.385517 0
M  V30 2849 C 257.122 1.5993 0.963293 0
M  V30 2850 C 257.473 0.454302 1.90868 0
M  V30 2851 O 256.598 -0.422132 2.12243 0
M  V30 2852 C 257.193 2.89871 1.75387 0
M  V30 2853 C 255.752 2.99389 2.28129 0
M  V30 2854 C 254.899 2.55071 1.08783 0
M  V30 2855 H 257.85 1.5784 0.164948 0
M  V30 2856 H 257.871 2.76553 2.61341 0
M  V30 2857 H 257.383 3.73186 1.06554 0
M  V30 2858 H 255.484 2.20619 3.00263 0
M  V30 2859 H 255.597 4.04096 2.57377 0
M  V30 2860 H 253.961 2.09473 1.4489 0
M  V30 2861 H 254.744 3.40785 0.414807 0
M  V30 2862 N 257.189 -0.644168 1.43834 0
M  V30 2863 C 258.136 -1.75671 1.49694 0
M  V30 2864 C 259.106 -1.6246 0.345809 0
M  V30 2865 O 260.291 -1.82573 0.554234 0
M  V30 2866 C 257.431 -3.13867 1.43463 0
M  V30 2867 C 256.544 -3.38147 2.6885 0
M  V30 2868 C 255.679 -4.66241 2.54544 0
M  V30 2869 C 254.718 -4.83657 3.75157 0
M  V30 2870 N 253.855 -6.03016 3.59605 0
M  V30 2871 H 258.695 -1.69998 2.44754 0
M  V30 2872 H 256.232 -0.829458 1.21484 0
M  V30 2873 H 258.19 -3.9377 1.37843 0
M  V30 2874 H 256.82 -3.18588 0.519783 0
M  V30 2875 H 255.872 -2.52276 2.84712 0
M  V30 2876 H 257.184 -3.46899 3.58417 0
M  V30 2877 H 256.338 -5.54285 2.46683 0
M  V30 2878 H 255.077 -4.59826 1.62516 0
M  V30 2879 H 254.082 -3.94046 3.83416 0
M  V30 2880 H 255.307 -4.91896 4.68204 0
M  V30 2881 H 253.253 -5.97715 2.7032 0
M  V30 2882 H 253.17 -6.12766 4.42779 0
M  V30 2883 H 254.438 -6.93657 3.55613 0
M  V30 2884 N 258.668 -1.30515 -0.883378 0
M  V30 2885 C 259.917 -1.18795 -1.63005 0
M  V30 2886 C 260.23 0.255923 -1.93919 0
M  V30 2887 O 261.436 0.494654 -2.66956 0
M  V30 2888 C 259.892 -2.07878 -2.93794 0
M  V30 2889 C 259.5 -3.57184 -2.70414 0
M  V30 2890 C 261.244 -2.04924 -3.71761 0
M  V30 2891 C 259.151 -4.38317 -3.97029 0
M  V30 2892 H 258.081 -0.441031 -0.611562 0
M  V30 2893 H 260.732 -1.55275 -0.977854 0
M  V30 2894 H 259.114 -1.64283 -3.60315 0
M  V30 2895 H 260.288 -4.08937 -2.12384 0
M  V30 2896 H 258.603 -3.61976 -2.0582 0
M  V30 2897 H 261.2 -2.62792 -4.65665 0
M  V30 2898 H 261.543 -1.0331 -4.03277 0
M  V30 2899 H 262.076 -2.46649 -3.12104 0
M  V30 2900 H 258.815 -5.40632 -3.70671 0
M  V30 2901 H 258.335 -3.91326 -4.54559 0
M  V30 2902 H 260.014 -4.49834 -4.65036 0
M  V30 2903 N 260.146 1.09593 -1.13257 0
M  V30 2904 C 261.078 2.16015 -0.766167 0
M  V30 2905 C 262.091 1.61423 0.211303 0
M  V30 2906 O 263.28 1.78498 -0.00863946 0
M  V30 2907 C 260.38 3.38706 -0.114662 0
M  V30 2908 C 259.553 4.22717 -1.12379 0
M  V30 2909 C 258.612 5.23835 -0.498301 0
M  V30 2910 O 257.638 5.573 -1.15781 0
M  V30 2911 N 258.84 5.75886 0.730417 0
M  V30 2912 H 261.605 2.48055 -1.68193 0
M  V30 2913 H 259.166 1.25292 -1.02535 0
M  V30 2914 H 261.158 4.03464 0.315991 0
M  V30 2915 H 259.728 3.04569 0.704011 0
M  V30 2916 H 258.948 3.54122 -1.73179 0
M  V30 2917 H 260.236 4.75673 -1.80589 0
M  V30 2918 H 259.634 5.50911 1.28504 0
M  V30 2919 H 258.191 6.42387 1.10376 0
M  V30 2920 N 261.624 0.925811 1.2754 0
M  V30 2921 C 263.04 0.625767 1.46821 0
M  V30 2922 C 263.24 -0.825506 1.83814 0
M  V30 2923 O 262.296 -1.60356 1.95044 0
M  V30 2924 C 263.609 1.57402 2.56213 0
M  V30 2925 C 265.157 1.58204 2.70075 0
M  V30 2926 C 265.632 2.51721 3.82623 0
M  V30 2927 N 267.123 2.49917 3.89994 0
M  V30 2928 C 267.858 3.18968 4.76494 0
M  V30 2929 N 267.354 3.97391 5.67496 0
M  V30 2930 N 269.147 3.07996 4.70208 0
M  V30 2931 H 261.298 1.86409 1.01811 0
M  V30 2932 H 263.561 0.800213 0.508295 0
M  V30 2933 H 263.267 2.60925 2.35819 0
M  V30 2934 H 263.141 1.31428 3.53563 0
M  V30 2935 H 265.528 0.554124 2.89851 0
M  V30 2936 H 265.609 1.88226 1.73218 0
M  V30 2937 H 265.253 3.54622 3.63601 0
M  V30 2938 H 265.183 2.18996 4.78903 0
M  V30 2939 H 267.674 1.9296 3.24923 0
M  V30 2940 H 267.987 4.4707 6.30356 0
M  V30 2941 H 266.332 4.01495 5.67298 0
M  V30 2942 H 269.523 2.46223 3.9811 0
M  V30 2943 H 269.696 3.6208 5.37403 0
M  V30 2944 N 263.102 -1.41638 0.69111 0
M  V30 2945 C 264.032 -2.3347 0.037248 0
M  V30 2946 C 265.013 -1.51575 -0.771947 0
M  V30 2947 O 266.198 -1.80126 -0.72582 0
M  V30 2948 C 263.328 -3.35354 -0.903064 0
M  V30 2949 C 262.282 -4.27526 -0.201288 0
M  V30 2950 C 261.608 -5.19747 -1.25565 0
M  V30 2951 C 262.908 -5.13959 0.929689 0
M  V30 2952 H 264.602 -2.88397 0.804227 0
M  V30 2953 H 262.148 -1.38669 0.388189 0
M  V30 2954 H 264.101 -3.98519 -1.36969 0
M  V30 2955 H 262.825 -2.78767 -1.70166 0
M  V30 2956 H 261.484 -3.65779 0.245265 0
M  V30 2957 H 261.132 -4.59479 -2.04666 0
M  V30 2958 H 260.832 -5.8225 -0.791128 0
M  V30 2959 H 262.356 -5.85789 -1.72288 0
M  V30 2960 H 263.77 -5.70718 0.543546 0
M  V30 2961 H 262.167 -5.85379 1.32103 0
M  V30 2962 H 263.237 -4.51389 1.77133 0
M  V30 2963 N 264.58 -0.43555 -1.51462 0
M  V30 2964 C 265.826 0.131709 -2.02372 0
M  V30 2965 C 266.159 1.42516 -1.3192 0
M  V30 2966 O 265.434 1.89606 -0.433573 0
M  V30 2967 C 265.717 0.352301 -3.58373 0
M  V30 2968 C 265.57 -0.959676 -4.39443 0
M  V30 2969 C 266.889 1.12286 -4.25535 0
M  V30 2970 H 264.008 0.0463936 -0.735538 0
M  V30 2971 H 266.65 -0.574197 -1.81116 0
M  V30 2972 H 264.8 0.9536 -3.76615 0
M  V30 2973 H 266.472 -1.59482 -4.32855 0
M  V30 2974 H 264.715 -1.56468 -4.04599 0
M  V30 2975 H 265.386 -0.759394 -5.46752 0
M  V30 2976 H 267.862 0.613545 -4.11552 0
M  V30 2977 H 266.738 1.24598 -5.34571 0
M  V30 2978 H 266.999 2.15048 -3.86273 0
M  V30 2979 N 266.058 1.56714 -0.166846 0
M  V30 2980 C 267.286 2.0112 0.485644 0
M  V30 2981 C 267.701 1.04705 1.57106 0
M  V30 2982 O 267.058 0.0471923 1.82439 0
M  V30 2983 C 267.109 3.45361 1.06808 0
M  V30 2984 O 266.83 4.38092 0.0259995 0
M  V30 2985 C 268.331 4.05145 1.79924 0
M  V30 2986 H 265.551 0.65931 0.124704 0
M  V30 2987 H 268.095 2.02746 -0.267262 0
M  V30 2988 H 266.25 3.44524 1.7715 0
M  V30 2989 H 266.664 5.22519 0.455398 0
M  V30 2990 H 268.138 5.08009 2.15942 0
M  V30 2991 H 268.615 3.46982 2.69258 0
M  V30 2992 H 269.221 4.09672 1.14234 0
M  V30 2993 N 267.536 -0.106894 1.57237 0
M  V30 2994 C 268.947 -0.662723 1.74542 0
M  V30 2995 C 269.298 -1.7971 0.787319 0
M  V30 2996 O 268.423 -2.16368 -0.0369636 0
M  V30 2997 C 269.018 -1.20896 3.16496 0
M  V30 2998 C 267.577 -1.71096 3.35266 0
M  V30 2999 C 266.724 -0.615642 2.7038 0
M  V30 3000 H 269.675 0.119106 1.58252 0
M  V30 3001 H 269.696 -2.07847 3.18716 0
M  V30 3002 H 269.208 -0.383122 3.86204 0
M  V30 3003 H 267.309 -2.56119 2.70618 0
M  V30 3004 H 267.422 -1.81208 4.43509 0
M  V30 3005 H 265.786 -1.05222 2.31949 0
M  V30 3006 H 266.569 0.199419 3.4272 0
M  V30 3007 N 269.014 -1.53014 -0.377408 0
M  V30 3008 C 270.43 -1.42523 -0.718281 0
M  V30 3009 C 270.63 -0.55487 -1.9371 0
M  V30 3010 O 269.686 -0.0327593 -2.52479 0
M  V30 3011 C 270.999 -2.85546 -0.942539 0
M  V30 3012 C 272.547 -2.95101 -1.04329 0
M  V30 3013 C 273.022 -4.3916 -1.3001 0
M  V30 3014 N 274.513 -4.42536 -1.36806 0
M  V30 3015 C 275.248 -5.51097 -1.58364 0
M  V30 3016 N 274.744 -6.69724 -1.77317 0
M  V30 3017 N 276.537 -5.38657 -1.60638 0
M  V30 3018 H 268.688 -2.08116 0.424426 0
M  V30 3019 H 270.951 -0.939352 0.127759 0
M  V30 3020 H 270.657 -3.51499 -0.118929 0
M  V30 3021 H 270.531 -3.28493 -1.85397 0
M  V30 3022 H 272.918 -2.29309 -1.85745 0
M  V30 3023 H 272.999 -2.55566 -0.109505 0
M  V30 3024 H 272.643 -5.05521 -0.490991 0
M  V30 3025 H 272.573 -4.76258 -2.24691 0
M  V30 3026 H 275.064 -3.57039 -1.23821 0
M  V30 3027 H 275.377 -7.48233 -1.93306 0
M  V30 3028 H 273.722 -6.72732 -1.74518 0
M  V30 3029 H 276.913 -4.44948 -1.45391 0
M  V30 3030 H 277.086 -6.2333 -1.77098 0
M  V30 3031 N 270.492 0.636531 -1.44174 0
M  V30 3032 C 271.738 1.39826 -1.4689 0
M  V30 3033 C 272.071 1.93947 -0.0990585 0
M  V30 3034 O 271.346 1.73325 0.882544 0
M  V30 3035 C 271.629 2.56751 -2.5249 0
M  V30 3036 C 271.482 2.08014 -3.98811 0
M  V30 3037 C 272.801 3.58946 -2.54649 0
M  V30 3038 H 269.92 0.507075 -0.53483 0
M  V30 3039 H 272.562 0.720188 -1.75822 0
M  V30 3040 H 270.712 3.14597 -2.2795 0
M  V30 3041 H 272.384 1.5504 -4.34466 0
M  V30 3042 H 270.627 1.39242 -4.10846 0
M  V30 3043 H 271.298 2.92169 -4.68339 0
M  V30 3044 H 273.774 3.1089 -2.76563 0
M  V30 3045 H 272.65 4.38286 -3.3045 0
M  V30 3046 H 272.911 4.12655 -1.58646 0
M  V30 3047 N 271.97 1.30982 0.876444 0
M  V30 3048 C 272.9 1.20668 1.99903 0
M  V30 3049 C 273.881 0.095354 1.69833 0
M  V30 3050 O 275.066 0.27885 1.92188 0
M  V30 3051 C 272.196 0.90655 3.3526 0
M  V30 3052 C 271.15 1.97675 3.79617 0
M  V30 3053 C 270.476 1.52943 5.1236 0
M  V30 3054 C 271.776 3.389 3.97422 0
M  V30 3055 H 273.47 2.14586 2.0879 0
M  V30 3056 H 271.016 1.03308 1.00317 0
M  V30 3057 H 272.969 0.821025 4.13324 0
M  V30 3058 H 271.693 -0.0682969 3.26529 0
M  V30 3059 H 270.352 2.05205 3.03787 0
M  V30 3060 H 270 0.54262 5.00065 0
M  V30 3061 H 269.7 2.24532 5.43009 0
M  V30 3062 H 271.224 1.45786 5.92941 0
M  V30 3063 H 272.638 3.34081 4.659 0
M  V30 3064 H 271.035 4.0865 4.3946 0
M  V30 3065 H 272.105 3.80163 3.01006 0
M  V30 3066 N 273.449 -1.08991 1.13837 0
M  V30 3067 C 274.381 -2.15606 0.777612 0
M  V30 3068 C 275.394 -1.61533 -0.202739 0
M  V30 3069 O 276.583 -1.78491 0.0181055 0
M  V30 3070 C 273.683 -3.3864 0.132623 0
M  V30 3071 C 272.856 -4.22115 1.1462 0
M  V30 3072 C 271.915 -5.23564 0.526074 0
M  V30 3073 O 270.941 -5.56678 1.18735 0
M  V30 3074 N 272.143 -5.76266 -0.699866 0
M  V30 3075 H 274.908 -2.47159 1.69506 0
M  V30 3076 H 272.469 -1.24747 1.03198 0
M  V30 3077 H 274.461 -4.03626 -0.29459 0
M  V30 3078 H 273.031 -3.04938 -0.687849 0
M  V30 3079 H 272.251 -3.53199 1.75055 0
M  V30 3080 H 273.539 -4.74709 1.83109 0
M  V30 3081 H 272.937 -5.51585 -1.25581 0
M  V30 3082 H 271.494 -6.42963 -1.06968 0
M  V30 3083 N 274.927 -0.932562 -1.27047 0
M  V30 3084 C 275.877 -0.406392 -2.24349 0
M  V30 3085 C 276.861 0.492066 -1.53191 0
M  V30 3086 O 278.053 0.328717 -1.73921 0
M  V30 3087 C 275.182 0.335214 -3.41659 0
M  V30 3088 C 274.268 -0.58004 -4.20115 0
M  V30 3089 N 274.659 -1.70203 -4.76303 0
M  V30 3090 C 272.957 -0.383974 -4.44344 0
M  V30 3091 C 273.658 -2.27167 -5.35509 0
M  V30 3092 N 272.634 -1.56068 -5.20715 0
M  V30 3093 H 276.436 -1.26299 -2.65378 0
M  V30 3094 H 273.95 -0.787408 -1.42034 0
M  V30 3095 H 275.947 0.729142 -4.10474 0
M  V30 3096 H 274.607 1.18868 -3.0216 0
M  V30 3097 H 275.618 -2.08433 -4.74106 0
M  V30 3098 H 272.295 0.428436 -4.15296 0
M  V30 3099 H 273.685 -3.21654 -5.89905 0
M  V30 3100 N 276.405 1.4127 -0.698611 0
M  V30 3101 C 277.352 2.30773 -0.0352094 0
M  V30 3102 C 278.322 1.47273 0.768111 0
M  V30 3103 O 279.507 1.76053 0.735524 0
M  V30 3104 C 276.647 3.33346 0.893 0
M  V30 3105 C 275.76 4.31924 0.0809695 0
M  V30 3106 C 274.895 5.21566 1.0071 0
M  V30 3107 C 273.934 6.11811 0.188155 0
M  V30 3108 N 273.071 6.93926 1.06825 0
M  V30 3109 H 277.911 2.86943 -0.804207 0
M  V30 3110 H 275.448 1.4132 -0.408294 0
M  V30 3111 H 277.406 3.91368 1.44523 0
M  V30 3112 H 276.036 2.78719 1.62836 0
M  V30 3113 H 275.088 3.75825 -0.588224 0
M  V30 3114 H 276.4 4.95716 -0.553801 0
M  V30 3115 H 275.554 5.84437 1.62845 0
M  V30 3116 H 274.293 4.58008 1.67572 0
M  V30 3117 H 273.298 5.47986 -0.446254 0
M  V30 3118 H 274.523 6.77425 -0.476716 0
M  V30 3119 H 272.469 6.32973 1.72283 0
M  V30 3120 H 272.386 7.54416 0.489123 0
M  V30 3121 H 273.654 7.61262 1.67632 0
M  V30 3122 N 277.883 0.443576 1.51229 0
M  V30 3123 C 279.299 0.0962001 1.5931 0
M  V30 3124 C 279.499 -1.39501 1.45402 0
M  V30 3125 O 278.555 -2.16557 1.29843 0
M  V30 3126 C 279.868 0.621875 2.94199 0
M  V30 3127 C 281.416 0.582865 3.07525 0
M  V30 3128 C 281.891 1.08562 4.44948 0
M  V30 3129 N 283.382 1.04387 4.51284 0
M  V30 3130 C 284.117 1.40368 5.55954 0
M  V30 3131 N 283.613 1.83664 6.68011 0
M  V30 3132 N 285.406 1.32145 5.46346 0
M  V30 3133 H 277.557 1.41376 1.58514 0
M  V30 3134 H 279.82 0.582965 0.747567 0
M  V30 3135 H 279.526 1.66546 3.09767 0
M  V30 3136 H 279.4 0.0502125 3.77167 0
M  V30 3137 H 281.787 -0.451749 2.91622 0
M  V30 3138 H 281.868 1.191 2.26382 0
M  V30 3139 H 281.512 2.11873 4.61598 0
M  V30 3140 H 281.442 0.453956 5.2464 0
M  V30 3141 H 283.933 0.725986 3.70861 0
M  V30 3142 H 284.246 2.0934 7.43906 0
M  V30 3143 H 282.591 1.87596 6.69203 0
M  V30 3144 H 285.782 0.981808 4.57688 0
M  V30 3145 H 285.955 1.60514 6.27805 0
M  V30 3146 N 279.361 -1.56624 0.175154 0
M  V30 3147 C 280.777 -1.58571 -0.180966 0
M  V30 3148 C 280.977 -1.19065 -1.6256 0
M  V30 3149 O 280.033 -0.904044 -2.35761 0
M  V30 3150 C 281.346 -3.00522 0.103326 0
M  V30 3151 C 282.894 -3.12972 0.0418426 0
M  V30 3152 C 283.369 -4.57022 0.299175 0
M  V30 3153 N 284.86 -4.62541 0.247086 0
M  V30 3154 C 285.595 -5.71857 0.420318 0
M  V30 3155 N 285.091 -6.89717 0.652816 0
M  V30 3156 N 286.884 -5.60972 0.355957 0
M  V30 3157 H 279.035 -1.80589 1.11809 0
M  V30 3158 H 281.298 -0.837178 0.444788 0
M  V30 3159 H 281.004 -3.33916 1.10422 0
M  V30 3160 H 280.878 -3.72344 -0.603299 0
M  V30 3161 H 283.265 -2.79403 -0.949636 0
M  V30 3162 H 283.346 -2.43578 0.781238 0
M  V30 3163 H 282.99 -4.913 1.28788 0
M  V30 3164 H 282.92 -5.24579 -0.460876 0
M  V30 3165 H 285.411 -3.77829 0.0731895 0
M  V30 3166 H 285.724 -7.68911 0.774347 0
M  V30 3167 H 284.069 -6.91572 0.689476 0
M  V30 3168 H 287.26 -4.67773 0.174882 0
M  V30 3169 H 287.433 -6.46111 0.494388 0
M  V30 3170 N 280.839 0.0985539 -1.57292 0
M  V30 3171 C 282.255 0.45267 -1.53046 0
M  V30 3172 C 282.455 1.80713 -0.891342 0
M  V30 3173 O 281.511 2.4785 -0.482375 0
M  V30 3174 C 282.824 0.418341 -2.97776 0
M  V30 3175 C 284.372 0.500443 -3.08973 0
M  V30 3176 C 284.847 0.496297 -4.55303 0
M  V30 3177 N 286.338 0.557151 -4.59837 0
M  V30 3178 C 287.073 0.575726 -5.70502 0
M  V30 3179 N 286.569 0.550714 -6.90608 0
M  V30 3180 N 288.362 0.620277 -5.58667 0
M  V30 3181 H 280.513 -0.788673 -1.97215 0
M  V30 3182 H 282.776 -0.293188 -0.901524 0
M  V30 3183 H 282.482 -0.509659 -3.47988 0
M  V30 3184 H 282.356 1.2386 -3.56284 0
M  V30 3185 H 284.743 1.41886 -2.58751 0
M  V30 3186 H 284.824 -0.347894 -2.53423 0
M  V30 3187 H 284.468 -0.418162 -5.06176 0
M  V30 3188 H 284.398 1.3618 -5.08687 0
M  V30 3189 H 286.889 0.581816 -3.73394 0
M  V30 3190 H 287.202 0.568075 -7.70709 0
M  V30 3191 H 285.547 0.517816 -6.93068 0
M  V30 3192 H 288.738 0.637322 -4.63741 0
M  V30 3193 H 288.911 0.631283 -6.44918 0
M  V30 3194 N 282.317 1.53212 0.369288 0
M  V30 3195 C 283.566 1.68436 1.10961 0
M  V30 3196 C 283.879 0.440738 1.9057 0
M  V30 3197 O 285.085 0.473446 2.6734 0
M  V30 3198 C 283.541 2.97744 2.0218 0
M  V30 3199 C 283.149 4.29355 1.279 0
M  V30 3200 C 284.893 3.22334 2.76226 0
M  V30 3201 C 282.8 5.49755 2.17999 0
M  V30 3202 H 281.73 0.627568 0.41794 0
M  V30 3203 H 284.381 1.79713 0.370884 0
M  V30 3204 H 282.763 2.8026 2.79768 0
M  V30 3205 H 283.937 4.57458 0.554007 0
M  V30 3206 H 282.252 4.11179 0.657311 0
M  V30 3207 H 284.849 4.09471 3.43857 0
M  V30 3208 H 285.192 2.38238 3.41392 0
M  V30 3209 H 285.725 3.40475 2.05723 0
M  V30 3210 H 282.464 6.36318 1.57417 0
M  V30 3211 H 281.984 5.25937 2.88359 0
M  V30 3212 H 283.663 5.84401 2.77641 0
M  V30 3213 N 283.795 -0.628877 1.44509 0
M  V30 3214 C 284.758 -1.72263 1.51188 0
M  V30 3215 C 285.758 -1.55907 0.39367 0
M  V30 3216 O 286.948 -1.61361 0.656377 0
M  V30 3217 C 284.08 -3.11365 1.38798 0
M  V30 3218 H 285.273 -1.67714 2.4862 0
M  V30 3219 H 282.826 -0.842737 1.31634 0
M  V30 3220 H 283.561 -3.21507 0.424693 0
M  V30 3221 H 283.346 -3.24644 2.19884 0
M  V30 3222 H 284.836 -3.91075 1.46458 0
M  V30 3223 N 285.273 -1.31445 -0.869486 0
M  V30 3224 C 286.203 -1.21727 -1.99261 0
M  V30 3225 C 287.184 -0.104359 -1.6978 0
M  V30 3226 O 288.369 -0.289038 -1.92037 0
M  V30 3227 C 285.499 -0.924317 -3.34774 0
M  V30 3228 C 284.453 -1.99685 -3.78563 0
M  V30 3229 C 283.779 -1.55658 -5.11541 0
M  V30 3230 C 285.079 -3.41003 -3.95619 0
M  V30 3231 H 286.773 -2.1569 -2.07649 0
M  V30 3232 H 284.319 -1.03839 -0.997675 0
M  V30 3233 H 286.272 -0.842934 -4.12883 0
M  V30 3234 H 284.996 0.0509793 -3.2656 0
M  V30 3235 H 283.655 -2.06813 -3.02694 0
M  V30 3236 H 283.303 -0.569132 -4.9977 0
M  V30 3237 H 283.003 -2.27409 -5.41811 0
M  V30 3238 H 284.527 -1.48928 -5.92159 0
M  V30 3239 H 285.941 -3.36547 -4.64122 0
M  V30 3240 H 284.338 -4.10975 -4.37286 0
M  V30 3241 H 285.408 -3.81754 -2.98985 0
M  V30 3242 N 286.751 1.08385 -1.14413 0
M  V30 3243 C 287.698 2.15311 -0.831265 0
M  V30 3244 C 288.668 1.64751 0.211292 0
M  V30 3245 O 289.853 1.90627 0.0811674 0
M  V30 3246 C 286.993 3.43658 -0.315143 0
M  V30 3247 C 286.106 4.08064 -1.41802 0
M  V30 3248 C 285.241 5.24207 -0.859126 0
M  V30 3249 C 284.28 5.80554 -1.93967 0
M  V30 3250 N 283.417 6.88042 -1.39793 0
M  V30 3251 H 288.257 2.41415 -1.74708 0
M  V30 3252 H 285.794 1.18474 -0.871909 0
M  V30 3253 H 287.752 4.172 0.00230884 0
M  V30 3254 H 286.382 3.17839 0.56378 0
M  V30 3255 H 285.434 3.3228 -1.85187 0
M  V30 3256 H 286.746 4.45962 -2.23427 0
M  V30 3257 H 285.9 6.04689 -0.49359 0
M  V30 3258 H 284.639 4.87699 -0.011932 0
M  V30 3259 H 283.644 4.98725 -2.31415 0
M  V30 3260 H 284.869 6.19121 -2.79046 0
M  V30 3261 H 282.815 6.53493 -0.572919 0
M  V30 3262 H 282.732 7.24767 -2.15054 0
M  V30 3263 H 284 7.72255 -1.0603 0
M  V30 3264 N 288.23 0.939286 1.26551 0
M  V30 3265 C 289.177 0.446088 2.26448 0
M  V30 3266 C 290.147 -0.493234 1.58608 0
M  V30 3267 O 291.332 -0.409857 1.86346 0
M  V30 3268 C 288.472 -0.284375 3.43926 0
M  V30 3269 C 287.585 0.690399 4.26448 0
M  V30 3270 C 286.72 -0.0610712 5.31165 0
M  V30 3271 C 285.759 0.905649 6.05363 0
M  V30 3272 N 284.896 0.186055 7.01853 0
M  V30 3273 H 289.736 1.30291 2.68008 0
M  V30 3274 H 287.273 0.65371 1.31776 0
M  V30 3275 H 289.231 -0.724313 4.10864 0
M  V30 3276 H 287.861 -1.10535 3.03285 0
M  V30 3277 H 286.913 1.24885 3.59316 0
M  V30 3278 H 288.225 1.42873 4.779 0
M  V30 3279 H 287.379 -0.56038 6.04106 0
M  V30 3280 H 286.118 -0.832297 4.80546 0
M  V30 3281 H 285.123 1.4161 5.3125 0
M  V30 3282 H 286.348 1.67685 6.58072 0
M  V30 3283 H 284.294 -0.566714 6.53548 0
M  V30 3284 H 284.211 0.863752 7.51049 0
M  V30 3285 H 285.479 -0.292221 7.78952 0
M  V30 3286 N 289.708 -1.40897 0.706093 0
M  V30 3287 C 290.64 -2.29199 0.00815776 0
M  V30 3288 C 291.653 -1.45336 -0.733582 0
M  V30 3289 O 292.842 -1.68727 -0.582537 0
M  V30 3290 C 289.942 -3.23417 -1.01265 0
M  V30 3291 C 289.115 -4.36089 -0.338387 0
M  V30 3292 C 288.174 -5.10811 -1.26326 0
M  V30 3293 O 287.2 -5.64215 -0.751651 0
M  V30 3294 N 288.402 -5.19269 -2.595 0
M  V30 3295 H 291.167 -2.89738 0.766297 0
M  V30 3296 H 288.728 -1.52164 0.55296 0
M  V30 3297 H 290.72 -3.70276 -1.63334 0
M  V30 3298 H 289.29 -2.64112 -1.67223 0
M  V30 3299 H 288.51 -3.91479 0.462352 0
M  V30 3300 H 289.798 -5.08634 0.130031 0
M  V30 3301 H 289.196 -4.77347 -3.03573 0
M  V30 3302 H 287.753 -5.69667 -3.16737 0
M  V30 3303 N 291.186 -0.45159 -1.50991 0
M  V30 3304 C 292.602 -0.104647 -1.59257 0
M  V30 3305 C 292.802 1.38728 -1.4614 0
M  V30 3306 O 291.858 2.15866 -1.30989 0
M  V30 3307 C 293.171 -0.637468 -2.93865 0
M  V30 3308 C 294.719 -0.599166 -3.07212 0
M  V30 3309 C 295.194 -1.1092 -4.44366 0
M  V30 3310 N 296.685 -1.06778 -4.50725 0
M  V30 3311 C 297.42 -1.43314 -5.55201 0
M  V30 3312 N 296.916 -1.87204 -6.67028 0
M  V30 3313 N 298.709 -1.3504 -5.45638 0
M  V30 3314 H 290.86 -1.42214 -1.57762 0
M  V30 3315 H 293.123 -0.586921 -0.744465 0
M  V30 3316 H 292.829 -1.68187 -3.08879 0
M  V30 3317 H 292.703 -0.0702139 -3.77135 0
M  V30 3318 H 295.09 0.436277 -2.91857 0
M  V30 3319 H 295.171 -1.20299 -2.25747 0
M  V30 3320 H 294.815 -2.14318 -4.60467 0
M  V30 3321 H 294.745 -0.481773 -5.24392 0
M  V30 3322 H 297.236 -0.745643 -3.70471 0
M  V30 3323 H 297.549 -2.13282 -7.42786 0
M  V30 3324 H 295.894 -1.91142 -6.68199 0
M  V30 3325 H 299.085 -1.00607 -4.57161 0
M  V30 3326 H 299.258 -1.63841 -6.26945 0
M  V30 3327 N 292.664 1.56529 -0.183458 0
M  V30 3328 C 293.892 2.01623 0.464285 0
M  V30 3329 C 294.307 1.06366 1.55986 0
M  V30 3330 O 293.664 0.0665398 1.82379 0
M  V30 3331 C 293.715 3.46475 1.03139 0
M  V30 3332 O 293.436 4.38095 -0.0204675 0
M  V30 3333 C 294.937 4.0703 1.75617 0
M  V30 3334 H 292.157 0.660596 0.117704 0
M  V30 3335 H 294.701 2.02451 -0.288751 0
M  V30 3336 H 292.856 3.46383 1.73486 0
M  V30 3337 H 293.27 5.22973 0.399952 0
M  V30 3338 H 294.744 5.10271 2.10542 0
M  V30 3339 H 295.221 3.49819 2.65563 0
M  V30 3340 H 295.827 4.1086 1.09882 0
M  V30 3341 N 294.142 -0.090211 1.57342 0
M  V30 3342 C 295.089 -1.10909 2.02405 0
M  V30 3343 C 296.059 -1.39523 0.901252 0
M  V30 3344 O 297.244 -1.50903 1.1676 0
M  V30 3345 C 294.384 -2.42277 2.45755 0
M  V30 3346 C 293.497 -2.20352 3.71576 0
M  V30 3347 C 292.632 -3.45154 4.03785 0
M  V30 3348 C 291.671 -3.18512 5.22701 0
M  V30 3349 N 290.808 -4.35593 5.50639 0
M  V30 3350 H 295.648 -0.71782 2.89225 0
M  V30 3351 H 293.185 -0.342901 1.43048 0
M  V30 3352 H 295.143 -3.18951 2.68935 0
M  V30 3353 H 293.773 -2.79242 1.61938 0
M  V30 3354 H 292.825 -1.34458 3.55844 0
M  V30 3355 H 294.137 -1.96661 4.58395 0
M  V30 3356 H 293.291 -4.30233 4.27767 0
M  V30 3357 H 292.03 -3.71904 3.15498 0
M  V30 3358 H 291.035 -2.31827 4.98534 0
M  V30 3359 H 292.26 -2.93103 6.12591 0
M  V30 3360 H 290.206 -4.6241 4.6531 0
M  V30 3361 H 290.123 -4.1511 6.31838 0
M  V30 3362 H 291.391 -5.21723 5.7916 0
M  V30 3363 N 295.62 -1.53406 -0.361157 0
M  V30 3364 C 296.567 -1.80156 -1.44265 0
M  V30 3365 C 297.537 -0.646183 -1.53015 0
M  V30 3366 O 298.722 -0.888818 -1.68833 0
M  V30 3367 C 295.862 -2.00116 -2.81154 0
M  V30 3368 C 294.975 -3.27833 -2.81335 0
M  V30 3369 C 294.11 -3.37957 -4.09828 0
M  V30 3370 C 293.149 -4.59689 -4.04168 0
M  V30 3371 N 292.286 -4.66942 -5.24318 0
M  V30 3372 H 297.126 -2.72438 -1.20754 0
M  V30 3373 H 294.663 -1.34954 -0.585296 0
M  V30 3374 H 296.621 -2.09677 -3.60682 0
M  V30 3375 H 295.251 -1.11167 -3.03054 0
M  V30 3376 H 294.303 -3.27204 -1.94014 0
M  V30 3377 H 295.615 -4.17442 -2.73027 0
M  V30 3378 H 294.769 -3.46853 -4.97773 0
M  V30 3379 H 293.508 -2.46372 -4.20894 0
M  V30 3380 H 292.513 -4.50889 -3.14609 0
M  V30 3381 H 293.738 -5.5262 -3.947 0
M  V30 3382 H 291.684 -3.7826 -5.35962 0
M  V30 3383 H 291.601 -5.50462 -5.18197 0
M  V30 3384 H 292.869 -4.80127 -6.14084 0
M  V30 3385 N 297.098 0.621204 -1.44841 0
M  V30 3386 C 298.046 1.75385 -1.52784 0
M  V30 3387 C 299.04 1.64639 -0.398779 0
M  V30 3388 O 300.246 1.70598 -0.574137 0
M  V30 3389 H 296.621 0.579193 -0.479625 0
M  V30 3390 H 298.592 1.6581 -2.48092 0
M  V30 3391 C 297.341 3.13742 -1.4987 0
M  V30 3392 H 296.664 3.22663 -2.36069 0
M  V30 3393 H 298.104 3.92861 -1.59487 0
M  V30 3394 C 296.563 3.36175 -0.220973 0
M  V30 3395 O 297.093 3.95469 0.704782 0
M  V30 3396 N 295.299 2.90348 -0.120963 0
M  V30 3397 H 294.846 2.42278 -0.875162 0
M  V30 3398 H 294.804 3.05732 0.733168 0
M  V30 3399 N 298.576 1.31904 0.862503 0
M  V30 3400 C 299.523 1.20182 1.9704 0
M  V30 3401 C 300.493 0.0858247 1.65878 0
M  V30 3402 O 301.678 0.26 1.8902 0
M  V30 3403 C 298.818 0.922797 3.32533 0
M  V30 3404 C 297.931 2.12284 3.76244 0
M  V30 3405 C 297.066 1.77996 5.00491 0
M  V30 3406 C 296.105 2.94366 5.36671 0
M  V30 3407 N 295.242 2.60223 6.52095 0
M  V30 3408 H 300.082 2.14951 2.06398 0
M  V30 3409 H 297.619 1.06917 1.01031 0
M  V30 3410 H 299.577 0.741548 4.10557 0
M  V30 3411 H 298.207 0.0119227 3.22798 0
M  V30 3412 H 297.259 2.41461 2.9394 0
M  V30 3413 H 298.571 2.99357 3.98982 0
M  V30 3414 H 297.725 1.56377 5.862 0
M  V30 3415 H 296.464 0.881252 4.79672 0
M  V30 3416 H 295.469 3.16625 4.49476 0
M  V30 3417 H 296.694 3.84957 5.59451 0
M  V30 3418 H 294.64 1.72884 6.32809 0
M  V30 3419 H 294.557 3.40827 6.74814 0
M  V30 3420 H 295.825 2.42016 7.40978 0
M  V30 3421 N 300.054 -1.07777 1.14986 0
M  V30 3422 C 300.964 -2.18404 0.856546 0
M  V30 3423 C 301.98 -1.73211 -0.165485 0
M  V30 3424 O 303.156 -2.01399 0.00755219 0
M  V30 3425 C 300.221 -3.44977 0.34526 0
M  V30 3426 C 299.282 -4.0476 1.43065 0
M  V30 3427 C 298.515 -5.25291 0.943663 0
M  V30 3428 O 298.738 -5.70004 -0.212426 0
M  V30 3429 O 297.672 -5.76638 1.72547 0
M  V30 3430 H 301.498 -2.45978 1.78125 0
M  V30 3431 H 299.083 -1.17033 0.928631 0
M  V30 3432 H 300.965 -4.21348 0.0663671 0
M  V30 3433 H 299.64 -3.18965 -0.551631 0
M  V30 3434 H 298.547 -3.29949 1.76309 0
M  V30 3435 H 299.88 -4.35035 2.30229 0
M  V30 3436 N 301.532 -0.945985 -1.26051 0
M  V30 3437 C 302.442 -0.465633 -2.29933 0
M  V30 3438 C 303.458 0.462761 -1.67733 0
M  V30 3439 O 304.634 0.341118 -1.9849 0
M  V30 3440 C 301.699 0.256994 -3.45746 0
M  V30 3441 C 300.76 -0.708549 -4.23412 0
M  V30 3442 C 299.993 -0.0203135 -5.33696 0
M  V30 3443 O 300.216 1.19571 -5.57726 0
M  V30 3444 O 299.15 -0.701459 -5.97799 0
M  V30 3445 H 302.976 -1.32866 -2.73094 0
M  V30 3446 H 300.561 -0.712071 -1.31339 0
M  V30 3447 H 302.443 0.663852 -4.16138 0
M  V30 3448 H 301.118 1.09533 -3.04605 0
M  V30 3449 H 300.025 -1.16545 -3.55483 0
M  V30 3450 H 301.358 -1.51465 -4.68315 0
M  V30 3451 N 303.011 1.40521 -0.713556 0
M  V30 3452 C 303.974 2.29098 -0.0684347 0
M  V30 3453 C 304.974 1.45268 0.689472 0
M  V30 3454 O 306.164 1.66205 0.521677 0
M  V30 3455 C 303.296 3.28446 0.913024 0
M  V30 3456 H 304.489 2.87645 -0.84855 0
M  V30 3457 H 302.042 1.48809 -0.47809 0
M  V30 3458 H 302.777 2.74913 1.72027 0
M  V30 3459 H 302.562 3.90327 0.372472 0
M  V30 3460 H 304.052 3.94777 1.36165 0
M  V30 3461 N 304.489 0.459591 1.5075 0
M  V30 3462 C 305.452 -0.329093 2.26825 0
M  V30 3463 C 306.452 -0.930481 1.31144 0
M  V30 3464 O 307.642 -0.801453 1.54669 0
M  V30 3465 C 304.774 -1.46768 3.07688 0
M  V30 3466 H 305.967 0.337924 2.9799 0
M  V30 3467 H 303.52 0.213336 1.54837 0
M  V30 3468 H 304.255 -2.17009 2.40993 0
M  V30 3469 H 304.04 -1.04238 3.77991 0
M  V30 3470 H 305.53 -2.02433 3.65254 0
M  V30 3471 N 305.967 -1.56429 0.191757 0
M  V30 3472 C 306.877 -2.22541 -0.742481 0
M  V30 3473 C 307.893 -1.22342 -1.23727 0
M  V30 3474 O 309.069 -1.55069 -1.28513 0
M  V30 3475 C 306.134 -2.8692 -1.94623 0
M  V30 3476 C 305.195 -4.02378 -1.49633 0
M  V30 3477 C 304.428 -4.63678 -2.6427 0
M  V30 3478 O 304.651 -4.23895 -3.81666 0
M  V30 3479 O 303.585 -5.53202 -2.37174 0
M  V30 3480 H 307.411 -3.02977 -0.209462 0
M  V30 3481 H 304.996 -1.49353 -0.0373832 0
M  V30 3482 H 306.878 -3.27663 -2.64982 0
M  V30 3483 H 305.553 -2.09466 -2.46791 0
M  V30 3484 H 304.46 -3.66265 -0.761636 0
M  V30 3485 H 305.793 -4.81487 -1.02134 0
M  V30 3486 N 307.445 0.0818655 -1.57387 0
M  V30 3487 C 308.675 0.794954 -1.90694 0
M  V30 3488 C 309.083 1.72147 -0.784982 0
M  V30 3489 O 308.426 1.81974 0.251196 0
M  V30 3490 C 308.488 1.65042 -3.19376 0
M  V30 3491 C 308.152 0.894337 -4.48164 0
M  V30 3492 C 309.149 0.21813 -5.19442 0
M  V30 3493 C 306.834 0.864495 -4.94805 0
M  V30 3494 C 308.828 -0.477802 -6.35607 0
M  V30 3495 C 306.515 0.164785 -6.10878 0
M  V30 3496 C 307.513 -0.505173 -6.81129 0
M  V30 3497 O 307.201 -1.19363 -7.94989 0
M  V30 3498 H 306.933 0.231779 -0.635023 0
M  V30 3499 H 309.487 0.059493 -2.05314 0
M  V30 3500 H 307.717 2.42844 -3.00938 0
M  V30 3501 H 309.406 2.24127 -3.38411 0
M  V30 3502 H 310.172 0.232558 -4.84442 0
M  V30 3503 H 306.051 1.37542 -4.40004 0
M  V30 3504 H 309.595 -1.00129 -6.90377 0
M  V30 3505 H 305.492 0.148249 -6.4533 0
M  V30 3506 H 306.26 -1.10188 -8.11049 0
M  V30 3507 N 308.923 1.53595 0.353017 0
M  V30 3508 C 309.886 1.80232 1.41594 0
M  V30 3509 C 310.886 0.673081 1.46035 0
M  V30 3510 O 312.076 0.941335 1.46576 0
M  V30 3511 C 309.208 1.93578 2.80607 0
M  V30 3512 H 310.401 2.75174 1.19244 0
M  V30 3513 H 307.954 1.44864 0.586872 0
M  V30 3514 H 308.689 1.00746 3.08254 0
M  V30 3515 H 308.474 2.75724 2.78781 0
M  V30 3516 H 309.964 2.15735 3.57558 0
M  V30 3517 N 310.401 -0.613514 1.45168 0
M  V30 3518 C 311.348 -1.72456 1.53387 0
M  V30 3519 C 312.318 -1.6169 0.380191 0
M  V30 3520 O 313.503 -1.81356 0.592836 0
M  V30 3521 C 310.643 -3.10753 1.50088 0
M  V30 3522 C 309.756 -3.32368 2.75963 0
M  V30 3523 C 308.891 -4.60737 2.64376 0
M  V30 3524 C 307.93 -4.7559 3.85332 0
M  V30 3525 N 307.067 -5.95253 3.72315 0
M  V30 3526 H 311.907 -1.64768 2.48305 0
M  V30 3527 H 309.444 -0.803503 1.23216 0
M  V30 3528 H 311.402 -3.90758 1.46164 0
M  V30 3529 H 310.032 -3.17413 0.587243 0
M  V30 3530 H 309.084 -2.4618 2.89999 0
M  V30 3531 H 310.396 -3.39218 3.65695 0
M  V30 3532 H 309.55 -5.48928 2.58385 0
M  V30 3533 H 308.289 -4.56275 1.72233 0
M  V30 3534 H 307.294 -3.85824 3.91688 0
M  V30 3535 H 308.519 -4.81854 4.78533 0
M  V30 3536 H 306.465 -5.91847 2.82937 0
M  V30 3537 H 306.382 -6.03236 4.55677 0
M  V30 3538 H 307.65 -6.85958 3.70246 0
M  V30 3539 N 311.879 -1.3236 -0.855495 0
M  V30 3540 C 312.809 -1.23833 -1.97958 0
M  V30 3541 C 313.79 -0.122361 -1.69659 0
M  V30 3542 O 314.975 -0.30939 -1.9172 0
M  V30 3543 C 312.105 -0.959772 -3.33775 0
M  V30 3544 C 311.059 -2.03689 -3.76424 0
M  V30 3545 C 310.385 -1.61075 -5.09862 0
M  V30 3546 C 311.685 -3.4518 -3.9198 0
M  V30 3547 H 313.379 -2.1788 -2.0535 0
M  V30 3548 H 310.925 -1.04891 -0.986605 0
M  V30 3549 H 312.878 -0.886678 -4.11966 0
M  V30 3550 H 311.602 0.0163404 -3.26596 0
M  V30 3551 H 310.261 -2.10012 -3.00484 0
M  V30 3552 H 309.909 -0.622107 -4.99138 0
M  V30 3553 H 309.609 -2.33143 -5.39368 0
M  V30 3554 H 311.133 -1.55201 -5.90546 0
M  V30 3555 H 312.547 -3.4145 -4.60526 0
M  V30 3556 H 310.944 -4.1559 -4.32903 0
M  V30 3557 H 312.014 -3.84903 -2.94919 0
M  V30 3558 N 313.357 1.07166 -1.15556 0
M  V30 3559 C 314.287 2.16403 -0.877046 0
M  V30 3560 C 315.268 1.69217 0.173111 0
M  V30 3561 O 316.453 1.94181 0.027084 0
M  V30 3562 C 313.583 3.45349 -0.367632 0
M  V30 3563 C 312.537 4.05995 -1.35468 0
M  V30 3564 C 311.863 5.30045 -0.704038 0
M  V30 3565 C 313.163 4.45804 -2.72132 0
M  V30 3566 H 314.857 2.39959 -1.79053 0
M  V30 3567 H 312.403 1.15325 -0.862331 0
M  V30 3568 H 314.356 4.21095 -0.160317 0
M  V30 3569 H 313.08 3.21385 0.581326 0
M  V30 3570 H 311.739 3.32296 -1.54839 0
M  V30 3571 H 311.387 5.02373 0.251128 0
M  V30 3572 H 311.087 5.71579 -1.36277 0
M  V30 3573 H 312.611 6.08495 -0.50654 0
M  V30 3574 H 314.025 5.12671 -2.56595 0
M  V30 3575 H 312.422 4.98296 -3.34397 0
M  V30 3576 H 313.492 3.57083 -3.28054 0
M  V30 3577 N 314.835 0.952656 1.25548 0
M  V30 3578 C 315.798 0.475794 2.24207 0
M  V30 3579 C 316.798 -0.419428 1.55234 0
M  V30 3580 O 317.988 -0.216994 1.72843 0
M  V30 3581 C 315.12 -0.312814 3.39462 0
M  V30 3582 H 316.313 1.34779 2.67908 0
M  V30 3583 H 313.866 0.735739 1.37901 0
M  V30 3584 H 314.601 -1.20257 3.01179 0
M  V30 3585 H 314.386 0.329404 3.90714 0
M  V30 3586 H 315.876 -0.635986 4.12729 0
M  V30 3587 N 316.313 -1.40141 0.720998 0
M  V30 3588 C 317.26 -2.30688 0.071919 0
M  V30 3589 C 318.23 -1.48476 -0.744584 0
M  V30 3590 O 319.415 -1.77201 -0.707423 0
M  V30 3591 C 316.555 -3.34724 -0.839855 0
M  V30 3592 C 315.668 -4.31998 -0.0122438 0
M  V30 3593 C 314.803 -5.23102 -0.923995 0
M  V30 3594 C 313.842 -6.12033 -0.0907969 0
M  V30 3595 N 312.979 -6.95537 -0.957718 0
M  V30 3596 H 317.819 -2.85628 0.849755 0
M  V30 3597 H 315.356 -1.40653 0.430726 0
M  V30 3598 H 317.314 -3.93618 -1.38279 0
M  V30 3599 H 315.944 -2.81274 -1.58381 0
M  V30 3600 H 314.996 -3.74841 0.64794 0
M  V30 3601 H 316.308 -4.94772 0.632595 0
M  V30 3602 H 315.462 -5.86953 -1.53527 0
M  V30 3603 H 314.201 -4.60615 -1.60264 0
M  V30 3604 H 313.206 -5.47207 0.533377 0
M  V30 3605 H 314.431 -6.76581 0.584428 0
M  V30 3606 H 312.377 -6.35633 -1.62192 0
M  V30 3607 H 312.294 -7.55099 -0.36904 0
M  V30 3608 H 313.562 -7.63832 -1.555 0
M  V30 3609 N 317.792 -0.46758 -1.50504 0
M  V30 3610 C 319.208 -0.121533 -1.59137 0
M  V30 3611 C 319.408 1.3717 -1.47603 0
M  V30 3612 O 318.464 2.14464 -1.33272 0
M  V30 3613 C 319.777 -0.6686 -2.93173 0
M  V30 3614 C 321.325 -0.631716 -3.06559 0
M  V30 3615 C 321.8 -1.15627 -4.43164 0
M  V30 3616 N 323.291 -1.11553 -4.49567 0
M  V30 3617 C 324.026 -1.49195 -5.5365 0
M  V30 3618 N 323.522 -1.94269 -6.65005 0
M  V30 3619 N 325.315 -1.4082 -5.44175 0
M  V30 3620 H 317.466 -1.4388 -1.56245 0
M  V30 3621 H 319.729 -0.594784 -0.738198 0
M  V30 3622 H 319.435 -1.71453 -3.07078 0
M  V30 3623 H 319.309 -0.11021 -3.77039 0
M  V30 3624 H 321.696 0.405297 -2.92304 0
M  V30 3625 H 321.777 -1.22687 -2.24458 0
M  V30 3626 H 321.421 -2.1919 -4.58168 0
M  V30 3627 H 321.351 -0.537365 -5.23851 0
M  V30 3628 H 323.842 -0.784895 -3.69659 0
M  V30 3629 H 324.155 -2.21148 -7.40482 0
M  V30 3630 H 322.5 -1.98219 -6.66134 0
M  V30 3631 H 325.691 -1.0545 -4.56068 0
M  V30 3632 H 325.864 -1.70481 -6.25172 0
M  V30 3633 N 319.27 1.56325 -0.20005 0
M  V30 3634 C 320.203 2.15234 0.758267 0
M  V30 3635 C 321.181 1.09046 1.20614 0
M  V30 3636 O 322.365 1.37186 1.29276 0
M  V30 3637 C 319.492 2.71524 2.02466 0
M  V30 3638 C 318.538 3.90345 1.71852 0
M  V30 3639 S 319.371 5.28513 0.862249 0
M  V30 3640 C 320.527 5.88227 2.13868 0
M  V30 3641 H 320.76 2.96183 0.2575 0
M  V30 3642 H 318.293 1.54393 0.0150099 0
M  V30 3643 H 320.251 3.04598 2.75191 0
M  V30 3644 H 318.912 1.90607 2.49655 0
M  V30 3645 H 318.105 4.28158 2.65888 0
M  V30 3646 H 317.707 3.58306 1.07205 0
M  V30 3647 H 319.999 6.02891 3.09076 0
M  V30 3648 H 320.942 6.84714 1.80479 0
M  V30 3649 H 321.35 5.16874 2.2694 0
M  V30 3650 N 320.748 -0.0735177 1.57428 0
M  V30 3651 C 321.695 -1.08756 2.0357 0
M  V30 3652 C 322.665 -1.38559 0.916 0
M  V30 3653 O 323.85 -1.49656 1.18354 0
M  V30 3654 C 320.99 -2.39657 2.48311 0
M  V30 3655 C 320.103 -2.16399 3.73892 0
M  V30 3656 C 319.238 -3.40852 4.07423 0
M  V30 3657 C 318.277 -3.1295 5.2605 0
M  V30 3658 N 317.414 -4.29729 5.55228 0
M  V30 3659 H 322.254 -0.687104 2.8997 0
M  V30 3660 H 319.791 -0.327709 1.43403 0
M  V30 3661 H 321.749 -3.16081 2.72303 0
M  V30 3662 H 320.379 -2.77508 1.64891 0
M  V30 3663 H 319.431 -1.30676 3.57251 0
M  V30 3664 H 320.743 -1.91788 4.60455 0
M  V30 3665 H 319.897 -4.25671 4.32306 0
M  V30 3666 H 318.636 -3.68537 3.19425 0
M  V30 3667 H 317.641 -2.26526 5.00965 0
M  V30 3668 H 318.866 -2.86589 6.15665 0
M  V30 3669 H 316.812 -4.57448 4.70188 0
M  V30 3670 H 316.729 -4.08385 6.36206 0
M  V30 3671 H 317.997 -5.1555 5.84661 0
M  V30 3672 N 322.226 -1.5378 -0.344866 0
M  V30 3673 C 323.136 -1.84667 -1.4469 0
M  V30 3674 C 324.152 -0.736704 -1.57635 0
M  V30 3675 O 325.328 -1.02888 -1.73136 0
M  V30 3676 C 322.393 -2.04869 -2.79696 0
M  V30 3677 C 321.454 -3.28731 -2.76106 0
M  V30 3678 C 320.687 -3.4796 -4.04673 0
M  V30 3679 O 320.91 -2.71052 -5.01883 0
M  V30 3680 O 319.844 -4.41383 -4.09224 0
M  V30 3681 H 323.67 -2.78334 -1.21506 0
M  V30 3682 H 321.255 -1.39418 -0.536921 0
M  V30 3683 H 323.137 -2.19609 -3.59652 0
M  V30 3684 H 321.812 -1.14391 -3.02814 0
M  V30 3685 H 320.719 -3.19396 -1.94774 0
M  V30 3686 H 322.052 -4.19198 -2.57941 0
M  V30 3687 N 323.704 0.605807 -1.45491 0
M  V30 3688 C 324.667 1.69836 -1.5391 0
M  V30 3689 C 325.667 1.55261 -0.418424 0
M  V30 3690 O 326.857 1.60296 -0.681965 0
M  V30 3691 C 323.989 3.09117 -1.43734 0
M  V30 3692 H 325.182 1.63738 -2.51257 0
M  V30 3693 H 322.735 0.821689 -1.32959 0
M  V30 3694 H 323.47 3.20791 -0.475788 0
M  V30 3695 H 323.255 3.21104 -2.25021 0
M  V30 3696 H 324.745 3.88696 -1.52661 0
M  V30 3697 N 325.182 1.32811 0.848464 0
M  V30 3698 C 326.129 1.22265 1.95755 0
M  V30 3699 C 327.099 0.103413 1.65778 0
M  V30 3700 O 328.284 0.280033 1.88734 0
M  V30 3701 C 325.424 0.958014 3.31536 0
M  V30 3702 C 324.537 2.16262 3.73971 0
M  V30 3703 C 323.672 1.83295 4.98575 0
M  V30 3704 C 322.711 3.00041 5.33518 0
M  V30 3705 N 321.848 2.67125 6.49299 0
M  V30 3706 H 326.688 2.17128 2.04107 0
M  V30 3707 H 324.225 1.07982 0.998913 0
M  V30 3708 H 326.183 0.785052 4.09747 0
M  V30 3709 H 324.813 0.046159 3.22767 0
M  V30 3710 H 323.865 2.44565 2.91362 0
M  V30 3711 H 325.177 3.03572 3.95785 0
M  V30 3712 H 324.331 1.62586 5.84509 0
M  V30 3713 H 323.07 0.932078 4.7871 0
M  V30 3714 H 322.075 3.21374 4.46093 0
M  V30 3715 H 323.3 3.90869 5.55336 0
M  V30 3716 H 321.246 1.79586 6.3094 0
M  V30 3717 H 321.163 3.47965 6.71161 0
M  V30 3718 H 322.431 2.49861 7.3837 0
M  V30 3719 N 326.66 -1.06551 1.16123 0
M  V30 3720 C 327.57 -2.17484 0.879662 0
M  V30 3721 C 328.586 -1.73377 -0.147104 0
M  V30 3722 O 329.762 -2.01379 0.0289128 0
M  V30 3723 C 326.827 -3.44591 0.381829 0
M  V30 3724 C 325.888 -4.0322 1.4735 0
M  V30 3725 C 325.121 -5.24261 0.999324 0
M  V30 3726 O 325.344 -5.70198 -0.151957 0
M  V30 3727 O 324.278 -5.74775 1.78653 0
M  V30 3728 H 328.104 -2.44075 1.80724 0
M  V30 3729 H 325.689 -1.16042 0.940992 0
M  V30 3730 H 327.571 -4.21254 0.111053 0
M  V30 3731 H 326.246 -3.19532 -0.51777 0
M  V30 3732 H 325.153 -3.2806 1.79798 0
M  V30 3733 H 326.486 -4.32568 2.34831 0
M  V30 3734 N 328.138 -0.959301 -1.25041 0
M  V30 3735 C 329.085 -0.482057 -2.2571 0
M  V30 3736 C 330.055 0.467939 -1.59372 0
M  V30 3737 O 331.24 0.380159 -1.86974 0
M  V30 3738 C 328.38 0.229623 -3.44335 0
M  V30 3739 C 327.493 -0.758156 -4.25295 0
M  V30 3740 C 326.628 -0.0234403 -5.31195 0
M  V30 3741 C 325.667 -1.00184 -6.03846 0
M  V30 3742 N 324.804 -0.29769 -7.01469 0
M  V30 3743 H 329.644 -1.34538 -2.65901 0
M  V30 3744 H 327.181 -0.674592 -1.3072 0
M  V30 3745 H 329.139 0.658856 -4.11965 0
M  V30 3746 H 327.769 1.05696 -3.05005 0
M  V30 3747 H 326.821 -1.30586 -3.57284 0
M  V30 3748 H 328.133 -1.50458 -4.75567 0
M  V30 3749 H 327.287 0.464201 -6.04922 0
M  V30 3750 H 326.026 0.755741 -4.81809 0
M  V30 3751 H 325.031 -1.50044 -5.2893 0
M  V30 3752 H 326.256 -1.78133 -6.55321 0
M  V30 3753 H 324.202 0.462668 -6.54366 0
M  V30 3754 H 324.119 -0.983128 -7.4958 0
M  V30 3755 H 325.387 0.16826 -7.79318 0
M  V30 3756 N 329.616 1.39756 -0.72842 0
M  V30 3757 C 331.032 1.5442 -0.403308 0
M  V30 3758 C 331.232 1.69694 1.08656 0
M  V30 3759 O 330.288 1.69373 1.87267 0
M  V30 3760 C 331.601 2.76555 -1.18058 0
M  V30 3761 C 333.149 2.90384 -1.16815 0
M  V30 3762 C 333.624 4.15449 -1.92785 0
M  V30 3763 N 335.115 4.22475 -1.89918 0
M  V30 3764 C 335.85 5.1818 -2.45514 0
M  V30 3765 N 335.346 6.19714 -3.09719 0
M  V30 3766 N 337.139 5.1035 -2.35584 0
M  V30 3767 H 329.29 1.28089 -1.69431 0
M  V30 3768 H 331.553 0.620327 -0.716867 0
M  V30 3769 H 331.259 2.7159 -2.23455 0
M  V30 3770 H 331.133 3.69033 -0.780662 0
M  V30 3771 H 333.52 2.94846 -0.12234 0
M  V30 3772 H 333.601 1.98988 -1.6074 0
M  V30 3773 H 333.245 4.11749 -2.97364 0
M  V30 3774 H 333.175 5.05877 -1.46272 0
M  V30 3775 H 335.666 3.49743 -1.43138 0
M  V30 3776 H 335.979 6.8919 -3.49625 0
M  V30 3777 H 334.324 6.20121 -3.13807 0
M  V30 3778 H 337.515 4.2996 -1.85072 0
M  V30 3779 H 337.688 5.84761 -2.79211 0
M  V30 3780 N 331.094 0.475555 1.50254 0
M  V30 3781 C 332.026 -0.352649 2.26471 0
M  V30 3782 C 333.039 -0.953165 1.3198 0
M  V30 3783 O 334.228 -0.840815 1.57457 0
M  V30 3784 C 331.328 -1.50902 3.0345 0
M  V30 3785 C 330.501 -1.02047 4.25329 0
M  V30 3786 C 329.56 -2.05142 4.84565 0
M  V30 3787 O 328.586 -1.63023 5.45355 0
M  V30 3788 N 329.788 -3.37987 4.71959 0
M  V30 3789 H 332.553 0.300767 2.98187 0
M  V30 3790 H 330.114 0.306598 1.5897 0
M  V30 3791 H 332.106 -2.19572 3.39956 0
M  V30 3792 H 330.676 -2.06705 2.34504 0
M  V30 3793 H 329.896 -0.159507 3.93877 0
M  V30 3794 H 331.184 -0.672061 5.04342 0
M  V30 3795 H 330.582 -3.74913 4.23623 0
M  V30 3796 H 329.139 -4.02443 5.12721 0
M  V30 3797 N 332.573 -1.56217 0.208337 0
M  V30 3798 C 333.483 -2.23316 -0.718836 0
M  V30 3799 C 334.499 -1.23648 -1.22422 0
M  V30 3800 O 335.675 -1.56423 -1.26861 0
M  V30 3801 C 332.74 -2.88968 -1.91568 0
M  V30 3802 C 331.801 -4.03943 -1.45357 0
M  V30 3803 C 331.034 -4.66455 -2.59337 0
M  V30 3804 O 331.257 -4.27919 -3.77149 0
M  V30 3805 O 330.191 -5.55686 -2.31293 0
M  V30 3806 H 334.017 -3.03182 -0.177315 0
M  V30 3807 H 331.602 -1.49384 -0.0215402 0
M  V30 3808 H 333.484 -3.30455 -2.61491 0
M  V30 3809 H 332.159 -2.12071 -2.44556 0
M  V30 3810 H 331.066 -3.67052 -0.722746 0
M  V30 3811 H 332.399 -4.82543 -0.970219 0
M  V30 3812 N 334.051 0.0651679 -1.57465 0
M  V30 3813 C 334.983 1.10359 -2.00882 0
M  V30 3814 C 335.996 1.346 -0.915788 0
M  V30 3815 O 337.185 1.32723 -1.1936 0
M  V30 3816 C 334.285 2.45312 -2.33828 0
M  V30 3817 C 333.458 2.40934 -3.65061 0
M  V30 3818 C 332.517 3.58047 -3.85602 0
M  V30 3819 O 331.543 3.39175 -4.57109 0
M  V30 3820 N 332.745 4.78637 -3.28462 0
M  V30 3821 H 335.51 0.733807 -2.90578 0
M  V30 3822 H 333.071 0.253719 -1.599 0
M  V30 3823 H 335.063 3.22314 -2.44737 0
M  V30 3824 H 333.633 2.74267 -1.49988 0
M  V30 3825 H 332.853 1.49273 -3.64844 0
M  V30 3826 H 334.141 2.35117 -4.51218 0
M  V30 3827 H 333.539 4.96872 -2.70433 0
M  V30 3828 H 332.096 5.53127 -3.44809 0
M  V30 3829 N 335.529 1.53961 0.336706 0
M  V30 3830 C 336.778 1.70751 1.07363 0
M  V30 3831 C 337.091 0.481061 1.89592 0
M  V30 3832 O 338.297 0.530046 2.66276 0
M  V30 3833 C 336.753 3.01965 1.95818 0
M  V30 3834 C 336.361 4.31971 1.18764 0
M  V30 3835 C 338.105 3.28121 2.69327 0
M  V30 3836 C 336.012 5.54255 2.06289 0
M  V30 3837 H 334.942 0.636292 0.404535 0
M  V30 3838 H 337.593 1.80459 0.332681 0
M  V30 3839 H 335.975 2.86132 2.7376 0
M  V30 3840 H 337.149 4.5853 0.456849 0
M  V30 3841 H 335.464 4.12481 0.569946 0
M  V30 3842 H 338.061 4.16673 3.35094 0
M  V30 3843 H 338.404 2.45426 3.36261 0
M  V30 3844 H 338.937 3.44762 1.98454 0
M  V30 3845 H 335.676 6.39513 1.43885 0
M  V30 3846 H 335.196 5.31935 2.77138 0
M  V30 3847 H 336.875 5.90159 2.65182 0
M  V30 3848 N 337.007 -0.598083 1.45811 0
M  V30 3849 C 337.97 -1.69018 1.54808 0
M  V30 3850 C 338.97 -1.55037 0.426652 0
M  V30 3851 O 340.16 -1.59932 0.690456 0
M  V30 3852 C 337.292 -3.0835 1.45371 0
M  V30 3853 H 338.485 -1.62403 2.52121 0
M  V30 3854 H 336.038 -0.814626 1.33392 0
M  V30 3855 H 336.773 -3.20534 0.492793 0
M  V30 3856 H 336.558 -3.19907 2.26721 0
M  V30 3857 H 338.048 -3.8788 1.54721 0
M  V30 3858 N 338.485 -1.33259 -0.841409 0
M  V30 3859 C 339.432 -1.23302 -1.95103 0
M  V30 3860 C 340.402 -0.112204 -1.65721 0
M  V30 3861 O 341.587 -0.290038 -1.88583 0
M  V30 3862 C 338.727 -0.975583 -3.31023 0
M  V30 3863 C 337.84 -2.18243 -3.72819 0
M  V30 3864 C 336.975 -1.85936 -4.97595 0
M  V30 3865 C 336.014 -3.02866 -5.3192 0
M  V30 3866 N 335.151 -2.70565 -6.47873 0
M  V30 3867 H 339.991 -2.18207 -2.02952 0
M  V30 3868 H 337.528 -1.0851 -0.993173 0
M  V30 3869 H 339.486 -0.80677 -4.09325 0
M  V30 3870 H 338.116 -0.0632755 -3.22738 0
M  V30 3871 H 337.168 -2.46107 -2.90061 0
M  V30 3872 H 338.48 -3.05666 -3.94169 0
M  V30 3873 H 337.634 -1.65684 -5.83638 0
M  V30 3874 H 336.373 -0.957452 -4.78209 0
M  V30 3875 H 335.378 -3.23736 -4.44382 0
M  V30 3876 H 336.603 -3.93809 -5.53255 0
M  V30 3877 H 334.549 -1.8293 -6.29978 0
M  V30 3878 H 334.466 -3.51519 -6.69306 0
M  V30 3879 H 335.734 -2.53774 -7.37034 0
M  V30 3880 N 339.963 1.05934 -1.16686 0
M  V30 3881 C 341.379 1.30938 -0.912542 0
M  V30 3882 C 341.579 1.96803 0.432533 0
M  V30 3883 O 340.635 2.23693 1.17123 0
M  V30 3884 C 341.948 2.18649 -2.06429 0
M  V30 3885 C 343.496 2.32055 -2.10047 0
M  V30 3886 C 343.971 3.23122 -3.24586 0
M  V30 3887 N 345.462 3.30706 -3.24327 0
M  V30 3888 C 346.197 4.01273 -4.09594 0
M  V30 3889 N 345.693 4.74332 -5.04956 0
M  V30 3890 N 347.486 3.97361 -3.97569 0
M  V30 3891 H 339.637 0.615777 -2.03278 0
M  V30 3892 H 341.9 0.334077 -0.887185 0
M  V30 3893 H 341.606 1.77534 -3.03603 0
M  V30 3894 H 341.48 3.19252 -2.00894 0
M  V30 3895 H 343.867 2.72415 -1.13464 0
M  V30 3896 H 343.948 1.31107 -2.19647 0
M  V30 3897 H 343.592 2.83477 -4.2143 0
M  V30 3898 H 343.522 4.24057 -3.12223 0
M  V30 3899 H 346.013 2.78644 -2.55276 0
M  V30 3900 H 346.326 5.25716 -5.6643 0
M  V30 3901 H 344.671 4.733 -5.08933 0
M  V30 3902 H 347.862 3.39405 -3.22369 0
M  V30 3903 H 348.035 4.52089 -4.64241 0
M  V30 3904 N 341.441 0.965919 1.2453 0
M  V30 3905 C 342.857 0.67216 1.44756 0
M  V30 3906 C 343.057 -0.766609 1.86347 0
M  V30 3907 O 342.113 -1.5407 2.00047 0
M  V30 3908 C 343.426 1.65473 2.51076 0
M  V30 3909 C 344.974 1.66716 2.64905 0
M  V30 3910 C 345.449 2.63766 3.74421 0
M  V30 3911 N 346.94 2.62198 3.81846 0
M  V30 3912 C 347.675 3.33966 4.66106 0
M  V30 3913 N 347.171 4.15245 5.54566 0
M  V30 3914 N 348.964 3.22799 4.60171 0
M  V30 3915 H 341.115 1.89553 0.958293 0
M  V30 3916 H 343.378 0.815979 0.482579 0
M  V30 3917 H 343.084 2.68296 2.27399 0
M  V30 3918 H 342.958 1.4261 3.49202 0
M  V30 3919 H 345.345 0.646057 2.87941 0
M  V30 3920 H 345.426 1.93642 1.67142 0
M  V30 3921 H 345.07 3.6601 3.52135 0
M  V30 3922 H 345 2.34121 4.71694 0
M  V30 3923 H 347.491 2.032 3.18619 0
M  V30 3924 H 347.804 4.66898 6.15814 0
M  V30 3925 H 346.149 4.1934 5.54237 0
M  V30 3926 H 349.34 2.58764 3.90075 0
M  V30 3927 H 349.513 3.78994 5.25612 0
M  V30 3928 N 342.919 -1.39368 0.735821 0
M  V30 3929 C 344.335 -1.54204 0.411492 0
M  V30 3930 C 344.535 -1.70268 -1.07755 0
M  V30 3931 O 343.591 -1.70364 -1.86366 0
M  V30 3932 C 344.904 -2.75925 1.19523 0
M  V30 3933 C 346.452 -2.89761 1.18354 0
M  V30 3934 C 346.927 -4.14421 1.94986 0
M  V30 3935 N 348.418 -4.21462 1.92156 0
M  V30 3936 C 349.153 -5.16871 2.48258 0
M  V30 3937 N 348.649 -6.18063 3.13001 0
M  V30 3938 N 350.442 -5.09093 2.38287 0
M  V30 3939 H 342.593 -1.27189 1.70108 0
M  V30 3940 H 344.856 -0.616517 0.720147 0
M  V30 3941 H 344.562 -2.70401 2.24892 0
M  V30 3942 H 344.436 -3.68614 0.800222 0
M  V30 3943 H 346.823 -2.94777 0.137975 0
M  V30 3944 H 346.904 -1.98133 1.61793 0
M  V30 3945 H 346.548 -4.10166 2.99543 0
M  V30 3946 H 346.478 -5.05095 1.48953 0
M  V30 3947 H 348.969 -3.48979 1.44991 0
M  V30 3948 H 349.282 -6.87326 3.53275 0
M  V30 3949 H 347.627 -6.18448 3.17091 0
M  V30 3950 H 350.818 -4.28973 1.8735 0
M  V30 3951 H 350.991 -5.83272 2.82308 0
M  V30 3952 N 344.397 -0.483516 -1.5 0
M  V30 3953 C 345.327 0.293829 -2.31644 0
M  V30 3954 C 346.308 0.978864 -1.39112 0
M  V30 3955 O 347.493 0.973644 -1.68029 0
M  V30 3956 C 344.623 1.36897 -3.19181 0
M  V30 3957 C 343.577 0.804833 -4.20365 0
M  V30 3958 C 342.903 1.9792 -4.96721 0
M  V30 3959 C 344.203 -0.192313 -5.21946 0
M  V30 3960 H 345.897 -0.387616 -2.9688 0
M  V30 3961 H 343.443 -0.187856 -1.42769 0
M  V30 3962 H 345.396 1.92037 -3.751 0
M  V30 3963 H 344.12 2.07936 -2.51853 0
M  V30 3964 H 342.779 0.275319 -3.65565 0
M  V30 3965 H 342.427 2.67686 -4.25856 0
M  V30 3966 H 342.127 1.60789 -5.65173 0
M  V30 3967 H 343.651 2.53526 -5.55479 0
M  V30 3968 H 345.065 0.270333 -5.72662 0
M  V30 3969 H 343.462 -0.478543 -5.98189 0
M  V30 3970 H 344.532 -1.11409 -4.71928 0
M  V30 3971 N 345.875 1.56104 -0.216619 0
M  V30 3972 C 347.1 2.0301 0.424462 0
M  V30 3973 C 347.525 1.0955 1.52907 0
M  V30 3974 O 346.883 0.0827914 1.81111 0
M  V30 3975 C 346.931 3.4819 0.937883 0
M  V30 3976 O 346.035 3.57865 2.04955 0
M  V30 3977 H 345.376 0.656925 0.0966755 0
M  V30 3978 H 347.906 2.01859 -0.33381 0
M  V30 3979 H 347.916 3.88413 1.24897 0
M  V30 3980 H 346.591 4.15699 0.129387 0
M  V30 3981 H 345.168 3.29527 1.74546 0
M  V30 3982 N 347.353 -0.0568162 1.57498 0
M  V30 3983 C 348.578 -0.769402 1.92601 0
M  V30 3984 C 349.003 -1.69559 0.814336 0
M  V30 3985 O 348.361 -1.79811 -0.231903 0
M  V30 3986 C 348.409 -1.52634 3.26704 0
M  V30 3987 O 347.513 -2.63797 3.16994 0
M  V30 3988 H 346.854 -0.208909 0.63028 0
M  V30 3989 H 349.384 -0.0205798 2.0459 0
M  V30 3990 H 349.394 -1.90234 3.60936 0
M  V30 3991 H 348.069 -0.846875 4.07186 0
M  V30 3992 H 346.646 -2.28943 2.94346 0
M  V30 3993 N 348.832 -1.54138 -0.328536 0
M  V30 3994 C 349.762 -1.86167 -1.40939 0
M  V30 3995 C 350.743 -0.718044 -1.54202 0
M  V30 3996 O 351.928 -0.971328 -1.68163 0
M  V30 3997 C 349.058 -2.08461 -2.77779 0
M  V30 3998 C 348.012 -3.24299 -2.7931 0
M  V30 3999 C 347.338 -3.31955 -4.19178 0
M  V30 4000 C 348.638 -4.62065 -2.43502 0
M  V30 4001 H 350.332 -2.76689 -1.14383 0
M  V30 4002 H 347.878 -1.33132 -0.548806 0
M  V30 4003 H 349.831 -2.29453 -3.53454 0
M  V30 4004 H 348.555 -1.14684 -3.05802 0
M  V30 4005 H 347.214 -3.03187 -2.0609 0
M  V30 4006 H 346.862 -2.35745 -4.44335 0
M  V30 4007 H 346.562 -4.09805 -4.2111 0
M  V30 4008 H 348.086 -3.55175 -4.96672 0
M  V30 4009 H 349.5 -4.8297 -3.08889 0
M  V30 4010 H 347.897 -5.42429 -2.56693 0
M  V30 4011 H 348.967 -4.64652 -1.38659 0
M  V30 4012 N 350.31 0.590341 -1.46126 0
M  V30 4013 C 351.726 0.912917 -1.30912 0
M  V30 4014 C 351.926 1.99616 -0.274893 0
M  V30 4015 O 350.982 2.50397 0.325197 0
M  V30 4016 C 352.295 1.3375 -2.69317 0
M  V30 4017 C 353.843 1.45077 -2.77348 0
M  V30 4018 C 354.318 1.90904 -4.16317 0
M  V30 4019 N 355.809 1.9811 -4.18696 0
M  V30 4020 C 356.544 2.34828 -5.23109 0
M  V30 4021 N 356.04 2.70393 -6.37856 0
M  V30 4022 N 357.833 2.35317 -5.10473 0
M  V30 4023 H 349.984 -0.125358 -2.1203 0
M  V30 4024 H 352.247 0.00658481 -0.947977 0
M  V30 4025 H 351.953 0.615614 -3.4627 0
M  V30 4026 H 351.827 2.30058 -2.9892 0
M  V30 4027 H 354.214 2.16353 -2.00687 0
M  V30 4028 H 354.295 0.4704 -2.51438 0
M  V30 4029 H 353.939 1.20209 -4.9347 0
M  V30 4030 H 353.869 2.89886 -4.39629 0
M  V30 4031 H 356.36 1.73146 -3.359 0
M  V30 4032 H 356.673 2.97341 -7.13308 0
M  V30 4033 H 355.018 2.68048 -6.41229 0
M  V30 4034 H 358.209 2.0695 -4.19868 0
M  V30 4035 H 358.382 2.63605 -5.9196 0
M  V30 4036 N 351.788 1.33704 0.83433 0
M  V30 4037 C 352.751 1.24244 1.92603 0
M  V30 4038 C 353.751 0.160383 1.59998 0
M  V30 4039 O 354.941 0.412228 1.69252 0
M  V30 4040 C 352.073 0.91555 3.28376 0
M  V30 4041 H 353.266 2.21287 2.02416 0
M  V30 4042 H 350.819 1.17827 1.02696 0
M  V30 4043 H 351.554 -0.0521886 3.24258 0
M  V30 4044 H 351.339 1.69811 3.53422 0
M  V30 4045 H 352.829 0.874231 4.08347 0
M  V30 4046 N 353.266 -1.05314 1.17247 0
M  V30 4047 C 354.491 -1.82509 0.985148 0
M  V30 4048 C 354.916 -1.82343 -0.461788 0
M  V30 4049 O 354.274 -1.23151 -1.33055 0
M  V30 4050 C 354.322 -3.26566 1.52929 0
M  V30 4051 O 353.426 -4.05666 0.742225 0
M  V30 4052 H 352.767 -0.564347 0.349869 0
M  V30 4053 H 355.297 -1.32718 1.55715 0
M  V30 4054 H 355.307 -3.77369 1.55103 0
M  V30 4055 H 353.982 -3.26001 2.58256 0
M  V30 4056 H 352.559 -3.64397 0.791794 0
M  V30 4057 N 354.744 -0.972509 -1.24016 0
M  V30 4058 C 355.972 -0.654803 -1.96265 0
M  V30 4059 C 356.387 0.776708 -1.72083 0
M  V30 4060 O 355.744 1.52171 -1.00748 0
M  V30 4061 C 355.795 -0.92592 -3.49441 0
M  V30 4062 O 355.516 -2.30116 -3.72798 0
M  V30 4063 C 357.017 -0.623068 -4.38899 0
M  V30 4064 H 354.237 -0.243907 -0.6251 0
M  V30 4065 H 356.781 -1.30175 -1.57717 0
M  V30 4066 H 354.936 -0.325108 -3.86033 0
M  V30 4067 H 355.35 -2.38483 -4.67147 0
M  V30 4068 H 356.824 -0.863189 -5.45209 0
M  V30 4069 H 357.301 0.442754 -4.36963 0
M  V30 4070 H 357.907 -1.204 -4.07902 0
M  V30 4071 N 356.222 1.38976 -0.743202 0
M  V30 4072 C 357.447 2.05161 -0.303936 0
M  V30 4073 C 357.872 1.55677 1.05576 0
M  V30 4074 O 357.23 0.704131 1.67068 0
M  V30 4075 C 357.278 3.59138 -0.324373 0
M  V30 4076 O 356.382 4.06668 0.685204 0
M  V30 4077 H 355.723 0.649815 -0.136518 0
M  V30 4078 H 358.253 1.77852 -1.01142 0
M  V30 4079 H 358.263 4.07639 -0.171618 0
M  V30 4080 H 356.938 3.94515 -1.31647 0
M  V30 4081 H 355.515 3.69561 0.497913 0
M  V30 4082 N 357.7 0.491464 1.49741 0
M  V30 4083 C 358.647 -0.292027 2.28945 0
M  V30 4084 C 359.617 -0.968973 1.34908 0
M  V30 4085 O 360.802 -0.97748 1.6386 0
M  V30 4086 C 357.942 -1.35617 3.17336 0
M  V30 4087 C 357.055 -0.691957 4.26422 0
M  V30 4088 C 356.19 -1.73572 5.02042 0
M  V30 4089 C 355.229 -1.05286 6.02977 0
M  V30 4090 N 354.366 -2.0404 6.71798 0
M  V30 4091 H 359.206 0.389654 2.95442 0
M  V30 4092 H 356.743 0.204003 1.45679 0
M  V30 4093 H 358.701 -1.98502 3.66951 0
M  V30 4094 H 357.331 -2.00674 2.52844 0
M  V30 4095 H 356.383 0.0499523 3.80367 0
M  V30 4096 H 357.695 -0.153946 4.98562 0
M  V30 4097 H 356.849 -2.43987 5.55478 0
M  V30 4098 H 355.588 -2.30757 4.29654 0
M  V30 4099 H 354.593 -0.334446 5.48782 0
M  V30 4100 H 355.818 -0.487636 6.77347 0
M  V30 4101 H 353.764 -2.60205 6.02187 0
M  V30 4102 H 353.681 -1.55279 7.39881 0
M  V30 4103 H 354.949 -2.73772 7.29842 0
M  V30 4104 N 359.178 -1.55987 0.224894 0
M  V30 4105 C 360.403 -2.03232 -0.41369 0
M  V30 4106 C 360.828 -1.10359 -1.52323 0
M  V30 4107 O 360.186 -0.092395 -1.81064 0
M  V30 4108 C 360.234 -3.48682 -0.919405 0
M  V30 4109 O 359.338 -3.58947 -2.03054 0
M  V30 4110 H 358.679 -0.657428 -0.0931903 0
M  V30 4111 H 361.209 -2.01679 0.34451 0
M  V30 4112 H 361.219 -3.8907 -1.22835 0
M  V30 4113 H 359.894 -4.15761 -0.107339 0
M  V30 4114 H 358.471 -3.30448 -1.72796 0
M  V30 4115 N 360.656 0.0484629 -1.57525 0
M  V30 4116 C 361.566 1.07241 -2.08654 0
M  V30 4117 C 362.582 1.409 -1.02095 0
M  V30 4118 O 363.758 1.50609 -1.33712 0
M  V30 4119 C 360.823 2.36008 -2.5397 0
M  V30 4120 C 359.884 2.09108 -3.7493 0
M  V30 4121 C 359.117 3.31736 -4.18075 0
M  V30 4122 O 359.34 4.41714 -3.60895 0
M  V30 4123 O 358.274 3.18576 -5.10679 0
M  V30 4124 H 362.1 0.667965 -2.96263 0
M  V30 4125 H 359.685 0.26417 -1.47046 0
M  V30 4126 H 361.567 3.11747 -2.83535 0
M  V30 4127 H 360.242 2.75786 -1.69481 0
M  V30 4128 H 359.149 1.31 -3.50414 0
M  V30 4129 H 360.482 1.74198 -4.60343 0
M  V30 4130 N 362.134 1.5431 0.320358 0
M  V30 4131 C 363.359 1.76954 1.08175 0
M  V30 4132 C 363.784 0.518193 1.80821 0
M  V30 4133 O 363.142 -0.530411 1.73368 0
M  V30 4134 C 363.19 2.96451 2.05303 0
M  V30 4135 O 362.294 2.68221 3.13259 0
M  V30 4136 H 361.635 0.586275 0.311733 0
M  V30 4137 H 364.165 2.01342 0.363676 0
M  V30 4138 H 364.175 3.23887 2.48116 0
M  V30 4139 H 362.85 3.87196 1.51829 0
M  V30 4140 H 361.427 2.51744 2.75099 0
M  V30 4141 N 363.613 -0.582584 1.46437 0
M  V30 4142 C 364.838 -1.37168 1.55563 0
M  V30 4143 C 365.263 -1.87061 0.19743 0
M  V30 4144 O 364.621 -1.61572 -0.822451 0
M  V30 4145 C 364.669 -2.53511 2.56446 0
M  V30 4146 O 363.773 -3.54953 2.09958 0
M  V30 4147 H 363.114 -0.408494 0.523477 0
M  V30 4148 H 365.644 -0.706646 1.9201 0
M  V30 4149 H 365.654 -3.00426 2.76058 0
M  V30 4150 H 364.329 -2.16549 3.55076 0
M  V30 4151 H 362.906 -3.14516 2.00334 0
M  V30 4152 N 365.091 -1.34144 -0.827227 0
M  V30 4153 C 366.023 -1.21206 -1.9453 0
M  V30 4154 C 367.036 -0.140176 -1.62195 0
M  V30 4155 O 368.225 -0.391647 -1.7415 0
M  V30 4156 C 365.325 -0.839141 -3.28347 0
M  V30 4157 C 364.498 -2.0051 -3.88734 0
M  V30 4158 C 363.557 -1.61128 -5.00923 0
M  V30 4159 O 362.583 -2.32726 -5.19449 0
M  V30 4160 N 363.785 -0.522958 -5.7814 0
M  V30 4161 H 366.55 -2.17525 -2.06162 0
M  V30 4162 H 364.111 -1.27043 -1.00358 0
M  V30 4163 H 366.103 -0.557556 -4.00841 0
M  V30 4164 H 364.673 0.0337293 -3.12582 0
M  V30 4165 H 363.893 -2.45166 -3.08686 0
M  V30 4166 H 365.181 -2.78498 -4.25812 0
M  V30 4167 H 364.579 0.0723518 -5.65654 0
M  V30 4168 H 363.136 -0.301089 -6.51104 0
M  V30 4169 N 366.569 1.04691 -1.17803 0
M  V30 4170 C 367.516 2.12557 -0.899343 0
M  V30 4171 C 368.486 1.65339 0.158771 0
M  V30 4172 O 369.671 1.90789 0.0204797 0
M  V30 4173 C 366.811 3.42481 -0.424315 0
M  V30 4174 C 365.924 4.03346 -1.54713 0
M  V30 4175 C 365.059 5.21208 -1.02546 0
M  V30 4176 C 364.098 5.74089 -2.12339 0
M  V30 4177 N 363.235 6.83247 -1.61612 0
M  V30 4178 H 368.075 2.35734 -1.823 0
M  V30 4179 H 365.612 1.1564 -0.909159 0
M  V30 4180 H 367.57 4.16996 -0.130421 0
M  V30 4181 H 366.2 3.19471 0.462377 0
M  V30 4182 H 365.252 3.2622 -1.95664 0
M  V30 4183 H 366.564 4.38628 -2.37501 0
M  V30 4184 H 365.718 6.02812 -0.685718 0
M  V30 4185 H 364.457 4.87414 -0.167084 0
M  V30 4186 H 363.462 4.91111 -2.47165 0
M  V30 4187 H 364.687 6.0993 -2.98601 0
M  V30 4188 H 362.633 6.5134 -0.780533 0
M  V30 4189 H 362.55 7.17559 -2.38003 0
M  V30 4190 H 363.818 7.68491 -1.30545 0
M  V30 4191 O 368.086 1.10799 1.17498 0
M  V30 4192 H 368.777 0.811108 1.759 0
M  V30 END ATOM
M  V30 BEGIN BOND
M  V30 END BOND
M  V30 END CTAB
M  END
$$$$
