drugbank_target|P62807 Histone H2B type 1-C/E/F/G/I (DB09130)
 OpenBabel12092121013D

  0  0  0     0  0            999 V3000
M  V30 BEGIN CTAB
M  V30 COUNTS 2017 2032 0 0 0
M  V30 BEGIN ATOM
M  V30 1 H -0.908 1.98254 -0.117106 0
M  V30 2 N 0 1.576 0 0
M  V30 3 C 0.933 2.03868 1.02534 0
M  V30 4 C 1.911 0.928543 1.3348 0
M  V30 5 O 3.095 1.19667 1.45644 0
M  V30 6 C 0.222 2.43627 2.35294 0
M  V30 7 C -0.732 3.65373 2.2001 0
M  V30 8 S 0.101 5.13292 1.52614 0
M  V30 9 C 1.257 5.56322 2.86805 0
M  V30 10 H 1.49 2.90518 0.631377 0
M  V30 11 H -0.977 1.52953 0.210867 0
M  V30 12 H 0.981 2.67203 3.11629 0
M  V30 13 H -0.358 1.57376 2.7183 0
M  V30 14 H -1.165 3.90944 3.18086 0
M  V30 15 H -1.563 3.418 1.51819 0
M  V30 16 H 0.729 5.58782 3.83104 0
M  V30 17 H 1.672 6.56266 2.65933 0
M  V30 18 H 2.08 4.83886 2.90714 0
M  V30 19 N 1.4781 -0.272755 1.55222 0
M  V30 20 C 2.8891 -0.84378 1.66545 0
M  V30 21 C 3.2401 -1.87035 0.592641 0
M  V30 22 O 2.3651 -2.14761 -0.265818 0
M  V30 23 C 2.9601 -1.53723 3.01918 0
M  V30 24 C 1.5191 -2.05628 3.15268 0
M  V30 25 C 0.6661 -0.898424 2.62343 0
M  V30 26 H 3.6171 -0.0490998 1.58624 0
M  V30 27 H 3.6381 -2.40421 2.94921 0
M  V30 28 H 3.1501 -0.78983 3.79978 0
M  V30 29 H 1.2511 -2.83329 2.41983 0
M  V30 30 H 1.3641 -2.27142 4.21833 0
M  V30 31 H -0.2719 -1.29186 2.19506 0
M  V30 32 H 0.5111 -0.164528 3.42906 0
M  V30 33 N 2.9562 -1.48159 -0.537278 0
M  V30 34 C 3.8662 -1.64807 -1.6696 0
M  V30 35 C 4.8822 -0.530651 -1.65711 0
M  V30 36 O 6.0582 -0.800784 -1.84796 0
M  V30 37 C 3.1232 -1.67708 -3.03438 0
M  V30 38 C 2.1842 -2.91025 -3.156 0
M  V30 39 C 1.4172 -2.93778 -4.45567 0
M  V30 40 O 1.6402 -2.05153 -5.3223 0
M  V30 41 O 0.5742 -3.85868 -4.61941 0
M  V30 42 H 4.4002 -2.6066 -1.55853 0
M  V30 43 H 1.9852 -1.31475 -0.709549 0
M  V30 44 H 3.8672 -1.7218 -3.84619 0
M  V30 45 H 2.5422 -0.750278 -3.14885 0
M  V30 46 H 1.4492 -2.92089 -2.33741 0
M  V30 47 H 2.7822 -3.83065 -3.09066 0
M  V30 48 N 4.4343 0.785586 -1.36625 0
M  V30 49 C 5.8453 1.36101 -1.27803 0
M  V30 50 C 6.1963 1.96035 0.0804875 0
M  V30 51 O 5.3213 1.92834 0.982042 0
M  V30 52 C 5.9163 2.47442 -2.31426 0
M  V30 53 C 4.4753 3.00789 -2.26281 0
M  V30 54 C 3.6223 1.73896 -2.15999 0
M  V30 55 H 6.5733 0.586928 -1.47448 0
M  V30 56 H 6.5943 3.2656 -1.95291 0
M  V30 57 H 6.1063 2.03791 -3.30289 0
M  V30 58 H 4.2073 3.48851 -1.30896 0
M  V30 59 H 4.3203 3.57343 -3.19128 0
M  V30 60 H 2.6843 1.9628 -1.62316 0
M  V30 61 H 3.4673 1.32368 -3.16755 0
M  V30 62 N 5.9124 1.20967 1.01018 0
M  V30 63 C 6.8754 0.965918 2.07853 0
M  V30 64 C 7.8754 -0.0610545 1.60684 0
M  V30 65 O 9.0654 0.175681 1.73312 0
M  V30 66 C 6.1974 0.455513 3.37843 0
M  V30 67 H 7.3904 1.91365 2.3091 0
M  V30 68 H 4.9434 1.02594 1.17916 0
M  V30 69 H 5.6784 -0.497381 3.20463 0
M  V30 70 H 5.4634 1.19622 3.73407 0
M  V30 71 H 6.9534 0.304667 4.16487 0
M  V30 72 N 7.3905 -1.2043 1.01659 0
M  V30 73 C 8.3375 -2.23215 0.586822 0
M  V30 74 C 9.3075 -1.61382 -0.393085 0
M  V30 75 O 10.4925 -1.88544 -0.292525 0
M  V30 76 C 7.6325 -3.45032 -0.0687464 0
M  V30 77 C 6.7455 -4.21296 0.955724 0
M  V30 78 C 5.8805 -5.30507 0.271208 0
M  V30 79 C 4.9195 -5.98515 1.28244 0
M  V30 80 N 4.0565 -6.99316 0.62459 0
M  V30 81 H 8.8965 -2.59336 1.46796 0
M  V30 82 H 6.4335 -1.27431 0.734836 0
M  V30 83 H 8.3915 -4.1459 -0.465965 0
M  V30 84 H 7.0215 -3.09604 -0.913529 0
M  V30 85 H 6.0735 -3.50803 1.4711 0
M  V30 86 H 7.3855 -4.6803 1.72479 0
M  V30 87 H 6.5395 -6.06428 -0.18151 0
M  V30 88 H 5.2785 -4.8481 -0.530163 0
M  V30 89 H 4.2835 -5.21355 1.74554 0
M  V30 90 H 5.5085 -6.46298 2.08509 0
M  V30 91 H 3.4545 -6.55812 -0.156914 0
M  V30 92 H 3.3715 -7.44178 1.33172 0
M  V30 93 H 4.6395 -7.79255 0.195462 0
M  V30 94 N 8.8686 -0.792821 -1.36206 0
M  V30 95 C 10.0936 -0.377701 -2.03932 0
M  V30 96 C 10.5186 0.998947 -1.59382 0
M  V30 97 O 9.8766 1.64421 -0.763903 0
M  V30 98 C 9.9246 -0.453635 -3.57735 0
M  V30 99 O 9.0286 0.538151 -4.08874 0
M  V30 100 H 8.3696 -0.159855 -0.644471 0
M  V30 101 H 10.8996 -1.07488 -1.7409 0
M  V30 102 H 10.9096 -0.318464 -4.06755 0
M  V30 103 H 9.5846 -1.45784 -3.89512 0
M  V30 104 H 8.1616 0.364359 -3.71116 0
M  V30 105 N 10.3467 1.47872 -0.545128 0
M  V30 106 C 11.3097 2.28337 0.198717 0
M  V30 107 C 12.3097 1.36255 0.853888 0
M  V30 108 O 13.4997 1.59003 0.711606 0
M  V30 109 C 10.6317 3.15585 1.28915 0
M  V30 110 H 11.8247 2.95567 -0.507941 0
M  V30 111 H 9.3777 1.53362 -0.301616 0
M  V30 112 H 10.1127 2.53019 2.02859 0
M  V30 113 H 9.8977 3.83337 0.824309 0
M  V30 114 H 11.3877 3.76243 1.81194 0
M  V30 115 N 11.8248 0.280983 1.55075 0
M  V30 116 C 13.2358 -0.215629 1.85451 0
M  V30 117 C 13.5868 -1.54991 1.203 0
M  V30 118 O 12.7118 -2.10699 0.493435 0
M  V30 119 C 13.3068 -0.398026 3.36454 0
M  V30 120 C 11.8658 -0.838866 3.66933 0
M  V30 121 C 11.0128 0.064458 2.77225 0
M  V30 122 H 13.9638 0.502601 1.50531 0
M  V30 123 H 13.9848 -1.23569 3.59876 0
M  V30 124 H 13.4968 0.573241 3.83843 0
M  V30 125 H 11.5978 -1.8214 3.25048 0
M  V30 126 H 11.7108 -0.672123 4.74362 0
M  V30 127 H 10.0748 -0.452863 2.50642 0
M  V30 128 H 10.8578 1.03172 3.2743 0
M  V30 129 N 13.3029 -1.57598 0.00835791 0
M  V30 130 C 14.2659 -2.07884 -0.965242 0
M  V30 131 C 15.2659 -0.989825 -1.26725 0
M  V30 132 O 16.4559 -1.25218 -1.21104 0
M  V30 133 C 13.5879 -2.52731 -2.28779 0
M  V30 134 H 14.7809 -2.95178 -0.530112 0
M  V30 135 H 12.3339 -1.54458 -0.239283 0
M  V30 136 H 13.0689 -1.68705 -2.76964 0
M  V30 137 H 12.8539 -3.32272 -2.08177 0
M  V30 138 H 14.3439 -2.91933 -2.98605 0
M  V30 139 N 14.781 0.264519 -1.55364 0
M  V30 140 C 16.192 0.834936 -1.6699 0
M  V30 141 C 16.543 1.86718 -0.602552 0
M  V30 142 O 15.668 2.14899 0.254425 0
M  V30 143 C 16.263 1.5212 -3.02729 0
M  V30 144 C 14.822 2.03954 -3.16354 0
M  V30 145 C 13.969 0.884498 -2.62815 0
M  V30 146 H 16.92 0.0406869 -1.58648 0
M  V30 147 H 16.941 2.38853 -2.96191 0
M  V30 148 H 16.453 0.769668 -3.80392 0
M  V30 149 H 14.554 2.82041 -2.43482 0
M  V30 150 H 14.667 2.24902 -4.23032 0
M  V30 151 H 13.031 1.2802 -2.20188 0
M  V30 152 H 13.814 0.14634 -3.42988 0
M  V30 153 N 16.2591 1.48442 0.529413 0
M  V30 154 C 17.2061 1.63007 1.63394 0
M  V30 155 C 18.1761 0.47212 1.59249 0
M  V30 156 O 19.3611 0.695673 1.77666 0
M  V30 157 C 16.5011 1.6763 3.01653 0
M  V30 158 C 15.6141 2.94535 3.16027 0
M  V30 159 C 14.7491 2.90316 4.44849 0
M  V30 160 C 13.7881 4.11923 4.52754 0
M  V30 161 N 12.9251 4.05777 5.72965 0
M  V30 162 H 17.7651 2.5733 1.50285 0
M  V30 163 H 15.3021 1.27613 0.731656 0
M  V30 164 H 17.2601 1.68292 3.81751 0
M  V30 165 H 15.8901 0.76797 3.13532 0
M  V30 166 H 14.9421 3.03615 2.29177 0
M  V30 167 H 16.2541 3.84512 3.17729 0
M  V30 168 H 15.4081 2.89382 5.33238 0
M  V30 169 H 14.1471 1.98068 4.45668 0
M  V30 170 H 13.1521 4.13131 3.62771 0
M  V30 171 H 14.3771 5.0533 4.53672 0
M  V30 172 H 12.3231 3.16351 5.74681 0
M  V30 173 H 12.2401 4.8946 5.76164 0
M  V30 174 H 13.5081 4.08904 6.6364 0
M  V30 175 N 17.7372 -0.778329 1.37039 0
M  V30 176 C 18.6842 -1.89139 1.32269 0
M  V30 177 C 19.6542 -1.65017 0.189387 0
M  V30 178 O 20.8392 -1.87024 0.377693 0
M  V30 179 C 17.9792 -3.26112 1.12894 0
M  V30 180 C 17.0922 -3.62233 2.35396 0
M  V30 181 C 16.2272 -4.8838 2.08946 0
M  V30 182 C 15.2662 -5.17212 3.2735 0
M  V30 183 N 14.4032 -6.34546 3.00492 0
M  V30 184 H 19.2432 -1.92552 2.27437 0
M  V30 185 H 16.7802 -0.941473 1.13025 0
M  V30 186 H 18.7382 -4.05116 0.996835 0
M  V30 187 H 17.3682 -3.22091 0.213758 0
M  V30 188 H 16.4202 -2.78265 2.5937 0
M  V30 189 H 17.7322 -3.79481 3.23721 0
M  V30 190 H 16.8862 -5.75274 1.92729 0
M  V30 191 H 15.6252 -4.73222 1.17949 0
M  V30 192 H 14.6302 -4.28796 3.44113 0
M  V30 193 H 15.8552 -5.34283 4.19188 0
M  V30 194 H 13.8012 -6.20759 2.12118 0
M  V30 195 H 13.7182 -6.52179 3.82358 0
M  V30 196 H 14.9862 -7.24394 2.87879 0
M  V30 197 N 19.2153 -1.21501 -1.00376 0
M  V30 198 C 20.4633 -1.03095 -1.73827 0
M  V30 199 C 20.7843 0.436341 -1.90055 0
M  V30 200 O 20.0543 1.31466 -1.45236 0
M  V30 201 H 18.6343 -0.378487 -0.644016 0
M  V30 202 H 21.2963 -1.52831 -1.20949 0
M  V30 203 H 20.3923 -1.49991 -2.73695 0
M  V30 204 N 20.6934 1.19889 -1.02296 0
M  V30 205 C 21.9184 1.9393 -0.735237 0
M  V30 206 C 22.3434 1.74639 0.698782 0
M  V30 207 O 21.7014 1.04481 1.48167 0
M  V30 208 C 21.7494 3.43916 -1.08417 0
M  V30 209 O 20.8534 4.11917 -0.199446 0
M  V30 210 H 20.1944 0.605645 -0.272196 0
M  V30 211 H 22.7244 1.52137 -1.36804 0
M  V30 212 H 22.7344 3.9456 -1.03856 0
M  V30 213 H 21.4094 3.5728 -2.12894 0
M  V30 214 H 19.9864 3.71666 -0.303136 0
M  V30 215 N 22.1715 0.800033 1.35784 0
M  V30 216 C 23.1185 0.203848 2.29898 0
M  V30 217 C 24.0885 -0.658375 1.52495 0
M  V30 218 O 25.2735 -0.604832 1.8096 0
M  V30 219 C 22.4135 -0.64688 3.38983 0
M  V30 220 C 21.5265 0.235054 4.3136 0
M  V30 221 C 20.6615 -0.623054 5.27533 0
M  V30 222 C 19.7005 0.259682 6.11549 0
M  V30 223 N 18.8375 -0.558019 6.99879 0
M  V30 224 H 23.6775 1.01186 2.80295 0
M  V30 225 H 21.2145 0.51053 1.37957 0
M  V30 226 H 23.1725 -1.15521 4.00887 0
M  V30 227 H 21.8025 -1.42021 2.89879 0
M  V30 228 H 20.8545 0.861438 3.70518 0
M  V30 229 H 22.1665 0.914768 4.9034 0
M  V30 230 H 21.3205 -1.19678 5.94779 0
M  V30 231 H 20.0595 -1.33636 4.69034 0
M  V30 232 H 19.0645 0.845726 5.43256 0
M  V30 233 H 20.2895 0.970748 6.72126 0
M  V30 234 H 18.2355 -1.25542 6.43875 0
M  V30 235 H 18.1525 0.0637872 7.55973 0
M  V30 236 H 19.4205 -1.11523 7.71481 0
M  V30 237 N 23.6496 -1.47581 0.552962 0
M  V30 238 C 24.5966 -2.29957 -0.197108 0
M  V30 239 C 25.5666 -1.38799 -0.912359 0
M  V30 240 O 26.7516 -1.67761 -0.908888 0
M  V30 241 C 23.8916 -3.22672 -1.22379 0
M  V30 242 C 23.0046 -4.28919 -0.515038 0
M  V30 243 C 22.1396 -5.0879 -1.52664 0
M  V30 244 C 21.1786 -6.06815 -0.802631 0
M  V30 245 N 20.3156 -6.7966 -1.76086 0
M  V30 246 H 25.1556 -2.93578 0.511486 0
M  V30 247 H 22.6926 -1.4471 0.264067 0
M  V30 248 H 24.6506 -3.74845 -1.83159 0
M  V30 249 H 23.2806 -2.60925 -1.90047 0
M  V30 250 H 22.3326 -3.79835 0.207192 0
M  V30 251 H 23.6446 -4.98773 0.0523425 0
M  V30 252 H 22.7986 -5.65091 -2.20809 0
M  V30 253 H 21.5376 -4.38828 -2.12794 0
M  V30 254 H 20.5426 -5.49695 -0.107238 0
M  V30 255 H 21.7676 -6.78784 -0.207135 0
M  V30 256 H 19.7136 -6.12432 -2.35081 0
M  V30 257 H 19.6306 -7.45669 -1.24552 0
M  V30 258 H 20.8986 -7.40538 -2.43359 0
M  V30 259 N 25.1277 -0.289203 -1.54924 0
M  V30 260 C 26.0907 0.579144 -2.21762 0
M  V30 261 C 27.0907 1.07047 -1.1999 0
M  V30 262 O 28.2807 0.968384 -1.44803 0
M  V30 263 C 25.4127 1.80055 -2.8947 0
M  V30 264 H 26.6057 -0.00464908 -2.999 0
M  V30 265 H 24.1587 -0.0399306 -1.56249 0
M  V30 266 H 24.8937 2.42449 -2.15381 0
M  V30 267 H 24.6787 1.45602 -3.64064 0
M  V30 268 H 26.1687 2.41773 -3.40493 0
M  V30 269 N 26.6058 1.57591 -0.0167156 0
M  V30 270 C 27.8518 1.91567 0.665582 0
M  V30 271 C 28.1848 0.892298 1.72487 0
M  V30 272 O 27.4598 -0.0867127 1.94307 0
M  V30 273 C 27.7428 3.36069 1.29342 0
M  V30 274 C 27.5958 4.49135 0.244541 0
M  V30 275 C 28.9148 3.803 2.21495 0
M  V30 276 H 26.0338 0.69666 0.240488 0
M  V30 277 H 28.6758 1.89866 -0.0714356 0
M  V30 278 H 26.8258 3.3765 1.92158 0
M  V30 279 H 28.4978 4.59689 -0.385228 0
M  V30 280 H 26.7408 4.3165 -0.431379 0
M  V30 281 H 27.4118 5.47242 0.723207 0
M  V30 282 H 29.8878 3.80377 1.68678 0
M  V30 283 H 28.7638 4.82127 2.62382 0
M  V30 284 H 29.0248 3.15104 3.101 0
M  V30 285 N 28.0839 -0.256276 1.55502 0
M  V30 286 C 29.3119 -1.00342 1.8094 0
M  V30 287 C 29.7269 -1.79307 0.59114 0
M  V30 288 O 29.0839 -1.77114 -0.440081 0
M  V30 289 C 29.1349 -1.94875 3.04476 0
M  V30 290 O 28.8559 -1.19107 4.21598 0
M  V30 291 C 30.3569 -2.81266 3.42644 0
M  V30 292 H 27.5769 -0.295685 0.602338 0
M  V30 293 H 30.1209 -0.281998 2.02546 0
M  V30 294 H 28.2759 -2.62457 2.84947 0
M  V30 295 H 28.6899 -1.82969 4.91551 0
M  V30 296 H 30.1639 -3.43362 4.32211 0
M  V30 297 H 30.6409 -3.51897 2.62802 0
M  V30 298 H 31.2469 -2.1915 3.64491 0
M  V30 299 N 29.562 -1.4872 -0.521534 0
M  V30 300 C 30.509 -1.63871 -1.62527 0
M  V30 301 C 31.479 -0.480559 -1.58996 0
M  V30 302 O 32.664 -0.705085 -1.77294 0
M  V30 303 C 29.804 -1.69227 -3.00759 0
M  V30 304 C 28.917 -2.96207 -3.14461 0
M  V30 305 C 28.052 -2.92671 -4.43303 0
M  V30 306 C 27.091 -4.14318 -4.50563 0
M  V30 307 N 26.228 -4.0881 -5.70805 0
M  V30 308 H 31.068 -2.58123 -1.48918 0
M  V30 309 H 28.605 -1.28 -0.724878 0
M  V30 310 H 30.563 -1.70314 -3.80853 0
M  V30 311 H 29.193 -0.784586 -3.1312 0
M  V30 312 H 28.245 -3.04826 -2.27564 0
M  V30 313 H 29.557 -3.86192 -3.15686 0
M  V30 314 H 28.711 -2.92206 -5.31696 0
M  V30 315 H 27.45 -2.00429 -4.44612 0
M  V30 316 H 26.455 -4.15049 -3.60575 0
M  V30 317 H 27.68 -5.07729 -4.50986 0
M  V30 318 H 25.626 -3.19394 -5.72995 0
M  V30 319 H 25.543 -4.92509 -5.7356 0
M  V30 320 H 26.811 -4.12418 -6.61462 0
M  V30 321 N 31.0401 0.771051 -1.3745 0
M  V30 322 C 32.0031 1.86598 -1.33093 0
M  V30 323 C 33.0031 1.59076 -0.234845 0
M  V30 324 O 34.1931 1.67145 -0.490732 0
M  V30 325 C 31.3251 3.23747 -1.06773 0
M  V30 326 H 32.5181 1.91873 -2.30488 0
M  V30 327 H 30.0711 0.970876 -1.2249 0
M  V30 328 H 30.8061 3.24148 -0.099129 0
M  V30 329 H 30.5911 3.45115 -1.86112 0
M  V30 330 H 32.0811 4.03824 -1.06377 0
M  V30 331 N 32.5182 1.22032 0.997298 0
M  V30 332 C 33.4502 0.944263 2.08845 0
M  V30 333 C 34.4632 -0.0754663 1.62625 0
M  V30 334 O 35.6522 0.157994 1.77799 0
M  V30 335 C 32.7522 0.397723 3.36558 0
M  V30 336 C 31.9252 1.47362 4.11829 0
M  V30 337 C 30.9842 0.934951 5.17827 0
M  V30 338 O 30.0102 1.62016 5.45655 0
M  V30 339 N 31.2122 -0.245895 5.79979 0
M  V30 340 H 33.9772 1.88363 2.33109 0
M  V30 341 H 31.5382 1.12661 1.16272 0
M  V30 342 H 33.5302 0.0227771 4.04694 0
M  V30 343 H 32.1002 -0.446646 3.09393 0
M  V30 344 H 31.3202 2.02208 3.38386 0
M  V30 345 H 32.6082 2.19764 4.58891 0
M  V30 346 H 32.0062 -0.819475 5.59733 0
M  V30 347 H 30.5632 -0.562272 6.4937 0
M  V30 348 N 33.9963 -1.19345 1.0293 0
M  V30 349 C 34.9433 -2.2258 0.610464 0
M  V30 350 C 35.9133 -1.6179 -0.375946 0
M  V30 351 O 37.0983 -1.88844 -0.272511 0
M  V30 352 C 34.2383 -3.45085 -0.0321473 0
M  V30 353 C 33.3513 -4.20258 1.00035 0
M  V30 354 C 32.4863 -5.3019 0.32746 0
M  V30 355 C 31.5253 -5.97121 1.34584 0
M  V30 356 N 30.6623 -6.98615 0.698726 0
M  V30 357 H 35.5023 -2.57764 1.49538 0
M  V30 358 H 33.0393 -1.26644 0.748311 0
M  V30 359 H 34.9973 -4.15061 -0.421966 0
M  V30 360 H 33.6273 -3.10555 -0.88064 0
M  V30 361 H 32.6793 -3.49223 1.50823 0
M  V30 362 H 33.9913 -4.66175 1.77433 0
M  V30 363 H 33.1453 -6.06587 -0.11718 0
M  V30 364 H 31.8843 -4.85345 -0.478713 0
M  V30 365 H 30.8893 -5.19474 1.80074 0
M  V30 366 H 32.1143 -6.4405 2.15352 0
M  V30 367 H 30.0603 -6.55942 -0.0873471 0
M  V30 368 H 29.9773 -7.42724 1.41058 0
M  V30 369 H 31.2453 -7.79004 0.278102 0
M  V30 370 N 35.4744 -0.807222 -1.35358 0
M  V30 371 C 36.4214 -0.216037 -2.29787 0
M  V30 372 C 37.3914 0.650278 -1.52842 0
M  V30 373 O 38.5764 0.595227 -1.81278 0
M  V30 374 C 35.7164 0.628893 -3.39321 0
M  V30 375 C 34.8294 -0.257927 -4.31229 0
M  V30 376 C 33.9644 0.595069 -5.27856 0
M  V30 377 C 33.0034 -0.292111 -6.11403 0
M  V30 378 N 32.1404 0.520895 -7.00165 0
M  V30 379 H 36.9804 -1.02671 -2.79755 0
M  V30 380 H 34.5174 -0.517839 -1.37684 0
M  V30 381 H 36.4754 1.13393 -4.01494 0
M  V30 382 H 35.1054 1.40482 -2.90628 0
M  V30 383 H 34.1574 -0.881076 -3.70056 0
M  V30 384 H 35.4694 -0.940759 -4.89848 0
M  V30 385 H 34.6234 1.16522 -5.95405 0
M  V30 386 H 33.3624 1.31146 -4.69736 0
M  V30 387 H 32.3674 -0.874525 -5.428 0
M  V30 388 H 33.5924 -1.00638 -6.71602 0
M  V30 389 H 31.5384 1.22125 -6.44532 0
M  V30 390 H 31.4554 -0.103877 -7.55929 0
M  V30 391 H 32.7234 1.0743 -7.72062 0
M  V30 392 N 36.9525 1.47285 -0.560781 0
M  V30 393 C 38.2295 1.9558 0.0277798 0
M  V30 394 C 38.6095 1.5034 1.48192 0
M  V30 395 O 37.9575 0.743882 2.16052 0
M  V30 396 C 38.1675 3.48789 -0.121418 0
M  V30 397 C 39.5155 4.24594 0.0220912 0
M  V30 398 O 40.5395 3.56166 -0.0491439 0
M  V30 399 O 39.3985 5.46217 0.175958 0
M  V30 400 H 36.4925 0.824663 0.0621342 0
M  V30 401 H 39.0385 1.5767 -0.627556 0
M  V30 402 H 37.8105 3.74533 -1.13316 0
M  V30 403 H 37.4335 3.93473 0.571366 0
M  V30 404 N 38.4306 0.297415 1.54768 0
M  V30 405 C 39.6786 -0.312295 1.99673 0
M  V30 406 C 39.9996 -1.54686 1.18732 0
M  V30 407 O 39.2696 -1.93854 0.282382 0
M  V30 408 H 37.8496 -0.118381 0.73756 0
M  V30 409 H 40.5116 0.407915 1.90583 0
M  V30 410 H 39.6076 -0.586813 3.06534 0
M  V30 411 N 39.9087 -1.5758 0.0250728 0
M  V30 412 C 40.8557 -2.09973 -0.958129 0
M  V30 413 C 41.8257 -1.00085 -1.3256 0
M  V30 414 O 43.0107 -1.27481 -1.41962 0
M  V30 415 C 40.1507 -2.62812 -2.2366 0
M  V30 416 C 39.2637 -3.86693 -1.92594 0
M  V30 417 C 38.3987 -4.27941 -3.14707 0
M  V30 418 C 37.4377 -5.44591 -2.79442 0
M  V30 419 N 36.5747 -5.81014 -3.94167 0
M  V30 420 H 41.4147 -2.937 -0.504428 0
M  V30 421 H 38.9517 -1.45172 -0.237392 0
M  V30 422 H 40.9097 -2.91536 -2.98434 0
M  V30 423 H 39.5397 -1.81922 -2.66654 0
M  V30 424 H 38.5917 -3.64723 -1.0808 0
M  V30 425 H 39.9037 -4.71547 -1.62619 0
M  V30 426 H 39.0577 -4.58079 -3.97804 0
M  V30 427 H 37.7967 -3.41845 -3.4784 0
M  V30 428 H 36.8017 -5.1415 -1.94755 0
M  V30 429 H 38.0267 -6.32382 -2.47528 0
M  V30 430 H 35.9727 -4.97874 -4.2715 0
M  V30 431 H 35.8897 -6.60498 -3.67801 0
M  V30 432 H 37.1577 -6.15756 -4.7798 0
M  V30 433 N 41.3868 0.248026 -1.55636 0
M  V30 434 C 42.3338 1.30707 -1.90222 0
M  V30 435 C 43.3038 1.47881 -0.756332 0
M  V30 436 O 44.4888 1.61883 -1.00988 0
M  V30 437 C 41.6288 2.65769 -2.20138 0
M  V30 438 C 40.7418 2.56612 -3.47526 0
M  V30 439 C 39.8768 3.8402 -3.67017 0
M  V30 440 C 38.9158 3.69476 -4.8801 0
M  V30 441 N 38.0528 4.88774 -5.04029 0
M  V30 442 H 42.8928 1.00512 -2.80538 0
M  V30 443 H 40.4298 0.485055 -1.38873 0
M  V30 444 H 42.3878 3.44386 -2.35487 0
M  V30 445 H 41.0178 2.94115 -1.33027 0
M  V30 446 H 40.0698 1.69571 -3.40514 0
M  V30 447 H 41.3818 2.41774 -4.36287 0
M  V30 448 H 40.5358 4.7108 -3.8232 0
M  V30 449 H 39.2748 4.01754 -2.76487 0
M  V30 450 H 38.2798 2.80799 -4.72686 0
M  V30 451 H 39.5048 3.53238 -5.8 0
M  V30 452 H 37.4508 5.0687 -4.16435 0
M  V30 453 H 37.3678 4.76562 -5.86877 0
M  V30 454 H 38.6358 5.77335 -5.23741 0
M  V30 455 N 42.8649 1.48995 0.513639 0
M  V30 456 C 44.2809 1.35478 0.843682 0
M  V30 457 C 44.4809 0.378213 1.97919 0
M  V30 458 O 43.5369 -0.194689 2.51748 0
M  V30 459 C 44.8499 2.75901 1.1958 0
M  V30 460 C 46.3979 2.84509 1.30474 0
M  V30 461 C 46.8729 4.25671 1.69021 0
M  V30 462 N 48.3639 4.28422 1.76094 0
M  V30 463 C 49.0989 5.34601 2.07338 0
M  V30 464 N 48.5949 6.5104 2.36894 0
M  V30 465 N 50.3879 5.22007 2.08483 0
M  V30 466 H 42.5389 2.11092 -0.235328 0
M  V30 467 H 44.8019 0.947039 -0.0426669 0
M  V30 468 H 44.5079 3.49001 0.434913 0
M  V30 469 H 44.3819 3.10467 2.1422 0
M  V30 470 H 46.7689 2.11655 2.05637 0
M  V30 471 H 46.8499 2.53542 0.339155 0
M  V30 472 H 46.4939 4.99048 0.944135 0
M  V30 473 H 46.4239 4.54094 2.66658 0
M  V30 474 H 48.9149 3.44441 1.55464 0
M  V30 475 H 49.2279 7.2779 2.59887 0
M  V30 476 H 47.5729 6.54287 2.34378 0
M  V30 477 H 50.7639 4.30051 1.84861 0
M  V30 478 H 50.9369 6.04854 2.325 0
M  V30 479 N 44.343 -0.763751 1.37857 0
M  V30 480 C 45.29 -1.87726 1.34267 0
M  V30 481 C 46.26 -1.64807 0.206879 0
M  V30 482 O 47.445 -1.86613 0.397508 0
M  V30 483 C 44.585 -3.24896 1.16346 0
M  V30 484 C 43.698 -3.59716 2.39225 0
M  V30 485 C 42.833 -4.86137 2.14114 0
M  V30 486 C 41.872 -5.13711 3.32817 0
M  V30 487 N 41.009 -6.31323 3.07206 0
M  V30 488 H 45.849 -1.90129 2.29466 0
M  V30 489 H 43.386 -0.929433 1.14017 0
M  V30 490 H 45.344 -4.04036 1.03975 0
M  V30 491 H 43.974 -3.21847 0.247909 0
M  V30 492 H 43.026 -2.75498 2.62307 0
M  V30 493 H 44.338 -3.76027 3.27728 0
M  V30 494 H 43.492 -5.73198 1.9882 0
M  V30 495 H 42.231 -4.71945 1.22961 0
M  V30 496 H 41.236 -4.25123 3.48641 0
M  V30 497 H 42.461 -5.29807 4.24832 0
M  V30 498 H 40.407 -6.18474 2.1869 0
M  V30 499 H 40.324 -6.48087 3.89254 0
M  V30 500 H 41.592 -7.213 2.95546 0
M  V30 501 N 45.8211 -1.22559 -0.990812 0
M  V30 502 C 47.2371 -0.985996 -1.255 0
M  V30 503 C 47.4371 0.319173 -1.98956 0
M  V30 504 O 46.4931 1.04127 -2.3003 0
M  V30 505 C 47.8061 -2.18607 -2.06474 0
M  V30 506 C 49.3541 -2.22985 -2.19651 0
M  V30 507 C 49.8291 -3.4255 -3.04012 0
M  V30 508 N 51.3201 -3.42725 -3.11599 0
M  V30 509 C 52.0551 -4.31892 -3.7717 0
M  V30 510 N 51.5511 -5.31279 -4.44651 0
M  V30 511 N 53.3441 -4.19662 -3.73952 0
M  V30 512 H 45.4951 -2.06469 -0.49841 0
M  V30 513 H 47.7581 -0.904853 -0.282747 0
M  V30 514 H 47.4641 -3.13267 -1.59865 0
M  V30 515 H 47.3381 -2.18838 -3.07229 0
M  V30 516 H 49.7251 -1.28871 -2.65474 0
M  V30 517 H 49.8061 -2.26791 -1.18319 0
M  V30 518 H 49.4501 -4.36965 -2.58889 0
M  V30 519 H 49.3801 -3.35984 -4.0549 0
M  V30 520 H 51.8711 -2.70807 -2.63575 0
M  V30 521 H 52.1841 -5.95593 -4.92431 0
M  V30 522 H 50.5291 -5.3519 -4.43392 0
M  V30 523 H 53.7201 -3.41268 -3.20396 0
M  V30 524 H 53.8931 -4.89358 -4.24774 0
M  V30 525 N 47.2992 1.18797 -1.03562 0
M  V30 526 C 48.5242 1.9314 -0.755764 0
M  V30 527 C 48.9492 1.7537 0.68022 0
M  V30 528 O 48.3072 1.06046 1.47051 0
M  V30 529 C 48.3552 3.42747 -1.12058 0
M  V30 530 O 47.4592 4.11683 -0.243124 0
M  V30 531 H 46.8002 0.602724 -0.278604 0
M  V30 532 H 49.3302 1.50678 -1.3841 0
M  V30 533 H 49.3402 3.93437 -1.08035 0
M  V30 534 H 48.0152 3.55002 -2.16672 0
M  V30 535 H 46.5922 3.71323 -0.342539 0
M  V30 536 N 48.7773 0.814389 1.34928 0
M  V30 537 C 50.1933 0.499084 1.51596 0
M  V30 538 C 50.3933 -0.978319 1.76157 0
M  V30 539 O 49.4493 -1.76309 1.80752 0
M  V30 540 C 50.7623 1.35121 2.68631 0
M  V30 541 C 52.3103 1.34746 2.82511 0
M  V30 542 C 52.7853 2.18388 4.0258 0
M  V30 543 N 54.2763 2.15966 4.09772 0
M  V30 544 C 55.0113 2.77437 5.01813 0
M  V30 545 N 54.5073 3.47866 5.99134 0
M  V30 546 N 56.3003 2.67037 4.94619 0
M  V30 547 H 48.4513 1.7711 1.17243 0
M  V30 548 H 50.7143 0.754256 0.574284 0
M  V30 549 H 50.4203 2.40001 2.57085 0
M  V30 550 H 50.2943 1.00991 3.63429 0
M  V30 551 H 52.6813 0.30648 2.93504 0
M  V30 552 H 52.7623 1.72869 1.88547 0
M  V30 553 H 52.4063 3.2253 3.92347 0
M  V30 554 H 52.3363 1.77621 4.9574 0
M  V30 555 H 54.8273 1.64729 3.40107 0
M  V30 556 H 55.1403 3.92038 6.65977 0
M  V30 557 H 53.4853 3.51972 5.99284 0
M  V30 558 H 56.6763 2.11597 4.17546 0
M  V30 559 H 56.8493 3.15232 5.66156 0
M  V30 560 N 50.2554 -1.46986 0.568584 0
M  V30 561 C 51.2024 -2.30153 -0.172707 0
M  V30 562 C 52.1724 -1.39759 -0.897586 0
M  V30 563 O 53.3574 -1.68716 -0.891044 0
M  V30 564 C 50.4974 -3.23952 -1.1895 0
M  V30 565 C 49.6104 -4.29441 -0.469517 0
M  V30 566 C 48.7454 -5.1038 -1.47259 0
M  V30 567 C 47.7844 -6.07632 -0.738225 0
M  V30 568 N 46.9214 -6.8149 -1.68868 0
M  V30 569 H 51.7614 -2.93019 0.542596 0
M  V30 570 H 49.2984 -1.44422 0.279401 0
M  V30 571 H 51.2564 -3.76767 -1.79173 0
M  V30 572 H 49.8864 -2.62926 -1.87269 0
M  V30 573 H 48.9384 -3.79594 0.247467 0
M  V30 574 H 50.2504 -4.98689 0.105241 0
M  V30 575 H 49.4044 -5.67402 -2.14803 0
M  V30 576 H 48.1434 -4.4106 -2.08128 0
M  V30 577 H 47.1484 -5.49778 -0.0489293 0
M  V30 578 H 48.3734 -6.78966 -0.135129 0
M  V30 579 H 46.3194 -6.14891 -2.28573 0
M  V30 580 H 46.2364 -7.46948 -1.16636 0
M  V30 581 H 47.5044 -7.43078 -2.3549 0
M  V30 582 N 51.7335 -0.305618 -1.54608 0
M  V30 583 C 52.6435 0.57778 -2.27374 0
M  V30 584 C 53.6595 1.14451 -1.31061 0
M  V30 585 O 54.8355 1.16831 -1.6405 0
M  V30 586 C 51.9005 1.73123 -3.00382 0
M  V30 587 C 50.9615 1.19812 -4.12242 0
M  V30 588 C 50.1945 2.2966 -4.81759 0
M  V30 589 O 50.4175 3.49651 -4.50666 0
M  V30 590 O 49.3515 1.96091 -5.69062 0
M  V30 591 H 53.1775 -0.012624 -3.03697 0
M  V30 592 H 50.7625 -0.0719184 -1.49227 0
M  V30 593 H 52.6445 2.40315 -3.4616 0
M  V30 594 H 51.3195 2.30815 -2.26949 0
M  V30 595 H 50.2265 0.491798 -3.70853 0
M  V30 596 H 51.5595 0.666566 -4.87666 0
M  V30 597 N 53.2116 1.57565 -0.0334293 0
M  V30 598 C 54.4366 1.96689 0.657895 0
M  V30 599 C 54.8616 0.910057 1.64619 0
M  V30 600 O 54.2196 -0.128598 1.80843 0
M  V30 601 C 54.2676 3.34905 1.33683 0
M  V30 602 O 53.3716 3.31574 2.45219 0
M  V30 603 H 52.7126 0.641205 0.172489 0
M  V30 604 H 55.2426 2.04372 -0.0965621 0
M  V30 605 H 55.2526 3.71234 1.69262 0
M  V30 606 H 53.9276 4.11366 0.612411 0
M  V30 607 H 52.5046 3.06968 2.11719 0
M  V30 608 N 54.6897 -0.239769 1.55765 0
M  V30 609 C 55.9197 -0.982743 1.8173 0
M  V30 610 C 56.3277 -1.7917 0.607835 0
M  V30 611 O 55.6707 -1.78525 -0.432973 0
M  V30 612 C 55.7327 -1.96332 3.01155 0
M  V30 613 C 55.3967 -1.34062 4.36894 0
M  V30 614 C 56.3937 -0.739539 5.14613 0
M  V30 615 C 54.0787 -1.35784 4.83599 0
M  V30 616 C 56.0727 -0.163989 6.37189 0
M  V30 617 C 53.7597 -0.778441 6.06122 0
M  V30 618 C 54.7577 -0.182548 6.82756 0
M  V30 619 O 54.4457 0.387887 8.02964 0
M  V30 620 H 54.1777 -0.294481 0.608487 0
M  V30 621 H 56.7317 -0.26572 2.03674 0
M  V30 622 H 54.9617 -2.71884 2.74984 0
M  V30 623 H 56.6507 -2.57032 3.14149 0
M  V30 624 H 57.4167 -0.718687 4.79646 0
M  V30 625 H 53.2957 -1.81105 4.23936 0
M  V30 626 H 56.8397 0.301753 6.96947 0
M  V30 627 H 52.7367 -0.796645 6.40565 0
M  V30 628 H 53.5047 0.28044 8.18019 0
M  V30 629 N 56.1678 -1.49265 -0.50573 0
M  V30 630 C 57.3928 -1.62478 -1.28902 0
M  V30 631 C 57.8178 -0.294332 -1.85783 0
M  V30 632 O 57.1758 0.737412 -1.65626 0
M  V30 633 C 57.2238 -2.69268 -2.39848 0
M  V30 634 O 56.3278 -2.28113 -3.43567 0
M  V30 635 H 55.6688 -0.54399 -0.380751 0
M  V30 636 H 58.1988 -1.95421 -0.605952 0
M  V30 637 H 58.2088 -2.91291 -2.85681 0
M  V30 638 H 56.8838 -3.65846 -1.97812 0
M  V30 639 H 55.4608 -2.16401 -3.03685 0
M  V30 640 N 57.6459 0.756429 -1.3826 0
M  V30 641 C 58.8919 1.51772 -1.34511 0
M  V30 642 C 59.2249 1.94089 0.0656691 0
M  V30 643 O 58.4999 1.65221 1.02626 0
M  V30 644 C 58.7829 2.77226 -2.29821 0
M  V30 645 C 58.6359 2.41065 -3.79747 0
M  V30 646 C 59.9549 3.79236 -2.23312 0
M  V30 647 H 57.0739 0.550578 -0.489931 0
M  V30 648 H 59.7159 0.866607 -1.69086 0
M  V30 649 H 57.8659 3.32784 -2.00467 0
M  V30 650 H 59.5379 1.91303 -4.19763 0
M  V30 651 H 57.7809 1.7356 -3.97567 0
M  V30 652 H 58.4519 3.3081 -4.41892 0
M  V30 653 H 60.9279 3.3321 -2.49219 0
M  V30 654 H 59.8039 4.64714 -2.92116 0
M  V30 655 H 60.0649 4.24615 -1.23102 0
M  V30 656 N 59.124 1.23083 0.984299 0
M  V30 657 C 60.354 1.08556 1.75781 0
M  V30 658 C 60.762 -0.366171 1.85623 0
M  V30 659 O 60.105 -1.26524 1.33182 0
M  V30 660 C 60.167 1.63208 3.20318 0
M  V30 661 C 59.831 3.11922 3.33997 0
M  V30 662 C 60.828 4.09259 3.2063 0
M  V30 663 C 58.513 3.51552 3.58771 0
M  V30 664 C 60.507 5.4421 3.31835 0
M  V30 665 C 58.194 4.86649 3.69616 0
M  V30 666 C 59.192 5.82787 3.56157 0
M  V30 667 O 58.88 7.15431 3.66626 0
M  V30 668 H 58.612 0.380713 0.5586 0
M  V30 669 H 61.166 1.63321 1.2456 0
M  V30 670 H 59.396 1.0286 3.72769 0
M  V30 671 H 61.085 1.44216 3.79416 0
M  V30 672 H 61.851 3.79984 3.01392 0
M  V30 673 H 57.73 2.77239 3.6832 0
M  V30 674 H 61.274 6.1923 3.21247 0
M  V30 675 H 57.171 5.15601 3.88363 0
M  V30 676 H 57.939 7.23127 3.83445 0
M  V30 677 N 60.6021 -1.18246 1.0419 0
M  V30 678 C 61.8481 -1.88536 0.747122 0
M  V30 679 C 62.1811 -1.80223 -0.723409 0
M  V30 680 O 61.4561 -1.20337 -1.52804 0
M  V30 681 C 61.7391 -3.38968 1.21544 0
M  V30 682 C 61.5921 -3.56084 2.74816 0
M  V30 683 C 62.9111 -4.32648 0.806482 0
M  V30 684 H 60.0301 -0.684619 0.272883 0
M  V30 685 H 62.6721 -1.39113 1.29413 0
M  V30 686 H 60.8221 -3.8119 0.750081 0
M  V30 687 H 62.4941 -3.22946 3.29399 0
M  V30 688 H 60.7371 -2.98699 3.14582 0
M  V30 689 H 61.4081 -4.61639 3.02644 0
M  V30 690 H 63.8841 -3.98211 1.20695 0
M  V30 691 H 62.7601 -5.36462 1.1619 0
M  V30 692 H 63.0211 -4.41146 -0.29029 0
M  V30 693 N 62.0802 -0.821533 -1.34494 0
M  V30 694 C 63.3102 -0.421272 -2.02259 0
M  V30 695 C 63.7182 0.977047 -1.6202 0
M  V30 696 O 63.0612 1.64348 -0.820703 0
M  V30 697 C 63.1232 -0.44231 -3.56769 0
M  V30 698 C 62.7872 -1.79372 -4.20327 0
M  V30 699 C 63.7842 -2.75435 -4.40944 0
M  V30 700 C 61.4692 -2.08182 -4.57127 0
M  V30 701 C 63.4632 -3.98482 -4.97484 0
M  V30 702 C 61.1502 -3.31489 -5.13379 0
M  V30 703 C 62.1482 -4.26457 -5.33501 0
M  V30 704 O 61.8362 -5.47585 -5.88562 0
M  V30 705 H 61.5682 -0.167473 -0.654927 0
M  V30 706 H 64.1222 -1.11073 -1.72777 0
M  V30 707 H 62.3522 0.303836 -3.85505 0
M  V30 708 H 64.0412 -0.0622925 -4.05852 0
M  V30 709 H 64.8072 -2.54473 -4.12878 0
M  V30 710 H 60.6862 -1.35066 -4.4077 0
M  V30 711 H 64.2302 -4.72618 -5.13106 0
M  V30 712 H 60.1272 -3.52316 -5.40873 0
M  V30 713 H 60.8952 -5.49086 -6.06998 0
M  V30 714 N 63.5583 1.46682 -0.576371 0
M  V30 715 C 64.5053 2.30241 0.160499 0
M  V30 716 C 65.4753 1.40233 0.890162 0
M  V30 717 O 66.6603 1.69186 0.882084 0
M  V30 718 C 63.8003 3.24578 1.1723 0
M  V30 719 C 62.9133 4.29684 0.446736 0
M  V30 720 C 62.0483 5.11154 1.44551 0
M  V30 721 C 61.0873 6.08015 0.70599 0
M  V30 722 N 60.2243 6.82376 1.65251 0
M  V30 723 H 65.0643 2.92727 -0.558127 0
M  V30 724 H 62.6013 1.44272 -0.287056 0
M  V30 725 H 64.5593 3.77711 1.77172 0
M  V30 726 H 63.1893 2.63916 1.85872 0
M  V30 727 H 62.2413 3.79458 -0.267594 0
M  V30 728 H 63.5533 4.98626 -0.131686 0
M  V30 729 H 62.7073 5.68533 2.11791 0
M  V30 730 H 61.4463 4.42158 2.05786 0
M  V30 731 H 60.4513 5.49796 0.0197725 0
M  V30 732 H 61.6763 6.79028 0.09912 0
M  V30 733 H 59.6223 6.16094 2.25308 0
M  V30 734 H 59.5393 7.47556 1.12673 0
M  V30 735 H 60.8073 7.44316 2.31546 0
M  V30 736 N 65.0364 0.313813 1.54444 0
M  V30 737 C 66.2824 -0.292108 2.00685 0
M  V30 738 C 66.6154 -1.52548 1.20177 0
M  V30 739 O 65.8904 -1.92452 0.281531 0
M  V30 740 C 66.1734 -0.635968 3.5444 0
M  V30 741 C 66.0264 0.607437 4.4568 0
M  V30 742 C 67.3454 -1.45747 4.15266 0
M  V30 743 H 64.4644 -0.104697 0.729526 0
M  V30 744 H 67.1064 0.428457 1.85106 0
M  V30 745 H 65.2564 -1.24986 3.67846 0
M  V30 746 H 66.9284 1.24581 4.44159 0
M  V30 747 H 65.1714 1.23822 4.15753 0
M  V30 748 H 65.8424 0.322515 5.51057 0
M  V30 749 H 68.3184 -0.938645 4.05375 0
M  V30 750 H 67.1944 -1.66683 5.2298 0
M  V30 751 H 67.4554 -2.45063 3.67963 0
M  V30 752 N 66.5145 -1.57545 0.0417849 0
M  V30 753 C 67.4445 -2.14009 -0.933929 0
M  V30 754 C 68.4255 -1.05938 -1.33083 0
M  V30 755 O 69.6105 -1.33833 -1.40721 0
M  V30 756 C 66.7405 -2.67747 -2.21199 0
M  V30 757 C 65.6945 -3.80718 -1.95544 0
M  V30 758 C 65.0205 -4.20935 -3.29724 0
M  V30 759 C 66.3205 -5.06258 -1.28452 0
M  V30 760 H 68.0145 -2.95788 -0.463645 0
M  V30 761 H 65.5605 -1.42285 -0.221573 0
M  V30 762 H 67.5135 -3.05886 -2.89848 0
M  V30 763 H 66.2375 -1.83147 -2.70416 0
M  V30 764 H 64.8965 -3.43037 -1.2931 0
M  V30 765 H 64.5445 -3.33298 -3.76724 0
M  V30 766 H 64.2445 -4.9707 -3.13361 0
M  V30 767 H 65.7685 -4.61666 -3.9962 0
M  V30 768 H 67.1825 -5.41903 -1.8712 0
M  V30 769 H 65.5795 -5.87475 -1.22445 0
M  V30 770 H 66.6495 -4.84207 -0.259219 0
M  V30 771 N 67.9926 0.231505 -1.5589 0
M  V30 772 C 68.9396 1.28682 -1.91598 0
M  V30 773 C 69.9096 1.47071 -0.771974 0
M  V30 774 O 71.0946 1.60802 -1.027 0
M  V30 775 C 68.2346 2.6342 -2.22944 0
M  V30 776 C 67.3476 2.52912 -3.50228 0
M  V30 777 C 66.4826 3.80106 -3.7107 0
M  V30 778 C 65.5216 3.64279 -4.91902 0
M  V30 779 N 64.6586 4.834 -5.09184 0
M  V30 780 H 69.4986 0.975305 -2.81588 0
M  V30 781 H 67.0356 0.470299 -1.39379 0
M  V30 782 H 68.9936 3.41869 -2.39126 0
M  V30 783 H 67.6236 2.92687 -1.36139 0
M  V30 784 H 66.6756 1.6595 -3.42294 0
M  V30 785 H 67.9876 2.37133 -4.38827 0
M  V30 786 H 67.1416 4.66999 -3.87295 0
M  V30 787 H 65.8806 3.98799 -2.80733 0
M  V30 788 H 64.8856 2.7577 -4.75637 0
M  V30 789 H 66.1106 3.47067 -5.83714 0
M  V30 790 H 64.0566 5.02425 -4.21788 0
M  V30 791 H 63.9736 4.70311 -5.91898 0
M  V30 792 H 65.2416 5.71747 -5.29835 0
M  V30 793 N 69.4707 1.49531 0.497807 0
M  V30 794 C 70.4027 1.62559 1.61578 0
M  V30 795 C 71.4157 0.508134 1.54667 0
M  V30 796 O 72.6047 0.780309 1.60541 0
M  V30 797 C 69.7047 1.56925 3.00379 0
M  V30 798 C 68.8777 2.84257 3.3244 0
M  V30 799 C 67.9367 2.71632 4.50669 0
M  V30 800 O 66.9627 3.4557 4.52294 0
M  V30 801 N 68.1647 1.83391 5.5077 0
M  V30 802 H 70.9297 2.58981 1.50828 0
M  V30 803 H 68.4907 1.4666 0.685743 0
M  V30 804 H 70.4827 1.46129 3.77397 0
M  V30 805 H 69.0527 0.683483 3.05037 0
M  V30 806 H 68.2727 3.09381 2.44289 0
M  V30 807 H 69.5607 3.68666 3.5066 0
M  V30 808 H 68.9587 1.22583 5.52259 0
M  V30 809 H 67.5157 1.78515 6.26878 0
M  V30 810 N 70.9488 -0.749086 1.3866 0
M  V30 811 C 72.1948 -1.51056 1.35314 0
M  V30 812 C 72.5278 -1.94121 -0.0553751 0
M  V30 813 O 71.8028 -1.65763 -1.01749 0
M  V30 814 C 72.0858 -2.76003 2.31288 0
M  V30 815 C 71.9388 -2.39047 3.8102 0
M  V30 816 C 73.2578 -3.78046 2.2532 0
M  V30 817 H 70.3768 -0.547972 0.492844 0
M  V30 818 H 73.0188 -0.857628 1.69543 0
M  V30 819 H 71.1688 -3.31716 2.02229 0
M  V30 820 H 72.8408 -1.89074 4.20771 0
M  V30 821 H 71.0838 -1.71449 3.98482 0
M  V30 822 H 71.7548 -3.28462 4.4364 0
M  V30 823 H 74.2308 -3.31884 2.50983 0
M  V30 824 H 73.1068 -4.63159 2.94576 0
M  V30 825 H 73.3678 -4.23957 1.25352 0
M  V30 826 N 72.4269 -1.23603 -0.977757 0
M  V30 827 C 73.3769 -0.986664 -2.05545 0
M  V30 828 C 74.3609 0.0683009 -1.60755 0
M  V30 829 O 75.5529 -0.144162 -1.76412 0
M  V30 830 C 72.6819 -0.582623 -3.3832 0
M  V30 831 C 71.7679 -1.67313 -3.89701 0
M  V30 832 N 72.1589 -2.90394 -4.14132 0
M  V30 833 C 70.4569 -1.54832 -4.18262 0
M  V30 834 C 71.1579 -3.61017 -4.56116 0
M  V30 835 N 70.1339 -2.8854 -4.60701 0
M  V30 836 H 73.9359 -1.92139 -2.22396 0
M  V30 837 H 71.4499 -1.1358 -1.16074 0
M  V30 838 H 73.4469 -0.38524 -4.15116 0
M  V30 839 H 72.1069 0.34503 -3.22862 0
M  V30 840 H 73.1179 -3.26673 -4.01877 0
M  V30 841 H 69.7949 -0.687969 -4.11793 0
M  V30 842 H 71.1849 -4.66544 -4.83514 0
M  V30 843 N 73.905 1.17692 -1.04816 0
M  V30 844 C 75.316 1.69501 -0.782698 0
M  V30 845 C 75.667 1.83456 0.695577 0
M  V30 846 O 74.792 1.51942 1.54086 0
M  V30 847 C 75.387 3.07874 -1.41419 0
M  V30 848 C 73.946 3.56864 -1.19686 0
M  V30 849 C 73.093 2.3322 -1.50012 0
M  V30 850 H 76.044 1.02262 -1.2136 0
M  V30 851 H 76.065 3.71528 -0.821428 0
M  V30 852 H 75.577 2.97685 -2.49009 0
M  V30 853 H 73.678 3.72337 -0.140043 0
M  V30 854 H 73.791 4.39851 -1.89916 0
M  V30 855 H 72.155 2.37501 -0.920071 0
M  V30 856 H 72.938 2.25644 -2.58727 0
M  V30 857 N 75.3831 0.828654 1.34056 0
M  V30 858 C 76.6601 0.341809 1.9259 0
M  V30 859 C 77.0401 -1.17158 1.75605 0
M  V30 860 O 76.3881 -1.98132 1.13824 0
M  V30 861 C 76.5981 0.777453 3.4023 0
M  V30 862 C 77.9461 0.779579 4.17382 0
M  V30 863 O 78.9701 0.7204 3.48839 0
M  V30 864 O 77.8291 0.857996 5.39723 0
M  V30 865 H 74.9231 0.0946085 0.821571 0
M  V30 866 H 77.4691 0.913827 1.42994 0
M  V30 867 H 76.2411 1.8196 3.46419 0
M  V30 868 H 75.8641 0.181444 3.97186 0
M  V30 869 N 76.8612 -1.46375 0.584142 0
M  V30 870 C 78.0892 -2.06761 0.0759296 0
M  V30 871 C 78.5042 -1.43266 -1.22965 0
M  V30 872 O 77.8612 -0.538458 -1.74376 0
M  V30 873 C 77.9122 -3.61375 -0.0950384 0
M  V30 874 O 77.6332 -4.22495 1.15887 0
M  V30 875 C 79.1342 -4.38693 -0.637434 0
M  V30 876 H 76.3542 -0.668479 0.0581075 0
M  V30 877 H 78.8982 -1.8798 0.805218 0
M  V30 878 H 77.0532 -3.79578 -0.774554 0
M  V30 879 H 77.4672 -5.15385 0.973598 0
M  V30 880 H 78.9412 -5.47464 -0.706237 0
M  V30 881 H 79.4182 -4.06836 -1.65472 0
M  V30 882 H 80.0242 -4.25299 0.00725967 0
M  V30 883 N 78.3393 -0.321999 -1.54275 0
M  V30 884 C 79.5873 0.280489 -2.00144 0
M  V30 885 C 79.9083 1.52777 -1.21178 0
M  V30 886 O 79.1783 1.9338 -0.313187 0
M  V30 887 H 77.7583 0.106632 -0.73935 0
M  V30 888 H 80.4203 -0.438184 -1.8991 0
M  V30 889 H 79.5163 0.537972 -3.07428 0
M  V30 890 N 79.8174 1.5752 -0.0501392 0
M  V30 891 C 81.0664 1.91827 0.623328 0
M  V30 892 C 81.3794 0.930222 1.72065 0
M  V30 893 O 82.5854 1.1653 2.4522 0
M  V30 894 C 81.0414 3.40692 1.16003 0
M  V30 895 C 80.6494 4.479 0.0948811 0
M  V30 896 C 82.3934 3.84034 1.80881 0
M  V30 897 C 80.3004 5.87879 0.644411 0
M  V30 898 H 79.2304 0.715918 0.236596 0
M  V30 899 H 81.8814 1.83115 -0.118861 0
M  V30 900 H 80.2634 3.44405 1.9545 0
M  V30 901 H 81.4374 4.55775 -0.678675 0
M  V30 902 H 79.7524 4.13892 -0.45637 0
M  V30 903 H 82.3494 4.85984 2.22988 0
M  V30 904 H 82.6924 3.20225 2.6601 0
M  V30 905 H 83.2254 3.82833 1.0809 0
M  V30 906 H 79.9644 6.55282 -0.169229 0
M  V30 907 H 79.4844 5.83567 1.38598 0
M  V30 908 H 81.1634 6.37098 1.12763 0
M  V30 909 N 81.2955 -0.223234 1.56011 0
M  V30 910 C 82.5205 -0.968978 1.83373 0
M  V30 911 C 82.9455 -1.77227 0.630254 0
M  V30 912 O 82.3035 -1.76345 -0.420959 0
M  V30 913 C 82.3515 -1.86363 3.08709 0
M  V30 914 O 81.4555 -2.95873 2.87285 0
M  V30 915 H 80.7965 -0.274461 0.604622 0
M  V30 916 H 83.3265 -0.237056 2.03222 0
M  V30 917 H 83.3365 -2.27376 3.38768 0
M  V30 918 H 82.0115 -1.27319 3.95933 0
M  V30 919 H 80.5885 -2.58818 2.68454 0
M  V30 920 N 82.7736 -1.49793 -0.48987 0
M  V30 921 C 83.9986 -1.63836 -1.27172 0
M  V30 922 C 84.4236 -0.31402 -1.8546 0
M  V30 923 O 83.7816 0.719803 -1.66399 0
M  V30 924 C 83.8296 -2.71797 -2.36978 0
M  V30 925 O 82.9336 -2.31744 -3.41128 0
M  V30 926 H 82.2746 -0.547997 -0.37496 0
M  V30 927 H 84.8046 -1.96053 -0.585191 0
M  V30 928 H 84.8146 -2.94305 -2.82575 0
M  V30 929 H 83.4896 -3.67923 -1.93921 0
M  V30 930 H 82.0666 -2.1961 -3.01373 0
M  V30 931 N 84.2517 0.741722 -1.39055 0
M  V30 932 C 85.1987 1.85566 -1.37237 0
M  V30 933 C 86.1687 1.64457 -0.233072 0
M  V30 934 O 87.3537 1.85957 -0.427147 0
M  V30 935 C 84.4937 3.23004 -1.215 0
M  V30 936 C 83.6067 3.55864 -2.44918 0
M  V30 937 C 82.7417 4.82669 -2.21821 0
M  V30 938 C 81.7807 5.08351 -3.40948 0
M  V30 939 N 80.9177 6.26356 -3.17211 0
M  V30 940 H 85.7577 1.86455 -2.32462 0
M  V30 941 H 83.2947 0.911176 -1.15482 0
M  V30 942 H 85.2527 4.02331 -1.10389 0
M  V30 943 H 83.8827 3.21411 -0.29908 0
M  V30 944 H 82.9347 2.7129 -2.66657 0
M  V30 945 H 84.2467 3.70765 -3.33668 0
M  V30 946 H 83.4007 5.69962 -2.07914 0
M  V30 947 H 82.1397 4.69929 -1.30454 0
M  V30 948 H 81.1447 4.19522 -3.55361 0
M  V30 949 H 82.3697 5.22981 -4.33207 0
M  V30 950 H 80.3157 6.14917 -2.28502 0
M  V30 951 H 80.2327 6.41813 -3.99515 0
M  V30 952 H 81.5007 7.16506 -3.06984 0
M  V30 953 N 85.7298 1.2412 0.971189 0
M  V30 954 C 86.6928 1.03156 2.04674 0
M  V30 955 C 87.6928 -0.00990322 1.60797 0
M  V30 956 O 88.8828 0.230729 1.72665 0
M  V30 957 C 86.0148 0.562765 3.36223 0
M  V30 958 H 87.2078 1.98614 2.24705 0
M  V30 959 H 84.7608 1.06293 1.14593 0
M  V30 960 H 85.4958 -0.395176 3.21883 0
M  V30 961 H 85.2808 1.31441 3.69413 0
M  V30 962 H 86.7708 0.437015 4.15307 0
M  V30 963 N 87.2079 -1.17134 1.05439 0
M  V30 964 C 88.1409 -2.2012 0.601855 0
M  V30 965 C 89.1189 -1.58314 -0.370854 0
M  V30 966 O 90.3029 -1.8638 -0.281882 0
M  V30 967 C 87.4299 -3.38491 -0.118868 0
M  V30 968 C 86.4759 -4.18752 0.809242 0
M  V30 969 S 87.3089 -4.83602 2.29977 0
M  V30 970 C 88.4649 -6.0536 1.59029 0
M  V30 971 H 88.6979 -2.58165 1.47438 0
M  V30 972 H 86.2309 -1.27788 0.866573 0
M  V30 973 H 88.1889 -4.07084 -0.528495 0
M  V30 974 H 86.8499 -2.98829 -0.967465 0
M  V30 975 H 86.0429 -5.03373 0.251379 0
M  V30 976 H 85.6449 -3.5561 1.15835 0
M  V30 977 H 87.9369 -6.71615 0.891017 0
M  V30 978 H 88.8799 -6.65679 2.41407 0
M  V30 979 H 89.2879 -5.54138 1.07663 0
M  V30 980 N 88.686 -0.835752 -1.33615 0
M  V30 981 C 89.934 -0.429109 -1.97492 0
M  V30 982 C 90.255 1.01433 -1.66543 0
M  V30 983 O 89.525 1.70611 -0.962744 0
M  V30 984 H 88.105 -0.155686 -0.730596 0
M  V30 985 H 90.767 -1.06802 -1.63031 0
M  V30 986 H 89.863 -0.55861 -3.0706 0
M  V30 987 N 90.1641 1.46063 -0.591896 0
M  V30 988 C 91.4131 2.01547 -0.0786637 0
M  V30 989 C 91.7261 1.46796 1.29268 0
M  V30 990 O 92.9321 1.94157 1.89777 0
M  V30 991 C 91.3881 3.59787 -0.0900024 0
M  V30 992 C 90.9961 4.23534 -1.46023 0
M  V30 993 C 92.7401 4.22895 0.368806 0
M  V30 994 C 90.6471 5.73881 -1.4288 0
M  V30 995 H 89.5771 0.753564 -0.0256388 0
M  V30 996 H 92.2281 1.677 -0.744905 0
M  V30 997 H 90.6101 3.90752 0.642586 0
M  V30 998 H 91.7841 4.04167 -2.21328 0
M  V30 999 H 90.0991 3.72558 -1.85982 0
M  V30 1000 H 92.6961 5.33116 0.411258 0
M  V30 1001 H 93.0391 3.9247 1.38827 0
M  V30 1002 H 93.5721 3.9659 -0.31001 0
M  V30 1003 H 90.3111 6.0898 -2.42536 0
M  V30 1004 H 89.8311 5.95486 -0.718095 0
M  V30 1005 H 91.5101 6.36776 -1.14565 0
M  V30 1006 N 91.6422 0.330177 1.54103 0
M  V30 1007 C 92.5752 -0.575477 2.20825 0
M  V30 1008 C 93.5532 -1.11064 1.18758 0
M  V30 1009 O 94.7372 -1.17341 1.47524 0
M  V30 1010 C 91.8642 -1.79032 2.87516 0
M  V30 1011 C 90.9102 -1.38581 4.03358 0
M  V30 1012 S 91.7432 -0.416911 5.33875 0
M  V30 1013 C 92.8992 -1.63889 6.04062 0
M  V30 1014 H 93.1322 -0.00872114 2.97299 0
M  V30 1015 H 90.6652 0.114254 1.53977 0
M  V30 1016 H 92.6232 -2.48734 3.2656 0
M  V30 1017 H 91.2842 -2.32827 2.10832 0
M  V30 1018 H 90.4772 -2.29123 4.48908 0
M  V30 1019 H 90.0792 -0.768419 3.66021 0
M  V30 1020 H 92.3712 -2.57536 6.26643 0
M  V30 1021 H 93.3142 -1.22542 6.97416 0
M  V30 1022 H 93.7222 -1.82887 5.34053 0
M  V30 1023 N 93.1203 -1.57491 0.0584922 0
M  V30 1024 C 94.0683 -2.13148 -0.931168 0
M  V30 1025 C 95.0623 -1.06507 -1.31729 0
M  V30 1026 O 96.2683 -1.24906 -1.29609 0
M  V30 1027 H 92.6433 -0.68137 -0.31818 0
M  V30 1028 H 94.6143 -2.95187 -0.436707 0
M  V30 1029 C 93.3633 -2.69732 -2.19408 0
M  V30 1030 H 92.6863 -3.51454 -1.90578 0
M  V30 1031 H 94.1263 -3.12287 -2.86798 0
M  V30 1032 C 92.5853 -1.63855 -2.94369 0
M  V30 1033 O 93.1153 -1.05565 -3.87581 0
M  V30 1034 N 91.3213 -1.35202 -2.57233 0
M  V30 1035 H 90.8683 -1.82791 -1.81508 0
M  V30 1036 H 90.8263 -0.645922 -3.07693 0
M  V30 1037 N 94.5984 0.214957 -1.56127 0
M  V30 1038 C 95.8234 0.95924 -1.83884 0
M  V30 1039 C 96.2484 1.7689 -0.639644 0
M  V30 1040 O 95.6064 1.76566 0.411601 0
M  V30 1041 C 95.6544 1.84723 -3.09693 0
M  V30 1042 O 94.7584 2.94346 -2.8885 0
M  V30 1043 H 94.0994 0.27125 -0.606069 0
M  V30 1044 H 96.6294 0.226276 -2.03345 0
M  V30 1045 H 96.6394 2.25576 -3.39969 0
M  V30 1046 H 95.3144 1.25218 -3.96602 0
M  V30 1047 H 93.8914 2.57391 -2.69823 0
M  V30 1048 N 96.0765 1.50051 0.48192 0
M  V30 1049 C 97.3235 1.60498 1.23477 0
M  V30 1050 C 97.6515 0.300331 1.92167 0
M  V30 1051 O 96.9065 -0.713094 1.82246 0
M  V30 1052 C 97.2055 2.72717 2.30998 0
M  V30 1053 C 96.8715 4.13572 1.79636 0
M  V30 1054 C 95.5335 4.519 1.65348 0
M  V30 1055 C 97.8855 5.01649 1.41412 0
M  V30 1056 C 95.2135 5.76057 1.11244 0
M  V30 1057 C 97.5655 6.26343 0.887538 0
M  V30 1058 C 96.2295 6.63483 0.731207 0
M  V30 1059 H 95.4995 0.587303 0.451836 0
M  V30 1060 H 98.1465 1.83948 0.532468 0
M  V30 1061 H 96.4515 2.43312 3.07094 0
M  V30 1062 H 98.1485 2.78006 2.88988 0
M  V30 1063 H 94.7385 3.83329 1.91721 0
M  V30 1064 H 98.9225 4.72679 1.51289 0
M  V30 1065 H 94.1785 6.03516 0.978686 0
M  V30 1066 H 98.3525 6.93958 0.582654 0
M  V30 1067 H 95.9795 7.59568 0.309806 0
M  V30 1068 N 97.5546 -0.734337 1.39446 0
M  V30 1069 C 98.8006 -1.49613 1.36908 0
M  V30 1070 C 99.1336 -1.94169 -0.0347829 0
M  V30 1071 O 98.4086 -1.66833 -0.999847 0
M  V30 1072 C 98.6916 -2.73534 2.34203 0
M  V30 1073 C 98.5446 -2.34993 3.83534 0
M  V30 1074 C 99.8636 -3.75635 2.29317 0
M  V30 1075 H 96.9826 -0.542714 0.498629 0
M  V30 1076 H 99.6246 -0.839597 1.70443 0
M  V30 1077 H 97.7746 -3.29553 2.05736 0
M  V30 1078 H 99.4466 -1.84601 4.22753 0
M  V30 1079 H 97.6896 -1.67213 4.00278 0
M  V30 1080 H 98.3606 -3.23738 4.47099 0
M  V30 1081 H 100.837 -3.29203 2.54489 0
M  V30 1082 H 99.7126 -4.60008 2.99472 0
M  V30 1083 H 99.9736 -4.22603 1.29842 0
M  V30 1084 N 99.0327 -1.24633 -0.964593 0
M  V30 1085 C 99.9807 -1.03917 -2.08096 0
M  V30 1086 C 100.975 0.0268581 -1.69379 0
M  V30 1087 O 102.181 -0.127952 -1.79545 0
M  V30 1088 H 98.5557 -0.319044 -0.680966 0
M  V30 1089 H 100.527 -1.98581 -2.22729 0
M  V30 1090 C 99.2757 -0.663983 -3.41301 0
M  V30 1091 H 98.5987 -1.47605 -3.71555 0
M  V30 1092 H 100.039 -0.558663 -4.20303 0
M  V30 1093 C 98.4977 0.629169 -3.30973 0
M  V30 1094 O 99.0277 1.67404 -3.65156 0
M  V30 1095 N 97.2337 0.611057 -2.84103 0
M  V30 1096 H 96.7807 -0.239593 -2.56483 0
M  V30 1097 H 96.7387 1.47647 -2.77575 0
M  V30 1098 N 100.511 1.16574 -1.06058 0
M  V30 1099 C 101.788 1.83048 -0.689416 0
M  V30 1100 C 102.168 1.94122 0.829443 0
M  V30 1101 O 101.516 1.48249 1.7388 0
M  V30 1102 C 101.726 3.20186 -1.38859 0
M  V30 1103 C 103.074 3.95989 -1.53226 0
M  V30 1104 O 104.098 3.29696 -1.3483 0
M  V30 1105 O 102.957 5.14813 -1.83384 0
M  V30 1106 H 100.051 0.790258 -0.243764 0
M  V30 1107 H 102.597 1.23797 -1.16071 0
M  V30 1108 H 101.369 3.07146 -2.4244 0
M  V30 1109 H 100.992 3.87112 -0.907216 0
M  V30 1110 N 101.989 0.842826 1.3317 0
M  V30 1111 C 103.238 0.436738 1.96915 0
M  V30 1112 C 103.551 -1.01025 1.67491 0
M  V30 1113 O 104.757 -1.5212 2.24881 0
M  V30 1114 C 103.213 0.730021 3.52418 0
M  V30 1115 C 102.821 2.19195 3.90714 0
M  V30 1116 C 104.565 0.391076 4.22695 0
M  V30 1117 C 102.472 2.42907 5.39212 0
M  V30 1118 H 101.402 0.15958 0.736919 0
M  V30 1119 H 104.053 1.03196 1.51733 0
M  V30 1120 H 102.435 0.0643755 3.95948 0
M  V30 1121 H 103.609 2.8984 3.58231 0
M  V30 1122 H 101.924 2.49425 3.33431 0
M  V30 1123 H 104.521 0.545817 5.31907 0
M  V30 1124 H 104.864 -0.666294 4.10933 0
M  V30 1125 H 105.397 1.01212 3.84709 0
M  V30 1126 H 102.136 3.47224 5.55982 0
M  V30 1127 H 101.656 1.76827 5.73142 0
M  V30 1128 H 103.335 2.2626 6.06148 0
M  V30 1129 N 103.467 -1.45747 0.599634 0
M  V30 1130 C 104.714 -2.02292 0.0917284 0
M  V30 1131 C 105.042 -1.46906 -1.27472 0
M  V30 1132 O 104.297 -0.630652 -1.8526 0
M  V30 1133 C 104.596 -3.57399 -0.00602758 0
M  V30 1134 C 104.262 -4.31902 1.29503 0
M  V30 1135 C 102.924 -4.51974 1.65144 0
M  V30 1136 C 105.276 -4.74551 2.15525 0
M  V30 1137 C 102.604 -5.11949 2.86574 0
M  V30 1138 C 104.956 -5.35868 3.36196 0
M  V30 1139 C 103.62 -5.54165 3.72099 0
M  V30 1140 H 102.89 -0.740239 0.0335658 0
M  V30 1141 H 105.537 -1.7491 0.779661 0
M  V30 1142 H 103.842 -3.84014 -0.777183 0
M  V30 1143 H 105.539 -3.98846 -0.415038 0
M  V30 1144 H 102.129 -4.16588 1.00761 0
M  V30 1145 H 106.313 -4.58784 1.8929 0
M  V30 1146 H 101.569 -5.24305 3.14507 0
M  V30 1147 H 105.743 -5.6787 4.03109 0
M  V30 1148 H 103.37 -6.00406 4.6628 0
M  V30 1149 N 104.945 -0.338344 -1.53925 0
M  V30 1150 C 105.855 0.529421 -2.28548 0
M  V30 1151 C 106.871 1.11645 -1.3346 0
M  V30 1152 O 108.047 1.13325 -1.66492 0
M  V30 1153 C 105.112 1.66713 -3.03987 0
M  V30 1154 C 104.173 1.11041 -4.14691 0
M  V30 1155 C 103.406 2.19389 -4.86522 0
M  V30 1156 O 103.629 3.40013 -4.57982 0
M  V30 1157 O 102.563 1.83976 -5.73094 0
M  V30 1158 H 106.389 -0.0770399 -3.03602 0
M  V30 1159 H 103.974 -0.103555 -1.49041 0
M  V30 1160 H 105.856 2.32918 -3.5118 0
M  V30 1161 H 104.531 2.25949 -2.31794 0
M  V30 1162 H 103.438 0.413024 -3.71813 0
M  V30 1163 H 104.771 0.562975 -4.8897 0
M  V30 1164 N 106.423 1.57458 -0.0668435 0
M  V30 1165 C 107.839 1.56947 0.289772 0
M  V30 1166 C 108.039 1.07584 1.70376 0
M  V30 1167 O 107.095 0.739486 2.41429 0
M  V30 1168 C 108.408 3.0052 0.103943 0
M  V30 1169 C 109.956 3.12517 0.173857 0
M  V30 1170 C 110.431 4.57997 0.0163682 0
M  V30 1171 N 111.922 4.63144 0.0721352 0
M  V30 1172 C 112.657 5.73394 -0.0253794 0
M  V30 1173 N 112.153 6.92576 -0.176133 0
M  V30 1174 N 113.946 5.62091 0.0313305 0
M  V30 1175 H 106.097 1.87863 -0.991027 0
M  V30 1176 H 108.36 0.86583 -0.38606 0
M  V30 1177 H 108.066 3.40729 -0.871572 0
M  V30 1178 H 107.94 3.67304 0.858366 0
M  V30 1179 H 110.327 2.72197 1.13985 0
M  V30 1180 H 110.408 2.48381 -0.611586 0
M  V30 1181 H 110.052 4.99005 -0.946374 0
M  V30 1182 H 109.982 5.20158 0.821153 0
M  V30 1183 H 112.473 3.77436 0.187263 0
M  V30 1184 H 112.786 7.72418 -0.242821 0
M  V30 1185 H 111.131 6.94678 -0.211429 0
M  V30 1186 H 114.322 4.67867 0.147773 0
M  V30 1187 H 114.495 6.47982 -0.048121 0
M  V30 1188 N 107.901 -0.206675 1.56239 0
M  V30 1189 C 109.15 -0.926964 1.79138 0
M  V30 1190 C 109.463 -1.84901 0.638043 0
M  V30 1191 O 110.669 -2.60906 0.751033 0
M  V30 1192 C 109.125 -1.6986 3.17294 0
M  V30 1193 C 108.733 -0.821956 4.40395 0
M  V30 1194 C 110.477 -2.40922 3.4951 0
M  V30 1195 C 108.384 -1.59179 5.69575 0
M  V30 1196 H 107.314 -0.349864 0.667915 0
M  V30 1197 H 109.965 -0.180487 1.8261 0
M  V30 1198 H 108.347 -2.48853 3.08039 0
M  V30 1199 H 109.521 -0.0715019 4.60745 0
M  V30 1200 H 107.836 -0.222741 4.15804 0
M  V30 1201 H 110.433 -2.99047 4.43255 0
M  V30 1202 H 110.776 -3.14542 2.72707 0
M  V30 1203 H 111.309 -1.68905 3.60161 0
M  V30 1204 H 108.048 -0.898589 6.49312 0
M  V30 1205 H 107.568 -2.31648 5.53262 0
M  V30 1206 H 109.247 -2.14862 6.10281 0
M  V30 1207 N 109.379 -1.50304 -0.473955 0
M  V30 1208 C 110.342 -1.6841 -1.55469 0
M  V30 1209 C 111.342 -0.554905 -1.50922 0
M  V30 1210 O 112.532 -0.821882 -1.53593 0
M  V30 1211 C 109.664 -1.70667 -2.95102 0
M  V30 1212 H 110.857 -2.64828 -1.40733 0
M  V30 1213 H 108.41 -1.39742 -0.700132 0
M  V30 1214 H 109.145 -0.75932 -3.15285 0
M  V30 1215 H 108.93 -2.52698 -2.9981 0
M  V30 1216 H 110.42 -1.8664 -3.73571 0
M  V30 1217 N 110.857 0.726932 -1.39834 0
M  V30 1218 C 112.105 1.4837 -1.37225 0
M  V30 1219 C 112.426 1.94979 0.0284857 0
M  V30 1220 O 111.696 1.69555 0.981213 0
M  V30 1221 H 110.276 0.55043 -0.505011 0
M  V30 1222 H 112.938 0.862468 -1.74778 0
M  V30 1223 H 112.034 2.36198 -2.04003 0
M  V30 1224 N 112.336 1.25143 0.95797 0
M  V30 1225 C 113.246 1.06968 2.08794 0
M  V30 1226 C 114.262 0.00773911 1.73998 0
M  V30 1227 O 115.438 0.207972 2.00323 0
M  V30 1228 C 112.503 0.68691 3.39827 0
M  V30 1229 C 111.564 1.82641 3.88511 0
M  V30 1230 C 110.797 1.46181 5.1329 0
M  V30 1231 O 111.02 0.355971 5.69288 0
M  V30 1232 O 109.954 2.29085 5.566 0
M  V30 1233 H 113.78 2.01723 2.27027 0
M  V30 1234 H 111.365 1.04051 1.07209 0
M  V30 1235 H 113.247 0.485417 4.18595 0
M  V30 1236 H 111.922 -0.231417 3.22872 0
M  V30 1237 H 110.829 2.08274 3.10762 0
M  V30 1238 H 112.162 2.72386 4.09959 0
M  V30 1239 N 113.814 -1.1601 1.06675 0
M  V30 1240 C 114.777 -2.18724 0.685001 0
M  V30 1241 C 115.777 -1.58496 -0.271246 0
M  V30 1242 O 116.967 -1.74119 -0.0531156 0
M  V30 1243 C 114.099 -3.40899 0.00853648 0
M  V30 1244 H 115.292 -2.54011 1.59431 0
M  V30 1245 H 112.845 -1.30352 0.862441 0
M  V30 1246 H 113.58 -3.11173 -0.913337 0
M  V30 1247 H 113.365 -3.8587 0.696204 0
M  V30 1248 H 114.855 -4.16886 -0.24414 0
M  V30 1249 N 115.292 -0.849877 -1.32721 0
M  V30 1250 C 116.517 -0.463856 -2.02146 0
M  V30 1251 C 116.942 0.930449 -1.63476 0
M  V30 1252 O 116.3 1.61033 -0.832952 0
M  V30 1253 C 116.348 -0.604955 -3.55489 0
M  V30 1254 O 115.452 0.36425 -4.10788 0
M  V30 1255 H 114.793 -0.187046 -0.637111 0
M  V30 1256 H 117.323 -1.14775 -1.69375 0
M  V30 1257 H 117.333 -0.490696 -4.05038 0
M  V30 1258 H 116.008 -1.62174 -3.82978 0
M  V30 1259 H 114.585 0.206628 -3.72327 0
M  V30 1260 N 116.77 1.45427 -0.607355 0
M  V30 1261 C 118.186 1.57283 -0.270985 0
M  V30 1262 C 118.386 1.59875 1.22647 0
M  V30 1263 O 117.442 1.52893 2.00948 0
M  V30 1264 C 118.755 2.85566 -0.941952 0
M  V30 1265 C 120.303 2.9924 -0.917849 0
M  V30 1266 C 120.778 4.30293 -1.56882 0
M  V30 1267 N 122.269 4.37051 -1.5343 0
M  V30 1268 C 123.004 5.37123 -2.00715 0
M  V30 1269 N 122.5 6.43734 -2.56084 0
M  V30 1270 N 124.293 5.28479 -1.91484 0
M  V30 1271 H 116.444 1.41988 -1.57966 0
M  V30 1272 H 118.707 0.67885 -0.661715 0
M  V30 1273 H 118.413 2.8955 -1.99633 0
M  V30 1274 H 118.287 3.74322 -0.465096 0
M  V30 1275 H 120.674 2.94822 0.127984 0
M  V30 1276 H 120.755 2.11895 -1.43297 0
M  V30 1277 H 120.399 4.35469 -2.61398 0
M  V30 1278 H 120.329 5.16454 -1.02873 0
M  V30 1279 H 122.82 3.60615 -1.12982 0
M  V30 1280 H 123.133 7.16341 -2.89958 0
M  V30 1281 H 121.478 6.44485 -2.60122 0
M  V30 1282 H 124.669 4.44098 -1.47967 0
M  V30 1283 H 124.842 6.0632 -2.28648 0
M  V30 1284 N 118.248 0.346503 1.53744 0
M  V30 1285 C 119.178 -0.501193 2.28058 0
M  V30 1286 C 120.159 -1.10014 1.29734 0
M  V30 1287 O 121.344 -1.12097 1.58581 0
M  V30 1288 C 118.474 -1.65078 3.05559 0
M  V30 1289 C 117.428 -1.18003 4.11411 0
M  V30 1290 C 116.754 -2.41837 4.76884 0
M  V30 1291 C 118.054 -0.278394 5.21558 0
M  V30 1292 H 119.748 0.11875 2.99164 0
M  V30 1293 H 117.294 0.0585531 1.43881 0
M  V30 1294 H 119.247 -2.25028 3.56287 0
M  V30 1295 H 117.971 -2.29767 2.32109 0
M  V30 1296 H 116.63 -0.603331 3.61601 0
M  V30 1297 H 116.278 -3.0494 4.00026 0
M  V30 1298 H 115.978 -2.1102 5.48402 0
M  V30 1299 H 117.502 -3.02508 5.30397 0
M  V30 1300 H 118.916 -0.784823 5.67903 0
M  V30 1301 H 117.313 -0.0619707 6.00068 0
M  V30 1302 H 118.383 0.684677 4.80042 0
M  V30 1303 N 119.726 -1.57421 0.075193 0
M  V30 1304 C 120.689 -2.11791 -0.876203 0
M  V30 1305 C 121.689 -1.04268 -1.22412 0
M  V30 1306 O 122.879 -1.30242 -1.15684 0
M  V30 1307 C 120.011 -2.62207 -2.17854 0
M  V30 1308 H 121.204 -2.9716 -0.40444 0
M  V30 1309 H 118.757 -1.55333 -0.173557 0
M  V30 1310 H 119.492 -1.803 -2.6956 0
M  V30 1311 H 119.277 -3.40802 -1.93897 0
M  V30 1312 H 120.767 -3.04335 -2.85955 0
M  V30 1313 N 121.204 0.198386 -1.56346 0
M  V30 1314 C 122.154 1.2499 -1.90687 0
M  V30 1315 C 123.138 1.41158 -0.772217 0
M  V30 1316 O 124.33 1.43584 -1.03502 0
M  V30 1317 C 121.459 2.59542 -2.24706 0
M  V30 1318 C 120.545 2.47181 -3.44619 0
M  V30 1319 N 120.936 2.04495 -4.62618 0
M  V30 1320 C 119.234 2.78082 -3.48692 0
M  V30 1321 C 119.935 2.03945 -5.44776 0
M  V30 1322 N 118.911 2.45323 -4.85095 0
M  V30 1323 H 122.713 0.911149 -2.7942 0
M  V30 1324 H 120.227 0.40684 -1.57221 0
M  V30 1325 H 122.224 3.3549 -2.47491 0
M  V30 1326 H 120.884 2.94244 -1.37298 0
M  V30 1327 H 121.895 1.75256 -4.87345 0
M  V30 1328 H 118.572 3.17002 -2.71691 0
M  V30 1329 H 119.962 1.72872 -6.4928 0
M  V30 1330 N 122.682 1.50554 0.465978 0
M  V30 1331 C 123.912 1.65323 1.23903 0
M  V30 1332 C 124.32 0.338051 1.86155 0
M  V30 1333 O 123.663 -0.690518 1.70228 0
M  V30 1334 C 123.725 2.69048 2.3844 0
M  V30 1335 C 123.389 4.12462 1.96784 0
M  V30 1336 C 124.386 4.98168 1.48745 0
M  V30 1337 C 122.071 4.58407 2.05349 0
M  V30 1338 C 124.065 6.27868 1.0982 0
M  V30 1339 C 121.752 5.88112 1.66035 0
M  V30 1340 C 122.75 6.72668 1.18349 0
M  V30 1341 O 122.438 7.99951 0.795825 0
M  V30 1342 H 122.17 0.558629 0.38067 0
M  V30 1343 H 124.724 1.97561 0.562022 0
M  V30 1344 H 122.954 2.32062 3.09328 0
M  V30 1345 H 124.643 2.72985 3.0039 0
M  V30 1346 H 125.409 4.63885 1.41546 0
M  V30 1347 H 121.288 3.92735 2.41414 0
M  V30 1348 H 124.832 6.93819 0.725293 0
M  V30 1349 H 120.729 6.21914 1.72895 0
M  V30 1350 H 121.497 8.13265 0.924222 0
M  V30 1351 N 124.16 -0.719506 1.40217 0
M  V30 1352 C 125.108 -1.85493 1.40339 0
M  V30 1353 C 126.102 -1.66995 0.284415 0
M  V30 1354 O 127.308 -1.74148 0.455252 0
M  V30 1355 H 123.683 -0.610857 0.438586 0
M  V30 1356 H 125.654 -1.82506 2.36081 0
M  V30 1357 C 124.403 -3.23321 1.27901 0
M  V30 1358 H 123.726 -3.38159 2.1328 0
M  V30 1359 H 125.166 -4.02914 1.32045 0
M  V30 1360 C 123.625 -3.36898 -0.0111355 0
M  V30 1361 O 124.155 -3.89674 -0.975538 0
M  V30 1362 N 122.361 -2.90492 -0.0793393 0
M  V30 1363 H 121.908 -2.47731 0.706183 0
M  V30 1364 H 121.866 -2.99955 -0.942038 0
M  V30 1365 N 125.638 -1.25649 -0.95132 0
M  V30 1366 C 126.585 -1.06323 -2.04851 0
M  V30 1367 C 127.555 0.0286491 -1.66075 0
M  V30 1368 O 128.74 -0.12917 -1.90362 0
M  V30 1369 C 125.88 -0.691529 -3.381 0
M  V30 1370 C 124.993 -1.85861 -3.89974 0
M  V30 1371 C 124.128 -1.43096 -5.11563 0
M  V30 1372 C 123.167 -2.56696 -5.55674 0
M  V30 1373 N 122.304 -2.14684 -6.68472 0
M  V30 1374 H 127.144 -2.00222 -2.20715 0
M  V30 1375 H 124.681 -0.997027 -1.08156 0
M  V30 1376 H 126.639 -0.456963 -4.1469 0
M  V30 1377 H 125.269 0.210474 -3.22113 0
M  V30 1378 H 124.321 -2.20639 -3.09875 0
M  V30 1379 H 125.633 -2.71161 -4.18657 0
M  V30 1380 H 124.787 -1.15624 -5.9558 0
M  V30 1381 H 123.526 -0.548722 -4.84603 0
M  V30 1382 H 122.531 -2.84909 -4.7022 0
M  V30 1383 H 123.756 -3.45503 -5.8464 0
M  V30 1384 H 121.702 -1.28881 -6.43215 0
M  V30 1385 H 121.619 -2.9353 -6.96689 0
M  V30 1386 H 122.887 -1.90397 -7.5589 0
M  V30 1387 N 127.117 1.15442 -1.07289 0
M  V30 1388 C 128.533 1.38201 -0.798288 0
M  V30 1389 C 128.733 1.92429 0.597769 0
M  V30 1390 O 127.789 2.12962 1.3566 0
M  V30 1391 C 129.102 2.35357 -1.87156 0
M  V30 1392 C 130.65 2.49021 -1.89624 0
M  V30 1393 C 131.125 3.49468 -2.96034 0
M  V30 1394 N 132.616 3.57003 -2.95132 0
M  V30 1395 C 133.351 4.34543 -3.74112 0
M  V30 1396 N 132.847 5.15421 -4.6294 0
M  V30 1397 N 134.64 4.29625 -3.62462 0
M  V30 1398 H 126.791 0.78584 -1.97328 0
M  V30 1399 H 129.054 0.408065 -0.855679 0
M  V30 1400 H 128.76 2.02626 -2.87464 0
M  V30 1401 H 128.634 3.35129 -1.73114 0
M  V30 1402 H 131.021 2.81051 -0.899687 0
M  V30 1403 H 131.102 1.4925 -2.07745 0
M  V30 1404 H 130.746 3.18173 -3.95889 0
M  V30 1405 H 130.676 4.48992 -2.75161 0
M  V30 1406 H 133.167 2.99276 -2.30743 0
M  V30 1407 H 133.48 5.7183 -5.19837 0
M  V30 1408 H 131.825 5.14729 -4.66989 0
M  V30 1409 H 135.016 3.65505 -2.92444 0
M  V30 1410 H 135.189 4.89807 -4.24256 0
M  V30 1411 N 128.595 0.856903 1.32268 0
M  V30 1412 C 129.82 0.474569 2.01897 0
M  V30 1413 C 130.245 -0.921766 1.63967 0
M  V30 1414 O 129.603 -1.60589 0.84148 0
M  V30 1415 C 129.651 0.623799 3.55164 0
M  V30 1416 O 128.755 -0.342459 4.10976 0
M  V30 1417 H 128.096 0.190422 0.63611 0
M  V30 1418 H 130.626 1.15672 1.68764 0
M  V30 1419 H 130.636 0.512169 4.04773 0
M  V30 1420 H 129.311 1.64202 3.82113 0
M  V30 1421 H 127.888 -0.18688 3.72431 0
M  V30 1422 N 130.073 -1.45103 0.615059 0
M  V30 1423 C 131.301 -2.06553 0.11977 0
M  V30 1424 C 131.716 -1.45842 -1.19898 0
M  V30 1425 O 131.073 -0.575325 -1.73194 0
M  V30 1426 C 131.124 -3.61495 -0.018364 0
M  V30 1427 O 130.845 -4.19942 1.24822 0
M  V30 1428 C 132.346 -4.39947 -0.544237 0
M  V30 1429 H 129.566 -0.667096 0.0722739 0
M  V30 1430 H 132.11 -1.8623 0.84491 0
M  V30 1431 H 130.265 -3.81135 -0.693865 0
M  V30 1432 H 130.679 -5.13204 1.0827 0
M  V30 1433 H 132.153 -5.48838 -0.589953 0
M  V30 1434 H 132.63 -4.10255 -1.56805 0
M  V30 1435 H 133.236 -4.25188 0.0974703 0
M  V30 1436 N 131.551 -0.354651 -1.53558 0
M  V30 1437 C 132.8 0.239504 -2.00273 0
M  V30 1438 C 133.113 1.50759 -1.24623 0
M  V30 1439 O 134.319 2.17968 -1.61871 0
M  V30 1440 C 132.775 0.477341 -3.5672 0
M  V30 1441 C 132.383 -0.775488 -4.41237 0
M  V30 1442 C 134.127 1.02975 -4.11821 0
M  V30 1443 C 132.034 -0.507838 -5.89216 0
M  V30 1444 H 130.964 0.0932743 -0.748208 0
M  V30 1445 H 133.615 -0.471701 -1.77334 0
M  V30 1446 H 131.997 1.24953 -3.7577 0
M  V30 1447 H 133.171 -1.54963 -4.33962 0
M  V30 1448 H 131.486 -1.25033 -3.97185 0
M  V30 1449 H 134.083 1.24513 -5.2 0
M  V30 1450 H 134.426 1.98862 -3.65731 0
M  V30 1451 H 134.959 0.317994 -3.96527 0
M  V30 1452 H 131.698 -1.43674 -6.39561 0
M  V30 1453 H 131.218 0.228011 -5.99366 0
M  V30 1454 H 132.897 -0.129238 -6.46871 0
M  V30 1455 N 133.029 1.57378 -0.0835403 0
M  V30 1456 C 134.257 1.98263 0.59157 0
M  V30 1457 C 134.672 0.962302 1.62435 0
M  V30 1458 O 134.029 -0.049581 1.82433 0
M  V30 1459 C 134.08 3.39214 1.24965 0
M  V30 1460 O 133.801 4.37339 0.258186 0
M  V30 1461 C 135.302 3.95038 2.01147 0
M  V30 1462 H 132.522 0.651773 0.159477 0
M  V30 1463 H 135.066 2.03878 -0.159415 0
M  V30 1464 H 133.221 3.34649 1.95164 0
M  V30 1465 H 133.635 5.19371 0.731734 0
M  V30 1466 H 135.109 4.95848 2.42567 0
M  V30 1467 H 135.586 3.32222 2.87272 0
M  V30 1468 H 136.192 4.0304 1.35789 0
M  V30 1469 N 134.507 -0.190092 1.56449 0
M  V30 1470 C 135.732 -0.929864 1.85387 0
M  V30 1471 C 136.157 -1.7585 0.667704 0
M  V30 1472 O 135.515 -1.77198 -0.383459 0
M  V30 1473 C 135.563 -1.79773 3.12593 0
M  V30 1474 O 134.667 -2.89713 2.93496 0
M  V30 1475 H 134.008 -0.261574 0.610307 0
M  V30 1476 H 136.538 -0.193896 2.03679 0
M  V30 1477 H 136.548 -2.20139 3.43515 0
M  V30 1478 H 135.223 -1.18892 3.98544 0
M  V30 1479 H 133.8 -2.53065 2.73884 0
M  V30 1480 N 135.985 -1.50799 -0.457987 0
M  V30 1481 C 137.401 -1.38515 -0.792819 0
M  V30 1482 C 137.601 -0.451409 -1.96379 0
M  V30 1483 O 136.657 0.10112 -2.52297 0
M  V30 1484 C 137.97 -2.80149 -1.09258 0
M  V30 1485 C 139.518 -2.89156 -1.19825 0
M  V30 1486 C 139.993 -4.31651 -1.53106 0
M  V30 1487 N 141.484 -4.34662 -1.60072 0
M  V30 1488 C 142.219 -5.41928 -1.87354 0
M  V30 1489 N 141.715 -6.59384 -2.12568 0
M  V30 1490 N 143.508 -5.29385 -1.88965 0
M  V30 1491 H 135.659 -2.10073 0.313511 0
M  V30 1492 H 137.922 -0.944803 0.0777862 0
M  V30 1493 H 137.628 -3.50374 -0.305084 0
M  V30 1494 H 137.502 -3.18204 -2.02549 0
M  V30 1495 H 139.889 -2.19141 -1.97639 0
M  V30 1496 H 139.97 -2.54626 -0.244821 0
M  V30 1497 H 139.614 -5.02208 -0.758266 0
M  V30 1498 H 139.544 -4.63678 -2.49621 0
M  V30 1499 H 142.035 -3.49973 -1.42573 0
M  V30 1500 H 142.348 -7.36934 -2.32696 0
M  V30 1501 H 140.693 -6.62535 -2.09933 0
M  V30 1502 H 143.884 -4.36616 -1.68772 0
M  V30 1503 H 144.057 -6.13066 -2.09891 0
M  V30 1504 N 137.463 0.71206 -1.40597 0
M  V30 1505 C 138.373 1.8562 -1.43466 0
M  V30 1506 C 139.389 1.70902 -0.326902 0
M  V30 1507 O 140.565 1.93105 -0.572043 0
M  V30 1508 C 137.63 3.21451 -1.29884 0
M  V30 1509 C 136.691 3.48398 -2.50833 0
M  V30 1510 C 135.924 4.77749 -2.3789 0
M  V30 1511 O 136.147 5.53089 -1.39459 0
M  V30 1512 O 135.081 5.05111 -3.27333 0
M  V30 1513 H 138.907 1.86155 -2.39958 0
M  V30 1514 H 136.492 0.86295 -1.21957 0
M  V30 1515 H 138.374 4.02579 -1.24531 0
M  V30 1516 H 137.049 3.21636 -0.364997 0
M  V30 1517 H 135.956 2.67265 -2.61763 0
M  V30 1518 H 137.289 3.53014 -3.4299 0
M  V30 1519 N 138.941 1.26152 0.944643 0
M  V30 1520 C 140.19 1.10883 1.68487 0
M  V30 1521 C 140.503 -0.348153 1.92477 0
M  V30 1522 O 141.709 -0.621459 2.64292 0
M  V30 1523 C 140.165 1.93624 3.03377 0
M  V30 1524 C 139.773 3.43875 2.87148 0
M  V30 1525 C 141.517 1.86954 3.81115 0
M  V30 1526 C 139.424 4.18875 4.1749 0
M  V30 1527 H 138.354 0.41135 0.631907 0
M  V30 1528 H 141.005 1.50433 1.05082 0
M  V30 1529 H 139.387 1.46904 3.67743 0
M  V30 1530 H 140.561 3.98338 2.31653 0
M  V30 1531 H 138.876 3.51744 2.22856 0
M  V30 1532 H 141.473 2.40275 4.77673 0
M  V30 1533 H 141.816 0.839518 4.07747 0
M  V30 1534 H 142.349 2.31477 3.23517 0
M  V30 1535 H 139.088 5.22332 3.96043 0
M  V30 1536 H 138.608 3.69193 4.72712 0
M  V30 1537 H 140.287 4.27134 4.85968 0
M  V30 1538 N 140.419 -1.14872 1.07899 0
M  V30 1539 C 141.351 -2.19425 0.662231 0
M  V30 1540 C 142.364 -1.60231 -0.288079 0
M  V30 1541 O 143.553 -1.78336 -0.076534 0
M  V30 1542 C 140.653 -3.38867 -0.0470695 0
M  V30 1543 C 139.826 -4.27597 0.920831 0
M  V30 1544 C 138.885 -5.25616 0.247805 0
M  V30 1545 O 137.911 -5.62189 0.890599 0
M  V30 1546 N 139.113 -5.71746 -1.00435 0
M  V30 1547 H 141.878 -2.55797 1.56166 0
M  V30 1548 H 139.439 -1.30042 0.964404 0
M  V30 1549 H 141.431 -4.01497 -0.50813 0
M  V30 1550 H 140.001 -3.00864 -0.848523 0
M  V30 1551 H 139.221 -3.61982 1.56087 0
M  V30 1552 H 140.509 -4.83748 1.57688 0
M  V30 1553 H 139.907 -5.44153 -1.54642 0
M  V30 1554 H 138.464 -6.36389 -1.40899 0
M  V30 1555 N 141.898 -0.863906 -1.31812 0
M  V30 1556 C 143.126 -0.486111 -2.01108 0
M  V30 1557 C 143.541 0.919755 -1.64882 0
M  V30 1558 O 142.898 1.60162 -0.874893 0
M  V30 1559 C 142.949 -0.626435 -3.56031 0
M  V30 1560 O 142.67 -1.97693 -3.90959 0
M  V30 1561 C 144.171 -0.248857 -4.42601 0
M  V30 1562 H 141.391 -0.190052 -0.643523 0
M  V30 1563 H 143.935 -1.1634 -1.68182 0
M  V30 1564 H 142.09 0.00322717 -3.874 0
M  V30 1565 H 142.504 -1.98034 -4.85678 0
M  V30 1566 H 143.978 -0.398016 -5.50563 0
M  V30 1567 H 144.455 0.811489 -4.31638 0
M  V30 1568 H 145.061 -0.853971 -4.16638 0
M  V30 1569 N 143.376 1.44774 -0.622745 0
M  V30 1570 C 144.339 2.29069 0.0774015 0
M  V30 1571 C 145.339 1.4059 0.780461 0
M  V30 1572 O 146.529 1.62551 0.626322 0
M  V30 1573 C 143.661 3.21974 1.12006 0
M  V30 1574 H 144.854 2.92459 -0.663901 0
M  V30 1575 H 142.407 1.51548 -0.382486 0
M  V30 1576 H 143.142 2.63417 1.89162 0
M  V30 1577 H 142.927 3.87168 0.619951 0
M  V30 1578 H 144.417 3.85318 1.60995 0
M  V30 1579 N 144.854 0.36279 1.53368 0
M  V30 1580 C 146.1 -0.228113 2.01513 0
M  V30 1581 C 146.433 -1.48648 1.2497 0
M  V30 1582 O 145.708 -1.91459 0.342616 0
M  V30 1583 C 145.991 -0.522884 3.56284 0
M  V30 1584 C 145.844 0.74892 4.43521 0
M  V30 1585 C 147.163 -1.32461 4.19693 0
M  V30 1586 H 144.282 -0.0814343 0.732487 0
M  V30 1587 H 146.924 0.48713 1.83649 0
M  V30 1588 H 145.074 -1.1322 3.71636 0
M  V30 1589 H 146.746 1.38648 4.39971 0
M  V30 1590 H 144.989 1.36986 4.11603 0
M  V30 1591 H 145.66 0.497667 5.49752 0
M  V30 1592 H 148.136 -0.809203 4.08156 0
M  V30 1593 H 147.012 -1.49961 5.28018 0
M  V30 1594 H 147.273 -2.33232 3.75573 0
M  V30 1595 N 146.332 -1.57332 0.0918853 0
M  V30 1596 C 147.748 -1.57389 -0.264766 0
M  V30 1597 C 147.948 -1.10281 -1.68643 0
M  V30 1598 O 147.004 -0.777801 -2.40222 0
M  V30 1599 C 148.317 -3.00648 -0.0561195 0
M  V30 1600 C 149.865 -3.12754 -0.124116 0
M  V30 1601 C 150.34 -4.57965 0.0564972 0
M  V30 1602 N 151.831 -4.632 0.00155611 0
M  V30 1603 C 152.566 -5.73281 0.116598 0
M  V30 1604 N 152.062 -6.92208 0.286294 0
M  V30 1605 N 153.855 -5.6207 0.0580973 0
M  V30 1606 H 146.006 -1.86262 1.02079 0
M  V30 1607 H 148.269 -0.859579 0.399786 0
M  V30 1608 H 147.975 -3.393 0.925669 0
M  V30 1609 H 147.849 -3.68623 -0.799823 0
M  V30 1610 H 150.236 -2.73976 -1.09641 0
M  V30 1611 H 150.317 -2.47377 0.651024 0
M  V30 1612 H 149.961 -4.97436 1.02564 0
M  V30 1613 H 149.891 -5.21399 -0.738297 0
M  V30 1614 H 152.382 -3.77686 -0.127192 0
M  V30 1615 H 152.695 -7.71934 0.365676 0
M  V30 1616 H 151.04 -6.94254 0.32192 0
M  V30 1617 H 154.231 -4.68043 -0.0733204 0
M  V30 1618 H 154.404 -6.47824 0.151203 0
M  V30 1619 N 147.81 0.181792 -1.56548 0
M  V30 1620 C 148.74 1.22765 -1.98623 0
M  V30 1621 C 149.721 1.46747 -0.860189 0
M  V30 1622 O 150.906 1.58259 -1.12551 0
M  V30 1623 C 148.036 2.56894 -2.33715 0
M  V30 1624 C 146.99 2.475 -3.49182 0
M  V30 1625 C 146.316 3.86023 -3.69986 0
M  V30 1626 C 147.616 1.98866 -4.82959 0
M  V30 1627 H 149.31 0.877942 -2.86239 0
M  V30 1628 H 146.856 0.42088 -1.37712 0
M  V30 1629 H 148.809 3.30253 -2.61746 0
M  V30 1630 H 147.533 2.93632 -1.42997 0
M  V30 1631 H 146.192 1.76596 -3.21262 0
M  V30 1632 H 145.84 4.20136 -2.76576 0
M  V30 1633 H 145.54 3.80609 -4.47672 0
M  V30 1634 H 147.064 4.60984 -4.00407 0
M  V30 1635 H 148.478 2.61992 -5.09934 0
M  V30 1636 H 146.875 2.04424 -5.64208 0
M  V30 1637 H 147.945 0.942465 -4.75653 0
M  V30 1638 N 149.288 1.51039 0.449983 0
M  V30 1639 C 150.218 1.74379 1.55288 0
M  V30 1640 C 151.199 0.593236 1.5942 0
M  V30 1641 O 152.384 0.834625 1.7535 0
M  V30 1642 C 149.514 1.85728 2.93466 0
M  V30 1643 C 148.468 3.01078 3.04197 0
M  V30 1644 C 147.794 2.97595 4.44231 0
M  V30 1645 C 149.094 4.41254 2.7945 0
M  V30 1646 H 150.788 2.66725 1.36008 0
M  V30 1647 H 148.334 1.2835 0.652864 0
M  V30 1648 H 150.287 2.0064 3.70569 0
M  V30 1649 H 149.011 0.900207 3.13949 0
M  V30 1650 H 147.67 2.85851 2.29531 0
M  V30 1651 H 147.318 1.99691 4.61663 0
M  V30 1652 H 147.018 3.75046 4.52343 0
M  V30 1653 H 148.542 3.14583 5.23326 0
M  V30 1654 H 149.956 4.56897 3.46292 0
M  V30 1655 H 148.353 5.20315 2.98985 0
M  V30 1656 H 149.423 4.52164 1.75144 0
M  V30 1657 N 150.766 -0.704594 1.40972 0
M  V30 1658 C 151.696 -1.83124 1.44872 0
M  V30 1659 C 152.677 -1.67281 0.30838 0
M  V30 1660 O 153.862 -1.87149 0.518556 0
M  V30 1661 C 150.992 -3.21181 1.32136 0
M  V30 1662 C 149.946 -3.51714 2.43888 0
M  V30 1663 C 149.272 -4.89032 2.16222 0
M  V30 1664 C 150.572 -3.516 3.86232 0
M  V30 1665 H 152.266 -1.80117 2.39161 0
M  V30 1666 H 149.812 -0.865145 1.15114 0
M  V30 1667 H 151.765 -3.99702 1.33479 0
M  V30 1668 H 150.489 -3.24791 0.343279 0
M  V30 1669 H 149.148 -2.75539 2.41813 0
M  V30 1670 H 148.796 -4.89256 1.16778 0
M  V30 1671 H 148.496 -5.10426 2.911 0
M  V30 1672 H 150.02 -5.69873 2.19265 0
M  V30 1673 H 151.434 -4.2014 3.9007 0
M  V30 1674 H 149.831 -3.84523 4.60719 0
M  V30 1675 H 150.901 -2.50757 4.15029 0
M  V30 1676 N 152.244 -1.26651 -0.937939 0
M  V30 1677 C 153.655 -1.1125 -1.49934 0
M  V30 1678 C 154.006 0.306077 -1.93798 0
M  V30 1679 O 153.131 1.19792 -1.80219 0
M  V30 1680 C 153.726 -2.01339 -2.72485 0
M  V30 1681 C 152.285 -1.90074 -3.24883 0
M  V30 1682 C 151.432 -1.94498 -1.97651 0
M  V30 1683 H 154.383 -1.39693 -0.753091 0
M  V30 1684 H 154.404 -1.56319 -3.46907 0
M  V30 1685 H 153.916 -3.04577 -2.40529 0
M  V30 1686 H 152.017 -0.897827 -3.61621 0
M  V30 1687 H 152.13 -2.75778 -3.9177 0
M  V30 1688 H 150.494 -1.38591 -2.13693 0
M  V30 1689 H 151.277 -2.99372 -1.68022 0
M  V30 1690 N 153.722 1.14298 -1.08507 0
M  V30 1691 C 154.97 1.84993 -0.813763 0
M  V30 1692 C 155.291 1.83405 0.662393 0
M  V30 1693 O 154.561 1.28319 1.48024 0
M  V30 1694 H 153.141 0.684966 -0.298045 0
M  V30 1695 H 155.803 1.385 -1.37126 0
M  V30 1696 H 154.899 2.89788 -1.15884 0
M  V30 1697 N 155.201 0.870884 1.31352 0
M  V30 1698 C 156.111 0.330783 2.32256 0
M  V30 1699 C 157.127 -0.559767 1.6475 0
M  V30 1700 O 158.303 -0.456263 1.96164 0
M  V30 1701 C 155.368 -0.458137 3.4366 0
M  V30 1702 C 154.429 0.460482 4.26823 0
M  V30 1703 C 153.662 -0.290881 5.32907 0
M  V30 1704 O 153.885 -1.51885 5.49806 0
M  V30 1705 O 152.819 0.351732 6.00871 0
M  V30 1706 H 156.645 1.16718 2.80376 0
M  V30 1707 H 154.23 0.634285 1.35267 0
M  V30 1708 H 156.112 -0.905343 4.1156 0
M  V30 1709 H 154.787 -1.27106 2.97701 0
M  V30 1710 H 153.694 0.956207 3.61673 0
M  V30 1711 H 155.027 1.23903 4.7635 0
M  V30 1712 N 156.679 -1.44442 0.630414 0
M  V30 1713 C 157.609 -2.33418 -0.0618083 0
M  V30 1714 C 158.59 -1.48165 -0.835541 0
M  V30 1715 O 159.775 -1.76886 -0.801564 0
M  V30 1716 C 156.905 -3.31222 -1.04449 0
M  V30 1717 C 155.859 -4.26288 -0.382436 0
M  V30 1718 C 155.185 -5.13954 -1.47497 0
M  V30 1719 C 156.485 -5.1744 0.710865 0
M  V30 1720 H 158.179 -2.91548 0.681184 0
M  V30 1721 H 155.725 -1.40191 0.329026 0
M  V30 1722 H 157.678 -3.92351 -1.53748 0
M  V30 1723 H 156.402 -2.71299 -1.81836 0
M  V30 1724 H 155.061 -3.6649 0.0899054 0
M  V30 1725 H 154.709 -4.50385 -2.2397 0
M  V30 1726 H 154.409 -5.7837 -1.03737 0
M  V30 1727 H 155.933 -5.77955 -1.96979 0
M  V30 1728 H 157.347 -5.72509 0.300996 0
M  V30 1729 H 155.744 -5.90455 1.07156 0
M  V30 1730 H 156.814 -4.58496 1.57829 0
M  V30 1731 N 158.157 -0.370918 -1.53173 0
M  V30 1732 C 159.12 0.460778 -2.24521 0
M  V30 1733 C 160.12 1.00536 -1.25496 0
M  V30 1734 O 161.31 0.890266 -1.49733 0
M  V30 1735 C 158.442 1.64457 -2.98608 0
M  V30 1736 H 159.635 -0.163613 -2.99453 0
M  V30 1737 H 157.188 -0.122699 -1.55818 0
M  V30 1738 H 157.923 2.30691 -2.2793 0
M  V30 1739 H 157.708 1.26099 -3.7127 0
M  V30 1740 H 159.198 2.23384 -3.5283 0
M  V30 1741 N 159.635 1.57281 -0.100228 0
M  V30 1742 C 160.582 2.14305 0.856858 0
M  V30 1743 C 161.552 1.06296 1.27634 0
M  V30 1744 O 162.737 1.34109 1.35718 0
M  V30 1745 C 159.877 2.73184 2.10866 0
M  V30 1746 C 158.99 3.95442 1.73925 0
M  V30 1747 C 158.125 4.42468 2.93931 0
M  V30 1748 C 157.164 5.57303 2.5314 0
M  V30 1749 N 156.301 5.99158 3.65997 0
M  V30 1750 H 161.141 2.95772 0.363726 0
M  V30 1751 H 158.678 1.46139 0.167858 0
M  V30 1752 H 160.636 3.05442 2.84185 0
M  V30 1753 H 159.266 1.94437 2.57671 0
M  V30 1754 H 158.318 3.69464 0.905554 0
M  V30 1755 H 159.63 4.78769 1.39935 0
M  V30 1756 H 158.784 4.76537 3.75496 0
M  V30 1757 H 157.523 3.58052 3.31134 0
M  V30 1758 H 156.528 5.22857 1.70003 0
M  V30 1759 H 157.753 6.43471 2.17075 0
M  V30 1760 H 155.699 5.17687 4.02909 0
M  V30 1761 H 155.616 6.77295 3.35869 0
M  V30 1762 H 156.884 6.3786 4.48057 0
M  V30 1763 N 161.113 -0.173488 1.56642 0
M  V30 1764 C 162.063 -1.21941 1.92651 0
M  V30 1765 C 163.047 -1.39912 0.794577 0
M  V30 1766 O 164.239 -1.41919 1.05773 0
M  V30 1767 C 161.368 -2.55935 2.28806 0
M  V30 1768 C 160.454 -2.41667 3.48508 0
M  V30 1769 N 160.845 -1.9711 4.65813 0
M  V30 1770 C 159.143 -2.72499 3.53072 0
M  V30 1771 C 159.844 -1.95253 5.47952 0
M  V30 1772 N 158.82 -2.37575 4.88937 0
M  V30 1773 H 162.622 -0.866581 2.80834 0
M  V30 1774 H 160.136 -0.381776 1.57849 0
M  V30 1775 H 162.133 -3.31511 2.52797 0
M  V30 1776 H 160.793 -2.92022 1.41961 0
M  V30 1777 H 161.804 -1.67481 4.90072 0
M  V30 1778 H 158.481 -3.12639 2.767 0
M  V30 1779 H 159.871 -1.6252 6.51948 0
M  V30 1780 N 162.591 -1.51276 -0.441967 0
M  V30 1781 C 163.554 -1.7167 -1.51862 0
M  V30 1782 C 164.554 -0.586793 -1.49711 0
M  V30 1783 O 165.744 -0.854276 -1.51815 0
M  V30 1784 C 162.876 -1.76889 -2.91416 0
M  V30 1785 H 164.069 -2.67754 -1.35084 0
M  V30 1786 H 161.622 -1.41196 -0.670333 0
M  V30 1787 H 162.357 -0.826026 -3.13604 0
M  V30 1788 H 162.142 -2.59001 -2.94382 0
M  V30 1789 H 163.632 -1.94522 -3.69528 0
M  V30 1790 N 164.069 0.697108 -1.41344 0
M  V30 1791 C 165.315 1.4593 -1.40827 0
M  V30 1792 C 165.648 1.94193 -0.0167098 0
M  V30 1793 O 164.923 1.69425 0.955263 0
M  V30 1794 C 165.206 2.67229 -2.41373 0
M  V30 1795 C 165.059 2.24741 -3.8963 0
M  V30 1796 C 166.378 3.69423 -2.39196 0
M  V30 1797 H 163.497 0.529303 -0.512842 0
M  V30 1798 H 166.139 0.794112 -1.72609 0
M  V30 1799 H 164.289 3.23982 -2.14401 0
M  V30 1800 H 165.961 1.73327 -4.27499 0
M  V30 1801 H 164.204 1.56542 -4.0457 0
M  V30 1802 H 164.875 3.1177 -4.55525 0
M  V30 1803 H 167.351 3.2234 -2.63128 0
M  V30 1804 H 166.227 4.51907 -3.11563 0
M  V30 1805 H 166.488 4.19012 -1.41001 0
M  V30 1806 N 165.547 1.27147 0.931209 0
M  V30 1807 C 166.772 1.16191 1.71797 0
M  V30 1808 C 167.197 -0.278004 1.86034 0
M  V30 1809 O 166.555 -1.20137 1.35782 0
M  V30 1810 C 166.603 1.84673 3.09723 0
M  V30 1811 O 165.707 1.14231 3.96264 0
M  V30 1812 H 165.048 0.404303 0.526721 0
M  V30 1813 H 167.578 1.68152 1.1656 0
M  V30 1814 H 167.588 1.91893 3.60057 0
M  V30 1815 H 166.263 2.89421 2.98677 0
M  V30 1816 H 164.84 1.15056 3.54706 0
M  V30 1817 N 167.025 -1.13721 1.09112 0
M  V30 1818 C 167.935 -2.22638 0.73957 0
M  V30 1819 C 168.951 -1.72091 -0.257068 0
M  V30 1820 O 170.127 -2.01155 -0.0992154 0
M  V30 1821 C 167.192 -3.46322 0.16191 0
M  V30 1822 C 166.253 -4.11775 1.21408 0
M  V30 1823 C 165.486 -5.29555 0.663891 0
M  V30 1824 O 165.709 -5.68077 -0.514274 0
M  V30 1825 O 164.643 -5.84973 1.41738 0
M  V30 1826 H 168.469 -2.55074 1.64836 0
M  V30 1827 H 166.054 -1.21791 0.865289 0
M  V30 1828 H 167.936 -4.21107 -0.157073 0
M  V30 1829 H 166.611 -3.15593 -0.719932 0
M  V30 1830 H 165.518 -3.3883 1.58571 0
M  V30 1831 H 166.851 -4.46627 2.06845 0
M  V30 1832 N 168.503 -0.877838 -1.30888 0
M  V30 1833 C 169.751 -0.491723 -1.96027 0
M  V30 1834 C 170.072 0.960827 -1.69685 0
M  V30 1835 O 169.342 1.67462 -1.01654 0
M  V30 1836 H 167.922 -0.17885 -0.725273 0
M  V30 1837 H 170.584 -1.11935 -1.59551 0
M  V30 1838 H 169.68 -0.656016 -3.05128 0
M  V30 1839 N 169.982 1.44106 -0.638065 0
M  V30 1840 C 171.21 2.06336 -0.152615 0
M  V30 1841 C 171.625 1.47731 1.17563 0
M  V30 1842 O 170.982 0.602806 1.72257 0
M  V30 1843 C 171.033 3.61479 -0.0391491 0
M  V30 1844 O 170.754 4.17903 -1.31487 0
M  V30 1845 C 172.255 4.40757 0.474176 0
M  V30 1846 H 169.475 0.665862 -0.0828776 0
M  V30 1847 H 172.019 1.84862 -0.87443 0
M  V30 1848 H 170.174 3.82191 0.633142 0
M  V30 1849 H 170.588 5.11416 -1.16421 0
M  V30 1850 H 172.062 5.49707 0.502562 0
M  V30 1851 H 172.539 4.12697 1.50258 0
M  V30 1852 H 173.145 4.24979 -0.165102 0
M  V30 1853 N 171.46 0.379036 1.52974 0
M  V30 1854 C 172.407 -0.461048 2.26148 0
M  V30 1855 C 173.377 -1.06637 1.27349 0
M  V30 1856 O 174.562 -1.09633 1.56157 0
M  V30 1857 C 171.702 -1.58782 3.06402 0
M  V30 1858 C 170.815 -1.00636 4.20115 0
M  V30 1859 C 169.95 -2.10334 4.87784 0
M  V30 1860 C 168.989 -1.49724 5.93506 0
M  V30 1861 N 168.126 -2.5331 6.54812 0
M  V30 1862 H 172.966 0.169429 2.97518 0
M  V30 1863 H 170.503 0.0953806 1.4679 0
M  V30 1864 H 172.461 -2.25174 3.51215 0
M  V30 1865 H 171.091 -2.18876 2.37261 0
M  V30 1866 H 170.143 -0.232332 3.7969 0
M  V30 1867 H 171.455 -0.523343 4.96047 0
M  V30 1868 H 170.609 -2.84519 5.35849 0
M  V30 1869 H 169.348 -2.61992 4.11353 0
M  V30 1870 H 168.353 -0.740598 5.44789 0
M  V30 1871 H 169.578 -0.988732 6.71864 0
M  V30 1872 H 167.524 -3.04156 5.81227 0
M  V30 1873 H 167.441 -2.09734 7.26325 0
M  V30 1874 H 168.709 -3.27155 7.07524 0
M  V30 1875 N 172.938 -1.57226 0.108567 0
M  V30 1876 C 173.901 -2.13602 -0.831082 0
M  V30 1877 C 174.901 -1.06841 -1.20173 0
M  V30 1878 O 176.091 -1.32666 -1.12895 0
M  V30 1879 C 173.223 -2.66769 -2.12243 0
M  V30 1880 H 174.416 -2.97951 -0.341317 0
M  V30 1881 H 171.969 -1.55667 -0.14057 0
M  V30 1882 H 172.704 -1.85977 -2.65675 0
M  V30 1883 H 172.489 -3.44839 -1.86625 0
M  V30 1884 H 173.979 -3.10332 -2.79435 0
M  V30 1885 N 174.416 0.165178 -1.56732 0
M  V30 1886 C 175.662 0.882112 -1.82611 0
M  V30 1887 C 175.995 1.81628 -0.687378 0
M  V30 1888 O 175.27 1.92009 0.310267 0
M  V30 1889 C 175.553 1.67245 -3.18906 0
M  V30 1890 C 175.406 0.760987 -4.43316 0
M  V30 1891 C 176.725 2.63884 -3.52212 0
M  V30 1892 H 173.844 0.319242 -0.664269 0
M  V30 1893 H 176.486 0.148052 -1.89422 0
M  V30 1894 H 174.636 2.29824 -3.1323 0
M  V30 1895 H 176.308 0.147596 -4.61064 0
M  V30 1896 H 174.551 0.0694102 -4.33744 0
M  V30 1897 H 175.222 1.34962 -5.35247 0
M  V30 1898 H 177.698 2.11429 -3.58381 0
M  V30 1899 H 176.574 3.16245 -4.48643 0
M  V30 1900 H 176.835 3.44377 -2.77231 0
M  V30 1901 N 175.894 1.51508 0.433938 0
M  V30 1902 C 177.122 1.68157 1.20543 0
M  V30 1903 C 177.537 0.380362 1.84929 0
M  V30 1904 O 176.894 -0.641446 1.70856 0
M  V30 1905 C 176.945 2.79965 2.28696 0
M  V30 1906 O 176.666 4.05045 1.66943 0
M  V30 1907 C 178.167 3.07912 3.18912 0
M  V30 1908 H 175.387 0.56421 0.363191 0
M  V30 1909 H 177.931 1.97941 0.513754 0
M  V30 1910 H 176.086 2.5277 2.93574 0
M  V30 1911 H 176.5 4.67165 2.38448 0
M  V30 1912 H 177.974 3.89719 3.90926 0
M  V30 1913 H 178.451 2.20456 3.79863 0
M  V30 1914 H 179.057 3.36779 2.59731 0
M  V30 1915 N 177.372 -0.689602 1.41712 0
M  V30 1916 C 178.319 -1.80345 1.44029 0
M  V30 1917 C 179.289 -1.63478 0.293948 0
M  V30 1918 O 180.474 -1.84244 0.495869 0
M  V30 1919 C 177.614 -3.18272 1.33405 0
M  V30 1920 C 176.727 -3.46529 2.57956 0
M  V30 1921 C 175.862 -4.74103 2.39582 0
M  V30 1922 C 174.901 -4.95347 3.5958 0
M  V30 1923 N 174.038 -6.14151 3.40239 0
M  V30 1924 H 178.878 -1.77698 2.39222 0
M  V30 1925 H 176.415 -0.867688 1.18784 0
M  V30 1926 H 178.373 -3.97956 1.25246 0
M  V30 1927 H 177.003 -3.2008 0.418164 0
M  V30 1928 H 176.055 -2.61207 2.76542 0
M  V30 1929 H 177.367 -3.58126 3.47199 0
M  V30 1930 H 176.521 -5.61853 2.28924 0
M  V30 1931 H 175.26 -4.64763 1.47805 0
M  V30 1932 H 174.265 -4.06044 3.70686 0
M  V30 1933 H 175.49 -5.06542 4.52318 0
M  V30 1934 H 173.436 -6.06013 2.51167 0
M  V30 1935 H 173.353 -6.26543 4.23061 0
M  V30 1936 H 174.621 -7.04619 3.33365 0
M  V30 1937 N 178.85 -1.27639 -0.924453 0
M  V30 1938 C 180.08 -1.16819 -1.70402 0
M  V30 1939 C 180.488 0.277191 -1.87158 0
M  V30 1940 O 179.831 1.20025 -1.39067 0
M  V30 1941 C 179.893 -1.78305 -3.12166 0
M  V30 1942 C 179.557 -3.27502 -3.18734 0
M  V30 1943 C 180.554 -4.2409 -3.00738 0
M  V30 1944 C 178.239 -3.68269 -3.4159 0
M  V30 1945 C 180.233 -5.59422 -3.05492 0
M  V30 1946 C 177.92 -5.0373 -3.45977 0
M  V30 1947 C 178.918 -5.99116 -3.27946 0
M  V30 1948 O 178.606 -7.32108 -3.32074 0
M  V30 1949 H 178.338 -0.406931 -0.539799 0
M  V30 1950 H 180.892 -1.69078 -1.16626 0
M  V30 1951 H 179.122 -1.20528 -3.67437 0
M  V30 1952 H 180.811 -1.62154 -3.72103 0
M  V30 1953 H 181.577 -3.93931 -2.82919 0
M  V30 1954 H 177.456 -2.94496 -3.54673 0
M  V30 1955 H 181 -6.33852 -2.91337 0
M  V30 1956 H 176.897 -5.33543 -3.63321 0
M  V30 1957 H 177.665 -7.40598 -3.48507 0
M  V30 1958 N 180.328 1.1314 -1.09713 0
M  V30 1959 C 181.556 1.88321 -0.856898 0
M  V30 1960 C 181.971 1.79276 0.592073 0
M  V30 1961 O 181.328 1.16142 1.40774 0
M  V30 1962 C 181.379 3.37812 -1.28706 0
M  V30 1963 O 181.1 3.46627 -2.67921 0
M  V30 1964 C 182.601 4.29952 -1.07964 0
M  V30 1965 H 179.821 0.596094 -0.308079 0
M  V30 1966 H 182.365 1.43205 -1.45988 0
M  V30 1967 H 180.52 3.805 -0.727912 0
M  V30 1968 H 180.934 4.39579 -2.8613 0
M  V30 1969 H 182.408 5.33159 -1.42986 0
M  V30 1970 H 182.885 4.39196 -0.0176577 0
M  V30 1971 H 183.491 3.93036 -1.62489 0
M  V30 1972 N 181.806 0.884767 1.30421 0
M  V30 1973 C 183.031 0.517288 2.00845 0
M  V30 1974 C 183.456 -0.886779 1.65885 0
M  V30 1975 O 182.814 -1.58768 0.875354 0
M  V30 1976 C 182.862 0.698994 3.5376 0
M  V30 1977 O 181.966 -0.255208 4.1161 0
M  V30 1978 H 181.307 0.203872 0.631927 0
M  V30 1979 H 183.837 1.19225 1.66272 0
M  V30 1980 H 183.847 0.597912 4.03595 0
M  V30 1981 H 182.522 1.72271 3.78544 0
M  V30 1982 H 181.099 -0.10784 3.72744 0
M  V30 1983 N 183.284 -1.43765 0.645699 0
M  V30 1984 C 184.509 -2.06767 0.161883 0
M  V30 1985 C 184.934 -1.48034 -1.16049 0
M  V30 1986 O 184.292 -0.587369 -1.71522 0
M  V30 1987 C 184.34 -3.60519 0.0762003 0
M  V30 1988 O 183.444 -4.00982 -0.963721 0
M  V30 1989 H 182.785 -0.657675 0.091429 0
M  V30 1990 H 185.315 -1.84397 0.886499 0
M  V30 1991 H 185.325 -4.07853 -0.109604 0
M  V30 1992 H 184 -4.02646 1.04157 0
M  V30 1993 H 182.577 -3.65253 -0.751312 0
M  V30 1994 N 184.763 -0.387143 -1.52771 0
M  V30 1995 C 185.71 0.449048 -2.26389 0
M  V30 1996 C 186.68 1.05961 -1.27912 0
M  V30 1997 O 187.865 1.08804 -1.56737 0
M  V30 1998 C 185.005 1.57155 -3.0724 0
M  V30 1999 C 184.118 0.984066 -4.20643 0
M  V30 2000 C 183.253 2.07745 -4.88892 0
M  V30 2001 C 182.292 1.46574 -5.94292 0
M  V30 2002 N 181.429 2.49834 -6.56146 0
M  V30 2003 H 186.269 -0.185205 -2.97424 0
M  V30 2004 H 183.806 -0.103164 -1.46738 0
M  V30 2005 H 185.764 2.23309 -3.52405 0
M  V30 2006 H 184.394 2.17615 -2.38419 0
M  V30 2007 H 183.446 0.212193 -3.79808 0
M  V30 2008 H 184.758 0.497029 -4.96318 0
M  V30 2009 H 183.912 2.81673 -5.3735 0
M  V30 2010 H 182.651 2.59807 -4.12737 0
M  V30 2011 H 181.656 0.711696 -5.45174 0
M  V30 2012 H 182.881 0.953088 -6.72379 0
M  V30 2013 H 180.827 3.0107 -5.82832 0
M  V30 2014 H 180.744 2.05879 -7.27427 0
M  V30 2015 H 182.012 3.23399 -7.09249 0
M  V30 2016 O 186.28 1.59438 -0.257276 0
M  V30 2017 H 186.971 1.91101 0.316273 0
M  V30 END ATOM
M  V30 BEGIN BOND
M  V30 END BOND
M  V30 END CTAB
M  END
$$$$
