drugbank_target|P62826 GTP-binding nuclear protein Ran (DB04315)
 OpenBabel12092120553D

  0  0  0     0  0            999 V3000
M  V30 BEGIN CTAB
M  V30 COUNTS 3449 3491 0 0 0
M  V30 BEGIN ATOM
M  V30 1 H -0.908 1.98254 -0.117106 0
M  V30 2 N 0 1.576 0 0
M  V30 3 C 0.933 2.03868 1.02534 0
M  V30 4 C 1.911 0.928543 1.3348 0
M  V30 5 O 3.095 1.19667 1.45644 0
M  V30 6 C 0.222 2.43627 2.35294 0
M  V30 7 C -0.732 3.65373 2.2001 0
M  V30 8 S 0.101 5.13292 1.52614 0
M  V30 9 C 1.257 5.56322 2.86805 0
M  V30 10 H 1.49 2.90518 0.631377 0
M  V30 11 H -0.977 1.52953 0.210867 0
M  V30 12 H 0.981 2.67203 3.11629 0
M  V30 13 H -0.358 1.57376 2.7183 0
M  V30 14 H -1.165 3.90944 3.18086 0
M  V30 15 H -1.563 3.418 1.51819 0
M  V30 16 H 0.729 5.58782 3.83104 0
M  V30 17 H 1.672 6.56266 2.65933 0
M  V30 18 H 2.08 4.83886 2.90714 0
M  V30 19 N 1.4781 -0.272755 1.55222 0
M  V30 20 C 2.4411 -1.32041 1.87344 0
M  V30 21 C 3.4411 -1.42342 0.74803 0
M  V30 22 O 4.6311 -1.41488 1.0162 0
M  V30 23 C 1.7631 -2.70173 2.07893 0
M  V30 24 H 2.9561 -1.04789 2.80997 0
M  V30 25 H 0.5091 -0.51083 1.47717 0
M  V30 26 H 1.2441 -3.02605 1.16622 0
M  V30 27 H 1.0291 -2.64082 2.89833 0
M  V30 28 H 2.5191 -3.45869 2.34017 0
M  V30 29 N 2.9562 -1.48159 -0.537278 0
M  V30 30 C 3.9192 -1.61665 -1.62472 0
M  V30 31 C 4.9192 -0.490395 -1.5314 0
M  V30 32 O 6.1092 -0.755998 -1.5694 0
M  V30 33 C 3.2412 -1.57997 -3.02076 0
M  V30 34 H 4.4342 -2.58621 -1.51839 0
M  V30 35 H 1.9872 -1.36647 -0.758771 0
M  V30 36 H 2.7222 -0.624913 -3.18222 0
M  V30 37 H 2.5072 -2.39755 -3.10258 0
M  V30 38 H 3.9972 -1.70627 -3.81151 0
M  V30 39 N 4.4343 0.785586 -1.36625 0
M  V30 40 C 5.3663 1.90711 -1.2713 0
M  V30 41 C 6.3793 1.61688 -0.189986 0
M  V30 42 O 7.5683 1.72864 -0.445014 0
M  V30 43 C 4.6683 3.25611 -0.939713 0
M  V30 44 C 3.8413 3.82385 -2.12369 0
M  V30 45 C 2.9003 4.95732 -1.76456 0
M  V30 46 O 1.9263 5.12047 -2.48589 0
M  V30 47 N 3.1283 5.76258 -0.700492 0
M  V30 48 H 5.8933 1.99376 -2.23762 0
M  V30 49 H 3.4543 0.964041 -1.30069 0
M  V30 50 H 5.4463 3.98937 -0.680554 0
M  V30 51 H 4.0163 3.12538 -0.0624074 0
M  V30 52 H 3.2363 3.01001 -2.54543 0
M  V30 53 H 4.5243 4.17047 -2.9146 0
M  V30 54 H 3.9223 5.65609 -0.101624 0
M  V30 55 H 2.4793 6.4987 -0.501165 0
M  V30 56 N 5.9124 1.20967 1.01018 0
M  V30 57 C 7.1604 1.02172 1.74371 0
M  V30 58 C 7.4814 -0.446414 1.89821 0
M  V30 59 O 6.7514 -1.32234 1.44537 0
M  V30 60 H 5.3314 0.375066 0.646014 0
M  V30 61 H 7.9934 1.52187 1.21758 0
M  V30 62 H 7.0894 1.48538 2.74487 0
M  V30 63 N 7.3905 -1.2043 1.01659 0
M  V30 64 C 8.3005 -2.2689 0.596484 0
M  V30 65 C 9.3165 -1.70107 -0.36599 0
M  V30 66 O 10.4925 -2.00117 -0.226942 0
M  V30 67 C 7.5575 -3.4665 -0.0586659 0
M  V30 68 C 6.6185 -4.18662 0.949751 0
M  V30 69 C 5.8515 -5.32705 0.32577 0
M  V30 70 O 6.0745 -5.63656 -0.874509 0
M  V30 71 O 5.0085 -5.92803 1.04249 0
M  V30 72 H 8.8345 -2.65041 1.4828 0
M  V30 73 H 6.4195 -1.27048 0.786082 0
M  V30 74 H 8.3015 -4.19256 -0.424564 0
M  V30 75 H 6.9765 -3.10375 -0.91918 0
M  V30 76 H 5.8835 -3.48229 1.36702 0
M  V30 77 H 7.2165 -4.58878 1.78023 0
M  V30 78 N 8.8686 -0.792821 -1.36206 0
M  V30 79 C 10.2796 -0.429513 -1.81692 0
M  V30 80 C 10.6306 1.04695 -1.65932 0
M  V30 81 O 9.7556 1.81256 -1.18218 0
M  V30 82 C 10.3506 -0.772831 -3.29868 0
M  V30 83 C 8.9096 -0.462307 -3.7355 0
M  V30 84 C 8.0566 -1.00569 -2.5842 0
M  V30 85 H 11.0076 -0.985672 -1.24379 0
M  V30 86 H 11.0286 -0.0651928 -3.80444 0
M  V30 87 H 10.5406 -1.84747 -3.41307 0
M  V30 88 H 8.6416 0.604158 -3.67669 0
M  V30 89 H 8.7546 -0.985299 -4.68859 0
M  V30 90 H 7.1186 -0.428734 -2.51066 0
M  V30 91 H 7.9016 -2.08616 -2.72643 0
M  V30 92 N 10.3467 1.47872 -0.545128 0
M  V30 93 C 11.2787 2.27869 0.246621 0
M  V30 94 C 12.2917 1.36282 0.890561 0
M  V30 95 O 13.4807 1.61207 0.766449 0
M  V30 96 C 10.5807 3.10159 1.36582 0
M  V30 97 C 9.7537 4.29627 0.820954 0
M  V30 98 C 8.8127 4.93607 1.82314 0
M  V30 99 O 7.8387 5.52366 1.37406 0
M  V30 100 N 9.0407 4.87211 3.15603 0
M  V30 101 H 11.8057 2.96459 -0.439539 0
M  V30 102 H 9.3667 1.57367 -0.380421 0
M  V30 103 H 11.3587 3.49829 2.03474 0
M  V30 104 H 9.9287 2.43891 1.9554 0
M  V30 105 H 9.1487 3.94192 -0.0244032 0
M  V30 106 H 10.4367 5.06928 0.436063 0
M  V30 107 H 9.8347 4.40651 3.54744 0
M  V30 108 H 8.3917 5.30937 3.78087 0
M  V30 109 N 11.8248 0.280983 1.55075 0
M  V30 110 C 13.0708 -0.33461 2.00021 0
M  V30 111 C 13.4038 -1.55063 1.16915 0
M  V30 112 O 12.6788 -1.93006 0.240646 0
M  V30 113 C 12.9618 -0.711007 3.53011 0
M  V30 114 C 12.8148 0.512766 4.46868 0
M  V30 115 C 14.1338 -1.54522 4.12081 0
M  V30 116 H 11.2528 -0.120147 0.727141 0
M  V30 117 H 13.8948 0.389097 1.85973 0
M  V30 118 H 12.0448 -1.32761 3.65112 0
M  V30 119 H 13.7168 1.15131 4.46702 0
M  V30 120 H 11.9598 1.14975 4.18286 0
M  V30 121 H 12.6308 0.205556 5.51617 0
M  V30 122 H 15.1068 -1.02442 4.03293 0
M  V30 123 H 13.9828 -1.77739 5.19327 0
M  V30 124 H 14.2438 -2.52813 3.62682 0
M  V30 125 N 13.3029 -1.57598 0.00835791 0
M  V30 126 C 14.2349 -2.05811 -1.00868 0
M  V30 127 C 15.2479 -0.977579 -1.30182 0
M  V30 128 O 16.4369 -1.25421 -1.27011 0
M  V30 129 C 13.5369 -2.45016 -2.34137 0
M  V30 130 C 12.7099 -3.75903 -2.23643 0
M  V30 131 C 11.7689 -4.01884 -3.3967 0
M  V30 132 O 10.7949 -4.72433 -3.17483 0
M  V30 133 N 11.9969 -3.50432 -4.62793 0
M  V30 134 H 14.7619 -2.93684 -0.597458 0
M  V30 135 H 12.3229 -1.60909 -0.178852 0
M  V30 136 H 14.3149 -2.59506 -3.10546 0
M  V30 137 H 12.8849 -1.62618 -2.66972 0
M  V30 138 H 12.1049 -3.7141 -1.32091 0
M  V30 139 H 13.3929 -4.61695 -2.13812 0
M  V30 140 H 12.7909 -2.93317 -4.83716 0
M  V30 141 H 11.3479 -3.70236 -5.3644 0
M  V30 142 N 14.781 0.264519 -1.55364 0
M  V30 143 C 16.028 0.994986 -1.7637 0
M  V30 144 C 16.356 1.85976 -0.5695 0
M  V30 145 O 15.611 1.90509 0.44776 0
M  V30 146 C 15.91 1.9004 -3.02687 0
M  V30 147 C 15.576 1.19243 -4.34847 0
M  V30 148 C 14.238 0.996709 -4.70764 0
M  V30 149 C 16.59 0.689296 -5.16622 0
M  V30 150 C 13.918 0.285261 -5.86006 0
M  V30 151 C 16.27 -0.00860079 -6.32599 0
M  V30 152 C 14.934 -0.215963 -6.67151 0
M  V30 153 H 14.204 0.364091 -0.645383 0
M  V30 154 H 16.851 0.266543 -1.89636 0
M  V30 155 H 15.156 2.69533 -2.84357 0
M  V30 156 H 16.853 2.46695 -3.16137 0
M  V30 157 H 13.443 1.3549 -4.06621 0
M  V30 158 H 17.627 0.828108 -4.89342 0
M  V30 159 H 12.883 0.113961 -6.11294 0
M  V30 160 H 17.057 -0.406186 -6.95214 0
M  V30 161 H 14.684 -0.769217 -7.56298 0
M  V30 162 N 16.2591 1.48442 0.529413 0
M  V30 163 C 17.2061 1.63007 1.63394 0
M  V30 164 C 18.1761 0.47212 1.59249 0
M  V30 165 O 19.3611 0.695673 1.77666 0
M  V30 166 C 16.5011 1.6763 3.01653 0
M  V30 167 C 15.6141 2.94535 3.16027 0
M  V30 168 C 14.7491 2.90316 4.44849 0
M  V30 169 C 13.7881 4.11923 4.52754 0
M  V30 170 N 12.9251 4.05777 5.72965 0
M  V30 171 H 17.7651 2.5733 1.50285 0
M  V30 172 H 15.3021 1.27613 0.731656 0
M  V30 173 H 17.2601 1.68292 3.81751 0
M  V30 174 H 15.8901 0.76797 3.13532 0
M  V30 175 H 14.9421 3.03615 2.29177 0
M  V30 176 H 16.2541 3.84512 3.17729 0
M  V30 177 H 15.4081 2.89382 5.33238 0
M  V30 178 H 14.1471 1.98068 4.45668 0
M  V30 179 H 13.1521 4.13131 3.62771 0
M  V30 180 H 14.3771 5.0533 4.53672 0
M  V30 181 H 12.3231 3.16351 5.74681 0
M  V30 182 H 12.2401 4.8946 5.76164 0
M  V30 183 H 13.5081 4.08904 6.6364 0
M  V30 184 N 17.7372 -0.778329 1.37039 0
M  V30 185 C 18.6672 -1.90546 1.34962 0
M  V30 186 C 19.6482 -1.68681 0.219274 0
M  V30 187 O 20.8332 -1.89634 0.418624 0
M  V30 188 C 17.9632 -3.27734 1.14925 0
M  V30 189 C 16.9172 -3.64147 2.24902 0
M  V30 190 C 16.2432 -4.99806 1.89996 0
M  V30 191 C 17.5432 -3.71579 3.67051 0
M  V30 192 H 19.2372 -1.92541 2.29277 0
M  V30 193 H 16.7832 -0.924948 1.10366 0
M  V30 194 H 18.7362 -4.06215 1.12104 0
M  V30 195 H 17.4602 -3.26154 0.170631 0
M  V30 196 H 16.1192 -2.8797 2.26868 0
M  V30 197 H 15.7672 -4.94759 0.906796 0
M  V30 198 H 15.4672 -5.25139 2.63634 0
M  V30 199 H 16.9912 -5.80694 1.88749 0
M  V30 200 H 18.4052 -4.40227 3.67251 0
M  V30 201 H 16.8022 -4.08405 4.39688 0
M  V30 202 H 17.8722 -2.72404 4.01154 0
M  V30 203 N 19.2153 -1.21501 -1.00376 0
M  V30 204 C 20.4613 -1.03452 -1.74429 0
M  V30 205 C 20.7943 0.430764 -1.89362 0
M  V30 206 O 20.0693 1.31962 -1.42886 0
M  V30 207 C 20.3523 -1.73375 -3.15615 0
M  V30 208 C 20.2053 -3.27431 -3.08397 0
M  V30 209 C 21.5243 -1.47732 -4.14564 0
M  V30 210 H 18.6433 -0.377226 -0.633143 0
M  V30 211 H 21.2853 -1.49693 -1.17013 0
M  V30 212 H 19.4353 -1.34064 -3.64636 0
M  V30 213 H 21.1073 -3.76119 -2.67081 0
M  V30 214 H 19.3503 -3.5767 -2.45468 0
M  V30 215 H 20.0213 -3.71524 -4.08258 0
M  V30 216 H 22.4973 -1.8186 -3.74254 0
M  V30 217 H 21.3733 -1.99169 -5.11491 0
M  V30 218 H 21.6343 -0.407589 -4.40217 0
M  V30 219 N 20.6934 1.19889 -1.02296 0
M  V30 220 C 21.6234 2.25141 -0.619174 0
M  V30 221 C 22.6044 1.66051 0.368915 0
M  V30 222 O 23.7894 1.92546 0.252941 0
M  V30 223 C 20.9194 3.4728 0.0368783 0
M  V30 224 C 19.8734 4.19005 -0.872865 0
M  V30 225 C 19.1994 5.34637 -0.0822402 0
M  V30 226 C 20.4994 4.74452 -2.18387 0
M  V30 227 H 22.1934 2.59171 -1.49903 0
M  V30 228 H 19.7394 1.24579 -0.722222 0
M  V30 229 H 21.6924 4.20098 0.330958 0
M  V30 230 H 20.4164 3.12433 0.95149 0
M  V30 231 H 19.0754 3.48061 -1.15105 0
M  V30 232 H 18.7234 4.96034 0.83422 0
M  V30 233 H 18.4234 5.83557 -0.688149 0
M  V30 234 H 19.9474 6.10255 0.205238 0
M  V30 235 H 21.3614 5.39055 -1.95172 0
M  V30 236 H 19.7584 5.33834 -2.74119 0
M  V30 237 H 20.8284 3.92844 -2.84257 0
M  V30 238 N 22.1715 0.800033 1.35784 0
M  V30 239 C 23.4175 0.377901 1.99248 0
M  V30 240 C 23.7505 -1.05052 1.63333 0
M  V30 241 O 23.0255 -1.72768 0.893385 0
M  V30 242 C 23.3085 0.553922 3.55814 0
M  V30 243 C 23.1615 2.0268 4.01548 0
M  V30 244 C 24.4805 -0.0244802 4.40093 0
M  V30 245 H 21.5995 0.138782 0.723815 0
M  V30 246 H 24.2415 1.00835 1.61035 0
M  V30 247 H 22.3915 0.0172398 3.88496 0
M  V30 248 H 24.0635 2.62536 3.79305 0
M  V30 249 H 22.3065 2.5256 3.52698 0
M  V30 250 H 22.9775 2.10087 5.10458 0
M  V30 251 H 25.4535 0.433775 4.13833 0
M  V30 252 H 24.3295 0.128637 5.48749 0
M  V30 253 H 24.5905 -1.11758 4.27741 0
M  V30 254 N 23.6496 -1.47581 0.552962 0
M  V30 255 C 24.8976 -2.02082 0.0272703 0
M  V30 256 C 25.2186 -1.4301 -1.32563 0
M  V30 257 O 24.4886 -0.603745 -1.86365 0
M  V30 258 H 23.0686 -0.746966 0.00709182 0
M  V30 259 H 25.7306 -1.81033 0.722008 0
M  V30 260 H 24.8266 -3.12034 -0.0639951 0
M  V30 261 N 25.1277 -0.289203 -1.54924 0
M  V30 262 C 26.4047 0.376032 -1.91951 0
M  V30 263 C 26.7847 1.72622 -1.21511 0
M  V30 264 O 26.1327 2.25853 -0.346767 0
M  V30 265 C 26.3427 0.502378 -3.45365 0
M  V30 266 C 27.6907 0.778741 -4.17398 0
M  V30 267 O 28.7147 0.586647 -3.51336 0
M  V30 268 O 27.5737 1.14698 -5.34328 0
M  V30 269 H 24.6677 0.208167 -0.800372 0
M  V30 270 H 27.2137 -0.336394 -1.66332 0
M  V30 271 H 25.9857 -0.447255 -3.88736 0
M  V30 272 H 25.6087 1.26373 -3.76982 0
M  V30 273 N 26.6058 1.57591 -0.0167156 0
M  V30 274 C 27.8538 1.90906 0.663285 0
M  V30 275 C 28.1748 0.892509 1.73376 0
M  V30 276 O 27.4448 -0.0677623 1.95783 0
M  V30 277 H 26.0248 0.704637 0.247983 0
M  V30 278 H 28.6868 1.94803 -0.0615909 0
M  V30 279 H 27.7828 2.9116 1.12393 0
M  V30 280 N 28.0839 -0.256276 1.55502 0
M  V30 281 C 29.3319 -0.983672 1.76545 0
M  V30 282 C 29.6529 -1.86206 0.578982 0
M  V30 283 O 28.9229 -1.91656 -0.405577 0
M  V30 284 H 27.5029 -0.366191 0.651086 0
M  V30 285 H 30.1649 -0.276479 1.92929 0
M  V30 286 H 29.2609 -1.61087 2.67315 0
M  V30 287 N 29.562 -1.4872 -0.521534 0
M  V30 288 C 30.79 -1.60843 -1.30142 0
M  V30 289 C 31.205 -0.271897 -1.86832 0
M  V30 290 O 30.562 0.739969 -1.66825 0
M  V30 291 C 30.613 -2.66155 -2.4463 0
M  V30 292 O 30.334 -3.94623 -1.90275 0
M  V30 293 C 31.835 -2.88795 -3.36322 0
M  V30 294 H 29.055 -0.542075 -0.395468 0
M  V30 295 H 31.599 -1.94609 -0.628285 0
M  V30 296 H 29.754 -2.35224 -3.07812 0
M  V30 297 H 30.168 -4.52468 -2.65279 0
M  V30 298 H 31.642 -3.66264 -4.12983 0
M  V30 299 H 32.119 -1.97934 -3.9207 0
M  V30 300 H 32.725 -3.21063 -2.78924 0
M  V30 301 N 31.0401 0.771051 -1.3745 0
M  V30 302 C 32.2881 1.52661 -1.32435 0
M  V30 303 C 32.6091 1.9479 0.0905024 0
M  V30 304 O 31.8791 1.66348 1.03466 0
M  V30 305 H 30.4591 0.566218 -0.487244 0
M  V30 306 H 33.1211 0.917636 -1.71946 0
M  V30 307 H 32.2171 2.42568 -1.96385 0
M  V30 308 N 32.5182 1.22032 0.997298 0
M  V30 309 C 33.4652 0.986467 2.08656 0
M  V30 310 C 34.4352 -0.0902671 1.65855 0
M  V30 311 O 35.6202 0.0584294 1.90711 0
M  V30 312 C 32.7602 0.565569 3.40434 0
M  V30 313 C 31.8732 1.71259 3.96604 0
M  V30 314 C 31.0082 1.24011 5.16522 0
M  V30 315 C 30.0472 2.35896 5.64818 0
M  V30 316 N 29.1842 1.89726 6.7598 0
M  V30 317 H 34.0242 1.91892 2.27994 0
M  V30 318 H 31.5612 0.956199 1.11782 0
M  V30 319 H 33.5192 0.302738 4.161 0
M  V30 320 H 32.1492 -0.329879 3.2111 0
M  V30 321 H 31.2012 2.08986 3.17851 0
M  V30 322 H 32.5132 2.55436 4.28432 0
M  V30 323 H 31.6672 0.934395 5.99461 0
M  V30 324 H 30.4062 0.368487 4.86306 0
M  V30 325 H 29.4112 2.67261 4.8047 0
M  V30 326 H 30.6362 3.23567 5.97061 0
M  V30 327 H 28.5822 1.0492 6.47555 0
M  V30 328 H 28.4992 2.67471 7.07103 0
M  V30 329 H 29.7672 1.62211 7.62435 0
M  V30 330 N 33.9963 -1.19345 1.0293 0
M  V30 331 C 35.2243 -1.92997 0.745644 0
M  V30 332 C 35.6393 -1.75519 -0.695589 0
M  V30 333 O 34.9963 -1.07737 -1.47306 0
M  V30 334 C 35.0473 -3.44741 1.08792 0
M  V30 335 O 34.7683 -3.61658 2.47256 0
M  V30 336 C 36.2693 -4.35515 0.827129 0
M  V30 337 H 33.4893 -0.613042 0.272801 0
M  V30 338 H 36.0333 -1.51473 1.3739 0
M  V30 339 H 34.1883 -3.84097 0.504832 0
M  V30 340 H 34.6023 -4.55514 2.60015 0
M  V30 341 H 36.0763 -5.40589 1.11658 0
M  V30 342 H 36.5533 -4.38552 -0.238436 0
M  V30 343 H 37.1593 -4.01841 1.39297 0
M  V30 344 N 35.4744 -0.807222 -1.35358 0
M  V30 345 C 36.7024 -0.400377 -2.02989 0
M  V30 346 C 37.1174 0.988859 -1.60832 0
M  V30 347 O 36.4744 1.63729 -0.806175 0
M  V30 348 C 36.5254 -0.474867 -3.58368 0
M  V30 349 O 36.2464 -1.80933 -3.98992 0
M  V30 350 C 37.7474 -0.0609112 -4.43258 0
M  V30 351 H 34.9674 -0.162587 -0.651004 0
M  V30 352 H 37.5114 -1.09102 -1.72965 0
M  V30 353 H 35.6664 0.167534 -3.87038 0
M  V30 354 H 36.0804 -1.77256 -4.9364 0
M  V30 355 H 37.5544 -0.164145 -5.51756 0
M  V30 356 H 38.0314 0.993831 -4.27808 0
M  V30 357 H 38.6374 -0.676492 -4.19885 0
M  V30 358 N 36.9525 1.47285 -0.560781 0
M  V30 359 C 38.1995 2.02464 -0.038062 0
M  V30 360 C 38.5275 1.43474 1.31322 0
M  V30 361 O 37.7825 0.581311 1.86867 0
M  V30 362 C 38.0815 3.57258 0.100784 0
M  V30 363 C 37.7475 4.35184 -1.18007 0
M  V30 364 C 36.4095 4.56194 -1.53103 0
M  V30 365 C 38.7615 4.80098 -2.02867 0
M  V30 366 C 36.0895 5.19367 -2.729 0
M  V30 367 C 38.4415 5.44593 -3.21871 0
M  V30 368 C 37.1055 5.63835 -3.57276 0
M  V30 369 H 36.3755 0.740869 -0.0139279 0
M  V30 370 H 39.0225 1.76916 -0.733012 0
M  V30 371 H 37.3275 3.81819 0.878724 0
M  V30 372 H 39.0245 3.97606 0.520639 0
M  V30 373 H 35.6145 4.19113 -0.8968 0
M  V30 374 H 39.7985 4.63642 -1.7706 0
M  V30 375 H 35.0545 5.32459 -3.00496 0
M  V30 376 H 39.2285 5.78358 -3.87911 0
M  V30 377 H 36.8555 6.12557 -4.50197 0
M  V30 378 N 38.4306 0.297415 1.54768 0
M  V30 379 C 39.6766 -0.313376 2.00364 0
M  V30 380 C 40.0096 -1.53815 1.18553 0
M  V30 381 O 39.2846 -1.92739 0.261103 0
M  V30 382 C 39.5676 -0.673525 3.53745 0
M  V30 383 C 39.4206 0.560133 4.46299 0
M  V30 384 C 40.7396 -1.50143 4.13697 0
M  V30 385 H 37.8586 -0.112428 0.728374 0
M  V30 386 H 40.5006 0.4088 1.8555 0
M  V30 387 H 38.6506 -1.28881 3.665 0
M  V30 388 H 40.3226 1.19863 4.45455 0
M  V30 389 H 38.5656 1.19405 4.17043 0
M  V30 390 H 39.2366 0.26405 5.51368 0
M  V30 391 H 41.7126 -0.981588 4.04356 0
M  V30 392 H 40.5886 -1.72221 5.21182 0
M  V30 393 H 40.8496 -2.48952 3.65343 0
M  V30 394 N 39.9087 -1.5758 0.0250728 0
M  V30 395 C 40.8557 -2.09973 -0.958129 0
M  V30 396 C 41.8257 -1.00085 -1.3256 0
M  V30 397 O 43.0107 -1.27481 -1.41962 0
M  V30 398 C 40.1507 -2.62812 -2.2366 0
M  V30 399 C 39.2637 -3.86693 -1.92594 0
M  V30 400 C 38.3987 -4.27941 -3.14707 0
M  V30 401 C 37.4377 -5.44591 -2.79442 0
M  V30 402 N 36.5747 -5.81014 -3.94167 0
M  V30 403 H 41.4147 -2.937 -0.504428 0
M  V30 404 H 38.9517 -1.45172 -0.237392 0
M  V30 405 H 40.9097 -2.91536 -2.98434 0
M  V30 406 H 39.5397 -1.81922 -2.66654 0
M  V30 407 H 38.5917 -3.64723 -1.0808 0
M  V30 408 H 39.9037 -4.71547 -1.62619 0
M  V30 409 H 39.0577 -4.58079 -3.97804 0
M  V30 410 H 37.7967 -3.41845 -3.4784 0
M  V30 411 H 36.8017 -5.1415 -1.94755 0
M  V30 412 H 38.0267 -6.32382 -2.47528 0
M  V30 413 H 35.9727 -4.97874 -4.2715 0
M  V30 414 H 35.8897 -6.60498 -3.67801 0
M  V30 415 H 37.1577 -6.15756 -4.7798 0
M  V30 416 N 41.3868 0.248026 -1.55636 0
M  V30 417 C 42.8028 0.596483 -1.48035 0
M  V30 418 C 43.0028 1.88386 -0.715039 0
M  V30 419 O 42.0588 2.51319 -0.243944 0
M  V30 420 C 43.3718 0.700258 -2.92433 0
M  V30 421 C 44.9198 0.792659 -3.02797 0
M  V30 422 C 45.3948 0.928005 -4.485 0
M  V30 423 N 46.8858 0.992903 -4.52433 0
M  V30 424 C 47.6208 1.11687 -5.62418 0
M  V30 425 N 47.1168 1.20645 -6.82214 0
M  V30 426 N 48.9098 1.14994 -5.50212 0
M  V30 427 H 41.0608 -0.597109 -2.03834 0
M  V30 428 H 43.3238 -0.205925 -0.925364 0
M  V30 429 H 43.0298 -0.175658 -3.51261 0
M  V30 430 H 42.9038 1.57255 -3.42857 0
M  V30 431 H 45.2908 1.65903 -2.4405 0
M  V30 432 H 45.3718 -0.104762 -2.55585 0
M  V30 433 H 45.0158 0.0661971 -5.07857 0
M  V30 434 H 44.9458 1.84045 -4.93391 0
M  V30 435 H 47.4368 0.935064 -3.66149 0
M  V30 436 H 47.7498 1.30008 -7.61786 0
M  V30 437 H 46.0948 1.17605 -6.84977 0
M  V30 438 H 49.2858 1.07643 -4.55555 0
M  V30 439 H 49.4588 1.24311 -6.35965 0
M  V30 440 N 42.8649 1.48995 0.513639 0
M  V30 441 C 43.8149 1.61127 1.61314 0
M  V30 442 C 44.7989 0.467521 1.53958 0
M  V30 443 O 45.9909 0.719826 1.61702 0
M  V30 444 C 43.1199 1.66937 2.99978 0
M  V30 445 C 42.2059 2.86847 3.12377 0
M  V30 446 N 42.5969 4.11078 2.94701 0
M  V30 447 C 40.8949 2.84521 3.43459 0
M  V30 448 C 41.5959 4.91615 3.10949 0
M  V30 449 N 40.5719 4.24739 3.3926 0
M  V30 450 H 44.3739 2.54909 1.46282 0
M  V30 451 H 41.8879 1.45593 0.719483 0
M  V30 452 H 43.8849 1.73725 3.78979 0
M  V30 453 H 42.5449 0.742831 3.16089 0
M  V30 454 H 43.5559 4.41258 2.71131 0
M  V30 455 H 40.2329 2.01192 3.65825 0
M  V30 456 H 41.6229 6.00264 3.01882 0
M  V30 457 N 44.343 -0.763751 1.37857 0
M  V30 458 C 45.273 -1.89103 1.36975 0
M  V30 459 C 46.254 -1.68439 0.237152 0
M  V30 460 O 47.439 -1.8918 0.438713 0
M  V30 461 C 44.569 -3.26496 1.18395 0
M  V30 462 C 43.523 -3.61741 2.28751 0
M  V30 463 C 42.849 -4.97762 1.95286 0
M  V30 464 C 44.149 -3.67665 3.70972 0
M  V30 465 H 45.843 -1.90099 2.31307 0
M  V30 466 H 43.389 -0.91319 1.11341 0
M  V30 467 H 45.342 -4.05003 1.16406 0
M  V30 468 H 44.066 -3.25955 0.205215 0
M  V30 469 H 42.725 -2.85547 2.29909 0
M  V30 470 H 42.373 -4.93769 0.959221 0
M  V30 471 H 42.073 -5.22313 2.69189 0
M  V30 472 H 43.597 -5.7866 1.94898 0
M  V30 473 H 45.011 -4.36307 3.719 0
M  V30 474 H 43.408 -4.03718 4.43995 0
M  V30 475 H 44.478 -2.68134 4.0402 0
M  V30 476 N 45.8211 -1.22559 -0.990812 0
M  V30 477 C 47.0491 -1.07779 -1.76611 0
M  V30 478 C 47.4641 0.371513 -1.85109 0
M  V30 479 O 46.8211 1.25737 -1.32274 0
M  V30 480 C 46.8721 -1.68512 -3.19822 0
M  V30 481 O 46.5931 -3.07774 -3.1178 0
M  V30 482 C 48.0941 -1.59035 -4.13791 0
M  V30 483 H 45.3141 -0.377729 -0.554583 0
M  V30 484 H 47.8581 -1.62195 -1.24551 0
M  V30 485 H 46.0131 -1.18154 -3.68942 0
M  V30 486 H 46.4271 -3.37062 -4.01858 0
M  V30 487 H 47.9011 -2.0625 -5.1202 0
M  V30 488 H 48.3781 -0.547273 -4.35777 0
M  V30 489 H 48.9841 -2.08709 -3.70568 0
M  V30 490 N 47.2992 1.18797 -1.03562 0
M  V30 491 C 48.5472 1.88278 -0.734569 0
M  V30 492 C 48.8682 1.8043 0.739586 0
M  V30 493 O 48.1382 1.21925 1.53333 0
M  V30 494 H 46.7182 0.696991 -0.268725 0
M  V30 495 H 49.3802 1.44192 -1.31129 0
M  V30 496 H 48.4762 2.94443 -1.03489 0
M  V30 497 N 48.7773 0.814389 1.34928 0
M  V30 498 C 49.6873 0.231978 2.3345 0
M  V30 499 C 50.7033 -0.629139 1.62228 0
M  V30 500 O 51.8793 -0.539052 1.94052 0
M  V30 501 C 48.9443 -0.603482 3.41407 0
M  V30 502 C 48.0053 0.279037 4.28392 0
M  V30 503 C 47.2383 -0.516643 5.31193 0
M  V30 504 O 47.4613 -1.75068 5.4287 0
M  V30 505 O 46.3953 0.0965652 6.01823 0
M  V30 506 H 50.2213 1.04721 2.85074 0
M  V30 507 H 47.8063 0.576343 1.37836 0
M  V30 508 H 49.6883 -1.07908 4.0735 0
M  V30 509 H 48.3633 -1.39618 2.92042 0
M  V30 510 H 47.2703 0.801948 3.65403 0
M  V30 511 H 48.6033 1.03588 4.81176 0
M  V30 512 N 50.2554 -1.46986 0.568584 0
M  V30 513 C 51.5024 -2.02441 0.0487986 0
M  V30 514 C 51.8304 -1.44169 -1.30559 0
M  V30 515 O 51.0854 -0.591213 -1.86556 0
M  V30 516 C 51.3844 -3.57306 -0.081836 0
M  V30 517 C 51.0504 -4.34552 1.20313 0
M  V30 518 C 49.7124 -4.55376 1.5552 0
M  V30 519 C 52.0644 -4.79016 2.05411 0
M  V30 520 C 49.3924 -5.17913 2.7565 0
M  V30 521 C 51.7444 -5.42879 3.24754 0
M  V30 522 C 50.4084 -5.61933 3.60261 0
M  V30 523 H 49.6784 -0.740785 0.0178567 0
M  V30 524 H 52.3254 -1.76525 0.742384 0
M  V30 525 H 50.6304 -3.8228 -0.858463 0
M  V30 526 H 52.3274 -3.97876 -0.499546 0
M  V30 527 H 48.9174 -4.18631 0.919014 0
M  V30 528 H 53.1014 -4.62696 1.79516 0
M  V30 529 H 48.3574 -5.30858 3.03315 0
M  V30 530 H 52.5314 -5.76293 3.90973 0
M  V30 531 H 50.1584 -6.10161 4.53439 0
M  V30 532 N 51.7335 -0.305618 -1.54608 0
M  V30 533 C 52.6435 0.57778 -2.27374 0
M  V30 534 C 53.6595 1.14451 -1.31061 0
M  V30 535 O 54.8355 1.16831 -1.6405 0
M  V30 536 C 51.9005 1.73123 -3.00382 0
M  V30 537 C 50.9615 1.19812 -4.12242 0
M  V30 538 C 50.1945 2.2966 -4.81759 0
M  V30 539 O 50.4175 3.49651 -4.50666 0
M  V30 540 O 49.3515 1.96091 -5.69062 0
M  V30 541 H 53.1775 -0.012624 -3.03697 0
M  V30 542 H 50.7625 -0.0719184 -1.49227 0
M  V30 543 H 52.6445 2.40315 -3.4616 0
M  V30 544 H 51.3195 2.30815 -2.26949 0
M  V30 545 H 50.2265 0.491798 -3.70853 0
M  V30 546 H 51.5595 0.666566 -4.87666 0
M  V30 547 N 53.2116 1.57565 -0.0334293 0
M  V30 548 C 54.1586 2.10478 0.946981 0
M  V30 549 C 55.1286 1.00787 1.32027 0
M  V30 550 O 56.3136 1.28232 1.41284 0
M  V30 551 C 53.4536 2.63994 2.22263 0
M  V30 552 C 52.5666 3.87709 1.90541 0
M  V30 553 C 51.7016 4.29604 3.12433 0
M  V30 554 C 50.7406 5.46065 2.76549 0
M  V30 555 N 49.8776 5.83096 3.9108 0
M  V30 556 H 54.7176 2.93963 0.488846 0
M  V30 557 H 52.2546 1.45296 0.22969 0
M  V30 558 H 54.2126 2.93114 2.96884 0
M  V30 559 H 52.8426 1.83333 2.65685 0
M  V30 560 H 51.8946 3.65291 1.06144 0
M  V30 561 H 53.2066 4.72403 1.60116 0
M  V30 562 H 52.3606 4.60182 3.9537 0
M  V30 563 H 51.0996 3.43685 3.46023 0
M  V30 564 H 50.1046 5.15176 1.92026 0
M  V30 565 H 51.3296 6.33685 2.44171 0
M  V30 566 H 49.2756 5.00132 4.24504 0
M  V30 567 H 49.1926 6.6244 3.64293 0
M  V30 568 H 50.4606 6.18282 4.74708 0
M  V30 569 N 54.6897 -0.239769 1.55765 0
M  V30 570 C 55.6367 -1.29696 1.90913 0
M  V30 571 C 56.6067 -1.47478 0.764164 0
M  V30 572 O 57.7917 -1.61345 1.01845 0
M  V30 573 C 54.9317 -2.64598 2.21544 0
M  V30 574 C 54.0447 -2.54765 3.48882 0
M  V30 575 C 53.1797 -3.82069 3.69049 0
M  V30 576 C 52.2187 -3.66883 4.89963 0
M  V30 577 N 51.3557 -4.86094 5.06614 0
M  V30 578 H 56.1957 -0.990224 2.81067 0
M  V30 579 H 53.7327 -0.477684 1.39128 0
M  V30 580 H 55.6907 -3.43132 2.3731 0
M  V30 581 H 54.3207 -2.93405 1.34585 0
M  V30 582 H 53.3727 -1.67763 3.41409 0
M  V30 583 H 54.6847 -2.39457 4.37563 0
M  V30 584 H 53.8387 -4.69046 3.84812 0
M  V30 585 H 52.5777 -4.00282 2.78614 0
M  V30 586 H 51.5827 -2.78289 4.74168 0
M  V30 587 H 52.8077 -3.50157 5.81865 0
M  V30 588 H 50.7537 -5.04655 4.19117 0
M  V30 589 H 50.6707 -4.73443 5.89396 0
M  V30 590 H 51.9387 -5.74549 5.26795 0
M  V30 591 N 56.1678 -1.49265 -0.50573 0
M  V30 592 C 57.3978 -1.61979 -1.28243 0
M  V30 593 C 57.8058 -0.288576 -1.86986 0
M  V30 594 O 57.1488 0.735408 -1.68337 0
M  V30 595 C 57.2108 -2.62632 -2.45489 0
M  V30 596 C 56.8748 -4.071 -2.07651 0
M  V30 597 C 57.8718 -4.94049 -1.61901 0
M  V30 598 C 55.5568 -4.52801 -2.17431 0
M  V30 599 C 57.5508 -6.24736 -1.26428 0
M  V30 600 C 55.2378 -5.83503 -1.8157 0
M  V30 601 C 56.2358 -6.69294 -1.36142 0
M  V30 602 O 55.9238 -7.9756 -1.00764 0
M  V30 603 H 55.6558 -0.54834 -0.395347 0
M  V30 604 H 58.2098 -1.96002 -0.614204 0
M  V30 605 H 56.4398 -2.2378 -3.15372 0
M  V30 606 H 58.1288 -2.64925 -3.07522 0
M  V30 607 H 58.8948 -4.5997 -1.53795 0
M  V30 608 H 54.7738 -3.86196 -2.51742 0
M  V30 609 H 58.3178 -6.91652 -0.908992 0
M  V30 610 H 54.2148 -6.17112 -1.89324 0
M  V30 611 H 54.9828 -8.10529 -1.13952 0
M  V30 612 N 57.6459 0.756429 -1.3826 0
M  V30 613 C 58.8919 1.51772 -1.34511 0
M  V30 614 C 59.2249 1.94089 0.0656691 0
M  V30 615 O 58.4999 1.65221 1.02626 0
M  V30 616 C 58.7829 2.77226 -2.29821 0
M  V30 617 C 58.6359 2.41065 -3.79747 0
M  V30 618 C 59.9549 3.79236 -2.23312 0
M  V30 619 H 57.0739 0.550578 -0.489931 0
M  V30 620 H 59.7159 0.866607 -1.69086 0
M  V30 621 H 57.8659 3.32784 -2.00467 0
M  V30 622 H 59.5379 1.91303 -4.19763 0
M  V30 623 H 57.7809 1.7356 -3.97567 0
M  V30 624 H 58.4519 3.3081 -4.41892 0
M  V30 625 H 60.9279 3.3321 -2.49219 0
M  V30 626 H 59.8039 4.64714 -2.92116 0
M  V30 627 H 60.0649 4.24615 -1.23102 0
M  V30 628 N 59.124 1.23083 0.984299 0
M  V30 629 C 60.087 1.00979 2.05757 0
M  V30 630 C 61.087 -0.0269573 1.60777 0
M  V30 631 O 62.277 0.212403 1.729 0
M  V30 632 C 59.409 0.527072 3.36801 0
M  V30 633 H 60.602 1.9622 2.26799 0
M  V30 634 H 58.155 1.05072 1.15714 0
M  V30 635 H 58.89 -0.429294 3.21446 0
M  V30 636 H 58.675 1.27515 3.70786 0
M  V30 637 H 60.165 0.392942 4.15747 0
M  V30 638 N 60.6021 -1.18246 1.0419 0
M  V30 639 C 61.8301 -1.92195 0.766072 0
M  V30 640 C 62.2451 -1.76247 -0.676933 0
M  V30 641 O 61.6021 -1.09293 -1.46155 0
M  V30 642 C 61.6531 -3.43568 1.12442 0
M  V30 643 O 61.3741 -3.59015 2.51078 0
M  V30 644 C 62.8751 -4.34613 0.873275 0
M  V30 645 H 60.0951 -0.610114 0.279288 0
M  V30 646 H 62.6391 -1.50007 1.38989 0
M  V30 647 H 60.7941 -3.8354 0.545542 0
M  V30 648 H 61.2081 -4.5273 2.64831 0
M  V30 649 H 62.6821 -5.39374 1.17385 0
M  V30 650 H 63.1591 -4.38781 -0.191909 0
M  V30 651 H 63.7651 -4.00341 1.43551 0
M  V30 652 N 62.0802 -0.821533 -1.34494 0
M  V30 653 C 63.0102 -0.257138 -2.3208 0
M  V30 654 C 63.9912 0.625645 -1.58176 0
M  V30 655 O 65.1762 0.552811 -1.86166 0
M  V30 656 C 62.3062 0.582958 -3.42372 0
M  V30 657 C 61.2602 -0.202571 -4.2752 0
M  V30 658 C 60.5862 0.760179 -5.29269 0
M  V30 659 C 61.8862 -1.40998 -5.02908 0
M  V30 660 H 63.5802 -1.07247 -2.79532 0
M  V30 661 H 61.1262 -0.517163 -1.34393 0
M  V30 662 H 63.0792 0.987972 -4.09655 0
M  V30 663 H 61.8032 1.43133 -2.93565 0
M  V30 664 H 60.4622 -0.588936 -3.61838 0
M  V30 665 H 60.1102 1.60447 -4.76724 0
M  V30 666 H 59.8102 0.238809 -5.87115 0
M  V30 667 H 61.3342 1.16308 -5.9942 0
M  V30 668 H 62.7482 -1.07905 -5.63054 0
M  V30 669 H 61.1452 -1.86689 -5.70322 0
M  V30 670 H 62.2152 -2.1889 -4.32684 0
M  V30 671 N 63.5583 1.46682 -0.576371 0
M  V30 672 C 64.8063 2.02013 -0.0594163 0
M  V30 673 C 65.1273 1.45101 1.30271 0
M  V30 674 O 64.3973 0.633317 1.8538 0
M  V30 675 H 62.9773 0.746759 -0.0189745 0
M  V30 676 H 65.6393 1.79862 -0.750717 0
M  V30 677 H 64.7353 3.12097 0.014345 0
M  V30 678 N 65.0364 0.313813 1.54444 0
M  V30 679 C 66.2824 -0.292108 2.00685 0
M  V30 680 C 66.6154 -1.52548 1.20177 0
M  V30 681 O 65.8904 -1.92452 0.281531 0
M  V30 682 C 66.1734 -0.635968 3.5444 0
M  V30 683 C 66.0264 0.607437 4.4568 0
M  V30 684 C 67.3454 -1.45747 4.15266 0
M  V30 685 H 64.4644 -0.104697 0.729526 0
M  V30 686 H 67.1064 0.428457 1.85106 0
M  V30 687 H 65.2564 -1.24986 3.67846 0
M  V30 688 H 66.9284 1.24581 4.44159 0
M  V30 689 H 65.1714 1.23822 4.15753 0
M  V30 690 H 65.8424 0.322515 5.51057 0
M  V30 691 H 68.3184 -0.938645 4.05375 0
M  V30 692 H 67.1944 -1.66683 5.2298 0
M  V30 693 H 67.4554 -2.45063 3.67963 0
M  V30 694 N 66.5145 -1.57545 0.0417849 0
M  V30 695 C 67.4245 -2.14451 -0.951213 0
M  V30 696 C 68.4405 -1.09992 -1.34825 0
M  V30 697 O 69.6165 -1.42114 -1.42708 0
M  V30 698 C 66.6815 -2.67063 -2.21084 0
M  V30 699 C 65.7425 -3.86284 -1.87304 0
M  V30 700 C 64.9755 -4.36378 -3.07261 0
M  V30 701 O 65.1985 -3.85587 -4.20332 0
M  V30 702 O 64.1325 -5.28077 -2.88822 0
M  V30 703 H 67.9585 -2.99601 -0.497287 0
M  V30 704 H 65.5435 -1.48317 -0.179567 0
M  V30 705 H 67.4255 -3.00914 -2.95006 0
M  V30 706 H 66.1005 -1.84989 -2.65633 0
M  V30 707 H 65.0075 -3.57338 -1.10727 0
M  V30 708 H 66.3405 -4.6956 -1.47562 0
M  V30 709 N 67.9926 0.231505 -1.5589 0
M  V30 710 C 69.2386 0.95877 -1.78705 0
M  V30 711 C 69.5716 1.8438 -0.609725 0
M  V30 712 O 68.8466 1.90521 0.391426 0
M  V30 713 C 69.1296 1.8062 -3.11526 0
M  V30 714 C 68.9826 0.948328 -4.39689 0
M  V30 715 C 70.3016 2.78585 -3.40703 0
M  V30 716 H 67.4206 0.347129 -0.650131 0
M  V30 717 H 70.0626 0.228259 -1.88624 0
M  V30 718 H 68.2126 2.42902 -3.03201 0
M  V30 719 H 69.8846 0.343016 -4.60023 0
M  V30 720 H 68.1276 0.253314 -4.3306 0
M  V30 721 H 68.7986 1.57543 -5.29041 0
M  V30 722 H 71.2746 2.26439 -3.49091 0
M  V30 723 H 70.1506 3.34988 -4.34826 0
M  V30 724 H 70.4116 3.55825 -2.62375 0
M  V30 725 N 69.4707 1.49531 0.497807 0
M  V30 726 C 70.4207 1.62829 1.59596 0
M  V30 727 C 71.4047 0.483824 1.53453 0
M  V30 728 O 72.5967 0.736937 1.60929 0
M  V30 729 C 69.7257 1.7011 2.98191 0
M  V30 730 C 68.8117 2.90144 3.09317 0
M  V30 731 N 69.2027 4.1418 2.90324 0
M  V30 732 C 67.5007 2.88148 3.40422 0
M  V30 733 C 68.2017 4.94886 3.05717 0
M  V30 734 N 67.1777 4.28314 3.34736 0
M  V30 735 H 70.9797 2.56446 1.4357 0
M  V30 736 H 68.4937 1.46347 0.704001 0
M  V30 737 H 70.4907 1.77735 3.77115 0
M  V30 738 H 69.1507 0.776315 3.15283 0
M  V30 739 H 70.1617 4.44109 2.66436 0
M  V30 740 H 66.8387 2.05061 3.63671 0
M  V30 741 H 68.2287 6.03432 2.95499 0
M  V30 742 N 70.9488 -0.749086 1.3866 0
M  V30 743 C 72.3598 -1.32664 1.31366 0
M  V30 744 C 72.7108 -1.96179 -0.028484 0
M  V30 745 O 71.8358 -1.9537 -0.93057 0
M  V30 746 C 72.4308 -2.41219 2.37905 0
M  V30 747 C 70.9898 -2.94684 2.34176 0
M  V30 748 C 70.1368 -1.68108 2.20533 0
M  V30 749 H 73.0878 -0.547628 1.48952 0
M  V30 750 H 73.1088 -3.21268 2.0388 0
M  V30 751 H 72.6208 -1.94962 3.35576 0
M  V30 752 H 70.7218 -3.45258 1.401 0
M  V30 753 H 70.8348 -3.48757 3.2849 0
M  V30 754 H 69.1988 -1.91907 1.67463 0
M  V30 755 H 69.9818 -1.23923 3.20153 0
M  V30 756 N 72.4269 -1.23603 -0.977757 0
M  V30 757 C 73.3569 -1.04401 -2.0886 0
M  V30 758 C 74.3379 0.0399052 -1.70053 0
M  V30 759 O 75.5229 -0.125246 -1.93796 0
M  V30 760 C 72.6529 -0.637269 -3.41403 0
M  V30 761 C 71.6069 -1.66883 -3.94124 0
M  V30 762 C 70.9329 -1.11745 -5.22893 0
M  V30 763 C 72.2329 -3.06247 -4.23096 0
M  V30 764 H 73.9269 -1.97316 -2.25182 0
M  V30 765 H 71.4729 -0.950096 -1.08209 0
M  V30 766 H 73.4259 -0.48998 -4.18542 0
M  V30 767 H 72.1499 0.327557 -3.24953 0
M  V30 768 H 70.8089 -1.80416 -3.19133 0
M  V30 769 H 70.4569 -0.143527 -5.02795 0
M  V30 770 H 70.1569 -1.80672 -5.59134 0
M  V30 771 H 71.6809 -0.982067 -6.02651 0
M  V30 772 H 73.0949 -2.96001 -4.90975 0
M  V30 773 H 71.4919 -3.72436 -4.70544 0
M  V30 774 H 72.5619 -3.55041 -3.30263 0
M  V30 775 N 73.905 1.17692 -1.04816 0
M  V30 776 C 75.151 1.88137 -0.75711 0
M  V30 777 C 75.484 1.80604 0.713841 0
M  V30 778 O 74.759 1.21146 1.52164 0
M  V30 779 C 75.042 3.38318 -1.2334 0
M  V30 780 C 74.895 3.54622 -2.76701 0
M  V30 781 C 76.214 4.32214 -0.829415 0
M  V30 782 H 73.333 0.683163 -0.27651 0
M  V30 783 H 75.975 1.38424 -1.30149 0
M  V30 784 H 74.125 3.80787 -0.770286 0
M  V30 785 H 75.797 3.21194 -3.31107 0
M  V30 786 H 74.04 2.97026 -3.16161 0
M  V30 787 H 74.711 4.60028 -3.05088 0
M  V30 788 H 77.187 3.97565 -1.22805 0
M  V30 789 H 76.063 5.35838 -1.19033 0
M  V30 790 H 76.324 4.41294 0.266891 0
M  V30 791 N 75.3831 0.828654 1.34056 0
M  V30 792 C 76.6301 0.419458 1.98108 0
M  V30 793 C 76.9581 -1.01886 1.65679 0
M  V30 794 O 76.2131 -1.72539 0.923512 0
M  V30 795 C 76.5121 0.575226 3.52741 0
M  V30 796 C 76.1781 1.98012 4.05095 0
M  V30 797 C 74.8401 2.36442 4.19104 0
M  V30 798 C 77.1921 2.89824 4.33188 0
M  V30 799 C 74.5201 3.66009 4.58535 0
M  V30 800 C 76.8721 4.1886 4.74066 0
M  V30 801 C 75.5361 4.5726 4.86281 0
M  V30 802 H 74.8061 0.153491 0.724929 0
M  V30 803 H 77.4531 1.05371 1.59904 0
M  V30 804 H 75.7581 -0.142385 3.91541 0
M  V30 805 H 77.4551 0.239057 4.00287 0
M  V30 806 H 74.0451 1.67162 3.94658 0
M  V30 807 H 78.2291 2.61375 4.21897 0
M  V30 808 H 73.4851 3.95579 4.66184 0
M  V30 809 H 77.6591 4.90086 4.94761 0
M  V30 810 H 75.2861 5.57707 5.16592 0
M  V30 811 N 76.8612 -1.46375 0.584142 0
M  V30 812 C 77.8112 -2.27371 -0.169232 0
M  V30 813 C 78.7952 -1.35955 -0.860523 0
M  V30 814 O 79.9872 -1.60119 -0.754382 0
M  V30 815 C 77.1162 -3.22334 -1.18134 0
M  V30 816 C 76.2022 -4.21235 -0.492088 0
M  V30 817 N 76.5932 -5.03766 0.453129 0
M  V30 818 C 74.8912 -4.39773 -0.742652 0
M  V30 819 C 75.5922 -5.75366 0.85609 0
M  V30 820 N 74.5682 -5.43214 0.204926 0
M  V30 821 H 78.3702 -2.88572 0.557097 0
M  V30 822 H 75.8842 -1.57242 0.406042 0
M  V30 823 H 77.8812 -3.79071 -1.73525 0
M  V30 824 H 76.5412 -2.62693 -1.90847 0
M  V30 825 H 77.5522 -5.11227 0.828723 0
M  V30 826 H 74.2292 -3.91279 -1.45625 0
M  V30 827 H 75.6192 -6.5172 1.63434 0
M  V30 828 N 78.3393 -0.321999 -1.54275 0
M  V30 829 C 79.5673 0.283052 -2.04955 0
M  V30 830 C 79.9823 1.45904 -1.19823 0
M  V30 831 O 79.3393 1.81063 -0.228545 0
M  V30 832 C 79.3903 0.719028 -3.54277 0
M  V30 833 O 79.1113 -0.410175 -4.36176 0
M  V30 834 C 80.6123 1.38705 -4.21041 0
M  V30 835 H 77.8323 0.0584616 -0.668448 0
M  V30 836 H 80.3763 -0.467734 -1.99079 0
M  V30 837 H 78.5313 1.41979 -3.60445 0
M  V30 838 H 78.9453 -0.0669416 -5.24457 0
M  V30 839 H 80.4193 1.64306 -5.2698 0
M  V30 840 H 80.8963 2.33385 -3.72059 0
M  V30 841 H 81.5023 0.728906 -4.19007 0
M  V30 842 N 79.8174 1.5752 -0.0501392 0
M  V30 843 C 80.7654 2.12651 0.942459 0
M  V30 844 C 81.7594 1.05807 1.32292 0
M  V30 845 O 82.9654 1.24217 1.3027 0
M  V30 846 H 79.3404 0.679673 0.321789 0
M  V30 847 H 81.3114 2.94951 0.452356 0
M  V30 848 C 80.0604 2.68565 2.20836 0
M  V30 849 H 79.3834 3.50439 1.92439 0
M  V30 850 H 80.8234 3.10761 2.8845 0
M  V30 851 C 79.2824 1.62291 2.95234 0
M  V30 852 O 79.8124 1.03508 3.88135 0
M  V30 853 N 78.0184 1.33836 2.57946 0
M  V30 854 H 77.5654 1.81826 1.82475 0
M  V30 855 H 77.5234 0.629595 3.08032 0
M  V30 856 N 81.2955 -0.223234 1.56011 0
M  V30 857 C 82.7115 -0.572856 1.48965 0
M  V30 858 C 82.9115 -1.87225 0.74492 0
M  V30 859 O 81.9675 -2.50899 0.283896 0
M  V30 860 C 83.2805 -0.653646 2.9351 0
M  V30 861 C 84.8285 -0.744386 3.0402 0
M  V30 862 C 85.3035 -0.856535 4.49919 0
M  V30 863 N 86.7945 -0.9208 4.53955 0
M  V30 864 C 87.5295 -1.02726 5.64123 0
M  V30 865 N 87.0255 -1.09777 6.84047 0
M  V30 866 N 88.8185 -1.06226 5.51971 0
M  V30 867 H 80.9695 0.629462 2.02858 0
M  V30 868 H 83.2325 0.220621 0.921971 0
M  V30 869 H 82.9385 0.231518 3.50937 0
M  V30 870 H 82.8125 -1.51781 3.45315 0
M  V30 871 H 85.1995 -1.61999 2.46658 0
M  V30 872 H 85.2805 0.14541 2.55386 0
M  V30 873 H 84.9245 0.0146069 5.07898 0
M  V30 874 H 84.8545 -1.76172 4.96257 0
M  V30 875 H 87.3455 -0.876694 3.6759 0
M  V30 876 H 87.6585 -1.17872 7.63758 0
M  V30 877 H 86.0035 -1.06693 6.86762 0
M  V30 878 H 89.1945 -1.00382 4.5721 0
M  V30 879 H 89.3675 -1.14177 6.37862 0
M  V30 880 N 82.7736 -1.49793 -0.48987 0
M  V30 881 C 84.0216 -1.59525 -1.24081 0
M  V30 882 C 84.3426 -0.288953 -1.92847 0
M  V30 883 O 83.6126 0.692436 -1.83254 0
M  V30 884 H 82.1926 -0.587796 -0.460983 0
M  V30 885 H 84.8546 -1.86477 -0.566778 0
M  V30 886 H 83.9506 -2.39696 -1.99881 0
M  V30 887 N 84.2517 0.741722 -1.39055 0
M  V30 888 C 85.6627 1.31966 -1.32068 0
M  V30 889 C 86.0137 1.96192 0.0180797 0
M  V30 890 O 85.1387 1.95861 0.920196 0
M  V30 891 C 85.7337 2.39954 -2.39181 0
M  V30 892 C 84.2927 2.93438 -2.35735 0
M  V30 893 C 83.4397 1.66936 -2.21422 0
M  V30 894 H 86.3907 0.539721 -1.4924 0
M  V30 895 H 86.4117 3.20182 -2.05581 0
M  V30 896 H 85.9237 1.9318 -3.36605 0
M  V30 897 H 84.0247 3.4451 -1.41929 0
M  V30 898 H 84.1377 3.4701 -3.30335 0
M  V30 899 H 82.5017 1.91016 -1.68478 0
M  V30 900 H 83.2847 1.22224 -3.20806 0
M  V30 901 N 85.7298 1.2412 0.971189 0
M  V30 902 C 86.9788 1.07284 1.70801 0
M  V30 903 C 87.2918 -0.388902 1.91695 0
M  V30 904 O 88.4978 -0.677379 2.62914 0
M  V30 905 C 86.9538 1.87145 3.07416 0
M  V30 906 C 86.5618 3.37707 2.94377 0
M  V30 907 C 88.3058 1.78828 3.84995 0
M  V30 908 C 86.2128 4.09925 4.26281 0
M  V30 909 H 85.1428 0.397854 0.64049 0
M  V30 910 H 87.7938 1.4817 1.0825 0
M  V30 911 H 86.1758 1.39071 3.70777 0
M  V30 912 H 87.3498 3.93335 2.4005 0
M  V30 913 H 85.6648 3.46938 2.30267 0
M  V30 914 H 88.2618 2.30089 4.82662 0
M  V30 915 H 88.6048 0.75284 4.09436 0
M  V30 916 H 89.1378 2.24563 3.28354 0
M  V30 917 H 85.8768 5.13813 4.07033 0
M  V30 918 H 85.3968 3.59083 4.80437 0
M  V30 919 H 87.0758 4.1673 4.94919 0
M  V30 920 N 87.2079 -1.17134 1.05439 0
M  V30 921 C 88.1549 -2.21235 0.657539 0
M  V30 922 C 89.1249 -1.62551 -0.341543 0
M  V30 923 O 90.3099 -1.89379 -0.232393 0
M  V30 924 C 87.4499 -3.45076 0.0410575 0
M  V30 925 C 86.5629 -4.18042 1.08927 0
M  V30 926 C 85.6979 -5.29376 0.439848 0
M  V30 927 C 84.7369 -5.94132 1.4722 0
M  V30 928 N 83.8739 -6.96975 0.846756 0
M  V30 929 H 88.7139 -2.54534 1.54972 0
M  V30 930 H 86.2509 -1.25028 0.775006 0
M  V30 931 H 88.2089 -4.15862 -0.33383 0
M  V30 932 H 86.8389 -3.12353 -0.814568 0
M  V30 933 H 85.8909 -3.45945 1.58196 0
M  V30 934 H 87.2029 -4.62306 1.87282 0
M  V30 935 H 86.3569 -6.06699 0.0115125 0
M  V30 936 H 85.0959 -4.86251 -0.375656 0
M  V30 937 H 84.1009 -5.15538 1.91052 0
M  V30 938 H 85.3259 -6.39337 2.28965 0
M  V30 939 H 83.2719 -6.5598 0.0518075 0
M  V30 940 H 83.1889 -7.39565 1.5678 0
M  V30 941 H 84.4569 -7.78239 0.443277 0
M  V30 942 N 88.686 -0.835752 -1.33615 0
M  V30 943 C 89.933 -0.429959 -1.97883 0
M  V30 944 C 90.261 1.01006 -1.66217 0
M  V30 945 O 89.516 1.72047 -0.93265 0
M  V30 946 C 89.815 -0.593925 -3.52431 0
M  V30 947 C 89.481 -2.00158 -4.04039 0
M  V30 948 C 88.143 -2.38662 -4.17844 0
M  V30 949 C 90.495 -2.92117 -4.31644 0
M  V30 950 C 87.823 -3.68435 -4.56588 0
M  V30 951 C 90.175 -4.21368 -4.71838 0
M  V30 952 C 88.839 -4.59833 -4.83849 0
M  V30 953 H 88.109 -0.157333 -0.724104 0
M  V30 954 H 90.756 -1.06217 -1.59343 0
M  V30 955 H 89.061 0.121619 -3.91611 0
M  V30 956 H 90.758 -0.260282 -4.00154 0
M  V30 957 H 87.348 -1.69252 -3.93766 0
M  V30 958 H 91.532 -2.63608 -4.20505 0
M  V30 959 H 86.788 -3.98046 -4.64079 0
M  V30 960 H 90.962 -4.92703 -4.92155 0
M  V30 961 H 88.589 -5.60438 -5.13627 0
M  V30 962 N 90.1641 1.46063 -0.591896 0
M  V30 963 C 91.1121 2.32124 0.148739 0
M  V30 964 C 92.1061 1.45035 0.875286 0
M  V30 965 O 93.3121 1.61609 0.792632 0
M  V30 966 H 89.6871 0.749024 0.066832 0
M  V30 967 H 91.6581 2.92392 -0.595783 0
M  V30 968 C 90.4071 3.28373 1.1431 0
M  V30 969 H 89.7301 3.95371 0.59346 0
M  V30 970 H 91.1701 3.91352 1.63155 0
M  V30 971 C 89.6291 2.54393 2.20875 0
M  V30 972 O 90.1591 2.31373 3.28374 0
M  V30 973 N 88.3651 2.14797 1.95731 0
M  V30 974 H 87.9121 2.33719 1.08319 0
M  V30 975 H 87.8701 1.65619 2.67241 0
M  V30 976 N 91.6422 0.330177 1.54103 0
M  V30 977 C 92.8882 -0.270806 2.00984 0
M  V30 978 C 93.2212 -1.51265 1.21789 0
M  V30 979 O 92.4962 -1.92142 0.301927 0
M  V30 980 C 92.7792 -0.598339 3.55094 0
M  V30 981 C 92.6322 0.654674 4.4501 0
M  V30 982 C 93.9512 -1.41334 4.16789 0
M  V30 983 H 91.0702 -0.0969531 0.730595 0
M  V30 984 H 93.7122 0.448066 1.84641 0
M  V30 985 H 91.8622 -1.21078 3.69151 0
M  V30 986 H 93.5342 1.29285 4.42813 0
M  V30 987 H 91.7772 1.28224 4.14416 0
M  V30 988 H 92.4482 0.380944 5.50684 0
M  V30 989 H 94.9242 -0.895597 4.06347 0
M  V30 990 H 93.8002 -1.61127 5.24718 0
M  V30 991 H 94.0612 -2.41146 3.70541 0
M  V30 992 N 93.1203 -1.57491 0.0584922 0
M  V30 993 C 94.3663 -1.94081 -0.608617 0
M  V30 994 C 94.7213 -0.937438 -1.68017 0
M  V30 995 O 94.0143 0.0423034 -1.91553 0
M  V30 996 C 94.2083 -3.3513 -1.24188 0
M  V30 997 C 94.0373 -4.49095 -0.233187 0
M  V30 998 C 92.8073 -5.04988 0.177439 0
M  V30 999 C 95.0053 -5.1162 0.524306 0
M  V30 1000 N 92.9873 -6.02487 1.17823 0
M  V30 1001 C 94.3583 -6.04493 1.37796 0
M  V30 1002 C 96.4133 -4.94489 0.581822 0
M  V30 1003 C 95.1163 -6.82075 2.28399 0
M  V30 1004 C 97.1423 -5.72703 1.47531 0
M  V30 1005 C 96.5043 -6.65214 2.31667 0
M  V30 1006 H 92.6033 -0.75752 -0.194134 0
M  V30 1007 H 95.1873 -1.94248 0.132533 0
M  V30 1008 H 93.3583 -3.35726 -1.95302 0
M  V30 1009 H 95.0903 -3.5899 -1.86838 0
M  V30 1010 H 91.8453 -4.73165 -0.203004 0
M  V30 1011 H 92.2693 -6.55933 1.67573 0
M  V30 1012 H 96.9113 -4.22765 -0.054443 0
M  V30 1013 H 94.6293 -7.53085 2.93067 0
M  V30 1014 H 98.2153 -5.61472 1.52448 0
M  V30 1015 H 97.0953 -7.24679 2.99683 0
M  V30 1016 N 94.5984 0.214957 -1.56127 0
M  V30 1017 C 95.8754 0.963093 -1.70247 0
M  V30 1018 C 96.2554 2.02166 -0.60764 0
M  V30 1019 O 95.6034 2.25244 0.384385 0
M  V30 1020 C 95.8134 1.56756 -3.11815 0
M  V30 1021 C 97.1614 2.0573 -3.7143 0
M  V30 1022 O 98.1854 1.66637 -3.14818 0
M  V30 1023 O 97.0444 2.77603 -4.70743 0
M  V30 1024 H 94.1384 0.450321 -0.693643 0
M  V30 1025 H 96.6844 0.206219 -1.68442 0
M  V30 1026 H 95.4564 0.803533 -3.82961 0
M  V30 1027 H 95.0794 2.3898 -3.17765 0
M  V30 1028 N 96.0765 1.50051 0.48192 0
M  V30 1029 C 97.3045 1.64237 1.25832 0
M  V30 1030 C 97.7195 0.321336 1.86045 0
M  V30 1031 O 97.0765 -0.695478 1.68729 0
M  V30 1032 C 97.1275 2.72548 2.37487 0
M  V30 1033 O 96.8485 3.99529 1.79745 0
M  V30 1034 C 98.3495 2.9761 3.28547 0
M  V30 1035 H 95.5695 0.55237 0.380957 0
M  V30 1036 H 98.1135 1.96207 0.576467 0
M  V30 1037 H 96.2685 2.43303 3.01467 0
M  V30 1038 H 96.6825 4.59342 2.5319 0
M  V30 1039 H 98.1565 3.77084 4.03127 0
M  V30 1040 H 98.6335 2.0826 3.86684 0
M  V30 1041 H 99.2395 3.28345 2.70314 0
M  V30 1042 N 97.5546 -0.734337 1.39446 0
M  V30 1043 C 98.5176 -1.83004 1.37994 0
M  V30 1044 C 99.5176 -1.58397 0.276938 0
M  V30 1045 O 100.708 -1.65785 0.534875 0
M  V30 1046 C 97.8396 -3.20802 1.1532 0
M  V30 1047 H 99.0326 -1.85694 2.35494 0
M  V30 1048 H 96.5856 -0.938059 1.25021 0
M  V30 1049 H 97.3206 -3.23772 0.185036 0
M  V30 1050 H 97.1056 -3.4006 1.95197 0
M  V30 1051 H 98.5956 -4.00862 1.17046 0
M  V30 1052 N 99.0327 -1.24633 -0.964593 0
M  V30 1053 C 100.281 -1.08573 -1.70459 0
M  V30 1054 C 100.602 0.375655 -1.91347 0
M  V30 1055 O 99.8717 1.26779 -1.49345 0
M  V30 1056 H 98.4517 -0.398784 -0.631649 0
M  V30 1057 H 101.114 -1.56601 -1.16026 0
M  V30 1058 H 100.21 -1.58623 -2.68785 0
M  V30 1059 N 100.511 1.16574 -1.06058 0
M  V30 1060 C 101.443 2.2045 -0.627239 0
M  V30 1061 C 102.456 1.59752 0.313534 0
M  V30 1062 O 103.645 1.78192 0.104896 0
M  V30 1063 C 100.745 3.3875 0.100974 0
M  V30 1064 C 99.9178 4.29008 -0.852687 0
M  V30 1065 C 98.9768 5.25944 -0.164152 0
M  V30 1066 O 98.0028 5.63535 -0.801047 0
M  V30 1067 N 99.2048 5.70075 1.09518 0
M  V30 1068 H 101.97 2.58249 -1.52077 0
M  V30 1069 H 99.5308 1.3156 -0.943594 0
M  V30 1070 H 101.523 4.00638 0.57194 0
M  V30 1071 H 100.093 2.99476 0.89628 0
M  V30 1072 H 99.3128 3.64419 -1.50308 0
M  V30 1073 H 100.601 4.86195 -1.49972 0
M  V30 1074 H 99.9988 5.41624 1.6328 0
M  V30 1075 H 98.5558 6.34067 1.51006 0
M  V30 1076 N 101.989 0.842826 1.3317 0
M  V30 1077 C 102.899 0.281444 2.32906 0
M  V30 1078 C 103.915 -0.594587 1.63526 0
M  V30 1079 O 105.091 -0.49777 1.95152 0
M  V30 1080 C 102.156 -0.530929 3.42611 0
M  V30 1081 C 101.217 0.369843 4.27704 0
M  V30 1082 C 100.45 -0.403853 5.3217 0
M  V30 1083 O 100.673 -1.63513 5.46461 0
M  V30 1084 O 99.6069 0.224199 6.01482 0
M  V30 1085 H 103.433 1.10744 2.82789 0
M  V30 1086 H 101.018 0.60545 1.36582 0
M  V30 1087 H 102.9 -0.992437 4.09547 0
M  V30 1088 H 101.575 -1.33392 2.94938 0
M  V30 1089 H 100.482 0.879275 3.6362 0
M  V30 1090 H 101.815 1.13771 4.78871 0
M  V30 1091 N 103.467 -1.45747 0.599634 0
M  V30 1092 C 104.414 -2.30467 -0.123849 0
M  V30 1093 C 105.384 -1.41632 -0.86774 0
M  V30 1094 O 106.569 -1.70568 -0.855056 0
M  V30 1095 C 103.709 -3.26402 -1.12051 0
M  V30 1096 C 102.822 -4.3034 -0.37832 0
M  V30 1097 C 101.957 -5.13389 -1.364 0
M  V30 1098 C 100.996 -6.09061 -0.609171 0
M  V30 1099 N 100.133 -6.84918 -1.54374 0
M  V30 1100 H 104.973 -2.91802 0.604627 0
M  V30 1101 H 102.51 -1.43797 0.309972 0
M  V30 1102 H 104.468 -3.80482 -1.7114 0
M  V30 1103 H 103.098 -2.66839 -1.8165 0
M  V30 1104 H 102.15 -3.78984 0.327929 0
M  V30 1105 H 103.462 -4.98354 0.210997 0
M  V30 1106 H 102.616 -5.7183 -2.02719 0
M  V30 1107 H 101.355 -4.45376 -1.98725 0
M  V30 1108 H 100.36 -5.49758 0.0676979 0
M  V30 1109 H 101.585 -6.79099 0.00891991 0
M  V30 1110 H 99.531 -6.19601 -2.15478 0
M  V30 1111 H 99.448 -7.49254 -1.00766 0
M  V30 1112 H 100.716 -7.47906 -2.19676 0
M  V30 1113 N 104.945 -0.338344 -1.53925 0
M  V30 1114 C 106.192 0.259758 -2.00827 0
M  V30 1115 C 106.52 1.50973 -1.22628 0
M  V30 1116 O 105.775 1.93379 -0.300509 0
M  V30 1117 C 106.074 0.62448 -3.51902 0
M  V30 1118 C 105.74 -0.528006 -4.47798 0
M  V30 1119 C 104.402 -0.844298 -4.73735 0
M  V30 1120 C 106.754 -1.30143 -5.0469 0
M  V30 1121 C 104.082 -1.93648 -5.53821 0
M  V30 1122 C 106.434 -2.38382 -5.85967 0
M  V30 1123 C 105.098 -2.70576 -6.10201 0
M  V30 1124 H 104.368 0.0950523 -0.734878 0
M  V30 1125 H 107.015 -0.465182 -1.85764 0
M  V30 1126 H 105.32 1.43006 -3.64769 0
M  V30 1127 H 107.017 1.09905 -3.85645 0
M  V30 1128 H 103.607 -0.271421 -4.2774 0
M  V30 1129 H 107.791 -1.07033 -4.84621 0
M  V30 1130 H 103.047 -2.19021 -5.70824 0
M  V30 1131 H 107.221 -2.98746 -6.29066 0
M  V30 1132 H 104.848 -3.55333 -6.72044 0
M  V30 1133 N 106.423 1.57458 -0.0668435 0
M  V30 1134 C 107.671 1.92919 0.602214 0
M  V30 1135 C 107.992 0.947215 1.70449 0
M  V30 1136 O 107.262 -0.00544117 1.95899 0
M  V30 1137 H 105.842 0.71217 0.22544 0
M  V30 1138 H 108.504 1.94508 -0.123535 0
M  V30 1139 H 107.6 2.94589 1.03073 0
M  V30 1140 N 107.901 -0.206675 1.56239 0
M  V30 1141 C 109.149 -0.927007 1.79586 0
M  V30 1142 C 109.47 -1.8427 0.637929 0
M  V30 1143 O 108.74 -1.92849 -0.344398 0
M  V30 1144 H 107.32 -0.345292 0.662407 0
M  V30 1145 H 109.982 -0.21496 1.93711 0
M  V30 1146 H 109.078 -1.52501 2.72305 0
M  V30 1147 N 109.379 -1.50304 -0.473955 0
M  V30 1148 C 110.309 -1.71886 -1.58042 0
M  V30 1149 C 111.29 -0.567799 -1.60344 0
M  V30 1150 O 112.475 -0.806623 -1.76656 0
M  V30 1151 C 109.605 -1.81036 -2.96384 0
M  V30 1152 C 108.559 -2.962 -3.08949 0
M  V30 1153 C 107.885 -2.9049 -4.48909 0
M  V30 1154 C 109.185 -4.36752 -2.86434 0
M  V30 1155 H 110.879 -2.64527 -1.40234 0
M  V30 1156 H 108.425 -1.27295 -0.673201 0
M  V30 1157 H 110.378 -1.94719 -3.73714 0
M  V30 1158 H 109.102 -0.850147 -3.15341 0
M  V30 1159 H 107.761 -2.82164 -2.3405 0
M  V30 1160 H 107.409 -1.92321 -4.64781 0
M  V30 1161 H 107.109 -3.67802 -4.58253 0
M  V30 1162 H 108.633 -3.06218 -5.28264 0
M  V30 1163 H 110.047 -4.5133 -3.53517 0
M  V30 1164 H 108.444 -5.15493 -3.07225 0
M  V30 1165 H 109.514 -4.49321 -1.82316 0
M  V30 1166 N 110.857 0.726932 -1.39834 0
M  V30 1167 C 112.273 1.03354 -1.21615 0
M  V30 1168 C 112.473 2.01327 -0.08338 0
M  V30 1169 O 111.529 2.46158 0.56238 0
M  V30 1170 C 112.842 1.58811 -2.55342 0
M  V30 1171 C 114.39 1.70851 -2.62257 0
M  V30 1172 C 114.865 2.29716 -3.96225 0
M  V30 1173 N 116.356 2.37116 -3.97907 0
M  V30 1174 C 117.091 2.83619 -4.98345 0
M  V30 1175 N 116.587 3.29958 -6.09179 0
M  V30 1176 N 118.38 2.82901 -4.8572 0
M  V30 1177 H 110.531 0.0773069 -2.12259 0
M  V30 1178 H 112.794 0.0969102 -0.943034 0
M  V30 1179 H 112.5 0.942855 -3.38826 0
M  V30 1180 H 112.374 2.57502 -2.75632 0
M  V30 1181 H 114.761 2.34497 -1.79152 0
M  V30 1182 H 114.842 0.707913 -2.45809 0
M  V30 1183 H 114.486 1.66696 -4.79765 0
M  V30 1184 H 114.416 3.30469 -4.09997 0
M  V30 1185 H 116.907 2.04374 -3.17868 0
M  V30 1186 H 117.22 3.63976 -6.8172 0
M  V30 1187 H 115.565 3.27946 -6.12761 0
M  V30 1188 H 118.756 2.46027 -3.98231 0
M  V30 1189 H 118.929 3.18827 -5.6414 0
M  V30 1190 N 112.336 1.25143 0.95797 0
M  V30 1191 C 113.613 1.00472 1.67823 0
M  V30 1192 C 113.993 -0.470056 2.058 0
M  V30 1193 O 113.341 -1.44663 1.76875 0
M  V30 1194 C 113.551 1.9372 2.90299 0
M  V30 1195 C 114.899 2.21371 3.62326 0
M  V30 1196 O 115.923 1.91451 3.00375 0
M  V30 1197 O 114.782 2.72231 4.7387 0
M  V30 1198 H 111.876 0.380752 0.734137 0
M  V30 1199 H 114.422 1.36283 1.01119 0
M  V30 1200 H 113.194 2.93316 2.59001 0
M  V30 1201 H 112.817 1.58286 3.64735 0
M  V30 1202 N 113.814 -1.1601 1.06675 0
M  V30 1203 C 115.062 -1.86264 0.784229 0
M  V30 1204 C 115.383 -1.82328 -0.691488 0
M  V30 1205 O 114.653 -1.25947 -1.50047 0
M  V30 1206 H 113.233 -0.689621 0.28711 0
M  V30 1207 H 115.895 -1.40664 1.34906 0
M  V30 1208 H 114.991 -2.91595 1.11259 0
M  V30 1209 N 115.292 -0.849877 -1.32721 0
M  V30 1210 C 116.522 -0.46408 -2.0132 0
M  V30 1211 C 116.93 0.94246 -1.64056 0
M  V30 1212 O 116.273 1.6257 -0.855379 0
M  V30 1213 C 116.335 -0.517887 -3.5575 0
M  V30 1214 C 115.999 -1.88248 -4.16427 0
M  V30 1215 C 116.996 -2.84726 -4.35002 0
M  V30 1216 C 114.681 -2.17832 -4.52609 0
M  V30 1217 C 116.675 -4.08945 -4.8892 0
M  V30 1218 C 114.362 -3.42304 -5.06232 0
M  V30 1219 C 115.36 -4.37677 -5.24335 0
M  V30 1220 O 115.048 -5.59946 -5.76815 0
M  V30 1221 H 114.78 -0.181327 -0.651227 0
M  V30 1222 H 117.334 -1.14713 -1.70382 0
M  V30 1223 H 115.564 0.221997 -3.86062 0
M  V30 1224 H 117.253 -0.148366 -4.05629 0
M  V30 1225 H 118.019 -2.63174 -4.07388 0
M  V30 1226 H 113.898 -1.44385 -4.37806 0
M  V30 1227 H 117.442 -4.83396 -5.02966 0
M  V30 1228 H 113.339 -3.63709 -5.33278 0
M  V30 1229 H 114.107 -5.61838 -5.95214 0
M  V30 1230 N 116.77 1.45427 -0.607355 0
M  V30 1231 C 118 2.06314 -0.108656 0
M  V30 1232 C 118.408 1.45269 1.21217 0
M  V30 1233 O 117.751 0.561115 1.74921 0
M  V30 1234 C 117.813 3.59345 0.105618 0
M  V30 1235 C 117.477 4.42723 -1.13337 0
M  V30 1236 C 118.474 4.77715 -2.05145 0
M  V30 1237 C 116.159 4.83478 -1.36213 0
M  V30 1238 C 118.153 5.52317 -3.18158 0
M  V30 1239 C 115.84 5.57835 -2.49527 0
M  V30 1240 C 116.838 5.92171 -3.40327 0
M  V30 1241 O 116.526 6.65019 -4.51669 0
M  V30 1242 H 116.258 0.672782 -0.0658842 0
M  V30 1243 H 118.812 1.87664 -0.834945 0
M  V30 1244 H 117.042 3.76394 0.886796 0
M  V30 1245 H 118.731 4.02076 0.555886 0
M  V30 1246 H 119.497 4.46787 -1.88697 0
M  V30 1247 H 115.376 4.56188 -0.664362 0
M  V30 1248 H 118.92 5.79036 -3.89054 0
M  V30 1249 H 114.817 5.88177 -2.65928 0
M  V30 1250 H 115.585 6.83469 -4.50348 0
M  V30 1251 N 118.248 0.346503 1.53744 0
M  V30 1252 C 119.497 -0.250122 2.00143 0
M  V30 1253 C 119.81 -1.51418 1.23822 0
M  V30 1254 O 121.016 -2.18823 1.60713 0
M  V30 1255 C 119.472 -0.496252 3.56462 0
M  V30 1256 C 119.08 0.752077 4.41642 0
M  V30 1257 C 120.824 -1.05157 4.11269 0
M  V30 1258 C 118.731 0.476583 5.89477 0
M  V30 1259 H 117.661 -0.0972409 0.747703 0
M  V30 1260 H 120.312 0.46229 1.77581 0
M  V30 1261 H 118.694 -1.26944 3.75102 0
M  V30 1262 H 119.868 1.5266 4.34778 0
M  V30 1263 H 118.183 1.22925 3.97842 0
M  V30 1264 H 120.78 -1.27269 5.19333 0
M  V30 1265 H 121.123 -2.00799 3.64672 0
M  V30 1266 H 121.656 -0.339019 3.96353 0
M  V30 1267 H 118.395 1.4028 6.40314 0
M  V30 1268 H 117.915 -0.259794 5.99237 0
M  V30 1269 H 119.594 0.0949315 6.4693 0
M  V30 1270 N 119.726 -1.57421 0.075193 0
M  V30 1271 C 120.658 -2.09904 -0.920483 0
M  V30 1272 C 121.671 -1.03191 -1.25918 0
M  V30 1273 O 122.86 -1.30695 -1.21577 0
M  V30 1274 C 119.96 -2.54726 -2.23534 0
M  V30 1275 C 119.133 -3.8505 -2.07498 0
M  V30 1276 C 118.192 -4.15929 -3.22319 0
M  V30 1277 O 117.218 -4.85474 -2.9716 0
M  V30 1278 N 118.42 -3.69745 -4.47514 0
M  V30 1279 H 121.185 -2.95954 -0.472359 0
M  V30 1280 H 118.746 -1.61523 -0.110444 0
M  V30 1281 H 120.738 -2.72443 -2.9926 0
M  V30 1282 H 119.308 -1.73795 -2.59835 0
M  V30 1283 H 118.528 -3.76679 -1.16219 0
M  V30 1284 H 119.816 -4.70348 -1.94038 0
M  V30 1285 H 119.214 -3.13569 -4.7084 0
M  V30 1286 H 117.771 -3.92655 -5.20255 0
M  V30 1287 N 121.204 0.198386 -1.56346 0
M  V30 1288 C 122.167 1.22952 -1.93431 0
M  V30 1289 C 123.167 1.38611 -0.815092 0
M  V30 1290 O 124.357 1.36479 -1.08255 0
M  V30 1291 C 121.489 2.59946 -2.20546 0
M  V30 1292 H 122.682 0.912626 -2.85677 0
M  V30 1293 H 120.235 0.43977 -1.49986 0
M  V30 1294 H 120.97 2.96696 -1.30927 0
M  V30 1295 H 120.755 2.49953 -3.02102 0
M  V30 1296 H 122.245 3.3431 -2.50253 0
M  V30 1297 N 122.682 1.50554 0.465978 0
M  V30 1298 C 123.614 1.65949 1.58093 0
M  V30 1299 C 124.627 0.540827 1.53554 0
M  V30 1300 O 125.816 0.814187 1.5885 0
M  V30 1301 C 122.916 1.63261 2.96983 0
M  V30 1302 C 122.089 2.91245 3.26336 0
M  V30 1303 C 121.148 2.8113 4.44806 0
M  V30 1304 O 120.174 3.55086 4.44862 0
M  V30 1305 N 121.376 1.95032 5.46756 0
M  V30 1306 H 124.141 2.62122 1.45301 0
M  V30 1307 H 121.702 1.48082 0.65448 0
M  V30 1308 H 123.694 1.54101 3.74212 0
M  V30 1309 H 122.264 0.748032 3.03518 0
M  V30 1310 H 121.484 3.14493 2.37672 0
M  V30 1311 H 122.772 3.76022 3.42761 0
M  V30 1312 H 122.17 1.3427 5.49534 0
M  V30 1313 H 120.727 1.91772 6.2295 0
M  V30 1314 N 124.16 -0.719506 1.40217 0
M  V30 1315 C 125.4 -1.49181 1.39729 0
M  V30 1316 C 125.764 -1.92 -0.00250614 0
M  V30 1317 O 126.965 -2.68473 -0.132479 0
M  V30 1318 C 125.236 -2.68767 2.35582 0
M  V30 1319 S 126.795 -3.58224 2.53418 0
M  V30 1320 H 123.613 -0.510091 0.495307 0
M  V30 1321 H 126.215 -0.841724 1.76452 0
M  V30 1322 H 124.919 -2.35475 3.36124 0
M  V30 1323 H 124.45 -3.38691 2.0013 0
M  V30 1324 H 126.465 -4.63033 1.78367 0
M  V30 1325 N 125.638 -1.25649 -0.95132 0
M  V30 1326 C 126.601 -1.06399 -2.03007 0
M  V30 1327 C 127.601 -0.0156794 -1.60792 0
M  V30 1328 O 128.791 -0.25817 -1.72276 0
M  V30 1329 C 125.923 -0.616184 -3.35285 0
M  V30 1330 H 127.116 -2.02164 -2.21517 0
M  V30 1331 H 124.669 -1.08103 -1.12887 0
M  V30 1332 H 125.404 0.343917 -3.22471 0
M  V30 1333 H 125.189 -1.37301 -3.67275 0
M  V30 1334 H 126.679 -0.503032 -4.14559 0
M  V30 1335 N 127.117 1.15442 -1.07289 0
M  V30 1336 C 128.366 1.85557 -0.790669 0
M  V30 1337 C 128.679 1.83186 0.685739 0
M  V30 1338 O 129.885 2.48977 1.0827 0
M  V30 1339 C 128.341 3.33038 -1.36433 0
M  V30 1340 C 127.949 3.43856 -2.8717 0
M  V30 1341 C 129.693 4.0834 -1.1601 0
M  V30 1342 C 127.6 4.85482 -3.3773 0
M  V30 1343 H 126.53 0.695122 -0.292098 0
M  V30 1344 H 129.181 1.30219 -1.29287 0
M  V30 1345 H 127.563 3.88043 -0.789864 0
M  V30 1346 H 128.737 2.98961 -3.50655 0
M  V30 1347 H 127.052 2.81998 -3.06376 0
M  V30 1348 H 129.649 5.12859 -1.51262 0
M  V30 1349 H 129.992 4.16182 -0.0991007 0
M  V30 1350 H 130.525 3.59603 -1.70089 0
M  V30 1351 H 127.264 4.82823 -4.43353 0
M  V30 1352 H 126.784 5.30961 -2.78999 0
M  V30 1353 H 128.463 5.54335 -3.33648 0
M  V30 1354 N 128.595 0.856903 1.32268 0
M  V30 1355 C 129.844 0.457599 1.96441 0
M  V30 1356 C 130.157 -0.992426 1.68553 0
M  V30 1357 O 131.363 -1.49727 2.26482 0
M  V30 1358 C 129.819 0.767358 3.51624 0
M  V30 1359 C 129.427 2.23326 3.88367 0
M  V30 1360 C 131.171 0.435887 4.22256 0
M  V30 1361 C 129.078 2.48613 5.36606 0
M  V30 1362 H 128.008 0.167387 0.735185 0
M  V30 1363 H 130.659 1.048 1.5063 0
M  V30 1364 H 129.041 0.106367 3.95857 0
M  V30 1365 H 130.215 2.93623 3.55137 0
M  V30 1366 H 128.53 2.52948 3.30766 0
M  V30 1367 H 131.127 0.602202 5.31298 0
M  V30 1368 H 131.47 -0.622672 4.11617 0
M  V30 1369 H 132.003 1.05286 3.83614 0
M  V30 1370 H 128.742 3.53101 5.52268 0
M  V30 1371 H 128.262 1.82896 5.71235 0
M  V30 1372 H 129.941 2.32676 6.03714 0
M  V30 1373 N 130.073 -1.45103 0.615059 0
M  V30 1374 C 131.006 -2.27717 -0.148408 0
M  V30 1375 C 131.984 -1.37584 -0.866572 0
M  V30 1376 O 133.168 -1.67017 -0.87393 0
M  V30 1377 C 130.295 -3.16136 -1.21557 0
M  V30 1378 C 129.341 -4.22263 -0.599712 0
M  V30 1379 S 130.174 -5.3215 0.598081 0
M  V30 1380 C 131.33 -6.24137 -0.469484 0
M  V30 1381 H 131.563 -2.92121 0.552483 0
M  V30 1382 H 129.096 -1.49054 0.402778 0
M  V30 1383 H 131.054 -3.67633 -1.82638 0
M  V30 1384 H 129.715 -2.50982 -1.88857 0
M  V30 1385 H 128.908 -4.84081 -1.4029 0
M  V30 1386 H 128.51 -3.73945 -0.063876 0
M  V30 1387 H 130.802 -6.63984 -1.34652 0
M  V30 1388 H 131.745 -7.0801 0.112725 0
M  V30 1389 H 132.153 -5.58971 -0.788168 0
M  V30 1390 N 131.551 -0.354651 -1.53558 0
M  V30 1391 C 132.798 0.238443 -2.01091 0
M  V30 1392 C 133.126 1.49663 -1.24222 0
M  V30 1393 O 132.381 1.93049 -0.321003 0
M  V30 1394 C 132.68 0.587121 -3.52545 0
M  V30 1395 C 132.346 -0.575472 -4.47213 0
M  V30 1396 C 131.008 -0.894497 -4.72813 0
M  V30 1397 C 133.36 -1.35489 -5.03281 0
M  V30 1398 C 130.688 -1.99511 -5.51736 0
M  V30 1399 C 133.04 -2.44583 -5.83405 0
M  V30 1400 C 131.704 -2.77033 -6.07296 0
M  V30 1401 H 130.974 0.0872526 -0.735845 0
M  V30 1402 H 133.621 -0.484859 -1.8526 0
M  V30 1403 H 131.926 1.39129 -3.66265 0
M  V30 1404 H 133.623 1.05809 -3.86789 0
M  V30 1405 H 130.213 -0.316774 -4.27428 0
M  V30 1406 H 134.397 -1.12167 -4.83459 0
M  V30 1407 H 129.653 -2.25063 -5.68469 0
M  V30 1408 H 133.827 -3.05401 -6.25862 0
M  V30 1409 H 131.454 -3.6244 -6.68237 0
M  V30 1410 N 133.029 1.57378 -0.0835403 0
M  V30 1411 C 134.306 1.85363 0.624507 0
M  V30 1412 C 134.686 0.978239 1.87066 0
M  V30 1413 O 134.034 0.0475908 2.2845 0
M  V30 1414 C 134.244 3.35795 0.950947 0
M  V30 1415 C 135.592 4.03581 1.31939 0
M  V30 1416 O 136.616 3.40609 1.04232 0
M  V30 1417 O 135.475 5.14672 1.83779 0
M  V30 1418 H 132.569 0.766162 0.311329 0
M  V30 1419 H 135.115 1.69307 -0.115362 0
M  V30 1420 H 133.887 3.91244 0.0663899 0
M  V30 1421 H 133.51 3.57154 1.74719 0
M  V30 1422 N 134.507 -0.190092 1.56449 0
M  V30 1423 C 135.753 -0.911052 1.81184 0
M  V30 1424 C 136.086 -1.82699 0.658396 0
M  V30 1425 O 135.361 -1.91491 -0.340775 0
M  V30 1426 C 135.644 -1.72297 3.16205 0
M  V30 1427 C 135.497 -0.831419 4.42049 0
M  V30 1428 C 136.816 -2.69454 3.47969 0
M  V30 1429 H 133.935 -0.32977 0.659106 0
M  V30 1430 H 136.577 -0.178169 1.89163 0
M  V30 1431 H 134.727 -2.34778 3.09534 0
M  V30 1432 H 136.399 -0.220929 4.60771 0
M  V30 1433 H 134.642 -0.138406 4.33579 0
M  V30 1434 H 135.313 -1.43461 5.33032 0
M  V30 1435 H 137.789 -2.17104 3.54972 0
M  V30 1436 H 136.665 -3.23342 4.43555 0
M  V30 1437 H 136.926 -3.48744 2.71717 0
M  V30 1438 N 135.985 -1.50799 -0.457987 0
M  V30 1439 C 137.213 -1.66218 -1.23203 0
M  V30 1440 C 137.628 -0.350894 -1.85511 0
M  V30 1441 O 136.985 0.668546 -1.69814 0
M  V30 1442 C 137.036 -2.76291 -2.33121 0
M  V30 1443 O 136.757 -4.02338 -1.73366 0
M  V30 1444 C 138.258 -3.028 -3.2377 0
M  V30 1445 H 135.478 -0.558361 -0.372121 0
M  V30 1446 H 138.022 -1.97099 -0.545179 0
M  V30 1447 H 136.177 -2.48068 -2.97558 0
M  V30 1448 H 136.591 -4.63312 -2.4585 0
M  V30 1449 H 138.065 -3.8345 -3.97077 0
M  V30 1450 H 138.542 -2.14385 -3.83322 0
M  V30 1451 H 139.148 -3.32604 -2.65056 0
M  V30 1452 N 137.463 0.71206 -1.40597 0
M  V30 1453 C 138.688 1.50617 -1.42581 0
M  V30 1454 C 139.113 1.88079 -0.0282102 0
M  V30 1455 O 138.471 1.53511 0.964579 0
M  V30 1456 C 138.519 2.7557 -2.3258 0
M  V30 1457 O 137.623 3.72414 -1.77148 0
M  V30 1458 H 136.964 0.453966 -0.484573 0
M  V30 1459 H 139.494 0.876649 -1.84868 0
M  V30 1460 H 139.504 3.2406 -2.47889 0
M  V30 1461 H 138.179 2.47639 -3.34138 0
M  V30 1462 H 136.756 3.31276 -1.71204 0
M  V30 1463 N 138.941 1.26152 0.944643 0
M  V30 1464 C 140.357 1.03189 1.21754 0
M  V30 1465 C 140.557 -0.245112 2.00004 0
M  V30 1466 O 139.613 -0.955176 2.33736 0
M  V30 1467 C 140.926 2.26119 1.98219 0
M  V30 1468 C 142.474 2.30984 2.11224 0
M  V30 1469 C 142.949 3.53597 2.91089 0
M  V30 1470 N 144.44 3.54053 2.98664 0
M  V30 1471 C 145.175 4.45593 3.60881 0
M  V30 1472 N 144.671 5.47416 4.24626 0
M  V30 1473 N 146.464 4.33252 3.58119 0
M  V30 1474 H 138.615 2.08177 0.421437 0
M  V30 1475 H 140.878 0.914723 0.248969 0
M  V30 1476 H 140.584 3.18984 1.48128 0
M  V30 1477 H 140.458 2.3009 2.98895 0
M  V30 1478 H 142.845 1.38635 2.60508 0
M  V30 1479 H 142.926 2.31026 1.09821 0
M  V30 1480 H 142.57 4.46273 2.42493 0
M  V30 1481 H 142.5 3.50802 3.92741 0
M  V30 1482 H 144.991 2.80403 2.53343 0
M  V30 1483 H 145.304 6.13459 4.69987 0
M  V30 1484 H 143.649 5.51278 4.23223 0
M  V30 1485 H 146.84 3.52924 3.0751 0
M  V30 1486 H 147.013 5.04786 4.06319 0
M  V30 1487 N 140.419 -1.14872 1.07899 0
M  V30 1488 C 141.665 -1.86064 0.806725 0
M  V30 1489 C 141.998 -1.82434 -0.665706 0
M  V30 1490 O 141.273 -1.25138 -1.48899 0
M  V30 1491 C 141.556 -3.34929 1.32267 0
M  V30 1492 C 141.409 -3.47161 2.86006 0
M  V30 1493 C 142.728 -4.29863 0.943717 0
M  V30 1494 H 139.847 -0.675591 0.294526 0
M  V30 1495 H 142.489 -1.34925 1.33773 0
M  V30 1496 H 140.639 -3.78611 0.870974 0
M  V30 1497 H 142.311 -3.12302 3.39507 0
M  V30 1498 H 140.554 -2.88539 3.23925 0
M  V30 1499 H 141.225 -4.51777 3.17177 0
M  V30 1500 H 143.701 -3.9417 1.33302 0
M  V30 1501 H 142.577 -5.32494 1.33198 0
M  V30 1502 H 142.838 -4.41846 -0.149796 0
M  V30 1503 N 141.898 -0.863906 -1.31812 0
M  V30 1504 C 143.126 -0.486111 -2.01108 0
M  V30 1505 C 143.541 0.919755 -1.64882 0
M  V30 1506 O 142.898 1.60162 -0.874893 0
M  V30 1507 C 142.949 -0.626435 -3.56031 0
M  V30 1508 O 142.67 -1.97693 -3.90959 0
M  V30 1509 C 144.171 -0.248857 -4.42601 0
M  V30 1510 H 141.391 -0.190052 -0.643523 0
M  V30 1511 H 143.935 -1.1634 -1.68182 0
M  V30 1512 H 142.09 0.00322717 -3.874 0
M  V30 1513 H 142.504 -1.98034 -4.85678 0
M  V30 1514 H 143.978 -0.398016 -5.50563 0
M  V30 1515 H 144.455 0.811489 -4.31638 0
M  V30 1516 H 145.061 -0.853971 -4.16638 0
M  V30 1517 N 143.376 1.44774 -0.622745 0
M  V30 1518 C 144.606 2.06187 -0.130532 0
M  V30 1519 C 145.014 1.46547 1.19669 0
M  V30 1520 O 144.357 0.579636 1.74316 0
M  V30 1521 C 144.419 3.59437 0.0674983 0
M  V30 1522 C 144.083 4.41496 -1.18026 0
M  V30 1523 C 145.08 4.75512 -2.102 0
M  V30 1524 C 142.765 4.82007 -1.41333 0
M  V30 1525 C 144.759 5.48912 -3.23998 0
M  V30 1526 C 142.446 5.55157 -2.55429 0
M  V30 1527 C 143.444 5.88528 -3.46589 0
M  V30 1528 O 143.132 6.60191 -4.58697 0
M  V30 1529 H 142.864 0.672045 -0.0730162 0
M  V30 1530 H 145.418 1.86768 -0.854802 0
M  V30 1531 H 143.648 3.77314 0.846825 0
M  V30 1532 H 145.337 4.02642 0.513209 0
M  V30 1533 H 146.103 4.4476 -1.93425 0
M  V30 1534 H 141.982 4.55457 -0.712709 0
M  V30 1535 H 145.526 5.74877 -3.95174 0
M  V30 1536 H 141.423 5.85324 -2.72151 0
M  V30 1537 H 142.191 6.78654 -4.57571 0
M  V30 1538 N 144.854 0.36279 1.53368 0
M  V30 1539 C 145.801 -0.485008 2.25646 0
M  V30 1540 C 146.771 -1.07982 1.2621 0
M  V30 1541 O 147.956 -1.11284 1.54986 0
M  V30 1542 C 145.096 -1.62023 3.04701 0
M  V30 1543 C 144.209 -1.05086 4.19024 0
M  V30 1544 C 143.344 -2.15496 4.85525 0
M  V30 1545 C 142.383 -1.5601 5.91884 0
M  V30 1546 N 141.52 -2.60241 6.52088 0
M  V30 1547 H 146.36 0.137864 2.97681 0
M  V30 1548 H 143.897 0.0798061 1.46883 0
M  V30 1549 H 145.855 -2.28887 3.48807 0
M  V30 1550 H 144.485 -2.2138 2.34927 0
M  V30 1551 H 143.537 -0.27259 3.79422 0
M  V30 1552 H 144.849 -0.575926 4.95464 0
M  V30 1553 H 144.003 -2.90186 5.32801 0
M  V30 1554 H 142.742 -2.66341 4.08551 0
M  V30 1555 H 141.747 -0.798338 5.43973 0
M  V30 1556 H 142.972 -1.05994 6.70777 0
M  V30 1557 H 140.918 -3.10304 5.77968 0
M  V30 1558 H 140.835 -2.17426 7.24059 0
M  V30 1559 H 142.103 -3.34641 7.04014 0
M  V30 1560 N 146.332 -1.57332 0.0918853 0
M  V30 1561 C 147.28 -2.15075 -0.885747 0
M  V30 1562 C 148.274 -1.09277 -1.29441 0
M  V30 1563 O 149.48 -1.27627 -1.26931 0
M  V30 1564 H 145.855 -0.687966 -0.303656 0
M  V30 1565 H 147.826 -2.96047 -0.373995 0
M  V30 1566 C 146.575 -2.74325 -2.13638 0
M  V30 1567 H 145.898 -3.55418 -1.8308 0
M  V30 1568 H 147.338 -3.183 -2.80109 0
M  V30 1569 C 145.797 -1.70062 -2.90827 0
M  V30 1570 O 146.327 -1.13763 -3.85254 0
M  V30 1571 N 144.533 -1.40628 -2.54307 0
M  V30 1572 H 144.08 -1.866 -1.7759 0
M  V30 1573 H 144.038 -0.711043 -3.06254 0
M  V30 1574 N 147.81 0.181792 -1.56548 0
M  V30 1575 C 149.056 0.901431 -1.81665 0
M  V30 1576 C 149.389 1.82347 -0.668075 0
M  V30 1577 O 148.664 1.91669 0.330615 0
M  V30 1578 C 148.947 1.70618 -3.17115 0
M  V30 1579 C 148.8 0.807964 -4.42484 0
M  V30 1580 C 150.119 2.67605 -3.49393 0
M  V30 1581 H 147.238 0.32627 -0.660846 0
M  V30 1582 H 149.88 0.168134 -1.89255 0
M  V30 1583 H 148.03 2.33133 -3.10775 0
M  V30 1584 H 149.702 0.19649 -4.60881 0
M  V30 1585 H 147.945 0.115411 -4.33646 0
M  V30 1586 H 148.616 1.40632 -5.33785 0
M  V30 1587 H 151.092 2.15218 -3.56118 0
M  V30 1588 H 149.968 3.20985 -4.45264 0
M  V30 1589 H 150.229 3.47298 -2.73563 0
M  V30 1590 N 149.288 1.51039 0.449983 0
M  V30 1591 C 150.699 1.557 1.03026 0
M  V30 1592 C 151.05 0.372939 1.92623 0
M  V30 1593 O 150.175 -0.511771 2.10261 0
M  V30 1594 C 150.77 2.82171 1.87523 0
M  V30 1595 C 149.329 2.89444 2.40622 0
M  V30 1596 C 148.476 2.50228 1.19504 0
M  V30 1597 H 151.427 1.56999 0.231745 0
M  V30 1598 H 151.448 2.65219 2.72835 0
M  V30 1599 H 150.96 3.68331 1.22286 0
M  V30 1600 H 149.061 2.07685 3.0935 0
M  V30 1601 H 149.174 3.92816 2.74285 0
M  V30 1602 H 147.538 2.03139 1.53644 0
M  V30 1603 H 148.321 3.38719 0.558972 0
M  V30 1604 N 150.766 -0.704594 1.40972 0
M  V30 1605 C 151.714 -1.83994 1.42299 0
M  V30 1606 C 152.708 -1.66684 0.302111 0
M  V30 1607 O 153.914 -1.73655 0.473697 0
M  V30 1608 H 150.289 -0.606171 0.44504 0
M  V30 1609 H 152.26 -1.79992 2.38003 0
M  V30 1610 C 151.009 -3.21946 1.31323 0
M  V30 1611 H 150.332 -3.35878 2.16855 0
M  V30 1612 H 151.772 -4.01491 1.36311 0
M  V30 1613 C 150.231 -3.36891 0.0245977 0
M  V30 1614 O 150.761 -3.90687 -0.934153 0
M  V30 1615 N 148.967 -2.90559 -0.0485243 0
M  V30 1616 H 148.514 -2.46968 0.732419 0
M  V30 1617 H 148.472 -3.00937 -0.910171 0
M  V30 1618 N 152.244 -1.26651 -0.937939 0
M  V30 1619 C 153.49 -1.13562 -1.68746 0
M  V30 1620 C 153.845 0.317241 -1.89767 0
M  V30 1621 O 153.138 1.22939 -1.46957 0
M  V30 1622 C 153.332 -1.84168 -3.06295 0
M  V30 1623 C 153.161 -3.36171 -2.98696 0
M  V30 1624 C 151.931 -4.05468 -3.01535 0
M  V30 1625 C 154.129 -4.32312 -2.78588 0
M  V30 1626 N 152.111 -5.44118 -2.84269 0
M  V30 1627 C 153.482 -5.58159 -2.69924 0
M  V30 1628 C 155.537 -4.22524 -2.63396 0
M  V30 1629 C 154.24 -6.75335 -2.47618 0
M  V30 1630 C 156.266 -5.39411 -2.42466 0
M  V30 1631 C 155.628 -6.64208 -2.34536 0
M  V30 1632 H 151.727 -0.470361 -0.624728 0
M  V30 1633 H 154.311 -1.59982 -1.10968 0
M  V30 1634 H 152.482 -1.40219 -3.62206 0
M  V30 1635 H 154.214 -1.63674 -3.70126 0
M  V30 1636 H 150.969 -3.56854 -3.11372 0
M  V30 1637 H 151.393 -6.1693 -2.78795 0
M  V30 1638 H 156.035 -3.26771 -2.68292 0
M  V30 1639 H 153.753 -7.71182 -2.41463 0
M  V30 1640 H 157.339 -5.33711 -2.31611 0
M  V30 1641 H 156.219 -7.53129 -2.18555 0
M  V30 1642 N 153.722 1.14298 -1.08507 0
M  V30 1643 C 154.672 2.17449 -0.685569 0
M  V30 1644 C 155.656 1.58167 0.295315 0
M  V30 1645 O 156.848 1.76675 0.107172 0
M  V30 1646 C 153.977 3.43161 -0.0975318 0
M  V30 1647 C 153.063 4.09471 -1.10426 0
M  V30 1648 N 153.454 4.51089 -2.28806 0
M  V30 1649 C 151.752 4.35976 -0.940258 0
M  V30 1650 C 152.453 5.02654 -2.9277 0
M  V30 1651 N 151.429 4.96927 -2.20374 0
M  V30 1652 H 155.231 2.47369 -1.587 0
M  V30 1653 H 152.745 1.30992 -0.959936 0
M  V30 1654 H 154.742 4.16388 0.20664 0
M  V30 1655 H 153.402 3.14719 0.798872 0
M  V30 1656 H 154.413 4.44097 -2.66455 0
M  V30 1657 H 151.09 4.17386 -0.0977441 0
M  V30 1658 H 152.48 5.44723 -3.93352 0
M  V30 1659 N 155.201 0.870884 1.31352 0
M  V30 1660 C 156.617 0.562932 1.49343 0
M  V30 1661 C 156.817 -0.902725 1.80148 0
M  V30 1662 O 155.873 -1.68484 1.88067 0
M  V30 1663 C 157.186 1.46393 2.62659 0
M  V30 1664 C 158.734 1.46607 2.76542 0
M  V30 1665 C 159.209 2.35266 3.92955 0
M  V30 1666 N 160.7 2.33151 4.00243 0
M  V30 1667 C 161.435 2.98471 4.89594 0
M  V30 1668 N 160.931 3.72964 5.8384 0
M  V30 1669 N 162.724 2.87775 4.82848 0
M  V30 1670 H 154.875 1.81923 1.09626 0
M  V30 1671 H 157.138 0.777934 0.541777 0
M  V30 1672 H 156.844 2.50689 2.46674 0
M  V30 1673 H 156.718 1.16314 3.58819 0
M  V30 1674 H 159.105 0.43069 2.9194 0
M  V30 1675 H 159.186 1.8071 1.81046 0
M  V30 1676 H 158.83 3.38881 3.78315 0
M  V30 1677 H 158.76 1.98487 4.87761 0
M  V30 1678 H 161.251 1.79006 3.32814 0
M  V30 1679 H 161.564 4.19932 6.4875 0
M  V30 1680 H 159.909 3.77073 5.83816 0
M  V30 1681 H 163.1 2.29116 4.08195 0
M  V30 1682 H 163.273 3.38961 5.52277 0
M  V30 1683 N 156.679 -1.44442 0.630414 0
M  V30 1684 C 157.956 -1.9549 0.0655657 0
M  V30 1685 C 158.336 -1.5724 -1.40851 0
M  V30 1686 O 157.684 -0.846116 -2.12257 0
M  V30 1687 C 157.894 -3.47812 0.287691 0
M  V30 1688 C 159.242 -4.24216 0.180513 0
M  V30 1689 O 160.266 -3.55526 0.219019 0
M  V30 1690 O 159.125 -5.46434 0.0848493 0
M  V30 1691 H 156.219 -0.826688 -0.0227177 0
M  V30 1692 H 158.765 -1.54496 0.702068 0
M  V30 1693 H 157.537 -3.687 1.31056 0
M  V30 1694 H 157.16 -3.95751 -0.382984 0
M  V30 1695 N 158.157 -0.370918 -1.53173 0
M  V30 1696 C 159.087 0.464847 -2.28826 0
M  V30 1697 C 160.068 1.07936 -1.31468 0
M  V30 1698 O 161.253 1.0956 -1.60344 0
M  V30 1699 C 158.383 1.60196 -3.08147 0
M  V30 1700 C 157.337 1.11443 -4.13237 0
M  V30 1701 C 156.663 2.3422 -4.80672 0
M  V30 1702 C 157.963 0.195384 -5.21934 0
M  V30 1703 H 159.657 -0.166329 -2.98938 0
M  V30 1704 H 157.203 -0.0814359 -1.4377 0
M  V30 1705 H 159.156 2.19332 -3.59822 0
M  V30 1706 H 157.88 2.26045 -2.35735 0
M  V30 1707 H 156.539 0.545727 -3.62515 0
M  V30 1708 H 156.187 2.98537 -4.04827 0
M  V30 1709 H 155.887 2.02269 -5.51689 0
M  V30 1710 H 157.411 2.94032 -5.35143 0
M  V30 1711 H 158.825 0.694375 -5.69079 0
M  V30 1712 H 157.222 -0.0335027 -6.00091 0
M  V30 1713 H 158.292 -0.760961 -4.78892 0
M  V30 1714 N 159.635 1.57281 -0.100228 0
M  V30 1715 C 160.881 1.94826 0.563101 0
M  V30 1716 C 161.214 0.982475 1.67514 0
M  V30 1717 O 160.489 0.0164069 1.94493 0
M  V30 1718 C 160.772 3.42453 1.11346 0
M  V30 1719 C 160.625 4.498 0.00612081 0
M  V30 1720 C 161.944 3.91506 2.01024 0
M  V30 1721 H 159.063 0.708428 0.203221 0
M  V30 1722 H 161.705 1.8922 -0.171979 0
M  V30 1723 H 159.855 3.47361 1.7399 0
M  V30 1724 H 161.527 4.57 -0.628357 0
M  V30 1725 H 159.77 4.28756 -0.659581 0
M  V30 1726 H 160.441 5.50306 0.432109 0
M  V30 1727 H 162.917 3.88784 1.48278 0
M  V30 1728 H 161.793 4.95358 2.36457 0
M  V30 1729 H 162.054 3.31099 2.92961 0
M  V30 1730 N 161.113 -0.173488 1.56642 0
M  V30 1731 C 162.529 -0.525174 1.50712 0
M  V30 1732 C 162.729 -1.8476 0.804107 0
M  V30 1733 O 161.785 -2.49869 0.363574 0
M  V30 1734 C 163.098 -0.559937 2.95441 0
M  V30 1735 C 164.646 -0.647288 3.06234 0
M  V30 1736 C 165.121 -0.712963 4.52417 0
M  V30 1737 N 166.612 -0.775911 4.56655 0
M  V30 1738 C 167.347 -0.847264 5.67106 0
M  V30 1739 N 166.843 -0.879585 6.87194 0
M  V30 1740 N 168.636 -0.886117 5.55071 0
M  V30 1741 H 160.787 0.693681 2.00753 0
M  V30 1742 H 163.05 0.249841 0.914485 0
M  V30 1743 H 162.756 0.343049 3.50023 0
M  V30 1744 H 162.63 -1.40718 3.49969 0
M  V30 1745 H 165.017 -1.5407 2.51687 0
M  V30 1746 H 165.098 0.226586 2.54794 0
M  V30 1747 H 164.742 0.176183 5.07594 0
M  V30 1748 H 164.672 -1.60295 5.0161 0
M  V30 1749 H 167.163 -0.759304 3.70193 0
M  V30 1750 H 167.476 -0.935144 7.67121 0
M  V30 1751 H 165.821 -0.847898 6.89808 0
M  V30 1752 H 169.012 -0.857853 4.60172 0
M  V30 1753 H 169.185 -0.938263 6.41171 0
M  V30 1754 N 162.591 -1.51276 -0.441967 0
M  V30 1755 C 163.837 -1.63958 -1.19355 0
M  V30 1756 C 164.17 -0.352543 -1.90973 0
M  V30 1757 O 163.445 0.647627 -1.83401 0
M  V30 1758 C 163.728 -2.83979 -2.21422 0
M  V30 1759 C 163.581 -4.22646 -1.53918 0
M  V30 1760 C 164.9 -2.99521 -3.22451 0
M  V30 1761 H 162.019 -0.596709 -0.432559 0
M  V30 1762 H 164.661 -1.83748 -0.483398 0
M  V30 1763 H 162.811 -2.67237 -2.81987 0
M  V30 1764 H 164.483 -4.51045 -0.967256 0
M  V30 1765 H 162.726 -4.25558 -0.841615 0
M  V30 1766 H 163.397 -5.02609 -2.28229 0
M  V30 1767 H 165.873 -3.14944 -2.71937 0
M  V30 1768 H 164.749 -3.85072 -3.91166 0
M  V30 1769 H 165.01 -2.11391 -3.88287 0
M  V30 1770 N 164.069 0.697108 -1.41344 0
M  V30 1771 C 165.309 1.46939 -1.42085 0
M  V30 1772 C 165.673 1.9198 -0.0280397 0
M  V30 1773 O 166.874 2.6865 0.0897504 0
M  V30 1774 C 165.145 2.64985 -2.39828 0
M  V30 1775 S 166.704 3.54147 -2.59085 0
M  V30 1776 H 163.522 0.502146 -0.503359 0
M  V30 1777 H 166.124 0.813546 -1.77769 0
M  V30 1778 H 164.828 2.30098 -3.39828 0
M  V30 1779 H 164.359 3.35464 -2.05493 0
M  V30 1780 H 166.374 4.60137 -1.85711 0
M  V30 1781 N 165.547 1.27147 0.931209 0
M  V30 1782 C 166.457 1.11372 2.06478 0
M  V30 1783 C 167.473 0.044645 1.73943 0
M  V30 1784 O 168.649 0.250417 1.99837 0
M  V30 1785 C 165.714 0.758838 3.38294 0
M  V30 1786 C 164.775 1.90841 3.84549 0
M  V30 1787 C 164.008 1.57036 5.10074 0
M  V30 1788 O 164.231 0.476645 5.68405 0
M  V30 1789 O 163.165 2.40839 5.51616 0
M  V30 1790 H 166.991 2.06493 2.22698 0
M  V30 1791 H 164.576 1.06301 1.04978 0
M  V30 1792 H 166.458 0.574098 4.17471 0
M  V30 1793 H 165.133 -0.162879 3.2329 0
M  V30 1794 H 164.04 2.14819 3.06274 0
M  V30 1795 H 165.373 2.81021 4.04089 0
M  V30 1796 N 167.025 -1.13721 1.09112 0
M  V30 1797 C 167.973 -2.21103 0.722219 0
M  V30 1798 C 168.967 -1.67147 -0.275374 0
M  V30 1799 O 170.173 -1.79477 -0.137176 0
M  V30 1800 H 166.548 -0.720445 0.215553 0
M  V30 1801 H 168.519 -2.49483 1.63709 0
M  V30 1802 C 167.268 -3.47352 0.15543 0
M  V30 1803 H 166.591 -3.89206 0.914246 0
M  V30 1804 H 168.031 -4.2395 -0.0647967 0
M  V30 1805 C 166.49 -3.1814 -1.10852 0
M  V30 1806 O 167.02 -3.36604 -2.19227 0
M  V30 1807 N 165.226 -2.72045 -1.02176 0
M  V30 1808 H 164.773 -2.57221 -0.139764 0
M  V30 1809 H 164.731 -2.52875 -1.8682 0
M  V30 1810 N 168.503 -0.877838 -1.30888 0
M  V30 1811 C 169.752 -0.488793 -1.95688 0
M  V30 1812 C 170.065 0.965485 -1.70111 0
M  V30 1813 O 171.271 1.46104 -2.28836 0
M  V30 1814 C 169.727 -0.823201 -3.50359 0
M  V30 1815 C 169.335 -2.29477 -3.84765 0
M  V30 1816 C 171.079 -0.503009 -4.21509 0
M  V30 1817 C 168.986 -2.57118 -5.32583 0
M  V30 1818 H 167.916 -0.179062 -0.732429 0
M  V30 1819 H 170.567 -1.07183 -1.48943 0
M  V30 1820 H 168.949 -0.169331 -3.95638 0
M  V30 1821 H 170.123 -2.99236 -3.5042 0
M  V30 1822 H 168.438 -2.58178 -3.267 0
M  V30 1823 H 171.035 -0.68665 -5.30273 0
M  V30 1824 H 171.378 0.557109 -4.12555 0
M  V30 1825 H 171.911 -1.11376 -3.8189 0
M  V30 1826 H 168.65 -3.61843 -5.4658 0
M  V30 1827 H 168.17 -1.91961 -5.68253 0
M  V30 1828 H 169.849 -2.42251 -5.99936 0
M  V30 1829 N 169.982 1.44106 -0.638065 0
M  V30 1830 C 171.393 1.85316 -0.226894 0
M  V30 1831 C 171.744 1.53399 1.22324 0
M  V30 1832 O 170.869 0.975463 1.93167 0
M  V30 1833 C 171.464 3.3637 -0.405013 0
M  V30 1834 C 170.023 3.76369 -0.0482902 0
M  V30 1835 C 169.17 2.67921 -0.715108 0
M  V30 1836 H 172.121 1.34474 -0.842764 0
M  V30 1837 H 172.142 3.7885 0.354 0
M  V30 1838 H 171.654 3.59569 -1.46053 0
M  V30 1839 H 169.755 3.58784 1.00522 0
M  V30 1840 H 169.868 4.76856 -0.463187 0
M  V30 1841 H 168.232 2.54259 -0.149753 0
M  V30 1842 H 169.015 2.93951 -1.77335 0
M  V30 1843 N 171.46 0.379036 1.52974 0
M  V30 1844 C 172.709 -0.207612 2.00629 0
M  V30 1845 C 173.022 -1.48758 1.27006 0
M  V30 1846 O 174.228 -2.15365 1.65318 0
M  V30 1847 C 172.684 -0.42053 3.57435 0
M  V30 1848 C 172.292 0.845587 4.39948 0
M  V30 1849 C 174.036 -0.964102 4.13407 0
M  V30 1850 C 171.943 0.601513 5.88333 0
M  V30 1851 H 170.873 -0.0813591 0.749598 0
M  V30 1852 H 173.524 0.499853 1.76561 0
M  V30 1853 H 171.906 -1.18959 3.7771 0
M  V30 1854 H 173.08 1.61848 4.31442 0
M  V30 1855 H 171.395 1.31336 3.95145 0
M  V30 1856 H 173.992 -1.16225 5.21916 0
M  V30 1857 H 174.335 -1.93019 3.68849 0
M  V30 1858 H 174.868 -0.25487 3.96983 0
M  V30 1859 H 171.607 1.53831 6.37194 0
M  V30 1860 H 171.127 -0.132628 5.99653 0
M  V30 1861 H 172.806 0.232134 6.46583 0
M  V30 1862 N 172.938 -1.57226 0.108567 0
M  V30 1863 C 174.184 -1.95121 -0.552761 0
M  V30 1864 C 174.517 -0.991345 -1.66991 0
M  V30 1865 O 173.792 -0.0267211 -1.94482 0
M  V30 1866 C 174.075 -3.43039 -1.09528 0
M  V30 1867 C 173.928 -4.49797 0.0177332 0
M  V30 1868 C 175.247 -3.92567 -1.98945 0
M  V30 1869 H 172.366 -0.709496 -0.199461 0
M  V30 1870 H 175.008 -1.89126 0.182011 0
M  V30 1871 H 173.158 -3.48279 -1.72146 0
M  V30 1872 H 174.83 -4.56661 0.652584 0
M  V30 1873 H 173.073 -4.284 0.682309 0
M  V30 1874 H 173.744 -5.50528 -0.402919 0
M  V30 1875 H 176.22 -3.89565 -1.46214 0
M  V30 1876 H 175.096 -4.96605 -2.33827 0
M  V30 1877 H 175.357 -3.32648 -2.91201 0
M  V30 1878 N 174.416 0.165178 -1.56732 0
M  V30 1879 C 175.346 1.20651 -1.99914 0
M  V30 1880 C 176.327 1.45827 -0.875705 0
M  V30 1881 O 177.512 1.57057 -1.14223 0
M  V30 1882 C 174.642 2.54401 -2.36427 0
M  V30 1883 C 173.596 2.43782 -3.51787 0
M  V30 1884 C 172.922 3.82078 -3.7406 0
M  V30 1885 C 174.222 1.93732 -4.85041 0
M  V30 1886 H 175.916 0.847534 -2.87154 0
M  V30 1887 H 173.462 0.40625 -1.38151 0
M  V30 1888 H 175.415 3.27458 -2.65234 0
M  V30 1889 H 174.139 2.92098 -1.46103 0
M  V30 1890 H 172.798 1.73178 -3.23117 0
M  V30 1891 H 172.446 4.17179 -2.81017 0
M  V30 1892 H 172.146 3.7584 -4.51684 0
M  V30 1893 H 173.67 4.56712 -4.05274 0
M  V30 1894 H 175.084 2.56569 -5.12684 0
M  V30 1895 H 173.481 1.98428 -5.66345 0
M  V30 1896 H 174.551 0.891962 -4.76626 0
M  V30 1897 N 175.894 1.51508 0.433938 0
M  V30 1898 C 177.134 1.66006 1.19253 0
M  V30 1899 C 177.498 0.369868 1.88404 0
M  V30 1900 O 178.699 0.39066 2.65946 0
M  V30 1901 C 176.97 2.83229 2.17981 0
M  V30 1902 S 178.529 3.18075 3.02281 0
M  V30 1903 H 175.347 0.584821 0.404358 0
M  V30 1904 H 177.949 1.89425 0.48357 0
M  V30 1905 H 176.653 3.75407 1.65824 0
M  V30 1906 H 176.184 2.6201 2.93453 0
M  V30 1907 H 178.199 2.64772 4.19655 0
M  V30 1908 N 177.372 -0.689602 1.41712 0
M  V30 1909 C 178.62 -1.4468 1.4111 0
M  V30 1910 C 178.941 -1.94986 0.0232196 0
M  V30 1911 O 178.211 -1.72097 -0.935913 0
M  V30 1912 H 176.791 -0.536847 0.519427 0
M  V30 1913 H 179.453 -0.815825 1.77004 0
M  V30 1914 H 178.549 -2.30706 2.10193 0
M  V30 1915 N 178.85 -1.27639 -0.924453 0
M  V30 1916 C 179.798 -1.10485 -2.04685 0
M  V30 1917 C 180.792 -0.0270421 -1.69378 0
M  V30 1918 O 181.998 -0.185008 -1.79047 0
M  V30 1919 H 178.373 -0.340546 -0.670472 0
M  V30 1920 H 180.344 -2.05566 -2.16298 0
M  V30 1921 C 179.093 -0.772229 -3.39016 0
M  V30 1922 H 178.416 -1.59351 -3.66671 0
M  V30 1923 H 179.856 -0.692097 -4.18313 0
M  V30 1924 C 178.315 0.523554 -3.32807 0
M  V30 1925 O 178.845 1.55702 -3.70297 0
M  V30 1926 N 177.051 0.520363 -2.85903 0
M  V30 1927 H 176.598 -0.32107 -2.55591 0
M  V30 1928 H 176.556 1.38742 -2.82131 0
M  V30 1929 N 180.328 1.1314 -1.09713 0
M  V30 1930 C 181.275 2.18642 -0.739196 0
M  V30 1931 C 182.245 1.63706 0.280978 0
M  V30 1932 O 183.43 1.90111 0.161946 0
M  V30 1933 C 180.57 3.44685 -0.169102 0
M  V30 1934 C 179.683 4.13711 -1.24367 0
M  V30 1935 C 178.818 5.27379 -0.636019 0
M  V30 1936 C 177.857 5.88259 -1.69169 0
M  V30 1937 N 176.994 6.93352 -1.10485 0
M  V30 1938 H 181.834 2.48607 -1.64312 0
M  V30 1939 H 179.371 1.22066 -0.820875 0
M  V30 1940 H 181.329 4.16815 0.179256 0
M  V30 1941 H 179.959 3.15161 0.698079 0
M  V30 1942 H 179.011 3.39835 -1.70927 0
M  V30 1943 H 180.323 4.55037 -2.04311 0
M  V30 1944 H 179.477 6.06238 -0.236677 0
M  V30 1945 H 178.216 4.8731 0.194928 0
M  V30 1946 H 177.221 5.08092 -2.10055 0
M  V30 1947 H 178.446 6.30399 -2.52536 0
M  V30 1948 H 176.392 6.55335 -0.295234 0
M  V30 1949 H 176.309 7.33236 -1.84121 0
M  V30 1950 H 177.577 7.76057 -0.73181 0
M  V30 1951 N 181.806 0.884767 1.30421 0
M  V30 1952 C 183.052 0.503851 1.96441 0
M  V30 1953 C 183.385 -0.944518 1.69684 0
M  V30 1954 O 182.66 -1.66737 1.00145 0
M  V30 1955 C 182.943 0.779085 3.51571 0
M  V30 1956 C 182.796 2.27807 3.87846 0
M  V30 1957 C 184.115 0.255452 4.39358 0
M  V30 1958 H 181.234 0.184533 0.713524 0
M  V30 1959 H 183.876 1.10872 1.54297 0
M  V30 1960 H 182.026 0.264274 3.876 0
M  V30 1961 H 183.698 2.86127 3.61841 0
M  V30 1962 H 181.941 2.74479 3.35922 0
M  V30 1963 H 182.612 2.42125 4.96064 0
M  V30 1964 H 185.088 0.696079 4.10236 0
M  V30 1965 H 183.964 0.477361 5.4682 0
M  V30 1966 H 184.225 -0.843293 4.33983 0
M  V30 1967 N 183.284 -1.43765 0.645699 0
M  V30 1968 C 184.561 -1.9541 0.0862963 0
M  V30 1969 C 184.941 -1.58725 -1.39175 0
M  V30 1970 O 184.289 -0.868581 -2.11348 0
M  V30 1971 C 184.499 -3.47488 0.324565 0
M  V30 1972 C 185.847 -4.24001 0.225497 0
M  V30 1973 O 186.871 -3.55274 0.256715 0
M  V30 1974 O 185.73 -5.46313 0.142801 0
M  V30 1975 H 182.824 -0.826882 -0.0139483 0
M  V30 1976 H 185.37 -1.53743 0.718415 0
M  V30 1977 H 184.142 -3.67289 1.3496 0
M  V30 1978 H 183.765 -3.96135 -0.340987 0
M  V30 1979 N 184.763 -0.387143 -1.52771 0
M  V30 1980 C 186.012 0.19697 -2.00736 0
M  V30 1981 C 186.325 1.48082 -1.27793 0
M  V30 1982 O 187.531 2.14485 -1.66458 0
M  V30 1983 C 185.987 0.401568 -3.57653 0
M  V30 1984 C 185.595 -0.868907 -4.39493 0
M  V30 1985 C 187.339 0.942164 -4.13912 0
M  V30 1986 C 185.246 -0.632705 -5.88006 0
M  V30 1987 H 184.176 0.0773827 -0.750019 0
M  V30 1988 H 186.827 -0.50921 -1.76293 0
M  V30 1989 H 185.209 1.16954 -3.78335 0
M  V30 1990 H 186.383 -1.64133 -4.30577 0
M  V30 1991 H 184.698 -1.33429 -3.94443 0
M  V30 1992 H 187.295 1.13455 -5.22525 0
M  V30 1993 H 187.638 1.9106 -3.69867 0
M  V30 1994 H 188.171 0.233814 -3.97112 0
M  V30 1995 H 184.91 -1.57208 -6.36369 0
M  V30 1996 H 184.43 0.100825 -5.99715 0
M  V30 1997 H 186.109 -0.26642 -6.46451 0
M  V30 1998 N 186.241 1.57166 -0.116904 0
M  V30 1999 C 187.188 2.15202 0.83408 0
M  V30 2000 C 188.158 1.07644 1.26499 0
M  V30 2001 O 189.343 1.35541 1.34288 0
M  V30 2002 C 186.483 2.75405 2.07957 0
M  V30 2003 C 185.596 3.97264 1.69721 0
M  V30 2004 C 184.731 4.45561 2.89221 0
M  V30 2005 C 183.77 5.59956 2.47215 0
M  V30 2006 N 182.907 6.03006 3.59622 0
M  V30 2007 H 187.747 2.96141 0.332335 0
M  V30 2008 H 185.284 1.46309 0.152349 0
M  V30 2009 H 187.242 3.08439 2.80929 0
M  V30 2010 H 185.872 1.97159 2.55594 0
M  V30 2011 H 184.924 3.70404 0.866316 0
M  V30 2012 H 186.236 4.80226 1.34849 0
M  V30 2013 H 185.39 4.80493 3.7042 0
M  V30 2014 H 184.129 3.61544 3.27318 0
M  V30 2015 H 183.134 5.2463 1.64448 0
M  V30 2016 H 184.359 6.45738 2.10238 0
M  V30 2017 H 182.305 5.21931 3.97396 0
M  V30 2018 H 182.222 6.80819 3.28667 0
M  V30 2019 H 183.49 6.42576 4.41267 0
M  V30 2020 N 187.719 -0.156864 1.56817 0
M  V30 2021 C 188.996 -0.899244 1.73704 0
M  V30 2022 C 189.376 -1.99771 0.682254 0
M  V30 2023 O 188.724 -2.26515 -0.300522 0
M  V30 2024 C 188.934 -1.45075 3.17418 0
M  V30 2025 C 190.282 -1.91802 3.7881 0
M  V30 2026 O 191.306 -1.54838 3.20786 0
M  V30 2027 O 190.165 -2.5994 4.80722 0
M  V30 2028 H 187.259 -0.424267 0.709878 0
M  V30 2029 H 189.805 -0.143561 1.69092 0
M  V30 2030 H 188.577 -0.660846 3.85679 0
M  V30 2031 H 188.2 -2.27021 3.26416 0
M  V30 2032 N 189.197 -1.51736 -0.425897 0
M  V30 2033 C 190.613 -1.40166 -0.76326 0
M  V30 2034 C 190.813 -0.492962 -1.95377 0
M  V30 2035 O 189.869 0.0475815 -2.52455 0
M  V30 2036 C 191.182 -2.82403 -1.03291 0
M  V30 2037 C 192.73 -2.91632 -1.13665 0
M  V30 2038 C 193.205 -4.34801 -1.43916 0
M  V30 2039 N 194.696 -4.3796 -1.50816 0
M  V30 2040 C 195.431 -5.4578 -1.75817 0
M  V30 2041 N 194.927 -6.63744 -1.98534 0
M  V30 2042 N 196.72 -5.33274 -1.77694 0
M  V30 2043 H 188.871 -2.09361 0.358 0
M  V30 2044 H 191.134 -0.942941 0.0978094 0
M  V30 2045 H 190.84 -3.50943 -0.230696 0
M  V30 2046 H 190.714 -3.22428 -1.95754 0
M  V30 2047 H 193.101 -2.23284 -1.92947 0
M  V30 2048 H 193.182 -2.55088 -0.190756 0
M  V30 2049 H 192.826 -5.03703 -0.65157 0
M  V30 2050 H 192.756 -4.68868 -2.39729 0
M  V30 2051 H 195.247 -3.52919 -1.35118 0
M  V30 2052 H 195.56 -7.41704 -2.17013 0
M  V30 2053 H 193.905 -6.66839 -1.95832 0
M  V30 2054 H 197.096 -4.40098 -1.59473 0
M  V30 2055 H 197.269 -6.1738 -1.9684 0
M  V30 2056 N 190.675 0.682077 -1.42076 0
M  V30 2057 C 191.622 1.79578 -1.44984 0
M  V30 2058 C 192.592 1.6332 -0.302614 0
M  V30 2059 O 193.777 1.83978 -0.505633 0
M  V30 2060 C 190.917 3.1756 -1.35091 0
M  V30 2061 C 190.03 3.45156 -2.59791 0
M  V30 2062 C 189.165 4.72826 -2.42093 0
M  V30 2063 C 188.204 4.93433 -3.62202 0
M  V30 2064 N 187.341 6.12338 -3.43491 0
M  V30 2065 H 192.181 1.76427 -2.40161 0
M  V30 2066 H 189.718 0.861376 -1.19242 0
M  V30 2067 H 191.676 3.97287 -1.27354 0
M  V30 2068 H 190.306 3.19854 -0.435133 0
M  V30 2069 H 189.358 2.59736 -2.77923 0
M  V30 2070 H 190.67 3.5628 -3.49094 0
M  V30 2071 H 189.824 5.60631 -2.319 0
M  V30 2072 H 188.563 4.63973 -1.50268 0
M  V30 2073 H 187.568 4.04073 -3.72834 0
M  V30 2074 H 188.793 5.04136 -4.54998 0
M  V30 2075 H 186.739 6.04672 -2.54377 0
M  V30 2076 H 186.656 6.2429 -4.26377 0
M  V30 2077 H 187.924 7.02841 -3.37097 0
M  V30 2078 N 192.153 1.28127 0.917671 0
M  V30 2079 C 193.399 1.15223 1.66888 0
M  V30 2080 C 193.732 -0.299293 1.9188 0
M  V30 2081 O 193.007 -1.21805 1.51637 0
M  V30 2082 C 193.29 1.94706 3.02922 0
M  V30 2083 C 193.143 3.47898 2.85109 0
M  V30 2084 C 194.462 1.75939 4.03402 0
M  V30 2085 H 191.581 0.419946 0.605652 0
M  V30 2086 H 194.223 1.57398 1.06423 0
M  V30 2087 H 192.373 1.58864 3.54534 0
M  V30 2088 H 194.045 3.93624 2.40537 0
M  V30 2089 H 192.288 3.7373 2.20246 0
M  V30 2090 H 192.959 3.98765 3.81694 0
M  V30 2091 H 195.435 2.07209 3.60837 0
M  V30 2092 H 194.311 2.33931 4.96556 0
M  V30 2093 H 194.572 0.709877 4.36364 0
M  V30 2094 N 193.631 -1.12557 1.10312 0
M  V30 2095 C 194.578 -2.18247 0.750781 0
M  V30 2096 C 195.548 -1.63853 -0.272293 0
M  V30 2097 O 196.733 -1.90195 -0.151862 0
M  V30 2098 C 193.873 -3.44591 0.187379 0
M  V30 2099 C 192.986 -4.13046 1.2656 0
M  V30 2100 C 192.121 -5.27034 0.663978 0
M  V30 2101 C 191.16 -5.87353 1.72287 0
M  V30 2102 N 190.297 -6.92757 1.1416 0
M  V30 2103 H 195.137 -2.47732 1.65628 0
M  V30 2104 H 192.674 -1.21629 0.827337 0
M  V30 2105 H 194.632 -4.16904 -0.157148 0
M  V30 2106 H 193.262 -3.15527 -0.681355 0
M  V30 2107 H 192.314 -3.38924 1.72727 0
M  V30 2108 H 193.626 -4.53947 2.06721 0
M  V30 2109 H 192.78 -6.06104 0.268824 0
M  V30 2110 H 191.519 -4.87407 -0.169082 0
M  V30 2111 H 190.524 -5.06971 2.12746 0
M  V30 2112 H 191.749 -6.29051 2.55875 0
M  V30 2113 H 189.695 -6.5517 0.329984 0
M  V30 2114 H 189.612 -7.3225 1.88007 0
M  V30 2115 H 190.88 -7.75658 0.772956 0
M  V30 2116 N 195.109 -0.891671 -1.2995 0
M  V30 2117 C 196.072 -0.36828 -2.26222 0
M  V30 2118 C 197.072 0.493014 -1.53056 0
M  V30 2119 O 198.262 0.299213 -1.71611 0
M  V30 2120 C 195.394 0.47442 -3.37583 0
M  V30 2121 H 196.587 -1.21844 -2.74033 0
M  V30 2122 H 194.14 -0.669107 -1.41254 0
M  V30 2123 H 194.875 1.34489 -2.95099 0
M  V30 2124 H 194.66 -0.142615 -3.91841 0
M  V30 2125 H 196.15 0.83218 -4.09224 0
M  V30 2126 N 196.587 1.43421 -0.653314 0
M  V30 2127 C 197.534 2.30768 0.0382271 0
M  V30 2128 C 198.504 1.44755 0.814576 0
M  V30 2129 O 199.689 1.73624 0.791162 0
M  V30 2130 C 196.829 3.30336 0.998599 0
M  V30 2131 C 195.942 4.31448 0.218342 0
M  V30 2132 C 195.077 5.18098 1.17252 0
M  V30 2133 C 194.116 6.10902 0.382702 0
M  V30 2134 N 193.253 6.90176 1.28848 0
M  V30 2135 H 198.093 2.89357 -0.712511 0
M  V30 2136 H 195.63 1.42548 -0.363128 0
M  V30 2137 H 197.588 3.86572 1.56901 0
M  V30 2138 H 196.218 2.73397 1.71621 0
M  V30 2139 H 195.27 3.77506 -0.46836 0
M  V30 2140 H 196.582 4.97227 -0.395812 0
M  V30 2141 H 195.736 5.7896 1.81356 0
M  V30 2142 H 194.475 4.52444 1.82058 0
M  V30 2143 H 193.48 5.49128 -0.27169 0
M  V30 2144 H 194.705 6.78598 -0.260957 0
M  V30 2145 H 192.651 6.27171 1.92334 0
M  V30 2146 H 192.568 7.52478 0.728887 0
M  V30 2147 H 193.836 7.55543 1.91766 0
M  V30 2148 N 198.065 0.39524 1.52563 0
M  V30 2149 C 199.29 -0.187456 2.06551 0
M  V30 2150 C 199.715 -1.39249 1.26457 0
M  V30 2151 O 199.073 -1.78947 0.291151 0
M  V30 2152 C 199.121 -0.529985 3.56684 0
M  V30 2153 O 198.225 -1.62307 3.79118 0
M  V30 2154 H 197.566 -0.0202537 0.663691 0
M  V30 2155 H 200.096 0.564426 1.96661 0
M  V30 2156 H 200.106 -0.792598 4.00227 0
M  V30 2157 H 198.781 0.350987 4.14416 0
M  V30 2158 H 197.358 -1.3537 3.47461 0
M  V30 2159 N 199.544 -1.57102 0.125237 0
M  V30 2160 C 200.793 -1.94582 -0.531095 0
M  V30 2161 C 201.106 -1.01126 -1.6743 0
M  V30 2162 O 202.312 -1.28097 -2.39381 0
M  V30 2163 C 200.768 -3.45839 -0.996164 0
M  V30 2164 C 200.376 -4.47842 0.118926 0
M  V30 2165 C 202.12 -3.92227 -1.62352 0
M  V30 2166 C 200.027 -5.90284 -0.363192 0
M  V30 2167 H 198.957 -0.726391 -0.20217 0
M  V30 2168 H 201.608 -1.82339 0.206092 0
M  V30 2169 H 199.99 -3.53338 -1.78796 0
M  V30 2170 H 201.164 -4.52018 0.895358 0
M  V30 2171 H 199.479 -4.11243 0.653324 0
M  V30 2172 H 202.076 -4.96069 -1.99548 0
M  V30 2173 H 202.419 -3.32552 -2.50429 0
M  V30 2174 H 202.952 -3.87554 -0.897019 0
M  V30 2175 H 199.691 -6.53728 0.481679 0
M  V30 2176 H 199.211 -5.89515 -1.10597 0
M  V30 2177 H 200.89 -6.41752 -0.822377 0
M  V30 2178 N 201.022 0.148545 -1.56898 0
M  V30 2179 C 202.268 0.862694 -1.83536 0
M  V30 2180 C 202.601 1.80889 -0.706604 0
M  V30 2181 O 201.876 1.92328 0.289885 0
M  V30 2182 C 202.159 1.63853 -3.20662 0
M  V30 2183 C 202.012 0.713925 -4.44098 0
M  V30 2184 C 203.331 2.60133 -3.54991 0
M  V30 2185 H 200.45 0.312179 -0.667618 0
M  V30 2186 H 203.092 0.127953 -1.89569 0
M  V30 2187 H 201.242 2.26489 -3.1565 0
M  V30 2188 H 202.914 0.098686 -4.61194 0
M  V30 2189 H 201.157 0.0234019 -4.33794 0
M  V30 2190 H 201.828 1.29278 -5.36648 0
M  V30 2191 H 204.304 2.07616 -3.60603 0
M  V30 2192 H 203.18 3.11468 -4.51972 0
M  V30 2193 H 203.441 3.41417 -2.80868 0
M  V30 2194 N 202.5 1.5196 0.417844 0
M  V30 2195 C 203.747 1.65591 1.16559 0
M  V30 2196 C 204.075 0.381565 1.90721 0
M  V30 2197 O 203.33 -0.635156 1.85106 0
M  V30 2198 C 203.629 2.82269 2.19223 0
M  V30 2199 C 203.295 4.20819 1.61933 0
M  V30 2200 C 201.957 4.58506 1.46033 0
M  V30 2201 C 204.309 5.07196 1.20008 0
M  V30 2202 C 201.637 5.80257 0.867113 0
M  V30 2203 C 203.989 6.29544 0.621086 0
M  V30 2204 C 202.653 6.65987 0.449144 0
M  V30 2205 H 201.923 0.605939 0.42652 0
M  V30 2206 H 204.57 1.86041 0.45397 0
M  V30 2207 H 202.875 2.56118 2.96498 0
M  V30 2208 H 204.572 2.90012 2.76936 0
M  V30 2209 H 201.162 3.91116 1.7529 0
M  V30 2210 H 205.346 4.7867 1.31105 0
M  V30 2211 H 200.602 6.07124 0.721833 0
M  V30 2212 H 204.776 6.95805 0.287798 0
M  V30 2213 H 202.403 7.60199 -0.012632 0
M  V30 2214 N 203.978 -0.674533 1.42435 0
M  V30 2215 C 204.928 -1.7807 1.4239 0
M  V30 2216 C 205.912 -1.58169 0.295202 0
M  V30 2217 O 207.104 -1.68643 0.537449 0
M  V30 2218 C 204.233 -3.16532 1.32901 0
M  V30 2219 C 203.319 -3.42055 2.50717 0
M  V30 2220 N 203.71 -3.38162 3.76139 0
M  V30 2221 C 202.008 -3.72692 2.44983 0
M  V30 2222 C 202.709 -3.63177 4.54398 0
M  V30 2223 N 201.685 -3.83954 3.84812 0
M  V30 2224 H 205.487 -1.73454 2.37257 0
M  V30 2225 H 203.001 -0.875381 1.36788 0
M  V30 2226 H 204.998 -3.958 1.30951 0
M  V30 2227 H 203.658 -3.22345 0.390363 0
M  V30 2228 H 204.669 -3.18057 4.0873 0
M  V30 2229 H 201.346 -3.85749 1.59699 0
M  V30 2230 H 202.736 -3.66125 5.63384 0
M  V30 2231 N 205.456 -1.28612 -0.910864 0
M  V30 2232 C 206.872 -1.06381 -1.18976 0
M  V30 2233 C 207.072 0.191998 -2.00583 0
M  V30 2234 O 206.128 0.892869 -2.36187 0
M  V30 2235 C 207.441 -2.31295 -1.92154 0
M  V30 2236 C 208.989 -2.36503 -2.05025 0
M  V30 2237 C 209.464 -3.61191 -2.81612 0
M  V30 2238 N 210.955 -3.61847 -2.89172 0
M  V30 2239 C 211.69 -4.55004 -3.4894 0
M  V30 2240 N 211.186 -5.58482 -4.09963 0
M  V30 2241 N 212.979 -4.42594 -3.46506 0
M  V30 2242 H 205.13 -2.09221 -0.366094 0
M  V30 2243 H 207.393 -0.921003 -0.224629 0
M  V30 2244 H 207.099 -3.228 -1.39618 0
M  V30 2245 H 206.973 -2.37934 -2.9269 0
M  V30 2246 H 209.36 -1.45494 -2.5674 0
M  V30 2247 H 209.441 -2.33857 -1.03657 0
M  V30 2248 H 209.085 -4.52545 -2.30576 0
M  V30 2249 H 209.015 -3.61092 -3.83302 0
M  V30 2250 H 211.506 -2.87022 -2.45819 0
M  V30 2251 H 211.819 -6.25704 -4.53557 0
M  V30 2252 H 210.164 -5.62305 -4.08459 0
M  V30 2253 H 213.355 -3.60953 -2.98045 0
M  V30 2254 H 213.528 -5.15381 -3.92793 0
M  V30 2255 N 206.934 1.1197 -1.10907 0
M  V30 2256 C 207.881 2.17846 -0.762345 0
M  V30 2257 C 208.851 1.63995 0.263599 0
M  V30 2258 O 210.036 1.90273 0.141773 0
M  V30 2259 C 207.176 3.44487 -0.205651 0
M  V30 2260 C 206.289 4.12369 -1.28748 0
M  V30 2261 C 205.424 5.26674 -0.691919 0
M  V30 2262 C 204.463 5.86431 -1.75399 0
M  V30 2263 N 203.6 6.92142 -1.17833 0
M  V30 2264 H 208.44 2.46851 -1.6694 0
M  V30 2265 H 205.977 1.21188 -0.833776 0
M  V30 2266 H 207.935 4.16981 0.135037 0
M  V30 2267 H 206.565 3.15884 0.664613 0
M  V30 2268 H 205.617 3.38003 -1.74522 0
M  V30 2269 H 206.929 4.52844 -2.09125 0
M  V30 2270 H 206.083 6.05953 -0.300963 0
M  V30 2271 H 204.822 4.8749 0.143232 0
M  V30 2272 H 203.827 5.05835 -2.15432 0
M  V30 2273 H 205.052 6.27685 -2.59208 0
M  V30 2274 H 202.998 6.54985 -0.364725 0
M  V30 2275 H 202.915 7.31242 -1.91887 0
M  V30 2276 H 204.183 7.75237 -0.81408 0
M  V30 2277 N 208.412 0.89855 1.29475 0
M  V30 2278 C 209.359 0.373819 2.27753 0
M  V30 2279 C 210.329 -0.543444 1.56958 0
M  V30 2280 O 211.514 -0.468934 1.84948 0
M  V30 2281 C 208.654 -0.393648 3.42848 0
M  V30 2282 C 207.767 0.554379 4.28428 0
M  V30 2283 C 206.902 -0.230026 5.30702 0
M  V30 2284 C 205.941 0.712599 6.07938 0
M  V30 2285 N 205.078 -0.0373283 7.0209 0
M  V30 2286 H 209.918 1.21699 2.72017 0
M  V30 2287 H 207.455 0.611456 1.33789 0
M  V30 2288 H 209.413 -0.85466 4.08352 0
M  V30 2289 H 208.043 -1.20128 2.99615 0
M  V30 2290 H 207.095 1.13391 3.63107 0
M  V30 2291 H 208.407 1.27597 4.82204 0
M  V30 2292 H 207.561 -0.752288 6.02018 0
M  V30 2293 H 206.3 -0.984758 4.77654 0
M  V30 2294 H 205.305 1.24637 5.35486 0
M  V30 2295 H 206.53 1.46664 6.63074 0
M  V30 2296 H 204.476 -0.774348 6.51414 0
M  V30 2297 H 204.393 0.624374 7.53417 0
M  V30 2298 H 205.661 -0.539891 7.77628 0
M  V30 2299 N 209.89 -1.43072 0.660911 0
M  V30 2300 C 210.838 -2.32569 -0.0378199 0
M  V30 2301 C 211.832 -1.49046 -0.805092 0
M  V30 2302 O 213.038 -1.65206 -0.714624 0
M  V30 2303 H 209.413 -0.75136 -0.031019 0
M  V30 2304 H 211.384 -2.89216 0.734609 0
M  V30 2305 C 210.133 -3.33453 -0.985124 0
M  V30 2306 H 209.456 -3.97752 -0.404147 0
M  V30 2307 H 210.896 -3.98691 -1.44297 0
M  V30 2308 C 209.355 -2.64642 -2.08486 0
M  V30 2309 O 209.885 -2.46776 -3.16961 0
M  V30 2310 N 208.091 -2.23891 -1.8526 0
M  V30 2311 H 207.638 -2.38621 -0.970449 0
M  V30 2312 H 207.596 -1.78181 -2.59034 0
M  V30 2313 N 211.368 -0.403325 -1.52352 0
M  V30 2314 C 212.298 0.416205 -2.29761 0
M  V30 2315 C 213.279 1.05123 -1.33728 0
M  V30 2316 O 214.464 1.06134 -1.62632 0
M  V30 2317 C 211.594 1.53624 -3.11475 0
M  V30 2318 C 210.548 1.02653 -4.15507 0
M  V30 2319 C 209.874 2.23971 -4.85532 0
M  V30 2320 C 211.174 0.08463 -5.22231 0
M  V30 2321 H 212.868 -0.229701 -2.98518 0
M  V30 2322 H 210.414 -0.111913 -1.43564 0
M  V30 2323 H 212.367 2.1165 -3.64393 0
M  V30 2324 H 211.091 2.20994 -2.40477 0
M  V30 2325 H 209.75 0.46871 -3.63591 0
M  V30 2326 H 209.398 2.89883 -4.11068 0
M  V30 2327 H 209.098 1.90521 -5.55856 0
M  V30 2328 H 210.622 2.82614 -5.41259 0
M  V30 2329 H 212.036 0.573509 -5.70424 0
M  V30 2330 H 210.433 -0.160783 -5.99885 0
M  V30 2331 H 211.503 -0.86237 -4.7717 0
M  V30 2332 N 212.846 1.57033 -0.133567 0
M  V30 2333 C 213.778 2.13176 0.841944 0
M  V30 2334 C 214.791 1.07794 1.22001 0
M  V30 2335 O 215.98 1.35117 1.16643 0
M  V30 2336 C 213.08 2.62847 2.13926 0
M  V30 2337 C 212.253 3.92486 1.93064 0
M  V30 2338 C 211.312 4.27605 3.0666 0
M  V30 2339 O 210.338 4.96168 2.78937 0
M  V30 2340 N 211.54 3.861 4.33483 0
M  V30 2341 H 214.305 2.97503 0.362192 0
M  V30 2342 H 211.866 1.61821 0.05042 0
M  V30 2343 H 213.858 2.83363 2.88942 0
M  V30 2344 H 212.428 1.83319 2.53205 0
M  V30 2345 H 211.648 3.80732 1.02159 0
M  V30 2346 H 212.936 4.77225 1.76447 0
M  V30 2347 H 212.334 3.30828 4.58878 0
M  V30 2348 H 210.891 4.11694 5.05323 0
M  V30 2349 N 214.325 -0.140222 1.56975 0
M  V30 2350 C 215.555 -0.865181 1.87612 0
M  V30 2351 C 215.963 -1.74942 0.72055 0
M  V30 2352 O 215.306 -1.80917 -0.318561 0
M  V30 2353 C 215.368 -1.76782 3.13031 0
M  V30 2354 C 215.032 -1.06005 4.44536 0
M  V30 2355 C 216.029 -0.410768 5.18275 0
M  V30 2356 C 213.714 -1.04754 4.91255 0
M  V30 2357 C 215.708 0.241572 6.36942 0
M  V30 2358 C 213.395 -0.391394 6.09845 0
M  V30 2359 C 214.393 0.252029 6.82535 0
M  V30 2360 O 214.081 0.897757 7.98871 0
M  V30 2361 H 213.813 -0.255188 0.625983 0
M  V30 2362 H 216.367 -0.135653 2.04952 0
M  V30 2363 H 214.597 -2.53846 2.91718 0
M  V30 2364 H 216.286 -2.36533 3.29859 0
M  V30 2365 H 217.052 -0.412195 4.83245 0
M  V30 2366 H 212.931 -1.53777 4.34596 0
M  V30 2367 H 216.475 0.744375 6.93617 0
M  V30 2368 H 212.372 -0.387656 6.44335 0
M  V30 2369 H 213.14 0.800102 8.1458 0
M  V30 2370 N 215.803 -1.52179 -0.40978 0
M  V30 2371 C 217.033 -1.69807 -1.17682 0
M  V30 2372 C 217.441 -0.406908 -1.84773 0
M  V30 2373 O 216.784 0.626863 -1.72673 0
M  V30 2374 C 216.846 -2.77712 -2.2829 0
M  V30 2375 C 216.51 -4.19481 -1.81341 0
M  V30 2376 C 217.507 -5.03345 -1.30154 0
M  V30 2377 C 215.192 -4.65713 -1.88194 0
M  V30 2378 C 217.186 -6.31511 -0.864416 0
M  V30 2379 C 214.873 -5.93869 -1.44093 0
M  V30 2380 C 215.871 -6.76597 -0.933023 0
M  V30 2381 O 215.559 -8.02354 -0.49838 0
M  V30 2382 H 215.291 -0.572372 -0.359675 0
M  V30 2383 H 217.845 -1.99511 -0.488311 0
M  V30 2384 H 216.075 -2.43383 -3.00502 0
M  V30 2385 H 217.764 -2.83946 -2.90051 0
M  V30 2386 H 218.53 -4.68819 -1.24232 0
M  V30 2387 H 214.409 -4.01424 -2.26671 0
M  V30 2388 H 217.953 -6.96033 -0.467286 0
M  V30 2389 H 213.85 -6.27903 -1.49694 0
M  V30 2390 H 214.618 -8.16135 -0.621747 0
M  V30 2391 N 217.281 0.66697 -1.42791 0
M  V30 2392 C 218.558 1.4234 -1.34159 0
M  V30 2393 C 218.938 2.11093 0.0172729 0
M  V30 2394 O 218.286 2.03808 1.03318 0
M  V30 2395 C 218.496 2.41942 -2.51526 0
M  V30 2396 C 219.844 3.06353 -2.93995 0
M  V30 2397 O 220.868 2.52269 -2.51473 0
M  V30 2398 O 219.727 4.04376 -3.67617 0
M  V30 2399 H 216.821 0.635277 -0.529483 0
M  V30 2400 H 219.367 0.695034 -1.54814 0
M  V30 2401 H 218.139 1.89991 -3.42081 0
M  V30 2402 H 217.762 3.22249 -2.32898 0
M  V30 2403 N 218.759 1.29093 0.90403 0
M  V30 2404 C 220.008 1.16187 1.64874 0
M  V30 2405 C 220.321 -0.286742 1.93487 0
M  V30 2406 O 221.527 -0.537062 2.66135 0
M  V30 2407 C 219.983 2.03177 2.97064 0
M  V30 2408 C 219.591 3.52836 2.76062 0
M  V30 2409 C 221.335 1.98984 3.74974 0
M  V30 2410 C 219.242 4.31945 4.03952 0
M  V30 2411 H 218.172 0.431246 0.618501 0
M  V30 2412 H 220.823 1.53699 1.00243 0
M  V30 2413 H 219.205 1.5853 3.62883 0
M  V30 2414 H 220.379 4.05507 2.18863 0
M  V30 2415 H 218.694 3.58656 2.11553 0
M  V30 2416 H 221.291 2.55351 4.69787 0
M  V30 2417 H 221.634 0.968815 4.0487 0
M  V30 2418 H 222.167 2.41652 3.15989 0
M  V30 2419 H 218.906 5.34667 3.79225 0
M  V30 2420 H 218.426 3.84045 4.60727 0
M  V30 2421 H 220.105 4.42379 4.72133 0
M  V30 2422 N 220.237 -1.11381 1.11499 0
M  V30 2423 C 221.462 -1.87475 0.887019 0
M  V30 2424 C 221.887 -1.79639 -0.557796 0
M  V30 2425 O 221.245 -1.15924 -1.39396 0
M  V30 2426 C 221.293 -3.34213 1.35403 0
M  V30 2427 O 220.397 -4.0903 0.526146 0
M  V30 2428 H 219.738 -0.582099 0.319463 0
M  V30 2429 H 222.268 -1.40785 1.48461 0
M  V30 2430 H 222.278 -3.8506 1.34881 0
M  V30 2431 H 220.953 -3.39232 2.40612 0
M  V30 2432 H 219.53 -3.68082 0.597522 0
M  V30 2433 N 221.715 -0.905404 -1.28997 0
M  V30 2434 C 222.678 -0.392253 -2.25819 0
M  V30 2435 C 223.678 0.476753 -1.5357 0
M  V30 2436 O 224.868 0.280994 -1.71919 0
M  V30 2437 C 222 0.438588 -3.38067 0
M  V30 2438 H 223.193 -1.24743 -2.72725 0
M  V30 2439 H 220.746 -0.684051 -1.40536 0
M  V30 2440 H 221.481 1.31352 -2.96508 0
M  V30 2441 H 221.266 -0.184167 -3.91667 0
M  V30 2442 H 222.756 0.78873 -4.10084 0
M  V30 2443 N 223.193 1.4272 -0.668489 0
M  V30 2444 C 224.14 2.30796 0.0137489 0
M  V30 2445 C 225.11 1.4561 0.799177 0
M  V30 2446 O 226.295 1.74453 0.772702 0
M  V30 2447 C 223.435 3.31377 0.963507 0
M  V30 2448 C 222.548 4.31655 0.172569 0
M  V30 2449 C 221.683 5.19312 1.1175 0
M  V30 2450 C 220.722 6.11274 0.317886 0
M  V30 2451 N 219.859 6.91504 1.2152 0
M  V30 2452 H 224.699 2.88585 -0.743161 0
M  V30 2453 H 222.236 1.42154 -0.378226 0
M  V30 2454 H 224.194 3.88214 1.52792 0
M  V30 2455 H 222.824 2.75202 1.68712 0
M  V30 2456 H 221.876 3.76988 -0.508374 0
M  V30 2457 H 223.188 4.96779 -0.448527 0
M  V30 2458 H 222.342 5.80851 1.75206 0
M  V30 2459 H 221.081 4.5435 1.77249 0
M  V30 2460 H 220.086 5.48809 -0.329918 0
M  V30 2461 H 221.311 6.78283 -0.332917 0
M  V30 2462 H 219.257 6.29176 1.85671 0
M  V30 2463 H 219.174 7.53209 0.649036 0
M  V30 2464 H 220.442 7.57535 1.83742 0
M  V30 2465 N 224.671 0.411399 1.52136 0
M  V30 2466 C 225.896 -0.165538 2.06738 0
M  V30 2467 C 226.321 -1.379 1.27926 0
M  V30 2468 O 225.679 -1.78628 0.310114 0
M  V30 2469 C 225.727 -0.492124 3.57226 0
M  V30 2470 O 224.831 -1.58276 3.80818 0
M  V30 2471 H 224.172 -0.0132132 0.663869 0
M  V30 2472 H 226.702 0.585253 1.96051 0
M  V30 2473 H 226.712 -0.750104 4.01045 0
M  V30 2474 H 225.387 0.394922 4.14021 0
M  V30 2475 H 223.964 -1.31677 3.48877 0
M  V30 2476 N 226.149 -1.5696 0.141893 0
M  V30 2477 C 227.097 -2.17784 -0.816874 0
M  V30 2478 C 228.091 -1.1334 -1.25899 0
M  V30 2479 O 229.297 -1.316 -1.22806 0
M  V30 2480 H 225.672 -0.697278 -0.281615 0
M  V30 2481 H 227.643 -2.97087 -0.279621 0
M  V30 2482 C 226.392 -2.80983 -2.04802 0
M  V30 2483 H 225.715 -3.61062 -1.7168 0
M  V30 2484 H 227.155 -3.2705 -2.69841 0
M  V30 2485 C 225.614 -1.79228 -2.8527 0
M  V30 2486 O 226.144 -1.25962 -3.8144 0
M  V30 2487 N 224.35 -1.48647 -2.49704 0
M  V30 2488 H 223.897 -1.92155 -1.71564 0
M  V30 2489 H 223.855 -0.808115 -3.03837 0
M  V30 2490 N 227.627 0.131896 -1.57047 0
M  V30 2491 C 228.857 0.855219 -1.88068 0
M  V30 2492 C 229.265 1.74557 -0.729817 0
M  V30 2493 O 228.608 1.81083 0.308962 0
M  V30 2494 C 228.67 1.75119 -3.13964 0
M  V30 2495 C 228.334 1.03646 -4.45091 0
M  V30 2496 C 229.331 0.383276 -5.18485 0
M  V30 2497 C 227.016 1.02148 -4.91804 0
M  V30 2498 C 229.01 -0.275347 -6.36805 0
M  V30 2499 C 226.697 0.359047 -6.10044 0
M  V30 2500 C 227.695 -0.288222 -6.82392 0
M  V30 2501 O 227.383 -0.94011 -7.98384 0
M  V30 2502 H 227.115 0.251864 -0.627328 0
M  V30 2503 H 229.669 0.124782 -2.05021 0
M  V30 2504 H 227.899 2.52295 -2.9306 0
M  V30 2505 H 229.588 2.3478 -3.31109 0
M  V30 2506 H 230.354 0.386562 -4.83457 0
M  V30 2507 H 226.233 1.5147 -4.35405 0
M  V30 2508 H 229.777 -0.781148 -6.93213 0
M  V30 2509 H 225.674 0.35348 -6.44531 0
M  V30 2510 H 226.442 -0.84329 -8.14144 0
M  V30 2511 N 229.106 1.52395 0.401703 0
M  V30 2512 C 230.054 1.7689 1.51039 0
M  V30 2513 C 231.048 0.636298 1.56996 0
M  V30 2514 O 232.254 0.818507 1.60314 0
M  V30 2515 H 228.629 0.559502 0.502456 0
M  V30 2516 H 230.6 2.69757 1.27568 0
M  V30 2517 C 229.349 1.94331 2.88324 0
M  V30 2518 H 228.672 2.80905 2.84486 0
M  V30 2519 H 230.112 2.15466 3.65172 0
M  V30 2520 C 228.571 0.712396 3.29282 0
M  V30 2521 O 229.101 -0.116218 4.01532 0
M  V30 2522 N 227.307 0.546154 2.85422 0
M  V30 2523 H 226.854 1.22156 2.26794 0
M  V30 2524 H 226.812 -0.276113 3.13185 0
M  V30 2525 N 230.584 -0.659388 1.43143 0
M  V30 2526 C 231.831 -1.41935 1.44433 0
M  V30 2527 C 232.159 -1.94387 0.0663522 0
M  V30 2528 O 231.414 -1.72314 -0.927706 0
M  V30 2529 C 231.713 -2.62206 2.42864 0
M  V30 2530 C 231.379 -2.28208 3.88886 0
M  V30 2531 C 230.041 -2.18647 4.28657 0
M  V30 2532 C 232.393 -2.00887 4.8093 0
M  V30 2533 C 229.721 -1.79914 5.58433 0
M  V30 2534 C 232.073 -1.63653 6.11065 0
M  V30 2535 C 230.737 -1.52614 6.49819 0
M  V30 2536 H 230.007 -0.519376 0.528517 0
M  V30 2537 H 232.654 -0.750453 1.76183 0
M  V30 2538 H 230.959 -3.34199 2.04495 0
M  V30 2539 H 232.656 -3.2041 2.41119 0
M  V30 2540 H 229.246 -2.36557 3.57406 0
M  V30 2541 H 233.43 -2.07198 4.5098 0
M  V30 2542 H 228.686 -1.69948 5.87305 0
M  V30 2543 H 232.86 -1.41543 6.81864 0
M  V30 2544 H 230.487 -1.22371 7.50286 0
M  V30 2545 N 232.062 -1.29571 -0.897171 0
M  V30 2546 C 232.972 -1.16808 -2.03453 0
M  V30 2547 C 233.988 -0.0907471 -1.73763 0
M  V30 2548 O 235.164 -0.303312 -1.99103 0
M  V30 2549 C 232.229 -0.848264 -3.36163 0
M  V30 2550 C 231.29 -2.0097 -3.79354 0
M  V30 2551 C 230.523 -1.70505 -5.05731 0
M  V30 2552 O 230.746 -0.62718 -5.66941 0
M  V30 2553 O 229.68 -2.5538 -5.45036 0
M  V30 2554 H 233.506 -2.12325 -2.17144 0
M  V30 2555 H 231.091 -1.09047 -1.02123 0
M  V30 2556 H 232.973 -0.684581 -4.15802 0
M  V30 2557 H 231.648 0.0771071 -3.23608 0
M  V30 2558 H 230.555 -2.22863 -3.00471 0
M  V30 2559 H 231.888 -2.91636 -3.96496 0
M  V30 2560 N 233.54 1.10788 -1.12088 0
M  V30 2561 C 234.487 2.17025 -0.785407 0
M  V30 2562 C 235.457 1.64265 0.246191 0
M  V30 2563 O 236.642 1.90412 0.121584 0
M  V30 2564 C 233.782 3.44249 -0.242177 0
M  V30 2565 C 232.895 4.1098 -1.33115 0
M  V30 2566 C 232.03 5.25911 -0.747741 0
M  V30 2567 C 231.069 5.84538 -1.81609 0
M  V30 2568 N 230.206 6.90853 -1.25167 0
M  V30 2569 H 235.046 2.45066 -1.69548 0
M  V30 2570 H 232.583 1.20297 -0.846582 0
M  V30 2571 H 234.541 4.17101 0.0908026 0
M  V30 2572 H 233.171 3.16571 0.631072 0
M  V30 2573 H 232.223 3.36133 -1.78097 0
M  V30 2574 H 233.535 4.50601 -2.13917 0
M  V30 2575 H 232.689 6.056 -0.365216 0
M  V30 2576 H 231.428 4.87614 0.0915188 0
M  V30 2577 H 230.433 5.03522 -2.20785 0
M  V30 2578 H 231.658 6.249 -2.6585 0
M  V30 2579 H 229.604 6.54562 -0.434174 0
M  V30 2580 H 229.521 7.29166 -1.99633 0
M  V30 2581 H 230.789 7.7433 -0.896259 0
M  V30 2582 N 235.018 0.912232 1.28515 0
M  V30 2583 C 236.429 0.591352 1.77087 0
M  V30 2584 C 236.78 -0.8933 1.74684 0
M  V30 2585 O 235.905 -1.69876 1.34056 0
M  V30 2586 C 236.5 1.06668 3.2157 0
M  V30 2587 C 235.059 0.79675 3.67871 0
M  V30 2588 C 234.206 1.23427 2.48316 0
M  V30 2589 H 237.157 1.09365 1.15 0
M  V30 2590 H 237.178 0.407455 3.78312 0
M  V30 2591 H 236.69 2.14726 3.23287 0
M  V30 2592 H 234.791 -0.270679 3.71616 0
M  V30 2593 H 234.904 1.40343 4.58084 0
M  V30 2594 H 233.268 0.653036 2.46186 0
M  V30 2595 H 234.051 2.32316 2.52753 0
M  V30 2596 N 236.496 -1.42363 0.676048 0
M  V30 2597 C 237.743 -2.01522 0.19883 0
M  V30 2598 C 238.071 -1.53456 -1.19505 0
M  V30 2599 O 237.326 -0.727967 -1.81657 0
M  V30 2600 C 237.625 -3.56929 0.183431 0
M  V30 2601 C 237.291 -4.24431 1.52215 0
M  V30 2602 C 235.953 -4.42585 1.8887 0
M  V30 2603 C 238.305 -4.62459 2.40377 0
M  V30 2604 C 235.633 -4.96039 3.13309 0
M  V30 2605 C 237.985 -5.17294 3.64129 0
M  V30 2606 C 236.649 -5.33661 4.00951 0
M  V30 2607 H 235.919 -0.737419 0.0727571 0
M  V30 2608 H 238.566 -1.70531 0.871281 0
M  V30 2609 H 236.871 -3.87594 -0.572532 0
M  V30 2610 H 238.568 -4.00486 -0.203035 0
M  V30 2611 H 235.158 -4.10661 1.22701 0
M  V30 2612 H 239.342 -4.48105 2.13343 0
M  V30 2613 H 234.598 -5.06896 3.41857 0
M  V30 2614 H 238.772 -5.45704 4.32644 0
M  V30 2615 H 236.399 -5.74845 4.9745 0
M  V30 2616 N 237.974 -0.419461 -1.51915 0
M  V30 2617 C 238.904 0.391813 -2.30189 0
M  V30 2618 C 239.885 1.03699 -1.34836 0
M  V30 2619 O 241.07 1.04403 -1.63748 0
M  V30 2620 C 238.2 1.50312 -3.13087 0
M  V30 2621 C 237.154 0.9824 -4.16573 0
M  V30 2622 C 236.48 2.18809 -4.8788 0
M  V30 2623 C 237.78 0.0292356 -5.22292 0
M  V30 2624 H 239.474 -0.26135 -2.98257 0
M  V30 2625 H 237.02 -0.127134 -1.43438 0
M  V30 2626 H 238.973 2.07773 -3.66617 0
M  V30 2627 H 237.697 2.18431 -2.42807 0
M  V30 2628 H 236.356 0.430119 -3.64068 0
M  V30 2629 H 236.004 2.85507 -4.14119 0
M  V30 2630 H 235.704 1.84615 -5.57845 0
M  V30 2631 H 237.228 2.76858 -5.44226 0
M  V30 2632 H 238.642 0.512976 -5.71 0
M  V30 2633 H 237.039 -0.2244 -5.9968 0
M  V30 2634 H 238.109 -0.912931 -4.76228 0
M  V30 2635 N 239.452 1.56882 -0.150215 0
M  V30 2636 C 240.698 1.97299 0.494427 0
M  V30 2637 C 241.053 1.0338 1.62266 0
M  V30 2638 O 240.346 0.0694497 1.91474 0
M  V30 2639 C 240.54 3.41801 1.04437 0
M  V30 2640 C 240.369 4.49691 -0.0290451 0
M  V30 2641 C 239.139 5.03095 -0.47156 0
M  V30 2642 C 241.337 5.07693 -0.821703 0
M  V30 2643 N 239.319 5.94593 -1.52749 0
M  V30 2644 C 240.69 5.95431 -1.72805 0
M  V30 2645 C 242.745 4.90256 -0.869134 0
M  V30 2646 C 241.448 6.67599 -2.67777 0
M  V30 2647 C 243.474 5.63127 -1.8067 0
M  V30 2648 C 242.836 6.50576 -2.70057 0
M  V30 2649 H 238.935 0.76755 0.149639 0
M  V30 2650 H 241.519 1.93145 -0.24556 0
M  V30 2651 H 239.69 3.46541 1.75396 0
M  V30 2652 H 241.422 3.69272 1.6559 0
M  V30 2653 H 238.177 4.73543 -0.0732101 0
M  V30 2654 H 238.601 6.45047 -2.05531 0
M  V30 2655 H 243.243 4.22363 -0.192134 0
M  V30 2656 H 240.961 7.34717 -3.36476 0
M  V30 2657 H 244.547 5.51629 -1.84924 0
M  V30 2658 H 243.427 7.05974 -3.41424 0
M  V30 2659 N 240.93 -0.123565 1.57115 0
M  V30 2660 C 241.86 -1.15309 2.03042 0
M  V30 2661 C 242.841 -1.43454 0.914061 0
M  V30 2662 O 244.026 -1.53973 1.18347 0
M  V30 2663 C 241.156 -2.48043 2.43089 0
M  V30 2664 C 240.11 -2.3437 3.58127 0
M  V30 2665 C 239.436 -3.72026 3.84059 0
M  V30 2666 C 240.736 -1.80804 4.90007 0
M  V30 2667 H 242.43 -0.771102 2.893 0
M  V30 2668 H 239.976 -0.369479 1.39179 0
M  V30 2669 H 241.929 -3.20311 2.73823 0
M  V30 2670 H 240.653 -2.88122 1.53796 0
M  V30 2671 H 239.312 -1.64551 3.27595 0
M  V30 2672 H 238.96 -4.09582 2.91979 0
M  V30 2673 H 238.66 -3.63732 4.6149 0
M  V30 2674 H 240.184 -4.45806 4.1724 0
M  V30 2675 H 241.598 -2.42886 5.19307 0
M  V30 2676 H 239.995 -1.83343 5.71407 0
M  V30 2677 H 241.065 -0.76528 4.78823 0
M  V30 2678 N 242.408 -1.52605 -0.393616 0
M  V30 2679 C 243.371 -1.76415 -1.46323 0
M  V30 2680 C 244.371 -0.634126 -1.47768 0
M  V30 2681 O 245.561 -0.902142 -1.4902 0
M  V30 2682 C 242.693 -1.8607 -2.85641 0
M  V30 2683 H 243.886 -2.71916 -1.26498 0
M  V30 2684 H 241.439 -1.43257 -0.625073 0
M  V30 2685 H 242.174 -0.925378 -3.10817 0
M  V30 2686 H 241.959 -2.68235 -2.85993 0
M  V30 2687 H 243.449 -2.06179 -3.63153 0
M  V30 2688 N 243.887 0.651787 -1.4349 0
M  V30 2689 C 245.303 0.96762 -1.26922 0
M  V30 2690 C 245.503 2.00602 -0.189982 0
M  V30 2691 O 244.559 2.48793 0.431107 0
M  V30 2692 C 245.872 1.45052 -2.63401 0
M  V30 2693 C 247.42 1.5671 -2.70945 0
M  V30 2694 C 247.895 2.0839 -4.07845 0
M  V30 2695 N 249.386 2.1569 -4.09917 0
M  V30 2696 C 250.121 2.56804 -5.12679 0
M  V30 2697 N 249.617 2.97203 -6.25813 0
M  V30 2698 N 251.41 2.56756 -5.00033 0
M  V30 2699 H 243.561 -0.0353158 -2.12371 0
M  V30 2700 H 245.824 0.0467858 -0.946845 0
M  V30 2701 H 245.53 0.761926 -3.43348 0
M  V30 2702 H 245.404 2.42529 -2.88894 0
M  V30 2703 H 247.791 2.2467 -1.9133 0
M  V30 2704 H 247.872 0.57662 -2.49216 0
M  V30 2705 H 247.516 1.41031 -4.87927 0
M  V30 2706 H 247.446 3.08271 -4.26938 0
M  V30 2707 H 249.937 1.87237 -3.28254 0
M  V30 2708 H 250.25 3.27328 -7.00055 0
M  V30 2709 H 248.595 2.95004 -6.29283 0
M  V30 2710 H 251.786 2.24572 -4.10713 0
M  V30 2711 H 251.959 2.88475 -5.80247 0
M  V30 2712 N 245.365 1.30045 0.890287 0
M  V30 2713 C 246.312 1.15976 1.99545 0
M  V30 2714 C 247.282 0.0506202 1.66023 0
M  V30 2715 O 248.467 0.219847 1.89529 0
M  V30 2716 C 245.607 0.852054 3.34416 0
M  V30 2717 C 244.72 2.04255 3.80662 0
M  V30 2718 C 243.855 1.6734 5.04154 0
M  V30 2719 C 242.894 2.82916 5.42794 0
M  V30 2720 N 242.031 2.46333 6.57468 0
M  V30 2721 H 246.871 2.10524 2.10911 0
M  V30 2722 H 244.408 1.04749 1.03276 0
M  V30 2723 H 246.366 0.654296 4.12037 0
M  V30 2724 H 244.996 -0.0565502 3.2275 0
M  V30 2725 H 244.048 2.35172 2.98995 0
M  V30 2726 H 245.36 2.90826 4.05242 0
M  V30 2727 H 244.514 1.43908 5.89386 0
M  V30 2728 H 243.253 0.779308 4.81433 0
M  V30 2729 H 242.258 3.0702 4.56091 0
M  V30 2730 H 243.483 3.73004 5.6749 0
M  V30 2731 H 241.429 1.59423 6.36334 0
M  V30 2732 H 241.346 3.26436 6.81891 0
M  V30 2733 H 242.614 2.26244 7.45945 0
M  V30 2734 N 246.843 -1.10192 1.12674 0
M  V30 2735 C 247.773 -2.18652 0.819362 0
M  V30 2736 C 248.754 -1.68698 -0.217915 0
M  V30 2737 O 249.939 -1.94041 -0.0785581 0
M  V30 2738 C 247.069 -3.46202 0.27594 0
M  V30 2739 C 246.023 -4.09444 1.24656 0
M  V30 2740 C 245.349 -5.31725 0.563258 0
M  V30 2741 C 246.649 -4.52863 2.60217 0
M  V30 2742 H 248.343 -2.44622 1.72628 0
M  V30 2743 H 245.889 -1.17571 0.831451 0
M  V30 2744 H 247.842 -4.21372 0.0486149 0
M  V30 2745 H 246.566 -3.1973 -0.666331 0
M  V30 2746 H 245.225 -3.36284 1.45974 0
M  V30 2747 H 244.873 -5.0153 -0.384235 0
M  V30 2748 H 244.573 -5.74991 1.21075 0
M  V30 2749 H 246.097 -6.09624 0.34503 0
M  V30 2750 H 247.511 -5.19294 2.42913 0
M  V30 2751 H 245.908 -5.06986 3.21068 0
M  V30 2752 H 246.978 -3.65656 3.18471 0
M  V30 2753 N 248.321 -0.919034 -1.28029 0
M  V30 2754 C 249.57 -0.550802 -1.94034 0
M  V30 2755 C 249.883 0.910877 -1.73096 0
M  V30 2756 O 251.089 1.3875 -2.33368 0
M  V30 2757 C 249.545 -0.934249 -3.47563 0
M  V30 2758 C 249.153 -2.41602 -3.7727 0
M  V30 2759 C 250.897 -0.636854 -4.19696 0
M  V30 2760 C 248.804 -2.73932 -5.24133 0
M  V30 2761 H 247.734 -0.202273 -0.726362 0
M  V30 2762 H 250.385 -1.11867 -1.45458 0
M  V30 2763 H 248.767 -0.295115 -3.94899 0
M  V30 2764 H 249.941 -3.10233 -3.40723 0
M  V30 2765 H 248.256 -2.68441 -3.18321 0
M  V30 2766 H 250.853 -0.855005 -5.2782 0
M  V30 2767 H 251.196 0.425575 -4.14119 0
M  V30 2768 H 251.729 -1.23469 -3.78154 0
M  V30 2769 H 248.468 -3.79049 -5.34792 0
M  V30 2770 H 247.988 -2.09942 -5.61858 0
M  V30 2771 H 249.667 -2.61215 -5.91925 0
M  V30 2772 N 249.799 1.42003 -0.683588 0
M  V30 2773 C 251.047 2.01015 -0.209101 0
M  V30 2774 C 251.368 1.54365 1.19149 0
M  V30 2775 O 250.638 0.769083 1.80172 0
M  V30 2776 H 249.218 0.743294 -0.074315 0
M  V30 2777 H 251.88 1.73798 -0.882066 0
M  V30 2778 H 250.976 3.11343 -0.2172 0
M  V30 2779 N 251.277 0.427512 1.51691 0
M  V30 2780 C 252.554 -0.201684 1.94557 0
M  V30 2781 C 252.934 -1.60981 1.36559 0
M  V30 2782 O 252.282 -2.21814 0.548702 0
M  V30 2783 C 252.492 -0.189394 3.48486 0
M  V30 2784 C 253.84 -0.39978 4.22714 0
M  V30 2785 O 254.864 -0.267945 3.55191 0
M  V30 2786 O 253.723 -0.661249 5.42485 0
M  V30 2787 H 250.817 -0.135261 0.815864 0
M  V30 2788 H 253.363 0.484782 1.62628 0
M  V30 2789 H 252.135 0.795431 3.8313 0
M  V30 2790 H 251.758 -0.919187 3.86829 0
M  V30 2791 N 252.755 -1.56801 0.158532 0
M  V30 2792 C 254.166 -1.83189 -0.360366 0
M  V30 2793 C 254.517 -1.07778 -1.63946 0
M  V30 2794 O 253.642 -0.326718 -2.13919 0
M  V30 2795 C 254.237 -3.32297 -0.660595 0
M  V30 2796 C 252.796 -3.59227 -1.12398 0
M  V30 2797 C 251.943 -2.76877 -0.153097 0
M  V30 2798 H 254.894 -1.54008 0.383031 0
M  V30 2799 H 254.915 -3.4908 -1.51405 0
M  V30 2800 H 254.427 -3.87156 0.270527 0
M  V30 2801 H 252.528 -3.09766 -2.07064 0
M  V30 2802 H 252.641 -4.67632 -1.04197 0
M  V30 2803 H 251.005 -2.46319 -0.647983 0
M  V30 2804 H 251.788 -3.34511 0.77182 0
M  V30 2805 N 254.233 0.115231 -1.57178 0
M  V30 2806 C 255.181 1.16014 -2.01602 0
M  V30 2807 C 256.175 1.42653 -0.913587 0
M  V30 2808 O 257.381 1.42571 -1.09879 0
M  V30 2809 H 253.756 0.391252 -0.642204 0
M  V30 2810 H 255.727 0.758998 -2.88586 0
M  V30 2811 C 254.476 2.47767 -2.4394 0
M  V30 2812 H 253.799 2.28108 -3.28339 0
M  V30 2813 H 255.239 3.19432 -2.78818 0
M  V30 2814 C 253.698 3.10617 -1.30455 0
M  V30 2815 O 254.228 3.96846 -0.622585 0
M  V30 2816 N 252.434 2.70553 -1.06064 0
M  V30 2817 H 251.981 2.00527 -1.61699 0
M  V30 2818 H 251.939 3.12934 -0.303284 0
M  V30 2819 N 255.711 1.52812 0.385517 0
M  V30 2820 C 256.641 1.80808 1.47752 0
M  V30 2821 C 257.622 0.660318 1.5676 0
M  V30 2822 O 258.807 0.908246 1.71652 0
M  V30 2823 C 255.937 1.98008 2.85324 0
M  V30 2824 C 254.891 3.13709 2.91154 0
M  V30 2825 C 254.217 3.16169 4.31209 0
M  V30 2826 C 255.517 4.52709 2.60483 0
M  V30 2827 H 257.211 2.72253 1.24573 0
M  V30 2828 H 254.757 1.31003 0.597839 0
M  V30 2829 H 256.71 2.16176 3.61726 0
M  V30 2830 H 255.434 1.03255 3.09848 0
M  V30 2831 H 254.093 2.95329 2.17201 0
M  V30 2832 H 253.741 2.19092 4.52778 0
M  V30 2833 H 253.441 3.93894 4.36029 0
M  V30 2834 H 254.965 3.36496 5.09512 0
M  V30 2835 H 256.379 4.71173 3.26602 0
M  V30 2836 H 254.776 5.32528 2.76648 0
M  V30 2837 H 255.846 4.59186 1.55809 0
M  V30 2838 N 257.189 -0.644168 1.43834 0
M  V30 2839 C 258.099 -1.78563 1.52159 0
M  V30 2840 C 259.115 -1.69147 0.408069 0
M  V30 2841 O 260.291 -1.90156 0.663524 0
M  V30 2842 C 257.356 -3.14888 1.45073 0
M  V30 2843 C 256.417 -3.36034 2.6717 0
M  V30 2844 C 255.65 -4.65855 2.60413 0
M  V30 2845 O 255.873 -5.45805 1.65689 0
M  V30 2846 O 254.807 -4.88918 3.5106 0
M  V30 2847 H 258.633 -1.74494 2.48567 0
M  V30 2848 H 256.218 -0.80378 1.25935 0
M  V30 2849 H 258.1 -3.96179 1.43597 0
M  V30 2850 H 256.775 -3.19528 0.518037 0
M  V30 2851 H 255.682 -2.54472 2.74217 0
M  V30 2852 H 257.015 -3.36247 3.59442 0
M  V30 2853 N 258.668 -1.30515 -0.883378 0
M  V30 2854 C 259.915 -1.1943 -1.63532 0
M  V30 2855 C 260.243 0.250627 -1.92878 0
M  V30 2856 O 259.498 1.19556 -1.54935 0
M  V30 2857 C 259.797 -1.96994 -2.98209 0
M  V30 2858 C 259.463 -3.466 -2.88408 0
M  V30 2859 C 258.125 -3.87397 -2.85442 0
M  V30 2860 C 260.477 -4.41863 -2.76418 0
M  V30 2861 C 257.805 -5.21745 -2.68327 0
M  V30 2862 C 260.157 -5.7632 -2.60841 0
M  V30 2863 C 258.821 -6.16354 -2.56251 0
M  V30 2864 H 258.091 -0.437025 -0.598406 0
M  V30 2865 H 260.738 -1.61635 -1.02696 0
M  V30 2866 H 259.043 -1.47429 -3.63004 0
M  V30 2867 H 260.74 -1.85808 -3.55354 0
M  V30 2868 H 257.33 -3.14182 -2.91527 0
M  V30 2869 H 261.514 -4.11285 -2.77775 0
M  V30 2870 H 256.77 -5.51853 -2.63189 0
M  V30 2871 H 260.944 -6.49772 -2.50538 0
M  V30 2872 H 258.571 -7.20401 -2.42748 0
M  V30 2873 N 260.146 1.09593 -1.13257 0
M  V30 2874 C 261.392 1.82003 -0.89458 0
M  V30 2875 C 261.725 1.85402 0.577906 0
M  V30 2876 O 261 1.32099 1.42759 0
M  V30 2877 C 261.283 3.28237 -1.48096 0
M  V30 2878 C 261.136 3.3312 -3.02244 0
M  V30 2879 C 262.455 4.24871 -1.14774 0
M  V30 2880 H 259.574 0.66077 -0.326424 0
M  V30 2881 H 262.216 1.28389 -1.40058 0
M  V30 2882 H 260.366 3.74024 -1.05062 0
M  V30 2883 H 262.038 2.95748 -3.54021 0
M  V30 2884 H 260.281 2.72756 -3.37323 0
M  V30 2885 H 260.952 4.3613 -3.38371 0
M  V30 2886 H 263.428 3.87361 -1.51957 0
M  V30 2887 H 262.304 5.25532 -1.58452 0
M  V30 2888 H 262.565 4.42058 -0.0611849 0
M  V30 2889 N 261.624 0.925811 1.2754 0
M  V30 2890 C 262.587 0.428129 2.25166 0
M  V30 2891 C 263.587 -0.452261 1.54309 0
M  V30 2892 O 264.777 -0.253608 1.72344 0
M  V30 2893 C 261.909 -0.384749 3.38722 0
M  V30 2894 H 263.102 1.29066 2.70706 0
M  V30 2895 H 260.655 0.706323 1.3943 0
M  V30 2896 H 261.39 -1.26618 2.98561 0
M  V30 2897 H 261.175 0.246454 3.91325 0
M  V30 2898 H 262.665 -0.723389 4.11287 0
M  V30 2899 N 263.102 -1.41638 0.69111 0
M  V30 2900 C 264.035 -2.28183 -0.0274913 0
M  V30 2901 C 265.013 -1.41984 -0.792424 0
M  V30 2902 O 266.197 -1.71415 -0.784169 0
M  V30 2903 C 263.324 -3.22135 -1.04628 0
M  V30 2904 C 262.37 -4.24848 -0.375037 0
M  V30 2905 S 263.203 -5.28231 0.879321 0
M  V30 2906 C 264.359 -6.25748 -0.137983 0
M  V30 2907 H 264.592 -2.88782 0.706553 0
M  V30 2908 H 262.125 -1.46709 0.481222 0
M  V30 2909 H 264.083 -3.76797 -1.62894 0
M  V30 2910 H 262.744 -2.6064 -1.75287 0
M  V30 2911 H 261.937 -4.90837 -1.14433 0
M  V30 2912 H 261.539 -3.73758 0.134434 0
M  V30 2913 H 263.831 -6.70188 -0.992659 0
M  V30 2914 H 264.774 -7.06417 0.487867 0
M  V30 2915 H 265.182 -5.62363 -0.490762 0
M  V30 2916 N 264.58 -0.43555 -1.51462 0
M  V30 2917 C 265.991 0.0279871 -1.86679 0
M  V30 2918 C 266.342 1.42104 -1.35281 0
M  V30 2919 O 265.467 2.04667 -0.702878 0
M  V30 2920 C 266.062 0.0575626 -3.38751 0
M  V30 2921 C 264.621 0.465507 -3.7351 0
M  V30 2922 C 263.768 -0.342996 -2.75171 0
M  V30 2923 H 266.719 -0.651473 -1.44712 0
M  V30 2924 H 266.74 0.867421 -3.70481 0
M  V30 2925 H 266.252 -0.956448 -3.7613 0
M  V30 2926 H 264.353 1.48519 -3.41721 0
M  V30 2927 H 264.466 0.191546 -4.78717 0
M  V30 2928 H 262.83 0.198442 -2.53926 0
M  V30 2929 H 263.613 -1.35585 -3.15391 0
M  V30 2930 N 266.058 1.56714 -0.166846 0
M  V30 2931 C 267.021 2.16539 0.751232 0
M  V30 2932 C 268.021 1.11228 1.16125 0
M  V30 2933 O 269.211 1.36765 1.07894 0
M  V30 2934 C 266.343 2.74462 2.02196 0
M  V30 2935 H 267.536 2.99013 0.230499 0
M  V30 2936 H 265.089 1.56081 0.0826982 0
M  V30 2937 H 265.824 1.95709 2.58589 0
M  V30 2938 H 265.609 3.51527 1.73698 0
M  V30 2939 H 267.099 3.20489 2.67725 0
M  V30 2940 N 267.536 -0.106894 1.57237 0
M  V30 2941 C 268.466 -1.13148 2.04254 0
M  V30 2942 C 269.447 -1.42476 0.929224 0
M  V30 2943 O 270.632 -1.52709 1.19973 0
M  V30 2944 C 267.762 -2.4545 2.45706 0
M  V30 2945 C 266.716 -2.30558 3.60592 0
M  V30 2946 C 266.042 -3.67931 3.87983 0
M  V30 2947 C 267.342 -1.75597 4.91897 0
M  V30 2948 H 269.036 -0.740374 2.90101 0
M  V30 2949 H 266.582 -0.354696 1.39563 0
M  V30 2950 H 268.535 -3.17389 2.77205 0
M  V30 2951 H 267.259 -2.86475 1.56843 0
M  V30 2952 H 265.918 -1.61067 3.29322 0
M  V30 2953 H 265.566 -4.06462 2.96306 0
M  V30 2954 H 265.266 -3.58817 4.65322 0
M  V30 2955 H 266.79 -4.41356 4.21945 0
M  V30 2956 H 268.204 -2.37364 5.21854 0
M  V30 2957 H 266.601 -1.77272 5.73319 0
M  V30 2958 H 267.671 -0.714451 4.79608 0
M  V30 2959 N 269.014 -1.53014 -0.377408 0
M  V30 2960 C 269.977 -1.77957 -1.44444 0
M  V30 2961 C 270.977 -0.649763 -1.47087 0
M  V30 2962 O 272.167 -0.917897 -1.48055 0
M  V30 2963 C 269.299 -1.89089 -2.83651 0
M  V30 2964 H 270.492 -2.73243 -1.23606 0
M  V30 2965 H 268.045 -1.43912 -0.609844 0
M  V30 2966 H 268.78 -0.958293 -3.09818 0
M  V30 2967 H 268.565 -2.71254 -2.83132 0
M  V30 2968 H 270.055 -2.1002 -3.60945 0
M  V30 2969 N 270.492 0.636531 -1.44174 0
M  V30 2970 C 271.903 1.21806 -1.41493 0
M  V30 2971 C 272.254 1.95785 -0.1275 0
M  V30 2972 O 271.379 2.02147 0.772376 0
M  V30 2973 C 271.974 2.21551 -2.56321 0
M  V30 2974 C 270.533 2.75143 -2.56853 0
M  V30 2975 C 269.68 1.50052 -2.33195 0
M  V30 2976 H 272.631 0.427531 -1.52833 0
M  V30 2977 H 272.652 3.0405 -2.28765 0
M  V30 2978 H 272.164 1.67679 -3.50008 0
M  V30 2979 H 270.265 3.33033 -1.67093 0
M  V30 2980 H 270.378 3.2155 -3.55165 0
M  V30 2981 H 268.742 1.77993 -1.82183 0
M  V30 2982 H 269.525 0.980903 -3.28988 0
M  V30 2983 N 271.97 1.30982 0.876444 0
M  V30 2984 C 273.381 1.18277 1.44456 0
M  V30 2985 C 273.732 -0.213265 1.95037 0
M  V30 2986 O 272.857 -1.11057 1.85729 0
M  V30 2987 C 273.452 2.1411 2.62569 0
M  V30 2988 C 272.011 2.05358 3.15444 0
M  V30 2989 C 271.158 2.03706 1.88146 0
M  V30 2990 H 274.109 1.43127 0.685584 0
M  V30 2991 H 274.13 1.72692 3.39054 0
M  V30 2992 H 273.642 3.15706 2.25724 0
M  V30 2993 H 271.743 1.06934 3.56926 0
M  V30 2994 H 271.856 2.94156 3.78166 0
M  V30 2995 H 270.22 1.48629 2.06837 0
M  V30 2996 H 271.003 3.07047 1.53547 0
M  V30 2997 N 273.449 -1.08991 1.13837 0
M  V30 2998 C 274.359 -2.19301 0.833333 0
M  V30 2999 C 275.375 -1.73026 -0.183847 0
M  V30 3000 O 276.551 -2.01395 -0.0138092 0
M  V30 3001 C 273.616 -3.45323 0.308651 0
M  V30 3002 C 272.677 -4.06255 1.38764 0
M  V30 3003 C 271.91 -5.26262 0.887896 0
M  V30 3004 O 272.133 -5.69747 -0.27287 0
M  V30 3005 O 271.067 -5.78435 1.66421 0
M  V30 3006 H 274.893 -2.47854 1.75506 0
M  V30 3007 H 272.478 -1.18012 0.916166 0
M  V30 3008 H 274.36 -4.21394 0.0216739 0
M  V30 3009 H 273.035 -3.18362 -0.585431 0
M  V30 3010 H 271.942 -3.318 1.72799 0
M  V30 3011 H 273.275 -4.37452 2.25602 0
M  V30 3012 N 274.927 -0.932562 -1.27047 0
M  V30 3013 C 276.173 -0.576412 -1.94436 0
M  V30 3014 C 276.506 0.880891 -1.73072 0
M  V30 3015 O 275.781 1.62905 -1.06264 0
M  V30 3016 C 276.064 -0.909031 -3.48437 0
M  V30 3017 C 275.917 -2.42044 -3.79123 0
M  V30 3018 C 277.236 -0.418341 -4.38107 0
M  V30 3019 H 274.355 -0.210888 -0.706184 0
M  V30 3020 H 276.997 -1.16522 -1.50075 0
M  V30 3021 H 275.147 -0.407947 -3.86352 0
M  V30 3022 H 276.819 -2.99359 -3.50973 0
M  V30 3023 H 275.062 -2.86758 -3.25503 0
M  V30 3024 H 275.733 -2.6037 -4.86736 0
M  V30 3025 H 278.209 -0.847856 -4.0737 0
M  V30 3026 H 277.085 -0.679981 -5.44672 0
M  V30 3027 H 277.346 0.681642 -4.36814 0
M  V30 3028 N 276.405 1.4127 -0.698611 0
M  V30 3029 C 277.651 2.01478 -0.231207 0
M  V30 3030 C 277.984 1.55215 1.16713 0
M  V30 3031 O 277.259 0.764672 1.78838 0
M  V30 3032 C 277.542 3.58912 -0.292281 0
M  V30 3033 C 277.395 4.15293 -1.72778 0
M  V30 3034 C 278.714 4.38736 0.346194 0
M  V30 3035 H 275.833 0.732025 -0.0854878 0
M  V30 3036 H 278.475 1.67977 -0.887906 0
M  V30 3037 H 276.625 3.87582 0.26686 0
M  V30 3038 H 278.297 3.97486 -2.341 0
M  V30 3039 H 276.54 3.7022 -2.26096 0
M  V30 3040 H 277.211 5.24452 -1.72202 0
M  V30 3041 H 279.687 4.15897 -0.130035 0
M  V30 3042 H 278.563 5.48221 0.272932 0
M  V30 3043 H 278.824 4.18425 1.42734 0
M  V30 3044 N 277.883 0.443576 1.51229 0
M  V30 3045 C 278.816 -0.410089 2.24485 0
M  V30 3046 C 279.794 -1.01949 1.26669 0
M  V30 3047 O 280.978 -1.06075 1.55821 0
M  V30 3048 C 278.105 -1.57211 3.00004 0
M  V30 3049 C 277.151 -1.08279 4.12526 0
M  V30 3050 S 277.984 -0.0197476 5.35496 0
M  V30 3051 C 279.14 -1.18629 6.14555 0
M  V30 3052 H 279.373 0.211832 2.96544 0
M  V30 3053 H 276.906 0.228156 1.52705 0
M  V30 3054 H 278.864 -2.23825 3.44111 0
M  V30 3055 H 277.525 -2.16547 2.27522 0
M  V30 3056 H 276.718 -1.95193 4.64667 0
M  V30 3057 H 276.32 -0.494797 3.70713 0
M  V30 3058 H 278.612 -2.10344 6.4402 0
M  V30 3059 H 279.555 -0.70472 7.04584 0
M  V30 3060 H 279.963 -1.42768 5.46148 0
M  V30 3061 N 279.361 -1.56624 0.175154 0
M  V30 3062 C 280.638 -1.88688 -0.515373 0
M  V30 3063 C 281.018 -1.08564 -1.81044 0
M  V30 3064 O 280.366 -0.180703 -2.27784 0
M  V30 3065 C 280.576 -3.40768 -0.753552 0
M  V30 3066 C 281.924 -4.10587 -1.08184 0
M  V30 3067 O 282.948 -3.46106 -0.841961 0
M  V30 3068 O 281.807 -5.24512 -1.53459 0
M  V30 3069 H 278.901 -0.78301 -0.26613 0
M  V30 3070 H 281.447 -1.68347 0.213877 0
M  V30 3071 H 280.219 -3.90965 0.161829 0
M  V30 3072 H 279.842 -3.66733 -1.53598 0
M  V30 3073 N 280.839 0.0985539 -1.57292 0
M  V30 3074 C 282.25 0.653457 -1.74891 0
M  V30 3075 C 282.601 1.7929 -0.796838 0
M  V30 3076 O 281.726 2.16385 0.0254886 0
M  V30 3077 C 282.321 1.19216 -3.17133 0
M  V30 3078 C 280.88 1.69316 -3.36168 0
M  V30 3079 C 280.027 0.601294 -2.70702 0
M  V30 3080 H 282.978 -0.127497 -1.58187 0
M  V30 3081 H 282.999 2.06154 -3.19814 0
M  V30 3082 H 282.511 0.362635 -3.86402 0
M  V30 3083 H 280.612 2.5468 -2.71972 0
M  V30 3084 H 280.725 1.78853 -4.44464 0
M  V30 3085 H 279.089 1.0399 -2.32504 0
M  V30 3086 H 279.872 -0.217592 -3.4261 0
M  V30 3087 N 282.317 1.53212 0.369288 0
M  V30 3088 C 283.28 1.7872 1.43498 0
M  V30 3089 C 284.28 0.657554 1.46741 0
M  V30 3090 O 285.47 0.925736 1.47566 0
M  V30 3091 C 282.602 1.90591 2.82645 0
M  V30 3092 H 283.795 2.73894 1.22156 0
M  V30 3093 H 281.348 1.44233 0.602203 0
M  V30 3094 H 282.083 0.974709 3.09306 0
M  V30 3095 H 281.868 2.72751 2.8169 0
M  V30 3096 H 283.358 2.11931 3.59826 0
M  V30 3097 N 283.795 -0.628877 1.44509 0
M  V30 3098 C 284.725 -1.75187 1.54376 0
M  V30 3099 C 285.706 -1.65411 0.396618 0
M  V30 3100 O 286.891 -1.84137 0.617031 0
M  V30 3101 C 284.021 -3.13725 1.48976 0
M  V30 3102 C 282.975 -3.38291 2.62189 0
M  V30 3103 C 282.301 -4.76883 2.41841 0
M  V30 3104 C 283.601 -3.30632 4.04326 0
M  V30 3105 H 285.295 -1.67187 2.48373 0
M  V30 3106 H 282.841 -0.802909 1.19538 0
M  V30 3107 H 284.794 -3.92064 1.54478 0
M  V30 3108 H 283.518 -3.22515 0.514961 0
M  V30 3109 H 282.177 -2.62334 2.56079 0
M  V30 3110 H 281.825 -4.82378 1.42548 0
M  V30 3111 H 281.525 -4.94278 3.17747 0
M  V30 3112 H 283.049 -5.57449 2.49165 0
M  V30 3113 H 284.463 -3.98873 4.11793 0
M  V30 3114 H 282.86 -3.59561 4.80454 0
M  V30 3115 H 283.93 -2.28404 4.27738 0
M  V30 3116 N 285.273 -1.31445 -0.869486 0
M  V30 3117 C 286.236 -1.19094 -1.9583 0
M  V30 3118 C 287.236 -0.117906 -1.60367 0
M  V30 3119 O 288.426 -0.367208 -1.70286 0
M  V30 3120 C 285.558 -0.828165 -3.30688 0
M  V30 3121 H 286.751 -2.15842 -2.08212 0
M  V30 3122 H 284.304 -1.15063 -1.05784 0
M  V30 3123 H 285.039 0.138142 -3.24006 0
M  V30 3124 H 284.824 -1.6038 -3.578 0
M  V30 3125 H 286.314 -0.765658 -4.10521 0
M  V30 3126 N 286.751 1.08385 -1.14413 0
M  V30 3127 C 287.714 2.13486 -0.834048 0
M  V30 3128 C 288.714 1.59988 0.161418 0
M  V30 3129 O 289.904 1.74071 -0.0669575 0
M  V30 3130 C 287.036 3.4003 -0.243354 0
M  V30 3131 H 288.229 2.42425 -1.7655 0
M  V30 3132 H 285.782 1.24101 -0.950189 0
M  V30 3133 H 286.517 3.16726 0.696807 0
M  V30 3134 H 286.302 3.80157 -0.960367 0
M  V30 3135 H 287.792 4.17577 -0.0436242 0
M  V30 3136 N 288.23 0.939286 1.26551 0
M  V30 3137 C 289.162 0.404704 2.25599 0
M  V30 3138 C 290.175 -0.470983 1.55838 0
M  V30 3139 O 291.364 -0.281734 1.76263 0
M  V30 3140 C 288.464 -0.43764 3.36062 0
M  V30 3141 C 287.637 0.421449 4.35365 0
M  V30 3142 C 286.696 -0.36015 5.24966 0
M  V30 3143 O 285.722 0.236167 5.6871 0
M  V30 3144 N 286.924 -1.65715 5.56344 0
M  V30 3145 H 289.689 1.25618 2.72103 0
M  V30 3146 H 287.25 0.807963 1.40298 0
M  V30 3147 H 289.242 -0.967866 3.92956 0
M  V30 3148 H 287.812 -1.18991 2.89067 0
M  V30 3149 H 287.032 1.1329 3.7757 0
M  V30 3150 H 288.32 1.00835 4.98708 0
M  V30 3151 H 287.718 -2.16378 5.22682 0
M  V30 3152 H 286.275 -2.13366 6.15888 0
M  V30 3153 N 289.708 -1.40897 0.706093 0
M  V30 3154 C 290.938 -2.05075 0.250523 0
M  V30 3155 C 291.346 -1.53275 -1.10921 0
M  V30 3156 O 290.689 -0.680281 -1.7064 0
M  V30 3157 C 290.751 -3.59219 0.142178 0
M  V30 3158 C 290.415 -4.33864 1.43566 0
M  V30 3159 C 291.412 -4.62448 2.37566 0
M  V30 3160 C 289.097 -4.72946 1.69195 0
M  V30 3161 C 291.091 -5.29088 3.5545 0
M  V30 3162 C 288.778 -5.3932 2.87362 0
M  V30 3163 C 289.776 -5.6732 3.80312 0
M  V30 3164 O 289.464 -6.32325 4.96408 0
M  V30 3165 H 289.196 -0.666645 0.112074 0
M  V30 3166 H 291.75 -1.81467 0.962239 0
M  V30 3167 H 289.98 -3.81609 -0.6254 0
M  V30 3168 H 291.669 -4.0495 -0.277584 0
M  V30 3169 H 292.435 -4.32727 2.19027 0
M  V30 3170 H 288.314 -4.50527 0.977042 0
M  V30 3171 H 291.858 -5.50859 4.28018 0
M  V30 3172 H 287.755 -5.68461 3.05814 0
M  V30 3173 H 288.523 -6.50821 4.9636 0
M  V30 3174 N 291.186 -0.45159 -1.50991 0
M  V30 3175 C 292.096 0.358431 -2.31846 0
M  V30 3176 C 293.112 1.01438 -1.41373 0
M  V30 3177 O 294.288 1.00663 -1.74439 0
M  V30 3178 C 291.353 1.43704 -3.15515 0
M  V30 3179 C 290.414 0.799742 -4.21785 0
M  V30 3180 C 289.647 1.82696 -5.01456 0
M  V30 3181 O 289.87 3.05105 -4.81941 0
M  V30 3182 O 288.804 1.40958 -5.85162 0
M  V30 3183 H 292.63 -0.302032 -3.02194 0
M  V30 3184 H 290.215 -0.213825 -1.47862 0
M  V30 3185 H 292.097 2.06227 -3.67489 0
M  V30 3186 H 290.772 2.08133 -2.47916 0
M  V30 3187 H 289.679 0.136084 -3.73852 0
M  V30 3188 H 291.012 0.198718 -4.91799 0
M  V30 3189 N 292.664 1.56529 -0.183458 0
M  V30 3190 C 293.614 2.1515 0.754605 0
M  V30 3191 C 294.598 1.08904 1.18443 0
M  V30 3192 O 295.79 1.34997 1.14476 0
M  V30 3193 C 292.919 2.80531 1.97881 0
M  V30 3194 C 292.005 3.93952 1.57043 0
M  V30 3195 N 292.396 4.98221 0.87231 0
M  V30 3196 C 290.694 4.05338 1.86057 0
M  V30 3197 C 291.395 5.77836 0.669377 0
M  V30 3198 N 290.371 5.29858 1.21454 0
M  V30 3199 H 294.173 2.93132 0.212387 0
M  V30 3200 H 291.687 1.62391 0.0167725 0
M  V30 3201 H 293.684 3.20914 2.6612 0
M  V30 3202 H 292.344 2.04035 2.52586 0
M  V30 3203 H 293.355 5.15191 0.529033 0
M  V30 3204 H 290.032 3.39957 2.42354 0
M  V30 3205 H 291.422 6.71799 0.116422 0
M  V30 3206 N 294.142 -0.090211 1.57342 0
M  V30 3207 C 295.419 -0.824761 1.77361 0
M  V30 3208 C 295.799 -1.96698 0.76637 0
M  V30 3209 O 295.147 -2.27586 -0.204179 0
M  V30 3210 C 295.357 -1.31481 3.23286 0
M  V30 3211 C 296.705 -1.75563 3.86604 0
M  V30 3212 O 297.729 -1.41093 3.27065 0
M  V30 3213 O 296.588 -2.39317 4.91314 0
M  V30 3214 H 293.682 -0.393776 0.727234 0
M  V30 3215 H 296.228 -0.0717138 1.69548 0
M  V30 3216 H 295 -0.496671 3.88135 0
M  V30 3217 H 294.623 -2.12973 3.35751 0
M  V30 3218 N 295.62 -1.53406 -0.361157 0
M  V30 3219 C 296.55 -1.83136 -1.44857 0
M  V30 3220 C 297.531 -0.685174 -1.5569 0
M  V30 3221 O 298.716 -0.93544 -1.70186 0
M  V30 3222 C 295.846 -2.02522 -2.82138 0
M  V30 3223 C 294.8 -3.18302 -2.86126 0
M  V30 3224 C 294.126 -3.22989 -4.26125 0
M  V30 3225 C 295.426 -4.56796 -2.53248 0
M  V30 3226 H 297.12 -2.74201 -1.20226 0
M  V30 3227 H 294.666 -1.31938 -0.576922 0
M  V30 3228 H 296.619 -2.21904 -3.58241 0
M  V30 3229 H 295.343 -1.08172 -3.08166 0
M  V30 3230 H 294.002 -2.98747 -2.12475 0
M  V30 3231 H 293.65 -2.26267 -4.49235 0
M  V30 3232 H 293.35 -4.00781 -4.29708 0
M  V30 3233 H 294.874 -3.44559 -5.04094 0
M  V30 3234 H 296.288 -4.7631 -3.19064 0
M  V30 3235 H 294.685 -5.36862 -2.68141 0
M  V30 3236 H 295.755 -4.61606 -1.48484 0
M  V30 3237 N 297.098 0.621204 -1.44841 0
M  V30 3238 C 298.008 1.7612 -1.5498 0
M  V30 3239 C 299.024 1.68477 -0.434927 0
M  V30 3240 O 300.2 1.89076 -0.693693 0
M  V30 3241 C 297.265 3.1254 -1.50065 0
M  V30 3242 C 296.326 3.31741 -2.72482 0
M  V30 3243 C 295.559 4.61653 -2.67792 0
M  V30 3244 O 295.782 5.431 -1.74352 0
M  V30 3245 O 294.716 4.83271 -3.58794 0
M  V30 3246 H 298.542 1.70518 -2.51311 0
M  V30 3247 H 296.127 0.783643 -1.27198 0
M  V30 3248 H 298.009 3.93844 -1.49882 0
M  V30 3249 H 296.684 3.18663 -0.568806 0
M  V30 3250 H 295.591 2.50077 -2.7823 0
M  V30 3251 H 296.924 3.30486 -3.64746 0
M  V30 3252 N 298.576 1.31904 0.862503 0
M  V30 3253 C 299.822 1.22197 1.61851 0
M  V30 3254 C 300.155 -0.217641 1.92977 0
M  V30 3255 O 299.43 -1.15264 1.56666 0
M  V30 3256 C 299.713 2.07378 2.94391 0
M  V30 3257 C 299.566 3.59678 2.70096 0
M  V30 3258 C 300.885 1.92891 3.95577 0
M  V30 3259 H 298.004 0.445255 0.587296 0
M  V30 3260 H 300.646 1.6177 0.99651 0
M  V30 3261 H 298.796 1.73758 3.47477 0
M  V30 3262 H 300.468 4.03472 2.23625 0
M  V30 3263 H 298.711 3.82735 2.04197 0
M  V30 3264 H 299.382 4.14595 3.64438 0
M  V30 3265 H 301.858 2.22327 3.51724 0
M  V30 3266 H 300.734 2.54781 4.86187 0
M  V30 3267 H 300.995 0.894315 4.3296 0
M  V30 3268 N 300.054 -1.07777 1.14986 0
M  V30 3269 C 301.017 -2.13041 0.845358 0
M  V30 3270 C 302.017 -1.60071 -0.152931 0
M  V30 3271 O 303.207 -1.74033 0.0761879 0
M  V30 3272 C 300.339 -3.39896 0.261383 0
M  V30 3273 H 301.532 -2.41485 1.77834 0
M  V30 3274 H 299.085 -1.23595 0.956757 0
M  V30 3275 H 299.82 -3.17091 -0.68 0
M  V30 3276 H 299.605 -3.79642 0.980514 0
M  V30 3277 H 301.095 -4.17548 0.0657687 0
M  V30 3278 N 301.532 -0.945985 -1.26051 0
M  V30 3279 C 302.464 -0.416662 -2.25381 0
M  V30 3280 C 303.477 0.462712 -1.56086 0
M  V30 3281 O 304.666 0.272383 -1.7641 0
M  V30 3282 C 301.766 0.419812 -3.3629 0
M  V30 3283 C 300.939 -0.444531 -4.35135 0
M  V30 3284 C 299.998 0.332305 -5.2515 0
M  V30 3285 O 299.024 -0.266324 -5.68577 0
M  V30 3286 N 300.226 1.62763 -5.57215 0
M  V30 3287 H 302.991 -1.27059 -2.71433 0
M  V30 3288 H 300.552 -0.815392 -1.39868 0
M  V30 3289 H 302.544 0.947013 -3.93464 0
M  V30 3290 H 301.114 1.17456 -2.89694 0
M  V30 3291 H 300.334 -1.15291 -3.76964 0
M  V30 3292 H 301.622 -1.03478 -4.98166 0
M  V30 3293 H 301.02 2.13603 -5.23823 0
M  V30 3294 H 299.577 2.10097 -6.17011 0
M  V30 3295 N 303.011 1.40521 -0.713556 0
M  V30 3296 C 304.239 2.05237 -0.261775 0
M  V30 3297 C 304.654 1.53755 1.09567 0
M  V30 3298 O 304.011 0.693268 1.6882 0
M  V30 3299 C 304.062 3.60763 -0.230706 0
M  V30 3300 O 303.783 4.10345 -1.53455 0
M  V30 3301 C 305.284 4.42651 0.239874 0
M  V30 3302 H 302.504 0.660533 -0.118057 0
M  V30 3303 H 305.048 1.79967 -0.971192 0
M  V30 3304 H 303.203 3.8501 0.429661 0
M  V30 3305 H 303.617 5.04526 -1.43366 0
M  V30 3306 H 305.091 5.51599 0.210468 0
M  V30 3307 H 305.568 4.20082 1.28171 0
M  V30 3308 H 306.174 4.23507 -0.390142 0
M  V30 3309 N 304.489 0.459591 1.5075 0
M  V30 3310 C 305.717 -0.0973749 2.06671 0
M  V30 3311 C 306.132 -1.34524 1.32472 0
M  V30 3312 O 305.489 -1.7827 0.390634 0
M  V30 3313 C 305.54 -0.39714 3.59312 0
M  V30 3314 O 305.261 0.801214 4.30711 0
M  V30 3315 C 306.762 -1.00234 4.31819 0
M  V30 3316 H 303.982 0.00195854 0.670997 0
M  V30 3317 H 306.526 0.645072 1.94059 0
M  V30 3318 H 304.681 -1.08951 3.71764 0
M  V30 3319 H 305.095 0.538857 5.21725 0
M  V30 3320 H 306.569 -1.16193 5.39632 0
M  V30 3321 H 307.046 -1.98939 3.91561 0
M  V30 3322 H 307.652 -0.348699 4.23868 0
M  V30 3323 N 305.967 -1.56429 0.191757 0
M  V30 3324 C 306.93 -2.17707 -0.716688 0
M  V30 3325 C 307.93 -1.13061 -1.14341 0
M  V30 3326 O 309.12 -1.38464 -1.05704 0
M  V30 3327 C 306.252 -2.77644 -1.97804 0
M  V30 3328 H 307.445 -2.99342 -0.1829 0
M  V30 3329 H 304.998 -1.56193 -0.0578566 0
M  V30 3330 H 305.733 -1.99799 -2.55443 0
M  V30 3331 H 305.518 -3.54246 -1.68083 0
M  V30 3332 H 307.008 -3.24708 -2.62592 0
M  V30 3333 N 307.445 0.0818655 -1.57387 0
M  V30 3334 C 308.375 1.09885 -2.06028 0
M  V30 3335 C 309.356 1.4098 -0.951774 0
M  V30 3336 O 310.541 1.50781 -1.22387 0
M  V30 3337 C 307.671 2.4151 -2.4958 0
M  V30 3338 C 306.625 2.24792 -3.64215 0
M  V30 3339 C 305.951 3.61712 -3.93787 0
M  V30 3340 C 307.251 1.67749 -4.94629 0
M  V30 3341 H 308.945 0.694128 -2.91243 0
M  V30 3342 H 306.491 0.332448 -1.4011 0
M  V30 3343 H 308.444 3.12939 -2.82219 0
M  V30 3344 H 307.168 2.83943 -1.61381 0
M  V30 3345 H 305.827 1.55807 -3.31843 0
M  V30 3346 H 305.475 4.01697 -3.02735 0
M  V30 3347 H 305.175 3.51368 -4.70971 0
M  V30 3348 H 306.699 4.34587 -4.28913 0
M  V30 3349 H 308.113 2.29032 -5.25564 0
M  V30 3350 H 306.51 1.68128 -5.76067 0
M  V30 3351 H 307.58 0.638059 -4.80684 0
M  V30 3352 N 308.923 1.53595 0.353017 0
M  V30 3353 C 310.334 1.61937 0.929153 0
M  V30 3354 C 310.685 0.494686 1.89861 0
M  V30 3355 O 309.81 -0.377017 2.1309 0
M  V30 3356 C 310.405 2.93526 1.69199 0
M  V30 3357 C 308.964 3.04161 2.21727 0
M  V30 3358 C 308.111 2.57322 1.03348 0
M  V30 3359 H 311.062 1.58155 0.131431 0
M  V30 3360 H 311.083 2.82034 2.55416 0
M  V30 3361 H 310.595 3.75362 0.986144 0
M  V30 3362 H 308.696 2.26938 2.95516 0
M  V30 3363 H 308.809 4.09465 2.48748 0
M  V30 3364 H 307.173 2.12499 1.40414 0
M  V30 3365 H 307.956 3.41588 0.342428 0
M  V30 3366 N 310.401 -0.613514 1.45168 0
M  V30 3367 C 311.678 -1.37263 1.39349 0
M  V30 3368 C 312.058 -2.11012 0.0610848 0
M  V30 3369 O 311.406 -2.07502 -0.956825 0
M  V30 3370 C 311.616 -2.3244 2.60332 0
M  V30 3371 C 312.964 -2.9523 3.05163 0
M  V30 3372 O 313.988 -2.42762 2.60663 0
M  V30 3373 O 312.847 -3.90454 3.82372 0
M  V30 3374 H 309.941 -0.615188 0.552696 0
M  V30 3375 H 312.487 -0.637097 1.57287 0
M  V30 3376 H 311.259 -1.77164 3.48896 0
M  V30 3377 H 310.882 -3.13383 2.44698 0
M  V30 3378 N 311.879 -1.3236 -0.855495 0
M  V30 3379 C 312.789 -1.23221 -1.99634 0
M  V30 3380 C 313.805 -0.145983 -1.73387 0
M  V30 3381 O 314.981 -0.366502 -1.98037 0
M  V30 3382 C 312.046 -0.954782 -3.33294 0
M  V30 3383 C 311.107 -2.12937 -3.72769 0
M  V30 3384 C 310.34 -1.86508 -5.00051 0
M  V30 3385 O 310.563 -0.807231 -5.64659 0
M  V30 3386 O 309.497 -2.72591 -5.36636 0
M  V30 3387 H 313.323 -2.19126 -2.1028 0
M  V30 3388 H 310.908 -1.12241 -0.986018 0
M  V30 3389 H 312.79 -0.816519 -4.13414 0
M  V30 3390 H 311.465 -0.0258854 -3.2369 0
M  V30 3391 H 310.372 -2.3231 -2.93228 0
M  V30 3392 H 311.705 -3.04102 -3.87018 0
M  V30 3393 N 313.357 1.07166 -1.15556 0
M  V30 3394 C 314.634 1.76546 -0.842069 0
M  V30 3395 C 315.014 2.00453 0.661939 0
M  V30 3396 O 314.362 1.62452 1.60691 0
M  V30 3397 C 314.572 3.07266 -1.65495 0
M  V30 3398 C 315.92 3.81578 -1.86234 0
M  V30 3399 O 316.944 3.17083 -1.62287 0
M  V30 3400 O 315.803 4.97419 -2.26355 0
M  V30 3401 H 312.897 0.766756 -0.309862 0
M  V30 3402 H 315.443 1.13514 -1.26145 0
M  V30 3403 H 314.215 2.85494 -2.67598 0
M  V30 3404 H 313.838 3.7803 -1.23203 0
M  V30 3405 N 314.835 0.952656 1.25548 0
M  V30 3406 C 316.112 0.523818 1.88456 0
M  V30 3407 C 316.492 -0.998871 1.85973 0
M  V30 3408 O 315.84 -1.86381 1.3219 0
M  V30 3409 C 316.05 1.0982 3.31271 0
M  V30 3410 C 317.398 1.17385 4.08051 0
M  V30 3411 O 318.422 1.04961 3.40384 0
M  V30 3412 O 317.281 1.36852 5.29088 0
M  V30 3413 H 314.375 0.172485 0.808813 0
M  V30 3414 H 316.921 1.04596 1.33633 0
M  V30 3415 H 315.693 2.1415 3.27499 0
M  V30 3416 H 315.316 0.559191 3.93648 0
M  V30 3417 N 316.313 -1.40141 0.720998 0
M  V30 3418 C 317.59 -1.94677 0.189757 0
M  V30 3419 C 317.97 -1.65879 -1.30566 0
M  V30 3420 O 317.318 -0.979391 -2.06447 0
M  V30 3421 C 317.528 -3.45279 0.508304 0
M  V30 3422 C 318.876 -4.22209 0.449934 0
M  V30 3423 O 319.9 -3.53413 0.444677 0
M  V30 3424 O 318.759 -5.44788 0.432189 0
M  V30 3425 H 315.853 -0.826459 0.0299026 0
M  V30 3426 H 318.399 -1.49719 0.7989 0
M  V30 3427 H 317.171 -3.59619 1.54239 0
M  V30 3428 H 316.794 -3.97386 -0.130525 0
M  V30 3429 N 317.792 -0.46758 -1.50504 0
M  V30 3430 C 318.722 0.318381 -2.31319 0
M  V30 3431 C 319.703 0.993564 -1.38066 0
M  V30 3432 O 320.888 0.991411 -1.66987 0
M  V30 3433 C 318.018 1.40275 -3.17711 0
M  V30 3434 C 316.972 0.849373 -4.19487 0
M  V30 3435 C 316.298 2.03177 -4.94594 0
M  V30 3436 C 317.598 -0.136942 -5.2212 0
M  V30 3437 H 319.292 -0.356106 -2.97275 0
M  V30 3438 H 316.838 -0.172703 -1.42961 0
M  V30 3439 H 318.791 1.96004 -3.73042 0
M  V30 3440 H 317.515 2.10596 -2.49634 0
M  V30 3441 H 316.174 0.314076 -3.65252 0
M  V30 3442 H 315.822 2.72187 -4.22993 0
M  V30 3443 H 315.522 1.66774 -5.63436 0
M  V30 3444 H 317.046 2.59403 -5.52759 0
M  V30 3445 H 318.46 0.331056 -5.72343 0
M  V30 3446 H 316.857 -0.41507 -5.98663 0
M  V30 3447 H 317.927 -1.06398 -4.73083 0
M  V30 3448 O 319.309 1.5785 -0.341429 0
M  V30 3449 H 320 1.92508 0.21453 0
M  V30 END ATOM
M  V30 BEGIN BOND
M  V30 END BOND
M  V30 END CTAB
M  END
$$$$
