drugbank_target|P62955 Voltage-dependent calcium channel gamma-7 subunit (DB00153; DB00228; DB00421; DB11148; DB13746)
 OpenBabel12092120593D

  0  0  0     0  0            999 V3000
M  V30 BEGIN CTAB
M  V30 COUNTS 4333 4394 0 0 0
M  V30 BEGIN ATOM
M  V30 1 H -0.908 1.98254 -0.117106 0
M  V30 2 N 0 1.576 0 0
M  V30 3 C 0.933 2.03868 1.02534 0
M  V30 4 C 1.911 0.928543 1.3348 0
M  V30 5 O 3.095 1.19667 1.45644 0
M  V30 6 C 0.222 2.43627 2.35294 0
M  V30 7 C -0.732 3.65373 2.2001 0
M  V30 8 S 0.101 5.13292 1.52614 0
M  V30 9 C 1.257 5.56322 2.86805 0
M  V30 10 H 1.49 2.90518 0.631377 0
M  V30 11 H -0.977 1.52953 0.210867 0
M  V30 12 H 0.981 2.67203 3.11629 0
M  V30 13 H -0.358 1.57376 2.7183 0
M  V30 14 H -1.165 3.90944 3.18086 0
M  V30 15 H -1.563 3.418 1.51819 0
M  V30 16 H 0.729 5.58782 3.83104 0
M  V30 17 H 1.672 6.56266 2.65933 0
M  V30 18 H 2.08 4.83886 2.90714 0
M  V30 19 N 1.4781 -0.272755 1.55222 0
M  V30 20 C 2.7031 -1.02683 1.80197 0
M  V30 21 C 3.1281 -1.79142 0.573551 0
M  V30 22 O 2.4861 -1.74917 -0.476849 0
M  V30 23 C 2.5341 -1.9609 3.02624 0
M  V30 24 O 1.6381 -3.04863 2.77727 0
M  V30 25 H 0.9791 -0.293557 0.595584 0
M  V30 26 H 3.5091 -0.30159 2.02365 0
M  V30 27 H 3.5191 -2.38039 3.31363 0
M  V30 28 H 2.1941 -1.39851 3.91682 0
M  V30 29 H 0.7711 -2.67228 2.60084 0
M  V30 30 N 2.9562 -1.48159 -0.537278 0
M  V30 31 C 3.9062 -1.5854 -1.63857 0
M  V30 32 C 4.8902 -0.442969 -1.54682 0
M  V30 33 O 6.0822 -0.69401 -1.62827 0
M  V30 34 C 3.2112 -1.62144 -3.02596 0
M  V30 35 C 2.2972 -2.81841 -3.16901 0
M  V30 36 N 2.6882 -4.06337 -3.01204 0
M  V30 37 C 0.9862 -2.79021 -3.47942 0
M  V30 38 C 1.6872 -4.86606 -3.18731 0
M  V30 39 N 0.6632 -4.19288 -3.45974 0
M  V30 40 H 4.4652 -2.5255 -1.50319 0
M  V30 41 H 1.9792 -1.4443 -0.742555 0
M  V30 42 H 3.9762 -1.67674 -3.81695 0
M  V30 43 H 2.6362 -0.69245 -3.17231 0
M  V30 44 H 3.6472 -4.36888 -2.78117 0
M  V30 45 H 0.3242 -1.95347 -3.6898 0
M  V30 46 H 1.7142 -5.95385 -3.11394 0
M  V30 47 N 4.4343 0.785586 -1.36625 0
M  V30 48 C 5.6743 1.55678 -1.32453 0
M  V30 49 C 6.0383 1.91769 0.0941089 0
M  V30 50 O 7.2393 2.67536 0.26042 0
M  V30 51 C 5.5103 2.79701 -2.22491 0
M  V30 52 S 7.0693 3.69907 -2.36038 0
M  V30 53 H 3.8873 0.533141 -0.470405 0
M  V30 54 H 6.4893 0.924953 -1.72235 0
M  V30 55 H 5.1933 2.51244 -3.24507 0
M  V30 56 H 4.7243 3.47854 -1.83742 0
M  V30 57 H 6.7393 4.71016 -1.56072 0
M  V30 58 N 5.9124 1.20967 1.01018 0
M  V30 59 C 7.1374 1.0503 1.78839 0
M  V30 60 C 7.5624 -0.395752 1.8389 0
M  V30 61 O 6.9204 -1.28529 1.27867 0
M  V30 62 C 6.9684 1.64602 3.2084 0
M  V30 63 O 6.0724 0.887988 4.02726 0
M  V30 64 H 5.4134 0.369987 0.551367 0
M  V30 65 H 7.9434 1.60399 1.27018 0
M  V30 66 H 7.9534 1.68607 3.71532 0
M  V30 67 H 6.6284 2.69841 3.16479 0
M  V30 68 H 5.2054 0.922648 3.61305 0
M  V30 69 N 7.3905 -1.2043 1.01659 0
M  V30 70 C 8.6155 -1.94318 0.724942 0
M  V30 71 C 9.0405 -1.74266 -0.708034 0
M  V30 72 O 8.3985 -1.03694 -1.48719 0
M  V30 73 C 8.4465 -3.44486 1.06591 0
M  V30 74 O 7.5505 -4.12017 0.177599 0
M  V30 75 H 6.8915 -0.60708 0.26898 0
M  V30 76 H 9.4215 -1.52861 1.35995 0
M  V30 77 H 9.4315 -3.95106 1.01762 0
M  V30 78 H 8.1065 -3.58404 2.10997 0
M  V30 79 H 6.6835 -3.71821 0.283421 0
M  V30 80 N 8.8686 -0.792821 -1.36206 0
M  V30 81 C 10.2846 -0.474903 -1.52371 0
M  V30 82 C 10.4846 1.00622 -1.74578 0
M  V30 83 O 9.5406 1.79162 -1.77924 0
M  V30 84 C 10.8536 -1.3083 -2.70747 0
M  V30 85 C 12.4016 -1.30234 -2.84619 0
M  V30 86 C 12.8766 -2.11956 -4.06004 0
M  V30 87 N 14.3676 -2.09419 -4.13156 0
M  V30 88 C 15.1026 -2.69419 -5.06163 0
M  V30 89 N 14.5986 -3.3829 -6.04592 0
M  V30 90 N 16.3916 -2.59134 -4.98804 0
M  V30 91 H 8.5426 -1.75222 -1.20046 0
M  V30 92 H 10.8056 -0.745024 -0.586211 0
M  V30 93 H 10.5116 -2.35881 -2.6087 0
M  V30 94 H 10.3856 -0.95196 -3.6499 0
M  V30 95 H 12.7726 -0.259748 -2.93955 0
M  V30 96 H 12.8536 -1.69847 -1.91274 0
M  V30 97 H 12.4976 -3.16248 -3.97429 0
M  V30 98 H 12.4276 -1.69711 -4.98503 0
M  V30 99 H 14.9186 -1.59297 -3.42685 0
M  V30 100 H 15.2316 -3.81394 -6.7213 0
M  V30 101 H 13.5766 -3.42393 -6.04807 0
M  V30 102 H 16.7676 -2.04927 -4.20859 0
M  V30 103 H 16.9406 -3.06185 -5.711 0
M  V30 104 N 10.3467 1.47872 -0.545128 0
M  V30 105 C 11.3097 2.28337 0.198717 0
M  V30 106 C 12.3097 1.36255 0.853888 0
M  V30 107 O 13.4997 1.59003 0.711606 0
M  V30 108 C 10.6317 3.15585 1.28915 0
M  V30 109 H 11.8247 2.95567 -0.507941 0
M  V30 110 H 9.3777 1.53362 -0.301616 0
M  V30 111 H 10.1127 2.53019 2.02859 0
M  V30 112 H 9.8977 3.83337 0.824309 0
M  V30 113 H 11.3877 3.76243 1.81194 0
M  V30 114 N 11.8248 0.280983 1.55075 0
M  V30 115 C 12.7548 -0.597469 2.25727 0
M  V30 116 C 13.7358 -1.15417 1.24952 0
M  V30 117 O 14.9208 -1.18722 1.53684 0
M  V30 118 C 12.0508 -1.7789 2.98283 0
M  V30 119 C 11.0048 -1.35347 4.06036 0
M  V30 120 C 10.3308 -2.61846 4.66198 0
M  V30 121 C 11.6308 -0.499354 5.19907 0
M  V30 122 H 13.3248 -0.00824265 2.99399 0
M  V30 123 H 10.8708 -0.0025244 1.44 0
M  V30 124 H 12.8238 -2.39937 3.46422 0
M  V30 125 H 11.5478 -2.39405 2.22155 0
M  V30 126 H 10.2068 -0.756156 3.58717 0
M  V30 127 H 9.8548 -3.21632 3.86732 0
M  V30 128 H 9.5548 -2.3409 5.38958 0
M  V30 129 H 11.0788 -3.24732 5.1709 0
M  V30 130 H 12.4928 -1.02498 5.64063 0
M  V30 131 H 10.8898 -0.316424 5.99265 0
M  V30 132 H 11.9598 0.480459 4.82514 0
M  V30 133 N 13.3029 -1.57598 0.00835791 0
M  V30 134 C 14.5309 -1.95214 -0.68549 0
M  V30 135 C 14.9459 -0.883706 -1.66841 0
M  V30 136 O 14.3029 0.136565 -1.81988 0
M  V30 137 C 14.3539 -3.32865 -1.41007 0
M  V30 138 O 14.0749 -4.35609 -0.466552 0
M  V30 139 C 15.5759 -3.84991 -2.19765 0
M  V30 140 H 12.7959 -0.643422 -0.190392 0
M  V30 141 H 15.3399 -2.04406 0.0619607 0
M  V30 142 H 13.4949 -3.24956 -2.10908 0
M  V30 143 H 13.9089 -5.15288 -0.978699 0
M  V30 144 H 15.3829 -4.8371 -2.65948 0
M  V30 145 H 15.8599 -3.18137 -3.02796 0
M  V30 146 H 16.4659 -3.96103 -1.54864 0
M  V30 147 N 14.781 0.264519 -1.55364 0
M  V30 148 C 15.711 1.33121 -1.91836 0
M  V30 149 C 16.692 1.51101 -0.781192 0
M  V30 150 O 17.877 1.64003 -1.04003 0
M  V30 151 C 15.007 2.68921 -2.19769 0
M  V30 152 C 13.961 2.65661 -3.35571 0
M  V30 153 C 13.287 4.05093 -3.49004 0
M  V30 154 C 14.587 2.24187 -4.71739 0
M  V30 155 H 16.281 1.02844 -2.81182 0
M  V30 156 H 13.827 0.493286 -1.35287 0
M  V30 157 H 15.78 3.43663 -2.43872 0
M  V30 158 H 14.504 3.00799 -1.27231 0
M  V30 159 H 13.163 1.93377 -3.1145 0
M  V30 160 H 12.811 4.34206 -2.53917 0
M  V30 161 H 12.511 4.03804 -4.26868 0
M  V30 162 H 14.035 4.81561 -3.75408 0
M  V30 163 H 15.449 2.88654 -4.9533 0
M  V30 164 H 13.846 2.34044 -5.52579 0
M  V30 165 H 14.916 1.19327 -4.69988 0
M  V30 166 N 16.2591 1.48442 0.529413 0
M  V30 167 C 17.1891 1.65902 1.64313 0
M  V30 168 C 18.1701 0.507897 1.6234 0
M  V30 169 O 19.3551 0.740503 1.79528 0
M  V30 170 C 16.4851 1.69911 3.02898 0
M  V30 171 C 15.4391 2.8453 3.19729 0
M  V30 172 C 14.7651 2.73629 4.59381 0
M  V30 173 C 16.0651 4.25821 3.02447 0
M  V30 174 H 17.7591 2.5914 1.49955 0
M  V30 175 H 15.3051 1.24709 0.719982 0
M  V30 176 H 17.2581 1.80715 3.80684 0
M  V30 177 H 15.9821 0.732524 3.18279 0
M  V30 178 H 14.6411 2.73283 2.44361 0
M  V30 179 H 14.2891 1.74938 4.71599 0
M  V30 180 H 13.9891 3.50541 4.71588 0
M  V30 181 H 15.5131 2.86401 5.39265 0
M  V30 182 H 16.9271 4.37898 3.70024 0
M  V30 183 H 15.3241 5.03735 3.26146 0
M  V30 184 H 16.3941 4.42244 1.98867 0
M  V30 185 N 17.7372 -0.778329 1.37039 0
M  V30 186 C 18.9622 -1.57248 1.35233 0
M  V30 187 C 19.3872 -1.87999 -0.0615568 0
M  V30 188 O 18.7452 -1.48734 -1.03672 0
M  V30 189 C 18.7932 -2.86353 2.19167 0
M  V30 190 O 17.8972 -3.80442 1.59178 0
M  V30 191 H 17.2382 -0.476569 0.462362 0
M  V30 192 H 19.7682 -0.963853 1.80474 0
M  V30 193 H 19.7782 -3.35519 2.32145 0
M  V30 194 H 18.4532 -2.63299 3.21942 0
M  V30 195 H 17.0302 -3.39067 1.55203 0
M  V30 196 N 19.2153 -1.21501 -1.00376 0
M  V30 197 C 20.4403 -1.05977 -1.78279 0
M  V30 198 C 20.8653 0.385994 -1.84097 0
M  V30 199 O 20.2233 1.27849 -1.28547 0
M  V30 200 C 20.2713 -1.66302 -3.19963 0
M  V30 201 O 19.3753 -0.909333 -4.0225 0
M  V30 202 H 18.7163 -0.372906 -0.549397 0
M  V30 203 H 21.2463 -1.6107 -1.26165 0
M  V30 204 H 21.2563 -1.70574 -3.70632 0
M  V30 205 H 19.9313 -2.71515 -3.15043 0
M  V30 206 H 18.5083 -0.941795 -3.60811 0
M  V30 207 N 20.6934 1.19889 -1.02296 0
M  V30 208 C 21.9394 1.89701 -0.717033 0
M  V30 209 C 22.2724 1.7905 0.751989 0
M  V30 210 O 21.5474 1.17891 1.547 0
M  V30 211 C 21.8304 3.40858 -1.16136 0
M  V30 212 C 21.6834 3.60411 -2.69117 0
M  V30 213 C 23.0024 4.33876 -0.737549 0
M  V30 214 H 20.1214 0.688874 -0.261957 0
M  V30 215 H 22.7634 1.41154 -1.27183 0
M  V30 216 H 20.9134 3.82335 -0.689342 0
M  V30 217 H 22.5854 3.28145 -3.2422 0
M  V30 218 H 20.8284 3.03665 -3.0979 0
M  V30 219 H 21.4994 4.66396 -2.95261 0
M  V30 220 H 23.9754 4.00081 -1.14344 0
M  V30 221 H 22.8514 5.38242 -1.0764 0
M  V30 222 H 23.1124 4.40628 0.360436 0
M  V30 223 N 22.1715 0.800033 1.35784 0
M  V30 224 C 23.4185 0.377342 1.98953 0
M  V30 225 C 23.7465 -1.05378 1.6348 0
M  V30 226 O 23.0015 -1.74459 0.886707 0
M  V30 227 C 23.3005 0.500276 3.53881 0
M  V30 228 C 22.9665 1.89375 4.09204 0
M  V30 229 C 21.6285 2.27499 4.24025 0
M  V30 230 C 23.9805 2.8057 4.39238 0
M  V30 231 C 21.3085 3.562 4.66195 0
M  V30 232 C 23.6605 4.0871 4.82844 0
M  V30 233 C 22.3245 4.46843 4.95871 0
M  V30 234 H 21.5945 0.138079 0.728021 0
M  V30 235 H 24.2415 1.01955 1.62103 0
M  V30 236 H 22.5465 -0.225405 3.91151 0
M  V30 237 H 24.2435 0.154097 4.00704 0
M  V30 238 H 20.8335 1.58753 3.98115 0
M  V30 239 H 25.0175 2.52367 4.27346 0
M  V30 240 H 20.2735 3.85602 4.74469 0
M  V30 241 H 24.4475 4.79481 5.05046 0
M  V30 242 H 22.0745 5.46623 5.28306 0
M  V30 243 N 23.6496 -1.47581 0.552962 0
M  V30 244 C 24.8976 -2.02082 0.0272703 0
M  V30 245 C 25.2186 -1.4301 -1.32563 0
M  V30 246 O 24.4886 -0.603745 -1.86365 0
M  V30 247 H 23.0686 -0.746966 0.00709182 0
M  V30 248 H 25.7306 -1.81033 0.722008 0
M  V30 249 H 24.8266 -3.12034 -0.0639951 0
M  V30 250 N 25.1277 -0.289203 -1.54924 0
M  V30 251 C 26.0907 0.579144 -2.21762 0
M  V30 252 C 27.0907 1.07047 -1.1999 0
M  V30 253 O 28.2807 0.968384 -1.44803 0
M  V30 254 C 25.4127 1.80055 -2.8947 0
M  V30 255 H 26.6057 -0.00464908 -2.999 0
M  V30 256 H 24.1587 -0.0399306 -1.56249 0
M  V30 257 H 24.8937 2.42449 -2.15381 0
M  V30 258 H 24.6787 1.45602 -3.64064 0
M  V30 259 H 26.1687 2.41773 -3.40493 0
M  V30 260 N 26.6058 1.57591 -0.0167156 0
M  V30 261 C 27.8458 1.93145 0.668902 0
M  V30 262 C 28.2098 0.892406 1.7 0
M  V30 263 O 29.4108 1.13373 2.43721 0
M  V30 264 C 27.6818 3.33678 1.28039 0
M  V30 265 S 29.2408 3.91142 1.9888 0
M  V30 266 H 26.0588 0.67593 0.220545 0
M  V30 267 H 28.6608 1.95347 -0.0774105 0
M  V30 268 H 27.3648 4.07126 0.517339 0
M  V30 269 H 26.8958 3.3489 2.06427 0
M  V30 270 H 28.9108 3.73571 3.26587 0
M  V30 271 N 28.0839 -0.256276 1.55502 0
M  V30 272 C 29.3319 -0.983672 1.76545 0
M  V30 273 C 29.6529 -1.86206 0.578982 0
M  V30 274 O 28.9229 -1.91656 -0.405577 0
M  V30 275 H 27.5029 -0.366191 0.651086 0
M  V30 276 H 30.1649 -0.276479 1.92929 0
M  V30 277 H 29.2609 -1.61087 2.67315 0
M  V30 278 N 29.562 -1.4872 -0.521534 0
M  V30 279 C 30.492 -1.66771 -1.63431 0
M  V30 280 C 31.473 -0.516499 -1.62069 0
M  V30 281 O 32.658 -0.750013 -1.79132 0
M  V30 282 C 29.788 -1.71515 -3.01993 0
M  V30 283 C 28.742 -2.86222 -3.18216 0
M  V30 284 C 28.068 -2.76061 -4.57924 0
M  V30 285 C 29.368 -4.27419 -3.00184 0
M  V30 286 H 31.062 -2.59932 -1.48579 0
M  V30 287 H 28.608 -1.25089 -0.713358 0
M  V30 288 H 30.561 -1.82731 -3.7972 0
M  V30 289 H 29.285 -0.749393 -3.17886 0
M  V30 290 H 27.944 -2.74575 -2.42908 0
M  V30 291 H 27.592 -1.77437 -4.70665 0
M  V30 292 H 27.292 -3.53037 -4.69722 0
M  V30 293 H 28.816 -2.89256 -5.37739 0
M  V30 294 H 30.23 -4.39855 -3.67697 0
M  V30 295 H 28.627 -5.05458 -3.2347 0
M  V30 296 H 29.697 -4.43293 -1.96518 0
M  V30 297 N 31.0401 0.771051 -1.3745 0
M  V30 298 C 31.9701 1.89827 -1.3597 0
M  V30 299 C 32.9511 1.68562 -0.228216 0
M  V30 300 O 34.1361 1.8941 -0.428675 0
M  V30 301 C 31.2661 3.2712 -1.16662 0
M  V30 302 C 30.2201 3.6295 -2.2683 0
M  V30 303 C 29.5461 4.98791 -1.92644 0
M  V30 304 C 30.8461 3.69627 -3.69017 0
M  V30 305 H 32.5401 1.91323 -2.30295 0
M  V30 306 H 30.0861 0.919082 -1.10855 0
M  V30 307 H 32.0391 4.05615 -1.14256 0
M  V30 308 H 30.7631 3.26059 -0.187926 0
M  V30 309 H 29.4221 2.86763 -2.28392 0
M  V30 310 H 29.0701 4.94271 -0.933021 0
M  V30 311 H 28.7701 5.23733 -2.66416 0
M  V30 312 H 30.2941 5.79685 -1.91826 0
M  V30 313 H 31.7081 4.38273 -3.69581 0
M  V30 314 H 30.1051 4.06067 -4.41848 0
M  V30 315 H 31.1751 2.70273 -4.02592 0
M  V30 316 N 32.5182 1.22032 0.997298 0
M  V30 317 C 33.4482 1.01065 2.10495 0
M  V30 318 C 34.4292 -0.0669542 1.69968 0
M  V30 319 O 35.6142 0.0943987 1.9397 0
M  V30 320 C 32.7442 0.582874 3.42374 0
M  V30 321 C 31.6982 1.60592 3.96729 0
M  V30 322 C 31.0242 1.03412 5.24605 0
M  V30 323 C 32.3242 2.99478 4.27914 0
M  V30 324 H 34.0182 1.93708 2.28292 0
M  V30 325 H 31.5642 0.932761 1.09707 0
M  V30 326 H 33.5172 0.423332 4.19268 0
M  V30 327 H 32.2412 -0.379213 3.24391 0
M  V30 328 H 30.9002 1.75316 3.21963 0
M  V30 329 H 30.5482 0.063518 5.0296 0
M  V30 330 H 30.2482 1.71754 5.61938 0
M  V30 331 H 31.7722 0.886066 6.04137 0
M  V30 332 H 33.1862 2.88153 4.95622 0
M  V30 333 H 31.5832 3.64903 4.76409 0
M  V30 334 H 32.6532 3.49742 3.3587 0
M  V30 335 N 33.9963 -1.19345 1.0293 0
M  V30 336 C 35.2423 -1.89318 0.727083 0
M  V30 337 C 35.5753 -1.79446 -0.742483 0
M  V30 338 O 34.8503 -1.1871 -1.54072 0
M  V30 339 C 35.1333 -3.40238 1.17942 0
M  V30 340 C 34.9863 -3.58979 2.71024 0
M  V30 341 C 36.3053 -4.33479 0.760548 0
M  V30 342 H 33.4243 -0.687475 0.265606 0
M  V30 343 H 36.0663 -1.40477 1.2793 0
M  V30 344 H 34.2163 -3.81964 0.709608 0
M  V30 345 H 35.8883 -3.26421 3.25955 0
M  V30 346 H 34.1313 -3.02018 3.11396 0
M  V30 347 H 34.8023 -4.64823 2.9773 0
M  V30 348 H 37.2783 -3.99469 1.16464 0
M  V30 349 H 36.1543 -5.37664 1.10493 0
M  V30 350 H 36.4153 -4.40813 -0.337063 0
M  V30 351 N 35.4744 -0.807222 -1.35358 0
M  V30 352 C 36.7224 -0.387122 -1.98358 0
M  V30 353 C 37.0434 1.04942 -1.64354 0
M  V30 354 O 36.3134 1.72615 -0.926339 0
M  V30 355 H 34.8934 -0.140154 -0.733734 0
M  V30 356 H 37.5554 -1.0332 -1.6526 0
M  V30 357 H 36.6514 -0.493352 -3.08176 0
M  V30 358 N 36.9525 1.47285 -0.560781 0
M  V30 359 C 38.2015 2.01668 -0.035895 0
M  V30 360 C 38.5145 1.44021 1.32353 0
M  V30 361 O 39.7205 1.90088 1.93853 0
M  V30 362 C 38.1765 3.59897 -0.0136659 0
M  V30 363 C 37.7845 4.26536 -1.37006 0
M  V30 364 C 39.5285 4.22017 0.458425 0
M  V30 365 C 37.4355 5.76782 -1.30675 0
M  V30 366 H 36.3655 0.753938 -0.00964879 0
M  V30 367 H 39.0165 1.69243 -0.709166 0
M  V30 368 H 37.3985 3.89301 0.725325 0
M  V30 369 H 38.5725 4.0877 -2.12705 0
M  V30 370 H 36.8875 3.76419 -1.78038 0
M  V30 371 H 39.4845 5.32124 0.524247 0
M  V30 372 H 39.8275 3.89437 1.4712 0
M  V30 373 H 40.3605 3.97159 -0.225818 0
M  V30 374 H 37.0995 6.13988 -2.29564 0
M  V30 375 H 36.6195 5.96875 -0.591622 0
M  V30 376 H 38.2985 6.39063 -1.01033 0
M  V30 377 N 38.4306 0.297415 1.54768 0
M  V30 378 C 39.3936 -0.567375 2.22066 0
M  V30 379 C 40.3936 -1.06409 1.20556 0
M  V30 380 O 41.5836 -0.960691 1.45315 0
M  V30 381 C 38.7156 -1.78517 2.90421 0
M  V30 382 H 39.9086 0.0205534 2.99893 0
M  V30 383 H 37.4616 0.0482163 1.56226 0
M  V30 384 H 38.1966 -2.41303 2.16664 0
M  V30 385 H 37.9816 -1.43669 3.64831 0
M  V30 386 H 39.4716 -2.39964 3.41771 0
M  V30 387 N 39.9087 -1.5758 0.0250728 0
M  V30 388 C 41.1547 -1.91917 -0.655413 0
M  V30 389 C 41.4877 -0.901433 -1.72011 0
M  V30 390 O 40.7627 0.0764069 -1.9435 0
M  V30 391 C 41.0457 -3.36751 -1.27558 0
M  V30 392 C 40.8987 -4.49258 -0.220719 0
M  V30 393 C 42.2177 -3.81469 -2.19475 0
M  V30 394 H 39.3367 -0.697925 -0.23679 0
M  V30 395 H 41.9787 -1.89825 0.0815036 0
M  V30 396 H 40.1287 -3.38664 -1.90365 0
M  V30 397 H 41.8007 -4.59478 0.409601 0
M  V30 398 H 40.0437 -4.31415 0.454264 0
M  V30 399 H 40.7147 -5.47618 -0.694175 0
M  V30 400 H 43.1907 -3.81266 -1.66659 0
M  V30 401 H 42.0667 -4.83512 -2.59822 0
M  V30 402 H 42.3277 -3.16744 -3.08424 0
M  V30 403 N 41.3868 0.248026 -1.55636 0
M  V30 404 C 42.6118 0.998028 -1.81808 0
M  V30 405 C 43.0368 1.78207 -0.601979 0
M  V30 406 O 42.3948 1.75653 0.448961 0
M  V30 407 C 42.4428 1.9125 -3.05705 0
M  V30 408 O 41.5468 3.00406 -2.82542 0
M  V30 409 H 40.8878 0.284045 -0.600179 0
M  V30 410 H 43.4178 0.269357 -2.02819 0
M  V30 411 H 43.4278 2.32737 -3.35108 0
M  V30 412 H 42.1028 1.33602 -3.93857 0
M  V30 413 H 40.6798 2.63056 -2.64303 0
M  V30 414 N 42.8649 1.48995 0.513639 0
M  V30 415 C 44.0929 1.61531 1.29288 0
M  V30 416 C 44.5079 0.281801 1.86685 0
M  V30 417 O 43.8649 -0.731111 1.67215 0
M  V30 418 C 43.9159 2.67449 2.43215 0
M  V30 419 O 43.6369 3.95626 1.88179 0
M  V30 420 C 45.1379 2.90575 3.34785 0
M  V30 421 H 42.3579 0.544165 0.392588 0
M  V30 422 H 44.9019 1.9494 0.617956 0
M  V30 423 H 43.0569 2.36853 3.0656 0
M  V30 424 H 43.4709 4.53868 2.62876 0
M  V30 425 H 44.9449 3.68449 4.11035 0
M  V30 426 H 45.4219 2.00011 3.91015 0
M  V30 427 H 46.0279 3.22538 2.77218 0
M  V30 428 N 44.343 -0.763751 1.37857 0
M  V30 429 C 45.62 -1.51244 1.24035 0
M  V30 430 C 46 -2.10472 -0.162649 0
M  V30 431 O 45.348 -1.96206 -1.17112 0
M  V30 432 C 45.558 -2.58694 2.34261 0
M  V30 433 C 46.906 -3.25878 2.72193 0
M  V30 434 O 47.93 -2.68993 2.33497 0
M  V30 435 O 46.789 -4.2874 3.38887 0
M  V30 436 H 43.883 -0.670243 0.484462 0
M  V30 437 H 46.429 -0.800031 1.49658 0
M  V30 438 H 45.201 -2.13105 3.2818 0
M  V30 439 H 44.824 -3.37527 2.10146 0
M  V30 440 N 45.8211 -1.22559 -0.990812 0
M  V30 441 C 47.0511 -1.07623 -1.76355 0
M  V30 442 C 47.4591 0.37601 -1.85426 0
M  V30 443 O 46.8021 1.27228 -1.32509 0
M  V30 444 C 46.8641 -1.61507 -3.21179 0
M  V30 445 C 46.5281 -3.10146 -3.35646 0
M  V30 446 C 47.5251 -4.07553 -3.22796 0
M  V30 447 C 45.2101 -3.49644 -3.60631 0
M  V30 448 C 47.2041 -5.42442 -3.34716 0
M  V30 449 C 44.8911 -4.84682 -3.72192 0
M  V30 450 C 45.8891 -5.8089 -3.59243 0
M  V30 451 O 45.5771 -7.13476 -3.70415 0
M  V30 452 H 45.3091 -0.377745 -0.560611 0
M  V30 453 H 47.8631 -1.62658 -1.25425 0
M  V30 454 H 46.0931 -1.00881 -3.73309 0
M  V30 455 H 47.7821 -1.42202 -3.80175 0
M  V30 456 H 48.5481 -3.78381 -3.03403 0
M  V30 457 H 44.4271 -2.75282 -3.69785 0
M  V30 458 H 47.9711 -6.17518 -3.24526 0
M  V30 459 H 43.8681 -5.13534 -3.91092 0
M  V30 460 H 44.6361 -7.21083 -3.87275 0
M  V30 461 N 47.2992 1.18797 -1.03562 0
M  V30 462 C 48.5452 1.89192 -0.746867 0
M  V30 463 C 48.9002 1.78531 0.717245 0
M  V30 464 O 48.1932 1.17137 1.51622 0
M  V30 465 C 48.3872 3.38692 -1.14117 0
M  V30 466 C 48.2162 3.63902 -2.64207 0
M  V30 467 C 46.9862 3.81553 -3.31279 0
M  V30 468 C 49.1842 3.64903 -3.62423 0
M  V30 469 N 47.1662 3.94455 -4.70402 0
M  V30 470 C 48.5372 3.83458 -4.87196 0
M  V30 471 C 50.5922 3.47965 -3.56125 0
M  V30 472 C 49.2952 3.86829 -6.06429 0
M  V30 473 C 51.3212 3.52616 -4.7478 0
M  V30 474 C 50.6832 3.71663 -5.9837 0
M  V30 475 H 46.7822 0.711141 -0.325273 0
M  V30 476 H 49.3662 1.42727 -1.32428 0
M  V30 477 H 47.5372 3.83864 -0.591889 0
M  V30 478 H 49.2692 3.96634 -0.803966 0
M  V30 479 H 46.0242 3.80723 -2.81686 0
M  V30 480 H 46.4482 4.0474 -5.42692 0
M  V30 481 H 51.0902 3.32189 -2.61553 0
M  V30 482 H 48.8082 4.01395 -7.01362 0
M  V30 483 H 52.3942 3.40791 -4.71543 0
M  V30 484 H 51.2742 3.75145 -6.88648 0
M  V30 485 N 48.7773 0.814389 1.34928 0
M  V30 486 C 49.7073 0.244827 2.32213 0
M  V30 487 C 50.6883 -0.634024 1.57842 0
M  V30 488 O 51.8733 -0.562676 1.8587 0
M  V30 489 C 49.0033 -0.601106 3.42058 0
M  V30 490 C 47.9573 0.179896 4.27622 0
M  V30 491 C 47.2833 -0.788237 5.28858 0
M  V30 492 C 48.5833 1.38329 5.03649 0
M  V30 493 H 50.2773 1.05763 2.80097 0
M  V30 494 H 47.8233 0.510029 1.34665 0
M  V30 495 H 49.7763 -1.00968 4.09125 0
M  V30 496 H 48.5003 -1.44688 2.92802 0
M  V30 497 H 47.1593 0.569739 3.62146 0
M  V30 498 H 46.8073 -1.62973 4.75866 0
M  V30 499 H 46.5073 -0.269942 5.8698 0
M  V30 500 H 48.0313 -1.19485 5.98795 0
M  V30 501 H 49.4453 1.04918 5.63618 0
M  V30 502 H 47.8423 1.83662 5.71304 0
M  V30 503 H 48.9123 2.16592 4.33839 0
M  V30 504 N 50.2554 -1.46986 0.568584 0
M  V30 505 C 51.4854 -2.0653 0.0539173 0
M  V30 506 C 51.8934 -1.42004 -1.25026 0
M  V30 507 O 51.2364 -0.514541 -1.76347 0
M  V30 508 C 51.2984 -3.58938 -0.200854 0
M  V30 509 C 50.9624 -4.45572 1.01559 0
M  V30 510 C 51.9594 -4.82986 1.92407 0
M  V30 511 C 49.6444 -4.8692 1.23346 0
M  V30 512 C 51.6384 -5.60559 3.03402 0
M  V30 513 C 49.3254 -5.64255 2.34649 0
M  V30 514 C 50.3234 -6.00986 3.24507 0
M  V30 515 O 50.0114 -6.76761 4.33878 0
M  V30 516 H 49.7434 -0.674292 0.0480234 0
M  V30 517 H 52.2974 -1.89812 0.784896 0
M  V30 518 H 50.5274 -3.73911 -0.986279 0
M  V30 519 H 52.2164 -4.0046 -0.662294 0
M  V30 520 H 52.9824 -4.51633 1.76785 0
M  V30 521 H 48.8614 -4.57789 0.543178 0
M  V30 522 H 52.4054 -5.89147 3.73565 0
M  V30 523 H 48.3024 -5.95021 2.5024 0
M  V30 524 H 49.0704 -6.95168 4.32068 0
M  V30 525 N 51.7335 -0.305618 -1.54608 0
M  V30 526 C 52.6665 0.610536 -2.19881 0
M  V30 527 C 53.6445 1.1294 -1.16976 0
M  V30 528 O 54.8285 1.19673 -1.45638 0
M  V30 529 C 51.9555 1.83583 -2.84631 0
M  V30 530 C 51.0015 1.4498 -4.01102 0
M  V30 531 S 51.8345 0.501793 -5.33144 0
M  V30 532 C 52.9905 1.73478 -6.01379 0
M  V30 533 H 53.2235 0.0560177 -2.97247 0
M  V30 534 H 50.7565 -0.0897434 -1.54139 0
M  V30 535 H 52.7145 2.53898 -3.22562 0
M  V30 536 H 51.3755 2.36152 -2.07102 0
M  V30 537 H 50.5685 2.36236 -4.45206 0
M  V30 538 H 50.1705 0.826553 -3.64752 0
M  V30 539 H 52.4625 2.67473 -6.22467 0
M  V30 540 H 53.4055 1.33622 -6.95378 0
M  V30 541 H 53.8135 1.9136 -5.31076 0
M  V30 542 N 53.2116 1.57565 -0.0334293 0
M  V30 543 C 54.1216 2.13943 0.962572 0
M  V30 544 C 55.1376 1.09276 1.35406 0
M  V30 545 O 56.3136 1.41355 1.4346 0
M  V30 546 C 53.3786 2.65887 2.22497 0
M  V30 547 C 52.4396 3.85286 1.8935 0
M  V30 548 C 51.6726 4.34743 3.09571 0
M  V30 549 O 51.8956 3.83352 4.22371 0
M  V30 550 O 50.8296 5.26538 2.91618 0
M  V30 551 H 54.6556 2.99333 0.513169 0
M  V30 552 H 52.2406 1.4822 0.18743 0
M  V30 553 H 54.1226 2.99346 2.96598 0
M  V30 554 H 52.7976 1.83578 2.6661 0
M  V30 555 H 51.7046 3.56746 1.1262 0
M  V30 556 H 53.0376 4.68771 1.5005 0
M  V30 557 N 54.6897 -0.239769 1.55765 0
M  V30 558 C 55.5997 -1.31831 1.94056 0
M  V30 559 C 56.6157 -1.52275 0.841925 0
M  V30 560 O 57.7917 -1.65759 1.14394 0
M  V30 561 C 54.8567 -2.65156 2.23368 0
M  V30 562 C 53.9177 -2.53173 3.46701 0
M  V30 563 C 53.1507 -3.8014 3.74606 0
M  V30 564 O 53.3737 -4.82343 3.04469 0
M  V30 565 O 52.3077 -3.78344 4.68123 0
M  V30 566 H 56.1337 -1.02347 2.85935 0
M  V30 567 H 53.7187 -0.441123 1.42739 0
M  V30 568 H 55.6007 -3.43929 2.43497 0
M  V30 569 H 54.2757 -2.94358 1.34666 0
M  V30 570 H 53.1827 -1.72662 3.31871 0
M  V30 571 H 54.5157 -2.28915 4.35728 0
M  V30 572 N 56.1678 -1.49265 -0.50573 0
M  V30 573 C 57.4158 -1.582 -1.25766 0
M  V30 574 C 57.7368 -0.268482 -1.93143 0
M  V30 575 O 57.0068 0.711833 -1.8251 0
M  V30 576 H 55.5868 -0.582873 -0.467191 0
M  V30 577 H 58.2488 -1.85865 -0.586525 0
M  V30 578 H 57.3448 -2.37563 -2.02412 0
M  V30 579 N 57.6459 0.756429 -1.3826 0
M  V30 580 C 58.8739 1.54565 -1.3754 0
M  V30 581 C 59.2889 1.88767 0.0355331 0
M  V30 582 O 58.6459 1.52572 1.0014 0
M  V30 583 C 58.6969 2.84654 -2.22833 0
M  V30 584 O 58.4179 2.51912 -3.5843 0
M  V30 585 C 59.9189 3.78807 -2.30261 0
M  V30 586 H 57.1389 0.478353 -0.470553 0
M  V30 587 H 59.6829 0.936381 -1.81803 0
M  V30 588 H 57.8379 3.41965 -1.8204 0
M  V30 589 H 58.2519 3.35325 -4.03308 0
M  V30 590 H 59.7259 4.67045 -2.94233 0
M  V30 591 H 60.2029 4.19038 -1.31545 0
M  V30 592 H 60.8089 3.2742 -2.71433 0
M  V30 593 N 59.124 1.23083 0.984299 0
M  V30 594 C 60.37 1.06214 1.72761 0
M  V30 595 C 60.703 -0.400584 1.90024 0
M  V30 596 O 59.978 -1.29672 1.44967 0
M  V30 597 C 60.261 1.78375 3.12817 0
M  V30 598 C 60.114 3.32296 3.03149 0
M  V30 599 C 61.433 1.54309 4.12161 0
M  V30 600 H 58.552 0.387251 0.627061 0
M  V30 601 H 61.194 1.51536 1.14616 0
M  V30 602 H 59.344 1.39848 3.62457 0
M  V30 603 H 61.016 3.8032 2.61064 0
M  V30 604 H 59.259 3.6153 2.39747 0
M  V30 605 H 59.93 3.77972 4.02295 0
M  V30 606 H 62.406 1.87791 3.71314 0
M  V30 607 H 61.282 2.07281 5.08258 0
M  V30 608 H 61.543 0.477572 4.39513 0
M  V30 609 N 60.6021 -1.18246 1.0419 0
M  V30 610 C 61.5321 -2.24127 0.654914 0
M  V30 611 C 62.5131 -1.66617 -0.342451 0
M  V30 612 O 63.6981 -1.92924 -0.222277 0
M  V30 613 C 60.8281 -3.47295 0.0183757 0
M  V30 614 C 59.7821 -4.17563 0.939414 0
M  V30 615 C 59.1081 -5.34438 0.167286 0
M  V30 616 C 60.4081 -4.70917 2.25908 0
M  V30 617 H 62.1021 -2.56753 1.54007 0
M  V30 618 H 59.6481 -1.23414 0.74195 0
M  V30 619 H 61.6011 -4.20572 -0.264082 0
M  V30 620 H 60.3251 -3.13907 -0.901664 0
M  V30 621 H 58.9841 -3.46186 1.20628 0
M  V30 622 H 58.6321 -4.97298 -0.7552 0
M  V30 623 H 58.3321 -5.82388 0.780901 0
M  V30 624 H 59.8561 -6.10504 -0.108125 0
M  V30 625 H 61.2701 -5.35882 2.03724 0
M  V30 626 H 59.6671 -5.29406 2.82577 0
M  V30 627 H 60.7371 -3.88272 2.9047 0
M  V30 628 N 62.0802 -0.821533 -1.34494 0
M  V30 629 C 63.4912 -0.467956 -1.8074 0
M  V30 630 C 63.8422 1.01151 -1.68116 0
M  V30 631 O 62.9672 1.78707 -1.22036 0
M  V30 632 C 63.5622 -0.842627 -3.28154 0
M  V30 633 C 62.1212 -0.541439 -3.72485 0
M  V30 634 C 61.2682 -1.06028 -2.56229 0
M  V30 635 H 64.2192 -1.01183 -1.22261 0
M  V30 636 H 64.2402 -0.145876 -3.8022 0
M  V30 637 H 63.7522 -1.91945 -3.37311 0
M  V30 638 H 61.8532 0.526034 -3.68868 0
M  V30 639 H 61.9662 -1.08453 -4.66663 0
M  V30 640 H 60.3302 -0.481892 -2.501 0
M  V30 641 H 61.1132 -2.14352 -2.68157 0
M  V30 642 N 63.5583 1.46682 -0.576371 0
M  V30 643 C 64.4903 2.28341 0.198231 0
M  V30 644 C 65.5033 1.38141 0.861453 0
M  V30 645 O 66.6923 1.62797 0.732082 0
M  V30 646 C 63.7923 3.12986 1.29972 0
M  V30 647 C 62.9653 4.31271 0.729639 0
M  V30 648 C 62.0243 4.97363 1.71803 0
M  V30 649 O 61.0503 5.55156 1.25658 0
M  V30 650 N 62.2523 4.93796 3.05198 0
M  V30 651 H 65.0173 2.9546 -0.502324 0
M  V30 652 H 62.5783 1.56525 -0.413715 0
M  V30 653 H 64.5703 3.54066 1.96008 0
M  V30 654 H 63.1403 2.47984 1.90323 0
M  V30 655 H 62.3603 3.94052 -0.108012 0
M  V30 656 H 63.6483 5.07739 0.328438 0
M  V30 657 H 63.0463 4.48077 3.45317 0
M  V30 658 H 61.6033 5.38837 3.6674 0
M  V30 659 N 65.0364 0.313813 1.54444 0
M  V30 660 C 65.9844 -0.572171 2.25453 0
M  V30 661 C 66.9784 -1.12657 1.2651 0
M  V30 662 O 68.1844 -1.07573 1.44319 0
M  V30 663 H 64.5594 -0.203146 0.724041 0
M  V30 664 H 66.5304 0.0491145 2.9836 0
M  V30 665 C 65.2794 -1.72626 3.0182 0
M  V30 666 H 64.6024 -1.30891 3.77767 0
M  V30 667 H 66.0424 -2.32199 3.54767 0
M  V30 668 C 64.5014 -2.63806 2.09542 0
M  V30 669 O 65.0314 -3.65256 1.67185 0
M  V30 670 N 63.2374 -2.31824 1.75232 0
M  V30 671 H 62.7844 -1.49368 2.09873 0
M  V30 672 H 62.7424 -2.93095 1.13767 0
M  V30 673 N 66.5145 -1.57545 0.0417849 0
M  V30 674 C 67.4465 -2.07904 -0.964799 0
M  V30 675 C 68.4595 -1.00497 -1.28079 0
M  V30 676 O 69.6485 -1.28087 -1.24322 0
M  V30 677 C 66.7485 -2.49928 -2.28887 0
M  V30 678 C 65.9215 -3.80562 -2.15619 0
M  V30 679 C 64.9805 -4.08999 -3.31069 0
M  V30 680 O 64.0065 -4.79061 -3.0739 0
M  V30 681 N 65.2085 -3.6017 -4.55256 0
M  V30 682 H 67.9735 -2.94886 -0.535029 0
M  V30 683 H 65.5345 -1.61252 -0.144681 0
M  V30 684 H 67.5265 -2.66034 -3.04972 0
M  V30 685 H 66.0965 -1.68245 -2.63463 0
M  V30 686 H 65.3165 -3.74129 -1.24183 0
M  V30 687 H 66.6045 -4.66126 -2.03971 0
M  V30 688 H 66.0025 -3.03512 -4.77386 0
M  V30 689 H 64.5595 -3.81532 -5.28466 0
M  V30 690 N 67.9926 0.231505 -1.5589 0
M  V30 691 C 69.2206 0.974505 -1.82513 0
M  V30 692 C 69.6356 1.78344 -0.619591 0
M  V30 693 O 68.9926 1.77792 0.411848 0
M  V30 694 C 69.0436 1.90007 -3.07538 0
M  V30 695 O 68.7646 1.12385 -4.2344 0
M  V30 696 C 70.2656 2.75779 -3.47075 0
M  V30 697 H 67.4856 0.286065 -0.606966 0
M  V30 698 H 70.0296 0.249739 -2.02969 0
M  V30 699 H 68.1846 2.57891 -2.89086 0
M  V30 700 H 68.5986 1.75125 -4.944 0
M  V30 701 H 70.0726 3.36443 -4.37619 0
M  V30 702 H 70.5496 3.47672 -2.68367 0
M  V30 703 H 71.1556 2.13323 -3.67931 0
M  V30 704 N 69.4707 1.49531 0.497807 0
M  V30 705 C 70.6987 1.62893 1.27567 0
M  V30 706 C 71.1137 0.301585 1.86376 0
M  V30 707 O 70.4707 -0.713335 1.67982 0
M  V30 708 C 70.5217 2.70013 2.40364 0
M  V30 709 O 70.2427 3.976 1.83972 0
M  V30 710 C 71.7437 2.94109 3.31685 0
M  V30 711 H 68.9637 0.548298 0.386794 0
M  V30 712 H 71.5077 1.95584 0.597245 0
M  V30 713 H 69.6627 2.40092 3.04031 0
M  V30 714 H 70.0767 4.56631 2.58047 0
M  V30 715 H 71.5507 3.72788 4.07104 0
M  V30 716 H 72.0277 2.04147 3.88871 0
M  V30 717 H 72.6337 3.2546 2.73781 0
M  V30 718 N 70.9488 -0.749086 1.3866 0
M  V30 719 C 71.8588 -1.89358 1.38494 0
M  V30 720 C 72.8748 -1.71708 0.281476 0
M  V30 721 O 74.0508 -1.94554 0.520643 0
M  V30 722 C 71.1158 -3.24782 1.21316 0
M  V30 723 C 70.1768 -3.54926 2.41508 0
M  V30 724 C 69.4098 -4.83888 2.2514 0
M  V30 725 O 69.6328 -5.56592 1.24746 0
M  V30 726 O 68.5668 -5.13612 3.13826 0
M  V30 727 H 72.3928 -1.92452 2.34938 0
M  V30 728 H 69.9778 -0.894981 1.19626 0
M  V30 729 H 71.8598 -4.05739 1.13814 0
M  V30 730 H 70.5348 -3.2249 0.279592 0
M  V30 731 H 69.4418 -2.74112 2.54585 0
M  V30 732 H 70.7748 -3.61983 3.3351 0
M  V30 733 N 72.4269 -1.23603 -0.977757 0
M  V30 734 C 73.6729 -1.07129 -1.72195 0
M  V30 735 C 74.0059 0.390501 -1.90233 0
M  V30 736 O 73.2809 1.28902 -1.45653 0
M  V30 737 C 73.5639 -1.80031 -3.11867 0
M  V30 738 C 73.4169 -3.33899 -3.01383 0
M  V30 739 C 74.7359 -1.56492 -4.11337 0
M  V30 740 H 71.8549 -0.390571 -0.624999 0
M  V30 741 H 74.4969 -1.52142 -1.13811 0
M  V30 742 H 72.6469 -1.41768 -3.6171 0
M  V30 743 H 74.3189 -3.81699 -2.59043 0
M  V30 744 H 72.5619 -3.62796 -2.37827 0
M  V30 745 H 73.2329 -3.801 -4.00285 0
M  V30 746 H 75.7089 -1.89757 -3.70313 0
M  V30 747 H 74.5849 -2.09973 -5.07151 0
M  V30 748 H 74.8459 -0.500874 -4.39254 0
M  V30 749 N 73.905 1.17692 -1.04816 0
M  V30 750 C 74.852 2.21581 -0.645797 0
M  V30 751 C 75.822 1.62367 0.350159 0
M  V30 752 O 77.007 1.89254 0.242433 0
M  V30 753 C 74.147 3.45092 -0.0227568 0
M  V30 754 C 73.26 4.18613 -1.06709 0
M  V30 755 C 72.395 5.29602 -0.411767 0
M  V30 756 C 71.434 5.94904 -1.44067 0
M  V30 757 N 70.571 6.97414 -0.809781 0
M  V30 758 H 75.411 2.55353 -1.5362 0
M  V30 759 H 72.948 1.25438 -0.768364 0
M  V30 760 H 74.906 4.15679 0.35588 0
M  V30 761 H 73.536 3.11917 0.831122 0
M  V30 762 H 72.588 3.46779 -1.5636 0
M  V30 763 H 73.9 4.63293 -1.84827 0
M  V30 764 H 73.054 6.06696 0.0206623 0
M  V30 765 H 71.793 4.86045 0.401438 0
M  V30 766 H 70.798 5.16544 -1.88316 0
M  V30 767 H 72.023 6.40542 -2.25571 0
M  V30 768 H 69.969 6.55998 -0.0170186 0
M  V30 769 H 69.886 7.40386 -1.52856 0
M  V30 770 H 71.154 7.78463 -0.401999 0
M  V30 771 N 75.3831 0.828654 1.34056 0
M  V30 772 C 76.3161 0.199763 2.27324 0
M  V30 773 C 77.2941 -0.647168 1.49166 0
M  V30 774 O 78.4781 -0.609661 1.78369 0
M  V30 775 C 75.6051 -0.720455 3.30949 0
M  V30 776 C 74.6511 0.0496888 4.26471 0
M  V30 777 S 75.4841 1.40072 5.16856 0
M  V30 778 C 76.6401 0.485527 6.24014 0
M  V30 779 H 76.8731 0.990478 2.80316 0
M  V30 780 H 74.4061 0.624857 1.41191 0
M  V30 781 H 76.3641 -1.24581 3.91139 0
M  V30 782 H 75.0251 -1.48474 2.76793 0
M  V30 783 H 74.2181 -0.650104 4.9979 0
M  V30 784 H 73.8201 0.505779 3.70564 0
M  V30 785 H 76.1121 -0.320672 6.76741 0
M  V30 786 H 77.0551 1.18856 6.98054 0
M  V30 787 H 77.4631 0.0714109 5.64455 0
M  V30 788 N 76.8612 -1.46375 0.584142 0
M  V30 789 C 77.8242 -2.28784 -0.138108 0
M  V30 790 C 78.8242 -1.38471 -0.817462 0
M  V30 791 O 80.0142 -1.60833 -0.669199 0
M  V30 792 C 77.1462 -3.18892 -1.20503 0
M  V30 793 H 78.3392 -2.94117 0.586127 0
M  V30 794 H 75.8922 -1.52509 0.342171 0
M  V30 795 H 76.6272 -2.58309 -1.96079 0
M  V30 796 H 76.4122 -3.85388 -0.722384 0
M  V30 797 H 77.9022 -3.80914 -1.71155 0
M  V30 798 N 78.3393 -0.321999 -1.54275 0
M  V30 799 C 79.2693 0.537411 -2.27231 0
M  V30 800 C 80.2503 1.12064 -1.27968 0
M  V30 801 O 81.4353 1.14606 -1.56777 0
M  V30 802 C 78.5653 1.69919 -3.02894 0
M  V30 803 C 77.5193 1.24534 -4.09482 0
M  V30 804 C 76.8453 2.49394 -4.72977 0
M  V30 805 C 78.1453 0.361335 -5.21049 0
M  V30 806 H 79.8393 -0.0711406 -2.99315 0
M  V30 807 H 77.3853 -0.0356555 -1.43956 0
M  V30 808 H 79.3383 2.30668 -3.52662 0
M  V30 809 H 78.0623 2.33431 -2.28424 0
M  V30 810 H 76.7213 0.660782 -3.60596 0
M  V30 811 H 76.3693 3.11265 -3.95124 0
M  V30 812 H 76.0693 2.19718 -5.44975 0
M  V30 813 H 77.5933 3.10908 -5.25517 0
M  V30 814 H 79.0073 0.875072 -5.66582 0
M  V30 815 H 77.4043 0.157428 -5.99893 0
M  V30 816 H 78.4743 -0.60822 -4.8107 0
M  V30 817 N 79.8174 1.5752 -0.0501392 0
M  V30 818 C 80.7674 2.07981 0.934231 0
M  V30 819 C 81.7514 0.984745 1.27246 0
M  V30 820 O 82.9434 1.24809 1.25506 0
M  V30 821 C 80.0724 2.62751 2.20945 0
M  V30 822 C 79.1584 3.79225 1.89865 0
M  V30 823 N 79.5494 4.89036 1.29142 0
M  V30 824 C 77.8474 3.88111 2.19741 0
M  V30 825 C 78.5484 5.70084 1.15669 0
M  V30 826 N 77.5244 5.17659 1.65923 0
M  V30 827 H 81.3264 2.90277 0.460053 0
M  V30 828 H 78.8404 1.61665 0.15434 0
M  V30 829 H 80.8374 2.97205 2.9236 0
M  V30 830 H 79.4974 1.81894 2.6897 0
M  V30 831 H 80.5084 5.08854 0.963756 0
M  V30 832 H 77.1854 3.18194 2.70293 0
M  V30 833 H 78.5754 6.68395 0.685356 0
M  V30 834 N 81.2955 -0.223234 1.56011 0
M  V30 835 C 82.2585 -1.26014 1.9145 0
M  V30 836 C 83.2585 -1.3989 0.792937 0
M  V30 837 O 84.4485 -1.38184 1.0607 0
M  V30 838 C 81.5805 -2.63422 2.16383 0
M  V30 839 H 82.7735 -0.95796 2.84189 0
M  V30 840 H 80.3265 -0.463576 1.49267 0
M  V30 841 H 81.0615 -2.98741 1.2619 0
M  V30 842 H 80.8465 -2.54728 2.98088 0
M  V30 843 H 82.3365 -3.38249 2.44903 0
M  V30 844 N 82.7736 -1.49793 -0.48987 0
M  V30 845 C 84.0216 -1.59525 -1.24081 0
M  V30 846 C 84.3426 -0.288953 -1.92847 0
M  V30 847 O 83.6126 0.692436 -1.83254 0
M  V30 848 H 82.1926 -0.587796 -0.460983 0
M  V30 849 H 84.8546 -1.86477 -0.566778 0
M  V30 850 H 83.9506 -2.39696 -1.99881 0
M  V30 851 N 84.2517 0.741722 -1.39055 0
M  V30 852 C 85.1817 1.869 -1.39966 0
M  V30 853 C 86.1627 1.6804 -0.26392 0
M  V30 854 O 87.3477 1.88458 -0.468755 0
M  V30 855 C 84.4777 3.24572 -1.23574 0
M  V30 856 C 83.4317 3.58056 -2.34477 0
M  V30 857 C 82.7577 4.94593 -2.0318 0
M  V30 858 C 84.0577 3.61716 -3.76774 0
M  V30 859 H 85.7517 1.86395 -2.34302 0
M  V30 860 H 83.2977 0.895361 -1.1278 0
M  V30 861 H 85.2507 4.031 -1.22834 0
M  V30 862 H 83.9747 3.25587 -0.257045 0
M  V30 863 H 82.6337 2.81854 -2.34423 0
M  V30 864 H 82.2817 4.92181 -1.03765 0
M  V30 865 H 81.9817 5.17964 -2.77465 0
M  V30 866 H 83.5057 5.75486 -2.04079 0
M  V30 867 H 84.9197 4.30335 -3.78794 0
M  V30 868 H 83.3167 3.96603 -4.50362 0
M  V30 869 H 84.3867 2.61672 -4.08235 0
M  V30 870 N 85.7298 1.2412 0.971189 0
M  V30 871 C 86.9758 1.09048 1.71698 0
M  V30 872 C 87.3308 -0.367442 1.88859 0
M  V30 873 O 86.6238 -1.26792 1.43646 0
M  V30 874 C 86.8178 1.75983 3.11071 0
M  V30 875 C 86.6468 3.28133 3.07504 0
M  V30 876 C 85.4168 3.97331 3.1218 0
M  V30 877 C 87.6148 4.24773 2.89952 0
M  V30 878 N 85.5968 5.3639 2.98596 0
M  V30 879 C 86.9678 5.50806 2.84627 0
M  V30 880 C 89.0228 4.15392 2.74506 0
M  V30 881 C 87.7258 6.68533 2.65437 0
M  V30 882 C 89.7518 5.32793 2.56682 0
M  V30 883 C 89.1138 6.57756 2.52063 0
M  V30 884 H 85.2128 0.453632 0.636979 0
M  V30 885 H 87.7968 1.56983 1.15171 0
M  V30 886 H 85.9678 1.30566 3.65796 0
M  V30 887 H 87.6998 1.53803 3.74335 0
M  V30 888 H 84.4548 3.48473 3.20724 0
M  V30 889 H 84.8788 6.09321 2.95054 0
M  V30 890 H 89.5208 3.19543 2.76861 0
M  V30 891 H 87.2388 7.64509 2.61825 0
M  V30 892 H 90.8248 5.27383 2.4568 0
M  V30 893 H 89.7048 7.4707 2.38446 0
M  V30 894 N 87.2079 -1.17134 1.05439 0
M  V30 895 C 88.6239 -1.39454 0.776201 0
M  V30 896 C 88.8239 -1.91454 -0.628307 0
M  V30 897 O 87.8799 -2.10777 -1.39031 0
M  V30 898 C 89.1929 -2.38305 1.83388 0
M  V30 899 C 90.7409 -2.52006 1.85639 0
M  V30 900 C 91.2159 -3.54133 2.90437 0
M  V30 901 N 92.7069 -3.61653 2.89415 0
M  V30 902 C 93.4419 -4.4044 3.67152 0
M  V30 903 N 92.9379 -5.22721 4.54681 0
M  V30 904 N 94.7309 -4.35337 3.55581 0
M  V30 905 H 86.8819 -0.817134 1.96053 0
M  V30 906 H 89.1449 -0.421626 0.849079 0
M  V30 907 H 88.8509 -2.07173 2.84204 0
M  V30 908 H 88.7249 -3.37841 1.67761 0
M  V30 909 H 91.1119 -2.82447 0.85486 0
M  V30 910 H 91.1929 -1.52537 2.05344 0
M  V30 911 H 90.8369 -3.24431 3.90777 0
M  V30 912 H 90.7669 -4.53313 2.67983 0
M  V30 913 H 93.2579 -3.02909 2.25952 0
M  V30 914 H 93.5709 -5.80027 5.10674 0
M  V30 915 H 91.9159 -5.22093 4.58741 0
M  V30 916 H 95.1069 -3.70112 2.86592 0
M  V30 917 H 95.2799 -4.96494 4.1641 0
M  V30 918 N 88.686 -0.835752 -1.33615 0
M  V30 919 C 89.932 -0.430596 -1.98176 0
M  V30 920 C 90.265 1.00684 -1.66061 0
M  V30 921 O 89.54 1.70339 -0.938877 0
M  V30 922 C 89.823 -0.648065 -3.5422 0
M  V30 923 C 89.676 -2.13255 -3.96033 0
M  V30 924 C 90.995 -0.0922113 -4.40003 0
M  V30 925 H 88.114 -0.157924 -0.719881 0
M  V30 926 H 90.756 -1.05069 -1.58305 0
M  V30 927 H 88.906 -0.120237 -3.88314 0
M  V30 928 H 90.578 -2.725 -3.72211 0
M  V30 929 H 88.821 -2.61823 -3.45878 0
M  V30 930 H 89.492 -2.23547 -5.04708 0
M  V30 931 H 91.968 -0.543343 -4.12537 0
M  V30 932 H 90.844 -0.274083 -5.48215 0
M  V30 933 H 91.105 1.00378 -4.30554 0
M  V30 934 N 90.1641 1.46063 -0.591896 0
M  V30 935 C 91.4041 2.04228 -0.0838014 0
M  V30 936 C 91.7681 1.45231 1.25587 0
M  V30 937 O 92.9691 1.94653 1.85375 0
M  V30 938 C 91.2401 3.57389 -0.0286282 0
M  V30 939 S 92.7991 4.3678 0.420557 0
M  V30 940 H 89.6171 0.709762 -0.0419319 0
M  V30 941 H 92.2191 1.78983 -0.786465 0
M  V30 942 H 90.9231 3.97843 -1.00743 0
M  V30 943 H 90.4541 3.87185 0.69652 0
M  V30 944 H 92.4691 4.67131 1.67341 0
M  V30 945 N 91.6422 0.330177 1.54103 0
M  V30 946 C 92.8892 -0.270405 2.00686 0
M  V30 947 C 93.2172 -1.51621 1.21825 0
M  V30 948 O 92.4722 -1.93536 0.29025 0
M  V30 949 C 92.7712 -0.643134 3.51566 0
M  V30 950 C 92.4372 0.504251 4.48072 0
M  V30 951 C 91.0992 0.819163 4.74176 0
M  V30 952 C 93.4512 1.27465 5.05373 0
M  V30 953 C 90.7792 1.90708 5.5484 0
M  V30 954 C 93.1312 2.35271 5.87223 0
M  V30 955 C 91.7952 2.67336 6.11627 0
M  V30 956 H 91.0652 -0.0989482 0.734364 0
M  V30 957 H 93.7122 0.455324 1.86008 0
M  V30 958 H 92.0172 -1.44938 3.64006 0
M  V30 959 H 93.7142 -1.11949 3.85056 0
M  V30 960 H 90.3042 0.248733 4.27878 0
M  V30 961 H 94.4882 1.04462 4.85182 0
M  V30 962 H 89.7442 2.15991 5.71977 0
M  V30 963 H 93.9182 2.95405 6.30641 0
M  V30 964 H 91.5452 3.51763 6.73919 0
M  V30 965 N 93.1203 -1.57491 0.0584922 0
M  V30 966 C 94.3673 -1.92978 -0.613648 0
M  V30 967 C 94.6953 -0.937461 -1.70417 0
M  V30 968 O 93.9503 0.049078 -1.95638 0
M  V30 969 C 94.2493 -3.3513 -1.24188 0
M  V30 970 C 93.9153 -4.50037 -0.278826 0
M  V30 971 C 92.5773 -4.81198 -0.0138447 0
M  V30 972 C 94.9293 -5.19807 0.380777 0
M  V30 973 C 92.2573 -5.79473 0.918052 0
M  V30 974 C 94.6093 -6.19079 1.30091 0
M  V30 975 C 93.2733 -6.48665 1.57449 0
M  V30 976 H 92.5433 -0.706157 -0.22455 0
M  V30 977 H 95.1903 -1.91082 0.126533 0
M  V30 978 H 93.4953 -3.33429 -2.05749 0
M  V30 979 H 95.1923 -3.59871 -1.769 0
M  V30 980 H 91.7823 -4.25726 -0.495539 0
M  V30 981 H 95.9663 -4.95939 0.189158 0
M  V30 982 H 91.2223 -6.00727 1.1374 0
M  V30 983 H 95.3963 -6.7225 1.81804 0
M  V30 984 H 93.0233 -7.24628 2.29822 0
M  V30 985 N 94.5984 0.214957 -1.56127 0
M  V30 986 C 95.5614 1.24997 -1.92116 0
M  V30 987 C 96.5614 1.39467 -0.800344 0
M  V30 988 O 97.7514 1.37619 -1.06802 0
M  V30 989 C 94.8834 2.62271 -2.17777 0
M  V30 990 H 96.0764 0.942875 -2.84693 0
M  V30 991 H 93.6294 0.455654 -1.49511 0
M  V30 992 H 94.3644 2.98068 -1.27773 0
M  V30 993 H 94.1494 2.53143 -2.99434 0
M  V30 994 H 95.6394 3.36946 -2.46693 0
M  V30 995 N 96.0765 1.50051 0.48192 0
M  V30 996 C 97.3245 1.60181 1.23234 0
M  V30 997 C 97.6455 0.299176 1.92691 0
M  V30 998 O 96.9155 -0.682708 1.83619 0
M  V30 999 H 95.4955 0.590232 0.457859 0
M  V30 1000 H 98.1575 1.86775 0.556881 0
M  V30 1001 H 97.2535 2.40753 1.98607 0
M  V30 1002 N 97.5546 -0.734337 1.39446 0
M  V30 1003 C 98.9706 -1.03997 1.21065 0
M  V30 1004 C 99.1706 -2.01369 0.0727019 0
M  V30 1005 O 98.2266 -2.45856 -0.575426 0
M  V30 1006 C 99.5396 -1.60163 2.54496 0
M  V30 1007 C 101.088 -1.7224 2.61347 0
M  V30 1008 C 101.563 -2.31814 3.95002 0
M  V30 1009 N 103.054 -2.39223 3.96644 0
M  V30 1010 C 103.789 -2.86258 4.96834 0
M  V30 1011 N 103.285 -3.33184 6.07421 0
M  V30 1012 N 105.078 -2.85473 4.84213 0
M  V30 1013 H 97.2286 -0.0885624 2.12215 0
M  V30 1014 H 99.4916 -0.10191 0.942506 0
M  V30 1015 H 99.1976 -0.960811 3.38321 0
M  V30 1016 H 99.0716 -2.5896 2.74262 0
M  V30 1017 H 101.459 -2.35443 1.77906 0
M  V30 1018 H 101.54 -0.720939 2.4543 0
M  V30 1019 H 101.184 -1.69238 4.78875 0
M  V30 1020 H 101.114 -3.32638 4.08239 0
M  V30 1021 H 103.605 -2.06057 3.16779 0
M  V30 1022 H 103.918 -3.67586 6.7978 0
M  V30 1023 H 102.263 -3.31191 6.11013 0
M  V30 1024 H 105.454 -2.48136 3.96921 0
M  V30 1025 H 105.627 -3.21814 5.62441 0
M  V30 1026 N 99.0327 -1.24633 -0.964593 0
M  V30 1027 C 99.9427 -1.05859 -2.09359 0
M  V30 1028 C 100.959 0.00148855 -1.74 0
M  V30 1029 O 102.135 -0.197346 -2.00431 0
M  V30 1030 C 99.1997 -0.668879 -3.40187 0
M  V30 1031 C 98.2607 -1.80578 -3.89474 0
M  V30 1032 C 97.4937 -1.43457 -5.14058 0
M  V30 1033 O 97.7167 -0.325775 -5.69469 0
M  V30 1034 O 96.6507 -2.2613 -5.57807 0
M  V30 1035 H 100.477 -2.00516 -2.28094 0
M  V30 1036 H 98.0617 -1.03481 -1.0776 0
M  V30 1037 H 99.9437 -0.463211 -4.18846 0
M  V30 1038 H 98.6187 0.248536 -3.22744 0
M  V30 1039 H 97.5257 -2.06623 -3.11862 0
M  V30 1040 H 98.8587 -2.70208 -4.11398 0
M  V30 1041 N 100.511 1.16574 -1.06058 0
M  V30 1042 C 101.458 2.20883 -0.669263 0
M  V30 1043 C 102.428 1.62729 0.332918 0
M  V30 1044 O 103.613 1.895 0.222346 0
M  V30 1045 C 100.753 3.45049 -0.0593572 0
M  V30 1046 C 99.8658 4.17458 -1.11143 0
M  V30 1047 C 99.0008 5.29135 -0.467916 0
M  V30 1048 C 98.0398 5.93343 -1.50369 0
M  V30 1049 N 97.1768 6.96516 -0.883706 0
M  V30 1050 H 102.017 2.53709 -1.5632 0
M  V30 1051 H 99.5538 1.24616 -0.781625 0
M  V30 1052 H 101.512 4.16033 0.311771 0
M  V30 1053 H 100.142 3.12781 0.797992 0
M  V30 1054 H 99.1938 3.45101 -1.60029 0
M  V30 1055 H 100.506 4.61307 -1.89731 0
M  V30 1056 H 99.6598 6.06684 -0.0436871 0
M  V30 1057 H 98.3988 4.86443 0.349864 0
M  V30 1058 H 97.4038 5.14517 -1.93784 0
M  V30 1059 H 98.6288 6.38114 -2.32352 0
M  V30 1060 H 96.5748 6.55943 -0.086595 0
M  V30 1061 H 96.4918 7.38723 -1.607 0
M  V30 1062 H 97.7598 7.77993 -0.484543 0
M  V30 1063 N 101.989 0.842826 1.3317 0
M  V30 1064 C 103.237 0.439577 1.97262 0
M  V30 1065 C 103.558 -1.00548 1.67078 0
M  V30 1066 O 102.828 -1.70098 0.971779 0
M  V30 1067 H 101.408 0.159558 0.72976 0
M  V30 1068 H 104.07 1.07665 1.62463 0
M  V30 1069 H 103.166 0.574886 3.0676 0
M  V30 1070 N 103.467 -1.45747 0.599634 0
M  V30 1071 C 104.883 -1.57424 0.26264 0
M  V30 1072 C 105.083 -1.59222 -1.23493 0
M  V30 1073 O 104.139 -1.51825 -2.01756 0
M  V30 1074 C 105.452 -2.86061 0.926795 0
M  V30 1075 C 107 -2.99722 0.901967 0
M  V30 1076 C 107.475 -4.31119 1.54598 0
M  V30 1077 N 108.966 -4.37858 1.5111 0
M  V30 1078 C 109.701 -5.3818 1.97863 0
M  V30 1079 N 109.197 -6.45083 2.52666 0
M  V30 1080 N 110.99 -5.29487 1.88679 0
M  V30 1081 H 103.141 -1.42823 1.57211 0
M  V30 1082 H 105.404 -0.68235 0.658105 0
M  V30 1083 H 105.11 -2.90605 1.98095 0
M  V30 1084 H 104.984 -3.74563 0.445238 0
M  V30 1085 H 107.371 -2.9475 -0.143617 0
M  V30 1086 H 107.452 -2.12652 1.42171 0
M  V30 1087 H 107.096 -4.36849 2.59085 0
M  V30 1088 H 107.026 -5.16992 1.00132 0
M  V30 1089 H 109.517 -3.61209 1.11068 0
M  V30 1090 H 109.83 -7.17869 2.86155 0
M  V30 1091 H 108.175 -6.45856 2.56701 0
M  V30 1092 H 111.366 -4.44877 1.4561 0
M  V30 1093 H 111.539 -6.07524 2.25429 0
M  V30 1094 N 104.945 -0.338344 -1.53925 0
M  V30 1095 C 106.185 0.260168 -2.02737 0
M  V30 1096 C 106.549 1.48181 -1.22092 0
M  V30 1097 O 107.75 2.15416 -1.60777 0
M  V30 1098 C 106.021 0.571627 -3.52799 0
M  V30 1099 S 107.58 1.14769 -4.23525 0
M  V30 1100 H 104.398 0.077791 -0.706732 0
M  V30 1101 H 107 -0.474899 -1.89644 0
M  V30 1102 H 105.704 -0.325392 -4.09108 0
M  V30 1103 H 105.235 1.3365 -3.70002 0
M  V30 1104 H 107.25 2.43372 -4.32417 0
M  V30 1105 N 106.423 1.57458 -0.0668435 0
M  V30 1106 C 107.669 1.93587 0.6043 0
M  V30 1107 C 108.002 0.946722 1.69561 0
M  V30 1108 O 107.277 -0.0248516 1.94484 0
M  V30 1109 C 107.56 3.40014 1.18585 0
M  V30 1110 C 107.413 4.49685 0.101529 0
M  V30 1111 C 108.732 3.87154 2.09284 0
M  V30 1112 H 105.851 0.703958 0.218202 0
M  V30 1113 H 108.493 1.89542 -0.131804 0
M  V30 1114 H 106.643 3.43592 1.81319 0
M  V30 1115 H 108.315 4.5823 -0.531279 0
M  V30 1116 H 106.558 4.30059 -0.568487 0
M  V30 1117 H 107.229 5.49266 0.54874 0
M  V30 1118 H 109.705 3.85551 1.56491 0
M  V30 1119 H 108.581 4.90231 2.46911 0
M  V30 1120 H 108.842 3.2481 2.99918 0
M  V30 1121 N 107.901 -0.206675 1.56239 0
M  V30 1122 C 108.864 -1.23976 1.92776 0
M  V30 1123 C 109.864 -1.39041 0.807729 0
M  V30 1124 O 111.054 -1.37051 1.0753 0
M  V30 1125 C 108.186 -2.61112 2.19165 0
M  V30 1126 H 109.379 -0.927764 2.85189 0
M  V30 1127 H 106.932 -0.447718 1.4975 0
M  V30 1128 H 107.667 -2.97386 1.29352 0
M  V30 1129 H 107.452 -2.51552 3.00772 0
M  V30 1130 H 108.942 -3.35633 2.48476 0
M  V30 1131 N 109.379 -1.50304 -0.473955 0
M  V30 1132 C 110.604 -1.65175 -1.25427 0
M  V30 1133 C 111.029 -0.333673 -1.85117 0
M  V30 1134 O 110.387 0.702114 -1.67153 0
M  V30 1135 C 110.435 -2.74295 -2.34082 0
M  V30 1136 O 109.539 -2.35349 -3.38651 0
M  V30 1137 H 108.88 -0.551944 -0.369126 0
M  V30 1138 H 111.41 -1.96662 -0.564364 0
M  V30 1139 H 111.42 -2.97285 -2.79438 0
M  V30 1140 H 110.095 -3.69959 -1.90008 0
M  V30 1141 H 108.672 -2.22794 -2.99027 0
M  V30 1142 N 110.857 0.726932 -1.39834 0
M  V30 1143 C 111.767 1.87131 -1.41489 0
M  V30 1144 C 112.783 1.71239 -0.308757 0
M  V30 1145 O 113.959 1.93701 -0.551529 0
M  V30 1146 C 111.024 3.22811 -1.26468 0
M  V30 1147 C 110.085 3.51039 -2.47124 0
M  V30 1148 C 109.318 4.80245 -2.3281 0
M  V30 1149 O 109.541 5.54537 -1.33585 0
M  V30 1150 O 108.475 5.08554 -3.21957 0
M  V30 1151 H 112.301 1.8869 -2.3797 0
M  V30 1152 H 109.886 0.875837 -1.21035 0
M  V30 1153 H 111.768 4.03877 -1.20255 0
M  V30 1154 H 110.443 3.22005 -0.330862 0
M  V30 1155 H 109.35 2.70027 -2.58914 0
M  V30 1156 H 110.683 3.56632 -3.39227 0
M  V30 1157 N 112.336 1.25143 0.95797 0
M  V30 1158 C 113.566 1.12261 1.73439 0
M  V30 1159 C 113.974 -0.326715 1.86358 0
M  V30 1160 O 113.317 -1.2367 1.35836 0
M  V30 1161 C 113.379 1.69966 3.16784 0
M  V30 1162 C 113.043 3.18936 3.27305 0
M  V30 1163 C 114.04 4.15968 3.11877 0
M  V30 1164 C 111.725 3.59083 3.51234 0
M  V30 1165 C 113.719 5.51126 3.20217 0
M  V30 1166 C 111.406 4.9438 3.5921 0
M  V30 1167 C 112.404 5.90211 3.43716 0
M  V30 1168 O 112.092 7.23046 3.51368 0
M  V30 1169 H 111.824 0.392476 0.550399 0
M  V30 1170 H 114.378 1.65927 1.21068 0
M  V30 1171 H 112.608 1.10744 3.70503 0
M  V30 1172 H 114.297 1.52232 3.76272 0
M  V30 1173 H 115.063 3.86292 2.93264 0
M  V30 1174 H 110.942 2.84989 3.62356 0
M  V30 1175 H 114.486 6.25905 3.0804 0
M  V30 1176 H 110.383 5.23723 3.77339 0
M  V30 1177 H 111.151 7.31097 3.6802 0
M  V30 1178 N 113.814 -1.1601 1.06675 0
M  V30 1179 C 115.061 -1.86633 0.785781 0
M  V30 1180 C 115.389 -1.81929 -0.687896 0
M  V30 1181 O 114.644 -1.23253 -1.52011 0
M  V30 1182 C 114.943 -3.35547 1.23057 0
M  V30 1183 C 114.609 -3.60448 2.70902 0
M  V30 1184 C 113.271 -3.66954 3.11285 0
M  V30 1185 C 115.623 -3.7071 3.66365 0
M  V30 1186 C 112.951 -3.81225 4.45965 0
M  V30 1187 C 115.303 -3.86503 5.00797 0
M  V30 1188 C 113.967 -3.91252 5.40813 0
M  V30 1189 H 113.237 -0.682937 0.287538 0
M  V30 1190 H 115.884 -1.37146 1.33654 0
M  V30 1191 H 114.189 -3.87193 0.59907 0
M  V30 1192 H 115.886 -3.88583 0.990163 0
M  V30 1193 H 112.476 -3.56021 2.38636 0
M  V30 1194 H 116.66 -3.64991 3.36296 0
M  V30 1195 H 111.916 -3.83155 4.76447 0
M  V30 1196 H 116.09 -3.93385 5.74649 0
M  V30 1197 H 113.717 -4.02062 6.45174 0
M  V30 1198 N 115.292 -0.849877 -1.32721 0
M  V30 1199 C 116.222 -0.306308 -2.31482 0
M  V30 1200 C 117.203 0.591952 -1.59468 0
M  V30 1201 O 118.388 0.513199 -1.87296 0
M  V30 1202 C 115.518 0.510204 -3.43532 0
M  V30 1203 C 114.472 -0.293209 -4.26994 0
M  V30 1204 C 113.798 0.647743 -5.30762 0
M  V30 1205 C 115.098 -1.51634 -4.99804 0
M  V30 1206 H 116.792 -1.13153 -2.77195 0
M  V30 1207 H 114.338 -0.545553 -1.33266 0
M  V30 1208 H 116.291 0.900856 -4.11658 0
M  V30 1209 H 115.015 1.36874 -2.96535 0
M  V30 1210 H 113.674 -0.665555 -3.60508 0
M  V30 1211 H 113.322 1.50299 -4.8002 0
M  V30 1212 H 113.022 0.11422 -5.87489 0
M  V30 1213 H 114.546 1.03567 -6.01753 0
M  V30 1214 H 115.96 -1.19824 -5.60638 0
M  V30 1215 H 114.357 -1.98745 -5.66234 0
M  V30 1216 H 115.427 -2.28018 -4.27943 0
M  V30 1217 N 116.77 1.45427 -0.607355 0
M  V30 1218 C 117.68 2.34325 0.113463 0
M  V30 1219 C 118.696 1.51226 0.860617 0
M  V30 1220 O 119.872 1.84029 0.818255 0
M  V30 1221 C 116.937 3.28839 1.09844 0
M  V30 1222 C 115.998 4.27844 0.353271 0
M  V30 1223 C 115.231 5.17842 1.29133 0
M  V30 1224 O 115.454 5.11264 2.52913 0
M  V30 1225 O 114.388 5.96713 0.788523 0
M  V30 1226 H 118.214 2.97364 -0.617094 0
M  V30 1227 H 115.799 1.44807 -0.367619 0
M  V30 1228 H 117.681 3.8708 1.66575 0
M  V30 1229 H 116.356 2.68365 1.81003 0
M  V30 1230 H 115.263 3.7322 -0.256494 0
M  V30 1231 H 116.596 4.91173 -0.317822 0
M  V30 1232 N 118.248 0.346503 1.53744 0
M  V30 1233 C 119.659 -0.136779 1.86198 0
M  V30 1234 C 120.01 -1.49749 1.26766 0
M  V30 1235 O 119.135 -2.08417 0.582355 0
M  V30 1236 C 119.73 -0.254966 3.37839 0
M  V30 1237 C 118.289 -0.682482 3.70161 0
M  V30 1238 C 117.436 0.181981 2.76702 0
M  V30 1239 H 120.387 0.565994 1.48264 0
M  V30 1240 H 120.408 -1.08195 3.64793 0
M  V30 1241 H 119.92 0.735526 3.81066 0
M  V30 1242 H 118.021 -1.68189 3.3248 0
M  V30 1243 H 118.134 -0.470326 4.76786 0
M  V30 1244 H 116.498 -0.34615 2.52337 0
M  V30 1245 H 117.281 1.16966 3.2276 0
M  V30 1246 N 119.726 -1.57421 0.075193 0
M  V30 1247 C 120.636 -2.1642 -0.905511 0
M  V30 1248 C 121.652 -1.12828 -1.32461 0
M  V30 1249 O 122.828 -1.45109 -1.39661 0
M  V30 1250 C 119.893 -2.71693 -2.15369 0
M  V30 1251 C 118.954 -3.90171 -1.79068 0
M  V30 1252 C 118.187 -4.42798 -2.97936 0
M  V30 1253 O 118.41 -3.94416 -4.12058 0
M  V30 1254 O 117.344 -5.34085 -2.77555 0
M  V30 1255 H 121.17 -3.00588 -0.433626 0
M  V30 1256 H 118.755 -1.48664 -0.148067 0
M  V30 1257 H 120.637 -3.07104 -2.88557 0
M  V30 1258 H 119.312 -1.90582 -2.61649 0
M  V30 1259 H 118.219 -3.59606 -1.03122 0
M  V30 1260 H 119.552 -4.72584 -1.37569 0
M  V30 1261 N 121.204 0.198386 -1.56346 0
M  V30 1262 C 122.453 0.917451 -1.79627 0
M  V30 1263 C 122.766 1.8456 -0.64784 0
M  V30 1264 O 123.972 2.60504 -0.764859 0
M  V30 1265 C 122.428 1.68175 -3.18191 0
M  V30 1266 C 122.036 0.798589 -4.40825 0
M  V30 1267 C 123.78 2.39065 -3.50782 0
M  V30 1268 C 121.687 1.56157 -5.70411 0
M  V30 1269 H 120.617 0.346317 -0.669762 0
M  V30 1270 H 123.268 0.170801 -1.82703 0
M  V30 1271 H 121.65 2.47216 -3.09354 0
M  V30 1272 H 122.824 0.0470665 -4.60776 0
M  V30 1273 H 121.139 0.200686 -4.15916 0
M  V30 1274 H 123.736 2.96692 -4.44835 0
M  V30 1275 H 124.079 3.13091 -2.74371 0
M  V30 1276 H 124.612 1.66993 -3.61052 0
M  V30 1277 H 121.351 0.864142 -6.49779 0
M  V30 1278 H 120.871 2.2871 -5.54483 0
M  V30 1279 H 122.55 2.11622 -6.11412 0
M  V30 1280 N 122.682 1.50554 0.465978 0
M  V30 1281 C 123.63 1.70324 1.58406 0
M  V30 1282 C 124.624 0.569139 1.59553 0
M  V30 1283 O 125.83 0.749776 1.63641 0
M  V30 1284 H 122.205 0.537688 0.525734 0
M  V30 1285 H 124.176 2.64104 1.38894 0
M  V30 1286 C 122.925 1.81928 2.96307 0
M  V30 1287 H 122.248 2.68586 2.96144 0
M  V30 1288 H 123.688 1.99784 3.73982 0
M  V30 1289 C 122.147 0.572095 3.32007 0
M  V30 1290 O 122.677 -0.286416 4.00678 0
M  V30 1291 N 120.883 0.424606 2.87481 0
M  V30 1292 H 120.43 1.12427 2.31771 0
M  V30 1293 H 120.388 -0.408697 3.11732 0
M  V30 1294 N 124.16 -0.719506 1.40217 0
M  V30 1295 C 125.09 -1.8465 1.42922 0
M  V30 1296 C 126.071 -1.67599 0.29062 0
M  V30 1297 O 127.256 -1.87688 0.498677 0
M  V30 1298 C 124.386 -3.22565 1.28722 0
M  V30 1299 C 123.34 -3.54281 2.40144 0
M  V30 1300 C 122.666 -4.91298 2.11023 0
M  V30 1301 C 123.966 -3.55676 3.82481 0
M  V30 1302 H 125.66 -1.82644 2.37237 0
M  V30 1303 H 123.206 -0.877305 1.1419 0
M  V30 1304 H 125.159 -4.01095 1.29232 0
M  V30 1305 H 123.883 -3.25137 0.308811 0
M  V30 1306 H 122.542 -2.78088 2.38877 0
M  V30 1307 H 122.19 -4.90468 1.11582 0
M  V30 1308 H 121.89 -5.13485 2.8567 0
M  V30 1309 H 123.414 -5.72166 2.13209 0
M  V30 1310 H 124.828 -4.24254 3.85592 0
M  V30 1311 H 123.225 -3.89388 4.56614 0
M  V30 1312 H 124.295 -2.55144 4.12346 0
M  V30 1313 N 125.638 -1.25649 -0.95132 0
M  V30 1314 C 126.884 -1.10757 -1.69884 0
M  V30 1315 C 127.217 0.350061 -1.91019 0
M  V30 1316 O 126.492 1.25783 -1.48354 0
M  V30 1317 C 126.775 -1.86606 -3.07978 0
M  V30 1318 C 126.628 -3.40217 -2.94232 0
M  V30 1319 C 127.947 -1.65182 -4.07925 0
M  V30 1320 H 125.066 -0.40374 -0.616574 0
M  V30 1321 H 127.708 -1.54521 -1.10558 0
M  V30 1322 H 125.858 -1.49409 -3.58621 0
M  V30 1323 H 127.53 -3.87108 -2.50889 0
M  V30 1324 H 125.773 -3.67759 -2.30078 0
M  V30 1325 H 126.444 -3.88505 -3.92133 0
M  V30 1326 H 128.92 -1.9757 -3.66204 0
M  V30 1327 H 127.796 -2.20683 -5.02583 0
M  V30 1328 H 128.057 -0.593933 -4.38092 0
M  V30 1329 N 127.117 1.15442 -1.07289 0
M  V30 1330 C 128.345 1.90096 -0.81676 0
M  V30 1331 C 128.76 1.7798 0.629966 0
M  V30 1332 O 128.117 1.1313 1.43206 0
M  V30 1333 C 128.168 3.40466 -1.21512 0
M  V30 1334 O 127.889 3.52232 -2.60508 0
M  V30 1335 C 129.39 4.32145 -0.988198 0
M  V30 1336 H 126.61 0.602495 -0.295366 0
M  V30 1337 H 129.154 1.4627 -1.42918 0
M  V30 1338 H 127.309 3.81958 -0.647039 0
M  V30 1339 H 127.723 4.45549 -2.76742 0
M  V30 1340 H 129.197 5.36072 -1.31645 0
M  V30 1341 H 129.674 4.39135 0.0755063 0
M  V30 1342 H 130.28 3.96395 -1.54115 0
M  V30 1343 N 128.595 0.856903 1.32268 0
M  V30 1344 C 129.505 0.306131 2.32594 0
M  V30 1345 C 130.521 -0.577209 1.64147 0
M  V30 1346 O 131.697 -0.477043 1.95669 0
M  V30 1347 C 128.762 -0.494561 3.43154 0
M  V30 1348 C 127.823 0.415186 4.27288 0
M  V30 1349 C 127.056 -0.347387 5.32568 0
M  V30 1350 O 127.279 -1.57708 5.48165 0
M  V30 1351 O 126.213 0.287982 6.01211 0
M  V30 1352 H 130.039 1.13737 2.81598 0
M  V30 1353 H 127.624 0.619902 1.35932 0
M  V30 1354 H 129.506 -0.948944 4.10576 0
M  V30 1355 H 128.181 -1.30257 2.96336 0
M  V30 1356 H 127.088 0.917793 3.62667 0
M  V30 1357 H 128.421 1.18844 4.77637 0
M  V30 1358 N 130.073 -1.45103 0.615059 0
M  V30 1359 C 131.021 -2.32331 -0.111791 0
M  V30 1360 C 132.015 -1.46409 -0.852102 0
M  V30 1361 O 133.221 -1.62849 -0.766821 0
M  V30 1362 H 129.596 -0.749993 -0.0549072 0
M  V30 1363 H 131.567 -2.91407 0.642225 0
M  V30 1364 C 130.316 -3.3015 -1.09071 0
M  V30 1365 H 129.639 -3.96265 -0.530485 0
M  V30 1366 H 131.079 -3.93898 -1.56908 0
M  V30 1367 C 129.538 -2.57875 -2.168 0
M  V30 1368 O 130.068 -2.36567 -3.24652 0
M  V30 1369 N 128.274 -2.17884 -1.92289 0
M  V30 1370 H 127.821 -2.35413 -1.04587 0
M  V30 1371 H 127.779 -1.6985 -2.64572 0
M  V30 1372 N 131.551 -0.354651 -1.53558 0
M  V30 1373 C 132.779 0.239515 -2.05509 0
M  V30 1374 C 133.194 1.4333 -1.2289 0
M  V30 1375 O 132.551 1.80538 -0.266899 0
M  V30 1376 C 132.602 0.643719 -3.55723 0
M  V30 1377 O 132.323 -0.502602 -4.35207 0
M  V30 1378 C 133.824 1.29743 -4.23889 0
M  V30 1379 H 131.044 0.0442697 -0.669538 0
M  V30 1380 H 133.588 -0.509856 -1.98042 0
M  V30 1381 H 131.743 1.34302 -3.63376 0
M  V30 1382 H 132.157 -0.178172 -5.24197 0
M  V30 1383 H 133.631 1.53091 -5.30346 0
M  V30 1384 H 134.108 2.25441 -3.76926 0
M  V30 1385 H 134.714 0.639865 -4.20459 0
M  V30 1386 N 133.029 1.57378 -0.0835403 0
M  V30 1387 C 133.939 2.16897 0.894021 0
M  V30 1388 C 134.955 1.13528 1.31861 0
M  V30 1389 O 136.131 1.45848 1.3889 0
M  V30 1390 C 133.196 2.72831 2.13925 0
M  V30 1391 C 132.257 3.91115 1.76997 0
M  V30 1392 C 131.49 4.44371 2.95584 0
M  V30 1393 O 131.713 3.96596 4.09961 0
M  V30 1394 O 130.647 5.35549 2.74719 0
M  V30 1395 H 134.473 3.00814 0.417679 0
M  V30 1396 H 132.058 1.48741 0.140181 0
M  V30 1397 H 133.94 3.0863 2.86924 0
M  V30 1398 H 132.615 1.91967 2.60635 0
M  V30 1399 H 131.522 3.60148 1.01214 0
M  V30 1400 H 132.855 4.73307 1.3506 0
M  V30 1401 N 134.507 -0.190092 1.56449 0
M  V30 1402 C 135.455 -1.25501 1.95837 0
M  V30 1403 C 136.449 -1.4685 0.844485 0
M  V30 1404 O 137.655 -1.47651 1.02952 0
M  V30 1405 H 134.03 -0.421447 0.622805 0
M  V30 1406 H 136.001 -0.895821 2.84636 0
M  V30 1407 C 134.75 -2.59124 2.31841 0
M  V30 1408 H 134.073 -2.43514 3.17082 0
M  V30 1409 H 135.513 -3.32371 2.6326 0
M  V30 1410 C 133.972 -3.16488 1.15486 0
M  V30 1411 O 134.502 -3.99365 0.432535 0
M  V30 1412 N 132.708 -2.75305 0.930349 0
M  V30 1413 H 132.255 -2.08013 1.51948 0
M  V30 1414 H 132.213 -3.14024 0.153634 0
M  V30 1415 N 135.985 -1.50799 -0.457987 0
M  V30 1416 C 137.234 -1.6168 -1.20593 0
M  V30 1417 C 137.547 -0.32888 -1.92815 0
M  V30 1418 O 138.753 -0.316773 -2.69646 0
M  V30 1419 C 137.209 -2.8545 -2.19195 0
M  V30 1420 C 136.817 -4.21168 -1.52715 0
M  V30 1421 C 138.561 -3.05681 -2.94549 0
M  V30 1422 C 136.468 -5.3611 -2.4968 0
M  V30 1423 H 135.398 -0.602134 -0.453818 0
M  V30 1424 H 138.049 -1.77245 -0.475031 0
M  V30 1425 H 136.431 -2.63472 -2.95632 0
M  V30 1426 H 137.605 -4.53449 -0.819775 0
M  V30 1427 H 135.92 -4.06648 -0.895922 0
M  V30 1428 H 138.517 -3.88727 -3.67145 0
M  V30 1429 H 138.86 -2.17929 -3.54701 0
M  V30 1430 H 139.393 -3.27901 -2.25223 0
M  V30 1431 H 136.132 -6.26057 -1.94249 0
M  V30 1432 H 135.652 -5.0823 -3.18532 0
M  V30 1433 H 137.331 -5.6722 -3.11241 0
M  V30 1434 N 137.463 0.71206 -1.40597 0
M  V30 1435 C 138.393 1.83889 -1.43899 0
M  V30 1436 C 139.374 1.67442 -0.299504 0
M  V30 1437 O 140.559 1.87421 -0.508624 0
M  V30 1438 C 137.689 3.21877 -1.30431 0
M  V30 1439 C 136.643 3.53002 -2.42019 0
M  V30 1440 C 135.969 4.90172 -2.13626 0
M  V30 1441 C 137.269 3.53643 -3.84362 0
M  V30 1442 H 138.963 1.81383 -2.38203 0
M  V30 1443 H 136.509 0.871237 -1.14654 0
M  V30 1444 H 138.462 4.00404 -1.31357 0
M  V30 1445 H 137.186 3.24968 -0.326049 0
M  V30 1446 H 135.845 2.76818 -2.40349 0
M  V30 1447 H 135.493 4.89869 -1.14182 0
M  V30 1448 H 135.193 5.11962 -2.88389 0
M  V30 1449 H 136.717 5.71028 -2.1624 0
M  V30 1450 H 138.131 4.22203 -3.87837 0
M  V30 1451 H 136.528 3.86961 -4.58673 0
M  V30 1452 H 137.598 2.52954 -4.13693 0
M  V30 1453 N 138.941 1.26152 0.944643 0
M  V30 1454 C 139.888 1.07408 2.04285 0
M  V30 1455 C 140.858 -0.0198413 1.66088 0
M  V30 1456 O 142.043 0.139264 1.90291 0
M  V30 1457 C 139.183 0.70945 3.37729 0
M  V30 1458 C 138.296 1.87926 3.88983 0
M  V30 1459 C 137.431 1.45807 5.10797 0
M  V30 1460 C 136.47 2.5964 5.54305 0
M  V30 1461 N 135.607 2.18226 6.67324 0
M  V30 1462 H 140.447 2.01389 2.1965 0
M  V30 1463 H 137.984 1.00275 1.07626 0
M  V30 1464 H 139.942 0.478948 4.14442 0
M  V30 1465 H 138.572 -0.193389 3.2222 0
M  V30 1466 H 137.624 2.22279 3.08701 0
M  V30 1467 H 138.936 2.73377 4.17213 0
M  V30 1468 H 138.09 1.18781 5.94959 0
M  V30 1469 H 136.829 0.574414 4.84305 0
M  V30 1470 H 135.834 2.87399 4.68702 0
M  V30 1471 H 137.059 3.48599 5.828 0
M  V30 1472 H 135.005 1.3229 6.42523 0
M  V30 1473 H 134.922 2.97221 6.95123 0
M  V30 1474 H 136.19 1.94403 7.54869 0
M  V30 1475 N 140.419 -1.14872 1.07899 0
M  V30 1476 C 141.647 -1.89661 0.82683 0
M  V30 1477 C 142.062 -1.78312 -0.620519 0
M  V30 1478 O 141.419 -1.13888 -1.42604 0
M  V30 1479 C 141.47 -3.39817 1.23316 0
M  V30 1480 O 141.191 -3.50845 2.62372 0
M  V30 1481 C 142.692 -4.31615 1.0111 0
M  V30 1482 H 139.912 -0.60092 0.298557 0
M  V30 1483 H 142.456 -1.4551 1.43691 0
M  V30 1484 H 140.611 -3.8161 0.667286 0
M  V30 1485 H 141.025 -4.44076 2.79101 0
M  V30 1486 H 142.499 -5.35367 1.34486 0
M  V30 1487 H 142.976 -4.39169 -0.0522168 0
M  V30 1488 H 143.582 -3.95572 1.56215 0
M  V30 1489 N 141.898 -0.863906 -1.31812 0
M  V30 1490 C 143.144 -0.472535 -1.97218 0
M  V30 1491 C 143.477 0.971394 -1.68159 0
M  V30 1492 O 142.752 1.68309 -0.974798 0
M  V30 1493 C 143.035 -0.723054 -3.52766 0
M  V30 1494 C 142.888 -2.21608 -3.91421 0
M  V30 1495 C 144.207 -0.185522 -4.39709 0
M  V30 1496 H 141.326 -0.173158 -0.71637 0
M  V30 1497 H 143.968 -1.08403 -1.56041 0
M  V30 1498 H 142.118 -0.202577 -3.87971 0
M  V30 1499 H 143.79 -2.80334 -3.66347 0
M  V30 1500 H 142.033 -2.691 -3.40246 0
M  V30 1501 H 142.704 -2.34203 -4.99853 0
M  V30 1502 H 145.18 -0.630726 -4.11292 0
M  V30 1503 H 144.056 -0.390306 -5.47511 0
M  V30 1504 H 144.317 0.912229 -4.32586 0
M  V30 1505 N 143.376 1.44774 -0.622745 0
M  V30 1506 C 144.792 1.56986 -0.287652 0
M  V30 1507 C 144.992 1.61167 1.20944 0
M  V30 1508 O 144.048 1.55015 1.99315 0
M  V30 1509 C 145.361 2.84551 -0.972188 0
M  V30 1510 C 146.909 2.9825 -0.949536 0
M  V30 1511 C 147.384 4.28605 -1.61437 0
M  V30 1512 N 148.875 4.35399 -1.58057 0
M  V30 1513 C 149.61 5.34964 -2.064 0
M  V30 1514 N 149.106 6.40981 -2.62897 0
M  V30 1515 N 150.899 5.26419 -1.97078 0
M  V30 1516 H 143.05 1.40304 -1.59463 0
M  V30 1517 H 145.313 0.671794 -0.668878 0
M  V30 1518 H 145.019 2.87417 -2.02693 0
M  V30 1519 H 144.893 3.73807 -0.504771 0
M  V30 1520 H 147.28 2.94941 0.0967067 0
M  V30 1521 H 147.361 2.10364 -1.45536 0
M  V30 1522 H 147.005 4.32672 -2.66002 0
M  V30 1523 H 146.935 5.15334 -1.08344 0
M  V30 1524 H 149.426 3.59397 -1.16801 0
M  V30 1525 H 149.739 7.13225 -2.97539 0
M  V30 1526 H 148.084 6.4169 -2.66943 0
M  V30 1527 H 151.275 4.42504 -1.52669 0
M  V30 1528 H 151.448 6.03861 -2.35066 0
M  V30 1529 N 144.854 0.36279 1.53368 0
M  V30 1530 C 146.082 -0.228613 2.05633 0
M  V30 1531 C 146.497 -1.42676 1.23649 0
M  V30 1532 O 145.854 -1.80394 0.27647 0
M  V30 1533 C 145.905 -0.624845 3.56059 0
M  V30 1534 O 145.626 0.525675 4.34935 0
M  V30 1535 C 147.127 -1.27493 4.24571 0
M  V30 1536 H 144.347 -0.0407183 0.669763 0
M  V30 1537 H 146.891 0.520352 1.97769 0
M  V30 1538 H 145.046 -1.32373 3.64083 0
M  V30 1539 H 145.46 0.205969 5.24095 0
M  V30 1540 H 146.934 -1.50277 5.31151 0
M  V30 1541 H 147.411 -2.23439 3.78116 0
M  V30 1542 H 148.017 -0.617558 4.20792 0
M  V30 1543 N 146.332 -1.57332 0.0918853 0
M  V30 1544 C 147.295 -2.12708 -0.85369 0
M  V30 1545 C 148.295 -1.05561 -1.213 0
M  V30 1546 O 149.485 -1.31461 -1.14296 0
M  V30 1547 C 146.617 -2.64503 -2.15061 0
M  V30 1548 H 147.81 -2.97573 -0.3729 0
M  V30 1549 H 145.363 -1.55509 -0.157072 0
M  V30 1550 H 146.098 -1.83149 -2.67632 0
M  V30 1551 H 145.883 -3.4284 -1.90272 0
M  V30 1552 H 147.373 -3.07351 -2.82711 0
M  V30 1553 N 147.81 0.181792 -1.56548 0
M  V30 1554 C 149.038 0.915947 -1.85521 0
M  V30 1555 C 149.453 1.76282 -0.676016 0
M  V30 1556 O 148.81 1.79012 0.355077 0
M  V30 1557 C 148.861 1.80126 -3.13427 0
M  V30 1558 O 148.582 0.988562 -4.26801 0
M  V30 1559 C 150.083 2.64597 -3.55673 0
M  V30 1560 H 147.303 0.26661 -0.61576 0
M  V30 1561 H 149.847 0.185039 -2.03661 0
M  V30 1562 H 148.002 2.48563 -2.97145 0
M  V30 1563 H 148.416 1.59308 -4.99721 0
M  V30 1564 H 149.89 3.2235 -4.48101 0
M  V30 1565 H 150.367 3.38958 -2.79292 0
M  V30 1566 H 150.973 2.0151 -3.74532 0
M  V30 1567 N 149.288 1.51039 0.449983 0
M  V30 1568 C 150.699 1.557 1.03026 0
M  V30 1569 C 151.05 0.372939 1.92623 0
M  V30 1570 O 150.175 -0.511771 2.10261 0
M  V30 1571 C 150.77 2.82171 1.87523 0
M  V30 1572 C 149.329 2.89444 2.40622 0
M  V30 1573 C 148.476 2.50228 1.19504 0
M  V30 1574 H 151.427 1.56999 0.231745 0
M  V30 1575 H 151.448 2.65219 2.72835 0
M  V30 1576 H 150.96 3.68331 1.22286 0
M  V30 1577 H 149.061 2.07685 3.0935 0
M  V30 1578 H 149.174 3.92816 2.74285 0
M  V30 1579 H 147.538 2.03139 1.53644 0
M  V30 1580 H 148.321 3.38719 0.558972 0
M  V30 1581 N 150.766 -0.704594 1.40972 0
M  V30 1582 C 152.013 -1.46458 1.39844 0
M  V30 1583 C 152.341 -1.94499 0.00447594 0
M  V30 1584 O 151.596 -1.69275 -0.982057 0
M  V30 1585 C 151.895 -2.698 2.34399 0
M  V30 1586 C 151.561 -2.40464 3.81429 0
M  V30 1587 C 150.223 -2.32174 4.21484 0
M  V30 1588 C 152.575 -2.16086 4.74296 0
M  V30 1589 C 149.903 -1.97589 5.52427 0
M  V30 1590 C 152.255 -1.83011 6.05549 0
M  V30 1591 C 150.919 -1.7321 6.44635 0
M  V30 1592 H 150.189 -0.535927 0.511725 0
M  V30 1593 H 152.836 -0.806124 1.73706 0
M  V30 1594 H 151.141 -3.40536 1.93759 0
M  V30 1595 H 152.838 -3.27919 2.30804 0
M  V30 1596 H 149.428 -2.47808 3.49699 0
M  V30 1597 H 153.612 -2.2144 4.4416 0
M  V30 1598 H 148.868 -1.88547 5.81601 0
M  V30 1599 H 153.042 -1.63164 6.77016 0
M  V30 1600 H 150.669 -1.46179 7.46013 0
M  V30 1601 N 152.244 -1.26651 -0.937939 0
M  V30 1602 C 153.655 -1.1125 -1.49934 0
M  V30 1603 C 154.006 0.306077 -1.93798 0
M  V30 1604 O 153.131 1.19792 -1.80219 0
M  V30 1605 C 153.726 -2.01339 -2.72485 0
M  V30 1606 C 152.285 -1.90074 -3.24883 0
M  V30 1607 C 151.432 -1.94498 -1.97651 0
M  V30 1608 H 154.383 -1.39693 -0.753091 0
M  V30 1609 H 154.404 -1.56319 -3.46907 0
M  V30 1610 H 153.916 -3.04577 -2.40529 0
M  V30 1611 H 152.017 -0.897827 -3.61621 0
M  V30 1612 H 152.13 -2.75778 -3.9177 0
M  V30 1613 H 150.494 -1.38591 -2.13693 0
M  V30 1614 H 151.277 -2.99372 -1.68022 0
M  V30 1615 N 153.722 1.14298 -1.08507 0
M  V30 1616 C 154.655 2.18447 -0.660004 0
M  V30 1617 C 155.633 1.59242 0.328749 0
M  V30 1618 O 156.817 1.87062 0.232367 0
M  V30 1619 C 153.944 3.38688 0.0290807 0
M  V30 1620 C 152.99 4.1646 -0.919982 0
M  V30 1621 S 153.823 4.77334 -2.42718 0
M  V30 1622 C 154.979 6.00931 -1.75024 0
M  V30 1623 H 155.212 2.54166 -1.54231 0
M  V30 1624 H 152.745 1.25446 -0.900149 0
M  V30 1625 H 154.703 4.08342 0.420378 0
M  V30 1626 H 153.364 3.01289 0.887895 0
M  V30 1627 H 152.557 5.02529 -0.384751 0
M  V30 1628 H 152.159 3.52414 -1.25223 0
M  V30 1629 H 154.451 6.69017 -1.06877 0
M  V30 1630 H 155.394 6.59044 -2.58971 0
M  V30 1631 H 155.802 5.51089 -1.22317 0
M  V30 1632 N 155.201 0.870884 1.31352 0
M  V30 1633 C 156.447 0.482987 1.96965 0
M  V30 1634 C 156.78 -0.962462 1.68672 0
M  V30 1635 O 156.055 -1.6779 0.98371 0
M  V30 1636 C 156.338 0.741752 3.52378 0
M  V30 1637 C 156.191 2.2368 3.9024 0
M  V30 1638 C 157.51 0.208838 4.39604 0
M  V30 1639 H 154.629 0.176955 0.715441 0
M  V30 1640 H 157.271 1.09229 1.55464 0
M  V30 1641 H 155.421 0.223149 3.87859 0
M  V30 1642 H 157.093 2.82273 3.64856 0
M  V30 1643 H 155.336 2.70901 3.38814 0
M  V30 1644 H 156.007 2.3685 4.98604 0
M  V30 1645 H 158.483 0.652529 4.10952 0
M  V30 1646 H 157.359 0.419336 5.47296 0
M  V30 1647 H 157.62 -0.889275 4.33064 0
M  V30 1648 N 156.679 -1.44442 0.630414 0
M  V30 1649 C 157.904 -2.06927 0.139944 0
M  V30 1650 C 158.329 -1.46795 -1.17613 0
M  V30 1651 O 157.687 -0.569144 -1.72135 0
M  V30 1652 C 157.735 -3.6058 0.0379581 0
M  V30 1653 O 156.839 -3.99937 -1.0062 0
M  V30 1654 H 156.18 -0.658608 0.0844483 0
M  V30 1655 H 158.71 -1.85327 0.866891 0
M  V30 1656 H 158.72 -4.07714 -0.152856 0
M  V30 1657 H 157.395 -4.03728 0.998809 0
M  V30 1658 H 155.972 -3.64436 -0.79001 0
M  V30 1659 N 158.157 -0.370918 -1.53173 0
M  V30 1660 C 159.087 0.464847 -2.28826 0
M  V30 1661 C 160.068 1.07936 -1.31468 0
M  V30 1662 O 161.253 1.0956 -1.60344 0
M  V30 1663 C 158.383 1.60196 -3.08147 0
M  V30 1664 C 157.337 1.11443 -4.13237 0
M  V30 1665 C 156.663 2.3422 -4.80672 0
M  V30 1666 C 157.963 0.195384 -5.21934 0
M  V30 1667 H 159.657 -0.166329 -2.98938 0
M  V30 1668 H 157.203 -0.0814359 -1.4377 0
M  V30 1669 H 159.156 2.19332 -3.59822 0
M  V30 1670 H 157.88 2.26045 -2.35735 0
M  V30 1671 H 156.539 0.545727 -3.62515 0
M  V30 1672 H 156.187 2.98537 -4.04827 0
M  V30 1673 H 155.887 2.02269 -5.51689 0
M  V30 1674 H 157.411 2.94032 -5.35143 0
M  V30 1675 H 158.825 0.694375 -5.69079 0
M  V30 1676 H 157.222 -0.0335027 -6.00091 0
M  V30 1677 H 158.292 -0.760961 -4.78892 0
M  V30 1678 N 159.635 1.57281 -0.100228 0
M  V30 1679 C 160.882 1.94537 0.562268 0
M  V30 1680 C 161.21 0.982315 1.67871 0
M  V30 1681 O 160.465 0.00280936 1.957 0
M  V30 1682 C 160.764 3.38305 1.15259 0
M  V30 1683 C 160.43 4.50618 0.159409 0
M  V30 1684 C 159.092 4.81066 -0.113741 0
M  V30 1685 C 161.444 5.18615 -0.518461 0
M  V30 1686 C 158.772 5.76835 -1.07137 0
M  V30 1687 C 161.124 6.15412 -1.46459 0
M  V30 1688 C 159.788 6.44262 -1.74592 0
M  V30 1689 H 159.058 0.711863 0.205748 0
M  V30 1690 H 161.705 1.90679 -0.17715 0
M  V30 1691 H 160.01 3.38766 1.96836 0
M  V30 1692 H 161.707 3.64435 1.67297 0
M  V30 1693 H 158.297 4.2689 0.382491 0
M  V30 1694 H 162.481 4.95264 -0.320581 0
M  V30 1695 H 157.737 5.975 -1.29628 0
M  V30 1696 H 161.911 6.67194 -1.99564 0
M  V30 1697 H 159.538 7.1828 -2.48953 0
M  V30 1698 N 161.113 -0.173488 1.56642 0
M  V30 1699 C 162.043 -1.2171 1.99271 0
M  V30 1700 C 163.024 -1.46289 0.867959 0
M  V30 1701 O 164.209 -1.5766 1.13388 0
M  V30 1702 C 161.339 -2.55651 2.35074 0
M  V30 1703 C 160.293 -2.45645 3.50489 0
M  V30 1704 C 159.619 -3.84056 3.72028 0
M  V30 1705 C 160.919 -1.96302 4.84007 0
M  V30 1706 H 162.613 -0.86275 2.867 0
M  V30 1707 H 160.159 -0.413571 1.37933 0
M  V30 1708 H 162.112 -3.2886 2.63494 0
M  V30 1709 H 160.836 -2.92869 1.44552 0
M  V30 1710 H 159.495 -1.7489 3.22194 0
M  V30 1711 H 159.143 -4.18664 2.788 0
M  V30 1712 H 158.843 -3.7823 4.49684 0
M  V30 1713 H 160.367 -4.58854 4.02846 0
M  V30 1714 H 161.781 -2.59284 5.11317 0
M  V30 1715 H 160.178 -2.01429 5.65284 0
M  V30 1716 H 161.248 -0.917226 4.76146 0
M  V30 1717 N 162.591 -1.51276 -0.441967 0
M  V30 1718 C 163.837 -1.63958 -1.19355 0
M  V30 1719 C 164.17 -0.352543 -1.90973 0
M  V30 1720 O 163.445 0.647627 -1.83401 0
M  V30 1721 C 163.728 -2.83979 -2.21422 0
M  V30 1722 C 163.581 -4.22646 -1.53918 0
M  V30 1723 C 164.9 -2.99521 -3.22451 0
M  V30 1724 H 162.019 -0.596709 -0.432559 0
M  V30 1725 H 164.661 -1.83748 -0.483398 0
M  V30 1726 H 162.811 -2.67237 -2.81987 0
M  V30 1727 H 164.483 -4.51045 -0.967256 0
M  V30 1728 H 162.726 -4.25558 -0.841615 0
M  V30 1729 H 163.397 -5.02609 -2.28229 0
M  V30 1730 H 165.873 -3.14944 -2.71937 0
M  V30 1731 H 164.749 -3.85072 -3.91166 0
M  V30 1732 H 165.01 -2.11391 -3.88287 0
M  V30 1733 N 164.069 0.697108 -1.41344 0
M  V30 1734 C 165.316 1.45714 -1.40619 0
M  V30 1735 C 165.644 1.94494 -0.0147907 0
M  V30 1736 O 164.899 1.69794 0.973066 0
M  V30 1737 C 165.198 2.68553 -2.35826 0
M  V30 1738 C 164.864 2.38438 -3.82698 0
M  V30 1739 C 163.526 2.29936 -4.22709 0
M  V30 1740 C 165.878 2.13567 -4.75435 0
M  V30 1741 C 163.206 1.94656 -5.53467 0
M  V30 1742 C 165.558 1.79797 -6.06511 0
M  V30 1743 C 164.222 1.69789 -6.45545 0
M  V30 1744 H 163.492 0.533206 -0.51456 0
M  V30 1745 H 166.139 0.796901 -1.74131 0
M  V30 1746 H 164.444 3.39503 -1.95563 0
M  V30 1747 H 166.141 3.2669 -2.32539 0
M  V30 1748 H 162.731 2.4595 -3.51008 0
M  V30 1749 H 166.915 2.19082 -4.45328 0
M  V30 1750 H 162.171 1.8546 -5.82593 0
M  V30 1751 H 166.345 1.59572 -6.77872 0
M  V30 1752 H 163.972 1.4222 -7.46778 0
M  V30 1753 N 165.547 1.27147 0.931209 0
M  V30 1754 C 166.775 1.16082 1.71267 0
M  V30 1755 C 167.19 -0.282772 1.8667 0
M  V30 1756 O 166.547 -1.19283 1.38122 0
M  V30 1757 C 166.598 1.8358 3.11417 0
M  V30 1758 O 166.319 3.22299 2.96741 0
M  V30 1759 C 167.82 1.78597 4.05732 0
M  V30 1760 H 165.04 0.403758 0.535929 0
M  V30 1761 H 167.584 1.67953 1.16671 0
M  V30 1762 H 165.739 1.35623 3.62885 0
M  V30 1763 H 166.153 3.55851 3.85319 0
M  V30 1764 H 167.627 2.30444 5.01597 0
M  V30 1765 H 168.104 0.754564 4.3267 0
M  V30 1766 H 168.71 2.26152 3.60188 0
M  V30 1767 N 167.025 -1.13721 1.09112 0
M  V30 1768 C 167.988 -2.17222 0.731241 0
M  V30 1769 C 168.988 -1.59035 -0.237566 0
M  V30 1770 O 170.178 -1.74192 -0.0161704 0
M  V30 1771 C 167.31 -3.40804 0.0808443 0
M  V30 1772 H 168.503 -2.50573 1.64783 0
M  V30 1773 H 166.056 -1.28493 0.889897 0
M  V30 1774 H 166.791 -3.1304 -0.847127 0
M  V30 1775 H 166.576 -3.84306 0.777896 0
M  V30 1776 H 168.066 -4.1731 -0.155657 0
M  V30 1777 N 168.503 -0.877838 -1.30888 0
M  V30 1778 C 169.75 -0.492696 -1.96415 0
M  V30 1779 C 170.078 0.956671 -1.69346 0
M  V30 1780 O 169.333 1.68993 -0.986913 0
M  V30 1781 C 169.632 -0.705748 -3.50363 0
M  V30 1782 C 169.298 -2.1291 -3.97467 0
M  V30 1783 C 167.96 -2.51834 -4.1004 0
M  V30 1784 C 170.312 -3.05702 -4.22132 0
M  V30 1785 C 167.64 -3.82775 -4.44635 0
M  V30 1786 C 169.992 -4.36166 -4.58194 0
M  V30 1787 C 168.656 -4.74993 -4.68975 0
M  V30 1788 H 167.926 -0.18029 -0.718733 0
M  V30 1789 H 170.573 -1.11233 -1.55883 0
M  V30 1790 H 168.878 -0.00303058 -3.918 0
M  V30 1791 H 170.575 -0.387456 -3.99124 0
M  V30 1792 H 167.165 -1.81694 -3.88182 0
M  V30 1793 H 171.349 -2.76853 -4.11906 0
M  V30 1794 H 166.605 -4.12609 -4.51181 0
M  V30 1795 H 170.779 -5.08111 -4.76231 0
M  V30 1796 H 168.406 -5.76495 -4.95537 0
M  V30 1797 N 169.982 1.44106 -0.638065 0
M  V30 1798 C 171.228 2.02277 -0.145546 0
M  V30 1799 C 171.561 1.50125 1.23191 0
M  V30 1800 O 170.836 0.688133 1.8192 0
M  V30 1801 C 171.119 3.59829 -0.139791 0
M  V30 1802 C 170.972 4.22247 -1.55008 0
M  V30 1803 C 172.291 4.36873 0.531966 0
M  V30 1804 H 169.41 0.734992 -0.0543632 0
M  V30 1805 H 172.052 1.71592 -0.815863 0
M  V30 1806 H 170.202 3.86102 0.431007 0
M  V30 1807 H 171.874 4.07057 -2.1703 0
M  V30 1808 H 170.117 3.79476 -2.10191 0
M  V30 1809 H 170.788 5.31284 -1.49804 0
M  V30 1810 H 173.264 4.16074 0.0464781 0
M  V30 1811 H 172.14 5.4657 0.505206 0
M  V30 1812 H 172.401 4.11995 1.60352 0
M  V30 1813 N 171.46 0.379036 1.52974 0
M  V30 1814 C 172.709 -0.207612 2.00629 0
M  V30 1815 C 173.022 -1.48758 1.27006 0
M  V30 1816 O 174.228 -2.15365 1.65318 0
M  V30 1817 C 172.684 -0.42053 3.57435 0
M  V30 1818 C 172.292 0.845587 4.39948 0
M  V30 1819 C 174.036 -0.964102 4.13407 0
M  V30 1820 C 171.943 0.601513 5.88333 0
M  V30 1821 H 170.873 -0.0813591 0.749598 0
M  V30 1822 H 173.524 0.499853 1.76561 0
M  V30 1823 H 171.906 -1.18959 3.7771 0
M  V30 1824 H 173.08 1.61848 4.31442 0
M  V30 1825 H 171.395 1.31336 3.95145 0
M  V30 1826 H 173.992 -1.16225 5.21916 0
M  V30 1827 H 174.335 -1.93019 3.68849 0
M  V30 1828 H 174.868 -0.25487 3.96983 0
M  V30 1829 H 171.607 1.53831 6.37194 0
M  V30 1830 H 171.127 -0.132628 5.99653 0
M  V30 1831 H 172.806 0.232134 6.46583 0
M  V30 1832 N 172.938 -1.57226 0.108567 0
M  V30 1833 C 174.163 -1.99604 -0.563303 0
M  V30 1834 C 174.588 -0.987563 -1.6009 0
M  V30 1835 O 173.946 0.0421687 -1.81251 0
M  V30 1836 C 173.994 -3.40902 -1.17552 0
M  V30 1837 O 173.098 -3.42896 -2.2912 0
M  V30 1838 H 172.439 -0.648704 -0.1417 0
M  V30 1839 H 174.969 -2.03679 0.193961 0
M  V30 1840 H 174.979 -3.78886 -1.51357 0
M  V30 1841 H 173.654 -4.1382 -0.415445 0
M  V30 1842 H 172.231 -3.1672 -1.96832 0
M  V30 1843 N 174.416 0.165178 -1.56732 0
M  V30 1844 C 175.364 1.22369 -1.97809 0
M  V30 1845 C 176.358 1.45488 -0.867741 0
M  V30 1846 O 177.564 1.45995 -1.05288 0
M  V30 1847 H 173.939 0.411486 -0.629431 0
M  V30 1848 H 175.91 0.850425 -2.86025 0
M  V30 1849 C 174.659 2.55403 -2.35934 0
M  V30 1850 H 173.982 2.38438 -3.20916 0
M  V30 1851 H 175.422 3.2814 -2.68514 0
M  V30 1852 C 173.881 3.14611 -1.20506 0
M  V30 1853 O 174.411 3.98626 -0.496016 0
M  V30 1854 N 172.617 2.7379 -0.97403 0
M  V30 1855 H 172.164 2.0557 -1.55238 0
M  V30 1856 H 172.122 3.1374 -0.203573 0
M  V30 1857 N 175.894 1.51508 0.433938 0
M  V30 1858 C 177.143 1.63578 1.18005 0
M  V30 1859 C 177.456 0.359514 1.92268 0
M  V30 1860 O 178.662 0.359632 2.69108 0
M  V30 1861 C 177.118 2.88901 2.14626 0
M  V30 1862 C 176.726 4.23544 1.45995 0
M  V30 1863 C 178.47 3.10328 2.89649 0
M  V30 1864 C 176.377 5.40014 2.4112 0
M  V30 1865 H 175.307 0.609277 0.444182 0
M  V30 1866 H 177.958 1.77978 0.446773 0
M  V30 1867 H 176.34 2.68142 2.91403 0
M  V30 1868 H 177.514 4.54696 0.747532 0
M  V30 1869 H 175.829 4.08021 0.831115 0
M  V30 1870 H 178.426 3.94518 3.60915 0
M  V30 1871 H 178.769 2.23544 3.51189 0
M  V30 1872 H 179.302 3.31443 2.19978 0
M  V30 1873 H 176.041 6.29068 1.84264 0
M  V30 1874 H 175.561 5.13233 3.10406 0
M  V30 1875 H 177.24 5.72099 3.02177 0
M  V30 1876 N 177.372 -0.689602 1.41712 0
M  V30 1877 C 178.62 -1.4468 1.4111 0
M  V30 1878 C 178.941 -1.94986 0.0232196 0
M  V30 1879 O 178.211 -1.72097 -0.935913 0
M  V30 1880 H 176.791 -0.536847 0.519427 0
M  V30 1881 H 179.453 -0.815825 1.77004 0
M  V30 1882 H 178.549 -2.30706 2.10193 0
M  V30 1883 N 178.85 -1.27639 -0.924453 0
M  V30 1884 C 179.8 -1.07295 -2.01176 0
M  V30 1885 C 180.784 5.77352e-05 -1.609 0
M  V30 1886 O 181.976 -0.218855 -1.75642 0
M  V30 1887 C 179.105 -0.725592 -3.35544 0
M  V30 1888 C 178.191 -1.83691 -3.82254 0
M  V30 1889 N 178.582 -3.07697 -4.01443 0
M  V30 1890 C 176.88 -1.72433 -4.11319 0
M  V30 1891 C 177.581 -3.80037 -4.40394 0
M  V30 1892 N 176.557 -3.0782 -4.48049 0
M  V30 1893 H 180.359 -2.01399 -2.14046 0
M  V30 1894 H 177.873 -1.18401 -1.11153 0
M  V30 1895 H 179.87 -0.560959 -4.13109 0
M  V30 1896 H 178.53 0.207782 -3.24034 0
M  V30 1897 H 179.541 -3.43424 -3.8766 0
M  V30 1898 H 176.218 -0.862005 -4.08504 0
M  V30 1899 H 177.608 -4.86632 -4.63291 0
M  V30 1900 N 180.328 1.1314 -1.09713 0
M  V30 1901 C 181.577 1.83838 -0.829851 0
M  V30 1902 C 181.89 1.84599 0.646728 0
M  V30 1903 O 183.096 2.51218 1.02965 0
M  V30 1904 C 181.552 3.30069 -1.43466 0
M  V30 1905 C 181.16 3.37688 -2.94399 0
M  V30 1906 C 182.904 4.05788 -1.24645 0
M  V30 1907 C 180.811 4.78209 -3.47952 0
M  V30 1908 H 179.741 0.68877 -0.306777 0
M  V30 1909 H 182.392 1.27448 -1.3202 0
M  V30 1910 H 180.774 3.8628 -0.871996 0
M  V30 1911 H 181.948 2.91456 -3.56918 0
M  V30 1912 H 180.263 2.75436 -3.12289 0
M  V30 1913 H 182.86 5.09535 -1.62107 0
M  V30 1914 H 183.203 4.15878 -0.187357 0
M  V30 1915 H 183.736 3.55915 -1.77678 0
M  V30 1916 H 180.475 4.73311 -4.53495 0
M  V30 1917 H 179.995 5.24924 -2.90198 0
M  V30 1918 H 181.674 5.47133 -3.45332 0
M  V30 1919 N 181.806 0.884767 1.30421 0
M  V30 1920 C 183.222 0.57874 1.48737 0
M  V30 1921 C 183.422 -0.883567 1.81095 0
M  V30 1922 O 182.478 -1.6648 1.89844 0
M  V30 1923 C 183.791 1.49171 2.61091 0
M  V30 1924 C 185.339 1.49532 2.74971 0
M  V30 1925 C 185.814 2.39421 3.90438 0
M  V30 1926 N 187.305 2.37383 3.97748 0
M  V30 1927 C 188.04 3.03647 4.86401 0
M  V30 1928 N 187.536 3.79136 5.79852 0
M  V30 1929 N 189.329 2.9288 4.79768 0
M  V30 1930 H 181.48 1.83075 1.0769 0
M  V30 1931 H 183.743 0.783637 0.533495 0
M  V30 1932 H 183.449 2.53291 2.44001 0
M  V30 1933 H 183.323 1.20113 3.57565 0
M  V30 1934 H 185.71 0.46163 2.91467 0
M  V30 1935 H 185.791 1.8262 1.79119 0
M  V30 1936 H 185.435 3.42874 3.74699 0
M  V30 1937 H 185.365 2.03649 4.85628 0
M  V30 1938 H 187.856 1.82525 3.30897 0
M  V30 1939 H 188.169 4.26789 6.4426 0
M  V30 1940 H 186.514 3.83243 5.79784 0
M  V30 1941 H 189.705 2.33433 4.05742 0
M  V30 1942 H 189.878 3.448 5.4865 0
M  V30 1943 N 183.284 -1.43765 0.645699 0
M  V30 1944 C 184.695 -1.85193 0.236719 0
M  V30 1945 C 185.046 -1.54045 -1.21509 0
M  V30 1946 O 184.171 -0.985694 -1.92647 0
M  V30 1947 C 184.766 -3.36151 0.422845 0
M  V30 1948 C 183.325 -3.76338 0.0682492 0
M  V30 1949 C 182.472 -2.67538 0.729306 0
M  V30 1950 H 185.423 -1.34025 0.849883 0
M  V30 1951 H 185.444 -3.79032 -0.333904 0
M  V30 1952 H 184.956 -3.5879 1.47958 0
M  V30 1953 H 183.057 -3.59312 -0.986179 0
M  V30 1954 H 183.17 -4.76603 0.488469 0
M  V30 1955 H 181.534 -2.54176 0.163235 0
M  V30 1956 H 182.317 -2.93006 1.78892 0
M  V30 1957 N 184.763 -0.387143 -1.52771 0
M  V30 1958 C 185.695 0.484089 -2.2403 0
M  V30 1959 C 186.708 1.02849 -1.26198 0
M  V30 1960 O 187.897 0.931186 -1.52286 0
M  V30 1961 C 184.997 1.68337 -2.94136 0
M  V30 1962 C 184.17 1.26672 -4.18656 0
M  V30 1963 C 183.229 2.33045 -4.7178 0
M  V30 1964 O 182.255 1.94541 -5.34923 0
M  V30 1965 N 183.457 3.64929 -4.5145 0
M  V30 1966 H 186.222 -0.126404 -2.99433 0
M  V30 1967 H 183.783 -0.213392 -1.60488 0
M  V30 1968 H 185.775 2.39019 -3.26577 0
M  V30 1969 H 184.345 2.20025 -2.22053 0
M  V30 1970 H 183.565 0.388878 -3.92277 0
M  V30 1971 H 184.853 0.964964 -4.99566 0
M  V30 1972 H 184.251 3.98974 -4.01044 0
M  V30 1973 H 182.808 4.31651 -4.88386 0
M  V30 1974 N 186.241 1.57166 -0.116904 0
M  V30 1975 C 187.657 1.5779 0.239693 0
M  V30 1976 C 187.857 1.1295 1.66867 0
M  V30 1977 O 186.913 0.81592 2.38954 0
M  V30 1978 C 188.226 3.00699 0.00828202 0
M  V30 1979 C 189.774 3.12912 0.0743438 0
M  V30 1980 C 190.249 4.57817 -0.129348 0
M  V30 1981 N 191.74 4.63139 -0.075247 0
M  V30 1982 C 192.475 5.73023 -0.207788 0
M  V30 1983 N 191.971 6.91665 -0.396382 0
M  V30 1984 N 193.764 5.61906 -0.14751 0
M  V30 1985 H 185.915 1.84615 -1.05029 0
M  V30 1986 H 188.178 0.85311 -0.41341 0
M  V30 1987 H 187.884 3.37784 -0.979531 0
M  V30 1988 H 187.758 3.69848 0.741077 0
M  V30 1989 H 190.145 2.75686 1.05268 0
M  V30 1990 H 190.226 2.4631 -0.690297 0
M  V30 1991 H 189.87 4.95742 -1.10465 0
M  V30 1992 H 189.8 5.22507 0.655253 0
M  V30 1993 H 192.291 3.7784 0.0670898 0
M  V30 1994 H 192.604 7.71255 -0.488437 0
M  V30 1995 H 190.949 6.93654 -0.432329 0
M  V30 1996 H 194.14 4.681 -0.00115036 0
M  V30 1997 H 194.313 6.47501 -0.254247 0
M  V30 1998 N 187.719 -0.156864 1.56817 0
M  V30 1999 C 188.947 -0.886316 1.86955 0
M  V30 2000 C 189.362 -1.75185 0.703975 0
M  V30 2001 O 188.719 -1.79555 -0.326552 0
M  V30 2002 C 188.77 -1.75117 3.16253 0
M  V30 2003 O 188.491 -0.920537 4.2832 0
M  V30 2004 C 189.992 -2.58905 3.59837 0
M  V30 2005 H 187.212 -0.25678 0.619923 0
M  V30 2006 H 189.756 -0.152615 2.0393 0
M  V30 2007 H 187.911 -2.43805 3.01062 0
M  V30 2008 H 188.325 -1.51337 5.02192 0
M  V30 2009 H 189.799 -3.1518 4.53172 0
M  V30 2010 H 190.276 -3.34472 2.84649 0
M  V30 2011 H 190.882 -1.95526 3.7769 0
M  V30 2012 N 189.197 -1.51736 -0.425897 0
M  V30 2013 C 190.446 -1.64201 -1.17136 0
M  V30 2014 C 190.759 -0.369705 -1.92074 0
M  V30 2015 O 191.965 -0.373898 -2.68913 0
M  V30 2016 C 190.421 -2.90035 -2.13091 0
M  V30 2017 C 190.029 -4.24312 -1.43747 0
M  V30 2018 C 191.773 -3.1186 -2.87999 0
M  V30 2019 C 189.68 -5.41285 -2.38253 0
M  V30 2020 H 188.61 -0.611624 -0.440944 0
M  V30 2021 H 191.261 -1.78212 -0.437328 0
M  V30 2022 H 189.643 -2.69684 -2.89977 0
M  V30 2023 H 190.817 -4.55086 -0.723408 0
M  V30 2024 H 189.132 -4.08456 -0.809465 0
M  V30 2025 H 191.729 -3.96427 -3.58817 0
M  V30 2026 H 192.072 -2.25403 -3.49999 0
M  V30 2027 H 192.605 -3.32605 -2.18217 0
M  V30 2028 H 189.344 -6.30037 -1.80925 0
M  V30 2029 H 188.864 -5.14872 -3.0768 0
M  V30 2030 H 190.543 -5.73694 -2.99139 0
M  V30 2031 N 190.675 0.682077 -1.42076 0
M  V30 2032 C 191.605 1.80796 -1.47767 0
M  V30 2033 C 192.586 1.6677 -0.334954 0
M  V30 2034 O 193.771 1.863 -0.548264 0
M  V30 2035 C 190.901 3.19038 -1.37229 0
M  V30 2036 C 189.855 3.47789 -2.49453 0
M  V30 2037 C 189.181 4.8553 -2.23975 0
M  V30 2038 C 190.481 3.45411 -3.91776 0
M  V30 2039 H 192.175 1.7629 -2.41997 0
M  V30 2040 H 189.721 0.846721 -1.16476 0
M  V30 2041 H 191.674 3.97528 -1.39821 0
M  V30 2042 H 190.398 3.24204 -0.394907 0
M  V30 2043 H 189.057 2.71657 -2.46166 0
M  V30 2044 H 188.705 4.87337 -1.24547 0
M  V30 2045 H 188.405 5.0573 -2.99184 0
M  V30 2046 H 189.929 5.66312 -2.28304 0
M  V30 2047 H 191.343 4.13882 -3.96705 0
M  V30 2048 H 189.74 3.77145 -4.66778 0
M  V30 2049 H 190.81 2.44122 -4.18966 0
M  V30 2050 N 192.153 1.28127 0.917671 0
M  V30 2051 C 193.116 1.11744 2.00115 0
M  V30 2052 C 194.116 0.0583052 1.60694 0
M  V30 2053 O 195.306 0.303755 1.71531 0
M  V30 2054 C 192.438 0.704862 3.33533 0
M  V30 2055 H 193.631 2.07966 2.16079 0
M  V30 2056 H 191.184 1.11058 1.09981 0
M  V30 2057 H 191.919 -0.258299 3.2327 0
M  V30 2058 H 191.704 1.4699 3.63505 0
M  V30 2059 H 193.194 0.612768 4.1308 0
M  V30 2060 N 193.631 -1.12557 1.10312 0
M  V30 2061 C 194.878 -1.84038 0.844759 0
M  V30 2062 C 195.206 -1.84026 -0.629668 0
M  V30 2063 O 194.461 -1.28026 -1.48013 0
M  V30 2064 C 194.76 -3.31462 1.33669 0
M  V30 2065 C 194.426 -3.51647 2.82232 0
M  V30 2066 C 193.088 -3.56864 3.22802 0
M  V30 2067 C 195.44 -3.58867 3.77974 0
M  V30 2068 C 192.768 -3.66844 4.57867 0
M  V30 2069 C 195.12 -3.70375 5.1284 0
M  V30 2070 C 193.784 -3.73848 5.52986 0
M  V30 2071 H 193.054 -0.673444 0.309119 0
M  V30 2072 H 195.701 -1.32824 1.37949 0
M  V30 2073 H 194.006 -3.85091 0.721949 0
M  V30 2074 H 195.703 -3.85236 1.11329 0
M  V30 2075 H 192.293 -3.48249 2.49842 0
M  V30 2076 H 196.477 -3.54107 3.47738 0
M  V30 2077 H 191.733 -3.67804 4.88396 0
M  V30 2078 H 195.907 -3.74904 5.86873 0
M  V30 2079 H 193.534 -3.81333 6.57639 0
M  V30 2080 N 195.109 -0.891671 -1.2995 0
M  V30 2081 C 196.355 -0.514261 -1.96171 0
M  V30 2082 C 196.688 0.935506 -1.70182 0
M  V30 2083 O 195.963 1.66204 -1.01028 0
M  V30 2084 C 196.246 -0.797719 -3.51153 0
M  V30 2085 C 196.099 -2.2986 -3.86632 0
M  V30 2086 C 197.418 -0.278749 -4.39216 0
M  V30 2087 H 194.537 -0.188314 -0.712535 0
M  V30 2088 H 197.179 -1.11689 -1.53706 0
M  V30 2089 H 195.329 -0.284826 -3.87455 0
M  V30 2090 H 197.001 -2.88042 -3.60319 0
M  V30 2091 H 195.244 -2.76257 -3.34462 0
M  V30 2092 H 195.915 -2.44753 -4.94773 0
M  V30 2093 H 198.391 -0.717825 -4.09862 0
M  V30 2094 H 197.267 -0.506353 -5.46559 0
M  V30 2095 H 197.528 0.820266 -4.34424 0
M  V30 2096 N 196.587 1.43421 -0.653314 0
M  V30 2097 C 197.812 2.06678 -0.172846 0
M  V30 2098 C 198.237 1.48648 1.15262 0
M  V30 2099 O 197.595 0.596457 1.71208 0
M  V30 2100 C 197.643 3.60474 -0.0953184 0
M  V30 2101 O 196.747 4.01487 0.942442 0
M  V30 2102 H 196.088 0.657181 -0.0949155 0
M  V30 2103 H 198.618 1.83925 -0.896265 0
M  V30 2104 H 198.628 4.07905 0.0879728 0
M  V30 2105 H 197.303 4.02088 -1.06291 0
M  V30 2106 H 195.88 3.65646 0.731932 0
M  V30 2107 N 198.065 0.39524 1.52563 0
M  V30 2108 C 199.313 -0.184678 2.01254 0
M  V30 2109 C 199.634 -1.46822 1.28329 0
M  V30 2110 O 198.904 -1.91666 0.405094 0
M  V30 2111 H 197.484 -0.0712355 0.743596 0
M  V30 2112 H 200.146 0.528293 1.87603 0
M  V30 2113 H 199.242 -0.390681 3.09645 0
M  V30 2114 N 199.544 -1.57102 0.125237 0
M  V30 2115 C 200.793 -1.94582 -0.531095 0
M  V30 2116 C 201.106 -1.01126 -1.6743 0
M  V30 2117 O 202.312 -1.28097 -2.39381 0
M  V30 2118 C 200.768 -3.45839 -0.996164 0
M  V30 2119 C 200.376 -4.47842 0.118926 0
M  V30 2120 C 202.12 -3.92227 -1.62352 0
M  V30 2121 C 200.027 -5.90284 -0.363192 0
M  V30 2122 H 198.957 -0.726391 -0.20217 0
M  V30 2123 H 201.608 -1.82339 0.206092 0
M  V30 2124 H 199.99 -3.53338 -1.78796 0
M  V30 2125 H 201.164 -4.52018 0.895358 0
M  V30 2126 H 199.479 -4.11243 0.653324 0
M  V30 2127 H 202.076 -4.96069 -1.99548 0
M  V30 2128 H 202.419 -3.32552 -2.50429 0
M  V30 2129 H 202.952 -3.87554 -0.897019 0
M  V30 2130 H 199.691 -6.53728 0.481679 0
M  V30 2131 H 199.211 -5.89515 -1.10597 0
M  V30 2132 H 200.89 -6.41752 -0.822377 0
M  V30 2133 N 201.022 0.148545 -1.56898 0
M  V30 2134 C 202.269 0.861418 -1.83264 0
M  V30 2135 C 202.597 1.81239 -0.705883 0
M  V30 2136 O 201.852 1.93305 0.305212 0
M  V30 2137 C 202.151 1.67064 -3.1595 0
M  V30 2138 C 201.817 0.866591 -4.42494 0
M  V30 2139 C 200.479 0.644762 -4.76861 0
M  V30 2140 C 202.831 0.30418 -5.20312 0
M  V30 2141 C 200.159 -0.15021 -5.86508 0
M  V30 2142 C 202.511 -0.477824 -6.30793 0
M  V30 2143 C 201.175 -0.710244 -6.63711 0
M  V30 2144 H 200.445 0.315215 -0.670612 0
M  V30 2145 H 203.092 0.125142 -1.91091 0
M  V30 2146 H 201.397 2.47698 -3.03567 0
M  V30 2147 H 203.094 2.22566 -3.33565 0
M  V30 2148 H 199.684 1.04955 -4.15551 0
M  V30 2149 H 203.868 0.462844 -4.94137 0
M  V30 2150 H 199.124 -0.339796 -6.10455 0
M  V30 2151 H 203.298 -0.92076 -6.90286 0
M  V30 2152 H 200.925 -1.3281 -7.48509 0
M  V30 2153 N 202.5 1.5196 0.417844 0
M  V30 2154 C 203.747 1.65591 1.16559 0
M  V30 2155 C 204.075 0.381565 1.90721 0
M  V30 2156 O 203.33 -0.635156 1.85106 0
M  V30 2157 C 203.629 2.82269 2.19223 0
M  V30 2158 C 203.295 4.20819 1.61933 0
M  V30 2159 C 201.957 4.58506 1.46033 0
M  V30 2160 C 204.309 5.07196 1.20008 0
M  V30 2161 C 201.637 5.80257 0.867113 0
M  V30 2162 C 203.989 6.29544 0.621086 0
M  V30 2163 C 202.653 6.65987 0.449144 0
M  V30 2164 H 201.923 0.605939 0.42652 0
M  V30 2165 H 204.57 1.86041 0.45397 0
M  V30 2166 H 202.875 2.56118 2.96498 0
M  V30 2167 H 204.572 2.90012 2.76936 0
M  V30 2168 H 201.162 3.91116 1.7529 0
M  V30 2169 H 205.346 4.7867 1.31105 0
M  V30 2170 H 200.602 6.07124 0.721833 0
M  V30 2171 H 204.776 6.95805 0.287798 0
M  V30 2172 H 202.403 7.60199 -0.012632 0
M  V30 2173 N 203.978 -0.674533 1.42435 0
M  V30 2174 C 205.227 -1.43034 1.42212 0
M  V30 2175 C 205.54 -1.95555 0.0420788 0
M  V30 2176 O 206.746 -2.71374 -0.0827558 0
M  V30 2177 C 205.202 -2.58748 2.50155 0
M  V30 2178 C 204.81 -2.12925 3.94166 0
M  V30 2179 C 206.554 -3.36257 2.59098 0
M  V30 2180 C 204.461 -3.25723 4.93618 0
M  V30 2181 H 203.391 -0.537345 0.528939 0
M  V30 2182 H 206.042 -0.73024 1.68344 0
M  V30 2183 H 204.424 -3.31128 2.17188 0
M  V30 2184 H 205.598 -1.47697 4.36488 0
M  V30 2185 H 203.913 -1.48354 3.89076 0
M  V30 2186 H 206.51 -4.20264 3.30578 0
M  V30 2187 H 206.853 -3.82866 1.63461 0
M  V30 2188 H 207.386 -2.70947 2.9126 0
M  V30 2189 H 204.125 -2.84105 5.90732 0
M  V30 2190 H 203.645 -3.89732 4.55926 0
M  V30 2191 H 205.324 -3.91186 5.15347 0
M  V30 2192 N 205.456 -1.28612 -0.910864 0
M  V30 2193 C 206.386 -1.15326 -2.03032 0
M  V30 2194 C 207.367 -0.0502924 -1.70026 0
M  V30 2195 O 208.552 -0.227797 -1.92859 0
M  V30 2196 C 205.682 -0.817343 -3.37545 0
M  V30 2197 C 204.636 -1.8754 -3.84724 0
M  V30 2198 C 203.962 -1.39305 -5.16235 0
M  V30 2199 C 205.262 -3.28244 -4.06267 0
M  V30 2200 H 206.956 -2.08975 -2.14406 0
M  V30 2201 H 204.502 -1.00612 -1.03021 0
M  V30 2202 H 206.455 -0.711151 -4.15356 0
M  V30 2203 H 205.179 0.154846 -3.26233 0
M  V30 2204 H 203.838 -1.97079 -3.09121 0
M  V30 2205 H 203.486 -0.409846 -5.01328 0
M  V30 2206 H 203.186 -2.10057 -5.48771 0
M  V30 2207 H 204.71 -1.30014 -5.96598 0
M  V30 2208 H 206.124 -3.21611 -4.74594 0
M  V30 2209 H 204.521 -3.96855 -4.5014 0
M  V30 2210 H 205.591 -3.72048 -3.10979 0
M  V30 2211 N 206.934 1.1197 -1.10907 0
M  V30 2212 C 208.159 1.87942 -0.877064 0
M  V30 2213 C 208.584 1.79341 0.567314 0
M  V30 2214 O 207.942 1.15184 1.40009 0
M  V30 2215 C 207.99 3.34926 -1.33629 0
M  V30 2216 O 207.094 4.09303 -0.504447 0
M  V30 2217 H 206.435 0.583785 -0.316371 0
M  V30 2218 H 208.965 1.4157 -1.47712 0
M  V30 2219 H 208.975 3.8577 -1.32837 0
M  V30 2220 H 207.65 3.40504 -2.3881 0
M  V30 2221 H 206.227 3.68393 -0.577993 0
M  V30 2222 N 208.412 0.89855 1.29475 0
M  V30 2223 C 209.66 0.522847 1.9522 0
M  V30 2224 C 209.981 -0.93371 1.71192 0
M  V30 2225 O 209.251 -1.65823 1.04305 0
M  V30 2226 H 207.831 0.190366 0.722336 0
M  V30 2227 H 210.493 1.14459 1.5775 0
M  V30 2228 H 209.589 0.704476 3.04045 0
M  V30 2229 N 209.89 -1.43072 0.660911 0
M  V30 2230 C 210.82 -2.33497 -0.0122829 0
M  V30 2231 C 211.801 -1.49903 -0.803925 0
M  V30 2232 O 212.986 -1.78546 -0.763864 0
M  V30 2233 C 210.116 -3.33363 -0.973994 0
M  V30 2234 C 209.07 -4.27003 -0.291928 0
M  V30 2235 C 208.396 -5.16967 -1.36562 0
M  V30 2236 C 209.696 -5.15816 0.820462 0
M  V30 2237 H 211.39 -2.90038 0.742873 0
M  V30 2238 H 208.936 -1.39461 0.358688 0
M  V30 2239 H 210.889 -3.95524 -1.45392 0
M  V30 2240 H 209.613 -2.75095 -1.7604 0
M  V30 2241 H 208.272 -3.66217 0.167623 0
M  V30 2242 H 207.92 -4.55034 -2.14366 0
M  V30 2243 H 207.62 -5.80441 -0.914454 0
M  V30 2244 H 209.144 -5.82003 -1.84675 0
M  V30 2245 H 210.558 -5.71742 0.422366 0
M  V30 2246 H 208.955 -5.8805 1.19656 0
M  V30 2247 H 210.025 -4.55045 1.67518 0
M  V30 2248 N 211.368 -0.403325 -1.52352 0
M  V30 2249 C 212.593 0.176499 -2.06648 0
M  V30 2250 C 213.018 1.38577 -1.27193 0
M  V30 2251 O 212.376 1.7879 -0.300637 0
M  V30 2252 C 212.424 0.511061 -3.5696 0
M  V30 2253 O 211.528 1.60294 -3.79973 0
M  V30 2254 H 210.869 0.0167337 -0.663789 0
M  V30 2255 H 213.399 -0.574848 -1.96359 0
M  V30 2256 H 213.409 0.771362 -4.00642 0
M  V30 2257 H 212.084 -0.37296 -4.14224 0
M  V30 2258 H 210.661 1.33526 -3.48174 0
M  V30 2259 N 212.846 1.57033 -0.133567 0
M  V30 2260 C 213.776 2.1909 0.807567 0
M  V30 2261 C 214.757 1.13517 1.26681 0
M  V30 2262 O 215.942 1.41809 1.32679 0
M  V30 2263 C 213.072 2.80188 2.05212 0
M  V30 2264 C 212.026 3.91471 1.73015 0
M  V30 2265 C 211.352 4.39443 3.04622 0
M  V30 2266 C 212.652 5.12886 0.987168 0
M  V30 2267 H 214.346 2.97988 0.290403 0
M  V30 2268 H 211.892 1.43335 0.138239 0
M  V30 2269 H 213.845 3.22264 2.71521 0
M  V30 2270 H 212.569 1.98601 2.59278 0
M  V30 2271 H 211.228 3.49993 1.0909 0
M  V30 2272 H 210.876 3.54695 3.56651 0
M  V30 2273 H 210.576 5.14495 2.83847 0
M  V30 2274 H 212.1 4.8418 3.72024 0
M  V30 2275 H 213.514 5.51891 1.55208 0
M  V30 2276 H 211.911 5.93615 0.87985 0
M  V30 2277 H 212.981 4.84894 -0.0235286 0
M  V30 2278 N 214.325 -0.140222 1.56975 0
M  V30 2279 C 215.571 -0.852949 1.83991 0
M  V30 2280 C 215.904 -1.80512 0.716187 0
M  V30 2281 O 215.179 -1.92479 -0.279681 0
M  V30 2282 C 215.462 -1.6215 3.21527 0
M  V30 2283 C 215.315 -0.690363 4.4447 0
M  V30 2284 C 216.634 -2.58247 3.56366 0
M  V30 2285 H 213.753 -0.308634 0.669264 0
M  V30 2286 H 216.395 -0.117898 1.89634 0
M  V30 2287 H 214.545 -2.24812 3.16847 0
M  V30 2288 H 216.217 -0.0742264 4.6124 0
M  V30 2289 H 214.46 -0.000396433 4.338 0
M  V30 2290 H 215.131 -1.2643 5.37326 0
M  V30 2291 H 217.607 -2.05701 3.61699 0
M  V30 2292 H 216.483 -3.09067 4.53617 0
M  V30 2293 H 216.744 -3.39923 2.82674 0
M  V30 2294 N 215.803 -1.52179 -0.40978 0
M  V30 2295 C 217.049 -1.66453 -1.15851 0
M  V30 2296 C 217.382 -0.392972 -1.90182 0
M  V30 2297 O 216.657 0.608579 -1.84734 0
M  V30 2298 C 216.94 -2.88612 -2.15349 0
M  V30 2299 C 216.793 -4.25815 -1.44918 0
M  V30 2300 C 218.112 -3.06294 -3.16026 0
M  V30 2301 H 215.231 -0.60575 -0.419805 0
M  V30 2302 H 217.873 -1.84732 -0.444314 0
M  V30 2303 H 216.023 -2.73158 -2.76255 0
M  V30 2304 H 217.695 -4.52995 -0.871365 0
M  V30 2305 H 215.938 -4.27247 -0.751159 0
M  V30 2306 H 216.609 -5.07337 -2.17516 0
M  V30 2307 H 219.085 -3.20641 -2.65195 0
M  V30 2308 H 217.961 -3.93283 -3.8291 0
M  V30 2309 H 218.222 -2.19579 -3.83715 0
M  V30 2310 N 217.281 0.66697 -1.42791 0
M  V30 2311 C 218.529 1.42417 -1.43394 0
M  V30 2312 C 218.85 1.94925 -0.0542373 0
M  V30 2313 O 218.12 1.73564 0.908415 0
M  V30 2314 H 216.7 0.528515 -0.527902 0
M  V30 2315 H 219.362 0.787562 -1.78279 0
M  V30 2316 H 218.458 2.27333 -2.13837 0
M  V30 2317 N 218.759 1.29093 0.90403 0
M  V30 2318 C 219.689 1.16401 2.02418 0
M  V30 2319 C 220.67 0.0593085 1.69997 0
M  V30 2320 O 221.855 0.238021 1.92736 0
M  V30 2321 C 218.985 0.835233 3.37107 0
M  V30 2322 C 217.939 1.89578 3.83724 0
M  V30 2323 C 217.265 1.42041 5.15489 0
M  V30 2324 C 218.565 3.30394 4.04521 0
M  V30 2325 H 220.259 2.10109 2.13295 0
M  V30 2326 H 217.805 1.01157 1.02486 0
M  V30 2327 H 219.758 0.733169 4.14973 0
M  V30 2328 H 218.482 -0.137543 3.2631 0
M  V30 2329 H 217.141 1.98715 3.08071 0
M  V30 2330 H 216.789 0.436426 5.01103 0
M  V30 2331 H 216.489 2.12964 5.4765 0
M  V30 2332 H 218.013 1.33176 5.959 0
M  V30 2333 H 219.427 3.24123 4.72882 0
M  V30 2334 H 217.824 3.99237 4.48029 0
M  V30 2335 H 218.894 3.73692 3.09002 0
M  V30 2336 N 220.237 -1.11381 1.11499 0
M  V30 2337 C 221.483 -1.83403 0.865512 0
M  V30 2338 C 221.816 -1.84459 -0.607329 0
M  V30 2339 O 221.091 -1.29811 -1.44842 0
M  V30 2340 C 221.374 -3.30552 1.42855 0
M  V30 2341 C 221.227 -3.37886 2.96906 0
M  V30 2342 C 222.546 -4.26643 1.08 0
M  V30 2343 H 219.665 -0.665879 0.31587 0
M  V30 2344 H 222.307 -1.30601 1.37998 0
M  V30 2345 H 220.457 -3.75648 0.990985 0
M  V30 2346 H 222.129 -3.01343 3.49271 0
M  V30 2347 H 220.372 -2.78088 3.32941 0
M  V30 2348 H 221.043 -4.41458 3.31389 0
M  V30 2349 H 223.519 -3.89729 1.45775 0
M  V30 2350 H 222.395 -5.27986 1.50072 0
M  V30 2351 H 222.656 -4.42099 -0.00915037 0
M  V30 2352 N 221.715 -0.905404 -1.28997 0
M  V30 2353 C 222.645 -0.404212 -2.29975 0
M  V30 2354 C 223.626 0.523784 -1.61835 0
M  V30 2355 O 224.811 0.433298 -1.89304 0
M  V30 2356 C 221.941 0.364042 -3.45387 0
M  V30 2357 C 220.895 -0.474048 -4.25367 0
M  V30 2358 C 220.221 0.422045 -5.33032 0
M  V30 2359 C 221.521 -1.72696 -4.92923 0
M  V30 2360 H 223.215 -1.24807 -2.72146 0
M  V30 2361 H 220.761 -0.601585 -1.30832 0
M  V30 2362 H 222.714 0.725447 -4.15109 0
M  V30 2363 H 221.438 1.24174 -3.02074 0
M  V30 2364 H 220.097 -0.81786 -3.57361 0
M  V30 2365 H 219.745 1.29804 -4.85963 0
M  V30 2366 H 219.445 -0.135057 -5.87445 0
M  V30 2367 H 220.969 0.779517 -6.05604 0
M  V30 2368 H 222.383 -1.43495 -5.55051 0
M  V30 2369 H 220.78 -2.22582 -5.57295 0
M  V30 2370 H 221.85 -2.45964 -4.17887 0
M  V30 2371 N 223.193 1.4272 -0.668489 0
M  V30 2372 C 224.423 2.05668 -0.196063 0
M  V30 2373 C 224.831 1.5028 1.14946 0
M  V30 2374 O 224.174 0.6348 1.72383 0
M  V30 2375 C 224.236 3.59469 -0.0468879 0
M  V30 2376 C 223.9 4.37518 -1.32012 0
M  V30 2377 C 224.897 4.68584 -2.25222 0
M  V30 2378 C 222.582 4.77266 -1.56596 0
M  V30 2379 C 224.576 5.38326 -3.41297 0
M  V30 2380 C 222.263 5.4675 -2.72962 0
M  V30 2381 C 223.261 5.77204 -3.65137 0
M  V30 2382 O 222.949 6.45264 -4.79468 0
M  V30 2383 H 222.681 0.669382 -0.0943599 0
M  V30 2384 H 225.235 1.83954 -0.913788 0
M  V30 2385 H 223.465 3.79817 0.726357 0
M  V30 2386 H 225.154 4.04071 0.384852 0
M  V30 2387 H 225.92 4.38382 -2.07477 0
M  V30 2388 H 221.799 4.52959 -0.857249 0
M  V30 2389 H 225.343 5.62014 -4.13263 0
M  V30 2390 H 221.24 5.76369 -2.90635 0
M  V30 2391 H 222.008 6.63753 -4.78931 0
M  V30 2392 N 224.671 0.411399 1.52136 0
M  V30 2393 C 225.92 -0.165009 2.01024 0
M  V30 2394 C 226.233 -1.4603 1.30133 0
M  V30 2395 O 227.439 -2.1181 1.69849 0
M  V30 2396 C 225.895 -0.344618 3.58246 0
M  V30 2397 C 225.503 0.938716 4.38055 0
M  V30 2398 C 227.247 -0.876195 4.15359 0
M  V30 2399 C 225.154 0.726172 5.86925 0
M  V30 2400 H 224.084 -0.0654407 0.751155 0
M  V30 2401 H 226.735 0.537192 1.75461 0
M  V30 2402 H 225.117 -1.10921 3.80148 0
M  V30 2403 H 226.291 1.70963 4.27912 0
M  V30 2404 H 224.606 1.39688 3.92271 0
M  V30 2405 H 227.203 -1.05128 5.24263 0
M  V30 2406 H 227.546 -1.85152 3.7286 0
M  V30 2407 H 228.079 -0.170607 3.97434 0
M  V30 2408 H 224.818 1.67312 6.33788 0
M  V30 2409 H 224.338 -0.00540283 5.998 0
M  V30 2410 H 226.017 0.369231 6.45946 0
M  V30 2411 N 226.149 -1.5696 0.141893 0
M  V30 2412 C 227.374 -2.00754 -0.520838 0
M  V30 2413 C 227.799 -1.0213 -1.57959 0
M  V30 2414 O 227.157 0.00371324 -1.813 0
M  V30 2415 C 227.205 -3.43318 -1.10294 0
M  V30 2416 O 226.309 -3.47679 -2.21795 0
M  V30 2417 H 225.65 -0.651564 -0.127908 0
M  V30 2418 H 228.18 -2.03221 0.23712 0
M  V30 2419 H 228.19 -3.82012 -1.43287 0
M  V30 2420 H 226.865 -4.14608 -0.327574 0
M  V30 2421 H 225.442 -3.20824 -1.9007 0
M  V30 2422 N 227.627 0.131896 -1.57047 0
M  V30 2423 C 228.852 0.860418 -1.8871 0
M  V30 2424 C 229.277 1.73251 -0.73251 0
M  V30 2425 O 228.635 1.785 0.317429 0
M  V30 2426 C 228.683 1.68047 -3.19049 0
M  V30 2427 O 227.787 2.7862 -3.04047 0
M  V30 2428 H 227.128 0.238743 -0.619595 0
M  V30 2429 H 229.658 0.118169 -2.04258 0
M  V30 2430 H 229.668 2.07238 -3.51449 0
M  V30 2431 H 228.343 1.04018 -4.02682 0
M  V30 2432 H 226.92 2.42726 -2.83088 0
M  V30 2433 N 229.106 1.52395 0.401703 0
M  V30 2434 C 230.355 1.66044 1.14509 0
M  V30 2435 C 230.668 0.400216 1.91462 0
M  V30 2436 O 231.874 0.416632 2.68284 0
M  V30 2437 C 230.33 2.93388 2.0845 0
M  V30 2438 C 229.938 4.26545 1.36978 0
M  V30 2439 C 231.682 3.16402 2.83001 0
M  V30 2440 C 229.589 5.45007 2.29611 0
M  V30 2441 H 228.519 0.618562 0.431158 0
M  V30 2442 H 231.17 1.78886 0.40892 0
M  V30 2443 H 229.552 2.74263 2.8565 0
M  V30 2444 H 230.726 4.56179 0.650916 0
M  V30 2445 H 229.041 4.09692 0.74438 0
M  V30 2446 H 231.638 4.02085 3.52465 0
M  V30 2447 H 231.981 2.30943 3.46368 0
M  V30 2448 H 232.514 3.36034 2.12898 0
M  V30 2449 H 229.253 6.32835 1.70879 0
M  V30 2450 H 228.773 5.19702 2.9945 0
M  V30 2451 H 230.452 5.7838 2.89974 0
M  V30 2452 N 230.584 -0.659388 1.43143 0
M  V30 2453 C 231.532 -1.79374 1.4808 0
M  V30 2454 C 232.526 -1.65639 0.354988 0
M  V30 2455 O 233.732 -1.7206 0.528704 0
M  V30 2456 H 230.107 -0.591705 0.4641 0
M  V30 2457 H 232.078 -1.72329 2.43609 0
M  V30 2458 C 230.827 -3.17606 1.41499 0
M  V30 2459 H 230.15 -3.28809 2.27431 0
M  V30 2460 H 231.59 -3.96951 1.49015 0
M  V30 2461 C 230.049 -3.36642 0.131765 0
M  V30 2462 O 230.579 -3.93461 -0.809386 0
M  V30 2463 N 228.785 -2.90567 0.0439396 0
M  V30 2464 H 228.332 -2.44513 0.810619 0
M  V30 2465 H 228.29 -3.03681 -0.813969 0
M  V30 2466 N 232.062 -1.29571 -0.897171 0
M  V30 2467 C 233.339 -1.08365 -1.62839 0
M  V30 2468 C 233.719 0.371331 -2.07808 0
M  V30 2469 O 233.067 1.3606 -1.83576 0
M  V30 2470 C 233.277 -2.0735 -2.80726 0
M  V30 2471 C 234.625 -2.38406 -3.51351 0
M  V30 2472 O 235.649 -2.05564 -2.90898 0
M  V30 2473 O 234.508 -2.9453 -4.60341 0
M  V30 2474 H 231.602 -0.415345 -0.715134 0
M  V30 2475 H 234.148 -1.40952 -0.945018 0
M  V30 2476 H 232.92 -3.05339 -2.44711 0
M  V30 2477 H 232.543 -1.75507 -3.56767 0
M  V30 2478 N 233.54 1.10788 -1.12088 0
M  V30 2479 C 234.45 2.20599 -0.798338 0
M  V30 2480 C 235.466 1.72712 0.21135 0
M  V30 2481 O 236.642 2.01348 0.0458477 0
M  V30 2482 C 233.707 3.45771 -0.253674 0
M  V30 2483 C 232.768 4.08411 -1.32283 0
M  V30 2484 C 232.001 5.27608 -0.80406 0
M  V30 2485 O 232.224 5.69241 0.363478 0
M  V30 2486 O 231.158 5.8101 -1.57198 0
M  V30 2487 H 234.984 2.50614 -1.7154 0
M  V30 2488 H 232.569 1.19454 -0.897275 0
M  V30 2489 H 234.451 4.21376 0.0453691 0
M  V30 2490 H 233.126 3.1739 0.636005 0
M  V30 2491 H 232.033 3.34507 -1.67499 0
M  V30 2492 H 233.366 4.40986 -2.18614 0
M  V30 2493 N 235.018 0.912232 1.28515 0
M  V30 2494 C 236.264 0.545405 1.95328 0
M  V30 2495 C 236.597 -0.908313 1.71649 0
M  V30 2496 O 235.872 -1.64575 1.03659 0
M  V30 2497 C 236.155 0.853483 3.4984 0
M  V30 2498 C 236.008 2.35982 3.82926 0
M  V30 2499 C 237.327 0.348589 4.38717 0
M  V30 2500 H 234.446 0.199626 0.709449 0
M  V30 2501 H 237.088 1.1412 1.5191 0
M  V30 2502 H 235.238 0.34643 3.86952 0
M  V30 2503 H 236.91 2.93738 3.55691 0
M  V30 2504 H 235.153 2.81543 3.30024 0
M  V30 2505 H 235.824 2.52593 4.90816 0
M  V30 2506 H 238.3 0.78294 4.08668 0
M  V30 2507 H 237.176 0.593242 5.45685 0
M  V30 2508 H 237.437 -0.751049 4.35674 0
M  V30 2509 N 236.496 -1.42363 0.676048 0
M  V30 2510 C 237.429 -2.28141 -0.0516916 0
M  V30 2511 C 238.407 -1.41135 -0.807439 0
M  V30 2512 O 239.591 -1.70573 -0.802305 0
M  V30 2513 C 236.718 -3.21007 -1.08039 0
M  V30 2514 C 235.764 -4.24426 -0.420076 0
M  V30 2515 S 236.597 -5.29134 0.823246 0
M  V30 2516 C 237.753 -6.25566 -0.204344 0
M  V30 2517 H 237.986 -2.89515 0.675884 0
M  V30 2518 H 235.519 -1.47211 0.465635 0
M  V30 2519 H 237.477 -3.75048 -1.66881 0
M  V30 2520 H 236.138 -2.58766 -1.78042 0
M  V30 2521 H 235.331 -4.89596 -1.19633 0
M  V30 2522 H 234.933 -3.7388 0.0947845 0
M  V30 2523 H 237.225 -6.69098 -1.06369 0
M  V30 2524 H 238.168 -7.06895 0.412915 0
M  V30 2525 H 238.576 -5.61811 -0.55038 0
M  V30 2526 N 237.974 -0.419461 -1.51915 0
M  V30 2527 C 238.922 0.415502 -2.28859 0
M  V30 2528 C 239.916 1.03674 -1.3397 0
M  V30 2529 O 241.122 0.973757 -1.51387 0
M  V30 2530 H 237.497 0.152786 -0.736315 0
M  V30 2531 H 239.468 -0.254531 -2.97312 0
M  V30 2532 C 238.217 1.51425 -3.12995 0
M  V30 2533 H 237.54 1.04556 -3.85886 0
M  V30 2534 H 238.98 2.07208 -3.6992 0
M  V30 2535 C 237.439 2.48745 -2.27217 0
M  V30 2536 O 237.969 3.52871 -1.9195 0
M  V30 2537 N 236.175 2.19202 -1.90785 0
M  V30 2538 H 235.722 1.34556 -2.19664 0
M  V30 2539 H 235.68 2.84561 -1.33687 0
M  V30 2540 N 239.452 1.56882 -0.150215 0
M  V30 2541 C 240.868 1.58263 0.20617 0
M  V30 2542 C 241.068 1.16464 1.64434 0
M  V30 2543 O 240.124 0.866422 2.3717 0
M  V30 2544 C 241.437 3.00649 -0.0555025 0
M  V30 2545 C 242.985 3.12999 0.00795388 0
M  V30 2546 C 243.46 4.5744 -0.226429 0
M  V30 2547 N 244.951 4.62875 -0.173469 0
M  V30 2548 C 245.686 5.72454 -0.329288 0
M  V30 2549 N 245.182 6.90669 -0.543005 0
M  V30 2550 N 246.975 5.61467 -0.266666 0
M  V30 2551 H 239.126 1.82345 -1.08922 0
M  V30 2552 H 241.389 0.844149 -0.431413 0
M  V30 2553 H 241.095 3.3563 -1.05096 0
M  V30 2554 H 240.969 3.71337 0.66246 0
M  V30 2555 H 243.356 2.77857 0.993966 0
M  V30 2556 H 243.437 2.4479 -0.742388 0
M  V30 2557 H 243.081 4.93287 -1.20956 0
M  V30 2558 H 243.011 5.2378 0.544274 0
M  V30 2559 H 245.502 3.77898 -0.0130709 0
M  V30 2560 H 245.815 7.70045 -0.651922 0
M  V30 2561 H 244.16 6.92581 -0.579366 0
M  V30 2562 H 247.351 4.67992 -0.100441 0
M  V30 2563 H 247.524 6.46816 -0.391535 0
M  V30 2564 N 240.93 -0.123565 1.57115 0
M  V30 2565 C 242.341 -0.681198 1.73829 0
M  V30 2566 C 242.692 -1.80535 0.768214 0
M  V30 2567 O 241.817 -2.16317 -0.0599103 0
M  V30 2568 C 242.412 -1.24246 3.15196 0
M  V30 2569 C 240.971 -1.74643 3.33432 0
M  V30 2570 C 240.118 -0.644284 2.69711 0
M  V30 2571 H 243.069 0.102315 1.5837 0
M  V30 2572 H 243.09 -2.11216 3.16493 0
M  V30 2573 H 242.602 -0.424062 3.85776 0
M  V30 2574 H 240.703 -2.58974 2.67886 0
M  V30 2575 H 240.816 -1.85902 4.41562 0
M  V30 2576 H 239.18 -1.07676 2.3082 0
M  V30 2577 H 239.963 0.163058 3.42913 0
M  V30 2578 N 242.408 -1.52605 -0.393616 0
M  V30 2579 C 243.633 -1.71592 -1.16495 0
M  V30 2580 C 244.058 -0.43133 -1.83088 0
M  V30 2581 O 243.416 0.612523 -1.7064 0
M  V30 2582 C 243.464 -2.86318 -2.19213 0
M  V30 2583 O 242.568 -2.52969 -3.257 0
M  V30 2584 H 241.909 -0.570734 -0.33935 0
M  V30 2585 H 244.439 -1.99377 -0.459324 0
M  V30 2586 H 244.449 -3.1168 -2.63286 0
M  V30 2587 H 243.124 -3.79511 -1.7013 0
M  V30 2588 H 241.701 -2.38332 -2.86797 0
M  V30 2589 N 243.887 0.651787 -1.4349 0
M  V30 2590 C 245.112 1.44434 -1.48841 0
M  V30 2591 C 245.537 1.8779 -0.107955 0
M  V30 2592 O 244.895 1.57464 0.898602 0
M  V30 2593 C 244.943 2.65458 -2.44059 0
M  V30 2594 O 244.047 3.64566 -1.92784 0
M  V30 2595 H 243.388 0.433005 -0.503391 0
M  V30 2596 H 245.918 0.797451 -1.88419 0
M  V30 2597 H 245.928 3.13255 -2.6141 0
M  V30 2598 H 244.603 2.33244 -3.4434 0
M  V30 2599 H 243.18 3.23716 -1.851 0
M  V30 2600 N 245.365 1.30045 0.890287 0
M  V30 2601 C 246.59 1.21598 1.68014 0
M  V30 2602 C 247.015 -0.218678 1.86825 0
M  V30 2603 O 246.373 -1.15756 1.39536 0
M  V30 2604 C 246.421 1.94434 3.03691 0
M  V30 2605 O 245.525 1.2678 3.92429 0
M  V30 2606 H 244.866 0.420856 0.513592 0
M  V30 2607 H 247.396 1.71775 1.11151 0
M  V30 2608 H 247.406 2.03251 3.5377 0
M  V30 2609 H 246.081 2.98777 2.89318 0
M  V30 2610 H 244.658 1.26282 3.50866 0
M  V30 2611 N 246.843 -1.10192 1.12674 0
M  V30 2612 C 247.753 -2.20172 0.810026 0
M  V30 2613 C 248.769 -1.72821 -0.202188 0
M  V30 2614 O 249.945 -2.01369 -0.0351691 0
M  V30 2615 C 247.01 -3.45631 0.272007 0
M  V30 2616 C 246.071 -4.07704 1.34447 0
M  V30 2617 C 245.304 -5.27175 0.832029 0
M  V30 2618 O 245.527 -5.69425 -0.333284 0
M  V30 2619 O 244.461 -5.80168 1.60277 0
M  V30 2620 H 248.287 -2.49701 1.72867 0
M  V30 2621 H 245.872 -1.18977 0.903597 0
M  V30 2622 H 247.754 -4.21394 -0.0230219 0
M  V30 2623 H 246.429 -3.17723 -0.619164 0
M  V30 2624 H 245.336 -3.33614 1.6927 0
M  V30 2625 H 246.669 -4.3982 2.2095 0
M  V30 2626 N 248.321 -0.919034 -1.28029 0
M  V30 2627 C 249.253 -0.368762 -2.26214 0
M  V30 2628 C 250.266 0.495716 -1.55069 0
M  V30 2629 O 251.455 0.30974 -1.75792 0
M  V30 2630 C 248.555 0.491049 -3.35324 0
M  V30 2631 C 247.728 -0.352133 -4.3598 0
M  V30 2632 C 246.787 0.443622 -5.24327 0
M  V30 2633 O 245.813 -0.14566 -5.69014 0
M  V30 2634 N 247.015 1.74545 -5.53637 0
M  V30 2635 H 249.78 -1.21273 -2.74068 0
M  V30 2636 H 247.341 -0.785541 -1.41566 0
M  V30 2637 H 249.333 1.03026 -3.91366 0
M  V30 2638 H 247.903 1.23574 -2.87138 0
M  V30 2639 H 247.123 -1.07269 -3.79324 0
M  V30 2640 H 248.411 -0.928883 -5.00249 0
M  V30 2641 H 247.809 2.24666 -5.19174 0
M  V30 2642 H 246.366 2.23138 -6.12416 0
M  V30 2643 N 249.799 1.42003 -0.683588 0
M  V30 2644 C 251.029 2.05448 -0.217866 0
M  V30 2645 C 251.437 1.51491 1.13346 0
M  V30 2646 O 250.78 0.653048 1.717 0
M  V30 2647 C 250.842 3.59399 -0.0850118 0
M  V30 2648 C 250.506 4.36093 -1.36645 0
M  V30 2649 C 251.503 4.66169 -2.30179 0
M  V30 2650 C 249.188 4.75578 -1.61649 0
M  V30 2651 C 251.182 5.34676 -3.46988 0
M  V30 2652 C 248.869 5.43824 -2.78745 0
M  V30 2653 C 249.867 5.73299 -3.71238 0
M  V30 2654 O 249.555 6.40142 -4.86285 0
M  V30 2655 H 249.287 0.668344 -0.101454 0
M  V30 2656 H 251.841 1.82974 -0.933248 0
M  V30 2657 H 250.071 3.80566 0.686031 0
M  V30 2658 H 251.76 4.04457 0.341973 0
M  V30 2659 H 252.526 4.36156 -2.12115 0
M  V30 2660 H 248.405 4.52025 -0.905243 0
M  V30 2661 H 251.949 5.57599 -4.19201 0
M  V30 2662 H 247.846 5.73254 -2.96732 0
M  V30 2663 H 248.614 6.58636 -4.85944 0
M  V30 2664 N 251.277 0.427512 1.51691 0
M  V30 2665 C 252.524 -0.142229 2.02 0
M  V30 2666 C 252.852 -1.43566 1.31221 0
M  V30 2667 O 252.107 -1.91298 0.412744 0
M  V30 2668 C 252.406 -0.418249 3.54944 0
M  V30 2669 C 252.072 0.788187 4.43958 0
M  V30 2670 C 250.734 1.11906 4.68007 0
M  V30 2671 C 253.086 1.59347 4.96244 0
M  V30 2672 C 250.414 2.25608 5.41588 0
M  V30 2673 C 252.766 2.7214 5.71072 0
M  V30 2674 C 251.43 3.05692 5.93387 0
M  V30 2675 H 250.7 -0.0520451 0.73917 0
M  V30 2676 H 253.347 0.572697 1.82736 0
M  V30 2677 H 251.652 -1.21496 3.72486 0
M  V30 2678 H 253.349 -0.872339 3.91397 0
M  V30 2679 H 249.939 0.520344 4.2543 0
M  V30 2680 H 254.123 1.35106 4.77556 0
M  V30 2681 H 249.379 2.51929 5.57083 0
M  V30 2682 H 253.553 3.34914 6.10578 0
M  V30 2683 H 251.18 3.9391 6.50184 0
M  V30 2684 N 252.755 -1.56801 0.158532 0
M  V30 2685 C 253.705 -2.13923 -0.788738 0
M  V30 2686 C 254.689 -1.07006 -1.2016 0
M  V30 2687 O 255.881 -1.33159 -1.1661 0
M  V30 2688 C 253.01 -2.77348 -2.02319 0
M  V30 2689 C 252.096 -3.91404 -1.6329 0
M  V30 2690 N 252.487 -4.9677 -0.951463 0
M  V30 2691 C 250.785 -4.02326 -1.92482 0
M  V30 2692 C 251.486 -5.76698 -0.761221 0
M  V30 2693 N 250.462 -5.27859 -1.29869 0
M  V30 2694 H 254.264 -2.92757 -0.258995 0
M  V30 2695 H 251.778 -1.62344 -0.0426055 0
M  V30 2696 H 253.775 -3.16639 -2.71192 0
M  V30 2697 H 252.435 -1.99991 -2.558 0
M  V30 2698 H 253.446 -5.14284 -0.610928 0
M  V30 2699 H 250.123 -3.36059 -2.47732 0
M  V30 2700 H 251.513 -6.71529 -0.223284 0
M  V30 2701 N 254.233 0.115231 -1.57178 0
M  V30 2702 C 255.463 0.835224 -1.88964 0
M  V30 2703 C 255.871 1.73774 -0.74829 0
M  V30 2704 O 255.214 1.81401 0.289739 0
M  V30 2705 C 255.276 1.7178 -3.15804 0
M  V30 2706 C 254.94 0.989198 -4.46166 0
M  V30 2707 C 255.937 0.328263 -5.18863 0
M  V30 2708 C 253.622 0.969256 -4.9286 0
M  V30 2709 C 255.616 -0.342873 -6.36477 0
M  V30 2710 C 253.303 0.294324 -6.10391 0
M  V30 2711 C 254.301 -0.360582 -6.82048 0
M  V30 2712 O 253.989 -1.02474 -7.97342 0
M  V30 2713 H 253.721 0.245197 -0.629964 0
M  V30 2714 H 256.275 0.10303 -2.05141 0
M  V30 2715 H 254.505 2.49173 -2.95719 0
M  V30 2716 H 256.194 2.31255 -3.33581 0
M  V30 2717 H 256.96 0.335263 -4.8384 0
M  V30 2718 H 252.839 1.46844 -4.36987 0
M  V30 2719 H 256.383 -0.854629 -6.92345 0
M  V30 2720 H 252.28 0.285099 -6.4487 0
M  V30 2721 H 253.048 -0.929594 -8.13204 0
M  V30 2722 N 255.711 1.52812 0.385517 0
M  V30 2723 C 257.127 1.4214 0.725829 0
M  V30 2724 C 257.327 0.544589 1.94001 0
M  V30 2725 O 256.383 0.0193693 2.52493 0
M  V30 2726 C 257.696 2.85042 0.957668 0
M  V30 2727 C 259.244 2.94543 1.05892 0
M  V30 2728 C 259.719 4.38464 1.32337 0
M  V30 2729 N 261.21 4.41804 1.39151 0
M  V30 2730 C 261.945 5.5025 1.61285 0
M  V30 2731 N 261.441 6.68775 1.80866 0
M  V30 2732 N 263.234 5.37798 1.63492 0
M  V30 2733 H 255.385 2.08338 -0.413383 0
M  V30 2734 H 257.648 0.940016 -0.122775 0
M  V30 2735 H 257.354 3.51431 0.137568 0
M  V30 2736 H 257.228 3.27505 1.87137 0
M  V30 2737 H 259.615 2.28321 1.86959 0
M  V30 2738 H 259.696 2.55504 0.123057 0
M  V30 2739 H 259.34 5.05254 0.517793 0
M  V30 2740 H 259.27 4.75059 2.27214 0
M  V30 2741 H 261.761 3.56377 1.25713 0
M  V30 2742 H 262.074 7.47197 1.97271 0
M  V30 2743 H 260.419 6.71797 1.78083 0
M  V30 2744 H 263.61 4.44171 1.47749 0
M  V30 2745 H 263.783 6.22382 1.80402 0
M  V30 2746 N 257.189 -0.644168 1.43834 0
M  V30 2747 C 258.419 -1.42939 1.49171 0
M  V30 2748 C 258.827 -1.88874 0.111048 0
M  V30 2749 O 258.17 -1.60656 -0.8908 0
M  V30 2750 C 258.232 -2.69151 2.38324 0
M  V30 2751 C 257.896 -2.45097 3.85715 0
M  V30 2752 C 258.893 -2.07747 4.76589 0
M  V30 2753 C 256.578 -2.59141 4.30292 0
M  V30 2754 C 258.572 -1.8475 6.10038 0
M  V30 2755 C 256.259 -2.35759 5.63792 0
M  V30 2756 C 257.257 -1.9862 6.53482 0
M  V30 2757 O 256.945 -1.75489 7.84512 0
M  V30 2758 H 256.677 -0.445271 0.508635 0
M  V30 2759 H 259.231 -0.79621 1.8934 0
M  V30 2760 H 257.461 -3.3506 1.93058 0
M  V30 2761 H 259.15 -3.31123 2.3476 0
M  V30 2762 H 259.916 -1.96465 4.43426 0
M  V30 2763 H 255.795 -2.87022 3.60749 0
M  V30 2764 H 259.339 -1.55686 6.80006 0
M  V30 2765 H 255.236 -2.46646 5.9652 0
M  V30 2766 H 256.004 -1.89841 7.9618 0
M  V30 2767 N 258.668 -1.30515 -0.883378 0
M  V30 2768 C 259.916 -1.19194 -1.63209 0
M  V30 2769 C 260.237 0.253205 -1.93349 0
M  V30 2770 O 259.507 1.17025 -1.57105 0
M  V30 2771 H 258.087 -0.438148 -0.605009 0
M  V30 2772 H 260.749 -1.63663 -1.05832 0
M  V30 2773 H 259.845 -1.75396 -2.58153 0
M  V30 2774 N 260.146 1.09593 -1.13257 0
M  V30 2775 C 261.392 1.82181 -0.904521 0
M  V30 2776 C 261.747 1.83967 0.563358 0
M  V30 2777 O 261.04 1.29566 1.41149 0
M  V30 2778 C 261.234 3.27802 -1.42411 0
M  V30 2779 C 261.063 3.40201 -2.94097 0
M  V30 2780 C 259.833 3.52104 -3.62424 0
M  V30 2781 C 262.031 3.32875 -3.92044 0
M  V30 2782 N 260.013 3.53169 -5.0214 0
M  V30 2783 C 261.384 3.40789 -5.17941 0
M  V30 2784 C 263.439 3.16531 -3.84334 0
M  V30 2785 C 262.142 3.34042 -6.37031 0
M  V30 2786 C 264.168 3.11109 -5.02956 0
M  V30 2787 C 263.53 3.19614 -6.27715 0
M  V30 2788 H 259.629 0.681015 -0.384373 0
M  V30 2789 H 262.213 1.3099 -1.44048 0
M  V30 2790 H 260.384 3.77466 -0.915086 0
M  V30 2791 H 262.116 3.88393 -1.13722 0
M  V30 2792 H 258.871 3.5548 -3.12939 0
M  V30 2793 H 259.295 3.57291 -5.75041 0
M  V30 2794 H 263.937 3.08827 -2.88766 0
M  V30 2795 H 261.655 3.4051 -7.32857 0
M  V30 2796 H 265.241 2.99601 -4.98729 0
M  V30 2797 H 264.121 3.15432 -7.17964 0
M  V30 2798 N 261.624 0.925811 1.2754 0
M  V30 2799 C 262.849 0.580924 1.99098 0
M  V30 2800 C 263.274 -0.833555 1.68622 0
M  V30 2801 O 262.632 -1.55903 0.925422 0
M  V30 2802 C 262.68 0.811186 3.51358 0
M  V30 2803 O 261.784 -0.124129 4.12213 0
M  V30 2804 H 261.125 0.223873 0.625122 0
M  V30 2805 H 263.655 1.24455 1.62395 0
M  V30 2806 H 263.665 0.72601 4.01489 0
M  V30 2807 H 262.34 1.84227 3.72872 0
M  V30 2808 H 260.917 0.0108006 3.72898 0
M  V30 2809 N 263.102 -1.41638 0.69111 0
M  V30 2810 C 264.349 -2.01299 0.220193 0
M  V30 2811 C 264.677 -1.54715 -1.17871 0
M  V30 2812 O 263.932 -0.747193 -1.80874 0
M  V30 2813 C 264.231 -3.56714 0.221277 0
M  V30 2814 C 263.897 -4.22792 1.56709 0
M  V30 2815 C 262.559 -4.40557 1.93554 0
M  V30 2816 C 264.911 -4.59883 2.45268 0
M  V30 2817 C 262.239 -4.92688 3.18552 0
M  V30 2818 C 264.591 -5.13403 3.69595 0
M  V30 2819 C 263.255 -5.29379 4.06589 0
M  V30 2820 H 262.525 -0.736606 0.0805743 0
M  V30 2821 H 265.172 -1.69598 0.889319 0
M  V30 2822 H 263.477 -3.8818 -0.531391 0
M  V30 2823 H 265.174 -4.00678 -0.160547 0
M  V30 2824 H 261.764 -4.09336 1.2705 0
M  V30 2825 H 265.948 -4.45817 2.18084 0
M  V30 2826 H 261.204 -5.03242 3.47214 0
M  V30 2827 H 265.378 -5.41084 4.38407 0
M  V30 2828 H 263.005 -5.69537 5.03519 0
M  V30 2829 N 264.58 -0.43555 -1.51462 0
M  V30 2830 C 265.543 0.365137 -2.26273 0
M  V30 2831 C 266.543 0.951227 -1.29647 0
M  V30 2832 O 267.733 0.825958 -1.53374 0
M  V30 2833 C 264.865 1.51645 -3.05314 0
M  V30 2834 H 266.058 -0.290474 -2.9849 0
M  V30 2835 H 263.611 -0.188676 -1.55157 0
M  V30 2836 H 264.346 2.20816 -2.3751 0
M  V30 2837 H 264.131 1.10238 -3.76284 0
M  V30 2838 H 265.621 2.08218 -3.61987 0
M  V30 2839 N 266.058 1.56714 -0.166846 0
M  V30 2840 C 267.305 1.96747 0.479252 0
M  V30 2841 C 267.633 1.05263 1.63554 0
M  V30 2842 O 266.888 0.0858098 1.95512 0
M  V30 2843 C 267.187 3.42889 1.00806 0
M  V30 2844 C 266.853 4.50889 -0.0318574 0
M  V30 2845 C 265.515 4.8015 -0.317675 0
M  V30 2846 C 267.867 5.15949 -0.737956 0
M  V30 2847 C 265.195 5.71772 -1.31506 0
M  V30 2848 C 267.547 6.08647 -1.72429 0
M  V30 2849 C 266.211 6.36277 -2.0176 0
M  V30 2850 H 265.481 0.719949 0.175371 0
M  V30 2851 H 268.128 1.89756 -0.257864 0
M  V30 2852 H 266.433 3.4681 1.82291 0
M  V30 2853 H 268.13 3.71203 1.51689 0
M  V30 2854 H 264.72 4.28128 0.201088 0
M  V30 2855 H 268.904 4.93458 -0.530351 0
M  V30 2856 H 264.16 5.91465 -1.54853 0
M  V30 2857 H 268.334 6.58129 -2.27682 0
M  V30 2858 H 265.961 7.07075 -2.79194 0
M  V30 2859 N 267.536 -0.106894 1.57237 0
M  V30 2860 C 268.499 -1.11466 2.0027 0
M  V30 2861 C 269.499 -1.33623 0.894519 0
M  V30 2862 O 270.689 -1.29935 1.16028 0
M  V30 2863 C 267.821 -2.46646 2.35327 0
M  V30 2864 H 269.014 -0.744516 2.90512 0
M  V30 2865 H 266.567 -0.351576 1.52295 0
M  V30 2866 H 267.302 -2.88558 1.48003 0
M  V30 2867 H 267.087 -2.31915 3.16161 0
M  V30 2868 H 268.577 -3.19151 2.69318 0
M  V30 2869 N 269.014 -1.53014 -0.377408 0
M  V30 2870 C 269.977 -1.77957 -1.44444 0
M  V30 2871 C 270.977 -0.649763 -1.47087 0
M  V30 2872 O 272.167 -0.917897 -1.48055 0
M  V30 2873 C 269.299 -1.89089 -2.83651 0
M  V30 2874 H 270.492 -2.73243 -1.23606 0
M  V30 2875 H 268.045 -1.43912 -0.609844 0
M  V30 2876 H 268.78 -0.958293 -3.09818 0
M  V30 2877 H 268.565 -2.71254 -2.83132 0
M  V30 2878 H 270.055 -2.1002 -3.60945 0
M  V30 2879 N 270.492 0.636531 -1.44174 0
M  V30 2880 C 271.717 1.42847 -1.50364 0
M  V30 2881 C 272.142 1.87665 -0.127867 0
M  V30 2882 O 271.5 1.58408 0.88185 0
M  V30 2883 C 271.548 2.62854 -2.4686 0
M  V30 2884 O 270.652 3.62501 -1.9664 0
M  V30 2885 H 269.993 0.427642 -0.507955 0
M  V30 2886 H 272.523 0.777422 -1.89255 0
M  V30 2887 H 272.533 3.10465 -2.64718 0
M  V30 2888 H 271.208 2.29578 -3.46795 0
M  V30 2889 H 269.785 3.21735 -1.88523 0
M  V30 2890 N 271.97 1.30982 0.876444 0
M  V30 2891 C 273.195 1.23373 1.66715 0
M  V30 2892 C 273.62 -0.19885 1.87046 0
M  V30 2893 O 272.978 -1.1427 1.40756 0
M  V30 2894 C 273.026 1.97644 3.01611 0
M  V30 2895 O 272.13 1.30935 3.91062 0
M  V30 2896 H 271.471 0.426279 0.509099 0
M  V30 2897 H 274.001 1.72944 1.09323 0
M  V30 2898 H 274.011 2.06992 3.51594 0
M  V30 2899 H 272.686 3.01829 2.86133 0
M  V30 2900 H 271.263 1.29996 3.49507 0
M  V30 2901 N 273.449 -1.08991 1.13837 0
M  V30 2902 C 274.696 -1.81258 0.902882 0
M  V30 2903 C 275.024 -1.85936 -0.570803 0
M  V30 2904 O 274.279 -1.3267 -1.43865 0
M  V30 2905 C 274.578 -3.27042 1.44147 0
M  V30 2906 C 274.244 -3.4249 2.93276 0
M  V30 2907 C 272.906 -3.46414 3.33992 0
M  V30 2908 C 275.258 -3.4666 3.892 0
M  V30 2909 C 272.586 -3.52091 4.69307 0
M  V30 2910 C 274.938 -3.53872 5.24364 0
M  V30 2911 C 273.602 -3.56066 5.646 0
M  V30 2912 H 272.872 -0.663268 0.330388 0
M  V30 2913 H 275.519 -1.28368 1.42105 0
M  V30 2914 H 273.824 -3.82599 0.844097 0
M  V30 2915 H 275.521 -3.81499 1.23528 0
M  V30 2916 H 272.111 -3.40124 2.60794 0
M  V30 2917 H 276.295 -3.42865 3.58828 0
M  V30 2918 H 271.551 -3.52079 4.9985 0
M  V30 2919 H 275.725 -3.56043 5.98503 0
M  V30 2920 H 273.352 -3.60218 6.69438 0
M  V30 2921 N 274.927 -0.932562 -1.27047 0
M  V30 2922 C 275.857 -0.452902 -2.29066 0
M  V30 2923 C 276.838 0.489338 -1.62909 0
M  V30 2924 O 278.023 0.393046 -1.90181 0
M  V30 2925 C 275.153 0.290698 -3.46081 0
M  V30 2926 C 274.107 -0.564168 -4.24265 0
M  V30 2927 C 273.433 0.308886 -5.33807 0
M  V30 2928 C 274.733 -1.83112 -4.89149 0
M  V30 2929 H 276.427 -1.30552 -2.69437 0
M  V30 2930 H 273.973 -0.629201 -1.29526 0
M  V30 2931 H 275.926 0.637233 -4.16554 0
M  V30 2932 H 274.65 1.17738 -3.0464 0
M  V30 2933 H 273.309 -0.893477 -3.55545 0
M  V30 2934 H 272.957 1.19467 -4.88607 0
M  V30 2935 H 272.657 -0.259633 -5.87026 0
M  V30 2936 H 274.181 0.650884 -6.07121 0
M  V30 2937 H 275.595 -1.55236 -5.51883 0
M  V30 2938 H 273.992 -2.34353 -5.52448 0
M  V30 2939 H 275.062 -2.54772 -4.12576 0
M  V30 2940 N 276.405 1.4127 -0.698611 0
M  V30 2941 C 277.335 2.33447 -0.049629 0
M  V30 2942 C 278.316 1.51982 0.763898 0
M  V30 2943 O 279.501 1.80509 0.716257 0
M  V30 2944 C 276.631 3.35828 0.885267 0
M  V30 2945 C 275.585 4.27627 0.178613 0
M  V30 2946 C 274.911 5.20406 1.22807 0
M  V30 2947 C 276.211 5.13459 -0.956933 0
M  V30 2948 H 277.905 2.87966 -0.81951 0
M  V30 2949 H 275.451 1.38461 -0.395538 0
M  V30 2950 H 277.404 3.9924 1.34854 0
M  V30 2951 H 276.128 2.79666 1.68685 0
M  V30 2952 H 274.787 3.65643 -0.26466 0
M  V30 2953 H 274.435 4.60558 2.02226 0
M  V30 2954 H 274.135 5.82661 0.760239 0
M  V30 2955 H 275.659 5.86695 1.69179 0
M  V30 2956 H 277.073 5.70421 -0.573805 0
M  V30 2957 H 275.47 5.8467 -1.35205 0
M  V30 2958 H 276.54 4.50443 -1.79524 0
M  V30 2959 N 277.883 0.443576 1.51229 0
M  V30 2960 C 278.83 -0.364716 2.279 0
M  V30 2961 C 279.8 -1.0114 1.31757 0
M  V30 2962 O 280.985 -1.02912 1.60667 0
M  V30 2963 C 278.125 -1.45644 3.12861 0
M  V30 2964 C 277.238 -0.827269 4.24005 0
M  V30 2965 C 276.373 -1.89456 4.96266 0
M  V30 2966 C 275.412 -1.24416 5.99322 0
M  V30 2967 N 274.549 -2.25309 6.64966 0
M  V30 2968 H 279.389 0.295464 2.96532 0
M  V30 2969 H 276.926 0.157554 1.46254 0
M  V30 2970 H 278.884 -2.10076 3.6045 0
M  V30 2971 H 277.514 -2.08616 2.46331 0
M  V30 2972 H 276.566 -0.0710839 3.80334 0
M  V30 2973 H 277.878 -0.312481 4.9782 0
M  V30 2974 H 277.032 -2.61535 5.47434 0
M  V30 2975 H 275.771 -2.4431 4.22095 0
M  V30 2976 H 274.776 -0.508868 5.4744 0
M  V30 2977 H 276.001 -0.702882 6.75453 0
M  V30 2978 H 273.947 -2.79231 5.93604 0
M  V30 2979 H 273.864 -1.78739 7.34567 0
M  V30 2980 H 275.132 -2.96853 7.20763 0
M  V30 2981 N 279.361 -1.56624 0.175154 0
M  V30 2982 C 280.271 -2.21741 -0.766042 0
M  V30 2983 C 281.287 -1.21023 -1.25018 0
M  V30 2984 O 282.463 -1.53697 -1.3015 0
M  V30 2985 C 279.528 -2.84839 -1.97655 0
M  V30 2986 C 278.589 -4.00769 -1.53892 0
M  V30 2987 C 277.822 -4.60849 -2.69173 0
M  V30 2988 O 278.045 -4.19823 -3.86141 0
M  V30 2989 O 276.979 -5.50655 -2.43028 0
M  V30 2990 H 280.805 -3.02738 -0.241585 0
M  V30 2991 H 278.39 -1.49305 -0.053222 0
M  V30 2992 H 280.272 -3.24834 -2.68442 0
M  V30 2993 H 278.947 -2.06836 -2.48999 0
M  V30 2994 H 277.854 -3.65436 -0.80044 0
M  V30 2995 H 279.187 -4.80376 -1.07236 0
M  V30 2996 N 280.839 0.0985539 -1.57292 0
M  V30 2997 C 282.087 0.801092 -1.85545 0
M  V30 2998 C 282.408 1.79438 -0.763353 0
M  V30 2999 O 281.678 1.94763 0.21073 0
M  V30 3000 H 280.258 0.29884 -0.684619 0
M  V30 3001 H 282.92 0.0810064 -1.94732 0
M  V30 3002 H 282.016 1.3338 -2.82163 0
M  V30 3003 N 282.317 1.53212 0.369288 0
M  V30 3004 C 283.28 1.7872 1.43498 0
M  V30 3005 C 284.28 0.657554 1.46741 0
M  V30 3006 O 285.47 0.925736 1.47566 0
M  V30 3007 C 282.602 1.90591 2.82645 0
M  V30 3008 H 283.795 2.73894 1.22156 0
M  V30 3009 H 281.348 1.44233 0.602203 0
M  V30 3010 H 282.083 0.974709 3.09306 0
M  V30 3011 H 281.868 2.72751 2.8169 0
M  V30 3012 H 283.358 2.11931 3.59826 0
M  V30 3013 N 283.795 -0.628877 1.44509 0
M  V30 3014 C 285.043 -1.38565 1.4712 0
M  V30 3015 C 285.364 -1.94712 0.105899 0
M  V30 3016 O 284.634 -1.75912 -0.862079 0
M  V30 3017 H 283.214 -0.514333 0.541729 0
M  V30 3018 H 285.876 -0.740018 1.80305 0
M  V30 3019 H 284.972 -2.21583 2.19789 0
M  V30 3020 N 285.273 -1.31445 -0.869486 0
M  V30 3021 C 286.519 -1.21337 -1.62496 0
M  V30 3022 C 286.852 0.227872 -1.92858 0
M  V30 3023 O 286.127 1.16094 -1.56053 0
M  V30 3024 C 286.41 -2.05814 -2.95487 0
M  V30 3025 C 286.263 -3.5824 -2.72 0
M  V30 3026 C 287.582 -1.9079 -3.96594 0
M  V30 3027 H 284.701 -0.442135 -0.589649 0
M  V30 3028 H 287.343 -1.6124 -1.00507 0
M  V30 3029 H 285.493 -1.71913 -3.48394 0
M  V30 3030 H 287.165 -4.0228 -2.25762 0
M  V30 3031 H 285.408 -3.81647 -2.06224 0
M  V30 3032 H 286.079 -4.12657 -3.66631 0
M  V30 3033 H 288.555 -2.20459 -3.52898 0
M  V30 3034 H 287.431 -2.52199 -4.87531 0
M  V30 3035 H 287.692 -0.871341 -4.33428 0
M  V30 3036 N 286.751 1.08385 -1.14413 0
M  V30 3037 C 287.684 2.14642 -0.774871 0
M  V30 3038 C 288.662 1.60761 0.243876 0
M  V30 3039 O 289.846 1.88031 0.132883 0
M  V30 3040 C 286.973 3.38366 -0.150491 0
M  V30 3041 C 286.019 4.10997 -1.13945 0
M  V30 3042 S 286.852 4.63797 -2.67679 0
M  V30 3043 C 288.008 5.90808 -2.06631 0
M  V30 3044 H 288.241 2.45633 -1.67487 0
M  V30 3045 H 285.774 1.20498 -0.96538 0
M  V30 3046 H 287.732 4.09996 0.203334 0
M  V30 3047 H 286.393 3.05572 0.72694 0
M  V30 3048 H 285.586 4.99783 -0.65059 0
M  V30 3049 H 285.188 3.4528 -1.43727 0
M  V30 3050 H 287.48 6.62411 -1.4219 0
M  V30 3051 H 288.423 6.4439 -2.93542 0
M  V30 3052 H 288.831 5.4383 -1.51357 0
M  V30 3053 N 288.23 0.939286 1.26551 0
M  V30 3054 C 289.455 0.602008 1.98471 0
M  V30 3055 C 289.88 -0.815624 1.69497 0
M  V30 3056 O 289.238 -1.54912 0.941905 0
M  V30 3057 C 289.286 0.848407 3.50477 0
M  V30 3058 O 288.39 -0.0804009 4.12322 0
M  V30 3059 H 287.731 0.23049 0.622712 0
M  V30 3060 H 290.261 1.2617 1.61066 0
M  V30 3061 H 290.271 0.768553 4.00696 0
M  V30 3062 H 288.946 1.88171 3.70897 0
M  V30 3063 H 287.523 0.0503508 3.72866 0
M  V30 3064 N 289.708 -1.40897 0.706093 0
M  V30 3065 C 290.954 -2.01352 0.241889 0
M  V30 3066 C 291.287 -1.55832 -1.15888 0
M  V30 3067 O 290.562 -0.774145 -1.7843 0
M  V30 3068 C 290.845 -3.58752 0.311311 0
M  V30 3069 C 290.698 -4.1437 1.74978 0
M  V30 3070 C 292.017 -4.38914 -0.322922 0
M  V30 3071 H 289.136 -0.731562 0.0893687 0
M  V30 3072 H 291.778 -1.67504 0.896802 0
M  V30 3073 H 289.928 -3.87718 -0.246302 0
M  V30 3074 H 291.6 -3.96239 2.36205 0
M  V30 3075 H 289.843 -3.69016 2.28057 0
M  V30 3076 H 290.514 -5.23532 1.74981 0
M  V30 3077 H 292.99 -4.15822 0.152089 0
M  V30 3078 H 291.866 -5.48358 -0.243855 0
M  V30 3079 H 292.127 -4.19176 -1.40513 0
M  V30 3080 N 291.186 -0.45159 -1.50991 0
M  V30 3081 C 292.416 0.108177 -2.06317 0
M  V30 3082 C 292.824 1.35774 -1.31765 0
M  V30 3083 O 292.167 1.79838 -0.374694 0
M  V30 3084 C 292.229 0.481659 -3.56259 0
M  V30 3085 C 291.893 -0.663114 -4.52163 0
M  V30 3086 C 292.89 -1.53947 -4.96585 0
M  V30 3087 C 290.575 -0.8479 -4.95092 0
M  V30 3088 C 292.569 -2.58518 -5.82621 0
M  V30 3089 C 290.256 -1.89686 -5.80915 0
M  V30 3090 C 291.254 -2.76388 -6.24579 0
M  V30 3091 O 290.942 -3.79482 -7.08695 0
M  V30 3092 H 290.674 0.00499183 -0.675982 0
M  V30 3093 H 293.228 -0.633659 -1.95381 0
M  V30 3094 H 291.458 1.27641 -3.65027 0
M  V30 3095 H 293.147 0.974233 -3.94035 0
M  V30 3096 H 293.913 -1.4083 -4.64103 0
M  V30 3097 H 289.792 -0.18258 -4.60638 0
M  V30 3098 H 293.336 -3.26224 -6.16623 0
M  V30 3099 H 289.233 -2.02817 -6.12809 0
M  V30 3100 H 290.001 -3.76234 -7.26905 0
M  V30 3101 N 292.664 1.56529 -0.183458 0
M  V30 3102 C 293.594 2.21549 0.737456 0
M  V30 3103 C 294.575 1.17489 1.23005 0
M  V30 3104 O 295.76 1.45959 1.281 0
M  V30 3105 C 292.89 2.86575 1.96194 0
M  V30 3106 C 291.844 3.96778 1.60473 0
M  V30 3107 C 291.17 4.48911 2.90487 0
M  V30 3108 C 292.47 5.15767 0.823497 0
M  V30 3109 H 294.164 2.98761 0.195453 0
M  V30 3110 H 291.71 1.43702 0.0925686 0
M  V30 3111 H 293.663 3.30739 2.61131 0
M  V30 3112 H 292.387 2.06749 2.52828 0
M  V30 3113 H 291.046 3.53286 0.978997 0
M  V30 3114 H 290.694 3.65862 3.45186 0
M  V30 3115 H 290.394 5.23265 2.67335 0
M  V30 3116 H 291.918 4.95771 3.56432 0
M  V30 3117 H 293.332 5.56549 1.37571 0
M  V30 3118 H 291.729 5.96114 0.690551 0
M  V30 3119 H 292.799 4.84574 -0.177782 0
M  V30 3120 N 294.142 -0.090211 1.57342 0
M  V30 3121 C 295.389 -0.792807 1.86335 0
M  V30 3122 C 295.717 -1.78494 0.772662 0
M  V30 3123 O 294.972 -1.94305 -0.233258 0
M  V30 3124 C 295.271 -1.55222 3.21933 0
M  V30 3125 C 294.937 -0.701765 4.45406 0
M  V30 3126 C 293.599 -0.467334 4.78925 0
M  V30 3127 C 295.951 -0.11086 5.21082 0
M  V30 3128 C 293.279 0.367785 5.85546 0
M  V30 3129 C 295.631 0.711609 6.28585 0
M  V30 3130 C 294.295 0.956086 6.60617 0
M  V30 3131 H 293.565 -0.290109 0.681849 0
M  V30 3132 H 296.212 -0.0541332 1.91423 0
M  V30 3133 H 294.517 -2.3626 3.12551 0
M  V30 3134 H 296.214 -2.10032 3.41595 0
M  V30 3135 H 292.804 -0.894598 4.1916 0
M  V30 3136 H 296.988 -0.279129 4.95514 0
M  V30 3137 H 292.244 0.566128 6.08773 0
M  V30 3138 H 296.418 1.17632 6.86393 0
M  V30 3139 H 294.045 1.60499 7.43064 0
M  V30 3140 N 295.62 -1.53406 -0.361157 0
M  V30 3141 C 296.848 -1.73717 -1.12383 0
M  V30 3142 C 297.263 -0.468161 -1.82904 0
M  V30 3143 O 296.62 0.559198 -1.73722 0
M  V30 3144 C 296.671 -2.90558 -2.15078 0
M  V30 3145 O 296.392 -4.12549 -1.47428 0
M  V30 3146 C 297.893 -3.22777 -3.03858 0
M  V30 3147 H 295.113 -0.580896 -0.335858 0
M  V30 3148 H 297.657 -2.00167 -0.418728 0
M  V30 3149 H 295.812 -2.66489 -2.8118 0
M  V30 3150 H 296.226 -4.78009 -2.15887 0
M  V30 3151 H 297.7 -4.07927 -3.71887 0
M  V30 3152 H 298.177 -2.38329 -3.68912 0
M  V30 3153 H 298.783 -3.48787 -2.43367 0
M  V30 3154 N 297.098 0.621204 -1.44841 0
M  V30 3155 C 298.045 1.73267 -1.5247 0
M  V30 3156 C 299.015 1.6189 -0.371611 0
M  V30 3157 O 300.2 1.81668 -0.58321 0
M  V30 3158 C 297.34 3.11545 -1.48438 0
M  V30 3159 C 296.453 3.33827 -2.74196 0
M  V30 3160 C 295.588 4.62133 -2.61929 0
M  V30 3161 C 294.627 4.77627 -3.82804 0
M  V30 3162 N 293.764 5.97219 -3.69153 0
M  V30 3163 H 298.604 1.66082 -2.47428 0
M  V30 3164 H 296.141 0.810026 -1.22788 0
M  V30 3165 H 298.099 3.91528 -1.4409 0
M  V30 3166 H 296.729 3.1772 -0.570402 0
M  V30 3167 H 295.781 2.47715 -2.88689 0
M  V30 3168 H 297.093 3.41153 -3.6389 0
M  V30 3169 H 296.247 5.50291 -2.5547 0
M  V30 3170 H 294.986 4.57182 -1.69811 0
M  V30 3171 H 293.991 3.87896 -3.89637 0
M  V30 3172 H 295.216 4.84385 -4.75971 0
M  V30 3173 H 293.162 5.93339 -2.79794 0
M  V30 3174 H 293.079 6.05644 -4.52472 0
M  V30 3175 H 294.347 6.87912 -3.66603 0
M  V30 3176 N 298.576 1.31904 0.862503 0
M  V30 3177 C 299.992 1.10724 1.14945 0
M  V30 3178 C 300.192 -0.117421 2.01158 0
M  V30 3179 O 299.248 -0.804595 2.39338 0
M  V30 3180 C 300.561 2.38267 1.83437 0
M  V30 3181 C 302.109 2.43949 1.96106 0
M  V30 3182 C 302.584 3.71394 2.68013 0
M  V30 3183 N 304.075 3.72331 2.75543 0
M  V30 3184 C 304.81 4.67641 3.31812 0
M  V30 3185 N 304.306 5.73313 3.88953 0
M  V30 3186 N 306.099 4.5515 3.29841 0
M  V30 3187 H 298.25 2.10436 0.288191 0
M  V30 3188 H 300.513 0.928705 0.190292 0
M  V30 3189 H 300.219 3.27759 1.27542 0
M  V30 3190 H 300.093 2.48633 2.83657 0
M  V30 3191 H 302.48 1.54922 2.51164 0
M  V30 3192 H 302.561 2.37543 0.949059 0
M  V30 3193 H 302.205 4.60791 2.13621 0
M  V30 3194 H 302.135 3.75069 3.69636 0
M  V30 3195 H 304.626 2.95947 2.34997 0
M  V30 3196 H 304.939 6.42107 4.30022 0
M  V30 3197 H 303.284 5.77077 3.87308 0
M  V30 3198 H 306.475 3.71766 2.84443 0
M  V30 3199 H 306.648 5.29604 3.73394 0
M  V30 3200 N 300.054 -1.07777 1.14986 0
M  V30 3201 C 301.284 -1.83752 0.944402 0
M  V30 3202 C 301.692 -1.8218 -0.51058 0
M  V30 3203 O 301.035 -1.22852 -1.36576 0
M  V30 3204 C 301.097 -3.32128 1.37592 0
M  V30 3205 C 300.761 -3.57425 2.84775 0
M  V30 3206 C 301.758 -3.5173 3.8286 0
M  V30 3207 C 299.443 -3.8523 3.2234 0
M  V30 3208 C 301.437 -3.73482 5.16517 0
M  V30 3209 C 299.124 -4.06634 4.56171 0
M  V30 3210 C 300.122 -4.00754 5.53069 0
M  V30 3211 O 299.81 -4.2159 6.84483 0
M  V30 3212 H 299.542 -0.58673 0.335744 0
M  V30 3213 H 302.096 -1.36982 1.53052 0
M  V30 3214 H 300.326 -3.79686 0.733165 0
M  V30 3215 H 302.015 -3.89555 1.14024 0
M  V30 3216 H 302.781 -3.30256 3.55184 0
M  V30 3217 H 298.66 -3.88923 2.47508 0
M  V30 3218 H 302.204 -3.68808 5.92137 0
M  V30 3219 H 298.101 -4.27593 4.83564 0
M  V30 3220 H 298.869 -4.38961 6.90837 0
M  V30 3221 N 301.532 -0.945985 -1.26051 0
M  V30 3222 C 302.495 -0.463897 -2.24456 0
M  V30 3223 C 303.495 0.427655 -1.55009 0
M  V30 3224 O 304.685 0.226157 -1.72726 0
M  V30 3225 C 301.817 0.330812 -3.39291 0
M  V30 3226 H 303.01 -1.33357 -2.68619 0
M  V30 3227 H 300.563 -0.728416 -1.38289 0
M  V30 3228 H 301.298 1.21852 -3.00537 0
M  V30 3229 H 301.083 -0.308679 -3.90883 0
M  V30 3230 H 302.573 0.657865 -4.12386 0
M  V30 3231 N 303.011 1.40521 -0.713556 0
M  V30 3232 C 303.921 2.34522 -0.0606667 0
M  V30 3233 C 304.937 1.57193 0.74607 0
M  V30 3234 O 306.113 1.89591 0.679493 0
M  V30 3235 C 303.178 3.36081 0.851491 0
M  V30 3236 C 302.239 4.29286 0.0349339 0
M  V30 3237 C 301.472 5.25994 0.903649 0
M  V30 3238 O 301.695 5.28616 2.14292 0
M  V30 3239 O 300.629 6.00918 0.343723 0
M  V30 3240 H 304.455 2.91968 -0.835972 0
M  V30 3241 H 302.04 1.41681 -0.47402 0
M  V30 3242 H 303.922 3.98369 1.37404 0
M  V30 3243 H 302.597 2.81052 1.60598 0
M  V30 3244 H 301.504 3.70289 -0.532633 0
M  V30 3245 H 302.837 4.87462 -0.681287 0
M  V30 3246 N 304.489 0.459591 1.5075 0
M  V30 3247 C 305.399 -0.34613 2.32033 0
M  V30 3248 C 306.415 -1.00686 1.41909 0
M  V30 3249 O 307.591 -0.997361 1.7497 0
M  V30 3250 C 304.656 -1.42029 3.16273 0
M  V30 3251 C 303.717 -0.777362 4.22203 0
M  V30 3252 C 302.95 -1.80034 5.02418 0
M  V30 3253 O 303.173 -3.02544 4.83553 0
M  V30 3254 O 302.107 -1.37853 5.85901 0
M  V30 3255 H 305.933 0.318054 3.0203 0
M  V30 3256 H 303.518 0.221663 1.47746 0
M  V30 3257 H 305.4 -2.04275 3.68578 0
M  V30 3258 H 304.075 -2.06815 2.49016 0
M  V30 3259 H 302.982 -0.116256 3.73919 0
M  V30 3260 H 304.315 -0.172634 4.91897 0
M  V30 3261 N 305.967 -1.56429 0.191757 0
M  V30 3262 C 306.877 -2.22541 -0.742481 0
M  V30 3263 C 307.893 -1.22342 -1.23727 0
M  V30 3264 O 309.069 -1.55069 -1.28513 0
M  V30 3265 C 306.134 -2.8692 -1.94623 0
M  V30 3266 C 305.195 -4.02378 -1.49633 0
M  V30 3267 C 304.428 -4.63678 -2.6427 0
M  V30 3268 O 304.651 -4.23895 -3.81666 0
M  V30 3269 O 303.585 -5.53202 -2.37174 0
M  V30 3270 H 307.411 -3.02977 -0.209462 0
M  V30 3271 H 304.996 -1.49353 -0.0373832 0
M  V30 3272 H 306.878 -3.27663 -2.64982 0
M  V30 3273 H 305.553 -2.09466 -2.46791 0
M  V30 3274 H 304.46 -3.66265 -0.761636 0
M  V30 3275 H 305.793 -4.81487 -1.02134 0
M  V30 3276 N 307.445 0.0818655 -1.57387 0
M  V30 3277 C 308.378 1.12986 -1.98266 0
M  V30 3278 C 309.356 1.38123 -0.857954 0
M  V30 3279 O 310.54 1.51663 -1.1194 0
M  V30 3280 C 307.667 2.47632 -2.31076 0
M  V30 3281 C 306.713 2.38693 -3.53452 0
M  V30 3282 S 307.546 1.79071 -5.04672 0
M  V30 3283 C 308.702 3.15316 -5.40673 0
M  V30 3284 H 308.935 0.781435 -2.86846 0
M  V30 3285 H 306.468 0.290034 -1.51651 0
M  V30 3286 H 308.426 3.25089 -2.50654 0
M  V30 3287 H 307.087 2.79638 -1.43043 0
M  V30 3288 H 306.28 3.37964 -3.73893 0
M  V30 3289 H 305.882 1.69369 -3.33452 0
M  V30 3290 H 308.174 4.11613 -5.38127 0
M  V30 3291 H 309.117 2.99664 -6.41566 0
M  V30 3292 H 309.525 3.15457 -4.68132 0
M  V30 3293 N 308.923 1.53595 0.353017 0
M  V30 3294 C 310.153 1.74058 1.11299 0
M  V30 3295 C 310.561 0.475205 1.83135 0
M  V30 3296 O 309.904 -0.562344 1.74881 0
M  V30 3297 C 309.966 2.85994 2.17825 0
M  V30 3298 C 309.63 4.25923 1.65647 0
M  V30 3299 C 310.627 5.07829 1.11383 0
M  V30 3300 C 308.312 4.72377 1.7078 0
M  V30 3301 C 310.306 6.34285 0.629439 0
M  V30 3302 C 307.993 5.98808 1.21953 0
M  V30 3303 C 308.991 6.79594 0.681265 0
M  V30 3304 O 308.679 8.03651 0.200248 0
M  V30 3305 H 308.411 0.585327 0.338183 0
M  V30 3306 H 310.965 2.01186 0.413927 0
M  V30 3307 H 309.195 2.54368 2.91262 0
M  V30 3308 H 310.884 2.94515 2.79313 0
M  V30 3309 H 311.65 4.73107 1.06746 0
M  V30 3310 H 307.529 4.0956 2.11617 0
M  V30 3311 H 311.073 6.97288 0.208636 0
M  V30 3312 H 306.97 6.33026 1.26287 0
M  V30 3313 H 307.738 8.1788 0.318416 0
M  V30 3314 N 310.401 -0.613514 1.45168 0
M  V30 3315 C 311.817 -0.933629 1.29443 0
M  V30 3316 C 312.017 -2.00028 0.243101 0
M  V30 3317 O 311.073 -2.49848 -0.364992 0
M  V30 3318 C 312.386 -1.38018 2.67155 0
M  V30 3319 C 313.934 -1.49471 2.75004 0
M  V30 3320 C 314.409 -1.97503 4.13227 0
M  V30 3321 N 315.9 -2.04746 4.15491 0
M  V30 3322 C 316.635 -2.43121 5.19307 0
M  V30 3323 N 316.131 -2.80506 6.33473 0
M  V30 3324 N 317.924 -2.43408 5.06664 0
M  V30 3325 H 310.075 0.0916097 2.12202 0
M  V30 3326 H 312.338 -0.0216655 0.947752 0
M  V30 3327 H 312.044 -0.670625 3.45247 0
M  V30 3328 H 311.918 -2.34784 2.95222 0
M  V30 3329 H 314.305 -2.19519 1.9722 0
M  V30 3330 H 314.386 -0.510342 2.50657 0
M  V30 3331 H 314.03 -1.28045 4.91495 0
M  V30 3332 H 313.96 -2.96843 4.34962 0
M  V30 3333 H 316.451 -1.78468 3.33103 0
M  V30 3334 H 316.764 -3.08652 7.08487 0
M  V30 3335 H 315.109 -2.78216 6.36884 0
M  V30 3336 H 318.3 -2.13604 4.16523 0
M  V30 3337 H 318.473 -2.72989 5.87691 0
M  V30 3338 N 311.879 -1.3236 -0.855495 0
M  V30 3339 C 313.29 -1.2056 -1.42556 0
M  V30 3340 C 313.641 0.182209 -1.95352 0
M  V30 3341 O 312.766 1.08088 -1.87472 0
M  V30 3342 C 313.361 -2.1826 -2.59129 0
M  V30 3343 C 311.92 -2.10351 -3.12137 0
M  V30 3344 C 311.067 -2.06674 -1.84882 0
M  V30 3345 H 314.018 -1.442 -0.662727 0
M  V30 3346 H 314.039 -1.78064 -3.36264 0
M  V30 3347 H 313.551 -3.19257 -2.20673 0
M  V30 3348 H 311.652 -1.12599 -3.55179 0
M  V30 3349 H 311.765 -3.00135 -3.73438 0
M  V30 3350 H 310.129 -1.51901 -2.04446 0
M  V30 3351 H 310.912 -3.09451 -1.48643 0
M  V30 3352 N 313.357 1.07166 -1.15556 0
M  V30 3353 C 314.307 2.12649 -0.82247 0
M  V30 3354 C 315.291 1.59725 0.194129 0
M  V30 3355 O 316.483 1.76999 -0.00540402 0
M  V30 3356 C 313.612 3.41847 -0.315572 0
M  V30 3357 C 312.698 4.0162 -1.36244 0
M  V30 3358 N 313.089 4.35625 -2.5703 0
M  V30 3359 C 311.387 4.29114 -1.21562 0
M  V30 3360 C 312.088 4.83017 -3.24144 0
M  V30 3361 N 311.064 4.81906 -2.51531 0
M  V30 3362 H 314.866 2.36776 -1.74111 0
M  V30 3363 H 312.38 1.24622 -1.0413 0
M  V30 3364 H 314.377 4.16859 -0.0585855 0
M  V30 3365 H 313.037 3.19163 0.597105 0
M  V30 3366 H 314.048 4.26253 -2.94158 0
M  V30 3367 H 310.725 4.15919 -0.362988 0
M  V30 3368 H 312.115 5.18605 -4.27198 0
M  V30 3369 N 314.835 0.952656 1.25548 0
M  V30 3370 C 316.246 0.647392 1.75116 0
M  V30 3371 C 316.597 -0.837274 1.77438 0
M  V30 3372 O 315.722 -1.65525 1.39393 0
M  V30 3373 C 316.317 1.16845 3.18014 0
M  V30 3374 C 314.876 0.913382 3.6515 0
M  V30 3375 C 314.023 1.31265 2.44264 0
M  V30 3376 H 316.974 1.12968 1.11462 0
M  V30 3377 H 316.995 0.527606 3.76824 0
M  V30 3378 H 316.507 2.24902 3.16292 0
M  V30 3379 H 314.608 -0.152316 3.72289 0
M  V30 3380 H 314.721 1.54845 4.53387 0
M  V30 3381 H 313.085 0.731028 2.43984 0
M  V30 3382 H 313.868 2.40239 2.45234 0
M  V30 3383 N 316.313 -1.40141 0.720998 0
M  V30 3384 C 317.276 -2.29058 0.0805834 0
M  V30 3385 C 318.276 -1.45632 -0.681758 0
M  V30 3386 O 319.466 -1.6648 -0.512856 0
M  V30 3387 C 316.598 -3.28925 -0.895593 0
M  V30 3388 H 317.791 -2.87191 0.863793 0
M  V30 3389 H 315.344 -1.48553 0.485975 0
M  V30 3390 H 316.079 -2.75822 -1.70566 0
M  V30 3391 H 315.864 -3.90519 -0.351766 0
M  V30 3392 H 317.354 -3.95494 -1.34069 0
M  V30 3393 N 317.792 -0.46758 -1.50504 0
M  V30 3394 C 319.039 0.0886219 -2.02306 0
M  V30 3395 C 319.367 1.40037 -1.34981 0
M  V30 3396 O 318.622 1.90136 -0.463318 0
M  V30 3397 C 318.921 0.323995 -3.55928 0
M  V30 3398 C 318.587 -0.905618 -4.41712 0
M  V30 3399 C 317.249 -1.24275 -4.64875 0
M  V30 3400 C 319.601 -1.72448 -4.91845 0
M  V30 3401 C 316.929 -2.39888 -5.35417 0
M  V30 3402 C 319.281 -2.87185 -5.63656 0
M  V30 3403 C 317.945 -3.21317 -5.85074 0
M  V30 3404 H 317.215 0.0324291 -0.74029 0
M  V30 3405 H 319.862 -0.620945 -1.81153 0
M  V30 3406 H 318.167 1.11577 -3.75577 0
M  V30 3407 H 319.864 0.76826 -3.93572 0
M  V30 3408 H 316.454 -0.632956 -4.239 0
M  V30 3409 H 320.638 -1.4772 -4.73806 0
M  V30 3410 H 315.894 -2.66611 -5.50208 0
M  V30 3411 H 320.068 -3.50985 -6.01484 0
M  V30 3412 H 317.695 -4.1101 -6.39511 0
M  V30 3413 N 319.27 1.56325 -0.20005 0
M  V30 3414 C 320.5 2.01811 0.442232 0
M  V30 3415 C 320.908 1.07932 1.55394 0
M  V30 3416 O 320.251 0.0772685 1.83537 0
M  V30 3417 C 320.313 3.43685 1.05457 0
M  V30 3418 C 319.977 4.56928 0.0809833 0
M  V30 3419 C 320.974 5.15009 -0.711471 0
M  V30 3420 C 318.659 5.0229 -0.0315364 0
M  V30 3421 C 320.653 6.16904 -1.60336 0
M  V30 3422 C 318.34 6.04028 -0.926981 0
M  V30 3423 C 319.338 6.6121 -1.71146 0
M  V30 3424 O 319.026 7.60971 -2.59189 0
M  V30 3425 H 318.758 0.666173 0.114848 0
M  V30 3426 H 321.312 2.03085 -0.307511 0
M  V30 3427 H 319.542 3.39413 1.85299 0
M  V30 3428 H 321.231 3.72948 1.60201 0
M  V30 3429 H 321.997 4.80827 -0.634873 0
M  V30 3430 H 317.876 4.57476 0.568902 0
M  V30 3431 H 321.42 6.61464 -2.21611 0
M  V30 3432 H 317.317 6.37634 -1.00468 0
M  V30 3433 H 318.085 7.7841 -2.53023 0
M  V30 3434 N 320.748 -0.0735177 1.57428 0
M  V30 3435 C 322.164 -0.428264 1.53747 0
M  V30 3436 C 322.364 -1.79272 0.91998 0
M  V30 3437 O 321.42 -2.47051 0.521745 0
M  V30 3438 C 322.733 -0.370914 2.98404 0
M  V30 3439 C 324.281 -0.451224 3.0973 0
M  V30 3440 C 324.756 -0.4238 4.56035 0
M  V30 3441 N 326.247 -0.483925 4.60665 0
M  V30 3442 C 326.982 -0.484891 5.71346 0
M  V30 3443 N 326.478 -0.440775 6.91396 0
M  V30 3444 N 328.271 -0.531319 5.59583 0
M  V30 3445 H 320.422 0.819949 1.95935 0
M  V30 3446 H 322.685 0.307493 0.896745 0
M  V30 3447 H 322.391 0.564956 3.47133 0
M  V30 3448 H 322.265 -1.18176 3.5821 0
M  V30 3449 H 324.652 -1.37752 2.60976 0
M  V30 3450 H 324.733 0.388167 2.52838 0
M  V30 3451 H 324.377 0.498638 5.05446 0
M  V30 3452 H 324.307 -1.2807 5.10789 0
M  V30 3453 H 326.798 -0.522338 3.74273 0
M  V30 3454 H 327.111 -0.44539 7.71515 0
M  V30 3455 H 325.456 -0.40749 6.93804 0
M  V30 3456 H 328.647 -0.563464 4.64696 0
M  V30 3457 H 328.82 -0.528603 6.4584 0
M  V30 3458 N 322.226 -1.5378 -0.344866 0
M  V30 3459 C 323.637 -1.62428 -0.920552 0
M  V30 3460 C 323.988 -0.504747 -1.89596 0
M  V30 3461 O 323.113 0.365711 -2.13287 0
M  V30 3462 C 323.708 -2.94419 -1.67639 0
M  V30 3463 C 322.267 -3.05333 -2.20111 0
M  V30 3464 C 321.414 -2.57866 -1.01982 0
M  V30 3465 H 324.365 -1.58222 -0.123042 0
M  V30 3466 H 324.386 -2.83384 -2.53917 0
M  V30 3467 H 323.898 -3.7588 -0.966224 0
M  V30 3468 H 321.999 -2.28502 -2.94308 0
M  V30 3469 H 322.112 -4.10778 -2.46573 0
M  V30 3470 H 320.476 -2.13241 -1.39285 0
M  V30 3471 H 321.259 -3.41765 -0.324308 0
M  V30 3472 N 323.704 0.605807 -1.45491 0
M  V30 3473 C 325.12 0.926751 -1.29936 0
M  V30 3474 C 325.32 1.99896 -0.253706 0
M  V30 3475 O 324.376 2.50038 0.351737 0
M  V30 3476 C 325.689 1.36599 -2.67883 0
M  V30 3477 C 327.237 1.4801 -2.75793 0
M  V30 3478 C 327.712 1.95309 -4.14268 0
M  V30 3479 N 329.203 2.0254 -4.16571 0
M  V30 3480 C 329.938 2.40363 -5.20589 0
M  V30 3481 N 329.434 2.77143 -6.34952 0
M  V30 3482 N 331.227 2.40718 -5.07948 0
M  V30 3483 H 323.378 -0.102862 -2.12151 0
M  V30 3484 H 325.641 0.016639 -0.947854 0
M  V30 3485 H 325.347 0.652306 -3.45598 0
M  V30 3486 H 325.221 2.33215 -2.96463 0
M  V30 3487 H 327.608 2.1847 -1.98381 0
M  V30 3488 H 327.689 0.497041 -2.50925 0
M  V30 3489 H 327.333 1.25436 -4.92167 0
M  V30 3490 H 327.263 2.94532 -4.3653 0
M  V30 3491 H 329.754 1.76699 -3.34045 0
M  V30 3492 H 330.067 3.0489 -7.10114 0
M  V30 3493 H 328.412 2.74834 -6.3835 0
M  V30 3494 H 331.603 2.11392 -4.1765 0
M  V30 3495 H 331.776 2.69869 -5.89131 0
M  V30 3496 N 325.182 1.32811 0.848464 0
M  V30 3497 C 326.112 1.24882 1.97299 0
M  V30 3498 C 327.093 0.131357 1.69592 0
M  V30 3499 O 328.278 0.319553 1.91553 0
M  V30 3500 C 325.408 0.97746 3.33261 0
M  V30 3501 C 324.362 2.05682 3.75338 0
M  V30 3502 C 323.688 1.63777 5.09 0
M  V30 3503 C 324.988 3.47254 3.90144 0
M  V30 3504 H 326.682 2.18966 2.04191 0
M  V30 3505 H 324.228 1.05413 0.981029 0
M  V30 3506 H 326.181 0.908513 4.1149 0
M  V30 3507 H 324.905 0.000980011 3.266 0
M  V30 3508 H 323.564 2.11603 2.99366 0
M  V30 3509 H 323.212 0.648569 4.98801 0
M  V30 3510 H 322.912 2.36 5.38124 0
M  V30 3511 H 324.436 1.5833 5.89715 0
M  V30 3512 H 325.85 3.43888 4.58709 0
M  V30 3513 H 324.247 4.1788 4.30693 0
M  V30 3514 H 325.317 3.86462 2.92874 0
M  V30 3515 N 326.66 -1.06551 1.16123 0
M  V30 3516 C 327.885 -1.83544 0.965735 0
M  V30 3517 C 328.31 -1.81843 -0.481102 0
M  V30 3518 O 327.668 -1.21732 -1.34354 0
M  V30 3519 C 327.716 -3.28169 1.49457 0
M  V30 3520 O 326.82 -4.0643 0.699157 0
M  V30 3521 H 326.161 -0.568026 0.343864 0
M  V30 3522 H 328.691 -1.34362 1.54299 0
M  V30 3523 H 328.701 -3.78992 1.51092 0
M  V30 3524 H 327.376 -3.28722 2.54784 0
M  V30 3525 H 325.953 -3.65216 0.7531 0
M  V30 3526 N 328.138 -0.959301 -1.25041 0
M  V30 3527 C 329.415 -0.533805 -1.88175 0
M  V30 3528 C 329.795 0.988994 -1.865 0
M  V30 3529 O 329.143 1.85677 -1.33177 0
M  V30 3530 C 329.353 -1.11575 -3.30684 0
M  V30 3531 C 330.701 -1.19548 -4.07423 0
M  V30 3532 O 331.725 -1.06765 -3.39823 0
M  V30 3533 O 330.584 -1.39656 -5.28354 0
M  V30 3534 H 327.678 -0.176772 -0.807887 0
M  V30 3535 H 330.224 -1.05303 -1.33076 0
M  V30 3536 H 328.996 -2.15884 -3.26358 0
M  V30 3537 H 328.619 -0.580059 -3.93346 0
M  V30 3538 N 329.616 1.39756 -0.72842 0
M  V30 3539 C 330.856 2.025 -0.278078 0
M  V30 3540 C 331.22 1.5654 1.11173 0
M  V30 3541 O 332.421 2.11435 1.65978 0
M  V30 3542 C 330.692 3.55489 -0.369139 0
M  V30 3543 S 332.251 4.388 0.00232983 0
M  V30 3544 H 329.069 0.702534 -0.109391 0
M  V30 3545 H 331.671 1.70672 -0.95348 0
M  V30 3546 H 330.375 3.86429 -1.38204 0
M  V30 3547 H 329.906 3.92061 0.324308 0
M  V30 3548 H 331.921 4.80954 1.22055 0
M  V30 3549 N 331.094 0.475555 1.50254 0
M  V30 3550 C 332.319 -0.0777042 2.07254 0
M  V30 3551 C 332.744 -1.3235 1.3366 0
M  V30 3552 O 332.102 -1.77152 0.385597 0
M  V30 3553 C 332.15 -0.340169 3.58992 0
M  V30 3554 O 331.254 -1.41982 3.87188 0
M  V30 3555 H 330.595 0.0149556 0.663832 0
M  V30 3556 H 333.125 0.667878 1.93392 0
M  V30 3557 H 333.135 -0.579332 4.03866 0
M  V30 3558 H 331.81 0.570167 4.11973 0
M  V30 3559 H 330.387 -1.16762 3.54148 0
M  V30 3560 N 332.573 -1.56217 0.208337 0
M  V30 3561 C 333.85 -1.89739 -0.475234 0
M  V30 3562 C 334.23 -1.1238 -1.78701 0
M  V30 3563 O 333.578 -0.228979 -2.2735 0
M  V30 3564 C 333.788 -3.42289 -0.681101 0
M  V30 3565 C 335.136 -4.12789 -0.994507 0
M  V30 3566 O 336.16 -3.47814 -0.768357 0
M  V30 3567 O 335.019 -5.27649 -1.42299 0
M  V30 3568 H 332.113 -0.788478 -0.249461 0
M  V30 3569 H 334.659 -1.67855 0.249538 0
M  V30 3570 H 333.431 -3.90534 0.244722 0
M  V30 3571 H 333.054 -3.69909 -1.45785 0
M  V30 3572 N 334.051 0.0651679 -1.57465 0
M  V30 3573 C 335.281 0.774683 -1.91526 0
M  V30 3574 C 335.689 1.71305 -0.803196 0
M  V30 3575 O 335.032 1.82231 0.231881 0
M  V30 3576 C 335.094 1.61645 -3.21109 0
M  V30 3577 C 334.758 0.846753 -4.49087 0
M  V30 3578 C 335.755 0.163024 -5.19644 0
M  V30 3579 C 333.44 0.811966 -4.95694 0
M  V30 3580 C 335.434 -0.54519 -6.35064 0
M  V30 3581 C 333.121 0.0999836 -6.11018 0
M  V30 3582 C 334.119 -0.577388 -6.80555 0
M  V30 3583 O 333.807 -1.27789 -7.93678 0
M  V30 3584 H 333.539 0.225031 -0.637446 0
M  V30 3585 H 336.093 0.0377134 -2.05365 0
M  V30 3586 H 334.323 2.39638 -3.03497 0
M  V30 3587 H 336.012 2.20525 -3.40769 0
M  V30 3588 H 336.778 0.181163 -4.84662 0
M  V30 3589 H 332.657 1.32867 -4.41438 0
M  V30 3590 H 336.201 -1.07446 -6.89276 0
M  V30 3591 H 332.098 0.0797945 -6.45451 0
M  V30 3592 H 332.866 -1.18784 -8.09835 0
M  V30 3593 N 335.529 1.53961 0.336706 0
M  V30 3594 C 336.754 1.75797 1.10046 0
M  V30 3595 C 337.179 0.498985 1.81361 0
M  V30 3596 O 336.537 -0.548769 1.72795 0
M  V30 3597 C 336.585 2.94257 2.08436 0
M  V30 3598 O 335.689 2.64883 3.16087 0
M  V30 3599 H 335.03 0.582936 0.317934 0
M  V30 3600 H 337.56 2.00945 0.38501 0
M  V30 3601 H 337.57 3.21237 2.51537 0
M  V30 3602 H 336.245 3.85564 1.55927 0
M  V30 3603 H 334.822 2.48812 2.77753 0
M  V30 3604 N 337.007 -0.598083 1.45811 0
M  V30 3605 C 338.255 -1.35413 1.50026 0
M  V30 3606 C 338.576 -1.94444 0.147177 0
M  V30 3607 O 337.846 -1.77701 -0.824571 0
M  V30 3608 H 336.426 -0.502727 0.552517 0
M  V30 3609 H 339.088 -0.701606 1.81834 0
M  V30 3610 H 338.184 -2.16871 2.2444 0
M  V30 3611 N 338.485 -1.33259 -0.841409 0
M  V30 3612 C 339.417 -1.19136 -1.95804 0
M  V30 3613 C 340.43 -0.122965 -1.62335 0
M  V30 3614 O 341.619 -0.373154 -1.74556 0
M  V30 3615 C 338.719 -0.804268 -3.29218 0
M  V30 3616 C 337.892 -1.96376 -3.90839 0
M  V30 3617 C 336.951 -1.55806 -5.02604 0
M  V30 3618 O 335.977 -2.27203 -5.21888 0
M  V30 3619 N 337.179 -0.461609 -5.78662 0
M  V30 3620 H 339.944 -2.15326 -2.08458 0
M  V30 3621 H 337.505 -1.25971 -1.017 0
M  V30 3622 H 339.497 -0.51501 -4.0141 0
M  V30 3623 H 338.067 0.0668809 -3.12528 0
M  V30 3624 H 337.287 -2.41879 -3.11269 0
M  V30 3625 H 338.575 -2.73966 -4.28742 0
M  V30 3626 H 337.973 0.132343 -5.65545 0
M  V30 3627 H 336.53 -0.232013 -6.51387 0
M  V30 3628 N 339.963 1.05934 -1.16686 0
M  V30 3629 C 341.21 1.788 -0.950622 0
M  V30 3630 C 341.538 1.87384 0.521305 0
M  V30 3631 O 340.793 1.36438 1.40297 0
M  V30 3632 C 341.092 3.23105 -1.52767 0
M  V30 3633 C 340.758 3.34594 -3.02254 0
M  V30 3634 C 339.42 3.37437 -3.43059 0
M  V30 3635 C 341.772 3.36219 -3.98254 0
M  V30 3636 C 339.1 3.39525 -4.78477 0
M  V30 3637 C 341.452 3.39845 -5.33562 0
M  V30 3638 C 340.116 3.40971 -5.73842 0
M  V30 3639 H 339.386 0.654275 -0.347857 0
M  V30 3640 H 342.033 1.24555 -1.45459 0
M  V30 3641 H 340.338 3.80227 -0.94524 0
M  V30 3642 H 342.035 3.7809 -1.336 0
M  V30 3643 H 338.625 3.3309 -2.6972 0
M  V30 3644 H 342.809 3.33231 -3.67792 0
M  V30 3645 H 338.065 3.38703 -5.09009 0
M  V30 3646 H 342.239 3.4005 -6.07733 0
M  V30 3647 H 339.866 3.42342 -6.78753 0
M  V30 3648 N 341.441 0.965919 1.2453 0
M  V30 3649 C 342.371 0.513476 2.27784 0
M  V30 3650 C 343.352 -0.445974 1.6415 0
M  V30 3651 O 344.537 -0.342485 1.91156 0
M  V30 3652 C 341.667 -0.198839 3.4673 0
M  V30 3653 C 340.621 0.676456 4.2262 0
M  V30 3654 C 339.947 -0.167248 5.34438 0
M  V30 3655 C 341.247 1.96017 4.84123 0
M  V30 3656 H 342.941 1.3765 2.65881 0
M  V30 3657 H 340.487 0.663321 1.27813 0
M  V30 3658 H 342.44 -0.526567 4.18097 0
M  V30 3659 H 341.164 -1.0962 3.07654 0
M  V30 3660 H 339.823 0.98743 3.53052 0
M  V30 3661 H 339.471 -1.0647 4.91603 0
M  V30 3662 H 339.171 0.415181 5.86131 0
M  V30 3663 H 340.695 -0.489688 6.08633 0
M  V30 3664 H 342.109 1.69814 5.47573 0
M  V30 3665 H 340.506 2.48918 5.4604 0
M  V30 3666 H 341.576 2.65622 4.05676 0
M  V30 3667 N 342.919 -1.39368 0.735821 0
M  V30 3668 C 343.851 -2.2913 0.0567723 0
M  V30 3669 C 344.864 -1.46859 -0.702589 0
M  V30 3670 O 346.053 -1.69925 -0.546616 0
M  V30 3671 C 343.153 -3.25492 -0.943823 0
M  V30 3672 C 342.326 -4.36709 -0.24581 0
M  V30 3673 C 341.385 -5.13376 -1.15463 0
M  V30 3674 O 340.411 -5.65683 -0.631803 0
M  V30 3675 N 341.613 -5.24656 -2.48427 0
M  V30 3676 H 344.378 -2.88047 0.827582 0
M  V30 3677 H 341.939 -1.50957 0.585112 0
M  V30 3678 H 343.931 -3.73657 -1.55443 0
M  V30 3679 H 342.501 -2.676 -1.61583 0
M  V30 3680 H 341.721 -3.9041 0.545286 0
M  V30 3681 H 343.009 -5.08244 0.237891 0
M  V30 3682 H 342.407 -4.83679 -2.93379 0
M  V30 3683 H 340.964 -5.76258 -3.04582 0
M  V30 3684 N 344.397 -0.483516 -1.5 0
M  V30 3685 C 345.808 -0.0314176 -1.86674 0
M  V30 3686 C 346.159 1.37728 -1.39733 0
M  V30 3687 O 345.284 2.02327 -0.767635 0
M  V30 3688 C 345.879 -0.0502376 -3.38763 0
M  V30 3689 C 344.438 0.346442 -3.74802 0
M  V30 3690 C 343.585 -0.430366 -2.7394 0
M  V30 3691 H 346.536 -0.697182 -1.42566 0
M  V30 3692 H 346.557 0.749116 -3.73053 0
M  V30 3693 H 346.069 -1.07563 -3.72897 0
M  V30 3694 H 344.17 1.37572 -3.46273 0
M  V30 3695 H 344.283 0.0391486 -4.79084 0
M  V30 3696 H 342.647 0.117557 -2.54429 0
M  V30 3697 H 343.43 -1.4555 -3.10918 0
M  V30 3698 N 345.875 1.56104 -0.216619 0
M  V30 3699 C 346.785 2.23694 0.706982 0
M  V30 3700 C 347.801 1.24295 1.21765 0
M  V30 3701 O 348.977 1.57094 1.2603 0
M  V30 3702 C 346.042 2.8998 1.90033 0
M  V30 3703 C 345.103 4.04708 1.43213 0
M  V30 3704 C 344.336 4.67824 2.56859 0
M  V30 3705 O 344.559 4.29913 3.74874 0
M  V30 3706 O 343.493 5.56905 2.28343 0
M  V30 3707 H 347.319 3.03272 0.161235 0
M  V30 3708 H 344.904 1.49394 0.0136177 0
M  V30 3709 H 346.786 3.31837 2.59735 0
M  V30 3710 H 345.461 2.13365 2.43428 0
M  V30 3711 H 344.368 3.6743 0.70327 0
M  V30 3712 H 345.701 4.83051 0.944615 0
M  V30 3713 N 347.353 -0.0568162 1.57498 0
M  V30 3714 C 348.316 -1.05038 2.03715 0
M  V30 3715 C 349.316 -1.30709 0.936577 0
M  V30 3716 O 350.506 -1.26178 1.20103 0
M  V30 3717 C 347.638 -2.39034 2.43055 0
M  V30 3718 H 348.831 -0.651715 2.92733 0
M  V30 3719 H 346.384 -0.302947 1.53336 0
M  V30 3720 H 347.119 -2.83703 1.57108 0
M  V30 3721 H 346.904 -2.21739 3.2338 0
M  V30 3722 H 348.394 -3.10421 2.79336 0
M  V30 3723 N 348.832 -1.54138 -0.328536 0
M  V30 3724 C 350.078 -1.73297 -1.06488 0
M  V30 3725 C 350.433 -0.497958 -1.85844 0
M  V30 3726 O 349.726 0.509591 -1.84699 0
M  V30 3727 C 349.92 -2.9457 -2.02393 0
M  V30 3728 C 349.749 -4.29747 -1.32467 0
M  V30 3729 C 348.519 -4.93987 -1.06324 0
M  V30 3730 C 350.717 -5.08903 -0.743137 0
M  V30 3731 N 348.699 -6.13005 -0.331359 0
M  V30 3732 C 350.07 -6.19836 -0.142602 0
M  V30 3733 C 352.125 -4.93699 -0.64546 0
M  V30 3734 C 350.828 -7.17224 0.546125 0
M  V30 3735 C 352.854 -5.91393 0.0295558 0
M  V30 3736 C 352.216 -7.01674 0.619056 0
M  V30 3737 H 348.315 -0.687017 -0.373539 0
M  V30 3738 H 350.899 -1.91589 -0.346659 0
M  V30 3739 H 349.07 -2.77752 -2.71493 0
M  V30 3740 H 350.802 -3.0238 -2.68977 0
M  V30 3741 H 347.557 -4.53824 -1.35428 0
M  V30 3742 H 347.981 -6.76997 0.0202939 0
M  V30 3743 H 352.623 -4.08589 -1.08695 0
M  V30 3744 H 350.341 -8.01896 0.999459 0
M  V30 3745 H 353.927 -5.81706 0.104705 0
M  V30 3746 H 352.807 -7.75971 1.13309 0
M  V30 3747 N 350.31 0.590341 -1.46126 0
M  V30 3748 C 351.726 0.912917 -1.30912 0
M  V30 3749 C 351.926 1.99616 -0.274893 0
M  V30 3750 O 350.982 2.50397 0.325197 0
M  V30 3751 C 352.295 1.3375 -2.69317 0
M  V30 3752 C 353.843 1.45077 -2.77348 0
M  V30 3753 C 354.318 1.90904 -4.16317 0
M  V30 3754 N 355.809 1.9811 -4.18696 0
M  V30 3755 C 356.544 2.34828 -5.23109 0
M  V30 3756 N 356.04 2.70393 -6.37856 0
M  V30 3757 N 357.833 2.35317 -5.10473 0
M  V30 3758 H 349.984 -0.125358 -2.1203 0
M  V30 3759 H 352.247 0.00658481 -0.947977 0
M  V30 3760 H 351.953 0.615614 -3.4627 0
M  V30 3761 H 351.827 2.30058 -2.9892 0
M  V30 3762 H 354.214 2.16353 -2.00687 0
M  V30 3763 H 354.295 0.4704 -2.51438 0
M  V30 3764 H 353.939 1.20209 -4.9347 0
M  V30 3765 H 353.869 2.89886 -4.39629 0
M  V30 3766 H 356.36 1.73146 -3.359 0
M  V30 3767 H 356.673 2.97341 -7.13308 0
M  V30 3768 H 355.018 2.68048 -6.41229 0
M  V30 3769 H 358.209 2.0695 -4.19868 0
M  V30 3770 H 358.382 2.63605 -5.9196 0
M  V30 3771 N 351.788 1.33704 0.83433 0
M  V30 3772 C 353.204 1.13137 1.12571 0
M  V30 3773 C 353.404 -0.0747261 2.01361 0
M  V30 3774 O 352.46 -0.753647 2.4099 0
M  V30 3775 C 353.773 2.42105 1.78342 0
M  V30 3776 C 355.321 2.48054 1.90888 0
M  V30 3777 C 355.796 3.76995 2.60075 0
M  V30 3778 N 357.287 3.78092 2.67584 0
M  V30 3779 C 358.022 4.74574 3.21818 0
M  V30 3780 N 357.518 5.81434 3.76705 0
M  V30 3781 N 359.311 4.62044 3.20112 0
M  V30 3782 H 351.462 2.11 0.243489 0
M  V30 3783 H 353.725 0.932532 0.17055 0
M  V30 3784 H 353.431 3.30391 1.20561 0
M  V30 3785 H 353.305 2.54594 2.7832 0
M  V30 3786 H 355.692 1.60215 2.47821 0
M  V30 3787 H 355.773 2.39502 0.898459 0
M  V30 3788 H 355.417 4.65219 2.03799 0
M  V30 3789 H 355.347 3.82825 3.61597 0
M  V30 3790 H 357.838 3.00865 2.28667 0
M  V30 3791 H 358.151 6.51084 4.16305 0
M  V30 3792 H 356.496 5.85163 3.7498 0
M  V30 3793 H 359.687 3.77716 2.76493 0
M  V30 3794 H 359.86 5.37406 3.62076 0
M  V30 3795 N 353.266 -1.05314 1.17247 0
M  V30 3796 C 354.514 -1.77941 0.958194 0
M  V30 3797 C 354.835 -1.88089 -0.514556 0
M  V30 3798 O 354.105 -1.39676 -1.37359 0
M  V30 3799 H 352.685 -0.659116 0.351533 0
M  V30 3800 H 355.347 -1.27166 1.47699 0
M  V30 3801 H 354.443 -2.79663 1.38546 0
M  V30 3802 N 354.744 -0.972509 -1.24016 0
M  V30 3803 C 356.16 -0.679827 -1.44397 0
M  V30 3804 C 356.36 0.756716 -1.86751 0
M  V30 3805 O 355.416 1.53007 -2.00861 0
M  V30 3806 C 356.729 -1.66803 -2.50195 0
M  V30 3807 C 358.277 -1.68119 -2.64017 0
M  V30 3808 C 358.752 -2.65748 -3.73017 0
M  V30 3809 N 360.243 -2.64219 -3.8045 0
M  V30 3810 C 360.978 -3.36433 -4.64328 0
M  V30 3811 N 360.474 -4.1818 -5.52356 0
M  V30 3812 N 362.267 -3.25235 -4.58453 0
M  V30 3813 H 354.418 -1.90059 -0.948228 0
M  V30 3814 H 356.681 -0.818527 -0.478245 0
M  V30 3815 H 356.387 -2.69498 -2.25973 0
M  V30 3816 H 356.261 -1.4446 -3.48441 0
M  V30 3817 H 358.648 -0.661319 -2.87594 0
M  V30 3818 H 358.729 -1.94525 -1.66113 0
M  V30 3819 H 358.373 -3.67872 -3.50189 0
M  V30 3820 H 358.303 -2.36619 -4.70446 0
M  V30 3821 H 360.794 -2.04887 -3.17537 0
M  V30 3822 H 361.107 -4.70157 -6.13329 0
M  V30 3823 H 359.452 -4.22273 -5.52006 0
M  V30 3824 H 362.643 -2.60829 -3.88698 0
M  V30 3825 H 362.816 -3.81776 -5.23594 0
M  V30 3826 N 356.222 1.38976 -0.743202 0
M  V30 3827 C 357.447 2.05161 -0.303936 0
M  V30 3828 C 357.872 1.55677 1.05576 0
M  V30 3829 O 357.23 0.704131 1.67068 0
M  V30 3830 C 357.278 3.59138 -0.324373 0
M  V30 3831 O 356.382 4.06668 0.685204 0
M  V30 3832 H 355.723 0.649815 -0.136518 0
M  V30 3833 H 358.253 1.77852 -1.01142 0
M  V30 3834 H 358.263 4.07639 -0.171618 0
M  V30 3835 H 356.938 3.94515 -1.31647 0
M  V30 3836 H 355.515 3.69561 0.497913 0
M  V30 3837 N 357.7 0.491464 1.49741 0
M  V30 3838 C 359.111 0.0413169 1.86654 0
M  V30 3839 C 359.462 -1.36985 1.40462 0
M  V30 3840 O 358.587 -2.01917 0.778354 0
M  V30 3841 C 359.182 0.0682023 3.38731 0
M  V30 3842 C 357.741 -0.32656 3.74981 0
M  V30 3843 C 356.888 0.444888 2.73708 0
M  V30 3844 H 359.839 0.704733 1.42194 0
M  V30 3845 H 359.86 -0.729322 3.73445 0
M  V30 3846 H 359.372 1.09539 3.72321 0
M  V30 3847 H 357.473 -1.35734 3.46997 0
M  V30 3848 H 357.586 -0.013741 4.79098 0
M  V30 3849 H 355.95 -0.104062 2.54487 0
M  V30 3850 H 356.733 1.47197 3.10142 0
M  V30 3851 N 359.178 -1.55987 0.224894 0
M  V30 3852 C 360.403 -2.03232 -0.41369 0
M  V30 3853 C 360.828 -1.10359 -1.52323 0
M  V30 3854 O 360.186 -0.092395 -1.81064 0
M  V30 3855 C 360.234 -3.48682 -0.919405 0
M  V30 3856 O 359.338 -3.58947 -2.03054 0
M  V30 3857 H 358.679 -0.657428 -0.0931903 0
M  V30 3858 H 361.209 -2.01679 0.34451 0
M  V30 3859 H 361.219 -3.8907 -1.22835 0
M  V30 3860 H 359.894 -4.15761 -0.107339 0
M  V30 3861 H 358.471 -3.30448 -1.72796 0
M  V30 3862 N 360.656 0.0484629 -1.57525 0
M  V30 3863 C 361.933 0.777447 -1.79486 0
M  V30 3864 C 362.313 1.94597 -0.818251 0
M  V30 3865 O 361.661 2.28047 0.143767 0
M  V30 3866 C 361.871 1.22864 -3.26658 0
M  V30 3867 C 363.219 1.65251 -3.91123 0
M  V30 3868 O 364.243 1.32372 -3.3069 0
M  V30 3869 O 363.102 2.26207 -4.97486 0
M  V30 3870 H 360.196 0.374357 -0.737419 0
M  V30 3871 H 362.742 0.0267359 -1.69679 0
M  V30 3872 H 361.514 0.393589 -3.89316 0
M  V30 3873 H 361.137 2.03996 -3.41279 0
M  V30 3874 N 362.134 1.5431 0.320358 0
M  V30 3875 C 363.383 1.7188 1.05546 0
M  V30 3876 C 363.696 0.501143 1.89071 0
M  V30 3877 O 364.902 0.558258 2.65699 0
M  V30 3878 C 363.358 3.04025 1.92605 0
M  V30 3879 C 362.966 4.33207 1.14176 0
M  V30 3880 C 364.71 3.30959 2.65832 0
M  V30 3881 C 362.617 5.56412 2.00399 0
M  V30 3882 H 361.547 0.640547 0.397763 0
M  V30 3883 H 364.198 1.80802 0.313522 0
M  V30 3884 H 362.58 2.89019 2.7071 0
M  V30 3885 H 363.754 4.58989 0.40819 0
M  V30 3886 H 362.069 4.13062 0.526165 0
M  V30 3887 H 364.666 4.20203 3.30656 0
M  V30 3888 H 365.009 2.48979 3.33639 0
M  V30 3889 H 365.542 3.46847 1.94787 0
M  V30 3890 H 362.281 6.41004 1.37094 0
M  V30 3891 H 361.801 5.34844 2.7148 0
M  V30 3892 H 363.48 5.92938 2.58908 0
M  V30 3893 N 363.613 -0.582584 1.46437 0
M  V30 3894 C 364.838 -1.37168 1.55563 0
M  V30 3895 C 365.263 -1.87061 0.19743 0
M  V30 3896 O 364.621 -1.61572 -0.822451 0
M  V30 3897 C 364.669 -2.53511 2.56446 0
M  V30 3898 O 363.773 -3.54953 2.09958 0
M  V30 3899 H 363.114 -0.408494 0.523477 0
M  V30 3900 H 365.644 -0.706646 1.9201 0
M  V30 3901 H 365.654 -3.00426 2.76058 0
M  V30 3902 H 364.329 -2.16549 3.55076 0
M  V30 3903 H 362.906 -3.14516 2.00334 0
M  V30 3904 N 365.091 -1.34144 -0.827227 0
M  V30 3905 C 366.316 -1.29476 -1.62021 0
M  V30 3906 C 366.741 0.129292 -1.87655 0
M  V30 3907 O 366.099 1.08967 -1.449 0
M  V30 3908 C 366.147 -2.08702 -2.94068 0
M  V30 3909 O 365.251 -1.45359 -3.85933 0
M  V30 3910 H 364.592 -0.444881 -0.492927 0
M  V30 3911 H 367.122 -1.76882 -1.02829 0
M  V30 3912 H 367.132 -2.19898 -3.43669 0
M  V30 3913 H 365.807 -3.12241 -2.74734 0
M  V30 3914 H 364.384 -1.42879 -3.44442 0
M  V30 3915 N 366.569 1.04691 -1.17803 0
M  V30 3916 C 367.846 1.7472 -0.879328 0
M  V30 3917 C 368.226 2.01812 0.619271 0
M  V30 3918 O 367.574 1.65824 1.57209 0
M  V30 3919 C 367.784 3.03686 -1.71976 0
M  V30 3920 C 369.132 3.77542 -1.94286 0
M  V30 3921 O 370.156 3.13569 -1.68976 0
M  V30 3922 O 369.015 4.92506 -2.36855 0
M  V30 3923 H 366.109 0.760011 -0.326056 0
M  V30 3924 H 368.655 1.10813 -1.28525 0
M  V30 3925 H 367.427 2.79754 -2.73594 0
M  V30 3926 H 367.05 3.75332 -1.31194 0
M  V30 3927 N 368.047 0.979072 1.23499 0
M  V30 3928 C 369.293 0.648178 1.92163 0
M  V30 3929 C 369.626 -0.816049 1.76222 0
M  V30 3930 O 368.901 -1.58849 1.12237 0
M  V30 3931 C 369.184 1.03773 3.44824 0
M  V30 3932 C 369.037 2.55948 3.69879 0
M  V30 3933 C 370.356 0.580653 4.36253 0
M  V30 3934 H 367.475 0.236952 0.69787 0
M  V30 3935 H 370.117 1.22012 1.45647 0
M  V30 3936 H 368.267 0.551058 3.84572 0
M  V30 3937 H 369.939 3.12179 3.3962 0
M  V30 3938 H 368.182 2.98641 3.14636 0
M  V30 3939 H 368.853 2.78255 4.76737 0
M  V30 3940 H 371.329 0.998465 4.03943 0
M  V30 3941 H 370.205 0.881663 5.41773 0
M  V30 3942 H 370.466 -0.519052 4.39042 0
M  V30 3943 N 369.525 -1.3858 0.750561 0
M  V30 3944 C 370.75 -2.04997 0.314812 0
M  V30 3945 C 371.175 -1.56235 -1.04749 0
M  V30 3946 O 370.533 -0.712981 -1.66692 0
M  V30 3947 C 370.581 -3.58961 0.343415 0
M  V30 3948 O 369.685 -4.07025 -0.663628 0
M  V30 3949 H 369.026 -0.649081 0.139962 0
M  V30 3950 H 371.556 -1.77313 1.02084 0
M  V30 3951 H 371.566 -4.07542 0.193233 0
M  V30 3952 H 370.241 -3.93811 1.33738 0
M  V30 3953 H 368.818 -3.6982 -0.478307 0
M  V30 3954 N 371.003 -0.499398 -1.49478 0
M  V30 3955 C 372.252 0.0475259 -2.01644 0
M  V30 3956 C 372.565 1.38195 -1.38425 0
M  V30 3957 O 373.771 2.01547 -1.8191 0
M  V30 3958 C 372.227 0.135164 -3.59646 0
M  V30 3959 C 371.835 -1.19252 -4.31837 0
M  V30 3960 C 373.579 0.632538 -4.19761 0
M  V30 3961 C 371.486 -1.06713 -5.81693 0
M  V30 3962 H 370.416 0.0215349 -0.753692 0
M  V30 3963 H 373.067 -0.638577 -1.7203 0
M  V30 3964 H 371.449 0.885681 -3.85969 0
M  V30 3965 H 372.623 -1.9562 -4.17216 0
M  V30 3966 H 370.938 -1.62321 -3.83459 0
M  V30 3967 H 373.535 0.743833 -5.29501 0
M  V30 3968 H 373.878 1.63098 -3.83021 0
M  V30 3969 H 374.411 -0.0613987 -3.97753 0
M  V30 3970 H 371.15 -2.03979 -6.22955 0
M  V30 3971 H 370.67 -0.344307 -5.98811 0
M  V30 3972 H 372.349 -0.745208 -6.42694 0
M  V30 3973 N 372.481 1.55866 -0.233164 0
M  V30 3974 C 373.413 2.18099 0.704668 0
M  V30 3975 C 374.426 1.15334 1.14899 0
M  V30 3976 O 375.615 1.42262 1.07814 0
M  V30 3977 C 372.715 2.7592 1.96777 0
M  V30 3978 C 371.888 4.03969 1.67713 0
M  V30 3979 C 370.947 4.46242 2.78845 0
M  V30 3980 O 369.973 5.12903 2.46818 0
M  V30 3981 N 371.175 4.12886 4.08051 0
M  V30 3982 H 373.94 2.99205 0.172258 0
M  V30 3983 H 371.501 1.61815 -0.0525945 0
M  V30 3984 H 373.493 3.01165 2.70337 0
M  V30 3985 H 372.063 1.99051 2.41034 0
M  V30 3986 H 371.283 3.86459 0.777391 0
M  V30 3987 H 372.571 4.8748 1.4574 0
M  V30 3988 H 371.969 3.59342 4.3691 0
M  V30 3989 H 370.526 4.42997 4.78118 0
M  V30 3990 N 373.959 -0.0401083 1.57549 0
M  V30 3991 C 374.892 -1.07689 2.01192 0
M  V30 3992 C 375.87 -1.358 0.894273 0
M  V30 3993 O 377.054 -1.48642 1.15921 0
M  V30 3994 C 374.181 -2.41418 2.3756 0
M  V30 3995 C 373.227 -2.29237 3.59656 0
M  V30 3996 S 374.06 -1.65628 5.09242 0
M  V30 3997 C 375.216 -3.0087 5.48843 0
M  V30 3998 H 375.449 -0.705108 2.88817 0
M  V30 3999 H 372.982 -0.249724 1.52367 0
M  V30 4000 H 374.94 -3.18329 2.59186 0
M  V30 4001 H 373.601 -2.75747 1.50407 0
M  V30 4002 H 372.794 -3.27932 3.82722 0
M  V30 4003 H 372.396 -1.60469 3.37825 0
M  V30 4004 H 374.688 -3.97201 5.48851 0
M  V30 4005 H 375.631 -2.82549 6.49286 0
M  V30 4006 H 376.039 -3.02934 4.76331 0
M  V30 4007 N 375.437 -1.54477 -0.31217 0
M  V30 4008 C 376.665 -1.77205 -1.068 0
M  V30 4009 C 377.08 -0.526114 -1.81321 0
M  V30 4010 O 376.437 0.503647 -1.75413 0
M  V30 4011 C 376.488 -2.97253 -2.05725 0
M  V30 4012 O 376.209 -4.1703 -1.34228 0
M  V30 4013 C 377.71 -3.32281 -2.93435 0
M  V30 4014 H 374.93 -0.591287 -0.317208 0
M  V30 4015 H 377.474 -2.01398 -0.354834 0
M  V30 4016 H 375.629 -2.753 -2.72559 0
M  V30 4017 H 376.043 -4.84636 -2.00571 0
M  V30 4018 H 377.517 -4.19551 -3.58721 0
M  V30 4019 H 377.994 -2.49945 -3.61143 0
M  V30 4020 H 378.6 -3.56353 -2.32147 0
M  V30 4021 N 376.915 0.57481 -1.46744 0
M  V30 4022 C 377.847 1.69804 -1.53946 0
M  V30 4023 C 378.86 1.57098 -0.427106 0
M  V30 4024 O 380.049 1.64378 -0.695863 0
M  V30 4025 C 377.149 3.08125 -1.4111 0
M  V30 4026 C 376.322 3.46757 -2.66605 0
M  V30 4027 C 375.381 4.6417 -2.47855 0
M  V30 4028 O 374.407 4.69634 -3.21609 0
M  V30 4029 N 375.609 5.59553 -1.54534 0
M  V30 4030 H 378.374 1.64077 -2.50796 0
M  V30 4031 H 375.935 0.761 -1.429 0
M  V30 4032 H 377.927 3.84478 -1.26328 0
M  V30 4033 H 376.497 3.08175 -0.524109 0
M  V30 4034 H 375.717 2.6003 -2.96274 0
M  V30 4035 H 377.005 3.69337 -3.49954 0
M  V30 4036 H 376.403 5.57881 -0.937304 0
M  V30 4037 H 374.96 6.35304 -1.45711 0
M  V30 4038 N 378.394 1.34581 0.820102 0
M  V30 4039 C 379.342 1.26401 1.95258 0
M  V30 4040 C 380.336 0.161553 1.68628 0
M  V30 4041 O 381.542 0.326703 1.7701 0
M  V30 4042 H 377.917 0.392749 0.64129 0
M  V30 4043 H 379.888 2.22105 1.99279 0
M  V30 4044 C 378.637 1.03919 3.31807 0
M  V30 4045 H 377.96 1.87984 3.52848 0
M  V30 4046 H 379.4 1.02232 4.11491 0
M  V30 4047 C 377.859 -0.257433 3.35915 0
M  V30 4048 O 378.389 -1.25784 3.81499 0
M  V30 4049 N 376.595 -0.291524 2.89134 0
M  V30 4050 H 376.142 0.523161 2.52232 0
M  V30 4051 H 376.1 -1.15883 2.92264 0
M  V30 4052 N 379.872 -1.04064 1.18357 0
M  V30 4053 C 381.102 -1.80654 1.00238 0
M  V30 4054 C 381.51 -1.83713 -0.452362 0
M  V30 4055 O 380.853 -1.27135 -1.32599 0
M  V30 4056 C 380.915 -3.27582 1.48088 0
M  V30 4057 C 380.579 -3.48184 2.96002 0
M  V30 4058 C 381.576 -3.39372 3.93856 0
M  V30 4059 C 379.261 -3.7478 3.34433 0
M  V30 4060 C 381.255 -3.5686 5.28138 0
M  V30 4061 C 378.942 -3.91915 4.68877 0
M  V30 4062 C 379.94 -3.82956 5.65539 0
M  V30 4063 O 379.628 -3.996 6.97549 0
M  V30 4064 H 379.36 -0.575751 0.354241 0
M  V30 4065 H 381.914 -1.32044 1.57333 0
M  V30 4066 H 380.144 -3.77161 0.853588 0
M  V30 4067 H 381.833 -3.8573 1.2636 0
M  V30 4068 H 382.599 -3.18789 3.65511 0
M  V30 4069 H 378.478 -3.80852 2.59756 0
M  V30 4070 H 382.022 -3.49783 6.03571 0
M  V30 4071 H 377.919 -4.11992 4.96923 0
M  V30 4072 H 378.687 -4.1676 7.04452 0
M  V30 4073 N 381.35 -0.985608 -1.22978 0
M  V30 4074 C 382.761 -0.693593 -1.73338 0
M  V30 4075 C 383.112 0.789935 -1.79595 0
M  V30 4076 O 382.237 1.61771 -1.43733 0
M  V30 4077 C 382.832 -1.25235 -3.14804 0
M  V30 4078 C 381.391 -1.00987 -3.626 0
M  V30 4079 C 380.538 -1.37695 -2.40698 0
M  V30 4080 H 383.489 -1.15884 -1.08428 0
M  V30 4081 H 383.51 -0.627329 -3.75293 0
M  V30 4082 H 383.022 -2.33209 -3.10218 0
M  V30 4083 H 381.123 0.0535565 -3.72562 0
M  V30 4084 H 381.236 -1.66812 -4.49122 0
M  V30 4085 H 379.6 -0.795459 -2.4196 0
M  V30 4086 H 380.383 -2.46657 -2.38779 0
M  V30 4087 N 382.828 1.3818 -0.7579 0
M  V30 4088 C 384.239 1.82726 -0.383134 0
M  V30 4089 C 384.59 1.63214 1.08884 0
M  V30 4090 O 383.715 1.13566 1.84205 0
M  V30 4091 C 384.31 3.31728 -0.688631 0
M  V30 4092 C 382.869 3.74606 -0.367091 0
M  V30 4093 C 382.016 2.60896 -0.939599 0
M  V30 4094 H 384.967 1.26847 -0.953699 0
M  V30 4095 H 384.988 3.80487 0.0316492 0
M  V30 4096 H 384.5 3.45898 -1.76001 0
M  V30 4097 H 382.601 3.66013 0.697532 0
M  V30 4098 H 382.714 4.71215 -0.865658 0
M  V30 4099 H 381.078 2.52075 -0.3647 0
M  V30 4100 H 381.861 2.77864 -2.0161 0
M  V30 4101 N 384.306 0.507319 1.49211 0
M  V30 4102 C 385.269 -0.256763 2.27757 0
M  V30 4103 C 386.269 -0.888287 1.34038 0
M  V30 4104 O 387.459 -0.751841 1.5714 0
M  V30 4105 C 384.591 -1.36905 3.12202 0
M  V30 4106 H 385.784 0.432557 2.96764 0
M  V30 4107 H 383.337 0.262488 1.5408 0
M  V30 4108 H 384.072 -2.09233 2.47775 0
M  V30 4109 H 383.857 -0.921599 3.81115 0
M  V30 4110 H 385.347 -1.9071 3.7151 0
M  V30 4111 N 385.784 -1.5574 0.241426 0
M  V30 4112 C 387.033 -1.97986 -0.385295 0
M  V30 4113 C 387.346 -1.13267 -1.59468 0
M  V30 4114 O 388.552 -1.45501 -2.2922 0
M  V30 4115 C 387.008 -3.52275 -0.736884 0
M  V30 4116 C 386.616 -4.45726 0.450796 0
M  V30 4117 C 388.36 -4.03189 -1.3281 0
M  V30 4118 C 386.267 -5.91352 0.0756662 0
M  V30 4119 H 385.197 -0.739386 -0.147731 0
M  V30 4120 H 387.848 -1.80308 0.340779 0
M  V30 4121 H 386.23 -3.65628 -1.52094 0
M  V30 4122 H 387.404 -4.44131 1.22819 0
M  V30 4123 H 385.719 -4.05264 0.956573 0
M  V30 4124 H 388.316 -5.09505 -1.62201 0
M  V30 4125 H 388.659 -3.50212 -2.25071 0
M  V30 4126 H 389.192 -3.93141 -0.607069 0
M  V30 4127 H 385.931 -6.48354 0.965272 0
M  V30 4128 H 385.451 -5.96095 -0.665635 0
M  V30 4129 H 387.13 -6.46084 -0.344075 0
M  V30 4130 N 387.262 0.0317525 -1.57568 0
M  V30 4131 C 388.209 1.0332 -2.06382 0
M  V30 4132 C 389.179 1.36082 -0.952414 0
M  V30 4133 O 390.364 1.46466 -1.2228 0
M  V30 4134 C 387.504 2.32989 -2.54578 0
M  V30 4135 C 386.617 2.0641 -3.79498 0
M  V30 4136 C 385.752 3.2993 -4.16317 0
M  V30 4137 C 384.791 2.98893 -5.34162 0
M  V30 4138 N 383.928 4.14857 -5.66426 0
M  V30 4139 H 388.768 0.609982 -2.9169 0
M  V30 4140 H 386.305 0.289573 -1.44222 0
M  V30 4141 H 388.263 3.0875 -2.80587 0
M  V30 4142 H 386.893 2.73039 -1.7219 0
M  V30 4143 H 385.945 1.21158 -3.6059 0
M  V30 4144 H 387.257 1.79513 -4.65378 0
M  V30 4145 H 386.411 4.1406 -4.4344 0
M  V30 4146 H 385.15 3.59938 -3.29083 0
M  V30 4147 H 384.155 2.13164 -5.06795 0
M  V30 4148 H 385.38 2.70165 -6.23047 0
M  V30 4149 H 383.326 4.44821 -4.82151 0
M  V30 4150 H 383.243 3.91374 -6.4681 0
M  V30 4151 H 384.511 4.99868 -5.98124 0
M  V30 4152 N 388.74 1.54641 0.303973 0
M  V30 4153 C 389.97 1.77511 1.05705 0
M  V30 4154 C 390.378 0.533228 1.81531 0
M  V30 4155 O 389.721 -0.506423 1.76582 0
M  V30 4156 C 389.783 2.92779 2.08617 0
M  V30 4157 C 389.447 4.30977 1.52013 0
M  V30 4158 C 390.444 5.11115 0.9517 0
M  V30 4159 C 388.129 4.77571 1.55665 0
M  V30 4160 C 390.123 6.35966 0.427327 0
M  V30 4161 C 387.81 6.02384 1.02841 0
M  V30 4162 C 388.808 6.81417 0.464713 0
M  V30 4163 O 388.496 8.03881 -0.0555283 0
M  V30 4164 H 388.228 0.59579 0.319391 0
M  V30 4165 H 390.782 2.02401 0.349712 0
M  V30 4166 H 389.012 2.63506 2.83022 0
M  V30 4167 H 390.701 3.03252 2.69802 0
M  V30 4168 H 391.467 4.76264 0.916407 0
M  V30 4169 H 387.346 4.16085 1.9848 0
M  V30 4170 H 390.89 6.97599 -0.0133062 0
M  V30 4171 H 386.787 6.36723 1.06084 0
M  V30 4172 H 387.555 8.18479 0.0580522 0
M  V30 4173 N 390.218 -0.567019 1.47046 0
M  V30 4174 C 391.629 -1.14916 1.47143 0
M  V30 4175 C 391.98 -1.94954 0.220767 0
M  V30 4176 O 391.105 -2.05602 -0.67505 0
M  V30 4177 C 391.7 -2.09069 2.666 0
M  V30 4178 C 390.259 -2.62575 2.69687 0
M  V30 4179 C 389.406 -1.38755 2.40088 0
M  V30 4180 H 392.357 -0.354126 1.54699 0
M  V30 4181 H 392.378 -2.92789 2.43011 0
M  V30 4182 H 391.89 -1.50789 3.57609 0
M  V30 4183 H 389.991 -3.24681 1.82792 0
M  V30 4184 H 390.104 -3.04239 3.70102 0
M  V30 4185 H 388.468 -1.69098 1.90468 0
M  V30 4186 H 389.251 -0.822822 3.33293 0
M  V30 4187 N 391.696 -1.35014 -0.812953 0
M  V30 4188 C 392.973 -1.18502 -1.55617 0
M  V30 4189 C 393.353 0.238421 -2.09749 0
M  V30 4190 O 392.701 1.2411 -1.91857 0
M  V30 4191 C 392.911 -2.24783 -2.66971 0
M  V30 4192 C 394.259 -2.60268 -3.35478 0
M  V30 4193 O 395.283 -2.23648 -2.77236 0
M  V30 4194 O 394.142 -3.2321 -4.40678 0
M  V30 4195 H 391.236 -0.459984 -0.687272 0
M  V30 4196 H 393.782 -1.46677 -0.853464 0
M  V30 4197 H 392.554 -3.20284 -2.24798 0
M  V30 4198 H 392.177 -1.97841 -3.44884 0
M  V30 4199 N 393.175 1.03435 -1.18907 0
M  V30 4200 C 394.125 2.09924 -0.889706 0
M  V30 4201 C 395.109 1.60261 0.143216 0
M  V30 4202 O 396.301 1.76892 -0.0617122 0
M  V30 4203 C 393.43 3.40669 -0.424168 0
M  V30 4204 C 392.516 3.97082 -1.48952 0
M  V30 4205 N 392.907 4.27227 -2.70759 0
M  V30 4206 C 391.205 4.25029 -1.35152 0
M  V30 4207 C 391.906 4.7246 -3.39347 0
M  V30 4208 N 390.882 4.7366 -2.66735 0
M  V30 4209 H 394.684 2.31116 -1.81555 0
M  V30 4210 H 392.198 1.21246 -1.08042 0
M  V30 4211 H 394.195 4.16461 -0.191176 0
M  V30 4212 H 392.855 3.20901 0.495263 0
M  V30 4213 H 393.866 4.16678 -3.0757 0
M  V30 4214 H 390.543 4.14554 -0.495126 0
M  V30 4215 H 391.933 5.04751 -4.43481 0
M  V30 4216 N 394.653 0.992116 1.22453 0
M  V30 4217 C 395.583 0.561677 2.26644 0
M  V30 4218 C 396.564 -0.411055 1.65059 0
M  V30 4219 O 397.749 -0.301861 1.9184 0
M  V30 4220 C 394.879 -0.125247 3.47074 0
M  V30 4221 C 393.833 0.765948 4.21091 0
M  V30 4222 C 393.159 -0.0538484 5.34673 0
M  V30 4223 C 394.459 2.06242 4.79856 0
M  V30 4224 H 396.153 1.43259 2.62902 0
M  V30 4225 H 393.699 0.690283 1.26377 0
M  V30 4226 H 395.652 -0.437764 4.1912 0
M  V30 4227 H 394.376 -1.03069 3.0991 0
M  V30 4228 H 393.035 1.0621 3.50878 0
M  V30 4229 H 392.683 -0.960188 4.9375 0
M  V30 4230 H 392.383 0.539415 5.85119 0
M  V30 4231 H 393.907 -0.360477 6.09535 0
M  V30 4232 H 395.321 1.8139 5.43848 0
M  V30 4233 H 393.718 2.60444 5.40638 0
M  V30 4234 H 394.788 2.74167 3.99951 0
M  V30 4235 N 396.131 -1.37776 0.765217 0
M  V30 4236 C 397.081 -2.2768 0.12075 0
M  V30 4237 C 398.065 -1.45778 -0.680988 0
M  V30 4238 O 399.257 -1.684 -0.545033 0
M  V30 4239 C 396.386 -3.34722 -0.762626 0
M  V30 4240 C 395.472 -4.24074 0.0465881 0
M  V30 4241 N 395.863 -4.93939 1.08892 0
M  V30 4242 C 394.161 -4.45643 -0.178418 0
M  V30 4243 C 394.862 -5.59845 1.57951 0
M  V30 4244 N 393.838 -5.36218 0.892797 0
M  V30 4245 H 397.64 -2.79166 0.918889 0
M  V30 4246 H 395.154 -1.50816 0.602353 0
M  V30 4247 H 397.151 -3.98031 -1.24005 0
M  V30 4248 H 395.811 -2.84793 -1.55959 0
M  V30 4249 H 396.822 -4.96572 1.47095 0
M  V30 4250 H 393.499 -4.06599 -0.9478 0
M  V30 4251 H 394.889 -6.25703 2.44838 0
M  V30 4252 N 397.609 -0.515225 -1.4894 0
M  V30 4253 C 398.858 0.0261361 -2.01683 0
M  V30 4254 C 399.171 1.36719 -1.39883 0
M  V30 4255 O 400.377 1.99606 -1.84037 0
M  V30 4256 C 398.833 0.0970111 -3.59769 0
M  V30 4257 C 398.441 -1.23825 -4.30548 0
M  V30 4258 C 400.185 0.587981 -4.20408 0
M  V30 4259 C 398.092 -1.12877 -5.80528 0
M  V30 4260 H 397.022 0.0135398 -0.753878 0
M  V30 4261 H 399.673 -0.656787 -1.71343 0
M  V30 4262 H 398.055 0.844694 -3.86886 0
M  V30 4263 H 399.229 -2.00034 -4.15118 0
M  V30 4264 H 397.544 -1.66379 -3.81716 0
M  V30 4265 H 400.141 0.68763 -5.3026 0
M  V30 4266 H 400.484 1.59026 -3.84729 0
M  V30 4267 H 401.017 -0.103582 -3.97665 0
M  V30 4268 H 397.756 -2.10575 -6.20756 0
M  V30 4269 H 397.276 -0.407799 -5.98412 0
M  V30 4270 H 398.955 -0.813332 -6.41868 0
M  V30 4271 N 399.087 1.5561 -0.249682 0
M  V30 4272 C 400.312 2.03865 0.381305 0
M  V30 4273 C 400.737 1.12769 1.50548 0
M  V30 4274 O 400.095 0.121189 1.80895 0
M  V30 4275 C 400.143 3.50101 0.863816 0
M  V30 4276 O 399.247 3.62132 1.97318 0
M  V30 4277 H 398.588 0.658827 0.0827194 0
M  V30 4278 H 401.118 2.01105 -0.376552 0
M  V30 4279 H 401.128 3.90975 1.1663 0
M  V30 4280 H 399.803 4.1588 0.0411816 0
M  V30 4281 H 398.38 3.33155 1.67517 0
M  V30 4282 N 400.565 -0.0233959 1.57583 0
M  V30 4283 C 401.793 -0.724682 1.93794 0
M  V30 4284 C 402.208 -1.68588 0.849912 0
M  V30 4285 O 401.565 -1.81676 -0.173204 0
M  V30 4286 C 401.616 -1.47684 3.29957 0
M  V30 4287 O 401.337 -0.554222 4.3458 0
M  V30 4288 C 402.838 -2.27477 3.80485 0
M  V30 4289 H 400.058 -0.203317 0.639455 0
M  V30 4290 H 402.602 0.0207653 2.04489 0
M  V30 4291 H 400.757 -2.17412 3.20641 0
M  V30 4292 H 401.171 -1.08232 5.13212 0
M  V30 4293 H 402.645 -2.7564 4.78254 0
M  V30 4294 H 403.122 -3.09144 3.11972 0
M  V30 4295 H 403.728 -1.62813 3.92902 0
M  V30 4296 N 402.043 -1.548 -0.295768 0
M  V30 4297 C 403.268 -1.78653 -1.05346 0
M  V30 4298 C 403.693 -0.546894 -1.79974 0
M  V30 4299 O 403.051 0.502763 -1.7419 0
M  V30 4300 C 403.099 -2.99679 -2.00561 0
M  V30 4301 O 402.203 -2.7317 -3.08953 0
M  V30 4302 H 401.544 -0.59116 -0.302367 0
M  V30 4303 H 404.074 -2.01895 -0.331598 0
M  V30 4304 H 404.084 -3.27793 -2.42932 0
M  V30 4305 H 402.759 -3.89562 -1.4565 0
M  V30 4306 H 401.336 -2.56089 -2.71059 0
M  V30 4307 N 403.521 0.559213 -1.47345 0
M  V30 4308 C 404.932 1.14134 -1.47751 0
M  V30 4309 C 405.283 1.94834 -0.231103 0
M  V30 4310 O 404.408 2.05957 0.664137 0
M  V30 4311 C 405.003 2.07653 -2.67705 0
M  V30 4312 C 403.562 2.61141 -2.71076 0
M  V30 4313 C 402.709 1.3748 -2.40821 0
M  V30 4314 H 405.66 0.345917 -1.54884 0
M  V30 4315 H 405.681 2.91497 -2.44561 0
M  V30 4316 H 405.193 1.4889 -3.58404 0
M  V30 4317 H 403.294 3.23707 -1.84511 0
M  V30 4318 H 403.407 3.02272 -3.7171 0
M  V30 4319 H 401.771 1.68086 -1.91362 0
M  V30 4320 H 402.554 0.805135 -3.33725 0
M  V30 4321 N 404.999 1.35443 0.805782 0
M  V30 4322 C 406.239 1.30127 1.57627 0
M  V30 4323 C 406.603 -0.122567 1.91608 0
M  V30 4324 O 407.804 -0.300107 2.67119 0
M  V30 4325 C 406.075 2.18314 2.82973 0
M  V30 4326 S 407.634 2.30521 3.7337 0
M  V30 4327 H 404.452 0.462439 0.540066 0
M  V30 4328 H 407.054 1.70843 0.95042 0
M  V30 4329 H 405.758 3.20741 2.56034 0
M  V30 4330 H 405.289 1.78558 3.50543 0
M  V30 4331 H 407.304 1.49062 4.73281 0
M  V30 4332 O 406.516 -0.944775 1.30982 0
M  V30 4333 H 407.207 -1.57432 1.12848 0
M  V30 END ATOM
M  V30 BEGIN BOND
M  V30 END BOND
M  V30 END CTAB
M  END
$$$$
