drugbank_target|P63096 Guanine nucleotide-binding protein G(i) subunit alpha-1 (DB04315; DB04444)
 OpenBabel12092120543D

  0  0  0     0  0            999 V3000
M  V30 BEGIN CTAB
M  V30 COUNTS 5643 5690 0 0 0
M  V30 BEGIN ATOM
M  V30 1 H -0.908 1.98254 -0.117106 0
M  V30 2 N 0 1.576 0 0
M  V30 3 C 0.933 2.03868 1.02534 0
M  V30 4 C 1.911 0.928543 1.3348 0
M  V30 5 O 3.095 1.19667 1.45644 0
M  V30 6 C 0.222 2.43627 2.35294 0
M  V30 7 C -0.732 3.65373 2.2001 0
M  V30 8 S 0.101 5.13292 1.52614 0
M  V30 9 C 1.257 5.56322 2.86805 0
M  V30 10 H 1.49 2.90518 0.631377 0
M  V30 11 H -0.977 1.52953 0.210867 0
M  V30 12 H 0.981 2.67203 3.11629 0
M  V30 13 H -0.358 1.57376 2.7183 0
M  V30 14 H -1.165 3.90944 3.18086 0
M  V30 15 H -1.563 3.418 1.51819 0
M  V30 16 H 0.729 5.58782 3.83104 0
M  V30 17 H 1.672 6.56266 2.65933 0
M  V30 18 H 2.08 4.83886 2.90714 0
M  V30 19 N 1.4781 -0.272755 1.55222 0
M  V30 20 C 2.7261 -1.00234 1.75492 0
M  V30 21 C 3.0471 -1.8681 0.5592 0
M  V30 22 O 2.3171 -1.91215 -0.425882 0
M  V30 23 H 0.8971 -0.373076 0.647166 0
M  V30 24 H 3.5591 -0.296926 1.92625 0
M  V30 25 H 2.6551 -1.63913 2.65592 0
M  V30 26 N 2.9562 -1.48159 -0.537278 0
M  V30 27 C 4.1962 -1.57397 -1.30405 0
M  V30 28 C 4.5602 -0.239202 -1.90504 0
M  V30 29 O 5.7612 -0.206528 -2.68005 0
M  V30 30 C 4.0322 -2.6754 -2.36974 0
M  V30 31 S 5.5912 -2.96496 -3.23475 0
M  V30 32 H 2.4092 -0.555577 -0.443684 0
M  V30 33 H 5.0112 -1.85644 -0.612912 0
M  V30 34 H 3.7152 -3.63092 -1.91291 0
M  V30 35 H 3.2462 -2.41172 -3.10805 0
M  V30 36 H 5.2612 -2.35234 -4.36897 0
M  V30 37 N 4.4343 0.785586 -1.36625 0
M  V30 38 C 5.6623 1.57448 -1.3423 0
M  V30 39 C 6.0773 1.88649 0.0755653 0
M  V30 40 O 5.4343 1.50414 1.03354 0
M  V30 41 C 5.4853 2.89316 -2.16745 0
M  V30 42 O 5.2063 2.59459 -3.53005 0
M  V30 43 C 6.7073 3.83606 -2.22174 0
M  V30 44 H 3.9273 0.488226 -0.4603 0
M  V30 45 H 6.4713 0.974733 -1.79775 0
M  V30 46 H 4.6263 3.4575 -1.74745 0
M  V30 47 H 5.0403 3.43804 -3.96105 0
M  V30 48 H 6.5143 4.73181 -2.8426 0
M  V30 49 H 6.9913 4.21734 -1.22627 0
M  V30 50 H 7.5973 3.33104 -2.64427 0
M  V30 51 N 5.9124 1.20967 1.01018 0
M  V30 52 C 6.8424 0.988272 2.11555 0
M  V30 53 C 7.8234 -0.0849778 1.69888 0
M  V30 54 O 9.0084 0.0738202 1.9406 0
M  V30 55 C 6.1384 0.546528 3.42973 0
M  V30 56 C 5.0924 1.56375 3.9841 0
M  V30 57 C 4.4184 0.97842 5.25672 0
M  V30 58 C 5.7184 2.94922 4.31066 0
M  V30 59 H 7.4124 1.91276 2.30334 0
M  V30 60 H 4.9584 0.921073 1.1069 0
M  V30 61 H 6.9114 0.378839 4.19694 0
M  V30 62 H 5.6354 -0.413598 3.23971 0
M  V30 63 H 4.2944 1.71891 3.23804 0
M  V30 64 H 3.9424 0.0101688 5.02999 0
M  V30 65 H 3.6424 1.65784 5.63728 0
M  V30 66 H 5.1664 0.821939 6.05043 0
M  V30 67 H 6.5804 2.8288 4.9865 0
M  V30 68 H 4.9774 3.5983 4.80253 0
M  V30 69 H 6.0474 3.4616 3.39561 0
M  V30 70 N 7.3905 -1.2043 1.01659 0
M  V30 71 C 8.6155 -1.94318 0.724942 0
M  V30 72 C 9.0405 -1.74266 -0.708034 0
M  V30 73 O 8.3985 -1.03694 -1.48719 0
M  V30 74 C 8.4465 -3.44486 1.06591 0
M  V30 75 O 7.5505 -4.12017 0.177599 0
M  V30 76 H 6.8915 -0.60708 0.26898 0
M  V30 77 H 9.4215 -1.52861 1.35995 0
M  V30 78 H 9.4315 -3.95106 1.01762 0
M  V30 79 H 8.1065 -3.58404 2.10997 0
M  V30 80 H 6.6835 -3.71821 0.283421 0
M  V30 81 N 8.8686 -0.792821 -1.36206 0
M  V30 82 C 9.8316 -0.199459 -2.2833 0
M  V30 83 C 10.8316 0.605189 -1.48977 0
M  V30 84 O 12.0216 0.425685 -1.68919 0
M  V30 85 C 9.1536 0.723523 -3.33134 0
M  V30 86 H 10.3466 -1.01181 -2.82316 0
M  V30 87 H 7.8996 -0.562485 -1.45828 0
M  V30 88 H 8.6346 1.56008 -2.84309 0
M  V30 89 H 8.4196 0.148436 -3.91819 0
M  V30 90 H 9.9096 1.13344 -4.01924 0
M  V30 91 N 10.3467 1.47872 -0.545128 0
M  V30 92 C 11.2567 2.33633 0.212746 0
M  V30 93 C 12.2727 1.4744 0.923983 0
M  V30 94 O 13.4487 1.80393 0.895572 0
M  V30 95 C 10.5137 3.23884 1.23693 0
M  V30 96 C 9.5747 4.25961 0.534417 0
M  V30 97 C 8.8077 5.11899 1.5098 0
M  V30 98 O 9.0307 5.00077 2.7437 0
M  V30 99 O 7.9647 5.92831 1.0409 0
M  V30 100 H 11.7907 2.99714 -0.490416 0
M  V30 101 H 9.3757 1.46235 -0.305871 0
M  V30 102 H 11.2577 3.79666 1.82843 0
M  V30 103 H 9.9327 2.60446 1.92222 0
M  V30 104 H 8.8397 3.73972 -0.0979679 0
M  V30 105 H 10.1727 4.92079 -0.109213 0
M  V30 106 N 11.8248 0.280983 1.55075 0
M  V30 107 C 13.1018 -0.386207 1.91749 0
M  V30 108 C 13.4818 -1.73264 1.20594 0
M  V30 109 O 12.8298 -2.26034 0.334784 0
M  V30 110 C 13.0398 -0.520687 3.45094 0
M  V30 111 C 14.3878 -0.800865 4.16979 0
M  V30 112 O 15.4118 -0.605271 3.5102 0
M  V30 113 O 14.2708 -1.1753 5.33712 0
M  V30 114 H 11.3648 -0.212408 0.799257 0
M  V30 115 H 13.9108 0.327568 1.66509 0
M  V30 116 H 12.6828 0.426633 3.88967 0
M  V30 117 H 12.3058 -1.2837 3.76307 0
M  V30 118 N 13.3029 -1.57598 0.00835791 0
M  V30 119 C 14.2499 -2.08945 -0.980346 0
M  V30 120 C 15.2199 -0.986738 -1.33614 0
M  V30 121 O 16.4049 -1.25968 -1.43306 0
M  V30 122 C 13.5449 -2.60425 -2.26435 0
M  V30 123 C 12.6579 -3.84628 -1.96685 0
M  V30 124 C 11.7929 -4.24579 -3.19228 0
M  V30 125 C 10.8319 -5.41596 -2.85202 0
M  V30 126 N 9.9689 -5.768 -4.00307 0
M  V30 127 H 14.8089 -2.93148 -0.535551 0
M  V30 128 H 12.3459 -1.44912 -0.252776 0
M  V30 129 H 14.3039 -2.88354 -3.01509 0
M  V30 130 H 12.9339 -1.79083 -2.68568 0
M  V30 131 H 11.9859 -3.63556 -1.11942 0
M  V30 132 H 13.2979 -4.69796 -1.67611 0
M  V30 133 H 12.4519 -4.53834 -4.02641 0
M  V30 134 H 11.1909 -3.38137 -3.51447 0
M  V30 135 H 10.1959 -5.12056 -2.00198 0
M  V30 136 H 11.4209 -6.29721 -2.54222 0
M  V30 137 H 9.3669 -4.93316 -4.32407 0
M  V30 138 H 9.2839 -6.5656 -3.74786 0
M  V30 139 H 10.5519 -6.10652 -4.84484 0
M  V30 140 N 14.781 0.264519 -1.55364 0
M  V30 141 C 15.744 1.31046 -1.88042 0
M  V30 142 C 16.744 1.41943 -0.755569 0
M  V30 143 O 17.934 1.40947 -1.02369 0
M  V30 144 C 15.066 2.69067 -2.09323 0
M  V30 145 H 16.259 1.03297 -2.81549 0
M  V30 146 H 13.812 0.502989 -1.47986 0
M  V30 147 H 14.547 3.01982 -1.18226 0
M  V30 148 H 14.332 2.62542 -2.91229 0
M  V30 149 H 15.822 3.44623 -2.35848 0
M  V30 150 N 16.2591 1.48442 0.529413 0
M  V30 151 C 17.2221 1.62524 1.61612 0
M  V30 152 C 18.2221 0.498509 1.52877 0
M  V30 153 O 19.4121 0.76431 1.56537 0
M  V30 154 C 16.5441 1.59597 3.01233 0
M  V30 155 H 17.7371 2.59423 1.50465 0
M  V30 156 H 15.2901 1.37047 0.751514 0
M  V30 157 H 16.0251 0.641781 3.17886 0
M  V30 158 H 15.8101 2.41397 3.08982 0
M  V30 159 H 17.3001 1.72646 3.80241 0
M  V30 160 N 17.7372 -0.778329 1.37039 0
M  V30 161 C 18.9832 -1.53892 1.32079 0
M  V30 162 C 19.3162 -1.9396 -0.0965386 0
M  V30 163 O 18.5912 -1.63568 -1.05242 0
M  V30 164 C 18.8742 -2.80847 2.25382 0
M  V30 165 C 18.7272 -2.47076 3.75864 0
M  V30 166 C 20.0462 -3.82741 2.1725 0
M  V30 167 H 17.1652 -0.558303 0.48111 0
M  V30 168 H 19.8072 -0.893397 1.67685 0
M  V30 169 H 17.9572 -3.35931 1.95148 0
M  V30 170 H 19.6292 -1.97957 4.16666 0
M  V30 171 H 17.8722 -1.79863 3.94755 0
M  V30 172 H 18.5432 -3.37798 4.36574 0
M  V30 173 H 21.0192 -3.37133 2.43887 0
M  V30 174 H 19.8952 -4.69303 2.84686 0
M  V30 175 H 20.1562 -4.2652 1.16331 0
M  V30 176 N 19.2153 -1.21501 -1.00376 0
M  V30 177 C 20.1253 -0.991447 -2.12621 0
M  V30 178 C 21.1413 0.0568446 -1.73907 0
M  V30 179 O 22.3173 -0.13348 -2.00957 0
M  V30 180 C 19.3823 -0.560312 -3.42142 0
M  V30 181 C 18.4433 -1.68096 -3.95022 0
M  V30 182 C 17.6763 -1.2703 -5.18362 0
M  V30 183 O 17.8993 -0.144438 -5.70217 0
M  V30 184 O 16.8333 -2.08269 -5.64719 0
M  V30 185 H 20.6593 -1.93158 -2.34358 0
M  V30 186 H 18.2443 -0.999999 -1.10997 0
M  V30 187 H 20.1263 -0.329724 -4.20108 0
M  V30 188 H 18.8013 0.351089 -3.2179 0
M  V30 189 H 17.7083 -1.96597 -3.18278 0
M  V30 190 H 19.0413 -2.56983 -4.19786 0
M  V30 191 N 20.6934 1.19889 -1.02296 0
M  V30 192 C 22.1094 1.41462 -0.738954 0
M  V30 193 C 22.3094 1.89721 0.678846 0
M  V30 194 O 21.3654 2.07016 1.4457 0
M  V30 195 C 22.6784 2.43083 -1.77005 0
M  V30 196 C 24.2264 2.5684 -1.78892 0
M  V30 197 C 24.7014 3.61709 -2.80945 0
M  V30 198 N 26.1924 3.69199 -2.79725 0
M  V30 199 C 26.9274 4.50019 -3.55345 0
M  V30 200 N 26.4234 5.34592 -4.40662 0
M  V30 201 N 28.2164 4.44612 -3.43914 0
M  V30 202 H 20.3674 0.868827 -1.93817 0
M  V30 203 H 22.6304 0.44399 -0.837602 0
M  V30 204 H 22.3364 2.14636 -2.78612 0
M  V30 205 H 22.2104 3.4217 -1.58744 0
M  V30 206 H 24.5974 2.84614 -0.779674 0
M  V30 207 H 24.6784 1.57927 -2.01228 0
M  V30 208 H 24.3224 3.34678 -3.82038 0
M  V30 209 H 24.2524 4.60259 -2.5587 0
M  V30 210 H 26.7434 3.08794 -2.17842 0
M  V30 211 H 27.0564 5.93363 -4.95116 0
M  V30 212 H 25.4014 5.34073 -4.44737 0
M  V30 213 H 28.5924 3.7758 -2.76679 0
M  V30 214 H 28.7654 5.0736 -4.031 0
M  V30 215 N 22.1715 0.800033 1.35784 0
M  V30 216 C 23.3965 0.388511 2.03729 0
M  V30 217 C 23.8215 -0.990481 1.5991 0
M  V30 218 O 23.1795 -1.64013 0.772612 0
M  V30 219 C 23.2275 0.4726 3.5749 0
M  V30 220 O 22.3315 -0.51646 4.09153 0
M  V30 221 H 21.6725 0.163271 0.643614 0
M  V30 222 H 24.2025 1.0841 1.73518 0
M  V30 223 H 24.2125 0.34003 4.06581 0
M  V30 224 H 22.8875 1.47848 3.88734 0
M  V30 225 H 21.4645 -0.344673 3.71304 0
M  V30 226 N 23.6496 -1.47581 0.552962 0
M  V30 227 C 24.5966 -2.29957 -0.197108 0
M  V30 228 C 25.5666 -1.38799 -0.912359 0
M  V30 229 O 26.7516 -1.67761 -0.908888 0
M  V30 230 C 23.8916 -3.22672 -1.22379 0
M  V30 231 C 23.0046 -4.28919 -0.515038 0
M  V30 232 C 22.1396 -5.0879 -1.52664 0
M  V30 233 C 21.1786 -6.06815 -0.802631 0
M  V30 234 N 20.3156 -6.7966 -1.76086 0
M  V30 235 H 25.1556 -2.93578 0.511486 0
M  V30 236 H 22.6926 -1.4471 0.264067 0
M  V30 237 H 24.6506 -3.74845 -1.83159 0
M  V30 238 H 23.2806 -2.60925 -1.90047 0
M  V30 239 H 22.3326 -3.79835 0.207192 0
M  V30 240 H 23.6446 -4.98773 0.0523425 0
M  V30 241 H 22.7986 -5.65091 -2.20809 0
M  V30 242 H 21.5376 -4.38828 -2.12794 0
M  V30 243 H 20.5426 -5.49695 -0.107238 0
M  V30 244 H 21.7676 -6.78784 -0.207135 0
M  V30 245 H 19.7136 -6.12432 -2.35081 0
M  V30 246 H 19.6306 -7.45669 -1.24552 0
M  V30 247 H 20.8986 -7.40538 -2.43359 0
M  V30 248 N 25.1277 -0.289203 -1.54924 0
M  V30 249 C 26.0607 0.633823 -2.19221 0
M  V30 250 C 27.0387 1.14174 -1.15772 0
M  V30 251 O 28.2227 1.21211 -1.44361 0
M  V30 252 C 25.3497 1.86592 -2.82668 0
M  V30 253 C 24.3957 1.49227 -3.99542 0
M  V30 254 S 25.2287 0.558312 -5.32582 0
M  V30 255 C 26.3847 1.79847 -5.99505 0
M  V30 256 H 26.6177 0.0875416 -2.97171 0
M  V30 257 H 24.1507 -0.0733899 -1.54225 0
M  V30 258 H 26.1087 2.57305 -3.19851 0
M  V30 259 H 24.7697 2.38335 -2.04585 0
M  V30 260 H 23.9627 2.40945 -4.42676 0
M  V30 261 H 23.5647 0.865193 -3.63855 0
M  V30 262 H 25.8567 2.7406 -6.19595 0
M  V30 263 H 26.7997 1.4099 -6.93922 0
M  V30 264 H 27.2077 1.96982 -5.29016 0
M  V30 265 N 26.6058 1.57591 -0.0167156 0
M  V30 266 C 27.8548 1.90461 0.663877 0
M  V30 267 C 28.1678 0.893515 1.73999 0
M  V30 268 O 29.3738 1.11302 2.47637 0
M  V30 269 C 27.8298 3.38155 1.23204 0
M  V30 270 C 27.4378 4.47597 0.189866 0
M  V30 271 C 29.1818 3.80111 1.88986 0
M  V30 272 C 27.0888 5.86379 0.768964 0
M  V30 273 H 26.0188 0.710738 0.251729 0
M  V30 274 H 28.6698 1.83326 -0.0799926 0
M  V30 275 H 27.0518 3.40182 2.02712 0
M  V30 276 H 28.2258 4.57112 -0.581846 0
M  V30 277 H 26.5408 4.14766 -0.368475 0
M  V30 278 H 29.1378 4.81145 2.33247 0
M  V30 279 H 29.4808 3.14511 2.72743 0
M  V30 280 H 30.0138 3.80454 1.16187 0
M  V30 281 H 26.7528 6.55493 -0.0301957 0
M  V30 282 H 26.2728 5.80496 1.50945 0
M  V30 283 H 27.9518 6.34563 1.26251 0
M  V30 284 N 28.0839 -0.256276 1.55502 0
M  V30 285 C 29.3609 -1.00789 1.67633 0
M  V30 286 C 29.7409 -2.03706 0.553826 0
M  V30 287 O 29.0889 -2.24145 -0.443969 0
M  V30 288 C 29.2989 -1.64968 3.07549 0
M  V30 289 C 30.6469 -2.15505 3.65845 0
M  V30 290 O 31.6709 -1.74925 3.1029 0
M  V30 291 O 30.5299 -2.89986 4.63217 0
M  V30 292 H 27.6239 -0.468553 0.681459 0
M  V30 293 H 30.1699 -0.250806 1.67836 0
M  V30 294 H 28.9419 -0.904785 3.80696 0
M  V30 295 H 28.5649 -2.47321 3.11317 0
M  V30 296 N 29.562 -1.4872 -0.521534 0
M  V30 297 C 30.978 -1.35028 -0.850855 0
M  V30 298 C 31.178 -0.367712 -1.98116 0
M  V30 299 O 30.234 0.208037 -2.51642 0
M  V30 300 C 31.547 -2.75263 -1.21041 0
M  V30 301 C 33.095 -2.83813 -1.31981 0
M  V30 302 C 33.57 -4.24769 -1.71276 0
M  V30 303 N 35.061 -4.27482 -1.78363 0
M  V30 304 C 35.796 -5.33494 -2.1017 0
M  V30 305 N 35.292 -6.49775 -2.40343 0
M  V30 306 N 37.085 -5.20894 -2.11248 0
M  V30 307 H 29.236 -2.11214 0.22413 0
M  V30 308 H 31.499 -0.947252 0.0376439 0
M  V30 309 H 31.205 -3.48765 -0.453415 0
M  V30 310 H 31.079 -3.09327 -2.15863 0
M  V30 311 H 33.466 -2.10561 -2.06756 0
M  V30 312 H 33.547 -2.53358 -0.352596 0
M  V30 313 H 33.191 -4.9854 -0.970588 0
M  V30 314 H 33.121 -4.52673 -2.69062 0
M  V30 315 H 35.612 -3.43611 -1.57288 0
M  V30 316 H 35.925 -7.26402 -2.63743 0
M  V30 317 H 34.27 -6.53035 -2.37844 0
M  V30 318 H 37.461 -4.29065 -1.87139 0
M  V30 319 H 37.634 -6.03612 -2.35704 0
M  V30 320 N 31.0401 0.771051 -1.3745 0
M  V30 321 C 31.9881 1.90574 -1.33358 0
M  V30 322 C 32.9821 1.67936 -0.22224 0
M  V30 323 O 34.1881 1.75717 -0.390304 0
M  V30 324 H 30.5631 0.626714 -0.415612 0
M  V30 325 H 32.5341 1.91142 -2.29144 0
M  V30 326 C 31.2831 3.27845 -1.15813 0
M  V30 327 H 30.6061 3.45842 -2.00583 0
M  V30 328 H 32.0461 4.07538 -1.17 0
M  V30 329 C 30.5051 3.36625 0.136165 0
M  V30 330 O 31.0351 3.85785 1.11949 0
M  V30 331 N 29.2411 2.89997 0.187099 0
M  V30 332 H 28.7881 2.50182 -0.613753 0
M  V30 333 H 28.7461 2.96252 1.05272 0
M  V30 334 N 32.5182 1.22032 0.997298 0
M  V30 335 C 33.4482 1.01065 2.10495 0
M  V30 336 C 34.4292 -0.0669542 1.69968 0
M  V30 337 O 35.6142 0.0943987 1.9397 0
M  V30 338 C 32.7442 0.582874 3.42374 0
M  V30 339 C 31.6982 1.60592 3.96729 0
M  V30 340 C 31.0242 1.03412 5.24605 0
M  V30 341 C 32.3242 2.99478 4.27914 0
M  V30 342 H 34.0182 1.93708 2.28292 0
M  V30 343 H 31.5642 0.932761 1.09707 0
M  V30 344 H 33.5172 0.423332 4.19268 0
M  V30 345 H 32.2412 -0.379213 3.24391 0
M  V30 346 H 30.9002 1.75316 3.21963 0
M  V30 347 H 30.5482 0.063518 5.0296 0
M  V30 348 H 30.2482 1.71754 5.61938 0
M  V30 349 H 31.7722 0.886066 6.04137 0
M  V30 350 H 33.1862 2.88153 4.95622 0
M  V30 351 H 31.5832 3.64903 4.76409 0
M  V30 352 H 32.6532 3.49742 3.3587 0
M  V30 353 N 33.9963 -1.19345 1.0293 0
M  V30 354 C 35.4123 -1.41069 0.746446 0
M  V30 355 C 35.6123 -1.90078 -0.668776 0
M  V30 356 O 34.6683 -2.0778 -1.4347 0
M  V30 357 C 35.9813 -2.42141 1.78292 0
M  V30 358 C 37.5293 -2.55887 1.80252 0
M  V30 359 C 38.0043 -3.60214 2.8286 0
M  V30 360 N 39.4953 -3.67711 2.81679 0
M  V30 361 C 40.2303 -4.48128 3.57727 0
M  V30 362 N 39.7263 -5.32248 4.43491 0
M  V30 363 N 41.5193 -4.42782 3.46267 0
M  V30 364 H 33.6703 -0.858536 1.94275 0
M  V30 365 H 35.9333 -0.439541 0.839945 0
M  V30 366 H 35.6393 -2.13155 2.79746 0
M  V30 367 H 35.5133 -3.41323 1.60557 0
M  V30 368 H 37.9003 -2.84196 0.794757 0
M  V30 369 H 37.9813 -1.56858 2.02062 0
M  V30 370 H 37.6253 -3.32647 3.83807 0
M  V30 371 H 37.5553 -4.58895 2.58307 0
M  V30 372 H 40.0463 -3.07634 2.19476 0
M  V30 373 H 40.3593 -5.90729 4.98256 0
M  V30 374 H 38.7043 -5.31707 4.47564 0
M  V30 375 H 41.8953 -3.76107 2.78677 0
M  V30 376 H 42.0683 -5.05215 4.05785 0
M  V30 377 N 35.4744 -0.807222 -1.35358 0
M  V30 378 C 36.3844 -0.219594 -2.3357 0
M  V30 379 C 37.4004 0.637734 -1.61892 0
M  V30 380 O 38.5764 0.549336 -1.93763 0
M  V30 381 C 35.6414 0.62158 -3.41083 0
M  V30 382 C 34.7024 -0.256315 -4.28534 0
M  V30 383 C 33.9354 0.544807 -5.30912 0
M  V30 384 O 34.1584 1.77944 -5.41934 0
M  V30 385 O 33.0924 -0.0646478 -6.01865 0
M  V30 386 H 36.9184 -1.03208 -2.85625 0
M  V30 387 H 34.5034 -0.569025 -1.38139 0
M  V30 388 H 36.3854 1.10067 -4.06772 0
M  V30 389 H 35.0604 1.41165 -2.91297 0
M  V30 390 H 33.9674 -0.782559 -3.65823 0
M  V30 391 H 35.3004 -1.01034 -4.81719 0
M  V30 392 N 36.9525 1.47285 -0.560781 0
M  V30 393 C 38.2295 1.9558 0.0277798 0
M  V30 394 C 38.6095 1.5034 1.48192 0
M  V30 395 O 37.9575 0.743882 2.16052 0
M  V30 396 C 38.1675 3.48789 -0.121418 0
M  V30 397 C 39.5155 4.24594 0.0220912 0
M  V30 398 O 40.5395 3.56166 -0.0491439 0
M  V30 399 O 39.3985 5.46217 0.175958 0
M  V30 400 H 36.4925 0.824663 0.0621342 0
M  V30 401 H 39.0385 1.5767 -0.627556 0
M  V30 402 H 37.8105 3.74533 -1.13316 0
M  V30 403 H 37.4335 3.93473 0.571366 0
M  V30 404 N 38.4306 0.297415 1.54768 0
M  V30 405 C 39.6786 -0.312295 1.99673 0
M  V30 406 C 39.9996 -1.54686 1.18732 0
M  V30 407 O 39.2696 -1.93854 0.282382 0
M  V30 408 H 37.8496 -0.118381 0.73756 0
M  V30 409 H 40.5116 0.407915 1.90583 0
M  V30 410 H 39.6076 -0.586813 3.06534 0
M  V30 411 N 39.9087 -1.5758 0.0250728 0
M  V30 412 C 40.8187 -2.1343 -0.973905 0
M  V30 413 C 41.8347 -1.08556 -1.35984 0
M  V30 414 O 43.0107 -1.40592 -1.44207 0
M  V30 415 C 40.0757 -2.64703 -2.23904 0
M  V30 416 C 39.1367 -3.84276 -1.91391 0
M  V30 417 C 38.3697 -4.33095 -3.11873 0
M  V30 418 O 38.5927 -3.81107 -4.24398 0
M  V30 419 O 37.5267 -5.24984 -2.94406 0
M  V30 420 H 41.3527 -2.99057 -0.529036 0
M  V30 421 H 38.9377 -1.48118 -0.195288 0
M  V30 422 H 40.8197 -2.97769 -2.98181 0
M  V30 423 H 39.4947 -1.82161 -2.6758 0
M  V30 424 H 38.4017 -3.56143 -1.14511 0
M  V30 425 H 39.7347 -4.67968 -1.52534 0
M  V30 426 N 41.3868 0.248026 -1.55636 0
M  V30 427 C 42.3338 1.30707 -1.90222 0
M  V30 428 C 43.3038 1.47881 -0.756332 0
M  V30 429 O 44.4888 1.61883 -1.00988 0
M  V30 430 C 41.6288 2.65769 -2.20138 0
M  V30 431 C 40.7418 2.56612 -3.47526 0
M  V30 432 C 39.8768 3.8402 -3.67017 0
M  V30 433 C 38.9158 3.69476 -4.8801 0
M  V30 434 N 38.0528 4.88774 -5.04029 0
M  V30 435 H 42.8928 1.00512 -2.80538 0
M  V30 436 H 40.4298 0.485055 -1.38873 0
M  V30 437 H 42.3878 3.44386 -2.35487 0
M  V30 438 H 41.0178 2.94115 -1.33027 0
M  V30 439 H 40.0698 1.69571 -3.40514 0
M  V30 440 H 41.3818 2.41774 -4.36287 0
M  V30 441 H 40.5358 4.7108 -3.8232 0
M  V30 442 H 39.2748 4.01754 -2.76487 0
M  V30 443 H 38.2798 2.80799 -4.72686 0
M  V30 444 H 39.5048 3.53238 -5.8 0
M  V30 445 H 37.4508 5.0687 -4.16435 0
M  V30 446 H 37.3678 4.76562 -5.86877 0
M  V30 447 H 38.6358 5.77335 -5.23741 0
M  V30 448 N 42.8649 1.48995 0.513639 0
M  V30 449 C 43.8279 1.64229 1.59879 0
M  V30 450 C 44.8279 0.514696 1.5234 0
M  V30 451 O 46.0179 0.78087 1.55718 0
M  V30 452 C 43.1499 1.62783 2.99524 0
M  V30 453 H 44.3429 2.61004 1.47705 0
M  V30 454 H 41.8959 1.37837 0.736936 0
M  V30 455 H 42.6309 0.675461 3.17188 0
M  V30 456 H 42.4159 2.4466 3.06404 0
M  V30 457 H 43.9059 1.76669 3.78388 0
M  V30 458 N 44.343 -0.763751 1.37857 0
M  V30 459 C 45.306 -1.85889 1.34081 0
M  V30 460 C 46.306 -1.58949 0.243277 0
M  V30 461 O 47.496 -1.66882 0.499589 0
M  V30 462 C 44.628 -3.23176 1.08489 0
M  V30 463 H 45.821 -1.90648 2.31502 0
M  V30 464 H 43.374 -0.964367 1.23003 0
M  V30 465 H 44.109 -3.24091 0.116318 0
M  V30 466 H 43.894 -3.44124 1.8794 0
M  V30 467 H 45.384 -4.03254 1.08517 0
M  V30 468 N 45.8211 -1.22559 -0.990812 0
M  V30 469 C 47.2371 -0.985996 -1.255 0
M  V30 470 C 47.4371 0.319173 -1.98956 0
M  V30 471 O 46.4931 1.04127 -2.3003 0
M  V30 472 C 47.8061 -2.18607 -2.06474 0
M  V30 473 C 49.3541 -2.22985 -2.19651 0
M  V30 474 C 49.8291 -3.4255 -3.04012 0
M  V30 475 N 51.3201 -3.42725 -3.11599 0
M  V30 476 C 52.0551 -4.31892 -3.7717 0
M  V30 477 N 51.5511 -5.31279 -4.44651 0
M  V30 478 N 53.3441 -4.19662 -3.73952 0
M  V30 479 H 45.4951 -2.06469 -0.49841 0
M  V30 480 H 47.7581 -0.904853 -0.282747 0
M  V30 481 H 47.4641 -3.13267 -1.59865 0
M  V30 482 H 47.3381 -2.18838 -3.07229 0
M  V30 483 H 49.7251 -1.28871 -2.65474 0
M  V30 484 H 49.8061 -2.26791 -1.18319 0
M  V30 485 H 49.4501 -4.36965 -2.58889 0
M  V30 486 H 49.3801 -3.35984 -4.0549 0
M  V30 487 H 51.8711 -2.70807 -2.63575 0
M  V30 488 H 52.1841 -5.95593 -4.92431 0
M  V30 489 H 50.5291 -5.3519 -4.43392 0
M  V30 490 H 53.7201 -3.41268 -3.20396 0
M  V30 491 H 53.8931 -4.89358 -4.24774 0
M  V30 492 N 47.2992 1.18797 -1.03562 0
M  V30 493 C 48.2092 2.25913 -0.632505 0
M  V30 494 C 49.2252 1.70668 0.338882 0
M  V30 495 O 50.4012 2.00453 0.195076 0
M  V30 496 C 47.4662 3.467 0.00350942 0
M  V30 497 C 46.5272 4.17098 -1.01624 0
M  V30 498 C 45.7602 5.32119 -0.410478 0
M  V30 499 O 45.9832 5.64976 0.784725 0
M  V30 500 O 44.9172 5.9107 -1.13667 0
M  V30 501 H 48.7432 2.62648 -1.52478 0
M  V30 502 H 46.3282 1.25781 -0.806195 0
M  V30 503 H 48.2102 4.19878 0.35781 0
M  V30 504 H 46.8852 3.11798 0.869686 0
M  V30 505 H 45.7922 3.4601 -1.42224 0
M  V30 506 H 47.1252 4.55987 -1.85301 0
M  V30 507 N 48.7773 0.814389 1.34928 0
M  V30 508 C 50.0233 0.399013 1.98836 0
M  V30 509 C 50.3563 -1.03314 1.64438 0
M  V30 510 O 49.6313 -1.71811 0.911659 0
M  V30 511 C 49.9143 0.591629 3.55207 0
M  V30 512 C 49.7673 2.06928 3.99376 0
M  V30 513 C 51.0863 0.022199 4.40094 0
M  V30 514 H 48.2053 0.146451 0.722303 0
M  V30 515 H 50.8473 1.02537 1.59957 0
M  V30 516 H 48.9973 0.0584441 3.88456 0
M  V30 517 H 50.6693 2.66544 3.76499 0
M  V30 518 H 48.9123 2.56287 3.49999 0
M  V30 519 H 49.5833 2.1549 5.08201 0
M  V30 520 H 52.0593 0.477643 4.13349 0
M  V30 521 H 50.9353 0.186832 5.48582 0
M  V30 522 H 51.1963 -1.07215 4.28902 0
M  V30 523 N 50.2554 -1.46986 0.568584 0
M  V30 524 C 51.2024 -2.30153 -0.172707 0
M  V30 525 C 52.1724 -1.39759 -0.897586 0
M  V30 526 O 53.3574 -1.68716 -0.891044 0
M  V30 527 C 50.4974 -3.23952 -1.1895 0
M  V30 528 C 49.6104 -4.29441 -0.469517 0
M  V30 529 C 48.7454 -5.1038 -1.47259 0
M  V30 530 C 47.7844 -6.07632 -0.738225 0
M  V30 531 N 46.9214 -6.8149 -1.68868 0
M  V30 532 H 51.7614 -2.93019 0.542596 0
M  V30 533 H 49.2984 -1.44422 0.279401 0
M  V30 534 H 51.2564 -3.76767 -1.79173 0
M  V30 535 H 49.8864 -2.62926 -1.87269 0
M  V30 536 H 48.9384 -3.79594 0.247467 0
M  V30 537 H 50.2504 -4.98689 0.105241 0
M  V30 538 H 49.4044 -5.67402 -2.14803 0
M  V30 539 H 48.1434 -4.4106 -2.08128 0
M  V30 540 H 47.1484 -5.49778 -0.0489293 0
M  V30 541 H 48.3734 -6.78966 -0.135129 0
M  V30 542 H 46.3194 -6.14891 -2.28573 0
M  V30 543 H 46.2364 -7.46948 -1.16636 0
M  V30 544 H 47.5044 -7.43078 -2.3549 0
M  V30 545 N 51.7335 -0.305618 -1.54608 0
M  V30 546 C 52.6635 0.561482 -2.26649 0
M  V30 547 C 53.6445 1.13415 -1.26772 0
M  V30 548 O 54.8295 1.16262 -1.55553 0
M  V30 549 C 51.9595 1.73122 -3.01075 0
M  V30 550 C 50.9135 1.2887 -4.08138 0
M  V30 551 C 50.2395 2.54396 -4.70305 0
M  V30 552 C 51.5395 0.416578 -5.20636 0
M  V30 553 H 53.2335 -0.0393902 -2.99374 0
M  V30 554 H 50.7795 -0.020385 -1.43986 0
M  V30 555 H 52.7325 2.34396 -3.50195 0
M  V30 556 H 51.4565 2.3584 -2.25936 0
M  V30 557 H 50.1155 0.698991 -3.59875 0
M  V30 558 H 49.7635 3.15439 -3.918 0
M  V30 559 H 49.4635 2.25486 -5.42614 0
M  V30 560 H 50.9875 3.16464 -5.2219 0
M  V30 561 H 52.4015 0.935116 -5.65622 0
M  V30 562 H 50.7985 0.221046 -5.99693 0
M  V30 563 H 51.8685 -0.557162 -4.81688 0
M  V30 564 N 53.2116 1.57565 -0.0334293 0
M  V30 565 C 54.1416 2.13511 0.945265 0
M  V30 566 C 55.1226 1.05231 1.33643 0
M  V30 567 O 56.3076 1.33084 1.41429 0
M  V30 568 C 53.4376 2.6657 2.22616 0
M  V30 569 C 52.3916 3.79676 1.97561 0
M  V30 570 C 51.7176 4.1918 3.31952 0
M  V30 571 C 53.0176 5.0557 1.31135 0
M  V30 572 H 54.7116 2.95538 0.479325 0
M  V30 573 H 52.2576 1.42166 0.229115 0
M  V30 574 H 54.2106 3.04344 2.91466 0
M  V30 575 H 52.9346 1.8171 2.71384 0
M  V30 576 H 51.5936 3.42347 1.31127 0
M  V30 577 H 51.2416 3.31296 3.78487 0
M  V30 578 H 50.9416 4.95402 3.15992 0
M  V30 579 H 52.4656 4.59541 4.02063 0
M  V30 580 H 53.8796 5.40903 1.89992 0
M  V30 581 H 52.2766 5.86818 1.25559 0
M  V30 582 H 53.3466 4.84062 0.284894 0
M  V30 583 N 54.6897 -0.239769 1.55765 0
M  V30 584 C 55.6197 -1.30052 1.9393 0
M  V30 585 C 56.6007 -1.49839 0.805132 0
M  V30 586 O 57.7857 -1.62328 1.06599 0
M  V30 587 C 54.9157 -2.65391 2.2402 0
M  V30 588 C 53.8697 -2.60289 3.39755 0
M  V30 589 C 53.1957 -3.99489 3.55405 0
M  V30 590 C 54.4957 -2.16654 4.75246 0
M  V30 591 H 56.1897 -0.983573 2.82783 0
M  V30 592 H 53.7357 -0.471701 1.36055 0
M  V30 593 H 55.6887 -3.3974 2.49308 0
M  V30 594 H 54.4127 -2.98736 1.32 0
M  V30 595 H 53.0717 -1.88398 3.14487 0
M  V30 596 H 52.7197 -4.30112 2.60793 0
M  V30 597 H 52.4197 -3.96962 4.33238 0
M  V30 598 H 53.9437 -4.75528 3.83022 0
M  V30 599 H 55.3577 -2.80737 4.99859 0
M  V30 600 H 53.7547 -2.25223 5.56232 0
M  V30 601 H 54.8247 -1.11835 4.71827 0
M  V30 602 N 56.1678 -1.49265 -0.50573 0
M  V30 603 C 57.0978 -1.68495 -1.61653 0
M  V30 604 C 58.0788 -0.53366 -1.61512 0
M  V30 605 O 59.2638 -0.76897 -1.78327 0
M  V30 606 C 56.3938 -1.74709 -3.00157 0
M  V30 607 C 55.3478 -2.89581 -3.15162 0
M  V30 608 C 54.6738 -2.80903 -4.5497 0
M  V30 609 C 55.9738 -4.30578 -2.95634 0
M  V30 610 H 57.6678 -2.61493 -1.45814 0
M  V30 611 H 55.2138 -1.25838 -0.70005 0
M  V30 612 H 57.1668 -1.86748 -3.77761 0
M  V30 613 H 55.8908 -0.783067 -3.17074 0
M  V30 614 H 54.5498 -2.77136 -2.39982 0
M  V30 615 H 54.1978 -1.82419 -4.68756 0
M  V30 616 H 53.8978 -3.57999 -4.65951 0
M  V30 617 H 55.4218 -2.94944 -5.34641 0
M  V30 618 H 56.8358 -4.4373 -3.63011 0
M  V30 619 H 55.2328 -5.0886 -3.18091 0
M  V30 620 H 56.3028 -4.45352 -1.91806 0
M  V30 621 N 57.6459 0.756429 -1.3826 0
M  V30 622 C 58.8939 1.51248 -1.34047 0
M  V30 623 C 59.2149 1.94875 0.0698372 0
M  V30 624 O 58.4849 1.67436 1.01696 0
M  V30 625 H 57.0649 0.561018 -0.493222 0
M  V30 626 H 59.7269 0.899347 -1.7291 0
M  V30 627 H 58.8229 2.40472 -1.98947 0
M  V30 628 N 59.124 1.23083 0.984299 0
M  V30 629 C 60.087 1.00979 2.05757 0
M  V30 630 C 61.087 -0.0269573 1.60777 0
M  V30 631 O 62.277 0.212403 1.729 0
M  V30 632 C 59.409 0.527072 3.36801 0
M  V30 633 H 60.602 1.9622 2.26799 0
M  V30 634 H 58.155 1.05072 1.15714 0
M  V30 635 H 58.89 -0.429294 3.21446 0
M  V30 636 H 58.675 1.27515 3.70786 0
M  V30 637 H 60.165 0.392942 4.15747 0
M  V30 638 N 60.6021 -1.18246 1.0419 0
M  V30 639 C 61.8501 -1.87886 0.744543 0
M  V30 640 C 62.1711 -1.8082 -0.730006 0
M  V30 641 O 61.4411 -1.22736 -1.52685 0
M  V30 642 H 60.0211 -0.695556 0.272417 0
M  V30 643 H 62.6831 -1.43494 1.31892 0
M  V30 644 H 61.7791 -2.9389 1.05049 0
M  V30 645 N 62.0802 -0.821533 -1.34494 0
M  V30 646 C 62.9902 -0.244355 -2.33324 0
M  V30 647 C 64.0062 0.620527 -1.62559 0
M  V30 648 O 65.1822 0.528754 -1.94335 0
M  V30 649 C 62.2472 0.585368 -3.41723 0
M  V30 650 C 61.3082 -0.301752 -4.28238 0
M  V30 651 C 60.5412 0.488466 -5.3146 0
M  V30 652 O 60.7642 1.72186 -5.4379 0
M  V30 653 O 59.6982 -0.12848 -6.01763 0
M  V30 654 H 63.5242 -1.06231 -2.84515 0
M  V30 655 H 61.1092 -0.583645 -1.37528 0
M  V30 656 H 62.9912 1.05747 -4.07916 0
M  V30 657 H 61.6662 1.38068 -2.92778 0
M  V30 658 H 60.5732 -0.821315 -3.64973 0
M  V30 659 H 61.9062 -1.06138 -4.8062 0
M  V30 660 N 63.5583 1.46682 -0.576371 0
M  V30 661 C 64.7833 2.07304 -0.0630475 0
M  V30 662 C 65.2083 1.42329 1.2298 0
M  V30 663 O 64.5663 0.504865 1.74129 0
M  V30 664 C 64.6143 3.60472 0.095895 0
M  V30 665 O 63.7183 3.95927 1.15394 0
M  V30 666 H 63.0593 0.661288 -0.0599463 0
M  V30 667 H 65.5893 1.88417 -0.797511 0
M  V30 668 H 65.5993 4.06865 0.304071 0
M  V30 669 H 64.2743 4.07157 -0.84828 0
M  V30 670 H 62.8513 3.61252 0.924724 0
M  V30 671 N 65.0364 0.313813 1.54444 0
M  V30 672 C 66.2844 -0.291099 1.99993 0
M  V30 673 C 66.6054 -1.53418 1.20366 0
M  V30 674 O 65.8754 -1.93544 0.302927 0
M  V30 675 H 64.4554 -0.110552 0.738774 0
M  V30 676 H 67.1174 0.428106 1.9014 0
M  V30 677 H 66.2134 -0.554268 3.07139 0
M  V30 678 N 66.5145 -1.57545 0.0417849 0
M  V30 679 C 67.4615 -2.10977 -0.935805 0
M  V30 680 C 68.4315 -1.01486 -1.31491 0
M  V30 681 O 69.6165 -1.2898 -1.40602 0
M  V30 682 C 66.7565 -2.65169 -2.2086 0
M  V30 683 C 65.8695 -3.88714 -1.88482 0
M  V30 684 C 65.0045 -4.31254 -3.1015 0
M  V30 685 C 64.0435 -5.47524 -2.7365 0
M  V30 686 N 63.1805 -5.85162 -3.87982 0
M  V30 687 H 68.0205 -2.94218 -0.473249 0
M  V30 688 H 65.5575 -1.45415 -0.221981 0
M  V30 689 H 67.5155 -2.94685 -2.95325 0
M  V30 690 H 66.1455 -1.8474 -2.64709 0
M  V30 691 H 65.1975 -3.65849 -1.04205 0
M  V30 692 H 66.5095 -4.73245 -1.57608 0
M  V30 693 H 65.6635 -4.62273 -3.92923 0
M  V30 694 H 64.4025 -3.45516 -3.44195 0
M  V30 695 H 63.4075 -5.16187 -1.89291 0
M  V30 696 H 64.6325 -6.34971 -2.40807 0
M  V30 697 H 62.5785 -5.02377 -4.21846 0
M  V30 698 H 62.4955 -6.64362 -3.60775 0
M  V30 699 H 63.7635 -6.20791 -4.71422 0
M  V30 700 N 67.9926 0.231505 -1.5589 0
M  V30 701 C 69.2176 0.978689 -1.82856 0
M  V30 702 C 69.6426 1.77559 -0.620846 0
M  V30 703 O 69.0006 1.76119 0.430305 0
M  V30 704 C 69.0486 1.87997 -3.07716 0
M  V30 705 O 68.1526 2.97393 -2.85712 0
M  V30 706 H 67.4936 0.277663 -0.603158 0
M  V30 707 H 70.0236 0.24783 -2.03093 0
M  V30 708 H 70.0336 2.2917 -3.37558 0
M  V30 709 H 68.7086 1.29417 -3.95252 0
M  V30 710 H 67.2856 2.60238 -2.67078 0
M  V30 711 N 69.4707 1.49531 0.497807 0
M  V30 712 C 70.6987 1.62893 1.27567 0
M  V30 713 C 71.1137 0.301585 1.86376 0
M  V30 714 O 70.4707 -0.713335 1.67982 0
M  V30 715 C 70.5217 2.70013 2.40364 0
M  V30 716 O 70.2427 3.976 1.83972 0
M  V30 717 C 71.7437 2.94109 3.31685 0
M  V30 718 H 68.9637 0.548298 0.386794 0
M  V30 719 H 71.5077 1.95584 0.597245 0
M  V30 720 H 69.6627 2.40092 3.04031 0
M  V30 721 H 70.0767 4.56631 2.58047 0
M  V30 722 H 71.5507 3.72788 4.07104 0
M  V30 723 H 72.0277 2.04147 3.88871 0
M  V30 724 H 72.6337 3.2546 2.73781 0
M  V30 725 N 70.9488 -0.749086 1.3866 0
M  V30 726 C 72.1978 -1.50371 1.3443 0
M  V30 727 C 72.5108 -1.95503 -0.0616397 0
M  V30 728 O 73.7168 -2.70554 -0.226489 0
M  V30 729 C 72.1728 -2.71644 2.36088 0
M  V30 730 C 71.7808 -2.3352 3.82325 0
M  V30 731 C 73.5248 -3.49518 2.40909 0
M  V30 732 C 71.4318 -3.51431 4.75658 0
M  V30 733 H 70.3618 -0.564628 0.499712 0
M  V30 734 H 73.0128 -0.818449 1.64237 0
M  V30 735 H 71.3948 -3.42175 1.9933 0
M  V30 736 H 72.5688 -1.70627 4.28046 0
M  V30 737 H 70.8838 -1.6877 3.80665 0
M  V30 738 H 73.4808 -4.37197 3.07836 0
M  V30 739 H 73.8238 -3.90992 1.42937 0
M  V30 740 H 74.3568 -2.86005 2.76489 0
M  V30 741 H 71.0958 -3.15019 5.74842 0
M  V30 742 H 70.6158 -4.13352 4.34627 0
M  V30 743 H 72.2948 -4.17953 4.93887 0
M  V30 744 N 72.4269 -1.23603 -0.977757 0
M  V30 745 C 73.6729 -1.07129 -1.72195 0
M  V30 746 C 74.0059 0.390501 -1.90233 0
M  V30 747 O 73.2809 1.28902 -1.45653 0
M  V30 748 C 73.5639 -1.80031 -3.11867 0
M  V30 749 C 73.4169 -3.33899 -3.01383 0
M  V30 750 C 74.7359 -1.56492 -4.11337 0
M  V30 751 H 71.8549 -0.390571 -0.624999 0
M  V30 752 H 74.4969 -1.52142 -1.13811 0
M  V30 753 H 72.6469 -1.41768 -3.6171 0
M  V30 754 H 74.3189 -3.81699 -2.59043 0
M  V30 755 H 72.5619 -3.62796 -2.37827 0
M  V30 756 H 73.2329 -3.801 -4.00285 0
M  V30 757 H 75.7089 -1.89757 -3.70313 0
M  V30 758 H 74.5849 -2.09973 -5.07151 0
M  V30 759 H 74.8459 -0.500874 -4.39254 0
M  V30 760 N 73.905 1.17692 -1.04816 0
M  V30 761 C 74.852 2.21581 -0.645797 0
M  V30 762 C 75.822 1.62367 0.350159 0
M  V30 763 O 77.007 1.89254 0.242433 0
M  V30 764 C 74.147 3.45092 -0.0227568 0
M  V30 765 C 73.26 4.18613 -1.06709 0
M  V30 766 C 72.395 5.29602 -0.411767 0
M  V30 767 C 71.434 5.94904 -1.44067 0
M  V30 768 N 70.571 6.97414 -0.809781 0
M  V30 769 H 75.411 2.55353 -1.5362 0
M  V30 770 H 72.948 1.25438 -0.768364 0
M  V30 771 H 74.906 4.15679 0.35588 0
M  V30 772 H 73.536 3.11917 0.831122 0
M  V30 773 H 72.588 3.46779 -1.5636 0
M  V30 774 H 73.9 4.63293 -1.84827 0
M  V30 775 H 73.054 6.06696 0.0206623 0
M  V30 776 H 71.793 4.86045 0.401438 0
M  V30 777 H 70.798 5.16544 -1.88316 0
M  V30 778 H 72.023 6.40542 -2.25571 0
M  V30 779 H 69.969 6.55998 -0.0170186 0
M  V30 780 H 69.886 7.40386 -1.52856 0
M  V30 781 H 71.154 7.78463 -0.401999 0
M  V30 782 N 75.3831 0.828654 1.34056 0
M  V30 783 C 76.3151 0.212052 2.28217 0
M  V30 784 C 77.3281 -0.601362 1.51286 0
M  V30 785 O 78.5171 -0.430104 1.73241 0
M  V30 786 C 75.6171 -0.72088 3.31144 0
M  V30 787 C 74.7901 0.0509587 4.3737 0
M  V30 788 C 73.8491 -0.803766 5.20025 0
M  V30 789 O 72.8751 -0.246667 5.68665 0
M  V30 790 N 74.0771 -2.1227 5.40298 0
M  V30 791 H 76.8421 1.02105 2.81771 0
M  V30 792 H 74.4031 0.686153 1.46641 0
M  V30 793 H 76.3951 -1.29742 3.8334 0
M  V30 794 H 74.9651 -1.43061 2.77943 0
M  V30 795 H 74.1851 0.808831 3.85813 0
M  V30 796 H 75.4731 0.582065 5.0546 0
M  V30 797 H 74.8711 -2.59898 5.02464 0
M  V30 798 H 73.4281 -2.64796 5.95589 0
M  V30 799 N 76.8612 -1.46375 0.584142 0
M  V30 800 C 77.7942 -2.27351 -0.196676 0
M  V30 801 C 78.7722 -1.35715 -0.895561 0
M  V30 802 O 79.9562 -1.65126 -0.90916 0
M  V30 803 C 77.0832 -3.13486 -1.28235 0
M  V30 804 C 76.1292 -4.20896 -0.689145 0
M  V30 805 S 76.9622 -5.33299 0.48507 0
M  V30 806 C 78.1182 -6.23 -0.601767 0
M  V30 807 H 78.3512 -2.93228 0.490395 0
M  V30 808 H 75.8842 -1.49875 0.371071 0
M  V30 809 H 77.8422 -3.63676 -1.90395 0
M  V30 810 H 76.5032 -2.4692 -1.94138 0
M  V30 811 H 75.6962 -4.80997 -1.50527 0
M  V30 812 H 75.2982 -3.73726 -0.143181 0
M  V30 813 H 77.5902 -6.60979 -1.48705 0
M  V30 814 H 78.5332 -7.0809 -0.0374799 0
M  V30 815 H 78.9412 -5.57173 -0.906557 0
M  V30 816 N 78.3393 -0.321999 -1.54275 0
M  V30 817 C 79.2863 0.544664 -2.24281 0
M  V30 818 C 80.2563 1.1129 -1.23303 0
M  V30 819 O 81.4413 1.15354 -1.51981 0
M  V30 820 C 78.5813 1.70045 -3.00298 0
M  V30 821 C 77.6943 1.16159 -4.1609 0
M  V30 822 C 76.8293 2.28293 -4.79641 0
M  V30 823 C 75.8683 1.71648 -5.8754 0
M  V30 824 N 75.0053 2.77438 -6.44959 0
M  V30 825 H 79.8453 -0.0588907 -2.97942 0
M  V30 826 H 77.3823 -0.0408345 -1.47043 0
M  V30 827 H 79.3403 2.38054 -3.42616 0
M  V30 828 H 77.9703 2.27531 -2.28975 0
M  V30 829 H 77.0223 0.373092 -3.78566 0
M  V30 830 H 78.3343 0.707087 -4.93763 0
M  V30 831 H 77.4883 3.0421 -5.2492 0
M  V30 832 H 76.2273 2.77079 -4.01346 0
M  V30 833 H 75.2323 0.942282 -5.41665 0
M  V30 834 H 76.4573 1.23741 -6.67731 0
M  V30 835 H 74.4033 3.25519 -5.69538 0
M  V30 836 H 74.3203 2.36547 -7.1804 0
M  V30 837 H 75.5883 3.53189 -6.94894 0
M  V30 838 N 79.8174 1.5752 -0.0501392 0
M  V30 839 C 81.0664 1.91827 0.623328 0
M  V30 840 C 81.3794 0.930222 1.72065 0
M  V30 841 O 82.5854 1.1653 2.4522 0
M  V30 842 C 81.0414 3.40692 1.16003 0
M  V30 843 C 80.6494 4.479 0.0948811 0
M  V30 844 C 82.3934 3.84034 1.80881 0
M  V30 845 C 80.3004 5.87879 0.644411 0
M  V30 846 H 79.2304 0.715918 0.236596 0
M  V30 847 H 81.8814 1.83115 -0.118861 0
M  V30 848 H 80.2634 3.44405 1.9545 0
M  V30 849 H 81.4374 4.55775 -0.678675 0
M  V30 850 H 79.7524 4.13892 -0.45637 0
M  V30 851 H 82.3494 4.85984 2.22988 0
M  V30 852 H 82.6924 3.20225 2.6601 0
M  V30 853 H 83.2254 3.82833 1.0809 0
M  V30 854 H 79.9644 6.55282 -0.169229 0
M  V30 855 H 79.4844 5.83567 1.38598 0
M  V30 856 H 81.1634 6.37098 1.12763 0
M  V30 857 N 81.2955 -0.223234 1.56011 0
M  V30 858 C 82.5445 -0.945912 1.78144 0
M  V30 859 C 82.8575 -1.85567 0.618396 0
M  V30 860 O 84.0635 -2.61688 0.723318 0
M  V30 861 C 82.5195 -1.73216 3.15475 0
M  V30 862 C 82.1275 -0.868619 4.39499 0
M  V30 863 C 83.8715 -2.44615 3.46935 0
M  V30 864 C 81.7785 -1.65212 5.67855 0
M  V30 865 H 80.7085 -0.356929 0.664167 0
M  V30 866 H 83.3595 -0.199845 1.82409 0
M  V30 867 H 81.7415 -2.52107 3.05382 0
M  V30 868 H 82.9155 -0.120366 4.60643 0
M  V30 869 H 81.2305 -0.26683 4.15544 0
M  V30 870 H 83.8275 -3.03732 4.40058 0
M  V30 871 H 84.1705 -3.17417 2.69355 0
M  V30 872 H 84.7035 -1.72715 3.58349 0
M  V30 873 H 81.4425 -0.967407 6.48322 0
M  V30 874 H 80.9625 -2.37503 5.50774 0
M  V30 875 H 82.6415 -2.21322 6.07968 0
M  V30 876 N 82.7736 -1.49793 -0.48987 0
M  V30 877 C 83.7236 -1.63673 -1.5873 0
M  V30 878 C 84.7076 -0.491956 -1.53195 0
M  V30 879 O 85.8996 -0.745461 -1.60536 0
M  V30 880 C 83.0286 -1.71689 -2.97284 0
M  V30 881 C 82.1146 -2.91781 -3.07774 0
M  V30 882 N 82.5056 -4.15714 -2.88124 0
M  V30 883 C 80.8036 -2.89949 -3.38889 0
M  V30 884 C 81.5046 -4.965 -3.03088 0
M  V30 885 N 80.4806 -4.30083 -3.3246 0
M  V30 886 H 84.2826 -2.57204 -1.42208 0
M  V30 887 H 81.7966 -1.46719 -0.69623 0
M  V30 888 H 83.7936 -1.79732 -3.76168 0
M  V30 889 H 82.4536 -0.793024 -3.14867 0
M  V30 890 H 83.4646 -4.45515 -2.64077 0
M  V30 891 H 80.1416 -2.06987 -3.62578 0
M  V30 892 H 81.5316 -6.04991 -2.92294 0
M  V30 893 N 84.2517 0.741722 -1.39055 0
M  V30 894 C 85.1617 1.88621 -1.39496 0
M  V30 895 C 86.1777 1.71557 -0.290578 0
M  V30 896 O 87.3537 1.94275 -0.530954 0
M  V30 897 C 84.4187 3.24134 -1.23037 0
M  V30 898 C 83.4797 3.5364 -2.43387 0
M  V30 899 C 82.7127 4.82687 -2.27703 0
M  V30 900 O 82.9357 5.55922 -1.27696 0
M  V30 901 O 81.8697 5.1194 -3.16545 0
M  V30 902 H 85.6957 1.91203 -2.35956 0
M  V30 903 H 83.2807 0.888625 -1.20099 0
M  V30 904 H 85.1627 4.0513 -1.15964 0
M  V30 905 H 83.8377 3.22337 -0.296691 0
M  V30 906 H 82.7447 2.72758 -2.56035 0
M  V30 907 H 84.0777 3.60209 -3.35425 0
M  V30 908 N 85.7298 1.2412 0.971189 0
M  V30 909 C 86.6928 1.03156 2.04674 0
M  V30 910 C 87.6928 -0.00990322 1.60797 0
M  V30 911 O 88.8828 0.230729 1.72665 0
M  V30 912 C 86.0148 0.562765 3.36223 0
M  V30 913 H 87.2078 1.98614 2.24705 0
M  V30 914 H 84.7608 1.06293 1.14593 0
M  V30 915 H 85.4958 -0.395176 3.21883 0
M  V30 916 H 85.2808 1.31441 3.69413 0
M  V30 917 H 86.7708 0.437015 4.15307 0
M  V30 918 N 87.2079 -1.17134 1.05439 0
M  V30 919 C 88.4559 -1.87085 0.764429 0
M  V30 920 C 88.7769 -1.81584 -0.710787 0
M  V30 921 O 88.0469 -1.24349 -1.51374 0
M  V30 922 H 86.6269 -0.692627 0.279779 0
M  V30 923 H 89.2889 -1.42087 1.33406 0
M  V30 924 H 88.3849 -2.92759 1.0816 0
M  V30 925 N 88.686 -0.835752 -1.33615 0
M  V30 926 C 89.916 -0.442701 -2.01801 0
M  V30 927 C 90.324 0.959807 -1.63047 0
M  V30 928 O 89.667 1.63468 -0.838088 0
M  V30 929 C 89.729 -0.480125 -3.56279 0
M  V30 930 C 89.393 -1.8382 -4.18401 0
M  V30 931 C 90.39 -2.80097 -4.37998 0
M  V30 932 C 88.075 -2.13019 -4.54894 0
M  V30 933 C 90.069 -4.03736 -4.9323 0
M  V30 934 C 87.756 -3.36916 -5.09834 0
M  V30 935 C 88.754 -4.32091 -5.28948 0
M  V30 936 O 88.442 -5.53797 -5.82721 0
M  V30 937 H 88.174 -0.17441 -0.653114 0
M  V30 938 H 90.728 -1.129 -1.71589 0
M  V30 939 H 88.958 0.262931 -3.85805 0
M  V30 940 H 90.647 -0.105335 -4.05763 0
M  V30 941 H 91.413 -2.58838 -4.10156 0
M  V30 942 H 87.292 -1.39733 -4.39313 0
M  V30 943 H 90.836 -4.78034 -5.08064 0
M  V30 944 H 86.733 -3.58033 -5.37106 0
M  V30 945 H 87.501 -5.55494 -6.0114 0
M  V30 946 N 90.1641 1.46063 -0.591896 0
M  V30 947 C 91.3891 2.07226 -0.0850314 0
M  V30 948 C 91.8141 1.43625 1.21463 0
M  V30 949 O 91.1721 0.523305 1.73583 0
M  V30 950 C 91.2201 3.60554 0.0576567 0
M  V30 951 O 90.3241 3.97128 1.11188 0
M  V30 952 H 89.6651 0.660615 -0.0669568 0
M  V30 953 H 92.1951 1.8756 -0.81745 0
M  V30 954 H 92.2051 4.07165 0.2609 0
M  V30 955 H 90.8801 4.06235 -0.891416 0
M  V30 956 H 89.4571 3.62213 0.886356 0
M  V30 957 N 91.6422 0.330177 1.54103 0
M  V30 958 C 92.5522 -0.541534 2.28264 0
M  V30 959 C 93.5682 -1.12351 1.32866 0
M  V30 960 O 94.7442 -1.14206 1.65888 0
M  V30 961 C 91.8092 -1.68322 3.03098 0
M  V30 962 C 90.8702 -1.13238 4.14096 0
M  V30 963 C 90.1032 -2.21966 4.85352 0
M  V30 964 O 90.3262 -3.42437 4.56172 0
M  V30 965 O 89.2602 -1.87013 5.7211 0
M  V30 966 H 93.0862 0.060938 3.03639 0
M  V30 967 H 90.6712 0.09565 1.49093 0
M  V30 968 H 92.5532 -2.34777 3.49939 0
M  V30 969 H 91.2282 -2.27176 2.30593 0
M  V30 970 H 90.1352 -0.432736 3.71589 0
M  V30 971 H 91.4682 -0.588898 4.88664 0
M  V30 972 N 93.1203 -1.57491 0.0584922 0
M  V30 973 C 94.0303 -2.15448 -0.928414 0
M  V30 974 C 95.0463 -1.11416 -1.3365 0
M  V30 975 O 96.2223 -1.4362 -1.41193 0
M  V30 976 C 93.2873 -2.69393 -2.18239 0
M  V30 977 C 92.3483 -3.88249 -1.83196 0
M  V30 978 C 91.5813 -4.39613 -3.02616 0
M  V30 979 O 91.8043 -3.90023 -4.16219 0
M  V30 980 O 90.7383 -5.31111 -2.83204 0
M  V30 981 H 94.5643 -3.00112 -0.465483 0
M  V30 982 H 92.1493 -1.48499 -0.163826 0
M  V30 983 H 94.0313 -3.04026 -2.91798 0
M  V30 984 H 92.7063 -1.87796 -2.63656 0
M  V30 985 H 91.6133 -3.58492 -1.06931 0
M  V30 986 H 92.9463 -4.71098 -1.42573 0
M  V30 987 N 94.5984 0.214957 -1.56127 0
M  V30 988 C 95.5084 1.28727 -1.96129 0
M  V30 989 C 96.5244 1.50916 -0.866044 0
M  V30 990 O 97.7004 1.63918 -1.17016 0
M  V30 991 C 94.7654 2.61569 -2.27558 0
M  V30 992 C 93.8264 2.47625 -3.50685 0
M  V30 993 C 93.0594 3.74132 -3.80606 0
M  V30 994 O 93.2824 4.77438 -3.12104 0
M  V30 995 O 92.2164 3.70849 -4.74083 0
M  V30 996 H 96.0424 0.977855 -2.87527 0
M  V30 997 H 93.6274 0.418358 -1.43423 0
M  V30 998 H 95.5094 3.40012 -2.48938 0
M  V30 999 H 94.1844 2.92178 -1.39332 0
M  V30 1000 H 93.0914 1.67361 -3.34576 0
M  V30 1001 H 94.4244 2.21954 -4.39315 0
M  V30 1002 N 96.0765 1.50051 0.48192 0
M  V30 1003 C 97.3165 1.62128 1.24474 0
M  V30 1004 C 97.6805 0.309742 1.89485 0
M  V30 1005 O 98.8815 0.305854 2.67054 0
M  V30 1006 C 97.1525 2.76151 2.26882 0
M  V30 1007 S 98.7115 3.08297 3.12247 0
M  V30 1008 H 95.5295 0.571661 0.422759 0
M  V30 1009 H 98.1315 1.87791 0.54359 0
M  V30 1010 H 96.8355 3.69942 1.77683 0
M  V30 1011 H 96.3665 2.52541 3.0164 0
M  V30 1012 H 98.3815 2.51287 4.27866 0
M  V30 1013 N 97.5546 -0.734337 1.39446 0
M  V30 1014 C 98.5016 -1.84835 1.38219 0
M  V30 1015 C 99.4716 -1.64331 0.24179 0
M  V30 1016 O 100.657 -1.85728 0.437002 0
M  V30 1017 C 97.7966 -3.22355 1.23212 0
M  V30 1018 C 96.9096 -3.5456 2.46801 0
M  V30 1019 C 96.0446 -4.81485 2.24377 0
M  V30 1020 C 95.0836 -5.06536 3.43639 0
M  V30 1021 N 94.2206 -6.24665 3.20528 0
M  V30 1022 H 99.0606 -1.85219 2.33448 0
M  V30 1023 H 96.5976 -0.905039 1.15963 0
M  V30 1024 H 98.5556 -4.0174 1.12522 0
M  V30 1025 H 97.1856 -3.21248 0.316121 0
M  V30 1026 H 96.2376 -2.69872 2.68092 0
M  V30 1027 H 97.5496 -3.6899 3.3563 0
M  V30 1028 H 96.7036 -5.68852 2.10933 0
M  V30 1029 H 95.4426 -4.6923 1.32944 0
M  V30 1030 H 94.4476 -4.17632 3.5758 0
M  V30 1031 H 95.6726 -5.20676 4.35974 0
M  V30 1032 H 93.6186 -6.13696 2.3176 0
M  V30 1033 H 93.5356 -6.39685 4.02913 0
M  V30 1034 H 94.8036 -7.14868 3.10779 0
M  V30 1035 N 99.0327 -1.24633 -0.964593 0
M  V30 1036 C 99.9647 -0.999302 -2.06268 0
M  V30 1037 C 100.978 0.0323226 -1.62768 0
M  V30 1038 O 102.167 -0.205079 -1.77318 0
M  V30 1039 C 99.2667 -0.486816 -3.35385 0
M  V30 1040 C 98.4397 -1.5823 -4.07777 0
M  V30 1041 C 97.4987 -1.07191 -5.15166 0
M  V30 1042 O 96.5247 -1.76426 -5.41168 0
M  V30 1043 N 97.7267 0.0920373 -5.80427 0
M  V30 1044 H 100.492 -1.94477 -2.28033 0
M  V30 1045 H 98.0527 -1.15704 -1.13244 0
M  V30 1046 H 100.045 -0.130066 -4.04491 0
M  V30 1047 H 98.6147 0.364459 -3.10468 0
M  V30 1048 H 97.8347 -2.11109 -3.32906 0
M  V30 1049 H 99.1227 -2.31854 -4.52903 0
M  V30 1050 H 98.5207 0.670784 -5.61709 0
M  V30 1051 H 97.0777 0.389905 -6.50633 0
M  V30 1052 N 100.511 1.16574 -1.06058 0
M  V30 1053 C 101.741 1.90675 -0.795397 0
M  V30 1054 C 102.149 1.77547 0.653735 0
M  V30 1055 O 101.492 1.11611 1.45907 0
M  V30 1056 C 101.554 3.42011 -1.10764 0
M  V30 1057 C 101.218 3.78924 -2.55471 0
M  V30 1058 C 102.215 3.81042 -3.53699 0
M  V30 1059 C 99.8998 4.09626 -2.90708 0
M  V30 1060 C 101.894 4.13346 -4.85205 0
M  V30 1061 C 99.5808 4.41597 -4.22416 0
M  V30 1062 C 100.579 4.43436 -5.19474 0
M  V30 1063 O 100.267 4.74649 -6.48817 0
M  V30 1064 H 99.9988 0.611554 -0.288058 0
M  V30 1065 H 102.553 1.48711 -1.41683 0
M  V30 1066 H 100.783 3.84312 -0.429128 0
M  V30 1067 H 102.472 3.97384 -0.827077 0
M  V30 1068 H 103.238 3.57437 -3.27817 0
M  V30 1069 H 99.1168 4.07361 -2.15819 0
M  V30 1070 H 102.661 4.14696 -5.60957 0
M  V30 1071 H 98.5578 4.64667 -4.48056 0
M  V30 1072 H 99.3258 4.9247 -6.5377 0
M  V30 1073 N 101.989 0.842826 1.3317 0
M  V30 1074 C 102.936 0.276885 2.29133 0
M  V30 1075 C 103.906 -0.609527 1.54512 0
M  V30 1076 O 105.091 -0.546955 1.82792 0
M  V30 1077 C 102.231 -0.538707 3.40869 0
M  V30 1078 C 101.344 0.372169 4.30394 0
M  V30 1079 C 100.479 -0.454908 5.29249 0
M  V30 1080 C 99.5179 0.45411 6.10413 0
M  V30 1081 N 98.6549 -0.335075 7.013 0
M  V30 1082 H 103.495 1.10052 2.76934 0
M  V30 1083 H 101.032 0.554161 1.36262 0
M  V30 1084 H 102.99 -1.02709 4.0436 0
M  V30 1085 H 101.62 -1.32727 2.9425 0
M  V30 1086 H 100.672 0.97888 3.6759 0
M  V30 1087 H 101.984 1.0703 4.87182 0
M  V30 1088 H 101.138 -1.00695 5.98285 0
M  V30 1089 H 99.8769 -1.18646 4.73048 0
M  V30 1090 H 98.8819 1.01813 5.40291 0
M  V30 1091 H 100.107 1.18409 6.68697 0
M  V30 1092 H 98.0529 -1.04994 6.47543 0
M  V30 1093 H 97.9699 0.304262 7.55387 0
M  V30 1094 H 99.2379 -0.869224 7.74638 0
M  V30 1095 N 103.467 -1.45747 0.599634 0
M  V30 1096 C 104.43 -2.28917 -0.113835 0
M  V30 1097 C 105.43 -1.3933 -0.802729 0
M  V30 1098 O 106.62 -1.61534 -0.652103 0
M  V30 1099 C 103.752 -3.20152 -1.17114 0
M  V30 1100 H 104.945 -2.93478 0.617289 0
M  V30 1101 H 102.498 -1.52137 0.358327 0
M  V30 1102 H 103.233 -2.60374 -1.93329 0
M  V30 1103 H 103.018 -3.86133 -0.681468 0
M  V30 1104 H 104.508 -3.82708 -1.67105 0
M  V30 1105 N 104.945 -0.338344 -1.53925 0
M  V30 1106 C 106.191 0.260143 -2.01125 0
M  V30 1107 C 106.524 1.50617 -1.22589 0
M  V30 1108 O 105.799 1.91979 -0.312113 0
M  V30 1109 C 106.082 0.579499 -3.55407 0
M  V30 1110 C 105.935 -0.678264 -4.44657 0
M  V30 1111 C 107.254 1.39122 -4.17532 0
M  V30 1112 H 104.373 0.0930772 -0.731099 0
M  V30 1113 H 107.015 -0.457852 -1.84401 0
M  V30 1114 H 105.165 1.19118 -3.69788 0
M  V30 1115 H 106.837 -1.31631 -4.42121 0
M  V30 1116 H 105.08 -1.3042 -4.13731 0
M  V30 1117 H 105.751 -0.410143 -5.50474 0
M  V30 1118 H 108.227 0.874035 -4.06817 0
M  V30 1119 H 107.103 1.58342 -5.25565 0
M  V30 1120 H 107.364 2.39178 -3.71815 0
M  V30 1121 N 106.423 1.57458 -0.0668435 0
M  V30 1122 C 107.669 1.93587 0.6043 0
M  V30 1123 C 108.002 0.946722 1.69561 0
M  V30 1124 O 107.277 -0.0248516 1.94484 0
M  V30 1125 C 107.56 3.40014 1.18585 0
M  V30 1126 C 107.413 4.49685 0.101529 0
M  V30 1127 C 108.732 3.87154 2.09284 0
M  V30 1128 H 105.851 0.703958 0.218202 0
M  V30 1129 H 108.493 1.89542 -0.131804 0
M  V30 1130 H 106.643 3.43592 1.81319 0
M  V30 1131 H 108.315 4.5823 -0.531279 0
M  V30 1132 H 106.558 4.30059 -0.568487 0
M  V30 1133 H 107.229 5.49266 0.54874 0
M  V30 1134 H 109.705 3.85551 1.56491 0
M  V30 1135 H 108.581 4.90231 2.46911 0
M  V30 1136 H 108.842 3.2481 2.99918 0
M  V30 1137 N 107.901 -0.206675 1.56239 0
M  V30 1138 C 109.131 -0.943975 1.83773 0
M  V30 1139 C 109.539 -1.77841 0.645703 0
M  V30 1140 O 108.882 -1.79403 -0.395008 0
M  V30 1141 C 108.944 -1.899 3.05251 0
M  V30 1142 C 108.608 -1.24764 4.39639 0
M  V30 1143 C 109.605 -0.630216 5.16066 0
M  V30 1144 C 107.29 -1.25496 4.8637 0
M  V30 1145 C 109.284 -0.0287946 6.37393 0
M  V30 1146 C 106.971 -0.649698 6.07637 0
M  V30 1147 C 107.969 -0.0376845 6.8299 0
M  V30 1148 O 107.657 0.55812 8.0196 0
M  V30 1149 H 107.389 -0.281508 0.614597 0
M  V30 1150 H 109.943 -0.222458 2.04192 0
M  V30 1151 H 108.173 -2.6599 2.80689 0
M  V30 1152 H 109.862 -2.5031 3.1953 0
M  V30 1153 H 110.628 -0.616785 4.81062 0
M  V30 1154 H 106.507 -1.72072 4.27683 0
M  V30 1155 H 110.051 0.449518 6.9615 0
M  V30 1156 H 105.948 -0.660592 6.42111 0
M  V30 1157 H 106.716 0.453891 8.17241 0
M  V30 1158 N 109.379 -1.50304 -0.473955 0
M  V30 1159 C 110.604 -1.65175 -1.25427 0
M  V30 1160 C 111.029 -0.333673 -1.85117 0
M  V30 1161 O 110.387 0.702114 -1.67153 0
M  V30 1162 C 110.435 -2.74295 -2.34082 0
M  V30 1163 O 109.539 -2.35349 -3.38651 0
M  V30 1164 H 108.88 -0.551944 -0.369126 0
M  V30 1165 H 111.41 -1.96662 -0.564364 0
M  V30 1166 H 111.42 -2.97285 -2.79438 0
M  V30 1167 H 110.095 -3.69959 -1.90008 0
M  V30 1168 H 108.672 -2.22794 -2.99027 0
M  V30 1169 N 110.857 0.726932 -1.39834 0
M  V30 1170 C 111.805 1.86235 -1.39353 0
M  V30 1171 C 112.799 1.67144 -0.275555 0
M  V30 1172 O 114.005 1.74387 -0.44601 0
M  V30 1173 H 110.38 0.613174 -0.43534 0
M  V30 1174 H 112.351 1.83756 -2.35109 0
M  V30 1175 C 111.1 3.23995 -1.26185 0
M  V30 1176 H 110.423 3.39285 -2.11484 0
M  V30 1177 H 111.863 4.03609 -1.29907 0
M  V30 1178 C 110.322 3.36888 0.0290018 0
M  V30 1179 O 110.852 3.89152 0.99619 0
M  V30 1180 N 109.058 2.90446 0.0947437 0
M  V30 1181 H 108.605 2.48102 -0.693035 0
M  V30 1182 H 108.563 2.99451 0.957932 0
M  V30 1183 N 112.336 1.25143 0.95797 0
M  V30 1184 C 113.564 1.12424 1.73691 0
M  V30 1185 C 113.979 -0.322304 1.86029 0
M  V30 1186 O 113.336 -1.22186 1.35561 0
M  V30 1187 C 113.387 1.76933 3.15241 0
M  V30 1188 O 113.108 3.15932 3.03511 0
M  V30 1189 C 114.609 1.6995 4.09429 0
M  V30 1190 H 111.829 0.3923 0.544373 0
M  V30 1191 H 114.373 1.6544 1.20207 0
M  V30 1192 H 112.528 1.27895 3.6568 0
M  V30 1193 H 112.942 3.47598 3.9278 0
M  V30 1194 H 114.416 2.19753 5.06372 0
M  V30 1195 H 114.893 0.662619 4.34173 0
M  V30 1196 H 115.499 2.18461 3.64904 0
M  V30 1197 N 113.814 -1.1601 1.06675 0
M  V30 1198 C 115.063 -1.85973 0.780818 0
M  V30 1199 C 115.376 -1.82819 -0.695444 0
M  V30 1200 O 116.582 -2.484 -1.09589 0
M  V30 1201 C 115.038 -3.33757 1.34665 0
M  V30 1202 C 114.646 -3.45374 2.85343 0
M  V30 1203 C 116.39 -4.0895 1.13843 0
M  V30 1204 C 114.297 -4.87266 3.35151 0
M  V30 1205 H 113.227 -0.696661 0.288407 0
M  V30 1206 H 115.878 -1.30903 1.28595 0
M  V30 1207 H 114.26 -3.88456 0.769274 0
M  V30 1208 H 115.434 -3.00816 3.49065 0
M  V30 1209 H 113.749 -2.83619 3.04876 0
M  V30 1210 H 116.346 -5.13654 1.4854 0
M  V30 1211 H 116.689 -4.16229 0.0770282 0
M  V30 1212 H 117.222 -3.605 1.68179 0
M  V30 1213 H 113.961 -4.85168 4.40786 0
M  V30 1214 H 113.481 -5.32433 2.76179 0
M  V30 1215 H 115.16 -5.56097 3.30704 0
M  V30 1216 N 115.292 -0.849877 -1.32721 0
M  V30 1217 C 116.224 -0.248332 -2.27851 0
M  V30 1218 C 117.237 0.577218 -1.52224 0
M  V30 1219 O 118.426 0.402489 -1.73903 0
M  V30 1220 C 115.526 0.668107 -3.32249 0
M  V30 1221 C 114.699 -0.120534 -4.37234 0
M  V30 1222 C 113.758 0.720932 -5.21238 0
M  V30 1223 O 112.784 0.156166 -5.68986 0
M  V30 1224 N 113.986 2.03647 -5.43607 0
M  V30 1225 H 116.751 -1.06575 -2.80111 0
M  V30 1226 H 114.312 -0.709395 -1.45531 0
M  V30 1227 H 116.304 1.23627 -3.85355 0
M  V30 1228 H 114.874 1.38621 -2.80184 0
M  V30 1229 H 114.094 -0.870108 -3.84477 0
M  V30 1230 H 115.382 -0.662406 -5.0447 0
M  V30 1231 H 114.78 2.51871 -5.06535 0
M  V30 1232 H 113.337 2.55287 -5.99727 0
M  V30 1233 N 116.77 1.45427 -0.607355 0
M  V30 1234 C 117.995 2.07124 -0.107006 0
M  V30 1235 C 118.42 1.44906 1.19933 0
M  V30 1236 O 117.778 0.541687 1.73019 0
M  V30 1237 C 117.826 3.60595 0.0194119 0
M  V30 1238 O 116.93 3.98285 1.0697 0
M  V30 1239 H 116.271 0.659868 -0.0739597 0
M  V30 1240 H 118.801 1.86683 -0.837297 0
M  V30 1241 H 118.811 4.07419 0.2177 0
M  V30 1242 H 117.486 4.05266 -0.934453 0
M  V30 1243 H 116.063 3.63133 0.847889 0
M  V30 1244 N 118.248 0.346503 1.53744 0
M  V30 1245 C 119.497 -0.250122 2.00143 0
M  V30 1246 C 119.81 -1.51418 1.23822 0
M  V30 1247 O 121.016 -2.18823 1.60713 0
M  V30 1248 C 119.472 -0.496252 3.56462 0
M  V30 1249 C 119.08 0.752077 4.41642 0
M  V30 1250 C 120.824 -1.05157 4.11269 0
M  V30 1251 C 118.731 0.476583 5.89477 0
M  V30 1252 H 117.661 -0.0972409 0.747703 0
M  V30 1253 H 120.312 0.46229 1.77581 0
M  V30 1254 H 118.694 -1.26944 3.75102 0
M  V30 1255 H 119.868 1.5266 4.34778 0
M  V30 1256 H 118.183 1.22925 3.97842 0
M  V30 1257 H 120.78 -1.27269 5.19333 0
M  V30 1258 H 121.123 -2.00799 3.64672 0
M  V30 1259 H 121.656 -0.339019 3.96353 0
M  V30 1260 H 118.395 1.4028 6.40314 0
M  V30 1261 H 117.915 -0.259794 5.99237 0
M  V30 1262 H 119.594 0.0949315 6.4693 0
M  V30 1263 N 119.726 -1.57421 0.075193 0
M  V30 1264 C 120.975 -1.92794 -0.592731 0
M  V30 1265 C 121.288 -0.957478 -1.70563 0
M  V30 1266 O 122.494 -1.20417 -2.43335 0
M  V30 1267 C 120.95 -3.42495 -1.10569 0
M  V30 1268 C 120.558 -4.47994 -0.0236121 0
M  V30 1269 C 122.302 -3.86864 -1.74748 0
M  V30 1270 C 120.209 -5.88829 -0.550803 0
M  V30 1271 H 119.139 -0.719591 -0.225177 0
M  V30 1272 H 121.79 -1.82902 0.147978 0
M  V30 1273 H 120.172 -3.47471 -1.89947 0
M  V30 1274 H 121.346 -4.54637 0.751099 0
M  V30 1275 H 119.661 -4.13113 0.522159 0
M  V30 1276 H 122.258 -4.8947 -2.15229 0
M  V30 1277 H 122.601 -3.24417 -2.60882 0
M  V30 1278 H 123.134 -3.84504 -1.01986 0
M  V30 1279 H 119.873 -6.54929 0.273457 0
M  V30 1280 H 119.393 -5.85698 -1.29296 0
M  V30 1281 H 121.072 -6.38811 -1.02613 0
M  V30 1282 N 121.204 0.198386 -1.56346 0
M  V30 1283 C 122.167 1.22952 -1.93431 0
M  V30 1284 C 123.167 1.38611 -0.815092 0
M  V30 1285 O 124.357 1.36479 -1.08255 0
M  V30 1286 C 121.489 2.59946 -2.20546 0
M  V30 1287 H 122.682 0.912626 -2.85677 0
M  V30 1288 H 120.235 0.43977 -1.49986 0
M  V30 1289 H 120.97 2.96696 -1.30927 0
M  V30 1290 H 120.755 2.49953 -3.02102 0
M  V30 1291 H 122.245 3.3431 -2.50253 0
M  V30 1292 N 122.682 1.50554 0.465978 0
M  V30 1293 C 123.931 1.61038 1.21448 0
M  V30 1294 C 124.244 0.31865 1.92987 0
M  V30 1295 O 125.45 0.302469 2.6981 0
M  V30 1296 C 123.906 2.84283 2.20706 0
M  V30 1297 C 123.514 4.20352 1.54946 0
M  V30 1298 C 125.258 3.04115 2.96166 0
M  V30 1299 C 123.165 5.34778 2.5252 0
M  V30 1300 H 122.095 0.599718 0.457005 0
M  V30 1301 H 124.746 1.7699 0.484424 0
M  V30 1302 H 123.128 2.61901 2.97025 0
M  V30 1303 H 124.302 4.53008 0.843811 0
M  V30 1304 H 122.617 4.06167 0.917475 0
M  V30 1305 H 125.214 3.86774 3.69202 0
M  V30 1306 H 125.557 2.16045 3.55852 0
M  V30 1307 H 126.09 3.26702 2.26959 0
M  V30 1308 H 122.829 6.25018 1.97566 0
M  V30 1309 H 122.349 5.06534 3.21222 0
M  V30 1310 H 124.028 5.65561 3.14245 0
M  V30 1311 N 124.16 -0.719506 1.40217 0
M  V30 1312 C 125.409 -1.47486 1.37589 0
M  V30 1313 C 125.722 -1.9559 -0.0201568 0
M  V30 1314 O 126.928 -2.70973 -0.169049 0
M  V30 1315 C 125.384 -2.66575 2.41796 0
M  V30 1316 C 124.992 -2.25358 3.87192 0
M  V30 1317 C 126.736 -3.4433 2.48269 0
M  V30 1318 C 124.643 -3.41262 4.83005 0
M  V30 1319 H 123.573 -0.553901 0.511576 0
M  V30 1320 H 126.224 -0.783427 1.65936 0
M  V30 1321 H 124.606 -3.3787 2.06543 0
M  V30 1322 H 125.78 -1.61509 4.31569 0
M  V30 1323 H 124.095 -1.60657 3.84159 0
M  V30 1324 H 126.692 -4.30569 3.17041 0
M  V30 1325 H 127.035 -3.87872 1.51198 0
M  V30 1326 H 127.568 -2.80076 2.82493 0
M  V30 1327 H 124.307 -3.02755 5.81394 0
M  V30 1328 H 123.827 -4.0404 4.43297 0
M  V30 1329 H 125.506 -4.07383 5.02641 0
M  V30 1330 N 125.638 -1.25649 -0.95132 0
M  V30 1331 C 127.054 -1.02542 -1.223 0
M  V30 1332 C 127.254 0.255715 -1.99871 0
M  V30 1333 O 126.31 0.967558 -2.33226 0
M  V30 1334 C 127.623 -2.25065 -1.99415 0
M  V30 1335 C 129.171 -2.29861 -2.12446 0
M  V30 1336 C 129.646 -3.52048 -2.92961 0
M  V30 1337 N 131.137 -3.52465 -3.00538 0
M  V30 1338 C 131.872 -4.43672 -3.63239 0
M  V30 1339 N 131.368 -5.45157 -4.27523 0
M  V30 1340 N 133.161 -4.31346 -3.60412 0
M  V30 1341 H 125.312 -2.07951 -0.432471 0
M  V30 1342 H 127.575 -0.91339 -0.253816 0
M  V30 1343 H 127.281 -3.18194 -1.49817 0
M  V30 1344 H 127.155 -2.28502 -3.00111 0
M  V30 1345 H 129.542 -1.37252 -2.61239 0
M  V30 1346 H 129.623 -2.3044 -1.11044 0
M  V30 1347 H 129.267 -4.44981 -2.44856 0
M  V30 1348 H 129.197 -3.48715 -3.94596 0
M  V30 1349 H 131.688 -2.79056 -2.54826 0
M  V30 1350 H 132.001 -6.10958 -4.73234 0
M  V30 1351 H 130.346 -5.49025 -4.26141 0
M  V30 1352 H 133.537 -3.51288 -3.09377 0
M  V30 1353 H 133.71 -5.02624 -4.0899 0
M  V30 1354 N 127.117 1.15442 -1.07289 0
M  V30 1355 C 128.08 2.18358 -0.696591 0
M  V30 1356 C 129.08 1.58637 0.262837 0
M  V30 1357 O 130.27 1.74145 0.0438809 0
M  V30 1358 C 127.402 3.4089 -0.0266151 0
M  V30 1359 H 128.595 2.53162 -1.60776 0
M  V30 1360 H 126.148 1.29893 -0.869342 0
M  V30 1361 H 126.883 3.11653 0.896822 0
M  V30 1362 H 126.668 3.85495 -0.716657 0
M  V30 1363 H 128.158 4.17009 0.222028 0
M  V30 1364 N 128.595 0.856903 1.32268 0
M  V30 1365 C 129.528 0.247937 2.26849 0
M  V30 1366 C 130.506 -0.615382 1.50505 0
M  V30 1367 O 131.69 -0.571689 1.79622 0
M  V30 1368 C 128.817 -0.650093 3.32403 0
M  V30 1369 C 127.863 0.140138 4.2627 0
M  V30 1370 S 128.696 1.51004 5.13769 0
M  V30 1371 C 129.852 0.61778 6.22844 0
M  V30 1372 H 130.085 1.04971 2.78152 0
M  V30 1373 H 127.618 0.654665 1.39834 0
M  V30 1374 H 129.576 -1.16256 3.93694 0
M  V30 1375 H 128.237 -1.4257 2.7988 0
M  V30 1376 H 127.43 -0.543945 5.01056 0
M  V30 1377 H 127.032 0.584267 3.69408 0
M  V30 1378 H 129.324 -0.177053 6.77269 0
M  V30 1379 H 130.267 1.33636 6.95375 0
M  V30 1380 H 130.675 0.191124 5.64176 0
M  V30 1381 N 130.073 -1.45103 0.615059 0
M  V30 1382 C 131.321 -2.01784 0.112955 0
M  V30 1383 C 131.642 -1.48504 -1.26378 0
M  V30 1384 O 130.912 -0.682245 -1.83636 0
M  V30 1385 H 129.492 -0.745993 0.0387668 0
M  V30 1386 H 132.154 -1.77808 0.798141 0
M  V30 1387 H 131.25 -3.12025 0.0684069 0
M  V30 1388 N 131.551 -0.354651 -1.53558 0
M  V30 1389 C 132.967 -0.00315426 -1.596 0
M  V30 1390 C 133.167 1.47741 -1.37021 0
M  V30 1391 O 132.223 2.23759 -1.16996 0
M  V30 1392 C 133.536 -0.44929 -2.97325 0
M  V30 1393 C 135.084 -0.402578 -3.104 0
M  V30 1394 C 135.559 -0.824355 -4.5052 0
M  V30 1395 N 137.05 -0.778979 -4.56603 0
M  V30 1396 C 137.785 -1.07715 -5.63192 0
M  V30 1397 N 137.281 -1.44405 -6.77583 0
M  V30 1398 N 139.074 -1.00066 -5.53121 0
M  V30 1399 H 131.225 -1.31893 -1.66487 0
M  V30 1400 H 133.488 -0.538388 -0.780284 0
M  V30 1401 H 133.194 -1.48202 -3.1895 0
M  V30 1402 H 133.068 0.169772 -3.76818 0
M  V30 1403 H 135.455 0.621004 -2.88492 0
M  V30 1404 H 135.536 -1.05699 -2.32941 0
M  V30 1405 H 135.18 -1.846 -4.73165 0
M  V30 1406 H 135.11 -0.147304 -5.26394 0
M  V30 1407 H 137.601 -0.508528 -3.74463 0
M  V30 1408 H 137.914 -1.65612 -7.54846 0
M  V30 1409 H 136.259 -1.4826 -6.79002 0
M  V30 1410 H 139.45 -0.713293 -4.62633 0
M  V30 1411 H 139.623 -1.23638 -6.36096 0
M  V30 1412 N 133.029 1.57378 -0.0835403 0
M  V30 1413 C 133.959 2.1641 0.87686 0
M  V30 1414 C 134.94 1.09429 1.30228 0
M  V30 1415 O 136.125 1.37516 1.37124 0
M  V30 1416 C 133.255 2.73517 2.14022 0
M  V30 1417 C 132.209 3.85769 1.85381 0
M  V30 1418 C 131.535 4.29529 3.18448 0
M  V30 1419 C 132.835 5.09486 1.14984 0
M  V30 1420 H 134.529 2.96914 0.385059 0
M  V30 1421 H 132.075 1.42823 0.18377 0
M  V30 1422 H 134.028 3.13463 2.81636 0
M  V30 1423 H 132.752 1.90252 2.65465 0
M  V30 1424 H 131.411 3.46345 1.20169 0
M  V30 1425 H 131.059 3.43169 3.67755 0
M  V30 1426 H 130.759 5.05204 3.00071 0
M  V30 1427 H 132.283 4.72099 3.8724 0
M  V30 1428 H 133.697 5.46674 1.72687 0
M  V30 1429 H 132.094 5.90515 1.06826 0
M  V30 1430 H 133.164 4.84724 0.130749 0
M  V30 1431 N 134.507 -0.190092 1.56449 0
M  V30 1432 C 135.454 -1.23557 1.94942 0
M  V30 1433 C 136.424 -1.44972 0.810696 0
M  V30 1434 O 137.609 -1.58023 1.06927 0
M  V30 1435 C 134.749 -2.57416 2.2985 0
M  V30 1436 C 133.862 -2.43537 3.5681 0
M  V30 1437 C 132.997 -3.70134 3.81017 0
M  V30 1438 C 132.036 -3.51109 5.01387 0
M  V30 1439 N 131.173 -4.6973 5.21822 0
M  V30 1440 H 136.013 -0.900304 2.84075 0
M  V30 1441 H 133.55 -0.43318 1.40577 0
M  V30 1442 H 135.508 -3.35409 2.48106 0
M  V30 1443 H 134.138 -2.88975 1.43852 0
M  V30 1444 H 133.19 -1.56816 3.46573 0
M  V30 1445 H 134.502 -2.25415 4.4496 0
M  V30 1446 H 133.656 -4.56566 3.9954 0
M  V30 1447 H 132.395 -3.91215 2.91207 0
M  V30 1448 H 131.4 -2.63063 4.82782 0
M  V30 1449 H 132.625 -3.31468 5.9271 0
M  V30 1450 H 130.571 -4.91065 4.34961 0
M  V30 1451 H 130.488 -4.54452 6.0416 0
M  V30 1452 H 131.756 -5.57499 5.44808 0
M  V30 1453 N 135.985 -1.50799 -0.457987 0
M  V30 1454 C 137.234 -1.6168 -1.20593 0
M  V30 1455 C 137.547 -0.32888 -1.92815 0
M  V30 1456 O 138.753 -0.316773 -2.69646 0
M  V30 1457 C 137.209 -2.8545 -2.19195 0
M  V30 1458 C 136.817 -4.21168 -1.52715 0
M  V30 1459 C 138.561 -3.05681 -2.94549 0
M  V30 1460 C 136.468 -5.3611 -2.4968 0
M  V30 1461 H 135.398 -0.602134 -0.453818 0
M  V30 1462 H 138.049 -1.77245 -0.475031 0
M  V30 1463 H 136.431 -2.63472 -2.95632 0
M  V30 1464 H 137.605 -4.53449 -0.819775 0
M  V30 1465 H 135.92 -4.06648 -0.895922 0
M  V30 1466 H 138.517 -3.88727 -3.67145 0
M  V30 1467 H 138.86 -2.17929 -3.54701 0
M  V30 1468 H 139.393 -3.27901 -2.25223 0
M  V30 1469 H 136.132 -6.26057 -1.94249 0
M  V30 1470 H 135.652 -5.0823 -3.18532 0
M  V30 1471 H 137.331 -5.6722 -3.11241 0
M  V30 1472 N 137.463 0.71206 -1.40597 0
M  V30 1473 C 138.74 1.46536 -1.29563 0
M  V30 1474 C 139.12 2.10931 0.0844217 0
M  V30 1475 O 138.468 2.00418 1.0975 0
M  V30 1476 C 138.678 2.49821 -2.43701 0
M  V30 1477 C 140.026 3.15551 -2.841 0
M  V30 1478 O 141.05 2.60142 -2.4332 0
M  V30 1479 O 139.909 4.15867 -3.54566 0
M  V30 1480 H 137.003 0.651801 -0.509004 0
M  V30 1481 H 139.549 0.743935 -1.52524 0
M  V30 1482 H 138.321 2.00778 -3.35863 0
M  V30 1483 H 137.944 3.29495 -2.22528 0
M  V30 1484 N 138.941 1.26152 0.944643 0
M  V30 1485 C 140.188 1.11492 1.69044 0
M  V30 1486 C 140.516 -0.342366 1.91463 0
M  V30 1487 O 139.771 -1.26812 1.49054 0
M  V30 1488 C 140.07 1.82541 3.07268 0
M  V30 1489 C 139.736 3.32445 3.04616 0
M  V30 1490 C 138.398 3.73337 3.036 0
M  V30 1491 C 140.75 4.28171 2.97185 0
M  V30 1492 C 138.078 5.08348 2.92915 0
M  V30 1493 C 140.43 5.63218 2.88041 0
M  V30 1494 C 139.094 6.03426 2.85366 0
M  V30 1495 H 138.364 0.407977 0.618576 0
M  V30 1496 H 141.011 1.56551 1.10291 0
M  V30 1497 H 139.316 1.29941 3.69625 0
M  V30 1498 H 141.013 1.68642 3.63815 0
M  V30 1499 H 137.603 2.99915 3.06185 0
M  V30 1500 H 141.787 3.97563 2.97081 0
M  V30 1501 H 137.043 5.38667 2.89219 0
M  V30 1502 H 141.217 6.37078 2.81254 0
M  V30 1503 H 138.844 7.07999 2.76842 0
M  V30 1504 N 140.419 -1.14872 1.07899 0
M  V30 1505 C 141.667 -1.85422 0.803941 0
M  V30 1506 C 141.988 -1.83051 -0.67211 0
M  V30 1507 O 141.258 -1.27532 -1.48703 0
M  V30 1508 H 139.838 -0.686537 0.294408 0
M  V30 1509 H 142.5 -1.39226 1.3639 0
M  V30 1510 H 141.596 -2.90399 1.14346 0
M  V30 1511 N 141.898 -0.863906 -1.31812 0
M  V30 1512 C 143.175 -0.39275 -1.91616 0
M  V30 1513 C 143.555 1.12461 -1.7865 0
M  V30 1514 O 142.903 1.95045 -1.19037 0
M  V30 1515 C 143.113 -0.867385 -3.38049 0
M  V30 1516 C 144.461 -0.889966 -4.15168 0
M  V30 1517 O 145.485 -0.812635 -3.46806 0
M  V30 1518 O 144.344 -1.00079 -5.37258 0
M  V30 1519 H 141.438 -0.116358 -0.818773 0
M  V30 1520 H 143.984 -0.951418 -1.40521 0
M  V30 1521 H 142.756 -1.91081 -3.41473 0
M  V30 1522 H 142.379 -0.286687 -3.96565 0
M  V30 1523 N 143.376 1.44774 -0.622745 0
M  V30 1524 C 144.601 2.06999 -0.128968 0
M  V30 1525 C 145.026 1.4617 1.1839 0
M  V30 1526 O 144.384 0.560007 1.72434 0
M  V30 1527 C 144.432 3.60595 -0.0188351 0
M  V30 1528 O 143.536 3.99398 1.02739 0
M  V30 1529 H 142.877 0.659047 -0.0809544 0
M  V30 1530 H 145.407 1.85784 -0.85705 0
M  V30 1531 H 145.417 4.07627 0.174476 0
M  V30 1532 H 144.092 4.04252 -0.977384 0
M  V30 1533 H 142.669 3.64011 0.809326 0
M  V30 1534 N 144.854 0.36279 1.53368 0
M  V30 1535 C 145.817 -0.472679 2.24273 0
M  V30 1536 C 146.817 -1.012 1.24961 0
M  V30 1537 O 148.007 -0.898194 1.49259 0
M  V30 1538 C 145.139 -1.66039 2.97731 0
M  V30 1539 H 146.332 0.14773 2.99536 0
M  V30 1540 H 143.885 0.114434 1.55881 0
M  V30 1541 H 144.62 -2.31896 2.26704 0
M  V30 1542 H 144.405 -1.28066 3.70596 0
M  V30 1543 H 145.895 -2.25252 3.51641 0
M  V30 1544 N 146.332 -1.57332 0.0918853 0
M  V30 1545 C 147.748 -1.57389 -0.264766 0
M  V30 1546 C 147.948 -1.10281 -1.68643 0
M  V30 1547 O 147.004 -0.777801 -2.40222 0
M  V30 1548 C 148.317 -3.00648 -0.0561195 0
M  V30 1549 C 149.865 -3.12754 -0.124116 0
M  V30 1550 C 150.34 -4.57965 0.0564972 0
M  V30 1551 N 151.831 -4.632 0.00155611 0
M  V30 1552 C 152.566 -5.73281 0.116598 0
M  V30 1553 N 152.062 -6.92208 0.286294 0
M  V30 1554 N 153.855 -5.6207 0.0580973 0
M  V30 1555 H 146.006 -1.86262 1.02079 0
M  V30 1556 H 148.269 -0.859579 0.399786 0
M  V30 1557 H 147.975 -3.393 0.925669 0
M  V30 1558 H 147.849 -3.68623 -0.799823 0
M  V30 1559 H 150.236 -2.73976 -1.09641 0
M  V30 1560 H 150.317 -2.47377 0.651024 0
M  V30 1561 H 149.961 -4.97436 1.02564 0
M  V30 1562 H 149.891 -5.21399 -0.738297 0
M  V30 1563 H 152.382 -3.77686 -0.127192 0
M  V30 1564 H 152.695 -7.71934 0.365676 0
M  V30 1565 H 151.04 -6.94254 0.32192 0
M  V30 1566 H 154.231 -4.68043 -0.0733204 0
M  V30 1567 H 154.404 -6.47824 0.151203 0
M  V30 1568 N 147.81 0.181792 -1.56548 0
M  V30 1569 C 148.773 1.20894 -1.94724 0
M  V30 1570 C 149.773 1.37738 -0.829747 0
M  V30 1571 O 150.963 1.35323 -1.09697 0
M  V30 1572 C 148.095 2.57593 -2.23291 0
M  V30 1573 H 149.288 0.882275 -2.86629 0
M  V30 1574 H 146.841 0.423838 -1.50444 0
M  V30 1575 H 147.576 2.95291 -1.34067 0
M  V30 1576 H 147.361 2.46735 -3.04736 0
M  V30 1577 H 148.851 3.31637 -2.53785 0
M  V30 1578 N 149.288 1.51039 0.449983 0
M  V30 1579 C 150.565 1.53612 1.21089 0
M  V30 1580 C 150.945 0.292997 2.09057 0
M  V30 1581 O 150.293 -0.72259 2.16774 0
M  V30 1582 C 150.503 2.84337 2.0237 0
M  V30 1583 C 151.851 3.35807 2.59843 0
M  V30 1584 O 152.875 2.85802 2.12593 0
M  V30 1585 O 151.734 4.23029 3.45989 0
M  V30 1586 H 148.828 0.617057 0.550608 0
M  V30 1587 H 151.374 1.63344 0.460082 0
M  V30 1588 H 150.146 3.66278 1.37681 0
M  V30 1589 H 149.769 2.77708 2.84542 0
M  V30 1590 N 150.766 -0.704594 1.40972 0
M  V30 1591 C 152.043 -1.45847 1.30338 0
M  V30 1592 C 152.423 -2.10973 -0.0732344 0
M  V30 1593 O 151.771 -2.00997 -1.08685 0
M  V30 1594 C 151.981 -2.48525 2.45023 0
M  V30 1595 C 153.329 -3.1404 2.8577 0
M  V30 1596 O 154.353 -2.58848 2.44696 0
M  V30 1597 O 153.212 -4.13981 3.56766 0
M  V30 1598 H 150.306 -0.649092 0.512454 0
M  V30 1599 H 152.852 -0.735836 1.52917 0
M  V30 1600 H 151.624 -1.98994 3.36923 0
M  V30 1601 H 151.247 -3.2831 2.24272 0
M  V30 1602 N 152.244 -1.26651 -0.937939 0
M  V30 1603 C 153.207 -1.08546 -2.01867 0
M  V30 1604 C 154.207 -0.0327327 -1.60767 0
M  V30 1605 O 155.397 -0.276427 -1.71993 0
M  V30 1606 C 152.529 -0.651711 -3.34613 0
M  V30 1607 H 153.722 -2.04502 -2.1936 0
M  V30 1608 H 151.275 -1.09294 -1.11734 0
M  V30 1609 H 152.01 0.309696 -3.22818 0
M  V30 1610 H 151.795 -1.41189 -3.65798 0
M  V30 1611 H 153.285 -0.546973 -4.14002 0
M  V30 1612 N 153.722 1.14298 -1.08507 0
M  V30 1613 C 155.138 1.37347 -0.812901 0
M  V30 1614 C 155.338 1.93052 0.577325 0
M  V30 1615 O 154.394 2.14389 1.33393 0
M  V30 1616 C 155.707 2.33359 -1.89642 0
M  V30 1617 C 157.255 2.46996 -1.92255 0
M  V30 1618 C 157.73 3.46309 -2.99724 0
M  V30 1619 N 159.221 3.53853 -2.98902 0
M  V30 1620 C 159.956 4.3055 -3.787 0
M  V30 1621 N 159.452 5.10482 -4.6838 0
M  V30 1622 N 161.245 4.25757 -3.66998 0
M  V30 1623 H 153.396 0.764867 -1.9815 0
M  V30 1624 H 155.659 0.398966 -0.859959 0
M  V30 1625 H 155.365 1.99565 -2.89597 0
M  V30 1626 H 155.239 3.33274 -1.76659 0
M  V30 1627 H 157.626 2.80081 -0.929445 0
M  V30 1628 H 157.707 1.47039 -2.09316 0
M  V30 1629 H 157.351 3.13957 -3.99241 0
M  V30 1630 H 157.281 4.46049 -2.79907 0
M  V30 1631 H 159.772 2.96812 -2.33904 0
M  V30 1632 H 160.085 5.66284 -5.25873 0
M  V30 1633 H 158.43 5.09747 -4.72422 0
M  V30 1634 H 161.621 3.62383 -2.96304 0
M  V30 1635 H 161.794 4.85279 -4.29427 0
M  V30 1636 N 155.201 0.870884 1.31352 0
M  V30 1637 C 156.133 0.28455 2.27427 0
M  V30 1638 C 157.146 -0.552927 1.53123 0
M  V30 1639 O 158.335 -0.374771 1.74521 0
M  V30 1640 C 155.435 -0.615164 3.3327 0
M  V30 1641 C 154.608 0.190079 4.36987 0
M  V30 1642 C 153.667 -0.637917 5.22319 0
M  V30 1643 O 152.693 -0.065626 5.69162 0
M  V30 1644 N 153.895 -1.94973 5.46778 0
M  V30 1645 H 156.66 1.11017 2.7838 0
M  V30 1646 H 154.221 0.732458 1.44384 0
M  V30 1647 H 156.213 -1.1748 3.87273 0
M  V30 1648 H 154.783 -1.34146 2.82354 0
M  V30 1649 H 154.003 0.931165 3.83044 0
M  V30 1650 H 155.291 0.742579 5.03352 0
M  V30 1651 H 154.689 -2.4378 5.10478 0
M  V30 1652 H 153.246 -2.45713 6.03712 0
M  V30 1653 N 156.679 -1.44442 0.630414 0
M  V30 1654 C 157.609 -2.33418 -0.0618083 0
M  V30 1655 C 158.59 -1.48165 -0.835541 0
M  V30 1656 O 159.775 -1.76886 -0.801564 0
M  V30 1657 C 156.905 -3.31222 -1.04449 0
M  V30 1658 C 155.859 -4.26288 -0.382436 0
M  V30 1659 C 155.185 -5.13954 -1.47497 0
M  V30 1660 C 156.485 -5.1744 0.710865 0
M  V30 1661 H 158.179 -2.91548 0.681184 0
M  V30 1662 H 155.725 -1.40191 0.329026 0
M  V30 1663 H 157.678 -3.92351 -1.53748 0
M  V30 1664 H 156.402 -2.71299 -1.81836 0
M  V30 1665 H 155.061 -3.6649 0.0899054 0
M  V30 1666 H 154.709 -4.50385 -2.2397 0
M  V30 1667 H 154.409 -5.7837 -1.03737 0
M  V30 1668 H 155.933 -5.77955 -1.96979 0
M  V30 1669 H 157.347 -5.72509 0.300996 0
M  V30 1670 H 155.744 -5.90455 1.07156 0
M  V30 1671 H 156.814 -4.58496 1.57829 0
M  V30 1672 N 158.157 -0.370918 -1.53173 0
M  V30 1673 C 159.404 0.217102 -2.01333 0
M  V30 1674 C 159.732 1.48338 -1.25802 0
M  V30 1675 O 158.987 1.92698 -0.34146 0
M  V30 1676 C 159.286 0.549696 -3.53147 0
M  V30 1677 C 158.952 -0.622872 -4.46577 0
M  V30 1678 C 157.614 -0.944595 -4.71838 0
M  V30 1679 C 159.966 -1.40819 -5.01816 0
M  V30 1680 C 157.294 -2.05351 -5.49589 0
M  V30 1681 C 159.646 -2.50757 -5.80778 0
M  V30 1682 C 158.31 -2.83458 -6.04324 0
M  V30 1683 H 157.58 0.0794431 -0.736729 0
M  V30 1684 H 160.227 -0.504481 -1.84736 0
M  V30 1685 H 158.532 1.35237 -3.6772 0
M  V30 1686 H 160.229 1.017 -3.87889 0
M  V30 1687 H 156.819 -0.36209 -4.27068 0
M  V30 1688 H 161.003 -1.17289 -4.82242 0
M  V30 1689 H 156.259 -2.3108 -5.6605 0
M  V30 1690 H 160.433 -3.12022 -6.22588 0
M  V30 1691 H 158.06 -3.69508 -6.64355 0
M  V30 1692 N 159.635 1.57281 -0.100228 0
M  V30 1693 C 160.881 1.94826 0.563101 0
M  V30 1694 C 161.214 0.982475 1.67514 0
M  V30 1695 O 160.489 0.0164069 1.94493 0
M  V30 1696 C 160.772 3.42453 1.11346 0
M  V30 1697 C 160.625 4.498 0.00612081 0
M  V30 1698 C 161.944 3.91506 2.01024 0
M  V30 1699 H 159.063 0.708428 0.203221 0
M  V30 1700 H 161.705 1.8922 -0.171979 0
M  V30 1701 H 159.855 3.47361 1.7399 0
M  V30 1702 H 161.527 4.57 -0.628357 0
M  V30 1703 H 159.77 4.28756 -0.659581 0
M  V30 1704 H 160.441 5.50306 0.432109 0
M  V30 1705 H 162.917 3.88784 1.48278 0
M  V30 1706 H 161.793 4.95358 2.36457 0
M  V30 1707 H 162.054 3.31099 2.92961 0
M  V30 1708 N 161.113 -0.173488 1.56642 0
M  V30 1709 C 162.043 -1.2171 1.99271 0
M  V30 1710 C 163.024 -1.46289 0.867959 0
M  V30 1711 O 164.209 -1.5766 1.13388 0
M  V30 1712 C 161.339 -2.55651 2.35074 0
M  V30 1713 C 160.293 -2.45645 3.50489 0
M  V30 1714 C 159.619 -3.84056 3.72028 0
M  V30 1715 C 160.919 -1.96302 4.84007 0
M  V30 1716 H 162.613 -0.86275 2.867 0
M  V30 1717 H 160.159 -0.413571 1.37933 0
M  V30 1718 H 162.112 -3.2886 2.63494 0
M  V30 1719 H 160.836 -2.92869 1.44552 0
M  V30 1720 H 159.495 -1.7489 3.22194 0
M  V30 1721 H 159.143 -4.18664 2.788 0
M  V30 1722 H 158.843 -3.7823 4.49684 0
M  V30 1723 H 160.367 -4.58854 4.02846 0
M  V30 1724 H 161.781 -2.59284 5.11317 0
M  V30 1725 H 160.178 -2.01429 5.65284 0
M  V30 1726 H 161.248 -0.917226 4.76146 0
M  V30 1727 N 162.591 -1.51276 -0.441967 0
M  V30 1728 C 163.554 -1.7167 -1.51862 0
M  V30 1729 C 164.554 -0.586793 -1.49711 0
M  V30 1730 O 165.744 -0.854276 -1.51815 0
M  V30 1731 C 162.876 -1.76889 -2.91416 0
M  V30 1732 H 164.069 -2.67754 -1.35084 0
M  V30 1733 H 161.622 -1.41196 -0.670333 0
M  V30 1734 H 162.357 -0.826026 -3.13604 0
M  V30 1735 H 162.142 -2.59001 -2.94382 0
M  V30 1736 H 163.632 -1.94522 -3.69528 0
M  V30 1737 N 164.069 0.697108 -1.41344 0
M  V30 1738 C 165.317 1.45426 -1.40341 0
M  V30 1739 C 165.638 1.94996 -0.0128787 0
M  V30 1740 O 164.908 1.71599 0.945027 0
M  V30 1741 H 163.488 0.539594 -0.516573 0
M  V30 1742 H 166.15 0.825201 -1.76569 0
M  V30 1743 H 165.246 2.31817 -2.08967 0
M  V30 1744 N 165.547 1.27147 0.931209 0
M  V30 1745 C 166.51 1.09615 2.01289 0
M  V30 1746 C 167.51 0.0412581 1.60747 0
M  V30 1747 O 168.7 0.285545 1.71844 0
M  V30 1748 C 165.832 0.669447 3.34262 0
M  V30 1749 H 167.025 2.05662 2.18273 0
M  V30 1750 H 164.578 1.09885 1.11153 0
M  V30 1751 H 165.313 -0.292572 3.22978 0
M  V30 1752 H 165.098 1.43127 3.65044 0
M  V30 1753 H 166.588 0.568921 4.13706 0
M  V30 1754 N 167.025 -1.13721 1.09112 0
M  V30 1755 C 167.988 -2.17222 0.731241 0
M  V30 1756 C 168.988 -1.59035 -0.237566 0
M  V30 1757 O 170.178 -1.74192 -0.0161704 0
M  V30 1758 C 167.31 -3.40804 0.0808443 0
M  V30 1759 H 168.503 -2.50573 1.64783 0
M  V30 1760 H 166.056 -1.28493 0.889897 0
M  V30 1761 H 166.791 -3.1304 -0.847127 0
M  V30 1762 H 166.576 -3.84306 0.777896 0
M  V30 1763 H 168.066 -4.1731 -0.155657 0
M  V30 1764 N 168.503 -0.877838 -1.30888 0
M  V30 1765 C 169.413 -0.343096 -2.32078 0
M  V30 1766 C 170.429 0.551022 -1.65045 0
M  V30 1767 O 171.605 0.445854 -1.96403 0
M  V30 1768 C 168.67 0.439905 -3.43898 0
M  V30 1769 C 167.731 -0.483111 -4.26573 0
M  V30 1770 C 166.964 0.262616 -5.33053 0
M  V30 1771 O 167.187 1.48967 -5.50604 0
M  V30 1772 O 166.121 -0.383593 -6.00676 0
M  V30 1773 H 169.947 -1.18203 -2.79753 0
M  V30 1774 H 167.532 -0.64145 -1.34929 0
M  V30 1775 H 169.414 0.883504 -4.12034 0
M  V30 1776 H 168.089 1.25526 -2.98371 0
M  V30 1777 H 166.996 -0.975374 -3.61161 0
M  V30 1778 H 168.329 -1.26427 -4.75686 0
M  V30 1779 N 169.982 1.44106 -0.638065 0
M  V30 1780 C 170.892 2.34513 0.0637334 0
M  V30 1781 C 171.908 1.53018 0.828346 0
M  V30 1782 O 173.084 1.85723 0.779036 0
M  V30 1783 C 170.149 3.31095 1.02844 0
M  V30 1784 C 169.21 4.28497 0.26244 0
M  V30 1785 C 168.443 5.20465 1.1812 0
M  V30 1786 O 168.666 5.16514 2.42011 0
M  V30 1787 O 167.6 5.98251 0.661774 0
M  V30 1788 H 171.426 2.95989 -0.68003 0
M  V30 1789 H 169.011 1.43994 -0.398252 0
M  V30 1790 H 170.893 3.90526 1.58327 0
M  V30 1791 H 169.568 2.72144 1.7527 0
M  V30 1792 H 168.475 3.72592 -0.335602 0
M  V30 1793 H 169.808 4.90388 -0.421936 0
M  V30 1794 N 171.46 0.379036 1.52974 0
M  V30 1795 C 172.708 -0.206014 2.01047 0
M  V30 1796 C 173.029 -1.48175 1.26765 0
M  V30 1797 O 172.299 -1.92085 0.384743 0
M  V30 1798 H 170.879 -0.0791184 0.742798 0
M  V30 1799 H 173.541 0.508366 1.88153 0
M  V30 1800 H 172.637 -0.423501 3.09213 0
M  V30 1801 N 172.938 -1.57226 0.108567 0
M  V30 1802 C 174.185 -1.94833 -0.551943 0
M  V30 1803 C 174.513 -0.991204 -1.67348 0
M  V30 1804 O 173.768 -0.0131878 -1.95696 0
M  V30 1805 C 174.067 -3.38911 -1.13463 0
M  V30 1806 C 173.733 -4.50696 -0.135509 0
M  V30 1807 C 172.395 -4.80998 0.139252 0
M  V30 1808 C 174.747 -5.18333 0.545957 0
M  V30 1809 C 172.075 -5.76259 1.10194 0
M  V30 1810 C 174.427 -6.14627 1.49721 0
M  V30 1811 C 173.091 -6.43327 1.78006 0
M  V30 1812 H 172.361 -0.712944 -0.20197 0
M  V30 1813 H 175.008 -1.90582 0.18726 0
M  V30 1814 H 173.313 -3.39805 -1.95037 0
M  V30 1815 H 175.01 -3.65317 -1.65362 0
M  V30 1816 H 171.6 -4.27087 -0.359846 0
M  V30 1817 H 175.784 -4.95087 0.346842 0
M  V30 1818 H 171.04 -5.96804 1.32795 0
M  V30 1819 H 175.214 -6.66126 2.03099 0
M  V30 1820 H 172.841 -7.1695 2.52759 0
M  V30 1821 N 174.416 0.165178 -1.56732 0
M  V30 1822 C 175.349 1.23336 -1.91998 0
M  V30 1823 C 176.327 1.42476 -0.783531 0
M  V30 1824 O 177.511 1.57384 -1.03743 0
M  V30 1825 C 174.638 2.59533 -2.17625 0
M  V30 1826 C 173.684 2.57093 -3.40302 0
M  V30 1827 S 174.517 2.05571 -4.9447 0
M  V30 1828 C 175.673 3.43532 -5.23198 0
M  V30 1829 H 175.906 0.932387 -2.82301 0
M  V30 1830 H 173.439 0.370013 -1.49901 0
M  V30 1831 H 175.397 3.37918 -2.3307 0
M  V30 1832 H 174.058 2.86827 -1.28019 0
M  V30 1833 H 173.251 3.57308 -3.55453 0
M  V30 1834 H 172.853 1.86806 -3.24005 0
M  V30 1835 H 175.145 4.39559 -5.15552 0
M  V30 1836 H 176.088 3.33251 -6.2478 0
M  V30 1837 H 176.496 3.39828 -4.50752 0
M  V30 1838 N 175.894 1.51508 0.433938 0
M  V30 1839 C 177.122 1.68157 1.20543 0
M  V30 1840 C 177.537 0.380362 1.84929 0
M  V30 1841 O 176.894 -0.641446 1.70856 0
M  V30 1842 C 176.945 2.79965 2.28696 0
M  V30 1843 O 176.666 4.05045 1.66943 0
M  V30 1844 C 178.167 3.07912 3.18912 0
M  V30 1845 H 175.387 0.56421 0.363191 0
M  V30 1846 H 177.931 1.97941 0.513754 0
M  V30 1847 H 176.086 2.5277 2.93574 0
M  V30 1848 H 176.5 4.67165 2.38448 0
M  V30 1849 H 177.974 3.89719 3.90926 0
M  V30 1850 H 178.451 2.20456 3.79863 0
M  V30 1851 H 179.057 3.36779 2.59731 0
M  V30 1852 N 177.372 -0.689602 1.41712 0
M  V30 1853 C 178.335 -1.78521 1.43746 0
M  V30 1854 C 179.335 -1.57436 0.327191 0
M  V30 1855 O 180.525 -1.64 0.587348 0
M  V30 1856 C 177.657 -3.16971 1.25467 0
M  V30 1857 H 178.85 -1.78108 2.41283 0
M  V30 1858 H 176.403 -0.89781 1.27942 0
M  V30 1859 H 177.138 -3.23019 0.287948 0
M  V30 1860 H 176.923 -3.33678 2.05917 0
M  V30 1861 H 178.413 -3.96935 1.2974 0
M  V30 1862 N 178.85 -1.27639 -0.924453 0
M  V30 1863 C 179.76 -1.12466 -2.05885 0
M  V30 1864 C 180.776 -0.053869 -1.73917 0
M  V30 1865 O 181.952 -0.261012 -1.99702 0
M  V30 1866 C 179.017 -0.776768 -3.37886 0
M  V30 1867 C 178.078 -1.92878 -3.83532 0
M  V30 1868 C 177.311 -1.59739 -5.09234 0
M  V30 1869 O 177.534 -0.506782 -5.68144 0
M  V30 1870 O 176.468 -2.43761 -5.50331 0
M  V30 1871 H 180.294 -2.07671 -2.21599 0
M  V30 1872 H 177.879 -1.06857 -1.04413 0
M  V30 1873 H 179.761 -0.596229 -4.17161 0
M  V30 1874 H 178.436 0.145732 -3.23372 0
M  V30 1875 H 177.343 -2.1644 -3.0513 0
M  V30 1876 H 178.676 -2.8316 -4.02593 0
M  V30 1877 N 180.328 1.1314 -1.09713 0
M  V30 1878 C 181.258 2.20748 -0.761102 0
M  V30 1879 C 182.239 1.68061 0.262566 0
M  V30 1880 O 183.424 1.93765 0.129977 0
M  V30 1881 C 180.554 3.46812 -0.184054 0
M  V30 1882 C 179.508 4.12606 -1.13757 0
M  V30 1883 C 178.834 5.33031 -0.422083 0
M  V30 1884 C 180.134 4.59603 -2.48118 0
M  V30 1885 H 181.828 2.49113 -1.66082 0
M  V30 1886 H 179.374 1.19734 -0.799987 0
M  V30 1887 H 181.327 4.21353 0.0631215 0
M  V30 1888 H 180.051 3.17851 0.750868 0
M  V30 1889 H 178.71 3.40036 -1.37007 0
M  V30 1890 H 178.358 5.00335 0.517072 0
M  V30 1891 H 178.058 5.77999 -1.05788 0
M  V30 1892 H 179.582 6.10325 -0.183277 0
M  V30 1893 H 180.996 5.25552 -2.29059 0
M  V30 1894 H 179.393 5.15321 -3.07514 0
M  V30 1895 H 180.463 3.73971 -3.08665 0
M  V30 1896 N 181.806 0.884767 1.30421 0
M  V30 1897 C 182.769 0.356277 2.26414 0
M  V30 1898 C 183.769 -0.501124 1.52792 0
M  V30 1899 O 184.959 -0.30831 1.7145 0
M  V30 1900 C 182.091 -0.492316 3.37326 0
M  V30 1901 H 183.284 1.20389 2.74675 0
M  V30 1902 H 180.837 0.661607 1.41607 0
M  V30 1903 H 181.572 -1.36052 2.94381 0
M  V30 1904 H 181.357 0.121832 3.91911 0
M  V30 1905 H 182.847 -0.853871 4.08777 0
M  V30 1906 N 183.284 -1.43765 0.645699 0
M  V30 1907 C 184.532 -2.01499 0.155731 0
M  V30 1908 C 184.853 -1.51151 -1.232 0
M  V30 1909 O 184.123 -0.721044 -1.82148 0
M  V30 1910 H 182.703 -0.745003 0.0545817 0
M  V30 1911 H 185.365 -1.76075 0.835677 0
M  V30 1912 H 184.461 -3.1181 0.134577 0
M  V30 1913 N 184.763 -0.387143 -1.52771 0
M  V30 1914 C 186.009 0.196025 -2.0185 0
M  V30 1915 C 186.342 1.46641 -1.27319 0
M  V30 1916 O 185.617 1.90889 -0.373032 0
M  V30 1917 C 185.9 0.466136 -3.5707 0
M  V30 1918 C 185.753 -0.819385 -4.42274 0
M  V30 1919 C 187.072 1.25768 -4.21747 0
M  V30 1920 H 184.191 0.0697708 -0.73369 0
M  V30 1921 H 186.833 -0.516286 -1.82851 0
M  V30 1922 H 184.983 1.07293 -3.7339 0
M  V30 1923 H 186.655 -1.4563 -4.37709 0
M  V30 1924 H 184.898 -1.43517 -4.09372 0
M  V30 1925 H 185.569 -0.585065 -5.48891 0
M  V30 1926 H 188.045 0.744167 -4.09391 0
M  V30 1927 H 186.921 1.41541 -5.30337 0
M  V30 1928 H 187.182 2.27228 -3.79236 0
M  V30 1929 N 186.241 1.57166 -0.116904 0
M  V30 1930 C 187.49 1.94298 0.541407 0
M  V30 1931 C 187.803 1.00236 1.67964 0
M  V30 1932 O 189.009 1.26826 2.40057 0
M  V30 1933 C 187.465 3.45306 1.01449 0
M  V30 1934 C 187.073 4.47899 -0.0951738 0
M  V30 1935 C 188.817 3.91361 1.6443 0
M  V30 1936 C 186.724 5.90083 0.394491 0
M  V30 1937 H 185.654 0.725308 0.206019 0
M  V30 1938 H 188.305 1.82446 -0.196419 0
M  V30 1939 H 186.687 3.52385 1.80667 0
M  V30 1940 H 187.861 4.52486 -0.871374 0
M  V30 1941 H 186.176 4.11583 -0.631505 0
M  V30 1942 H 188.773 4.95004 2.02176 0
M  V30 1943 H 189.116 3.3122 2.52189 0
M  V30 1944 H 189.649 3.87073 0.917559 0
M  V30 1945 H 186.388 6.53974 -0.447004 0
M  V30 1946 H 185.908 5.88921 1.13722 0
M  V30 1947 H 187.587 6.41307 0.856399 0
M  V30 1948 N 187.719 -0.156864 1.56817 0
M  V30 1949 C 188.666 -1.19394 1.97519 0
M  V30 1950 C 189.636 -1.4322 0.841265 0
M  V30 1951 O 190.821 -1.55719 1.10255 0
M  V30 1952 C 187.961 -2.52483 2.35258 0
M  V30 1953 C 187.074 -2.35914 3.61896 0
M  V30 1954 C 186.209 -3.61969 3.88782 0
M  V30 1955 C 185.248 -3.40395 5.08722 0
M  V30 1956 N 184.385 -4.58556 5.31668 0
M  V30 1957 H 189.225 -0.839845 2.85921 0
M  V30 1958 H 186.762 -0.403264 1.41464 0
M  V30 1959 H 188.72 -3.30071 2.55165 0
M  V30 1960 H 187.35 -2.85859 1.49949 0
M  V30 1961 H 186.402 -1.49429 3.49821 0
M  V30 1962 H 187.714 -2.15926 4.49641 0
M  V30 1963 H 186.868 -4.47989 4.09135 0
M  V30 1964 H 185.607 -3.84951 2.9944 0
M  V30 1965 H 184.612 -2.52763 4.88253 0
M  V30 1966 H 185.837 -3.18822 5.99608 0
M  V30 1967 H 183.783 -4.81729 4.45279 0
M  V30 1968 H 183.7 -4.41535 6.13664 0
M  V30 1969 H 184.968 -5.45817 5.5651 0
M  V30 1970 N 189.197 -1.51736 -0.425897 0
M  V30 1971 C 190.613 -1.40166 -0.76326 0
M  V30 1972 C 190.813 -0.492962 -1.95377 0
M  V30 1973 O 189.869 0.0475815 -2.52455 0
M  V30 1974 C 191.182 -2.82403 -1.03291 0
M  V30 1975 C 192.73 -2.91632 -1.13665 0
M  V30 1976 C 193.205 -4.34801 -1.43916 0
M  V30 1977 N 194.696 -4.3796 -1.50816 0
M  V30 1978 C 195.431 -5.4578 -1.75817 0
M  V30 1979 N 194.927 -6.63744 -1.98534 0
M  V30 1980 N 196.72 -5.33274 -1.77694 0
M  V30 1981 H 188.871 -2.09361 0.358 0
M  V30 1982 H 191.134 -0.942941 0.0978094 0
M  V30 1983 H 190.84 -3.50943 -0.230696 0
M  V30 1984 H 190.714 -3.22428 -1.95754 0
M  V30 1985 H 193.101 -2.23284 -1.92947 0
M  V30 1986 H 193.182 -2.55088 -0.190756 0
M  V30 1987 H 192.826 -5.03703 -0.65157 0
M  V30 1988 H 192.756 -4.68868 -2.39729 0
M  V30 1989 H 195.247 -3.52919 -1.35118 0
M  V30 1990 H 195.56 -7.41704 -2.17013 0
M  V30 1991 H 193.905 -6.66839 -1.95832 0
M  V30 1992 H 197.096 -4.40098 -1.59473 0
M  V30 1993 H 197.269 -6.1738 -1.9684 0
M  V30 1994 N 190.675 0.682077 -1.42076 0
M  V30 1995 C 191.605 1.80796 -1.47767 0
M  V30 1996 C 192.586 1.6677 -0.334954 0
M  V30 1997 O 193.771 1.863 -0.548264 0
M  V30 1998 C 190.901 3.19038 -1.37229 0
M  V30 1999 C 189.855 3.47789 -2.49453 0
M  V30 2000 C 189.181 4.8553 -2.23975 0
M  V30 2001 C 190.481 3.45411 -3.91776 0
M  V30 2002 H 192.175 1.7629 -2.41997 0
M  V30 2003 H 189.721 0.846721 -1.16476 0
M  V30 2004 H 191.674 3.97528 -1.39821 0
M  V30 2005 H 190.398 3.24204 -0.394907 0
M  V30 2006 H 189.057 2.71657 -2.46166 0
M  V30 2007 H 188.705 4.87337 -1.24547 0
M  V30 2008 H 188.405 5.0573 -2.99184 0
M  V30 2009 H 189.929 5.66312 -2.28304 0
M  V30 2010 H 191.343 4.13882 -3.96705 0
M  V30 2011 H 189.74 3.77145 -4.66778 0
M  V30 2012 H 190.81 2.44122 -4.18966 0
M  V30 2013 N 192.153 1.28127 0.917671 0
M  V30 2014 C 193.399 1.16232 1.66918 0
M  V30 2015 C 193.754 -0.28701 1.90247 0
M  V30 2016 O 193.047 -1.20586 1.48895 0
M  V30 2017 C 193.241 1.89018 3.03327 0
M  V30 2018 C 193.07 3.4088 2.9331 0
M  V30 2019 C 191.84 4.10214 2.95047 0
M  V30 2020 C 194.038 4.36689 2.71675 0
M  V30 2021 N 192.02 5.48571 2.75577 0
M  V30 2022 C 193.391 5.62382 2.6101 0
M  V30 2023 C 195.446 4.26661 2.56641 0
M  V30 2024 C 194.149 6.79189 2.36843 0
M  V30 2025 C 196.175 5.432 2.33853 0
M  V30 2026 C 195.537 6.67855 2.23939 0
M  V30 2027 H 191.636 0.48024 0.617166 0
M  V30 2028 H 194.22 1.61727 1.08409 0
M  V30 2029 H 192.391 1.45963 3.59929 0
M  V30 2030 H 194.123 1.69541 3.67475 0
M  V30 2031 H 190.878 3.61762 3.05655 0
M  V30 2032 H 191.302 6.21287 2.68945 0
M  V30 2033 H 195.944 3.30998 2.63059 0
M  V30 2034 H 193.662 7.74926 2.29164 0
M  V30 2035 H 197.248 5.37328 2.23091 0
M  V30 2036 H 196.128 7.56511 2.06546 0
M  V30 2037 N 193.631 -1.12557 1.10312 0
M  V30 2038 C 194.578 -2.18247 0.750781 0
M  V30 2039 C 195.548 -1.63853 -0.272293 0
M  V30 2040 O 196.733 -1.90195 -0.151862 0
M  V30 2041 C 193.873 -3.44591 0.187379 0
M  V30 2042 C 192.986 -4.13046 1.2656 0
M  V30 2043 C 192.121 -5.27034 0.663978 0
M  V30 2044 C 191.16 -5.87353 1.72287 0
M  V30 2045 N 190.297 -6.92757 1.1416 0
M  V30 2046 H 195.137 -2.47732 1.65628 0
M  V30 2047 H 192.674 -1.21629 0.827337 0
M  V30 2048 H 194.632 -4.16904 -0.157148 0
M  V30 2049 H 193.262 -3.15527 -0.681355 0
M  V30 2050 H 192.314 -3.38924 1.72727 0
M  V30 2051 H 193.626 -4.53947 2.06721 0
M  V30 2052 H 192.78 -6.06104 0.268824 0
M  V30 2053 H 191.519 -4.87407 -0.169082 0
M  V30 2054 H 190.524 -5.06971 2.12746 0
M  V30 2055 H 191.749 -6.29051 2.55875 0
M  V30 2056 H 189.695 -6.5517 0.329984 0
M  V30 2057 H 189.612 -7.3225 1.88007 0
M  V30 2058 H 190.88 -7.75658 0.772956 0
M  V30 2059 N 195.109 -0.891671 -1.2995 0
M  V30 2060 C 196.386 -0.433307 -1.9074 0
M  V30 2061 C 196.766 1.08646 -1.80995 0
M  V30 2062 O 196.114 1.92476 -1.23147 0
M  V30 2063 C 196.324 -0.938895 -3.36134 0
M  V30 2064 C 197.672 -0.977829 -4.13187 0
M  V30 2065 O 198.696 -0.886015 -3.45005 0
M  V30 2066 O 197.555 -1.11453 -5.35015 0
M  V30 2067 H 194.649 -0.133699 -0.816121 0
M  V30 2068 H 197.195 -0.981011 -1.38471 0
M  V30 2069 H 195.967 -1.98281 -3.37343 0
M  V30 2070 H 195.59 -0.37074 -3.95868 0
M  V30 2071 N 196.587 1.43421 -0.653314 0
M  V30 2072 C 197.812 2.06678 -0.172846 0
M  V30 2073 C 198.237 1.48648 1.15262 0
M  V30 2074 O 197.595 0.596457 1.71208 0
M  V30 2075 C 197.643 3.60474 -0.0953184 0
M  V30 2076 O 196.747 4.01487 0.942442 0
M  V30 2077 H 196.088 0.657181 -0.0949155 0
M  V30 2078 H 198.618 1.83925 -0.896265 0
M  V30 2079 H 198.628 4.07905 0.0879728 0
M  V30 2080 H 197.303 4.02088 -1.06291 0
M  V30 2081 H 195.88 3.65646 0.731932 0
M  V30 2082 N 198.065 0.39524 1.52563 0
M  V30 2083 C 199.313 -0.184678 2.01254 0
M  V30 2084 C 199.634 -1.46822 1.28329 0
M  V30 2085 O 198.904 -1.91666 0.405094 0
M  V30 2086 H 197.484 -0.0712355 0.743596 0
M  V30 2087 H 200.146 0.528293 1.87603 0
M  V30 2088 H 199.242 -0.390681 3.09645 0
M  V30 2089 N 199.544 -1.57102 0.125237 0
M  V30 2090 C 200.79 -1.95697 -0.532035 0
M  V30 2091 C 201.123 -1.009 -1.6593 0
M  V30 2092 O 200.398 -0.047347 -1.94442 0
M  V30 2093 C 200.681 -3.44181 -1.05884 0
M  V30 2094 C 200.534 -4.49752 0.0654392 0
M  V30 2095 C 201.853 -3.94655 -1.9477 0
M  V30 2096 H 198.972 -0.711571 -0.191925 0
M  V30 2097 H 201.614 -1.88923 0.20206 0
M  V30 2098 H 199.764 -3.50085 -1.68442 0
M  V30 2099 H 201.436 -4.55943 0.700982 0
M  V30 2100 H 199.679 -4.27653 0.727709 0
M  V30 2101 H 200.35 -5.50924 -0.344505 0
M  V30 2102 H 202.826 -3.91094 -1.42074 0
M  V30 2103 H 201.702 -4.99057 -2.28546 0
M  V30 2104 H 201.963 -3.35718 -2.87656 0
M  V30 2105 N 201.022 0.148545 -1.56898 0
M  V30 2106 C 201.954 1.20852 -1.9475 0
M  V30 2107 C 202.967 1.39265 -0.843152 0
M  V30 2108 O 204.156 1.38864 -1.12156 0
M  V30 2109 C 201.256 2.57362 -2.20495 0
M  V30 2110 C 200.429 2.59947 -3.51776 0
M  V30 2111 C 199.488 3.77984 -3.6608 0
M  V30 2112 O 198.514 3.62929 -4.38487 0
M  V30 2113 N 199.716 4.95375 -3.02629 0
M  V30 2114 H 202.481 0.886804 -2.86279 0
M  V30 2115 H 200.042 0.338121 -1.5833 0
M  V30 2116 H 202.034 3.34833 -2.27307 0
M  V30 2117 H 200.604 2.81832 -1.35238 0
M  V30 2118 H 199.824 1.68403 -3.56419 0
M  V30 2119 H 201.112 2.58704 -4.38121 0
M  V30 2120 H 200.51 5.10509 -2.43715 0
M  V30 2121 H 199.067 5.70627 -3.15004 0
M  V30 2122 N 202.5 1.5196 0.417844 0
M  V30 2123 C 203.463 1.74065 1.49111 0
M  V30 2124 C 204.463 0.610537 1.48758 0
M  V30 2125 O 205.653 0.87832 1.50437 0
M  V30 2126 C 202.785 1.81502 2.88565 0
M  V30 2127 H 203.978 2.69869 1.30807 0
M  V30 2128 H 201.531 1.42244 0.647785 0
M  V30 2129 H 202.266 0.875813 3.1225 0
M  V30 2130 H 202.051 2.63651 2.90225 0
M  V30 2131 H 203.541 2.00376 3.66387 0
M  V30 2132 N 203.978 -0.674533 1.42435 0
M  V30 2133 C 205.218 -1.4466 1.44405 0
M  V30 2134 C 205.582 -1.91911 0.0585784 0
M  V30 2135 O 206.783 -2.68759 -0.0469991 0
M  V30 2136 C 205.054 -2.61136 2.44013 0
M  V30 2137 S 206.613 -3.49981 2.64687 0
M  V30 2138 H 203.431 -0.494074 0.511284 0
M  V30 2139 H 206.033 -0.785162 1.7904 0
M  V30 2140 H 204.737 -2.24662 3.43446 0
M  V30 2141 H 204.268 -3.32153 2.10803 0
M  V30 2142 H 206.283 -4.57124 1.93007 0
M  V30 2143 N 205.456 -1.28612 -0.910864 0
M  V30 2144 C 206.703 -1.15934 -1.66029 0
M  V30 2145 C 207.031 0.291483 -1.92303 0
M  V30 2146 O 206.286 1.22816 -1.52364 0
M  V30 2147 C 206.585 -1.90624 -3.0232 0
M  V30 2148 C 206.251 -3.40405 -2.95695 0
M  V30 2149 C 204.913 -3.81255 -2.93595 0
M  V30 2150 C 207.265 -4.359 -2.85728 0
M  V30 2151 C 204.593 -5.15936 -2.79334 0
M  V30 2152 C 206.945 -5.70657 -2.73007 0
M  V30 2153 C 205.609 -6.10779 -2.69267 0
M  V30 2154 H 204.879 -0.424234 -0.607541 0
M  V30 2155 H 207.526 -1.5942 -1.06101 0
M  V30 2156 H 205.831 -1.39696 -3.6605 0
M  V30 2157 H 207.528 -1.78228 -3.59215 0
M  V30 2158 H 204.118 -3.07927 -2.98125 0
M  V30 2159 H 208.302 -4.053 -2.86436 0
M  V30 2160 H 203.558 -5.46146 -2.74835 0
M  V30 2161 H 207.732 -6.44311 -2.64264 0
M  V30 2162 H 205.359 -7.1509 -2.57974 0
M  V30 2163 N 206.934 1.1197 -1.10907 0
M  V30 2164 C 207.882 2.19927 -0.757303 0
M  V30 2165 C 208.876 1.67564 0.248747 0
M  V30 2166 O 210.082 1.79672 0.108605 0
M  V30 2167 H 206.457 0.716925 -0.226987 0
M  V30 2168 H 208.428 2.46847 -1.67658 0
M  V30 2169 C 207.177 3.47061 -0.210671 0
M  V30 2170 H 206.5 3.87703 -0.976049 0
M  V30 2171 H 207.94 4.24 -0.0026584 0
M  V30 2172 C 206.399 3.19864 1.05777 0
M  V30 2173 O 206.929 3.40049 2.13845 0
M  V30 2174 N 205.135 2.73636 0.978349 0
M  V30 2175 H 204.682 2.5741 0.0988246 0
M  V30 2176 H 204.64 2.55815 1.82773 0
M  V30 2177 N 208.412 0.89855 1.29475 0
M  V30 2178 C 209.828 0.594483 1.48115 0
M  V30 2179 C 210.028 -0.86431 1.82022 0
M  V30 2180 O 209.084 -1.64457 1.91599 0
M  V30 2181 C 210.397 1.51932 2.59494 0
M  V30 2182 C 211.945 1.5244 2.7337 0
M  V30 2183 C 212.42 2.43548 3.87877 0
M  V30 2184 N 213.911 2.41589 3.95208 0
M  V30 2185 C 214.646 3.08789 4.83153 0
M  V30 2186 N 214.142 3.85265 5.75798 0
M  V30 2187 N 215.935 2.97952 4.76635 0
M  V30 2188 H 208.086 1.84207 1.05742 0
M  V30 2189 H 210.349 0.789251 0.525154 0
M  V30 2190 H 210.055 2.55865 2.41301 0
M  V30 2191 H 209.929 1.23899 3.56271 0
M  V30 2192 H 212.316 0.492518 2.90961 0
M  V30 2193 H 212.397 1.8451 1.77172 0
M  V30 2194 H 212.041 3.46829 3.71041 0
M  V30 2195 H 211.971 2.08788 4.83441 0
M  V30 2196 H 214.462 1.86025 3.28943 0
M  V30 2197 H 214.775 4.33598 6.39697 0
M  V30 2198 H 213.12 3.89371 5.75687 0
M  V30 2199 H 216.311 2.37723 4.03244 0
M  V30 2200 H 216.484 3.50599 5.44962 0
M  V30 2201 N 209.89 -1.43072 0.660911 0
M  V30 2202 C 211.115 -2.06584 0.183805 0
M  V30 2203 C 211.54 -1.49257 -1.14472 0
M  V30 2204 O 210.898 -0.605528 -1.70889 0
M  V30 2205 C 210.946 -3.60418 0.114434 0
M  V30 2206 O 210.05 -4.01981 -0.921137 0
M  V30 2207 H 209.391 -0.656669 0.0983994 0
M  V30 2208 H 211.921 -1.83447 0.906006 0
M  V30 2209 H 211.931 -4.07946 -0.0663394 0
M  V30 2210 H 210.606 -4.01519 1.08422 0
M  V30 2211 H 209.183 -3.66029 -0.71253 0
M  V30 2212 N 211.368 -0.403325 -1.52352 0
M  V30 2213 C 212.784 -0.0539281 -1.59509 0
M  V30 2214 C 212.984 1.43307 -1.41652 0
M  V30 2215 O 212.04 2.19924 -1.24056 0
M  V30 2216 C 213.353 -0.543654 -2.95745 0
M  V30 2217 C 214.901 -0.501125 -3.08962 0
M  V30 2218 C 215.376 -0.967267 -4.47669 0
M  V30 2219 N 216.867 -0.923849 -4.53893 0
M  V30 2220 C 217.602 -1.25578 -5.5948 0
M  V30 2221 N 217.098 -1.65889 -6.72646 0
M  V30 2222 N 218.891 -1.17613 -5.49658 0
M  V30 2223 H 211.042 -1.37123 -1.62206 0
M  V30 2224 H 213.305 -0.56294 -0.76276 0
M  V30 2225 H 213.011 -1.58275 -3.14073 0
M  V30 2226 H 212.885 0.0498042 -3.77167 0
M  V30 2227 H 215.272 0.528909 -2.90321 0
M  V30 2228 H 215.353 -1.13056 -2.2946 0
M  V30 2229 H 214.997 -1.9956 -4.67053 0
M  V30 2230 H 214.927 -0.314698 -5.25659 0
M  V30 2231 H 217.418 -0.627403 -3.72655 0
M  V30 2232 H 217.731 -1.89543 -7.49195 0
M  V30 2233 H 216.076 -1.69787 -6.73942 0
M  V30 2234 H 219.267 -0.860115 -4.6013 0
M  V30 2235 H 219.44 -1.43812 -6.3184 0
M  V30 2236 N 212.846 1.57033 -0.133567 0
M  V30 2237 C 213.756 2.19632 0.824564 0
M  V30 2238 C 214.772 1.17666 1.28182 0
M  V30 2239 O 215.948 1.50193 1.3418 0
M  V30 2240 C 213.013 2.79499 2.05137 0
M  V30 2241 C 212.074 3.96548 1.64464 0
M  V30 2242 C 211.307 4.5355 2.81297 0
M  V30 2243 O 211.53 4.09438 3.97136 0
M  V30 2244 O 210.464 5.44018 2.57542 0
M  V30 2245 H 214.29 3.01991 0.321766 0
M  V30 2246 H 211.875 1.49112 0.0927889 0
M  V30 2247 H 213.757 3.17602 2.7696 0
M  V30 2248 H 212.432 2.00162 2.54395 0
M  V30 2249 H 211.339 3.63186 0.897048 0
M  V30 2250 H 212.672 4.77364 1.19934 0
M  V30 2251 N 214.325 -0.140222 1.56975 0
M  V30 2252 C 215.555 -0.865181 1.87612 0
M  V30 2253 C 215.963 -1.74942 0.72055 0
M  V30 2254 O 215.306 -1.80917 -0.318561 0
M  V30 2255 C 215.368 -1.76782 3.13031 0
M  V30 2256 C 215.032 -1.06005 4.44536 0
M  V30 2257 C 216.029 -0.410768 5.18275 0
M  V30 2258 C 213.714 -1.04754 4.91255 0
M  V30 2259 C 215.708 0.241572 6.36942 0
M  V30 2260 C 213.395 -0.391394 6.09845 0
M  V30 2261 C 214.393 0.252029 6.82535 0
M  V30 2262 O 214.081 0.897757 7.98871 0
M  V30 2263 H 213.813 -0.255188 0.625983 0
M  V30 2264 H 216.367 -0.135653 2.04952 0
M  V30 2265 H 214.597 -2.53846 2.91718 0
M  V30 2266 H 216.286 -2.36533 3.29859 0
M  V30 2267 H 217.052 -0.412195 4.83245 0
M  V30 2268 H 212.931 -1.53777 4.34596 0
M  V30 2269 H 216.475 0.744375 6.93617 0
M  V30 2270 H 212.372 -0.387656 6.44335 0
M  V30 2271 H 213.14 0.800102 8.1458 0
M  V30 2272 N 215.803 -1.52179 -0.40978 0
M  V30 2273 C 216.735 -1.71703 -1.51825 0
M  V30 2274 C 217.748 -0.597445 -1.51441 0
M  V30 2275 O 218.937 -0.872582 -1.55719 0
M  V30 2276 C 216.037 -1.74171 -2.90719 0
M  V30 2277 C 215.21 -3.03156 -3.15302 0
M  V30 2278 C 214.269 -2.97445 -4.34065 0
M  V30 2279 O 213.295 -3.71352 -4.31377 0
M  V30 2280 N 214.497 -2.15191 -5.39141 0
M  V30 2281 H 217.262 -2.67334 -1.35472 0
M  V30 2282 H 214.823 -1.50409 -0.599069 0
M  V30 2283 H 216.815 -1.67884 -3.68235 0
M  V30 2284 H 215.385 -0.860166 -3.00533 0
M  V30 2285 H 214.605 -3.23097 -2.25836 0
M  V30 2286 H 215.893 -3.88484 -3.28569 0
M  V30 2287 H 215.291 -1.54573 -5.44173 0
M  V30 2288 H 213.848 -2.1476 -6.15403 0
M  V30 2289 N 217.281 0.66697 -1.42791 0
M  V30 2290 C 218.211 1.79218 -1.49677 0
M  V30 2291 C 219.192 1.66405 -0.352623 0
M  V30 2292 O 220.377 1.85708 -0.567993 0
M  V30 2293 C 217.507 3.17565 -1.40605 0
M  V30 2294 C 216.461 3.45124 -2.53127 0
M  V30 2295 C 215.787 4.83127 -2.29112 0
M  V30 2296 C 217.087 3.41236 -3.95418 0
M  V30 2297 H 218.781 1.73713 -2.43853 0
M  V30 2298 H 216.327 0.83432 -1.17367 0
M  V30 2299 H 218.28 3.96022 -1.44029 0
M  V30 2300 H 217.004 3.23767 -0.429271 0
M  V30 2301 H 215.663 2.69031 -2.49034 0
M  V30 2302 H 215.311 4.85988 -1.29709 0
M  V30 2303 H 215.011 5.02528 -3.04531 0
M  V30 2304 H 216.535 5.63859 -2.34297 0
M  V30 2305 H 217.949 4.09651 -4.01073 0
M  V30 2306 H 216.346 3.72173 -4.70752 0
M  V30 2307 H 217.416 2.39665 -4.21532 0
M  V30 2308 N 218.759 1.29093 0.90403 0
M  V30 2309 C 219.707 1.13727 2.02901 0
M  V30 2310 C 220.701 0.0539853 1.69314 0
M  V30 2311 O 221.907 0.213469 1.7873 0
M  V30 2312 H 218.282 0.35117 0.664969 0
M  V30 2313 H 220.253 2.08982 2.13001 0
M  V30 2314 C 219.002 0.826066 3.37745 0
M  V30 2315 H 218.325 1.65164 3.64089 0
M  V30 2316 H 219.765 0.758559 4.17159 0
M  V30 2317 C 218.224 -0.470541 3.33598 0
M  V30 2318 O 218.754 -1.49792 3.72727 0
M  V30 2319 N 216.96 -0.474812 2.86695 0
M  V30 2320 H 216.507 0.361692 2.55048 0
M  V30 2321 H 216.465 -1.34236 2.84303 0
M  V30 2322 N 220.237 -1.11381 1.11499 0
M  V30 2323 C 221.514 -1.7955 0.775965 0
M  V30 2324 C 221.894 -1.97859 -0.73588 0
M  V30 2325 O 221.242 -1.56376 -1.66609 0
M  V30 2326 C 221.452 -3.13196 1.53977 0
M  V30 2327 C 222.8 -3.88227 1.71944 0
M  V30 2328 O 223.824 -3.22887 1.50407 0
M  V30 2329 O 222.683 -5.05477 2.07738 0
M  V30 2330 H 219.777 -0.777728 0.28119 0
M  V30 2331 H 222.323 -1.18118 1.21845 0
M  V30 2332 H 221.095 -2.95229 2.56818 0
M  V30 2333 H 220.718 -3.82342 1.09088 0
M  V30 2334 N 221.715 -0.905404 -1.28997 0
M  V30 2335 C 222.94 -0.549175 -1.99997 0
M  V30 2336 C 223.365 0.860276 -1.67275 0
M  V30 2337 O 222.723 1.57355 -0.900502 0
M  V30 2338 C 222.771 -0.755185 -3.52604 0
M  V30 2339 O 221.875 0.189692 -4.11964 0
M  V30 2340 H 221.216 -0.213899 -0.628604 0
M  V30 2341 H 223.746 -1.21856 -1.64354 0
M  V30 2342 H 223.756 -0.662045 -4.02593 0
M  V30 2343 H 222.431 -1.78271 -3.75755 0
M  V30 2344 H 221.008 0.0485257 -3.72868 0
M  V30 2345 N 223.193 1.4272 -0.668489 0
M  V30 2346 C 224.156 2.292 0.00448567 0
M  V30 2347 C 225.156 1.43001 0.735339 0
M  V30 2348 O 226.346 1.64461 0.57429 0
M  V30 2349 C 223.478 3.25375 1.01705 0
M  V30 2350 H 224.671 2.90199 -0.756608 0
M  V30 2351 H 222.224 1.50254 -0.430506 0
M  V30 2352 H 222.959 2.69301 1.80686 0
M  V30 2353 H 222.744 3.88944 0.496463 0
M  V30 2354 H 224.234 3.90245 1.48655 0
M  V30 2355 N 224.671 0.411399 1.52136 0
M  V30 2356 C 225.634 -0.401089 2.25663 0
M  V30 2357 C 226.634 -0.971732 1.28117 0
M  V30 2358 O 227.824 -0.850254 1.52041 0
M  V30 2359 C 224.956 -1.56483 3.02863 0
M  V30 2360 H 226.149 0.24295 2.98914 0
M  V30 2361 H 223.702 0.163968 1.55438 0
M  V30 2362 H 224.437 -2.24567 2.33967 0
M  V30 2363 H 224.222 -1.16211 3.74483 0
M  V30 2364 H 225.712 -2.13951 3.58629 0
M  V30 2365 N 226.149 -1.5696 0.141893 0
M  V30 2366 C 227.379 -2.00031 -0.516828 0
M  V30 2367 C 227.787 -1.02091 -1.59293 0
M  V30 2368 O 227.13 -0.00909657 -1.83698 0
M  V30 2369 C 227.192 -3.39534 -1.1814 0
M  V30 2370 C 226.856 -4.56313 -0.250513 0
M  V30 2371 C 227.853 -5.17295 0.519839 0
M  V30 2372 C 225.538 -5.02061 -0.154907 0
M  V30 2373 C 227.532 -6.2243 1.3733 0
M  V30 2374 C 225.219 -6.07053 0.702161 0
M  V30 2375 C 226.217 -6.67106 1.46487 0
M  V30 2376 O 225.905 -7.70066 2.30767 0
M  V30 2377 H 225.637 -0.661451 -0.139493 0
M  V30 2378 H 228.191 -2.04086 0.231926 0
M  V30 2379 H 226.421 -3.32302 -1.97769 0
M  V30 2380 H 228.11 -3.66745 -1.73933 0
M  V30 2381 H 228.876 -4.82852 0.45598 0
M  V30 2382 H 224.755 -4.5505 -0.7383 0
M  V30 2383 H 228.299 -6.69233 1.96909 0
M  V30 2384 H 224.196 -6.40923 0.76733 0
M  V30 2385 H 224.964 -7.87264 2.23959 0
M  V30 2386 N 227.627 0.131896 -1.57047 0
M  V30 2387 C 228.857 0.855219 -1.88068 0
M  V30 2388 C 229.265 1.74557 -0.729817 0
M  V30 2389 O 228.608 1.81083 0.308962 0
M  V30 2390 C 228.67 1.75119 -3.13964 0
M  V30 2391 C 228.334 1.03646 -4.45091 0
M  V30 2392 C 229.331 0.383276 -5.18485 0
M  V30 2393 C 227.016 1.02148 -4.91804 0
M  V30 2394 C 229.01 -0.275347 -6.36805 0
M  V30 2395 C 226.697 0.359047 -6.10044 0
M  V30 2396 C 227.695 -0.288222 -6.82392 0
M  V30 2397 O 227.383 -0.94011 -7.98384 0
M  V30 2398 H 227.115 0.251864 -0.627328 0
M  V30 2399 H 229.669 0.124782 -2.05021 0
M  V30 2400 H 227.899 2.52295 -2.9306 0
M  V30 2401 H 229.588 2.3478 -3.31109 0
M  V30 2402 H 230.354 0.386562 -4.83457 0
M  V30 2403 H 226.233 1.5147 -4.35405 0
M  V30 2404 H 229.777 -0.781148 -6.93213 0
M  V30 2405 H 225.674 0.35348 -6.44531 0
M  V30 2406 H 226.442 -0.84329 -8.14144 0
M  V30 2407 N 229.106 1.52395 0.401703 0
M  V30 2408 C 230.036 1.79231 1.49661 0
M  V30 2409 C 231.017 0.643654 1.57452 0
M  V30 2410 O 232.202 0.889989 1.72606 0
M  V30 2411 C 229.332 1.94971 2.87409 0
M  V30 2412 C 228.286 3.10604 2.94465 0
M  V30 2413 C 227.612 3.11577 4.34538 0
M  V30 2414 C 228.912 4.49921 2.6527 0
M  V30 2415 H 230.606 2.70917 1.27454 0
M  V30 2416 H 228.152 1.30362 0.6117 0
M  V30 2417 H 230.105 2.12328 3.63999 0
M  V30 2418 H 228.829 0.999632 3.10926 0
M  V30 2419 H 227.488 2.93009 2.20321 0
M  V30 2420 H 227.136 2.14277 4.55076 0
M  V30 2421 H 226.836 3.89247 4.40183 0
M  V30 2422 H 228.36 3.31073 5.13053 0
M  V30 2423 H 229.774 4.67683 3.31581 0
M  V30 2424 H 228.171 5.29564 2.82281 0
M  V30 2425 H 229.241 4.57507 1.60671 0
M  V30 2426 N 230.584 -0.659388 1.43143 0
M  V30 2427 C 231.532 -1.79374 1.4808 0
M  V30 2428 C 232.526 -1.65639 0.354988 0
M  V30 2429 O 233.732 -1.7206 0.528704 0
M  V30 2430 H 230.107 -0.591705 0.4641 0
M  V30 2431 H 232.078 -1.72329 2.43609 0
M  V30 2432 C 230.827 -3.17606 1.41499 0
M  V30 2433 H 230.15 -3.28809 2.27431 0
M  V30 2434 H 231.59 -3.96951 1.49015 0
M  V30 2435 C 230.049 -3.36642 0.131765 0
M  V30 2436 O 230.579 -3.93461 -0.809386 0
M  V30 2437 N 228.785 -2.90567 0.0439396 0
M  V30 2438 H 228.332 -2.44513 0.810619 0
M  V30 2439 H 228.29 -3.03681 -0.813969 0
M  V30 2440 N 232.062 -1.29571 -0.897171 0
M  V30 2441 C 233.339 -1.08365 -1.62839 0
M  V30 2442 C 233.719 0.371331 -2.07808 0
M  V30 2443 O 233.067 1.3606 -1.83576 0
M  V30 2444 C 233.277 -2.0735 -2.80726 0
M  V30 2445 C 234.625 -2.38406 -3.51351 0
M  V30 2446 O 235.649 -2.05564 -2.90898 0
M  V30 2447 O 234.508 -2.9453 -4.60341 0
M  V30 2448 H 231.602 -0.415345 -0.715134 0
M  V30 2449 H 234.148 -1.40952 -0.945018 0
M  V30 2450 H 232.92 -3.05339 -2.44711 0
M  V30 2451 H 232.543 -1.75507 -3.56767 0
M  V30 2452 N 233.54 1.10788 -1.12088 0
M  V30 2453 C 234.47 2.19083 -0.807755 0
M  V30 2454 C 235.451 1.6858 0.226859 0
M  V30 2455 O 236.636 1.93997 0.0888475 0
M  V30 2456 C 233.766 3.46344 -0.257576 0
M  V30 2457 C 232.72 4.101 -1.22483 0
M  V30 2458 C 232.046 5.32016 -0.535052 0
M  V30 2459 C 233.346 4.54236 -2.57811 0
M  V30 2460 H 235.04 2.45534 -1.71328 0
M  V30 2461 H 232.586 1.1801 -0.825205 0
M  V30 2462 H 234.539 4.21392 -0.0262679 0
M  V30 2463 H 233.263 3.19373 0.683278 0
M  V30 2464 H 231.922 3.37054 -1.44189 0
M  V30 2465 H 231.57 5.01319 0.410827 0
M  V30 2466 H 231.27 5.75625 -1.18024 0
M  V30 2467 H 232.794 6.09799 -0.312695 0
M  V30 2468 H 234.208 5.20575 -2.40155 0
M  V30 2469 H 232.605 5.08682 -3.18375 0
M  V30 2470 H 233.675 3.6734 -3.16528 0
M  V30 2471 N 235.018 0.912232 1.28515 0
M  V30 2472 C 236.295 0.463597 1.90027 0
M  V30 2473 C 236.675 -1.05753 1.82701 0
M  V30 2474 O 236.023 -1.90492 1.26194 0
M  V30 2475 C 236.233 0.992253 3.34597 0
M  V30 2476 C 237.581 1.04344 4.11579 0
M  V30 2477 O 238.605 0.94079 3.43551 0
M  V30 2478 O 237.464 1.1995 5.33174 0
M  V30 2479 H 234.558 0.146666 0.813891 0
M  V30 2480 H 237.104 1.00292 1.36893 0
M  V30 2481 H 235.876 2.03623 3.34146 0
M  V30 2482 H 235.499 0.433672 3.95228 0
M  V30 2483 N 236.496 -1.42363 0.676048 0
M  V30 2484 C 237.912 -1.55811 0.345718 0
M  V30 2485 C 238.112 -1.65544 -1.14879 0
M  V30 2486 O 237.168 -1.62306 -1.93424 0
M  V30 2487 C 238.481 -2.80746 1.07713 0
M  V30 2488 C 240.029 -2.9452 1.05958 0
M  V30 2489 C 240.504 -4.22318 1.77233 0
M  V30 2490 N 241.995 -4.29233 1.74108 0
M  V30 2491 C 242.73 -5.26935 2.26113 0
M  V30 2492 N 242.226 -6.30783 2.86505 0
M  V30 2493 N 244.019 -5.18741 2.1648 0
M  V30 2494 H 236.17 -1.34289 1.6456 0
M  V30 2495 H 238.433 -0.646506 0.69335 0
M  V30 2496 H 238.139 -2.79696 2.13221 0
M  V30 2497 H 238.013 -3.71676 0.64316 0
M  V30 2498 H 240.4 -2.95097 0.0128255 0
M  V30 2499 H 240.481 -2.04817 1.53244 0
M  V30 2500 H 240.125 -4.22502 2.81877 0
M  V30 2501 H 240.055 -5.10958 1.27396 0
M  V30 2502 H 242.546 -3.54814 1.30059 0
M  V30 2503 H 242.859 -7.01691 3.23805 0
M  V30 2504 H 241.204 -6.31341 2.90575 0
M  V30 2505 H 244.395 -4.36533 1.68987 0
M  V30 2506 H 244.568 -5.94721 2.57316 0
M  V30 2507 N 237.974 -0.419461 -1.51915 0
M  V30 2508 C 239.223 0.154346 -2.01109 0
M  V30 2509 C 239.536 1.45338 -1.30905 0
M  V30 2510 O 240.742 2.10906 -1.7097 0
M  V30 2511 C 239.198 0.325615 -3.58424 0
M  V30 2512 C 238.806 -0.961934 -4.37551 0
M  V30 2513 C 240.55 0.854155 -4.15818 0
M  V30 2514 C 238.457 -0.757287 -5.86531 0
M  V30 2515 H 237.387 0.0614563 -0.751491 0
M  V30 2516 H 240.038 -0.54649 -1.75173 0
M  V30 2517 H 238.42 1.08903 -3.80731 0
M  V30 2518 H 239.594 -1.7323 -4.26999 0
M  V30 2519 H 237.909 -1.41766 -3.91524 0
M  V30 2520 H 240.506 1.02346 -5.24814 0
M  V30 2521 H 240.849 1.83172 -3.73837 0
M  V30 2522 H 241.382 0.149528 -3.97519 0
M  V30 2523 H 238.121 -1.70671 -6.32892 0
M  V30 2524 H 237.641 -0.0264061 -5.99794 0
M  V30 2525 H 239.32 -0.403482 -6.45741 0
M  V30 2526 N 239.452 1.56882 -0.150215 0
M  V30 2527 C 240.415 2.1573 0.774157 0
M  V30 2528 C 241.415 1.0999 1.17298 0
M  V30 2529 O 242.605 1.35613 1.09338 0
M  V30 2530 C 239.737 2.72302 2.05096 0
M  V30 2531 H 240.93 2.98752 0.262201 0
M  V30 2532 H 238.483 1.55985 0.099248 0
M  V30 2533 H 239.218 1.92956 2.6065 0
M  V30 2534 H 239.003 3.49665 1.77416 0
M  V30 2535 H 240.493 3.17632 2.71109 0
M  V30 2536 N 240.93 -0.123565 1.57115 0
M  V30 2537 C 241.862 -1.17739 1.96648 0
M  V30 2538 C 242.875 -1.37906 0.865201 0
M  V30 2539 O 244.064 -1.37062 1.14351 0
M  V30 2540 C 241.164 -2.53821 2.24562 0
M  V30 2541 C 240.337 -2.54317 3.55867 0
M  V30 2542 C 239.396 -3.72112 3.72047 0
M  V30 2543 O 238.422 -3.55907 4.44206 0
M  V30 2544 N 239.624 -4.90498 3.10471 0
M  V30 2545 H 242.389 -0.841147 2.87654 0
M  V30 2546 H 239.95 -0.31289 1.58848 0
M  V30 2547 H 241.942 -3.31175 2.32606 0
M  V30 2548 H 240.512 -2.79645 1.39705 0
M  V30 2549 H 239.732 -1.62711 3.59053 0
M  V30 2550 H 241.02 -2.51701 4.42181 0
M  V30 2551 H 240.418 -5.06567 2.51806 0
M  V30 2552 H 238.975 -5.65544 3.24043 0
M  V30 2553 N 242.408 -1.52605 -0.393616 0
M  V30 2554 C 243.819 -1.59417 -0.971761 0
M  V30 2555 C 244.17 -0.444173 -1.91106 0
M  V30 2556 O 243.295 0.433382 -2.12016 0
M  V30 2557 C 243.89 -2.88936 -1.76921 0
M  V30 2558 C 242.449 -2.98175 -2.29714 0
M  V30 2559 C 241.596 -2.54491 -1.10135 0
M  V30 2560 H 244.547 -1.57751 -0.173317 0
M  V30 2561 H 244.568 -2.75163 -2.62804 0
M  V30 2562 H 244.08 -3.72616 -1.08532 0
M  V30 2563 H 242.181 -2.19024 -3.01429 0
M  V30 2564 H 242.294 -4.02726 -2.59517 0
M  V30 2565 H 240.658 -2.08702 -1.45999 0
M  V30 2566 H 241.441 -3.4056 -0.432874 0
M  V30 2567 N 243.887 0.651787 -1.4349 0
M  V30 2568 C 244.835 1.78586 -1.49029 0
M  V30 2569 C 245.829 1.65448 -0.363767 0
M  V30 2570 O 247.035 1.71777 -0.537821 0
M  V30 2571 H 243.41 0.589236 -0.467231 0
M  V30 2572 H 245.381 1.71035 -2.44519 0
M  V30 2573 C 244.13 3.16851 -1.43181 0
M  V30 2574 H 243.453 3.27598 -2.29171 0
M  V30 2575 H 244.893 3.96156 -1.51118 0
M  V30 2576 C 243.352 3.36568 -0.149616 0
M  V30 2577 O 243.882 3.93885 0.788509 0
M  V30 2578 N 242.088 2.90539 -0.0593484 0
M  V30 2579 H 241.635 2.4408 -0.823575 0
M  V30 2580 H 241.593 3.04108 0.797853 0
M  V30 2581 N 245.365 1.30045 0.890287 0
M  V30 2582 C 246.595 1.21296 1.67245 0
M  V30 2583 C 247.003 -0.227471 1.87828 0
M  V30 2584 O 246.346 -1.16296 1.422 0
M  V30 2585 C 246.408 1.86519 3.07329 0
M  V30 2586 C 246.072 3.35837 3.09939 0
M  V30 2587 C 247.069 4.31915 2.89389 0
M  V30 2588 C 244.754 3.77196 3.31706 0
M  V30 2589 C 246.748 5.67325 2.90552 0
M  V30 2590 C 244.435 5.12725 3.32499 0
M  V30 2591 C 245.433 6.076 3.11947 0
M  V30 2592 O 245.121 7.40655 3.12547 0
M  V30 2593 H 244.853 0.4211 0.528821 0
M  V30 2594 H 247.407 1.72111 1.12103 0
M  V30 2595 H 245.637 1.30228 3.64112 0
M  V30 2596 H 247.326 1.71963 3.67673 0
M  V30 2597 H 248.092 4.01294 2.72375 0
M  V30 2598 H 243.971 3.03796 3.4674 0
M  V30 2599 H 247.515 6.41354 2.74429 0
M  V30 2600 H 243.412 5.42988 3.49047 0
M  V30 2601 H 244.18 7.49577 3.28749 0
M  V30 2602 N 246.843 -1.10192 1.12674 0
M  V30 2603 C 248.092 -1.81573 0.8783 0
M  V30 2604 C 248.405 -1.86249 -0.597557 0
M  V30 2605 O 249.611 -2.5386 -0.962681 0
M  V30 2606 C 248.067 -3.26149 1.52167 0
M  V30 2607 C 247.675 -3.29763 3.03249 0
M  V30 2608 C 249.419 -4.0234 1.3536 0
M  V30 2609 C 247.326 -4.68815 3.60508 0
M  V30 2610 H 246.256 -0.680394 0.324931 0
M  V30 2611 H 248.907 -1.23902 1.35353 0
M  V30 2612 H 247.289 -3.83832 0.974104 0
M  V30 2613 H 248.463 -2.8189 3.6452 0
M  V30 2614 H 246.778 -2.67059 3.19481 0
M  V30 2615 H 249.375 -5.05058 1.75559 0
M  V30 2616 H 249.718 -4.15235 0.297554 0
M  V30 2617 H 250.251 -3.51079 1.87052 0
M  V30 2618 H 246.99 -4.61121 4.65884 0
M  V30 2619 H 246.51 -5.17045 3.04014 0
M  V30 2620 H 248.189 -5.37785 3.59717 0
M  V30 2621 N 248.321 -0.919034 -1.28029 0
M  V30 2622 C 249.732 -0.600735 -1.76771 0
M  V30 2623 C 250.083 0.884024 -1.75156 0
M  V30 2624 O 249.208 1.69163 -1.34956 0
M  V30 2625 C 249.803 -1.08372 -3.21 0
M  V30 2626 C 248.362 -0.816248 -3.67443 0
M  V30 2627 C 247.509 -1.24742 -2.47658 0
M  V30 2628 H 250.46 -1.09974 -1.14418 0
M  V30 2629 H 250.481 -0.427512 -3.78091 0
M  V30 2630 H 249.993 -2.16437 -3.22144 0
M  V30 2631 H 248.094 0.250968 -3.71754 0
M  V30 2632 H 248.207 -1.4277 -4.57333 0
M  V30 2633 H 246.571 -0.666083 -2.45836 0
M  V30 2634 H 247.354 -2.33653 -2.51518 0
M  V30 2635 N 249.799 1.42003 -0.683588 0
M  V30 2636 C 251.027 2.05746 -0.218182 0
M  V30 2637 C 251.442 1.51396 1.12804 0
M  V30 2638 O 250.799 0.657303 1.70252 0
M  V30 2639 C 250.85 3.61171 -0.154131 0
M  V30 2640 O 250.571 4.13508 -1.44716 0
M  V30 2641 C 252.072 4.42042 0.333713 0
M  V30 2642 H 249.292 0.662888 -0.10402 0
M  V30 2643 H 251.836 1.81987 -0.9328 0
M  V30 2644 H 249.991 3.84012 0.511231 0
M  V30 2645 H 250.405 5.07453 -1.32632 0
M  V30 2646 H 251.879 5.51028 0.327423 0
M  V30 2647 H 252.356 4.17269 1.37053 0
M  V30 2648 H 252.962 4.24239 -0.300222 0
M  V30 2649 N 251.277 0.427512 1.51691 0
M  V30 2650 C 252.209 -0.424521 2.25234 0
M  V30 2651 C 253.222 -0.994671 1.2888 0
M  V30 2652 O 254.411 -0.890483 1.54702 0
M  V30 2653 C 251.511 -1.60479 2.98496 0
M  V30 2654 C 250.684 -1.15527 4.21868 0
M  V30 2655 C 249.743 -2.20454 4.77793 0
M  V30 2656 O 248.769 -1.8029 5.39893 0
M  V30 2657 N 249.971 -3.52831 4.60967 0
M  V30 2658 H 252.736 0.205749 2.98993 0
M  V30 2659 H 250.297 0.255867 1.59865 0
M  V30 2660 H 252.289 -2.30276 3.32799 0
M  V30 2661 H 250.859 -2.14061 2.27809 0
M  V30 2662 H 250.079 -0.284736 3.9317 0
M  V30 2663 H 251.367 -0.832173 5.01949 0
M  V30 2664 H 250.765 -3.88201 4.11481 0
M  V30 2665 H 249.322 -4.18551 4.99658 0
M  V30 2666 N 252.755 -1.56801 0.158532 0
M  V30 2667 C 253.687 -2.14488 -0.807923 0
M  V30 2668 C 254.7 -1.09721 -1.20271 0
M  V30 2669 O 255.889 -1.36956 -1.14478 0
M  V30 2670 C 252.989 -2.66217 -2.09718 0
M  V30 2671 C 252.162 -3.95507 -1.86796 0
M  V30 2672 C 251.221 -4.3243 -2.99818 0
M  V30 2673 O 250.247 -5.00543 -2.71008 0
M  V30 2674 N 251.449 -3.92947 -4.27285 0
M  V30 2675 H 254.214 -2.98042 -0.314816 0
M  V30 2676 H 251.775 -1.61881 -0.0246692 0
M  V30 2677 H 253.767 -2.87924 -2.84398 0
M  V30 2678 H 252.337 -1.87324 -2.50257 0
M  V30 2679 H 251.557 -3.82309 -0.96089 0
M  V30 2680 H 252.845 -4.79972 -1.68833 0
M  V30 2681 H 252.243 -3.38087 -4.53557 0
M  V30 2682 H 250.8 -4.19681 -4.9871 0
M  V30 2683 N 254.233 0.115231 -1.57178 0
M  V30 2684 C 255.51 0.852873 -1.76027 0
M  V30 2685 C 255.89 1.97892 -0.73498 0
M  V30 2686 O 255.238 2.27232 0.24036 0
M  V30 2687 C 255.448 1.36608 -3.21153 0
M  V30 2688 C 256.796 1.81692 -3.83762 0
M  V30 2689 O 257.82 1.46278 -3.24779 0
M  V30 2690 O 256.679 2.47104 -4.87444 0
M  V30 2691 H 253.773 0.405296 -0.720877 0
M  V30 2692 H 256.319 0.0986785 -1.69413 0
M  V30 2693 H 255.091 0.558357 -3.87296 0
M  V30 2694 H 254.714 2.18287 -3.3232 0
M  V30 2695 N 255.711 1.52812 0.385517 0
M  V30 2696 C 256.957 1.68275 1.13188 0
M  V30 2697 C 257.29 0.423179 1.89533 0
M  V30 2698 O 256.565 -0.579113 1.85679 0
M  V30 2699 C 256.848 2.92001 2.1073 0
M  V30 2700 C 256.701 4.28067 1.38125 0
M  V30 2701 C 258.02 3.11283 3.11113 0
M  V30 2702 H 255.139 0.612352 0.410115 0
M  V30 2703 H 257.781 1.85415 0.414869 0
M  V30 2704 H 255.931 2.77519 2.71874 0
M  V30 2705 H 257.603 4.54324 0.799187 0
M  V30 2706 H 255.846 4.28388 0.683092 0
M  V30 2707 H 256.517 5.10733 2.09417 0
M  V30 2708 H 258.993 3.2482 2.6006 0
M  V30 2709 H 257.869 3.99325 3.76605 0
M  V30 2710 H 258.13 2.25656 3.80173 0
M  V30 2711 N 257.189 -0.644168 1.43834 0
M  V30 2712 C 258.119 -1.76814 1.52509 0
M  V30 2713 C 259.1 -1.65823 0.379052 0
M  V30 2714 O 260.285 -1.84781 0.597466 0
M  V30 2715 C 257.415 -3.15288 1.4564 0
M  V30 2716 C 256.369 -3.41053 2.58586 0
M  V30 2717 C 255.695 -4.79421 2.36769 0
M  V30 2718 C 256.995 -3.34902 4.00797 0
M  V30 2719 H 258.689 -1.69812 2.46586 0
M  V30 2720 H 256.235 -0.815542 1.1868 0
M  V30 2721 H 258.188 -3.93681 1.50311 0
M  V30 2722 H 256.912 -3.23043 0.480725 0
M  V30 2723 H 255.571 -2.65035 2.53282 0
M  V30 2724 H 255.219 -4.83863 1.37424 0
M  V30 2725 H 254.919 -4.9762 3.12487 0
M  V30 2726 H 256.443 -5.6006 2.43238 0
M  V30 2727 H 257.857 -4.03218 4.07539 0
M  V30 2728 H 256.254 -3.64637 4.76613 0
M  V30 2729 H 257.324 -2.32928 4.25291 0
M  V30 2730 N 258.668 -1.30515 -0.883378 0
M  V30 2731 C 260.084 -1.08881 -1.16692 0
M  V30 2732 C 260.284 0.149409 -2.00945 0
M  V30 2733 O 259.34 0.84257 -2.38027 0
M  V30 2734 C 260.653 -2.35319 -1.87204 0
M  V30 2735 C 262.201 -2.40799 -1.99962 0
M  V30 2736 C 262.676 -3.67083 -2.73887 0
M  V30 2737 N 264.167 -3.679 -2.81432 0
M  V30 2738 C 264.902 -4.62303 -3.3921 0
M  V30 2739 N 264.398 -5.67052 -3.98025 0
M  V30 2740 N 266.191 -4.49845 -3.3704 0
M  V30 2741 H 258.342 -2.09951 -0.321633 0
M  V30 2742 H 260.605 -0.92556 -0.205043 0
M  V30 2743 H 260.311 -3.25689 -1.3274 0
M  V30 2744 H 260.185 -2.44089 -2.87577 0
M  V30 2745 H 262.572 -1.50907 -2.53597 0
M  V30 2746 H 262.653 -2.36003 -0.98673 0
M  V30 2747 H 262.297 -4.57334 -2.20925 0
M  V30 2748 H 262.227 -3.69141 -3.75556 0
M  V30 2749 H 264.718 -2.92171 -2.39676 0
M  V30 2750 H 265.031 -6.35184 -4.40183 0
M  V30 2751 H 263.376 -5.70842 -3.96439 0
M  V30 2752 H 266.567 -3.67194 -2.90321 0
M  V30 2753 H 266.74 -5.23597 -3.81772 0
M  V30 2754 N 260.146 1.09593 -1.13257 0
M  V30 2755 C 261.374 1.855 -0.916378 0
M  V30 2756 C 261.789 1.81069 0.534738 0
M  V30 2757 O 261.146 1.20562 1.37007 0
M  V30 2758 C 261.197 3.33546 -1.39388 0
M  V30 2759 O 260.918 3.37927 -2.78813 0
M  V30 2760 C 262.419 4.26299 -1.21588 0
M  V30 2761 H 259.639 0.585991 -0.326887 0
M  V30 2762 H 262.183 1.38488 -1.5047 0
M  V30 2763 H 260.338 3.77992 -0.848597 0
M  V30 2764 H 260.752 4.30254 -2.9997 0
M  V30 2765 H 262.226 5.28341 -1.59876 0
M  V30 2766 H 262.703 4.38918 -0.157376 0
M  V30 2767 H 263.309 3.87668 -1.7491 0
M  V30 2768 N 261.624 0.925811 1.2754 0
M  V30 2769 C 263.04 0.625767 1.46821 0
M  V30 2770 C 263.24 -0.825506 1.83814 0
M  V30 2771 O 262.296 -1.60356 1.95044 0
M  V30 2772 C 263.609 1.57402 2.56213 0
M  V30 2773 C 265.157 1.58204 2.70075 0
M  V30 2774 C 265.632 2.51721 3.82623 0
M  V30 2775 N 267.123 2.49917 3.89994 0
M  V30 2776 C 267.858 3.18968 4.76494 0
M  V30 2777 N 267.354 3.97391 5.67496 0
M  V30 2778 N 269.147 3.07996 4.70208 0
M  V30 2779 H 261.298 1.86409 1.01811 0
M  V30 2780 H 263.561 0.800213 0.508295 0
M  V30 2781 H 263.267 2.60925 2.35819 0
M  V30 2782 H 263.141 1.31428 3.53563 0
M  V30 2783 H 265.528 0.554124 2.89851 0
M  V30 2784 H 265.609 1.88226 1.73218 0
M  V30 2785 H 265.253 3.54622 3.63601 0
M  V30 2786 H 265.183 2.18996 4.78903 0
M  V30 2787 H 267.674 1.9296 3.24923 0
M  V30 2788 H 267.987 4.4707 6.30356 0
M  V30 2789 H 266.332 4.01495 5.67298 0
M  V30 2790 H 269.523 2.46223 3.9811 0
M  V30 2791 H 269.696 3.6208 5.37403 0
M  V30 2792 N 263.102 -1.41638 0.69111 0
M  V30 2793 C 264.348 -2.01598 0.220519 0
M  V30 2794 C 264.681 -1.54594 -1.17535 0
M  V30 2795 O 263.956 -0.755177 -1.79241 0
M  V30 2796 C 264.239 -3.59062 0.273243 0
M  V30 2797 C 264.092 -4.16203 1.70573 0
M  V30 2798 C 265.411 -4.38546 -0.369457 0
M  V30 2799 H 262.53 -0.732468 0.0816045 0
M  V30 2800 H 265.172 -1.68445 0.878986 0
M  V30 2801 H 263.322 -3.87435 -0.287411 0
M  V30 2802 H 264.994 -3.98722 2.31989 0
M  V30 2803 H 263.237 -3.71414 2.2413 0
M  V30 2804 H 263.908 -5.25358 1.69419 0
M  V30 2805 H 266.384 -4.1596 0.107977 0
M  V30 2806 H 265.26 -5.48069 -0.302002 0
M  V30 2807 H 265.521 -4.17662 -1.44951 0
M  V30 2808 N 264.58 -0.43555 -1.51462 0
M  V30 2809 C 265.527 0.376797 -2.27703 0
M  V30 2810 C 266.497 1.01838 -1.31219 0
M  V30 2811 O 267.682 1.03762 -1.60119 0
M  V30 2812 C 264.822 1.47301 -3.12084 0
M  V30 2813 C 263.935 0.849744 -4.2356 0
M  V30 2814 C 263.07 1.92086 -4.95254 0
M  V30 2815 C 262.109 1.27593 -5.98654 0
M  V30 2816 N 261.246 2.28833 -6.63762 0
M  V30 2817 H 266.086 -0.279734 -2.96684 0
M  V30 2818 H 263.623 -0.149795 -1.46335 0
M  V30 2819 H 265.581 2.11984 -3.59331 0
M  V30 2820 H 264.211 2.0992 -2.45221 0
M  V30 2821 H 263.263 0.0912529 -3.80291 0
M  V30 2822 H 264.575 0.338878 -4.97648 0
M  V30 2823 H 263.729 2.64435 -5.46039 0
M  V30 2824 H 262.468 2.46545 -4.20793 0
M  V30 2825 H 261.473 0.537893 -5.47162 0
M  V30 2826 H 262.698 0.738693 -6.7507 0
M  V30 2827 H 260.644 2.82375 -5.92115 0
M  V30 2828 H 260.561 1.82632 -7.33608 0
M  V30 2829 H 261.829 3.00671 -7.19178 0
M  V30 2830 N 266.058 1.56714 -0.166846 0
M  V30 2831 C 267.286 2.0112 0.485644 0
M  V30 2832 C 267.701 1.04705 1.57106 0
M  V30 2833 O 267.058 0.0471923 1.82439 0
M  V30 2834 C 267.109 3.45361 1.06808 0
M  V30 2835 O 266.83 4.38092 0.0259995 0
M  V30 2836 C 268.331 4.05145 1.79924 0
M  V30 2837 H 265.551 0.65931 0.124704 0
M  V30 2838 H 268.095 2.02746 -0.267262 0
M  V30 2839 H 266.25 3.44524 1.7715 0
M  V30 2840 H 266.664 5.22519 0.455398 0
M  V30 2841 H 268.138 5.08009 2.15942 0
M  V30 2842 H 268.615 3.46982 2.69258 0
M  V30 2843 H 269.221 4.09672 1.14234 0
M  V30 2844 N 267.536 -0.106894 1.57237 0
M  V30 2845 C 268.764 -0.826389 1.8968 0
M  V30 2846 C 269.179 -1.72856 0.759353 0
M  V30 2847 O 268.536 -1.80503 -0.269263 0
M  V30 2848 C 268.587 -1.64967 3.21665 0
M  V30 2849 O 268.308 -0.783804 4.31031 0
M  V30 2850 C 269.809 -2.47326 3.67892 0
M  V30 2851 H 267.029 -0.236927 0.627779 0
M  V30 2852 H 269.573 -0.0876593 2.04312 0
M  V30 2853 H 267.728 -2.34103 3.08666 0
M  V30 2854 H 268.142 -1.35284 5.06753 0
M  V30 2855 H 269.616 -3.00604 4.6297 0
M  V30 2856 H 270.093 -3.25247 2.95146 0
M  V30 2857 H 270.699 -1.83411 3.83719 0
M  V30 2858 N 269.014 -1.53014 -0.377408 0
M  V30 2859 C 270.262 -1.6829 -1.11906 0
M  V30 2860 C 270.583 -0.431206 -1.90173 0
M  V30 2861 O 269.853 0.554595 -1.87886 0
M  V30 2862 H 268.433 -0.620371 -0.416112 0
M  V30 2863 H 271.095 -1.90167 -0.426893 0
M  V30 2864 H 270.191 -2.53862 -1.8155 0
M  V30 2865 N 270.492 0.636531 -1.44174 0
M  V30 2866 C 271.741 1.39213 -1.45954 0
M  V30 2867 C 272.054 1.95374 -0.0939119 0
M  V30 2868 O 273.26 2.71498 0.0107767 0
M  V30 2869 C 271.716 2.52025 -2.56927 0
M  V30 2870 C 271.324 2.024 -3.99673 0
M  V30 2871 C 273.068 3.29269 -2.67922 0
M  V30 2872 C 270.975 3.12521 -5.0208 0
M  V30 2873 H 269.905 0.523132 -0.542999 0
M  V30 2874 H 272.556 0.685349 -1.70221 0
M  V30 2875 H 270.938 3.25253 -2.25891 0
M  V30 2876 H 272.112 1.36073 -4.40251 0
M  V30 2877 H 270.427 1.37987 -3.92872 0
M  V30 2878 H 273.024 4.11352 -3.41605 0
M  V30 2879 H 273.367 3.78397 -1.73555 0
M  V30 2880 H 273.9 2.63129 -2.98342 0
M  V30 2881 H 270.639 2.68343 -5.98057 0
M  V30 2882 H 270.159 3.77507 -4.66099 0
M  V30 2883 H 271.838 3.77385 -5.25538 0
M  V30 2884 N 271.97 1.30982 0.876444 0
M  V30 2885 C 273.216 1.20474 1.63138 0
M  V30 2886 C 273.549 -0.238096 1.92735 0
M  V30 2887 O 272.824 -1.1692 1.55435 0
M  V30 2888 C 273.107 2.04244 2.96574 0
M  V30 2889 C 272.96 3.56793 2.73896 0
M  V30 2890 C 274.279 1.88684 3.97601 0
M  V30 2891 H 271.398 0.439001 0.591985 0
M  V30 2892 H 274.04 1.60704 1.01361 0
M  V30 2893 H 272.19 1.70063 3.493 0
M  V30 2894 H 273.862 4.01077 2.27892 0
M  V30 2895 H 272.105 3.80548 2.08245 0
M  V30 2896 H 272.776 4.10706 3.68815 0
M  V30 2897 H 275.252 2.18584 3.54062 0
M  V30 2898 H 274.128 2.4961 4.88862 0
M  V30 2899 H 274.389 0.848343 4.33884 0
M  V30 2900 N 273.449 -1.08991 1.13837 0
M  V30 2901 C 274.359 -2.19301 0.833333 0
M  V30 2902 C 275.375 -1.73026 -0.183847 0
M  V30 2903 O 276.551 -2.01395 -0.0138092 0
M  V30 2904 C 273.616 -3.45323 0.308651 0
M  V30 2905 C 272.677 -4.06255 1.38764 0
M  V30 2906 C 271.91 -5.26262 0.887896 0
M  V30 2907 O 272.133 -5.69747 -0.27287 0
M  V30 2908 O 271.067 -5.78435 1.66421 0
M  V30 2909 H 274.893 -2.47854 1.75506 0
M  V30 2910 H 272.478 -1.18012 0.916166 0
M  V30 2911 H 274.36 -4.21394 0.0216739 0
M  V30 2912 H 273.035 -3.18362 -0.585431 0
M  V30 2913 H 271.942 -3.318 1.72799 0
M  V30 2914 H 273.275 -4.37452 2.25602 0
M  V30 2915 N 274.927 -0.932562 -1.27047 0
M  V30 2916 C 276.155 -0.592031 -1.98249 0
M  V30 2917 C 276.57 0.831062 -1.69525 0
M  V30 2918 O 275.927 1.55299 -0.958561 0
M  V30 2919 C 275.978 -0.814279 -3.5221 0
M  V30 2920 O 275.699 -2.18139 -3.7993 0
M  V30 2921 C 277.2 -0.483121 -4.4066 0
M  V30 2922 H 274.42 -0.223896 -0.632544 0
M  V30 2923 H 276.964 -1.25091 -1.61779 0
M  V30 2924 H 275.119 -0.20213 -3.86872 0
M  V30 2925 H 275.533 -2.235 -4.74498 0
M  V30 2926 H 277.007 -0.689298 -5.47679 0
M  V30 2927 H 277.484 0.581546 -4.35333 0
M  V30 2928 H 278.09 -1.07362 -4.11526 0
M  V30 2929 N 276.405 1.4127 -0.698611 0
M  V30 2930 C 277.355 2.27997 -0.0119836 0
M  V30 2931 C 278.339 1.42363 0.749765 0
M  V30 2932 O 279.531 1.65607 0.624758 0
M  V30 2933 C 276.66 3.30702 0.921458 0
M  V30 2934 C 275.746 4.23814 0.155796 0
M  V30 2935 N 276.137 4.98572 -0.852015 0
M  V30 2936 C 274.435 4.44284 0.390836 0
M  V30 2937 C 275.136 5.66744 -1.3106 0
M  V30 2938 N 274.112 5.39867 -0.635944 0
M  V30 2939 H 277.914 2.83232 -0.784649 0
M  V30 2940 H 275.428 1.53518 -0.529711 0
M  V30 2941 H 277.425 3.91661 1.42854 0
M  V30 2942 H 276.085 2.77028 1.69369 0
M  V30 2943 H 277.096 5.03024 -1.23235 0
M  V30 2944 H 273.773 4.01614 1.14071 0
M  V30 2945 H 275.163 6.36672 -2.14707 0
M  V30 2946 N 277.883 0.443576 1.51229 0
M  V30 2947 C 279.13 -0.120796 2.02139 0
M  V30 2948 C 279.458 -1.42166 1.32736 0
M  V30 2949 O 278.713 -1.90849 0.43301 0
M  V30 2950 C 279.012 -0.380579 3.55368 0
M  V30 2951 C 278.678 0.83523 4.43097 0
M  V30 2952 C 277.34 1.16864 4.66794 0
M  V30 2953 C 279.692 1.64601 4.94526 0
M  V30 2954 C 277.02 2.31339 5.39165 0
M  V30 2955 C 279.372 2.78181 5.68153 0
M  V30 2956 C 278.036 3.11969 5.90112 0
M  V30 2957 H 277.306 -0.0442023 0.73968 0
M  V30 2958 H 279.953 0.592046 1.82118 0
M  V30 2959 H 278.258 -1.17538 3.73754 0
M  V30 2960 H 279.955 -0.830777 3.923 0
M  V30 2961 H 276.545 0.565437 4.24854 0
M  V30 2962 H 280.729 1.40163 4.76097 0
M  V30 2963 H 275.985 2.57823 5.5438 0
M  V30 2964 H 280.159 3.41371 6.06992 0
M  V30 2965 H 277.786 4.00784 6.45969 0
M  V30 2966 N 279.361 -1.56624 0.175154 0
M  V30 2967 C 280.589 -2.01374 -0.474971 0
M  V30 2968 C 281.004 -1.05537 -1.56548 0
M  V30 2969 O 280.361 -0.0568668 -1.82411 0
M  V30 2970 C 280.412 -3.45923 -1.04975 0
M  V30 2971 O 280.133 -4.381 -0.00276605 0
M  V30 2972 C 281.634 -4.06093 -1.77773 0
M  V30 2973 H 278.854 -0.659962 -0.121206 0
M  V30 2974 H 281.398 -2.02601 0.27801 0
M  V30 2975 H 279.553 -3.45458 -1.75321 0
M  V30 2976 H 279.967 -5.22753 -0.427681 0
M  V30 2977 H 281.441 -5.09147 -2.13245 0
M  V30 2978 H 281.918 -3.48405 -2.67414 0
M  V30 2979 H 282.524 -4.10272 -1.12059 0
M  V30 2980 N 280.839 0.0985539 -1.57292 0
M  V30 2981 C 282.086 0.802678 -1.85912 0
M  V30 2982 C 282.414 1.78901 -0.763186 0
M  V30 2983 O 281.669 1.94178 0.243559 0
M  V30 2984 C 281.968 1.56927 -3.21105 0
M  V30 2985 C 281.634 0.725376 -4.45027 0
M  V30 2986 C 280.296 0.492726 -4.78671 0
M  V30 2987 C 282.648 0.138493 -5.21016 0
M  V30 2988 C 279.976 -0.336727 -5.85733 0
M  V30 2989 C 282.328 -0.678264 -6.28953 0
M  V30 2990 C 280.992 -0.921039 -6.61115 0
M  V30 2991 H 280.262 0.293721 -0.680301 0
M  V30 2992 H 282.909 0.0642841 -1.91392 0
M  V30 2993 H 281.214 2.37914 -3.11294 0
M  V30 2994 H 282.911 2.11841 -3.40477 0
M  V30 2995 H 279.501 0.916815 -4.18679 0
M  V30 2996 H 283.685 0.305404 -4.95359 0
M  V30 2997 H 278.941 -0.533836 -6.09065 0
M  V30 2998 H 283.115 -1.1399 -6.87007 0
M  V30 2999 H 280.742 -1.56556 -7.43905 0
M  V30 3000 N 282.317 1.53212 0.369288 0
M  V30 3001 C 283.264 1.79388 1.45219 0
M  V30 3002 C 284.234 0.638059 1.53356 0
M  V30 3003 O 285.419 0.879852 1.69302 0
M  V30 3004 C 282.559 1.98623 2.82211 0
M  V30 3005 C 281.672 3.26337 2.8307 0
M  V30 3006 C 280.807 3.35779 4.11614 0
M  V30 3007 C 279.846 4.5754 4.06601 0
M  V30 3008 N 278.983 4.64155 5.26787 0
M  V30 3009 H 283.823 2.71794 1.22198 0
M  V30 3010 H 281.36 1.34642 0.592444 0
M  V30 3011 H 283.318 2.07761 3.61789 0
M  V30 3012 H 281.948 1.09558 3.03639 0
M  V30 3013 H 281 3.26171 1.95747 0
M  V30 3014 H 282.312 4.15988 2.75237 0
M  V30 3015 H 281.466 3.44208 4.99606 0
M  V30 3016 H 280.205 2.44137 4.22195 0
M  V30 3017 H 279.21 4.49215 3.16996 0
M  V30 3018 H 280.435 5.50519 3.97625 0
M  V30 3019 H 278.381 3.75413 5.3796 0
M  V30 3020 H 278.298 5.47706 5.21109 0
M  V30 3021 H 279.566 4.76863 6.16621 0
M  V30 3022 N 283.795 -0.628877 1.44509 0
M  V30 3023 C 285.072 -1.38733 1.37886 0
M  V30 3024 C 285.452 -2.11065 0.0387008 0
M  V30 3025 O 284.8 -2.06476 -0.97878 0
M  V30 3026 C 285.01 -2.35188 2.57852 0
M  V30 3027 C 286.358 -2.9845 3.02014 0
M  V30 3028 O 287.382 -2.45513 2.58073 0
M  V30 3029 O 286.241 -3.94487 3.78209 0
M  V30 3030 H 283.335 -0.621015 0.54614 0
M  V30 3031 H 285.881 -0.653744 1.56602 0
M  V30 3032 H 284.653 -1.80855 3.46998 0
M  V30 3033 H 284.276 -3.1596 2.4136 0
M  V30 3034 N 285.273 -1.31445 -0.869486 0
M  V30 3035 C 286.203 -1.21727 -1.99261 0
M  V30 3036 C 287.184 -0.104359 -1.6978 0
M  V30 3037 O 288.369 -0.289038 -1.92037 0
M  V30 3038 C 285.499 -0.924317 -3.34774 0
M  V30 3039 C 284.453 -1.99685 -3.78563 0
M  V30 3040 C 283.779 -1.55658 -5.11541 0
M  V30 3041 C 285.079 -3.41003 -3.95619 0
M  V30 3042 H 286.773 -2.1569 -2.07649 0
M  V30 3043 H 284.319 -1.03839 -0.997675 0
M  V30 3044 H 286.272 -0.842934 -4.12883 0
M  V30 3045 H 284.996 0.0509793 -3.2656 0
M  V30 3046 H 283.655 -2.06813 -3.02694 0
M  V30 3047 H 283.303 -0.569132 -4.9977 0
M  V30 3048 H 283.003 -2.27409 -5.41811 0
M  V30 3049 H 284.527 -1.48928 -5.92159 0
M  V30 3050 H 285.941 -3.36547 -4.64122 0
M  V30 3051 H 284.338 -4.10975 -4.37286 0
M  V30 3052 H 285.408 -3.81754 -2.98985 0
M  V30 3053 N 286.751 1.08385 -1.14413 0
M  V30 3054 C 287.701 2.13509 -0.79987 0
M  V30 3055 C 288.685 1.5951 0.211059 0
M  V30 3056 O 289.877 1.76995 0.0133694 0
M  V30 3057 C 287.006 3.42162 -0.279297 0
M  V30 3058 C 286.092 4.03042 -1.31976 0
M  V30 3059 N 286.483 4.38327 -2.52395 0
M  V30 3060 C 284.781 4.30379 -1.17004 0
M  V30 3061 C 285.482 4.86428 -3.19003 0
M  V30 3062 N 284.458 4.84547 -2.46405 0
M  V30 3063 H 288.26 2.38609 -1.7159 0
M  V30 3064 H 285.774 1.2572 -1.02802 0
M  V30 3065 H 287.771 4.16898 -0.0143688 0
M  V30 3066 H 286.431 3.18511 0.630923 0
M  V30 3067 H 287.442 4.29349 -2.89621 0
M  V30 3068 H 284.119 4.16281 -0.318854 0
M  V30 3069 H 285.509 5.23107 -4.21674 0
M  V30 3070 N 288.23 0.939286 1.26551 0
M  V30 3071 C 289.477 0.585847 1.9384 0
M  V30 3072 C 289.805 -0.874784 1.73718 0
M  V30 3073 O 289.06 -1.64092 1.06642 0
M  V30 3074 C 289.359 0.872106 3.46596 0
M  V30 3075 C 289.025 2.31632 3.86856 0
M  V30 3076 C 287.687 2.71111 3.97558 0
M  V30 3077 C 290.039 3.25494 4.07066 0
M  V30 3078 C 287.367 4.03553 4.25866 0
M  V30 3079 C 289.719 4.57531 4.36862 0
M  V30 3080 C 288.383 4.96828 4.45778 0
M  V30 3081 H 287.653 0.214377 0.709312 0
M  V30 3082 H 290.3 1.18544 1.50398 0
M  V30 3083 H 288.605 0.18996 3.91339 0
M  V30 3084 H 290.302 0.577442 3.96821 0
M  V30 3085 H 286.892 2.00008 3.79071 0
M  V30 3086 H 291.076 2.9619 3.98227 0
M  V30 3087 H 286.332 4.33665 4.30981 0
M  V30 3088 H 290.506 5.30254 4.51446 0
M  V30 3089 H 288.133 5.99482 4.67468 0
M  V30 3090 N 289.708 -1.40897 0.706093 0
M  V30 3091 C 290.655 -2.30751 0.0474474 0
M  V30 3092 C 291.625 -1.47678 -0.76029 0
M  V30 3093 O 292.81 -1.76441 -0.726177 0
M  V30 3094 C 289.95 -3.33815 -0.875309 0
M  V30 3095 C 289.063 -4.31961 -0.0580623 0
M  V30 3096 C 288.198 -5.22093 -0.979425 0
M  V30 3097 C 287.237 -6.11902 -0.155706 0
M  V30 3098 N 286.374 -6.94482 -1.03144 0
M  V30 3099 H 291.214 -2.86513 0.819413 0
M  V30 3100 H 288.751 -1.41102 0.415783 0
M  V30 3101 H 290.709 -3.92129 -1.42446 0
M  V30 3102 H 289.339 -2.79579 -1.61356 0
M  V30 3103 H 288.391 -3.75507 0.608147 0
M  V30 3104 H 289.703 -4.95415 0.580082 0
M  V30 3105 H 288.857 -5.85292 -1.59744 0
M  V30 3106 H 287.596 -4.5889 -1.65141 0
M  V30 3107 H 286.601 -5.47742 0.475309 0
M  V30 3108 H 287.826 -6.77162 0.512635 0
M  V30 3109 H 285.772 -6.33877 -1.68924 0
M  V30 3110 H 285.689 -7.54665 -0.449108 0
M  V30 3111 H 286.957 -7.6214 -1.63593 0
M  V30 3112 N 291.186 -0.45159 -1.50991 0
M  V30 3113 C 292.119 0.398179 -2.24699 0
M  V30 3114 C 293.097 1.01276 -1.27208 0
M  V30 3115 O 294.281 1.05247 -1.56382 0
M  V30 3116 C 291.408 1.55618 -3.00833 0
M  V30 3117 C 290.454 1.0609 -4.13095 0
M  V30 3118 S 291.287 -0.00865136 -5.35499 0
M  V30 3119 C 292.443 1.15369 -6.15175 0
M  V30 3120 H 292.676 -0.227555 -2.96428 0
M  V30 3121 H 290.209 -0.236251 -1.52582 0
M  V30 3122 H 292.167 2.21997 -3.45293 0
M  V30 3123 H 290.828 2.15337 -2.28667 0
M  V30 3124 H 290.021 1.92726 -4.65696 0
M  V30 3125 H 289.623 0.47513 -3.7097 0
M  V30 3126 H 291.915 2.06925 -6.45126 0
M  V30 3127 H 292.858 0.667344 -7.04948 0
M  V30 3128 H 293.266 1.3987 -5.46897 0
M  V30 3129 N 292.664 1.56529 -0.183458 0
M  V30 3130 C 293.911 1.97244 0.458357 0
M  V30 3131 C 294.239 1.06992 1.62428 0
M  V30 3132 O 293.494 0.106542 1.9541 0
M  V30 3133 C 293.793 3.43939 0.971637 0
M  V30 3134 C 293.459 4.5083 -0.0796784 0
M  V30 3135 C 292.121 4.79786 -0.368584 0
M  V30 3136 C 294.473 5.15138 -0.792638 0
M  V30 3137 C 291.801 5.70345 -1.37563 0
M  V30 3138 C 294.153 6.06784 -1.78875 0
M  V30 3139 C 292.817 6.34102 -2.08497 0
M  V30 3140 H 292.087 0.721768 0.167725 0
M  V30 3141 H 294.734 1.89472 -0.277976 0
M  V30 3142 H 293.039 3.48724 1.78602 0
M  V30 3143 H 294.736 3.72791 1.47744 0
M  V30 3144 H 291.326 4.28317 0.155668 0
M  V30 3145 H 295.51 4.92868 -0.582659 0
M  V30 3146 H 290.766 5.89789 -1.61118 0
M  V30 3147 H 294.94 6.55677 -2.3465 0
M  V30 3148 H 292.567 7.04074 -2.86678 0
M  V30 3149 N 294.142 -0.090211 1.57342 0
M  V30 3150 C 295.419 -0.824761 1.77361 0
M  V30 3151 C 295.799 -1.96698 0.76637 0
M  V30 3152 O 295.147 -2.27586 -0.204179 0
M  V30 3153 C 295.357 -1.31481 3.23286 0
M  V30 3154 C 296.705 -1.75563 3.86604 0
M  V30 3155 O 297.729 -1.41093 3.27065 0
M  V30 3156 O 296.588 -2.39317 4.91314 0
M  V30 3157 H 293.682 -0.393776 0.727234 0
M  V30 3158 H 296.228 -0.0717138 1.69548 0
M  V30 3159 H 295 -0.496671 3.88135 0
M  V30 3160 H 294.623 -2.12973 3.35751 0
M  V30 3161 N 295.62 -1.53406 -0.361157 0
M  V30 3162 C 296.866 -1.70054 -1.10496 0
M  V30 3163 C 297.199 -0.453278 -1.88836 0
M  V30 3164 O 296.474 0.5495 -1.86576 0
M  V30 3165 C 296.757 -2.95317 -2.06058 0
M  V30 3166 C 296.61 -4.3021 -1.31298 0
M  V30 3167 C 297.929 -3.16193 -3.06121 0
M  V30 3168 H 295.048 -0.618799 -0.400321 0
M  V30 3169 H 297.69 -1.86052 -0.385318 0
M  V30 3170 H 295.84 -2.81809 -2.67425 0
M  V30 3171 H 297.512 -4.55538 -0.726807 0
M  V30 3172 H 295.755 -4.29421 -0.614853 0
M  V30 3173 H 296.426 -5.14 -2.01265 0
M  V30 3174 H 298.902 -3.28916 -2.5486 0
M  V30 3175 H 297.778 -4.05266 -3.70204 0
M  V30 3176 H 298.039 -2.31676 -3.76535 0
M  V30 3177 N 297.098 0.621204 -1.44841 0
M  V30 3178 C 298.346 1.37783 -1.47852 0
M  V30 3179 C 298.667 1.94653 -0.116224 0
M  V30 3180 O 297.937 1.76367 0.852737 0
M  V30 3181 H 296.517 0.511453 -0.544449 0
M  V30 3182 H 299.179 0.730446 -1.80694 0
M  V30 3183 H 298.275 2.20414 -2.20961 0
M  V30 3184 N 298.576 1.31904 0.862503 0
M  V30 3185 C 299.824 1.21776 1.61292 0
M  V30 3186 C 300.145 -0.222413 1.93727 0
M  V30 3187 O 299.415 -1.1451 1.58947 0
M  V30 3188 H 297.995 0.447717 0.597962 0
M  V30 3189 H 300.657 1.65326 1.03215 0
M  V30 3190 H 299.753 1.7948 2.5533 0
M  V30 3191 N 300.054 -1.07777 1.14986 0
M  V30 3192 C 300.986 -2.14769 0.800436 0
M  V30 3193 C 301.999 -1.61739 -0.185595 0
M  V30 3194 O 303.188 -1.78462 0.0370358 0
M  V30 3195 C 300.288 -3.38481 0.168533 0
M  V30 3196 C 299.461 -4.20876 1.1909 0
M  V30 3197 C 298.52 -5.22976 0.581575 0
M  V30 3198 O 297.546 -5.55388 1.24633 0
M  V30 3199 N 298.748 -5.76976 -0.638706 0
M  V30 3200 H 301.513 -2.45348 1.72118 0
M  V30 3201 H 299.074 -1.23645 1.04515 0
M  V30 3202 H 301.066 -4.03916 -0.251764 0
M  V30 3203 H 299.636 -3.05651 -0.655467 0
M  V30 3204 H 298.856 -3.51322 1.78791 0
M  V30 3205 H 300.144 -4.7274 1.88133 0
M  V30 3206 H 299.542 -5.52886 -1.19723 0
M  V30 3207 H 298.099 -6.44061 -1.00142 0
M  V30 3208 N 301.532 -0.945985 -1.26051 0
M  V30 3209 C 302.948 -0.649045 -1.45807 0
M  V30 3210 C 303.148 0.796158 -1.85104 0
M  V30 3211 O 302.204 1.57233 -1.97571 0
M  V30 3212 C 303.517 -1.61458 -2.53677 0
M  V30 3213 C 305.065 -1.62481 -2.67524 0
M  V30 3214 C 305.54 -2.57776 -3.7857 0
M  V30 3215 N 307.031 -2.5609 -3.85969 0
M  V30 3216 C 307.766 -3.26508 -4.7136 0
M  V30 3217 N 307.262 -4.0637 -5.61102 0
M  V30 3218 N 309.055 -3.15437 -4.65248 0
M  V30 3219 H 301.206 -1.88005 -0.988328 0
M  V30 3220 H 303.469 -0.808198 -0.4955 0
M  V30 3221 H 303.175 -2.64644 -2.31638 0
M  V30 3222 H 303.049 -1.37036 -3.51427 0
M  V30 3223 H 305.436 -0.600167 -2.88933 0
M  V30 3224 H 305.517 -1.90958 -1.70202 0
M  V30 3225 H 305.161 -3.60361 -3.57913 0
M  V30 3226 H 305.091 -2.26587 -4.75359 0
M  V30 3227 H 307.582 -1.98105 -3.21812 0
M  V30 3228 H 307.895 -4.57042 -6.23164 0
M  V30 3229 H 306.24 -4.10469 -5.60839 0
M  V30 3230 H 309.431 -2.52525 -3.94143 0
M  V30 3231 H 309.604 -3.70584 -5.31575 0
M  V30 3232 N 303.011 1.40521 -0.713556 0
M  V30 3233 C 304.236 2.05759 -0.26035 0
M  V30 3234 C 304.661 1.53403 1.08854 0
M  V30 3235 O 304.019 0.668535 1.68524 0
M  V30 3236 C 304.067 3.59745 -0.248122 0
M  V30 3237 O 303.171 4.05123 0.77131 0
M  V30 3238 H 302.512 0.652564 -0.122703 0
M  V30 3239 H 305.042 1.79958 -0.973467 0
M  V30 3240 H 305.052 4.07911 -0.0851129 0
M  V30 3241 H 303.727 3.97218 -1.2325 0
M  V30 3242 H 302.304 3.68422 0.57619 0
M  V30 3243 N 304.489 0.459591 1.5075 0
M  V30 3244 C 305.399 -0.34613 2.32033 0
M  V30 3245 C 306.415 -1.00686 1.41909 0
M  V30 3246 O 307.591 -0.997361 1.7497 0
M  V30 3247 C 304.656 -1.42029 3.16273 0
M  V30 3248 C 303.717 -0.777362 4.22203 0
M  V30 3249 C 302.95 -1.80034 5.02418 0
M  V30 3250 O 303.173 -3.02544 4.83553 0
M  V30 3251 O 302.107 -1.37853 5.85901 0
M  V30 3252 H 305.933 0.318054 3.0203 0
M  V30 3253 H 303.518 0.221663 1.47746 0
M  V30 3254 H 305.4 -2.04275 3.68578 0
M  V30 3255 H 304.075 -2.06815 2.49016 0
M  V30 3256 H 302.982 -0.116256 3.73919 0
M  V30 3257 H 304.315 -0.172634 4.91897 0
M  V30 3258 N 305.967 -1.56429 0.191757 0
M  V30 3259 C 307.383 -1.58754 -0.164137 0
M  V30 3260 C 307.583 -1.20782 -1.61288 0
M  V30 3261 O 306.639 -0.928999 -2.34789 0
M  V30 3262 C 307.952 -3.00396 0.135195 0
M  V30 3263 C 309.5 -3.1291 0.0750351 0
M  V30 3264 C 309.975 -4.56679 0.347632 0
M  V30 3265 N 311.466 -4.62252 0.296131 0
M  V30 3266 C 312.201 -5.71379 0.480948 0
M  V30 3267 N 311.697 -6.88986 0.725933 0
M  V30 3268 N 313.49 -5.60563 0.415435 0
M  V30 3269 H 305.641 -1.79393 1.13718 0
M  V30 3270 H 307.904 -0.832414 0.453643 0
M  V30 3271 H 307.61 -3.32726 1.13958 0
M  V30 3272 H 307.484 -3.72963 -0.563773 0
M  V30 3273 H 309.871 -2.80394 -0.919948 0
M  V30 3274 H 309.952 -2.42736 0.807029 0
M  V30 3275 H 309.596 -4.89907 1.33992 0
M  V30 3276 H 309.526 -5.25039 -0.405212 0
M  V30 3277 H 312.017 -3.7773 0.113259 0
M  V30 3278 H 312.33 -7.68046 0.855857 0
M  V30 3279 H 310.675 -6.90801 0.762788 0
M  V30 3280 H 313.866 -4.67561 0.224486 0
M  V30 3281 H 314.039 -6.45551 0.562889 0
M  V30 3282 N 307.445 0.0818655 -1.57387 0
M  V30 3283 C 308.392 1.09834 -2.0299 0
M  V30 3284 C 309.362 1.39043 -0.908639 0
M  V30 3285 O 310.547 1.50282 -1.17559 0
M  V30 3286 C 307.687 2.40971 -2.47037 0
M  V30 3287 C 306.8 2.18379 -3.7274 0
M  V30 3288 C 305.935 3.43008 -4.0561 0
M  V30 3289 C 304.974 3.15736 -5.24383 0
M  V30 3290 N 304.111 4.32667 -5.52941 0
M  V30 3291 H 308.951 0.702472 -2.89602 0
M  V30 3292 H 306.488 0.33531 -1.43227 0
M  V30 3293 H 308.446 3.1752 -2.70623 0
M  V30 3294 H 307.076 2.78379 -1.63417 0
M  V30 3295 H 306.128 1.32569 -3.56552 0
M  V30 3296 H 307.44 1.94227 -4.59431 0
M  V30 3297 H 306.594 4.27958 -4.30043 0
M  V30 3298 H 305.333 3.70225 -3.17466 0
M  V30 3299 H 304.338 2.2918 -4.99757 0
M  V30 3300 H 305.563 2.8985 -6.14136 0
M  V30 3301 H 303.509 4.59935 -4.67756 0
M  V30 3302 H 303.426 4.11753 -6.34031 0
M  V30 3303 H 304.694 5.18644 -5.81918 0
M  V30 3304 N 308.923 1.53595 0.353017 0
M  V30 3305 C 309.87 1.80919 1.43308 0
M  V30 3306 C 310.84 0.654288 1.5267 0
M  V30 3307 O 312.025 0.897759 1.6836 0
M  V30 3308 C 309.165 2.01605 2.80089 0
M  V30 3309 C 308.278 3.29321 2.79593 0
M  V30 3310 C 307.413 3.40125 4.0803 0
M  V30 3311 C 306.452 4.61826 4.01725 0
M  V30 3312 N 305.589 4.69716 5.21834 0
M  V30 3313 H 310.429 2.73074 1.19308 0
M  V30 3314 H 307.966 1.35263 0.578131 0
M  V30 3315 H 309.924 2.11586 3.59565 0
M  V30 3316 H 308.554 1.12772 3.0246 0
M  V30 3317 H 307.606 3.28229 1.92276 0
M  V30 3318 H 308.918 4.18884 2.70809 0
M  V30 3319 H 308.072 3.49488 4.95927 0
M  V30 3320 H 306.811 2.48601 4.19582 0
M  V30 3321 H 305.816 4.52552 3.12213 0
M  V30 3322 H 307.041 5.54705 3.91764 0
M  V30 3323 H 304.987 3.81097 5.33948 0
M  V30 3324 H 304.904 5.53202 5.1527 0
M  V30 3325 H 306.172 4.83376 6.11529 0
M  V30 3326 N 310.401 -0.613514 1.45168 0
M  V30 3327 C 311.647 -1.37279 1.50087 0
M  V30 3328 C 312.002 -1.91902 0.138294 0
M  V30 3329 O 311.295 -1.71764 -0.84899 0
M  V30 3330 C 311.489 -2.54347 2.51083 0
M  V30 3331 C 311.318 -2.11186 3.97027 0
M  V30 3332 C 310.088 -1.97636 4.65046 0
M  V30 3333 C 312.286 -1.69016 4.85735 0
M  V30 3334 N 310.268 -1.48224 5.95737 0
M  V30 3335 C 311.639 -1.30976 6.06008 0
M  V30 3336 C 313.694 -1.56555 4.72647 0
M  V30 3337 C 312.397 -0.817197 7.14643 0
M  V30 3338 C 314.423 -1.08702 5.81324 0
M  V30 3339 C 313.785 -0.716233 7.00749 0
M  V30 3340 H 309.884 -0.496478 0.60418 0
M  V30 3341 H 312.468 -0.701988 1.81605 0
M  V30 3342 H 310.639 -3.19031 2.21527 0
M  V30 3343 H 312.371 -3.21208 2.46187 0
M  V30 3344 H 309.126 -2.18638 4.20112 0
M  V30 3345 H 309.55 -1.25767 6.65216 0
M  V30 3346 H 314.192 -1.83849 3.80736 0
M  V30 3347 H 311.91 -0.531797 8.06348 0
M  V30 3348 H 315.496 -0.994943 5.7323 0
M  V30 3349 H 314.376 -0.351642 7.83411 0
M  V30 3350 N 311.879 -1.3236 -0.855495 0
M  V30 3351 C 313.128 -1.22226 -1.60448 0
M  V30 3352 C 313.441 0.214733 -1.94418 0
M  V30 3353 O 314.647 0.437917 -2.67945 0
M  V30 3354 C 313.103 -2.14063 -2.89318 0
M  V30 3355 C 312.711 -3.62839 -2.62777 0
M  V30 3356 C 314.455 -2.12764 -3.67331 0
M  V30 3357 C 312.362 -4.4664 -3.87643 0
M  V30 3358 H 311.292 -0.453904 -0.602069 0
M  V30 3359 H 313.943 -1.57314 -0.944698 0
M  V30 3360 H 312.325 -1.71889 -3.5675 0
M  V30 3361 H 313.499 -4.1335 -2.03662 0
M  V30 3362 H 311.814 -3.66261 -1.98096 0
M  V30 3363 H 314.411 -2.72611 -4.59987 0
M  V30 3364 H 314.754 -1.11841 -4.00995 0
M  V30 3365 H 315.287 -2.53214 -3.06802 0
M  V30 3366 H 312.026 -5.48373 -3.5912 0
M  V30 3367 H 311.546 -4.0088 -4.46156 0
M  V30 3368 H 313.225 -4.59597 -4.55389 0
M  V30 3369 N 313.357 1.07166 -1.15556 0
M  V30 3370 C 314.307 2.12649 -0.82247 0
M  V30 3371 C 315.291 1.59725 0.194129 0
M  V30 3372 O 316.483 1.76999 -0.00540402 0
M  V30 3373 C 313.612 3.41847 -0.315572 0
M  V30 3374 C 312.698 4.0162 -1.36244 0
M  V30 3375 N 313.089 4.35625 -2.5703 0
M  V30 3376 C 311.387 4.29114 -1.21562 0
M  V30 3377 C 312.088 4.83017 -3.24144 0
M  V30 3378 N 311.064 4.81906 -2.51531 0
M  V30 3379 H 314.866 2.36776 -1.74111 0
M  V30 3380 H 312.38 1.24622 -1.0413 0
M  V30 3381 H 314.377 4.16859 -0.0585855 0
M  V30 3382 H 313.037 3.19163 0.597105 0
M  V30 3383 H 314.048 4.26253 -2.94158 0
M  V30 3384 H 310.725 4.15919 -0.362988 0
M  V30 3385 H 312.115 5.18605 -4.27198 0
M  V30 3386 N 314.835 0.952656 1.25548 0
M  V30 3387 C 316.075 0.614013 1.9496 0
M  V30 3388 C 316.439 -0.833215 1.72978 0
M  V30 3389 O 317.64 -1.28135 2.36294 0
M  V30 3390 C 315.911 0.960562 3.4425 0
M  V30 3391 S 317.47 0.734195 4.32614 0
M  V30 3392 H 314.288 0.225754 0.674208 0
M  V30 3393 H 316.89 1.22641 1.52248 0
M  V30 3394 H 315.594 2.01103 3.57751 0
M  V30 3395 H 315.125 0.338336 3.91942 0
M  V30 3396 H 317.14 -0.395995 4.94617 0
M  V30 3397 N 316.313 -1.40141 0.720998 0
M  V30 3398 C 317.56 -2.00787 0.262842 0
M  V30 3399 C 317.888 -1.5718 -1.14563 0
M  V30 3400 O 317.143 -0.785391 -1.79249 0
M  V30 3401 C 317.442 -3.56165 0.296892 0
M  V30 3402 C 317.108 -4.19373 1.65641 0
M  V30 3403 C 315.77 -4.36352 2.02855 0
M  V30 3404 C 318.122 -4.54578 2.54968 0
M  V30 3405 C 315.45 -4.8582 3.28931 0
M  V30 3406 C 317.802 -5.05447 3.80402 0
M  V30 3407 C 316.466 -5.20635 4.17726 0
M  V30 3408 H 315.736 -0.734731 0.0961807 0
M  V30 3409 H 318.383 -1.67673 0.925093 0
M  V30 3410 H 316.688 -3.8922 -0.448932 0
M  V30 3411 H 318.385 -4.00929 -0.0755208 0
M  V30 3412 H 314.975 -4.06549 1.35704 0
M  V30 3413 H 319.159 -4.41091 2.27491 0
M  V30 3414 H 314.415 -4.95764 3.57811 0
M  V30 3415 H 318.589 -5.31663 4.49786 0
M  V30 3416 H 316.216 -5.58728 5.15487 0
M  V30 3417 N 317.792 -0.46758 -1.50504 0
M  V30 3418 C 318.702 0.33382 -2.32213 0
M  V30 3419 C 319.718 0.999323 -1.42441 0
M  V30 3420 O 320.894 0.988068 -1.75497 0
M  V30 3421 C 317.959 1.4035 -3.17022 0
M  V30 3422 C 317.02 0.754961 -4.2261 0
M  V30 3423 C 316.253 1.77367 -5.03365 0
M  V30 3424 O 316.476 2.99976 -4.8515 0
M  V30 3425 O 315.41 1.34744 -5.86624 0
M  V30 3426 H 319.236 -0.334067 -3.01857 0
M  V30 3427 H 316.821 -0.229496 -1.47627 0
M  V30 3428 H 318.703 2.02318 -3.69656 0
M  V30 3429 H 317.378 2.05492 -2.5011 0
M  V30 3430 H 316.285 0.0964244 -3.73976 0
M  V30 3431 H 317.618 0.146545 -4.91982 0
M  V30 3432 N 319.27 1.56325 -0.20005 0
M  V30 3433 C 320.518 1.97329 0.436547 0
M  V30 3434 C 320.839 1.08826 1.61808 0
M  V30 3435 O 320.109 0.160604 1.95241 0
M  V30 3436 H 318.689 0.728714 0.164272 0
M  V30 3437 H 321.351 1.92761 -0.287937 0
M  V30 3438 H 320.447 3.02264 0.777353 0
M  V30 3439 N 320.748 -0.0735177 1.57428 0
M  V30 3440 C 321.994 -0.774145 1.87443 0
M  V30 3441 C 322.327 -1.77311 0.792103 0
M  V30 3442 O 321.602 -1.93492 -0.197793 0
M  V30 3443 C 321.885 -1.48367 3.28115 0
M  V30 3444 C 321.738 -0.501227 4.46999 0
M  V30 3445 C 323.057 -2.429 3.66998 0
M  V30 3446 H 320.176 -0.279971 0.681752 0
M  V30 3447 H 322.818 -0.0373616 1.89963 0
M  V30 3448 H 320.968 -2.11171 3.26097 0
M  V30 3449 H 322.64 0.121468 4.6114 0
M  V30 3450 H 320.883 0.183593 4.33411 0
M  V30 3451 H 321.554 -1.03526 5.42205 0
M  V30 3452 H 324.03 -1.90175 3.70098 0
M  V30 3453 H 322.906 -2.89549 4.66318 0
M  V30 3454 H 323.167 -3.27628 2.96837 0
M  V30 3455 N 322.226 -1.5378 -0.344866 0
M  V30 3456 C 323.454 -1.74899 -1.10534 0
M  V30 3457 C 323.869 -0.487534 -1.82397 0
M  V30 3458 O 323.226 0.540741 -1.74305 0
M  V30 3459 C 323.277 -2.92822 -2.11984 0
M  V30 3460 O 322.998 -4.14089 -1.43044 0
M  V30 3461 C 324.499 -3.25982 -3.00417 0
M  V30 3462 H 321.719 -0.584426 -0.329678 0
M  V30 3463 H 324.263 -2.006 -0.397474 0
M  V30 3464 H 322.418 -2.69457 -2.78338 0
M  V30 3465 H 322.832 -4.80272 -2.10805 0
M  V30 3466 H 324.306 -4.11848 -3.67539 0
M  V30 3467 H 324.783 -2.42228 -3.66363 0
M  V30 3468 H 325.389 -3.51349 -2.39654 0
M  V30 3469 N 323.704 0.605807 -1.45491 0
M  V30 3470 C 324.667 1.69836 -1.5391 0
M  V30 3471 C 325.667 1.55261 -0.418424 0
M  V30 3472 O 326.857 1.60296 -0.681965 0
M  V30 3473 C 323.989 3.09117 -1.43734 0
M  V30 3474 H 325.182 1.63738 -2.51257 0
M  V30 3475 H 322.735 0.821689 -1.32959 0
M  V30 3476 H 323.47 3.20791 -0.475788 0
M  V30 3477 H 323.255 3.21104 -2.25021 0
M  V30 3478 H 324.745 3.88696 -1.52661 0
M  V30 3479 N 325.182 1.32811 0.848464 0
M  V30 3480 C 326.431 1.23075 1.59798 0
M  V30 3481 C 326.744 -0.204419 1.94529 0
M  V30 3482 O 327.95 -0.423701 2.68173 0
M  V30 3483 C 326.406 2.15594 2.88179 0
M  V30 3484 C 326.014 3.64228 2.60849 0
M  V30 3485 C 327.758 2.14709 3.66197 0
M  V30 3486 C 325.665 4.48689 3.85269 0
M  V30 3487 H 324.595 0.457091 0.599653 0
M  V30 3488 H 327.246 1.57813 0.936342 0
M  V30 3489 H 325.628 1.73778 3.55833 0
M  V30 3490 H 326.802 4.14424 2.01467 0
M  V30 3491 H 325.117 3.67306 1.96151 0
M  V30 3492 H 327.714 2.75046 4.58534 0
M  V30 3493 H 328.057 1.13966 4.00397 0
M  V30 3494 H 328.59 2.54837 3.05455 0
M  V30 3495 H 325.329 5.5027 3.56207 0
M  V30 3496 H 324.849 4.03241 4.44024 0
M  V30 3497 H 326.528 4.62006 4.52946 0
M  V30 3498 N 326.66 -1.06551 1.16123 0
M  V30 3499 C 327.909 -1.78687 0.935622 0
M  V30 3500 C 328.222 -1.88056 -0.538001 0
M  V30 3501 O 329.428 -2.56794 -0.88143 0
M  V30 3502 C 327.884 -3.21143 1.62466 0
M  V30 3503 C 327.492 -3.19949 3.13587 0
M  V30 3504 C 329.236 -3.9783 1.48092 0
M  V30 3505 C 327.143 -4.57108 3.75241 0
M  V30 3506 H 326.073 -0.669712 0.346412 0
M  V30 3507 H 328.724 -1.19534 1.39226 0
M  V30 3508 H 327.106 -3.80539 1.09572 0
M  V30 3509 H 328.28 -2.70151 3.73303 0
M  V30 3510 H 326.595 -2.5676 3.27816 0
M  V30 3511 H 329.192 -4.99217 1.91538 0
M  V30 3512 H 329.535 -4.14078 0.429507 0
M  V30 3513 H 330.068 -3.4495 1.98127 0
M  V30 3514 H 326.807 -4.46065 4.80319 0
M  V30 3515 H 326.327 -5.07111 3.20309 0
M  V30 3516 H 328.006 -5.26069 3.76644 0
M  V30 3517 N 328.138 -0.959301 -1.25041 0
M  V30 3518 C 329.385 -0.616611 -1.92884 0
M  V30 3519 C 329.713 0.847036 -1.75087 0
M  V30 3520 O 328.968 1.62374 -1.09239 0
M  V30 3521 C 329.267 -0.927136 -3.45165 0
M  V30 3522 C 328.933 -2.37757 -3.83122 0
M  V30 3523 C 327.595 -2.77402 -3.93194 0
M  V30 3524 C 329.947 -3.31929 -4.01836 0
M  V30 3525 C 327.275 -4.10277 -4.19392 0
M  V30 3526 C 329.627 -4.64423 -4.29528 0
M  V30 3527 C 328.291 -5.03857 -4.37818 0
M  V30 3528 H 327.561 -0.225634 -0.705812 0
M  V30 3529 H 330.208 -1.20921 -1.48493 0
M  V30 3530 H 328.513 -0.252195 -3.90987 0
M  V30 3531 H 330.21 -0.6405 -3.95852 0
M  V30 3532 H 326.8 -2.06013 -3.75841 0
M  V30 3533 H 330.984 -3.02488 -3.93465 0
M  V30 3534 H 326.24 -4.40467 -4.24027 0
M  V30 3535 H 330.414 -5.37369 -4.42953 0
M  V30 3536 H 328.041 -6.06843 -4.57871 0
M  V30 3537 N 329.616 1.39756 -0.72842 0
M  V30 3538 C 330.856 2.025 -0.278078 0
M  V30 3539 C 331.22 1.5654 1.11173 0
M  V30 3540 O 332.421 2.11435 1.65978 0
M  V30 3541 C 330.692 3.55489 -0.369139 0
M  V30 3542 S 332.251 4.388 0.00232983 0
M  V30 3543 H 329.069 0.702534 -0.109391 0
M  V30 3544 H 331.671 1.70672 -0.95348 0
M  V30 3545 H 330.375 3.86429 -1.38204 0
M  V30 3546 H 329.906 3.92061 0.324308 0
M  V30 3547 H 331.921 4.80954 1.22055 0
M  V30 3548 N 331.094 0.475555 1.50254 0
M  V30 3549 C 332.34 -0.0780073 2.0265 0
M  V30 3550 C 332.673 -1.38968 1.35652 0
M  V30 3551 O 331.948 -1.8839 0.483691 0
M  V30 3552 C 332.231 -0.257161 3.59181 0
M  V30 3553 C 332.084 1.07585 4.36744 0
M  V30 3554 C 333.403 -1.00965 4.28362 0
M  V30 3555 H 330.522 -0.0268758 0.73651 0
M  V30 3556 H 333.164 0.622015 1.7953 0
M  V30 3557 H 331.314 -0.853412 3.79011 0
M  V30 3558 H 332.986 1.70902 4.28474 0
M  V30 3559 H 331.229 1.6714 4.00308 0
M  V30 3560 H 331.9 0.904088 5.44546 0
M  V30 3561 H 334.376 -0.504214 4.13034 0
M  V30 3562 H 333.252 -1.10381 5.37687 0
M  V30 3563 H 333.513 -2.04731 3.91839 0
M  V30 3564 N 332.573 -1.56217 0.208337 0
M  V30 3565 C 333.536 -2.18455 -0.693557 0
M  V30 3566 C 334.536 -1.14268 -1.13135 0
M  V30 3567 O 335.726 -1.39577 -1.0423 0
M  V30 3568 C 332.858 -2.79727 -1.94848 0
M  V30 3569 H 334.051 -2.99519 -0.15114 0
M  V30 3570 H 331.604 -1.56245 -0.041287 0
M  V30 3571 H 332.339 -2.02497 -2.53309 0
M  V30 3572 H 332.124 -3.56009 -1.64316 0
M  V30 3573 H 333.614 -3.27475 -2.59133 0
M  V30 3574 N 334.051 0.0651679 -1.57465 0
M  V30 3575 C 334.981 1.07693 -2.07182 0
M  V30 3576 C 335.962 1.39962 -0.966673 0
M  V30 3577 O 337.147 1.49475 -1.2398 0
M  V30 3578 C 334.277 2.3885 -2.52127 0
M  V30 3579 C 333.231 2.20917 -3.66579 0
M  V30 3580 C 332.557 3.57515 -3.97601 0
M  V30 3581 C 333.857 1.62493 -4.9638 0
M  V30 3582 H 335.551 0.663199 -2.91962 0
M  V30 3583 H 333.097 0.317569 -1.40455 0
M  V30 3584 H 335.05 3.09928 -2.85522 0
M  V30 3585 H 333.774 2.82215 -1.64384 0
M  V30 3586 H 332.433 1.52279 -3.33477 0
M  V30 3587 H 332.081 3.98463 -3.06979 0
M  V30 3588 H 331.781 3.46353 -4.74672 0
M  V30 3589 H 333.305 4.30013 -4.33499 0
M  V30 3590 H 334.719 2.23445 -5.27963 0
M  V30 3591 H 333.116 1.62009 -5.77818 0
M  V30 3592 H 334.186 0.587041 -4.81333 0
M  V30 3593 N 335.529 1.53961 0.336706 0
M  V30 3594 C 336.754 1.75797 1.10046 0
M  V30 3595 C 337.179 0.498985 1.81361 0
M  V30 3596 O 336.537 -0.548769 1.72795 0
M  V30 3597 C 336.585 2.94257 2.08436 0
M  V30 3598 O 335.689 2.64883 3.16087 0
M  V30 3599 H 335.03 0.582936 0.317934 0
M  V30 3600 H 337.56 2.00945 0.38501 0
M  V30 3601 H 337.57 3.21237 2.51537 0
M  V30 3602 H 336.245 3.85564 1.55927 0
M  V30 3603 H 334.822 2.48812 2.77753 0
M  V30 3604 N 337.007 -0.598083 1.45811 0
M  V30 3605 C 338.284 -1.35777 1.40797 0
M  V30 3606 C 338.664 -2.10935 0.083462 0
M  V30 3607 O 338.012 -2.08505 -0.934763 0
M  V30 3608 C 338.222 -2.29666 2.62783 0
M  V30 3609 C 339.57 -2.91977 3.08277 0
M  V30 3610 O 340.594 -2.39984 2.63223 0
M  V30 3611 O 339.453 -3.86376 3.86491 0
M  V30 3612 H 336.547 -0.609291 0.55919 0
M  V30 3613 H 339.093 -0.620379 1.57954 0
M  V30 3614 H 337.865 -1.73454 3.50756 0
M  V30 3615 H 337.488 -3.1077 2.48008 0
M  V30 3616 N 338.485 -1.33259 -0.841409 0
M  V30 3617 C 339.715 -1.2742 -1.62628 0
M  V30 3618 C 340.123 0.157604 -1.88542 0
M  V30 3619 O 339.466 1.10938 -1.46419 0
M  V30 3620 C 339.528 -1.97797 -3.00194 0
M  V30 3621 C 339.192 -3.47109 -2.97261 0
M  V30 3622 C 340.189 -4.42358 -2.73159 0
M  V30 3623 C 337.874 -3.89247 -3.17478 0
M  V30 3624 C 339.868 -5.77718 -2.69296 0
M  V30 3625 C 337.555 -5.24713 -3.13241 0
M  V30 3626 C 338.553 -6.1876 -2.89181 0
M  V30 3627 O 338.241 -7.51745 -2.84843 0
M  V30 3628 H 337.973 -0.440436 -0.512827 0
M  V30 3629 H 340.527 -1.76153 -1.05638 0
M  V30 3630 H 338.757 -1.43652 -3.59028 0
M  V30 3631 H 340.446 -1.8549 -3.61038 0
M  V30 3632 H 341.212 -4.11127 -2.57294 0
M  V30 3633 H 337.091 -3.16456 -3.35226 0
M  V30 3634 H 340.635 -6.51097 -2.50436 0
M  V30 3635 H 336.532 -5.55569 -3.28654 0
M  V30 3636 H 337.3 -7.61262 -3.00702 0
M  V30 3637 N 339.963 1.05934 -1.16686 0
M  V30 3638 C 341.24 1.75643 -0.860747 0
M  V30 3639 C 341.62 2.01144 0.640641 0
M  V30 3640 O 340.968 1.64147 1.58959 0
M  V30 3641 C 341.178 3.05493 -1.68745 0
M  V30 3642 C 342.526 3.79581 -1.90271 0
M  V30 3643 O 343.55 3.15344 -1.65641 0
M  V30 3644 O 342.409 4.9499 -2.31618 0
M  V30 3645 H 339.503 0.763426 -0.317977 0
M  V30 3646 H 342.049 1.1217 -1.27342 0
M  V30 3647 H 340.821 2.8264 -2.70611 0
M  V30 3648 H 340.444 3.76702 -1.27206 0
M  V30 3649 N 341.441 0.965919 1.2453 0
M  V30 3650 C 342.371 0.513476 2.27784 0
M  V30 3651 C 343.352 -0.445974 1.6415 0
M  V30 3652 O 344.537 -0.342485 1.91156 0
M  V30 3653 C 341.667 -0.198839 3.4673 0
M  V30 3654 C 340.621 0.676456 4.2262 0
M  V30 3655 C 339.947 -0.167248 5.34438 0
M  V30 3656 C 341.247 1.96017 4.84123 0
M  V30 3657 H 342.941 1.3765 2.65881 0
M  V30 3658 H 340.487 0.663321 1.27813 0
M  V30 3659 H 342.44 -0.526567 4.18097 0
M  V30 3660 H 341.164 -1.0962 3.07654 0
M  V30 3661 H 339.823 0.98743 3.53052 0
M  V30 3662 H 339.471 -1.0647 4.91603 0
M  V30 3663 H 339.171 0.415181 5.86131 0
M  V30 3664 H 340.695 -0.489688 6.08633 0
M  V30 3665 H 342.109 1.69814 5.47573 0
M  V30 3666 H 340.506 2.48918 5.4604 0
M  V30 3667 H 341.576 2.65622 4.05676 0
M  V30 3668 N 342.919 -1.39368 0.735821 0
M  V30 3669 C 344.165 -2.00794 0.284544 0
M  V30 3670 C 344.498 -1.58255 -1.12557 0
M  V30 3671 O 343.773 -0.811819 -1.76748 0
M  V30 3672 C 344.056 -3.58011 0.387337 0
M  V30 3673 C 343.909 -4.10566 1.83728 0
M  V30 3674 C 345.228 -4.395 -0.22975 0
M  V30 3675 H 342.347 -0.729501 0.104866 0
M  V30 3676 H 344.989 -1.65564 0.93213 0
M  V30 3677 H 343.139 -3.88154 -0.164006 0
M  V30 3678 H 344.811 -3.91139 2.44556 0
M  V30 3679 H 343.054 -3.64095 2.35833 0
M  V30 3680 H 343.725 -5.19702 1.86047 0
M  V30 3681 H 346.201 -4.15406 0.240257 0
M  V30 3682 H 345.077 -5.48752 -0.127485 0
M  V30 3683 H 345.338 -4.22062 -1.3159 0
M  V30 3684 N 344.397 -0.483516 -1.5 0
M  V30 3685 C 345.327 0.293829 -2.31644 0
M  V30 3686 C 346.308 0.978864 -1.39112 0
M  V30 3687 O 347.493 0.973644 -1.68029 0
M  V30 3688 C 344.623 1.36897 -3.19181 0
M  V30 3689 C 343.577 0.804833 -4.20365 0
M  V30 3690 C 342.903 1.9792 -4.96721 0
M  V30 3691 C 344.203 -0.192313 -5.21946 0
M  V30 3692 H 345.897 -0.387616 -2.9688 0
M  V30 3693 H 343.443 -0.187856 -1.42769 0
M  V30 3694 H 345.396 1.92037 -3.751 0
M  V30 3695 H 344.12 2.07936 -2.51853 0
M  V30 3696 H 342.779 0.275319 -3.65565 0
M  V30 3697 H 342.427 2.67686 -4.25856 0
M  V30 3698 H 342.127 1.60789 -5.65173 0
M  V30 3699 H 343.651 2.53526 -5.55479 0
M  V30 3700 H 345.065 0.270333 -5.72662 0
M  V30 3701 H 343.462 -0.478543 -5.98189 0
M  V30 3702 H 344.532 -1.11409 -4.71928 0
M  V30 3703 N 345.875 1.56104 -0.216619 0
M  V30 3704 C 346.838 2.18819 0.681962 0
M  V30 3705 C 347.838 1.14866 1.12528 0
M  V30 3706 O 349.028 1.40128 1.03488 0
M  V30 3707 C 346.16 2.80756 1.93362 0
M  V30 3708 H 347.353 2.99595 0.135254 0
M  V30 3709 H 344.906 1.56265 0.0330003 0
M  V30 3710 H 345.641 2.03837 2.52232 0
M  V30 3711 H 345.426 3.56876 1.62426 0
M  V30 3712 H 346.916 3.28844 2.57393 0
M  V30 3713 N 347.353 -0.0568162 1.57498 0
M  V30 3714 C 348.263 -1.08346 2.08083 0
M  V30 3715 C 349.279 -1.41439 1.01346 0
M  V30 3716 O 350.455 -1.51316 1.32912 0
M  V30 3717 C 347.52 -2.37352 2.52715 0
M  V30 3718 C 346.581 -2.11093 3.73816 0
M  V30 3719 C 345.814 -3.33949 4.1631 0
M  V30 3720 O 346.037 -4.43622 3.58547 0
M  V30 3721 O 344.971 -3.21279 5.08983 0
M  V30 3722 H 348.797 -0.683667 2.95905 0
M  V30 3723 H 346.382 -0.271965 1.46904 0
M  V30 3724 H 348.264 -3.13246 2.81877 0
M  V30 3725 H 346.939 -2.76681 1.68016 0
M  V30 3726 H 345.846 -1.32856 3.49714 0
M  V30 3727 H 347.179 -1.76637 4.59413 0
M  V30 3728 N 348.832 -1.54138 -0.328536 0
M  V30 3729 C 350.109 -1.62749 -1.08499 0
M  V30 3730 C 350.489 -0.458198 -2.06067 0
M  V30 3731 O 349.837 0.548046 -2.2183 0
M  V30 3732 C 350.047 -2.99519 -1.79135 0
M  V30 3733 C 351.395 -3.55394 -2.32337 0
M  V30 3734 O 352.419 -3.01792 -1.89209 0
M  V30 3735 O 351.278 -4.49186 -3.11279 0
M  V30 3736 H 348.372 -0.65886 -0.499832 0
M  V30 3737 H 350.918 -1.66484 -0.328826 0
M  V30 3738 H 349.69 -3.76061 -1.08139 0
M  V30 3739 H 349.313 -2.99441 -2.61574 0
M  V30 3740 N 350.31 0.590341 -1.46126 0
M  V30 3741 C 351.22 1.72793 -1.58681 0
M  V30 3742 C 352.236 1.67516 -0.470566 0
M  V30 3743 O 353.412 1.87562 -0.733642 0
M  V30 3744 C 350.477 3.09287 -1.5666 0
M  V30 3745 C 349.538 3.25886 -2.79458 0
M  V30 3746 C 348.771 4.55869 -2.77524 0
M  V30 3747 O 348.994 5.3928 -1.85832 0
M  V30 3748 O 347.928 4.75552 -3.68964 0
M  V30 3749 H 351.754 1.65149 -2.54872 0
M  V30 3750 H 349.339 0.756486 -1.28832 0
M  V30 3751 H 351.221 3.90577 -1.58202 0
M  V30 3752 H 349.896 3.17385 -0.636271 0
M  V30 3753 H 348.803 2.44119 -2.83472 0
M  V30 3754 H 350.136 3.22675 -3.71674 0
M  V30 3755 N 351.788 1.33704 0.83433 0
M  V30 3756 C 352.698 1.26382 1.97648 0
M  V30 3757 C 353.714 0.173548 1.73132 0
M  V30 3758 O 354.89 0.397962 1.97429 0
M  V30 3759 C 351.955 1.00769 3.31733 0
M  V30 3760 C 351.016 2.1884 3.69334 0
M  V30 3761 C 350.249 1.9444 4.9702 0
M  V30 3762 O 350.472 0.896961 5.63303 0
M  V30 3763 O 349.406 2.81093 5.32231 0
M  V30 3764 H 353.232 2.22444 2.06767 0
M  V30 3765 H 350.817 1.13795 0.968037 0
M  V30 3766 H 352.699 0.882186 4.12062 0
M  V30 3767 H 351.374 0.0773783 3.23608 0
M  V30 3768 H 350.281 2.36946 2.89495 0
M  V30 3769 H 351.614 3.10221 3.82131 0
M  V30 3770 N 353.266 -1.05314 1.17247 0
M  V30 3771 C 354.199 -2.12512 0.831507 0
M  V30 3772 C 355.177 -1.61351 -0.201168 0
M  V30 3773 O 356.361 -1.88317 -0.0829831 0
M  V30 3774 C 353.488 -3.37848 0.24015 0
M  V30 3775 C 352.534 -4.07832 1.24801 0
M  V30 3776 S 353.367 -4.56537 2.79882 0
M  V30 3777 C 354.523 -5.85122 2.22223 0
M  V30 3778 H 354.756 -2.41106 1.7394 0
M  V30 3779 H 352.289 -1.17896 0.996988 0
M  V30 3780 H 354.247 -4.10391 -0.0945588 0
M  V30 3781 H 352.908 -3.07392 -0.645668 0
M  V30 3782 H 352.101 -4.97883 0.78287 0
M  V30 3783 H 351.703 -3.41348 1.52831 0
M  V30 3784 H 353.995 -6.58408 1.59703 0
M  V30 3785 H 354.938 -6.36381 3.10523 0
M  V30 3786 H 355.346 -5.39626 1.65722 0
M  V30 3787 N 354.744 -0.972509 -1.24016 0
M  V30 3788 C 355.692 -0.498562 -2.27194 0
M  V30 3789 C 356.686 0.440372 -1.63576 0
M  V30 3790 O 357.892 0.315133 -1.7722 0
M  V30 3791 H 354.267 -0.142775 -0.738322 0
M  V30 3792 H 356.238 -1.38065 -2.64539 0
M  V30 3793 C 354.987 0.191072 -3.47175 0
M  V30 3794 H 354.31 -0.522318 -3.96373 0
M  V30 3795 H 355.75 0.486445 -4.212 0
M  V30 3796 C 354.209 1.41967 -3.05527 0
M  V30 3797 O 354.739 2.51642 -3.13112 0
M  V30 3798 N 352.945 1.28746 -2.60524 0
M  V30 3799 H 352.492 0.395089 -2.54552 0
M  V30 3800 H 352.45 2.11061 -2.33025 0
M  V30 3801 N 356.222 1.38976 -0.743202 0
M  V30 3802 C 357.638 1.53984 -0.419664 0
M  V30 3803 C 357.838 1.70837 1.0685 0
M  V30 3804 O 356.894 1.7135 1.8546 0
M  V30 3805 C 358.207 2.75287 -1.20985 0
M  V30 3806 C 359.755 2.89129 -1.19889 0
M  V30 3807 C 360.23 4.13381 -1.97181 0
M  V30 3808 N 361.721 4.20437 -1.94389 0
M  V30 3809 C 362.456 5.15547 -2.50996 0
M  V30 3810 N 361.952 6.16395 -3.16274 0
M  V30 3811 N 363.745 5.07822 -2.40984 0
M  V30 3812 H 355.896 1.26285 -1.7078 0
M  V30 3813 H 358.159 0.612689 -0.723406 0
M  V30 3814 H 357.865 2.69204 -2.26323 0
M  V30 3815 H 357.739 3.68184 -0.819759 0
M  V30 3816 H 360.126 2.947 -0.153606 0
M  V30 3817 H 360.207 1.97272 -1.62841 0
M  V30 3818 H 359.851 4.08572 -3.01714 0
M  V30 3819 H 359.781 5.04298 -1.51629 0
M  V30 3820 H 362.272 3.48205 -1.46839 0
M  V30 3821 H 362.585 6.85443 -3.56915 0
M  V30 3822 H 360.93 6.16758 -3.20367 0
M  V30 3823 H 364.121 4.27973 -1.89622 0
M  V30 3824 H 364.294 5.81767 -2.85397 0
M  V30 3825 N 357.7 0.491464 1.49741 0
M  V30 3826 C 358.633 -0.338464 2.25676 0
M  V30 3827 C 359.611 -0.978676 1.29849 0
M  V30 3828 O 360.795 -1.01064 1.59117 0
M  V30 3829 C 357.922 -1.47588 3.04853 0
M  V30 3830 C 356.968 -0.951 4.15762 0
M  V30 3831 S 357.801 0.150626 5.35288 0
M  V30 3832 C 358.957 -0.990178 6.18018 0
M  V30 3833 H 359.19 0.306068 2.9572 0
M  V30 3834 H 356.723 0.276622 1.51902 0
M  V30 3835 H 358.681 -2.12764 3.51058 0
M  V30 3836 H 357.342 -2.09199 2.34296 0
M  V30 3837 H 356.535 -1.80311 4.70642 0
M  V30 3838 H 356.137 -0.376607 3.72099 0
M  V30 3839 H 358.429 -1.89748 6.50386 0
M  V30 3840 H 359.372 -0.480205 7.0647 0
M  V30 3841 H 359.78 -1.25321 5.50413 0
M  V30 3842 N 359.178 -1.55987 0.224894 0
M  V30 3843 C 360.128 -2.17076 -0.697296 0
M  V30 3844 C 361.112 -1.12006 -1.15514 0
M  V30 3845 O 362.304 -1.37985 -1.10857 0
M  V30 3846 C 359.433 -2.85679 -1.90374 0
M  V30 3847 C 358.519 -3.97977 -1.46543 0
M  V30 3848 N 358.91 -5.00359 -0.739909 0
M  V30 3849 C 357.208 -4.10128 -1.75245 0
M  V30 3850 C 357.909 -5.79407 -0.515939 0
M  V30 3851 N 356.885 -5.32892 -1.07364 0
M  V30 3852 H 360.687 -2.93592 -0.134594 0
M  V30 3853 H 358.201 -1.62379 0.0262885 0
M  V30 3854 H 360.198 -3.27857 -2.57518 0
M  V30 3855 H 358.858 -2.1066 -2.47088 0
M  V30 3856 H 359.869 -5.16412 -0.392253 0
M  V30 3857 H 356.546 -3.46263 -2.33255 0
M  V30 3858 H 357.936 -6.71872 0.0617349 0
M  V30 3859 N 360.656 0.0484629 -1.57525 0
M  V30 3860 C 361.566 1.07241 -2.08654 0
M  V30 3861 C 362.582 1.409 -1.02095 0
M  V30 3862 O 363.758 1.50609 -1.33712 0
M  V30 3863 C 360.823 2.36008 -2.5397 0
M  V30 3864 C 359.884 2.09108 -3.7493 0
M  V30 3865 C 359.117 3.31736 -4.18075 0
M  V30 3866 O 359.34 4.41714 -3.60895 0
M  V30 3867 O 358.274 3.18576 -5.10679 0
M  V30 3868 H 362.1 0.667965 -2.96263 0
M  V30 3869 H 359.685 0.26417 -1.47046 0
M  V30 3870 H 361.567 3.11747 -2.83535 0
M  V30 3871 H 360.242 2.75786 -1.69481 0
M  V30 3872 H 359.149 1.31 -3.50414 0
M  V30 3873 H 360.482 1.74198 -4.60343 0
M  V30 3874 N 362.134 1.5431 0.320358 0
M  V30 3875 C 363.359 1.76954 1.08175 0
M  V30 3876 C 363.784 0.518193 1.80821 0
M  V30 3877 O 363.142 -0.530411 1.73368 0
M  V30 3878 C 363.19 2.96451 2.05303 0
M  V30 3879 O 362.294 2.68221 3.13259 0
M  V30 3880 H 361.635 0.586275 0.311733 0
M  V30 3881 H 364.165 2.01342 0.363676 0
M  V30 3882 H 364.175 3.23887 2.48116 0
M  V30 3883 H 362.85 3.87196 1.51829 0
M  V30 3884 H 361.427 2.51744 2.75099 0
M  V30 3885 N 363.613 -0.582584 1.46437 0
M  V30 3886 C 364.546 -1.70633 1.51524 0
M  V30 3887 C 365.524 -1.58349 0.369351 0
M  V30 3888 O 366.708 -1.79563 0.573516 0
M  V30 3889 C 363.835 -3.08687 1.39392 0
M  V30 3890 C 362.881 -3.3949 2.58164 0
M  V30 3891 S 363.714 -3.31548 4.20519 0
M  V30 3892 C 364.87 -4.72139 4.10896 0
M  V30 3893 H 365.103 -1.66058 2.46601 0
M  V30 3894 H 362.636 -0.761337 1.34324 0
M  V30 3895 H 364.594 -3.8833 1.33079 0
M  V30 3896 H 363.255 -3.10751 0.457436 0
M  V30 3897 H 362.448 -4.40071 2.45669 0
M  V30 3898 H 362.05 -2.67415 2.61468 0
M  V30 3899 H 364.342 -5.62527 3.77584 0
M  V30 3900 H 365.285 -4.89692 5.11476 0
M  V30 3901 H 365.693 -4.48995 3.42146 0
M  V30 3902 N 365.091 -1.34144 -0.827227 0
M  V30 3903 C 366.038 -1.25364 -1.93785 0
M  V30 3904 C 367.008 -0.129774 -1.65592 0
M  V30 3905 O 368.193 -0.310024 -1.88264 0
M  V30 3906 C 365.333 -1.01064 -3.2997 0
M  V30 3907 C 364.446 -2.22185 -3.70484 0
M  V30 3908 C 363.581 -1.91203 -4.95595 0
M  V30 3909 C 362.62 -3.08491 -5.28677 0
M  V30 3910 N 361.757 -2.77421 -6.44967 0
M  V30 3911 H 366.597 -2.20347 -2.00627 0
M  V30 3912 H 364.134 -1.09558 -0.981608 0
M  V30 3913 H 366.092 -0.850139 -4.08446 0
M  V30 3914 H 364.722 -0.0975026 -3.22653 0
M  V30 3915 H 363.774 -2.4917 -2.87434 0
M  V30 3916 H 365.086 -3.0983 -3.90905 0
M  V30 3917 H 364.24 -1.71864 -5.81848 0
M  V30 3918 H 362.979 -1.00812 -4.77167 0
M  V30 3919 H 361.984 -3.28431 -4.40923 0
M  V30 3920 H 363.209 -3.99655 -5.49047 0
M  V30 3921 H 361.155 -1.89601 -6.28003 0
M  V30 3922 H 361.072 -3.58598 -6.6554 0
M  V30 3923 H 362.34 -2.61577 -7.34301 0
M  V30 3924 N 366.569 1.04691 -1.17803 0
M  V30 3925 C 367.499 2.14494 -0.92275 0
M  V30 3926 C 368.48 1.69546 0.137179 0
M  V30 3927 O 369.665 1.94195 -0.0141108 0
M  V30 3928 C 366.795 3.44491 -0.440803 0
M  V30 3929 C 365.749 4.03031 -1.4405 0
M  V30 3930 C 365.075 5.28432 -0.81631 0
M  V30 3931 C 366.375 4.39932 -2.81527 0
M  V30 3932 H 368.069 2.36107 -1.84103 0
M  V30 3933 H 365.615 1.1347 -0.886599 0
M  V30 3934 H 367.568 4.2066 -0.249602 0
M  V30 3935 H 366.292 3.22546 0.513025 0
M  V30 3936 H 364.951 3.28937 -1.61853 0
M  V30 3937 H 364.599 5.02792 0.144511 0
M  V30 3938 H 364.299 5.68559 -1.48371 0
M  V30 3939 H 365.823 6.07284 -0.635496 0
M  V30 3940 H 367.237 5.07113 -2.67412 0
M  V30 3941 H 365.634 4.9109 -3.44892 0
M  V30 3942 H 366.704 3.50045 -3.35554 0
M  V30 3943 N 368.047 0.979072 1.23499 0
M  V30 3944 C 369.294 0.647219 1.91878 0
M  V30 3945 C 369.622 -0.819074 1.76413 0
M  V30 3946 O 368.877 -1.60616 1.11808 0
M  V30 3947 C 369.176 0.981932 3.43646 0
M  V30 3948 C 368.842 2.43822 3.79291 0
M  V30 3949 C 367.504 2.83622 3.88731 0
M  V30 3950 C 369.856 3.3828 3.96505 0
M  V30 3951 C 367.184 4.16897 4.12812 0
M  V30 3952 C 369.536 4.71197 4.22085 0
M  V30 3953 C 368.2 5.10758 4.29747 0
M  V30 3954 H 367.47 0.236834 0.702133 0
M  V30 3955 H 370.117 1.23268 1.46551 0
M  V30 3956 H 368.422 0.314365 3.90537 0
M  V30 3957 H 370.119 0.703395 3.94783 0
M  V30 3958 H 366.709 2.11966 3.72516 0
M  V30 3959 H 370.893 3.0871 3.88603 0
M  V30 3960 H 366.149 4.47157 4.16966 0
M  V30 3961 H 370.323 5.44348 4.34348 0
M  V30 3962 H 367.95 6.1405 4.48159 0
M  V30 3963 N 369.525 -1.3858 0.750561 0
M  V30 3964 C 370.802 -1.94231 0.231009 0
M  V30 3965 C 371.182 -1.68611 -1.27018 0
M  V30 3966 O 370.53 -1.02296 -2.04323 0
M  V30 3967 C 370.74 -3.44123 0.581428 0
M  V30 3968 C 372.088 -4.2116 0.539389 0
M  V30 3969 O 373.112 -3.52391 0.519541 0
M  V30 3970 O 371.971 -5.43749 0.54765 0
M  V30 3971 H 369.065 -0.825639 0.0474263 0
M  V30 3972 H 371.611 -1.4799 0.830478 0
M  V30 3973 H 370.383 -3.56267 1.61833 0
M  V30 3974 H 370.006 -3.97573 -0.0462047 0
M  V30 3975 N 371.003 -0.499398 -1.49478 0
M  V30 3976 C 372.228 0.044722 -2.07352 0
M  V30 3977 C 372.653 1.30207 -1.35749 0
M  V30 3978 O 372.011 1.76516 -0.413732 0
M  V30 3979 C 372.059 0.283013 -3.59488 0
M  V30 3980 O 371.163 1.35804 -3.89398 0
M  V30 3981 H 370.504 -0.0255147 -0.66351 0
M  V30 3982 H 373.034 -0.698561 -1.92305 0
M  V30 3983 H 373.044 0.515007 -4.04737 0
M  V30 3984 H 371.719 -0.635636 -4.11014 0
M  V30 3985 H 370.296 1.11113 -3.55961 0
M  V30 3986 N 372.481 1.55866 -0.233164 0
M  V30 3987 C 373.73 1.97779 0.39579 0
M  V30 3988 C 374.043 1.12419 1.60066 0
M  V30 3989 O 375.249 1.44283 2.29988 0
M  V30 3990 C 373.705 3.5188 0.755556 0
M  V30 3991 C 373.313 4.45959 -0.427152 0
M  V30 3992 C 375.057 4.02479 1.34946 0
M  V30 3993 C 372.964 5.91383 -0.0443043 0
M  V30 3994 H 371.894 0.738592 0.15165 0
M  V30 3995 H 374.545 1.80486 -0.331212 0
M  V30 3996 H 372.927 3.64816 1.5403 0
M  V30 3997 H 374.101 4.44776 -1.20462 0
M  V30 3998 H 372.416 4.05765 -0.935068 0
M  V30 3999 H 375.013 5.08637 1.649 0
M  V30 4000 H 375.356 3.49014 2.26925 0
M  V30 4001 H 375.889 3.92813 0.62791 0
M  V30 4002 H 372.628 6.48857 -0.930874 0
M  V30 4003 H 372.148 5.95734 0.697238 0
M  V30 4004 H 373.827 6.45893 0.378334 0
M  V30 4005 N 373.959 -0.0401083 1.57549 0
M  V30 4006 C 375.199 -0.738098 1.90608 0
M  V30 4007 C 375.563 -1.73107 0.830539 0
M  V30 4008 O 376.764 -2.4765 1.04513 0
M  V30 4009 C 375.035 -1.39985 3.28845 0
M  V30 4010 S 376.594 -2.12852 3.83718 0
M  V30 4011 H 373.412 -0.24477 0.667539 0
M  V30 4012 H 376.014 0.00693599 1.95499 0
M  V30 4013 H 374.718 -0.663775 4.04997 0
M  V30 4014 H 374.249 -2.18366 3.2723 0
M  V30 4015 H 376.264 -3.39842 3.61555 0
M  V30 4016 N 375.437 -1.54477 -0.31217 0
M  V30 4017 C 376.385 -1.85395 -1.40469 0
M  V30 4018 C 377.379 -0.726749 -1.53019 0
M  V30 4019 O 378.585 -0.910582 -1.55269 0
M  V30 4020 H 374.96 -0.587845 -0.46898 0
M  V30 4021 H 376.931 -2.76736 -1.11623 0
M  V30 4022 C 375.68 -2.10811 -2.76503 0
M  V30 4023 H 375.003 -2.97014 -2.67625 0
M  V30 4024 H 376.443 -2.3639 -3.51988 0
M  V30 4025 C 374.902 -0.903165 -3.24568 0
M  V30 4026 O 375.432 -0.118085 -4.01526 0
M  V30 4027 N 373.638 -0.711634 -2.81752 0
M  V30 4028 H 373.185 -1.35171 -2.19286 0
M  V30 4029 H 373.143 0.0930473 -3.14262 0
M  V30 4030 N 376.915 0.57481 -1.46744 0
M  V30 4031 C 377.863 1.70435 -1.58286 0
M  V30 4032 C 378.857 1.63287 -0.450956 0
M  V30 4033 O 380.063 1.68685 -0.628121 0
M  V30 4034 H 376.438 0.56364 -0.497809 0
M  V30 4035 H 378.409 1.57833 -2.53242 0
M  V30 4036 C 377.158 3.08815 -1.59776 0
M  V30 4037 H 376.481 3.1499 -2.46214 0
M  V30 4038 H 377.921 3.87588 -1.71905 0
M  V30 4039 C 376.38 3.35301 -0.327812 0
M  V30 4040 O 376.91 3.97511 0.57861 0
M  V30 4041 N 375.116 2.89816 -0.213274 0
M  V30 4042 H 374.663 2.39371 -0.951798 0
M  V30 4043 H 374.621 3.0791 0.63553 0
M  V30 4044 N 378.394 1.34581 0.820102 0
M  V30 4045 C 379.341 1.2639 1.93117 0
M  V30 4046 C 380.311 0.138554 1.65521 0
M  V30 4047 O 381.496 0.320004 1.88097 0
M  V30 4048 C 378.636 1.02812 3.29429 0
M  V30 4049 C 377.749 2.24146 3.693 0
M  V30 4050 C 376.884 1.93829 4.94574 0
M  V30 4051 C 375.923 3.1129 5.27034 0
M  V30 4052 N 375.06 2.80838 6.43486 0
M  V30 4053 H 379.9 2.21408 1.99455 0
M  V30 4054 H 377.437 1.10077 0.975784 0
M  V30 4055 H 379.395 0.871788 4.0799 0
M  V30 4056 H 378.025 0.114612 3.22596 0
M  V30 4057 H 377.077 2.50691 2.86109 0
M  V30 4058 H 378.389 3.11899 3.89257 0
M  V30 4059 H 377.543 1.74948 5.80929 0
M  V30 4060 H 376.282 1.03341 4.76626 0
M  V30 4061 H 375.287 3.30764 4.39175 0
M  V30 4062 H 376.512 4.02561 5.4692 0
M  V30 4063 H 374.458 1.92929 6.26988 0
M  V30 4064 H 374.375 3.62123 6.63629 0
M  V30 4065 H 375.643 2.65467 7.32903 0
M  V30 4066 N 379.872 -1.04064 1.18357 0
M  V30 4067 C 381.118 -1.77658 0.990412 0
M  V30 4068 C 381.473 -1.86446 -0.474944 0
M  V30 4069 O 380.766 -1.36153 -1.34807 0
M  V30 4070 C 380.96 -3.20634 1.57888 0
M  V30 4071 C 380.789 -3.25782 3.09994 0
M  V30 4072 C 379.559 -3.34411 3.7881 0
M  V30 4073 C 381.757 -3.13791 4.0748 0
M  V30 4074 N 379.739 -3.28809 5.18418 0
M  V30 4075 C 381.11 -3.15689 5.33611 0
M  V30 4076 C 383.165 -2.97833 3.98998 0
M  V30 4077 C 381.868 -3.03268 6.52243 0
M  V30 4078 C 383.894 -2.86759 5.17227 0
M  V30 4079 C 383.256 -2.893 6.4225 0
M  V30 4080 H 379.355 -0.661901 0.416427 0
M  V30 4081 H 381.939 -1.23968 1.50133 0
M  V30 4082 H 380.11 -3.7267 1.09414 0
M  V30 4083 H 381.842 -3.82525 1.32124 0
M  V30 4084 H 378.597 -3.40144 3.29543 0
M  V30 4085 H 379.021 -3.29448 5.91433 0
M  V30 4086 H 383.663 -2.94698 3.03171 0
M  V30 4087 H 381.381 -3.05156 7.48268 0
M  V30 4088 H 384.967 -2.75465 5.12455 0
M  V30 4089 H 383.847 -2.80818 7.32196 0
M  V30 4090 N 381.35 -0.985608 -1.22978 0
M  V30 4091 C 382.597 -0.657386 -1.91532 0
M  V30 4092 C 382.925 0.809707 -1.76845 0
M  V30 4093 O 382.18 1.60021 -1.12658 0
M  V30 4094 C 382.479 -1.00014 -3.43121 0
M  V30 4095 C 382.145 -2.4583 -3.77993 0
M  V30 4096 C 380.807 -2.85679 -3.87222 0
M  V30 4097 C 383.159 -3.40378 -3.94705 0
M  V30 4098 C 380.487 -4.19081 -4.10595 0
M  V30 4099 C 382.839 -4.73429 -4.1958 0
M  V30 4100 C 381.503 -5.1303 -4.27032 0
M  V30 4101 H 380.773 -0.240555 -0.700867 0
M  V30 4102 H 383.42 -1.24044 -1.45895 0
M  V30 4103 H 381.725 -0.335072 -3.90365 0
M  V30 4104 H 383.422 -0.724322 -3.94404 0
M  V30 4105 H 380.012 -2.13939 -3.71387 0
M  V30 4106 H 384.196 -3.10766 -3.8696 0
M  V30 4107 H 379.452 -4.49362 -4.14589 0
M  V30 4108 H 383.626 -5.46644 -4.31455 0
M  V30 4109 H 381.253 -6.16418 -4.44896 0
M  V30 4110 N 382.828 1.3818 -0.7579 0
M  V30 4111 C 384.056 2.04301 -0.326937 0
M  V30 4112 C 384.471 1.57163 1.0462 0
M  V30 4113 O 383.828 0.746626 1.66529 0
M  V30 4114 C 383.879 3.59846 -0.345363 0
M  V30 4115 O 383.6 4.05256 -1.66432 0
M  V30 4116 C 385.101 4.4319 0.098927 0
M  V30 4117 H 382.321 0.656443 -0.139012 0
M  V30 4118 H 384.865 1.76786 -1.02796 0
M  V30 4119 H 383.02 3.86182 0.306955 0
M  V30 4120 H 383.434 4.99709 -1.59345 0
M  V30 4121 H 384.908 5.51989 0.0348745 0
M  V30 4122 H 385.385 4.23947 1.14741 0
M  V30 4123 H 385.991 4.22051 -0.52468 0
M  V30 4124 N 384.306 0.507319 1.49211 0
M  V30 4125 C 385.583 -0.0982702 1.95353 0
M  V30 4126 C 385.963 -1.53516 1.449 0
M  V30 4127 O 385.311 -2.18594 0.66551 0
M  V30 4128 C 385.521 -0.00440283 3.49 0
M  V30 4129 C 386.869 -0.175147 4.24239 0
M  V30 4130 O 387.893 -0.0792891 3.56112 0
M  V30 4131 O 386.752 -0.37276 5.45227 0
M  V30 4132 H 383.846 -0.0918236 0.821887 0
M  V30 4133 H 386.392 0.570307 1.5983 0
M  V30 4134 H 385.164 0.997402 3.78375 0
M  V30 4135 H 384.787 -0.712845 3.91158 0
M  V30 4136 N 385.784 -1.5574 0.241426 0
M  V30 4137 C 387.012 -2.03208 -0.389134 0
M  V30 4138 C 387.427 -1.12082 -1.51931 0
M  V30 4139 O 386.784 -0.134183 -1.82006 0
M  V30 4140 C 386.835 -3.50064 -0.902087 0
M  V30 4141 O 386.556 -4.37717 0.18305 0
M  V30 4142 C 388.057 -4.13268 -1.60389 0
M  V30 4143 H 385.277 -0.664509 -0.0931053 0
M  V30 4144 H 387.821 -2.0124 0.36369 0
M  V30 4145 H 385.976 -3.52583 -1.60511 0
M  V30 4146 H 386.39 -5.24097 -0.205579 0
M  V30 4147 H 387.864 -5.17733 -1.91458 0
M  V30 4148 H 388.341 -3.59434 -2.52397 0
M  V30 4149 H 388.947 -4.14655 -0.945576 0
M  V30 4150 N 387.262 0.0317525 -1.57568 0
M  V30 4151 C 388.487 0.738664 -1.938 0
M  V30 4152 C 388.912 1.68242 -0.841208 0
M  V30 4153 O 388.27 1.80157 0.203267 0
M  V30 4154 C 388.318 1.47417 -3.29091 0
M  V30 4155 O 387.422 2.5872 -3.2115 0
M  V30 4156 H 386.763 0.198856 -0.633524 0
M  V30 4157 H 389.293 -0.0119713 -2.04596 0
M  V30 4158 H 389.303 1.84468 -3.63917 0
M  V30 4159 H 387.978 0.781988 -4.08482 0
M  V30 4160 H 386.555 2.24231 -2.97951 0
M  V30 4161 N 388.74 1.54641 0.303973 0
M  V30 4162 C 389.989 1.7299 1.03717 0
M  V30 4163 C 390.302 0.521168 1.88529 0
M  V30 4164 O 391.508 0.586408 2.65092 0
M  V30 4165 C 389.964 3.06051 1.89369 0
M  V30 4166 C 389.572 4.34393 1.09574 0
M  V30 4167 C 391.316 3.3376 2.62306 0
M  V30 4168 C 389.223 5.58506 1.94486 0
M  V30 4169 H 388.153 0.64473 0.390947 0
M  V30 4170 H 390.804 1.81124 0.294328 0
M  V30 4171 H 389.186 2.91874 2.67629 0
M  V30 4172 H 390.36 4.59396 0.359485 0
M  V30 4173 H 388.675 4.13597 0.482324 0
M  V30 4174 H 391.272 4.23687 3.26181 0
M  V30 4175 H 391.615 2.52503 3.3098 0
M  V30 4176 H 392.148 3.48894 1.91097 0
M  V30 4177 H 388.887 6.42422 1.30287 0
M  V30 4178 H 388.407 5.37694 2.65792 0
M  V30 4179 H 390.086 5.95651 2.52605 0
M  V30 4180 N 390.218 -0.567019 1.47046 0
M  V30 4181 C 391.467 -1.32091 1.5243 0
M  V30 4182 C 391.78 -1.94704 0.187021 0
M  V30 4183 O 392.986 -2.7124 0.118771 0
M  V30 4184 C 391.442 -2.39479 2.68659 0
M  V30 4185 C 391.05 -1.831 4.08874 0
M  V30 4186 C 392.794 -3.16111 2.83327 0
M  V30 4187 C 390.701 -2.8821 5.16419 0
M  V30 4188 H 389.631 -0.496629 0.56734 0
M  V30 4189 H 392.282 -0.603354 1.73297 0
M  V30 4190 H 390.664 -3.14105 2.41152 0
M  V30 4191 H 391.838 -1.14913 4.46242 0
M  V30 4192 H 390.153 -1.19085 3.99008 0
M  V30 4193 H 392.75 -3.94585 3.60842 0
M  V30 4194 H 393.093 -3.69686 1.91411 0
M  V30 4195 H 393.626 -2.48595 3.10556 0
M  V30 4196 H 390.365 -2.39504 6.10179 0
M  V30 4197 H 389.885 -3.54839 4.8358 0
M  V30 4198 H 391.564 -3.51881 5.42945 0
M  V30 4199 N 391.696 -1.35014 -0.812953 0
M  V30 4200 C 392.626 -1.30069 -1.93919 0
M  V30 4201 C 393.607 -0.176275 -1.69184 0
M  V30 4202 O 394.792 -0.370227 -1.90638 0
M  V30 4203 C 391.922 -1.06547 -3.30552 0
M  V30 4204 C 390.876 -2.15561 -3.69753 0
M  V30 4205 C 390.202 -1.77214 -5.04479 0
M  V30 4206 C 391.502 -3.57476 -3.808 0
M  V30 4207 H 393.196 -2.24303 -1.98314 0
M  V30 4208 H 390.742 -1.07977 -0.952736 0
M  V30 4209 H 392.695 -1.01729 -4.08937 0
M  V30 4210 H 391.419 -0.0875719 -3.26483 0
M  V30 4211 H 390.078 -2.19466 -2.9365 0
M  V30 4212 H 389.726 -0.780589 -4.96906 0
M  V30 4213 H 389.426 -2.50184 -5.31678 0
M  V30 4214 H 390.95 -1.7391 -5.8531 0
M  V30 4215 H 392.364 -3.55929 -4.4943 0
M  V30 4216 H 390.761 -4.29152 -4.19462 0
M  V30 4217 H 391.831 -3.94091 -2.82525 0
M  V30 4218 N 393.175 1.03435 -1.18907 0
M  V30 4219 C 394.422 1.76743 -0.988334 0
M  V30 4220 C 394.75 1.88447 0.481441 0
M  V30 4221 O 394.005 1.39383 1.37371 0
M  V30 4222 C 394.304 3.19792 -1.59586 0
M  V30 4223 C 393.97 3.28108 -3.09283 0
M  V30 4224 C 392.632 3.30084 -3.5014 0
M  V30 4225 C 394.984 3.27696 -4.05296 0
M  V30 4226 C 392.312 3.29299 -4.85571 0
M  V30 4227 C 394.664 3.28451 -5.4065 0
M  V30 4228 C 393.328 3.28723 -5.80946 0
M  V30 4229 H 392.598 0.64675 -0.361657 0
M  V30 4230 H 395.245 1.21442 -1.48068 0
M  V30 4231 H 393.55 3.78136 -1.02568 0
M  V30 4232 H 395.247 3.75171 -1.41589 0
M  V30 4233 H 391.837 3.27294 -2.76725 0
M  V30 4234 H 396.021 3.25354 -3.74778 0
M  V30 4235 H 391.277 3.2783 -5.16079 0
M  V30 4236 H 395.451 3.27082 -6.14809 0
M  V30 4237 H 393.078 3.27868 -6.85862 0
M  V30 4238 N 394.653 0.992116 1.22453 0
M  V30 4239 C 395.583 0.561677 2.26644 0
M  V30 4240 C 396.564 -0.411055 1.65059 0
M  V30 4241 O 397.749 -0.301861 1.9184 0
M  V30 4242 C 394.879 -0.125247 3.47074 0
M  V30 4243 C 393.833 0.765948 4.21091 0
M  V30 4244 C 393.159 -0.0538484 5.34673 0
M  V30 4245 C 394.459 2.06242 4.79856 0
M  V30 4246 H 396.153 1.43259 2.62902 0
M  V30 4247 H 393.699 0.690283 1.26377 0
M  V30 4248 H 395.652 -0.437764 4.1912 0
M  V30 4249 H 394.376 -1.03069 3.0991 0
M  V30 4250 H 393.035 1.0621 3.50878 0
M  V30 4251 H 392.683 -0.960188 4.9375 0
M  V30 4252 H 392.383 0.539415 5.85119 0
M  V30 4253 H 393.907 -0.360477 6.09535 0
M  V30 4254 H 395.321 1.8139 5.43848 0
M  V30 4255 H 393.718 2.60444 5.40638 0
M  V30 4256 H 394.788 2.74167 3.99951 0
M  V30 4257 N 396.131 -1.37776 0.765217 0
M  V30 4258 C 397.079 -2.32209 0.134798 0
M  V30 4259 C 398.073 -1.54607 -0.692315 0
M  V30 4260 O 399.279 -1.70052 -0.590109 0
M  V30 4261 H 395.654 -0.751591 0.0248005 0
M  V30 4262 H 397.625 -2.8297 0.947119 0
M  V30 4263 C 396.374 -3.39841 -0.735063 0
M  V30 4264 H 395.697 -3.99654 -0.107991 0
M  V30 4265 H 397.137 -4.08296 -1.14326 0
M  V30 4266 C 395.596 -2.79378 -1.88281 0
M  V30 4267 O 396.126 -2.69608 -2.97783 0
M  V30 4268 N 394.332 -2.37016 -1.68142 0
M  V30 4269 H 393.879 -2.45162 -0.790772 0
M  V30 4270 H 393.837 -1.96905 -2.45104 0
M  V30 4271 N 397.609 -0.515225 -1.4894 0
M  V30 4272 C 398.556 0.255567 -2.29381 0
M  V30 4273 C 399.526 0.947387 -1.36432 0
M  V30 4274 O 400.711 0.951288 -1.65394 0
M  V30 4275 C 397.851 1.30551 -3.19453 0
M  V30 4276 C 396.964 0.624029 -4.27469 0
M  V30 4277 C 396.099 1.65563 -5.0474 0
M  V30 4278 C 395.138 0.956802 -6.04576 0
M  V30 4279 N 394.275 1.93326 -6.74959 0
M  V30 4280 H 399.115 -0.436607 -2.94784 0
M  V30 4281 H 396.652 -0.227154 -1.45336 0
M  V30 4282 H 398.61 1.92639 -3.70062 0
M  V30 4283 H 397.24 1.96626 -2.56004 0
M  V30 4284 H 396.292 -0.110459 -3.8024 0
M  V30 4285 H 397.604 0.0746092 -4.98744 0
M  V30 4286 H 396.758 2.35119 -5.59289 0
M  V30 4287 H 395.497 2.23893 -4.3327 0
M  V30 4288 H 394.502 0.247097 -5.49244 0
M  V30 4289 H 395.727 0.379814 -6.78037 0
M  V30 4290 H 393.673 2.50591 -6.06251 0
M  V30 4291 H 393.59 1.43489 -7.42258 0
M  V30 4292 H 394.858 2.62126 -7.34105 0
M  V30 4293 N 399.087 1.5561 -0.249682 0
M  V30 4294 C 400.034 2.21496 0.648694 0
M  V30 4295 C 401.004 1.17977 1.16921 0
M  V30 4296 O 402.189 1.46434 1.22318 0
M  V30 4297 C 399.329 2.92039 1.83868 0
M  V30 4298 C 398.442 4.10219 1.35442 0
M  V30 4299 C 397.577 4.6847 2.50419 0
M  V30 4300 C 396.616 5.78893 1.98869 0
M  V30 4301 N 395.753 6.31315 3.07223 0
M  V30 4302 H 400.593 2.97892 0.0801582 0
M  V30 4303 H 398.13 1.47074 0.0278031 0
M  V30 4304 H 400.088 3.31138 2.53778 0
M  V30 4305 H 398.718 2.18111 2.37965 0
M  V30 4306 H 397.77 3.76413 0.54928 0
M  V30 4307 H 399.082 4.89927 0.936649 0
M  V30 4308 H 398.236 5.10158 3.28366 0
M  V30 4309 H 396.975 3.87984 2.95499 0
M  V30 4310 H 395.98 5.3668 1.19393 0
M  V30 4311 H 397.205 6.61232 1.54755 0
M  V30 4312 H 395.151 5.53733 3.51732 0
M  V30 4313 H 395.068 7.06224 2.69784 0
M  V30 4314 H 396.336 6.77662 3.8522 0
M  V30 4315 N 400.565 -0.0233959 1.57583 0
M  V30 4316 C 401.842 -0.748794 1.807 0
M  V30 4317 C 402.222 -1.9327 0.849106 0
M  V30 4318 O 401.57 -2.28247 -0.107468 0
M  V30 4319 C 401.78 -1.17651 3.28571 0
M  V30 4320 C 403.128 -1.59008 3.93702 0
M  V30 4321 O 404.152 -1.27094 3.32755 0
M  V30 4322 O 403.011 -2.18264 5.01022 0
M  V30 4323 H 400.105 -0.362578 0.743281 0
M  V30 4324 H 402.651 0.000261958 1.697 0
M  V30 4325 H 401.423 -0.331603 3.89892 0
M  V30 4326 H 401.046 -1.98541 3.44481 0
M  V30 4327 N 402.043 -1.548 -0.295768 0
M  V30 4328 C 402.973 -1.89115 -1.36959 0
M  V30 4329 C 403.954 -0.75059 -1.52644 0
M  V30 4330 O 405.139 -1.00678 -1.66065 0
M  V30 4331 C 402.269 -2.14307 -2.73295 0
M  V30 4332 C 401.223 -3.30151 -2.72368 0
M  V30 4333 C 400.549 -3.40772 -4.12042 0
M  V30 4334 C 401.849 -4.67126 -2.33646 0
M  V30 4335 H 403.543 -2.79053 -1.08488 0
M  V30 4336 H 401.089 -1.34266 -0.520443 0
M  V30 4337 H 403.042 -2.36898 -3.48507 0
M  V30 4338 H 401.766 -1.21145 -3.03301 0
M  V30 4339 H 400.425 -3.0749 -1.99613 0
M  V30 4340 H 400.073 -2.45117 -4.39234 0
M  V30 4341 H 399.773 -4.18645 -4.12322 0
M  V30 4342 H 401.297 -3.6563 -4.89027 0
M  V30 4343 H 402.711 -4.89414 -2.98575 0
M  V30 4344 H 401.108 -5.47751 -2.45129 0
M  V30 4345 H 402.178 -4.67489 -1.28772 0
M  V30 4346 N 403.521 0.559213 -1.47345 0
M  V30 4347 C 404.768 1.31648 -1.53867 0
M  V30 4348 C 405.096 1.93468 -0.200104 0
M  V30 4349 O 404.351 1.78295 0.806799 0
M  V30 4350 C 404.65 2.44853 -2.6035 0
M  V30 4351 C 404.316 2.00876 -4.03683 0
M  V30 4352 C 402.978 1.88599 -4.42701 0
M  V30 4353 C 405.33 1.67279 -4.93626 0
M  V30 4354 C 402.658 1.41017 -5.69501 0
M  V30 4355 C 405.01 1.21169 -6.20887 0
M  V30 4356 C 403.674 1.07487 -6.58789 0
M  V30 4357 H 402.944 0.481734 -0.56304 0
M  V30 4358 H 405.591 0.627301 -1.80934 0
M  V30 4359 H 403.896 3.19318 -2.27032 0
M  V30 4360 H 405.593 3.03039 -2.62619 0
M  V30 4361 H 402.183 2.11374 -3.72853 0
M  V30 4362 H 406.367 1.75638 -4.64182 0
M  V30 4363 H 401.623 1.29086 -5.97618 0
M  V30 4364 H 405.797 0.942345 -6.89995 0
M  V30 4365 H 403.424 0.703946 -7.56934 0
M  V30 4366 N 404.999 1.35443 0.805782 0
M  V30 4367 C 405.909 1.30546 1.94923 0
M  V30 4368 C 406.925 0.210233 1.72725 0
M  V30 4369 O 408.101 0.43975 1.9654 0
M  V30 4370 C 405.166 1.07782 3.29521 0
M  V30 4371 C 404.227 2.26625 3.64609 0
M  V30 4372 C 403.46 2.04938 4.92784 0
M  V30 4373 O 403.683 1.01624 5.61274 0
M  V30 4374 O 402.617 2.9232 5.26149 0
M  V30 4375 H 406.443 2.26779 2.02002 0
M  V30 4376 H 404.028 1.15823 0.943682 0
M  V30 4377 H 405.91 0.969392 4.10098 0
M  V30 4378 H 404.585 0.146003 3.23371 0
M  V30 4379 H 403.492 2.43033 2.84404 0
M  V30 4380 H 404.825 3.18257 3.75464 0
M  V30 4381 N 406.477 -1.02803 1.19454 0
M  V30 4382 C 407.387 -2.14575 0.948408 0
M  V30 4383 C 408.403 -1.73757 -0.091871 0
M  V30 4384 O 409.579 -2.01185 0.0929654 0
M  V30 4385 C 406.644 -3.43202 0.491265 0
M  V30 4386 C 405.705 -3.98328 1.60103 0
M  V30 4387 C 404.938 -5.20816 1.16561 0
M  V30 4388 O 405.161 -5.70392 0.0295238 0
M  V30 4389 O 404.095 -5.68801 1.96849 0
M  V30 4390 H 407.921 -2.38202 1.88397 0
M  V30 4391 H 405.506 -1.12989 0.977433 0
M  V30 4392 H 407.388 -4.20687 0.245015 0
M  V30 4393 H 406.063 -3.21018 -0.415851 0
M  V30 4394 H 404.97 -3.22174 1.90144 0
M  V30 4395 H 406.303 -4.24879 2.48473 0
M  V30 4396 N 407.956 -0.998596 -1.21925 0
M  V30 4397 C 408.903 -0.553621 -2.24062 0
M  V30 4398 C 409.873 0.416999 -1.6078 0
M  V30 4399 O 411.058 0.320482 -1.88089 0
M  V30 4400 C 408.198 0.119959 -3.44891 0
M  V30 4401 C 407.311 -0.893077 -4.22668 0
M  V30 4402 C 406.446 -0.192424 -5.30851 0
M  V30 4403 C 405.485 -1.19344 -6.00353 0
M  V30 4404 N 404.622 -0.520707 -7.00166 0
M  V30 4405 H 409.462 -1.4293 -2.61486 0
M  V30 4406 H 406.999 -0.715838 -1.28507 0
M  V30 4407 H 408.957 0.527459 -4.13852 0
M  V30 4408 H 407.587 0.959389 -3.08214 0
M  V30 4409 H 406.639 -1.41886 -3.52948 0
M  V30 4410 H 407.951 -1.65512 -4.70539 0
M  V30 4411 H 407.105 0.271515 -6.06092 0
M  V30 4412 H 405.844 0.602075 -4.83969 0
M  V30 4413 H 404.849 -1.66795 -5.23889 0
M  V30 4414 H 406.074 -1.98891 -6.49322 0
M  V30 4415 H 404.02 0.254252 -6.55507 0
M  V30 4416 H 403.937 -1.2211 -7.46073 0
M  V30 4417 H 405.205 -0.0797596 -7.79459 0
M  V30 4418 N 409.434 1.37368 -0.772513 0
M  V30 4419 C 410.683 1.98918 -0.333861 0
M  V30 4420 C 410.996 1.62017 1.09589 0
M  V30 4421 O 412.202 2.16676 1.63596 0
M  V30 4422 C 410.658 3.55735 -0.545971 0
M  V30 4423 C 410.266 4.01573 -1.98603 0
M  V30 4424 C 412.01 4.24156 -0.170979 0
M  V30 4425 C 409.917 5.51102 -2.1457 0
M  V30 4426 H 408.847 0.744214 -0.121085 0
M  V30 4427 H 411.498 1.56888 -0.95175 0
M  V30 4428 H 409.88 3.95748 0.141387 0
M  V30 4429 H 411.054 3.72803 -2.7084 0
M  V30 4430 H 409.369 3.45937 -2.31769 0
M  V30 4431 H 411.966 5.34024 -0.26878 0
M  V30 4432 H 412.309 4.06917 0.878855 0
M  V30 4433 H 412.842 3.89447 -0.810914 0
M  V30 4434 H 409.581 5.73268 -3.17875 0
M  V30 4435 H 409.101 5.81554 -1.46817 0
M  V30 4436 H 410.78 6.17083 -1.94468 0
M  V30 4437 N 410.912 0.523116 1.48665 0
M  V30 4438 C 411.859 -0.243398 2.29513 0
M  V30 4439 C 412.829 -0.940139 1.36933 0
M  V30 4440 O 414.014 -0.942503 1.65896 0
M  V30 4441 C 411.154 -1.28855 3.20141 0
M  V30 4442 C 410.267 -0.60135 4.27794 0
M  V30 4443 C 409.402 -1.62884 5.05611 0
M  V30 4444 C 408.441 -0.924726 6.05075 0
M  V30 4445 N 407.578 -1.89744 6.75975 0
M  V30 4446 H 412.418 0.452234 2.94549 0
M  V30 4447 H 409.955 0.234858 1.45213 0
M  V30 4448 H 411.913 -1.90674 3.71079 0
M  V30 4449 H 410.543 -1.95266 2.57043 0
M  V30 4450 H 409.595 0.130623 3.80176 0
M  V30 4451 H 410.907 -0.0481585 4.98777 0
M  V30 4452 H 410.061 -2.32149 5.60528 0
M  V30 4453 H 408.8 -2.21592 4.34452 0
M  V30 4454 H 407.805 -0.217966 5.49368 0
M  V30 4455 H 409.03 -0.343851 6.78229 0
M  V30 4456 H 406.976 -2.47373 6.07571 0
M  V30 4457 H 406.893 -1.3955 7.43009 0
M  V30 4458 H 408.161 -2.58229 7.35485 0
M  V30 4459 N 412.39 -1.55475 0.257931 0
M  V30 4460 C 413.337 -2.21837 -0.636939 0
M  V30 4461 C 414.307 -1.18596 -1.16294 0
M  V30 4462 O 415.492 -1.47081 -1.21539 0
M  V30 4463 C 412.632 -2.9301 -1.82317 0
M  V30 4464 C 411.745 -4.10931 -1.33265 0
M  V30 4465 C 410.88 -4.69791 -2.47931 0
M  V30 4466 C 409.919 -5.7994 -1.95796 0
M  V30 4467 N 409.056 -6.32935 -3.0387 0
M  V30 4468 H 413.896 -2.9793 -0.0643591 0
M  V30 4469 H 411.433 -1.47086 -0.0200031 0
M  V30 4470 H 413.391 -3.3248 -2.52018 0
M  V30 4471 H 412.021 -2.1937 -2.36805 0
M  V30 4472 H 411.073 -3.76699 -0.52931 0
M  V30 4473 H 412.385 -4.90417 -0.910654 0
M  V30 4474 H 411.539 -5.11892 -3.25656 0
M  V30 4475 H 410.278 -3.89545 -2.93438 0
M  V30 4476 H 409.283 -5.37305 -1.16546 0
M  V30 4477 H 410.508 -6.62043 -1.51246 0
M  V30 4478 H 408.454 -5.55591 -3.48791 0
M  V30 4479 H 408.371 -7.07645 -2.66035 0
M  V30 4480 H 409.639 -6.79695 -3.81621 0
M  V30 4481 N 413.868 0.0150385 -1.57593 0
M  V30 4482 C 415.093 0.718067 -1.94573 0
M  V30 4483 C 415.518 1.6734 -0.859005 0
M  V30 4484 O 414.876 1.80362 0.184147 0
M  V30 4485 C 414.924 1.43918 -3.30636 0
M  V30 4486 O 414.028 2.55299 -3.23876 0
M  V30 4487 H 413.369 0.192125 -0.635597 0
M  V30 4488 H 415.899 -0.0336708 -2.04572 0
M  V30 4489 H 415.909 1.80598 -3.65853 0
M  V30 4490 H 414.584 0.738619 -4.09289 0
M  V30 4491 H 413.161 2.21058 -3.00312 0
M  V30 4492 N 415.346 1.54954 0.287554 0
M  V30 4493 C 416.757 1.65732 0.859634 0
M  V30 4494 C 417.108 0.574767 1.87592 0
M  V30 4495 O 416.233 -0.286299 2.14498 0
M  V30 4496 C 416.828 3.00438 1.56597 0
M  V30 4497 C 415.387 3.13292 2.08627 0
M  V30 4498 C 414.534 2.61473 0.923416 0
M  V30 4499 H 417.485 1.5857 0.0642338 0
M  V30 4500 H 417.506 2.92613 2.43224 0
M  V30 4501 H 417.018 3.79207 0.826053 0
M  V30 4502 H 415.119 2.39268 2.85625 0
M  V30 4503 H 415.232 4.19647 2.31157 0
M  V30 4504 H 413.596 2.18264 1.31275 0
M  V30 4505 H 414.379 3.42733 0.197241 0
M  V30 4506 N 416.824 -0.551391 1.4764 0
M  V30 4507 C 417.754 -1.66757 1.63445 0
M  V30 4508 C 418.735 -1.63077 0.483742 0
M  V30 4509 O 419.92 -1.80607 0.71377 0
M  V30 4510 C 417.05 -3.05387 1.65396 0
M  V30 4511 C 416.004 -3.23918 2.79752 0
M  V30 4512 C 415.33 -4.63393 2.66779 0
M  V30 4513 C 416.63 -3.08735 4.21284 0
M  V30 4514 H 418.324 -1.53786 2.56886 0
M  V30 4515 H 415.87 -0.738415 1.23626 0
M  V30 4516 H 417.823 -3.83325 1.75043 0
M  V30 4517 H 416.547 -3.19332 0.685195 0
M  V30 4518 H 415.206 -2.48391 2.69625 0
M  V30 4519 H 414.854 -4.74144 1.67918 0
M  V30 4520 H 414.554 -4.7674 3.43501 0
M  V30 4521 H 416.078 -5.43458 2.78364 0
M  V30 4522 H 417.492 -3.76484 4.32357 0
M  V30 4523 H 415.889 -3.33588 4.98838 0
M  V30 4524 H 416.959 -2.0541 4.39243 0
M  V30 4525 N 418.302 -1.35869 -0.798587 0
M  V30 4526 C 419.53 -1.32722 -1.58722 0
M  V30 4527 C 419.945 0.0935631 -1.88568 0
M  V30 4528 O 419.302 1.04784 -1.49421 0
M  V30 4529 C 419.353 -2.13974 -2.91371 0
M  V30 4530 O 419.074 -3.50514 -2.62815 0
M  V30 4531 C 420.575 -2.18504 -3.85708 0
M  V30 4532 H 417.795 -0.45562 -0.492596 0
M  V30 4533 H 420.339 -1.78837 -0.991843 0
M  V30 4534 H 418.494 -1.71438 -3.47402 0
M  V30 4535 H 418.908 -3.92806 -3.47568 0
M  V30 4536 H 420.382 -2.79732 -4.75872 0
M  V30 4537 H 420.859 -1.18597 -4.22885 0
M  V30 4538 H 421.465 -2.61236 -3.35612 0
M  V30 4539 N 419.78 1.02168 -1.19998 0
M  V30 4540 C 421.029 1.75091 -1.0013 0
M  V30 4541 C 421.342 1.89923 0.467835 0
M  V30 4542 O 422.548 2.59888 0.785515 0
M  V30 4543 C 421.004 3.14892 -1.74273 0
M  V30 4544 C 420.612 3.0809 -3.25245 0
M  V30 4545 C 422.356 3.9206 -1.62755 0
M  V30 4546 C 420.263 4.42867 -3.91948 0
M  V30 4547 H 419.193 0.656394 -0.37103 0
M  V30 4548 H 421.844 1.14284 -1.43567 0
M  V30 4549 H 420.226 3.7621 -1.2362 0
M  V30 4550 H 421.4 2.5611 -3.83072 0
M  V30 4551 H 419.715 2.44416 -3.3712 0
M  V30 4552 H 422.312 4.91764 -2.09934 0
M  V30 4553 H 422.655 4.12199 -0.582894 0
M  V30 4554 H 423.188 3.37359 -2.10793 0
M  V30 4555 H 419.927 4.27931 -4.96543 0
M  V30 4556 H 419.447 4.94874 -3.3891 0
M  V30 4557 H 421.126 5.11728 -3.95909 0
M  V30 4558 N 421.258 1.00505 1.21394 0
M  V30 4559 C 422.498 0.696149 1.9218 0
M  V30 4560 C 422.862 -0.759099 1.76357 0
M  V30 4561 O 424.063 -1.17998 2.41516 0
M  V30 4562 C 422.334 1.10571 3.39866 0
M  V30 4563 S 423.893 0.91702 4.29111 0
M  V30 4564 H 420.711 0.254147 0.664026 0
M  V30 4565 H 423.313 1.28988 1.46909 0
M  V30 4566 H 422.017 2.16096 3.489 0
M  V30 4567 H 421.548 0.504268 3.90155 0
M  V30 4568 H 423.563 -0.185855 4.95852 0
M  V30 4569 N 422.737 -1.36956 0.779787 0
M  V30 4570 C 423.967 -2.03459 0.358877 0
M  V30 4571 C 424.375 -1.58939 -1.02641 0
M  V30 4572 O 423.718 -0.769777 -1.66794 0
M  V30 4573 C 423.78 -3.5796 0.332393 0
M  V30 4574 C 423.444 -4.25644 1.66362 0
M  V30 4575 C 424.441 -4.49205 2.61746 0
M  V30 4576 C 422.126 -4.63313 1.94027 0
M  V30 4577 C 424.12 -5.09503 3.82996 0
M  V30 4578 C 421.807 -5.2333 3.15546 0
M  V30 4579 C 422.805 -5.46363 4.0985 0
M  V30 4580 O 422.493 -6.05122 5.29228 0
M  V30 4581 H 422.225 -0.659767 0.147254 0
M  V30 4582 H 424.779 -1.76111 1.05708 0
M  V30 4583 H 423.009 -3.84388 -0.422237 0
M  V30 4584 H 424.698 -4.05852 -0.0625389 0
M  V30 4585 H 425.464 -4.20508 2.41657 0
M  V30 4586 H 421.343 -4.44715 1.21448 0
M  V30 4587 H 424.887 -5.27397 4.56617 0
M  V30 4588 H 420.784 -5.51451 3.35517 0
M  V30 4589 H 421.552 -6.23595 5.30161 0
M  V30 4590 N 424.215 -0.530993 -1.48385 0
M  V30 4591 C 425.626 -0.0907905 -1.86479 0
M  V30 4592 C 425.977 1.33213 -1.44044 0
M  V30 4593 O 425.102 1.99783 -0.831615 0
M  V30 4594 C 425.697 -0.157987 -3.38431 0
M  V30 4595 C 424.256 0.227026 -3.75715 0
M  V30 4596 C 423.403 -0.5173 -2.72432 0
M  V30 4597 H 426.354 -0.742186 -1.40276 0
M  V30 4598 H 426.375 0.630053 -3.75247 0
M  V30 4599 H 425.887 -1.19372 -3.69286 0
M  V30 4600 H 423.988 1.26486 -3.50474 0
M  V30 4601 H 424.101 -0.113288 -4.78966 0
M  V30 4602 H 422.465 0.0365527 -2.54674 0
M  V30 4603 H 423.248 -1.55368 -3.0613 0
M  V30 4604 N 425.693 1.55336 -0.266172 0
M  V30 4605 C 426.603 2.2583 0.635458 0
M  V30 4606 C 427.619 1.28106 1.17749 0
M  V30 4607 O 428.795 1.61024 1.20968 0
M  V30 4608 C 425.86 2.95879 1.80712 0
M  V30 4609 C 424.921 4.09059 1.30265 0
M  V30 4610 C 424.154 4.75759 2.41846 0
M  V30 4611 O 424.377 4.41622 3.61007 0
M  V30 4612 O 423.311 5.63888 2.1051 0
M  V30 4613 H 427.137 3.03631 0.0646693 0
M  V30 4614 H 424.722 1.49361 -0.0339177 0
M  V30 4615 H 426.604 3.39932 2.49047 0
M  V30 4616 H 425.279 2.21002 2.36516 0
M  V30 4617 H 424.186 3.69482 0.586019 0
M  V30 4618 H 425.519 4.85811 0.790458 0
M  V30 4619 N 427.171 -0.0066808 1.57599 0
M  V30 4620 C 428.401 -0.703066 1.94269 0
M  V30 4621 C 428.809 -1.68206 0.866222 0
M  V30 4622 O 428.152 -1.82966 -0.164087 0
M  V30 4623 C 428.214 -1.49616 3.26887 0
M  V30 4624 C 427.878 -0.679494 4.5192 0
M  V30 4625 C 428.875 0.0299508 5.19891 0
M  V30 4626 C 426.56 -0.627433 4.98366 0
M  V30 4627 C 428.554 0.780514 6.32603 0
M  V30 4628 C 426.241 0.126861 6.10968 0
M  V30 4629 C 427.239 0.829574 6.77943 0
M  V30 4630 O 426.927 1.57157 7.88389 0
M  V30 4631 H 426.659 -0.201217 0.645359 0
M  V30 4632 H 429.213 0.0385326 2.05364 0
M  V30 4633 H 427.443 -2.28209 3.12182 0
M  V30 4634 H 429.132 -2.07726 3.48719 0
M  V30 4635 H 429.898 -0.00115963 4.85 0
M  V30 4636 H 425.777 -1.16392 4.46065 0
M  V30 4637 H 429.321 1.32954 6.84813 0
M  V30 4638 H 425.218 0.159815 6.45302 0
M  V30 4639 H 425.986 1.48758 8.04868 0
M  V30 4640 N 428.649 -1.55105 -0.279332 0
M  V30 4641 C 429.612 -1.86783 -1.32834 0
M  V30 4642 C 430.612 -0.74199 -1.42657 0
M  V30 4643 O 431.802 -1.0102 -1.41918 0
M  V30 4644 C 428.934 -2.06746 -2.71052 0
M  V30 4645 H 430.127 -2.8055 -1.05979 0
M  V30 4646 H 427.68 -1.47499 -0.517087 0
M  V30 4647 H 428.415 -1.15339 -3.03097 0
M  V30 4648 H 428.2 -2.88711 -2.65309 0
M  V30 4649 H 429.69 -2.32549 -3.46858 0
M  V30 4650 N 430.127 0.543554 -1.4793 0
M  V30 4651 C 431.375 1.29752 -1.54948 0
M  V30 4652 C 431.696 1.93764 -0.219242 0
M  V30 4653 O 430.966 1.80639 0.75805 0
M  V30 4654 H 429.546 0.481874 -0.570795 0
M  V30 4655 H 432.208 0.633636 -1.84312 0
M  V30 4656 H 431.304 2.08392 -2.32334 0
M  V30 4657 N 431.605 1.3629 0.791371 0
M  V30 4658 C 432.83 1.33726 1.58531 0
M  V30 4659 C 433.255 -0.0794933 1.87932 0
M  V30 4660 O 432.613 -1.05087 1.47738 0
M  V30 4661 C 432.661 2.16425 2.88431 0
M  V30 4662 O 431.765 1.5554 3.81944 0
M  V30 4663 H 431.106 0.457793 0.480959 0
M  V30 4664 H 433.636 1.79547 0.981031 0
M  V30 4665 H 433.646 2.28933 3.37718 0
M  V30 4666 H 432.321 3.19415 2.66359 0
M  V30 4667 H 430.898 1.51961 3.40532 0
M  V30 4668 N 433.083 -1.0153 1.20538 0
M  V30 4669 C 434.031 -2.12215 0.952235 0
M  V30 4670 C 435.025 -1.69123 -0.0968735 0
M  V30 4671 O 436.231 -1.7992 0.0536006 0
M  V30 4672 H 432.606 -0.693576 0.290613 0
M  V30 4673 H 434.577 -2.3075 1.89201 0
M  V30 4674 C 433.326 -3.43755 0.522287 0
M  V30 4675 H 432.649 -3.7734 1.32115 0
M  V30 4676 H 434.089 -4.22254 0.384389 0
M  V30 4677 C 432.548 -3.28088 -0.765489 0
M  V30 4678 O 433.078 -3.57921 -1.8236 0
M  V30 4679 N 431.284 -2.81333 -0.728011 0
M  V30 4680 H 430.831 -2.57255 0.133332 0
M  V30 4681 H 430.789 -2.71232 -1.58999 0
M  V30 4682 N 434.561 -1.01147 -1.20859 0
M  V30 4683 C 435.789 -0.716911 -1.94082 0
M  V30 4684 C 436.204 0.721568 -1.74467 0
M  V30 4685 O 435.561 1.48889 -1.05539 0
M  V30 4686 C 435.612 -1.03662 -3.46318 0
M  V30 4687 O 435.333 -2.4186 -3.65288 0
M  V30 4688 C 436.834 -0.762386 -4.36695 0
M  V30 4689 H 434.054 -0.26367 -0.617024 0
M  V30 4690 H 436.598 -1.35127 -1.53496 0
M  V30 4691 H 434.753 -0.447757 -3.84804 0
M  V30 4692 H 435.167 -2.53224 -4.59323 0
M  V30 4693 H 436.641 -1.03621 -5.42187 0
M  V30 4694 H 437.118 0.303514 -4.3815 0
M  V30 4695 H 437.724 -1.33316 -4.03865 0
M  V30 4696 N 436.039 1.36541 -0.78704 0
M  V30 4697 C 437.269 2.03266 -0.369662 0
M  V30 4698 C 437.677 1.59481 1.01796 0
M  V30 4699 O 437.02 0.778612 1.66383 0
M  V30 4700 C 437.082 3.57779 -0.351371 0
M  V30 4701 C 436.746 4.24756 -1.68617 0
M  V30 4702 C 437.743 4.47811 -2.64124 0
M  V30 4703 C 435.428 4.62277 -1.96481 0
M  V30 4704 C 437.422 5.07464 -3.85693 0
M  V30 4705 C 435.109 5.21649 -3.18317 0
M  V30 4706 C 436.107 5.44182 -4.12741 0
M  V30 4707 O 435.795 6.02307 -5.32429 0
M  V30 4708 H 435.527 0.658977 -0.150751 0
M  V30 4709 H 438.081 1.75548 -1.0664 0
M  V30 4710 H 436.311 3.84606 0.401847 0
M  V30 4711 H 438 4.05879 0.0410147 0
M  V30 4712 H 438.766 4.19221 -2.43883 0
M  V30 4713 H 434.645 4.44065 -1.23805 0
M  V30 4714 H 438.189 5.24968 -4.59407 0
M  V30 4715 H 434.086 5.49664 -3.38437 0
M  V30 4716 H 434.854 6.20775 -5.33461 0
M  V30 4717 N 437.518 0.538854 1.48102 0
M  V30 4718 C 438.428 -0.222648 2.33541 0
M  V30 4719 C 439.444 -0.930225 1.47047 0
M  V30 4720 O 440.62 -0.903211 1.80011 0
M  V30 4721 C 437.685 -1.25064 3.23357 0
M  V30 4722 C 436.746 -0.552469 4.2573 0
M  V30 4723 C 435.979 -1.53149 5.11254 0
M  V30 4724 O 436.202 -2.76487 4.9891 0
M  V30 4725 O 435.136 -1.06602 5.92385 0
M  V30 4726 H 438.962 0.477707 2.99919 0
M  V30 4727 H 436.547 0.299669 1.46364 0
M  V30 4728 H 438.429 -1.8445 3.78888 0
M  V30 4729 H 437.104 -1.93325 2.59629 0
M  V30 4730 H 436.011 0.082114 3.7401 0
M  V30 4731 H 437.344 0.0883526 4.92121 0
M  V30 4732 N 438.996 -1.55193 0.274407 0
M  V30 4733 C 439.906 -2.26164 -0.623473 0
M  V30 4734 C 440.922 -1.28729 -1.17068 0
M  V30 4735 O 442.098 -1.61663 -1.20112 0
M  V30 4736 C 439.163 -2.96833 -1.7914 0
M  V30 4737 C 438.224 -4.09745 -1.28093 0
M  V30 4738 C 437.457 -4.77034 -2.3932 0
M  V30 4739 O 437.68 -4.4353 -3.5866 0
M  V30 4740 O 436.614 -5.64996 -2.07516 0
M  V30 4741 H 440.44 -3.03661 -0.0485661 0
M  V30 4742 H 438.025 -1.49341 0.0418382 0
M  V30 4743 H 439.907 -3.41248 -2.4724 0
M  V30 4744 H 438.582 -2.22253 -2.35341 0
M  V30 4745 H 437.489 -3.69787 -0.566416 0
M  V30 4746 H 438.822 -4.86224 -0.764683 0
M  V30 4747 N 440.474 -0.00167713 -1.576 0
M  V30 4748 C 441.437 0.974046 -2.07473 0
M  V30 4749 C 442.437 1.27143 -0.984444 0
M  V30 4750 O 443.627 1.21633 -1.24703 0
M  V30 4751 C 440.759 2.29849 -2.51759 0
M  V30 4752 H 441.952 0.54262 -2.9495 0
M  V30 4753 H 439.505 0.245829 -1.54355 0
M  V30 4754 H 440.24 2.77677 -1.67529 0
M  V30 4755 H 440.025 2.09584 -3.31386 0
M  V30 4756 H 441.515 2.9984 -2.90664 0
M  V30 4757 N 441.952 1.55251 0.271103 0
M  V30 4758 C 442.915 1.87484 1.31842 0
M  V30 4759 C 443.915 0.749545 1.42262 0
M  V30 4760 O 445.105 1.01771 1.4138 0
M  V30 4761 C 442.237 2.0818 2.69951 0
M  V30 4762 H 443.43 2.81108 1.0449 0
M  V30 4763 H 440.983 1.47771 0.509258 0
M  V30 4764 H 441.718 1.16944 3.02481 0
M  V30 4765 H 441.503 2.90114 2.63774 0
M  V30 4766 H 442.993 2.34385 3.4562 0
M  V30 4767 N 443.43 -0.535701 1.48216 0
M  V30 4768 C 444.393 -1.623 1.61838 0
M  V30 4769 C 445.393 -1.53087 0.492024 0
M  V30 4770 O 446.583 -1.5686 0.757668 0
M  V30 4771 C 443.715 -3.01907 1.58319 0
M  V30 4772 H 444.908 -1.51564 2.58783 0
M  V30 4773 H 442.461 -0.757317 1.36727 0
M  V30 4774 H 443.196 -3.18155 0.628299 0
M  V30 4775 H 442.981 -3.10003 2.40085 0
M  V30 4776 H 444.471 -3.80969 1.71033 0
M  V30 4777 N 444.908 -1.36708 -0.784132 0
M  V30 4778 C 446.138 -1.34203 -1.57077 0
M  V30 4779 C 446.546 0.0774945 -1.89041 0
M  V30 4780 O 445.889 1.04628 -1.50992 0
M  V30 4781 C 445.951 -2.10351 -2.91535 0
M  V30 4782 C 445.615 -3.59405 -2.82272 0
M  V30 4783 C 446.612 -4.53545 -2.54151 0
M  V30 4784 C 444.297 -4.02362 -3.00683 0
M  V30 4785 C 446.291 -5.8862 -2.44551 0
M  V30 4786 C 443.978 -5.37526 -2.90704 0
M  V30 4787 C 444.976 -6.30468 -2.62677 0
M  V30 4788 O 444.664 -7.63149 -2.52702 0
M  V30 4789 H 444.396 -0.461791 -0.493685 0
M  V30 4790 H 446.95 -1.80475 -0.980712 0
M  V30 4791 H 445.18 -1.5875 -3.52612 0
M  V30 4792 H 446.869 -2.00636 -3.52845 0
M  V30 4793 H 447.635 -4.21669 -2.39625 0
M  V30 4794 H 443.514 -3.30389 -3.21503 0
M  V30 4795 H 447.058 -6.61133 -2.22596 0
M  V30 4796 H 442.955 -5.69008 -3.04795 0
M  V30 4797 H 443.723 -7.73331 -2.68144 0
M  V30 4798 N 446.386 1.0089 -1.21074 0
M  V30 4799 C 447.635 1.74019 -1.01981 0
M  V30 4800 C 447.948 1.90408 0.447665 0
M  V30 4801 O 449.154 2.60707 0.757906 0
M  V30 4802 C 447.61 3.13026 -1.77603 0
M  V30 4803 C 447.218 3.04623 -3.28495 0
M  V30 4804 C 448.962 3.90312 -1.66904 0
M  V30 4805 C 446.869 4.38685 -3.96623 0
M  V30 4806 H 445.799 0.652422 -0.377971 0
M  V30 4807 H 448.45 1.12755 -1.44771 0
M  V30 4808 H 446.832 3.74878 -1.27604 0
M  V30 4809 H 448.006 2.52032 -3.85767 0
M  V30 4810 H 446.321 2.40827 -3.39693 0
M  V30 4811 H 448.918 4.8951 -2.15138 0
M  V30 4812 H 449.261 4.11558 -0.62658 0
M  V30 4813 H 449.794 3.35104 -2.14359 0
M  V30 4814 H 446.533 4.22641 -5.01054 0
M  V30 4815 H 446.053 4.91252 -3.4414 0
M  V30 4816 H 447.732 5.075 -4.01314 0
M  V30 4817 N 447.864 1.01787 1.20321 0
M  V30 4818 C 448.796 0.547357 2.22568 0
M  V30 4819 C 449.809 -0.370922 1.58518 0
M  V30 4820 O 450.998 -0.169067 1.77698 0
M  V30 4821 C 448.098 -0.223031 3.38165 0
M  V30 4822 C 447.271 0.697472 4.31803 0
M  V30 4823 C 446.33 -0.025562 5.26194 0
M  V30 4824 O 445.356 0.597367 5.66057 0
M  V30 4825 N 446.558 -1.29999 5.65757 0
M  V30 4826 H 449.323 1.42668 2.63564 0
M  V30 4827 H 446.884 0.895552 1.34876 0
M  V30 4828 H 448.876 -0.716002 3.98316 0
M  V30 4829 H 447.446 -1.00366 2.9605 0
M  V30 4830 H 446.666 1.37073 3.69601 0
M  V30 4831 H 447.954 1.32347 4.91286 0
M  V30 4832 H 447.352 -1.827 5.35385 0
M  V30 4833 H 445.909 -1.73766 6.28211 0
M  V30 4834 N 449.342 -1.36122 0.79427 0
M  V30 4835 C 450.582 -2.00942 0.374376 0
M  V30 4836 C 450.946 -1.61666 -1.03577 0
M  V30 4837 O 452.147 -2.19113 -1.55701 0
M  V30 4838 C 450.418 -3.53323 0.538327 0
M  V30 4839 S 451.977 -4.38311 0.20703 0
M  V30 4840 H 448.795 -0.696515 0.142785 0
M  V30 4841 H 451.397 -1.65929 1.03382 0
M  V30 4842 H 450.101 -3.79395 1.56484 0
M  V30 4843 H 449.632 -3.93162 -0.136882 0
M  V30 4844 H 451.647 -4.8623 -0.989695 0
M  V30 4845 N 450.82 -0.546701 -1.47814 0
M  V30 4846 C 451.752 0.244196 -2.27895 0
M  V30 4847 C 452.765 0.88911 -1.36377 0
M  V30 4848 O 453.954 0.764733 -1.61289 0
M  V30 4849 C 451.054 1.36252 -3.10304 0
M  V30 4850 C 450.227 0.816382 -4.29714 0
M  V30 4851 C 449.286 1.81789 -4.93801 0
M  V30 4852 O 448.312 1.36818 -5.52512 0
M  V30 4853 N 449.514 3.15085 -4.87547 0
M  V30 4854 H 452.279 -0.442694 -2.96412 0
M  V30 4855 H 449.84 -0.382095 -1.57327 0
M  V30 4856 H 451.832 2.03102 -3.50045 0
M  V30 4857 H 450.402 1.95281 -2.44099 0
M  V30 4858 H 449.622 -0.0285981 -3.9419 0
M  V30 4859 H 450.91 0.430668 -5.06974 0
M  V30 4860 H 450.308 3.54275 -4.41028 0
M  V30 4861 H 448.865 3.77522 -5.31339 0
M  V30 4862 N 452.299 1.55045 -0.282633 0
M  V30 4863 C 453.546 1.9976 0.33199 0
M  V30 4864 C 453.874 1.17105 1.55295 0
M  V30 4865 O 453.129 0.230599 1.94337 0
M  V30 4866 C 453.428 3.49422 0.750938 0
M  V30 4867 C 453.094 4.4941 -0.366228 0
M  V30 4868 C 451.756 4.76471 -0.672964 0
M  V30 4869 C 454.108 5.09054 -1.11864 0
M  V30 4870 C 451.436 5.60442 -1.73556 0
M  V30 4871 C 453.788 5.9418 -2.17102 0
M  V30 4872 C 452.452 6.19558 -2.48402 0
M  V30 4873 H 451.722 0.730974 0.121484 0
M  V30 4874 H 454.369 1.8732 -0.39791 0
M  V30 4875 H 452.674 3.59377 1.56063 0
M  V30 4876 H 454.371 3.81432 1.23736 0
M  V30 4877 H 450.961 4.2844 -0.117041 0
M  V30 4878 H 455.145 4.88165 -0.894925 0
M  V30 4879 H 450.401 5.78349 -1.983 0
M  V30 4880 H 454.575 6.39427 -2.75873 0
M  V30 4881 H 452.202 6.84417 -3.30874 0
M  V30 4882 N 453.777 0.010035 1.57597 0
M  V30 4883 C 454.687 -0.994226 2.12491 0
M  V30 4884 C 455.703 -1.37013 1.07254 0
M  V30 4885 O 456.879 -1.45542 1.3921 0
M  V30 4886 C 453.944 -2.2642 2.62555 0
M  V30 4887 C 453.005 -1.95049 3.82432 0
M  V30 4888 C 452.238 -3.15991 4.30099 0
M  V30 4889 O 452.461 -4.28015 3.7704 0
M  V30 4890 O 451.395 -2.99403 5.22151 0
M  V30 4891 H 455.221 -0.557549 2.98538 0
M  V30 4892 H 452.806 -0.209413 1.47925 0
M  V30 4893 H 454.688 -3.01009 2.9491 0
M  V30 4894 H 453.363 -2.69306 1.796 0
M  V30 4895 H 452.27 -1.17904 3.55034 0
M  V30 4896 H 453.603 -1.56992 4.66491 0
M  V30 4897 N 455.255 -1.55392 -0.262866 0
M  V30 4898 C 456.532 -1.67204 -1.01499 0
M  V30 4899 C 456.912 -0.545186 -2.03939 0
M  V30 4900 O 456.26 0.453467 -2.23955 0
M  V30 4901 C 456.47 -3.06847 -1.6627 0
M  V30 4902 C 457.818 -3.64928 -2.17054 0
M  V30 4903 O 458.842 -3.09545 -1.76239 0
M  V30 4904 O 457.701 -4.61984 -2.91947 0
M  V30 4905 H 454.795 -0.679467 -0.471438 0
M  V30 4906 H 457.341 -1.67729 -0.257918 0
M  V30 4907 H 456.113 -3.80309 -0.920915 0
M  V30 4908 H 455.736 -3.10266 -2.48638 0
M  V30 4909 N 456.733 0.527833 -1.48498 0
M  V30 4910 C 457.663 1.64136 -1.66077 0
M  V30 4911 C 458.644 1.62286 -0.509625 0
M  V30 4912 O 459.829 1.79449 -0.742413 0
M  V30 4913 C 456.959 3.02717 -1.70234 0
M  V30 4914 C 455.913 3.19426 -2.8487 0
M  V30 4915 C 455.239 4.5909 -2.74118 0
M  V30 4916 C 456.539 3.01993 -4.26142 0
M  V30 4917 H 458.233 1.4968 -2.593 0
M  V30 4918 H 455.779 0.718654 -1.24785 0
M  V30 4919 H 457.732 3.80491 -1.8112 0
M  V30 4920 H 456.456 3.18201 -0.735911 0
M  V30 4921 H 455.115 2.4407 -2.73542 0
M  V30 4922 H 454.763 4.71413 -1.7544 0
M  V30 4923 H 454.463 4.71214 -3.51042 0
M  V30 4924 H 455.987 5.3896 -2.86974 0
M  V30 4925 H 457.401 3.69558 -4.38292 0
M  V30 4926 H 455.798 3.2561 -5.04082 0
M  V30 4927 H 456.868 1.98396 -4.42456 0
M  V30 4928 N 458.211 1.37122 0.776871 0
M  V30 4929 C 459.159 1.32549 1.91138 0
M  V30 4930 C 460.153 0.215119 1.68029 0
M  V30 4931 O 461.359 0.382852 1.75881 0
M  V30 4932 H 457.734 0.412952 0.62847 0
M  V30 4933 H 459.705 2.28332 1.92112 0
M  V30 4934 C 458.454 1.14422 3.28333 0
M  V30 4935 H 457.777 1.99115 3.46689 0
M  V30 4936 H 459.217 1.15272 4.0803 0
M  V30 4937 C 457.676 -0.150434 3.36564 0
M  V30 4938 O 458.206 -1.13584 3.85307 0
M  V30 4939 N 456.412 -0.19939 2.89915 0
M  V30 4940 H 455.959 0.603142 2.5044 0
M  V30 4941 H 455.917 -1.06526 2.95803 0
M  V30 4942 N 459.689 -1.00246 1.21608 0
M  V30 4943 C 460.636 -2.09073 0.977613 0
M  V30 4944 C 461.606 -1.65815 -0.097297 0
M  V30 4945 O 462.791 -1.90734 0.0503445 0
M  V30 4946 C 459.931 -3.40671 0.551133 0
M  V30 4947 C 459.044 -3.97326 1.69576 0
M  V30 4948 C 458.179 -5.17043 1.2182 0
M  V30 4949 C 457.218 -5.65813 2.335 0
M  V30 4950 N 456.355 -6.76778 1.86859 0
M  V30 4951 H 461.195 -2.28806 1.90924 0
M  V30 4952 H 458.732 -1.12186 0.951452 0
M  V30 4953 H 460.69 -4.16225 0.285097 0
M  V30 4954 H 459.32 -3.20967 -0.343489 0
M  V30 4955 H 458.372 -3.18734 2.07637 0
M  V30 4956 H 459.684 -4.29511 2.53617 0
M  V30 4957 H 458.838 -5.99852 0.908975 0
M  V30 4958 H 457.577 -4.86458 0.347869 0
M  V30 4959 H 456.582 -4.81599 2.65222 0
M  V30 4960 H 457.807 -5.98427 3.21033 0
M  V30 4961 H 455.753 -6.47994 1.02174 0
M  V30 4962 H 455.67 -7.08231 2.64471 0
M  V30 4963 H 456.938 -7.63116 1.58978 0
M  V30 4964 N 461.167 -1.02423 -1.1978 0
M  V30 4965 C 462.583 -0.740459 -1.41384 0
M  V30 4966 C 462.783 0.676827 -1.89793 0
M  V30 4967 O 461.839 1.4435 -2.0717 0
M  V30 4968 C 463.152 -1.77264 -2.42895 0
M  V30 4969 C 464.7 -1.79165 -2.56649 0
M  V30 4970 C 465.175 -2.8133 -3.6141 0
M  V30 4971 N 466.666 -2.80118 -3.68901 0
M  V30 4972 C 467.401 -3.55824 -4.49641 0
M  V30 4973 N 466.897 -4.41231 -5.34123 0
M  V30 4974 N 468.69 -3.44387 -4.44246 0
M  V30 4975 H 460.841 -1.9391 -0.866764 0
M  V30 4976 H 463.104 -0.838074 -0.443098 0
M  V30 4977 H 462.81 -2.7884 -2.14339 0
M  V30 4978 H 462.684 -1.59108 -3.42001 0
M  V30 4979 H 465.071 -0.782702 -2.84531 0
M  V30 4980 H 465.152 -2.01396 -1.57713 0
M  V30 4981 H 464.796 -3.82394 -3.34271 0
M  V30 4982 H 464.726 -2.56359 -4.59986 0
M  V30 4983 H 467.217 -2.1817 -3.08562 0
M  V30 4984 H 467.53 -4.95747 -5.92836 0
M  V30 4985 H 465.875 -4.45306 -5.33599 0
M  V30 4986 H 469.066 -2.7708 -3.77285 0
M  V30 4987 H 469.239 -4.0364 -5.06931 0
M  V30 4988 N 462.645 1.35699 -0.801477 0
M  V30 4989 C 463.592 2.29876 -0.206294 0
M  V30 4990 C 464.562 1.52565 0.656752 0
M  V30 4991 O 465.747 1.81024 0.602906 0
M  V30 4992 C 462.887 3.39052 0.643272 0
M  V30 4993 C 462 4.31335 -0.239644 0
M  V30 4994 C 461.135 5.27599 0.61744 0
M  V30 4995 C 460.174 6.11521 -0.26619 0
M  V30 4996 N 459.311 6.99938 0.550571 0
M  V30 4997 H 464.151 2.80187 -1.01484 0
M  V30 4998 H 461.688 1.37902 -0.511997 0
M  V30 4999 H 463.646 4.0101 1.15094 0
M  V30 5000 H 462.276 2.9003 1.41713 0
M  V30 5001 H 461.328 3.70426 -0.865381 0
M  V30 5002 H 462.64 4.90243 -0.919985 0
M  V30 5003 H 461.794 5.94906 1.19045 0
M  V30 5004 H 460.533 4.69176 1.33137 0
M  V30 5005 H 459.538 5.43166 -0.851507 0
M  V30 5006 H 460.763 6.72022 -0.9779 0
M  V30 5007 H 458.709 6.44008 1.24856 0
M  V30 5008 H 458.626 7.55966 -0.071832 0
M  V30 5009 H 459.894 7.71599 1.10702 0
M  V30 5010 N 464.123 0.554532 1.47522 0
M  V30 5011 C 465.4 -0.0360704 1.95567 0
M  V30 5012 C 465.78 -1.48828 1.49711 0
M  V30 5013 O 465.128 -2.16366 0.734717 0
M  V30 5014 C 465.338 0.106631 3.48837 0
M  V30 5015 C 466.686 -0.0400899 4.24581 0
M  V30 5016 O 467.71 0.0340453 3.56184 0
M  V30 5017 O 466.569 -0.199111 5.46137 0
M  V30 5018 H 463.663 -0.0656294 0.824392 0
M  V30 5019 H 466.209 0.620867 1.57935 0
M  V30 5020 H 464.981 1.11727 3.7501 0
M  V30 5021 H 464.604 -0.58804 3.93227 0
M  V30 5022 N 465.601 -1.54893 0.290851 0
M  V30 5023 C 466.829 -2.04343 -0.324288 0
M  V30 5024 C 467.244 -1.16859 -1.48289 0
M  V30 5025 O 466.601 -0.192018 -1.81487 0
M  V30 5026 C 466.652 -3.52756 -0.79026 0
M  V30 5027 O 466.373 -4.36913 0.322213 0
M  V30 5028 C 467.874 -4.18161 -1.4716 0
M  V30 5029 H 465.094 -0.667135 -0.0719173 0
M  V30 5030 H 467.638 -1.99981 0.427529 0
M  V30 5031 H 465.793 -3.57511 -1.49213 0
M  V30 5032 H 466.207 -5.24486 -0.0387372 0
M  V30 5033 H 467.681 -5.23562 -1.7489 0
M  V30 5034 H 468.158 -3.67282 -2.40834 0
M  V30 5035 H 468.764 -4.17454 -0.813178 0
M  V30 5036 N 467.08 -0.0183926 -1.57589 0
M  V30 5037 C 468.027 0.967022 -2.09565 0
M  V30 5038 C 468.997 1.32983 -0.995225 0
M  V30 5039 O 470.182 1.42501 -1.26878 0
M  V30 5040 C 467.322 2.24772 -2.61861 0
M  V30 5041 C 466.435 1.94232 -3.85873 0
M  V30 5042 C 465.57 3.16518 -4.26603 0
M  V30 5043 C 464.609 2.81748 -5.43401 0
M  V30 5044 N 463.746 3.96626 -5.79338 0
M  V30 5045 H 468.586 0.516874 -2.93483 0
M  V30 5046 H 466.123 0.243544 -1.4507 0
M  V30 5047 H 468.081 2.99667 -2.90268 0
M  V30 5048 H 466.711 2.67423 -1.8079 0
M  V30 5049 H 465.763 1.09625 -3.64262 0
M  V30 5050 H 467.075 1.64616 -4.70853 0
M  V30 5051 H 466.229 3.99743 -4.56389 0
M  V30 5052 H 464.968 3.49286 -3.40368 0
M  V30 5053 H 463.973 1.96933 -5.1332 0
M  V30 5054 H 465.198 2.50207 -6.31327 0
M  V30 5055 H 463.144 4.29257 -4.96059 0
M  V30 5056 H 463.061 3.70598 -6.58933 0
M  V30 5057 H 464.329 4.80586 -6.13724 0
M  V30 5058 N 468.558 1.5553 0.254621 0
M  V30 5059 C 469.468 1.92789 1.33677 0
M  V30 5060 C 470.484 0.827356 1.53071 0
M  V30 5061 O 471.66 1.12807 1.66843 0
M  V30 5062 C 468.725 2.20827 2.67275 0
M  V30 5063 C 467.786 3.4427 2.5647 0
M  V30 5064 C 467.019 3.70961 3.83697 0
M  V30 5065 O 467.242 2.99852 4.85227 0
M  V30 5066 O 466.176 4.64491 3.82794 0
M  V30 5067 H 470.002 2.84945 1.05071 0
M  V30 5068 H 467.587 1.42312 0.454723 0
M  V30 5069 H 469.469 2.40204 3.46237 0
M  V30 5070 H 468.144 1.31851 2.9563 0
M  V30 5071 H 467.051 3.30209 1.75821 0
M  V30 5072 H 468.384 4.33524 2.33062 0
M  V30 5073 N 470.036 -0.519951 1.48776 0
M  V30 5074 C 471.285 -1.27175 1.56555 0
M  V30 5075 C 471.598 -1.9401 0.248869 0
M  V30 5076 O 472.804 -2.70725 0.205004 0
M  V30 5077 C 471.26 -2.30811 2.76142 0
M  V30 5078 C 470.868 -1.7 4.14493 0
M  V30 5079 C 472.612 -3.06937 2.9324 0
M  V30 5080 C 470.519 -2.71635 5.25327 0
M  V30 5081 H 469.449 -0.478329 0.582853 0
M  V30 5082 H 472.1 -0.547916 1.75129 0
M  V30 5083 H 470.482 -3.06274 2.51023 0
M  V30 5084 H 471.656 -1.00658 4.49672 0
M  V30 5085 H 469.971 -1.06331 4.02595 0
M  V30 5086 H 472.568 -3.82905 3.73213 0
M  V30 5087 H 472.911 -3.63409 2.03075 0
M  V30 5088 H 473.444 -2.38589 3.18308 0
M  V30 5089 H 470.183 -2.1997 6.1749 0
M  V30 5090 H 469.703 -3.39275 4.94624 0
M  V30 5091 H 471.382 -3.34429 5.53865 0
M  V30 5092 N 471.514 -1.37532 -0.769588 0
M  V30 5093 C 472.744 -1.35861 -1.55645 0
M  V30 5094 C 473.152 0.0574398 -1.89113 0
M  V30 5095 O 472.495 1.03021 -1.52093 0
M  V30 5096 C 472.557 -2.13431 -2.89288 0
M  V30 5097 C 472.221 -3.62378 -2.78444 0
M  V30 5098 C 473.218 -4.56215 -2.49326 0
M  V30 5099 C 470.903 -4.05529 -2.96398 0
M  V30 5100 C 472.897 -5.91181 -2.38294 0
M  V30 5101 C 470.584 -5.40579 -2.84987 0
M  V30 5102 C 471.582 -6.33218 -2.55975 0
M  V30 5103 O 471.27 -7.65787 -2.44594 0
M  V30 5104 H 471.002 -0.467001 -0.48876 0
M  V30 5105 H 473.556 -1.81505 -0.961515 0
M  V30 5106 H 471.786 -1.62481 -3.50909 0
M  V30 5107 H 473.475 -2.04368 -3.50697 0
M  V30 5108 H 474.241 -4.24187 -2.35139 0
M  V30 5109 H 470.12 -3.33781 -3.1798 0
M  V30 5110 H 473.664 -6.63457 -2.15571 0
M  V30 5111 H 469.561 -5.72209 -2.98743 0
M  V30 5112 H 470.329 -7.76132 -2.59927 0
M  V30 5113 N 472.992 0.995999 -1.22138 0
M  V30 5114 C 474.22 1.77066 -1.07029 0
M  V30 5115 C 474.635 1.8495 0.379357 0
M  V30 5116 O 473.992 1.3174 1.26297 0
M  V30 5117 C 474.043 3.20533 -1.67155 0
M  V30 5118 O 473.764 3.13082 -3.06449 0
M  V30 5119 C 475.265 4.14461 -1.5728 0
M  V30 5120 H 472.485 0.556179 -0.375374 0
M  V30 5121 H 475.029 1.25238 -1.61666 0
M  V30 5122 H 473.184 3.6944 -1.16589 0
M  V30 5123 H 473.598 4.03283 -3.35355 0
M  V30 5124 H 475.072 5.1289 -2.04078 0
M  V30 5125 H 475.549 4.36005 -0.528795 0
M  V30 5126 H 476.155 3.71449 -2.07136 0
M  V30 5127 N 474.47 1.03057 1.19235 0
M  V30 5128 C 475.42 0.583386 2.2041 0
M  V30 5129 C 476.404 -0.368776 1.56617 0
M  V30 5130 O 477.596 -0.189471 1.75983 0
M  V30 5131 C 474.725 -0.0626534 3.43243 0
M  V30 5132 C 473.811 0.91205 4.14177 0
M  V30 5133 N 474.202 2.07514 4.61272 0
M  V30 5134 C 472.5 0.735859 4.39888 0
M  V30 5135 C 473.201 2.69003 5.15764 0
M  V30 5136 N 472.177 1.96954 5.06666 0
M  V30 5137 H 475.979 1.46988 2.54503 0
M  V30 5138 H 473.493 0.897785 1.35328 0
M  V30 5139 H 475.49 -0.400653 4.1497 0
M  V30 5140 H 474.15 -0.944813 3.1065 0
M  V30 5141 H 475.161 2.45448 4.56043 0
M  V30 5142 H 471.838 -0.0970656 4.17387 0
M  V30 5143 H 473.228 3.67514 5.6248 0
M  V30 5144 N 475.948 -1.35272 0.808662 0
M  V30 5145 C 477.195 -1.98709 0.390003 0
M  V30 5146 C 477.523 -1.64148 -1.04335 0
M  V30 5147 O 476.778 -0.897797 -1.73891 0
M  V30 5148 C 477.077 -3.53556 0.522798 0
M  V30 5149 C 476.743 -4.0799 1.91977 0
M  V30 5150 C 475.405 -4.22568 2.30195 0
M  V30 5151 C 477.757 -4.37442 2.83361 0
M  V30 5152 C 475.085 -4.63918 3.59162 0
M  V30 5153 C 477.437 -4.80232 4.11776 0
M  V30 5154 C 476.101 -4.93016 4.49991 0
M  V30 5155 H 475.371 -0.727127 0.142712 0
M  V30 5156 H 478.018 -1.6145 1.02985 0
M  V30 5157 H 476.323 -3.91287 -0.200494 0
M  V30 5158 H 478.02 -4.00598 0.179608 0
M  V30 5159 H 474.61 -3.97096 1.61284 0
M  V30 5160 H 478.794 -4.25731 2.55083 0
M  V30 5161 H 474.05 -4.72005 3.88615 0
M  V30 5162 H 478.224 -5.01982 4.82687 0
M  V30 5163 H 475.851 -5.24814 5.49976 0
M  V30 5164 N 477.426 -0.562348 -1.47226 0
M  V30 5165 C 478.654 -0.0452275 -2.06851 0
M  V30 5166 C 479.069 1.25078 -1.41424 0
M  V30 5167 O 478.426 1.75156 -0.512513 0
M  V30 5168 C 478.477 0.148674 -3.61194 0
M  V30 5169 O 478.198 -1.09602 -4.24169 0
M  V30 5170 C 479.699 0.702488 -4.37699 0
M  V30 5171 H 476.919 -0.0481775 -0.669268 0
M  V30 5172 H 479.463 -0.777223 -1.89155 0
M  V30 5173 H 477.618 0.830817 -3.78386 0
M  V30 5174 H 478.032 -0.896982 -5.16773 0
M  V30 5175 H 479.506 0.78743 -5.46355 0
M  V30 5176 H 479.983 1.71493 -4.04335 0
M  V30 5177 H 480.589 0.0558772 -4.25263 0
M  V30 5178 N 478.904 1.54736 -0.299062 0
M  V30 5179 C 480.144 2.0201 0.31168 0
M  V30 5180 C 480.508 1.18281 1.5124 0
M  V30 5181 O 481.709 1.55243 2.19438 0
M  V30 5182 C 479.98 3.5123 0.661227 0
M  V30 5183 S 481.539 4.20467 1.2551 0
M  V30 5184 H 478.357 0.704523 0.0957517 0
M  V30 5185 H 480.959 1.90791 -0.426482 0
M  V30 5186 H 479.663 4.09804 -0.221171 0
M  V30 5187 H 479.194 3.66481 1.43023 0
M  V30 5188 H 481.209 4.26083 2.54298 0
M  V30 5189 N 480.382 0.0267497 1.57577 0
M  V30 5190 C 481.345 -0.940916 2.08996 0
M  V30 5191 C 482.345 -1.25561 1.00455 0
M  V30 5192 O 483.535 -1.19634 1.26623 0
M  V30 5193 C 480.667 -2.25814 2.55384 0
M  V30 5194 H 481.86 -0.495628 2.95776 0
M  V30 5195 H 479.413 -0.221241 1.54726 0
M  V30 5196 H 480.148 -2.74976 1.71926 0
M  V30 5197 H 479.933 -2.04285 3.34679 0
M  V30 5198 H 481.423 -2.95178 2.95398 0
M  V30 5199 N 481.861 -1.55662 -0.24637 0
M  V30 5200 C 483.089 -1.81575 -0.991876 0
M  V30 5201 C 483.504 -0.602545 -1.78927 0
M  V30 5202 O 482.861 0.428795 -1.77391 0
M  V30 5203 C 482.912 -3.05711 -1.92933 0
M  V30 5204 O 482.633 -4.22348 -1.1642 0
M  V30 5205 C 484.134 -3.44428 -2.79078 0
M  V30 5206 H 481.354 -0.604209 -0.291844 0
M  V30 5207 H 483.898 -2.02722 -0.269095 0
M  V30 5208 H 482.053 -2.86612 -2.60638 0
M  V30 5209 H 482.467 -4.92706 -1.79835 0
M  V30 5210 H 483.941 -4.34388 -3.40603 0
M  V30 5211 H 484.418 -2.65037 -3.50217 0
M  V30 5212 H 485.024 -3.65879 -2.16824 0
M  V30 5213 N 483.339 0.512053 -1.4905 0
M  V30 5214 C 484.616 1.27337 -1.48474 0
M  V30 5215 C 484.996 2.1009 -0.206301 0
M  V30 5216 O 484.344 2.136 0.811609 0
M  V30 5217 C 484.554 2.13954 -2.75726 0
M  V30 5218 C 485.902 2.73507 -3.24776 0
M  V30 5219 O 486.926 2.24229 -2.76767 0
M  V30 5220 O 485.785 3.63186 -4.08361 0
M  V30 5221 H 482.879 0.575652 -0.593762 0
M  V30 5222 H 485.425 0.527232 -1.61302 0
M  V30 5223 H 484.197 1.52709 -3.60272 0
M  V30 5224 H 483.82 2.95782 -2.65705 0
M  V30 5225 N 484.817 1.37938 0.762283 0
M  V30 5226 C 486.045 1.36883 1.55147 0
M  V30 5227 C 486.46 -0.0435348 1.8875 0
M  V30 5228 O 485.817 -1.00786 1.52146 0
M  V30 5229 C 485.868 2.21624 2.85596 0
M  V30 5230 O 485.589 3.57358 2.5343 0
M  V30 5231 C 487.09 2.28653 3.7978 0
M  V30 5232 H 484.31 0.468521 0.480343 0
M  V30 5233 H 486.854 1.81404 0.944079 0
M  V30 5234 H 485.009 1.80588 3.42734 0
M  V30 5235 H 485.423 4.01883 3.37032 0
M  V30 5236 H 486.897 2.9225 4.68288 0
M  V30 5237 H 487.374 1.29767 4.19592 0
M  V30 5238 H 487.98 2.70043 3.28568 0
M  V30 5239 N 486.295 -0.989507 1.22664 0
M  V30 5240 C 487.242 -2.08024 0.999733 0
M  V30 5241 C 488.212 -1.65909 -0.0797047 0
M  V30 5242 O 489.397 -1.90669 0.0705715 0
M  V30 5243 C 486.537 -3.40067 0.587234 0
M  V30 5244 C 485.65 -3.95505 1.73781 0
M  V30 5245 C 484.785 -5.15722 1.27297 0
M  V30 5246 C 483.824 -5.63305 2.39488 0
M  V30 5247 N 482.961 -6.74758 1.94026 0
M  V30 5248 H 487.801 -2.26768 1.9334 0
M  V30 5249 H 485.338 -1.11171 0.963297 0
M  V30 5250 H 487.296 -4.15899 0.329227 0
M  V30 5251 H 485.926 -3.21314 -0.309426 0
M  V30 5252 H 484.978 -3.16513 2.11006 0
M  V30 5253 H 486.29 -4.26797 2.58158 0
M  V30 5254 H 485.444 -5.98854 0.972546 0
M  V30 5255 H 484.183 -4.86061 0.399445 0
M  V30 5256 H 483.188 -4.78759 2.70315 0
M  V30 5257 H 484.413 -5.94988 3.27362 0
M  V30 5258 H 482.359 -6.46874 1.09041 0
M  V30 5259 H 482.276 -7.05386 2.71968 0
M  V30 5260 H 483.544 -7.61387 1.67062 0
M  V30 5261 N 487.773 -1.03688 -1.18687 0
M  V30 5262 C 488.721 -0.618292 -2.24232 0
M  V30 5263 C 489.715 0.353045 -1.6568 0
M  V30 5264 O 490.921 0.220749 -1.78641 0
M  V30 5265 H 487.296 -0.181711 -0.729716 0
M  V30 5266 H 489.267 -1.51893 -2.56848 0
M  V30 5267 C 488.016 0.00677342 -3.47699 0
M  V30 5268 H 487.339 -0.731692 -3.93047 0
M  V30 5269 H 488.779 0.262492 -4.23187 0
M  V30 5270 C 487.238 1.25572 -3.12623 0
M  V30 5271 O 487.768 2.34691 -3.26011 0
M  V30 5272 N 485.974 1.14755 -2.66982 0
M  V30 5273 H 485.521 0.259601 -2.56289 0
M  V30 5274 H 485.479 1.98412 -2.43885 0
M  V30 5275 N 489.251 1.34841 -0.815825 0
M  V30 5276 C 490.497 1.98793 -0.401129 0
M  V30 5277 C 490.83 1.64548 1.03139 0
M  V30 5278 O 490.105 0.913487 1.71714 0
M  V30 5279 C 490.388 3.55143 -0.595409 0
M  V30 5280 C 490.241 3.99155 -2.07352 0
M  V30 5281 C 491.56 4.40092 -0.0268823 0
M  V30 5282 H 488.679 0.722146 -0.14722 0
M  V30 5283 H 491.321 1.59847 -1.02707 0
M  V30 5284 H 489.471 3.8845 -0.0625779 0
M  V30 5285 H 491.143 3.76216 -2.66945 0
M  V30 5286 H 489.386 3.49726 -2.56659 0
M  V30 5287 H 490.057 5.07971 -2.1603 0
M  V30 5288 H 492.533 4.13298 -0.482042 0
M  V30 5289 H 491.409 5.48562 -0.19267 0
M  V30 5290 H 491.67 4.29016 1.06759 0
M  V30 5291 N 490.729 0.570148 1.46925 0
M  V30 5292 C 491.661 -0.207909 2.28255 0
M  V30 5293 C 492.674 -0.867301 1.37774 0
M  V30 5294 O 493.863 -0.738976 1.62485 0
M  V30 5295 C 490.963 -1.31298 3.12433 0
M  V30 5296 C 490.136 -0.747915 4.30958 0
M  V30 5297 C 489.195 -1.7391 4.9663 0
M  V30 5298 O 488.221 -1.2801 5.54619 0
M  V30 5299 N 489.423 -3.07288 4.92498 0
M  V30 5300 H 492.188 0.489794 2.95671 0
M  V30 5301 H 489.749 0.407076 1.56699 0
M  V30 5302 H 491.741 -1.97507 3.53232 0
M  V30 5303 H 490.311 -1.91373 2.47175 0
M  V30 5304 H 489.531 0.0913066 3.94094 0
M  V30 5305 H 490.819 -0.349958 5.07595 0
M  V30 5306 H 490.217 -3.47213 4.46609 0
M  V30 5307 H 488.774 -3.69021 5.37277 0
M  V30 5308 N 492.207 -1.54576 0.307264 0
M  V30 5309 C 493.454 -2.00263 -0.300167 0
M  V30 5310 C 493.782 -1.19561 -1.53413 0
M  V30 5311 O 493.037 -0.261487 -1.93945 0
M  V30 5312 C 493.336 -3.50572 -0.695253 0
M  V30 5313 C 493.002 -4.48771 0.437679 0
M  V30 5314 C 491.664 -4.7534 0.748681 0
M  V30 5315 C 494.016 -5.0721 1.19949 0
M  V30 5316 C 491.344 -5.5761 1.8245 0
M  V30 5317 C 493.696 -5.90651 2.26527 0
M  V30 5318 C 492.36 -6.15528 2.58227 0
M  V30 5319 H 491.63 -0.732814 -0.109839 0
M  V30 5320 H 494.277 -1.86664 0.427661 0
M  V30 5321 H 492.582 -3.61814 -1.50326 0
M  V30 5322 H 494.279 -3.83352 -1.17653 0
M  V30 5323 H 490.869 -4.282 0.185187 0
M  V30 5324 H 495.053 -4.86679 0.972474 0
M  V30 5325 H 490.309 -5.75121 2.07476 0
M  V30 5326 H 494.483 -6.34957 2.86011 0
M  V30 5327 H 492.11 -6.79066 3.4172 0
M  V30 5328 N 493.685 -0.035106 -1.57561 0
M  V30 5329 C 494.931 0.64318 -1.92331 0
M  V30 5330 C 495.264 1.71434 -0.912368 0
M  V30 5331 O 494.539 1.94395 0.0640303 0
M  V30 5332 C 494.822 1.25411 -3.37556 0
M  V30 5333 C 494.675 0.192109 -4.4939 0
M  V30 5334 C 495.994 2.17041 -3.82859 0
M  V30 5335 H 493.113 0.232341 -0.699419 0
M  V30 5336 H 495.755 -0.0935889 -1.89769 0
M  V30 5337 H 493.905 1.88205 -3.39869 0
M  V30 5338 H 495.577 -0.438849 -4.59208 0
M  V30 5339 H 493.82 -0.481725 -4.31117 0
M  V30 5340 H 494.491 0.659292 -5.48049 0
M  V30 5341 H 496.967 1.64228 -3.8232 0
M  V30 5342 H 495.843 2.56738 -4.85157 0
M  V30 5343 H 496.104 3.06401 -3.18702 0
M  V30 5344 N 495.163 1.55791 0.238111 0
M  V30 5345 C 496.41 1.78033 0.964907 0
M  V30 5346 C 496.738 0.600984 1.84982 0
M  V30 5347 O 495.993 -0.41536 1.91241 0
M  V30 5348 C 496.292 3.05869 1.84875 0
M  V30 5349 C 495.958 4.36808 1.11846 0
M  V30 5350 C 494.62 4.72388 0.916662 0
M  V30 5351 C 496.972 5.17717 0.60151 0
M  V30 5352 C 494.3 5.86406 0.185756 0
M  V30 5353 C 496.652 6.32494 -0.115972 0
M  V30 5354 C 495.316 6.66688 -0.329168 0
M  V30 5355 H 494.586 0.651469 0.353085 0
M  V30 5356 H 497.233 1.90061 0.234318 0
M  V30 5357 H 495.538 2.88891 2.64668 0
M  V30 5358 H 497.235 3.20278 2.41294 0
M  V30 5359 H 493.825 4.08862 1.28569 0
M  V30 5360 H 498.009 4.90678 0.744932 0
M  V30 5361 H 493.265 6.11399 0.0101886 0
M  V30 5362 H 497.439 6.94425 -0.524127 0
M  V30 5363 H 495.066 7.54884 -0.897474 0
M  V30 5364 N 496.642 -0.504142 1.49319 0
M  V30 5365 C 497.919 -1.26548 1.49147 0
M  V30 5366 C 498.299 -2.09977 0.21744 0
M  V30 5367 O 497.647 -2.14028 -0.800269 0
M  V30 5368 C 497.857 -2.12489 2.76857 0
M  V30 5369 C 499.205 -2.7178 3.26222 0
M  V30 5370 O 500.229 -2.22758 2.77952 0
M  V30 5371 O 499.088 -3.61015 4.10281 0
M  V30 5372 H 496.182 -0.572495 0.596806 0
M  V30 5373 H 498.728 -0.51867 1.61579 0
M  V30 5374 H 497.5 -1.50796 3.61077 0
M  V30 5375 H 497.123 -2.94368 2.6727 0
M  V30 5376 N 498.12 -1.38341 -0.754957 0
M  V30 5377 C 499.083 -1.35262 -1.85032 0
M  V30 5378 C 500.083 -0.253393 -1.58791 0
M  V30 5379 O 501.273 -0.510205 -1.66561 0
M  V30 5380 C 498.405 -1.10544 -3.22479 0
M  V30 5381 H 499.598 -2.32712 -1.8917 0
M  V30 5382 H 497.151 -1.23614 -0.956515 0
M  V30 5383 H 497.886 -0.136952 -3.24011 0
M  V30 5384 H 497.671 -1.90127 -3.4292 0
M  V30 5385 H 499.161 -1.11082 -4.02555 0
M  V30 5386 N 499.598 0.982988 -1.23187 0
M  V30 5387 C 500.844 1.72648 -1.06398 0
M  V30 5388 C 501.177 1.90066 0.398561 0
M  V30 5389 O 500.452 1.45105 1.29518 0
M  V30 5390 C 500.735 3.12627 -1.78707 0
M  V30 5391 C 500.588 3.02795 -3.32618 0
M  V30 5392 C 501.907 4.11997 -1.54747 0
M  V30 5393 H 499.026 0.626649 -0.387918 0
M  V30 5394 H 501.668 1.14455 -1.51658 0
M  V30 5395 H 499.818 3.62308 -1.40234 0
M  V30 5396 H 501.49 2.60659 -3.80598 0
M  V30 5397 H 499.733 2.39362 -3.61785 0
M  V30 5398 H 500.404 4.01893 -3.78399 0
M  V30 5399 H 502.88 3.71114 -1.88186 0
M  V30 5400 H 501.756 5.08037 -2.07821 0
M  V30 5401 H 502.017 4.39462 -0.482249 0
M  V30 5402 N 501.076 1.04316 1.18135 0
M  V30 5403 C 502.304 0.768117 1.92113 0
M  V30 5404 C 502.719 -0.675057 1.76319 0
M  V30 5405 O 502.076 -1.46038 1.09449 0
M  V30 5406 C 502.127 1.12808 3.43448 0
M  V30 5407 O 501.848 2.5146 3.58747 0
M  V30 5408 C 503.349 0.8779 4.3452 0
M  V30 5409 H 500.569 0.279937 0.609817 0
M  V30 5410 H 503.113 1.39149 1.49859 0
M  V30 5411 H 501.268 0.549623 3.83481 0
M  V30 5412 H 501.682 2.65313 4.52448 0
M  V30 5413 H 503.156 1.17959 5.39249 0
M  V30 5414 H 503.633 -0.187239 4.38801 0
M  V30 5415 H 504.239 1.43977 4.00188 0
M  V30 5416 N 502.554 -1.34406 0.822964 0
M  V30 5417 C 503.831 -1.92733 0.333641 0
M  V30 5418 C 504.211 -1.75107 -1.17901 0
M  V30 5419 O 503.559 -1.12983 -1.98613 0
M  V30 5420 C 503.769 -3.40557 0.763023 0
M  V30 5421 C 505.117 -4.17709 0.761879 0
M  V30 5422 O 506.141 -3.49141 0.705606 0
M  V30 5423 O 505 -5.40082 0.835109 0
M  V30 5424 H 502.094 -0.821964 0.0911249 0
M  V30 5425 H 504.64 -1.4338 0.907757 0
M  V30 5426 H 503.412 -3.47187 1.8049 0
M  V30 5427 H 503.035 -3.97259 0.164605 0
M  V30 5428 N 504.032 -0.577932 -1.46621 0
M  V30 5429 C 505.278 -0.0617793 -2.02706 0
M  V30 5430 C 505.611 1.29294 -1.44903 0
M  V30 5431 O 504.886 1.8461 -0.61232 0
M  V30 5432 C 505.169 0.00911824 -3.60099 0
M  V30 5433 C 505.022 -1.37416 -4.28295 0
M  V30 5434 C 506.341 0.712159 -4.343 0
M  V30 5435 H 503.46 -0.0239246 -0.736612 0
M  V30 5436 H 506.102 -0.744211 -1.74818 0
M  V30 5437 H 504.252 0.590292 -3.83989 0
M  V30 5438 H 505.924 -2.00013 -4.15683 0
M  V30 5439 H 504.167 -1.94319 -3.87843 0
M  V30 5440 H 504.838 -1.27707 -5.37024 0
M  V30 5441 H 507.314 0.218486 -4.15526 0
M  V30 5442 H 506.19 0.730782 -5.44014 0
M  V30 5443 H 506.451 1.77251 -4.05012 0
M  V30 5444 N 505.51 1.54411 -0.315457 0
M  V30 5445 C 506.759 1.99599 0.290395 0
M  V30 5446 C 507.072 1.20746 1.53882 0
M  V30 5447 O 508.278 1.56272 2.22017 0
M  V30 5448 C 506.734 3.5539 0.56797 0
M  V30 5449 C 506.342 4.43068 -0.662945 0
M  V30 5450 C 508.086 4.09067 1.13422 0
M  V30 5451 C 505.993 5.90317 -0.357722 0
M  V30 5452 H 504.923 0.745592 0.112286 0
M  V30 5453 H 507.574 1.78477 -0.426418 0
M  V30 5454 H 505.956 3.72468 1.34476 0
M  V30 5455 H 507.13 4.37765 -1.43869 0
M  V30 5456 H 505.445 4.00238 -1.14884 0
M  V30 5457 H 508.042 5.16663 1.37707 0
M  V30 5458 H 508.385 3.60552 2.08106 0
M  V30 5459 H 508.918 3.95589 0.418805 0
M  V30 5460 H 505.657 6.4301 -1.27351 0
M  V30 5461 H 505.177 5.98592 0.380472 0
M  V30 5462 H 506.856 6.4699 0.0354284 0
M  V30 5463 N 506.988 0.0434614 1.5754 0
M  V30 5464 C 508.237 -0.631454 1.91561 0
M  V30 5465 C 508.55 -1.72457 0.92292 0
M  V30 5466 O 509.756 -2.45712 1.15489 0
M  V30 5467 C 508.212 -1.17447 3.40197 0
M  V30 5468 C 507.82 -0.113867 4.47855 0
M  V30 5469 C 509.564 -1.82507 3.83264 0
M  V30 5470 C 507.471 -0.669326 5.876 0
M  V30 5471 H 506.401 -0.239629 0.714908 0
M  V30 5472 H 509.052 0.111097 1.83163 0
M  V30 5473 H 507.434 -1.96909 3.43574 0
M  V30 5474 H 508.608 0.659348 4.56058 0
M  V30 5475 H 506.923 0.438821 4.14081 0
M  V30 5476 H 509.52 -2.25047 4.85034 0
M  V30 5477 H 509.863 -2.67365 3.19095 0
M  V30 5478 H 510.396 -1.09712 3.82372 0
M  V30 5479 H 507.135 0.141449 6.55347 0
M  V30 5480 H 506.655 -1.4107 5.82974 0
M  V30 5481 H 508.334 -1.15463 6.36614 0
M  V30 5482 N 508.466 -1.55915 -0.229846 0
M  V30 5483 C 509.413 -1.91734 -1.28478 0
M  V30 5484 C 510.383 -0.773539 -1.46988 0
M  V30 5485 O 511.568 -1.02871 -1.60693 0
M  V30 5486 C 508.708 -2.23224 -2.63182 0
M  V30 5487 C 507.821 -3.50497 -2.52539 0
M  V30 5488 C 506.956 -3.71474 -3.79711 0
M  V30 5489 C 505.995 -4.92289 -3.63755 0
M  V30 5490 N 505.132 -5.09698 -4.82858 0
M  V30 5491 H 509.972 -2.81692 -0.972308 0
M  V30 5492 H 507.509 -1.39429 -0.468815 0
M  V30 5493 H 509.467 -2.3949 -3.41614 0
M  V30 5494 H 508.097 -1.36451 -2.92542 0
M  V30 5495 H 507.149 -3.4247 -1.65585 0
M  V30 5496 H 508.461 -4.39079 -2.36666 0
M  V30 5497 H 507.615 -3.87791 -4.66586 0
M  V30 5498 H 506.354 -2.81157 -3.985 0
M  V30 5499 H 505.359 -4.7593 -2.75264 0
M  V30 5500 H 506.584 -5.84083 -3.46445 0
M  V30 5501 H 504.53 -4.22322 -5.01976 0
M  V30 5502 H 504.447 -5.92399 -4.69681 0
M  V30 5503 H 505.715 -5.30443 -5.71183 0
M  V30 5504 N 509.944 0.496216 -1.49584 0
M  V30 5505 C 510.892 1.61805 -1.67098 0
M  V30 5506 C 511.886 1.60667 -0.536877 0
M  V30 5507 O 513.092 1.65118 -0.716654 0
M  V30 5508 H 509.467 0.53646 -0.526986 0
M  V30 5509 H 511.438 1.44187 -2.61252 0
M  V30 5510 C 510.187 2.99912 -1.75921 0
M  V30 5511 H 509.51 3.01496 -2.62565 0
M  V30 5512 H 510.95 3.77931 -1.92209 0
M  V30 5513 C 509.409 3.33092 -0.505088 0
M  V30 5514 O 509.939 4.00019 0.367085 0
M  V30 5515 N 508.145 2.88278 -0.366599 0
M  V30 5516 H 507.692 2.33989 -1.07735 0
M  V30 5517 H 507.65 3.10846 0.47142 0
M  V30 5518 N 511.423 1.38739 0.74761 0
M  V30 5519 C 512.371 1.36573 1.88283 0
M  V30 5520 C 513.365 0.250712 1.67534 0
M  V30 5521 O 514.571 0.420073 1.7503 0
M  V30 5522 H 510.946 0.42619 0.619569 0
M  V30 5523 H 512.917 2.32356 1.87226 0
M  V30 5524 C 511.666 1.21361 3.25832 0
M  V30 5525 H 510.989 2.06424 3.42388 0
M  V30 5526 H 512.429 1.23901 4.05493 0
M  V30 5527 C 510.888 -0.0790099 3.36807 0
M  V30 5528 O 511.418 -1.05385 3.8763 0
M  V30 5529 N 509.624 -0.13785 2.90273 0
M  V30 5530 H 509.171 0.656128 2.49104 0
M  V30 5531 H 509.129 -1.00228 2.97996 0
M  V30 5532 N 512.901 -0.976442 1.23707 0
M  V30 5533 C 513.831 -2.08749 1.04624 0
M  V30 5534 C 514.812 -1.70057 -0.0380956 0
M  V30 5535 O 515.997 -1.93782 0.127308 0
M  V30 5536 C 513.127 -3.41335 0.640902 0
M  V30 5537 C 512.081 -3.93947 1.67302 0
M  V30 5538 C 511.407 -5.22774 1.12301 0
M  V30 5539 C 512.707 -4.22769 3.06697 0
M  V30 5540 H 514.401 -2.24972 1.97555 0
M  V30 5541 H 511.947 -1.08108 0.951247 0
M  V30 5542 H 513.9 -4.18489 0.494434 0
M  V30 5543 H 512.624 -3.24988 -0.324099 0
M  V30 5544 H 511.283 -3.18941 1.80755 0
M  V30 5545 H 510.931 -5.0278 0.148877 0
M  V30 5546 H 510.631 -5.58942 1.81267 0
M  V30 5547 H 512.155 -6.02546 0.988479 0
M  V30 5548 H 513.569 -4.90659 2.96524 0
M  V30 5549 H 511.966 -4.70147 3.72937 0
M  V30 5550 H 513.036 -3.29885 3.55392 0
M  V30 5551 N 514.379 -1.04941 -1.1758 0
M  V30 5552 C 515.326 -0.648155 -2.21512 0
M  V30 5553 C 516.296 0.348431 -1.62404 0
M  V30 5554 O 517.481 0.240419 -1.89279 0
M  V30 5555 C 514.621 -0.0264291 -3.4509 0
M  V30 5556 C 513.734 -1.07154 -4.185 0
M  V30 5557 C 512.869 -0.417403 -5.29558 0
M  V30 5558 C 511.908 -1.447 -5.94751 0
M  V30 5559 N 511.045 -0.817203 -6.97328 0
M  V30 5560 H 515.885 -1.53891 -2.55189 0
M  V30 5561 H 513.422 -0.769699 -1.25356 0
M  V30 5562 H 515.38 0.351456 -4.15717 0
M  V30 5563 H 514.01 0.827802 -3.12005 0
M  V30 5564 H 513.062 -1.56728 -3.46613 0
M  V30 5565 H 514.374 -1.8532 -4.63096 0
M  V30 5566 H 513.528 0.0142061 -6.06698 0
M  V30 5567 H 512.267 0.396265 -4.86087 0
M  V30 5568 H 511.272 -1.88865 -5.16343 0
M  V30 5569 H 512.497 -2.26252 -6.40302 0
M  V30 5570 H 510.443 -0.0239995 -6.55996 0
M  V30 5571 H 510.36 -1.53644 -7.40223 0
M  V30 5572 H 511.628 -0.410283 -7.7842 0
M  V30 5573 N 515.857 1.33968 -0.830081 0
M  V30 5574 C 517.134 1.92554 -0.343858 0
M  V30 5575 C 517.514 1.7573 1.16971 0
M  V30 5576 O 516.862 1.14035 1.98011 0
M  V30 5577 C 517.072 3.40147 -0.781073 0
M  V30 5578 C 518.42 4.17299 -0.78402 0
M  V30 5579 O 519.444 3.48762 -0.724112 0
M  V30 5580 O 518.303 5.39631 -0.863739 0
M  V30 5581 H 515.397 0.821469 -0.0954827 0
M  V30 5582 H 517.943 1.42897 -0.915348 0
M  V30 5583 H 516.715 3.46225 -1.82329 0
M  V30 5584 H 516.338 3.97166 -0.18567 0
M  V30 5585 N 517.335 0.585699 1.46312 0
M  V30 5586 C 518.575 0.0751432 2.04262 0
M  V30 5587 C 518.939 -1.26201 1.44697 0
M  V30 5588 O 520.14 -1.86198 1.93865 0
M  V30 5589 C 518.411 0.013478 3.57397 0
M  V30 5590 S 519.97 -0.439068 4.36598 0
M  V30 5591 H 516.788 0.0389228 0.709934 0
M  V30 5592 H 519.39 0.778871 1.79315 0
M  V30 5593 H 518.094 0.990558 3.98266 0
M  V30 5594 H 517.625 -0.712927 3.86886 0
M  V30 5595 H 519.64 -1.6932 4.66417 0
M  V30 5596 N 518.813 -1.54241 0.323641 0
M  V30 5597 C 520.061 -2.00174 -0.278359 0
M  V30 5598 C 520.382 -1.2134 -1.52648 0
M  V30 5599 O 519.652 -0.315244 -1.93347 0
M  V30 5600 H 518.232 -0.739463 -0.105845 0
M  V30 5601 H 520.894 -1.89864 0.440204 0
M  V30 5602 H 519.99 -3.07486 -0.5347 0
M  V30 5603 N 520.291 -0.0518155 -1.57515 0
M  V30 5604 C 521.221 0.920283 -2.146 0
M  V30 5605 C 522.202 1.32406 -1.06783 0
M  V30 5606 O 523.387 1.39866 -1.34726 0
M  V30 5607 C 520.517 2.1949 -2.6915 0
M  V30 5608 C 519.471 1.93116 -3.81956 0
M  V30 5609 C 518.797 3.27037 -4.23026 0
M  V30 5610 C 520.097 1.25225 -5.07066 0
M  V30 5611 H 521.791 0.444801 -2.96077 0
M  V30 5612 H 519.337 0.212508 -1.42423 0
M  V30 5613 H 521.29 2.87894 -3.07725 0
M  V30 5614 H 520.014 2.69244 -1.84865 0
M  V30 5615 H 518.673 1.27123 -3.43854 0
M  V30 5616 H 518.321 3.74595 -3.3569 0
M  V30 5617 H 518.021 3.10189 -4.99056 0
M  V30 5618 H 519.545 3.96673 -4.64202 0
M  V30 5619 H 520.959 1.83666 -5.43083 0
M  V30 5620 H 519.356 1.18702 -5.88243 0
M  V30 5621 H 520.426 0.228382 -4.84362 0
M  V30 5622 N 521.769 1.56035 0.221574 0
M  V30 5623 C 523.016 1.79047 0.94597 0
M  V30 5624 C 523.344 0.62057 1.84334 0
M  V30 5625 O 522.599 -0.395053 1.91671 0
M  V30 5626 C 522.898 3.07813 1.8162 0
M  V30 5627 C 522.564 4.3797 1.07206 0
M  V30 5628 C 521.226 4.73334 0.866508 0
M  V30 5629 C 523.578 5.18326 0.546565 0
M  V30 5630 C 520.906 5.8657 0.123549 0
M  V30 5631 C 523.258 6.32335 -0.18305 0
M  V30 5632 C 521.922 6.66301 -0.399861 0
M  V30 5633 H 521.192 0.655178 0.346155 0
M  V30 5634 H 523.839 1.90299 0.214146 0
M  V30 5635 H 522.144 2.91682 2.61589 0
M  V30 5636 H 523.841 3.2282 2.37884 0
M  V30 5637 H 520.431 4.10202 1.24226 0
M  V30 5638 H 524.615 4.9144 0.692847 0
M  V30 5639 H 519.871 6.11376 -0.0546591 0
M  V30 5640 H 524.045 6.9383 -0.59775 0
M  V30 5641 H 521.672 7.53889 -0.977489 0
M  V30 5642 O 523.286 -0.367026 1.57274 0
M  V30 5643 H 523.977 -1.01783 1.64803 0
M  V30 END ATOM
M  V30 BEGIN BOND
M  V30 END BOND
M  V30 END CTAB
M  END
$$$$
