drugbank_target|P63151 Serine/threonine-protein phosphatase 2A 55 kDa regulatory subunit B alpha isoform (DB02506)
 OpenBabel12092120423D

  0  0  0     0  0            999 V3000
M  V30 BEGIN CTAB
M  V30 COUNTS 7161 7239 0 0 0
M  V30 BEGIN ATOM
M  V30 1 H -0.908 1.98254 -0.117106 0
M  V30 2 N 0 1.576 0 0
M  V30 3 C 0.933 2.03868 1.02534 0
M  V30 4 C 1.911 0.928543 1.3348 0
M  V30 5 O 3.095 1.19667 1.45644 0
M  V30 6 C 0.222 2.43627 2.35294 0
M  V30 7 C -0.732 3.65373 2.2001 0
M  V30 8 S 0.101 5.13292 1.52614 0
M  V30 9 C 1.257 5.56322 2.86805 0
M  V30 10 H 1.49 2.90518 0.631377 0
M  V30 11 H -0.977 1.52953 0.210867 0
M  V30 12 H 0.981 2.67203 3.11629 0
M  V30 13 H -0.358 1.57376 2.7183 0
M  V30 14 H -1.165 3.90944 3.18086 0
M  V30 15 H -1.563 3.418 1.51819 0
M  V30 16 H 0.729 5.58782 3.83104 0
M  V30 17 H 1.672 6.56266 2.65933 0
M  V30 18 H 2.08 4.83886 2.90714 0
M  V30 19 N 1.4781 -0.272755 1.55222 0
M  V30 20 C 2.4411 -1.32041 1.87344 0
M  V30 21 C 3.4411 -1.42342 0.74803 0
M  V30 22 O 4.6311 -1.41488 1.0162 0
M  V30 23 C 1.7631 -2.70173 2.07893 0
M  V30 24 H 2.9561 -1.04789 2.80997 0
M  V30 25 H 0.5091 -0.51083 1.47717 0
M  V30 26 H 1.2441 -3.02605 1.16622 0
M  V30 27 H 1.0291 -2.64082 2.89833 0
M  V30 28 H 2.5191 -3.45869 2.34017 0
M  V30 29 N 2.9562 -1.48159 -0.537278 0
M  V30 30 C 4.2042 -1.55497 -1.29094 0
M  V30 31 C 4.5252 -0.227454 -1.93669 0
M  V30 32 O 3.7952 0.750386 -1.80959 0
M  V30 33 H 2.3752 -0.572832 -0.47945 0
M  V30 34 H 5.0372 -1.84579 -0.625818 0
M  V30 35 H 4.1332 -2.33216 -2.07405 0
M  V30 36 N 4.4343 0.785586 -1.36625 0
M  V30 37 C 5.3973 1.87999 -1.31107 0
M  V30 38 C 6.3973 1.59316 -0.217959 0
M  V30 39 O 7.5873 1.67656 -0.472977 0
M  V30 40 C 4.7193 3.24861 -1.03334 0
M  V30 41 H 5.9123 1.94307 -2.2844 0
M  V30 42 H 3.4653 0.983813 -1.21453 0
M  V30 43 H 4.2003 3.24235 -0.0647432 0
M  V30 44 H 3.9853 3.4707 -1.82441 0
M  V30 45 H 5.4753 4.04929 -1.02088 0
M  V30 46 N 5.9124 1.20967 1.01018 0
M  V30 47 C 7.1604 1.02172 1.74371 0
M  V30 48 C 7.4814 -0.446414 1.89821 0
M  V30 49 O 6.7514 -1.32234 1.44537 0
M  V30 50 H 5.3314 0.375066 0.646014 0
M  V30 51 H 7.9934 1.52187 1.21758 0
M  V30 52 H 7.0894 1.48538 2.74487 0
M  V30 53 N 7.3905 -1.2043 1.01659 0
M  V30 54 C 8.6385 -1.89423 0.704522 0
M  V30 55 C 8.9595 -1.79231 -0.768197 0
M  V30 56 O 8.2295 -1.1947 -1.55254 0
M  V30 57 H 6.8095 -0.701178 0.257602 0
M  V30 58 H 9.4715 -1.4626 1.28818 0
M  V30 59 H 8.5675 -2.96052 0.987916 0
M  V30 60 N 8.8686 -0.792821 -1.36206 0
M  V30 61 C 10.1166 -0.366062 -1.98757 0
M  V30 62 C 10.4376 1.0668 -1.63231 0
M  V30 63 O 9.7076 1.73587 -0.907978 0
M  V30 64 H 8.2876 -0.132364 -0.735179 0
M  V30 65 H 10.9496 -1.01562 -1.66347 0
M  V30 66 H 10.0456 -0.460638 -3.08682 0
M  V30 67 N 10.3467 1.47872 -0.545128 0
M  V30 68 C 11.2947 2.31533 0.222512 0
M  V30 69 C 12.2887 1.42177 0.920985 0
M  V30 70 O 13.4947 1.59005 0.843645 0
M  V30 71 H 9.8697 0.746519 0.0906278 0
M  V30 72 H 11.8407 2.94139 -0.50246 0
M  V30 73 C 10.5897 3.2457 1.24699 0
M  V30 74 H 9.9127 3.93283 0.718944 0
M  V30 75 H 11.3527 3.85963 1.75523 0
M  V30 76 C 9.8117 2.47237 2.28856 0
M  V30 77 O 10.3417 2.20808 3.35569 0
M  V30 78 N 8.5477 2.08461 2.02466 0
M  V30 79 H 8.0947 2.30155 1.157 0
M  V30 80 H 8.0527 1.57033 2.72375 0
M  V30 81 N 11.8248 0.280983 1.55075 0
M  V30 82 C 13.1018 -0.386207 1.91749 0
M  V30 83 C 13.4818 -1.73264 1.20594 0
M  V30 84 O 12.8298 -2.26034 0.334784 0
M  V30 85 C 13.0398 -0.520687 3.45094 0
M  V30 86 C 14.3878 -0.800865 4.16979 0
M  V30 87 O 15.4118 -0.605271 3.5102 0
M  V30 88 O 14.2708 -1.1753 5.33712 0
M  V30 89 H 11.3648 -0.212408 0.799257 0
M  V30 90 H 13.9108 0.327568 1.66509 0
M  V30 91 H 12.6828 0.426633 3.88967 0
M  V30 92 H 12.3058 -1.2837 3.76307 0
M  V30 93 N 13.3029 -1.57598 0.00835791 0
M  V30 94 C 14.5519 -1.90107 -0.673968 0
M  V30 95 C 14.8649 -0.884275 -1.7447 0
M  V30 96 O 16.0709 -1.09987 -2.48224 0
M  V30 97 C 14.5269 -3.37497 -1.24995 0
M  V30 98 C 14.1349 -4.47491 -0.2136 0
M  V30 99 C 15.8789 -3.79104 -1.90999 0
M  V30 100 C 13.7859 -5.85963 -0.80005 0
M  V30 101 H 12.7159 -0.709393 -0.255495 0
M  V30 102 H 15.3669 -1.83365 0.0702693 0
M  V30 103 H 13.7489 -3.39102 -2.04513 0
M  V30 104 H 14.9229 -4.57414 0.557596 0
M  V30 105 H 13.2379 -4.14956 0.346474 0
M  V30 106 H 15.8349 -4.79901 -2.35795 0
M  V30 107 H 16.1779 -3.1306 -2.74407 0
M  V30 108 H 16.7109 -3.79833 -1.18203 0
M  V30 109 H 13.4499 -6.555 -0.00456708 0
M  V30 110 H 12.9699 -5.79687 -1.54021 0
M  V30 111 H 14.6489 -6.33884 -1.29615 0
M  V30 112 N 14.781 0.264519 -1.55364 0
M  V30 113 C 15.713 1.34965 -1.85248 0
M  V30 114 C 16.726 1.45136 -0.737525 0
M  V30 115 O 17.915 1.46801 -1.01547 0
M  V30 116 C 15.015 2.73008 -2.00797 0
M  V30 117 C 14.188 2.85324 -3.31525 0
M  V30 118 C 13.247 4.04097 -3.37034 0
M  V30 119 O 12.273 3.94455 -4.10358 0
M  V30 120 N 13.475 5.16458 -2.65049 0
M  V30 121 H 16.24 1.09672 -2.78913 0
M  V30 122 H 13.801 0.454635 -1.55386 0
M  V30 123 H 15.793 3.50772 -2.01844 0
M  V30 124 H 14.363 2.91087 -1.1396 0
M  V30 125 H 13.583 1.94377 -3.42945 0
M  V30 126 H 14.871 2.9049 -4.17724 0
M  V30 127 H 14.269 5.27181 -2.05175 0
M  V30 128 H 12.826 5.92422 -2.71809 0
M  V30 129 N 16.2591 1.48442 0.529413 0
M  V30 130 C 17.5051 1.57699 1.28463 0
M  V30 131 C 17.8601 0.247913 1.90796 0
M  V30 132 O 17.1531 -0.749279 1.76342 0
M  V30 133 C 17.3471 2.6523 2.39558 0
M  V30 134 C 17.1761 4.08464 1.88114 0
M  V30 135 C 15.9461 4.75596 1.70693 0
M  V30 136 C 18.1441 4.94613 1.40935 0
M  V30 137 N 16.1261 6.03245 1.13881 0
M  V30 138 C 17.4971 6.12511 0.960734 0
M  V30 139 C 19.5521 4.80833 1.29243 0
M  V30 140 C 18.2551 7.18149 0.406792 0
M  V30 141 C 20.2811 5.86593 0.752487 0
M  V30 142 C 19.6431 7.037 0.313946 0
M  V30 143 H 15.7421 0.631608 0.46108 0
M  V30 144 H 18.3261 1.85325 0.596886 0
M  V30 145 H 16.4971 2.39425 3.05827 0
M  V30 146 H 18.2291 2.64169 3.06589 0
M  V30 147 H 14.9841 4.31938 1.94232 0
M  V30 148 H 15.4081 6.71324 0.874831 0
M  V30 149 H 20.0501 3.90635 1.61754 0
M  V30 150 H 17.7681 8.0807 0.0693671 0
M  V30 151 H 21.3541 5.77985 0.665192 0
M  V30 152 H 20.2341 7.8414 -0.0973632 0
M  V30 153 N 17.7372 -0.778329 1.37039 0
M  V30 154 C 18.9772 -1.54973 1.33276 0
M  V30 155 C 19.3412 -1.91816 -0.0839376 0
M  V30 156 O 20.5422 -2.6767 -0.246228 0
M  V30 157 C 18.8132 -2.78517 2.23971 0
M  V30 158 S 20.3722 -3.6865 2.37997 0
M  V30 159 H 17.1902 -0.530639 0.473226 0
M  V30 160 H 19.7922 -0.915806 1.72723 0
M  V30 161 H 18.4962 -2.4952 3.25835 0
M  V30 162 H 18.0272 -3.46875 1.85584 0
M  V30 163 H 20.0422 -4.70182 1.58567 0
M  V30 164 N 19.2153 -1.21501 -1.00376 0
M  V30 165 C 20.4623 -1.03299 -1.74171 0
M  V30 166 C 20.7903 0.433326 -1.89612 0
M  V30 167 O 20.0453 1.33779 -1.42834 0
M  V30 168 C 20.3443 -1.67673 -3.15627 0
M  V30 169 C 20.0103 -3.17533 -3.2013 0
M  V30 170 C 18.6723 -3.58427 -3.21067 0
M  V30 171 C 21.0243 -4.13504 -3.17275 0
M  V30 172 C 18.3523 -4.93794 -3.16835 0
M  V30 173 C 20.7043 -5.48834 -3.14585 0
M  V30 174 C 19.3683 -5.89123 -3.13831 0
M  V30 175 H 18.6383 -0.377999 -0.637336 0
M  V30 176 H 21.2853 -1.51111 -1.17634 0
M  V30 177 H 19.5903 -1.12158 -3.75404 0
M  V30 178 H 21.2873 -1.51091 -3.71446 0
M  V30 179 H 17.8773 -2.84965 -3.20145 0
M  V30 180 H 22.0613 -3.82936 -3.15711 0
M  V30 181 H 17.3173 -5.24255 -3.1459 0
M  V30 182 H 21.4913 -6.22934 -3.1133 0
M  V30 183 H 19.1183 -6.93984 -3.10307 0
M  V30 184 N 20.6934 1.19889 -1.02296 0
M  V30 185 C 21.9184 1.9393 -0.735237 0
M  V30 186 C 22.3434 1.74639 0.698782 0
M  V30 187 O 21.7014 1.04481 1.48167 0
M  V30 188 C 21.7494 3.43916 -1.08417 0
M  V30 189 O 20.8534 4.11917 -0.199446 0
M  V30 190 H 20.1944 0.605645 -0.272196 0
M  V30 191 H 22.7244 1.52137 -1.36804 0
M  V30 192 H 22.7344 3.9456 -1.03856 0
M  V30 193 H 21.4094 3.5728 -2.12894 0
M  V30 194 H 19.9864 3.71666 -0.303136 0
M  V30 195 N 22.1715 0.800033 1.35784 0
M  V30 196 C 23.1035 0.163596 2.28615 0
M  V30 197 C 24.1165 -0.633317 1.49976 0
M  V30 198 O 25.3055 -0.466754 1.72289 0
M  V30 199 C 22.4055 -0.790958 3.29541 0
M  V30 200 C 21.5785 -0.0418255 4.3738 0
M  V30 201 C 20.6375 -0.91389 5.18203 0
M  V30 202 O 19.6635 -0.367234 5.68014 0
M  V30 203 N 20.8655 -2.23682 5.35674 0
M  V30 204 H 23.6305 0.96105 2.83873 0
M  V30 205 H 21.1915 0.654894 1.48063 0
M  V30 206 H 23.1835 -1.37844 3.80501 0
M  V30 207 H 21.7535 -1.48925 2.74846 0
M  V30 208 H 20.9735 0.726813 3.87442 0
M  V30 209 H 22.2615 0.474719 5.06581 0
M  V30 210 H 21.6595 -2.70497 4.96838 0
M  V30 211 H 20.2165 -2.77369 5.89839 0
M  V30 212 N 23.6496 -1.47581 0.552962 0
M  V30 213 C 24.8956 -2.02782 0.0273648 0
M  V30 214 C 25.2286 -1.42687 -1.31734 0
M  V30 215 O 24.5036 -0.580897 -1.85623 0
M  V30 216 C 24.7866 -3.60031 -0.0702371 0
M  V30 217 C 24.6396 -4.30566 1.30126 0
M  V30 218 C 25.9586 -4.33028 -0.785771 0
M  V30 219 H 23.0776 -0.736912 0.0114185 0
M  V30 220 H 25.7196 -1.76056 0.714432 0
M  V30 221 H 23.8696 -3.82932 -0.655382 0
M  V30 222 H 25.5416 -4.19018 1.92929 0
M  V30 223 H 23.7846 -3.91086 1.87709 0
M  V30 224 H 24.4556 -5.39114 1.18573 0
M  V30 225 H 26.9316 -4.15095 -0.288982 0
M  V30 226 H 25.8076 -5.42695 -0.823013 0
M  V30 227 H 26.0686 -4.01945 -1.841 0
M  V30 228 N 25.1277 -0.289203 -1.54924 0
M  V30 229 C 26.0747 0.592115 -2.23075 0
M  V30 230 C 27.0447 1.13881 -1.20915 0
M  V30 231 O 28.2297 1.18551 -1.495 0
M  V30 232 C 25.3697 1.76376 -2.96623 0
M  V30 233 C 24.4827 1.24959 -4.13533 0
M  V30 234 C 23.6177 2.38416 -4.74691 0
M  V30 235 C 22.6567 1.84072 -5.83767 0
M  V30 236 N 21.7937 2.91057 -6.38929 0
M  V30 237 H 26.6337 0.00432038 -2.98 0
M  V30 238 H 24.1707 -0.00963529 -1.47097 0
M  V30 239 H 26.1287 2.45268 -3.3749 0
M  V30 240 H 24.7587 2.32337 -2.24097 0
M  V30 241 H 23.8107 0.453307 -3.77689 0
M  V30 242 H 25.1227 0.811662 -4.92152 0
M  V30 243 H 24.2767 3.15276 -5.18349 0
M  V30 244 H 23.0157 2.8553 -3.95378 0
M  V30 245 H 22.0207 1.05697 -5.39545 0
M  V30 246 H 23.2457 1.37877 -6.64956 0
M  V30 247 H 21.1917 3.37526 -5.62505 0
M  V30 248 H 21.1087 2.51724 -7.12861 0
M  V30 249 H 22.3767 3.6785 -6.87246 0
M  V30 250 N 26.6058 1.57591 -0.0167156 0
M  V30 251 C 27.8538 1.90906 0.663285 0
M  V30 252 C 28.1748 0.892509 1.73376 0
M  V30 253 O 27.4448 -0.0677623 1.95783 0
M  V30 254 H 26.0248 0.704637 0.247983 0
M  V30 255 H 28.6868 1.94803 -0.0615909 0
M  V30 256 H 27.7828 2.9116 1.12393 0
M  V30 257 N 28.0839 -0.256276 1.55502 0
M  V30 258 C 29.0469 -1.30047 1.88734 0
M  V30 259 C 30.0469 -1.4154 0.763086 0
M  V30 260 O 31.2369 -1.40403 1.03115 0
M  V30 261 C 28.3689 -2.67953 2.10747 0
M  V30 262 H 29.5619 -1.01802 2.82093 0
M  V30 263 H 27.1149 -0.495134 1.4825 0
M  V30 264 H 27.8499 -3.01351 1.19825 0
M  V30 265 H 27.6349 -2.60993 2.92617 0
M  V30 266 H 29.1249 -3.43368 2.37673 0
M  V30 267 N 29.562 -1.4872 -0.521534 0
M  V30 268 C 30.808 -1.574 -1.27879 0
M  V30 269 C 31.141 -0.250817 -1.92573 0
M  V30 270 O 30.416 0.743934 -1.79711 0
M  V30 271 C 30.699 -2.71843 -2.36164 0
M  V30 272 C 30.552 -4.13893 -1.76105 0
M  V30 273 C 31.871 -2.82008 -3.37875 0
M  V30 274 H 28.99 -0.572941 -0.463581 0
M  V30 275 H 31.632 -1.80927 -0.580119 0
M  V30 276 H 29.782 -2.51914 -2.95756 0
M  V30 277 H 31.454 -4.45284 -1.20499 0
M  V30 278 H 29.697 -4.20498 -1.06601 0
M  V30 279 H 30.368 -4.89804 -2.5455 0
M  V30 280 H 32.844 -3.00086 -2.88249 0
M  V30 281 H 31.72 -3.63796 -4.11028 0
M  V30 282 H 31.981 -1.90511 -3.98946 0
M  V30 283 N 31.0401 0.771051 -1.3745 0
M  V30 284 C 32.3171 1.519 -1.23231 0
M  V30 285 C 32.6971 2.10383 0.173809 0
M  V30 286 O 32.0451 1.95583 1.18151 0
M  V30 287 C 32.2551 2.59933 -2.32886 0
M  V30 288 C 33.6031 3.27316 -2.70461 0
M  V30 289 O 34.6271 2.70228 -2.32068 0
M  V30 290 O 33.4861 4.30531 -3.36608 0
M  V30 291 H 30.5801 0.672803 -0.480901 0
M  V30 292 H 33.1261 0.807957 -1.49232 0
M  V30 293 H 31.8981 2.14842 -3.27045 0
M  V30 294 H 31.5211 3.38637 -2.08353 0
M  V30 295 N 32.5182 1.22032 0.997298 0
M  V30 296 C 33.7952 0.950823 1.70935 0
M  V30 297 C 34.1752 -0.535292 2.042 0
M  V30 298 O 33.5232 -1.50217 1.72183 0
M  V30 299 C 33.7332 1.84386 2.96315 0
M  V30 300 C 35.0812 2.09732 3.69185 0
M  V30 301 O 36.1052 1.81798 3.06314 0
M  V30 302 O 34.9642 2.57018 4.82291 0
M  V30 303 H 32.0582 0.357204 0.745878 0
M  V30 304 H 34.6042 1.32997 1.05404 0
M  V30 305 H 33.3762 2.84928 2.68201 0
M  V30 306 H 32.9992 1.46602 3.69586 0
M  V30 307 N 33.9963 -1.19345 1.0293 0
M  V30 308 C 35.2733 -1.84811 0.640642 0
M  V30 309 C 35.6533 -1.91855 -0.88062 0
M  V30 310 O 35.0013 -1.43587 -1.7775 0
M  V30 311 C 35.2113 -3.23755 1.30321 0
M  V30 312 C 36.5593 -3.99912 1.42673 0
M  V30 313 O 37.5833 -3.33155 1.26041 0
M  V30 314 O 36.4423 -5.19494 1.6967 0
M  V30 315 H 33.5363 -0.796443 0.222726 0
M  V30 316 H 36.0823 -1.26831 1.12748 0
M  V30 317 H 34.8543 -3.13466 2.34211 0
M  V30 318 H 34.4773 -3.89381 0.804261 0
M  V30 319 N 35.4744 -0.807222 -1.35358 0
M  V30 320 C 36.7204 -0.388463 -1.99045 0
M  V30 321 C 37.0534 1.04184 -1.63888 0
M  V30 322 O 36.3284 1.72292 -0.902535 0
M  V30 323 C 36.6114 -0.572783 -3.55515 0
M  V30 324 C 36.4644 -2.04807 -4.00468 0
M  V30 325 C 37.7834 0.00114064 -4.401 0
M  V30 326 H 34.9024 -0.142619 -0.723069 0
M  V30 327 H 37.5444 -1.01687 -1.60498 0
M  V30 328 H 35.6944 -0.0378425 -3.88482 0
M  V30 329 H 37.3664 -2.64544 -3.77908 0
M  V30 330 H 35.6094 -2.54427 -3.51353 0
M  V30 331 H 36.2804 -2.12792 -5.09337 0
M  V30 332 H 38.7564 -0.455716 -4.13597 0
M  V30 333 H 37.6324 -0.157737 -5.48673 0
M  V30 334 H 37.8934 1.09488 -4.28328 0
M  V30 335 N 36.9525 1.47285 -0.560781 0
M  V30 336 C 37.9155 2.28535 0.174488 0
M  V30 337 C 38.9155 1.37153 0.839388 0
M  V30 338 O 40.1055 1.59748 0.694702 0
M  V30 339 C 37.2375 3.16934 1.25561 0
M  V30 340 H 38.4305 2.95012 -0.539262 0
M  V30 341 H 35.9835 1.53034 -0.317865 0
M  V30 342 H 36.7185 2.55157 2.00164 0
M  V30 343 H 36.5035 3.8419 0.783604 0
M  V30 344 H 37.9935 3.78143 1.77193 0
M  V30 345 N 38.4306 0.297415 1.54768 0
M  V30 346 C 39.3406 -0.58983 2.27064 0
M  V30 347 C 40.3566 -1.15144 1.30453 0
M  V30 348 O 41.5326 -1.17699 1.63428 0
M  V30 349 C 38.5976 -1.74714 2.9946 0
M  V30 350 C 37.6586 -1.21997 4.11601 0
M  V30 351 C 36.8916 -2.32212 4.80535 0
M  V30 352 O 37.1146 -3.52036 4.48806 0
M  V30 353 O 36.0486 -1.99106 5.68014 0
M  V30 354 H 39.8746 -0.00348199 3.037 0
M  V30 355 H 37.4596 0.0640035 1.49263 0
M  V30 356 H 39.3416 -2.42147 3.44881 0
M  V30 357 H 38.0166 -2.32016 2.25722 0
M  V30 358 H 36.9236 -0.511458 3.70587 0
M  V30 359 H 38.2566 -0.692419 4.87305 0
M  V30 360 N 39.9087 -1.5758 0.0250728 0
M  V30 361 C 40.8717 -2.08896 -0.943139 0
M  V30 362 C 41.8717 -1.00321 -1.25668 0
M  V30 363 O 43.0617 -1.26495 -1.19769 0
M  V30 364 C 40.1937 -2.55143 -2.26086 0
M  V30 365 H 41.3867 -2.95723 -0.498775 0
M  V30 366 H 38.9397 -1.54703 -0.222888 0
M  V30 367 H 39.6747 -1.71633 -2.75159 0
M  V30 368 H 39.4597 -3.34461 -2.04641 0
M  V30 369 H 40.9497 -2.95083 -2.95492 0
M  V30 370 N 41.3868 0.248026 -1.55636 0
M  V30 371 C 42.6638 0.998988 -1.68165 0
M  V30 372 C 43.0438 2.03409 -0.564621 0
M  V30 373 O 42.3918 2.24378 0.432076 0
M  V30 374 C 42.6018 1.63334 -3.0842 0
M  V30 375 C 43.9498 2.13562 -3.66983 0
M  V30 376 O 44.9738 1.73277 -3.11213 0
M  V30 377 O 43.8328 2.87526 -4.64749 0
M  V30 378 H 40.9268 0.464933 -0.683935 0
M  V30 379 H 43.4728 0.241902 -1.67967 0
M  V30 380 H 42.2448 0.884583 -3.8117 0
M  V30 381 H 41.8678 2.45666 -3.12624 0
M  V30 382 N 42.8649 1.48995 0.513639 0
M  V30 383 C 44.1139 1.57093 1.2651 0
M  V30 384 C 44.4269 0.257091 1.93903 0
M  V30 385 O 45.6329 0.216478 2.70636 0
M  V30 386 C 44.0889 2.77118 2.29638 0
M  V30 387 C 43.6969 4.15209 1.68241 0
M  V30 388 C 45.4409 2.94538 3.05692 0
M  V30 389 C 43.3479 5.26474 2.69406 0
M  V30 390 H 42.2779 0.584876 0.475854 0
M  V30 391 H 44.9289 1.7536 0.540487 0
M  V30 392 H 43.3109 2.52319 3.05207 0
M  V30 393 H 44.4849 4.50094 0.987505 0
M  V30 394 H 42.7999 4.03042 1.04623 0
M  V30 395 H 45.3969 3.74832 3.8132 0
M  V30 396 H 45.7399 2.04614 3.62545 0
M  V30 397 H 46.2729 3.19316 2.37238 0
M  V30 398 H 43.0119 6.18417 2.17351 0
M  V30 399 H 42.5319 4.96058 3.37175 0
M  V30 400 H 44.2109 5.55277 3.32078 0
M  V30 401 N 44.343 -0.763751 1.37857 0
M  V30 402 C 45.592 -1.51789 1.32827 0
M  V30 403 C 45.905 -1.95426 -0.0823719 0
M  V30 404 O 47.111 -2.70298 -0.255172 0
M  V30 405 C 45.567 -2.74133 2.33193 0
M  V30 406 C 45.175 -2.37562 3.79827 0
M  V30 407 C 46.919 -3.52054 2.37188 0
M  V30 408 C 44.826 -3.56456 4.71904 0
M  V30 409 H 43.756 -0.569896 0.493695 0
M  V30 410 H 46.407 -0.835822 1.63359 0
M  V30 411 H 44.789 -3.4427 1.9569 0
M  V30 412 H 45.963 -1.75157 4.26212 0
M  V30 413 H 44.278 -1.72798 3.78853 0
M  V30 414 H 46.875 -4.40437 3.03182 0
M  V30 415 H 47.218 -3.92486 1.38782 0
M  V30 416 H 47.751 -2.88921 2.7344 0
M  V30 417 H 44.49 -3.21099 5.71468 0
M  V30 418 H 44.01 -4.17938 4.30218 0
M  V30 419 H 45.689 -4.23168 4.89426 0
M  V30 420 N 45.8211 -1.22559 -0.990812 0
M  V30 421 C 47.0461 -1.07862 -1.77145 0
M  V30 422 C 47.4711 0.366447 -1.84496 0
M  V30 423 O 46.8291 1.26478 -1.29896 0
M  V30 424 C 46.8771 -1.69686 -3.18181 0
M  V30 425 O 45.9811 -0.951946 -4.01263 0
M  V30 426 H 45.3221 -0.378712 -0.545411 0
M  V30 427 H 47.8521 -1.62399 -1.2445 0
M  V30 428 H 47.8621 -1.74496 -3.68802 0
M  V30 429 H 46.5371 -2.74841 -3.12146 0
M  V30 430 H 45.1141 -0.980011 -3.59792 0
M  V30 431 N 47.2992 1.18797 -1.03562 0
M  V30 432 C 48.5272 1.92599 -0.755869 0
M  V30 433 C 48.9422 1.75886 0.686271 0
M  V30 434 O 48.2992 1.08517 1.46732 0
M  V30 435 C 48.3502 3.44159 -1.10619 0
M  V30 436 O 48.0712 3.60341 -2.4917 0
M  V30 437 C 49.5722 4.3507 -0.850214 0
M  V30 438 H 46.7922 0.611587 -0.276048 0
M  V30 439 H 49.3362 1.50742 -1.38192 0
M  V30 440 H 47.4912 3.83823 -0.525194 0
M  V30 441 H 47.9052 4.54128 -2.62427 0
M  V30 442 H 49.3792 5.39989 -1.14523 0
M  V30 443 H 49.8562 4.38673 0.215176 0
M  V30 444 H 50.4622 4.01097 -1.41426 0
M  V30 445 N 48.7773 0.814389 1.34928 0
M  V30 446 C 50.0233 0.399013 1.98836 0
M  V30 447 C 50.3563 -1.03314 1.64438 0
M  V30 448 O 49.6313 -1.71811 0.911659 0
M  V30 449 C 49.9143 0.591629 3.55207 0
M  V30 450 C 49.7673 2.06928 3.99376 0
M  V30 451 C 51.0863 0.022199 4.40094 0
M  V30 452 H 48.2053 0.146451 0.722303 0
M  V30 453 H 50.8473 1.02537 1.59957 0
M  V30 454 H 48.9973 0.0584441 3.88456 0
M  V30 455 H 50.6693 2.66544 3.76499 0
M  V30 456 H 48.9123 2.56287 3.49999 0
M  V30 457 H 49.5833 2.1549 5.08201 0
M  V30 458 H 52.0593 0.477643 4.13349 0
M  V30 459 H 50.9353 0.186832 5.48582 0
M  V30 460 H 51.1963 -1.07215 4.28902 0
M  V30 461 N 50.2554 -1.46986 0.568584 0
M  V30 462 C 51.1654 -2.33942 -0.17555 0
M  V30 463 C 52.1814 -1.48891 -0.90041 0
M  V30 464 O 53.3574 -1.81794 -0.86676 0
M  V30 465 C 50.4224 -3.25811 -1.18524 0
M  V30 466 C 49.4834 -4.26757 -0.466582 0
M  V30 467 C 48.7164 -5.14236 -1.42817 0
M  V30 468 O 48.9394 -5.04379 -2.66379 0
M  V30 469 O 47.8734 -5.94412 -0.946453 0
M  V30 470 H 51.6994 -2.98896 0.538036 0
M  V30 471 H 49.2844 -1.4573 0.329097 0
M  V30 472 H 51.1664 -3.82527 -1.76779 0
M  V30 473 H 49.8414 -2.63471 -1.88055 0
M  V30 474 H 48.7484 -3.73769 0.157451 0
M  V30 475 H 50.0814 -4.91843 0.187485 0
M  V30 476 N 51.7335 -0.305618 -1.54608 0
M  V30 477 C 52.9805 0.302298 -2.00231 0
M  V30 478 C 53.3085 1.5354 -1.19398 0
M  V30 479 O 52.5635 1.93973 -0.259423 0
M  V30 480 C 52.8625 0.698983 -3.50498 0
M  V30 481 C 52.5285 -0.432903 -4.48817 0
M  V30 482 C 51.1905 -0.743622 -4.75419 0
M  V30 483 C 53.5425 -1.19409 -5.07337 0
M  V30 484 C 50.8705 -1.81857 -5.57804 0
M  V30 485 C 53.2225 -2.25899 -5.90891 0
M  V30 486 C 51.8865 -2.57572 -6.15803 0
M  V30 487 H 51.1565 0.110619 -0.732697 0
M  V30 488 H 53.8035 -0.425674 -1.86709 0
M  V30 489 H 52.1085 1.50711 -3.61654 0
M  V30 490 H 53.8055 1.1806 -3.83227 0
M  V30 491 H 50.3955 -0.18063 -4.28219 0
M  V30 492 H 54.5795 -0.967295 -4.86782 0
M  V30 493 H 49.8355 -2.06864 -5.75341 0
M  V30 494 H 54.0095 -2.85335 -6.35261 0
M  V30 495 H 51.6365 -3.40998 -6.7943 0
M  V30 496 N 53.2116 1.57565 -0.0334293 0
M  V30 497 C 54.1596 2.1164 0.96496 0
M  V30 498 C 55.1536 1.04398 1.33407 0
M  V30 499 O 56.3596 1.22828 1.3158 0
M  V30 500 H 52.7346 0.676222 0.32898 0
M  V30 501 H 54.7056 2.94455 0.483614 0
M  V30 502 C 53.4546 2.66207 2.23672 0
M  V30 503 H 52.7776 3.48378 1.96145 0
M  V30 504 H 54.2176 3.07685 2.9173 0
M  V30 505 C 52.6766 1.59151 2.96939 0
M  V30 506 O 53.2066 0.993858 3.89211 0
M  V30 507 N 51.4126 1.31093 2.59351 0
M  V30 508 H 50.9596 1.7988 1.84393 0
M  V30 509 H 50.9176 0.596889 3.08682 0
M  V30 510 N 54.6897 -0.239769 1.55765 0
M  V30 511 C 55.6397 -1.30002 1.87306 0
M  V30 512 C 56.6237 -1.43156 0.73452 0
M  V30 513 O 57.8157 -1.46277 0.99659 0
M  V30 514 C 54.9447 -2.65409 2.17745 0
M  V30 515 C 54.0307 -2.56231 3.37945 0
M  V30 516 N 54.4217 -2.16689 4.57033 0
M  V30 517 C 52.7197 -2.87229 3.41197 0
M  V30 518 C 53.4207 -2.18318 5.39177 0
M  V30 519 N 52.3967 -2.58098 4.78421 0
M  V30 520 H 56.1987 -0.984912 2.76906 0
M  V30 521 H 53.7127 -0.448381 1.56087 0
M  V30 522 H 55.7097 -3.41934 2.38509 0
M  V30 523 H 54.3697 -2.97781 1.29448 0
M  V30 524 H 55.3807 -1.88116 4.82528 0
M  V30 525 H 52.0577 -3.24094 2.63191 0
M  V30 526 H 53.4477 -1.90025 6.44469 0
M  V30 527 N 56.1678 -1.49265 -0.50573 0
M  V30 528 C 57.3928 -1.62478 -1.28902 0
M  V30 529 C 57.8178 -0.294332 -1.85783 0
M  V30 530 O 57.1758 0.737412 -1.65626 0
M  V30 531 C 57.2238 -2.69268 -2.39848 0
M  V30 532 O 56.3278 -2.28113 -3.43567 0
M  V30 533 H 55.6688 -0.54399 -0.380751 0
M  V30 534 H 58.1988 -1.95421 -0.605952 0
M  V30 535 H 58.2088 -2.91291 -2.85681 0
M  V30 536 H 56.8838 -3.65846 -1.97812 0
M  V30 537 H 55.4608 -2.16401 -3.03685 0
M  V30 538 N 57.6459 0.756429 -1.3826 0
M  V30 539 C 58.8939 1.51248 -1.34047 0
M  V30 540 C 59.2149 1.94875 0.0698372 0
M  V30 541 O 58.4849 1.67436 1.01696 0
M  V30 542 H 57.0649 0.561018 -0.493222 0
M  V30 543 H 59.7269 0.899347 -1.7291 0
M  V30 544 H 58.8229 2.40472 -1.98947 0
M  V30 545 N 59.124 1.23083 0.984299 0
M  V30 546 C 60.034 1.02515 2.11016 0
M  V30 547 C 61.05 -0.0291702 1.73976 0
M  V30 548 O 62.226 0.165434 2.00719 0
M  V30 549 C 59.291 0.614673 3.41208 0
M  V30 550 C 58.352 1.74359 3.92297 0
M  V30 551 C 57.585 1.35261 5.16275 0
M  V30 552 O 57.808 0.235136 5.69915 0
M  V30 553 O 56.742 2.17227 5.61334 0
M  V30 554 H 60.568 1.96862 2.31255 0
M  V30 555 H 58.153 1.01753 1.09392 0
M  V30 556 H 60.035 0.396518 4.1953 0
M  V30 557 H 58.71 -0.299851 3.22308 0
M  V30 558 H 57.617 2.01635 3.1511 0
M  V30 559 H 58.95 2.63629 4.15645 0
M  V30 560 N 60.6021 -1.18246 1.0419 0
M  V30 561 C 61.5321 -2.24127 0.654914 0
M  V30 562 C 62.5131 -1.66617 -0.342451 0
M  V30 563 O 63.6981 -1.92924 -0.222277 0
M  V30 564 C 60.8281 -3.47295 0.0183757 0
M  V30 565 C 59.7821 -4.17563 0.939414 0
M  V30 566 C 59.1081 -5.34438 0.167286 0
M  V30 567 C 60.4081 -4.70917 2.25908 0
M  V30 568 H 62.1021 -2.56753 1.54007 0
M  V30 569 H 59.6481 -1.23414 0.74195 0
M  V30 570 H 61.6011 -4.20572 -0.264082 0
M  V30 571 H 60.3251 -3.13907 -0.901664 0
M  V30 572 H 58.9841 -3.46186 1.20628 0
M  V30 573 H 58.6321 -4.97298 -0.7552 0
M  V30 574 H 58.3321 -5.82388 0.780901 0
M  V30 575 H 59.8561 -6.10504 -0.108125 0
M  V30 576 H 61.2701 -5.35882 2.03724 0
M  V30 577 H 59.6671 -5.29406 2.82577 0
M  V30 578 H 60.7371 -3.88272 2.9047 0
M  V30 579 N 62.0802 -0.821533 -1.34494 0
M  V30 580 C 63.0102 -0.257138 -2.3208 0
M  V30 581 C 63.9912 0.625645 -1.58176 0
M  V30 582 O 65.1762 0.552811 -1.86166 0
M  V30 583 C 62.3062 0.582958 -3.42372 0
M  V30 584 C 61.2602 -0.202571 -4.2752 0
M  V30 585 C 60.5862 0.760179 -5.29269 0
M  V30 586 C 61.8862 -1.40998 -5.02908 0
M  V30 587 H 63.5802 -1.07247 -2.79532 0
M  V30 588 H 61.1262 -0.517163 -1.34393 0
M  V30 589 H 63.0792 0.987972 -4.09655 0
M  V30 590 H 61.8032 1.43133 -2.93565 0
M  V30 591 H 60.4622 -0.588936 -3.61838 0
M  V30 592 H 60.1102 1.60447 -4.76724 0
M  V30 593 H 59.8102 0.238809 -5.87115 0
M  V30 594 H 61.3342 1.16308 -5.9942 0
M  V30 595 H 62.7482 -1.07905 -5.63054 0
M  V30 596 H 61.1452 -1.86689 -5.70322 0
M  V30 597 H 62.2152 -2.1889 -4.32684 0
M  V30 598 N 63.5583 1.46682 -0.576371 0
M  V30 599 C 64.5213 2.28707 0.150239 0
M  V30 600 C 65.5213 1.38035 0.824794 0
M  V30 601 O 66.7113 1.60476 0.677719 0
M  V30 602 C 63.8433 3.18248 1.22192 0
M  V30 603 H 65.0363 2.94423 -0.570521 0
M  V30 604 H 62.5893 1.52688 -0.334078 0
M  V30 605 H 63.3243 2.57265 1.97447 0
M  V30 606 H 63.1093 3.85 0.742812 0
M  V30 607 H 64.5993 3.80001 1.73172 0
M  V30 608 N 65.0364 0.313813 1.54444 0
M  V30 609 C 66.2644 -0.293918 2.04802 0
M  V30 610 C 66.6794 -1.46537 1.19047 0
M  V30 611 O 66.0364 -1.81182 0.218939 0
M  V30 612 C 66.0874 -0.737806 3.53891 0
M  V30 613 O 65.8084 0.387038 4.36387 0
M  V30 614 C 67.3094 -1.40936 4.203 0
M  V30 615 H 64.5294 -0.0620057 0.668129 0
M  V30 616 H 67.0734 0.457169 1.99324 0
M  V30 617 H 65.2284 -1.43889 3.59687 0
M  V30 618 H 65.6424 0.0391274 5.24485 0
M  V30 619 H 67.1164 -1.67099 5.26101 0
M  V30 620 H 67.5934 -2.35355 3.70816 0
M  V30 621 H 68.1994 -0.751117 4.18615 0
M  V30 622 N 66.5145 -1.57545 0.0417849 0
M  V30 623 C 67.7625 -1.91937 -0.632829 0
M  V30 624 C 68.0835 -0.919978 -1.71934 0
M  V30 625 O 67.3535 0.0366064 -1.95866 0
M  V30 626 H 65.9335 -0.708493 -0.236742 0
M  V30 627 H 68.5955 -1.9468 0.0925745 0
M  V30 628 H 67.6915 -2.92912 -1.07746 0
M  V30 629 N 67.9926 0.231505 -1.5589 0
M  V30 630 C 69.2696 0.981096 -1.69215 0
M  V30 631 C 69.6496 2.02799 -0.586164 0
M  V30 632 O 68.9976 2.24823 0.408253 0
M  V30 633 C 69.2076 1.60054 -3.10135 0
M  V30 634 C 70.5556 2.09658 -3.69227 0
M  V30 635 O 71.5796 1.69967 -3.13033 0
M  V30 636 O 70.4386 2.8258 -4.67772 0
M  V30 637 H 67.5326 0.457653 -0.688827 0
M  V30 638 H 70.0786 0.224073 -1.68214 0
M  V30 639 H 68.8506 0.844105 -3.82087 0
M  V30 640 H 68.4736 2.42336 -3.15212 0
M  V30 641 N 69.4707 1.49531 0.497807 0
M  V30 642 C 70.4177 1.66436 1.59899 0
M  V30 643 C 71.3877 0.505793 1.58212 0
M  V30 644 O 72.5727 0.733202 1.7615 0
M  V30 645 C 69.7127 1.7399 2.98029 0
M  V30 646 C 68.8257 3.01172 3.09708 0
M  V30 647 C 67.9607 2.99686 4.38591 0
M  V30 648 C 66.9997 4.21434 4.43914 0
M  V30 649 N 66.1367 4.1784 5.64229 0
M  V30 650 H 70.9767 2.60459 1.44793 0
M  V30 651 H 68.5137 1.29137 0.704423 0
M  V30 652 H 70.4717 1.76352 3.78095 0
M  V30 653 H 69.1017 0.834301 3.11832 0
M  V30 654 H 68.1537 3.08408 2.22685 0
M  V30 655 H 69.4657 3.91165 3.09502 0
M  V30 656 H 68.6197 3.00628 5.2698 0
M  V30 657 H 67.3587 2.07477 4.41367 0
M  V30 658 H 66.3637 4.20733 3.53926 0
M  V30 659 H 67.5887 5.14839 4.42851 0
M  V30 660 H 65.5347 3.28469 5.67841 0
M  V30 661 H 65.4517 5.01571 5.65652 0
M  V30 662 H 66.7197 4.22889 6.54817 0
M  V30 663 N 70.9488 -0.749086 1.3866 0
M  V30 664 C 72.1968 -1.50535 1.34847 0
M  V30 665 C 72.5178 -1.94909 -0.0595016 0
M  V30 666 O 71.7878 -1.67973 -1.00806 0
M  V30 667 H 70.3678 -0.558395 0.49619 0
M  V30 668 H 73.0298 -0.890165 1.73384 0
M  V30 669 H 72.1258 -2.39413 2.00219 0
M  V30 670 N 72.4269 -1.23603 -0.977757 0
M  V30 671 C 73.6749 -1.06759 -1.71601 0
M  V30 672 C 73.9959 0.395929 -1.90938 0
M  V30 673 O 73.2659 1.28356 -1.47992 0
M  V30 674 H 71.8459 -0.392062 -0.635843 0
M  V30 675 H 74.5079 -1.55362 -1.1768 0
M  V30 676 H 73.6039 -1.55763 -2.70452 0
M  V30 677 N 73.905 1.17692 -1.04816 0
M  V30 678 C 75.321 1.39863 -0.768794 0
M  V30 679 C 75.521 1.91118 0.638451 0
M  V30 680 O 74.577 2.10036 1.40146 0
M  V30 681 C 75.89 2.39274 -1.82122 0
M  V30 682 C 77.438 2.52987 -1.843 0
M  V30 683 C 77.913 3.55669 -2.88555 0
M  V30 684 N 79.404 3.63183 -2.87493 0
M  V30 685 C 80.139 4.42381 -3.64811 0
M  V30 686 N 79.635 5.25125 -4.51903 0
M  V30 687 N 81.428 4.37217 -3.53267 0
M  V30 688 H 73.579 0.82752 -1.95617 0
M  V30 689 H 75.842 0.426123 -0.846831 0
M  V30 690 H 75.548 2.08678 -2.83102 0
M  V30 691 H 75.422 3.38725 -1.65967 0
M  V30 692 H 77.809 2.82896 -0.839869 0
M  V30 693 H 77.89 1.53623 -2.04532 0
M  V30 694 H 77.534 3.26499 -3.89051 0
M  V30 695 H 77.464 4.54728 -2.65575 0
M  V30 696 H 79.955 3.04103 -2.24343 0
M  V30 697 H 80.268 5.82728 -5.07591 0
M  V30 698 H 78.613 5.24519 -4.55966 0
M  V30 699 H 81.804 3.71626 -2.84625 0
M  V30 700 H 81.977 4.98696 -4.13771 0
M  V30 701 N 75.3831 0.828654 1.34056 0
M  V30 702 C 76.6291 0.42008 1.98402 0
M  V30 703 C 76.9621 -1.01564 1.65525 0
M  V30 704 O 76.2371 -1.70834 0.929831 0
M  V30 705 C 76.5201 0.62927 3.54559 0
M  V30 706 C 76.3731 2.11152 3.97159 0
M  V30 707 C 77.6921 0.0688756 4.40046 0
M  V30 708 H 74.8111 0.154104 0.720709 0
M  V30 709 H 77.4531 1.04228 1.5886 0
M  V30 710 H 75.6031 0.0996418 3.88372 0
M  V30 711 H 77.2751 2.70522 3.73651 0
M  V30 712 H 75.5181 2.59985 3.47261 0
M  V30 713 H 76.1891 2.20868 5.05887 0
M  V30 714 H 78.6651 0.521458 4.1282 0
M  V30 715 H 77.5411 0.245006 5.48353 0
M  V30 716 H 77.8021 -1.0266 4.30015 0
M  V30 717 N 76.8612 -1.46375 0.584142 0
M  V30 718 C 78.1072 -2.02678 0.0703716 0
M  V30 719 C 78.4402 -1.4545 -1.28678 0
M  V30 720 O 77.7152 -0.62014 -1.84349 0
M  V30 721 C 77.9982 -3.60099 0.00614674 0
M  V30 722 C 77.8512 -4.27709 1.3923 0
M  V30 723 C 79.1702 -4.34598 -0.693742 0
M  V30 724 H 76.2892 -0.736504 0.027047 0
M  V30 725 H 78.9312 -1.74501 0.751615 0
M  V30 726 H 77.0812 -3.84236 -0.574009 0
M  V30 727 H 78.7532 -4.14832 2.01773 0
M  V30 728 H 76.9962 -3.87016 1.95962 0
M  V30 729 H 77.6672 -5.36478 1.29982 0
M  V30 730 H 80.1432 -4.15615 -0.200869 0
M  V30 731 H 79.0192 -5.44318 -0.707714 0
M  V30 732 H 79.2802 -4.05759 -1.75533 0
M  V30 733 N 78.3393 -0.321999 -1.54275 0
M  V30 734 C 79.5883 0.281931 -1.9972 0
M  V30 735 C 79.9013 1.53369 -1.21397 0
M  V30 736 O 81.1073 2.21352 -1.57211 0
M  V30 737 C 79.5633 0.5529 -3.55628 0
M  V30 738 C 79.1713 -0.681721 -4.42783 0
M  V30 739 C 80.9153 1.11687 -4.09544 0
M  V30 740 C 78.8223 -0.382742 -5.9016 0
M  V30 741 H 77.7523 0.109124 -0.746062 0
M  V30 742 H 80.4033 -0.43398 -1.78294 0
M  V30 743 H 78.7853 1.32896 -3.73035 0
M  V30 744 H 79.9593 -1.45723 -4.37151 0
M  V30 745 H 78.2743 -1.1658 -3.99748 0
M  V30 746 H 80.8713 1.35515 -5.17242 0
M  V30 747 H 81.2143 2.06575 -3.61431 0
M  V30 748 H 81.7473 0.402032 -3.95763 0
M  V30 749 H 78.4863 -1.30076 -6.42464 0
M  V30 750 H 78.0063 0.355094 -5.98748 0
M  V30 751 H 79.6853 0.00800157 -6.47 0
M  V30 752 N 79.8174 1.5752 -0.0501392 0
M  V30 753 C 81.0644 1.9265 0.623874 0
M  V30 754 C 81.3924 0.928411 1.70912 0
M  V30 755 O 80.6474 -0.0594525 1.9561 0
M  V30 756 C 80.9464 3.34467 1.25963 0
M  V30 757 C 80.6124 4.49883 0.302689 0
M  V30 758 C 79.2744 4.81184 0.0393636 0
M  V30 759 C 81.6264 5.20002 -0.353205 0
M  V30 760 C 78.9544 5.79951 -0.887308 0
M  V30 761 C 81.3064 6.1976 -1.26806 0
M  V30 762 C 79.9704 6.49491 -1.54007 0
M  V30 763 H 79.2404 0.704957 0.228292 0
M  V30 764 H 81.8874 1.91146 -0.116398 0
M  V30 765 H 80.1924 3.32333 2.07514 0
M  V30 766 H 81.8894 3.58928 1.78806 0
M  V30 767 H 78.4794 4.25457 0.518109 0
M  V30 768 H 82.6634 4.96033 -0.162854 0
M  V30 769 H 77.9194 6.01322 -1.10553 0
M  V30 770 H 82.0934 6.73205 -1.78236 0
M  V30 771 H 79.7204 7.25837 -2.25976 0
M  V30 772 N 81.2955 -0.223234 1.56011 0
M  V30 773 C 82.2275 -1.30006 1.88762 0
M  V30 774 C 83.2405 -1.43129 0.775746 0
M  V30 775 O 84.4295 -1.44057 1.05403 0
M  V30 776 C 81.5295 -2.67589 2.07965 0
M  V30 777 C 80.7025 -2.76434 3.38973 0
M  V30 778 C 79.7615 -3.95019 3.47629 0
M  V30 779 O 78.7875 -3.83436 4.20672 0
M  V30 780 N 79.9895 -5.09249 2.78649 0
M  V30 781 H 82.7545 -1.02238 2.81722 0
M  V30 782 H 80.3155 -0.413278 1.56536 0
M  V30 783 H 82.3075 -3.45297 2.11073 0
M  V30 784 H 80.8775 -2.87964 1.21638 0
M  V30 785 H 80.0975 -1.85216 3.47978 0
M  V30 786 H 81.3855 -2.79313 4.25278 0
M  V30 787 H 80.7835 -5.21556 2.19081 0
M  V30 788 H 79.3405 -5.85007 2.8742 0
M  V30 789 N 82.7736 -1.49793 -0.48987 0
M  V30 790 C 83.7056 -1.63413 -1.60713 0
M  V30 791 C 84.7186 -0.516329 -1.54395 0
M  V30 792 O 85.9076 -0.788812 -1.60125 0
M  V30 793 C 83.0076 -1.58516 -2.99543 0
M  V30 794 C 82.1806 -2.86016 -3.30928 0
M  V30 795 C 81.2396 -2.74018 -4.49222 0
M  V30 796 O 80.2656 -3.47964 -4.50455 0
M  V30 797 N 81.4676 -1.86309 -5.4979 0
M  V30 798 H 84.2326 -2.59777 -1.49452 0
M  V30 799 H 81.7936 -1.47022 -0.677955 0
M  V30 800 H 83.7856 -1.48128 -3.76617 0
M  V30 801 H 82.3556 -0.69965 -3.0467 0
M  V30 802 H 81.5756 -3.10672 -2.42645 0
M  V30 803 H 82.8636 -3.70521 -3.487 0
M  V30 804 H 82.2616 -1.2551 -5.51601 0
M  V30 805 H 80.8186 -1.81837 -6.25922 0
M  V30 806 N 84.2517 0.741722 -1.39055 0
M  V30 807 C 85.1617 1.88621 -1.39496 0
M  V30 808 C 86.1777 1.71557 -0.290578 0
M  V30 809 O 87.3537 1.94275 -0.530954 0
M  V30 810 C 84.4187 3.24134 -1.23037 0
M  V30 811 C 83.4797 3.5364 -2.43387 0
M  V30 812 C 82.7127 4.82687 -2.27703 0
M  V30 813 O 82.9357 5.55922 -1.27696 0
M  V30 814 O 81.8697 5.1194 -3.16545 0
M  V30 815 H 85.6957 1.91203 -2.35956 0
M  V30 816 H 83.2807 0.888625 -1.20099 0
M  V30 817 H 85.1627 4.0513 -1.15964 0
M  V30 818 H 83.8377 3.22337 -0.296691 0
M  V30 819 H 82.7447 2.72758 -2.56035 0
M  V30 820 H 84.0777 3.60209 -3.35425 0
M  V30 821 N 85.7298 1.2412 0.971189 0
M  V30 822 C 86.6618 0.988349 2.06795 0
M  V30 823 C 87.6748 -0.0409541 1.62748 0
M  V30 824 O 88.8638 0.195673 1.77424 0
M  V30 825 C 85.9638 0.469023 3.35639 0
M  V30 826 C 85.1368 1.56065 4.08611 0
M  V30 827 C 84.1958 1.04458 5.15728 0
M  V30 828 O 83.2218 1.73553 5.42096 0
M  V30 829 N 84.4238 -0.122817 5.8037 0
M  V30 830 H 87.1888 1.93265 2.29061 0
M  V30 831 H 84.7498 1.15102 1.13856 0
M  V30 832 H 86.7418 0.108613 4.04554 0
M  V30 833 H 85.3118 -0.380919 3.1027 0
M  V30 834 H 84.5318 2.09341 3.34021 0
M  V30 835 H 85.8198 2.29449 4.54126 0
M  V30 836 H 85.2178 -0.700563 5.61345 0
M  V30 837 H 83.7748 -0.424404 6.50417 0
M  V30 838 N 87.2079 -1.17134 1.05439 0
M  V30 839 C 88.1179 -2.24878 0.668365 0
M  V30 840 C 89.1339 -1.71186 -0.311687 0
M  V30 841 O 90.3099 -2.00738 -0.163161 0
M  V30 842 C 87.3749 -3.46662 0.051648 0
M  V30 843 C 86.4359 -4.15429 1.08246 0
M  V30 844 C 85.6689 -5.31399 0.495082 0
M  V30 845 O 85.8919 -5.66153 -0.694743 0
M  V30 846 O 84.8259 -5.89187 1.23056 0
M  V30 847 H 88.6519 -2.60189 1.56637 0
M  V30 848 H 86.2369 -1.24482 0.826104 0
M  V30 849 H 88.1189 -4.20394 -0.290966 0
M  V30 850 H 86.7939 -3.13142 -0.819971 0
M  V30 851 H 85.7009 -3.43704 1.47711 0
M  V30 852 H 87.0339 -4.52982 1.92532 0
M  V30 853 N 88.686 -0.835752 -1.33615 0
M  V30 854 C 89.634 -0.255238 -2.31195 0
M  V30 855 C 90.628 0.61107 -1.57995 0
M  V30 856 O 91.834 0.500979 -1.72888 0
M  V30 857 H 88.209 -0.0638085 -0.749288 0
M  V30 858 H 90.18 -1.09283 -2.77669 0
M  V30 859 C 88.929 0.55754 -3.43201 0
M  V30 860 H 88.252 -0.0997553 -3.99676 0
M  V30 861 H 89.692 0.929622 -4.13683 0
M  V30 862 C 88.151 1.73515 -2.88781 0
M  V30 863 O 88.681 2.83376 -2.84712 0
M  V30 864 N 86.887 1.55603 -2.4543 0
M  V30 865 H 86.434 0.662354 -2.48939 0
M  V30 866 H 86.392 2.34545 -2.09371 0
M  V30 867 N 90.1641 1.46063 -0.591896 0
M  V30 868 C 91.1111 2.30399 0.136069 0
M  V30 869 C 92.0811 1.41169 0.875238 0
M  V30 870 O 93.2661 1.70112 0.86409 0
M  V30 871 C 90.4061 3.25804 1.13781 0
M  V30 872 C 89.5191 4.30134 0.401137 0
M  V30 873 C 88.6541 5.12659 1.39121 0
M  V30 874 C 87.6931 6.0873 0.641462 0
M  V30 875 N 86.8301 6.8409 1.58004 0
M  V30 876 H 91.6701 2.92118 -0.589144 0
M  V30 877 H 89.2071 1.43959 -0.302342 0
M  V30 878 H 91.1651 3.79569 1.73156 0
M  V30 879 H 89.7951 2.65872 1.83062 0
M  V30 880 H 88.8471 3.79152 -0.307826 0
M  V30 881 H 90.1591 4.98458 -0.184565 0
M  V30 882 H 89.3131 5.70747 2.05749 0
M  V30 883 H 88.0521 4.44316 2.01084 0
M  V30 884 H 87.0571 5.49786 -0.0385419 0
M  V30 885 H 88.2821 6.79095 0.0270945 0
M  V30 886 H 86.2281 6.18449 2.18761 0
M  V30 887 H 86.1451 7.48709 1.04738 0
M  V30 888 H 87.4131 7.4673 2.23639 0
M  V30 889 N 91.6422 0.330177 1.54103 0
M  V30 890 C 92.8912 -0.271336 1.99867 0
M  V30 891 C 93.2042 -1.52723 1.22209 0
M  V30 892 O 94.4102 -2.20515 1.58383 0
M  V30 893 C 92.8662 -0.534032 3.55916 0
M  V30 894 C 92.4742 0.705193 4.42415 0
M  V30 895 C 94.2182 -1.09514 4.1013 0
M  V30 896 C 92.1252 0.414035 5.89949 0
M  V30 897 H 91.0552 -0.105166 0.74663 0
M  V30 898 H 93.7062 0.443429 1.78062 0
M  V30 899 H 92.0882 -1.30915 3.73734 0
M  V30 900 H 93.2622 1.4804 4.36372 0
M  V30 901 H 91.5772 1.18698 3.99124 0
M  V30 902 H 94.1742 -1.3277 5.17954 0
M  V30 903 H 94.5172 -2.04656 3.62521 0
M  V30 904 H 95.0502 -0.381038 3.95971 0
M  V30 905 H 91.7892 1.33481 6.41766 0
M  V30 906 H 91.3092 -0.323336 5.98928 0
M  V30 907 H 92.9882 0.0263105 6.46995 0
M  V30 908 N 93.1203 -1.57491 0.0584922 0
M  V30 909 C 94.0523 -2.08916 -0.942694 0
M  V30 910 C 95.0653 -1.0185 -1.27006 0
M  V30 911 O 96.2543 -1.29398 -1.22957 0
M  V30 912 C 93.3543 -2.52341 -2.26224 0
M  V30 913 C 92.5273 -3.82827 -2.1157 0
M  V30 914 C 91.5863 -4.12487 -3.26712 0
M  V30 915 O 90.6123 -4.82295 -3.02292 0
M  V30 916 N 91.8143 -3.64978 -4.5141 0
M  V30 917 H 94.5793 -2.95437 -0.503722 0
M  V30 918 H 92.1403 -1.61397 -0.12757 0
M  V30 919 H 94.1323 -2.69254 -3.02133 0
M  V30 920 H 92.7023 -1.7103 -2.61663 0
M  V30 921 H 91.9223 -3.75425 -1.20208 0
M  V30 922 H 93.2103 -4.68263 -1.99015 0
M  V30 923 H 92.6083 -3.08558 -4.7414 0
M  V30 924 H 91.1653 -3.87115 -5.2439 0
M  V30 925 N 94.5984 0.214957 -1.56127 0
M  V30 926 C 95.8234 0.95924 -1.83884 0
M  V30 927 C 96.2484 1.7689 -0.639644 0
M  V30 928 O 95.6064 1.76566 0.411601 0
M  V30 929 C 95.6544 1.84723 -3.09693 0
M  V30 930 O 94.7584 2.94346 -2.8885 0
M  V30 931 H 94.0994 0.27125 -0.606069 0
M  V30 932 H 96.6294 0.226276 -2.03345 0
M  V30 933 H 96.6394 2.25576 -3.39969 0
M  V30 934 H 95.3144 1.25218 -3.96602 0
M  V30 935 H 93.8914 2.57391 -2.69823 0
M  V30 936 N 96.0765 1.50051 0.48192 0
M  V30 937 C 97.0265 1.64512 1.5786 0
M  V30 938 C 98.0105 0.500073 1.52932 0
M  V30 939 O 99.2025 0.753964 1.60139 0
M  V30 940 C 96.3315 1.73263 2.9637 0
M  V30 941 C 95.4175 2.93409 3.06222 0
M  V30 942 N 95.8085 4.17236 2.85915 0
M  V30 943 C 94.1065 2.91742 3.37346 0
M  V30 944 C 94.8075 4.981 3.00451 0
M  V30 945 N 93.7835 4.3184 3.30174 0
M  V30 946 H 97.5855 2.57955 1.40842 0
M  V30 947 H 95.0995 1.47086 0.688439 0
M  V30 948 H 97.0965 1.81724 3.75209 0
M  V30 949 H 95.7565 0.809711 3.14442 0
M  V30 950 H 96.7675 4.46909 2.6171 0
M  V30 951 H 93.4445 2.08907 3.61475 0
M  V30 952 H 94.8345 6.06532 2.89082 0
M  V30 953 N 97.5546 -0.734337 1.39446 0
M  V30 954 C 98.7796 -1.52866 1.40167 0
M  V30 955 C 99.2046 -1.881 -0.00171513 0
M  V30 956 O 98.5626 -1.51957 -0.988879 0
M  V30 957 C 98.6106 -2.79235 2.28167 0
M  V30 958 O 97.7146 -3.75185 1.71201 0
M  V30 959 H 97.0556 -0.461618 0.477289 0
M  V30 960 H 99.5856 -0.905949 1.8345 0
M  V30 961 H 99.5956 -3.27963 2.42702 0
M  V30 962 H 98.2706 -2.52923 3.30156 0
M  V30 963 H 96.8476 -3.33958 1.65912 0
M  V30 964 N 99.0327 -1.24633 -0.964593 0
M  V30 965 C 100.449 -1.01239 -1.2338 0
M  V30 966 C 100.649 0.2769 -1.99588 0
M  V30 967 O 99.7047 0.992241 -2.32187 0
M  V30 968 C 101.018 -2.22937 -2.01791 0
M  V30 969 C 102.566 -2.27594 -2.14872 0
M  V30 970 C 103.041 -3.48921 -2.96678 0
M  V30 971 N 104.532 -3.49257 -3.04259 0
M  V30 972 C 105.267 -4.39795 -3.67924 0
M  V30 973 N 104.763 -5.40591 -4.33281 0
M  V30 974 N 106.556 -4.275 -3.64966 0
M  V30 975 H 98.7067 -2.0748 -0.454502 0
M  V30 976 H 100.97 -0.910647 -0.26349 0
M  V30 977 H 100.676 -3.16587 -1.53184 0
M  V30 978 H 100.55 -2.25306 -3.02518 0
M  V30 979 H 102.937 -1.34473 -2.6268 0
M  V30 980 H 103.018 -2.2925 -1.13482 0
M  V30 981 H 102.662 -4.42359 -2.49562 0
M  V30 982 H 102.592 -3.4451 -3.98272 0
M  V30 983 H 105.083 -2.76337 -2.57771 0
M  V30 984 H 105.396 -6.05904 -4.79687 0
M  V30 985 H 103.741 -5.44475 -4.3194 0
M  V30 986 H 106.932 -3.47987 -3.13086 0
M  V30 987 H 107.105 -4.98258 -4.14298 0
M  V30 988 N 100.511 1.16574 -1.06058 0
M  V30 989 C 101.759 1.86677 -0.77434 0
M  V30 990 C 102.08 1.81959 0.701147 0
M  V30 991 O 101.35 1.2515 1.50713 0
M  V30 992 H 99.9298 0.691134 -0.283449 0
M  V30 993 H 102.592 1.41378 -1.34158 0
M  V30 994 H 101.688 2.92181 -1.09711 0
M  V30 995 N 101.989 0.842826 1.3317 0
M  V30 996 C 102.899 0.281444 2.32906 0
M  V30 997 C 103.915 -0.594587 1.63526 0
M  V30 998 O 105.091 -0.49777 1.95152 0
M  V30 999 C 102.156 -0.530929 3.42611 0
M  V30 1000 C 101.217 0.369843 4.27704 0
M  V30 1001 C 100.45 -0.403853 5.3217 0
M  V30 1002 O 100.673 -1.63513 5.46461 0
M  V30 1003 O 99.6069 0.224199 6.01482 0
M  V30 1004 H 103.433 1.10744 2.82789 0
M  V30 1005 H 101.018 0.60545 1.36582 0
M  V30 1006 H 102.9 -0.992437 4.09547 0
M  V30 1007 H 101.575 -1.33392 2.94938 0
M  V30 1008 H 100.482 0.879275 3.6362 0
M  V30 1009 H 101.815 1.13771 4.78871 0
M  V30 1010 N 103.467 -1.45747 0.599634 0
M  V30 1011 C 104.697 -2.06369 0.0977132 0
M  V30 1012 C 105.105 -1.44624 -1.21985 0
M  V30 1013 O 104.448 -0.551831 -1.75216 0
M  V30 1014 C 104.51 -3.59284 -0.124673 0
M  V30 1015 C 104.174 -4.43318 1.10987 0
M  V30 1016 C 105.171 -4.78796 2.02609 0
M  V30 1017 C 102.856 -4.84194 1.33647 0
M  V30 1018 C 104.85 -5.53997 3.15224 0
M  V30 1019 C 102.537 -5.5915 2.46565 0
M  V30 1020 C 103.535 -5.93968 3.37182 0
M  V30 1021 O 103.223 -6.67405 4.48136 0
M  V30 1022 H 102.955 -0.673122 0.0623153 0
M  V30 1023 H 105.509 -1.88104 0.824981 0
M  V30 1024 H 103.739 -3.75919 -0.906745 0
M  V30 1025 H 105.428 -4.01775 -0.577201 0
M  V30 1026 H 106.194 -4.47781 1.86325 0
M  V30 1027 H 102.073 -4.56534 0.64016 0
M  V30 1028 H 105.617 -5.81091 3.85978 0
M  V30 1029 H 101.514 -5.89579 2.62805 0
M  V30 1030 H 102.282 -6.85847 4.46717 0
M  V30 1031 N 104.945 -0.338344 -1.53925 0
M  V30 1032 C 105.893 0.536231 -2.26335 0
M  V30 1033 C 106.887 1.1063 -1.28286 0
M  V30 1034 O 108.093 1.05264 -1.46012 0
M  V30 1035 H 104.468 0.191602 -0.727181 0
M  V30 1036 H 106.439 -0.0965747 -2.98244 0
M  V30 1037 C 105.188 1.67803 -3.04528 0
M  V30 1038 H 104.511 1.24864 -3.79801 0
M  V30 1039 H 105.951 2.26526 -3.58416 0
M  V30 1040 C 104.41 2.60439 -2.13712 0
M  V30 1041 O 104.94 3.6255 -1.72975 0
M  V30 1042 N 103.146 2.29006 -1.78898 0
M  V30 1043 H 102.693 1.46011 -2.12223 0
M  V30 1044 H 102.651 2.91248 -1.18416 0
M  V30 1045 N 106.423 1.57458 -0.0668435 0
M  V30 1046 C 107.669 1.93587 0.6043 0
M  V30 1047 C 108.002 0.946722 1.69561 0
M  V30 1048 O 107.277 -0.0248516 1.94484 0
M  V30 1049 C 107.56 3.40014 1.18585 0
M  V30 1050 C 107.413 4.49685 0.101529 0
M  V30 1051 C 108.732 3.87154 2.09284 0
M  V30 1052 H 105.851 0.703958 0.218202 0
M  V30 1053 H 108.493 1.89542 -0.131804 0
M  V30 1054 H 106.643 3.43592 1.81319 0
M  V30 1055 H 108.315 4.5823 -0.531279 0
M  V30 1056 H 106.558 4.30059 -0.568487 0
M  V30 1057 H 107.229 5.49266 0.54874 0
M  V30 1058 H 109.705 3.85551 1.56491 0
M  V30 1059 H 108.581 4.90231 2.46911 0
M  V30 1060 H 108.842 3.2481 2.99918 0
M  V30 1061 N 107.901 -0.206675 1.56239 0
M  V30 1062 C 109.131 -0.943975 1.83773 0
M  V30 1063 C 109.539 -1.77841 0.645703 0
M  V30 1064 O 108.882 -1.79403 -0.395008 0
M  V30 1065 C 108.944 -1.899 3.05251 0
M  V30 1066 C 108.608 -1.24764 4.39639 0
M  V30 1067 C 109.605 -0.630216 5.16066 0
M  V30 1068 C 107.29 -1.25496 4.8637 0
M  V30 1069 C 109.284 -0.0287946 6.37393 0
M  V30 1070 C 106.971 -0.649698 6.07637 0
M  V30 1071 C 107.969 -0.0376845 6.8299 0
M  V30 1072 O 107.657 0.55812 8.0196 0
M  V30 1073 H 107.389 -0.281508 0.614597 0
M  V30 1074 H 109.943 -0.222458 2.04192 0
M  V30 1075 H 108.173 -2.6599 2.80689 0
M  V30 1076 H 109.862 -2.5031 3.1953 0
M  V30 1077 H 110.628 -0.616785 4.81062 0
M  V30 1078 H 106.507 -1.72072 4.27683 0
M  V30 1079 H 110.051 0.449518 6.9615 0
M  V30 1080 H 105.948 -0.660592 6.42111 0
M  V30 1081 H 106.716 0.453891 8.17241 0
M  V30 1082 N 109.379 -1.50304 -0.473955 0
M  V30 1083 C 110.604 -1.65175 -1.25427 0
M  V30 1084 C 111.029 -0.333673 -1.85117 0
M  V30 1085 O 110.387 0.702114 -1.67153 0
M  V30 1086 C 110.435 -2.74295 -2.34082 0
M  V30 1087 O 109.539 -2.35349 -3.38651 0
M  V30 1088 H 108.88 -0.551944 -0.369126 0
M  V30 1089 H 111.41 -1.96662 -0.564364 0
M  V30 1090 H 111.42 -2.97285 -2.79438 0
M  V30 1091 H 110.095 -3.69959 -1.90008 0
M  V30 1092 H 108.672 -2.22794 -2.99027 0
M  V30 1093 N 110.857 0.726932 -1.39834 0
M  V30 1094 C 112.085 1.51613 -1.40787 0
M  V30 1095 C 112.5 1.88799 -0.00451505 0
M  V30 1096 O 111.857 1.54662 0.968809 0
M  V30 1097 C 111.908 2.79863 -2.28821 0
M  V30 1098 O 111.629 2.44253 -3.63692 0
M  V30 1099 C 113.13 3.73837 -2.38245 0
M  V30 1100 H 110.35 0.468264 -0.480593 0
M  V30 1101 H 112.894 0.897607 -1.83748 0
M  V30 1102 H 111.049 3.38027 -1.89252 0
M  V30 1103 H 111.463 3.26695 -4.1033 0
M  V30 1104 H 112.937 4.60699 -3.04073 0
M  V30 1105 H 113.414 4.16153 -1.40403 0
M  V30 1106 H 114.02 3.21589 -2.78317 0
M  V30 1107 N 112.336 1.25143 0.95797 0
M  V30 1108 C 113.583 1.09692 1.70217 0
M  V30 1109 C 113.911 -0.362654 1.91089 0
M  V30 1110 O 113.166 -1.28386 1.47701 0
M  V30 1111 C 113.465 1.79272 3.09187 0
M  V30 1112 C 113.131 3.29196 3.08125 0
M  V30 1113 C 111.793 3.70096 3.07543 0
M  V30 1114 C 114.145 4.24995 3.0171 0
M  V30 1115 C 111.473 5.05213 2.9829 0
M  V30 1116 C 113.825 5.60132 2.93999 0
M  V30 1117 C 112.489 6.00365 2.9175 0
M  V30 1118 H 111.759 0.401393 0.622868 0
M  V30 1119 H 114.406 1.55372 1.11945 0
M  V30 1120 H 112.711 1.26014 3.70982 0
M  V30 1121 H 114.408 1.64773 3.65583 0
M  V30 1122 H 110.998 2.96651 3.09348 0
M  V30 1123 H 115.182 3.9439 3.01281 0
M  V30 1124 H 110.438 5.35569 2.94916 0
M  V30 1125 H 114.612 6.3406 2.87996 0
M  V30 1126 H 112.239 7.05023 2.84336 0
M  V30 1127 N 113.814 -1.1601 1.06675 0
M  V30 1128 C 114.746 -2.20115 0.638921 0
M  V30 1129 C 115.759 -1.59916 -0.305057 0
M  V30 1130 O 116.948 -1.78245 -0.0954446 0
M  V30 1131 C 114.048 -3.38798 -0.0830083 0
M  V30 1132 C 113.221 -4.2855 0.875426 0
M  V30 1133 C 112.28 -5.25849 0.192042 0
M  V30 1134 O 111.306 -5.63102 0.830921 0
M  V30 1135 N 112.508 -5.70648 -1.06493 0
M  V30 1136 H 115.273 -2.57439 1.53444 0
M  V30 1137 H 112.834 -1.31057 0.950557 0
M  V30 1138 H 114.826 -4.00936 -0.550685 0
M  V30 1139 H 113.396 -2.99947 -0.880386 0
M  V30 1140 H 112.616 -3.63617 1.52238 0
M  V30 1141 H 113.904 -4.85393 1.52548 0
M  V30 1142 H 113.302 -5.42482 -1.60405 0
M  V30 1143 H 111.859 -6.34859 -1.47641 0
M  V30 1144 N 115.292 -0.849877 -1.32721 0
M  V30 1145 C 116.517 -0.463856 -2.02146 0
M  V30 1146 C 116.942 0.930449 -1.63476 0
M  V30 1147 O 116.3 1.61033 -0.832952 0
M  V30 1148 C 116.348 -0.604955 -3.55489 0
M  V30 1149 O 115.452 0.36425 -4.10788 0
M  V30 1150 H 114.793 -0.187046 -0.637111 0
M  V30 1151 H 117.323 -1.14775 -1.69375 0
M  V30 1152 H 117.333 -0.490696 -4.05038 0
M  V30 1153 H 116.008 -1.62174 -3.82978 0
M  V30 1154 H 114.585 0.206628 -3.72327 0
M  V30 1155 N 116.77 1.45427 -0.607355 0
M  V30 1156 C 117.72 2.27612 0.133038 0
M  V30 1157 C 118.704 1.37307 0.838785 0
M  V30 1158 O 119.896 1.61299 0.728813 0
M  V30 1159 C 117.025 3.24173 1.12991 0
M  V30 1160 C 116.111 4.21965 0.425011 0
M  V30 1161 N 116.502 5.02982 -0.533217 0
M  V30 1162 C 114.8 4.40899 0.672593 0
M  V30 1163 C 115.501 5.73931 -0.947518 0
M  V30 1164 N 114.477 5.42819 -0.291321 0
M  V30 1165 H 118.279 2.87649 -0.602935 0
M  V30 1166 H 115.793 1.56576 -0.431006 0
M  V30 1167 H 117.79 3.81783 1.67473 0
M  V30 1168 H 116.45 2.65696 1.86644 0
M  V30 1169 H 117.461 5.09843 -0.90995 0
M  V30 1170 H 114.138 3.93547 1.39382 0
M  V30 1171 H 115.528 6.49037 -1.73782 0
M  V30 1172 N 118.248 0.346503 1.53744 0
M  V30 1173 C 119.158 -0.517293 2.28826 0
M  V30 1174 C 120.174 -1.10935 1.3405 0
M  V30 1175 O 121.35 -1.1244 1.6709 0
M  V30 1176 C 118.415 -1.65098 3.04866 0
M  V30 1177 C 117.476 -1.0884 4.15274 0
M  V30 1178 C 116.709 -2.16806 4.87679 0
M  V30 1179 O 116.932 -3.3758 4.59778 0
M  V30 1180 O 115.866 -1.80934 5.74061 0
M  V30 1181 H 119.692 0.0931396 3.03557 0
M  V30 1182 H 117.277 0.111458 1.48984 0
M  V30 1183 H 119.159 -2.31053 3.5241 0
M  V30 1184 H 117.834 -2.24717 2.32989 0
M  V30 1185 H 116.741 -0.3933 3.72027 0
M  V30 1186 H 118.074 -0.537036 4.89261 0
M  V30 1187 N 119.726 -1.57421 0.075193 0
M  V30 1188 C 121.137 -1.81021 -0.456964 0
M  V30 1189 C 121.488 -0.98936 -1.69429 0
M  V30 1190 O 120.613 -0.212865 -2.15351 0
M  V30 1191 C 121.208 -3.28329 -0.83581 0
M  V30 1192 C 119.767 -3.52764 -1.31281 0
M  V30 1193 C 118.914 -2.75676 -0.299648 0
M  V30 1194 H 121.865 -1.55822 0.300856 0
M  V30 1195 H 121.886 -3.40564 -1.69696 0
M  V30 1196 H 121.398 -3.88046 0.0649238 0
M  V30 1197 H 119.499 -2.98355 -2.23193 0
M  V30 1198 H 119.612 -4.61451 -1.28839 0
M  V30 1199 H 117.976 -2.42538 -0.777641 0
M  V30 1200 H 118.759 -3.38132 0.593417 0
M  V30 1201 N 121.204 0.198386 -1.56346 0
M  V30 1202 C 122.114 1.2664 -1.97483 0
M  V30 1203 C 123.13 1.49989 -0.882002 0
M  V30 1204 O 124.306 1.62668 -1.18748 0
M  V30 1205 C 121.371 2.59141 -2.30319 0
M  V30 1206 C 120.432 2.43892 -3.53292 0
M  V30 1207 C 119.665 3.70074 -3.84553 0
M  V30 1208 O 119.888 4.74101 -3.1715 0
M  V30 1209 O 118.822 3.658 -4.7799 0
M  V30 1210 H 122.648 0.947304 -2.88548 0
M  V30 1211 H 120.233 0.403123 -1.43859 0
M  V30 1212 H 122.115 3.37352 -2.5253 0
M  V30 1213 H 120.79 2.90684 -1.42423 0
M  V30 1214 H 119.697 1.63803 -3.36332 0
M  V30 1215 H 121.03 2.17282 -4.41644 0
M  V30 1216 N 122.682 1.50554 0.465978 0
M  V30 1217 C 123.929 1.61798 1.21768 0
M  V30 1218 C 124.257 0.320696 1.91838 0
M  V30 1219 O 123.512 -0.693724 1.82992 0
M  V30 1220 C 123.811 2.75152 2.28093 0
M  V30 1221 C 123.477 4.15454 1.75239 0
M  V30 1222 C 122.139 4.53628 1.60546 0
M  V30 1223 C 124.491 5.03121 1.36083 0
M  V30 1224 C 121.819 5.77204 1.05128 0
M  V30 1225 C 124.171 6.27249 0.821056 0
M  V30 1226 C 122.835 6.64221 0.660795 0
M  V30 1227 H 122.105 0.592063 0.445582 0
M  V30 1228 H 124.752 1.84503 0.512927 0
M  V30 1229 H 123.057 2.46556 3.04496 0
M  V30 1230 H 124.754 2.81055 2.86023 0
M  V30 1231 H 121.344 3.85341 1.87644 0
M  V30 1232 H 125.528 4.74257 1.46267 0
M  V30 1233 H 120.784 6.0452 0.91462 0
M  V30 1234 H 124.958 6.94537 0.509018 0
M  V30 1235 H 122.585 7.59854 0.229226 0
M  V30 1236 N 124.16 -0.719506 1.40217 0
M  V30 1237 C 125.437 -1.47221 1.28784 0
M  V30 1238 C 125.817 -2.10883 -0.0956067 0
M  V30 1239 O 125.165 -1.99833 -1.10811 0
M  V30 1240 C 125.375 -2.5111 2.42373 0
M  V30 1241 C 126.723 -3.17053 2.82423 0
M  V30 1242 O 127.747 -2.61429 2.41937 0
M  V30 1243 O 126.606 -4.17742 3.52355 0
M  V30 1244 H 123.7 -0.654491 0.50554 0
M  V30 1245 H 126.246 -0.752014 1.52128 0
M  V30 1246 H 125.018 -2.02556 3.34793 0
M  V30 1247 H 124.641 -3.3067 2.20778 0
M  V30 1248 N 125.638 -1.25649 -0.95132 0
M  V30 1249 C 126.868 -1.13179 -1.72841 0
M  V30 1250 C 127.276 0.316827 -1.86528 0
M  V30 1251 O 126.619 1.22948 -1.3649 0
M  V30 1252 C 126.681 -1.71644 -3.15878 0
M  V30 1253 C 126.345 -3.20667 -3.25609 0
M  V30 1254 C 127.342 -4.17616 -3.09666 0
M  V30 1255 C 125.027 -3.6094 -3.49324 0
M  V30 1256 C 127.021 -5.52817 -3.17289 0
M  V30 1257 C 124.708 -4.96278 -3.56584 0
M  V30 1258 C 125.706 -5.92025 -3.40581 0
M  V30 1259 O 125.394 -7.24899 -3.47528 0
M  V30 1260 H 125.126 -0.395389 -0.54831 0
M  V30 1261 H 127.68 -1.66566 -1.20187 0
M  V30 1262 H 125.91 -1.12707 -3.69911 0
M  V30 1263 H 127.599 -1.54225 -3.75459 0
M  V30 1264 H 128.365 -3.87842 -2.91211 0
M  V30 1265 H 124.244 -2.86907 -3.6084 0
M  V30 1266 H 127.788 -6.2753 -3.04716 0
M  V30 1267 H 123.685 -5.25716 -3.74556 0
M  V30 1268 H 124.453 -7.33039 -3.64138 0
M  V30 1269 N 127.117 1.15442 -1.07289 0
M  V30 1270 C 128.047 2.22312 -0.714107 0
M  V30 1271 C 129.028 1.67467 0.298155 0
M  V30 1272 O 130.213 1.93445 0.171048 0
M  V30 1273 C 127.343 3.47124 -0.110448 0
M  V30 1274 C 126.297 4.14926 -1.04979 0
M  V30 1275 C 125.623 5.33807 -0.308924 0
M  V30 1276 C 126.923 4.64762 -2.38314 0
M  V30 1277 H 128.617 2.5258 -1.6076 0
M  V30 1278 H 126.163 1.21404 -0.77441 0
M  V30 1279 H 128.116 4.21124 0.152482 0
M  V30 1280 H 126.84 3.16187 0.81812 0
M  V30 1281 H 125.499 3.42866 -1.29764 0
M  V30 1282 H 125.147 4.99126 0.623084 0
M  V30 1283 H 124.847 5.80113 -0.935036 0
M  V30 1284 H 126.371 6.10576 -0.0537771 0
M  V30 1285 H 127.785 5.30292 -2.1786 0
M  V30 1286 H 126.182 5.21728 -2.96514 0
M  V30 1287 H 127.252 3.80434 -3.00663 0
M  V30 1288 N 128.595 0.856903 1.32268 0
M  V30 1289 C 129.542 0.301172 2.28827 0
M  V30 1290 C 130.512 -0.593104 1.5515 0
M  V30 1291 O 131.697 -0.527537 1.83362 0
M  V30 1292 C 128.837 -0.502523 3.41422 0
M  V30 1293 C 127.95 0.417797 4.29975 0
M  V30 1294 C 127.085 -0.398749 5.29701 0
M  V30 1295 C 126.124 0.518827 6.09897 0
M  V30 1296 N 125.261 -0.260674 7.01616 0
M  V30 1297 H 130.101 1.12983 2.75751 0
M  V30 1298 H 127.638 0.568582 1.35667 0
M  V30 1299 H 129.596 -0.984141 4.05426 0
M  V30 1300 H 128.226 -1.29599 2.95642 0
M  V30 1301 H 127.278 1.01781 3.66531 0
M  V30 1302 H 128.59 1.12191 4.86019 0
M  V30 1303 H 127.744 -0.943435 5.9932 0
M  V30 1304 H 126.483 -1.13622 4.7428 0
M  V30 1305 H 125.488 1.07538 5.39181 0
M  V30 1306 H 126.713 1.25495 6.67404 0
M  V30 1307 H 124.659 -0.981198 6.4862 0
M  V30 1308 H 124.576 0.384364 7.55022 0
M  V30 1309 H 125.844 -0.787014 7.75517 0
M  V30 1310 N 130.073 -1.45103 0.615059 0
M  V30 1311 C 131.298 -2.07064 0.117988 0
M  V30 1312 C 131.723 -1.4554 -1.19163 0
M  V30 1313 O 131.081 -0.550855 -1.72729 0
M  V30 1314 C 131.129 -3.606 -0.000288387 0
M  V30 1315 O 130.233 -3.98847 -1.04856 0
M  V30 1316 H 129.574 -0.659467 0.0774581 0
M  V30 1317 H 132.104 -1.86236 0.847186 0
M  V30 1318 H 132.114 -4.07529 -0.196091 0
M  V30 1319 H 130.789 -4.04765 0.955932 0
M  V30 1320 H 129.366 -3.63577 -0.828619 0
M  V30 1321 N 131.551 -0.354651 -1.53558 0
M  V30 1322 C 132.481 0.489091 -2.2832 0
M  V30 1323 C 133.462 1.09324 -1.30316 0
M  V30 1324 O 134.647 1.11255 -1.59173 0
M  V30 1325 C 131.777 1.63456 -3.0643 0
M  V30 1326 C 130.731 1.1582 -4.12031 0
M  V30 1327 C 130.057 2.39305 -4.7816 0
M  V30 1328 C 131.357 0.250731 -5.21698 0
M  V30 1329 H 133.051 -0.134614 -2.99097 0
M  V30 1330 H 130.597 -0.0661826 -1.43848 0
M  V30 1331 H 132.55 2.23136 -3.57475 0
M  V30 1332 H 131.274 2.28533 -2.33325 0
M  V30 1333 H 129.933 0.584146 -3.61916 0
M  V30 1334 H 129.581 3.02814 -4.01637 0
M  V30 1335 H 129.281 2.08109 -5.49513 0
M  V30 1336 H 130.805 2.99691 -5.31994 0
M  V30 1337 H 132.219 0.754695 -5.68311 0
M  V30 1338 H 130.616 0.0301468 -6.00092 0
M  V30 1339 H 131.686 -0.710125 -4.79672 0
M  V30 1340 N 133.029 1.57378 -0.0835403 0
M  V30 1341 C 133.939 2.16897 0.894021 0
M  V30 1342 C 134.955 1.13528 1.31861 0
M  V30 1343 O 136.131 1.45848 1.3889 0
M  V30 1344 C 133.196 2.72831 2.13925 0
M  V30 1345 C 132.257 3.91115 1.76997 0
M  V30 1346 C 131.49 4.44371 2.95584 0
M  V30 1347 O 131.713 3.96596 4.09961 0
M  V30 1348 O 130.647 5.35549 2.74719 0
M  V30 1349 H 134.473 3.00814 0.417679 0
M  V30 1350 H 132.058 1.48741 0.140181 0
M  V30 1351 H 133.94 3.0863 2.86924 0
M  V30 1352 H 132.615 1.91967 2.60635 0
M  V30 1353 H 131.522 3.60148 1.01214 0
M  V30 1354 H 132.855 4.73307 1.3506 0
M  V30 1355 N 134.507 -0.190092 1.56449 0
M  V30 1356 C 135.756 -0.907912 1.80111 0
M  V30 1357 C 136.069 -1.84214 0.657619 0
M  V30 1358 O 137.275 -2.60094 0.778663 0
M  V30 1359 C 135.731 -1.66485 3.19078 0
M  V30 1360 C 135.339 -0.7752 4.41242 0
M  V30 1361 C 137.083 -2.37201 3.52045 0
M  V30 1362 C 134.99 -1.53129 5.71231 0
M  V30 1363 H 133.92 -0.34276 0.671589 0
M  V30 1364 H 136.571 -0.161109 1.82791 0
M  V30 1365 H 134.953 -2.45572 3.10661 0
M  V30 1366 H 136.127 -0.0226298 4.60794 0
M  V30 1367 H 134.442 -0.178627 4.16017 0
M  V30 1368 H 137.039 -2.94329 4.46402 0
M  V30 1369 H 137.382 -3.11632 2.76028 0
M  V30 1370 H 137.915 -1.65075 3.61932 0
M  V30 1371 H 134.654 -0.82967 6.50228 0
M  V30 1372 H 134.174 -2.25767 5.55688 0
M  V30 1373 H 135.853 -2.08377 6.12526 0
M  V30 1374 N 135.985 -1.50799 -0.457987 0
M  V30 1375 C 136.895 -1.73426 -1.57989 0
M  V30 1376 C 137.911 -0.617745 -1.62665 0
M  V30 1377 O 139.087 -0.897614 -1.80291 0
M  V30 1378 C 136.152 -1.83557 -2.94122 0
M  V30 1379 C 135.213 -3.07345 -2.99729 0
M  V30 1380 C 134.446 -3.16983 -4.29368 0
M  V30 1381 O 134.669 -2.33077 -5.20607 0
M  V30 1382 O 133.603 -4.09812 -4.40837 0
M  V30 1383 H 137.429 -2.68555 -1.41817 0
M  V30 1384 H 135.014 -1.35052 -0.638859 0
M  V30 1385 H 136.896 -1.92326 -3.74952 0
M  V30 1386 H 135.571 -0.916137 -3.10465 0
M  V30 1387 H 134.478 -3.04068 -2.1793 0
M  V30 1388 H 135.811 -3.9891 -2.88326 0
M  V30 1389 N 137.463 0.71206 -1.40597 0
M  V30 1390 C 138.373 1.8562 -1.43466 0
M  V30 1391 C 139.389 1.70902 -0.326902 0
M  V30 1392 O 140.565 1.93105 -0.572043 0
M  V30 1393 C 137.63 3.21451 -1.29884 0
M  V30 1394 C 136.691 3.48398 -2.50833 0
M  V30 1395 C 135.924 4.77749 -2.3789 0
M  V30 1396 O 136.147 5.53089 -1.39459 0
M  V30 1397 O 135.081 5.05111 -3.27333 0
M  V30 1398 H 138.907 1.86155 -2.39958 0
M  V30 1399 H 136.492 0.86295 -1.21957 0
M  V30 1400 H 138.374 4.02579 -1.24531 0
M  V30 1401 H 137.049 3.21636 -0.364997 0
M  V30 1402 H 135.956 2.67265 -2.61763 0
M  V30 1403 H 137.289 3.53014 -3.4299 0
M  V30 1404 N 138.941 1.26152 0.944643 0
M  V30 1405 C 139.888 1.07408 2.04285 0
M  V30 1406 C 140.858 -0.0198413 1.66088 0
M  V30 1407 O 142.043 0.139264 1.90291 0
M  V30 1408 C 139.183 0.70945 3.37729 0
M  V30 1409 C 138.296 1.87926 3.88983 0
M  V30 1410 C 137.431 1.45807 5.10797 0
M  V30 1411 C 136.47 2.5964 5.54305 0
M  V30 1412 N 135.607 2.18226 6.67324 0
M  V30 1413 H 140.447 2.01389 2.1965 0
M  V30 1414 H 137.984 1.00275 1.07626 0
M  V30 1415 H 139.942 0.478948 4.14442 0
M  V30 1416 H 138.572 -0.193389 3.2222 0
M  V30 1417 H 137.624 2.22279 3.08701 0
M  V30 1418 H 138.936 2.73377 4.17213 0
M  V30 1419 H 138.09 1.18781 5.94959 0
M  V30 1420 H 136.829 0.574414 4.84305 0
M  V30 1421 H 135.834 2.87399 4.68702 0
M  V30 1422 H 137.059 3.48599 5.828 0
M  V30 1423 H 135.005 1.3229 6.42523 0
M  V30 1424 H 134.922 2.97221 6.95123 0
M  V30 1425 H 136.19 1.94403 7.54869 0
M  V30 1426 N 140.419 -1.14872 1.07899 0
M  V30 1427 C 141.668 -1.85135 0.800499 0
M  V30 1428 C 141.981 -1.83547 -0.676014 0
M  V30 1429 O 143.187 -2.49548 -1.06948 0
M  V30 1430 C 141.643 -3.3231 1.38197 0
M  V30 1431 C 141.251 -3.42329 2.8899 0
M  V30 1432 C 142.995 -4.0772 1.18174 0
M  V30 1433 C 140.902 -4.83684 3.403 0
M  V30 1434 H 139.832 -0.693563 0.29578 0
M  V30 1435 H 142.483 -1.29532 1.29976 0
M  V30 1436 H 140.865 -3.87618 0.810431 0
M  V30 1437 H 142.039 -2.97097 3.52236 0
M  V30 1438 H 140.354 -2.80369 3.07867 0
M  V30 1439 H 142.951 -5.12049 1.5398 0
M  V30 1440 H 143.294 -4.16124 0.12117 0
M  V30 1441 H 143.827 -3.58696 1.71994 0
M  V30 1442 H 140.566 -4.80465 4.45907 0
M  V30 1443 H 140.086 -5.29474 2.81811 0
M  V30 1444 H 141.765 -5.52558 3.36584 0
M  V30 1445 N 141.898 -0.863906 -1.31812 0
M  V30 1446 C 142.846 -0.30422 -2.30602 0
M  V30 1447 C 143.84 0.577419 -1.59255 0
M  V30 1448 O 145.046 0.464194 -1.73912 0
M  V30 1449 H 141.421 -0.0796877 -0.747766 0
M  V30 1450 H 143.392 -1.15148 -2.75288 0
M  V30 1451 C 142.141 0.484617 -3.44306 0
M  V30 1452 H 141.464 -0.18451 -3.99374 0
M  V30 1453 H 142.904 0.841664 -4.15562 0
M  V30 1454 C 141.363 1.6735 -2.92396 0
M  V30 1455 O 141.893 2.77273 -2.90659 0
M  V30 1456 N 140.099 1.50362 -2.48676 0
M  V30 1457 H 139.646 0.609402 -2.50288 0
M  V30 1458 H 139.604 2.30051 -2.14299 0
M  V30 1459 N 143.376 1.44774 -0.622745 0
M  V30 1460 C 144.323 2.30635 0.0871679 0
M  V30 1461 C 145.293 1.42994 0.845097 0
M  V30 1462 O 146.478 1.71907 0.827812 0
M  V30 1463 C 143.618 3.28144 1.06844 0
M  V30 1464 C 142.731 4.30888 0.309809 0
M  V30 1465 C 141.866 5.15494 1.28215 0
M  V30 1466 C 140.905 6.09953 0.512198 0
M  V30 1467 N 140.042 6.87287 1.43458 0
M  V30 1468 H 144.882 2.90803 -0.650974 0
M  V30 1469 H 142.419 1.43286 -0.33281 0
M  V30 1470 H 144.377 3.83157 1.65066 0
M  V30 1471 H 143.007 2.69695 1.77382 0
M  V30 1472 H 142.059 3.78414 -0.388181 0
M  V30 1473 H 143.371 4.97955 -0.290254 0
M  V30 1474 H 142.525 5.74983 1.93596 0
M  V30 1475 H 141.264 4.48481 1.91614 0
M  V30 1476 H 140.269 5.49581 -0.155151 0
M  V30 1477 H 141.494 6.78999 -0.116958 0
M  V30 1478 H 139.44 6.2295 2.05594 0
M  V30 1479 H 139.357 7.50763 0.888335 0
M  V30 1480 H 140.625 7.51306 2.07749 0
M  V30 1481 N 144.854 0.36279 1.53368 0
M  V30 1482 C 146.103 -0.22888 2.00397 0
M  V30 1483 C 146.416 -1.50096 1.25421 0
M  V30 1484 O 147.622 -2.17106 1.63025 0
M  V30 1485 C 146.078 -0.458417 3.56969 0
M  V30 1486 C 145.686 0.798877 4.4082 0
M  V30 1487 C 147.43 -1.00789 4.12361 0
M  V30 1488 C 145.337 0.539078 5.88938 0
M  V30 1489 H 144.267 -0.089305 0.748693 0
M  V30 1490 H 146.918 0.481099 1.77081 0
M  V30 1491 H 145.3 -1.22959 3.76427 0
M  V30 1492 H 146.474 1.57262 4.33134 0
M  V30 1493 H 144.789 1.27137 3.96516 0
M  V30 1494 H 147.386 -1.21754 5.20653 0
M  V30 1495 H 147.729 -1.9692 3.66781 0
M  V30 1496 H 148.262 -0.296961 3.9669 0
M  V30 1497 H 145.001 1.47064 6.3879 0
M  V30 1498 H 144.521 -0.196222 5.99479 0
M  V30 1499 H 146.2 0.163542 6.46793 0
M  V30 1500 N 146.332 -1.57332 0.0918853 0
M  V30 1501 C 147.748 -1.57389 -0.264766 0
M  V30 1502 C 147.948 -1.10281 -1.68643 0
M  V30 1503 O 147.004 -0.777801 -2.40222 0
M  V30 1504 C 148.317 -3.00648 -0.0561195 0
M  V30 1505 C 149.865 -3.12754 -0.124116 0
M  V30 1506 C 150.34 -4.57965 0.0564972 0
M  V30 1507 N 151.831 -4.632 0.00155611 0
M  V30 1508 C 152.566 -5.73281 0.116598 0
M  V30 1509 N 152.062 -6.92208 0.286294 0
M  V30 1510 N 153.855 -5.6207 0.0580973 0
M  V30 1511 H 146.006 -1.86262 1.02079 0
M  V30 1512 H 148.269 -0.859579 0.399786 0
M  V30 1513 H 147.975 -3.393 0.925669 0
M  V30 1514 H 147.849 -3.68623 -0.799823 0
M  V30 1515 H 150.236 -2.73976 -1.09641 0
M  V30 1516 H 150.317 -2.47377 0.651024 0
M  V30 1517 H 149.961 -4.97436 1.02564 0
M  V30 1518 H 149.891 -5.21399 -0.738297 0
M  V30 1519 H 152.382 -3.77686 -0.127192 0
M  V30 1520 H 152.695 -7.71934 0.365676 0
M  V30 1521 H 151.04 -6.94254 0.32192 0
M  V30 1522 H 154.231 -4.68043 -0.0733204 0
M  V30 1523 H 154.404 -6.47824 0.151203 0
M  V30 1524 N 147.81 0.181792 -1.56548 0
M  V30 1525 C 149.056 0.896803 -1.82562 0
M  V30 1526 C 149.411 1.80324 -0.670908 0
M  V30 1527 O 148.704 1.8868 0.333235 0
M  V30 1528 C 148.898 1.73728 -3.12335 0
M  V30 1529 C 148.727 0.913714 -4.4032 0
M  V30 1530 C 147.497 0.592903 -5.01809 0
M  V30 1531 C 149.695 0.260164 -5.13642 0
M  V30 1532 N 147.677 -0.247901 -6.13399 0
M  V30 1533 C 149.048 -0.442256 -6.18421 0
M  V30 1534 C 151.103 0.177253 -4.97584 0
M  V30 1535 C 149.806 -1.21971 -7.08883 0
M  V30 1536 C 151.832 -0.586839 -5.88481 0
M  V30 1537 C 151.194 -1.27766 -6.92716 0
M  V30 1538 H 147.293 0.307122 -0.719166 0
M  V30 1539 H 149.877 0.164535 -1.94004 0
M  V30 1540 H 148.048 2.44105 -3.02105 0
M  V30 1541 H 149.78 2.39279 -3.26386 0
M  V30 1542 H 146.535 0.920502 -4.64568 0
M  V30 1543 H 146.959 -0.658304 -6.73792 0
M  V30 1544 H 151.601 0.696993 -4.17015 0
M  V30 1545 H 149.319 -1.75083 -7.88905 0
M  V30 1546 H 152.905 -0.652522 -5.78129 0
M  V30 1547 H 151.785 -1.85943 -7.61836 0
M  V30 1548 N 149.288 1.51039 0.449983 0
M  V30 1549 C 150.218 1.74379 1.55288 0
M  V30 1550 C 151.199 0.593236 1.5942 0
M  V30 1551 O 152.384 0.834625 1.7535 0
M  V30 1552 C 149.514 1.85728 2.93466 0
M  V30 1553 C 148.468 3.01078 3.04197 0
M  V30 1554 C 147.794 2.97595 4.44231 0
M  V30 1555 C 149.094 4.41254 2.7945 0
M  V30 1556 H 150.788 2.66725 1.36008 0
M  V30 1557 H 148.334 1.2835 0.652864 0
M  V30 1558 H 150.287 2.0064 3.70569 0
M  V30 1559 H 149.011 0.900207 3.13949 0
M  V30 1560 H 147.67 2.85851 2.29531 0
M  V30 1561 H 147.318 1.99691 4.61663 0
M  V30 1562 H 147.018 3.75046 4.52343 0
M  V30 1563 H 148.542 3.14583 5.23326 0
M  V30 1564 H 149.956 4.56897 3.46292 0
M  V30 1565 H 148.353 5.20315 2.98985 0
M  V30 1566 H 149.423 4.52164 1.75144 0
M  V30 1567 N 150.766 -0.704594 1.40972 0
M  V30 1568 C 152.177 -1.28418 1.3552 0
M  V30 1569 C 152.528 -1.96171 0.0339434 0
M  V30 1570 O 151.653 -1.98231 -0.867944 0
M  V30 1571 C 152.248 -2.33528 2.45459 0
M  V30 1572 C 150.807 -2.87085 2.43433 0
M  V30 1573 C 149.954 -1.61007 2.2577 0
M  V30 1574 H 152.905 -0.499963 1.50619 0
M  V30 1575 H 152.926 -3.14619 2.13998 0
M  V30 1576 H 152.438 -1.84187 3.41609 0
M  V30 1577 H 150.539 -3.40626 1.51013 0
M  V30 1578 H 150.652 -3.3813 3.39419 0
M  V30 1579 H 149.016 -1.86482 1.73483 0
M  V30 1580 H 149.799 -1.13675 3.23933 0
M  V30 1581 N 152.244 -1.26651 -0.937939 0
M  V30 1582 C 153.176 -1.04283 -2.04102 0
M  V30 1583 C 154.189 -0.00221014 -1.628 0
M  V30 1584 O 155.378 -0.242645 -1.76843 0
M  V30 1585 C 152.478 -0.557846 -3.34277 0
M  V30 1586 C 151.651 -1.66843 -4.04329 0
M  V30 1587 C 150.71 -1.18095 -5.12777 0
M  V30 1588 O 149.736 -1.87865 -5.37304 0
M  V30 1589 N 150.938 -0.0311006 -5.80492 0
M  V30 1590 H 153.703 -1.9927 -2.23856 0
M  V30 1591 H 151.264 -1.1808 -1.10764 0
M  V30 1592 H 153.256 -0.215836 -4.04124 0
M  V30 1593 H 151.826 0.298523 -3.11171 0
M  V30 1594 H 151.046 -2.18123 -3.28353 0
M  V30 1595 H 152.334 -2.41408 -4.47883 0
M  V30 1596 H 151.732 0.551486 -5.63005 0
M  V30 1597 H 150.289 0.251809 -6.51313 0
M  V30 1598 N 153.722 1.14298 -1.08507 0
M  V30 1599 C 154.669 2.19414 -0.715965 0
M  V30 1600 C 155.639 1.63399 0.298326 0
M  V30 1601 O 156.824 1.89929 0.182101 0
M  V30 1602 C 153.964 3.44845 -0.132534 0
M  V30 1603 C 153.077 4.15007 -1.19973 0
M  V30 1604 C 152.212 5.28024 -0.580048 0
M  V30 1605 C 151.251 5.9002 -1.62921 0
M  V30 1606 N 150.388 6.94485 -1.03125 0
M  V30 1607 H 155.228 2.50336 -1.61666 0
M  V30 1608 H 152.765 1.2293 -0.807882 0
M  V30 1609 H 154.723 4.16601 0.223454 0
M  V30 1610 H 153.353 3.14403 0.731467 0
M  V30 1611 H 152.405 3.41629 -1.67313 0
M  V30 1612 H 153.717 4.57178 -1.99473 0
M  V30 1613 H 152.871 6.06455 -0.172364 0
M  V30 1614 H 151.61 4.87076 0.246603 0
M  V30 1615 H 150.615 5.10291 -2.04654 0
M  V30 1616 H 151.84 6.33042 -2.45835 0
M  V30 1617 H 149.786 6.55612 -0.225711 0
M  V30 1618 H 149.703 7.35148 -1.76334 0
M  V30 1619 H 150.971 7.7679 -0.649458 0
M  V30 1620 N 155.201 0.870884 1.31352 0
M  V30 1621 C 156.149 0.316445 2.30437 0
M  V30 1622 C 157.143 -0.568965 1.59559 0
M  V30 1623 O 158.349 -0.454964 1.74155 0
M  V30 1624 H 154.724 0.0836521 0.747333 0
M  V30 1625 H 156.695 1.16606 2.74673 0
M  V30 1626 C 155.444 -0.46635 3.44558 0
M  V30 1627 H 154.767 0.205687 3.99271 0
M  V30 1628 H 156.207 -0.819614 4.16003 0
M  V30 1629 C 154.666 -1.65797 2.9328 0
M  V30 1630 O 155.196 -2.75728 2.92125 0
M  V30 1631 N 153.402 -1.49041 2.4947 0
M  V30 1632 H 152.949 -0.59612 2.50608 0
M  V30 1633 H 152.907 -2.28911 2.15516 0
M  V30 1634 N 156.679 -1.44442 0.630414 0
M  V30 1635 C 157.642 -2.29107 -0.0652523 0
M  V30 1636 C 158.642 -1.41002 -0.772995 0
M  V30 1637 O 159.832 -1.62881 -0.617692 0
M  V30 1638 C 156.964 -3.22564 -1.10296 0
M  V30 1639 H 158.157 -2.92103 0.679401 0
M  V30 1640 H 155.71 -1.51343 0.390517 0
M  V30 1641 H 156.445 -2.64416 -1.87762 0
M  V30 1642 H 156.23 -3.87491 -0.59941 0
M  V30 1643 H 157.72 -3.86167 -1.5895 0
M  V30 1644 N 158.157 -0.370918 -1.53173 0
M  V30 1645 C 159.12 0.460778 -2.24521 0
M  V30 1646 C 160.12 1.00536 -1.25496 0
M  V30 1647 O 161.31 0.890266 -1.49733 0
M  V30 1648 C 158.442 1.64457 -2.98608 0
M  V30 1649 H 159.635 -0.163613 -2.99453 0
M  V30 1650 H 157.188 -0.122699 -1.55818 0
M  V30 1651 H 157.923 2.30691 -2.2793 0
M  V30 1652 H 157.708 1.26099 -3.7127 0
M  V30 1653 H 159.198 2.23384 -3.5283 0
M  V30 1654 N 159.635 1.57281 -0.100228 0
M  V30 1655 C 160.567 2.11342 0.886972 0
M  V30 1656 C 161.58 1.05182 1.24261 0
M  V30 1657 O 162.769 1.32613 1.19483 0
M  V30 1658 C 159.869 2.5825 2.19454 0
M  V30 1659 C 159.042 3.88302 2.01346 0
M  V30 1660 C 158.101 4.21004 3.15661 0
M  V30 1661 O 157.127 4.9014 2.89398 0
M  V30 1662 N 158.329 3.76818 4.41575 0
M  V30 1663 H 161.094 2.96668 0.425216 0
M  V30 1664 H 158.655 1.61678 0.0847334 0
M  V30 1665 H 160.647 2.7717 2.94888 0
M  V30 1666 H 159.217 1.77907 2.57037 0
M  V30 1667 H 158.437 3.7848 1.10212 0
M  V30 1668 H 159.725 4.73375 1.8653 0
M  V30 1669 H 159.123 3.2102 4.65792 0
M  V30 1670 H 157.68 4.00882 5.13942 0
M  V30 1671 N 161.113 -0.173488 1.56642 0
M  V30 1672 C 162.36 -0.890465 1.81871 0
M  V30 1673 C 162.688 -1.82339 0.67696 0
M  V30 1674 O 161.943 -1.92795 -0.335926 0
M  V30 1675 C 162.242 -1.72069 3.13252 0
M  V30 1676 C 161.908 -0.936878 4.41059 0
M  V30 1677 C 160.57 -0.720545 4.75775 0
M  V30 1678 C 162.922 -0.386919 5.19762 0
M  V30 1679 C 160.25 0.0568829 5.86672 0
M  V30 1680 C 162.602 0.37741 6.31473 0
M  V30 1681 C 161.266 0.604563 6.64757 0
M  V30 1682 H 160.536 -0.325844 0.665512 0
M  V30 1683 H 163.183 -0.155527 1.90867 0
M  V30 1684 H 161.488 -2.52496 2.99588 0
M  V30 1685 H 163.185 -2.27844 3.29982 0
M  V30 1686 H 159.775 -1.11553 4.13828 0
M  V30 1687 H 163.959 -0.541398 4.93338 0
M  V30 1688 H 159.215 0.242635 6.10918 0
M  V30 1689 H 163.389 0.810825 6.91664 0
M  V30 1690 H 161.016 1.20885 7.50527 0
M  V30 1691 N 162.591 -1.51276 -0.441967 0
M  V30 1692 C 163.521 -1.752 -1.54361 0
M  V30 1693 C 164.502 -0.601682 -1.59103 0
M  V30 1694 O 165.687 -0.843913 -1.74905 0
M  V30 1695 C 162.817 -1.87282 -2.92477 0
M  V30 1696 C 161.771 -3.02687 -3.02596 0
M  V30 1697 C 161.097 -2.99947 -4.42647 0
M  V30 1698 C 162.397 -4.4273 -2.77106 0
M  V30 1699 H 164.091 -2.67442 -1.34592 0
M  V30 1700 H 161.637 -1.28694 -0.646048 0
M  V30 1701 H 163.59 -2.02602 -3.695 0
M  V30 1702 H 162.314 -0.916844 -3.13467 0
M  V30 1703 H 160.973 -2.87065 -2.28012 0
M  V30 1704 H 160.621 -2.02136 -4.60597 0
M  V30 1705 H 160.321 -3.77439 -4.50348 0
M  V30 1706 H 161.845 -3.17354 -5.2165 0
M  V30 1707 H 163.259 -4.58727 -3.43864 0
M  V30 1708 H 161.656 -5.21893 -2.96222 0
M  V30 1709 H 162.726 -4.53087 -1.72744 0
M  V30 1710 N 164.069 0.697108 -1.41344 0
M  V30 1711 C 164.999 1.82353 -1.45841 0
M  V30 1712 C 165.98 1.67115 -0.317247 0
M  V30 1713 O 167.165 1.86871 -0.528474 0
M  V30 1714 C 164.295 3.20476 -1.33838 0
M  V30 1715 C 163.249 3.50415 -2.4575 0
M  V30 1716 C 162.575 4.87878 -2.18813 0
M  V30 1717 C 163.875 3.49546 -3.88091 0
M  V30 1718 H 165.569 1.78846 -2.40113 0
M  V30 1719 H 163.115 0.859028 -1.15571 0
M  V30 1720 H 165.068 3.98988 -1.35596 0
M  V30 1721 H 163.792 3.24604 -0.360498 0
M  V30 1722 H 162.451 2.74253 -2.43271 0
M  V30 1723 H 162.099 4.8863 -1.19371 0
M  V30 1724 H 161.799 5.08875 -2.93803 0
M  V30 1725 H 163.323 5.68702 -2.22284 0
M  V30 1726 H 164.737 4.18066 -3.92293 0
M  V30 1727 H 163.134 3.82075 -4.62751 0
M  V30 1728 H 164.204 2.48552 -4.16353 0
M  V30 1729 N 165.547 1.27147 0.931209 0
M  V30 1730 C 166.772 1.16191 1.71797 0
M  V30 1731 C 167.197 -0.278004 1.86034 0
M  V30 1732 O 166.555 -1.20137 1.35782 0
M  V30 1733 C 166.603 1.84673 3.09723 0
M  V30 1734 O 165.707 1.14231 3.96264 0
M  V30 1735 H 165.048 0.404303 0.526721 0
M  V30 1736 H 167.578 1.68152 1.1656 0
M  V30 1737 H 167.588 1.91893 3.60057 0
M  V30 1738 H 166.263 2.89421 2.98677 0
M  V30 1739 H 164.84 1.15056 3.54706 0
M  V30 1740 N 167.025 -1.13721 1.09112 0
M  V30 1741 C 168.253 -1.88773 0.846899 0
M  V30 1742 C 168.668 -1.7896 -0.601572 0
M  V30 1743 O 168.025 -1.15394 -1.41388 0
M  V30 1744 C 168.076 -3.3849 1.26913 0
M  V30 1745 O 167.797 -3.48043 2.66079 0
M  V30 1746 C 169.298 -4.30518 1.05682 0
M  V30 1747 H 166.518 -0.59772 0.304914 0
M  V30 1748 H 169.062 -1.43977 1.45227 0
M  V30 1749 H 167.217 -3.80881 0.707723 0
M  V30 1750 H 167.631 -4.4109 2.83795 0
M  V30 1751 H 169.105 -5.3391 1.40156 0
M  V30 1752 H 169.582 -4.392 -0.00563416 0
M  V30 1753 H 170.188 -3.93893 1.60402 0
M  V30 1754 N 168.503 -0.877838 -1.30888 0
M  V30 1755 C 169.451 -0.328662 -2.30266 0
M  V30 1756 C 170.445 0.560496 -1.59859 0
M  V30 1757 O 171.651 0.445722 -1.74394 0
M  V30 1758 H 168.026 -0.0876142 -0.746879 0
M  V30 1759 H 169.997 -1.18061 -2.74051 0
M  V30 1760 C 168.746 0.448071 -3.44801 0
M  V30 1761 H 168.069 -0.226859 -3.99156 0
M  V30 1762 H 169.509 0.797541 -4.16432 0
M  V30 1763 C 167.968 1.64239 -2.94155 0
M  V30 1764 O 168.498 2.74175 -2.93583 0
M  V30 1765 N 166.704 1.47716 -2.50256 0
M  V30 1766 H 166.251 0.582821 -2.5092 0
M  V30 1767 H 166.209 2.27765 -2.16727 0
M  V30 1768 N 169.982 1.44106 -0.638065 0
M  V30 1769 C 171.259 1.95453 -0.0759321 0
M  V30 1770 C 171.639 1.57984 1.40015 0
M  V30 1771 O 170.987 0.857361 2.11806 0
M  V30 1772 C 171.197 3.47655 -0.306132 0
M  V30 1773 C 172.545 4.24114 -0.203008 0
M  V30 1774 O 173.569 3.55405 -0.237871 0
M  V30 1775 O 172.428 5.46381 -0.113827 0
M  V30 1776 H 169.522 0.826797 0.0183332 0
M  V30 1777 H 172.068 1.54122 -0.710251 0
M  V30 1778 H 170.84 3.68 -1.3301 0
M  V30 1779 H 170.463 3.95949 0.361991 0
M  V30 1780 N 171.46 0.379036 1.52974 0
M  V30 1781 C 172.407 -0.461048 2.26148 0
M  V30 1782 C 173.377 -1.06637 1.27349 0
M  V30 1783 O 174.562 -1.09633 1.56157 0
M  V30 1784 C 171.702 -1.58782 3.06402 0
M  V30 1785 C 170.815 -1.00636 4.20115 0
M  V30 1786 C 169.95 -2.10334 4.87784 0
M  V30 1787 C 168.989 -1.49724 5.93506 0
M  V30 1788 N 168.126 -2.5331 6.54812 0
M  V30 1789 H 172.966 0.169429 2.97518 0
M  V30 1790 H 170.503 0.0953806 1.4679 0
M  V30 1791 H 172.461 -2.25174 3.51215 0
M  V30 1792 H 171.091 -2.18876 2.37261 0
M  V30 1793 H 170.143 -0.232332 3.7969 0
M  V30 1794 H 171.455 -0.523343 4.96047 0
M  V30 1795 H 170.609 -2.84519 5.35849 0
M  V30 1796 H 169.348 -2.61992 4.11353 0
M  V30 1797 H 168.353 -0.740598 5.44789 0
M  V30 1798 H 169.578 -0.988732 6.71864 0
M  V30 1799 H 167.524 -3.04156 5.81227 0
M  V30 1800 H 167.441 -2.09734 7.26325 0
M  V30 1801 H 168.709 -3.27155 7.07524 0
M  V30 1802 N 172.938 -1.57226 0.108567 0
M  V30 1803 C 174.166 -1.99179 -0.559954 0
M  V30 1804 C 174.581 -0.988022 -1.60884 0
M  V30 1805 O 173.938 0.0205512 -1.82488 0
M  V30 1806 C 173.989 -3.41159 -1.19552 0
M  V30 1807 O 173.71 -4.37694 -0.188577 0
M  V30 1808 C 175.211 -3.98188 -1.94837 0
M  V30 1809 H 172.431 -0.654228 -0.149088 0
M  V30 1810 H 174.975 -2.03598 0.19183 0
M  V30 1811 H 173.13 -3.37711 -1.89815 0
M  V30 1812 H 173.544 -5.20469 -0.649014 0
M  V30 1813 H 175.018 -4.99644 -2.34648 0
M  V30 1814 H 175.495 -3.3675 -2.81951 0
M  V30 1815 H 176.101 -4.0515 -1.2936 0
M  V30 1816 N 174.416 0.165178 -1.56732 0
M  V30 1817 C 175.665 0.879143 -1.81532 0
M  V30 1818 C 175.978 1.83144 -0.686842 0
M  V30 1819 O 177.184 2.58823 -0.819944 0
M  V30 1820 C 175.64 1.61388 -3.21686 0
M  V30 1821 C 175.248 0.704904 -4.4242 0
M  V30 1822 C 176.992 2.3157 -3.55774 0
M  V30 1823 C 174.899 1.44022 -5.73595 0
M  V30 1824 H 173.829 0.332033 -0.676957 0
M  V30 1825 H 176.48 0.132008 -1.83025 0
M  V30 1826 H 174.862 2.40599 -3.14529 0
M  V30 1827 H 176.036 -0.0506815 -4.60772 0
M  V30 1828 H 174.351 0.112419 -4.16248 0
M  V30 1829 H 176.948 2.8719 -4.51028 0
M  V30 1830 H 177.291 3.07201 -2.8095 0
M  V30 1831 H 177.824 1.59297 -3.64513 0
M  V30 1832 H 174.563 0.72612 -6.51466 0
M  V30 1833 H 174.083 2.16898 -5.5921 0
M  V30 1834 H 175.762 1.98606 -6.15764 0
M  V30 1835 N 175.894 1.51508 0.433938 0
M  V30 1836 C 176.841 1.73068 1.52696 0
M  V30 1837 C 177.811 0.572441 1.55924 0
M  V30 1838 O 178.996 0.807253 1.72882 0
M  V30 1839 C 176.136 1.86474 2.90381 0
M  V30 1840 C 175.249 3.14037 2.96656 0
M  V30 1841 C 174.384 3.18019 4.25485 0
M  V30 1842 C 173.423 4.39882 4.2564 0
M  V30 1843 N 172.56 4.41394 5.45999 0
M  V30 1844 H 177.4 2.66366 1.33615 0
M  V30 1845 H 174.937 1.32008 0.649018 0
M  V30 1846 H 176.895 1.92229 3.70275 0
M  V30 1847 H 175.525 0.965809 3.08013 0
M  V30 1848 H 174.577 3.17575 2.09404 0
M  V30 1849 H 175.889 4.0394 2.92633 0
M  V30 1850 H 175.043 3.22708 5.13755 0
M  V30 1851 H 173.782 2.2601 4.3217 0
M  V30 1852 H 172.787 4.35366 3.35763 0
M  V30 1853 H 174.012 5.33159 4.20617 0
M  V30 1854 H 171.958 3.52258 5.53399 0
M  V30 1855 H 171.875 5.25111 5.4387 0
M  V30 1856 H 173.143 4.50281 6.36292 0
M  V30 1857 N 177.372 -0.689602 1.41712 0
M  V30 1858 C 178.302 -1.81577 1.46806 0
M  V30 1859 C 179.283 -1.66945 0.326105 0
M  V30 1860 O 180.468 -1.86588 0.538377 0
M  V30 1861 C 177.598 -3.19762 1.35535 0
M  V30 1862 C 176.552 -3.49107 2.47605 0
M  V30 1863 C 175.878 -4.86711 2.21397 0
M  V30 1864 C 177.178 -3.47483 3.89939 0
M  V30 1865 H 178.872 -1.7757 2.41058 0
M  V30 1866 H 176.418 -0.852887 1.16025 0
M  V30 1867 H 178.371 -3.98263 1.3771 0
M  V30 1868 H 177.095 -3.24409 0.377708 0
M  V30 1869 H 175.754 -2.72959 2.44722 0
M  V30 1870 H 175.402 -4.8799 1.21961 0
M  V30 1871 H 175.102 -5.0731 2.96497 0
M  V30 1872 H 176.626 -5.67515 2.25297 0
M  V30 1873 H 178.04 -4.1598 3.94505 0
M  V30 1874 H 176.437 -3.79615 4.64771 0
M  V30 1875 H 177.507 -2.46341 4.17665 0
M  V30 1876 N 178.85 -1.27639 -0.924453 0
M  V30 1877 C 180.096 -1.15345 -1.67532 0
M  V30 1878 C 180.451 0.297096 -1.90092 0
M  V30 1879 O 179.744 1.21374 -1.48253 0
M  V30 1880 C 179.938 -1.87407 -3.04325 0
M  V30 1881 C 179.767 -3.3932 -2.95114 0
M  V30 1882 C 178.537 -4.08644 -2.97218 0
M  V30 1883 C 180.735 -4.35242 -2.73987 0
M  V30 1884 N 178.717 -5.47102 -2.78482 0
M  V30 1885 C 180.088 -5.6099 -2.63988 0
M  V30 1886 C 182.143 -4.25294 -2.589 0
M  V30 1887 C 180.846 -6.77924 -2.40442 0
M  V30 1888 C 182.872 -5.41952 -2.36731 0
M  V30 1889 C 182.234 -6.66658 -2.27478 0
M  V30 1890 H 178.333 -0.47696 -0.619704 0
M  V30 1891 H 180.917 -1.6115 -1.09265 0
M  V30 1892 H 179.088 -1.44053 -3.60699 0
M  V30 1893 H 180.82 -1.6759 -3.68369 0
M  V30 1894 H 177.575 -3.60136 -3.07569 0
M  V30 1895 H 177.999 -6.19852 -2.72236 0
M  V30 1896 H 182.641 -3.29598 -2.64811 0
M  V30 1897 H 180.359 -7.73699 -2.3327 0
M  V30 1898 H 183.945 -5.36137 -2.25938 0
M  V30 1899 H 182.825 -7.55405 -2.10555 0
M  V30 1900 N 180.328 1.1314 -1.09713 0
M  V30 1901 C 181.275 2.18642 -0.739196 0
M  V30 1902 C 182.245 1.63706 0.280978 0
M  V30 1903 O 183.43 1.90111 0.161946 0
M  V30 1904 C 180.57 3.44685 -0.169102 0
M  V30 1905 C 179.683 4.13711 -1.24367 0
M  V30 1906 C 178.818 5.27379 -0.636019 0
M  V30 1907 C 177.857 5.88259 -1.69169 0
M  V30 1908 N 176.994 6.93352 -1.10485 0
M  V30 1909 H 181.834 2.48607 -1.64312 0
M  V30 1910 H 179.371 1.22066 -0.820875 0
M  V30 1911 H 181.329 4.16815 0.179256 0
M  V30 1912 H 179.959 3.15161 0.698079 0
M  V30 1913 H 179.011 3.39835 -1.70927 0
M  V30 1914 H 180.323 4.55037 -2.04311 0
M  V30 1915 H 179.477 6.06238 -0.236677 0
M  V30 1916 H 178.216 4.8731 0.194928 0
M  V30 1917 H 177.221 5.08092 -2.10055 0
M  V30 1918 H 178.446 6.30399 -2.52536 0
M  V30 1919 H 176.392 6.55335 -0.295234 0
M  V30 1920 H 176.309 7.33236 -1.84121 0
M  V30 1921 H 177.577 7.76057 -0.73181 0
M  V30 1922 N 181.806 0.884767 1.30421 0
M  V30 1923 C 183.055 0.499164 1.95426 0
M  V30 1924 C 183.368 -0.95645 1.70621 0
M  V30 1925 O 184.574 -1.44889 2.29607 0
M  V30 1926 C 183.03 0.84177 3.49917 0
M  V30 1927 C 182.638 2.31514 3.83543 0
M  V30 1928 C 184.382 0.525355 4.21237 0
M  V30 1929 C 182.289 2.59939 5.31212 0
M  V30 1930 H 181.219 0.182944 0.73147 0
M  V30 1931 H 183.87 1.07971 1.48373 0
M  V30 1932 H 182.252 0.190311 3.95542 0
M  V30 1933 H 183.426 3.0109 3.48829 0
M  V30 1934 H 181.741 2.59907 3.25326 0
M  V30 1935 H 184.338 0.714762 5.29901 0
M  V30 1936 H 184.681 -0.535222 4.12845 0
M  V30 1937 H 185.214 1.134 3.81294 0
M  V30 1938 H 181.953 3.64736 5.44654 0
M  V30 1939 H 181.473 1.94972 5.67227 0
M  V30 1940 H 183.152 2.45429 5.98643 0
M  V30 1941 N 183.284 -1.43765 0.645699 0
M  V30 1942 C 184.509 -2.06767 0.161883 0
M  V30 1943 C 184.934 -1.48034 -1.16049 0
M  V30 1944 O 184.292 -0.587369 -1.71522 0
M  V30 1945 C 184.34 -3.60519 0.0762003 0
M  V30 1946 O 183.444 -4.00982 -0.963721 0
M  V30 1947 H 182.785 -0.657675 0.091429 0
M  V30 1948 H 185.315 -1.84397 0.886499 0
M  V30 1949 H 185.325 -4.07853 -0.109604 0
M  V30 1950 H 184 -4.02646 1.04157 0
M  V30 1951 H 182.577 -3.65253 -0.751312 0
M  V30 1952 N 184.763 -0.387143 -1.52771 0
M  V30 1953 C 185.673 0.456442 -2.30117 0
M  V30 1954 C 186.689 1.07342 -1.36944 0
M  V30 1955 O 187.865 1.07971 -1.70013 0
M  V30 1956 C 184.93 1.56957 -3.09136 0
M  V30 1957 C 183.991 0.977916 -4.18014 0
M  V30 1958 C 183.224 2.038 -4.93256 0
M  V30 1959 O 183.447 3.25271 -4.68567 0
M  V30 1960 O 182.381 1.6565 -5.78657 0
M  V30 1961 H 186.207 -0.17359 -3.03203 0
M  V30 1962 H 183.792 -0.150919 -1.48636 0
M  V30 1963 H 185.674 2.21628 -3.58412 0
M  V30 1964 H 184.349 2.18461 -2.38865 0
M  V30 1965 H 183.256 0.294525 -3.72939 0
M  V30 1966 H 184.589 0.407128 -4.90513 0
M  V30 1967 N 186.241 1.57166 -0.116904 0
M  V30 1968 C 187.657 1.5779 0.239693 0
M  V30 1969 C 187.857 1.1295 1.66867 0
M  V30 1970 O 186.913 0.81592 2.38954 0
M  V30 1971 C 188.226 3.00699 0.00828202 0
M  V30 1972 C 189.774 3.12912 0.0743438 0
M  V30 1973 C 190.249 4.57817 -0.129348 0
M  V30 1974 N 191.74 4.63139 -0.075247 0
M  V30 1975 C 192.475 5.73023 -0.207788 0
M  V30 1976 N 191.971 6.91665 -0.396382 0
M  V30 1977 N 193.764 5.61906 -0.14751 0
M  V30 1978 H 185.915 1.84615 -1.05029 0
M  V30 1979 H 188.178 0.85311 -0.41341 0
M  V30 1980 H 187.884 3.37784 -0.979531 0
M  V30 1981 H 187.758 3.69848 0.741077 0
M  V30 1982 H 190.145 2.75686 1.05268 0
M  V30 1983 H 190.226 2.4631 -0.690297 0
M  V30 1984 H 189.87 4.95742 -1.10465 0
M  V30 1985 H 189.8 5.22507 0.655253 0
M  V30 1986 H 192.291 3.7784 0.0670898 0
M  V30 1987 H 192.604 7.71255 -0.488437 0
M  V30 1988 H 190.949 6.93654 -0.432329 0
M  V30 1989 H 194.14 4.681 -0.00115036 0
M  V30 1990 H 194.313 6.47501 -0.254247 0
M  V30 1991 N 187.719 -0.156864 1.56817 0
M  V30 1992 C 188.996 -0.899244 1.73704 0
M  V30 1993 C 189.376 -1.99771 0.682254 0
M  V30 1994 O 188.724 -2.26515 -0.300522 0
M  V30 1995 C 188.934 -1.45075 3.17418 0
M  V30 1996 C 190.282 -1.91802 3.7881 0
M  V30 1997 O 191.306 -1.54838 3.20786 0
M  V30 1998 O 190.165 -2.5994 4.80722 0
M  V30 1999 H 187.259 -0.424267 0.709878 0
M  V30 2000 H 189.805 -0.143561 1.69092 0
M  V30 2001 H 188.577 -0.660846 3.85679 0
M  V30 2002 H 188.2 -2.27021 3.26416 0
M  V30 2003 N 189.197 -1.51736 -0.425897 0
M  V30 2004 C 190.144 -1.73875 -1.51776 0
M  V30 2005 C 191.114 -0.580702 -1.55618 0
M  V30 2006 O 192.299 -0.81641 -1.72451 0
M  V30 2007 C 189.439 -1.88012 -2.89388 0
M  V30 2008 C 188.552 -3.15606 -2.94986 0
M  V30 2009 C 187.687 -3.20271 -4.23793 0
M  V30 2010 C 186.726 -4.42134 -4.23302 0
M  V30 2011 N 185.863 -4.44284 -5.43651 0
M  V30 2012 H 190.703 -2.67071 -1.32201 0
M  V30 2013 H 188.24 -1.32351 -0.642008 0
M  V30 2014 H 190.198 -1.9419 -3.69251 0
M  V30 2015 H 188.828 -0.98213 -3.07496 0
M  V30 2016 H 187.88 -3.18681 -2.07717 0
M  V30 2017 H 189.192 -4.05486 -2.90486 0
M  V30 2018 H 188.346 -3.25428 -5.12036 0
M  V30 2019 H 187.085 -2.28299 -4.30965 0
M  V30 2020 H 186.09 -4.3714 -3.3345 0
M  V30 2021 H 187.315 -5.35382 -4.17783 0
M  V30 2022 H 185.261 -3.55188 -5.51523 0
M  V30 2023 H 185.178 -5.27988 -5.41078 0
M  V30 2024 H 186.446 -4.53649 -6.33895 0
M  V30 2025 N 190.675 0.682077 -1.42076 0
M  V30 2026 C 192.091 0.994324 -1.24841 0
M  V30 2027 C 192.291 2.0096 -0.147389 0
M  V30 2028 O 191.347 2.47822 0.483782 0
M  V30 2029 C 192.66 1.50607 -2.60265 0
M  V30 2030 C 194.208 1.62421 -2.6756 0
M  V30 2031 C 194.683 2.16994 -4.03333 0
M  V30 2032 N 196.174 2.24337 -4.0525 0
M  V30 2033 C 196.909 2.67621 -5.07116 0
M  V30 2034 N 196.405 3.1041 -6.19368 0
M  V30 2035 N 198.198 2.67305 -4.94474 0
M  V30 2036 H 190.349 0.00973908 -2.12398 0
M  V30 2037 H 192.612 0.0668593 -0.945639 0
M  V30 2038 H 192.318 0.834583 -3.41654 0
M  V30 2039 H 192.192 2.48602 -2.83684 0
M  V30 2040 H 194.579 2.28678 -1.86521 0
M  V30 2041 H 194.66 0.629352 -2.47937 0
M  V30 2042 H 194.304 1.51349 -4.84826 0
M  V30 2043 H 194.234 3.17258 -4.20304 0
M  V30 2044 H 196.725 1.94158 -3.24209 0
M  V30 2045 H 197.038 3.42103 -6.92954 0
M  V30 2046 H 195.383 3.08286 -6.22884 0
M  V30 2047 H 198.574 2.33233 -4.05857 0
M  V30 2048 H 198.747 3.00718 -5.73997 0
M  V30 2049 N 192.153 1.28127 0.917671 0
M  V30 2050 C 193.564 1.13622 1.48145 0
M  V30 2051 C 193.915 -0.275207 1.9426 0
M  V30 2052 O 193.04 -1.1691 1.82102 0
M  V30 2053 C 193.635 2.05648 2.69248 0
M  V30 2054 C 192.194 1.95219 3.21818 0
M  V30 2055 C 191.341 1.97618 1.94532 0
M  V30 2056 H 194.292 1.40874 0.730772 0
M  V30 2057 H 194.313 1.61818 3.44377 0
M  V30 2058 H 193.825 3.08365 2.35653 0
M  V30 2059 H 191.926 0.955244 3.60147 0
M  V30 2060 H 192.039 2.81976 3.87333 0
M  V30 2061 H 190.403 1.41973 2.11461 0
M  V30 2062 H 191.186 3.02007 1.63238 0
M  V30 2063 N 193.631 -1.12557 1.10312 0
M  V30 2064 C 194.541 -2.21841 0.763142 0
M  V30 2065 C 195.557 -1.72354 -0.238801 0
M  V30 2066 O 196.733 -2.01249 -0.0778746 0
M  V30 2067 C 193.798 -3.46131 0.198632 0
M  V30 2068 C 192.859 -4.10464 1.25769 0
M  V30 2069 C 192.092 -5.28821 0.72002 0
M  V30 2070 O 192.315 -5.6859 -0.453993 0
M  V30 2071 O 191.249 -5.83437 1.47935 0
M  V30 2072 H 195.075 -2.53312 1.67532 0
M  V30 2073 H 192.66 -1.20867 0.878157 0
M  V30 2074 H 194.542 -4.2125 -0.112401 0
M  V30 2075 H 193.217 -3.16338 -0.686419 0
M  V30 2076 H 192.124 -3.3713 1.62156 0
M  V30 2077 H 193.457 -4.44408 2.11571 0
M  V30 2078 N 195.109 -0.891671 -1.2995 0
M  V30 2079 C 196.357 -0.512486 -1.95494 0
M  V30 2080 C 196.678 0.942776 -1.70695 0
M  V30 2081 O 195.948 1.66374 -1.03424 0
M  V30 2082 H 194.528 -0.186533 -0.723336 0
M  V30 2083 H 197.19 -1.13621 -1.58355 0
M  V30 2084 H 196.286 -0.688342 -3.04415 0
M  V30 2085 N 196.587 1.43421 -0.653314 0
M  V30 2086 C 197.817 2.05864 -0.174238 0
M  V30 2087 C 198.225 1.49052 1.16534 0
M  V30 2088 O 197.568 0.616481 1.73047 0
M  V30 2089 C 197.63 3.59499 -0.00875873 0
M  V30 2090 C 197.294 4.38893 -1.27364 0
M  V30 2091 C 198.291 4.70947 -2.20239 0
M  V30 2092 C 195.976 4.789 -1.51525 0
M  V30 2093 C 197.97 5.41916 -3.35568 0
M  V30 2094 C 195.657 5.49614 -2.67147 0
M  V30 2095 C 196.655 5.81044 -3.58994 0
M  V30 2096 O 196.343 6.50313 -4.72597 0
M  V30 2097 H 196.075 0.670345 -0.0872549 0
M  V30 2098 H 198.629 1.84913 -0.894226 0
M  V30 2099 H 196.859 3.79025 0.7666 0
M  V30 2100 H 198.548 4.0364 0.427687 0
M  V30 2101 H 199.314 4.40558 -2.02815 0
M  V30 2102 H 195.193 4.53843 -0.809158 0
M  V30 2103 H 198.737 5.66365 -4.07279 0
M  V30 2104 H 194.634 5.79419 -2.84505 0
M  V30 2105 H 195.402 6.68795 -4.71864 0
M  V30 2106 N 198.065 0.39524 1.52563 0
M  V30 2107 C 199.013 -0.451859 2.28169 0
M  V30 2108 C 200.007 -1.05792 1.32304 0
M  V30 2109 O 201.213 -0.997718 1.49818 0
M  V30 2110 H 197.588 -0.164481 0.733792 0
M  V30 2111 H 199.559 0.207199 2.9768 0
M  V30 2112 C 198.308 -1.56385 3.10546 0
M  V30 2113 H 197.631 -1.10682 3.84174 0
M  V30 2114 H 199.071 -2.13067 3.66577 0
M  V30 2115 C 197.53 -2.52328 2.23231 0
M  V30 2116 O 198.06 -3.5588 1.86312 0
M  V30 2117 N 196.266 -2.22209 1.87274 0
M  V30 2118 H 195.813 -1.38033 2.17496 0
M  V30 2119 H 195.771 -2.86652 1.29143 0
M  V30 2120 N 199.544 -1.57102 0.125237 0
M  V30 2121 C 200.474 -2.18659 -0.819174 0
M  V30 2122 C 201.455 -1.12843 -1.27281 0
M  V30 2123 O 202.64 -1.41104 -1.33429 0
M  V30 2124 C 199.77 -2.79096 -2.06695 0
M  V30 2125 C 198.724 -3.90548 -1.75088 0
M  V30 2126 C 198.05 -4.37821 -3.06948 0
M  V30 2127 C 199.35 -5.12356 -1.01435 0
M  V30 2128 H 201.044 -2.9783 -0.306202 0
M  V30 2129 H 198.59 -1.4326 -0.145839 0
M  V30 2130 H 200.543 -3.2082 -2.73226 0
M  V30 2131 H 199.267 -1.97223 -2.60328 0
M  V30 2132 H 197.926 -3.49409 -1.10944 0
M  V30 2133 H 197.574 -3.52799 -3.58527 0
M  V30 2134 H 197.274 -5.12982 -2.86571 0
M  V30 2135 H 198.798 -4.822 -3.74587 0
M  V30 2136 H 200.212 -5.5106 -1.58132 0
M  V30 2137 H 198.609 -5.9314 -0.911319 0
M  V30 2138 H 199.679 -4.849 -0.00218681 0
M  V30 2139 N 201.022 0.148545 -1.56898 0
M  V30 2140 C 201.969 1.18345 -1.98149 0
M  V30 2141 C 202.939 1.42772 -0.848848 0
M  V30 2142 O 204.124 1.55132 -1.11079 0
M  V30 2143 C 201.264 2.51231 -2.36594 0
M  V30 2144 C 200.377 2.33991 -3.63142 0
M  V30 2145 C 199.512 3.59902 -3.90697 0
M  V30 2146 C 198.551 3.37692 -5.1052 0
M  V30 2147 N 197.688 4.5573 -5.34092 0
M  V30 2148 H 202.528 0.82467 -2.86362 0
M  V30 2149 H 200.065 0.395756 -1.41676 0
M  V30 2150 H 202.023 3.28713 -2.56912 0
M  V30 2151 H 200.653 2.85059 -1.51463 0
M  V30 2152 H 199.705 1.47572 -3.50609 0
M  V30 2153 H 201.017 2.13539 -4.5078 0
M  V30 2154 H 200.171 4.45813 -4.11505 0
M  V30 2155 H 198.91 3.83357 -3.01477 0
M  V30 2156 H 197.915 2.5017 -4.89587 0
M  V30 2157 H 199.14 3.15637 -6.0129 0
M  V30 2158 H 197.086 4.79361 -4.47827 0
M  V30 2159 H 197.003 4.38274 -6.15996 0
M  V30 2160 H 198.271 5.42858 -5.59397 0
M  V30 2161 N 202.5 1.5196 0.417844 0
M  V30 2162 C 203.41 1.77554 1.53336 0
M  V30 2163 C 204.426 0.660655 1.6097 0
M  V30 2164 O 205.602 0.945099 1.77848 0
M  V30 2165 C 202.667 1.91291 2.89152 0
M  V30 2166 C 201.728 3.15183 2.91475 0
M  V30 2167 C 200.961 3.28256 4.20813 0
M  V30 2168 O 201.184 2.46798 5.14244 0
M  V30 2169 O 200.118 4.21356 4.29817 0
M  V30 2170 H 203.944 2.7222 1.34647 0
M  V30 2171 H 201.529 1.36698 0.602828 0
M  V30 2172 H 203.411 2.02199 3.69721 0
M  V30 2173 H 202.086 0.998129 3.07927 0
M  V30 2174 H 200.993 3.09739 2.09791 0
M  V30 2175 H 202.326 4.06414 2.77648 0
M  V30 2176 N 203.978 -0.674533 1.42435 0
M  V30 2177 C 204.888 -1.81751 1.48337 0
M  V30 2178 C 205.904 -1.69975 0.372099 0
M  V30 2179 O 207.08 -1.91521 0.62304 0
M  V30 2180 C 204.145 -3.17895 1.38361 0
M  V30 2181 C 203.206 -3.41625 2.59982 0
M  V30 2182 C 202.439 -4.71274 2.50473 0
M  V30 2183 O 202.662 -5.49197 1.54075 0
M  V30 2184 O 201.596 -4.96254 3.4061 0
M  V30 2185 H 205.422 -1.79728 2.44809 0
M  V30 2186 H 203.007 -0.830312 1.24202 0
M  V30 2187 H 204.889 -3.99136 1.35161 0
M  V30 2188 H 203.564 -3.20555 0.450144 0
M  V30 2189 H 202.471 -2.60231 2.68757 0
M  V30 2190 H 203.804 -3.43796 3.52229 0
M  V30 2191 N 205.456 -1.28612 -0.910864 0
M  V30 2192 C 206.733 -1.06632 -1.63979 0
M  V30 2193 C 207.113 0.393351 -2.07403 0
M  V30 2194 O 206.461 1.37999 -1.82122 0
M  V30 2195 C 206.671 -2.0436 -2.8291 0
M  V30 2196 C 208.019 -2.34666 -3.5386 0
M  V30 2197 O 209.043 -2.02467 -2.93062 0
M  V30 2198 O 207.902 -2.89631 -4.63439 0
M  V30 2199 H 204.996 -0.407737 -0.7195 0
M  V30 2200 H 207.542 -1.39942 -0.959914 0
M  V30 2201 H 206.314 -3.02727 -2.47936 0
M  V30 2202 H 205.937 -1.71714 -3.58609 0
M  V30 2203 N 206.934 1.1197 -1.10907 0
M  V30 2204 C 208.182 1.83225 -0.852819 0
M  V30 2205 C 208.503 1.84769 0.623341 0
M  V30 2206 O 207.773 1.3143 1.45269 0
M  V30 2207 H 206.353 0.67849 -0.312507 0
M  V30 2208 H 209.015 1.3556 -1.40033 0
M  V30 2209 H 208.111 2.87265 -1.22005 0
M  V30 2210 N 208.412 0.89855 1.29475 0
M  V30 2211 C 209.828 0.594483 1.48115 0
M  V30 2212 C 210.028 -0.86431 1.82022 0
M  V30 2213 O 209.084 -1.64457 1.91599 0
M  V30 2214 C 210.397 1.51932 2.59494 0
M  V30 2215 C 211.945 1.5244 2.7337 0
M  V30 2216 C 212.42 2.43548 3.87877 0
M  V30 2217 N 213.911 2.41589 3.95208 0
M  V30 2218 C 214.646 3.08789 4.83153 0
M  V30 2219 N 214.142 3.85265 5.75798 0
M  V30 2220 N 215.935 2.97952 4.76635 0
M  V30 2221 H 208.086 1.84207 1.05742 0
M  V30 2222 H 210.349 0.789251 0.525154 0
M  V30 2223 H 210.055 2.55865 2.41301 0
M  V30 2224 H 209.929 1.23899 3.56271 0
M  V30 2225 H 212.316 0.492518 2.90961 0
M  V30 2226 H 212.397 1.8451 1.77172 0
M  V30 2227 H 212.041 3.46829 3.71041 0
M  V30 2228 H 211.971 2.08788 4.83441 0
M  V30 2229 H 214.462 1.86025 3.28943 0
M  V30 2230 H 214.775 4.33598 6.39697 0
M  V30 2231 H 213.12 3.89371 5.75687 0
M  V30 2232 H 216.311 2.37723 4.03244 0
M  V30 2233 H 216.484 3.50599 5.44962 0
M  V30 2234 N 209.89 -1.43072 0.660911 0
M  V30 2235 C 211.12 -2.05769 0.185153 0
M  V30 2236 C 211.528 -1.49668 -1.15742 0
M  V30 2237 O 210.871 -0.625649 -1.72717 0
M  V30 2238 C 210.933 -3.59489 0.0278237 0
M  V30 2239 C 210.597 -4.38212 1.2969 0
M  V30 2240 C 211.594 -4.69772 2.22734 0
M  V30 2241 C 209.279 -4.7809 1.54063 0
M  V30 2242 C 211.273 -5.40129 3.38437 0
M  V30 2243 C 208.96 -5.4819 2.70058 0
M  V30 2244 C 209.958 -5.79132 3.62071 0
M  V30 2245 O 209.646 -6.47798 4.76039 0
M  V30 2246 H 209.378 -0.669873 0.0908086 0
M  V30 2247 H 211.932 -1.84436 0.90402 0
M  V30 2248 H 210.162 -3.79426 -0.746489 0
M  V30 2249 H 211.851 -4.03862 -0.406275 0
M  V30 2250 H 212.617 -4.39476 2.05149 0
M  V30 2251 H 208.496 -4.53408 0.833215 0
M  V30 2252 H 212.04 -5.64198 4.10277 0
M  V30 2253 H 207.937 -5.77902 2.87574 0
M  V30 2254 H 208.705 -6.66283 4.75404 0
M  V30 2255 N 211.368 -0.403325 -1.52352 0
M  V30 2256 C 212.784 -0.0539281 -1.59509 0
M  V30 2257 C 212.984 1.43307 -1.41652 0
M  V30 2258 O 212.04 2.19924 -1.24056 0
M  V30 2259 C 213.353 -0.543654 -2.95745 0
M  V30 2260 C 214.901 -0.501125 -3.08962 0
M  V30 2261 C 215.376 -0.967267 -4.47669 0
M  V30 2262 N 216.867 -0.923849 -4.53893 0
M  V30 2263 C 217.602 -1.25578 -5.5948 0
M  V30 2264 N 217.098 -1.65889 -6.72646 0
M  V30 2265 N 218.891 -1.17613 -5.49658 0
M  V30 2266 H 211.042 -1.37123 -1.62206 0
M  V30 2267 H 213.305 -0.56294 -0.76276 0
M  V30 2268 H 213.011 -1.58275 -3.14073 0
M  V30 2269 H 212.885 0.0498042 -3.77167 0
M  V30 2270 H 215.272 0.528909 -2.90321 0
M  V30 2271 H 215.353 -1.13056 -2.2946 0
M  V30 2272 H 214.997 -1.9956 -4.67053 0
M  V30 2273 H 214.927 -0.314698 -5.25659 0
M  V30 2274 H 217.418 -0.627403 -3.72655 0
M  V30 2275 H 217.731 -1.89543 -7.49195 0
M  V30 2276 H 216.076 -1.69787 -6.73942 0
M  V30 2277 H 219.267 -0.860115 -4.6013 0
M  V30 2278 H 219.44 -1.43812 -6.3184 0
M  V30 2279 N 212.846 1.57033 -0.133567 0
M  V30 2280 C 214.123 1.87256 0.56522 0
M  V30 2281 C 214.503 1.03726 1.83859 0
M  V30 2282 O 213.851 0.120247 2.28183 0
M  V30 2283 C 214.061 3.3865 0.843636 0
M  V30 2284 C 215.409 4.07574 1.19032 0
M  V30 2285 O 216.433 3.43752 0.933429 0
M  V30 2286 O 215.292 5.20259 1.67312 0
M  V30 2287 H 212.386 0.775678 0.286796 0
M  V30 2288 H 214.932 1.68855 -0.169168 0
M  V30 2289 H 213.704 3.91257 -0.0581149 0
M  V30 2290 H 213.327 3.62532 1.63268 0
M  V30 2291 N 214.325 -0.140222 1.56975 0
M  V30 2292 C 215.736 -0.699596 1.73097 0
M  V30 2293 C 216.087 -1.8134 0.749022 0
M  V30 2294 O 215.212 -2.16241 -0.0828503 0
M  V30 2295 C 215.807 -1.27582 3.1386 0
M  V30 2296 C 214.366 -1.78169 3.31561 0
M  V30 2297 C 213.513 -0.672855 2.69013 0
M  V30 2298 H 216.464 0.0855115 1.58469 0
M  V30 2299 H 216.485 -2.14561 3.14235 0
M  V30 2300 H 215.997 -0.464955 3.85305 0
M  V30 2301 H 214.098 -2.61801 2.65124 0
M  V30 2302 H 214.211 -1.90574 4.39566 0
M  V30 2303 H 212.575 -1.10118 2.29665 0
M  V30 2304 H 213.358 0.126679 3.43066 0
M  V30 2305 N 215.803 -1.52179 -0.40978 0
M  V30 2306 C 217.031 -1.70054 -1.17853 0
M  V30 2307 C 217.446 -0.409735 -1.843 0
M  V30 2308 O 216.803 0.614183 -1.71855 0
M  V30 2309 C 216.854 -2.83568 -2.24213 0
M  V30 2310 O 216.575 -4.0765 -1.60478 0
M  V30 2311 C 218.076 -3.12947 -3.13973 0
M  V30 2312 H 215.296 -0.569917 -0.354169 0
M  V30 2313 H 217.84 -1.98734 -0.482198 0
M  V30 2314 H 215.995 -2.57409 -2.89516 0
M  V30 2315 H 216.409 -4.70899 -2.30986 0
M  V30 2316 H 217.883 -3.95889 -3.84677 0
M  V30 2317 H 218.36 -2.26472 -3.76307 0
M  V30 2318 H 218.966 -3.40868 -2.5434 0
M  V30 2319 N 217.281 0.66697 -1.42791 0
M  V30 2320 C 218.509 1.45505 -1.47091 0
M  V30 2321 C 218.924 1.8861 -0.0845873 0
M  V30 2322 O 218.281 1.58632 0.90234 0
M  V30 2323 C 218.332 2.69906 -2.40485 0
M  V30 2324 O 218.053 2.28608 -3.73725 0
M  V30 2325 C 219.554 3.63396 -2.53886 0
M  V30 2326 H 216.774 0.447459 -0.500022 0
M  V30 2327 H 219.318 0.818866 -1.8739 0
M  V30 2328 H 217.473 3.29696 -2.03419 0
M  V30 2329 H 217.887 3.08997 -4.23817 0
M  V30 2330 H 219.361 4.47387 -3.2334 0
M  V30 2331 H 219.838 4.09824 -1.57927 0
M  V30 2332 H 220.444 3.09495 -2.91706 0
M  V30 2333 N 218.759 1.29093 0.90403 0
M  V30 2334 C 220.005 1.16986 1.65656 0
M  V30 2335 C 220.338 -0.278925 1.92186 0
M  V30 2336 O 219.613 -1.2019 1.5292 0
M  V30 2337 C 219.896 1.97908 3.0084 0
M  V30 2338 C 219.749 3.50903 2.81403 0
M  V30 2339 C 221.068 1.80208 4.01513 0
M  V30 2340 H 218.187 0.426346 0.601164 0
M  V30 2341 H 220.829 1.58518 1.04747 0
M  V30 2342 H 218.979 1.62616 3.52829 0
M  V30 2343 H 220.651 3.96153 2.36348 0
M  V30 2344 H 218.894 3.76045 2.1627 0
M  V30 2345 H 219.565 4.02791 3.77443 0
M  V30 2346 H 222.041 2.11025 3.58619 0
M  V30 2347 H 220.917 2.39184 4.94047 0
M  V30 2348 H 221.178 0.756119 4.35586 0
M  V30 2349 N 220.237 -1.11381 1.11499 0
M  V30 2350 C 221.465 -1.86934 0.88675 0
M  V30 2351 C 221.88 -1.80195 -0.563476 0
M  V30 2352 O 221.237 -1.18367 -1.38908 0
M  V30 2353 C 221.288 -3.35722 1.34064 0
M  V30 2354 O 221.009 -3.4232 2.73401 0
M  V30 2355 C 222.51 -4.2818 1.14791 0
M  V30 2356 H 219.73 -0.591117 0.317523 0
M  V30 2357 H 222.274 -1.40865 1.48248 0
M  V30 2358 H 220.429 -3.79294 0.788355 0
M  V30 2359 H 220.843 -4.34971 2.93087 0
M  V30 2360 H 222.317 -5.30817 1.5145 0
M  V30 2361 H 222.794 -4.39113 0.0875279 0
M  V30 2362 H 223.4 -3.90402 1.68721 0
M  V30 2363 N 221.715 -0.905404 -1.28997 0
M  V30 2364 C 222.943 -0.549846 -1.9946 0
M  V30 2365 C 223.358 0.866834 -1.67724 0
M  V30 2366 O 222.715 1.57298 -0.925404 0
M  V30 2367 C 222.766 -0.739387 -3.53858 0
M  V30 2368 O 222.487 -2.10031 -3.84472 0
M  V30 2369 C 223.988 -0.389541 -4.41585 0
M  V30 2370 H 221.208 -0.210429 -0.637151 0
M  V30 2371 H 223.752 -1.21632 -1.64396 0
M  V30 2372 H 221.907 -0.120023 -3.87214 0
M  V30 2373 H 222.321 -2.13385 -4.79132 0
M  V30 2374 H 223.795 -0.572972 -5.49018 0
M  V30 2375 H 224.272 0.673756 -4.34001 0
M  V30 2376 H 224.878 -0.986089 -4.1371 0
M  V30 2377 N 223.193 1.4272 -0.668489 0
M  V30 2378 C 224.123 2.335 -0.000100175 0
M  V30 2379 C 225.104 1.50328 0.795964 0
M  V30 2380 O 226.289 1.78949 0.754385 0
M  V30 2381 C 223.419 3.33874 0.956302 0
M  V30 2382 C 222.373 4.27152 0.269278 0
M  V30 2383 C 221.699 5.17684 1.33818 0
M  V30 2384 C 222.999 5.15373 -0.847805 0
M  V30 2385 H 224.693 2.89639 -0.758244 0
M  V30 2386 H 222.239 1.39269 -0.366079 0
M  V30 2387 H 224.192 3.9629 1.43292 0
M  V30 2388 H 222.916 2.76025 1.74579 0
M  V30 2389 H 221.575 3.66123 -0.187042 0
M  V30 2390 H 221.223 4.56165 2.1195 0
M  V30 2391 H 220.923 5.80918 0.883659 0
M  V30 2392 H 222.447 5.82974 1.81586 0
M  V30 2393 H 223.861 5.7151 -0.452681 0
M  V30 2394 H 222.258 5.87407 -1.22773 0
M  V30 2395 H 223.328 4.5415 -1.69929 0
M  V30 2396 N 224.671 0.411399 1.52136 0
M  V30 2397 C 226.087 0.0623865 1.59478 0
M  V30 2398 C 226.287 -1.42554 1.4241 0
M  V30 2399 O 225.343 -2.19263 1.2522 0
M  V30 2400 C 226.656 0.559331 2.95452 0
M  V30 2401 C 228.204 0.517503 3.08692 0
M  V30 2402 C 228.679 0.990994 4.4715 0
M  V30 2403 N 230.17 0.947908 4.53397 0
M  V30 2404 C 230.905 1.28544 5.58806 0
M  V30 2405 N 230.401 1.69454 6.71757 0
M  V30 2406 N 232.194 1.20526 5.49026 0
M  V30 2407 H 224.345 1.37982 1.61477 0
M  V30 2408 H 226.608 0.566977 0.759764 0
M  V30 2409 H 226.314 1.59938 3.1323 0
M  V30 2410 H 226.188 -0.0298014 3.77188 0
M  V30 2411 H 228.575 -0.513505 2.90598 0
M  V30 2412 H 228.656 1.14272 2.28857 0
M  V30 2413 H 228.3 2.02034 4.65988 0
M  V30 2414 H 228.23 0.34257 5.25485 0
M  V30 2415 H 230.721 0.647157 3.72317 0
M  V30 2416 H 231.034 1.93513 7.48179 0
M  V30 2417 H 229.379 1.73359 6.73032 0
M  V30 2418 H 232.57 0.884505 4.59667 0
M  V30 2419 H 232.743 1.47161 6.31069 0
M  V30 2420 N 226.149 -1.5696 0.141893 0
M  V30 2421 C 227.395 -1.9625 -0.511248 0
M  V30 2422 C 227.728 -1.02654 -1.64851 0
M  V30 2423 O 227.003 -0.0679676 -1.94381 0
M  V30 2424 C 227.286 -3.45285 -1.02227 0
M  V30 2425 C 227.139 -4.49658 0.113138 0
M  V30 2426 C 228.458 -3.96698 -1.90574 0
M  V30 2427 H 225.577 -0.713567 -0.184367 0
M  V30 2428 H 228.219 -1.88698 0.222087 0
M  V30 2429 H 226.369 -3.51852 -1.64719 0
M  V30 2430 H 228.041 -4.55174 0.749302 0
M  V30 2431 H 226.284 -4.26857 0.773026 0
M  V30 2432 H 226.955 -5.51258 -0.286053 0
M  V30 2433 H 229.431 -3.92578 -1.37918 0
M  V30 2434 H 228.307 -5.01453 -2.2324 0
M  V30 2435 H 228.568 -3.3875 -2.84079 0
M  V30 2436 N 227.627 0.131896 -1.57047 0
M  V30 2437 C 229.038 0.690407 -1.73465 0
M  V30 2438 C 229.389 1.8094 -0.758629 0
M  V30 2439 O 228.514 2.16282 0.0713813 0
M  V30 2440 C 229.109 1.25916 -3.14532 0
M  V30 2441 C 227.668 1.76409 -3.32501 0
M  V30 2442 C 226.815 0.658579 -2.69366 0
M  V30 2443 H 229.766 -0.0939144 -1.58422 0
M  V30 2444 H 229.787 2.12892 -3.15369 0
M  V30 2445 H 229.299 0.444515 -3.85546 0
M  V30 2446 H 227.4 2.60391 -2.66509 0
M  V30 2447 H 227.513 1.88241 -4.4057 0
M  V30 2448 H 225.877 1.08899 -2.30246 0
M  V30 2449 H 226.66 -0.14487 -3.42994 0
M  V30 2450 N 229.106 1.52395 0.401703 0
M  V30 2451 C 230.352 1.67065 1.14966 0
M  V30 2452 C 230.685 0.403052 1.89971 0
M  V30 2453 O 229.96 -0.598774 1.85054 0
M  V30 2454 C 230.243 2.8975 2.13815 0
M  V30 2455 C 230.096 4.26578 1.42658 0
M  V30 2456 C 231.415 3.07965 3.14397 0
M  V30 2457 H 228.534 0.607968 0.416587 0
M  V30 2458 H 231.176 1.84965 0.434511 0
M  V30 2459 H 229.326 2.74619 2.74803 0
M  V30 2460 H 230.998 4.53451 0.847329 0
M  V30 2461 H 229.241 4.27639 0.72849 0
M  V30 2462 H 229.912 5.08483 2.14823 0
M  V30 2463 H 232.388 3.22043 2.63491 0
M  V30 2464 H 231.264 3.95308 3.80819 0
M  V30 2465 H 231.525 2.21611 3.82545 0
M  V30 2466 N 230.584 -0.659388 1.43143 0
M  V30 2467 C 231.831 -1.41935 1.44433 0
M  V30 2468 C 232.159 -1.94387 0.0663522 0
M  V30 2469 O 231.414 -1.72314 -0.927706 0
M  V30 2470 C 231.713 -2.62206 2.42864 0
M  V30 2471 C 231.379 -2.28208 3.88886 0
M  V30 2472 C 230.041 -2.18647 4.28657 0
M  V30 2473 C 232.393 -2.00887 4.8093 0
M  V30 2474 C 229.721 -1.79914 5.58433 0
M  V30 2475 C 232.073 -1.63653 6.11065 0
M  V30 2476 C 230.737 -1.52614 6.49819 0
M  V30 2477 H 230.007 -0.519376 0.528517 0
M  V30 2478 H 232.654 -0.750453 1.76183 0
M  V30 2479 H 230.959 -3.34199 2.04495 0
M  V30 2480 H 232.656 -3.2041 2.41119 0
M  V30 2481 H 229.246 -2.36557 3.57406 0
M  V30 2482 H 233.43 -2.07198 4.5098 0
M  V30 2483 H 228.686 -1.69948 5.87305 0
M  V30 2484 H 232.86 -1.41543 6.81864 0
M  V30 2485 H 230.487 -1.22371 7.50286 0
M  V30 2486 N 232.062 -1.29571 -0.897171 0
M  V30 2487 C 233.478 -1.07637 -1.17841 0
M  V30 2488 C 233.678 0.170713 -2.00776 0
M  V30 2489 O 232.734 0.867768 -2.3712 0
M  V30 2490 C 234.047 -2.3332 -1.8969 0
M  V30 2491 C 235.595 -2.38664 -2.02505 0
M  V30 2492 C 236.07 -3.64157 -2.77765 0
M  V30 2493 N 237.561 -3.64894 -2.85318 0
M  V30 2494 C 238.296 -4.58679 -3.44094 0
M  V30 2495 N 237.792 -5.62799 -4.04017 0
M  V30 2496 N 239.585 -4.46245 -3.41793 0
M  V30 2497 H 231.736 -2.09598 -0.343883 0
M  V30 2498 H 233.999 -0.923333 -0.214848 0
M  V30 2499 H 233.705 -3.24262 -1.36187 0
M  V30 2500 H 233.579 -2.41025 -2.9015 0
M  V30 2501 H 235.966 -1.48208 -2.55183 0
M  V30 2502 H 236.047 -2.34943 -1.01171 0
M  V30 2503 H 235.691 -4.54965 -2.25763 0
M  V30 2504 H 235.621 -3.65137 -3.7945 0
M  V30 2505 H 238.112 -2.89613 -2.42761 0
M  V30 2506 H 238.425 -6.3048 -4.46895 0
M  V30 2507 H 236.77 -5.66605 -4.02472 0
M  V30 2508 H 239.961 -3.64094 -2.94199 0
M  V30 2509 H 240.134 -5.19518 -3.87304 0
M  V30 2510 N 233.54 1.10788 -1.12088 0
M  V30 2511 C 234.951 1.64181 -0.88891 0
M  V30 2512 C 235.302 1.87508 0.577498 0
M  V30 2513 O 234.427 1.61434 1.44112 0
M  V30 2514 C 235.022 2.98257 -1.60712 0
M  V30 2515 C 233.581 3.4853 -1.42139 0
M  V30 2516 C 232.728 2.23208 -1.6454 0
M  V30 2517 H 235.679 0.943368 -1.27618 0
M  V30 2518 H 235.7 3.65552 -1.05604 0
M  V30 2519 H 235.212 2.81246 -2.67436 0
M  V30 2520 H 233.313 3.70692 -0.376552 0
M  V30 2521 H 233.426 4.26882 -2.17505 0
M  V30 2522 H 231.79 2.31169 -1.06925 0
M  V30 2523 H 232.573 2.08733 -2.72554 0
M  V30 2524 N 235.018 0.912232 1.28515 0
M  V30 2525 C 235.951 0.343928 2.25593 0
M  V30 2526 C 236.929 -0.550994 1.5298 0
M  V30 2527 O 238.113 -0.494991 1.81885 0
M  V30 2528 C 235.24 -0.508525 3.34861 0
M  V30 2529 C 234.286 0.320808 4.25292 0
M  V30 2530 S 235.119 1.72658 5.06902 0
M  V30 2531 C 236.275 0.881394 6.19663 0
M  V30 2532 H 236.508 1.16674 2.73449 0
M  V30 2533 H 234.041 0.713384 1.36931 0
M  V30 2534 H 235.999 -0.994539 3.9827 0
M  V30 2535 H 234.66 -1.30571 2.85675 0
M  V30 2536 H 233.853 -0.330941 5.02912 0
M  V30 2537 H 233.455 0.74042 3.66598 0
M  V30 2538 H 235.747 0.110359 6.7741 0
M  V30 2539 H 236.69 1.63009 6.89082 0
M  V30 2540 H 237.098 0.430239 5.62858 0
M  V30 2541 N 236.496 -1.42363 0.676048 0
M  V30 2542 C 237.773 -1.95183 0.127726 0
M  V30 2543 C 238.153 -1.61641 -1.35777 0
M  V30 2544 O 237.501 -0.913216 -2.09458 0
M  V30 2545 C 237.711 -3.46721 0.398199 0
M  V30 2546 C 239.059 -4.23427 0.315383 0
M  V30 2547 O 240.083 -3.54649 0.332016 0
M  V30 2548 O 238.942 -5.45888 0.25865 0
M  V30 2549 H 236.036 -0.826992 0.00359427 0
M  V30 2550 H 238.582 -1.52184 0.750864 0
M  V30 2551 H 237.354 -3.64344 1.4272 0
M  V30 2552 H 236.977 -3.96769 -0.256885 0
M  V30 2553 N 237.974 -0.419461 -1.51915 0
M  V30 2554 C 238.904 0.391813 -2.30189 0
M  V30 2555 C 239.885 1.03699 -1.34836 0
M  V30 2556 O 241.07 1.04403 -1.63748 0
M  V30 2557 C 238.2 1.50312 -3.13087 0
M  V30 2558 C 237.154 0.9824 -4.16573 0
M  V30 2559 C 236.48 2.18809 -4.8788 0
M  V30 2560 C 237.78 0.0292356 -5.22292 0
M  V30 2561 H 239.474 -0.26135 -2.98257 0
M  V30 2562 H 237.02 -0.127134 -1.43438 0
M  V30 2563 H 238.973 2.07773 -3.66617 0
M  V30 2564 H 237.697 2.18431 -2.42807 0
M  V30 2565 H 236.356 0.430119 -3.64068 0
M  V30 2566 H 236.004 2.85507 -4.14119 0
M  V30 2567 H 235.704 1.84615 -5.57845 0
M  V30 2568 H 237.228 2.76858 -5.44226 0
M  V30 2569 H 238.642 0.512976 -5.71 0
M  V30 2570 H 237.039 -0.2244 -5.9968 0
M  V30 2571 H 238.109 -0.912931 -4.76228 0
M  V30 2572 N 239.452 1.56882 -0.150215 0
M  V30 2573 C 240.385 2.12712 0.826358 0
M  V30 2574 C 241.363 1.05154 1.24022 0
M  V30 2575 O 242.547 1.33004 1.33575 0
M  V30 2576 C 239.674 2.64945 2.11002 0
M  V30 2577 C 238.72 3.8468 1.84183 0
M  V30 2578 S 239.553 5.25502 1.02995 0
M  V30 2579 C 240.709 5.81125 2.32474 0
M  V30 2580 H 240.942 2.95214 0.351598 0
M  V30 2581 H 238.475 1.54267 0.0641211 0
M  V30 2582 H 240.433 2.95689 2.84742 0
M  V30 2583 H 239.094 1.82568 2.55593 0
M  V30 2584 H 238.287 4.19482 2.79375 0
M  V30 2585 H 237.889 3.54714 1.1855 0
M  V30 2586 H 240.181 5.92753 3.281 0
M  V30 2587 H 241.124 6.78625 2.02171 0
M  V30 2588 H 241.532 5.09392 2.43269 0
M  V30 2589 N 240.93 -0.123565 1.57115 0
M  V30 2590 C 242.176 -0.833386 1.84885 0
M  V30 2591 C 242.509 -1.79742 0.735292 0
M  V30 2592 O 241.784 -1.92764 -0.25925 0
M  V30 2593 C 242.067 -1.5873 3.23228 0
M  V30 2594 C 241.92 -0.643183 4.45178 0
M  V30 2595 C 243.239 -2.54453 3.59085 0
M  V30 2596 H 240.358 -0.301518 0.6725 0
M  V30 2597 H 243 -0.097778 1.89748 0
M  V30 2598 H 241.15 -2.21438 3.19214 0
M  V30 2599 H 242.822 -0.0253015 4.61293 0
M  V30 2600 H 241.065 0.0456139 4.33776 0
M  V30 2601 H 241.736 -1.20724 5.38637 0
M  V30 2602 H 244.212 -2.01853 3.63861 0
M  V30 2603 H 243.088 -3.04238 4.5687 0
M  V30 2604 H 243.349 -3.36906 2.86264 0
M  V30 2605 N 242.408 -1.52605 -0.393616 0
M  V30 2606 C 243.318 -1.79971 -1.50492 0
M  V30 2607 C 244.334 -0.686181 -1.59899 0
M  V30 2608 O 245.51 -0.973274 -1.76322 0
M  V30 2609 C 242.575 -1.95867 -2.86072 0
M  V30 2610 C 241.636 -3.19781 -2.86424 0
M  V30 2611 C 240.869 -3.34909 -4.15538 0
M  V30 2612 O 241.092 -2.54948 -5.10253 0
M  V30 2613 O 240.026 -4.28141 -4.23059 0
M  V30 2614 H 243.852 -2.74328 -1.30299 0
M  V30 2615 H 241.437 -1.3764 -0.581005 0
M  V30 2616 H 243.319 -2.08056 -3.66457 0
M  V30 2617 H 241.994 -1.04699 -3.063 0
M  V30 2618 H 240.901 -3.13038 -2.04837 0
M  V30 2619 H 242.234 -4.1078 -2.71147 0
M  V30 2620 N 243.887 0.651787 -1.4349 0
M  V30 2621 C 244.85 1.74647 -1.48429 0
M  V30 2622 C 245.85 1.56513 -0.368817 0
M  V30 2623 O 247.04 1.62385 -0.630623 0
M  V30 2624 C 244.172 3.13533 -1.33827 0
M  V30 2625 H 245.365 1.71649 -2.4592 0
M  V30 2626 H 242.918 0.863573 -1.30277 0
M  V30 2627 H 243.653 3.22142 -0.37349 0
M  V30 2628 H 243.438 3.28101 -2.14691 0
M  V30 2629 H 244.928 3.93356 -1.40218 0
M  V30 2630 N 245.365 1.30045 0.890287 0
M  V30 2631 C 246.59 1.21598 1.68014 0
M  V30 2632 C 247.015 -0.218678 1.86825 0
M  V30 2633 O 246.373 -1.15756 1.39536 0
M  V30 2634 C 246.421 1.94434 3.03691 0
M  V30 2635 O 245.525 1.2678 3.92429 0
M  V30 2636 H 244.866 0.420856 0.513592 0
M  V30 2637 H 247.396 1.71775 1.11151 0
M  V30 2638 H 247.406 2.03251 3.5377 0
M  V30 2639 H 246.081 2.98777 2.89318 0
M  V30 2640 H 244.658 1.26282 3.50866 0
M  V30 2641 N 246.843 -1.10192 1.12674 0
M  V30 2642 C 248.254 -1.63707 0.897604 0
M  V30 2643 C 248.605 -1.87812 -0.567546 0
M  V30 2644 O 247.73 -1.62196 -1.43253 0
M  V30 2645 C 248.325 -2.974 1.62292 0
M  V30 2646 C 246.884 -3.47772 1.43986 0
M  V30 2647 C 246.031 -2.22332 1.65722 0
M  V30 2648 H 248.982 -0.936587 1.28116 0
M  V30 2649 H 249.003 -3.64986 1.07541 0
M  V30 2650 H 248.515 -2.79824 2.68924 0
M  V30 2651 H 246.616 -3.70487 0.396206 0
M  V30 2652 H 246.729 -4.25723 2.19765 0
M  V30 2653 H 245.093 -2.30599 1.08149 0
M  V30 2654 H 245.876 -2.07285 2.73657 0
M  V30 2655 N 248.321 -0.919034 -1.28029 0
M  V30 2656 C 249.737 -0.617972 -1.4715 0
M  V30 2657 C 249.937 0.835242 -1.83374 0
M  V30 2658 O 248.993 1.61388 -1.94191 0
M  V30 2659 C 250.306 -1.56041 -2.57044 0
M  V30 2660 C 251.854 -1.56769 -2.7091 0
M  V30 2661 C 252.329 -2.49688 -3.83953 0
M  V30 2662 N 253.82 -2.47845 -3.91314 0
M  V30 2663 C 254.555 -3.16437 -4.78179 0
M  V30 2664 N 254.051 -3.94376 -5.69596 0
M  V30 2665 N 255.844 -3.05498 -4.71834 0
M  V30 2666 H 247.995 -1.85866 -1.02798 0
M  V30 2667 H 250.258 -0.797506 -0.512531 0
M  V30 2668 H 249.964 -2.59671 -2.372 0
M  V30 2669 H 249.838 -1.29551 -3.54255 0
M  V30 2670 H 252.225 -0.538745 -2.90141 0
M  V30 2671 H 252.306 -1.87305 -1.74214 0
M  V30 2672 H 251.95 -3.52688 -3.65477 0
M  V30 2673 H 251.88 -2.16453 -4.80058 0
M  V30 2674 H 254.371 -1.91234 -3.25941 0
M  V30 2675 H 254.684 -4.43721 -6.32718 0
M  V30 2676 H 253.029 -3.98481 -5.69419 0
M  V30 2677 H 256.22 -2.44108 -3.99411 0
M  V30 2678 H 256.393 -3.59225 -5.39316 0
M  V30 2679 N 249.799 1.42003 -0.683588 0
M  V30 2680 C 251.215 1.55625 -0.353976 0
M  V30 2681 C 251.415 1.66151 1.14 0
M  V30 2682 O 250.471 1.63329 1.92561 0
M  V30 2683 C 251.784 2.80171 -1.092 0
M  V30 2684 C 253.332 2.93954 -1.07518 0
M  V30 2685 C 253.807 4.21372 -1.79471 0
M  V30 2686 N 255.298 4.28303 -1.76381 0
M  V30 2687 C 256.033 5.25729 -2.28904 0
M  V30 2688 N 255.529 6.29254 -2.89846 0
M  V30 2689 N 257.322 5.17586 -2.19228 0
M  V30 2690 H 249.473 1.33415 -1.6527 0
M  V30 2691 H 251.736 0.64282 -0.696769 0
M  V30 2692 H 251.442 2.78561 -2.14701 0
M  V30 2693 H 251.316 3.7133 -0.662862 0
M  V30 2694 H 253.703 2.95086 -0.028475 0
M  V30 2695 H 253.784 2.04002 -1.54328 0
M  V30 2696 H 253.428 4.21001 -2.84114 0
M  V30 2697 H 253.358 5.10275 -1.30104 0
M  V30 2698 H 255.849 3.54119 -1.31939 0
M  V30 2699 H 256.162 6.99964 -3.27522 0
M  V30 2700 H 254.507 6.29791 -2.93919 0
M  V30 2701 H 257.698 4.35631 -1.71299 0
M  V30 2702 H 257.871 5.93348 -2.60466 0
M  V30 2703 N 251.277 0.427512 1.51691 0
M  V30 2704 C 252.526 -0.143679 2.01188 0
M  V30 2705 C 252.839 -1.44642 1.31674 0
M  V30 2706 O 254.045 -2.09997 1.72086 0
M  V30 2707 C 252.501 -0.306602 3.58592 0
M  V30 2708 C 252.109 0.985125 4.37035 0
M  V30 2709 C 253.853 -0.832091 4.16265 0
M  V30 2710 C 251.76 0.788382 5.86122 0
M  V30 2711 H 250.69 -0.0574701 0.751807 0
M  V30 2712 H 253.341 0.555772 1.74881 0
M  V30 2713 H 251.723 -1.06882 3.81303 0
M  V30 2714 H 252.897 1.75492 4.26074 0
M  V30 2715 H 251.212 1.4384 3.90767 0
M  V30 2716 H 253.809 -0.995617 5.25349 0
M  V30 2717 H 254.152 -1.81186 3.74803 0
M  V30 2718 H 254.685 -0.128444 3.97593 0
M  V30 2719 H 251.424 1.74025 6.31978 0
M  V30 2720 H 250.944 0.0582143 5.99772 0
M  V30 2721 H 252.623 0.437722 6.45518 0
M  V30 2722 N 252.755 -1.56801 0.158532 0
M  V30 2723 C 254.002 -1.9649 -0.489679 0
M  V30 2724 C 254.33 -1.04394 -1.6411 0
M  V30 2725 O 253.585 -0.0754401 -1.95555 0
M  V30 2726 C 253.884 -3.4235 -1.02623 0
M  V30 2727 C 253.55 -4.50899 0.00794526 0
M  V30 2728 C 252.212 -4.80312 0.292207 0
M  V30 2729 C 254.564 -5.16333 0.710584 0
M  V30 2730 C 251.892 -5.72461 1.28472 0
M  V30 2731 C 254.244 -6.09553 1.69199 0
M  V30 2732 C 252.908 -6.37339 1.98383 0
M  V30 2733 H 252.178 -0.719009 -0.179186 0
M  V30 2734 H 254.825 -1.8989 0.247798 0
M  V30 2735 H 253.13 -3.45838 -1.84128 0
M  V30 2736 H 254.827 -3.70393 -1.53656 0
M  V30 2737 H 251.417 -4.28015 -0.22379 0
M  V30 2738 H 255.601 -4.93732 0.504174 0
M  V30 2739 H 250.857 -5.92278 1.51714 0
M  V30 2740 H 255.031 -6.59327 2.24189 0
M  V30 2741 H 252.658 -7.08546 2.7544 0
M  V30 2742 N 254.233 0.115231 -1.57178 0
M  V30 2743 C 255.196 1.12526 -1.99676 0
M  V30 2744 C 256.196 1.34095 -0.88742 0
M  V30 2745 O 257.386 1.30548 -1.15337 0
M  V30 2746 C 254.518 2.4789 -2.34015 0
M  V30 2747 H 255.711 0.759912 -2.90113 0
M  V30 2748 H 253.264 0.359648 -1.52106 0
M  V30 2749 H 253.999 2.89339 -1.4647 0
M  V30 2750 H 253.784 2.33588 -3.14927 0
M  V30 2751 H 255.274 3.20575 -2.67622 0
M  V30 2752 N 255.711 1.52812 0.385517 0
M  V30 2753 C 256.659 1.78482 1.49155 0
M  V30 2754 C 257.653 0.652914 1.56312 0
M  V30 2755 O 258.859 0.835464 1.59436 0
M  V30 2756 H 255.234 0.5648 0.496493 0
M  V30 2757 H 257.205 2.71095 1.24699 0
M  V30 2758 C 255.954 1.97378 2.86247 0
M  V30 2759 H 255.277 2.83907 2.81491 0
M  V30 2760 H 256.717 2.19327 3.62866 0
M  V30 2761 C 255.176 0.74728 3.28508 0
M  V30 2762 O 255.706 -0.0736232 4.01633 0
M  V30 2763 N 253.912 0.576396 2.84826 0
M  V30 2764 H 253.459 1.24555 2.25486 0
M  V30 2765 H 253.417 -0.24288 3.1346 0
M  V30 2766 N 257.189 -0.644168 1.43834 0
M  V30 2767 C 258.152 -1.73857 1.49353 0
M  V30 2768 C 259.152 -1.56315 0.377112 0
M  V30 2769 O 260.342 -1.62048 0.639226 0
M  V30 2770 C 257.474 -3.12819 1.35488 0
M  V30 2771 H 258.667 -1.70342 2.46827 0
M  V30 2772 H 256.22 -0.856652 1.30733 0
M  V30 2773 H 256.955 -3.2194 0.390569 0
M  V30 2774 H 256.74 -3.26958 2.16428 0
M  V30 2775 H 258.23 -3.92606 1.42302 0
M  V30 2776 N 258.668 -1.30515 -0.883378 0
M  V30 2777 C 259.618 -1.13641 -1.9766 0
M  V30 2778 C 260.602 -0.0511314 -1.60819 0
M  V30 2779 O 261.794 -0.274623 -1.74857 0
M  V30 2780 C 258.923 -0.831976 -3.33066 0
M  V30 2781 C 258.009 -1.95759 -3.76217 0
M  V30 2782 N 258.4 -3.20313 -3.9145 0
M  V30 2783 C 256.698 -1.85431 -4.05625 0
M  V30 2784 C 257.399 -3.93856 -4.2808 0
M  V30 2785 N 256.375 -3.21919 -4.38029 0
M  V30 2786 H 260.177 -2.08106 -2.07531 0
M  V30 2787 H 257.691 -1.21877 -1.0733 0
M  V30 2788 H 259.688 -0.692102 -4.11115 0
M  V30 2789 H 258.348 0.104588 -3.24532 0
M  V30 2790 H 259.359 -3.55583 -3.76538 0
M  V30 2791 H 256.036 -0.991531 -4.05555 0
M  V30 2792 H 257.426 -5.01125 -4.47575 0
M  V30 2793 N 260.146 1.09593 -1.13257 0
M  V30 2794 C 261.374 1.855 -0.916378 0
M  V30 2795 C 261.789 1.81069 0.534738 0
M  V30 2796 O 261.146 1.20562 1.37007 0
M  V30 2797 C 261.197 3.33546 -1.39388 0
M  V30 2798 O 260.918 3.37927 -2.78813 0
M  V30 2799 C 262.419 4.26299 -1.21588 0
M  V30 2800 H 259.639 0.585991 -0.326887 0
M  V30 2801 H 262.183 1.38488 -1.5047 0
M  V30 2802 H 260.338 3.77992 -0.848597 0
M  V30 2803 H 260.752 4.30254 -2.9997 0
M  V30 2804 H 262.226 5.28341 -1.59876 0
M  V30 2805 H 262.703 4.38918 -0.157376 0
M  V30 2806 H 263.309 3.87668 -1.7491 0
M  V30 2807 N 261.624 0.925811 1.2754 0
M  V30 2808 C 262.854 0.580666 1.98272 0
M  V30 2809 C 263.262 -0.845207 1.69272 0
M  V30 2810 O 262.605 -1.57306 0.948707 0
M  V30 2811 C 262.667 0.724418 3.52126 0
M  V30 2812 C 262.331 2.12206 4.04744 0
M  V30 2813 C 263.328 3.09604 4.17662 0
M  V30 2814 C 261.013 2.4385 4.39138 0
M  V30 2815 C 263.007 4.36755 4.64246 0
M  V30 2816 C 260.694 3.71237 4.85414 0
M  V30 2817 C 261.692 4.67503 4.97926 0
M  V30 2818 O 261.38 5.92624 5.43187 0
M  V30 2819 H 261.112 0.218987 0.639547 0
M  V30 2820 H 263.666 1.24452 1.63404 0
M  V30 2821 H 261.896 0.0034663 3.867 0
M  V30 2822 H 263.585 0.384607 4.04074 0
M  V30 2823 H 264.351 2.86478 3.91351 0
M  V30 2824 H 260.23 1.69665 4.28643 0
M  V30 2825 H 263.774 5.11898 4.73927 0
M  V30 2826 H 259.671 3.94182 5.11166 0
M  V30 2827 H 260.439 5.95585 5.61445 0
M  V30 2828 N 263.102 -1.41638 0.69111 0
M  V30 2829 C 264.052 -2.28 -0.000107832 0
M  V30 2830 C 265.036 -1.41964 -0.757304 0
M  V30 2831 O 266.228 -1.65274 -0.633532 0
M  V30 2832 C 263.357 -3.30209 -0.938983 0
M  V30 2833 C 262.443 -4.23725 -0.17827 0
M  V30 2834 N 262.834 -4.99017 0.825563 0
M  V30 2835 C 261.132 -4.44071 -0.414392 0
M  V30 2836 C 261.833 -5.67431 1.28052 0
M  V30 2837 N 260.809 -5.40197 0.607304 0
M  V30 2838 H 264.611 -2.83644 0.769617 0
M  V30 2839 H 262.125 -1.53797 0.521562 0
M  V30 2840 H 264.122 -3.90898 -1.44929 0
M  V30 2841 H 262.782 -2.76126 -1.70836 0
M  V30 2842 H 263.793 -5.03671 1.20566 0
M  V30 2843 H 260.47 -4.01004 -1.162 0
M  V30 2844 H 261.86 -6.37801 2.11327 0
M  V30 2845 N 264.58 -0.43555 -1.51462 0
M  V30 2846 C 265.829 0.133007 -2.01261 0
M  V30 2847 C 266.142 1.43942 -1.32439 0
M  V30 2848 O 267.348 2.09081 -1.73198 0
M  V30 2849 C 265.804 0.287581 -3.58749 0
M  V30 2850 C 265.412 -1.00829 -4.36506 0
M  V30 2851 C 267.156 0.810004 -4.167 0
M  V30 2852 C 265.063 -0.819454 -5.85695 0
M  V30 2853 H 263.993 0.0534822 -0.752101 0
M  V30 2854 H 266.644 -0.565038 -1.74584 0
M  V30 2855 H 265.026 1.04859 -3.81865 0
M  V30 2856 H 266.2 -1.77749 -4.25138 0
M  V30 2857 H 264.515 -1.45911 -3.89999 0
M  V30 2858 H 267.112 0.967743 -5.2587 0
M  V30 2859 H 267.455 1.79196 -3.75758 0
M  V30 2860 H 267.988 0.107357 -3.97655 0
M  V30 2861 H 264.727 -1.77374 -6.31046 0
M  V30 2862 H 264.247 -0.0900208 -5.99732 0
M  V30 2863 H 265.926 -0.471949 -6.45276 0
M  V30 2864 N 266.058 1.56714 -0.166846 0
M  V30 2865 C 267.006 2.19056 0.782123 0
M  V30 2866 C 268 1.15328 1.24079 0
M  V30 2867 O 269.206 1.33537 1.20697 0
M  V30 2868 H 265.581 0.70167 0.270486 0
M  V30 2869 H 267.552 2.97494 0.232322 0
M  V30 2870 C 266.301 2.84206 2.00306 0
M  V30 2871 H 265.624 3.63748 1.65914 0
M  V30 2872 H 267.064 3.31302 2.64604 0
M  V30 2873 C 265.523 1.83744 2.82382 0
M  V30 2874 O 266.053 1.32014 3.79388 0
M  V30 2875 N 264.259 1.52601 2.47308 0
M  V30 2876 H 263.806 1.9486 1.68485 0
M  V30 2877 H 263.764 0.856351 3.02513 0
M  V30 2878 N 267.536 -0.106894 1.57237 0
M  V30 2879 C 268.761 -0.830287 1.90055 0
M  V30 2880 C 269.186 -1.72064 0.75998 0
M  V30 2881 O 268.544 -1.78982 -0.288991 0
M  V30 2882 C 268.592 -1.6295 3.21683 0
M  V30 2883 O 267.696 -2.73748 3.08441 0
M  V30 2884 H 267.037 -0.228855 0.623315 0
M  V30 2885 H 269.567 -0.085658 2.04421 0
M  V30 2886 H 269.577 -2.01621 3.54701 0
M  V30 2887 H 268.252 -0.975989 4.04286 0
M  V30 2888 H 266.829 -2.38192 2.86913 0
M  V30 2889 N 269.014 -1.53014 -0.377408 0
M  V30 2890 C 270.263 -1.67845 -1.11853 0
M  V30 2891 C 270.576 -0.430625 -1.90801 0
M  V30 2892 O 271.782 -0.459261 -2.67587 0
M  V30 2893 C 270.238 -2.96668 -2.03756 0
M  V30 2894 C 269.846 -4.28671 -1.30175 0
M  V30 2895 C 271.59 -3.20865 -2.77932 0
M  V30 2896 C 269.497 -5.48591 -2.20911 0
M  V30 2897 H 268.427 -0.625343 -0.421263 0
M  V30 2898 H 271.078 -1.79514 -0.380409 0
M  V30 2899 H 269.46 -2.78773 -2.8125 0
M  V30 2900 H 270.634 -4.57157 -0.578259 0
M  V30 2901 H 268.949 -4.10825 -0.679108 0
M  V30 2902 H 271.546 -4.07642 -3.46024 0
M  V30 2903 H 271.889 -2.36424 -3.4265 0
M  V30 2904 H 272.422 -3.39379 -2.07525 0
M  V30 2905 H 269.161 -6.35474 -1.6079 0
M  V30 2906 H 268.681 -5.244 -2.91144 0
M  V30 2907 H 270.36 -5.8292 -2.80736 0
M  V30 2908 N 270.492 0.636531 -1.44174 0
M  V30 2909 C 271.717 1.42847 -1.50364 0
M  V30 2910 C 272.142 1.87665 -0.127867 0
M  V30 2911 O 271.5 1.58408 0.88185 0
M  V30 2912 C 271.548 2.62854 -2.4686 0
M  V30 2913 O 270.652 3.62501 -1.9664 0
M  V30 2914 H 269.993 0.427642 -0.507955 0
M  V30 2915 H 272.523 0.777422 -1.89255 0
M  V30 2916 H 272.533 3.10465 -2.64718 0
M  V30 2917 H 271.208 2.29578 -3.46795 0
M  V30 2918 H 269.785 3.21735 -1.88523 0
M  V30 2919 N 271.97 1.30982 0.876444 0
M  V30 2920 C 273.219 1.19658 1.62373 0
M  V30 2921 C 273.532 -0.245636 1.94052 0
M  V30 2922 O 274.738 -0.48049 2.67214 0
M  V30 2923 C 273.194 2.09433 2.92687 0
M  V30 2924 C 272.802 3.58613 2.68516 0
M  V30 2925 C 274.546 2.06893 3.70669 0
M  V30 2926 C 272.453 4.40416 3.94699 0
M  V30 2927 H 271.383 0.444268 0.609214 0
M  V30 2928 H 274.034 1.55791 0.969605 0
M  V30 2929 H 272.416 1.66191 3.59439 0
M  V30 2930 H 273.59 4.10058 2.10212 0
M  V30 2931 H 271.905 3.63063 2.03898 0
M  V30 2932 H 274.502 2.65258 4.64265 0
M  V30 2933 H 274.845 1.05448 4.02724 0
M  V30 2934 H 275.378 2.48301 3.10792 0
M  V30 2935 H 272.117 5.42591 3.67798 0
M  V30 2936 H 271.637 3.93731 4.52477 0
M  V30 2937 H 273.316 4.52294 4.62644 0
M  V30 2938 N 273.449 -1.08991 1.13837 0
M  V30 2939 C 274.397 -2.17841 0.815347 0
M  V30 2940 C 275.391 -1.68164 -0.204233 0
M  V30 2941 O 276.597 -1.79897 -0.0609304 0
M  V30 2942 H 272.972 -0.710654 0.245915 0
M  V30 2943 H 274.943 -2.42315 1.74143 0
M  V30 2944 C 273.692 -3.46381 0.302614 0
M  V30 2945 H 273.015 -3.84979 1.0785 0
M  V30 2946 H 274.455 -4.23844 0.115074 0
M  V30 2947 C 272.914 -3.22556 -0.972591 0
M  V30 2948 O 273.444 -3.45599 -2.04754 0
M  V30 2949 N 271.65 -2.76134 -0.905455 0
M  V30 2950 H 271.197 -2.57582 -0.0305421 0
M  V30 2951 H 271.155 -2.60571 -1.75926 0
M  V30 2952 N 274.927 -0.932562 -1.27047 0
M  V30 2953 C 276.152 -0.591474 -1.98787 0
M  V30 2954 C 276.577 0.824601 -1.69062 0
M  V30 2955 O 275.935 1.5541 -0.933677 0
M  V30 2956 C 275.983 -0.829808 -3.50922 0
M  V30 2957 O 275.087 0.102266 -4.12273 0
M  V30 2958 H 274.428 -0.227185 -0.623926 0
M  V30 2959 H 276.958 -1.25314 -1.61733 0
M  V30 2960 H 276.968 -0.747292 -4.01098 0
M  V30 2961 H 275.643 -1.86201 -3.7189 0
M  V30 2962 H 274.22 -0.0305761 -3.72887 0
M  V30 2963 N 276.405 1.4127 -0.698611 0
M  V30 2964 C 277.682 1.94955 -0.158762 0
M  V30 2965 C 278.062 1.63781 1.33188 0
M  V30 2966 O 277.41 0.946423 2.07979 0
M  V30 2967 C 277.62 3.46044 -0.453309 0
M  V30 2968 C 278.968 4.22872 -0.382707 0
M  V30 2969 O 279.992 3.54076 -0.388396 0
M  V30 2970 O 278.851 5.45407 -0.345463 0
M  V30 2971 H 275.945 0.82683 -0.0167505 0
M  V30 2972 H 278.491 1.50971 -0.77498 0
M  V30 2973 H 277.263 3.62028 -1.48498 0
M  V30 2974 H 276.886 3.97128 0.19373 0
M  V30 2975 N 277.883 0.443576 1.51229 0
M  V30 2976 C 279.113 -0.119117 2.06256 0
M  V30 2977 C 279.521 -1.36471 1.31043 0
M  V30 2978 O 278.864 -1.80034 0.365151 0
M  V30 2979 C 278.926 -0.500546 3.55998 0
M  V30 2980 C 278.59 0.639125 4.52509 0
M  V30 2981 C 279.587 1.51311 4.97394 0
M  V30 2982 C 277.272 0.821632 4.95535 0
M  V30 2983 C 279.266 2.55425 5.83984 0
M  V30 2984 C 276.953 1.86603 5.81913 0
M  V30 2985 C 277.951 2.73072 6.26036 0
M  V30 2986 O 277.639 3.75718 7.10698 0
M  V30 2987 H 277.371 -0.00857665 0.675946 0
M  V30 2988 H 279.925 0.623288 1.95715 0
M  V30 2989 H 278.155 -1.29575 3.64345 0
M  V30 2990 H 279.844 -0.995116 3.93513 0
M  V30 2991 H 280.61 1.38367 4.64844 0
M  V30 2992 H 276.489 0.158149 4.60729 0
M  V30 2993 H 280.033 3.22949 6.18344 0
M  V30 2994 H 275.93 1.99564 6.13876 0
M  V30 2995 H 276.698 3.72374 7.2889 0
M  V30 2996 N 279.361 -1.56624 0.175154 0
M  V30 2997 C 280.271 -2.21741 -0.766042 0
M  V30 2998 C 281.287 -1.21023 -1.25018 0
M  V30 2999 O 282.463 -1.53697 -1.3015 0
M  V30 3000 C 279.528 -2.84839 -1.97655 0
M  V30 3001 C 278.589 -4.00769 -1.53892 0
M  V30 3002 C 277.822 -4.60849 -2.69173 0
M  V30 3003 O 278.045 -4.19823 -3.86141 0
M  V30 3004 O 276.979 -5.50655 -2.43028 0
M  V30 3005 H 280.805 -3.02738 -0.241585 0
M  V30 3006 H 278.39 -1.49305 -0.053222 0
M  V30 3007 H 280.272 -3.24834 -2.68442 0
M  V30 3008 H 278.947 -2.06836 -2.48999 0
M  V30 3009 H 277.854 -3.65436 -0.80044 0
M  V30 3010 H 279.187 -4.80376 -1.07236 0
M  V30 3011 N 280.839 0.0985539 -1.57292 0
M  V30 3012 C 282.067 0.816318 -1.90115 0
M  V30 3013 C 282.482 1.72451 -0.768509 0
M  V30 3014 O 281.839 1.80643 0.259687 0
M  V30 3015 C 281.89 1.63259 -3.22535 0
M  V30 3016 O 281.611 0.760934 -4.31441 0
M  V30 3017 C 283.112 2.45372 -3.69199 0
M  V30 3018 H 280.332 0.233595 -0.629027 0
M  V30 3019 H 282.876 0.0768229 -2.04356 0
M  V30 3020 H 281.031 2.32463 -3.09903 0
M  V30 3021 H 281.445 1.32595 -5.07463 0
M  V30 3022 H 282.919 2.98144 -4.64558 0
M  V30 3023 H 283.396 3.23677 -2.96867 0
M  V30 3024 H 284.002 1.81373 -3.84687 0
M  V30 3025 N 282.317 1.53212 0.369288 0
M  V30 3026 C 283.547 1.72868 1.13139 0
M  V30 3027 C 283.955 0.455754 1.83629 0
M  V30 3028 O 283.298 -0.580861 1.74275 0
M  V30 3029 C 283.36 2.83667 2.20847 0
M  V30 3030 C 283.024 4.24142 1.70155 0
M  V30 3031 C 284.021 5.06619 1.16763 0
M  V30 3032 C 281.706 4.70539 1.7578 0
M  V30 3033 C 283.7 6.33581 0.696678 0
M  V30 3034 C 281.387 5.97481 1.28297 0
M  V30 3035 C 282.385 6.78833 0.753307 0
M  V30 3036 O 282.073 8.03393 0.285475 0
M  V30 3037 H 281.805 0.581707 0.344373 0
M  V30 3038 H 284.359 2.00736 0.435243 0
M  V30 3039 H 282.589 2.51265 2.93944 0
M  V30 3040 H 284.278 2.91536 2.82421 0
M  V30 3041 H 285.044 4.71948 1.11758 0
M  V30 3042 H 280.923 4.07293 2.15949 0
M  V30 3043 H 284.467 6.97027 0.282581 0
M  V30 3044 H 280.364 6.31651 1.32994 0
M  V30 3045 H 281.132 8.17497 0.405145 0
M  V30 3046 N 283.795 -0.628877 1.44509 0
M  V30 3047 C 284.725 -1.75187 1.54376 0
M  V30 3048 C 285.706 -1.65411 0.396618 0
M  V30 3049 O 286.891 -1.84137 0.617031 0
M  V30 3050 C 284.021 -3.13725 1.48976 0
M  V30 3051 C 282.975 -3.38291 2.62189 0
M  V30 3052 C 282.301 -4.76883 2.41841 0
M  V30 3053 C 283.601 -3.30632 4.04326 0
M  V30 3054 H 285.295 -1.67187 2.48373 0
M  V30 3055 H 282.841 -0.802909 1.19538 0
M  V30 3056 H 284.794 -3.92064 1.54478 0
M  V30 3057 H 283.518 -3.22515 0.514961 0
M  V30 3058 H 282.177 -2.62334 2.56079 0
M  V30 3059 H 281.825 -4.82378 1.42548 0
M  V30 3060 H 281.525 -4.94278 3.17747 0
M  V30 3061 H 283.049 -5.57449 2.49165 0
M  V30 3062 H 284.463 -3.98873 4.11793 0
M  V30 3063 H 282.86 -3.59561 4.80454 0
M  V30 3064 H 283.93 -2.28404 4.27738 0
M  V30 3065 N 285.273 -1.31445 -0.869486 0
M  V30 3066 C 286.498 -1.24256 -1.66058 0
M  V30 3067 C 286.923 0.188928 -1.87149 0
M  V30 3068 O 286.281 1.13522 -1.4136 0
M  V30 3069 C 286.329 -1.9924 -3.00559 0
M  V30 3070 O 285.433 -1.33007 -3.90362 0
M  V30 3071 H 284.774 -0.428973 -0.506831 0
M  V30 3072 H 287.304 -1.73521 -1.08404 0
M  V30 3073 H 287.314 -2.08854 -3.50491 0
M  V30 3074 H 285.989 -3.03342 -2.84528 0
M  V30 3075 H 284.566 -1.31848 -3.48813 0
M  V30 3076 N 286.751 1.08385 -1.14413 0
M  V30 3077 C 287.714 2.13486 -0.834048 0
M  V30 3078 C 288.714 1.59988 0.161418 0
M  V30 3079 O 289.904 1.74071 -0.0669575 0
M  V30 3080 C 287.036 3.4003 -0.243354 0
M  V30 3081 H 288.229 2.42425 -1.7655 0
M  V30 3082 H 285.782 1.24101 -0.950189 0
M  V30 3083 H 286.517 3.16726 0.696807 0
M  V30 3084 H 286.302 3.80157 -0.960367 0
M  V30 3085 H 287.792 4.17577 -0.0436242 0
M  V30 3086 N 288.23 0.939286 1.26551 0
M  V30 3087 C 289.507 0.5038 1.89001 0
M  V30 3088 C 289.887 -1.01854 1.84903 0
M  V30 3089 O 289.235 -1.87773 1.30206 0
M  V30 3090 C 289.445 1.063 3.32417 0
M  V30 3091 C 290.793 1.13051 4.09273 0
M  V30 3092 O 291.817 1.01345 3.41479 0
M  V30 3093 O 290.676 1.31233 5.30509 0
M  V30 3094 H 287.77 0.163897 0.810597 0
M  V30 3095 H 290.316 1.03173 1.34735 0
M  V30 3096 H 289.088 2.10665 3.29752 0
M  V30 3097 H 288.711 0.517408 3.94219 0
M  V30 3098 N 289.708 -1.40897 0.706093 0
M  V30 3099 C 290.985 -1.94868 0.169099 0
M  V30 3100 C 291.365 -1.64485 -1.32318 0
M  V30 3101 O 290.713 -0.95744 -2.07474 0
M  V30 3102 C 290.923 -3.45798 0.471654 0
M  V30 3103 C 292.271 -4.22663 0.405127 0
M  V30 3104 O 293.295 -3.53865 0.407168 0
M  V30 3105 O 292.154 -5.45216 0.374383 0
M  V30 3106 H 289.248 -0.82673 0.0211352 0
M  V30 3107 H 291.794 -1.50558 0.782976 0
M  V30 3108 H 290.566 -3.61235 1.50416 0
M  V30 3109 H 290.189 -3.97225 -0.172666 0
M  V30 3110 N 291.186 -0.45159 -1.50991 0
M  V30 3111 C 292.116 0.342898 -2.30969 0
M  V30 3112 C 293.097 1.00815 -1.37005 0
M  V30 3113 O 294.282 1.00907 -1.65926 0
M  V30 3114 C 291.412 1.43637 -3.16205 0
M  V30 3115 C 290.366 0.893818 -4.18563 0
M  V30 3116 C 289.692 2.08411 -4.92411 0
M  V30 3117 C 290.992 -0.0815568 -5.22236 0
M  V30 3118 H 292.686 -0.324556 -2.97636 0
M  V30 3119 H 290.232 -0.157531 -1.43136 0
M  V30 3120 H 292.185 1.9995 -3.70942 0
M  V30 3121 H 290.909 2.13232 -2.47386 0
M  V30 3122 H 289.568 0.352798 -3.64898 0
M  V30 3123 H 289.216 2.76658 -4.20082 0
M  V30 3124 H 288.916 1.72741 -5.61636 0
M  V30 3125 H 290.44 2.65251 -5.49976 0
M  V30 3126 H 291.854 0.391742 -5.7196 0
M  V30 3127 H 290.251 -0.351551 -5.99069 0
M  V30 3128 H 291.321 -1.01374 -4.74185 0
M  V30 3129 N 292.664 1.56529 -0.183458 0
M  V30 3130 C 294.08 1.58664 0.172554 0
M  V30 3131 C 294.28 1.19925 1.61926 0
M  V30 3132 O 293.336 0.916534 2.35278 0
M  V30 3133 C 294.649 3.00463 -0.119262 0
M  V30 3134 C 296.197 3.12945 -0.0584396 0
M  V30 3135 C 296.672 4.56857 -0.323408 0
M  V30 3136 N 298.163 4.62403 -0.271612 0
M  V30 3137 C 298.898 5.71626 -0.450639 0
M  V30 3138 N 298.394 6.89362 -0.689384 0
M  V30 3139 N 300.187 5.60775 -0.385701 0
M  V30 3140 H 292.338 1.79994 -1.12765 0
M  V30 3141 H 294.601 0.834808 -0.449222 0
M  V30 3142 H 294.307 3.33326 -1.12192 0
M  V30 3143 H 294.181 3.72659 0.583544 0
M  V30 3144 H 296.568 2.79902 0.934805 0
M  V30 3145 H 296.649 2.4316 -0.794144 0
M  V30 3146 H 296.293 4.9061 -1.31392 0
M  V30 3147 H 296.223 5.24816 0.43305 0
M  V30 3148 H 298.714 3.77785 -0.0932256 0
M  V30 3149 H 299.027 7.68489 -0.815113 0
M  V30 3150 H 297.372 6.91196 -0.726142 0
M  V30 3151 H 300.563 4.67674 -0.199687 0
M  V30 3152 H 300.736 6.4584 -0.528646 0
M  V30 3153 N 294.142 -0.090211 1.57342 0
M  V30 3154 C 295.391 -0.791531 1.8552 0
M  V30 3155 C 295.704 -1.79659 0.773441 0
M  V30 3156 O 296.91 -2.54616 0.942497 0
M  V30 3157 C 295.366 -1.45856 3.2902 0
M  V30 3158 C 294.974 -0.493017 4.45279 0
M  V30 3159 C 296.718 -2.14332 3.66418 0
M  V30 3160 C 294.625 -1.16491 5.79814 0
M  V30 3161 H 293.555 -0.299356 0.692027 0
M  V30 3162 H 296.206 -0.0445343 1.83446 0
M  V30 3163 H 294.588 -2.25318 3.2565 0
M  V30 3164 H 295.762 0.270464 4.60006 0
M  V30 3165 H 294.077 0.0863061 4.16311 0
M  V30 3166 H 296.674 -2.65344 4.64216 0
M  V30 3167 H 297.017 -2.93447 2.95287 0
M  V30 3168 H 297.55 -1.41724 3.71698 0
M  V30 3169 H 294.289 -0.41447 6.54188 0
M  V30 3170 H 293.809 -1.8997 5.68921 0
M  V30 3171 H 295.488 -1.69001 6.24538 0
M  V30 3172 N 295.62 -1.53406 -0.361157 0
M  V30 3173 C 296.568 -1.80832 -1.46296 0
M  V30 3174 C 297.562 -0.677699 -1.55253 0
M  V30 3175 O 298.768 -0.860723 -1.58087 0
M  V30 3176 H 295.143 -0.572627 -0.487445 0
M  V30 3177 H 297.114 -2.73045 -1.20371 0
M  V30 3178 C 295.863 -2.01907 -2.8307 0
M  V30 3179 H 295.186 -2.88349 -2.76938 0
M  V30 3180 H 296.626 -2.25072 -3.59331 0
M  V30 3181 C 295.085 -0.799449 -3.27277 0
M  V30 3182 O 295.615 0.00971761 -4.01699 0
M  V30 3183 N 293.821 -0.621637 -2.83873 0
M  V30 3184 H 293.368 -1.28126 -2.23476 0
M  V30 3185 H 293.326 0.19298 -3.13807 0
M  V30 3186 N 297.098 0.621204 -1.44841 0
M  V30 3187 C 298.028 1.74366 -1.55303 0
M  V30 3188 C 299.009 1.65199 -0.405385 0
M  V30 3189 O 300.194 1.83807 -0.626787 0
M  V30 3190 C 297.324 3.12931 -1.50637 0
M  V30 3191 C 296.278 3.36896 -2.63979 0
M  V30 3192 C 295.604 4.75594 -2.44366 0
M  V30 3193 C 296.904 3.28483 -4.06074 0
M  V30 3194 H 298.598 1.65867 -2.49256 0
M  V30 3195 H 296.144 0.796558 -1.19962 0
M  V30 3196 H 298.097 3.9124 -1.56555 0
M  V30 3197 H 296.821 3.22237 -0.532057 0
M  V30 3198 H 295.48 2.60972 -2.57467 0
M  V30 3199 H 295.128 4.81616 -1.45105 0
M  V30 3200 H 294.828 4.92586 -3.20364 0
M  V30 3201 H 296.352 5.5612 -2.52117 0
M  V30 3202 H 297.766 3.96684 -4.13902 0
M  V30 3203 H 296.163 3.57008 -4.82354 0
M  V30 3204 H 297.233 2.26133 -4.28943 0
M  V30 3205 N 298.576 1.31904 0.862503 0
M  V30 3206 C 299.822 1.23207 1.61838 0
M  V30 3207 C 300.177 -0.206062 1.91293 0
M  V30 3208 O 299.47 -1.14162 1.53875 0
M  V30 3209 C 299.664 2.01713 2.95037 0
M  V30 3210 C 299.493 3.53014 2.78588 0
M  V30 3211 C 298.263 4.22359 2.77382 0
M  V30 3212 C 300.461 4.47819 2.52909 0
M  V30 3213 N 298.443 5.59766 2.52062 0
M  V30 3214 C 299.814 5.72947 2.36922 0
M  V30 3215 C 301.869 4.37162 2.38314 0
M  V30 3216 C 300.572 6.88623 2.07823 0
M  V30 3217 C 302.598 5.5263 2.10604 0
M  V30 3218 C 301.96 6.76752 1.95411 0
M  V30 3219 H 298.059 0.505984 0.596242 0
M  V30 3220 H 300.643 1.66179 1.01452 0
M  V30 3221 H 298.814 1.61098 3.53415 0
M  V30 3222 H 300.546 1.84975 3.59953 0
M  V30 3223 H 297.301 3.74401 2.90036 0
M  V30 3224 H 297.725 6.32135 2.42352 0
M  V30 3225 H 302.367 3.41857 2.48784 0
M  V30 3226 H 300.085 7.83948 1.9609 0
M  V30 3227 H 303.671 5.46307 2.00101 0
M  V30 3228 H 302.551 7.6459 1.74274 0
M  V30 3229 N 300.054 -1.07777 1.14986 0
M  V30 3230 C 301.004 -2.13082 0.811181 0
M  V30 3231 C 301.988 -1.59619 -0.202597 0
M  V30 3232 O 303.18 -1.77 -0.00398275 0
M  V30 3233 C 300.309 -3.42009 0.297439 0
M  V30 3234 C 299.395 -4.02337 1.34112 0
M  V30 3235 N 299.786 -4.36982 2.54716 0
M  V30 3236 C 298.084 -4.29752 1.19285 0
M  V30 3237 C 298.785 -4.84729 3.21578 0
M  V30 3238 N 297.761 -4.83233 2.48972 0
M  V30 3239 H 301.563 -2.37696 1.72853 0
M  V30 3240 H 299.077 -1.25173 1.03468 0
M  V30 3241 H 301.074 -4.16884 0.0364777 0
M  V30 3242 H 299.734 -3.18841 -0.614022 0
M  V30 3243 H 300.745 -4.27807 2.91894 0
M  V30 3244 H 297.422 -4.16106 0.340926 0
M  V30 3245 H 298.812 -5.20863 4.24442 0
M  V30 3246 N 301.532 -0.945985 -1.26051 0
M  V30 3247 C 302.462 -0.477172 -2.28572 0
M  V30 3248 C 303.443 0.472032 -1.63419 0
M  V30 3249 O 304.628 0.372853 -1.90587 0
M  V30 3250 C 301.758 0.253975 -3.4637 0
M  V30 3251 C 300.712 -0.609135 -4.23643 0
M  V30 3252 C 300.038 0.252252 -5.34105 0
M  V30 3253 C 301.338 -1.8829 -4.8718 0
M  V30 3254 H 303.032 -1.33402 -2.68038 0
M  V30 3255 H 300.578 -0.642904 -1.28852 0
M  V30 3256 H 302.531 0.593016 -4.17207 0
M  V30 3257 H 301.255 1.145 -3.05871 0
M  V30 3258 H 299.914 -0.931138 -3.54578 0
M  V30 3259 H 299.562 1.14278 -4.89846 0
M  V30 3260 H 299.262 -0.32188 -5.86718 0
M  V30 3261 H 300.786 0.586454 -6.07777 0
M  V30 3262 H 302.2 -1.61081 -5.50205 0
M  V30 3263 H 300.597 -2.40199 -5.49931 0
M  V30 3264 H 301.667 -2.59134 -4.09851 0
M  V30 3265 N 303.011 1.40521 -0.713556 0
M  V30 3266 C 303.921 2.34522 -0.0606667 0
M  V30 3267 C 304.937 1.57193 0.74607 0
M  V30 3268 O 306.113 1.89591 0.679493 0
M  V30 3269 C 303.178 3.36081 0.851491 0
M  V30 3270 C 302.239 4.29286 0.0349339 0
M  V30 3271 C 301.472 5.25994 0.903649 0
M  V30 3272 O 301.695 5.28616 2.14292 0
M  V30 3273 O 300.629 6.00918 0.343723 0
M  V30 3274 H 304.455 2.91968 -0.835972 0
M  V30 3275 H 302.04 1.41681 -0.47402 0
M  V30 3276 H 303.922 3.98369 1.37404 0
M  V30 3277 H 302.597 2.81052 1.60598 0
M  V30 3278 H 301.504 3.70289 -0.532633 0
M  V30 3279 H 302.837 4.87462 -0.681287 0
M  V30 3280 N 304.489 0.459591 1.5075 0
M  V30 3281 C 305.738 -0.100971 2.01447 0
M  V30 3282 C 306.051 -1.41816 1.34713 0
M  V30 3283 O 307.257 -2.06299 1.76502 0
M  V30 3284 C 305.713 -0.23047 3.59161 0
M  V30 3285 C 305.321 1.0776 4.34847 0
M  V30 3286 C 307.065 -0.743608 4.17936 0
M  V30 3287 C 304.972 0.91253 5.84317 0
M  V30 3288 H 303.902 -0.0415102 0.752856 0
M  V30 3289 H 306.553 0.592742 1.73663 0
M  V30 3290 H 304.935 -0.987703 3.83485 0
M  V30 3291 H 306.109 1.8449 4.22256 0
M  V30 3292 H 304.424 1.52097 3.87628 0
M  V30 3293 H 307.021 -0.883959 5.27343 0
M  V30 3294 H 307.364 -1.73196 3.78562 0
M  V30 3295 H 307.897 -0.04408 3.97776 0
M  V30 3296 H 304.636 1.87391 6.28144 0
M  V30 3297 H 304.156 0.185422 5.99513 0
M  V30 3298 H 305.835 0.574547 6.44444 0
M  V30 3299 N 305.967 -1.56429 0.191757 0
M  V30 3300 C 307.195 -2.01867 -0.453586 0
M  V30 3301 C 307.61 -1.07191 -1.5542 0
M  V30 3302 O 306.967 -0.0762108 -1.82341 0
M  V30 3303 C 307.018 -3.47017 -1.013 0
M  V30 3304 O 306.739 -4.38078 0.0437005 0
M  V30 3305 C 308.24 -4.07956 -1.73456 0
M  V30 3306 H 305.46 -0.661211 -0.114199 0
M  V30 3307 H 308.004 -2.02295 0.299483 0
M  V30 3308 H 306.159 -3.47298 -1.71647 0
M  V30 3309 H 306.573 -5.23178 -0.372212 0
M  V30 3310 H 308.047 -5.1138 -2.07833 0
M  V30 3311 H 308.524 -3.51222 -2.63704 0
M  V30 3312 H 309.13 -4.11437 -1.07702 0
M  V30 3313 N 307.445 0.0818655 -1.57387 0
M  V30 3314 C 308.722 0.815343 -1.77796 0
M  V30 3315 C 309.102 1.96289 -0.77679 0
M  V30 3316 O 308.45 2.27691 0.192106 0
M  V30 3317 C 308.66 1.29765 -3.23978 0
M  V30 3318 C 310.008 1.7351 -3.8753 0
M  V30 3319 O 311.032 1.39356 -3.27808 0
M  V30 3320 O 309.891 2.36708 -4.92576 0
M  V30 3321 H 306.985 0.389914 -0.729312 0
M  V30 3322 H 309.531 0.0627213 -1.69584 0
M  V30 3323 H 308.303 0.47608 -3.88393 0
M  V30 3324 H 307.926 2.11189 -3.36875 0
M  V30 3325 N 308.923 1.53595 0.353017 0
M  V30 3326 C 310.339 1.43648 0.695516 0
M  V30 3327 C 310.539 0.585617 1.92802 0
M  V30 3328 O 309.595 0.0729223 2.52395 0
M  V30 3329 C 310.908 2.8701 0.896991 0
M  V30 3330 C 312.456 2.96723 0.996209 0
M  V30 3331 C 312.931 4.41173 1.23007 0
M  V30 3332 N 314.422 4.44657 1.29749 0
M  V30 3333 C 315.157 5.53547 1.49577 0
M  V30 3334 N 314.653 6.72461 1.66639 0
M  V30 3335 N 316.446 5.41145 1.52048 0
M  V30 3336 H 308.597 2.07415 -0.457481 0
M  V30 3337 H 310.86 0.9372 -0.142687 0
M  V30 3338 H 310.566 3.51644 0.0629938 0
M  V30 3339 H 310.44 3.31401 1.80148 0
M  V30 3340 H 312.827 2.32235 1.82074 0
M  V30 3341 H 312.908 2.55707 0.0688331 0
M  V30 3342 H 312.552 5.06238 0.410505 0
M  V30 3343 H 312.482 4.79772 2.17086 0
M  V30 3344 H 314.973 3.58963 1.18126 0
M  V30 3345 H 315.286 7.51214 1.81378 0
M  V30 3346 H 313.631 6.75423 1.63794 0
M  V30 3347 H 316.822 4.47205 1.38294 0
M  V30 3348 H 316.995 6.26068 1.67159 0
M  V30 3349 N 310.401 -0.613514 1.45168 0
M  V30 3350 C 311.626 -1.40437 1.52618 0
M  V30 3351 C 312.051 -1.87438 0.157707 0
M  V30 3352 O 311.409 -1.59791 -0.856537 0
M  V30 3353 C 311.457 -2.58894 2.51011 0
M  V30 3354 O 310.561 -3.59326 2.02382 0
M  V30 3355 H 309.902 -0.419506 0.514695 0
M  V30 3356 H 312.432 -0.747215 1.90467 0
M  V30 3357 H 312.442 -3.06214 2.69624 0
M  V30 3358 H 311.117 -2.24032 3.50403 0
M  V30 3359 H 309.694 -3.18695 1.93618 0
M  V30 3360 N 311.879 -1.3236 -0.855495 0
M  V30 3361 C 313.126 -1.22872 -1.60962 0
M  V30 3362 C 313.454 0.209658 -1.93367 0
M  V30 3363 O 312.709 1.16243 -1.57436 0
M  V30 3364 C 313.008 -2.03275 -2.93963 0
M  V30 3365 C 312.674 -3.5264 -2.80991 0
M  V30 3366 C 311.336 -3.93364 -2.7716 0
M  V30 3367 C 313.688 -4.47626 -2.66983 0
M  V30 3368 C 311.016 -5.27319 -2.572 0
M  V30 3369 C 313.368 -5.81723 -2.48558 0
M  V30 3370 C 312.032 -6.2165 -2.4312 0
M  V30 3371 H 311.302 -0.44962 -0.589001 0
M  V30 3372 H 313.949 -1.63777 -0.992442 0
M  V30 3373 H 312.254 -1.55095 -3.59795 0
M  V30 3374 H 313.951 -1.93303 -3.51333 0
M  V30 3375 H 310.541 -3.20295 -2.84797 0
M  V30 3376 H 314.725 -4.17084 -2.68988 0
M  V30 3377 H 309.981 -5.57311 -2.51424 0
M  V30 3378 H 314.155 -6.5494 -2.36699 0
M  V30 3379 H 311.782 -7.25388 -2.27412 0
M  V30 3380 N 313.357 1.07166 -1.15556 0
M  V30 3381 C 314.305 2.16517 -0.8499 0
M  V30 3382 C 315.299 1.68468 0.177454 0
M  V30 3383 O 316.505 1.79971 0.0323026 0
M  V30 3384 H 312.88 0.706652 -0.25719 0
M  V30 3385 H 314.851 2.39514 -1.77976 0
M  V30 3386 C 313.6 3.45855 -0.357682 0
M  V30 3387 H 312.923 3.83214 -1.13961 0
M  V30 3388 H 314.363 4.23607 -0.182489 0
M  V30 3389 C 312.822 3.24062 0.921152 0
M  V30 3390 O 313.352 3.48813 1.9923 0
M  V30 3391 N 311.558 2.77539 0.86141 0
M  V30 3392 H 311.105 2.57598 -0.0104408 0
M  V30 3393 H 311.063 2.63337 1.71758 0
M  V30 3394 N 314.835 0.952656 1.25548 0
M  V30 3395 C 316.084 0.602053 1.92505 0
M  V30 3396 C 316.397 -0.864663 1.75451 0
M  V30 3397 O 317.603 -1.32514 2.36965 0
M  V30 3398 C 316.059 1.02607 3.44963 0
M  V30 3399 C 315.667 2.51519 3.70732 0
M  V30 3400 C 317.411 0.747905 4.1786 0
M  V30 3401 C 315.318 2.87732 5.16686 0
M  V30 3402 H 314.248 0.22146 0.720744 0
M  V30 3403 H 316.899 1.15684 1.42441 0
M  V30 3404 H 315.281 0.399712 3.93978 0
M  V30 3405 H 316.455 3.19157 3.32378 0
M  V30 3406 H 314.77 2.76786 3.11092 0
M  V30 3407 H 317.367 0.994647 5.25367 0
M  V30 3408 H 317.71 -0.315629 4.15102 0
M  V30 3409 H 318.243 1.33452 3.74747 0
M  V30 3410 H 314.982 3.93095 5.24554 0
M  V30 3411 H 314.502 2.24765 5.56094 0
M  V30 3412 H 316.181 2.76817 5.84792 0
M  V30 3413 N 316.313 -1.40141 0.720998 0
M  V30 3414 C 317.559 -2.01084 0.263231 0
M  V30 3415 C 317.892 -1.57052 -1.14229 0
M  V30 3416 O 317.167 -0.793027 -1.77599 0
M  V30 3417 C 317.45 -3.58401 0.349344 0
M  V30 3418 C 317.303 -4.12491 1.79363 0
M  V30 3419 C 318.622 -4.39231 -0.276351 0
M  V30 3420 H 315.741 -0.730572 0.0971228 0
M  V30 3421 H 318.383 -1.66543 0.914518 0
M  V30 3422 H 316.533 -3.87958 -0.205165 0
M  V30 3423 H 318.205 -3.93711 2.40394 0
M  V30 3424 H 316.448 -3.66576 2.31958 0
M  V30 3425 H 317.119 -5.21646 1.80524 0
M  V30 3426 H 319.595 -4.15637 0.196184 0
M  V30 3427 H 318.471 -5.48586 -0.185681 0
M  V30 3428 H 318.732 -4.20643 -1.36059 0
M  V30 3429 N 317.792 -0.46758 -1.50504 0
M  V30 3430 C 319.069 0.15003 -1.95024 0
M  V30 3431 C 319.449 1.57304 -1.40779 0
M  V30 3432 O 318.797 2.20281 -0.607319 0
M  V30 3433 C 319.007 0.0969324 -3.48865 0
M  V30 3434 C 320.355 0.287565 -4.23625 0
M  V30 3435 O 321.379 0.173678 -3.55776 0
M  V30 3436 O 320.238 0.517186 -5.44047 0
M  V30 3437 H 317.332 0.113582 -0.819163 0
M  V30 3438 H 319.878 -0.52773 -1.61286 0
M  V30 3439 H 318.65 -0.896732 -3.80886 0
M  V30 3440 H 318.273 0.816303 -3.8913 0
M  V30 3441 N 319.27 1.56325 -0.20005 0
M  V30 3442 C 320.519 1.96895 0.437652 0
M  V30 3443 C 320.832 1.08999 1.62415 0
M  V30 3444 O 322.038 1.39372 2.32997 0
M  V30 3445 C 320.494 3.50198 0.830025 0
M  V30 3446 C 320.102 4.46765 -0.332461 0
M  V30 3447 C 321.846 3.99526 1.43453 0
M  V30 3448 C 319.753 5.91344 0.0811468 0
M  V30 3449 H 318.683 0.735209 0.167282 0
M  V30 3450 H 321.334 1.81148 -0.292853 0
M  V30 3451 H 319.716 3.61467 1.61734 0
M  V30 3452 H 320.89 4.47231 -1.11 0
M  V30 3453 H 319.205 4.07657 -0.848789 0
M  V30 3454 H 321.802 5.05025 1.75652 0
M  V30 3455 H 322.145 3.44122 2.34277 0
M  V30 3456 H 322.678 3.91393 0.71109 0
M  V30 3457 H 319.417 6.50685 -0.793033 0
M  V30 3458 H 318.937 5.94121 0.823445 0
M  V30 3459 H 320.616 6.44945 0.515252 0
M  V30 3460 N 320.748 -0.0735177 1.57428 0
M  V30 3461 C 321.695 -1.08756 2.0357 0
M  V30 3462 C 322.665 -1.38559 0.916 0
M  V30 3463 O 323.85 -1.49656 1.18354 0
M  V30 3464 C 320.99 -2.39657 2.48311 0
M  V30 3465 C 320.103 -2.16399 3.73892 0
M  V30 3466 C 319.238 -3.40852 4.07423 0
M  V30 3467 C 318.277 -3.1295 5.2605 0
M  V30 3468 N 317.414 -4.29729 5.55228 0
M  V30 3469 H 322.254 -0.687104 2.8997 0
M  V30 3470 H 319.791 -0.327709 1.43403 0
M  V30 3471 H 321.749 -3.16081 2.72303 0
M  V30 3472 H 320.379 -2.77508 1.64891 0
M  V30 3473 H 319.431 -1.30676 3.57251 0
M  V30 3474 H 320.743 -1.91788 4.60455 0
M  V30 3475 H 319.897 -4.25671 4.32306 0
M  V30 3476 H 318.636 -3.68537 3.19425 0
M  V30 3477 H 317.641 -2.26526 5.00965 0
M  V30 3478 H 318.866 -2.86589 6.15665 0
M  V30 3479 H 316.812 -4.57448 4.70188 0
M  V30 3480 H 316.729 -4.08385 6.36206 0
M  V30 3481 H 317.997 -5.1555 5.84661 0
M  V30 3482 N 322.226 -1.5378 -0.344866 0
M  V30 3483 C 323.637 -1.62428 -0.920552 0
M  V30 3484 C 323.988 -0.504747 -1.89596 0
M  V30 3485 O 323.113 0.365711 -2.13287 0
M  V30 3486 C 323.708 -2.94419 -1.67639 0
M  V30 3487 C 322.267 -3.05333 -2.20111 0
M  V30 3488 C 321.414 -2.57866 -1.01982 0
M  V30 3489 H 324.365 -1.58222 -0.123042 0
M  V30 3490 H 324.386 -2.83384 -2.53917 0
M  V30 3491 H 323.898 -3.7588 -0.966224 0
M  V30 3492 H 321.999 -2.28502 -2.94308 0
M  V30 3493 H 322.112 -4.10778 -2.46573 0
M  V30 3494 H 320.476 -2.13241 -1.39285 0
M  V30 3495 H 321.259 -3.41765 -0.324308 0
M  V30 3496 N 323.704 0.605807 -1.45491 0
M  V30 3497 C 324.667 1.69836 -1.5391 0
M  V30 3498 C 325.667 1.55261 -0.418424 0
M  V30 3499 O 326.857 1.60296 -0.681965 0
M  V30 3500 C 323.989 3.09117 -1.43734 0
M  V30 3501 H 325.182 1.63738 -2.51257 0
M  V30 3502 H 322.735 0.821689 -1.32959 0
M  V30 3503 H 323.47 3.20791 -0.475788 0
M  V30 3504 H 323.255 3.21104 -2.25021 0
M  V30 3505 H 324.745 3.88696 -1.52661 0
M  V30 3506 N 325.182 1.32811 0.848464 0
M  V30 3507 C 326.13 1.22231 1.97895 0
M  V30 3508 C 327.124 0.125749 1.68933 0
M  V30 3509 O 328.33 0.289083 1.77663 0
M  V30 3510 H 324.705 0.379058 0.649476 0
M  V30 3511 H 326.676 2.17828 2.03945 0
M  V30 3512 C 325.425 0.968572 3.33937 0
M  V30 3513 H 324.748 1.80458 3.56756 0
M  V30 3514 H 326.188 0.934808 4.13567 0
M  V30 3515 C 324.647 -0.328628 3.35293 0
M  V30 3516 O 325.177 -1.33848 3.78745 0
M  V30 3517 N 323.383 -0.352788 2.88451 0
M  V30 3518 H 322.93 0.469541 2.53285 0
M  V30 3519 H 322.888 -1.22057 2.89741 0
M  V30 3520 N 326.66 -1.06551 1.16123 0
M  V30 3521 C 327.593 -2.13382 0.80892 0
M  V30 3522 C 328.571 -1.61128 -0.21827 0
M  V30 3523 O 329.755 -1.88219 -0.102952 0
M  V30 3524 C 326.882 -3.38083 0.204303 0
M  V30 3525 C 325.928 -4.09133 1.20469 0
M  V30 3526 S 326.761 -4.5948 2.75024 0
M  V30 3527 C 327.917 -5.87446 2.16005 0
M  V30 3528 H 328.15 -2.42937 1.71373 0
M  V30 3529 H 325.683 -1.18947 0.984428 0
M  V30 3530 H 327.641 -4.10268 -0.138081 0
M  V30 3531 H 326.302 -3.0669 -0.678234 0
M  V30 3532 H 325.495 -4.98685 0.730019 0
M  V30 3533 H 325.097 -3.4295 1.49202 0
M  V30 3534 H 327.389 -6.60065 1.5271 0
M  V30 3535 H 328.332 -6.39639 3.03756 0
M  V30 3536 H 328.74 -5.41354 1.59989 0
M  V30 3537 N 328.138 -0.959301 -1.25041 0
M  V30 3538 C 329.048 -0.489994 -2.29426 0
M  V30 3539 C 330.064 0.444944 -1.68215 0
M  V30 3540 O 331.24 0.320046 -1.98841 0
M  V30 3541 C 328.305 0.220309 -3.45999 0
M  V30 3542 C 327.366 -0.753418 -4.22637 0
M  V30 3543 C 326.599 -0.076918 -5.33645 0
M  V30 3544 O 326.822 1.13649 -5.58963 0
M  V30 3545 O 325.756 -0.764824 -5.97021 0
M  V30 3546 H 329.582 -1.35755 -2.71669 0
M  V30 3547 H 327.167 -0.725961 -1.30576 0
M  V30 3548 H 329.049 0.619677 -4.16819 0
M  V30 3549 H 327.724 1.06296 -3.0575 0
M  V30 3550 H 326.631 -1.20308 -3.54227 0
M  V30 3551 H 327.964 -1.56423 -4.66683 0
M  V30 3552 N 329.616 1.39756 -0.72842 0
M  V30 3553 C 330.526 2.34444 -0.0855374 0
M  V30 3554 C 331.542 1.57976 0.729356 0
M  V30 3555 O 332.718 1.90301 0.659346 0
M  V30 3556 C 329.783 3.36965 0.815798 0
M  V30 3557 C 328.844 4.29299 -0.0105996 0
M  V30 3558 C 328.077 5.26923 0.84781 0
M  V30 3559 O 328.3 5.30859 2.08673 0
M  V30 3560 O 327.234 6.01249 0.279969 0
M  V30 3561 H 331.06 2.91065 -0.866892 0
M  V30 3562 H 328.645 1.4117 -0.48902 0
M  V30 3563 H 330.527 3.99804 1.33171 0
M  V30 3564 H 329.202 2.82739 1.57608 0
M  V30 3565 H 328.109 3.69703 -0.571877 0
M  V30 3566 H 329.442 4.86712 -0.73295 0
M  V30 3567 N 331.094 0.475555 1.50254 0
M  V30 3568 C 332.024 -0.30611 2.31485 0
M  V30 3569 C 333.005 -0.986228 1.38591 0
M  V30 3570 O 334.19 -0.982541 1.67511 0
M  V30 3571 C 331.32 -1.38588 3.1845 0
M  V30 3572 C 330.274 -0.827115 4.19932 0
M  V30 3573 C 329.6 -2.00551 4.95665 0
M  V30 3574 C 330.9 0.16463 5.2204 0
M  V30 3575 H 332.594 0.371866 2.97082 0
M  V30 3576 H 330.14 0.180282 1.42867 0
M  V30 3577 H 332.093 -1.94023 3.74076 0
M  V30 3578 H 330.817 -2.09269 2.50747 0
M  V30 3579 H 329.476 -0.294702 3.65414 0
M  V30 3580 H 329.124 -2.6994 4.2443 0
M  V30 3581 H 328.824 -1.63784 5.64313 0
M  V30 3582 H 330.348 -2.56468 5.54127 0
M  V30 3583 H 331.762 -0.300699 5.72511 0
M  V30 3584 H 330.159 0.446813 5.98434 0
M  V30 3585 H 331.229 1.08905 4.72512 0
M  V30 3586 N 332.573 -1.56217 0.208337 0
M  V30 3587 C 333.801 -2.02337 -0.43215 0
M  V30 3588 C 334.216 -1.08834 -1.54275 0
M  V30 3589 O 333.573 -0.0955462 -1.8225 0
M  V30 3590 C 333.624 -3.48072 -0.976138 0
M  V30 3591 O 333.345 -4.38007 0.0901621 0
M  V30 3592 C 334.846 -4.09773 -1.69119 0
M  V30 3593 H 332.066 -0.662385 -0.10718 0
M  V30 3594 H 334.61 -2.01966 0.320923 0
M  V30 3595 H 332.765 -3.49099 -1.67954 0
M  V30 3596 H 333.179 -5.23543 -0.316701 0
M  V30 3597 H 334.653 -5.13556 -2.02397 0
M  V30 3598 H 335.13 -3.53999 -2.59964 0
M  V30 3599 H 335.736 -4.12556 -1.03332 0
M  V30 3600 N 334.051 0.0651679 -1.57465 0
M  V30 3601 C 334.961 1.09448 -2.07505 0
M  V30 3602 C 335.977 1.41974 -1.00595 0
M  V30 3603 O 337.153 1.52018 -1.32107 0
M  V30 3604 C 334.218 2.38689 -2.51453 0
M  V30 3605 C 333.279 2.13073 -3.72691 0
M  V30 3606 C 332.512 3.36152 -4.14533 0
M  V30 3607 O 332.735 4.45517 -3.56189 0
M  V30 3608 O 331.669 3.23974 -5.07272 0
M  V30 3609 H 335.495 0.69935 -2.95538 0
M  V30 3610 H 333.08 0.279752 -1.46757 0
M  V30 3611 H 334.962 3.14736 -2.80212 0
M  V30 3612 H 333.637 2.77568 -1.66546 0
M  V30 3613 H 332.544 1.34709 -3.49005 0
M  V30 3614 H 333.877 1.79071 -4.5847 0
M  V30 3615 N 335.529 1.53961 0.336706 0
M  V30 3616 C 336.775 1.7179 1.07777 0
M  V30 3617 C 337.108 0.483263 1.88091 0
M  V30 3618 O 336.383 -0.519747 1.87427 0
M  V30 3619 C 336.666 2.98558 2.01334 0
M  V30 3620 C 336.519 4.32245 1.24437 0
M  V30 3621 C 337.838 3.21023 3.01052 0
M  V30 3622 H 334.957 0.625089 0.390426 0
M  V30 3623 H 337.599 1.86641 0.35567 0
M  V30 3624 H 335.749 2.86028 2.62908 0
M  V30 3625 H 337.421 4.56637 0.654243 0
M  V30 3626 H 335.664 4.30344 0.546458 0
M  V30 3627 H 336.335 5.17137 1.93063 0
M  V30 3628 H 338.811 3.32929 2.49595 0
M  V30 3629 H 337.687 4.11104 3.6371 0
M  V30 3630 H 337.948 2.37637 3.72802 0
M  V30 3631 N 337.007 -0.598083 1.45811 0
M  V30 3632 C 338.256 -1.35295 1.49594 0
M  V30 3633 C 338.569 -1.95057 0.145679 0
M  V30 3634 O 339.775 -2.71431 0.0612099 0
M  V30 3635 C 338.231 -2.45124 2.63519 0
M  V30 3636 C 337.839 -1.91732 4.04899 0
M  V30 3637 C 339.583 -3.2205 2.76558 0
M  V30 3638 C 337.49 -2.991 5.1019 0
M  V30 3639 H 336.42 -0.508552 0.556679 0
M  V30 3640 H 339.071 -0.639977 1.71978 0
M  V30 3641 H 337.453 -3.19149 2.34435 0
M  V30 3642 H 338.627 -1.24352 4.43704 0
M  V30 3643 H 336.942 -1.27522 3.96393 0
M  V30 3644 H 339.539 -4.0215 3.52391 0
M  V30 3645 H 339.882 -3.73663 1.83526 0
M  V30 3646 H 340.415 -2.55127 3.05213 0
M  V30 3647 H 337.154 -2.52393 6.04961 0
M  V30 3648 H 336.674 -3.65017 4.75944 0
M  V30 3649 H 338.353 -3.63318 5.35359 0
M  V30 3650 N 338.485 -1.33259 -0.841409 0
M  V30 3651 C 339.713 -1.27605 -1.62864 0
M  V30 3652 C 340.128 0.153507 -1.88175 0
M  V30 3653 O 339.485 1.09485 -1.46011 0
M  V30 3654 C 339.536 -2.04596 -2.98031 0
M  V30 3655 O 339.257 -3.41975 -2.73834 0
M  V30 3656 C 340.758 -2.06122 -3.92465 0
M  V30 3657 H 337.978 -0.439718 -0.506842 0
M  V30 3658 H 340.522 -1.75591 -1.04824 0
M  V30 3659 H 338.677 -1.60299 -3.5268 0
M  V30 3660 H 339.091 -3.81549 -3.59889 0
M  V30 3661 H 340.565 -2.64451 -4.84531 0
M  V30 3662 H 341.042 -1.05083 -4.26444 0
M  V30 3663 H 341.648 -2.50427 -3.43753 0
M  V30 3664 N 339.963 1.05934 -1.16686 0
M  V30 3665 C 340.926 2.11669 -0.879144 0
M  V30 3666 C 341.926 1.60294 0.127445 0
M  V30 3667 O 343.116 1.7389 -0.103865 0
M  V30 3668 C 340.248 3.39438 -0.315425 0
M  V30 3669 H 341.441 2.38626 -1.81653 0
M  V30 3670 H 338.994 1.22058 -0.976299 0
M  V30 3671 H 339.729 3.18132 0.629468 0
M  V30 3672 H 339.514 3.78034 -1.04079 0
M  V30 3673 H 341.004 4.17391 -0.132189 0
M  V30 3674 N 341.441 0.965919 1.2453 0
M  V30 3675 C 342.404 0.499547 2.2369 0
M  V30 3676 C 343.404 -0.40294 1.5567 0
M  V30 3677 O 344.594 -0.19865 1.73064 0
M  V30 3678 C 341.726 -0.276792 3.39774 0
M  V30 3679 H 342.919 1.37613 2.66463 0
M  V30 3680 H 340.472 0.750324 1.37112 0
M  V30 3681 H 341.207 -1.17055 3.02438 0
M  V30 3682 H 340.992 0.370826 3.90343 0
M  V30 3683 H 342.482 -0.592175 4.1338 0
M  V30 3684 N 342.919 -1.39368 0.735821 0
M  V30 3685 C 343.829 -2.34395 0.0979693 0
M  V30 3686 C 344.845 -1.58361 -0.720968 0
M  V30 3687 O 346.021 -1.90648 -0.649245 0
M  V30 3688 C 343.086 -3.37393 -0.797916 0
M  V30 3689 C 342.147 -4.29287 0.0333662 0
M  V30 3690 C 341.38 -5.27365 -0.819854 0
M  V30 3691 O 341.603 -5.31959 -2.05855 0
M  V30 3692 O 340.537 -6.01389 -0.248079 0
M  V30 3693 H 344.363 -2.90601 0.882315 0
M  V30 3694 H 341.948 -1.40909 0.4965 0
M  V30 3695 H 343.83 -4.00505 -1.31048 0
M  V30 3696 H 342.505 -2.83571 -1.56106 0
M  V30 3697 H 341.412 -3.69395 0.591475 0
M  V30 3698 H 342.745 -4.86317 0.758752 0
M  V30 3699 N 344.397 -0.483516 -1.5 0
M  V30 3700 C 345.644 0.0671597 -2.02389 0
M  V30 3701 C 345.972 1.38597 -1.36459 0
M  V30 3702 O 345.227 1.89634 -0.483458 0
M  V30 3703 C 345.526 0.286226 -3.56252 0
M  V30 3704 C 345.192 -0.952416 -4.40726 0
M  V30 3705 C 343.854 -1.29199 -4.63531 0
M  V30 3706 C 346.206 -1.77655 -4.89988 0
M  V30 3707 C 343.534 -2.45553 -5.32842 0
M  V30 3708 C 345.886 -2.93147 -5.60578 0
M  V30 3709 C 344.55 -3.27505 -5.81633 0
M  V30 3710 H 343.82 0.0245755 -0.740592 0
M  V30 3711 H 346.467 -0.640124 -1.80485 0
M  V30 3712 H 344.772 1.07587 -3.76739 0
M  V30 3713 H 346.469 0.726473 -3.94365 0
M  V30 3714 H 343.059 -0.677881 -4.23205 0
M  V30 3715 H 347.243 -1.52737 -4.72213 0
M  V30 3716 H 342.499 -2.72431 -5.47349 0
M  V30 3717 H 346.673 -3.57344 -5.97727 0
M  V30 3718 H 344.3 -4.1777 -6.35116 0
M  V30 3719 N 345.875 1.56104 -0.216619 0
M  V30 3720 C 346.825 2.16703 0.708798 0
M  V30 3721 C 347.809 1.11392 1.16106 0
M  V30 3722 O 349.001 1.37395 1.11587 0
M  V30 3723 C 346.13 2.84666 1.91886 0
M  V30 3724 C 345.216 3.97195 1.48651 0
M  V30 3725 N 345.607 4.99959 0.766434 0
M  V30 3726 C 343.905 4.09193 1.77418 0
M  V30 3727 C 344.606 5.79126 0.546659 0
M  V30 3728 N 343.582 5.32315 1.10188 0
M  V30 3729 H 347.384 2.93516 0.150162 0
M  V30 3730 H 344.898 1.6239 -0.0176768 0
M  V30 3731 H 346.895 3.26486 2.59253 0
M  V30 3732 H 345.555 2.09347 2.48202 0
M  V30 3733 H 346.566 5.16197 0.419634 0
M  V30 3734 H 343.243 3.45021 2.35088 0
M  V30 3735 H 344.633 6.71895 -0.026103 0
M  V30 3736 N 347.353 -0.0568162 1.57498 0
M  V30 3737 C 348.764 -0.606858 1.76562 0
M  V30 3738 C 349.115 -1.77114 0.844094 0
M  V30 3739 O 348.24 -2.16376 0.0318911 0
M  V30 3740 C 348.835 -1.10766 3.20182 0
M  V30 3741 C 347.394 -1.60344 3.40539 0
M  V30 3742 C 346.541 -0.529311 2.72201 0
M  V30 3743 H 349.492 0.169393 1.57793 0
M  V30 3744 H 349.513 -1.97602 3.25167 0
M  V30 3745 H 349.025 -0.26006 3.87228 0
M  V30 3746 H 347.126 -2.47379 2.78629 0
M  V30 3747 H 347.239 -1.67006 4.4905 0
M  V30 3748 H 345.603 -0.977893 2.35179 0
M  V30 3749 H 346.386 0.308352 3.41912 0
M  V30 3750 N 348.832 -1.54138 -0.328536 0
M  V30 3751 C 349.78 -1.83894 -1.42428 0
M  V30 3752 C 350.774 -0.710478 -1.53781 0
M  V30 3753 O 351.98 -0.894062 -1.56226 0
M  V30 3754 H 348.355 -0.582837 -0.475189 0
M  V30 3755 H 350.326 -2.75537 -1.14552 0
M  V30 3756 C 349.075 -2.07866 -2.78724 0
M  V30 3757 H 348.398 -2.94158 -2.7076 0
M  V30 3758 H 349.838 -2.32644 -3.54476 0
M  V30 3759 C 348.297 -0.868689 -3.25508 0
M  V30 3760 O 348.827 -0.0754908 -4.01629 0
M  V30 3761 N 347.033 -0.681711 -2.82491 0
M  V30 3762 H 346.58 -1.32838 -2.20708 0
M  V30 3763 H 346.538 0.126374 -3.14146 0
M  V30 3764 N 350.31 0.590341 -1.46126 0
M  V30 3765 C 351.535 1.37991 -1.54833 0
M  V30 3766 C 351.96 1.87163 -0.187506 0
M  V30 3767 O 351.318 1.61133 0.831008 0
M  V30 3768 C 351.366 2.54867 -2.55098 0
M  V30 3769 O 350.47 3.56061 -2.08073 0
M  V30 3770 H 349.811 0.411265 -0.521303 0
M  V30 3771 H 352.341 0.716819 -1.91632 0
M  V30 3772 H 352.351 3.01886 -2.74461 0
M  V30 3773 H 351.026 2.18429 -3.53923 0
M  V30 3774 H 349.603 3.15574 -1.98664 0
M  V30 3775 N 351.788 1.33704 0.83433 0
M  V30 3776 C 353.028 1.26754 1.60352 0
M  V30 3777 C 353.392 -0.163182 1.91305 0
M  V30 3778 O 354.593 -0.3567 2.66423 0
M  V30 3779 C 352.864 2.12262 2.8754 0
M  V30 3780 S 354.423 2.22549 3.78176 0
M  V30 3781 H 351.241 0.450879 0.549753 0
M  V30 3782 H 353.843 1.68788 0.986444 0
M  V30 3783 H 352.547 3.15238 2.62779 0
M  V30 3784 H 352.078 1.71082 3.54252 0
M  V30 3785 H 354.093 1.3899 4.76336 0
M  V30 3786 N 353.266 -1.05314 1.17247 0
M  V30 3787 C 354.214 -2.15137 0.884238 0
M  V30 3788 C 355.208 -1.68729 -0.15063 0
M  V30 3789 O 356.414 -1.8 -0.00366673 0
M  V30 3790 H 352.789 -0.702471 0.2684 0
M  V30 3791 H 354.76 -2.36652 1.81764 0
M  V30 3792 C 353.509 -3.45243 0.412659 0
M  V30 3793 H 352.832 -3.81352 1.20043 0
M  V30 3794 H 354.272 -4.23263 0.249858 0
M  V30 3795 C 352.731 -3.25487 -0.86948 0
M  V30 3796 O 353.261 -3.51938 -1.93655 0
M  V30 3797 N 351.467 -2.78875 -0.817147 0
M  V30 3798 H 351.014 -2.57549 0.0514211 0
M  V30 3799 H 350.972 -2.66036 -1.67547 0
M  V30 3800 N 354.744 -0.972509 -1.24016 0
M  V30 3801 C 355.972 -0.654803 -1.96265 0
M  V30 3802 C 356.387 0.776708 -1.72083 0
M  V30 3803 O 355.744 1.52171 -1.00748 0
M  V30 3804 C 355.795 -0.92592 -3.49441 0
M  V30 3805 O 355.516 -2.30116 -3.72798 0
M  V30 3806 C 357.017 -0.623068 -4.38899 0
M  V30 3807 H 354.237 -0.243907 -0.6251 0
M  V30 3808 H 356.781 -1.30175 -1.57717 0
M  V30 3809 H 354.936 -0.325108 -3.86033 0
M  V30 3810 H 355.35 -2.38483 -4.67147 0
M  V30 3811 H 356.824 -0.863189 -5.45209 0
M  V30 3812 H 357.301 0.442754 -4.36963 0
M  V30 3813 H 357.907 -1.204 -4.07902 0
M  V30 3814 N 356.222 1.38976 -0.743202 0
M  V30 3815 C 357.469 2.00343 -0.294752 0
M  V30 3816 C 357.797 1.58983 1.12047 0
M  V30 3817 O 357.052 0.813809 1.77977 0
M  V30 3818 C 357.351 3.55647 -0.353517 0
M  V30 3819 C 357.017 4.16685 -1.72292 0
M  V30 3820 C 355.679 4.3307 -2.09771 0
M  V30 3821 C 358.031 4.50464 -2.62168 0
M  V30 3822 C 355.359 4.80526 -3.36618 0
M  V30 3823 C 357.711 4.99332 -3.88395 0
M  V30 3824 C 356.375 5.13924 -4.25956 0
M  V30 3825 H 355.645 0.733108 -0.107857 0
M  V30 3826 H 358.292 1.6618 -0.951651 0
M  V30 3827 H 356.597 3.89884 0.386954 0
M  V30 3828 H 358.294 4.00998 0.0117269 0
M  V30 3829 H 354.884 4.04339 -1.42155 0
M  V30 3830 H 359.068 4.37416 -2.3448 0
M  V30 3831 H 354.324 4.90008 -3.65653 0
M  V30 3832 H 358.498 5.2444 -4.58187 0
M  V30 3833 H 356.125 5.50457 -5.2431 0
M  V30 3834 N 357.7 0.491464 1.49741 0
M  V30 3835 C 358.946 -0.0565092 2.02721 0
M  V30 3836 C 359.279 -1.37522 1.37118 0
M  V30 3837 O 358.554 -1.87866 0.503645 0
M  V30 3838 C 358.837 -0.219051 3.59433 0
M  V30 3839 C 358.69 1.12211 4.35579 0
M  V30 3840 C 360.009 -0.964157 4.29409 0
M  V30 3841 H 357.128 -0.0190627 0.736753 0
M  V30 3842 H 359.77 0.641021 1.7886 0
M  V30 3843 H 357.92 -0.813165 3.79895 0
M  V30 3844 H 359.592 1.75437 4.26637 0
M  V30 3845 H 357.835 1.71377 3.98513 0
M  V30 3846 H 358.506 0.961794 5.43556 0
M  V30 3847 H 360.982 -0.460378 4.13545 0
M  V30 3848 H 359.858 -1.04671 5.38828 0
M  V30 3849 H 360.119 -2.00563 3.93988 0
M  V30 3850 N 359.178 -1.55987 0.224894 0
M  V30 3851 C 360.408 -2.02489 -0.41007 0
M  V30 3852 C 360.816 -1.10391 -1.53657 0
M  V30 3853 O 360.159 -0.106458 -1.83391 0
M  V30 3854 C 360.221 -3.45319 -0.999757 0
M  V30 3855 C 359.885 -4.56999 -0.00827976 0
M  V30 3856 C 360.882 -5.13812 0.793314 0
M  V30 3857 C 358.567 -5.02176 0.111442 0
M  V30 3858 C 360.561 -6.14276 1.7013 0
M  V30 3859 C 358.248 -6.02477 1.02296 0
M  V30 3860 C 359.246 -6.58403 1.81643 0
M  V30 3861 O 358.934 -7.56751 2.71262 0
M  V30 3862 H 358.666 -0.667915 -0.104235 0
M  V30 3863 H 361.22 -2.0257 0.339782 0
M  V30 3864 H 359.45 -3.42318 -1.79876 0
M  V30 3865 H 361.139 -3.7545 -1.54248 0
M  V30 3866 H 361.905 -4.79756 0.711288 0
M  V30 3867 H 357.784 -4.58323 -0.49605 0
M  V30 3868 H 361.328 -6.57854 2.32107 0
M  V30 3869 H 357.225 -6.35954 1.10599 0
M  V30 3870 H 357.993 -7.74286 2.65375 0
M  V30 3871 N 360.656 0.0484629 -1.57525 0
M  V30 3872 C 361.881 0.759177 -1.93006 0
M  V30 3873 C 362.306 1.69125 -0.823317 0
M  V30 3874 O 361.664 1.79931 0.222364 0
M  V30 3875 C 361.712 1.50899 -3.27509 0
M  V30 3876 O 360.816 2.62112 -3.18388 0
M  V30 3877 H 360.157 0.205564 -0.631379 0
M  V30 3878 H 362.687 0.00972959 -2.04598 0
M  V30 3879 H 362.697 1.88317 -3.6194 0
M  V30 3880 H 361.372 0.825269 -4.0763 0
M  V30 3881 H 359.949 2.27379 -2.95556 0
M  V30 3882 N 362.134 1.5431 0.320358 0
M  V30 3883 C 363.359 1.76954 1.08175 0
M  V30 3884 C 363.784 0.518193 1.80821 0
M  V30 3885 O 363.142 -0.530411 1.73368 0
M  V30 3886 C 363.19 2.96451 2.05303 0
M  V30 3887 O 362.294 2.68221 3.13259 0
M  V30 3888 H 361.635 0.586275 0.311733 0
M  V30 3889 H 364.165 2.01342 0.363676 0
M  V30 3890 H 364.175 3.23887 2.48116 0
M  V30 3891 H 362.85 3.87196 1.51829 0
M  V30 3892 H 361.427 2.51744 2.75099 0
M  V30 3893 N 363.613 -0.582584 1.46437 0
M  V30 3894 C 364.838 -1.37168 1.55563 0
M  V30 3895 C 365.263 -1.87061 0.19743 0
M  V30 3896 O 364.621 -1.61572 -0.822451 0
M  V30 3897 C 364.669 -2.53511 2.56446 0
M  V30 3898 O 363.773 -3.54953 2.09958 0
M  V30 3899 H 363.114 -0.408494 0.523477 0
M  V30 3900 H 365.644 -0.706646 1.9201 0
M  V30 3901 H 365.654 -3.00426 2.76058 0
M  V30 3902 H 364.329 -2.16549 3.55076 0
M  V30 3903 H 362.906 -3.14516 2.00334 0
M  V30 3904 N 365.091 -1.34144 -0.827227 0
M  V30 3905 C 366.038 -1.25364 -1.93785 0
M  V30 3906 C 367.008 -0.129774 -1.65592 0
M  V30 3907 O 368.193 -0.310024 -1.88264 0
M  V30 3908 C 365.333 -1.01064 -3.2997 0
M  V30 3909 C 364.446 -2.22185 -3.70484 0
M  V30 3910 C 363.581 -1.91203 -4.95595 0
M  V30 3911 C 362.62 -3.08491 -5.28677 0
M  V30 3912 N 361.757 -2.77421 -6.44967 0
M  V30 3913 H 366.597 -2.20347 -2.00627 0
M  V30 3914 H 364.134 -1.09558 -0.981608 0
M  V30 3915 H 366.092 -0.850139 -4.08446 0
M  V30 3916 H 364.722 -0.0975026 -3.22653 0
M  V30 3917 H 363.774 -2.4917 -2.87434 0
M  V30 3918 H 365.086 -3.0983 -3.90905 0
M  V30 3919 H 364.24 -1.71864 -5.81848 0
M  V30 3920 H 362.979 -1.00812 -4.77167 0
M  V30 3921 H 361.984 -3.28431 -4.40923 0
M  V30 3922 H 363.209 -3.99655 -5.49047 0
M  V30 3923 H 361.155 -1.89601 -6.28003 0
M  V30 3924 H 361.072 -3.58598 -6.6554 0
M  V30 3925 H 362.34 -2.61577 -7.34301 0
M  V30 3926 N 366.569 1.04691 -1.17803 0
M  V30 3927 C 367.817 1.7743 -0.967617 0
M  V30 3928 C 368.138 1.88359 0.504574 0
M  V30 3929 O 367.408 1.40402 1.36617 0
M  V30 3930 H 365.988 0.657242 -0.355024 0
M  V30 3931 H 368.65 1.2638 -1.48371 0
M  V30 3932 H 367.746 2.78924 -1.40027 0
M  V30 3933 N 368.047 0.979072 1.23499 0
M  V30 3934 C 369.275 0.665202 1.95915 0
M  V30 3935 C 369.69 -0.767571 1.72493 0
M  V30 3936 O 369.047 -1.51635 1.01554 0
M  V30 3937 C 369.098 0.944438 3.48945 0
M  V30 3938 O 368.819 2.3209 3.71572 0
M  V30 3939 C 370.32 0.646336 4.38563 0
M  V30 3940 H 367.54 0.247218 0.623798 0
M  V30 3941 H 370.084 1.31009 1.57025 0
M  V30 3942 H 368.239 0.345575 3.85856 0
M  V30 3943 H 368.653 2.40957 4.65876 0
M  V30 3944 H 370.127 0.892091 5.44744 0
M  V30 3945 H 370.604 -0.419575 4.37191 0
M  V30 3946 H 371.21 1.22562 4.07258 0
M  V30 3947 N 369.525 -1.3858 0.750561 0
M  V30 3948 C 370.774 -1.99424 0.302172 0
M  V30 3949 C 371.087 -1.60254 -1.12152 0
M  V30 3950 O 372.293 -2.14046 -1.67023 0
M  V30 3951 C 370.749 -3.56558 0.489307 0
M  V30 3952 C 370.357 -4.04682 1.92189 0
M  V30 3953 C 372.101 -4.24374 0.103478 0
M  V30 3954 C 370.008 -5.54446 2.05775 0
M  V30 3955 H 368.938 -0.746046 0.10923 0
M  V30 3956 H 371.589 -1.58383 0.92667 0
M  V30 3957 H 369.971 -3.95472 -0.204329 0
M  V30 3958 H 371.145 -3.77065 2.64875 0
M  V30 3959 H 369.46 -3.4958 2.26236 0
M  V30 3960 H 372.057 -5.34384 0.183787 0
M  V30 3961 H 372.4 -4.05468 -0.943481 0
M  V30 3962 H 372.933 -3.90688 0.748854 0
M  V30 3963 H 369.672 -5.78252 3.08714 0
M  V30 3964 H 369.192 -5.83816 1.37546 0
M  V30 3965 H 370.871 -6.20099 1.84626 0
M  V30 3966 N 371.003 -0.499398 -1.49478 0
M  V30 3967 C 372.419 -0.155261 -1.58843 0
M  V30 3968 C 372.619 1.34008 -1.50479 0
M  V30 3969 O 371.675 2.11589 -1.37791 0
M  V30 3970 C 372.988 -0.730636 -2.91689 0
M  V30 3971 C 374.536 -0.696599 -3.0515 0
M  V30 3972 C 375.011 -1.25001 -4.40612 0
M  V30 3973 N 376.502 -1.21064 -4.47099 0
M  V30 3974 C 377.237 -1.60905 -5.50361 0
M  V30 3975 N 376.733 -2.08331 -6.60735 0
M  V30 3976 N 378.526 -1.52331 -5.41065 0
M  V30 3977 H 370.677 -1.47162 -1.53158 0
M  V30 3978 H 372.94 -0.610309 -0.725415 0
M  V30 3979 H 372.646 -1.77928 -3.03372 0
M  V30 3980 H 372.52 -0.190161 -3.7672 0
M  V30 3981 H 374.907 0.343204 -2.93097 0
M  V30 3982 H 374.988 -1.2742 -2.21806 0
M  V30 3983 H 374.632 -2.28859 -4.53416 0
M  V30 3984 H 374.562 -0.64836 -5.22593 0
M  V30 3985 H 377.053 -0.863128 -3.67911 0
M  V30 3986 H 377.366 -2.36805 -7.35624 0
M  V30 3987 H 375.711 -2.12304 -6.6178 0
M  V30 3988 H 378.902 -1.151 -4.53729 0
M  V30 3989 H 379.075 -1.83704 -6.21415 0
M  V30 3990 N 372.481 1.55866 -0.233164 0
M  V30 3991 C 373.411 2.23783 0.666599 0
M  V30 3992 C 374.392 1.21343 1.19205 0
M  V30 3993 O 375.577 1.4996 1.23392 0
M  V30 3994 C 372.707 2.92671 1.86978 0
M  V30 3995 C 371.661 4.01682 1.47768 0
M  V30 3996 C 370.987 4.57926 2.76058 0
M  V30 3997 C 372.287 5.18126 0.658993 0
M  V30 3998 H 373.981 2.99232 0.100306 0
M  V30 3999 H 371.527 1.43924 0.046804 0
M  V30 4000 H 373.48 3.3888 2.50476 0
M  V30 4001 H 372.204 2.14688 2.46123 0
M  V30 4002 H 370.863 3.56222 0.866106 0
M  V30 4003 H 370.511 3.76659 3.33372 0
M  V30 4004 H 370.211 5.31505 2.50552 0
M  V30 4005 H 371.735 5.06859 3.40479 0
M  V30 4006 H 373.149 5.60644 1.19795 0
M  V30 4007 H 371.546 5.98009 0.500552 0
M  V30 4008 H 372.616 4.83763 -0.331856 0
M  V30 4009 N 373.959 -0.0401083 1.57549 0
M  V30 4010 C 375.199 -0.738098 1.90608 0
M  V30 4011 C 375.563 -1.73107 0.830539 0
M  V30 4012 O 376.764 -2.4765 1.04513 0
M  V30 4013 C 375.035 -1.39985 3.28845 0
M  V30 4014 S 376.594 -2.12852 3.83718 0
M  V30 4015 H 373.412 -0.24477 0.667539 0
M  V30 4016 H 376.014 0.00693599 1.95499 0
M  V30 4017 H 374.718 -0.663775 4.04997 0
M  V30 4018 H 374.249 -2.18366 3.2723 0
M  V30 4019 H 376.264 -3.39842 3.61555 0
M  V30 4020 N 375.437 -1.54477 -0.31217 0
M  V30 4021 C 376.714 -1.63891 -1.06767 0
M  V30 4022 C 377.094 -0.480028 -2.0557 0
M  V30 4023 O 376.442 0.524487 -2.22399 0
M  V30 4024 C 376.652 -3.01402 -1.75948 0
M  V30 4025 C 378 -3.57838 -2.28554 0
M  V30 4026 O 379.024 -3.03782 -1.85998 0
M  V30 4027 O 377.883 -4.52462 -3.06497 0
M  V30 4028 H 374.977 -0.664125 -0.492816 0
M  V30 4029 H 377.523 -1.66823 -0.311149 0
M  V30 4030 H 376.295 -3.77187 -1.04144 0
M  V30 4031 H 375.918 -3.02199 -2.58383 0
M  V30 4032 N 376.915 0.57481 -1.46744 0
M  V30 4033 C 377.848 1.69827 -1.52427 0
M  V30 4034 C 378.826 1.58151 -0.377744 0
M  V30 4035 O 380.01 1.79257 -0.58303 0
M  V30 4036 C 377.137 3.07943 -1.41027 0
M  V30 4037 C 376.183 3.38116 -2.59961 0
M  V30 4038 S 377.016 3.29313 -4.22272 0
M  V30 4039 C 378.172 4.69953 -4.13394 0
M  V30 4040 H 378.405 1.64748 -2.47478 0
M  V30 4041 H 375.938 0.754203 -1.34726 0
M  V30 4042 H 377.896 3.87619 -1.35137 0
M  V30 4043 H 376.557 3.10504 -0.473909 0
M  V30 4044 H 375.75 4.38762 -2.47999 0
M  V30 4045 H 375.352 2.66024 -2.62882 0
M  V30 4046 H 377.644 5.60517 -3.80562 0
M  V30 4047 H 378.587 4.86972 -5.14066 0
M  V30 4048 H 378.995 4.47174 -3.44522 0
M  V30 4049 N 378.394 1.34581 0.820102 0
M  V30 4050 C 379.81 1.14325 1.11364 0
M  V30 4051 C 380.01 -0.0533648 2.01429 0
M  V30 4052 O 379.066 -0.728044 2.41776 0
M  V30 4053 C 380.379 2.43983 1.75764 0
M  V30 4054 C 381.927 2.50065 1.88246 0
M  V30 4055 C 382.402 3.79732 2.56061 0
M  V30 4056 N 383.893 3.80908 2.63558 0
M  V30 4057 C 384.628 4.77961 3.16766 0
M  V30 4058 N 384.124 5.85397 3.70517 0
M  V30 4059 N 385.917 4.65413 3.15194 0
M  V30 4060 H 378.068 2.11246 0.221096 0
M  V30 4061 H 380.331 0.934289 0.160649 0
M  V30 4062 H 380.037 3.31651 1.1705 0
M  V30 4063 H 379.911 2.57531 2.75604 0
M  V30 4064 H 382.298 1.62834 2.46108 0
M  V30 4065 H 382.379 2.40442 0.873006 0
M  V30 4066 H 382.023 4.67354 1.98853 0
M  V30 4067 H 381.953 3.86639 3.57516 0
M  V30 4068 H 384.444 3.03274 2.25463 0
M  V30 4069 H 384.757 6.55463 4.09376 0
M  V30 4070 H 383.102 5.89107 3.68752 0
M  V30 4071 H 386.293 3.80627 2.72471 0
M  V30 4072 H 386.466 5.41216 3.56356 0
M  V30 4073 N 379.872 -1.04064 1.18357 0
M  V30 4074 C 380.835 -2.10243 0.912707 0
M  V30 4075 C 381.835 -1.60477 -0.101928 0
M  V30 4076 O 383.025 -1.73703 0.131517 0
M  V30 4077 C 380.157 -3.38893 0.369387 0
M  V30 4078 H 381.35 -2.35706 1.85426 0
M  V30 4079 H 378.903 -1.20489 0.995594 0
M  V30 4080 H 379.638 -3.19094 -0.578776 0
M  V30 4081 H 379.423 -3.76331 1.1008 0
M  V30 4082 H 380.913 -4.17128 0.198575 0
M  V30 4083 N 381.35 -0.985608 -1.22978 0
M  V30 4084 C 382.575 -0.675254 -1.961 0
M  V30 4085 C 383 0.752154 -1.72407 0
M  V30 4086 O 382.358 1.5131 -0.998751 0
M  V30 4087 C 382.406 -0.977899 -3.47087 0
M  V30 4088 O 381.51 -0.072685 -4.12336 0
M  V30 4089 H 380.851 -0.253443 -0.613728 0
M  V30 4090 H 383.381 -1.32061 -1.56272 0
M  V30 4091 H 383.391 -0.916739 -3.97567 0
M  V30 4092 H 382.066 -2.01807 -3.63657 0
M  V30 4093 H 380.643 -0.188703 -3.72422 0
M  V30 4094 N 382.828 1.3818 -0.7579 0
M  V30 4095 C 383.791 2.28764 -0.141286 0
M  V30 4096 C 384.791 1.47388 0.642907 0
M  V30 4097 O 385.981 1.67781 0.468536 0
M  V30 4098 C 383.113 3.31184 0.808069 0
M  V30 4099 H 384.306 2.848 -0.939633 0
M  V30 4100 H 381.859 1.47212 -0.525191 0
M  V30 4101 H 382.594 2.80247 1.63193 0
M  V30 4102 H 382.379 3.91314 0.248104 0
M  V30 4103 H 383.869 3.98909 1.23536 0
M  V30 4104 N 384.306 0.507319 1.49211 0
M  V30 4105 C 385.236 -0.256939 2.32082 0
M  V30 4106 C 386.217 -0.956609 1.40652 0
M  V30 4107 O 387.402 -0.946788 1.69557 0
M  V30 4108 C 384.532 -1.31802 3.21318 0
M  V30 4109 C 383.486 -0.737855 4.21592 0
M  V30 4110 C 382.812 -1.89992 4.99807 0
M  V30 4111 C 384.112 0.275325 5.21574 0
M  V30 4112 H 385.806 0.434798 2.96226 0
M  V30 4113 H 383.352 0.210546 1.42452 0
M  V30 4114 H 385.305 -1.86045 3.78107 0
M  V30 4115 H 384.029 -2.03903 2.5513 0
M  V30 4116 H 382.688 -0.217126 3.65956 0
M  V30 4117 H 382.336 -2.60877 4.30061 0
M  V30 4118 H 382.036 -1.51777 5.6766 0
M  V30 4119 H 383.56 -2.44657 5.59442 0
M  V30 4120 H 384.974 -0.179193 5.7302 0
M  V30 4121 H 383.371 0.573649 5.97352 0
M  V30 4122 H 384.441 1.18903 4.70096 0
M  V30 4123 N 385.784 -1.5574 0.241426 0
M  V30 4124 C 387.024 -2.00714 -0.38644 0
M  V30 4125 C 387.388 -1.12586 -1.55526 0
M  V30 4126 O 388.589 -1.46992 -2.25048 0
M  V30 4127 C 386.86 -3.48534 -0.791128 0
M  V30 4128 S 388.419 -4.15519 -1.41029 0
M  V30 4129 H 385.237 -0.700484 -0.121834 0
M  V30 4130 H 387.839 -1.92243 0.355377 0
M  V30 4131 H 386.543 -4.10342 0.0689225 0
M  V30 4132 H 386.074 -3.6092 -1.56526 0
M  V30 4133 H 388.089 -4.16352 -2.69936 0
M  V30 4134 N 387.262 0.0317525 -1.57568 0
M  V30 4135 C 388.539 0.758366 -1.803 0
M  V30 4136 C 388.919 1.93718 -0.838845 0
M  V30 4137 O 388.267 2.28187 0.119571 0
M  V30 4138 C 388.477 1.19392 -3.27943 0
M  V30 4139 C 389.825 1.61094 -3.92854 0
M  V30 4140 O 390.849 1.28857 -3.32076 0
M  V30 4141 O 389.708 2.20918 -4.99858 0
M  V30 4142 H 386.802 0.366514 -0.741348 0
M  V30 4143 H 389.348 0.00873765 -1.69698 0
M  V30 4144 H 388.12 0.352275 -3.89711 0
M  V30 4145 H 387.743 2.00365 -3.43424 0
M  V30 4146 N 388.74 1.54641 0.303973 0
M  V30 4147 C 390.156 1.45788 0.649463 0
M  V30 4148 C 390.356 0.64666 1.90842 0
M  V30 4149 O 389.412 0.153183 2.52035 0
M  V30 4150 C 390.725 2.89718 0.805227 0
M  V30 4151 C 392.273 2.99742 0.901305 0
M  V30 4152 C 392.748 4.44863 1.08909 0
M  V30 4153 N 394.239 4.48559 1.15536 0
M  V30 4154 C 394.974 5.58026 1.3189 0
M  V30 4155 N 394.47 6.77422 1.45161 0
M  V30 4156 N 396.263 5.45708 1.34755 0
M  V30 4157 H 388.414 2.05854 -0.523237 0
M  V30 4158 H 390.677 0.932186 -0.172431 0
M  V30 4159 H 390.383 3.51666 -0.0489108 0
M  V30 4160 H 390.257 3.36964 1.69513 0
M  V30 4161 H 392.644 2.3791 1.74593 0
M  V30 4162 H 392.725 2.55797 -0.0125531 0
M  V30 4163 H 392.369 5.07288 0.249241 0
M  V30 4164 H 392.299 4.86436 2.01713 0
M  V30 4165 H 394.79 3.6254 1.06646 0
M  V30 4166 H 395.103 7.56604 1.57387 0
M  V30 4167 H 393.448 6.80292 1.42223 0
M  V30 4168 H 396.639 4.51378 1.23996 0
M  V30 4169 H 396.812 6.3107 1.47157 0
M  V30 4170 N 390.218 -0.567019 1.47046 0
M  V30 4171 C 391.168 -1.67018 1.55207 0
M  V30 4172 C 392.152 -1.55543 0.411714 0
M  V30 4173 O 393.344 -1.64192 0.661064 0
M  V30 4174 C 390.473 -3.05801 1.56014 0
M  V30 4175 C 389.559 -3.22515 2.75399 0
M  V30 4176 N 389.95 -3.09329 4.00186 0
M  V30 4177 C 388.248 -3.53493 2.71954 0
M  V30 4178 C 388.949 -3.2847 4.80086 0
M  V30 4179 N 387.925 -3.54352 4.12233 0
M  V30 4180 H 391.727 -1.55377 2.4947 0
M  V30 4181 H 389.241 -0.771503 1.42904 0
M  V30 4182 H 391.238 -3.84996 1.59949 0
M  V30 4183 H 389.898 -3.18561 0.628396 0
M  V30 4184 H 390.909 -2.86863 4.31196 0
M  V30 4185 H 387.586 -3.7284 1.87873 0
M  V30 4186 H 388.976 -3.23326 5.88991 0
M  V30 4187 N 391.696 -1.35014 -0.812953 0
M  V30 4188 C 392.921 -1.31187 -1.60639 0
M  V30 4189 C 393.346 0.109382 -1.87782 0
M  V30 4190 O 392.704 1.07424 -1.46047 0
M  V30 4191 C 392.752 -2.11809 -2.91838 0
M  V30 4192 O 391.856 -1.49444 -3.8437 0
M  V30 4193 H 391.197 -0.450084 -0.488181 0
M  V30 4194 H 393.727 -1.77963 -1.00947 0
M  V30 4195 H 393.737 -2.23531 -3.41318 0
M  V30 4196 H 392.412 -3.15137 -2.71407 0
M  V30 4197 H 390.989 -1.46524 -3.42907 0
M  V30 4198 N 393.175 1.03435 -1.18907 0
M  V30 4199 C 394.122 2.11591 -0.921837 0
M  V30 4200 C 395.092 1.65499 0.141226 0
M  V30 4201 O 396.277 1.908 0.000242829 0
M  V30 4202 C 393.417 3.42012 -0.460616 0
M  V30 4203 C 392.53 4.01682 -1.58982 0
M  V30 4204 C 391.665 5.20091 -1.08069 0
M  V30 4205 C 390.704 5.71805 -2.18416 0
M  V30 4206 N 389.841 6.81494 -1.68849 0
M  V30 4207 H 394.681 2.33787 -1.8479 0
M  V30 4208 H 392.218 1.1467 -0.921373 0
M  V30 4209 H 394.176 4.16834 -0.174642 0
M  V30 4210 H 392.806 3.19944 0.428467 0
M  V30 4211 H 391.858 3.24127 -1.99113 0
M  V30 4212 H 393.17 4.36084 -2.4214 0
M  V30 4213 H 392.324 6.02051 -0.749615 0
M  V30 4214 H 391.063 4.87209 -0.218771 0
M  V30 4215 H 390.068 4.88461 -2.5236 0
M  V30 4216 H 391.293 6.06728 -3.05054 0
M  V30 4217 H 389.239 6.50475 -0.849572 0
M  V30 4218 H 389.156 7.14994 -2.45601 0
M  V30 4219 H 390.424 7.67063 -1.38689 0
M  V30 4220 N 394.653 0.992116 1.22453 0
M  V30 4221 C 395.583 0.561677 2.26644 0
M  V30 4222 C 396.564 -0.411055 1.65059 0
M  V30 4223 O 397.749 -0.301861 1.9184 0
M  V30 4224 C 394.879 -0.125247 3.47074 0
M  V30 4225 C 393.833 0.765948 4.21091 0
M  V30 4226 C 393.159 -0.0538484 5.34673 0
M  V30 4227 C 394.459 2.06242 4.79856 0
M  V30 4228 H 396.153 1.43259 2.62902 0
M  V30 4229 H 393.699 0.690283 1.26377 0
M  V30 4230 H 395.652 -0.437764 4.1912 0
M  V30 4231 H 394.376 -1.03069 3.0991 0
M  V30 4232 H 393.035 1.0621 3.50878 0
M  V30 4233 H 392.683 -0.960188 4.9375 0
M  V30 4234 H 392.383 0.539415 5.85119 0
M  V30 4235 H 393.907 -0.360477 6.09535 0
M  V30 4236 H 395.321 1.8139 5.43848 0
M  V30 4237 H 393.718 2.60444 5.40638 0
M  V30 4238 H 394.788 2.74167 3.99951 0
M  V30 4239 N 396.131 -1.37776 0.765217 0
M  V30 4240 C 397.378 -1.99849 0.326588 0
M  V30 4241 C 397.706 -1.60746 -1.09504 0
M  V30 4242 O 396.961 -0.84202 -1.76659 0
M  V30 4243 C 397.26 -3.5504 0.410053 0
M  V30 4244 C 396.926 -4.13891 1.78899 0
M  V30 4245 C 395.588 -4.29678 2.16635 0
M  V30 4246 C 397.94 -4.46236 2.69301 0
M  V30 4247 C 395.268 -4.7511 3.44221 0
M  V30 4248 C 397.62 -4.93089 3.9629 0
M  V30 4249 C 396.284 -5.07082 4.34078 0
M  V30 4250 H 395.554 -0.7313 0.119507 0
M  V30 4251 H 398.201 -1.64645 0.977968 0
M  V30 4252 H 396.506 -3.90451 -0.324878 0
M  V30 4253 H 398.203 -4.00966 0.0520699 0
M  V30 4254 H 394.793 -4.02026 1.48569 0
M  V30 4255 H 398.977 -4.3363 2.41409 0
M  V30 4256 H 394.233 -4.84129 3.73402 0
M  V30 4257 H 398.407 -5.17084 4.66472 0
M  V30 4258 H 396.034 -5.42046 5.33001 0
M  V30 4259 N 397.609 -0.515225 -1.4894 0
M  V30 4260 C 398.519 0.259774 -2.33157 0
M  V30 4261 C 399.535 0.953501 -1.45548 0
M  V30 4262 O 400.711 0.931735 -1.78552 0
M  V30 4263 C 397.776 1.30193 -3.21326 0
M  V30 4264 C 396.837 0.620129 -4.24797 0
M  V30 4265 C 396.07 1.61263 -5.08753 0
M  V30 4266 O 396.293 2.84389 -4.94448 0
M  V30 4267 O 395.227 1.16013 -5.90614 0
M  V30 4268 H 399.053 -0.429932 -3.00641 0
M  V30 4269 H 396.638 -0.276346 -1.46822 0
M  V30 4270 H 398.52 1.90455 -3.75905 0
M  V30 4271 H 397.195 1.97431 -2.56521 0
M  V30 4272 H 396.102 -0.0226019 -3.74093 0
M  V30 4273 H 397.435 -0.0100493 -4.92199 0
M  V30 4274 N 399.087 1.5561 -0.249682 0
M  V30 4275 C 399.997 2.25143 0.659375 0
M  V30 4276 C 401.013 1.2685 1.19101 0
M  V30 4277 O 402.189 1.59732 1.22669 0
M  V30 4278 C 399.254 2.93945 1.8384 0
M  V30 4279 C 398.315 4.07655 1.34596 0
M  V30 4280 C 397.548 4.73167 2.46878 0
M  V30 4281 O 397.771 4.37768 3.65671 0
M  V30 4282 O 396.705 5.61623 2.16478 0
M  V30 4283 H 400.531 3.03545 0.0968698 0
M  V30 4284 H 398.116 1.49389 -0.018074 0
M  V30 4285 H 399.998 3.37271 2.52638 0
M  V30 4286 H 398.673 2.18481 2.38847 0
M  V30 4287 H 397.58 3.68839 0.625174 0
M  V30 4288 H 398.913 4.84946 0.841941 0
M  V30 4289 N 400.565 -0.0233959 1.57583 0
M  V30 4290 C 401.976 -0.56927 1.77809 0
M  V30 4291 C 402.327 -1.75284 0.881472 0
M  V30 4292 O 401.452 -2.1626 0.0777805 0
M  V30 4293 C 402.047 -1.03949 3.22459 0
M  V30 4294 C 400.606 -1.53084 3.43864 0
M  V30 4295 C 399.753 -0.471454 2.73263 0
M  V30 4296 H 402.704 0.202825 1.57399 0
M  V30 4297 H 402.725 -1.90661 3.29285 0
M  V30 4298 H 402.237 -0.177865 3.87692 0
M  V30 4299 H 400.338 -2.41414 2.83814 0
M  V30 4300 H 400.451 -1.57443 4.52491 0
M  V30 4301 H 398.815 -0.927788 2.37201 0
M  V30 4302 H 399.598 0.380808 3.41181 0
M  V30 4303 N 402.043 -1.548 -0.295768 0
M  V30 4304 C 402.953 -1.89177 -1.38742 0
M  V30 4305 C 403.969 -0.786481 -1.55211 0
M  V30 4306 O 405.145 -1.08344 -1.69775 0
M  V30 4307 C 402.21 -2.13663 -2.73036 0
M  V30 4308 C 401.271 -3.37349 -2.65508 0
M  V30 4309 C 400.504 -3.60658 -3.93398 0
M  V30 4310 O 400.727 -2.86882 -4.93006 0
M  V30 4311 O 399.661 -4.54179 -3.94975 0
M  V30 4312 H 403.487 -2.82059 -1.12589 0
M  V30 4313 H 401.072 -1.41056 -0.492295 0
M  V30 4314 H 402.954 -2.3094 -3.52484 0
M  V30 4315 H 401.629 -1.23967 -2.99022 0
M  V30 4316 H 400.536 -3.25431 -1.84514 0
M  V30 4317 H 401.869 -4.27192 -2.44474 0
M  V30 4318 N 403.521 0.559213 -1.47345 0
M  V30 4319 C 404.798 1.31997 -1.44348 0
M  V30 4320 C 405.178 2.1064 -0.139358 0
M  V30 4321 O 404.526 2.1091 0.879153 0
M  V30 4322 C 404.736 2.22618 -2.68779 0
M  V30 4323 C 406.084 2.83701 -3.1591 0
M  V30 4324 O 407.108 2.32921 -2.69493 0
M  V30 4325 O 405.967 3.75993 -3.966 0
M  V30 4326 H 403.061 0.594251 -0.575147 0
M  V30 4327 H 405.607 0.578282 -1.59543 0
M  V30 4328 H 404.379 1.64093 -3.55231 0
M  V30 4329 H 404.002 3.04085 -2.5616 0
M  V30 4330 N 404.999 1.35443 0.805782 0
M  V30 4331 C 406.41 1.25768 1.37983 0
M  V30 4332 C 406.761 -0.10958 1.95894 0
M  V30 4333 O 405.886 -1.01056 1.91355 0
M  V30 4334 C 406.481 2.27727 2.5085 0
M  V30 4335 C 405.04 2.2179 3.04115 0
M  V30 4336 C 404.187 2.13393 1.77084 0
M  V30 4337 H 407.138 1.4656 0.608752 0
M  V30 4338 H 407.159 1.90422 3.29424 0
M  V30 4339 H 406.671 3.27227 2.08671 0
M  V30 4340 H 404.772 1.25703 3.50756 0
M  V30 4341 H 404.885 3.13788 3.62042 0
M  V30 4342 H 403.249 1.59384 1.98668 0
M  V30 4343 H 404.032 3.14755 1.37056 0
M  V30 4344 N 406.477 -1.02803 1.19454 0
M  V30 4345 C 407.702 -1.80378 1.02364 0
M  V30 4346 C 408.127 -1.83282 -0.423007 0
M  V30 4347 O 407.485 -1.25945 -1.30413 0
M  V30 4348 C 407.533 -3.23248 1.59821 0
M  V30 4349 O 406.637 -4.04 0.828105 0
M  V30 4350 H 405.978 -0.556799 0.361761 0
M  V30 4351 H 408.508 -1.29385 1.58495 0
M  V30 4352 H 408.518 -3.73994 1.63073 0
M  V30 4353 H 407.193 -3.2045 2.65113 0
M  V30 4354 H 405.77 -3.62635 0.86891 0
M  V30 4355 N 407.956 -0.998596 -1.21925 0
M  V30 4356 C 408.904 -0.546641 -2.26085 0
M  V30 4357 C 409.898 0.405576 -1.64473 0
M  V30 4358 O 411.104 0.277471 -1.77849 0
M  V30 4359 H 407.479 -0.158403 -0.735127 0
M  V30 4360 H 409.45 -1.43645 -2.61551 0
M  V30 4361 C 408.199 0.117388 -3.47502 0
M  V30 4362 H 407.522 -0.606277 -3.95176 0
M  V30 4363 H 408.962 0.396993 -4.22137 0
M  V30 4364 C 407.421 1.35455 -3.0847 0
M  V30 4365 O 407.951 2.44944 -3.18379 0
M  V30 4366 N 406.157 1.23191 -2.63196 0
M  V30 4367 H 405.704 0.341006 -2.55333 0
M  V30 4368 H 405.662 2.06071 -2.37449 0
M  V30 4369 N 409.434 1.37368 -0.772513 0
M  V30 4370 C 410.85 1.53059 -0.452231 0
M  V30 4371 C 411.05 1.73065 1.03203 0
M  V30 4372 O 410.106 1.75245 1.81784 0
M  V30 4373 C 411.419 2.72659 -1.26797 0
M  V30 4374 C 412.967 2.86521 -1.25995 0
M  V30 4375 C 413.442 4.09105 -2.05905 0
M  V30 4376 N 414.933 4.16219 -2.03263 0
M  V30 4377 C 415.668 5.10107 -2.61875 0
M  V30 4378 N 415.164 6.09547 -3.29278 0
M  V30 4379 N 416.957 5.02596 -2.51701 0
M  V30 4380 H 409.108 1.22634 -1.7342 0
M  V30 4381 H 411.371 0.597206 -0.736239 0
M  V30 4382 H 411.077 2.64343 -2.31982 0
M  V30 4383 H 410.951 3.66363 -0.897672 0
M  V30 4384 H 413.338 2.94308 -0.216081 0
M  V30 4385 H 413.419 1.93774 -1.66989 0
M  V30 4386 H 413.063 4.0208 -3.10313 0
M  V30 4387 H 412.993 5.00968 -1.62292 0
M  V30 4388 H 415.484 3.45012 -1.54192 0
M  V30 4389 H 415.797 6.77718 -3.71374 0
M  V30 4390 H 414.142 6.09824 -3.33377 0
M  V30 4391 H 417.333 4.23855 -1.98657 0
M  V30 4392 H 417.506 5.75582 -2.97673 0
M  V30 4393 N 410.912 0.523116 1.48665 0
M  V30 4394 C 412.137 -0.0117284 2.07397 0
M  V30 4395 C 412.562 -1.28031 1.37803 0
M  V30 4396 O 411.92 -1.75836 0.441762 0
M  V30 4397 C 411.968 -0.225786 3.59892 0
M  V30 4398 O 411.072 -1.29592 3.91509 0
M  V30 4399 H 410.413 0.0360673 0.66302 0
M  V30 4400 H 412.943 0.729066 1.9117 0
M  V30 4401 H 412.953 -0.450552 4.05505 0
M  V30 4402 H 411.628 0.700944 4.09951 0
M  V30 4403 H 410.205 -1.05436 3.57684 0
M  V30 4404 N 412.39 -1.55475 0.257931 0
M  V30 4405 C 413.637 -1.99207 -0.363728 0
M  V30 4406 C 413.965 -1.1462 -1.57139 0
M  V30 4407 O 413.22 -0.199653 -1.94679 0
M  V30 4408 C 413.519 -3.48183 -0.806433 0
M  V30 4409 C 413.185 -4.49936 0.294684 0
M  V30 4410 C 411.847 -4.77481 0.597076 0
M  V30 4411 C 414.199 -5.10769 1.03751 0
M  V30 4412 C 411.527 -5.63132 1.64618 0
M  V30 4413 C 413.879 -5.97558 2.07622 0
M  V30 4414 C 412.543 -6.23432 2.38514 0
M  V30 4415 H 411.813 -0.728949 -0.133097 0
M  V30 4416 H 414.46 -1.8793 0.368059 0
M  V30 4417 H 412.765 -3.56848 -1.61761 0
M  V30 4418 H 414.462 -3.79415 -1.29789 0
M  V30 4419 H 411.052 -4.28572 0.0488649 0
M  V30 4420 H 415.236 -4.89527 0.817149 0
M  V30 4421 H 410.492 -5.8143 1.89074 0
M  V30 4422 H 414.666 -6.43735 2.65666 0
M  V30 4423 H 412.293 -6.89594 3.19943 0
M  V30 4424 N 413.868 0.0150385 -1.57593 0
M  V30 4425 C 415.115 0.703001 -1.89906 0
M  V30 4426 C 415.443 1.74604 -0.856944 0
M  V30 4427 O 414.698 1.95197 0.140287 0
M  V30 4428 C 414.997 1.39686 -3.28972 0
M  V30 4429 C 414.663 0.488457 -4.48246 0
M  V30 4430 C 413.325 0.2383 -4.8061 0
M  V30 4431 C 415.677 -0.137881 -5.21018 0
M  V30 4432 C 413.005 -0.646738 -5.83125 0
M  V30 4433 C 415.357 -1.0107 -6.24474 0
M  V30 4434 C 414.021 -1.27019 -6.55303 0
M  V30 4435 H 413.291 0.257246 -0.694914 0
M  V30 4436 H 415.938 -0.037259 -1.91464 0
M  V30 4437 H 414.243 2.21079 -3.23468 0
M  V30 4438 H 415.94 1.93495 -3.51227 0
M  V30 4439 H 412.53 0.693593 -4.22951 0
M  V30 4440 H 416.714 0.0423953 -4.96282 0
M  V30 4441 H 411.97 -0.855937 -6.05379 0
M  V30 4442 H 416.144 -1.50247 -6.79999 0
M  V30 4443 H 413.771 -1.95769 -7.3456 0
M  V30 4444 N 415.346 1.54954 0.287554 0
M  V30 4445 C 416.571 1.79209 1.04397 0
M  V30 4446 C 416.996 0.556431 1.79682 0
M  V30 4447 O 416.354 -0.493518 1.74454 0
M  V30 4448 C 416.402 3.00739 1.98969 0
M  V30 4449 O 415.506 2.74805 3.075 0
M  V30 4450 H 414.847 0.592755 0.299227 0
M  V30 4451 H 417.377 2.02068 0.320886 0
M  V30 4452 H 417.387 3.29077 2.4119 0
M  V30 4453 H 416.062 3.90329 1.43582 0
M  V30 4454 H 414.639 2.57523 2.69697 0
M  V30 4455 N 416.824 -0.551391 1.4764 0
M  V30 4456 C 417.734 -1.68525 1.63207 0
M  V30 4457 C 418.75 -1.6621 0.514815 0
M  V30 4458 O 419.926 -1.85551 0.783113 0
M  V30 4459 C 416.991 -3.05025 1.64805 0
M  V30 4460 C 416.052 -3.18362 2.88 0
M  V30 4461 C 415.285 -4.4835 2.89513 0
M  V30 4462 O 415.508 -5.34163 2.00065 0
M  V30 4463 O 414.442 -4.65602 3.81443 0
M  V30 4464 H 418.268 -1.58333 2.59161 0
M  V30 4465 H 415.853 -0.722063 1.30792 0
M  V30 4466 H 417.735 -3.86245 1.68502 0
M  V30 4467 H 416.41 -3.15587 0.720197 0
M  V30 4468 H 415.317 -2.36518 2.89845 0
M  V30 4469 H 416.65 -3.12707 3.80099 0
M  V30 4470 N 418.302 -1.35869 -0.798587 0
M  V30 4471 C 419.551 -1.28921 -1.5512 0
M  V30 4472 C 419.864 0.13208 -1.95154 0
M  V30 4473 O 421.07 0.323879 -2.69561 0
M  V30 4474 C 419.526 -2.26141 -2.79979 0
M  V30 4475 C 419.134 -3.73658 -2.47151 0
M  V30 4476 C 420.878 -2.28152 -3.57976 0
M  V30 4477 C 418.785 -4.62679 -3.6835 0
M  V30 4478 H 417.715 -0.479031 -0.582276 0
M  V30 4479 H 420.366 -1.61179 -0.877125 0
M  V30 4480 H 418.748 -1.86865 -3.49138 0
M  V30 4481 H 419.922 -4.21616 -1.85947 0
M  V30 4482 H 418.237 -3.74333 -1.82383 0
M  V30 4483 H 420.834 -2.91875 -4.4801 0
M  V30 4484 H 421.177 -1.28748 -3.95891 0
M  V30 4485 H 421.71 -2.65998 -2.95787 0
M  V30 4486 H 418.449 -5.63111 -3.35538 0
M  V30 4487 H 417.969 -4.19442 -4.28752 0
M  V30 4488 H 419.648 -4.78498 -4.35487 0
M  V30 4489 N 419.78 1.02168 -1.19998 0
M  V30 4490 C 421.029 1.75091 -1.0013 0
M  V30 4491 C 421.342 1.89923 0.467835 0
M  V30 4492 O 422.548 2.59888 0.785515 0
M  V30 4493 C 421.004 3.14892 -1.74273 0
M  V30 4494 C 420.612 3.0809 -3.25245 0
M  V30 4495 C 422.356 3.9206 -1.62755 0
M  V30 4496 C 420.263 4.42867 -3.91948 0
M  V30 4497 H 419.193 0.656394 -0.37103 0
M  V30 4498 H 421.844 1.14284 -1.43567 0
M  V30 4499 H 420.226 3.7621 -1.2362 0
M  V30 4500 H 421.4 2.5611 -3.83072 0
M  V30 4501 H 419.715 2.44416 -3.3712 0
M  V30 4502 H 422.312 4.91764 -2.09934 0
M  V30 4503 H 422.655 4.12199 -0.582894 0
M  V30 4504 H 423.188 3.37359 -2.10793 0
M  V30 4505 H 419.927 4.27931 -4.96543 0
M  V30 4506 H 419.447 4.94874 -3.3891 0
M  V30 4507 H 421.126 5.11728 -3.95909 0
M  V30 4508 N 421.258 1.00505 1.21394 0
M  V30 4509 C 422.483 0.706367 1.95001 0
M  V30 4510 C 422.908 -0.72463 1.73582 0
M  V30 4511 O 422.266 -1.49702 1.0227 0
M  V30 4512 C 422.314 1.03299 3.45487 0
M  V30 4513 O 421.418 0.138275 4.12168 0
M  V30 4514 H 420.759 0.263175 0.609619 0
M  V30 4515 H 423.289 1.34531 1.54151 0
M  V30 4516 H 423.299 0.979872 3.96059 0
M  V30 4517 H 421.974 2.07567 3.60401 0
M  V30 4518 H 420.551 0.247928 3.72075 0
M  V30 4519 N 422.737 -1.36956 0.779787 0
M  V30 4520 C 423.962 -2.04283 0.358224 0
M  V30 4521 C 424.387 -1.58422 -1.01411 0
M  V30 4522 O 423.745 -0.748179 -1.65142 0
M  V30 4523 C 423.793 -3.58152 0.419479 0
M  V30 4524 O 422.897 -4.08342 -0.577142 0
M  V30 4525 H 422.238 -0.645967 0.153698 0
M  V30 4526 H 424.768 -1.75108 1.05822 0
M  V30 4527 H 424.778 -4.07041 0.279636 0
M  V30 4528 H 423.453 -3.90886 1.42061 0
M  V30 4529 H 422.03 -3.70751 -0.399755 0
M  V30 4530 N 424.215 -0.530993 -1.48385 0
M  V30 4531 C 425.464 0.00474348 -2.01699 0
M  V30 4532 C 425.777 1.35227 -1.41325 0
M  V30 4533 O 426.983 1.97643 -1.86144 0
M  V30 4534 C 425.439 0.0588473 -3.59852 0
M  V30 4535 C 425.047 -1.28385 -4.2921 0
M  V30 4536 C 426.791 0.543358 -4.21008 0
M  V30 4537 C 424.698 -1.19028 -5.79298 0
M  V30 4538 H 423.628 0.00554317 -0.75398 0
M  V30 4539 H 426.279 -0.674924 -1.70637 0
M  V30 4540 H 424.661 0.803612 -3.8776 0
M  V30 4541 H 425.835 -2.04426 -4.12973 0
M  V30 4542 H 424.15 -1.70418 -3.7993 0
M  V30 4543 H 426.747 0.631351 -5.3096 0
M  V30 4544 H 427.09 1.54937 -3.86394 0
M  V30 4545 H 427.623 -0.145754 -3.97533 0
M  V30 4546 H 424.362 -2.17147 -6.18488 0
M  V30 4547 H 423.882 -0.471246 -5.97946 0
M  V30 4548 H 425.561 -0.881365 -6.40969 0
M  V30 4549 N 425.693 1.55336 -0.266172 0
M  V30 4550 C 426.918 2.04258 0.359661 0
M  V30 4551 C 427.343 1.14359 1.49344 0
M  V30 4552 O 426.701 0.140369 1.80756 0
M  V30 4553 C 426.749 3.50997 0.826635 0
M  V30 4554 O 425.853 3.64204 1.93466 0
M  V30 4555 H 425.194 0.659668 0.075727 0
M  V30 4556 H 427.724 2.00694 -0.39786 0
M  V30 4557 H 427.734 3.9219 1.12477 0
M  V30 4558 H 426.409 4.159 -0.00293032 0
M  V30 4559 H 424.986 3.34913 1.63974 0
M  V30 4560 N 427.171 -0.0066808 1.57599 0
M  V30 4561 C 428.448 -0.729586 1.81484 0
M  V30 4562 C 428.828 -1.92359 0.869558 0
M  V30 4563 O 428.176 -2.28348 -0.0832533 0
M  V30 4564 C 428.386 -1.1416 3.29801 0
M  V30 4565 C 429.734 -1.54823 3.95367 0
M  V30 4566 O 430.758 -1.23558 3.34084 0
M  V30 4567 O 429.617 -2.12937 5.03309 0
M  V30 4568 H 426.711 -0.354674 0.747085 0
M  V30 4569 H 429.257 0.0182609 1.6969 0
M  V30 4570 H 428.029 -0.290231 3.90222 0
M  V30 4571 H 427.652 -1.94876 3.46568 0
M  V30 4572 N 428.649 -1.55105 -0.279332 0
M  V30 4573 C 429.895 -1.75672 -1.01327 0
M  V30 4574 C 430.228 -0.552739 -1.86168 0
M  V30 4575 O 429.503 0.449827 -1.89227 0
M  V30 4576 C 429.786 -3.05825 -1.90114 0
M  V30 4577 C 429.639 -4.36565 -1.08309 0
M  V30 4578 C 430.958 -3.31975 -2.8893 0
M  V30 4579 H 428.077 -0.639149 -0.366957 0
M  V30 4580 H 430.719 -1.87833 -0.286154 0
M  V30 4581 H 428.869 -2.95588 -2.52111 0
M  V30 4582 H 430.541 -4.58751 -0.484314 0
M  V30 4583 H 428.784 -4.32076 -0.386362 0
M  V30 4584 H 429.455 -5.23946 -1.73737 0
M  V30 4585 H 431.931 -3.41963 -2.37067 0
M  V30 4586 H 430.807 -4.2432 -3.48201 0
M  V30 4587 H 431.068 -2.51309 -3.63725 0
M  V30 4588 N 430.127 0.543554 -1.4793 0
M  V30 4589 C 431.074 1.64942 -1.6144 0
M  V30 4590 C 432.044 1.59692 -0.456903 0
M  V30 4591 O 433.229 1.78321 -0.678688 0
M  V30 4592 C 430.369 3.03238 -1.64744 0
M  V30 4593 C 429.482 3.18823 -2.91506 0
M  V30 4594 C 428.617 4.47599 -2.86057 0
M  V30 4595 C 427.656 4.56664 -4.07584 0
M  V30 4596 N 426.793 5.76811 -4.00292 0
M  V30 4597 H 431.633 1.52733 -2.55884 0
M  V30 4598 H 429.17 0.7438 -1.2691 0
M  V30 4599 H 431.128 3.83339 -1.64641 0
M  V30 4600 H 429.758 3.1425 -0.738017 0
M  V30 4601 H 428.81 2.32064 -3.01414 0
M  V30 4602 H 430.122 3.21384 -3.81463 0
M  V30 4603 H 429.276 5.35975 -2.84281 0
M  V30 4604 H 428.015 4.47538 -1.93807 0
M  V30 4605 H 427.02 3.66697 -4.09651 0
M  V30 4606 H 428.245 4.58474 -5.00978 0
M  V30 4607 H 426.191 5.77673 -3.10853 0
M  V30 4608 H 426.108 5.80808 -4.8394 0
M  V30 4609 H 427.376 6.67512 -4.02553 0
M  V30 4610 N 431.605 1.3629 0.791371 0
M  V30 4611 C 432.852 1.30412 1.54916 0
M  V30 4612 C 433.18 -0.117162 1.94147 0
M  V30 4613 O 432.435 -1.08599 1.62803 0
M  V30 4614 C 432.734 2.17068 2.8393 0
M  V30 4615 C 432.4 3.65645 2.63846 0
M  V30 4616 C 431.062 4.0614 2.58077 0
M  V30 4617 C 433.414 4.59855 2.45322 0
M  V30 4618 C 430.742 5.3899 2.31748 0
M  V30 4619 C 433.094 5.9292 2.2052 0
M  V30 4620 C 431.758 6.32542 2.13183 0
M  V30 4621 H 431.028 0.47721 0.566879 0
M  V30 4622 H 433.675 1.68325 0.913172 0
M  V30 4623 H 431.98 1.72085 3.51986 0
M  V30 4624 H 433.677 2.09846 3.4171 0
M  V30 4625 H 430.267 3.33518 2.69191 0
M  V30 4626 H 434.451 4.29443 2.48782 0
M  V30 4627 H 429.707 5.68672 2.24548 0
M  V30 4628 H 433.881 6.65487 2.05182 0
M  V30 4629 H 431.508 7.35412 1.92544 0
M  V30 4630 N 433.083 -1.0153 1.20538 0
M  V30 4631 C 434.308 -1.79283 1.04271 0
M  V30 4632 C 434.733 -1.8372 -0.403544 0
M  V30 4633 O 434.091 -1.27321 -1.2907 0
M  V30 4634 C 434.139 -3.21535 1.63241 0
M  V30 4635 O 433.243 -4.03099 0.870908 0
M  V30 4636 H 432.584 -0.55293 0.367647 0
M  V30 4637 H 435.114 -1.27696 1.59859 0
M  V30 4638 H 435.124 -3.72243 1.6703 0
M  V30 4639 H 433.799 -3.1762 2.68497 0
M  V30 4640 H 432.376 -3.61693 0.907323 0
M  V30 4641 N 434.561 -1.01147 -1.20859 0
M  V30 4642 C 435.511 -0.548247 -2.2131 0
M  V30 4643 C 436.495 0.393646 -1.5601 0
M  V30 4644 O 437.687 0.217445 -1.75659 0
M  V30 4645 C 434.816 0.117252 -3.431 0
M  V30 4646 C 433.902 -0.846043 -4.15575 0
M  V30 4647 N 434.293 -2.00149 -4.64515 0
M  V30 4648 C 432.591 -0.665783 -4.41003 0
M  V30 4649 C 433.292 -2.60764 -5.19978 0
M  V30 4650 N 432.268 -1.88868 -5.09735 0
M  V30 4651 H 436.07 -1.42921 -2.56809 0
M  V30 4652 H 433.584 -0.876142 -1.36739 0
M  V30 4653 H 435.581 0.46662 -4.1428 0
M  V30 4654 H 434.241 0.994115 -3.09107 0
M  V30 4655 H 435.252 -2.38162 -4.5989 0
M  V30 4656 H 431.929 0.163456 -4.1718 0
M  V30 4657 H 433.319 -3.58519 -5.68255 0
M  V30 4658 N 436.039 1.36541 -0.78704 0
M  V30 4659 C 437.264 2.0409 -0.369053 0
M  V30 4660 C 437.689 1.58957 1.00569 0
M  V30 4661 O 437.047 0.756926 1.64743 0
M  V30 4662 C 437.095 3.57924 -0.438466 0
M  V30 4663 O 436.199 4.08642 0.555479 0
M  V30 4664 H 435.54 0.645142 -0.157122 0
M  V30 4665 H 438.07 1.74545 -1.06749 0
M  V30 4666 H 438.08 4.06887 -0.301218 0
M  V30 4667 H 436.755 3.90127 -1.44132 0
M  V30 4668 H 435.332 3.70958 0.380088 0
M  V30 4669 N 437.518 0.538854 1.48102 0
M  V30 4670 C 438.766 0.00798599 2.02098 0
M  V30 4671 C 439.087 -1.33922 1.41739 0
M  V30 4672 O 438.357 -1.86932 0.585934 0
M  V30 4673 H 436.937 -3.62179e-05 0.747 0
M  V30 4674 H 439.599 0.7047 1.81714 0
M  V30 4675 H 438.695 -0.0937672 3.11959 0
M  V30 4676 N 438.996 -1.55193 0.274407 0
M  V30 4677 C 440.412 -1.59401 -0.0797543 0
M  V30 4678 C 440.612 -1.29162 -1.54659 0
M  V30 4679 O 439.668 -1.05215 -2.29534 0
M  V30 4680 C 440.981 -2.99257 0.294238 0
M  V30 4681 C 442.529 -3.12072 0.240796 0
M  V30 4682 C 443.004 -4.54194 0.589218 0
M  V30 4683 N 444.495 -4.60033 0.540744 0
M  V30 4684 C 445.23 -5.68027 0.783147 0
M  V30 4685 N 444.726 -6.8417 1.09013 0
M  V30 4686 N 446.519 -5.57572 0.711993 0
M  V30 4687 H 438.67 -1.73113 1.23067 0
M  V30 4688 H 440.933 -0.807197 0.497129 0
M  V30 4689 H 440.639 -3.26217 1.31435 0
M  V30 4690 H 440.513 -3.75427 -0.365281 0
M  V30 4691 H 442.9 -2.84877 -0.770024 0
M  V30 4692 H 442.981 -2.38117 0.934563 0
M  V30 4693 H 442.625 -4.82115 1.59772 0
M  V30 4694 H 442.555 -5.26448 -0.126331 0
M  V30 4695 H 445.046 -3.76599 0.313327 0
M  V30 4696 H 445.359 -7.6243 1.26178 0
M  V30 4697 H 443.704 -6.85787 1.12789 0
M  V30 4698 H 446.895 -4.65714 0.472014 0
M  V30 4699 H 447.068 -6.41659 0.90429 0
M  V30 4700 N 440.474 -0.00167713 -1.576 0
M  V30 4701 C 441.704 0.692754 -1.94639 0
M  V30 4702 C 442.112 1.67744 -0.87513 0
M  V30 4703 O 441.455 1.8305 0.154382 0
M  V30 4704 C 441.517 1.47881 -3.27676 0
M  V30 4705 C 441.181 0.655518 -4.52274 0
M  V30 4706 C 442.178 -0.0575214 -5.19868 0
M  V30 4707 C 439.863 0.600994 -4.98692 0
M  V30 4708 C 441.857 -0.814052 -6.3218 0
M  V30 4709 C 439.544 -0.15926 -6.10892 0
M  V30 4710 C 440.542 -0.865515 -6.77494 0
M  V30 4711 O 440.23 -1.61336 -7.87544 0
M  V30 4712 H 439.962 0.197792 -0.646417 0
M  V30 4713 H 442.516 -0.049423 -2.05341 0
M  V30 4714 H 440.746 2.2655 -3.13388 0
M  V30 4715 H 442.435 2.05874 -3.49816 0
M  V30 4716 H 443.201 -0.0245611 -4.84994 0
M  V30 4717 H 439.08 1.14025 -4.46676 0
M  V30 4718 H 442.624 -1.36584 -6.84098 0
M  V30 4719 H 438.521 -0.194035 -6.45208 0
M  V30 4720 H 439.289 -1.53025 -8.04068 0
M  V30 4721 N 441.952 1.55251 0.271103 0
M  V30 4722 C 442.885 1.83191 1.36075 0
M  V30 4723 C 443.863 0.685091 1.47463 0
M  V30 4724 O 445.047 0.928292 1.64058 0
M  V30 4725 C 442.174 1.99521 2.73696 0
M  V30 4726 C 441.22 3.22081 2.79582 0
M  V30 4727 S 442.053 4.79388 2.38636 0
M  V30 4728 C 443.209 4.98693 3.78228 0
M  V30 4729 H 443.442 2.75327 1.12171 0
M  V30 4730 H 440.975 1.47046 0.470833 0
M  V30 4731 H 442.933 2.09613 3.52948 0
M  V30 4732 H 441.594 1.0827 2.9485 0
M  V30 4733 H 440.787 3.304 3.80594 0
M  V30 4734 H 440.389 3.10589 2.08352 0
M  V30 4735 H 442.681 4.84551 4.73515 0
M  V30 4736 H 443.624 6.00738 3.7486 0
M  V30 4737 H 444.032 4.26665 3.69618 0
M  V30 4738 N 443.43 -0.535701 1.48216 0
M  V30 4739 C 444.363 -1.65726 1.56876 0
M  V30 4740 C 445.341 -1.57094 0.419542 0
M  V30 4741 O 446.525 -1.77648 0.630352 0
M  V30 4742 C 443.652 -3.04096 1.49142 0
M  V30 4743 C 442.698 -3.31105 2.68834 0
M  V30 4744 S 443.531 -3.18001 4.30854 0
M  V30 4745 C 444.687 -4.58828 4.25709 0
M  V30 4746 H 444.92 -1.58129 2.51759 0
M  V30 4747 H 442.453 -0.718218 1.36678 0
M  V30 4748 H 444.411 -3.839 1.45366 0
M  V30 4749 H 443.072 -3.09139 0.556067 0
M  V30 4750 H 442.265 -4.32033 2.59545 0
M  V30 4751 H 441.867 -2.58961 2.69843 0
M  V30 4752 H 444.159 -5.5023 3.95289 0
M  V30 4753 H 445.102 -4.73172 5.26796 0
M  V30 4754 H 445.51 -4.37883 3.56257 0
M  V30 4755 N 444.908 -1.36708 -0.784132 0
M  V30 4756 C 446.136 -1.34398 -1.57305 0
M  V30 4757 C 446.551 0.0735577 -1.88657 0
M  V30 4758 O 445.908 1.03193 -1.50524 0
M  V30 4759 C 445.959 -2.17053 -2.89085 0
M  V30 4760 O 445.68 -3.53281 -2.59083 0
M  V30 4761 C 447.181 -2.22583 -3.83369 0
M  V30 4762 H 444.401 -0.460819 -0.487736 0
M  V30 4763 H 446.945 -1.79879 -0.972819 0
M  V30 4764 H 445.1 -1.75113 -3.45564 0
M  V30 4765 H 445.514 -3.9647 -3.43383 0
M  V30 4766 H 446.988 -2.84763 -4.72878 0
M  V30 4767 H 447.465 -1.23075 -4.21603 0
M  V30 4768 H 448.071 -2.64781 -3.32823 0
M  V30 4769 N 446.386 1.0089 -1.21074 0
M  V30 4770 C 447.802 1.2695 -0.967257 0
M  V30 4771 C 448.002 1.9846 0.348673 0
M  V30 4772 O 447.058 2.28459 1.0753 0
M  V30 4773 C 448.371 2.09697 -2.15517 0
M  V30 4774 C 449.919 2.22937 -2.197 0
M  V30 4775 C 450.394 3.09064 -3.37999 0
M  V30 4776 N 451.885 3.16653 -3.38061 0
M  V30 4777 C 452.62 3.8354 -4.26245 0
M  V30 4778 N 452.116 4.52488 -5.2462 0
M  V30 4779 N 453.909 3.80141 -4.14064 0
M  V30 4780 H 446.06 0.529005 -2.05707 0
M  V30 4781 H 448.323 0.296148 -0.900556 0
M  V30 4782 H 448.029 1.64497 -3.10859 0
M  V30 4783 H 447.903 3.10444 -2.14253 0
M  V30 4784 H 450.29 2.67357 -1.24916 0
M  V30 4785 H 450.371 1.21673 -2.2501 0
M  V30 4786 H 450.015 2.65347 -4.33074 0
M  V30 4787 H 449.945 4.10433 -3.29928 0
M  V30 4788 H 452.436 2.67566 -2.66865 0
M  V30 4789 H 452.749 5.01219 -5.88217 0
M  V30 4790 H 451.094 4.51288 -5.28549 0
M  V30 4791 H 454.285 3.25427 -3.36474 0
M  V30 4792 H 454.458 4.31992 -4.82998 0
M  V30 4793 N 447.864 1.01787 1.20321 0
M  V30 4794 C 449.141 0.622978 1.85414 0
M  V30 4795 C 449.521 -0.898887 1.91006 0
M  V30 4796 O 448.869 -1.79112 1.41884 0
M  V30 4797 C 449.079 1.27226 3.24984 0
M  V30 4798 C 450.427 1.3885 4.01255 0
M  V30 4799 O 451.451 1.22857 3.34342 0
M  V30 4800 O 450.31 1.64705 5.2109 0
M  V30 4801 H 447.404 0.215116 0.798533 0
M  V30 4802 H 449.95 1.11533 1.27901 0
M  V30 4803 H 448.722 2.31209 3.15687 0
M  V30 4804 H 448.345 0.767069 3.90131 0
M  V30 4805 N 449.342 -1.36122 0.79427 0
M  V30 4806 C 450.572 -2.03067 0.380437 0
M  V30 4807 C 450.98 -1.60018 -1.00949 0
M  V30 4808 O 450.323 -0.787425 -1.65968 0
M  V30 4809 C 450.385 -3.57587 0.37034 0
M  V30 4810 C 450.049 -4.23855 1.70867 0
M  V30 4811 C 451.046 -4.46404 2.66496 0
M  V30 4812 C 448.731 -4.61229 1.9893 0
M  V30 4813 C 450.725 -5.05412 3.88378 0
M  V30 4814 C 448.412 -5.19953 3.21079 0
M  V30 4815 C 449.41 -5.41985 4.15621 0
M  V30 4816 O 449.098 -5.99475 5.35616 0
M  V30 4817 H 448.83 -0.658168 0.154243 0
M  V30 4818 H 451.384 -1.7498 1.0757 0
M  V30 4819 H 449.614 -3.84814 -0.381444 0
M  V30 4820 H 451.303 -4.05895 -0.0194894 0
M  V30 4821 H 452.069 -4.17921 2.46103 0
M  V30 4822 H 447.948 -4.43402 1.26158 0
M  V30 4823 H 451.492 -5.22524 4.62185 0
M  V30 4824 H 447.389 -5.47862 3.41347 0
M  V30 4825 H 448.157 -6.17937 5.36745 0
M  V30 4826 N 450.82 -0.546701 -1.47814 0
M  V30 4827 C 451.75 0.195317 -2.32682 0
M  V30 4828 C 452.731 0.918981 -1.43139 0
M  V30 4829 O 453.916 0.901501 -1.72008 0
M  V30 4830 C 451.046 1.23237 -3.247 0
M  V30 4831 C 450 0.625818 -4.234 0
M  V30 4832 C 449.326 1.76674 -5.04669 0
M  V30 4833 C 450.626 -0.413515 -5.2066 0
M  V30 4834 H 452.32 -0.513184 -2.94969 0
M  V30 4835 H 449.866 -0.248241 -1.41844 0
M  V30 4836 H 451.819 1.75955 -3.82907 0
M  V30 4837 H 450.543 1.97067 -2.60446 0
M  V30 4838 H 449.202 0.120023 -3.66403 0
M  V30 4839 H 448.85 2.49383 -4.36826 0
M  V30 4840 H 448.55 1.36673 -5.71484 0
M  V30 4841 H 450.074 2.29738 -5.65732 0
M  V30 4842 H 451.488 0.0272042 -5.73294 0
M  V30 4843 H 449.885 -0.731825 -5.95621 0
M  V30 4844 H 450.955 -1.31325 -4.66778 0
M  V30 4845 N 452.299 1.55045 -0.282633 0
M  V30 4846 C 453.524 2.04628 0.337977 0
M  V30 4847 C 453.949 1.15937 1.48123 0
M  V30 4848 O 453.307 0.159532 1.80597 0
M  V30 4849 C 453.355 3.51854 0.78936 0
M  V30 4850 O 452.459 3.66236 1.89592 0
M  V30 4851 H 451.8 0.660434 0.0687261 0
M  V30 4852 H 454.33 2.00261 -0.419124 0
M  V30 4853 H 454.34 3.93361 1.08311 0
M  V30 4854 H 453.015 4.15873 -0.0470419 0
M  V30 4855 H 451.592 3.36633 1.60413 0
M  V30 4856 N 453.777 0.010035 1.57597 0
M  V30 4857 C 455.023 -0.673697 1.91283 0
M  V30 4858 C 455.356 -1.72863 0.884979 0
M  V30 4859 O 454.631 -1.94268 -0.0949487 0
M  V30 4860 C 454.914 -1.30766 3.35518 0
M  V30 4861 C 454.767 -0.263578 4.49027 0
M  V30 4862 C 456.086 -2.23105 3.79358 0
M  V30 4863 H 453.205 -0.243439 0.695634 0
M  V30 4864 H 455.847 0.0633864 1.89894 0
M  V30 4865 H 453.997 -1.93588 3.36832 0
M  V30 4866 H 455.669 0.365738 4.59848 0
M  V30 4867 H 453.912 0.413077 4.31829 0
M  V30 4868 H 454.583 -0.746398 5.4693 0
M  V30 4869 H 457.059 -1.70289 3.79659 0
M  V30 4870 H 455.935 -2.64424 4.81011 0
M  V30 4871 H 456.196 -3.11433 3.13787 0
M  V30 4872 N 455.255 -1.55392 -0.262866 0
M  V30 4873 C 456.202 -1.88966 -1.32516 0
M  V30 4874 C 457.172 -0.742187 -1.48596 0
M  V30 4875 O 458.357 -0.99439 -1.62839 0
M  V30 4876 C 455.497 -2.17592 -2.67858 0
M  V30 4877 C 454.61 -3.45061 -2.59917 0
M  V30 4878 C 453.745 -3.63336 -3.87505 0
M  V30 4879 C 452.784 -4.84462 -3.74116 0
M  V30 4880 N 451.921 -4.99342 -4.93561 0
M  V30 4881 H 456.761 -2.79566 -1.03184 0
M  V30 4882 H 454.298 -1.38404 -0.498285 0
M  V30 4883 H 456.256 -2.3219 -3.46617 0
M  V30 4884 H 454.886 -1.30215 -2.95371 0
M  V30 4885 H 453.938 -3.38881 -1.72812 0
M  V30 4886 H 455.25 -4.3396 -2.45926 0
M  V30 4887 H 454.404 -3.77807 -4.74707 0
M  V30 4888 H 453.143 -2.72641 -4.04374 0
M  V30 4889 H 452.148 -4.69985 -2.85297 0
M  V30 4890 H 453.373 -5.76603 -3.58757 0
M  V30 4891 H 451.319 -4.1158 -5.10821 0
M  V30 4892 H 451.236 -5.82303 -4.82141 0
M  V30 4893 H 452.504 -5.18208 -5.82306 0
M  V30 4894 N 456.733 0.527833 -1.48498 0
M  V30 4895 C 457.982 1.28003 -1.55878 0
M  V30 4896 C 458.295 1.9414 -0.238577 0
M  V30 4897 O 459.501 2.7083 -0.190643 0
M  V30 4898 C 457.957 2.32272 -2.74914 0
M  V30 4899 C 457.565 1.72196 -4.13585 0
M  V30 4900 C 459.309 3.08488 -2.91608 0
M  V30 4901 C 457.216 2.74417 -5.23879 0
M  V30 4902 H 456.146 0.481413 -0.580308 0
M  V30 4903 H 458.797 0.557195 -1.74836 0
M  V30 4904 H 457.179 3.07601 -2.49395 0
M  V30 4905 H 458.353 1.03041 -4.49132 0
M  V30 4906 H 456.668 1.08464 -4.02025 0
M  V30 4907 H 459.265 3.84879 -3.71177 0
M  V30 4908 H 459.608 3.64481 -2.01145 0
M  V30 4909 H 460.141 2.40274 -3.17038 0
M  V30 4910 H 456.88 2.23242 -6.16314 0
M  V30 4911 H 456.4 3.41893 -4.92818 0
M  V30 4912 H 458.079 3.37362 -5.52083 0
M  V30 4913 N 458.211 1.37122 0.776871 0
M  V30 4914 C 459.457 1.3325 1.53675 0
M  V30 4915 C 459.812 -0.0839891 1.92217 0
M  V30 4916 O 459.105 -1.04145 1.60824 0
M  V30 4917 C 459.299 2.20068 2.81611 0
M  V30 4918 C 459.128 3.70016 2.55574 0
M  V30 4919 C 457.898 4.39144 2.4996 0
M  V30 4920 C 460.096 4.62996 2.23917 0
M  V30 4921 N 458.078 5.74663 2.15953 0
M  V30 4922 C 459.449 5.86854 2.00005 0
M  V30 4923 C 461.504 4.51433 2.1003 0
M  V30 4924 C 460.207 7.00446 1.63609 0
M  V30 4925 C 462.233 5.64905 1.75033 0
M  V30 4926 C 461.595 6.8781 1.51977 0
M  V30 4927 H 457.694 0.542878 0.562856 0
M  V30 4928 H 460.278 1.72295 0.906784 0
M  V30 4929 H 458.449 1.83248 3.42454 0
M  V30 4930 H 460.181 2.07492 3.47461 0
M  V30 4931 H 456.936 3.92088 2.65639 0
M  V30 4932 H 457.36 6.46268 2.0166 0
M  V30 4933 H 462.002 3.56987 2.26539 0
M  V30 4934 H 459.72 7.94831 1.45837 0
M  V30 4935 H 463.306 5.57926 1.64952 0
M  V30 4936 H 462.186 7.74126 1.25296 0
M  V30 4937 N 459.689 -1.00246 1.21608 0
M  V30 4938 C 460.966 -1.71336 0.943568 0
M  V30 4939 C 461.346 -2.03972 -0.543943 0
M  V30 4940 O 460.694 -1.71545 -1.50946 0
M  V30 4941 C 460.904 -2.97094 1.83128 0
M  V30 4942 C 462.252 -3.70071 2.08165 0
M  V30 4943 O 463.276 -3.07081 1.80498 0
M  V30 4944 O 462.135 -4.83376 2.54971 0
M  V30 4945 H 459.229 -0.747386 0.354039 0
M  V30 4946 H 461.775 -1.05967 1.32549 0
M  V30 4947 H 460.547 -2.69407 2.83788 0
M  V30 4948 H 460.17 -3.70204 1.45034 0
M  V30 4949 N 461.167 -1.02423 -1.1978 0
M  V30 4950 C 462.097 -0.62157 -2.25075 0
M  V30 4951 C 463.078 0.367148 -1.6609 0
M  V30 4952 O 464.263 0.250892 -1.92573 0
M  V30 4953 C 461.393 0.0331826 -3.47284 0
M  V30 4954 C 460.347 -0.877323 -4.18912 0
M  V30 4955 C 459.673 -0.0879296 -5.34628 0
M  V30 4956 C 460.973 -2.18892 -4.74219 0
M  V30 4957 H 462.667 -1.50179 -2.59011 0
M  V30 4958 H 460.213 -0.723547 -1.24502 0
M  V30 4959 H 462.166 0.326488 -4.20133 0
M  V30 4960 H 460.89 0.948164 -3.12534 0
M  V30 4961 H 459.549 -1.15475 -3.47938 0
M  V30 4962 H 459.197 0.828941 -4.96123 0
M  V30 4963 H 458.897 -0.694359 -5.83483 0
M  V30 4964 H 460.421 0.198743 -6.10276 0
M  V30 4965 H 461.835 -1.95746 -5.38847 0
M  V30 4966 H 460.232 -2.74686 -5.33542 0
M  V30 4967 H 461.302 -2.84674 -3.92541 0
M  V30 4968 N 462.645 1.35699 -0.801477 0
M  V30 4969 C 463.593 2.3177 -0.196317 0
M  V30 4970 C 464.587 1.56388 0.651081 0
M  V30 4971 O 465.793 1.71557 0.544815 0
M  V30 4972 H 462.168 0.750669 -0.0447189 0
M  V30 4973 H 464.139 2.8036 -1.02181 0
M  V30 4974 C 462.888 3.41671 0.644702 0
M  V30 4975 H 462.211 3.998 0.0019921 0
M  V30 4976 H 463.651 4.11184 1.0346 0
M  V30 4977 C 462.11 2.84271 1.80808 0
M  V30 4978 O 462.64 2.77408 2.9053 0
M  V30 4979 N 460.846 2.41391 1.61799 0
M  V30 4980 H 460.393 2.47173 0.725493 0
M  V30 4981 H 460.351 2.03334 2.39797 0
M  V30 4982 N 464.123 0.554532 1.47522 0
M  V30 4983 C 465.056 -0.242442 2.26908 0
M  V30 4984 C 466.034 -0.922722 1.33883 0
M  V30 4985 O 467.218 -0.942244 1.63261 0
M  V30 4986 C 464.345 -1.34525 3.10839 0
M  V30 4987 C 463.391 -0.773805 4.19422 0
M  V30 4988 S 464.224 0.377525 5.34168 0
M  V30 4989 C 465.38 -0.727164 6.21662 0
M  V30 4990 H 465.613 0.431218 2.94156 0
M  V30 4991 H 463.146 0.3408 1.50592 0
M  V30 4992 H 465.104 -1.97683 3.59766 0
M  V30 4993 H 463.765 -1.99073 2.42958 0
M  V30 4994 H 462.958 -1.60187 4.77866 0
M  V30 4995 H 462.56 -0.218448 3.73361 0
M  V30 4996 H 464.852 -1.61992 6.57849 0
M  V30 4997 H 465.795 -0.180135 7.07871 0
M  V30 4998 H 466.203 -1.01863 5.55233 0
M  V30 4999 N 465.601 -1.54893 0.290851 0
M  V30 5000 C 466.511 -2.26812 -0.59945 0
M  V30 5001 C 467.527 -1.29963 -1.15696 0
M  V30 5002 O 468.703 -1.62928 -1.18391 0
M  V30 5003 C 465.768 -2.98716 -1.75982 0
M  V30 5004 C 464.829 -4.1108 -1.2374 0
M  V30 5005 C 464.062 -4.79546 -2.34246 0
M  V30 5006 O 464.285 -4.47309 -3.53936 0
M  V30 5007 O 463.219 -5.67165 -2.01512 0
M  V30 5008 H 467.045 -3.03696 -0.0163561 0
M  V30 5009 H 464.63 -1.49289 0.0576755 0
M  V30 5010 H 466.512 -3.43851 -2.43607 0
M  V30 5011 H 465.187 -2.24737 -2.3297 0
M  V30 5012 H 464.094 -3.70367 -0.527163 0
M  V30 5013 H 465.427 -4.87007 -0.71307 0
M  V30 5014 N 467.08 -0.0183926 -1.57589 0
M  V30 5015 C 468.028 0.985111 -2.10709 0
M  V30 5016 C 469.022 1.34397 -1.0312 0
M  V30 5017 O 470.228 1.32746 -1.21567 0
M  V30 5018 H 466.603 0.335418 -0.673052 0
M  V30 5019 H 468.574 0.511689 -2.9398 0
M  V30 5020 C 467.323 2.26202 -2.64061 0
M  V30 5021 H 466.646 1.9946 -3.4649 0
M  V30 5022 H 468.086 2.94652 -3.04887 0
M  V30 5023 C 466.545 2.98444 -1.5631 0
M  V30 5024 O 467.075 3.90142 -0.956674 0
M  V30 5025 N 465.281 2.6059 -1.28612 0
M  V30 5026 H 464.828 1.86101 -1.78112 0
M  V30 5027 H 464.786 3.09238 -0.567406 0
M  V30 5028 N 468.558 1.5553 0.254621 0
M  V30 5029 C 469.974 1.4778 0.602753 0
M  V30 5030 C 470.174 0.707047 1.88688 0
M  V30 5031 O 469.23 0.233288 2.5142 0
M  V30 5032 C 470.543 2.92133 0.712648 0
M  V30 5033 C 472.091 3.02458 0.805488 0
M  V30 5034 C 472.566 4.48102 0.947009 0
M  V30 5035 N 474.057 4.52008 1.01207 0
M  V30 5036 C 474.792 5.61939 1.1407 0
M  V30 5037 N 474.288 6.81697 1.23536 0
M  V30 5038 N 476.081 5.49719 1.17325 0
M  V30 5039 H 468.232 2.04085 -0.588463 0
M  V30 5040 H 470.495 0.926229 -0.202001 0
M  V30 5041 H 470.201 3.51332 -0.160766 0
M  V30 5042 H 470.075 3.42187 1.58707 0
M  V30 5043 H 472.462 2.43344 1.66936 0
M  V30 5044 H 472.543 2.55627 -0.0939266 0
M  V30 5045 H 472.187 5.07824 0.087725 0
M  V30 5046 H 472.117 4.92607 1.86135 0
M  V30 5047 H 474.608 3.65749 0.950577 0
M  V30 5048 H 474.921 7.61228 1.33236 0
M  V30 5049 H 473.266 6.84473 1.20508 0
M  V30 5050 H 476.457 4.55095 1.09573 0
M  V30 5051 H 476.63 6.35432 1.27005 0
M  V30 5052 N 470.036 -0.519951 1.48776 0
M  V30 5053 C 471.447 -1.10177 1.50725 0
M  V30 5054 C 471.798 -1.94153 0.282678 0
M  V30 5055 O 470.923 -2.07645 -0.609298 0
M  V30 5056 C 471.518 -2.00482 2.73116 0
M  V30 5057 C 470.077 -2.53862 2.77905 0
M  V30 5058 C 469.224 -1.31047 2.44381 0
M  V30 5059 H 472.175 -0.30473 1.55747 0
M  V30 5060 H 472.196 -2.8491 2.52203 0
M  V30 5061 H 471.708 -1.39335 3.62225 0
M  V30 5062 H 469.809 -3.18702 1.93029 0
M  V30 5063 H 469.922 -2.9231 3.79594 0
M  V30 5064 H 468.286 -1.62953 1.95751 0
M  V30 5065 H 469.069 -0.71637 3.35743 0
M  V30 5066 N 471.514 -1.37532 -0.769588 0
M  V30 5067 C 472.76 -1.33057 -1.53048 0
M  V30 5068 C 473.093 0.0841865 -1.94017 0
M  V30 5069 O 472.368 1.04198 -1.64235 0
M  V30 5070 C 472.651 -2.27166 -2.79406 0
M  V30 5071 C 472.504 -3.77429 -2.44677 0
M  V30 5072 C 473.823 -2.19683 -3.81349 0
M  V30 5073 H 470.942 -0.484655 -0.555228 0
M  V30 5074 H 473.584 -1.68251 -0.882702 0
M  V30 5075 H 471.734 -1.97283 -3.34682 0
M  V30 5076 H 473.406 -4.17918 -1.953 0
M  V30 5077 H 471.649 -3.95892 -1.77346 0
M  V30 5078 H 472.32 -4.38716 -3.35011 0
M  V30 5079 H 474.796 -2.46029 -3.35573 0
M  V30 5080 H 473.672 -2.87668 -4.67481 0
M  V30 5081 H 473.933 -1.19045 -4.25771 0
M  V30 5082 N 472.992 0.995999 -1.22138 0
M  V30 5083 C 473.902 2.11985 -1.00496 0
M  V30 5084 C 474.918 1.7394 0.0457701 0
M  V30 5085 O 476.094 2.00868 -0.146273 0
M  V30 5086 C 473.159 3.41779 -0.582086 0
M  V30 5087 C 472.22 3.93943 -1.70608 0
M  V30 5088 C 471.453 5.17542 -1.30328 0
M  V30 5089 O 471.676 5.70114 -0.180743 0
M  V30 5090 O 470.61 5.63382 -2.11861 0
M  V30 5091 H 474.436 2.33123 -1.94647 0
M  V30 5092 H 472.021 1.10358 -1.00705 0
M  V30 5093 H 473.903 4.1989 -0.356467 0
M  V30 5094 H 472.578 3.22007 0.330592 0
M  V30 5095 H 471.485 3.17019 -1.98619 0
M  V30 5096 H 472.818 4.18141 -2.59651 0
M  V30 5097 N 474.47 1.03057 1.19235 0
M  V30 5098 C 475.698 0.747697 1.92917 0
M  V30 5099 C 476.113 -0.69372 1.75593 0
M  V30 5100 O 475.47 -1.47191 1.07894 0
M  V30 5101 C 475.521 1.09159 3.44625 0
M  V30 5102 O 475.242 2.47641 3.61394 0
M  V30 5103 C 476.743 0.831763 4.35427 0
M  V30 5104 H 473.963 0.273453 0.612751 0
M  V30 5105 H 476.507 1.37552 1.51327 0
M  V30 5106 H 474.662 0.508919 3.84043 0
M  V30 5107 H 475.076 2.60499 4.55237 0
M  V30 5108 H 476.55 1.12233 5.4047 0
M  V30 5109 H 477.027 -0.233769 4.38577 0
M  V30 5110 H 477.633 1.39725 4.01693 0
M  V30 5111 N 475.948 -1.35272 0.808662 0
M  V30 5112 C 477.178 -2.02652 0.401953 0
M  V30 5113 C 477.586 -1.6108 -0.992462 0
M  V30 5114 O 476.929 -0.804984 -1.65123 0
M  V30 5115 C 476.991 -3.57174 0.408246 0
M  V30 5116 C 476.655 -4.22019 1.75353 0
M  V30 5117 C 477.652 -4.43552 2.71215 0
M  V30 5118 C 475.337 -4.59093 2.03811 0
M  V30 5119 C 477.331 -5.01264 3.93717 0
M  V30 5120 C 475.018 -5.16519 3.26576 0
M  V30 5121 C 476.016 -5.37546 4.21347 0
M  V30 5122 O 475.704 -5.93761 5.41944 0
M  V30 5123 H 475.436 -0.656495 0.161216 0
M  V30 5124 H 477.99 -1.73829 1.0942 0
M  V30 5125 H 476.22 -3.85197 -0.340608 0
M  V30 5126 H 477.909 -4.05893 0.0235623 0
M  V30 5127 H 478.675 -4.15288 2.50522 0
M  V30 5128 H 474.554 -4.42039 1.30854 0
M  V30 5129 H 478.098 -5.17592 4.67701 0
M  V30 5130 H 473.995 -5.4421 3.47139 0
M  V30 5131 H 474.763 -6.1221 5.43269 0
M  V30 5132 N 477.426 -0.562348 -1.47226 0
M  V30 5133 C 478.358 0.220011 -2.28142 0
M  V30 5134 C 479.371 0.874596 -1.37312 0
M  V30 5135 O 480.56 0.747583 -1.62091 0
M  V30 5136 C 477.66 1.32953 -3.11732 0
M  V30 5137 C 476.833 0.770759 -4.30556 0
M  V30 5138 C 475.892 1.76541 -4.95701 0
M  V30 5139 O 474.918 1.3095 -5.53932 0
M  V30 5140 N 476.12 3.09896 -4.90861 0
M  V30 5141 H 478.885 -0.474107 -2.95926 0
M  V30 5142 H 476.446 -0.398761 -1.56912 0
M  V30 5143 H 478.438 1.99378 -3.5218 0
M  V30 5144 H 477.008 1.92681 -2.46156 0
M  V30 5145 H 476.228 -0.0704056 -3.94137 0
M  V30 5146 H 477.516 0.376872 -5.07402 0
M  V30 5147 H 476.914 3.49577 -4.44761 0
M  V30 5148 H 475.471 3.71865 -5.35313 0
M  V30 5149 N 478.904 1.54736 -0.299062 0
M  V30 5150 C 480.15 2.00397 0.311244 0
M  V30 5151 C 480.483 1.18716 1.53688 0
M  V30 5152 O 479.758 0.263154 1.92712 0
M  V30 5153 C 480.041 3.53817 0.669761 0
M  V30 5154 C 479.894 4.46239 -0.564882 0
M  V30 5155 C 481.213 4.13856 1.49702 0
M  V30 5156 H 478.332 0.728493 0.111653 0
M  V30 5157 H 480.974 1.85506 -0.410774 0
M  V30 5158 H 479.124 3.66637 1.28491 0
M  V30 5159 H 480.796 4.45328 -1.20337 0
M  V30 5160 H 479.039 4.16916 -1.19849 0
M  V30 5161 H 479.71 5.5134 -0.269918 0
M  V30 5162 H 482.186 4.04461 0.977284 0
M  V30 5163 H 481.062 5.21365 1.71666 0
M  V30 5164 H 481.323 3.65608 2.48563 0
M  V30 5165 N 480.382 0.0267497 1.57577 0
M  V30 5166 C 481.332 -0.965003 2.06571 0
M  V30 5167 C 482.316 -1.28694 0.965746 0
M  V30 5168 O 483.508 -1.27345 1.22932 0
M  V30 5169 C 480.637 -2.24821 2.59443 0
M  V30 5170 C 479.723 -1.95474 3.76365 0
M  V30 5171 N 480.114 -1.36387 4.87065 0
M  V30 5172 C 478.412 -2.25478 3.84806 0
M  V30 5173 C 479.113 -1.24119 5.68304 0
M  V30 5174 N 478.089 -1.7359 5.15138 0
M  V30 5175 H 481.891 -0.503095 2.89562 0
M  V30 5176 H 479.405 -0.178322 1.61418 0
M  V30 5177 H 481.402 -2.9674 2.92833 0
M  V30 5178 H 480.062 -2.7164 1.77881 0
M  V30 5179 H 481.073 -1.03919 5.07367 0
M  V30 5180 H 477.75 -2.74987 3.14147 0
M  V30 5181 H 479.14 -0.784504 6.67304 0
M  V30 5182 N 481.861 -1.55662 -0.24637 0
M  V30 5183 C 482.771 -1.93495 -1.32653 0
M  V30 5184 C 483.787 -0.835462 -1.5263 0
M  V30 5185 O 484.963 -1.1369 -1.66242 0
M  V30 5186 C 482.028 -2.22242 -2.66101 0
M  V30 5187 C 481.089 -3.45625 -2.54641 0
M  V30 5188 C 480.322 -3.72991 -3.81724 0
M  V30 5189 O 480.545 -3.02421 -4.8363 0
M  V30 5190 O 479.479 -4.66515 -3.80325 0
M  V30 5191 H 483.305 -2.85498 -1.03559 0
M  V30 5192 H 480.89 -1.42551 -0.44717 0
M  V30 5193 H 482.772 -2.42037 -3.44958 0
M  V30 5194 H 481.447 -1.33417 -2.94926 0
M  V30 5195 H 480.354 -3.31136 -1.74067 0
M  V30 5196 H 481.687 -4.34754 -2.3076 0
M  V30 5197 N 483.339 0.512053 -1.4905 0
M  V30 5198 C 484.569 1.28928 -1.61434 0
M  V30 5199 C 484.977 1.87107 -0.280647 0
M  V30 5200 O 484.32 1.68024 0.742537 0
M  V30 5201 C 484.382 2.466 -2.61588 0
M  V30 5202 C 484.046 2.09375 -4.06216 0
M  V30 5203 C 485.043 1.63994 -4.93358 0
M  V30 5204 C 482.728 2.19348 -4.51876 0
M  V30 5205 C 484.722 1.29076 -6.24194 0
M  V30 5206 C 482.409 1.84041 -5.82728 0
M  V30 5207 C 483.407 1.38978 -6.68711 0
M  V30 5208 O 483.095 1.04144 -7.97126 0
M  V30 5209 H 482.827 0.397668 -0.546659 0
M  V30 5210 H 485.381 0.622507 -1.9574 0
M  V30 5211 H 483.611 3.16318 -2.22441 0
M  V30 5212 H 485.3 3.08642 -2.63619 0
M  V30 5213 H 486.066 1.55744 -4.59313 0
M  V30 5214 H 481.945 2.53376 -3.85125 0
M  V30 5215 H 485.489 0.938303 -6.91261 0
M  V30 5216 H 481.386 1.91938 -6.16304 0
M  V30 5217 H 482.154 1.17387 -8.10039 0
M  V30 5218 N 484.817 1.37938 0.762283 0
M  V30 5219 C 485.747 1.37176 1.88958 0
M  V30 5220 C 486.728 0.238945 1.68413 0
M  V30 5221 O 487.913 0.440726 1.89133 0
M  V30 5222 C 485.043 1.18742 3.2637 0
M  V30 5223 C 483.997 2.29136 3.61498 0
M  V30 5224 C 483.323 1.95816 4.97554 0
M  V30 5225 C 484.623 3.71363 3.6727 0
M  V30 5226 H 486.317 2.31509 1.89853 0
M  V30 5227 H 483.863 1.11438 0.912005 0
M  V30 5228 H 485.816 1.16837 4.04879 0
M  V30 5229 H 484.54 0.208683 3.25933 0
M  V30 5230 H 483.199 2.30213 2.85303 0
M  V30 5231 H 482.847 0.964475 4.93667 0
M  V30 5232 H 482.547 2.69745 5.22026 0
M  V30 5233 H 484.071 1.95513 5.78452 0
M  V30 5234 H 485.485 3.72364 4.35911 0
M  V30 5235 H 483.882 4.44425 4.03245 0
M  V30 5236 H 484.952 4.04305 2.67704 0
M  V30 5237 N 486.295 -0.989507 1.22664 0
M  V30 5238 C 487.711 -1.25395 0.987331 0
M  V30 5239 C 487.911 -1.9899 -0.317056 0
M  V30 5240 O 486.967 -2.30141 -1.03882 0
M  V30 5241 C 488.28 -2.06242 2.18826 0
M  V30 5242 C 489.828 -2.19413 2.23219 0
M  V30 5243 C 490.303 -3.03648 3.42873 0
M  V30 5244 N 491.794 -3.11234 3.43056 0
M  V30 5245 C 492.529 -3.7671 4.32293 0
M  V30 5246 N 492.025 -4.44085 5.31752 0
M  V30 5247 N 493.818 -3.73505 4.2006 0
M  V30 5248 H 485.969 -0.496212 2.06522 0
M  V30 5249 H 488.232 -0.281784 0.905153 0
M  V30 5250 H 487.938 -1.59531 3.13437 0
M  V30 5251 H 487.812 -3.06996 2.19165 0
M  V30 5252 H 490.199 -2.65336 1.29154 0
M  V30 5253 H 490.28 -1.18078 2.26917 0
M  V30 5254 H 489.924 -2.58424 4.37241 0
M  V30 5255 H 489.854 -4.05132 3.36416 0
M  V30 5256 H 492.345 -2.63287 2.71088 0
M  V30 5257 H 492.658 -4.91797 5.96117 0
M  V30 5258 H 491.003 -4.42822 5.35662 0
M  V30 5259 H 494.194 -3.20033 3.41609 0
M  V30 5260 H 494.367 -4.24253 4.8981 0
M  V30 5261 N 487.773 -1.03688 -1.18687 0
M  V30 5262 C 488.998 -0.757819 -1.93059 0
M  V30 5263 C 489.423 0.678353 -1.75442 0
M  V30 5264 O 488.781 1.46938 -1.06203 0
M  V30 5265 C 488.829 -1.12423 -3.42627 0
M  V30 5266 O 487.933 -0.247505 -4.11657 0
M  V30 5267 H 487.274 -0.279245 -0.602427 0
M  V30 5268 H 489.804 -1.3857 -1.5053 0
M  V30 5269 H 489.814 -1.08454 -3.93322 0
M  V30 5270 H 488.489 -2.17049 -3.54771 0
M  V30 5271 H 487.066 -0.34649 -3.71287 0
M  V30 5272 N 489.251 1.34841 -0.815825 0
M  V30 5273 C 490.198 2.29644 -0.230664 0
M  V30 5274 C 491.168 1.53253 0.640533 0
M  V30 5275 O 492.353 1.81653 0.583672 0
M  V30 5276 C 489.493 3.39715 0.607275 0
M  V30 5277 C 488.606 4.31056 -0.28538 0
M  V30 5278 C 487.741 5.28225 0.561446 0
M  V30 5279 C 486.78 6.11204 -0.331035 0
M  V30 5280 N 485.917 7.00483 0.476302 0
M  V30 5281 H 490.757 2.79095 -1.0445 0
M  V30 5282 H 488.294 1.37351 -0.526595 0
M  V30 5283 H 490.252 4.02208 1.10835 0
M  V30 5284 H 488.882 2.91517 1.38629 0
M  V30 5285 H 487.934 3.69487 -0.904621 0
M  V30 5286 H 489.246 4.89239 -0.97193 0
M  V30 5287 H 488.4 5.96135 1.12728 0
M  V30 5288 H 487.139 4.70562 1.28153 0
M  V30 5289 H 486.144 5.42232 -0.909069 0
M  V30 5290 H 487.369 6.70947 -1.04912 0
M  V30 5291 H 485.315 6.45296 1.18019 0
M  V30 5292 H 485.232 7.55847 -0.152008 0
M  V30 5293 H 486.5 7.7273 1.02512 0
M  V30 5294 N 490.729 0.570148 1.46925 0
M  V30 5295 C 491.659 -0.158274 2.32963 0
M  V30 5296 C 492.64 -0.896093 1.44583 0
M  V30 5297 O 493.825 -0.874022 1.7342 0
M  V30 5298 C 490.955 -1.18055 3.26619 0
M  V30 5299 C 489.909 -0.558379 4.24342 0
M  V30 5300 C 489.235 -1.68623 5.07415 0
M  V30 5301 C 490.535 0.496295 5.19937 0
M  V30 5302 H 492.229 0.560046 2.94115 0
M  V30 5303 H 489.775 0.270775 1.41431 0
M  V30 5304 H 491.728 -1.69841 3.85658 0
M  V30 5305 H 490.452 -1.92899 2.63548 0
M  V30 5306 H 489.111 -0.0617157 3.66548 0
M  V30 5307 H 488.759 -2.42402 4.40738 0
M  V30 5308 H 488.459 -1.27564 5.73586 0
M  V30 5309 H 489.983 -2.20709 5.69315 0
M  V30 5310 H 491.397 0.0640052 5.73264 0
M  V30 5311 H 489.794 0.82649 5.94381 0
M  V30 5312 H 490.864 1.38735 4.6463 0
M  V30 5313 N 492.207 -1.54576 0.307264 0
M  V30 5314 C 493.447 -2.02172 -0.300962 0
M  V30 5315 C 493.811 -1.19081 -1.50611 0
M  V30 5316 O 495.012 -1.56405 -2.18612 0
M  V30 5317 C 493.283 -3.51576 -0.642591 0
M  V30 5318 S 494.842 -4.21127 -1.23279 0
M  V30 5319 H 491.66 -0.705021 -0.0920141 0
M  V30 5320 H 494.262 -1.90563 0.436594 0
M  V30 5321 H 492.966 -4.09681 0.242901 0
M  V30 5322 H 492.497 -3.67234 -1.41077 0
M  V30 5323 H 494.512 -4.27426 -2.52034 0
M  V30 5324 N 493.685 -0.035106 -1.57561 0
M  V30 5325 C 494.91 0.655802 -1.96759 0
M  V30 5326 C 495.335 1.64523 -0.911809 0
M  V30 5327 O 494.693 1.80857 0.126673 0
M  V30 5328 C 494.741 1.33326 -3.35047 0
M  V30 5329 O 493.845 2.44866 -3.31835 0
M  V30 5330 H 493.186 0.171807 -0.641388 0
M  V30 5331 H 495.716 -0.0987369 -2.04362 0
M  V30 5332 H 495.726 1.68867 -3.71413 0
M  V30 5333 H 494.401 0.608033 -4.11431 0
M  V30 5334 H 492.978 2.11392 -3.07193 0
M  V30 5335 N 495.163 1.55791 0.238111 0
M  V30 5336 C 496.093 1.94068 1.29846 0
M  V30 5337 C 497.074 0.806726 1.49753 0
M  V30 5338 O 498.259 1.06772 1.62214 0
M  V30 5339 C 495.389 2.24302 2.65153 0
M  V30 5340 C 494.343 3.40032 2.59927 0
M  V30 5341 C 493.669 3.55829 3.99111 0
M  V30 5342 C 494.969 4.75476 2.16148 0
M  V30 5343 H 496.663 2.82887 0.980563 0
M  V30 5344 H 494.209 1.36105 0.470253 0
M  V30 5345 H 496.162 2.4967 3.39475 0
M  V30 5346 H 494.886 1.32318 2.98596 0
M  V30 5347 H 493.545 3.14687 1.88063 0
M  V30 5348 H 493.193 2.6125 4.29834 0
M  V30 5349 H 492.893 4.3366 3.96501 0
M  V30 5350 H 494.417 3.83528 4.7512 0
M  V30 5351 H 495.831 5.00158 2.80205 0
M  V30 5352 H 494.228 5.56472 2.24631 0
M  V30 5353 H 495.298 4.71946 1.11333 0
M  V30 5354 N 496.642 -0.504142 1.49319 0
M  V30 5355 C 497.872 -1.28071 1.62116 0
M  V30 5356 C 498.28 -1.86955 0.290566 0
M  V30 5357 O 497.623 -1.68415 -0.733616 0
M  V30 5358 C 497.685 -2.4521 2.62893 0
M  V30 5359 C 497.349 -2.07218 4.0732 0
M  V30 5360 C 498.346 -1.61375 4.94221 0
M  V30 5361 C 496.031 -2.16949 4.53033 0
M  V30 5362 C 498.025 -1.25763 6.2487 0
M  V30 5363 C 495.712 -1.80949 5.83696 0
M  V30 5364 C 496.71 -1.3543 6.69438 0
M  V30 5365 O 496.398 -0.99915 7.97667 0
M  V30 5366 H 496.13 -0.394763 0.54876 0
M  V30 5367 H 498.684 -0.612118 1.96067 0
M  V30 5368 H 496.914 -3.15134 2.24115 0
M  V30 5369 H 498.603 -3.0724 2.65252 0
M  V30 5370 H 499.369 -1.53306 4.60133 0
M  V30 5371 H 495.248 -2.5133 3.86463 0
M  V30 5372 H 498.792 -0.901631 6.91749 0
M  V30 5373 H 494.689 -1.88667 6.17313 0
M  V30 5374 H 495.457 -1.13089 8.1065 0
M  V30 5375 N 498.12 -1.38341 -0.754957 0
M  V30 5376 C 499.03 -1.3769 -1.89944 0
M  V30 5377 C 500.046 -0.274194 -1.71826 0
M  V30 5378 O 501.222 -0.512391 -1.94773 0
M  V30 5379 C 498.287 -1.19938 -3.25293 0
M  V30 5380 C 497.348 -2.40001 -3.55946 0
M  V30 5381 C 496.581 -2.23087 -4.84838 0
M  V30 5382 O 496.804 -1.22386 -5.57116 0
M  V30 5383 O 495.738 -3.11646 -5.14937 0
M  V30 5384 H 499.564 -2.3412 -1.93446 0
M  V30 5385 H 497.149 -1.19246 -0.900044 0
M  V30 5386 H 499.031 -1.12093 -4.06218 0
M  V30 5387 H 497.706 -0.265919 -3.22606 0
M  V30 5388 H 496.613 -2.53421 -2.75188 0
M  V30 5389 H 497.946 -3.31973 -3.63394 0
M  V30 5390 N 499.598 0.982988 -1.23187 0
M  V30 5391 C 500.546 2.09616 -1.00817 0
M  V30 5392 C 501.54 1.6932 0.0519995 0
M  V30 5393 O 502.746 1.79715 -0.101284 0
M  V30 5394 H 499.121 0.685628 -0.308899 0
M  V30 5395 H 501.092 2.25652 -1.95253 0
M  V30 5396 C 499.841 3.42249 -0.613243 0
M  V30 5397 H 499.164 3.73705 -1.42073 0
M  V30 5398 H 500.604 4.21086 -0.496208 0
M  V30 5399 C 499.063 3.30002 0.678233 0
M  V30 5400 O 499.593 3.6263 1.72807 0
M  V30 5401 N 497.799 2.83164 0.653165 0
M  V30 5402 H 497.346 2.56811 -0.201492 0
M  V30 5403 H 497.304 2.75352 1.51752 0
M  V30 5404 N 501.076 1.04316 1.18135 0
M  V30 5405 C 502.353 0.662166 1.84051 0
M  V30 5406 C 502.733 -0.858169 1.9287 0
M  V30 5407 O 502.081 -1.76062 1.45652 0
M  V30 5408 C 502.291 1.3409 3.22212 0
M  V30 5409 C 503.639 1.4733 3.9822 0
M  V30 5410 O 504.663 1.29921 3.31661 0
M  V30 5411 O 503.522 1.75722 5.17479 0
M  V30 5412 H 500.616 0.232005 0.79379 0
M  V30 5413 H 503.162 1.1422 1.25506 0
M  V30 5414 H 501.934 2.37853 3.10711 0
M  V30 5415 H 501.557 0.849649 3.88416 0
M  V30 5416 N 502.554 -1.34406 0.822964 0
M  V30 5417 C 503.794 -2.00103 0.416915 0
M  V30 5418 C 504.158 -1.63826 -1.00125 0
M  V30 5419 O 505.359 -2.22367 -1.51018 0
M  V30 5420 C 503.63 -3.52101 0.613151 0
M  V30 5421 S 505.189 -4.37774 0.299956 0
M  V30 5422 H 502.007 -0.69333 0.157527 0
M  V30 5423 H 504.609 -1.63698 1.06879 0
M  V30 5424 H 503.313 -3.75991 1.64496 0
M  V30 5425 H 502.844 -3.93364 -0.0534554 0
M  V30 5426 H 504.859 -4.8822 -0.886336 0
M  V30 5427 N 504.032 -0.577932 -1.46621 0
M  V30 5428 C 505.281 -0.0594281 -2.01612 0
M  V30 5429 C 505.594 1.30663 -1.45556 0
M  V30 5430 O 506.8 1.91621 -1.92337 0
M  V30 5431 C 505.256 -0.0556666 -3.59857 0
M  V30 5432 C 504.864 -1.41975 -4.24908 0
M  V30 5433 C 506.608 0.409143 -4.22524 0
M  V30 5434 C 504.515 -1.37397 -5.75218 0
M  V30 5435 H 503.445 -0.0184469 -0.753774 0
M  V30 5436 H 506.096 -0.728869 -1.68404 0
M  V30 5437 H 504.478 0.679843 -3.90121 0
M  V30 5438 H 505.652 -2.17461 -4.0626 0
M  V30 5439 H 503.967 -1.82419 -3.74316 0
M  V30 5440 H 506.564 0.46211 -5.32699 0
M  V30 5441 H 506.907 1.42565 -3.91128 0
M  V30 5442 H 507.44 -0.272152 -3.96868 0
M  V30 5443 H 504.179 -2.36714 -6.11267 0
M  V30 5444 H 503.699 -0.661239 -5.96144 0
M  V30 5445 H 505.378 -1.08484 -6.3784 0
M  V30 5446 N 505.51 1.54411 -0.315457 0
M  V30 5447 C 506.757 2.00419 0.289543 0
M  V30 5448 C 507.085 1.20373 1.52776 0
M  V30 5449 O 506.34 0.271769 1.93804 0
M  V30 5450 C 506.639 3.50936 0.676652 0
M  V30 5451 C 506.305 4.48532 -0.461472 0
M  V30 5452 C 504.967 4.74936 -0.773879 0
M  V30 5453 C 507.319 5.06567 -1.22637 0
M  V30 5454 C 504.647 5.56634 -1.85405 0
M  V30 5455 C 506.999 5.89441 -2.29657 0
M  V30 5456 C 505.663 6.1415 -2.61488 0
M  V30 5457 H 504.933 0.733386 0.105951 0
M  V30 5458 H 507.58 1.86434 -0.437554 0
M  V30 5459 H 505.885 3.62606 1.48405 0
M  V30 5460 H 507.582 3.83971 1.15618 0
M  V30 5461 H 504.172 4.28096 -0.207893 0
M  V30 5462 H 508.356 4.86157 -0.998271 0
M  V30 5463 H 503.612 5.74012 -2.10523 0
M  V30 5464 H 507.786 6.33432 -2.89374 0
M  V30 5465 H 505.413 6.77245 -3.45317 0
M  V30 5466 N 506.988 0.0434614 1.5754 0
M  V30 5467 C 508.265 -0.671479 1.83713 0
M  V30 5468 C 508.645 -1.89495 0.930315 0
M  V30 5469 O 507.993 -2.28498 -0.0105639 0
M  V30 5470 C 508.203 -1.0361 3.33266 0
M  V30 5471 C 509.551 -1.42167 4.00092 0
M  V30 5472 O 510.575 -1.12866 3.37846 0
M  V30 5473 O 509.434 -1.96817 5.09829 0
M  V30 5474 H 506.528 -0.330726 0.75799 0
M  V30 5475 H 509.074 0.0722373 1.69546 0
M  V30 5476 H 507.846 -0.165938 3.90948 0
M  V30 5477 H 507.469 -1.83751 3.52592 0
M  V30 5478 N 508.466 -1.55915 -0.229846 0
M  V30 5479 C 509.413 -1.91734 -1.28478 0
M  V30 5480 C 510.383 -0.773539 -1.46988 0
M  V30 5481 O 511.568 -1.02871 -1.60693 0
M  V30 5482 C 508.708 -2.23224 -2.63182 0
M  V30 5483 C 507.821 -3.50497 -2.52539 0
M  V30 5484 C 506.956 -3.71474 -3.79711 0
M  V30 5485 C 505.995 -4.92289 -3.63755 0
M  V30 5486 N 505.132 -5.09698 -4.82858 0
M  V30 5487 H 509.972 -2.81692 -0.972308 0
M  V30 5488 H 507.509 -1.39429 -0.468815 0
M  V30 5489 H 509.467 -2.3949 -3.41614 0
M  V30 5490 H 508.097 -1.36451 -2.92542 0
M  V30 5491 H 507.149 -3.4247 -1.65585 0
M  V30 5492 H 508.461 -4.39079 -2.36666 0
M  V30 5493 H 507.615 -3.87791 -4.66586 0
M  V30 5494 H 506.354 -2.81157 -3.985 0
M  V30 5495 H 505.359 -4.7593 -2.75264 0
M  V30 5496 H 506.584 -5.84083 -3.46445 0
M  V30 5497 H 504.53 -4.22322 -5.01976 0
M  V30 5498 H 504.447 -5.92399 -4.69681 0
M  V30 5499 H 505.715 -5.30443 -5.71183 0
M  V30 5500 N 509.944 0.496216 -1.49584 0
M  V30 5501 C 511.191 1.25003 -1.59312 0
M  V30 5502 C 511.519 1.92445 -0.28198 0
M  V30 5503 O 510.774 1.81557 0.730452 0
M  V30 5504 C 511.073 2.3359 -2.705 0
M  V30 5505 C 510.739 1.83574 -4.11839 0
M  V30 5506 C 509.401 1.69653 -4.50302 0
M  V30 5507 C 511.753 1.46193 -5.00277 0
M  V30 5508 C 509.081 1.16736 -5.74969 0
M  V30 5509 C 511.433 0.947265 -6.25468 0
M  V30 5510 C 510.097 0.794485 -6.62755 0
M  V30 5511 H 509.367 0.45742 -0.582965 0
M  V30 5512 H 512.014 0.549996 -1.83432 0
M  V30 5513 H 510.319 3.09401 -2.40371 0
M  V30 5514 H 512.016 2.91627 -2.75235 0
M  V30 5515 H 508.606 1.9537 -3.81482 0
M  V30 5516 H 512.79 1.55793 -4.71214 0
M  V30 5517 H 508.046 1.03623 -6.02555 0
M  V30 5518 H 512.22 0.648846 -6.93371 0
M  V30 5519 H 509.847 0.382271 -7.59238 0
M  V30 5520 N 511.423 1.38739 0.74761 0
M  V30 5521 C 512.333 1.38696 1.89211 0
M  V30 5522 C 513.349 0.283303 1.71678 0
M  V30 5523 O 514.525 0.522713 1.94498 0
M  V30 5524 C 511.59 1.21662 3.24653 0
M  V30 5525 C 510.651 2.41886 3.54669 0
M  V30 5526 C 509.884 2.25655 4.83648 0
M  V30 5527 O 510.107 1.25339 5.56459 0
M  V30 5528 O 509.041 3.14372 5.13277 0
M  V30 5529 H 512.867 2.35143 1.92202 0
M  V30 5530 H 510.452 1.19721 0.893708 0
M  V30 5531 H 512.334 1.14246 4.05618 0
M  V30 5532 H 511.009 0.283024 3.2246 0
M  V30 5533 H 509.916 2.54877 2.73841 0
M  V30 5534 H 511.249 3.33895 3.61628 0
M  V30 5535 N 512.901 -0.976442 1.23707 0
M  V30 5536 C 514.141 -1.73331 1.08332 0
M  V30 5537 C 514.505 -1.88346 -0.372781 0
M  V30 5538 O 515.706 -2.60877 -0.647813 0
M  V30 5539 C 513.977 -3.09159 1.7932 0
M  V30 5540 S 515.536 -4.00376 1.79567 0
M  V30 5541 H 512.354 -0.596045 0.387622 0
M  V30 5542 H 514.956 -1.16625 1.56904 0
M  V30 5543 H 513.66 -2.95884 2.84395 0
M  V30 5544 H 513.191 -3.70932 1.31046 0
M  V30 5545 H 515.206 -4.88742 0.857094 0
M  V30 5546 N 514.379 -1.04941 -1.1758 0
M  V30 5547 C 515.619 -0.766996 -1.89464 0
M  V30 5548 C 515.983 0.693123 -1.79053 0
M  V30 5549 O 517.184 1.08953 -2.45729 0
M  V30 5550 C 515.455 -1.23108 -3.35528 0
M  V30 5551 S 517.014 -1.07565 -4.25412 0
M  V30 5552 H 513.832 -0.278616 -0.654136 0
M  V30 5553 H 516.434 -1.34352 -1.4202 0
M  V30 5554 H 515.138 -2.28896 -3.40639 0
M  V30 5555 H 514.669 -0.648724 -3.88014 0
M  V30 5556 H 516.684 0.00169467 -4.962 0
M  V30 5557 N 515.857 1.33968 -0.830081 0
M  V30 5558 C 517.103 1.98773 -0.431394 0
M  V30 5559 C 517.458 1.64598 0.99626 0
M  V30 5560 O 516.751 0.911022 1.68555 0
M  V30 5561 C 516.945 3.52679 -0.57898 0
M  V30 5562 C 516.774 4.01807 -2.01943 0
M  V30 5563 C 515.544 4.30062 -2.65282 0
M  V30 5564 C 517.742 4.18663 -2.98707 0
M  V30 5565 N 515.724 4.65272 -4.00493 0
M  V30 5566 C 517.095 4.57133 -4.18843 0
M  V30 5567 C 519.15 4.00929 -2.95229 0
M  V30 5568 C 517.853 4.79723 -5.35965 0
M  V30 5569 C 519.879 4.2469 -4.11573 0
M  V30 5570 C 519.241 4.63454 -5.30462 0
M  V30 5571 H 515.34 0.75435 -0.206107 0
M  V30 5572 H 517.924 1.62247 -1.07629 0
M  V30 5573 H 516.095 3.88383 0.0360632 0
M  V30 5574 H 517.827 4.04412 -0.152596 0
M  V30 5575 H 514.582 4.21231 -2.16475 0
M  V30 5576 H 515.006 4.87101 -4.70172 0
M  V30 5577 H 519.648 3.70082 -2.04448 0
M  V30 5578 H 517.366 5.09434 -6.27297 0
M  V30 5579 H 520.952 4.12497 -4.10289 0
M  V30 5580 H 519.832 4.81476 -6.18992 0
M  V30 5581 N 517.335 0.585699 1.46312 0
M  V30 5582 C 518.283 -0.158577 2.32059 0
M  V30 5583 C 519.277 -0.881427 1.44662 0
M  V30 5584 O 520.483 -0.799476 1.61271 0
M  V30 5585 H 516.858 -0.0700066 0.748734 0
M  V30 5586 H 518.829 0.583383 2.92642 0
M  V30 5587 C 517.578 -1.15701 3.27885 0
M  V30 5588 H 516.901 -0.610215 3.95116 0
M  V30 5589 H 518.341 -1.64812 3.90657 0
M  V30 5590 C 516.8 -2.21951 2.53455 0
M  V30 5591 O 517.33 -3.29352 2.29978 0
M  V30 5592 N 515.536 -1.9664 2.13965 0
M  V30 5593 H 515.083 -1.09309 2.33258 0
M  V30 5594 H 515.041 -2.6794 1.64485 0
M  V30 5595 N 518.813 -1.54241 0.323641 0
M  V30 5596 C 520.061 -2.00174 -0.278359 0
M  V30 5597 C 520.382 -1.2134 -1.52648 0
M  V30 5598 O 519.652 -0.315244 -1.93347 0
M  V30 5599 H 518.232 -0.739463 -0.105845 0
M  V30 5600 H 520.894 -1.89864 0.440204 0
M  V30 5601 H 519.99 -3.07486 -0.5347 0
M  V30 5602 N 520.291 -0.0518155 -1.57515 0
M  V30 5603 C 521.516 0.634896 -1.97443 0
M  V30 5604 C 521.941 1.63546 -0.929207 0
M  V30 5605 O 521.299 1.80981 0.107484 0
M  V30 5606 C 521.347 1.29765 -3.36442 0
M  V30 5607 O 520.451 2.41333 -3.34413 0
M  V30 5608 H 519.792 0.164994 -0.643174 0
M  V30 5609 H 522.322 -0.120407 -2.04245 0
M  V30 5610 H 522.332 1.64918 -3.73184 0
M  V30 5611 H 521.007 0.564361 -4.12053 0
M  V30 5612 H 519.584 2.08122 -3.09418 0
M  V30 5613 N 521.769 1.56035 0.221574 0
M  V30 5614 C 523.046 1.69837 0.970301 0
M  V30 5615 C 523.426 0.599065 2.02421 0
M  V30 5616 O 522.774 -0.393929 2.25079 0
M  V30 5617 C 522.984 3.11148 1.58076 0
M  V30 5618 C 524.332 3.70555 2.07302 0
M  V30 5619 O 525.356 3.14109 1.6797 0
M  V30 5620 O 524.215 4.69562 2.79596 0
M  V30 5621 H 521.309 0.691727 0.453257 0
M  V30 5622 H 523.855 1.68353 0.213358 0
M  V30 5623 H 522.627 3.82617 0.819759 0
M  V30 5624 H 522.25 3.16749 2.40324 0
M  V30 5625 N 523.247 -0.488276 1.49845 0
M  V30 5626 C 524.472 -1.26997 1.63971 0
M  V30 5627 C 524.897 -1.85427 0.315994 0
M  V30 5628 O 524.255 -1.66475 -0.718032 0
M  V30 5629 C 524.303 -2.36689 2.72049 0
M  V30 5630 O 523.407 -3.40882 2.32107 0
M  V30 5631 H 522.748 -0.374376 0.548396 0
M  V30 5632 H 525.278 -0.583104 1.96115 0
M  V30 5633 H 525.288 -2.82262 2.94605 0
M  V30 5634 H 523.963 -1.93529 3.68129 0
M  V30 5635 H 522.54 -3.01139 2.19931 0
M  V30 5636 N 524.725 -1.39134 -0.740242 0
M  V30 5637 C 525.971 -1.36273 -1.50192 0
M  V30 5638 C 526.304 0.0430136 -1.94152 0
M  V30 5639 O 525.579 1.00691 -1.66408 0
M  V30 5640 C 525.862 -2.33041 -2.74525 0
M  V30 5641 C 525.715 -3.82535 -2.36617 0
M  V30 5642 C 527.034 -2.27723 -3.76604 0
M  V30 5643 H 524.153 -0.496323 -0.544823 0
M  V30 5644 H 526.795 -1.70085 -0.846815 0
M  V30 5645 H 524.945 -2.04337 -3.30422 0
M  V30 5646 H 526.617 -4.21967 -1.86391 0
M  V30 5647 H 524.86 -3.99565 -1.68909 0
M  V30 5648 H 525.531 -4.45723 -3.2563 0
M  V30 5649 H 528.007 -2.53091 -3.30279 0
M  V30 5650 H 526.883 -2.97519 -4.61274 0
M  V30 5651 H 527.144 -1.28049 -4.2315 0
M  V30 5652 N 526.204 0.969867 -1.24223 0
M  V30 5653 C 527.45 1.7151 -1.08223 0
M  V30 5654 C 527.783 1.90478 0.37838 0
M  V30 5655 O 527.058 1.4647 1.27971 0
M  V30 5656 C 527.341 3.10714 -1.82013 0
M  V30 5657 C 527.194 2.9925 -3.35811 0
M  V30 5658 C 528.513 4.10332 -1.59108 0
M  V30 5659 H 525.632 0.622499 -0.394543 0
M  V30 5660 H 528.274 1.1284 -1.52863 0
M  V30 5661 H 526.424 3.608 -1.44068 0
M  V30 5662 H 528.096 2.56608 -3.83341 0
M  V30 5663 H 526.339 2.35512 -3.64303 0
M  V30 5664 H 527.01 3.97857 -3.82641 0
M  V30 5665 H 529.486 3.69097 -1.92111 0
M  V30 5666 H 528.362 5.05804 -2.13198 0
M  V30 5667 H 528.623 4.38926 -0.528832 0
M  V30 5668 N 527.682 1.05563 1.17022 0
M  V30 5669 C 528.615 0.604197 2.20056 0
M  V30 5670 C 529.593 -0.369169 1.58354 0
M  V30 5671 O 530.777 -0.279898 1.8641 0
M  V30 5672 C 527.904 -0.115265 3.38504 0
M  V30 5673 C 526.95 0.813698 4.18666 0
M  V30 5674 S 527.783 2.30492 4.83357 0
M  V30 5675 C 528.939 1.59674 6.0519 0
M  V30 5676 H 529.172 1.47713 2.58008 0
M  V30 5677 H 526.705 0.867932 1.27696 0
M  V30 5678 H 528.663 -0.524162 4.0714 0
M  V30 5679 H 527.324 -0.964284 2.98932 0
M  V30 5680 H 526.517 0.256736 5.03346 0
M  V30 5681 H 526.119 1.16213 3.55486 0
M  V30 5682 H 528.411 0.898164 6.7152 0
M  V30 5683 H 529.354 2.42115 6.65422 0
M  V30 5684 H 529.762 1.08252 5.54023 0
M  V30 5685 N 529.16 -1.33526 0.837174 0
M  V30 5686 C 530.388 -2.02047 0.445494 0
M  V30 5687 C 530.803 -1.62995 -0.952788 0
M  V30 5688 O 530.16 -0.842447 -1.61892 0
M  V30 5689 C 530.211 -3.57221 0.554577 0
M  V30 5690 O 529.932 -3.94863 1.89776 0
M  V30 5691 C 531.433 -4.43012 0.159634 0
M  V30 5692 H 528.653 -0.647221 0.177048 0
M  V30 5693 H 531.197 -1.70492 1.12928 0
M  V30 5694 H 529.352 -3.87315 -0.0812781 0
M  V30 5695 H 529.766 -4.89569 1.88208 0
M  V30 5696 H 531.24 -5.51253 0.28701 0
M  V30 5697 H 531.717 -4.29916 -0.898289 0
M  V30 5698 H 532.323 -4.18274 0.769855 0
M  V30 5699 N 530.638 -0.59345 -1.46 0
M  V30 5700 C 531.886 -0.082988 -2.0193 0
M  V30 5701 C 532.207 1.28569 -1.46612 0
M  V30 5702 O 531.477 1.84629 -0.654909 0
M  V30 5703 H 530.057 -0.0276882 -0.746487 0
M  V30 5704 H 532.719 -0.771657 -1.78973 0
M  V30 5705 H 531.815 -0.022079 -3.12092 0
M  V30 5706 N 532.116 1.54067 -0.331816 0
M  V30 5707 C 533.341 2.05599 0.272705 0
M  V30 5708 C 533.766 1.2059 1.44359 0
M  V30 5709 O 533.124 0.216907 1.79998 0
M  V30 5710 C 533.172 3.54188 0.677021 0
M  V30 5711 O 532.276 3.72082 1.77844 0
M  V30 5712 H 531.617 0.662286 0.0476801 0
M  V30 5713 H 534.147 1.98826 -0.482624 0
M  V30 5714 H 534.157 3.96608 0.957415 0
M  V30 5715 H 532.832 4.15513 -0.179325 0
M  V30 5716 H 531.409 3.41566 1.49622 0
M  V30 5717 N 533.594 0.0601682 1.57485 0
M  V30 5718 C 534.824 -0.620037 1.97076 0
M  V30 5719 C 535.232 -1.64381 0.936784 0
M  V30 5720 O 534.575 -1.83497 -0.0863377 0
M  V30 5721 C 534.637 -1.35617 3.32939 0
M  V30 5722 C 534.301 -0.487208 4.54396 0
M  V30 5723 C 535.298 0.250428 5.19297 0
M  V30 5724 C 532.983 -0.415494 5.00579 0
M  V30 5725 C 534.977 1.04812 6.28723 0
M  V30 5726 C 532.664 0.385879 6.0988 0
M  V30 5727 C 533.662 1.11637 6.73815 0
M  V30 5728 O 533.35 1.90454 7.81014 0
M  V30 5729 H 533.082 -0.173664 0.653312 0
M  V30 5730 H 535.636 0.1256 2.05016 0
M  V30 5731 H 533.866 -2.14763 3.2158 0
M  V30 5732 H 535.555 -1.92749 3.57215 0
M  V30 5733 H 536.321 0.204546 4.84568 0
M  V30 5734 H 532.2 -0.973679 4.506 0
M  V30 5735 H 535.744 1.6188 6.78558 0
M  V30 5736 H 531.641 0.433366 6.44044 0
M  V30 5737 H 532.409 1.82762 7.97835 0
M  V30 5738 N 535.072 -1.5615 -0.213296 0
M  V30 5739 C 536.02 -1.93953 -1.28394 0
M  V30 5740 C 537.014 -0.822592 -1.48087 0
M  V30 5741 O 538.22 -1.00748 -1.49164 0
M  V30 5742 H 534.595 -0.61648 -0.430646 0
M  V30 5743 H 536.566 -2.83275 -0.937977 0
M  V30 5744 C 535.315 -2.27969 -2.62537 0
M  V30 5745 H 534.638 -3.13432 -2.48194 0
M  V30 5746 H 536.078 -2.58297 -3.36242 0
M  V30 5747 C 534.537 -1.10775 -3.18167 0
M  V30 5748 O 535.067 -0.373201 -3.99963 0
M  V30 5749 N 533.273 -0.889377 -2.76656 0
M  V30 5750 H 532.82 -1.48843 -2.10246 0
M  V30 5751 H 532.778 -0.107 -3.14218 0
M  V30 5752 N 536.55 0.480323 -1.50102 0
M  V30 5753 C 537.498 1.60024 -1.68805 0
M  V30 5754 C 538.492 1.60089 -0.553888 0
M  V30 5755 O 539.698 1.64349 -0.734127 0
M  V30 5756 H 536.073 0.530841 -0.532646 0
M  V30 5757 H 538.044 1.41408 -2.62767 0
M  V30 5758 C 536.793 2.98029 -1.79092 0
M  V30 5759 H 536.116 2.98694 -2.65748 0
M  V30 5760 H 537.556 3.75871 -1.96206 0
M  V30 5761 C 536.015 3.32538 -0.540388 0
M  V30 5762 O 536.545 4.00386 0.324637 0
M  V30 5763 N 534.751 2.87873 -0.397154 0
M  V30 5764 H 534.298 2.32834 -1.1021 0
M  V30 5765 H 534.256 3.11328 0.438425 0
M  V30 5766 N 538.028 1.39524 0.732853 0
M  V30 5767 C 539.275 1.36865 1.49246 0
M  V30 5768 C 539.603 -0.0347118 1.94469 0
M  V30 5769 O 538.858 -1.01596 1.67262 0
M  V30 5770 C 539.157 2.28916 2.74468 0
M  V30 5771 C 538.823 3.76506 2.481 0
M  V30 5772 C 537.485 4.16721 2.40619 0
M  V30 5773 C 539.837 4.69846 2.25598 0
M  V30 5774 C 537.165 5.48334 2.08679 0
M  V30 5775 C 539.517 6.01739 1.95174 0
M  V30 5776 C 538.181 6.41015 1.86163 0
M  V30 5777 H 537.451 0.500824 0.546129 0
M  V30 5778 H 540.098 1.72047 0.840958 0
M  V30 5779 H 538.403 1.86859 3.4437 0
M  V30 5780 H 540.1 2.2415 3.32502 0
M  V30 5781 H 536.69 3.44635 2.54803 0
M  V30 5782 H 540.874 4.39608 2.30344 0
M  V30 5783 H 536.13 5.77685 2.00226 0
M  V30 5784 H 540.304 6.73591 1.76771 0
M  V30 5785 H 537.931 7.42917 1.61179 0
M  V30 5786 N 539.506 -0.963266 1.24736 0
M  V30 5787 C 540.753 -1.7068 1.0897 0
M  V30 5788 C 541.081 -1.90934 -0.370751 0
M  V30 5789 O 540.336 -1.47155 -1.29011 0
M  V30 5790 C 540.635 -3.09944 1.7796 0
M  V30 5791 C 540.301 -3.09518 3.27887 0
M  V30 5792 C 538.963 -3.09109 3.68789 0
M  V30 5793 C 541.315 -3.03509 4.23712 0
M  V30 5794 C 538.643 -3.00429 5.03944 0
M  V30 5795 C 540.995 -2.96371 5.5888 0
M  V30 5796 C 539.659 -2.94293 5.99123 0
M  V30 5797 H 538.929 -0.624564 0.398749 0
M  V30 5798 H 541.576 -1.12603 1.54896 0
M  V30 5799 H 539.881 -3.71513 1.2444 0
M  V30 5800 H 541.578 -3.66278 1.63222 0
M  V30 5801 H 538.168 -3.10603 2.95337 0
M  V30 5802 H 542.352 -3.0295 3.93109 0
M  V30 5803 H 537.608 -2.97183 5.34314 0
M  V30 5804 H 541.782 -2.90681 6.32833 0
M  V30 5805 H 539.409 -2.87322 7.03811 0
M  V30 5806 N 540.985 -1.06182 -1.16461 0
M  V30 5807 C 542.401 -0.785065 -1.38956 0
M  V30 5808 C 542.601 0.616103 -1.9185 0
M  V30 5809 O 541.657 1.37686 -2.11657 0
M  V30 5810 C 542.97 -1.84902 -2.37132 0
M  V30 5811 C 544.518 -1.8724 -2.50819 0
M  V30 5812 C 544.993 -2.92686 -3.52277 0
M  V30 5813 N 546.484 -2.91712 -3.59803 0
M  V30 5814 C 547.219 -3.69949 -4.38093 0
M  V30 5815 N 546.715 -4.58 -5.19815 0
M  V30 5816 N 548.508 -3.58346 -4.33064 0
M  V30 5817 H 540.659 -1.96569 -0.804634 0
M  V30 5818 H 542.922 -0.851747 -0.416211 0
M  V30 5819 H 542.628 -2.85518 -2.0536 0
M  V30 5820 H 542.502 -1.69908 -3.36766 0
M  V30 5821 H 544.889 -0.872827 -2.81897 0
M  V30 5822 H 544.97 -2.06311 -1.51226 0
M  V30 5823 H 544.614 -3.92835 -3.21937 0
M  V30 5824 H 544.544 -2.70864 -4.51598 0
M  V30 5825 H 547.035 -2.27876 -3.01464 0
M  V30 5826 H 547.348 -5.14357 -5.76764 0
M  V30 5827 H 545.693 -4.62056 -5.19162 0
M  V30 5828 H 548.884 -2.88943 -3.68279 0
M  V30 5829 H 549.057 -4.19563 -4.93833 0
M  V30 5830 N 542.463 1.3308 -0.844243 0
M  V30 5831 C 543.396 2.27075 -0.226279 0
M  V30 5832 C 544.374 1.49911 0.629716 0
M  V30 5833 O 545.558 1.79068 0.588803 0
M  V30 5834 C 542.685 3.31767 0.681782 0
M  V30 5835 C 541.731 4.26384 -0.0994565 0
M  V30 5836 S 542.564 5.15186 -1.46094 0
M  V30 5837 C 543.72 6.23405 -0.558319 0
M  V30 5838 H 543.953 2.79141 -1.02312 0
M  V30 5839 H 541.486 1.40452 -0.641292 0
M  V30 5840 H 543.444 3.92566 1.20008 0
M  V30 5841 H 542.105 2.78507 1.45234 0
M  V30 5842 H 541.298 5.00514 0.591733 0
M  V30 5843 H 540.9 3.69949 -0.548991 0
M  V30 5844 H 543.192 6.77069 0.241672 0
M  V30 5845 H 544.135 6.96619 -1.26995 0
M  V30 5846 H 544.543 5.64333 -0.13728 0
M  V30 5847 N 543.941 0.601185 1.45683 0
M  V30 5848 C 545.188 0.0938811 2.02282 0
M  V30 5849 C 545.516 -1.27315 1.47041 0
M  V30 5850 O 544.771 -1.85193 0.632623 0
M  V30 5851 C 545.07 -0.00222425 3.574 0
M  V30 5852 C 544.736 1.29963 4.31764 0
M  V30 5853 C 543.398 1.65625 4.51798 0
M  V30 5854 C 545.75 2.1603 4.74321 0
M  V30 5855 C 543.078 2.87119 5.11644 0
M  V30 5856 C 545.43 3.36766 5.3551 0
M  V30 5857 C 544.094 3.72689 5.53768 0
M  V30 5858 H 543.364 0.0343535 0.740203 0
M  V30 5859 H 546.011 0.781522 1.74827 0
M  V30 5860 H 544.316 -0.773096 3.84097 0
M  V30 5861 H 546.013 -0.410794 3.9889 0
M  V30 5862 H 542.603 1.01204 4.1648 0
M  V30 5863 H 546.787 1.89778 4.58582 0
M  V30 5864 H 542.043 3.15065 5.2397 0
M  V30 5865 H 546.217 4.03713 5.67441 0
M  V30 5866 H 543.844 4.66918 5.99909 0
M  V30 5867 N 545.419 -1.53889 0.339982 0
M  V30 5868 C 546.696 -1.93084 -0.312719 0
M  V30 5869 C 547.076 -1.2712 -1.68534 0
M  V30 5870 O 546.424 -0.420835 -2.24591 0
M  V30 5871 C 546.634 -3.4683 -0.388558 0
M  V30 5872 C 547.982 -4.19732 -0.641088 0
M  V30 5873 O 549.006 -3.53075 -0.470818 0
M  V30 5874 O 547.865 -5.3781 -0.970685 0
M  V30 5875 H 544.959 -0.806784 -0.18174 0
M  V30 5876 H 547.505 -1.65137 0.390898 0
M  V30 5877 H 546.277 -3.87055 0.574821 0
M  V30 5878 H 545.9 -3.80933 -1.1391 0
M  V30 5879 N 546.897 -0.0685191 -1.57451 0
M  V30 5880 C 548.313 0.288101 -1.56978 0
M  V30 5881 C 548.513 1.70262 -1.07765 0
M  V30 5882 O 547.569 2.4135 -0.742054 0
M  V30 5883 C 548.882 0.100745 -3.00531 0
M  V30 5884 C 550.43 0.170531 -3.12535 0
M  V30 5885 C 550.905 0.0114944 -4.57999 0
M  V30 5886 N 552.396 0.0672065 -4.63151 0
M  V30 5887 C 553.131 -0.0314813 -5.73391 0
M  V30 5888 N 552.627 -0.183503 -6.92557 0
M  V30 5889 N 554.42 0.0253489 -5.62094 0
M  V30 5890 H 546.571 -0.993026 -1.87757 0
M  V30 5891 H 548.834 -0.386981 -0.865419 0
M  V30 5892 H 548.54 -0.875197 -3.40636 0
M  V30 5893 H 548.414 0.854457 -3.67395 0
M  V30 5894 H 550.801 1.13696 -2.72318 0
M  V30 5895 H 550.882 -0.614229 -2.48316 0
M  V30 5896 H 550.526 -0.951684 -4.98904 0
M  V30 5897 H 550.456 0.815617 -5.20245 0
M  V30 5898 H 552.947 0.183246 -3.77455 0
M  V30 5899 H 553.26 -0.251041 -7.72392 0
M  V30 5900 H 551.605 -0.218822 -6.94655 0
M  V30 5901 H 554.796 0.142794 -4.67882 0
M  V30 5902 H 554.969 -0.0550166 -6.47977 0
M  V30 5903 N 548.375 1.56261 0.205012 0
M  V30 5904 C 549.323 1.94631 1.27364 0
M  V30 5905 C 550.317 0.830434 1.47649 0
M  V30 5906 O 551.523 1.01538 1.48627 0
M  V30 5907 H 547.898 0.618755 0.427371 0
M  V30 5908 H 549.869 2.83768 0.922941 0
M  V30 5909 C 548.618 2.29358 2.61324 0
M  V30 5910 H 547.941 3.14744 2.46528 0
M  V30 5911 H 549.381 2.60076 3.34868 0
M  V30 5912 C 547.84 1.12461 3.17575 0
M  V30 5913 O 548.37 0.394407 3.99759 0
M  V30 5914 N 546.576 0.904036 2.7618 0
M  V30 5915 H 546.123 1.49956 2.09454 0
M  V30 5916 H 546.081 0.123662 3.14157 0
M  V30 5917 N 549.853 -0.472356 1.50355 0
M  V30 5918 C 551.081 -1.24784 1.65035 0
M  V30 5919 C 551.496 -1.85837 0.333176 0
M  V30 5920 O 550.853 -1.69168 -0.68472 0
M  V30 5921 C 550.904 -2.35747 2.74054 0
M  V30 5922 O 550.625 -1.77197 4.00665 0
M  V30 5923 C 552.126 -3.26645 2.99696 0
M  V30 5924 H 549.346 -0.377432 0.554785 0
M  V30 5925 H 551.89 -0.563962 1.9657 0
M  V30 5926 H 550.045 -2.99912 2.45217 0
M  V30 5927 H 550.459 -2.5026 4.60945 0
M  V30 5928 H 551.933 -4.00718 3.79644 0
M  V30 5929 H 552.41 -3.8535 2.10718 0
M  V30 5930 H 553.016 -2.68218 3.3006 0
M  V30 5931 N 551.331 -1.39911 -0.725443 0
M  V30 5932 C 552.278 -1.39393 -1.83952 0
M  V30 5933 C 553.248 -0.252249 -1.64173 0
M  V30 5934 O 554.433 -0.44882 -1.85446 0
M  V30 5935 C 551.573 -1.25262 -3.21564 0
M  V30 5936 C 550.686 -2.49054 -3.52982 0
M  V30 5937 C 549.821 -2.27439 -4.80047 0
M  V30 5938 C 548.86 -3.46857 -5.04338 0
M  V30 5939 N 547.997 -3.24499 -6.22611 0
M  V30 5940 H 552.837 -2.34622 -1.83729 0
M  V30 5941 H 550.374 -1.16537 -0.897636 0
M  V30 5942 H 552.332 -1.15077 -4.01015 0
M  V30 5943 H 550.962 -0.33657 -3.21041 0
M  V30 5944 H 550.014 -2.69805 -2.6816 0
M  V30 5945 H 551.326 -3.37973 -3.66846 0
M  V30 5946 H 550.48 -2.14551 -5.67497 0
M  V30 5947 H 549.219 -1.35929 -4.68374 0
M  V30 5948 H 548.224 -3.60232 -4.15346 0
M  V30 5949 H 549.449 -4.3928 -5.17889 0
M  V30 5950 H 547.395 -2.35663 -6.12208 0
M  V30 5951 H 547.312 -4.06978 -6.37106 0
M  V30 5952 H 548.58 -3.15325 -7.12875 0
M  V30 5953 N 552.809 0.956637 -1.25245 0
M  V30 5954 C 554.225 1.22733 -1.02023 0
M  V30 5955 C 554.425 1.99761 0.264186 0
M  V30 5956 O 553.481 2.32814 0.977436 0
M  V30 5957 C 554.794 2.00367 -2.24217 0
M  V30 5958 C 556.342 2.13418 -2.28958 0
M  V30 5959 C 556.817 2.9445 -3.50803 0
M  V30 5960 N 558.308 3.02029 -3.51187 0
M  V30 5961 C 559.043 3.65116 -4.42129 0
M  V30 5962 N 558.539 4.2983 -5.43339 0
M  V30 5963 N 560.332 3.62237 -4.29815 0
M  V30 5964 H 552.483 0.441282 -2.07765 0
M  V30 5965 H 554.746 0.257686 -0.912306 0
M  V30 5966 H 554.452 1.51165 -3.17556 0
M  V30 5967 H 554.326 3.01077 -2.27228 0
M  V30 5968 H 556.713 2.61819 -1.36143 0
M  V30 5969 H 556.794 1.1202 -2.29968 0
M  V30 5970 H 556.438 2.46741 -4.43939 0
M  V30 5971 H 556.368 3.9607 -3.47039 0
M  V30 5972 H 558.859 2.56007 -2.77973 0
M  V30 5973 H 559.172 4.75819 -6.08947 0
M  V30 5974 H 557.517 4.28465 -5.47214 0
M  V30 5975 H 560.708 3.10863 -3.49974 0
M  V30 5976 H 560.881 4.11117 -5.00886 0
M  V30 5977 N 554.287 1.06798 1.15896 0
M  V30 5978 C 555.564 0.701057 1.82605 0
M  V30 5979 C 555.944 -0.817066 1.94646 0
M  V30 5980 O 555.292 -1.72933 1.49353 0
M  V30 5981 C 555.502 1.40895 3.19296 0
M  V30 5982 C 556.85 1.55744 3.95005 0
M  V30 5983 O 557.874 1.36927 3.28831 0
M  V30 5984 O 556.733 1.86658 5.13635 0
M  V30 5985 H 553.827 0.248791 0.78869 0
M  V30 5986 H 556.373 1.16857 1.23055 0
M  V30 5987 H 555.145 2.4439 3.05596 0
M  V30 5988 H 554.768 0.931847 3.86526 0
M  V30 5989 N 555.766 -1.3263 0.851289 0
M  V30 5990 C 557.015 -1.96633 0.449267 0
M  V30 5991 C 557.328 -1.68131 -0.999562 0
M  V30 5992 O 558.534 -2.25845 -1.50685 0
M  V30 5993 C 556.99 -3.51946 0.752446 0
M  V30 5994 C 556.598 -3.89311 2.21678 0
M  V30 5995 C 558.342 -4.22437 0.417983 0
M  V30 5996 C 556.249 -5.37655 2.46336 0
M  V30 5997 H 555.179 -0.735888 0.164269 0
M  V30 5998 H 557.83 -1.51073 1.0416 0
M  V30 5999 H 556.212 -3.95899 0.0895858 0
M  V30 6000 H 557.386 -3.56378 2.92115 0
M  V30 6001 H 555.701 -3.31836 2.51543 0
M  V30 6002 H 558.298 -5.31549 0.579674 0
M  V30 6003 H 558.641 -4.11349 -0.640115 0
M  V30 6004 H 559.174 -3.84057 1.03659 0
M  V30 6005 H 555.913 -5.5376 3.50757 0
M  V30 6006 H 555.433 -5.72005 1.80473 0
M  V30 6007 H 557.112 -6.04695 2.30115 0
M  V30 6008 N 557.244 -0.608902 -1.45362 0
M  V30 6009 C 558.472 -0.111013 -2.06602 0
M  V30 6010 C 558.887 1.20516 -1.45332 0
M  V30 6011 O 558.244 1.73437 -0.567978 0
M  V30 6012 C 558.295 0.033688 -3.61484 0
M  V30 6013 O 558.016 -1.23041 -4.20467 0
M  V30 6014 C 559.517 0.562882 -4.39712 0
M  V30 6015 H 556.737 -0.0694453 -0.667397 0
M  V30 6016 H 559.281 -0.837008 -1.86586 0
M  V30 6017 H 557.436 0.710016 -3.80838 0
M  V30 6018 H 557.85 -1.06094 -5.13658 0
M  V30 6019 H 559.324 0.613213 -5.48583 0
M  V30 6020 H 559.801 1.58543 -4.09586 0
M  V30 6021 H 560.407 -0.0794454 -4.25226 0
M  V30 6022 N 558.722 1.53707 -0.348139 0
M  V30 6023 C 559.652 2.28111 0.498766 0
M  V30 6024 C 560.633 1.29851 1.09876 0
M  V30 6025 O 561.818 1.587 1.11928 0
M  V30 6026 C 558.948 3.05735 1.64753 0
M  V30 6027 C 557.902 4.11537 1.17565 0
M  V30 6028 C 557.228 4.77142 2.4133 0
M  V30 6029 C 558.528 5.21587 0.272844 0
M  V30 6030 H 560.222 2.99152 -0.121934 0
M  V30 6031 H 557.768 1.43875 -0.0600842 0
M  V30 6032 H 559.721 3.56526 2.24649 0
M  V30 6033 H 558.445 2.32354 2.2952 0
M  V30 6034 H 557.104 3.61665 0.599483 0
M  V30 6035 H 556.752 4.0035 3.04514 0
M  V30 6036 H 556.452 5.48626 2.10436 0
M  V30 6037 H 557.976 5.30719 3.01943 0
M  V30 6038 H 559.39 5.67986 0.778779 0
M  V30 6039 H 557.787 6.00074 0.0555849 0
M  V30 6040 H 558.857 4.79969 -0.689785 0
M  V30 6041 N 560.2 0.0768682 1.57412 0
M  V30 6042 C 561.11 -0.903207 2.16516 0
M  V30 6043 C 562.126 -1.32341 1.12968 0
M  V30 6044 O 563.302 -1.39507 1.45258 0
M  V30 6045 C 560.367 -2.1508 2.71922 0
M  V30 6046 C 559.428 -1.78653 3.90361 0
M  V30 6047 C 558.661 -2.97465 4.43114 0
M  V30 6048 O 558.884 -4.11638 3.94854 0
M  V30 6049 O 557.818 -2.76987 5.3438 0
M  V30 6050 H 561.644 -0.430427 3.00634 0
M  V30 6051 H 559.229 -0.146485 1.4868 0
M  V30 6052 H 561.111 -2.8823 3.07411 0
M  V30 6053 H 559.786 -2.61446 1.9086 0
M  V30 6054 H 558.693 -1.0274 3.59716 0
M  V30 6055 H 560.026 -1.37066 4.7273 0
M  V30 6056 N 561.678 -1.56367 -0.196722 0
M  V30 6057 C 562.641 -1.93561 -1.22746 0
M  V30 6058 C 563.641 -0.816566 -1.38524 0
M  V30 6059 O 564.831 -1.084 -1.36363 0
M  V30 6060 C 561.963 -2.20823 -2.59712 0
M  V30 6061 H 563.156 -2.85774 -0.909586 0
M  V30 6062 H 560.709 -1.50032 -0.438174 0
M  V30 6063 H 561.444 -1.31243 -2.96557 0
M  V30 6064 H 561.229 -3.02368 -2.49632 0
M  V30 6065 H 562.719 -2.50608 -3.34044 0
M  V30 6066 N 563.156 0.464375 -1.50603 0
M  V30 6067 C 564.381 1.24372 -1.65971 0
M  V30 6068 C 564.806 1.84901 -0.345453 0
M  V30 6069 O 564.164 1.67596 0.691457 0
M  V30 6070 C 564.212 2.32331 -2.7578 0
M  V30 6071 O 563.316 3.37146 -2.375 0
M  V30 6072 H 562.657 0.365604 -0.554283 0
M  V30 6073 H 565.187 0.55183 -1.97018 0
M  V30 6074 H 565.197 2.77539 -2.99059 0
M  V30 6075 H 563.872 1.87648 -3.71162 0
M  V30 6076 H 562.449 2.97602 -2.24694 0
M  V30 6077 N 564.634 1.40294 0.718013 0
M  V30 6078 C 566.05 1.2227 1.02577 0
M  V30 6079 C 566.25 0.0961976 2.0127 0
M  V30 6080 O 565.306 -0.546695 2.46511 0
M  V30 6081 C 566.619 2.56348 1.57182 0
M  V30 6082 C 568.167 2.6334 1.69178 0
M  V30 6083 C 568.642 3.9768 2.27188 0
M  V30 6084 N 570.133 3.99409 2.34578 0
M  V30 6085 C 570.868 5.00141 2.8044 0
M  V30 6086 N 570.364 6.11268 3.26073 0
M  V30 6087 N 572.157 4.87511 2.79802 0
M  V30 6088 H 564.308 2.12304 0.0637899 0
M  V30 6089 H 566.571 0.943632 0.0909036 0
M  V30 6090 H 566.277 3.3942 0.921262 0
M  V30 6091 H 566.151 2.77266 2.55741 0
M  V30 6092 H 568.538 1.80641 2.33351 0
M  V30 6093 H 568.619 2.46255 0.692247 0
M  V30 6094 H 568.263 4.80817 1.63638 0
M  V30 6095 H 568.193 4.12093 3.27852 0
M  V30 6096 H 570.684 3.19162 2.02346 0
M  V30 6097 H 570.997 6.84023 3.59628 0
M  V30 6098 H 569.342 6.14837 3.24038 0
M  V30 6099 H 572.533 3.9979 2.43487 0
M  V30 6100 H 572.706 5.66158 3.15228 0
M  V30 6101 N 566.112 -0.949982 1.2575 0
M  V30 6102 C 567.022 -2.08109 1.08295 0
M  V30 6103 C 568.038 -1.7399 0.0188181 0
M  V30 6104 O 569.214 -2.00187 0.220724 0
M  V30 6105 C 566.279 -3.39383 0.708534 0
M  V30 6106 C 565.34 -3.8734 1.85111 0
M  V30 6107 C 564.573 -5.12349 1.49447 0
M  V30 6108 O 564.796 -5.6905 0.392212 0
M  V30 6109 O 563.73 -5.5513 2.32624 0
M  V30 6110 H 567.556 -2.25738 2.03165 0
M  V30 6111 H 565.141 -1.06545 1.04731 0
M  V30 6112 H 567.023 -4.18277 0.512061 0
M  V30 6113 H 565.698 -3.23013 -0.210854 0
M  V30 6114 H 564.605 -3.09429 2.10248 0
M  V30 6115 H 565.938 -4.08216 2.74991 0
M  V30 6116 N 567.59 -1.07411 -1.15328 0
M  V30 6117 C 568.538 -0.689316 -2.22151 0
M  V30 6118 C 569.532 0.300156 -1.6672 0
M  V30 6119 O 570.738 0.163804 -1.79253 0
M  V30 6120 H 567.113 -0.204834 -0.723566 0
M  V30 6121 H 569.084 -1.59988 -2.51886 0
M  V30 6122 C 567.833 -0.103848 -3.47545 0
M  V30 6123 H 567.156 -0.856367 -3.90521 0
M  V30 6124 H 568.596 0.127725 -4.23808 0
M  V30 6125 C 567.055 1.15563 -3.1646 0
M  V30 6126 O 567.585 2.242 -3.33312 0
M  V30 6127 N 565.791 1.06203 -2.70498 0
M  V30 6128 H 565.338 0.177933 -2.56985 0
M  V30 6129 H 565.296 1.90553 -2.50074 0
M  V30 6130 N 569.068 1.32177 -0.85831 0
M  V30 6131 C 570.016 2.30729 -0.294442 0
M  V30 6132 C 571.01 1.59009 0.584165 0
M  V30 6133 O 572.216 1.73713 0.471562 0
M  V30 6134 H 568.591 0.748097 -0.0765171 0
M  V30 6135 H 570.562 2.75774 -1.1398 0
M  V30 6136 C 569.311 3.44098 0.499208 0
M  V30 6137 H 568.634 3.99449 -0.167579 0
M  V30 6138 H 570.074 4.15202 0.859273 0
M  V30 6139 C 568.533 2.91684 1.68588 0
M  V30 6140 O 569.063 2.89481 2.78503 0
M  V30 6141 N 567.269 2.48036 1.51415 0
M  V30 6142 H 566.816 2.50027 0.620006 0
M  V30 6143 H 566.774 2.13322 2.30957 0
M  V30 6144 N 570.547 0.616602 1.45037 0
M  V30 6145 C 571.494 -0.0969439 2.30596 0
M  V30 6146 C 572.464 -0.851151 1.42635 0
M  V30 6147 O 573.649 -0.835092 1.71554 0
M  V30 6148 C 570.789 -1.08234 3.27688 0
M  V30 6149 C 569.902 -0.328072 4.30752 0
M  V30 6150 C 569.037 -1.30399 5.14946 0
M  V30 6151 C 568.076 -0.538049 6.09731 0
M  V30 6152 N 567.213 -1.46371 6.86673 0
M  V30 6153 H 572.053 0.63864 2.91076 0
M  V30 6154 H 569.59 0.326733 1.43425 0
M  V30 6155 H 571.548 -1.66688 3.82454 0
M  V30 6156 H 570.178 -1.78523 2.68941 0
M  V30 6157 H 569.23 0.372136 3.78575 0
M  V30 6158 H 570.542 0.269142 4.98073 0
M  V30 6159 H 569.696 -1.96032 5.74157 0
M  V30 6160 H 568.435 -1.93514 4.47665 0
M  V30 6161 H 567.44 0.131852 5.49642 0
M  V30 6162 H 568.665 0.0881732 6.79043 0
M  V30 6163 H 566.611 -2.08233 6.22073 0
M  V30 6164 H 566.528 -0.920152 7.50379 0
M  V30 6165 H 567.796 -2.10932 7.50418 0
M  V30 6166 N 572.025 -1.5352 0.356285 0
M  V30 6167 C 573.436 -1.86282 -0.12492 0
M  V30 6168 C 573.787 -1.27717 -1.48939 0
M  V30 6169 O 572.912 -0.595614 -2.08042 0
M  V30 6170 C 573.507 -3.37995 -0.23345 0
M  V30 6171 C 572.066 -3.70588 -0.658899 0
M  V30 6172 C 571.213 -2.76581 0.199596 0
M  V30 6173 H 574.164 -1.47901 0.575423 0
M  V30 6174 H 574.185 -3.65475 -1.0587 0
M  V30 6175 H 573.697 -3.8059 0.759776 0
M  V30 6176 H 571.798 -3.33544 -1.66069 0
M  V30 6177 H 571.911 -4.77076 -0.439957 0
M  V30 6178 H 570.275 -2.52552 -0.330076 0
M  V30 6179 H 571.058 -3.22008 1.19019 0
M  V30 6180 N 573.503 -0.0852151 -1.57369 0
M  V30 6181 C 574.919 0.271436 -1.57275 0
M  V30 6182 C 575.119 1.69109 -1.09565 0
M  V30 6183 O 574.175 2.40549 -0.767611 0
M  V30 6184 C 575.488 0.0688638 -3.00621 0
M  V30 6185 C 577.036 0.137373 -3.12698 0
M  V30 6186 C 577.511 -0.0370832 -4.57985 0
M  V30 6187 N 579.002 0.0180794 -4.63196 0
M  V30 6188 C 579.737 -0.0922953 -5.73326 0
M  V30 6189 N 579.233 -0.256948 -6.92323 0
M  V30 6190 N 581.026 -0.0342702 -5.6209 0
M  V30 6191 H 573.177 -1.01288 -1.86693 0
M  V30 6192 H 575.44 -0.396138 -0.861266 0
M  V30 6193 H 575.146 -0.911277 -3.39689 0
M  V30 6194 H 575.02 0.815442 -3.6828 0
M  V30 6195 H 577.407 1.10801 -2.73509 0
M  V30 6196 H 577.488 -0.640532 -2.47651 0
M  V30 6197 H 577.132 -1.00455 -4.97867 0
M  V30 6198 H 577.062 0.760392 -5.21081 0
M  V30 6199 H 579.553 0.143202 -3.77629 0
M  V30 6200 H 579.866 -0.332949 -7.72082 0
M  V30 6201 H 578.211 -0.292487 -6.94384 0
M  V30 6202 H 581.402 0.0931605 -4.68007 0
M  V30 6203 H 581.575 -0.12374 -6.47882 0
M  V30 6204 N 574.981 1.5647 0.188427 0
M  V30 6205 C 576.209 1.85131 0.923803 0
M  V30 6206 C 576.624 0.668537 1.76567 0
M  V30 6207 O 575.981 -0.362662 1.7886 0
M  V30 6208 C 576.032 3.12661 1.81453 0
M  V30 6209 O 575.753 4.26378 1.00665 0
M  V30 6210 C 577.254 3.54548 2.66103 0
M  V30 6211 H 574.474 0.614624 0.269218 0
M  V30 6212 H 577.018 2.03581 0.193671 0
M  V30 6213 H 575.173 2.96088 2.49821 0
M  V30 6214 H 575.587 4.99041 1.61425 0
M  V30 6215 H 577.061 4.4673 3.24247 0
M  V30 6216 H 577.538 2.77853 3.40139 0
M  V30 6217 H 578.144 3.73674 2.03096 0
M  V30 6218 N 576.459 -0.456382 1.50847 0
M  V30 6219 C 577.705 -1.20914 1.62811 0
M  V30 6220 C 578.038 -1.91301 0.334304 0
M  V30 6221 O 577.313 -1.82775 -0.665098 0
M  V30 6222 C 577.596 -2.24122 2.81853 0
M  V30 6223 C 577.449 -1.57944 4.21158 0
M  V30 6224 C 578.768 -3.25295 2.96431 0
M  V30 6225 H 575.887 -0.438233 0.592554 0
M  V30 6226 H 578.529 -0.50091 1.83278 0
M  V30 6227 H 576.679 -2.84524 2.64534 0
M  V30 6228 H 578.351 -1.01025 4.50102 0
M  V30 6229 H 576.594 -0.882185 4.24735 0
M  V30 6230 H 577.265 -2.33014 5.00408 0
M  V30 6231 H 579.741 -2.7493 3.12335 0
M  V30 6232 H 578.617 -3.94822 3.81322 0
M  V30 6233 H 578.878 -3.90286 2.07676 0
M  V30 6234 N 577.937 -1.40673 -0.710563 0
M  V30 6235 C 578.867 -1.44095 -1.83736 0
M  V30 6236 C 579.848 -0.301286 -1.67411 0
M  V30 6237 O 581.033 -0.510618 -1.87367 0
M  V30 6238 C 578.163 -1.30773 -3.21738 0
M  V30 6239 C 577.117 -2.42395 -3.52745 0
M  V30 6240 C 576.443 -2.14147 -4.89944 0
M  V30 6241 C 577.743 -3.84738 -3.53234 0
M  V30 6242 H 579.437 -2.38396 -1.81129 0
M  V30 6243 H 576.983 -1.14746 -0.870017 0
M  V30 6244 H 578.936 -1.31783 -4.00264 0
M  V30 6245 H 577.66 -0.329507 -3.24934 0
M  V30 6246 H 576.319 -2.40643 -2.76562 0
M  V30 6247 H 575.967 -1.14703 -4.89747 0
M  V30 6248 H 575.667 -2.88934 -5.11655 0
M  V30 6249 H 577.191 -2.16848 -5.70797 0
M  V30 6250 H 578.605 -3.88286 -4.2179 0
M  V30 6251 H 577.002 -4.59085 -3.86473 0
M  V30 6252 H 578.072 -4.13962 -2.52514 0
M  V30 6253 N 579.415 0.9433 -1.26252 0
M  V30 6254 C 580.362 2.0417 -1.07625 0
M  V30 6255 C 581.332 1.6609 0.0180738 0
M  V30 6256 O 582.517 1.90276 -0.141289 0
M  V30 6257 C 579.657 3.37653 -0.713043 0
M  V30 6258 C 578.77 3.88783 -1.8834 0
M  V30 6259 C 577.905 5.10642 -1.4635 0
M  V30 6260 C 576.944 5.54028 -2.60229 0
M  V30 6261 N 576.081 6.67092 -2.18936 0
M  V30 6262 H 580.921 2.19436 -2.01623 0
M  V30 6263 H 578.458 1.07519 -1.00389 0
M  V30 6264 H 580.416 4.14391 -0.483358 0
M  V30 6265 H 579.046 3.22241 0.18996 0
M  V30 6266 H 578.098 3.08464 -2.22608 0
M  V30 6267 H 579.41 4.16922 -2.73821 0
M  V30 6268 H 578.564 5.94832 -1.19414 0
M  V30 6269 H 577.303 4.84244 -0.579568 0
M  V30 6270 H 576.308 4.68396 -2.87898 0
M  V30 6271 H 577.533 5.82429 -3.49219 0
M  V30 6272 H 575.479 6.42381 -1.32974 0
M  V30 6273 H 575.396 6.94806 -2.97961 0
M  V30 6274 H 576.664 7.54662 -1.95206 0
M  V30 6275 N 580.893 1.08022 1.14757 0
M  V30 6276 C 582.304 0.829144 1.67279 0
M  V30 6277 C 582.655 -0.644721 1.85305 0
M  V30 6278 O 581.78 -1.49838 1.56133 0
M  V30 6279 C 582.375 1.49855 3.03857 0
M  V30 6280 C 580.934 1.29482 3.53428 0
M  V30 6281 C 580.081 1.56386 2.28995 0
M  V30 6282 H 583.032 1.24134 0.988762 0
M  V30 6283 H 583.053 0.923572 3.69121 0
M  V30 6284 H 582.565 2.57123 2.90705 0
M  V30 6285 H 580.666 0.242669 3.71809 0
M  V30 6286 H 580.779 2.01974 4.34446 0
M  V30 6287 H 579.143 0.985217 2.34874 0
M  V30 6288 H 579.926 2.64851 2.18423 0
M  V30 6289 N 582.371 -1.3172 0.865308 0
M  V30 6290 C 583.787 -1.4958 0.556596 0
M  V30 6291 C 583.987 -1.79763 -0.910353 0
M  V30 6292 O 583.043 -1.87351 -1.6928 0
M  V30 6293 C 584.356 -2.63277 1.45279 0
M  V30 6294 C 585.904 -2.77161 1.45433 0
M  V30 6295 C 586.379 -3.93949 2.33598 0
M  V30 6296 N 587.87 -4.01228 2.31453 0
M  V30 6297 C 588.605 -4.90855 2.96393 0
M  V30 6298 N 588.101 -5.85416 3.70486 0
M  V30 6299 N 589.894 -4.84063 2.85726 0
M  V30 6300 H 582.045 -1.10396 1.81456 0
M  V30 6301 H 584.308 -0.54507 0.775631 0
M  V30 6302 H 584.014 -2.47734 2.49641 0
M  V30 6303 H 583.888 -3.59309 1.14792 0
M  V30 6304 H 586.275 -2.9212 0.41831 0
M  V30 6305 H 586.356 -1.8181 1.79941 0
M  V30 6306 H 586 -3.79748 3.37274 0
M  V30 6307 H 585.93 -4.88598 1.96417 0
M  V30 6308 H 588.421 -3.3357 1.77593 0
M  V30 6309 H 588.734 -6.50525 4.17178 0
M  V30 6310 H 587.079 -5.85409 3.74594 0
M  V30 6311 H 590.27 -4.09163 2.27384 0
M  V30 6312 H 590.443 -5.53708 3.36617 0
M  V30 6313 N 583.85 -0.624285 -1.44708 0
M  V30 6314 C 584.797 0.0847135 -2.30644 0
M  V30 6315 C 585.767 0.843575 -1.43084 0
M  V30 6316 O 586.952 0.825982 -1.71995 0
M  V30 6317 C 584.091 1.06495 -3.28257 0
M  V30 6318 C 583.205 0.305224 -4.3092 0
M  V30 6319 C 582.34 1.27667 -5.1563 0
M  V30 6320 C 581.379 0.505706 -6.10007 0
M  V30 6321 N 580.516 1.42727 -6.8744 0
M  V30 6322 H 585.356 -0.654068 -2.90733 0
M  V30 6323 H 582.893 -0.334334 -1.4325 0
M  V30 6324 H 584.851 1.64658 -3.83332 0
M  V30 6325 H 583.481 1.77094 -2.69884 0
M  V30 6326 H 582.533 -0.392207 -3.78373 0
M  V30 6327 H 583.845 -0.295553 -4.97924 0
M  V30 6328 H 582.999 1.92984 -5.75189 0
M  V30 6329 H 581.738 1.91137 -4.48685 0
M  V30 6330 H 580.743 -0.160999 -5.49564 0
M  V30 6331 H 581.968 -0.124183 -6.78986 0
M  V30 6332 H 579.913 2.04931 -6.23169 0
M  V30 6333 H 579.831 0.880345 -7.50857 0
M  V30 6334 H 581.099 2.0695 -7.51526 0
M  V30 6335 N 585.328 1.53329 -0.364422 0
M  V30 6336 C 586.574 2.01537 0.225969 0
M  V30 6337 C 586.907 1.25128 1.48515 0
M  V30 6338 O 586.182 0.344653 1.91422 0
M  V30 6339 C 586.465 3.56339 0.519092 0
M  V30 6340 C 586.318 4.43441 -0.753639 0
M  V30 6341 C 587.637 4.19833 1.32015 0
M  V30 6342 H 584.756 0.732573 0.0806548 0
M  V30 6343 H 587.398 1.83597 -0.489084 0
M  V30 6344 H 585.548 3.71756 1.12825 0
M  V30 6345 H 587.22 4.39823 -1.39116 0
M  V30 6346 H 585.463 4.11457 -1.37424 0
M  V30 6347 H 586.134 5.49699 -0.503517 0
M  V30 6348 H 588.61 4.08242 0.804859 0
M  V30 6349 H 587.486 5.28177 1.49399 0
M  V30 6350 H 587.747 3.75821 2.32832 0
M  V30 6351 N 586.806 0.0935595 1.57322 0
M  V30 6352 C 588.046 -0.573901 1.96178 0
M  V30 6353 C 588.41 -1.65445 0.97426 0
M  V30 6354 O 589.611 -2.37901 1.25126 0
M  V30 6355 C 587.882 -1.11612 3.39526 0
M  V30 6356 S 589.441 -1.79566 4.00377 0
M  V30 6357 H 586.259 -0.187315 0.685882 0
M  V30 6358 H 588.861 0.172597 1.94737 0
M  V30 6359 H 587.565 -0.31815 4.09165 0
M  V30 6360 H 587.096 -1.89848 3.4456 0
M  V30 6361 H 589.111 -3.07978 3.89056 0
M  V30 6362 N 588.284 -1.56567 -0.180126 0
M  V30 6363 C 589.247 -1.94852 -1.20686 0
M  V30 6364 C 590.247 -0.831212 -1.3765 0
M  V30 6365 O 591.437 -1.09841 -1.35206 0
M  V30 6366 C 588.569 -2.23565 -2.57355 0
M  V30 6367 H 589.762 -2.86722 -0.879225 0
M  V30 6368 H 587.315 -1.50489 -0.422237 0
M  V30 6369 H 588.05 -1.34381 -2.95148 0
M  V30 6370 H 587.835 -3.04999 -2.46411 0
M  V30 6371 H 589.325 -2.54137 -3.31367 0
M  V30 6372 N 589.762 0.448376 -1.51087 0
M  V30 6373 C 590.987 1.22605 -1.6728 0
M  V30 6374 C 591.412 1.84524 -0.365045 0
M  V30 6375 O 590.77 1.6832 0.673642 0
M  V30 6376 C 590.818 2.29393 -2.78229 0
M  V30 6377 O 589.922 3.34608 -2.41063 0
M  V30 6378 H 589.263 0.359705 -0.558129 0
M  V30 6379 H 591.793 0.530903 -1.97592 0
M  V30 6380 H 591.803 2.74352 -3.01986 0
M  V30 6381 H 590.478 1.83701 -3.73131 0
M  V30 6382 H 589.055 2.95202 -2.27838 0
M  V30 6383 N 591.24 1.41047 0.703093 0
M  V30 6384 C 592.488 1.39723 1.4602 0
M  V30 6385 C 592.809 0.00461257 1.94999 0
M  V30 6386 O 592.079 -0.952292 1.71196 0
M  V30 6387 H 590.659 0.514281 0.541779 0
M  V30 6388 H 593.321 1.76217 0.832678 0
M  V30 6389 H 592.417 2.07982 2.32701 0
M  V30 6390 N 592.718 -0.936591 1.26751 0
M  V30 6391 C 593.665 -2.03597 1.08706 0
M  V30 6392 C 594.635 -1.66097 -0.00926542 0
M  V30 6393 O 595.82 -1.90199 0.151377 0
M  V30 6394 C 592.96 -3.3727 0.73094 0
M  V30 6395 C 592.073 -3.87778 1.90399 0
M  V30 6396 C 591.208 -5.09859 1.49056 0
M  V30 6397 C 590.247 -5.5264 2.63164 0
M  V30 6398 N 589.384 -6.65921 2.22471 0
M  V30 6399 H 594.224 -2.18364 2.02784 0
M  V30 6400 H 591.761 -1.06985 1.00958 0
M  V30 6401 H 593.719 -4.14128 0.505328 0
M  V30 6402 H 592.349 -3.22337 -0.172868 0
M  V30 6403 H 591.401 -3.07279 2.2424 0
M  V30 6404 H 592.713 -4.15464 2.76028 0
M  V30 6405 H 591.867 -5.9419 1.22567 0
M  V30 6406 H 590.606 -4.8393 0.60524 0
M  V30 6407 H 589.611 -4.66863 2.90377 0
M  V30 6408 H 590.836 -5.80568 3.52303 0
M  V30 6409 H 588.782 -6.41667 1.36379 0
M  V30 6410 H 588.699 -6.93216 3.01641 0
M  V30 6411 H 589.967 -7.53616 1.99205 0
M  V30 6412 N 594.196 -1.08629 -1.14182 0
M  V30 6413 C 595.612 -0.814363 -1.3726 0
M  V30 6414 C 595.812 0.575271 -1.93114 0
M  V30 6415 O 594.868 1.33165 -2.1453 0
M  V30 6416 C 596.181 -1.8989 -2.33157 0
M  V30 6417 C 597.729 -1.92518 -2.46791 0
M  V30 6418 C 598.204 -3.00092 -3.45989 0
M  V30 6419 N 599.695 -2.99279 -3.53534 0
M  V30 6420 C 600.43 -3.79158 -4.30147 0
M  V30 6421 N 599.926 -4.68923 -5.09983 0
M  V30 6422 N 601.719 -3.67451 -4.25366 0
M  V30 6423 H 593.87 -1.98232 -0.762758 0
M  V30 6424 H 596.133 -0.860383 -0.398051 0
M  V30 6425 H 595.839 -2.89809 -1.99257 0
M  V30 6426 H 595.713 -1.77013 -3.33086 0
M  V30 6427 H 598.1 -0.932425 -2.79982 0
M  V30 6428 H 598.181 -2.09473 -1.46816 0
M  V30 6429 H 597.825 -3.99575 -3.13532 0
M  V30 6430 H 597.755 -2.80382 -4.45751 0
M  V30 6431 H 600.246 -2.3422 -2.96563 0
M  V30 6432 H 600.559 -5.26475 -5.65724 0
M  V30 6433 H 598.904 -4.72964 -5.09244 0
M  V30 6434 H 602.095 -2.9669 -3.62067 0
M  V30 6435 H 602.268 -4.29944 -4.84822 0
M  V30 6436 N 595.674 1.31259 -0.872281 0
M  V30 6437 C 596.621 2.28459 -0.327857 0
M  V30 6438 C 597.591 1.55831 0.574957 0
M  V30 6439 O 598.776 1.83965 0.506101 0
M  V30 6440 C 595.916 3.41985 0.462644 0
M  V30 6441 C 595.029 4.29458 -0.467949 0
M  V30 6442 C 594.164 5.30131 0.336903 0
M  V30 6443 C 593.203 6.0925 -0.58997 0
M  V30 6444 N 592.34 7.01872 0.178775 0
M  V30 6445 H 597.18 2.74414 -1.16193 0
M  V30 6446 H 594.717 1.34994 -0.584376 0
M  V30 6447 H 596.675 4.06547 0.936759 0
M  V30 6448 H 595.305 2.97134 1.2614 0
M  V30 6449 H 594.357 3.65318 -1.06052 0
M  V30 6450 H 595.669 4.84677 -1.17856 0
M  V30 6451 H 594.823 6.0038 0.873427 0
M  V30 6452 H 593.562 4.75573 1.08079 0
M  V30 6453 H 592.567 5.37889 -1.13823 0
M  V30 6454 H 593.792 6.65894 -1.33275 0
M  V30 6455 H 591.738 6.49721 0.905435 0
M  V30 6456 H 591.655 7.54522 -0.472452 0
M  V30 6457 H 592.923 7.76382 0.696454 0
M  V30 6458 N 597.152 0.631951 1.44375 0
M  V30 6459 C 598.099 -0.0724807 2.30686 0
M  V30 6460 C 599.069 -0.835975 1.43529 0
M  V30 6461 O 600.254 -0.816849 1.7243 0
M  V30 6462 C 597.394 -1.04753 3.28817 0
M  V30 6463 C 596.507 -0.282367 4.31076 0
M  V30 6464 C 595.642 -1.2493 5.163 0
M  V30 6465 C 594.681 -0.473349 6.10267 0
M  V30 6466 N 593.818 -1.39079 6.88187 0
M  V30 6467 H 598.658 0.669477 2.90383 0
M  V30 6468 H 596.195 0.341927 1.43071 0
M  V30 6469 H 598.153 -1.62623 3.842 0
M  V30 6470 H 596.783 -1.75661 2.70819 0
M  V30 6471 H 595.835 0.412268 3.78159 0
M  V30 6472 H 597.147 0.321955 4.9776 0
M  V30 6473 H 596.301 -1.89931 5.76204 0
M  V30 6474 H 595.04 -1.88755 4.49692 0
M  V30 6475 H 594.045 0.190142 5.49471 0
M  V30 6476 H 595.27 0.16019 6.78911 0
M  V30 6477 H 593.216 -2.01623 6.24247 0
M  V30 6478 H 593.133 -0.840513 7.51313 0
M  V30 6479 H 594.401 -2.02961 7.52613 0
M  V30 6480 N 598.631 -1.53133 0.372548 0
M  V30 6481 C 599.908 -1.93704 -0.271693 0
M  V30 6482 C 600.288 -1.30667 -1.65799 0
M  V30 6483 O 599.636 -0.46838 -2.23648 0
M  V30 6484 C 599.846 -3.47576 -0.314903 0
M  V30 6485 C 601.194 -4.20998 -0.551912 0
M  V30 6486 O 602.218 -3.53994 -0.39582 0
M  V30 6487 O 601.077 -5.39748 -0.85639 0
M  V30 6488 H 598.171 -0.810457 -0.164586 0
M  V30 6489 H 600.717 -1.6427 0.425838 0
M  V30 6490 H 599.489 -3.85749 0.656792 0
M  V30 6491 H 599.112 -3.83264 -1.05804 0
M  V30 6492 N 600.109 -0.101901 -1.5727 0
M  V30 6493 C 601.019 0.868647 -2.17926 0
M  V30 6494 C 602.035 1.30527 -1.1506 0
M  V30 6495 O 603.211 1.37178 -1.47459 0
M  V30 6496 C 600.276 2.10727 -2.75309 0
M  V30 6497 C 599.337 1.7242 -3.93154 0
M  V30 6498 C 598.57 2.90377 -4.47791 0
M  V30 6499 O 598.793 4.05305 -4.01353 0
M  V30 6500 O 597.727 2.6845 -5.38719 0
M  V30 6501 H 601.553 0.382544 -3.01281 0
M  V30 6502 H 599.138 0.122812 -1.48894 0
M  V30 6503 H 601.02 2.83303 -3.11958 0
M  V30 6504 H 599.695 2.58376 -1.94996 0
M  V30 6505 H 598.602 0.970039 -3.61305 0
M  V30 6506 H 599.935 1.29528 -4.74851 0
M  V30 6507 N 601.587 1.56661 0.17182 0
M  V30 6508 C 602.836 1.81158 0.886831 0
M  V30 6509 C 603.149 0.679072 1.83434 0
M  V30 6510 O 604.355 0.808964 2.59168 0
M  V30 6511 C 602.811 3.20999 1.6275 0
M  V30 6512 C 602.419 4.42117 0.723652 0
M  V30 6513 C 604.163 3.5479 2.33076 0
M  V30 6514 C 602.07 5.7298 1.46452 0
M  V30 6515 H 601 0.675543 0.334899 0
M  V30 6516 H 603.651 1.82967 0.139765 0
M  V30 6517 H 602.033 3.13506 2.4193 0
M  V30 6518 H 603.207 4.60789 -0.0311485 0
M  V30 6519 H 601.522 4.16197 0.130063 0
M  V30 6520 H 604.119 4.49806 2.89099 0
M  V30 6521 H 604.462 2.79646 3.08389 0
M  V30 6522 H 604.995 3.63834 1.6084 0
M  V30 6523 H 601.734 6.51152 0.753729 0
M  V30 6524 H 601.254 5.58285 2.19266 0
M  V30 6525 H 602.933 6.14916 2.01214 0
M  V30 6526 N 603.065 -0.440357 1.51323 0
M  V30 6527 C 604.29 -1.21716 1.67928 0
M  V30 6528 C 604.715 -1.84328 0.374826 0
M  V30 6529 O 604.073 -1.68675 -0.664706 0
M  V30 6530 C 604.121 -2.27914 2.79442 0
M  V30 6531 O 603.225 -3.33325 2.42834 0
M  V30 6532 H 602.566 -0.35674 0.560029 0
M  V30 6533 H 605.096 -0.520417 1.97871 0
M  V30 6534 H 605.106 -2.72746 3.03436 0
M  V30 6535 H 603.781 -1.8172 3.741 0
M  V30 6536 H 602.358 -2.9399 2.294 0
M  V30 6537 N 604.543 -1.41418 -0.695603 0
M  V30 6538 C 605.789 -1.40982 -1.4578 0
M  V30 6539 C 606.122 -0.0187763 -1.94191 0
M  V30 6540 O 605.397 0.95346 -1.69527 0
M  V30 6541 C 605.68 -2.41657 -2.66972 0
M  V30 6542 C 605.533 -3.89869 -2.24327 0
M  V30 6543 C 606.852 -2.39589 -3.69168 0
M  V30 6544 H 603.971 -0.513405 -0.528757 0
M  V30 6545 H 606.613 -1.72693 -0.792275 0
M  V30 6546 H 604.763 -2.14746 -3.23754 0
M  V30 6547 H 606.435 -4.27683 -1.72872 0
M  V30 6548 H 604.678 -4.04737 -1.56111 0
M  V30 6549 H 605.349 -4.55857 -3.11285 0
M  V30 6550 H 607.825 -2.63471 -3.2206 0
M  V30 6551 H 606.701 -3.12044 -4.51575 0
M  V30 6552 H 606.962 -1.41447 -4.18862 0
M  V30 6553 N 606.021 0.929856 -1.27246 0
M  V30 6554 C 607.298 1.65544 -1.04186 0
M  V30 6555 C 607.678 2.06796 0.424097 0
M  V30 6556 O 607.026 1.80053 1.40688 0
M  V30 6557 C 607.236 2.85912 -2.00138 0
M  V30 6558 C 608.584 3.57305 -2.29387 0
M  V30 6559 O 609.608 2.96036 -1.98094 0
M  V30 6560 O 608.467 4.67688 -2.82719 0
M  V30 6561 H 605.561 0.725473 -0.397011 0
M  V30 6562 H 608.107 0.980583 -1.38501 0
M  V30 6563 H 606.879 2.52403 -2.99013 0
M  V30 6564 H 606.502 3.61118 -1.66371 0
M  V30 6565 N 607.499 1.09233 1.13605 0
M  V30 6566 C 608.724 0.849067 1.89224 0
M  V30 6567 C 609.149 -0.593875 1.78479 0
M  V30 6568 O 608.507 -1.41703 1.13092 0
M  V30 6569 C 608.555 1.28642 3.36873 0
M  V30 6570 O 607.659 0.44363 4.10007 0
M  V30 6571 H 607 0.30767 0.588417 0
M  V30 6572 H 609.53 1.45595 1.43748 0
M  V30 6573 H 609.54 1.27096 3.87699 0
M  V30 6574 H 608.215 2.33729 3.44011 0
M  V30 6575 H 606.792 0.523241 3.69211 0
M  V30 6576 N 608.977 -1.30795 0.87923 0
M  V30 6577 C 609.907 -2.30742 0.357796 0
M  V30 6578 C 610.888 -1.60747 -0.556283 0
M  V30 6579 O 612.073 -1.88393 -0.47135 0
M  V30 6580 C 609.203 -3.44583 -0.433555 0
M  V30 6581 C 608.157 -4.26235 0.388251 0
M  V30 6582 C 607.483 -5.32073 -0.529352 0
M  V30 6583 C 608.783 -4.96303 1.62729 0
M  V30 6584 H 610.477 -2.74605 1.19299 0
M  V30 6585 H 608.023 -1.32017 0.575104 0
M  V30 6586 H 609.976 -4.13563 -0.808934 0
M  V30 6587 H 608.7 -2.99511 -1.30234 0
M  V30 6588 H 607.359 -3.58936 0.745695 0
M  V30 6589 H 607.007 -4.83249 -1.39569 0
M  V30 6590 H 606.707 -5.87598 0.0166741 0
M  V30 6591 H 608.231 -6.0391 -0.901373 0
M  V30 6592 H 609.645 -5.5783 1.32283 0
M  V30 6593 H 608.042 -5.61666 2.11309 0
M  V30 6594 H 609.112 -4.22758 2.37494 0
M  V30 6595 N 610.455 -0.639598 -1.44038 0
M  V30 6596 C 611.732 -0.078012 -1.95444 0
M  V30 6597 C 612.112 1.39847 -1.58133 0
M  V30 6598 O 611.46 2.11714 -0.859614 0
M  V30 6599 C 611.67 -0.309832 -3.47622 0
M  V30 6600 C 613.018 -0.207521 -4.24093 0
M  V30 6601 O 614.042 -0.241653 -3.55379 0
M  V30 6602 O 612.901 -0.119641 -5.46369 0
M  V30 6603 H 609.995 0.0174534 -0.826816 0
M  V30 6604 H 612.541 -0.711891 -1.54046 0
M  V30 6605 H 611.313 -1.33401 -3.67858 0
M  V30 6606 H 610.936 0.357777 -3.95987 0
M  V30 6607 N 611.933 1.52934 -0.380664 0
M  V30 6608 C 613.18 2.01467 0.204278 0
M  V30 6609 C 613.508 1.26744 1.47533 0
M  V30 6610 O 612.763 0.353723 1.92477 0
M  V30 6611 C 613.062 3.5349 0.527199 0
M  V30 6612 C 612.728 4.46171 -0.651295 0
M  V30 6613 C 611.39 4.71227 -0.974619 0
M  V30 6614 C 613.742 5.00909 -1.44012 0
M  V30 6615 C 611.07 5.4827 -2.08847 0
M  V30 6616 C 613.422 5.7917 -2.5445 0
M  V30 6617 C 612.086 6.02507 -2.87301 0
M  V30 6618 H 611.356 0.73722 0.0747504 0
M  V30 6619 H 614.003 1.84411 -0.516234 0
M  V30 6620 H 612.308 3.68574 1.32892 0
M  V30 6621 H 614.005 3.88529 0.992283 0
M  V30 6622 H 610.595 4.26829 -0.389276 0
M  V30 6623 H 614.779 4.81485 -1.20357 0
M  V30 6624 H 610.035 5.64567 -2.34679 0
M  V30 6625 H 614.209 6.20588 -3.1598 0
M  V30 6626 H 611.836 6.61989 -3.7373 0
M  V30 6627 N 613.412 0.11024 1.57214 0
M  V30 6628 C 614.36 -0.860586 2.16094 0
M  V30 6629 C 615.354 -1.28156 1.1078 0
M  V30 6630 O 616.56 -1.25433 1.29099 0
M  V30 6631 H 612.935 -0.295606 0.691463 0
M  V30 6632 H 614.906 -0.33942 2.96463 0
M  V30 6633 C 613.655 -2.10421 2.768 0
M  V30 6634 H 612.978 -1.7892 3.5753 0
M  V30 6635 H 614.418 -2.76375 3.21547 0
M  V30 6636 C 612.877 -2.88823 1.73444 0
M  V30 6637 O 613.407 -3.839 1.18251 0
M  V30 6638 N 611.613 -2.52649 1.43586 0
M  V30 6639 H 611.16 -1.754 1.8866 0
M  V30 6640 H 611.118 -3.05403 0.746735 0
M  V30 6641 N 614.89 -1.56749 -0.16351 0
M  V30 6642 C 615.837 -1.97011 -1.2023 0
M  V30 6643 C 616.807 -0.835186 -1.43575 0
M  V30 6644 O 617.992 -1.09594 -1.56185 0
M  V30 6645 C 615.132 -2.34186 -2.53478 0
M  V30 6646 C 614.245 -3.60893 -2.37446 0
M  V30 6647 C 613.38 -3.87245 -3.63614 0
M  V30 6648 C 612.419 -5.07274 -3.42548 0
M  V30 6649 N 611.556 -5.29719 -4.60806 0
M  V30 6650 H 616.396 -2.85562 -0.851958 0
M  V30 6651 H 613.933 -1.41292 -0.409257 0
M  V30 6652 H 615.891 -2.53764 -3.31149 0
M  V30 6653 H 614.521 -1.48736 -2.86492 0
M  V30 6654 H 613.573 -3.49185 -1.50911 0
M  V30 6655 H 614.885 -4.48722 -2.1783 0
M  V30 6656 H 614.039 -4.07232 -4.49719 0
M  V30 6657 H 612.778 -2.97806 -3.86216 0
M  V30 6658 H 611.783 -4.87177 -2.5483 0
M  V30 6659 H 613.008 -5.98251 -3.2136 0
M  V30 6660 H 610.954 -4.43233 -4.83612 0
M  V30 6661 H 610.871 -6.11786 -4.44132 0
M  V30 6662 H 612.139 -5.54192 -5.48171 0
M  V30 6663 N 616.368 0.432326 -1.51554 0
M  V30 6664 C 617.315 1.52512 -1.7323 0
M  V30 6665 C 618.285 1.55863 -0.5741 0
M  V30 6666 O 619.47 1.72796 -0.809093 0
M  V30 6667 C 616.61 2.90183 -1.86783 0
M  V30 6668 C 615.723 2.96322 -3.14352 0
M  V30 6669 C 614.858 4.25147 -3.18471 0
M  V30 6670 C 613.897 4.25172 -4.40335 0
M  V30 6671 N 613.034 5.45529 -4.41975 0
M  V30 6672 H 617.874 1.33332 -2.66508 0
M  V30 6673 H 615.411 0.647613 -1.32077 0
M  V30 6674 H 617.369 3.70071 -1.92623 0
M  V30 6675 H 615.999 3.0791 -0.969087 0
M  V30 6676 H 615.051 2.09066 -3.17798 0
M  V30 6677 H 616.363 2.92203 -4.04251 0
M  V30 6678 H 615.517 5.13411 -3.23255 0
M  V30 6679 H 614.256 4.31929 -2.2647 0
M  V30 6680 H 613.261 3.353 -4.35723 0
M  V30 6681 H 614.486 4.20049 -5.33606 0
M  V30 6682 H 612.432 5.53024 -3.52847 0
M  V30 6683 H 612.349 5.43311 -5.25689 0
M  V30 6684 H 613.617 6.35812 -4.50958 0
M  V30 6685 N 617.846 1.41785 0.688094 0
M  V30 6686 C 619.095 1.4084 1.44385 0
M  V30 6687 C 619.408 0.0234166 1.95586 0
M  V30 6688 O 620.614 -0.108647 2.71283 0
M  V30 6689 C 619.07 2.47675 2.61123 0
M  V30 6690 C 618.678 3.92116 2.16677 0
M  V30 6691 C 620.422 2.55877 3.38714 0
M  V30 6692 C 618.329 4.90487 3.30419 0
M  V30 6693 H 617.259 0.523787 0.542368 0
M  V30 6694 H 619.91 1.6764 0.74627 0
M  V30 6695 H 618.292 2.14018 3.33185 0
M  V30 6696 H 619.466 4.35059 1.51856 0
M  V30 6697 H 617.781 3.87642 1.5206 0
M  V30 6698 H 620.378 3.26553 4.234 0
M  V30 6699 H 620.721 1.59801 3.84408 0
M  V30 6700 H 621.254 2.88662 2.73714 0
M  V30 6701 H 617.993 5.87994 2.89729 0
M  V30 6702 H 617.513 4.52187 3.94065 0
M  V30 6703 H 619.192 5.11591 3.96085 0
M  V30 6704 N 619.324 -0.923095 1.27737 0
M  V30 6705 C 620.254 -2.04124 1.13383 0
M  V30 6706 C 621.235 -1.70066 0.0340658 0
M  V30 6707 O 622.42 -1.93068 0.209383 0
M  V30 6708 C 619.55 -3.3831 0.785097 0
M  V30 6709 C 618.504 -3.86496 1.8386 0
M  V30 6710 C 617.83 -5.1754 1.34373 0
M  V30 6711 C 619.13 -4.09381 3.24353 0
M  V30 6712 H 620.824 -2.1639 2.06919 0
M  V30 6713 H 618.37 -1.03976 0.996243 0
M  V30 6714 H 620.323 -4.16016 0.671485 0
M  V30 6715 H 619.047 -3.2607 -0.185969 0
M  V30 6716 H 617.706 -3.10987 1.9412 0
M  V30 6717 H 617.354 -5.01696 0.361989 0
M  V30 6718 H 617.054 -5.50751 2.04811 0
M  V30 6719 H 618.578 -5.97811 1.24315 0
M  V30 6720 H 619.992 -4.77641 3.17067 0
M  V30 6721 H 618.389 -4.53906 3.92542 0
M  V30 6722 H 619.459 -3.14515 3.69064 0
M  V30 6723 N 620.802 -1.09834 -1.13024 0
M  V30 6724 C 621.752 -0.710899 -2.16634 0
M  V30 6725 C 622.736 0.276836 -1.58501 0
M  V30 6726 O 623.928 0.0865457 -1.76788 0
M  V30 6727 C 621.057 -0.137574 -3.43024 0
M  V30 6728 C 620.143 -1.15198 -4.08155 0
M  V30 6729 N 620.534 -2.34054 -4.48388 0
M  V30 6730 C 618.832 -0.991074 -4.34849 0
M  V30 6731 C 619.533 -2.98616 -4.99203 0
M  V30 6732 N 618.509 -2.26159 -4.94321 0
M  V30 6733 H 622.311 -1.61576 -2.455 0
M  V30 6734 H 619.825 -0.975158 -1.29863 0
M  V30 6735 H 621.822 0.158031 -4.166 0
M  V30 6736 H 620.482 0.762088 -3.1563 0
M  V30 6737 H 621.493 -2.7162 -4.40957 0
M  V30 6738 H 618.17 -0.146448 -4.17243 0
M  V30 6739 H 619.56 -3.99683 -5.40096 0
M  V30 6740 N 622.28 1.30327 -0.886154 0
M  V30 6741 C 623.508 2.00254 -0.520176 0
M  V30 6742 C 623.923 1.66419 0.891637 0
M  V30 6743 O 623.28 0.901951 1.58654 0
M  V30 6744 C 623.331 3.54916 -0.686775 0
M  V30 6745 O 623.052 3.87547 -2.04301 0
M  V30 6746 C 624.553 4.42115 -0.323945 0
M  V30 6747 H 621.773 0.640204 -0.200947 0
M  V30 6748 H 624.317 1.66183 -1.19178 0
M  V30 6749 H 622.472 3.8735 -0.0625273 0
M  V30 6750 H 622.886 4.82247 -2.06249 0
M  V30 6751 H 624.36 5.49808 -0.491407 0
M  V30 6752 H 624.837 4.32953 0.73811 0
M  V30 6753 H 625.443 4.15129 -0.924565 0
M  V30 6754 N 623.758 0.647228 1.43697 0
M  V30 6755 C 624.721 -0.0385101 2.29168 0
M  V30 6756 C 625.721 -0.756487 1.41894 0
M  V30 6757 O 626.911 -0.598641 1.63591 0
M  V30 6758 C 624.043 -1.06524 3.23829 0
M  V30 6759 H 625.236 0.713445 2.9129 0
M  V30 6760 H 622.789 0.408153 1.50877 0
M  V30 6761 H 623.524 -1.84664 2.66589 0
M  V30 6762 H 623.309 -0.554147 3.88164 0
M  V30 6763 H 624.799 -1.54432 3.87996 0
M  V30 6764 N 625.236 -1.5273 0.388769 0
M  V30 6765 C 626.482 -2.02545 -0.186351 0
M  V30 6766 C 626.837 -1.27017 -1.44514 0
M  V30 6767 O 626.13 -0.361948 -1.8815 0
M  V30 6768 C 626.324 -3.53765 -0.508445 0
M  V30 6769 C 626.153 -4.43938 0.71758 0
M  V30 6770 C 624.923 -4.89933 1.23668 0
M  V30 6771 C 627.121 -4.89113 1.58974 0
M  V30 6772 N 625.103 -5.64176 2.42031 0
M  V30 6773 C 626.474 -5.61931 2.61979 0
M  V30 6774 C 628.529 -4.71155 1.60989 0
M  V30 6775 C 627.232 -6.18698 3.66886 0
M  V30 6776 C 629.258 -5.28804 2.64803 0
M  V30 6777 C 628.62 -6.01527 3.6653 0
M  V30 6778 H 624.719 -0.781413 -0.0302921 0
M  V30 6779 H 627.303 -1.87104 0.538539 0
M  V30 6780 H 625.474 -3.6932 -1.20239 0
M  V30 6781 H 627.206 -3.9028 -1.07067 0
M  V30 6782 H 623.961 -4.66833 0.797763 0
M  V30 6783 H 624.385 -6.05949 3.01919 0
M  V30 6784 H 629.027 -4.14435 0.836881 0
M  V30 6785 H 626.745 -6.74501 4.45055 0
M  V30 6786 H 630.331 -5.1679 2.67245 0
M  V30 6787 H 629.211 -6.45339 4.45542 0
M  V30 6788 N 626.714 -0.118576 -1.57153 0
M  V30 6789 C 627.664 0.842924 -2.11846 0
M  V30 6790 C 628.648 1.22845 -1.03914 0
M  V30 6791 O 629.84 1.19961 -1.30148 0
M  V30 6792 C 626.969 2.09312 -2.72109 0
M  V30 6793 C 626.055 1.73198 -3.87122 0
M  V30 6794 N 626.446 1.07758 -4.94188 0
M  V30 6795 C 624.744 2.02659 -3.97298 0
M  V30 6796 C 625.445 0.907741 -5.74574 0
M  V30 6797 N 624.421 1.4326 -5.24383 0
M  V30 6798 H 628.223 0.333416 -2.92003 0
M  V30 6799 H 625.737 0.0839073 -1.62183 0
M  V30 6800 H 627.734 2.79162 -3.09635 0
M  V30 6801 H 626.394 2.60807 -1.93416 0
M  V30 6802 H 627.405 0.741613 -5.12563 0
M  V30 6803 H 624.082 2.56204 -3.29645 0
M  V30 6804 H 625.472 0.394112 -6.70743 0
M  V30 6805 N 628.193 1.56834 0.155195 0
M  V30 6806 C 629.604 1.72421 0.716082 0
M  V30 6807 C 629.955 0.731685 1.82046 0
M  V30 6808 O 629.08 -0.103481 2.16152 0
M  V30 6809 C 629.675 3.12629 1.30571 0
M  V30 6810 C 628.234 3.29846 1.81325 0
M  V30 6811 C 627.381 2.68359 0.698494 0
M  V30 6812 H 630.332 1.58544 -0.0703861 0
M  V30 6813 H 630.353 3.12174 2.1755 0
M  V30 6814 H 629.865 3.84844 0.501701 0
M  V30 6815 H 627.966 2.62614 2.64319 0
M  V30 6816 H 628.079 4.37727 1.9476 0
M  V30 6817 H 626.443 2.28604 1.12305 0
M  V30 6818 H 627.226 3.43171 -0.0939366 0
M  V30 6819 N 629.671 -0.424282 1.51781 0
M  V30 6820 C 630.618 -1.51591 1.74037 0
M  V30 6821 C 631.588 -1.55556 0.582358 0
M  V30 6822 O 632.773 -1.72364 0.818245 0
M  V30 6823 C 629.913 -2.89188 1.8832 0
M  V30 6824 C 629.026 -2.9465 3.1592 0
M  V30 6825 C 628.161 -4.23452 3.20721 0
M  V30 6826 C 627.2 -4.22831 4.42584 0
M  V30 6827 N 626.337 -5.43178 4.44862 0
M  V30 6828 H 631.177 -1.31917 2.67212 0
M  V30 6829 H 628.714 -0.640599 1.32419 0
M  V30 6830 H 630.672 -3.69044 1.94583 0
M  V30 6831 H 629.302 -3.07392 0.985402 0
M  V30 6832 H 628.354 -2.07378 3.18902 0
M  V30 6833 H 629.666 -2.90055 4.05795 0
M  V30 6834 H 628.82 -5.1169 3.25973 0
M  V30 6835 H 627.559 -4.30722 2.28757 0
M  V30 6836 H 626.564 -3.32984 4.37495 0
M  V30 6837 H 627.789 -4.17213 5.35826 0
M  V30 6838 H 625.735 -5.51145 3.55775 0
M  V30 6839 H 625.652 -5.40515 5.28563 0
M  V30 6840 H 626.92 -6.33412 4.54324 0
M  V30 6841 N 631.149 -1.42148 -0.680565 0
M  V30 6842 C 632.059 -1.47565 -1.82378 0
M  V30 6843 C 633.075 -0.36489 -1.70131 0
M  V30 6844 O 634.251 -0.614916 -1.91783 0
M  V30 6845 C 631.316 -1.37013 -3.18478 0
M  V30 6846 C 630.377 -2.58532 -3.42724 0
M  V30 6847 C 629.61 -2.48473 -4.72331 0
M  V30 6848 O 629.833 -1.51745 -5.49845 0
M  V30 6849 O 628.767 -3.38503 -4.97694 0
M  V30 6850 H 632.593 -2.44045 -1.80764 0
M  V30 6851 H 630.178 -1.23849 -0.835569 0
M  V30 6852 H 632.06 -1.33468 -3.99705 0
M  V30 6853 H 630.735 -0.436552 -3.20743 0
M  V30 6854 H 629.642 -2.67652 -2.61368 0
M  V30 6855 H 630.975 -3.50769 -3.45286 0
M  V30 6856 N 632.627 0.916307 -1.28225 0
M  V30 6857 C 633.575 2.03977 -1.11786 0
M  V30 6858 C 634.569 1.69358 -0.0378265 0
M  V30 6859 O 635.775 1.78925 -0.196405 0
M  V30 6860 H 632.15 0.66829 -0.344809 0
M  V30 6861 H 634.121 2.14985 -2.06939 0
M  V30 6862 C 632.87 3.38518 -0.7938 0
M  V30 6863 H 632.193 3.65649 -1.61682 0
M  V30 6864 H 633.633 4.17864 -0.718719 0
M  V30 6865 C 632.092 3.33134 0.502353 0
M  V30 6866 O 632.622 3.71281 1.53341 0
M  V30 6867 N 630.828 2.86229 0.502147 0
M  V30 6868 H 630.375 2.55382 -0.337338 0
M  V30 6869 H 630.333 2.83009 1.36942 0
M  V30 6870 N 634.105 1.10431 1.1244 0
M  V30 6871 C 635.354 0.841539 1.83306 0
M  V30 6872 C 635.667 -0.634961 1.85007 0
M  V30 6873 O 636.873 -1.01363 2.51869 0
M  V30 6874 C 635.329 1.45565 3.29149 0
M  V30 6875 C 634.937 2.96544 3.35806 0
M  V30 6876 C 636.681 1.27227 4.04986 0
M  V30 6877 C 634.588 3.5099 4.75983 0
M  V30 6878 H 633.518 0.311156 0.686803 0
M  V30 6879 H 636.169 1.32829 1.26604 0
M  V30 6880 H 634.551 0.896574 3.85717 0
M  V30 6881 H 635.725 3.58766 2.89177 0
M  V30 6882 H 634.04 3.14036 2.73442 0
M  V30 6883 H 636.637 1.65348 5.08492 0
M  V30 6884 H 636.98 0.213834 4.1575 0
M  V30 6885 H 637.513 1.79941 3.54776 0
M  V30 6886 H 634.252 4.56499 4.70413 0
M  V30 6887 H 633.772 2.93535 5.23065 0
M  V30 6888 H 635.451 3.48808 5.44924 0
M  V30 6889 N 635.583 -1.29855 0.893053 0
M  V30 6890 C 636.832 -1.95104 0.511597 0
M  V30 6891 C 637.145 -1.71226 -0.945567 0
M  V30 6892 O 638.351 -2.30525 -1.43424 0
M  V30 6893 C 636.807 -3.49374 0.864034 0
M  V30 6894 C 636.415 -3.82061 2.33952 0
M  V30 6895 C 638.159 -4.20894 0.552167 0
M  V30 6896 C 636.066 -5.29546 2.63316 0
M  V30 6897 H 634.996 -0.73029 0.187597 0
M  V30 6898 H 637.647 -1.47682 1.08914 0
M  V30 6899 H 636.029 -3.95413 0.215493 0
M  V30 6900 H 637.203 -3.46904 3.03305 0
M  V30 6901 H 635.518 -3.23665 2.61973 0
M  V30 6902 H 638.115 -5.29435 0.748489 0
M  V30 6903 H 638.458 -4.13178 -0.508924 0
M  V30 6904 H 638.991 -3.80564 1.15825 0
M  V30 6905 H 635.73 -5.4232 3.68197 0
M  V30 6906 H 635.25 -5.65974 1.9858 0
M  V30 6907 H 636.929 -5.97068 2.49236 0
M  V30 6908 N 637.061 -0.65484 -1.43351 0
M  V30 6909 C 638.024 0.0263562 -2.29185 0
M  V30 6910 C 639.024 0.748951 -1.42293 0
M  V30 6911 O 640.214 0.589957 -1.63906 0
M  V30 6912 C 637.346 1.04806 -3.2439 0
M  V30 6913 H 638.539 -0.728883 -2.90908 0
M  V30 6914 H 636.092 -0.416149 -1.50658 0
M  V30 6915 H 636.827 1.83247 -2.67565 0
M  V30 6916 H 636.612 0.533554 -3.88453 0
M  V30 6917 H 638.102 1.52372 -3.88809 0
M  V30 6918 N 638.539 1.52521 -0.396863 0
M  V30 6919 C 639.785 2.01971 0.183169 0
M  V30 6920 C 640.118 1.2825 1.45827 0
M  V30 6921 O 639.393 0.385179 1.90648 0
M  V30 6922 C 639.676 3.5736 0.443391 0
M  V30 6923 C 639.529 4.41743 -0.84753 0
M  V30 6924 C 640.848 4.22539 1.2308 0
M  V30 6925 H 637.967 0.734119 0.0650976 0
M  V30 6926 H 640.609 1.82519 -0.527918 0
M  V30 6927 H 638.759 3.74066 1.04914 0
M  V30 6928 H 640.431 4.36773 -1.48414 0
M  V30 6929 H 638.674 4.0845 -1.4612 0
M  V30 6930 H 639.345 5.48507 -0.620003 0
M  V30 6931 H 641.821 4.09857 0.718084 0
M  V30 6932 H 640.697 5.31227 1.38162 0
M  V30 6933 H 640.958 3.80675 2.24808 0
M  V30 6934 N 640.017 0.126909 1.57088 0
M  V30 6935 C 640.98 -0.806097 2.14557 0
M  V30 6936 C 641.98 -1.18918 1.08236 0
M  V30 6937 O 643.17 -1.11339 1.33975 0
M  V30 6938 C 640.302 -2.09116 2.69227 0
M  V30 6939 H 641.495 -0.306522 2.98329 0
M  V30 6940 H 639.048 -0.122393 1.5582 0
M  V30 6941 H 639.783 -2.63486 1.89065 0
M  V30 6942 H 639.568 -1.82588 3.46993 0
M  V30 6943 H 641.058 -2.75794 3.13572 0
M  V30 6944 N 641.495 -1.56914 -0.146875 0
M  V30 6945 C 642.723 -1.87515 -0.874394 0
M  V30 6946 C 643.138 -0.715116 -1.74733 0
M  V30 6947 O 642.495 0.315113 -1.79759 0
M  V30 6948 C 642.546 -3.17362 -1.731 0
M  V30 6949 O 642.267 -4.28897 -0.893245 0
M  V30 6950 C 643.768 -3.61479 -2.56609 0
M  V30 6951 H 640.988 -0.621546 -0.252827 0
M  V30 6952 H 643.532 -2.04023 -0.139627 0
M  V30 6953 H 641.687 -3.02608 -2.41883 0
M  V30 6954 H 642.101 -5.03146 -1.48137 0
M  V30 6955 H 643.575 -4.5517 -3.12289 0
M  V30 6956 H 644.052 -2.86773 -3.32653 0
M  V30 6957 H 644.658 -3.78927 -1.93117 0
M  V30 6958 N 642.974 0.416227 -1.52004 0
M  V30 6959 C 644.202 1.18573 -1.69553 0
M  V30 6960 C 644.617 1.84472 -0.401919 0
M  V30 6961 O 643.974 1.71593 0.621463 0
M  V30 6962 C 644.025 2.25413 -2.82615 0
M  V30 6963 O 643.746 1.62205 -4.06966 0
M  V30 6964 C 645.247 3.15297 -3.11613 0
M  V30 6965 H 642.467 0.356582 -0.56841 0
M  V30 6966 H 645.011 0.490618 -1.98528 0
M  V30 6967 H 643.166 2.90604 -2.56179 0
M  V30 6968 H 643.58 2.3298 -4.69916 0
M  V30 6969 H 645.054 3.86351 -3.94255 0
M  V30 6970 H 645.531 3.77264 -2.24874 0
M  V30 6971 H 646.137 2.55783 -3.39787 0
M  V30 6972 N 644.452 1.42507 0.673017 0
M  V30 6973 C 645.4 1.46362 1.80779 0
M  V30 6974 C 646.394 0.339166 1.6597 0
M  V30 6975 O 647.6 0.512262 1.72557 0
M  V30 6976 H 643.975 0.458433 0.596107 0
M  V30 6977 H 645.946 2.41953 1.74646 0
M  V30 6978 C 644.695 1.38462 3.18941 0
M  V30 6979 H 644.018 2.24283 3.30964 0
M  V30 6980 H 645.458 1.45221 3.98355 0
M  V30 6981 C 643.917 0.0996354 3.36753 0
M  V30 6982 O 644.447 -0.846894 3.92671 0
M  V30 6983 N 642.653 0.016211 2.90595 0
M  V30 6984 H 642.2 0.78725 2.45276 0
M  V30 6985 H 642.158 -0.84291 3.0289 0
M  V30 6986 N 645.93 -0.909495 1.28709 0
M  V30 6987 C 646.878 -2.03381 1.12866 0
M  V30 6988 C 647.872 -1.69335 0.0468074 0
M  V30 6989 O 649.078 -1.78819 0.205891 0
M  V30 6990 H 645.453 -0.666452 0.348348 0
M  V30 6991 H 647.424 -2.13885 2.08077 0
M  V30 6992 C 646.173 -3.38092 0.811742 0
M  V30 6993 H 645.496 -3.64786 1.63619 0
M  V30 6994 H 646.936 -4.17477 0.740869 0
M  V30 6995 C 645.395 -3.33395 -0.484679 0
M  V30 6996 O 645.925 -3.72089 -1.5137 0
M  V30 6997 N 644.131 -2.86491 -0.486961 0
M  V30 6998 H 643.678 -2.55199 0.350877 0
M  V30 6999 H 643.636 -2.83731 -1.3544 0
M  V30 7000 N 647.408 -1.11026 -1.11852 0
M  V30 7001 C 648.338 -0.786812 -2.19844 0
M  V30 7002 C 649.319 0.242935 -1.68356 0
M  V30 7003 O 650.504 0.107355 -1.93903 0
M  V30 7004 C 647.634 -0.224516 -3.46574 0
M  V30 7005 C 646.588 -1.18564 -4.1125 0
M  V30 7006 C 645.914 -0.484261 -5.32503 0
M  V30 7007 C 647.214 -2.53465 -4.56676 0
M  V30 7008 H 648.908 -1.68978 -2.47158 0
M  V30 7009 H 646.454 -0.813906 -1.18792 0
M  V30 7010 H 648.407 0.0139435 -4.21398 0
M  V30 7011 H 647.131 0.713722 -3.18706 0
M  V30 7012 H 645.79 -1.40966 -3.38414 0
M  V30 7013 H 645.438 0.458646 -5.00905 0
M  V30 7014 H 645.138 -1.12526 -5.76725 0
M  V30 7015 H 646.662 -0.254492 -6.10069 0
M  V30 7016 H 648.076 -2.35177 -5.22843 0
M  V30 7017 H 646.473 -3.13507 -5.11697 0
M  V30 7018 H 647.543 -3.13008 -3.70343 0
M  V30 7019 N 648.886 1.2938 -0.899927 0
M  V30 7020 C 650.116 1.99402 -0.540601 0
M  V30 7021 C 650.524 1.67534 0.87914 0
M  V30 7022 O 649.867 0.916821 1.59186 0
M  V30 7023 C 649.929 3.53514 -0.653326 0
M  V30 7024 C 649.593 4.08937 -2.04009 0
M  V30 7025 C 650.59 4.23815 -3.01126 0
M  V30 7026 C 648.275 4.43962 -2.34953 0
M  V30 7027 C 650.269 4.72951 -4.27313 0
M  V30 7028 C 647.956 4.92795 -3.61382 0
M  V30 7029 C 648.954 5.07244 -4.57376 0
M  V30 7030 O 648.642 5.55017 -5.8156 0
M  V30 7031 H 648.374 0.64383 -0.206057 0
M  V30 7032 H 650.928 1.65878 -1.21134 0
M  V30 7033 H 649.158 3.86628 0.0744449 0
M  V30 7034 H 650.847 4.04767 -0.303118 0
M  V30 7035 H 651.613 3.97043 -2.78535 0
M  V30 7036 H 647.492 4.31974 -1.60994 0
M  V30 7037 H 651.036 4.84144 -5.02245 0
M  V30 7038 H 646.933 5.19004 -3.83804 0
M  V30 7039 H 647.701 5.73331 -5.84153 0
M  V30 7040 N 650.364 0.662433 1.43002 0
M  V30 7041 C 651.613 0.176873 2.00923 0
M  V30 7042 C 651.926 -1.21954 1.52927 0
M  V30 7043 O 653.132 -1.80081 2.03182 0
M  V30 7044 C 651.588 0.265379 3.5892 0
M  V30 7045 C 651.196 1.66507 4.15908 0
M  V30 7046 C 652.94 -0.162103 4.2419 0
M  V30 7047 C 650.847 1.707 5.66229 0
M  V30 7048 H 649.777 0.0623627 0.751417 0
M  V30 7049 H 652.428 0.825813 1.63868 0
M  V30 7050 H 650.81 -0.451235 3.93421 0
M  V30 7051 H 651.984 2.40777 3.92891 0
M  V30 7052 H 650.299 2.03932 3.63044 0
M  V30 7053 H 652.896 -0.150745 5.34487 0
M  V30 7054 H 653.239 -1.19519 3.98774 0
M  V30 7055 H 653.772 0.503075 3.94606 0
M  V30 7056 H 650.511 2.7195 5.96426 0
M  V30 7057 H 650.031 1.00768 5.91275 0
M  V30 7058 H 651.71 1.45487 6.3043 0
M  V30 7059 N 651.842 -1.52309 0.404946 0
M  V30 7060 C 653.089 -2.01767 -0.1722 0
M  V30 7061 C 653.417 -1.29075 -1.45498 0
M  V30 7062 O 652.672 -0.3843 -1.9189 0
M  V30 7063 C 652.971 -3.54284 -0.470895 0
M  V30 7064 C 652.637 -4.45079 0.722194 0
M  V30 7065 C 651.299 -4.69617 1.04946 0
M  V30 7066 C 653.651 -4.98555 1.51962 0
M  V30 7067 C 650.979 -5.44878 2.17543 0
M  V30 7068 C 653.331 -5.75049 2.63632 0
M  V30 7069 C 651.995 -5.9786 2.9685 0
M  V30 7070 H 651.265 -0.738316 -0.0630125 0
M  V30 7071 H 653.912 -1.83566 0.545506 0
M  V30 7072 H 652.217 -3.70642 -1.27012 0
M  V30 7073 H 653.914 -3.90058 -0.930346 0
M  V30 7074 H 650.504 -4.26155 0.457131 0
M  V30 7075 H 654.688 -4.79509 1.28002 0
M  V30 7076 H 649.944 -5.60762 2.43631 0
M  V30 7077 H 654.118 -6.15483 3.25813 0
M  V30 7078 H 651.745 -6.5596 3.84215 0
M  V30 7079 N 653.32 -0.135238 -1.57019 0
M  V30 7080 C 654.252 0.839675 -2.13265 0
M  V30 7081 C 655.265 1.21887 -1.07923 0
M  V30 7082 O 656.454 1.16499 -1.35241 0
M  V30 7083 C 653.554 2.13647 -2.63075 0
M  V30 7084 C 652.727 1.92646 -3.92691 0
M  V30 7085 C 651.786 3.06205 -4.27931 0
M  V30 7086 O 650.812 2.78409 -4.96465 0
M  V30 7087 N 652.014 4.33072 -3.86561 0
M  V30 7088 H 654.779 0.359026 -2.97542 0
M  V30 7089 H 652.34 0.0486979 -1.61827 0
M  V30 7090 H 654.332 2.88641 -2.8367 0
M  V30 7091 H 652.902 2.5301 -1.83588 0
M  V30 7092 H 652.122 1.01754 -3.80841 0
M  V30 7093 H 653.41 1.75939 -4.77413 0
M  V30 7094 H 652.808 4.58526 -3.31316 0
M  V30 7095 H 651.365 5.04885 -4.12231 0
M  V30 7096 N 654.798 1.5699 0.138552 0
M  V30 7097 C 656.075 1.74741 0.87891 0
M  V30 7098 C 656.455 0.705522 1.98961 0
M  V30 7099 O 655.803 -0.274066 2.2685 0
M  V30 7100 C 656.013 3.1909 1.4136 0
M  V30 7101 C 657.361 3.81023 1.87368 0
M  V30 7102 O 658.385 3.22571 1.51084 0
M  V30 7103 O 657.244 4.83722 2.54312 0
M  V30 7104 H 654.338 0.714781 0.415953 0
M  V30 7105 H 656.884 1.69248 0.123817 0
M  V30 7106 H 655.656 3.86424 0.61579 0
M  V30 7107 H 655.279 3.29043 2.23196 0
M  V30 7108 N 656.276 -0.40816 1.52223 0
M  V30 7109 C 657.223 -1.49737 1.75635 0
M  V30 7110 C 658.193 -1.5493 0.598824 0
M  V30 7111 O 659.378 -1.71487 0.83648 0
M  V30 7112 C 656.518 -2.87174 1.91376 0
M  V30 7113 C 655.631 -2.91283 3.19027 0
M  V30 7114 C 654.766 -4.20026 3.25195 0
M  V30 7115 C 653.805 -4.18113 4.47044 0
M  V30 7116 N 652.942 -5.38429 4.50598 0
M  V30 7117 H 657.782 -1.29075 2.68596 0
M  V30 7118 H 655.319 -0.626518 1.33091 0
M  V30 7119 H 657.277 -3.66959 1.98486 0
M  V30 7120 H 655.907 -3.06329 1.01795 0
M  V30 7121 H 654.959 -2.03984 3.21084 0
M  V30 7122 H 656.271 -2.85734 4.08849 0
M  V30 7123 H 655.425 -5.08204 3.31382 0
M  V30 7124 H 654.164 -4.28271 2.33313 0
M  V30 7125 H 653.169 -3.28325 4.41002 0
M  V30 7126 H 654.394 -4.11507 5.40221 0
M  V30 7127 H 652.34 -5.4734 3.616 0
M  V30 7128 H 652.257 -5.34879 5.34266 0
M  V30 7129 H 653.525 -6.28557 4.61016 0
M  V30 7130 N 657.755 -1.42862 -0.66545 0
M  V30 7131 C 659.001 -1.44043 -1.42757 0
M  V30 7132 C 659.334 -0.0599629 -1.94107 0
M  V30 7133 O 658.609 0.917286 -1.71511 0
M  V30 7134 C 658.892 -2.47266 -2.61786 0
M  V30 7135 C 658.745 -3.94539 -2.16007 0
M  V30 7136 C 660.064 -2.47365 -3.64003 0
M  V30 7137 H 657.183 -0.524506 -0.517748 0
M  V30 7138 H 659.825 -1.74335 -0.755466 0
M  V30 7139 H 657.975 -2.21565 -3.19126 0
M  V30 7140 H 659.647 -4.31254 -1.63762 0
M  V30 7141 H 657.89 -4.07957 -1.47491 0
M  V30 7142 H 658.561 -4.62357 -3.01546 0
M  V30 7143 H 661.037 -2.70243 -3.16399 0
M  V30 7144 H 659.913 -3.21552 -4.44854 0
M  V30 7145 H 660.174 -1.50299 -4.15767 0
M  V30 7146 N 659.233 0.902656 -1.29189 0
M  V30 7147 C 660.181 2.0278 -1.13943 0
M  V30 7148 C 661.175 1.69308 -0.055787 0
M  V30 7149 O 662.381 1.78707 -0.215371 0
M  V30 7150 H 658.756 0.664595 -0.351877 0
M  V30 7151 H 660.727 2.12778 -2.09208 0
M  V30 7152 C 659.476 3.37657 -0.82966 0
M  V30 7153 H 658.799 3.63913 -1.65551 0
M  V30 7154 H 660.239 4.17078 -0.762998 0
M  V30 7155 C 658.698 3.33648 0.466991 0
M  V30 7156 O 659.228 3.72886 1.49395 0
M  V30 7157 N 657.434 2.86745 0.471761 0
M  V30 7158 H 656.981 2.55009 -0.364406 0
M  V30 7159 H 656.939 2.84446 1.33933 0
M  V30 7160 O 660.75 1.23723 1.03802 0
M  V30 7161 H 661.441 1.01035 1.65262 0
M  V30 END ATOM
M  V30 BEGIN BOND
M  V30 END BOND
M  V30 END CTAB
M  END
$$$$
