drugbank_target|P63244 Receptor of activated protein C kinase 1 (DB09130)
 OpenBabel12092121053D

  0  0  0     0  0            999 V3000
M  V30 BEGIN CTAB
M  V30 COUNTS 4895 4952 0 0 0
M  V30 BEGIN ATOM
M  V30 1 H -0.908 1.98254 -0.117106 0
M  V30 2 N 0 1.576 0 0
M  V30 3 C 0.933 2.03868 1.02534 0
M  V30 4 C 1.911 0.928543 1.3348 0
M  V30 5 O 3.095 1.19667 1.45644 0
M  V30 6 C 0.222 2.43627 2.35294 0
M  V30 7 C -0.732 3.65373 2.2001 0
M  V30 8 S 0.101 5.13292 1.52614 0
M  V30 9 C 1.257 5.56322 2.86805 0
M  V30 10 H 1.49 2.90518 0.631377 0
M  V30 11 H -0.977 1.52953 0.210867 0
M  V30 12 H 0.981 2.67203 3.11629 0
M  V30 13 H -0.358 1.57376 2.7183 0
M  V30 14 H -1.165 3.90944 3.18086 0
M  V30 15 H -1.563 3.418 1.51819 0
M  V30 16 H 0.729 5.58782 3.83104 0
M  V30 17 H 1.672 6.56266 2.65933 0
M  V30 18 H 2.08 4.83886 2.90714 0
M  V30 19 N 1.4781 -0.272755 1.55222 0
M  V30 20 C 2.7061 -1.02255 1.79865 0
M  V30 21 C 3.1211 -1.79924 0.572088 0
M  V30 22 O 2.4781 -1.76638 -0.458842 0
M  V30 23 C 2.5291 -1.98094 3.02392 0
M  V30 24 O 2.2501 -1.23572 4.20311 0
M  V30 25 C 3.7511 -2.84884 3.39641 0
M  V30 26 H 0.9711 -0.302057 0.599168 0
M  V30 27 H 3.5151 -0.303465 2.02236 0
M  V30 28 H 1.6701 -2.65465 2.82147 0
M  V30 29 H 2.0841 -1.88172 4.89583 0
M  V30 30 H 3.5581 -3.47927 4.28545 0
M  V30 31 H 4.0351 -3.54665 2.59055 0
M  V30 32 H 4.6411 -2.23003 3.62146 0
M  V30 33 N 2.9562 -1.48159 -0.537278 0
M  V30 34 C 3.8662 -1.64807 -1.6696 0
M  V30 35 C 4.8822 -0.530651 -1.65711 0
M  V30 36 O 6.0582 -0.800784 -1.84796 0
M  V30 37 C 3.1232 -1.67708 -3.03438 0
M  V30 38 C 2.1842 -2.91025 -3.156 0
M  V30 39 C 1.4172 -2.93778 -4.45567 0
M  V30 40 O 1.6402 -2.05153 -5.3223 0
M  V30 41 O 0.5742 -3.85868 -4.61941 0
M  V30 42 H 4.4002 -2.6066 -1.55853 0
M  V30 43 H 1.9852 -1.31475 -0.709549 0
M  V30 44 H 3.8672 -1.7218 -3.84619 0
M  V30 45 H 2.5422 -0.750278 -3.14885 0
M  V30 46 H 1.4492 -2.92089 -2.33741 0
M  V30 47 H 2.7822 -3.83065 -3.09066 0
M  V30 48 N 4.4343 0.785586 -1.36625 0
M  V30 49 C 5.3663 1.90711 -1.2713 0
M  V30 50 C 6.3793 1.61688 -0.189986 0
M  V30 51 O 7.5683 1.72864 -0.445014 0
M  V30 52 C 4.6683 3.25611 -0.939713 0
M  V30 53 C 3.8413 3.82385 -2.12369 0
M  V30 54 C 2.9003 4.95732 -1.76456 0
M  V30 55 O 1.9263 5.12047 -2.48589 0
M  V30 56 N 3.1283 5.76258 -0.700492 0
M  V30 57 H 5.8933 1.99376 -2.23762 0
M  V30 58 H 3.4543 0.964041 -1.30069 0
M  V30 59 H 5.4463 3.98937 -0.680554 0
M  V30 60 H 4.0163 3.12538 -0.0624074 0
M  V30 61 H 3.2363 3.01001 -2.54543 0
M  V30 62 H 4.5243 4.17047 -2.9146 0
M  V30 63 H 3.9223 5.65609 -0.101624 0
M  V30 64 H 2.4793 6.4987 -0.501165 0
M  V30 65 N 5.9124 1.20967 1.01018 0
M  V30 66 C 6.8454 0.907578 2.09376 0
M  V30 67 C 7.8234 -0.142868 1.61971 0
M  V30 68 O 9.0074 -0.0150391 1.88494 0
M  V30 69 C 6.1344 0.361791 3.36762 0
M  V30 70 C 5.1804 1.39423 4.03068 0
M  V30 71 S 6.0134 2.96159 4.4615 0
M  V30 72 C 7.1694 2.43173 5.7673 0
M  V30 73 H 7.4024 1.82519 2.34678 0
M  V30 74 H 4.9354 1.03884 1.14225 0
M  V30 75 H 6.8934 0.0534523 4.10465 0
M  V30 76 H 5.5544 -0.53443 3.0952 0
M  V30 77 H 4.7474 0.961853 4.94737 0
M  V30 78 H 4.3494 1.65038 3.35617 0
M  V30 79 H 6.6414 1.83335 6.52223 0
M  V30 80 H 7.5844 3.33264 6.24773 0
M  V30 81 H 7.9924 1.85069 5.33301 0
M  V30 82 N 7.3905 -1.2043 1.01659 0
M  V30 83 C 8.6185 -1.93777 0.725132 0
M  V30 84 C 9.0335 -1.74772 -0.714166 0
M  V30 85 O 8.3905 -1.06169 -1.4844 0
M  V30 86 C 8.4415 -3.45876 1.05129 0
M  V30 87 O 8.1625 -3.6426 2.43406 0
M  V30 88 C 9.6635 -4.36368 0.780891 0
M  V30 89 H 6.8835 -0.615901 0.266284 0
M  V30 90 H 9.4275 -1.52922 1.35776 0
M  V30 91 H 7.5825 -3.8461 0.464065 0
M  V30 92 H 7.9965 -4.58246 2.55169 0
M  V30 93 H 9.4705 -5.41743 1.05918 0
M  V30 94 H 9.9475 -4.38275 -0.284937 0
M  V30 95 H 10.5535 -4.03296 1.35027 0
M  V30 96 N 8.8686 -0.792821 -1.36206 0
M  V30 97 C 9.7986 -0.207853 -2.32573 0
M  V30 98 C 10.7796 0.659055 -1.56813 0
M  V30 99 O 11.9646 0.592176 -1.84951 0
M  V30 100 C 9.0946 0.655449 -3.41059 0
M  V30 101 C 8.0486 -0.111842 -4.27854 0
M  V30 102 C 7.3746 0.872274 -5.27537 0
M  V30 103 C 8.6746 -1.30299 -5.05786 0
M  V30 104 H 10.3686 -1.01294 -2.81744 0
M  V30 105 H 7.9146 -0.48854 -1.3546 0
M  V30 106 H 9.8676 1.07464 -4.07467 0
M  V30 107 H 8.5916 1.49328 -2.90463 0
M  V30 108 H 7.2506 -0.512053 -3.63006 0
M  V30 109 H 6.8986 1.70523 -4.73214 0
M  V30 110 H 6.5986 0.363291 -5.86476 0
M  V30 111 H 8.1226 1.28996 -5.96818 0
M  V30 112 H 9.5366 -0.959379 -5.65216 0
M  V30 113 H 7.9336 -1.7455 -5.74154 0
M  V30 114 H 9.0036 -2.09663 -4.37229 0
M  V30 115 N 10.3467 1.47872 -0.545128 0
M  V30 116 C 11.7627 1.5829 -0.204032 0
M  V30 117 C 11.9627 1.54529 1.29317 0
M  V30 118 O 11.0187 1.44232 2.07252 0
M  V30 119 C 12.3317 2.89304 -0.819987 0
M  V30 120 C 13.8797 3.02864 -0.790105 0
M  V30 121 C 14.3547 4.3656 -1.38491 0
M  V30 122 N 15.8457 4.43165 -1.34755 0
M  V30 123 C 16.5807 5.45153 -1.77753 0
M  V30 124 N 16.0767 6.54016 -2.2855 0
M  V30 125 N 17.8697 5.36125 -1.68897 0
M  V30 126 H 10.0207 1.4856 -1.51802 0
M  V30 127 H 12.2837 0.706305 -0.632327 0
M  V30 128 H 11.9897 2.97757 -1.87173 0
M  V30 129 H 11.8637 3.75957 -0.305915 0
M  V30 130 H 14.2507 2.94014 0.252913 0
M  V30 131 H 14.3317 2.17782 -1.34181 0
M  V30 132 H 13.9757 4.46164 -2.42693 0
M  V30 133 H 13.9057 5.20353 -0.808754 0
M  V30 134 H 16.3967 3.65083 -0.975855 0
M  V30 135 H 16.7097 7.27994 -2.59314 0
M  V30 136 H 15.0547 6.54938 -2.32553 0
M  V30 137 H 18.2457 4.49975 -1.28998 0
M  V30 138 H 18.4187 6.15472 -2.02726 0
M  V30 139 N 11.8248 0.280983 1.55075 0
M  V30 140 C 13.0728 -0.333455 1.9933 0
M  V30 141 C 13.3938 -1.55937 1.17085 0
M  V30 142 O 12.6638 -1.94143 0.261805 0
M  V30 143 H 11.2438 -0.126197 0.736263 0
M  V30 144 H 13.9058 0.387678 1.91005 0
M  V30 145 H 13.0018 -0.619292 3.05894 0
M  V30 146 N 13.3029 -1.57598 0.00835791 0
M  V30 147 C 14.5309 -1.95214 -0.68549 0
M  V30 148 C 14.9459 -0.883706 -1.66841 0
M  V30 149 O 14.3029 0.136565 -1.81988 0
M  V30 150 C 14.3539 -3.32865 -1.41007 0
M  V30 151 O 14.0749 -4.35609 -0.466552 0
M  V30 152 C 15.5759 -3.84991 -2.19765 0
M  V30 153 H 12.7959 -0.643422 -0.190392 0
M  V30 154 H 15.3399 -2.04406 0.0619607 0
M  V30 155 H 13.4949 -3.24956 -2.10908 0
M  V30 156 H 13.9089 -5.15288 -0.978699 0
M  V30 157 H 15.3829 -4.8371 -2.65948 0
M  V30 158 H 15.8599 -3.18137 -3.02796 0
M  V30 159 H 16.4659 -3.96103 -1.54864 0
M  V30 160 N 14.781 0.264519 -1.55364 0
M  V30 161 C 15.711 1.33121 -1.91836 0
M  V30 162 C 16.692 1.51101 -0.781192 0
M  V30 163 O 17.877 1.64003 -1.04003 0
M  V30 164 C 15.007 2.68921 -2.19769 0
M  V30 165 C 13.961 2.65661 -3.35571 0
M  V30 166 C 13.287 4.05093 -3.49004 0
M  V30 167 C 14.587 2.24187 -4.71739 0
M  V30 168 H 16.281 1.02844 -2.81182 0
M  V30 169 H 13.827 0.493286 -1.35287 0
M  V30 170 H 15.78 3.43663 -2.43872 0
M  V30 171 H 14.504 3.00799 -1.27231 0
M  V30 172 H 13.163 1.93377 -3.1145 0
M  V30 173 H 12.811 4.34206 -2.53917 0
M  V30 174 H 12.511 4.03804 -4.26868 0
M  V30 175 H 14.035 4.81561 -3.75408 0
M  V30 176 H 15.449 2.88654 -4.9533 0
M  V30 177 H 13.846 2.34044 -5.52579 0
M  V30 178 H 14.916 1.19327 -4.69988 0
M  V30 179 N 16.2591 1.48442 0.529413 0
M  V30 180 C 17.2061 1.63007 1.63394 0
M  V30 181 C 18.1761 0.47212 1.59249 0
M  V30 182 O 19.3611 0.695673 1.77666 0
M  V30 183 C 16.5011 1.6763 3.01653 0
M  V30 184 C 15.6141 2.94535 3.16027 0
M  V30 185 C 14.7491 2.90316 4.44849 0
M  V30 186 C 13.7881 4.11923 4.52754 0
M  V30 187 N 12.9251 4.05777 5.72965 0
M  V30 188 H 17.7651 2.5733 1.50285 0
M  V30 189 H 15.3021 1.27613 0.731656 0
M  V30 190 H 17.2601 1.68292 3.81751 0
M  V30 191 H 15.8901 0.76797 3.13532 0
M  V30 192 H 14.9421 3.03615 2.29177 0
M  V30 193 H 16.2541 3.84512 3.17729 0
M  V30 194 H 15.4081 2.89382 5.33238 0
M  V30 195 H 14.1471 1.98068 4.45668 0
M  V30 196 H 13.1521 4.13131 3.62771 0
M  V30 197 H 14.3771 5.0533 4.53672 0
M  V30 198 H 12.3231 3.16351 5.74681 0
M  V30 199 H 12.2401 4.8946 5.76164 0
M  V30 200 H 13.5081 4.08904 6.6364 0
M  V30 201 N 17.7372 -0.778329 1.37039 0
M  V30 202 C 18.9852 -1.53361 1.31623 0
M  V30 203 C 19.3062 -1.94739 -0.100831 0
M  V30 204 O 18.5762 -1.65797 -1.04347 0
M  V30 205 H 17.1562 -0.568794 0.484234 0
M  V30 206 H 19.8182 -0.926742 1.71457 0
M  V30 207 H 18.9142 -2.43606 1.95096 0
M  V30 208 N 19.2153 -1.21501 -1.00376 0
M  V30 209 C 20.1653 -0.942843 -2.07592 0
M  V30 210 C 21.1493 0.102384 -1.60574 0
M  V30 211 O 22.3413 -0.10671 -1.76678 0
M  V30 212 C 19.4703 -0.510729 -3.3948 0
M  V30 213 C 18.5563 -1.59009 -3.93163 0
M  V30 214 N 18.9473 -2.81544 -4.20198 0
M  V30 215 C 17.2453 -1.45925 -4.21452 0
M  V30 216 C 17.9463 -3.51261 -4.63671 0
M  V30 217 N 16.9223 -2.78703 -4.66718 0
M  V30 218 H 20.7243 -1.87378 -2.26421 0
M  V30 219 H 18.2383 -1.11093 -1.18458 0
M  V30 220 H 20.2353 -0.297101 -4.1584 0
M  V30 221 H 18.8953 0.413436 -3.22057 0
M  V30 222 H 19.9063 -3.18075 -4.08716 0
M  V30 223 H 16.5833 -0.600467 -4.13159 0
M  V30 224 H 17.9733 -4.56183 -4.93302 0
M  V30 225 N 20.6934 1.19889 -1.02296 0
M  V30 226 C 21.6414 2.24938 -0.592081 0
M  V30 227 C 22.6354 1.65257 0.372357 0
M  V30 228 O 23.8414 1.78371 0.241583 0
M  V30 229 H 20.2164 0.731787 -0.173182 0
M  V30 230 H 22.1874 2.58603 -1.48885 0
M  V30 231 C 20.9364 3.47668 0.047351 0
M  V30 232 H 20.2594 3.93875 -0.685772 0
M  V30 233 H 21.6994 4.22852 0.311862 0
M  V30 234 C 20.1584 3.11136 1.29212 0
M  V30 235 O 20.6884 3.2325 2.38479 0
M  V30 236 N 18.8944 2.65625 1.17863 0
M  V30 237 H 18.4414 2.55968 0.289493 0
M  V30 238 H 18.3994 2.41553 2.01245 0
M  V30 239 N 22.1715 0.800033 1.35784 0
M  V30 240 C 23.4195 0.376597 1.9856 0
M  V30 241 C 23.7405 -1.05812 1.63795 0
M  V30 242 O 23.0105 -1.73103 0.917171 0
M  V30 243 H 21.5905 0.136261 0.734467 0
M  V30 244 H 24.2525 1.02442 1.65806 0
M  V30 245 H 23.3485 0.477002 3.08433 0
M  V30 246 N 23.6496 -1.47581 0.552962 0
M  V30 247 C 24.8956 -2.03369 0.0355807 0
M  V30 248 C 25.2506 -1.42016 -1.29805 0
M  V30 249 O 24.5436 -0.564917 -1.83083 0
M  V30 250 C 24.7376 -3.57199 -0.119728 0
M  V30 251 C 24.5666 -4.33468 1.1973 0
M  V30 252 C 23.3366 -4.7353 1.76345 0
M  V30 253 C 25.5346 -4.68866 2.11351 0
M  V30 254 N 23.5166 -5.34426 3.02097 0
M  V30 255 C 24.8876 -5.3002 3.21681 0
M  V30 256 C 26.9426 -4.50795 2.11397 0
M  V30 257 C 25.6456 -5.75011 4.32151 0
M  V30 258 C 27.6716 -4.96782 3.20876 0
M  V30 259 C 27.0336 -5.57981 4.29926 0
M  V30 260 H 23.1326 -0.780058 0.0550806 0
M  V30 261 H 25.7166 -1.80117 0.739315 0
M  V30 262 H 23.8876 -3.80227 -0.792579 0
M  V30 263 H 25.6196 -3.99627 -0.638792 0
M  V30 264 H 22.3746 -4.55352 1.30196 0
M  V30 265 H 22.7986 -5.69421 3.66182 0
M  V30 266 H 27.4406 -4.0284 1.28372 0
M  V30 267 H 25.1586 -6.21959 5.15938 0
M  V30 268 H 28.7446 -4.84573 3.21994 0
M  V30 269 H 27.6246 -5.92918 5.13243 0
M  V30 270 N 25.1277 -0.289203 -1.54924 0
M  V30 271 C 26.3737 0.323998 -2.00195 0
M  V30 272 C 26.7067 1.54441 -1.17735 0
M  V30 273 O 25.9817 1.92875 -0.250878 0
M  V30 274 C 26.2647 0.692276 -3.53383 0
M  V30 275 C 26.1177 -0.536457 -4.46589 0
M  V30 276 C 27.4367 1.52335 -4.12895 0
M  V30 277 H 24.5557 0.116289 -0.727768 0
M  V30 278 H 27.1977 -0.398954 -1.85764 0
M  V30 279 H 25.3477 1.30822 -3.65811 0
M  V30 280 H 27.0197 -1.17499 -4.46085 0
M  V30 281 H 25.2627 -1.17192 -4.1767 0
M  V30 282 H 25.9337 -0.234806 -5.515 0
M  V30 283 H 28.4097 1.00302 -4.0383 0
M  V30 284 H 27.2857 1.74982 -5.20262 0
M  V30 285 H 27.5467 2.50886 -3.64018 0
M  V30 286 N 26.6058 1.57591 -0.0167156 0
M  V30 287 C 27.8338 1.95575 0.675128 0
M  V30 288 C 28.2488 0.892542 1.6637 0
M  V30 289 O 27.6058 -0.126912 1.82058 0
M  V30 290 C 27.6568 3.33608 1.39239 0
M  V30 291 O 27.3778 4.3585 0.443444 0
M  V30 292 C 28.8788 3.86151 2.17721 0
M  V30 293 H 26.0988 0.644423 0.186978 0
M  V30 294 H 28.6428 2.0437 -0.0728 0
M  V30 295 H 26.7978 3.2607 2.09182 0
M  V30 296 H 27.2118 5.158 0.951358 0
M  V30 297 H 28.6858 4.85114 2.63379 0
M  V30 298 H 29.1628 3.19738 3.01105 0
M  V30 299 H 29.7688 3.96918 1.52761 0
M  V30 300 N 28.0839 -0.256276 1.55502 0
M  V30 301 C 29.0159 -1.33981 1.85962 0
M  V30 302 C 30.0289 -1.44743 0.745212 0
M  V30 303 O 31.2179 -1.4626 1.02324 0
M  V30 304 C 28.3179 -2.7194 2.02242 0
M  V30 305 C 27.4909 -2.83562 3.33033 0
M  V30 306 C 26.5499 -4.02304 3.39172 0
M  V30 307 O 25.5759 -3.92273 4.12444 0
M  V30 308 N 26.7779 -5.15045 2.67784 0
M  V30 309 H 29.5429 -1.08191 2.7949 0
M  V30 310 H 27.1039 -0.446388 1.55624 0
M  V30 311 H 29.0959 -3.49697 2.03701 0
M  V30 312 H 27.6659 -2.90479 1.15502 0
M  V30 313 H 26.8859 -1.92555 3.43971 0
M  V30 314 H 28.1739 -2.88271 4.19258 0
M  V30 315 H 27.5719 -5.26085 2.07968 0
M  V30 316 H 26.1289 -5.90972 2.74947 0
M  V30 317 N 29.562 -1.4872 -0.521534 0
M  V30 318 C 30.811 -1.56419 -1.27341 0
M  V30 319 C 31.124 -0.246805 -1.94037 0
M  V30 320 O 32.33 -0.202122 -2.70747 0
M  V30 321 C 30.786 -2.75896 -2.31105 0
M  V30 322 C 30.394 -4.14311 -1.70441 0
M  V30 323 C 32.138 -2.92913 -3.07249 0
M  V30 324 C 30.045 -5.25038 -2.72194 0
M  V30 325 H 28.975 -0.582344 -0.478949 0
M  V30 326 H 31.626 -1.75071 -0.549779 0
M  V30 327 H 30.008 -2.50697 -3.06541 0
M  V30 328 H 31.182 -4.49564 -1.01136 0
M  V30 329 H 29.497 -4.02482 -1.06759 0
M  V30 330 H 32.094 -3.72805 -3.83302 0
M  V30 331 H 32.437 -2.02689 -3.63625 0
M  V30 332 H 32.97 -3.18054 -2.38928 0
M  V30 333 H 29.709 -6.17255 -2.20627 0
M  V30 334 H 29.229 -4.94263 -3.39801 0
M  V30 335 H 30.908 -5.53508 -3.35019 0
M  V30 336 N 31.0401 0.771051 -1.3745 0
M  V30 337 C 32.0031 1.86598 -1.33093 0
M  V30 338 C 33.0031 1.59076 -0.234845 0
M  V30 339 O 34.1931 1.67145 -0.490732 0
M  V30 340 C 31.3251 3.23747 -1.06773 0
M  V30 341 H 32.5181 1.91873 -2.30488 0
M  V30 342 H 30.0711 0.970876 -1.2249 0
M  V30 343 H 30.8061 3.24148 -0.099129 0
M  V30 344 H 30.5911 3.45115 -1.86112 0
M  V30 345 H 32.0811 4.03824 -1.06377 0
M  V30 346 N 32.5182 1.22032 0.997298 0
M  V30 347 C 33.7462 1.06841 1.7718 0
M  V30 348 C 34.1612 -0.381325 1.84909 0
M  V30 349 O 33.5182 -1.26437 1.31605 0
M  V30 350 C 33.5692 1.66814 3.20711 0
M  V30 351 O 33.2902 3.06116 3.13408 0
M  V30 352 C 34.7912 1.56838 4.14628 0
M  V30 353 H 32.0112 0.374782 0.556578 0
M  V30 354 H 34.5552 1.61532 1.2541 0
M  V30 355 H 32.7102 1.16196 3.69564 0
M  V30 356 H 33.1242 3.34926 4.0364 0
M  V30 357 H 34.5982 2.03532 5.13107 0
M  V30 358 H 35.0752 0.524155 4.36061 0
M  V30 359 H 35.6812 2.06741 3.7167 0
M  V30 360 N 33.9963 -1.19345 1.0293 0
M  V30 361 C 35.2243 -1.92997 0.745644 0
M  V30 362 C 35.6393 -1.75519 -0.695589 0
M  V30 363 O 34.9963 -1.07737 -1.47306 0
M  V30 364 C 35.0473 -3.44741 1.08792 0
M  V30 365 O 34.7683 -3.61658 2.47256 0
M  V30 366 C 36.2693 -4.35515 0.827129 0
M  V30 367 H 33.4893 -0.613042 0.272801 0
M  V30 368 H 36.0333 -1.51473 1.3739 0
M  V30 369 H 34.1883 -3.84097 0.504832 0
M  V30 370 H 34.6023 -4.55514 2.60015 0
M  V30 371 H 36.0763 -5.40589 1.11658 0
M  V30 372 H 36.5533 -4.38552 -0.238436 0
M  V30 373 H 37.1593 -4.01841 1.39297 0
M  V30 374 N 35.4744 -0.807222 -1.35358 0
M  V30 375 C 36.8854 -0.44876 -1.81226 0
M  V30 376 C 37.2364 1.02929 -1.67033 0
M  V30 377 O 36.3614 1.79991 -1.20133 0
M  V30 378 C 36.9564 -0.807774 -3.2903 0
M  V30 379 C 35.5154 -0.501901 -3.73039 0
M  V30 380 C 34.6624 -1.03304 -2.57339 0
M  V30 381 H 37.6134 -0.998808 -1.23327 0
M  V30 382 H 37.6344 -0.10554 -3.80354 0
M  V30 383 H 37.1464 -1.88357 -3.39328 0
M  V30 384 H 35.2474 0.565128 -3.68289 0
M  V30 385 H 35.3604 -1.03497 -4.67787 0
M  V30 386 H 33.7244 -0.455339 -2.50597 0
M  V30 387 H 34.5074 -2.11496 -2.70415 0
M  V30 388 N 36.9525 1.47285 -0.560781 0
M  V30 389 C 37.8845 2.28118 0.222438 0
M  V30 390 C 38.8975 1.37219 0.876056 0
M  V30 391 O 40.0865 1.62011 0.749307 0
M  V30 392 C 37.1865 3.1159 1.33285 0
M  V30 393 C 36.3595 4.30473 0.77534 0
M  V30 394 C 35.4185 4.95513 1.77069 0
M  V30 395 O 34.4445 5.53792 1.31539 0
M  V30 396 N 35.6465 4.90531 3.10418 0
M  V30 397 H 38.4115 2.95976 -0.470958 0
M  V30 398 H 35.9725 1.56955 -0.39709 0
M  V30 399 H 37.9645 3.51967 1.99752 0
M  V30 400 H 36.5345 2.45951 1.92943 0
M  V30 401 H 35.7545 3.94144 -0.0662113 0
M  V30 402 H 37.0425 5.07362 0.382272 0
M  V30 403 H 36.4405 4.44389 3.5005 0
M  V30 404 H 34.9975 5.34917 3.72434 0
M  V30 405 N 38.4306 0.297415 1.54768 0
M  V30 406 C 39.6776 -0.312913 2.00068 0
M  V30 407 C 40.0056 -1.54171 1.18582 0
M  V30 408 O 39.2606 -1.94108 0.249133 0
M  V30 409 C 39.5596 -0.717561 3.50123 0
M  V30 410 C 39.2256 0.409095 4.4904 0
M  V30 411 C 37.8876 0.718399 4.75807 0
M  V30 412 C 40.2396 1.16717 5.07963 0
M  V30 413 C 37.5676 1.78896 5.5876 0
M  V30 414 C 39.9196 2.22762 5.92081 0
M  V30 415 C 38.5836 2.54303 6.1716 0
M  V30 416 H 37.8536 -0.114503 0.7321 0
M  V30 417 H 40.5006 0.415767 1.86932 0
M  V30 418 H 38.8056 -1.52627 3.60849 0
M  V30 419 H 40.5026 -1.20091 3.82595 0
M  V30 420 H 37.0926 0.157918 4.28309 0
M  V30 421 H 41.2766 0.941466 4.87289 0
M  V30 422 H 36.5326 2.0381 5.7643 0
M  V30 423 H 40.7066 2.81962 6.36765 0
M  V30 424 H 38.3336 3.3739 6.81229 0
M  V30 425 N 39.9087 -1.5758 0.0250728 0
M  V30 426 C 41.3197 -1.79476 -0.514323 0
M  V30 427 C 41.6707 -0.934956 -1.72491 0
M  V30 428 O 40.7957 -0.144245 -2.15919 0
M  V30 429 C 41.3907 -3.25503 -0.939842 0
M  V30 430 C 39.9497 -3.48408 -1.42438 0
M  V30 431 C 39.0967 -2.74583 -0.387201 0
M  V30 432 H 42.0477 -1.567 0.25113 0
M  V30 433 H 42.0687 -3.34992 -1.80445 0
M  V30 434 H 41.5807 -3.88056 -0.0585628 0
M  V30 435 H 39.6817 -2.91103 -2.32572 0
M  V30 436 H 39.7947 -4.57119 -1.43455 0
M  V30 437 H 38.1587 -2.39942 -0.854409 0
M  V30 438 H 38.9417 -3.39849 0.485543 0
M  V30 439 N 41.3868 0.248026 -1.55636 0
M  V30 440 C 42.6638 0.998988 -1.68165 0
M  V30 441 C 43.0438 2.03409 -0.564621 0
M  V30 442 O 42.3918 2.24378 0.432076 0
M  V30 443 C 42.6018 1.63334 -3.0842 0
M  V30 444 C 43.9498 2.13562 -3.66983 0
M  V30 445 O 44.9738 1.73277 -3.11213 0
M  V30 446 O 43.8328 2.87526 -4.64749 0
M  V30 447 H 40.9268 0.464933 -0.683935 0
M  V30 448 H 43.4728 0.241902 -1.67967 0
M  V30 449 H 42.2448 0.884583 -3.8117 0
M  V30 450 H 41.8678 2.45666 -3.12624 0
M  V30 451 N 42.8649 1.48995 0.513639 0
M  V30 452 C 43.7979 1.59319 1.63379 0
M  V30 453 C 44.7759 0.442816 1.56454 0
M  V30 454 O 45.9599 0.656655 1.76693 0
M  V30 455 C 43.0869 1.5364 3.01848 0
M  V30 456 C 42.1329 2.7372 3.27078 0
M  V30 457 S 42.9659 4.35528 3.1157 0
M  V30 458 C 44.1219 4.32473 4.52458 0
M  V30 459 H 44.3549 2.54079 1.54374 0
M  V30 460 H 41.8879 1.3773 0.697849 0
M  V30 461 H 43.8459 1.51049 3.81699 0
M  V30 462 H 42.5069 0.601898 3.08279 0
M  V30 463 H 41.6999 2.6593 4.28132 0
M  V30 464 H 41.3019 2.73657 2.54927 0
M  V30 465 H 43.5939 4.03414 5.44301 0
M  V30 466 H 44.5369 5.33762 4.65299 0
M  V30 467 H 44.9449 3.62718 4.32546 0
M  V30 468 N 44.343 -0.763751 1.37857 0
M  V30 469 C 45.592 -1.51789 1.32827 0
M  V30 470 C 45.905 -1.95426 -0.0823719 0
M  V30 471 O 47.111 -2.70298 -0.255172 0
M  V30 472 C 45.567 -2.74133 2.33193 0
M  V30 473 C 45.175 -2.37562 3.79827 0
M  V30 474 C 46.919 -3.52054 2.37188 0
M  V30 475 C 44.826 -3.56456 4.71904 0
M  V30 476 H 43.756 -0.569896 0.493695 0
M  V30 477 H 46.407 -0.835822 1.63359 0
M  V30 478 H 44.789 -3.4427 1.9569 0
M  V30 479 H 45.963 -1.75157 4.26212 0
M  V30 480 H 44.278 -1.72798 3.78853 0
M  V30 481 H 46.875 -4.40437 3.03182 0
M  V30 482 H 47.218 -3.92486 1.38782 0
M  V30 483 H 47.751 -2.88921 2.7344 0
M  V30 484 H 44.49 -3.21099 5.71468 0
M  V30 485 H 44.01 -4.17938 4.30218 0
M  V30 486 H 45.689 -4.23168 4.89426 0
M  V30 487 N 45.8211 -1.22559 -0.990812 0
M  V30 488 C 46.7511 -1.0218 -2.09956 0
M  V30 489 C 47.7321 0.0579394 -1.70001 0
M  V30 490 O 48.9171 -0.104684 -1.93918 0
M  V30 491 C 46.0471 -0.601023 -3.4206 0
M  V30 492 C 45.0011 -1.62694 -3.95872 0
M  V30 493 C 44.3271 -1.06193 -5.24049 0
M  V30 494 C 45.6271 -3.01743 -4.2632 0
M  V30 495 H 47.3211 -1.94916 -2.27262 0
M  V30 496 H 44.8671 -0.938566 -1.09211 0
M  V30 497 H 46.8201 -0.445561 -4.19038 0
M  V30 498 H 45.5441 0.362005 -3.24588 0
M  V30 499 H 44.2031 -1.77021 -3.21028 0
M  V30 500 H 43.8511 -0.0901903 -5.02919 0
M  V30 501 H 43.5511 -1.74732 -5.61019 0
M  V30 502 H 45.0751 -0.918092 -6.03658 0
M  V30 503 H 46.4891 -2.90777 -4.94087 0
M  V30 504 H 44.8861 -3.67425 -4.74467 0
M  V30 505 H 45.9561 -3.51518 -3.34011 0
M  V30 506 N 47.2992 1.18797 -1.03562 0
M  V30 507 C 48.5242 1.9314 -0.755764 0
M  V30 508 C 48.9492 1.7537 0.68022 0
M  V30 509 O 48.3072 1.06046 1.47051 0
M  V30 510 C 48.3552 3.42747 -1.12058 0
M  V30 511 O 47.4592 4.11683 -0.243124 0
M  V30 512 H 46.8002 0.602724 -0.278604 0
M  V30 513 H 49.3302 1.50678 -1.3841 0
M  V30 514 H 49.3402 3.93437 -1.08035 0
M  V30 515 H 48.0152 3.55002 -2.16672 0
M  V30 516 H 46.5922 3.71323 -0.342539 0
M  V30 517 N 48.7773 0.814389 1.34928 0
M  V30 518 C 49.7403 0.235759 2.27984 0
M  V30 519 C 50.7403 -0.581412 1.49921 0
M  V30 520 O 51.9303 -0.398758 1.69575 0
M  V30 521 C 49.0623 -0.670433 3.34242 0
M  V30 522 H 50.2553 1.05659 2.80671 0
M  V30 523 H 47.8083 0.585614 1.44915 0
M  V30 524 H 48.5433 -1.51466 2.86755 0
M  V30 525 H 48.3283 -0.0860822 3.92005 0
M  V30 526 H 49.8183 -1.06935 4.03676 0
M  V30 527 N 50.2554 -1.46986 0.568584 0
M  V30 528 C 51.4804 -2.07335 0.0520528 0
M  V30 529 C 51.9054 -1.41675 -1.23733 0
M  V30 530 O 51.2634 -0.495623 -1.74394 0
M  V30 531 C 51.3114 -3.60417 -0.11501 0
M  V30 532 O 50.4154 -3.95309 -1.17492 0
M  V30 533 H 49.7564 -0.661597 0.0564385 0
M  V30 534 H 52.2864 -1.88837 0.787507 0
M  V30 535 H 52.2964 -4.06698 -0.325644 0
M  V30 536 H 50.9714 -4.07601 0.826675 0
M  V30 537 H 49.5484 -3.60757 -0.943869 0
M  V30 538 N 51.7335 -0.305618 -1.54608 0
M  V30 539 C 53.1495 0.0476228 -1.59529 0
M  V30 540 C 53.3495 1.52025 -1.32252 0
M  V30 541 O 52.4055 2.27368 -1.09818 0
M  V30 542 C 53.7185 -0.354471 -2.98603 0
M  V30 543 C 55.2665 -0.303622 -3.11524 0
M  V30 544 C 55.7415 -0.680608 -4.52915 0
M  V30 545 N 57.2325 -0.63332 -4.5885 0
M  V30 546 C 57.9675 -0.897432 -5.66334 0
M  V30 547 N 57.4635 -1.22775 -6.81834 0
M  V30 548 N 59.2565 -0.824186 -5.56025 0
M  V30 549 H 51.4075 -1.2653 -1.70599 0
M  V30 550 H 53.6705 -0.513291 -0.797017 0
M  V30 551 H 53.3765 -1.3798 -3.23503 0
M  V30 552 H 53.2505 0.289568 -3.76087 0
M  V30 553 H 55.6375 0.712472 -2.8637 0
M  V30 554 H 55.7185 -0.982348 -2.36185 0
M  V30 555 H 55.3625 -1.69453 -4.78799 0
M  V30 556 H 55.2925 0.0202385 -5.26596 0
M  V30 557 H 57.7835 -0.389138 -3.75891 0
M  V30 558 H 58.0965 -1.41513 -7.59733 0
M  V30 559 H 56.4415 -1.26583 -6.83375 0
M  V30 560 H 59.6325 -0.565748 -4.64669 0
M  V30 561 H 59.8055 -1.03338 -6.39707 0
M  V30 562 N 53.2116 1.57565 -0.0334293 0
M  V30 563 C 54.4886 1.83282 0.683163 0
M  V30 564 C 54.8686 0.91823 1.90084 0
M  V30 565 O 54.2166 -0.025113 2.28486 0
M  V30 566 C 54.4266 3.32599 1.0573 0
M  V30 567 C 55.7746 3.99179 1.44711 0
M  V30 568 O 56.7986 3.3712 1.15015 0
M  V30 569 O 55.6576 5.08565 2.0006 0
M  V30 570 H 52.7516 0.755869 0.335546 0
M  V30 571 H 55.2976 1.69589 -0.0614402 0
M  V30 572 H 54.0696 3.90834 0.190828 0
M  V30 573 H 53.6926 3.51415 1.85993 0
M  V30 574 N 54.6897 -0.239769 1.55765 0
M  V30 575 C 55.6367 -1.29696 1.90913 0
M  V30 576 C 56.6067 -1.47478 0.764164 0
M  V30 577 O 57.7917 -1.61345 1.01845 0
M  V30 578 C 54.9317 -2.64598 2.21544 0
M  V30 579 C 54.0447 -2.54765 3.48882 0
M  V30 580 C 53.1797 -3.82069 3.69049 0
M  V30 581 C 52.2187 -3.66883 4.89963 0
M  V30 582 N 51.3557 -4.86094 5.06614 0
M  V30 583 H 56.1957 -0.990224 2.81067 0
M  V30 584 H 53.7327 -0.477684 1.39128 0
M  V30 585 H 55.6907 -3.43132 2.3731 0
M  V30 586 H 54.3207 -2.93405 1.34585 0
M  V30 587 H 53.3727 -1.67763 3.41409 0
M  V30 588 H 54.6847 -2.39457 4.37563 0
M  V30 589 H 53.8387 -4.69046 3.84812 0
M  V30 590 H 52.5777 -4.00282 2.78614 0
M  V30 591 H 51.5827 -2.78289 4.74168 0
M  V30 592 H 52.8077 -3.50157 5.81865 0
M  V30 593 H 50.7537 -5.04655 4.19117 0
M  V30 594 H 50.6707 -4.73443 5.89396 0
M  V30 595 H 51.9387 -5.74549 5.26795 0
M  V30 596 N 56.1678 -1.49265 -0.50573 0
M  V30 597 C 57.3958 -1.62215 -1.28429 0
M  V30 598 C 57.8108 -0.291697 -1.86533 0
M  V30 599 O 57.1678 0.722233 -1.67601 0
M  V30 600 C 57.2188 -2.68735 -2.41793 0
M  V30 601 O 56.9398 -3.96619 -1.86078 0
M  V30 602 C 58.4408 -2.92346 -3.3324 0
M  V30 603 H 55.6608 -0.546239 -0.389697 0
M  V30 604 H 58.2048 -1.95265 -0.607609 0
M  V30 605 H 56.3598 -2.38476 -3.053 0
M  V30 606 H 56.7738 -4.55256 -2.60465 0
M  V30 607 H 58.2478 -3.70623 -4.09075 0
M  V30 608 H 58.7248 -2.02081 -3.89948 0
M  V30 609 H 59.3308 -3.24003 -2.75503 0
M  V30 610 N 57.6459 0.756429 -1.3826 0
M  V30 611 C 58.8949 1.51082 -1.3363 0
M  V30 612 C 59.2079 1.95467 0.0720068 0
M  V30 613 O 60.4139 2.7043 0.240834 0
M  V30 614 C 58.8699 2.72893 -2.34644 0
M  V30 615 C 58.4779 2.35544 -3.81081 0
M  V30 616 C 60.2219 3.50791 -2.39052 0
M  V30 617 C 58.1289 3.53948 -4.73787 0
M  V30 618 H 57.0589 0.56727 -0.49671 0
M  V30 619 H 59.7099 0.827147 -1.638 0
M  V30 620 H 58.0919 3.43227 -1.97513 0
M  V30 621 H 59.2659 1.72894 -4.27135 0
M  V30 622 H 57.5809 1.70786 -3.79764 0
M  V30 623 H 60.1779 4.38823 -3.05513 0
M  V30 624 H 60.5209 3.91745 -1.40861 0
M  V30 625 H 61.0539 2.87467 -2.74968 0
M  V30 626 H 57.7929 3.18064 -5.73163 0
M  V30 627 H 57.3129 4.15651 -4.32428 0
M  V30 628 H 58.9919 4.20566 -4.91663 0
M  V30 629 N 59.124 1.23083 0.984299 0
M  V30 630 C 60.373 1.05466 1.71929 0
M  V30 631 C 60.686 -0.409211 1.91272 0
M  V30 632 O 61.892 -0.705226 2.62181 0
M  V30 633 C 60.348 1.83874 3.09384 0
M  V30 634 C 59.956 3.34566 2.97943 0
M  V30 635 C 61.7 1.74734 3.8687 0
M  V30 636 C 59.607 4.05381 4.30605 0
M  V30 637 H 58.537 0.391039 0.644674 0
M  V30 638 H 61.188 1.47013 1.09815 0
M  V30 639 H 59.57 1.35131 3.72231 0
M  V30 640 H 60.744 3.90767 2.44209 0
M  V30 641 H 59.059 3.44476 2.33934 0
M  V30 642 H 61.656 2.24957 4.85076 0
M  V30 643 H 61.999 0.709372 4.10212 0
M  V30 644 H 62.532 2.21067 3.30717 0
M  V30 645 H 59.271 5.09467 4.1246 0
M  V30 646 H 58.791 3.53967 4.84218 0
M  V30 647 H 60.47 4.11458 4.99311 0
M  V30 648 N 60.6021 -1.18246 1.0419 0
M  V30 649 C 61.5351 -2.20746 0.578474 0
M  V30 650 C 62.5131 -1.57912 -0.387624 0
M  V30 651 O 63.6971 -1.86071 -0.301634 0
M  V30 652 C 60.8241 -3.38346 -0.154762 0
M  V30 653 C 59.8701 -4.19587 0.764782 0
M  V30 654 S 60.7031 -4.86014 2.24835 0
M  V30 655 C 61.8591 -6.07012 1.526 0
M  V30 656 H 62.0921 -2.59715 1.44691 0
M  V30 657 H 59.6251 -1.287 0.85297 0
M  V30 658 H 61.5831 -4.065 -0.571641 0
M  V30 659 H 60.2441 -2.97786 -0.999105 0
M  V30 660 H 59.4371 -5.03611 0.197976 0
M  V30 661 H 59.0391 -3.56818 1.12057 0
M  V30 662 H 61.3311 -6.72523 0.819733 0
M  V30 663 H 62.2741 -6.68202 2.34333 0
M  V30 664 H 62.6821 -5.55249 1.01779 0
M  V30 665 N 62.0802 -0.821533 -1.34494 0
M  V30 666 C 63.3262 -0.418729 -1.99043 0
M  V30 667 C 63.6812 1.00672 -1.6396 0
M  V30 668 O 62.9742 1.69132 -0.900271 0
M  V30 669 C 63.1682 -0.556512 -3.53041 0
M  V30 670 C 62.9972 -1.9938 -4.03085 0
M  V30 671 C 61.7672 -2.62539 -4.31742 0
M  V30 672 C 63.9652 -2.96035 -4.20556 0
M  V30 673 N 61.9472 -3.97523 -4.67813 0
M  V30 674 C 63.3182 -4.15924 -4.59791 0
M  V30 675 C 65.3732 -2.9267 -4.02801 0
M  V30 676 C 64.0762 -5.32899 -4.83126 0
M  V30 677 C 66.1022 -4.08861 -4.27302 0
M  V30 678 C 65.4642 -5.275 -4.66822 0
M  V30 679 H 61.5632 -0.201299 -0.755647 0
M  V30 680 H 64.1472 -1.06594 -1.62929 0
M  V30 681 H 62.3182 0.0607924 -3.88352 0
M  V30 682 H 64.0502 -0.126842 -4.04501 0
M  V30 683 H 60.8052 -2.13789 -4.22601 0
M  V30 684 H 61.2292 -4.67061 -4.90085 0
M  V30 685 H 65.8712 -2.02088 -3.71376 0
M  V30 686 H 63.5892 -6.24041 -5.13418 0
M  V30 687 H 67.1752 -4.07654 -4.15101 0
M  V30 688 H 66.0552 -6.15913 -4.85408 0
M  V30 689 N 63.5583 1.46682 -0.576371 0
M  V30 690 C 64.5053 2.30241 0.160499 0
M  V30 691 C 65.4753 1.40233 0.890162 0
M  V30 692 O 66.6603 1.69186 0.882084 0
M  V30 693 C 63.8003 3.24578 1.1723 0
M  V30 694 C 62.9133 4.29684 0.446736 0
M  V30 695 C 62.0483 5.11154 1.44551 0
M  V30 696 C 61.0873 6.08015 0.70599 0
M  V30 697 N 60.2243 6.82376 1.65251 0
M  V30 698 H 65.0643 2.92727 -0.558127 0
M  V30 699 H 62.6013 1.44272 -0.287056 0
M  V30 700 H 64.5593 3.77711 1.77172 0
M  V30 701 H 63.1893 2.63916 1.85872 0
M  V30 702 H 62.2413 3.79458 -0.267594 0
M  V30 703 H 63.5533 4.98626 -0.131686 0
M  V30 704 H 62.7073 5.68533 2.11791 0
M  V30 705 H 61.4463 4.42158 2.05786 0
M  V30 706 H 60.4513 5.49796 0.0197725 0
M  V30 707 H 61.6763 6.79028 0.09912 0
M  V30 708 H 59.6223 6.16094 2.25308 0
M  V30 709 H 59.5393 7.47556 1.12673 0
M  V30 710 H 60.8073 7.44316 2.31546 0
M  V30 711 N 65.0364 0.313813 1.54444 0
M  V30 712 C 65.9664 -0.549454 2.26943 0
M  V30 713 C 66.9474 -1.12741 1.27372 0
M  V30 714 O 68.1324 -1.15436 1.56167 0
M  V30 715 C 65.2624 -1.71523 3.01989 0
M  V30 716 C 64.2164 -1.26703 4.08816 0
M  V30 717 C 63.5424 -2.51898 4.71647 0
M  V30 718 C 64.8424 -0.388962 5.2085 0
M  V30 719 H 66.5364 0.0552661 2.99349 0
M  V30 720 H 64.0824 0.0280207 1.43973 0
M  V30 721 H 66.0354 -2.32535 3.51433 0
M  V30 722 H 64.7594 -2.34639 2.27183 0
M  V30 723 H 63.4184 -0.679896 3.6024 0
M  V30 724 H 63.0664 -3.13356 3.93468 0
M  V30 725 H 62.7664 -2.22605 5.43802 0
M  V30 726 H 64.2904 -3.1369 5.23861 0
M  V30 727 H 65.7044 -0.905107 5.6611 0
M  V30 728 H 64.1014 -0.18924 5.99802 0
M  V30 729 H 65.1714 0.582699 4.81386 0
M  V30 730 N 66.5145 -1.57545 0.0417849 0
M  V30 731 C 67.7425 -1.96624 -0.643928 0
M  V30 732 C 68.1575 -0.918897 -1.64929 0
M  V30 733 O 67.5145 0.0979323 -1.82237 0
M  V30 734 C 67.5655 -3.35781 -1.33914 0
M  V30 735 O 67.2865 -4.365 -0.374048 0
M  V30 736 C 68.7875 -3.89566 -2.1155 0
M  V30 737 H 66.0075 -0.647316 -0.176702 0
M  V30 738 H 68.5515 -2.04229 0.105304 0
M  V30 739 H 66.7065 -3.29357 -2.03968 0
M  V30 740 H 67.1205 -5.17248 -0.869179 0
M  V30 741 H 68.5945 -4.89242 -2.55628 0
M  V30 742 H 69.0715 -3.24488 -2.9598 0
M  V30 743 H 69.6775 -3.99298 -1.46427 0
M  V30 744 N 67.9926 0.231505 -1.5589 0
M  V30 745 C 69.4086 0.580748 -1.48659 0
M  V30 746 C 69.6086 1.87617 -0.73498 0
M  V30 747 O 68.6646 2.51046 -0.270586 0
M  V30 748 C 69.9776 0.669202 -2.93159 0
M  V30 749 C 71.5256 0.760499 -3.03621 0
M  V30 750 C 72.0006 0.880383 -4.49459 0
M  V30 751 N 73.4916 0.944861 -4.53461 0
M  V30 752 C 74.2266 1.05716 -5.63571 0
M  V30 753 N 73.7226 1.13403 -6.83456 0
M  V30 754 N 75.5156 1.09152 -5.514 0
M  V30 755 H 67.6666 -0.618695 -2.03189 0
M  V30 756 H 69.9296 -0.215728 -0.923128 0
M  V30 757 H 69.6356 -0.212904 -3.51055 0
M  V30 758 H 69.5096 1.5361 -3.44505 0
M  V30 759 H 71.8966 1.63305 -2.45796 0
M  V30 760 H 71.9776 -0.131864 -2.5546 0
M  V30 761 H 71.6216 0.0123284 -5.07899 0
M  V30 762 H 71.5516 1.78802 -4.95316 0
M  V30 763 H 74.0426 0.896176 -3.6712 0
M  V30 764 H 74.3556 1.21921 -7.63122 0
M  V30 765 H 72.7006 1.10333 -6.86186 0
M  V30 766 H 75.8916 1.02805 -4.56671 0
M  V30 767 H 76.0646 1.17558 -6.37247 0
M  V30 768 N 69.4707 1.49531 0.497807 0
M  V30 769 C 70.7477 1.49682 1.25915 0
M  V30 770 C 71.1277 0.226339 2.09883 0
M  V30 771 O 70.4757 -0.791189 2.14365 0
M  V30 772 C 70.6857 2.77755 2.11313 0
M  V30 773 C 72.0337 3.27371 2.70395 0
M  V30 774 O 73.0577 2.78894 2.21578 0
M  V30 775 O 71.9167 4.11808 3.59272 0
M  V30 776 H 69.0107 0.599228 0.56996 0
M  V30 777 H 71.5567 1.61798 0.511816 0
M  V30 778 H 70.3287 3.61713 1.49264 0
M  V30 779 H 69.9517 2.68515 2.93233 0
M  V30 780 N 70.9488 -0.749086 1.3866 0
M  V30 781 C 71.8588 -1.89358 1.38494 0
M  V30 782 C 72.8748 -1.71708 0.281476 0
M  V30 783 O 74.0508 -1.94554 0.520643 0
M  V30 784 C 71.1158 -3.24782 1.21316 0
M  V30 785 C 70.1768 -3.54926 2.41508 0
M  V30 786 C 69.4098 -4.83888 2.2514 0
M  V30 787 O 69.6328 -5.56592 1.24746 0
M  V30 788 O 68.5668 -5.13612 3.13826 0
M  V30 789 H 72.3928 -1.92452 2.34938 0
M  V30 790 H 69.9778 -0.894981 1.19626 0
M  V30 791 H 71.8598 -4.05739 1.13814 0
M  V30 792 H 70.5348 -3.2249 0.279592 0
M  V30 793 H 69.4418 -2.74112 2.54585 0
M  V30 794 H 70.7748 -3.61983 3.3351 0
M  V30 795 N 72.4269 -1.23603 -0.977757 0
M  V30 796 C 73.6549 -1.09646 -1.75458 0
M  V30 797 C 74.0699 0.351859 -1.85492 0
M  V30 798 O 73.4269 1.24327 -1.336 0
M  V30 799 C 73.4779 -1.71895 -3.18016 0
M  V30 800 O 73.1989 -3.11063 -3.08498 0
M  V30 801 C 74.6999 -1.63415 -4.12081 0
M  V30 802 H 71.9199 -0.38359 -0.550545 0
M  V30 803 H 74.4639 -1.63507 -1.22824 0
M  V30 804 H 72.6189 -1.22061 -3.67668 0
M  V30 805 H 73.0329 -3.41305 -3.9826 0
M  V30 806 H 74.5069 -2.11669 -5.09804 0
M  V30 807 H 74.9839 -0.593462 -4.35172 0
M  V30 808 H 75.5899 -2.12628 -3.68334 0
M  V30 809 N 73.905 1.17692 -1.04816 0
M  V30 810 C 74.853 2.23632 -0.63966 0
M  V30 811 C 75.847 1.6601 0.337219 0
M  V30 812 O 77.053 1.78844 0.203693 0
M  V30 813 H 73.428 0.727949 -0.188665 0
M  V30 814 H 75.399 2.55387 -1.54337 0
M  V30 815 C 74.148 3.4769 -0.0264051 0
M  V30 816 H 73.471 3.92331 -0.769164 0
M  V30 817 H 74.911 4.23418 0.222098 0
M  V30 818 C 73.37 3.13807 1.22584 0
M  V30 819 O 73.9 3.28236 2.31569 0
M  V30 820 N 72.106 2.68065 1.12202 0
M  V30 821 H 71.653 2.56525 0.235133 0
M  V30 822 H 71.611 2.45767 1.96076 0
M  V30 823 N 75.3831 0.828654 1.34056 0
M  V30 824 C 76.6131 0.431993 2.02033 0
M  V30 825 C 77.0211 -0.96844 1.62536 0
M  V30 826 O 76.3641 -1.6391 0.829408 0
M  V30 827 C 76.4261 0.461224 3.56529 0
M  V30 828 C 76.0901 1.81599 4.1937 0
M  V30 829 C 77.0871 2.7777 4.39477 0
M  V30 830 C 74.7721 2.10604 4.56017 0
M  V30 831 C 76.7661 4.01115 4.95364 0
M  V30 832 C 74.4531 3.34207 5.11614 0
M  V30 833 C 75.4511 4.2928 5.31232 0
M  V30 834 O 75.1391 5.50699 5.8565 0
M  V30 835 H 74.8711 0.170943 0.654029 0
M  V30 836 H 77.4251 1.11988 1.72185 0
M  V30 837 H 75.6551 -0.283388 3.8566 0
M  V30 838 H 77.3441 0.0838149 4.05813 0
M  V30 839 H 78.1101 2.56659 4.11523 0
M  V30 840 H 73.9891 1.37402 4.40047 0
M  V30 841 H 77.5331 4.75333 5.10592 0
M  V30 842 H 73.4301 3.55179 5.38997 0
M  V30 843 H 74.1981 5.52298 6.04077 0
M  V30 844 N 76.8612 -1.46375 0.584142 0
M  V30 845 C 78.1092 -2.01978 0.0701287 0
M  V30 846 C 78.4302 -1.4579 -1.295 0
M  V30 847 O 77.7002 -0.64314 -1.85042 0
M  V30 848 H 76.2802 -0.746648 0.0229345 0
M  V30 849 H 78.9422 -1.79461 0.760245 0
M  V30 850 H 78.0382 -3.121 0.0022064 0
M  V30 851 N 78.3393 -0.321999 -1.54275 0
M  V30 852 C 79.5883 0.281931 -1.9972 0
M  V30 853 C 79.9013 1.53369 -1.21397 0
M  V30 854 O 81.1073 2.21352 -1.57211 0
M  V30 855 C 79.5633 0.5529 -3.55628 0
M  V30 856 C 79.1713 -0.681721 -4.42783 0
M  V30 857 C 80.9153 1.11687 -4.09544 0
M  V30 858 C 78.8223 -0.382742 -5.9016 0
M  V30 859 H 77.7523 0.109124 -0.746062 0
M  V30 860 H 80.4033 -0.43398 -1.78294 0
M  V30 861 H 78.7853 1.32896 -3.73035 0
M  V30 862 H 79.9593 -1.45723 -4.37151 0
M  V30 863 H 78.2743 -1.1658 -3.99748 0
M  V30 864 H 80.8713 1.35515 -5.17242 0
M  V30 865 H 81.2143 2.06575 -3.61431 0
M  V30 866 H 81.7473 0.402032 -3.95763 0
M  V30 867 H 78.4863 -1.30076 -6.42464 0
M  V30 868 H 78.0063 0.355094 -5.98748 0
M  V30 869 H 79.6853 0.00800157 -6.47 0
M  V30 870 N 79.8174 1.5752 -0.0501392 0
M  V30 871 C 81.2284 1.80271 0.485705 0
M  V30 872 C 81.5794 0.96228 1.70981 0
M  V30 873 O 80.7044 0.178578 2.15662 0
M  V30 874 C 81.2994 3.26957 0.887938 0
M  V30 875 C 79.8584 3.5063 1.36877 0
M  V30 876 C 79.0054 2.75165 0.343468 0
M  V30 877 H 81.9564 1.56281 -0.276028 0
M  V30 878 H 81.9774 3.37821 1.75093 0
M  V30 879 H 81.4894 3.881 -0.0031809 0
M  V30 880 H 79.5904 2.94766 2.27911 0
M  V30 881 H 79.7034 4.59343 1.36164 0
M  V30 882 H 78.0674 2.4127 0.816128 0
M  V30 883 H 78.8504 3.39034 -0.539548 0
M  V30 884 N 81.2955 -0.223234 1.56011 0
M  V30 885 C 82.2275 -1.30006 1.88762 0
M  V30 886 C 83.2405 -1.43129 0.775746 0
M  V30 887 O 84.4295 -1.44057 1.05403 0
M  V30 888 C 81.5295 -2.67589 2.07965 0
M  V30 889 C 80.7025 -2.76434 3.38973 0
M  V30 890 C 79.7615 -3.95019 3.47629 0
M  V30 891 O 78.7875 -3.83436 4.20672 0
M  V30 892 N 79.9895 -5.09249 2.78649 0
M  V30 893 H 82.7545 -1.02238 2.81722 0
M  V30 894 H 80.3155 -0.413278 1.56536 0
M  V30 895 H 82.3075 -3.45297 2.11073 0
M  V30 896 H 80.8775 -2.87964 1.21638 0
M  V30 897 H 80.0975 -1.85216 3.47978 0
M  V30 898 H 81.3855 -2.79313 4.25278 0
M  V30 899 H 80.7835 -5.21556 2.19081 0
M  V30 900 H 79.3405 -5.85007 2.8742 0
M  V30 901 N 82.7736 -1.49793 -0.48987 0
M  V30 902 C 84.1896 -1.36803 -0.822022 0
M  V30 903 C 84.3896 -0.409652 -1.97292 0
M  V30 904 O 83.4456 0.154614 -2.52026 0
M  V30 905 C 84.7586 -2.77768 -1.15175 0
M  V30 906 C 86.3066 -2.86549 -1.25931 0
M  V30 907 C 86.7816 -4.28306 -1.62228 0
M  V30 908 N 88.2726 -4.31169 -1.69256 0
M  V30 909 C 89.0076 -5.37832 -1.98807 0
M  V30 910 N 88.5036 -6.54726 -2.26507 0
M  V30 911 N 90.2966 -5.25258 -2.00152 0
M  V30 912 H 82.4476 -2.10691 0.268881 0
M  V30 913 H 84.7106 -0.946241 0.057728 0
M  V30 914 H 84.4166 -3.49648 -0.379335 0
M  V30 915 H 84.2906 -3.13836 -2.09253 0
M  V30 916 H 86.6776 -2.14899 -2.02243 0
M  V30 917 H 86.7586 -2.54049 -0.298776 0
M  V30 918 H 86.4026 -5.00486 -0.864622 0
M  V30 919 H 86.3326 -4.58279 -2.594 0
M  V30 920 H 88.8236 -3.4687 -1.49965 0
M  V30 921 H 89.1366 -7.31833 -2.48276 0
M  V30 922 H 87.4816 -6.57933 -2.23939 0
M  V30 923 H 90.6726 -4.32938 -1.77996 0
M  V30 924 H 90.8456 -6.08476 -2.22848 0
M  V30 925 N 84.2517 0.741722 -1.39055 0
M  V30 926 C 85.2147 1.83733 -1.37021 0
M  V30 927 C 86.2147 1.58542 -0.268534 0
M  V30 928 O 87.4047 1.66067 -0.526076 0
M  V30 929 C 84.5367 3.2141 -1.13617 0
M  V30 930 H 85.7297 1.86941 -2.34506 0
M  V30 931 H 83.2827 0.944676 -1.24521 0
M  V30 932 H 84.0177 3.23865 -0.167863 0
M  V30 933 H 83.8027 3.4109 -1.93391 0
M  V30 934 H 85.2927 4.01477 -1.14918 0
M  V30 935 N 85.7298 1.2412 0.971189 0
M  V30 936 C 86.6598 1.05508 2.08304 0
M  V30 937 C 87.6408 -0.0308864 1.70072 0
M  V30 938 O 88.8258 0.135521 1.93727 0
M  V30 939 C 85.9558 0.655365 3.4106 0
M  V30 940 C 84.9098 1.68971 3.93234 0
M  V30 941 C 84.2358 1.14516 5.22293 0
M  V30 942 C 85.5358 3.08487 4.21465 0
M  V30 943 H 87.2298 1.98507 2.24132 0
M  V30 944 H 84.7758 0.955821 1.07704 0
M  V30 945 H 86.7288 0.51217 4.18276 0
M  V30 946 H 85.4528 -0.31032 3.25122 0
M  V30 947 H 84.1118 1.82106 3.18171 0
M  V30 948 H 83.7598 0.170189 5.02712 0
M  V30 949 H 83.4598 1.83635 5.58168 0
M  V30 950 H 84.9838 1.01401 6.02121 0
M  V30 951 H 86.3978 2.98601 4.89398 0
M  V30 952 H 84.7948 3.74926 4.68562 0
M  V30 953 H 85.8648 3.56787 3.28376 0
M  V30 954 N 87.2079 -1.17134 1.05439 0
M  V30 955 C 88.6239 -1.39454 0.776201 0
M  V30 956 C 88.8239 -1.91454 -0.628307 0
M  V30 957 O 87.8799 -2.10777 -1.39031 0
M  V30 958 C 89.1929 -2.38305 1.83388 0
M  V30 959 C 90.7409 -2.52006 1.85639 0
M  V30 960 C 91.2159 -3.54133 2.90437 0
M  V30 961 N 92.7069 -3.61653 2.89415 0
M  V30 962 C 93.4419 -4.4044 3.67152 0
M  V30 963 N 92.9379 -5.22721 4.54681 0
M  V30 964 N 94.7309 -4.35337 3.55581 0
M  V30 965 H 86.8819 -0.817134 1.96053 0
M  V30 966 H 89.1449 -0.421626 0.849079 0
M  V30 967 H 88.8509 -2.07173 2.84204 0
M  V30 968 H 88.7249 -3.37841 1.67761 0
M  V30 969 H 91.1119 -2.82447 0.85486 0
M  V30 970 H 91.1929 -1.52537 2.05344 0
M  V30 971 H 90.8369 -3.24431 3.90777 0
M  V30 972 H 90.7669 -4.53313 2.67983 0
M  V30 973 H 93.2579 -3.02909 2.25952 0
M  V30 974 H 93.5709 -5.80027 5.10674 0
M  V30 975 H 91.9159 -5.22093 4.58741 0
M  V30 976 H 95.1069 -3.70112 2.86592 0
M  V30 977 H 95.2799 -4.96494 4.1641 0
M  V30 978 N 88.686 -0.835752 -1.33615 0
M  V30 979 C 89.934 -0.429109 -1.97492 0
M  V30 980 C 90.255 1.01433 -1.66543 0
M  V30 981 O 89.525 1.70611 -0.962744 0
M  V30 982 H 88.105 -0.155686 -0.730596 0
M  V30 983 H 90.767 -1.06802 -1.63031 0
M  V30 984 H 89.863 -0.55861 -3.0706 0
M  V30 985 N 90.1641 1.46063 -0.591896 0
M  V30 986 C 91.1141 2.27458 0.157172 0
M  V30 987 C 92.0981 1.3641 0.853301 0
M  V30 988 O 93.2901 1.60517 0.74588 0
M  V30 989 C 90.4191 3.22956 1.16423 0
M  V30 990 C 89.5051 4.2149 0.469742 0
M  V30 991 N 89.8961 5.03519 -0.479839 0
M  V30 992 C 88.1941 4.40161 0.719319 0
M  V30 993 C 88.8951 5.74904 -0.886591 0
M  V30 994 N 87.8711 5.43097 -0.233731 0
M  V30 995 H 91.6731 2.88272 -0.572392 0
M  V30 996 H 89.1871 1.57024 -0.414375 0
M  V30 997 H 91.1841 3.79986 1.71513 0
M  V30 998 H 89.8441 2.63701 1.89451 0
M  V30 999 H 90.8551 5.1078 -0.855823 0
M  V30 1000 H 87.5321 3.92046 1.43548 0
M  V30 1001 H 88.9221 6.50844 -1.66888 0
M  V30 1002 N 91.6422 0.330177 1.54103 0
M  V30 1003 C 92.8672 -0.274893 2.0557 0
M  V30 1004 C 93.2922 -1.44487 1.20437 0
M  V30 1005 O 92.6502 -1.80021 0.214991 0
M  V30 1006 C 92.6982 -0.68079 3.54115 0
M  V30 1007 O 91.8022 -1.7824 3.71893 0
M  V30 1008 H 91.1432 -0.0483849 0.662235 0
M  V30 1009 H 93.6732 0.480508 1.98878 0
M  V30 1010 H 93.6832 -0.961635 3.96505 0
M  V30 1011 H 92.3582 0.174903 4.15532 0
M  V30 1012 H 90.9352 -1.49985 3.41407 0
M  V30 1013 N 93.1203 -1.57491 0.0584922 0
M  V30 1014 C 94.0703 -2.08474 -0.923188 0
M  V30 1015 C 95.0543 -0.991479 -1.26722 0
M  V30 1016 O 96.2463 -1.25473 -1.24842 0
M  V30 1017 C 93.3753 -2.6392 -2.19548 0
M  V30 1018 C 92.4613 -3.80227 -1.87852 0
M  V30 1019 N 92.8523 -4.89714 -1.26546 0
M  V30 1020 C 91.1503 -3.89271 -2.17679 0
M  V30 1021 C 91.8513 -5.70689 -1.12644 0
M  V30 1022 N 90.8273 -5.18531 -1.63176 0
M  V30 1023 H 94.6293 -2.90517 -0.444653 0
M  V30 1024 H 92.1433 -1.61745 -0.145764 0
M  V30 1025 H 94.1403 -2.98752 -2.9078 0
M  V30 1026 H 92.8003 -1.83318 -2.68001 0
M  V30 1027 H 93.8113 -5.09358 -0.936757 0
M  V30 1028 H 90.4883 -3.19623 -2.68602 0
M  V30 1029 H 91.8783 -6.6875 -0.6499 0
M  V30 1030 N 94.5984 0.214957 -1.56127 0
M  V30 1031 C 95.8454 0.938372 -1.79446 0
M  V30 1032 C 96.1734 1.8407 -0.628378 0
M  V30 1033 O 95.4284 1.91837 0.386925 0
M  V30 1034 C 95.7274 1.80314 -3.0858 0
M  V30 1035 C 95.3934 1.05349 -4.3842 0
M  V30 1036 C 94.0554 0.846435 -4.73697 0
M  V30 1037 C 96.4074 0.524588 -5.18553 0
M  V30 1038 C 93.7354 0.098683 -5.86617 0
M  V30 1039 C 96.0874 -0.209853 -6.32252 0
M  V30 1040 C 94.7514 -0.428102 -6.66126 0
M  V30 1041 H 94.0214 0.343375 -0.656639 0
M  V30 1042 H 96.6684 0.206077 -1.90388 0
M  V30 1043 H 94.9734 2.6035 -2.92789 0
M  V30 1044 H 96.6704 2.36513 -3.23825 0
M  V30 1045 H 93.2604 1.22486 -4.10725 0
M  V30 1046 H 97.4444 0.672008 -4.91729 0
M  V30 1047 H 92.7004 -0.0805753 -6.11347 0
M  V30 1048 H 96.8744 -0.627157 -6.9357 0
M  V30 1049 H 94.5014 -1.00944 -7.53468 0
M  V30 1050 N 96.0765 1.50051 0.48192 0
M  V30 1051 C 97.3225 1.60736 1.2366 0
M  V30 1052 C 97.6555 0.301786 1.91841 0
M  V30 1053 O 96.9305 -0.696025 1.8162 0
M  V30 1054 C 97.2135 2.78009 2.28874 0
M  V30 1055 C 97.0665 4.18416 1.65069 0
M  V30 1056 C 98.3855 2.90867 3.30279 0
M  V30 1057 H 95.5045 0.585031 0.448228 0
M  V30 1058 H 98.1465 1.82402 0.531946 0
M  V30 1059 H 96.2965 2.59667 2.88973 0
M  V30 1060 H 97.9685 4.48322 1.0865 0
M  V30 1061 H 96.2115 4.23177 0.954148 0
M  V30 1062 H 96.8825 4.96381 2.41474 0
M  V30 1063 H 99.3585 3.07623 2.80191 0
M  V30 1064 H 98.2345 3.74566 4.01238 0
M  V30 1065 H 98.4955 2.01021 3.93755 0
M  V30 1066 N 97.5546 -0.734337 1.39446 0
M  V30 1067 C 98.7796 -1.52866 1.40167 0
M  V30 1068 C 99.2046 -1.881 -0.00171513 0
M  V30 1069 O 98.5626 -1.51957 -0.988879 0
M  V30 1070 C 98.6106 -2.79235 2.28167 0
M  V30 1071 O 97.7146 -3.75185 1.71201 0
M  V30 1072 H 97.0556 -0.461618 0.477289 0
M  V30 1073 H 99.5856 -0.905949 1.8345 0
M  V30 1074 H 99.5956 -3.27963 2.42702 0
M  V30 1075 H 98.2706 -2.52923 3.30156 0
M  V30 1076 H 96.8476 -3.33958 1.65912 0
M  V30 1077 N 99.0327 -1.24633 -0.964593 0
M  V30 1078 C 100.31 -0.995809 -1.68354 0
M  V30 1079 C 100.69 0.480964 -2.05548 0
M  V30 1080 O 100.038 1.45599 -1.76105 0
M  V30 1081 C 100.248 -1.92177 -2.91323 0
M  V30 1082 C 101.596 -2.19446 -3.63495 0
M  V30 1083 O 102.62 -1.89855 -3.01386 0
M  V30 1084 O 101.479 -2.69714 -4.75307 0
M  V30 1085 H 98.5727 -0.376854 -0.736146 0
M  V30 1086 H 101.119 -1.35745 -1.0184 0
M  V30 1087 H 99.8907 -2.91938 -2.60553 0
M  V30 1088 H 99.5137 -1.56349 -3.65569 0
M  V30 1089 N 100.511 1.16574 -1.06058 0
M  V30 1090 C 101.757 1.87324 -0.777022 0
M  V30 1091 C 102.09 1.81351 0.694645 0
M  V30 1092 O 101.365 1.22753 1.50871 0
M  V30 1093 C 101.648 3.36991 -1.26922 0
M  V30 1094 C 101.501 3.51667 -2.80447 0
M  V30 1095 C 102.82 4.3131 -0.87521 0
M  V30 1096 H 99.9388 0.680191 -0.28374 0
M  V30 1097 H 102.581 1.37036 -1.3161 0
M  V30 1098 H 100.731 3.79949 -0.81063 0
M  V30 1099 H 102.403 3.17664 -3.34495 0
M  V30 1100 H 100.646 2.93656 -3.19294 0
M  V30 1101 H 101.317 4.56766 -3.0995 0
M  V30 1102 H 103.793 3.9624 -1.27014 0
M  V30 1103 H 102.669 5.34545 -1.2471 0
M  V30 1104 H 102.93 4.41552 0.220071 0
M  V30 1105 N 101.989 0.842826 1.3317 0
M  V30 1106 C 103.235 0.441099 1.97945 0
M  V30 1107 C 103.568 -0.998024 1.66593 0
M  V30 1108 O 102.843 -1.69839 0.947898 0
M  V30 1109 C 103.126 0.666841 3.53872 0
M  V30 1110 C 102.979 2.15352 3.94897 0
M  V30 1111 C 104.298 0.115544 4.39948 0
M  V30 1112 H 101.417 0.161739 0.719034 0
M  V30 1113 H 104.059 1.05907 1.57746 0
M  V30 1114 H 102.209 0.140828 3.88245 0
M  V30 1115 H 103.881 2.7447 3.70761 0
M  V30 1116 H 102.124 2.63653 3.44484 0
M  V30 1117 H 102.795 2.26221 5.03516 0
M  V30 1118 H 105.271 0.565213 4.12243 0
M  V30 1119 H 104.147 0.303152 5.48062 0
M  V30 1120 H 104.408 -0.980935 4.3108 0
M  V30 1121 N 103.467 -1.45747 0.599634 0
M  V30 1122 C 104.716 -2.01502 0.0893511 0
M  V30 1123 C 105.029 -1.4748 -1.28488 0
M  V30 1124 O 106.235 -1.95161 -1.88745 0
M  V30 1125 C 104.691 -3.59735 0.109082 0
M  V30 1126 C 104.299 -4.22754 1.48267 0
M  V30 1127 C 106.043 -4.23085 -0.346374 0
M  V30 1128 C 103.95 -5.73115 1.45921 0
M  V30 1129 H 102.88 -0.753417 0.0296347 0
M  V30 1130 H 105.531 -1.67303 0.753788 0
M  V30 1131 H 103.913 -3.91087 -0.621854 0
M  V30 1132 H 105.087 -4.02987 2.23468 0
M  V30 1133 H 103.402 -3.71567 1.87955 0
M  V30 1134 H 105.999 -5.33327 -0.38298 0
M  V30 1135 H 106.342 -3.93201 -1.36743 0
M  V30 1136 H 106.875 -3.9642 0.331038 0
M  V30 1137 H 103.614 -6.07685 2.45762 0
M  V30 1138 H 103.134 -5.95097 0.749665 0
M  V30 1139 H 104.813 -6.3616 1.17941 0
M  V30 1140 N 104.945 -0.338344 -1.53925 0
M  V30 1141 C 106.17 0.263987 -2.05713 0
M  V30 1142 C 106.595 1.43847 -1.21201 0
M  V30 1143 O 105.953 1.79904 -0.224535 0
M  V30 1144 C 106.001 0.662 -3.54471 0
M  V30 1145 O 105.105 1.76265 -3.72833 0
M  V30 1146 H 104.446 0.0448722 -0.662482 0
M  V30 1147 H 106.976 -0.491048 -1.9862 0
M  V30 1148 H 106.986 0.940594 -3.9701 0
M  V30 1149 H 105.661 -0.196937 -4.15433 0
M  V30 1150 H 104.238 1.48173 -3.42198 0
M  V30 1151 N 106.423 1.57458 -0.0668435 0
M  V30 1152 C 107.648 1.9804 0.616027 0
M  V30 1153 C 108.073 0.944771 1.62652 0
M  V30 1154 O 107.431 -0.0902094 1.81075 0
M  V30 1155 C 107.479 3.37665 1.26549 0
M  V30 1156 O 106.583 3.36701 2.38131 0
M  V30 1157 H 105.924 0.644719 0.158849 0
M  V30 1158 H 108.454 2.04121 -0.139891 0
M  V30 1159 H 108.464 3.7474 1.6135 0
M  V30 1160 H 107.139 4.12573 0.525016 0
M  V30 1161 H 105.716 3.1139 2.0516 0
M  V30 1162 N 107.901 -0.206675 1.56239 0
M  V30 1163 C 109.178 -0.954051 1.70755 0
M  V30 1164 C 109.558 -2.01841 0.618353 0
M  V30 1165 O 108.906 -2.25444 -0.372434 0
M  V30 1166 C 109.116 -1.551 3.12642 0
M  V30 1167 C 110.464 -2.03757 3.72516 0
M  V30 1168 O 111.488 -1.64965 3.15698 0
M  V30 1169 O 110.347 -2.75103 4.72208 0
M  V30 1170 H 107.441 -0.446636 0.696021 0
M  V30 1171 H 109.987 -0.197283 1.68549 0
M  V30 1172 H 108.759 -0.783212 3.83382 0
M  V30 1173 H 108.382 -2.37291 3.19028 0
M  V30 1174 N 109.379 -1.50304 -0.473955 0
M  V30 1175 C 110.627 -1.60832 -1.22382 0
M  V30 1176 C 110.948 -0.30939 -1.9253 0
M  V30 1177 O 110.218 0.67296 -1.83978 0
M  V30 1178 H 108.798 -0.592652 -0.454723 0
M  V30 1179 H 111.46 -1.87068 -0.546968 0
M  V30 1180 H 110.556 -2.41803 -1.97327 0
M  V30 1181 N 110.857 0.726932 -1.39834 0
M  V30 1182 C 111.789 1.85147 -1.35104 0
M  V30 1183 C 112.802 1.60736 -0.258392 0
M  V30 1184 O 113.991 1.70821 -0.517931 0
M  V30 1185 C 111.091 3.21332 -1.07697 0
M  V30 1186 C 110.264 3.73033 -2.28396 0
M  V30 1187 C 109.323 4.87802 -1.97322 0
M  V30 1188 O 108.349 5.01043 -2.70083 0
M  V30 1189 N 109.551 5.72768 -0.944273 0
M  V30 1190 H 112.316 1.89706 -2.32017 0
M  V30 1191 H 109.877 0.908006 -1.3404 0
M  V30 1192 H 111.869 3.95691 -0.849144 0
M  V30 1193 H 110.439 3.11992 -0.194909 0
M  V30 1194 H 109.659 2.89934 -2.6708 0
M  V30 1195 H 110.947 4.0431 -3.08887 0
M  V30 1196 H 110.345 5.64669 -0.341427 0
M  V30 1197 H 108.902 6.4716 -0.776346 0
M  V30 1198 N 112.336 1.25143 0.95797 0
M  V30 1199 C 113.583 1.09692 1.70217 0
M  V30 1200 C 113.911 -0.362654 1.91089 0
M  V30 1201 O 113.166 -1.28386 1.47701 0
M  V30 1202 C 113.465 1.79272 3.09187 0
M  V30 1203 C 113.131 3.29196 3.08125 0
M  V30 1204 C 111.793 3.70096 3.07543 0
M  V30 1205 C 114.145 4.24995 3.0171 0
M  V30 1206 C 111.473 5.05213 2.9829 0
M  V30 1207 C 113.825 5.60132 2.93999 0
M  V30 1208 C 112.489 6.00365 2.9175 0
M  V30 1209 H 111.759 0.401393 0.622868 0
M  V30 1210 H 114.406 1.55372 1.11945 0
M  V30 1211 H 112.711 1.26014 3.70982 0
M  V30 1212 H 114.408 1.64773 3.65583 0
M  V30 1213 H 110.998 2.96651 3.09348 0
M  V30 1214 H 115.182 3.9439 3.01281 0
M  V30 1215 H 110.438 5.35569 2.94916 0
M  V30 1216 H 114.612 6.3406 2.87996 0
M  V30 1217 H 112.239 7.05023 2.84336 0
M  V30 1218 N 113.814 -1.1601 1.06675 0
M  V30 1219 C 114.777 -2.18724 0.685001 0
M  V30 1220 C 115.777 -1.58496 -0.271246 0
M  V30 1221 O 116.967 -1.74119 -0.0531156 0
M  V30 1222 C 114.099 -3.40899 0.00853648 0
M  V30 1223 H 115.292 -2.54011 1.59431 0
M  V30 1224 H 112.845 -1.30352 0.862441 0
M  V30 1225 H 113.58 -3.11173 -0.913337 0
M  V30 1226 H 113.365 -3.8587 0.696204 0
M  V30 1227 H 114.855 -4.16886 -0.24414 0
M  V30 1228 N 115.292 -0.849877 -1.32721 0
M  V30 1229 C 116.222 -0.306308 -2.31482 0
M  V30 1230 C 117.203 0.591952 -1.59468 0
M  V30 1231 O 118.388 0.513199 -1.87296 0
M  V30 1232 C 115.518 0.510204 -3.43532 0
M  V30 1233 C 114.472 -0.293209 -4.26994 0
M  V30 1234 C 113.798 0.647743 -5.30762 0
M  V30 1235 C 115.098 -1.51634 -4.99804 0
M  V30 1236 H 116.792 -1.13153 -2.77195 0
M  V30 1237 H 114.338 -0.545553 -1.33266 0
M  V30 1238 H 116.291 0.900856 -4.11658 0
M  V30 1239 H 115.015 1.36874 -2.96535 0
M  V30 1240 H 113.674 -0.665555 -3.60508 0
M  V30 1241 H 113.322 1.50299 -4.8002 0
M  V30 1242 H 113.022 0.11422 -5.87489 0
M  V30 1243 H 114.546 1.03567 -6.01753 0
M  V30 1244 H 115.96 -1.19824 -5.60638 0
M  V30 1245 H 114.357 -1.98745 -5.66234 0
M  V30 1246 H 115.427 -2.28018 -4.27943 0
M  V30 1247 N 116.77 1.45427 -0.607355 0
M  V30 1248 C 117.995 2.07124 -0.107006 0
M  V30 1249 C 118.42 1.44906 1.19933 0
M  V30 1250 O 117.778 0.541687 1.73019 0
M  V30 1251 C 117.826 3.60595 0.0194119 0
M  V30 1252 O 116.93 3.98285 1.0697 0
M  V30 1253 H 116.271 0.659868 -0.0739597 0
M  V30 1254 H 118.801 1.86683 -0.837297 0
M  V30 1255 H 118.811 4.07419 0.2177 0
M  V30 1256 H 117.486 4.05266 -0.934453 0
M  V30 1257 H 116.063 3.63133 0.847889 0
M  V30 1258 N 118.248 0.346503 1.53744 0
M  V30 1259 C 119.496 -0.248612 2.00565 0
M  V30 1260 C 119.817 -1.5083 1.23593 0
M  V30 1261 O 119.087 -1.92858 0.343912 0
M  V30 1262 H 117.667 -0.0948564 0.740953 0
M  V30 1263 H 120.329 0.468341 1.89189 0
M  V30 1264 H 119.425 -0.488994 3.08245 0
M  V30 1265 N 119.726 -1.57421 0.075193 0
M  V30 1266 C 120.951 -1.98364 -0.605515 0
M  V30 1267 C 121.376 -0.953383 -1.62149 0
M  V30 1268 O 120.734 0.0806053 -1.81121 0
M  V30 1269 C 120.782 -3.38332 -1.24756 0
M  V30 1270 O 119.886 -3.37959 -2.36342 0
M  V30 1271 H 119.227 -0.645553 -0.155428 0
M  V30 1272 H 121.757 -2.04044 0.150714 0
M  V30 1273 H 121.767 -3.75591 -1.5936 0
M  V30 1274 H 120.442 -4.12846 -0.503129 0
M  V30 1275 H 119.019 -3.12474 -2.03506 0
M  V30 1276 N 121.204 0.198386 -1.56346 0
M  V30 1277 C 122.45 0.916115 -1.81601 0
M  V30 1278 C 122.805 1.81025 -0.651744 0
M  V30 1279 O 122.098 1.88316 0.353229 0
M  V30 1280 C 122.292 1.77031 -3.10475 0
M  V30 1281 C 122.121 0.960365 -4.39326 0
M  V30 1282 C 120.891 0.646093 -5.01152 0
M  V30 1283 C 123.089 0.314628 -5.13337 0
M  V30 1284 N 121.071 -0.182828 -6.13628 0
M  V30 1285 C 122.442 -0.37664 -6.18855 0
M  V30 1286 C 124.497 0.230019 -4.97368 0
M  V30 1287 C 123.2 -1.14445 -7.10137 0
M  V30 1288 C 125.226 -0.524389 -5.89071 0
M  V30 1289 C 124.588 -1.20412 -6.94032 0
M  V30 1290 H 120.687 0.314732 -0.715868 0
M  V30 1291 H 123.271 0.185102 -1.93818 0
M  V30 1292 H 121.442 2.47295 -2.99499 0
M  V30 1293 H 123.174 2.42727 -3.2383 0
M  V30 1294 H 119.929 0.969724 -4.63566 0
M  V30 1295 H 120.353 -0.586802 -6.74452 0
M  V30 1296 H 124.995 0.741184 -4.16253 0
M  V30 1297 H 122.713 -1.66706 -7.90718 0
M  V30 1298 H 126.299 -0.591167 -5.78789 0
M  V30 1299 H 125.179 -1.77853 -7.63766 0
M  V30 1300 N 122.682 1.50554 0.465978 0
M  V30 1301 C 123.959 1.5232 1.22712 0
M  V30 1302 C 124.339 0.270807 2.09356 0
M  V30 1303 O 123.687 -0.745541 2.15995 0
M  V30 1304 C 123.897 2.82175 2.05374 0
M  V30 1305 C 125.245 3.33033 2.6339 0
M  V30 1306 O 126.269 2.83531 2.15612 0
M  V30 1307 O 125.128 4.19336 3.50456 0
M  V30 1308 H 122.222 0.611183 0.557122 0
M  V30 1309 H 124.768 1.62847 0.477381 0
M  V30 1310 H 123.54 3.64797 1.41558 0
M  V30 1311 H 123.163 2.74675 2.87471 0
M  V30 1312 N 124.16 -0.719506 1.40217 0
M  V30 1313 C 125.408 -1.47641 1.3801 0
M  V30 1314 C 125.729 -1.94992 -0.018145 0
M  V30 1315 O 124.999 -1.70073 -0.972207 0
M  V30 1316 H 123.579 -0.547744 0.507923 0
M  V30 1317 H 126.241 -0.853187 1.75233 0
M  V30 1318 H 125.337 -2.35112 2.05253 0
M  V30 1319 N 125.638 -1.25649 -0.95132 0
M  V30 1320 C 126.866 -1.13343 -1.73092 0
M  V30 1321 C 127.281 0.312434 -1.86197 0
M  V30 1322 O 126.638 1.21465 -1.36207 0
M  V30 1323 C 126.689 -1.78602 -3.14299 0
M  V30 1324 O 126.41 -3.17537 -3.01831 0
M  V30 1325 C 127.911 -1.72119 -4.08522 0
M  V30 1326 H 125.131 -0.395181 -0.542285 0
M  V30 1327 H 127.675 -1.66076 -1.19328 0
M  V30 1328 H 125.83 -1.29832 -3.64996 0
M  V30 1329 H 126.244 -3.49676 -3.90931 0
M  V30 1330 H 127.718 -2.22435 -5.052 0
M  V30 1331 H 128.195 -0.685635 -4.33815 0
M  V30 1332 H 128.801 -2.20393 -3.63741 0
M  V30 1333 N 127.117 1.15442 -1.07289 0
M  V30 1334 C 128.047 2.22312 -0.714107 0
M  V30 1335 C 129.028 1.67467 0.298155 0
M  V30 1336 O 130.213 1.93445 0.171048 0
M  V30 1337 C 127.343 3.47124 -0.110448 0
M  V30 1338 C 126.297 4.14926 -1.04979 0
M  V30 1339 C 125.623 5.33807 -0.308924 0
M  V30 1340 C 126.923 4.64762 -2.38314 0
M  V30 1341 H 128.617 2.5258 -1.6076 0
M  V30 1342 H 126.163 1.21404 -0.77441 0
M  V30 1343 H 128.116 4.21124 0.152482 0
M  V30 1344 H 126.84 3.16187 0.81812 0
M  V30 1345 H 125.499 3.42866 -1.29764 0
M  V30 1346 H 125.147 4.99126 0.623084 0
M  V30 1347 H 124.847 5.80113 -0.935036 0
M  V30 1348 H 126.371 6.10576 -0.0537771 0
M  V30 1349 H 127.785 5.30292 -2.1786 0
M  V30 1350 H 126.182 5.21728 -2.96514 0
M  V30 1351 H 127.252 3.80434 -3.00663 0
M  V30 1352 N 128.595 0.856903 1.32268 0
M  V30 1353 C 130.011 0.547061 1.49931 0
M  V30 1354 C 130.211 -0.921781 1.7918 0
M  V30 1355 O 129.267 -1.70469 1.8627 0
M  V30 1356 C 130.58 1.43599 2.64196 0
M  V30 1357 C 132.128 1.43665 2.78081 0
M  V30 1358 C 132.603 2.31085 3.95428 0
M  V30 1359 N 134.094 2.28893 4.02694 0
M  V30 1360 C 134.829 2.93262 4.92732 0
M  V30 1361 N 134.325 3.66751 5.87763 0
M  V30 1362 N 136.118 2.82638 4.85873 0
M  V30 1363 H 128.269 1.8075 1.11549 0
M  V30 1364 H 130.532 0.772144 0.549997 0
M  V30 1365 H 130.238 2.48058 2.49319 0
M  V30 1366 H 130.112 1.12502 3.60032 0
M  V30 1367 H 132.499 0.399701 2.92381 0
M  V30 1368 H 132.58 1.7878 1.82952 0
M  V30 1369 H 132.224 3.34849 3.81888 0
M  V30 1370 H 132.154 1.93302 4.89839 0
M  V30 1371 H 134.645 1.75466 3.34694 0
M  V30 1372 H 134.958 4.13027 6.53168 0
M  V30 1373 H 133.303 3.70859 5.87783 0
M  V30 1374 H 136.494 2.24774 4.10602 0
M  V30 1375 H 136.667 3.33084 5.55841 0
M  V30 1376 N 130.073 -1.45103 0.615059 0
M  V30 1377 C 131.003 -2.33339 -0.0865619 0
M  V30 1378 C 131.984 -1.4727 -0.851209 0
M  V30 1379 O 133.169 -1.76026 -0.820281 0
M  V30 1380 C 130.299 -3.30095 -1.07956 0
M  V30 1381 C 129.253 -4.25858 -0.427628 0
M  V30 1382 C 128.579 -5.12361 -1.5294 0
M  V30 1383 C 129.879 -5.18165 0.655944 0
M  V30 1384 H 131.573 -2.92254 0.650224 0
M  V30 1385 H 129.119 -1.40532 0.314138 0
M  V30 1386 H 131.072 -3.90698 -1.57901 0
M  V30 1387 H 129.796 -2.69355 -1.84703 0
M  V30 1388 H 128.455 -3.66564 0.0510292 0
M  V30 1389 H 128.103 -4.47984 -2.28734 0
M  V30 1390 H 127.803 -5.77238 -1.09865 0
M  V30 1391 H 129.327 -5.75833 -2.03098 0
M  V30 1392 H 130.741 -5.72796 0.240257 0
M  V30 1393 H 129.138 -5.91559 1.00888 0
M  V30 1394 H 130.208 -4.60144 1.52957 0
M  V30 1395 N 131.551 -0.354651 -1.53558 0
M  V30 1396 C 132.797 0.231422 -2.02079 0
M  V30 1397 C 133.152 1.47308 -1.23767 0
M  V30 1398 O 132.445 1.8891 -0.319947 0
M  V30 1399 C 132.639 0.587121 -3.52545 0
M  V30 1400 C 132.468 -0.618513 -4.45426 0
M  V30 1401 C 131.238 -1.12724 -4.92566 0
M  V30 1402 C 133.436 -1.48039 -4.92533 0
M  V30 1403 N 131.418 -2.29404 -5.69427 0
M  V30 1404 C 132.789 -2.49397 -5.67628 0
M  V30 1405 C 134.844 -1.50454 -4.74624 0
M  V30 1406 C 133.547 -3.53013 -6.26717 0
M  V30 1407 C 135.573 -2.52958 -5.34571 0
M  V30 1408 C 134.935 -3.5304 -6.09543 0
M  V30 1409 H 131.034 0.0476909 -0.780544 0
M  V30 1410 H 133.618 -0.496727 -1.88257 0
M  V30 1411 H 131.789 1.28436 -3.6655 0
M  V30 1412 H 133.521 1.15734 -3.87799 0
M  V30 1413 H 130.276 -0.693577 -4.68494 0
M  V30 1414 H 130.7 -2.88347 -6.12524 0
M  V30 1415 H 135.342 -0.744356 -4.16196 0
M  V30 1416 H 133.06 -4.2992 -6.84247 0
M  V30 1417 H 136.646 -2.55667 -5.22614 0
M  V30 1418 H 135.526 -4.31056 -6.55103 0
M  V30 1419 N 133.029 1.57378 -0.0835403 0
M  V30 1420 C 134.306 1.85363 0.624507 0
M  V30 1421 C 134.686 0.978239 1.87066 0
M  V30 1422 O 134.034 0.0475908 2.2845 0
M  V30 1423 C 134.244 3.35795 0.950947 0
M  V30 1424 C 135.592 4.03581 1.31939 0
M  V30 1425 O 136.616 3.40609 1.04232 0
M  V30 1426 O 135.475 5.14672 1.83779 0
M  V30 1427 H 132.569 0.766162 0.311329 0
M  V30 1428 H 135.115 1.69307 -0.115362 0
M  V30 1429 H 133.887 3.91244 0.0663899 0
M  V30 1430 H 133.51 3.57154 1.74719 0
M  V30 1431 N 134.507 -0.190092 1.56449 0
M  V30 1432 C 135.437 -1.23816 1.97969 0
M  V30 1433 C 136.418 -1.47201 0.852395 0
M  V30 1434 O 137.603 -1.58854 1.1171 0
M  V30 1435 C 134.733 -2.5813 2.3235 0
M  V30 1436 C 133.687 -2.49348 3.47864 0
M  V30 1437 C 133.013 -3.8798 3.67934 0
M  V30 1438 C 134.313 -2.01424 4.81898 0
M  V30 1439 H 136.007 -0.89311 2.85769 0
M  V30 1440 H 133.553 -0.428177 1.37487 0
M  V30 1441 H 135.506 -3.31637 2.59991 0
M  V30 1442 H 134.23 -2.94386 1.41438 0
M  V30 1443 H 132.889 -1.78297 3.20321 0
M  V30 1444 H 132.537 -4.21597 2.74344 0
M  V30 1445 H 132.237 -3.82978 4.45648 0
M  V30 1446 H 133.761 -4.63101 3.97957 0
M  V30 1447 H 135.175 -2.64693 5.08538 0
M  V30 1448 H 133.572 -2.07413 5.63116 0
M  V30 1449 H 134.642 -0.967677 4.75146 0
M  V30 1450 N 135.985 -1.50799 -0.457987 0
M  V30 1451 C 137.213 -1.66218 -1.23203 0
M  V30 1452 C 137.628 -0.350894 -1.85511 0
M  V30 1453 O 136.985 0.668546 -1.69814 0
M  V30 1454 C 137.036 -2.76291 -2.33121 0
M  V30 1455 O 136.757 -4.02338 -1.73366 0
M  V30 1456 C 138.258 -3.028 -3.2377 0
M  V30 1457 H 135.478 -0.558361 -0.372121 0
M  V30 1458 H 138.022 -1.97099 -0.545179 0
M  V30 1459 H 136.177 -2.48068 -2.97558 0
M  V30 1460 H 136.591 -4.63312 -2.4585 0
M  V30 1461 H 138.065 -3.8345 -3.97077 0
M  V30 1462 H 138.542 -2.14385 -3.83322 0
M  V30 1463 H 139.148 -3.32604 -2.65056 0
M  V30 1464 N 137.463 0.71206 -1.40597 0
M  V30 1465 C 138.691 1.50111 -1.42388 0
M  V30 1466 C 139.106 1.88784 -0.0245395 0
M  V30 1467 O 138.463 1.55681 0.952351 0
M  V30 1468 C 138.514 2.7742 -2.31776 0
M  V30 1469 O 138.235 2.40382 -3.66262 0
M  V30 1470 C 139.736 3.7129 -2.42196 0
M  V30 1471 H 136.956 0.46314 -0.485533 0
M  V30 1472 H 139.5 0.878068 -1.8469 0
M  V30 1473 H 137.655 3.36001 -1.92827 0
M  V30 1474 H 138.069 3.22324 -4.13772 0
M  V30 1475 H 139.543 4.57448 -3.08943 0
M  V30 1476 H 140.02 4.14641 -1.44809 0
M  V30 1477 H 140.626 3.18619 -2.81712 0
M  V30 1478 N 138.941 1.26152 0.944643 0
M  V30 1479 C 140.189 1.11271 1.6871 0
M  V30 1480 C 140.51 -0.345166 1.91921 0
M  V30 1481 O 139.78 -1.24387 1.51343 0
M  V30 1482 H 138.36 0.408783 0.625224 0
M  V30 1483 H 141.022 1.58427 1.1352 0
M  V30 1484 H 140.118 1.62879 2.66227 0
M  V30 1485 N 140.419 -1.14872 1.07899 0
M  V30 1486 C 141.647 -1.89661 0.82683 0
M  V30 1487 C 142.062 -1.78312 -0.620519 0
M  V30 1488 O 141.419 -1.13888 -1.42604 0
M  V30 1489 C 141.47 -3.39817 1.23316 0
M  V30 1490 O 141.191 -3.50845 2.62372 0
M  V30 1491 C 142.692 -4.31615 1.0111 0
M  V30 1492 H 139.912 -0.60092 0.298557 0
M  V30 1493 H 142.456 -1.4551 1.43691 0
M  V30 1494 H 140.611 -3.8161 0.667286 0
M  V30 1495 H 141.025 -4.44076 2.79101 0
M  V30 1496 H 142.499 -5.35367 1.34486 0
M  V30 1497 H 142.976 -4.39169 -0.0522168 0
M  V30 1498 H 143.582 -3.95572 1.56215 0
M  V30 1499 N 141.898 -0.863906 -1.31812 0
M  V30 1500 C 143.126 -0.486111 -2.01108 0
M  V30 1501 C 143.541 0.919755 -1.64882 0
M  V30 1502 O 142.898 1.60162 -0.874893 0
M  V30 1503 C 142.949 -0.626435 -3.56031 0
M  V30 1504 O 142.67 -1.97693 -3.90959 0
M  V30 1505 C 144.171 -0.248857 -4.42601 0
M  V30 1506 H 141.391 -0.190052 -0.643523 0
M  V30 1507 H 143.935 -1.1634 -1.68182 0
M  V30 1508 H 142.09 0.00322717 -3.874 0
M  V30 1509 H 142.504 -1.98034 -4.85678 0
M  V30 1510 H 143.978 -0.398016 -5.50563 0
M  V30 1511 H 144.455 0.811489 -4.31638 0
M  V30 1512 H 145.061 -0.853971 -4.16638 0
M  V30 1513 N 143.376 1.44774 -0.622745 0
M  V30 1514 C 144.604 2.06487 -0.130722 0
M  V30 1515 C 145.019 1.46476 1.19123 0
M  V30 1516 O 144.376 0.584502 1.72887 0
M  V30 1517 C 144.427 3.615 -0.000807207 0
M  V30 1518 O 144.148 4.19274 -1.27048 0
M  V30 1519 C 145.649 4.40229 0.520898 0
M  V30 1520 H 142.869 0.666704 -0.0758106 0
M  V30 1521 H 145.413 1.85779 -0.854774 0
M  V30 1522 H 143.568 3.81498 0.673643 0
M  V30 1523 H 143.982 5.12622 -1.1099 0
M  V30 1524 H 145.456 5.49144 0.560838 0
M  V30 1525 H 145.933 4.1108 1.54627 0
M  V30 1526 H 146.539 4.25131 -0.120018 0
M  V30 1527 N 144.854 0.36279 1.53368 0
M  V30 1528 C 146.27 0.0116182 1.59596 0
M  V30 1529 C 146.47 -1.47012 1.37803 0
M  V30 1530 O 145.526 -2.23136 1.18181 0
M  V30 1531 C 146.839 0.465052 2.97082 0
M  V30 1532 C 148.387 0.419033 3.10182 0
M  V30 1533 C 148.862 0.848235 4.50077 0
M  V30 1534 N 150.353 0.803183 4.56183 0
M  V30 1535 C 151.088 1.107 5.62613 0
M  V30 1536 N 150.584 1.47996 6.76808 0
M  V30 1537 N 152.377 1.02998 5.52583 0
M  V30 1538 H 144.528 1.32775 1.65785 0
M  V30 1539 H 146.791 0.542518 0.777417 0
M  V30 1540 H 146.497 1.49892 3.18159 0
M  V30 1541 H 146.371 -0.149786 3.76902 0
M  V30 1542 H 148.758 -0.605696 2.88817 0
M  V30 1543 H 148.839 1.06933 2.32377 0
M  V30 1544 H 148.483 1.87107 4.7218 0
M  V30 1545 H 148.413 0.175218 5.26308 0
M  V30 1546 H 150.904 0.52838 3.74188 0
M  V30 1547 H 151.217 1.69613 7.53957 0
M  V30 1548 H 149.562 1.51859 6.78206 0
M  V30 1549 H 152.753 0.737817 4.62249 0
M  V30 1550 H 152.926 1.2701 6.35431 0
M  V30 1551 N 146.332 -1.57332 0.0918853 0
M  V30 1552 C 147.748 -1.57389 -0.264766 0
M  V30 1553 C 147.948 -1.10281 -1.68643 0
M  V30 1554 O 147.004 -0.777801 -2.40222 0
M  V30 1555 C 148.317 -3.00648 -0.0561195 0
M  V30 1556 C 149.865 -3.12754 -0.124116 0
M  V30 1557 C 150.34 -4.57965 0.0564972 0
M  V30 1558 N 151.831 -4.632 0.00155611 0
M  V30 1559 C 152.566 -5.73281 0.116598 0
M  V30 1560 N 152.062 -6.92208 0.286294 0
M  V30 1561 N 153.855 -5.6207 0.0580973 0
M  V30 1562 H 146.006 -1.86262 1.02079 0
M  V30 1563 H 148.269 -0.859579 0.399786 0
M  V30 1564 H 147.975 -3.393 0.925669 0
M  V30 1565 H 147.849 -3.68623 -0.799823 0
M  V30 1566 H 150.236 -2.73976 -1.09641 0
M  V30 1567 H 150.317 -2.47377 0.651024 0
M  V30 1568 H 149.961 -4.97436 1.02564 0
M  V30 1569 H 149.891 -5.21399 -0.738297 0
M  V30 1570 H 152.382 -3.77686 -0.127192 0
M  V30 1571 H 152.695 -7.71934 0.365676 0
M  V30 1572 H 151.04 -6.94254 0.32192 0
M  V30 1573 H 154.231 -4.68043 -0.0733204 0
M  V30 1574 H 154.404 -6.47824 0.151203 0
M  V30 1575 N 147.81 0.181792 -1.56548 0
M  V30 1576 C 149.057 0.900097 -1.81396 0
M  V30 1577 C 149.385 1.82695 -0.667281 0
M  V30 1578 O 148.64 1.92614 0.346146 0
M  V30 1579 C 148.939 1.73728 -3.12335 0
M  V30 1580 C 148.605 0.960255 -4.40556 0
M  V30 1581 C 147.267 0.745766 -4.75386 0
M  V30 1582 C 149.619 0.414477 -5.19549 0
M  V30 1583 C 146.947 -0.0257694 -5.86694 0
M  V30 1584 C 149.299 -0.343916 -6.31664 0
M  V30 1585 C 147.963 -0.569301 -6.65068 0
M  V30 1586 H 147.233 0.329369 -0.663775 0
M  V30 1587 H 149.88 0.165647 -1.90782 0
M  V30 1588 H 148.185 2.54081 -2.98245 0
M  V30 1589 H 149.882 2.29591 -3.28769 0
M  V30 1590 H 146.472 1.13746 -4.13231 0
M  V30 1591 H 150.656 0.567554 -4.93044 0
M  V30 1592 H 145.912 -0.210233 -6.11038 0
M  V30 1593 H 150.086 -0.774133 -6.92084 0
M  V30 1594 H 147.713 -1.16903 -7.51158 0
M  V30 1595 N 149.288 1.51039 0.449983 0
M  V30 1596 C 150.534 1.63322 1.20223 0
M  V30 1597 C 150.867 0.34241 1.91158 0
M  V30 1598 O 150.142 -0.657344 1.83055 0
M  V30 1599 C 150.425 2.82801 2.22925 0
M  V30 1600 C 150.278 4.21823 1.56157 0
M  V30 1601 C 151.597 2.97807 3.24035 0
M  V30 1602 H 148.716 0.594407 0.435718 0
M  V30 1603 H 151.358 1.83489 0.493136 0
M  V30 1604 H 149.508 2.65738 2.834 0
M  V30 1605 H 151.18 4.50526 0.991162 0
M  V30 1606 H 149.423 4.25105 0.864172 0
M  V30 1607 H 150.094 5.01391 2.30891 0
M  V30 1608 H 152.57 3.13497 2.73603 0
M  V30 1609 H 151.446 3.82992 3.93202 0
M  V30 1610 H 151.707 2.09328 3.89402 0
M  V30 1611 N 150.766 -0.704594 1.40972 0
M  V30 1612 C 152.014 -1.46169 1.39568 0
M  V30 1613 C 152.335 -1.95 0.00253745 0
M  V30 1614 O 151.605 -1.71095 -0.954114 0
M  V30 1615 H 150.185 -0.542326 0.513704 0
M  V30 1616 H 152.847 -0.834553 1.76128 0
M  V30 1617 H 151.943 -2.32922 2.07735 0
M  V30 1618 N 152.244 -1.26651 -0.937939 0
M  V30 1619 C 153.194 -1.05156 -2.02302 0
M  V30 1620 C 154.178 0.0171233 -1.60891 0
M  V30 1621 O 155.37 -0.200213 -1.75864 0
M  V30 1622 C 152.499 -0.689962 -3.36295 0
M  V30 1623 C 151.585 -1.79626 -3.84181 0
M  V30 1624 N 151.976 -3.03422 -4.04684 0
M  V30 1625 C 150.274 -1.6806 -4.13124 0
M  V30 1626 C 150.975 -3.75345 -4.444 0
M  V30 1627 N 149.951 -3.03051 -4.51288 0
M  V30 1628 H 153.753 -1.99117 -2.1617 0
M  V30 1629 H 151.267 -1.17216 -1.12402 0
M  V30 1630 H 153.264 -0.517112 -4.13681 0
M  V30 1631 H 151.924 0.242139 -3.23796 0
M  V30 1632 H 152.935 -3.39293 -3.91281 0
M  V30 1633 H 149.612 -0.818629 -4.09396 0
M  V30 1634 H 151.002 -4.81691 -4.68427 0
M  V30 1635 N 153.722 1.14298 -1.08507 0
M  V30 1636 C 154.95 1.89219 -0.836876 0
M  V30 1637 C 155.365 1.78638 0.611054 0
M  V30 1638 O 154.722 1.14643 1.41998 0
M  V30 1639 C 154.773 3.39158 -1.25116 0
M  V30 1640 O 154.494 3.49449 -2.64229 0
M  V30 1641 C 155.995 4.31073 -1.03398 0
M  V30 1642 H 153.215 0.599328 -0.301739 0
M  V30 1643 H 155.759 1.44746 -1.44461 0
M  V30 1644 H 153.914 3.81251 -0.687514 0
M  V30 1645 H 154.328 4.42589 -2.81452 0
M  V30 1646 H 155.802 5.34646 -1.37323 0
M  V30 1647 H 156.279 4.3919 0.0289259 0
M  V30 1648 H 156.885 3.94738 -1.58311 0
M  V30 1649 N 155.201 0.870884 1.31352 0
M  V30 1650 C 156.148 0.325425 2.28494 0
M  V30 1651 C 157.118 -0.576615 1.5577 0
M  V30 1652 O 158.303 -0.508059 1.83911 0
M  V30 1653 C 155.443 -0.466283 3.41935 0
M  V30 1654 C 154.556 0.463378 4.29508 0
M  V30 1655 C 153.691 -0.342544 5.30094 0
M  V30 1656 C 152.73 0.583486 6.09313 0
M  V30 1657 N 151.867 -0.186244 7.01853 0
M  V30 1658 H 156.707 1.15901 2.74538 0
M  V30 1659 H 154.244 0.58294 1.35056 0
M  V30 1660 H 156.202 -0.941085 4.06447 0
M  V30 1661 H 154.832 -1.26456 2.97 0
M  V30 1662 H 153.884 1.05663 3.65431 0
M  V30 1663 H 155.196 1.1734 4.84802 0
M  V30 1664 H 154.35 -0.879816 6.00287 0
M  V30 1665 H 153.089 -1.08585 4.75458 0
M  V30 1666 H 152.094 1.13251 5.3801 0
M  V30 1667 H 153.319 1.32566 6.66035 0
M  V30 1668 H 151.265 -0.912348 6.49625 0
M  V30 1669 H 151.182 0.464422 7.54572 0
M  V30 1670 H 152.45 -0.704716 7.76308 0
M  V30 1671 N 156.679 -1.44442 0.630414 0
M  V30 1672 C 157.956 -1.9549 0.0655657 0
M  V30 1673 C 158.336 -1.5724 -1.40851 0
M  V30 1674 O 157.684 -0.846116 -2.12257 0
M  V30 1675 C 157.894 -3.47812 0.287691 0
M  V30 1676 C 159.242 -4.24216 0.180513 0
M  V30 1677 O 160.266 -3.55526 0.219019 0
M  V30 1678 O 159.125 -5.46434 0.0848493 0
M  V30 1679 H 156.219 -0.826688 -0.0227177 0
M  V30 1680 H 158.765 -1.54496 0.702068 0
M  V30 1681 H 157.537 -3.687 1.31056 0
M  V30 1682 H 157.16 -3.95751 -0.382984 0
M  V30 1683 N 158.157 -0.370918 -1.53173 0
M  V30 1684 C 159.403 0.217423 -2.01631 0
M  V30 1685 C 159.736 1.47983 -1.25756 0
M  V30 1686 O 159.011 1.91274 -0.352764 0
M  V30 1687 C 159.294 0.503982 -3.56556 0
M  V30 1688 C 159.147 -0.77243 -4.43118 0
M  V30 1689 C 160.466 1.30234 -4.20389 0
M  V30 1690 H 157.585 0.0775486 -0.732909 0
M  V30 1691 H 160.227 -0.496863 -1.83388 0
M  V30 1692 H 158.377 1.11248 -3.72231 0
M  V30 1693 H 160.049 -1.4098 -4.39229 0
M  V30 1694 H 158.292 -1.39167 -4.10871 0
M  V30 1695 H 158.963 -0.526815 -5.4948 0
M  V30 1696 H 161.439 0.787546 -4.08579 0
M  V30 1697 H 160.315 1.47158 -5.28806 0
M  V30 1698 H 160.576 2.31237 -3.76805 0
M  V30 1699 N 159.635 1.57281 -0.100228 0
M  V30 1700 C 160.565 2.17328 0.853857 0
M  V30 1701 C 161.546 1.10804 1.2906 0
M  V30 1702 O 162.731 1.38963 1.35657 0
M  V30 1703 C 159.861 2.75772 2.11109 0
M  V30 1704 C 158.815 3.87713 1.81279 0
M  V30 1705 C 158.141 4.32882 3.13874 0
M  V30 1706 C 159.441 5.10677 1.09574 0
M  V30 1707 H 161.135 2.97305 0.353545 0
M  V30 1708 H 158.681 1.43009 0.168612 0
M  V30 1709 H 160.634 3.16433 2.78296 0
M  V30 1710 H 159.358 1.93057 2.63432 0
M  V30 1711 H 158.017 3.476 1.16489 0
M  V30 1712 H 157.665 3.47051 3.64095 0
M  V30 1713 H 157.365 5.08358 2.94696 0
M  V30 1714 H 158.889 4.7618 3.82211 0
M  V30 1715 H 160.303 5.48474 1.66879 0
M  V30 1716 H 158.7 5.91615 1.00557 0
M  V30 1717 H 159.77 4.84835 0.0793299 0
M  V30 1718 N 161.113 -0.173488 1.56642 0
M  V30 1719 C 162.338 -0.910149 1.86363 0
M  V30 1720 C 162.763 -1.75132 0.686318 0
M  V30 1721 O 162.121 -1.77595 -0.364643 0
M  V30 1722 C 162.169 -1.76447 3.14482 0
M  V30 1723 O 161.273 -2.86584 2.96553 0
M  V30 1724 H 160.614 -0.255086 0.613047 0
M  V30 1725 H 163.144 -0.172283 2.03873 0
M  V30 1726 H 163.154 -2.16483 3.45831 0
M  V30 1727 H 161.829 -1.14658 3.99783 0
M  V30 1728 H 160.406 -2.50146 2.76553 0
M  V30 1729 N 162.591 -1.51276 -0.441967 0
M  V30 1730 C 163.837 -1.63958 -1.19355 0
M  V30 1731 C 164.17 -0.352543 -1.90973 0
M  V30 1732 O 163.445 0.647627 -1.83401 0
M  V30 1733 C 163.728 -2.83979 -2.21422 0
M  V30 1734 C 163.581 -4.22646 -1.53918 0
M  V30 1735 C 164.9 -2.99521 -3.22451 0
M  V30 1736 H 162.019 -0.596709 -0.432559 0
M  V30 1737 H 164.661 -1.83748 -0.483398 0
M  V30 1738 H 162.811 -2.67237 -2.81987 0
M  V30 1739 H 164.483 -4.51045 -0.967256 0
M  V30 1740 H 162.726 -4.25558 -0.841615 0
M  V30 1741 H 163.397 -5.02609 -2.28229 0
M  V30 1742 H 165.873 -3.14944 -2.71937 0
M  V30 1743 H 164.749 -3.85072 -3.91166 0
M  V30 1744 H 165.01 -2.11391 -3.88287 0
M  V30 1745 N 164.069 0.697108 -1.41344 0
M  V30 1746 C 165.032 1.79281 -1.42797 0
M  V30 1747 C 166.032 1.57607 -0.318837 0
M  V30 1748 O 167.222 1.64309 -0.578642 0
M  V30 1749 C 164.354 3.17632 -1.23785 0
M  V30 1750 H 165.547 1.79385 -2.40335 0
M  V30 1751 H 163.1 0.904582 -1.27464 0
M  V30 1752 H 163.835 3.23167 -0.270814 0
M  V30 1753 H 163.62 3.34765 -2.04144 0
M  V30 1754 H 165.11 3.97617 -1.27633 0
M  V30 1755 N 165.547 1.27147 0.931209 0
M  V30 1756 C 166.794 1.13278 1.67852 0
M  V30 1757 C 167.122 -0.32204 1.91815 0
M  V30 1758 O 166.377 -1.25224 1.50391 0
M  V30 1759 C 166.676 1.8579 3.05314 0
M  V30 1760 C 166.342 3.35657 3.01073 0
M  V30 1761 C 165.004 3.76536 2.99623 0
M  V30 1762 C 167.356 4.31299 2.92627 0
M  V30 1763 C 164.684 5.11426 2.87506 0
M  V30 1764 C 167.036 5.66242 2.82051 0
M  V30 1765 C 165.7 6.06418 2.7895 0
M  V30 1766 H 164.97 0.414515 0.614214 0
M  V30 1767 H 167.617 1.57712 1.08624 0
M  V30 1768 H 165.922 1.33854 3.68226 0
M  V30 1769 H 167.619 1.72491 3.62005 0
M  V30 1770 H 164.209 3.03146 3.02986 0
M  V30 1771 H 168.393 4.00692 2.92848 0
M  V30 1772 H 163.649 5.41705 2.83489 0
M  V30 1773 H 167.823 6.40026 2.74481 0
M  V30 1774 H 165.45 7.10895 2.69318 0
M  V30 1775 N 167.025 -1.13721 1.09112 0
M  V30 1776 C 168.25 -1.89314 0.847053 0
M  V30 1777 C 168.675 -1.78416 -0.595774 0
M  V30 1778 O 168.033 -1.12942 -1.41823 0
M  V30 1779 C 168.081 -3.3701 1.28284 0
M  V30 1780 O 167.185 -4.10054 0.439267 0
M  V30 1781 H 166.526 -0.588745 0.307044 0
M  V30 1782 H 169.056 -1.43902 1.45442 0
M  V30 1783 H 169.066 -3.87834 1.26683 0
M  V30 1784 H 167.741 -3.4426 2.33363 0
M  V30 1785 H 166.318 -3.69266 0.519312 0
M  V30 1786 N 168.503 -0.877838 -1.30888 0
M  V30 1787 C 169.728 -0.506629 -2.01117 0
M  V30 1788 C 170.153 0.895564 -1.65412 0
M  V30 1789 O 169.511 1.5923 -0.866922 0
M  V30 1790 C 169.559 -0.680223 -3.54126 0
M  V30 1791 O 168.663 0.277033 -4.11468 0
M  V30 1792 H 168.004 -0.200518 -0.633 0
M  V30 1793 H 170.534 -1.18342 -1.66902 0
M  V30 1794 H 170.544 -0.5765 -4.03907 0
M  V30 1795 H 169.219 -1.70261 -3.79452 0
M  V30 1796 H 167.796 0.127606 -3.72682 0
M  V30 1797 N 169.982 1.44106 -0.638065 0
M  V30 1798 C 171.259 1.95453 -0.0759321 0
M  V30 1799 C 171.639 1.57984 1.40015 0
M  V30 1800 O 170.987 0.857361 2.11806 0
M  V30 1801 C 171.197 3.47655 -0.306132 0
M  V30 1802 C 172.545 4.24114 -0.203008 0
M  V30 1803 O 173.569 3.55405 -0.237871 0
M  V30 1804 O 172.428 5.46381 -0.113827 0
M  V30 1805 H 169.522 0.826797 0.0183332 0
M  V30 1806 H 172.068 1.54122 -0.710251 0
M  V30 1807 H 170.84 3.68 -1.3301 0
M  V30 1808 H 170.463 3.95949 0.361991 0
M  V30 1809 N 171.46 0.379036 1.52974 0
M  V30 1810 C 172.408 -0.476033 2.27677 0
M  V30 1811 C 173.402 -1.0719 1.31174 0
M  V30 1812 O 174.608 -1.01355 1.48752 0
M  V30 1813 H 170.983 -0.172255 0.732006 0
M  V30 1814 H 172.954 0.175615 2.97883 0
M  V30 1815 C 171.703 -1.5967 3.0887 0
M  V30 1816 H 171.026 -1.1475 3.82978 0
M  V30 1817 H 172.466 -2.16943 3.64296 0
M  V30 1818 C 170.925 -2.54682 2.20542 0
M  V30 1819 O 171.455 -3.57836 1.82527 0
M  V30 1820 N 169.661 -2.24183 1.84907 0
M  V30 1821 H 169.208 -1.40333 2.1602 0
M  V30 1822 H 169.166 -2.88006 1.26096 0
M  V30 1823 N 172.938 -1.57226 0.108567 0
M  V30 1824 C 174.354 -1.5766 -0.248058 0
M  V30 1825 C 174.554 -1.12063 -1.67464 0
M  V30 1826 O 173.61 -0.803236 -2.39383 0
M  V30 1827 C 174.923 -3.0069 -0.0242287 0
M  V30 1828 C 176.471 -3.12868 -0.0909372 0
M  V30 1829 C 176.946 -4.57879 0.105067 0
M  V30 1830 N 178.437 -4.63172 0.0506846 0
M  V30 1831 C 179.172 -5.73126 0.177396 0
M  V30 1832 N 178.668 -6.91866 0.359696 0
M  V30 1833 N 180.461 -5.61977 0.117709 0
M  V30 1834 H 172.612 -1.85169 1.04049 0
M  V30 1835 H 174.875 -0.85529 0.40888 0
M  V30 1836 H 174.581 -3.38299 0.961604 0
M  V30 1837 H 174.455 -3.6945 -0.76068 0
M  V30 1838 H 176.842 -2.75124 -1.06729 0
M  V30 1839 H 176.923 -2.46672 0.677225 0
M  V30 1840 H 176.567 -4.96321 1.07834 0
M  V30 1841 H 176.497 -5.22153 -0.682954 0
M  V30 1842 H 178.988 -3.778 -0.0871266 0
M  V30 1843 H 179.301 -7.71503 0.447529 0
M  V30 1844 H 177.646 -6.93874 0.395536 0
M  V30 1845 H 180.837 -4.68094 -0.0236741 0
M  V30 1846 H 181.01 -6.47627 0.219905 0
M  V30 1847 N 174.416 0.165178 -1.56732 0
M  V30 1848 C 175.348 1.22911 -1.93457 0
M  V30 1849 C 176.361 1.40152 -0.828333 0
M  V30 1850 O 177.55 1.40046 -1.10677 0
M  V30 1851 C 174.65 2.59686 -2.17753 0
M  V30 1852 C 173.823 2.63663 -3.48999 0
M  V30 1853 C 172.882 3.81845 -3.62051 0
M  V30 1854 O 171.908 3.67559 -4.34613 0
M  V30 1855 N 173.11 4.98557 -2.97357 0
M  V30 1856 H 175.875 0.917118 -2.85323 0
M  V30 1857 H 173.436 0.354895 -1.57962 0
M  V30 1858 H 175.428 3.37225 -2.23743 0
M  V30 1859 H 173.998 2.83251 -1.32242 0
M  V30 1860 H 173.218 1.72173 -3.54612 0
M  V30 1861 H 174.506 2.63336 -4.35352 0
M  V30 1862 H 173.904 5.13065 -2.38287 0
M  V30 1863 H 172.461 5.73936 -3.08934 0
M  V30 1864 N 175.894 1.51508 0.433938 0
M  V30 1865 C 177.143 1.63578 1.18005 0
M  V30 1866 C 177.456 0.359514 1.92268 0
M  V30 1867 O 178.662 0.359632 2.69108 0
M  V30 1868 C 177.118 2.88901 2.14626 0
M  V30 1869 C 176.726 4.23544 1.45995 0
M  V30 1870 C 178.47 3.10328 2.89649 0
M  V30 1871 C 176.377 5.40014 2.4112 0
M  V30 1872 H 175.307 0.609277 0.444182 0
M  V30 1873 H 177.958 1.77978 0.446773 0
M  V30 1874 H 176.34 2.68142 2.91403 0
M  V30 1875 H 177.514 4.54696 0.747532 0
M  V30 1876 H 175.829 4.08021 0.831115 0
M  V30 1877 H 178.426 3.94518 3.60915 0
M  V30 1878 H 178.769 2.23544 3.51189 0
M  V30 1879 H 179.302 3.31443 2.19978 0
M  V30 1880 H 176.041 6.29068 1.84264 0
M  V30 1881 H 175.561 5.13233 3.10406 0
M  V30 1882 H 177.24 5.72099 3.02177 0
M  V30 1883 N 177.372 -0.689602 1.41712 0
M  V30 1884 C 178.618 -1.45181 1.41599 0
M  V30 1885 C 178.951 -1.94181 0.0270081 0
M  V30 1886 O 178.226 -1.6993 -0.946265 0
M  V30 1887 C 178.509 -2.65945 2.42787 0
M  V30 1888 C 178.362 -2.22672 3.90816 0
M  V30 1889 C 179.681 -3.68149 2.41151 0
M  V30 1890 H 176.8 -0.526576 0.515642 0
M  V30 1891 H 179.442 -0.784947 1.73028 0
M  V30 1892 H 177.592 -3.2284 2.16116 0
M  V30 1893 H 179.264 -1.71058 4.28412 0
M  V30 1894 H 177.507 -1.54394 4.05395 0
M  V30 1895 H 178.178 -3.0935 4.57172 0
M  V30 1896 H 180.654 -3.2094 2.64834 0
M  V30 1897 H 179.53 -4.50248 3.13955 0
M  V30 1898 H 179.791 -4.18259 1.43221 0
M  V30 1899 N 178.85 -1.27639 -0.924453 0
M  V30 1900 C 180.075 -1.17101 -1.71179 0
M  V30 1901 C 180.5 0.268134 -1.86179 0
M  V30 1902 O 179.858 1.19415 -1.36418 0
M  V30 1903 C 179.906 -1.86313 -3.08739 0
M  V30 1904 O 179.01 -1.16331 -3.95652 0
M  V30 1905 H 178.351 -0.407091 -0.524569 0
M  V30 1906 H 180.881 -1.68767 -1.15666 0
M  V30 1907 H 180.891 -1.938 -3.59034 0
M  V30 1908 H 179.566 -2.91001 -2.97138 0
M  V30 1909 H 178.143 -1.16935 -3.54091 0
M  V30 1910 N 180.328 1.1314 -1.09713 0
M  V30 1911 C 181.576 1.84119 -0.833338 0
M  V30 1912 C 181.897 1.84097 0.642904 0
M  V30 1913 O 181.167 1.29881 1.46655 0
M  V30 1914 H 179.747 0.681766 -0.305293 0
M  V30 1915 H 182.409 1.37038 -1.38588 0
M  V30 1916 H 181.505 2.88543 -1.18951 0
M  V30 1917 N 181.806 0.884767 1.30421 0
M  V30 1918 C 183.031 0.517288 2.00845 0
M  V30 1919 C 183.456 -0.886779 1.65885 0
M  V30 1920 O 182.814 -1.58768 0.875354 0
M  V30 1921 C 182.862 0.698994 3.5376 0
M  V30 1922 O 181.966 -0.255208 4.1161 0
M  V30 1923 H 181.307 0.203872 0.631927 0
M  V30 1924 H 183.837 1.19225 1.66272 0
M  V30 1925 H 183.847 0.597912 4.03595 0
M  V30 1926 H 182.522 1.72271 3.78544 0
M  V30 1927 H 181.099 -0.10784 3.72744 0
M  V30 1928 N 183.284 -1.43765 0.645699 0
M  V30 1929 C 184.7 -1.56509 0.312591 0
M  V30 1930 C 184.9 -1.6307 -1.18365 0
M  V30 1931 O 183.956 -1.58167 -1.96824 0
M  V30 1932 C 185.269 -2.82968 1.01733 0
M  V30 1933 C 186.817 -2.96701 0.996865 0
M  V30 1934 C 187.292 -4.25982 1.68236 0
M  V30 1935 N 188.783 -4.32829 1.64964 0
M  V30 1936 C 189.518 -5.31613 2.14885 0
M  V30 1937 N 189.014 -6.36718 2.73061 0
M  V30 1938 N 190.807 -5.23217 2.05428 0
M  V30 1939 H 182.958 -1.3775 1.61675 0
M  V30 1940 H 185.221 -0.661067 0.679481 0
M  V30 1941 H 184.927 -2.84156 2.0724 0
M  V30 1942 H 184.801 -3.72957 0.564177 0
M  V30 1943 H 187.188 -2.95058 -0.0497719 0
M  V30 1944 H 187.269 -2.08022 1.48865 0
M  V30 1945 H 186.913 -4.28386 2.72852 0
M  V30 1946 H 186.843 -5.13545 1.16529 0
M  V30 1947 H 189.334 -3.57493 1.22503 0
M  V30 1948 H 189.647 -7.08401 3.08848 0
M  V30 1949 H 187.992 -6.37362 2.77118 0
M  V30 1950 H 191.183 -4.40019 1.59689 0
M  V30 1951 H 191.356 -6.00045 2.44643 0
M  V30 1952 N 184.763 -0.387143 -1.52771 0
M  V30 1953 C 186.04 0.253197 -1.93954 0
M  V30 1954 C 186.42 1.64545 -1.32243 0
M  V30 1955 O 185.768 2.23191 -0.489699 0
M  V30 1956 C 185.978 0.281722 -3.47861 0
M  V30 1957 C 187.326 0.511715 -4.21505 0
M  V30 1958 O 188.35 0.362023 -3.54356 0
M  V30 1959 O 187.209 0.804847 -5.40541 0
M  V30 1960 H 184.303 0.156845 -0.811991 0
M  V30 1961 H 186.849 -0.441494 -1.63856 0
M  V30 1962 H 185.621 -0.693571 -3.85104 0
M  V30 1963 H 185.244 1.02142 -3.84256 0
M  V30 1964 N 186.241 1.57166 -0.116904 0
M  V30 1965 C 187.188 2.15202 0.83408 0
M  V30 1966 C 188.158 1.07644 1.26499 0
M  V30 1967 O 189.343 1.35541 1.34288 0
M  V30 1968 C 186.483 2.75405 2.07957 0
M  V30 1969 C 185.596 3.97264 1.69721 0
M  V30 1970 C 184.731 4.45561 2.89221 0
M  V30 1971 C 183.77 5.59956 2.47215 0
M  V30 1972 N 182.907 6.03006 3.59622 0
M  V30 1973 H 187.747 2.96141 0.332335 0
M  V30 1974 H 185.284 1.46309 0.152349 0
M  V30 1975 H 187.242 3.08439 2.80929 0
M  V30 1976 H 185.872 1.97159 2.55594 0
M  V30 1977 H 184.924 3.70404 0.866316 0
M  V30 1978 H 186.236 4.80226 1.34849 0
M  V30 1979 H 185.39 4.80493 3.7042 0
M  V30 1980 H 184.129 3.61544 3.27318 0
M  V30 1981 H 183.134 5.2463 1.64448 0
M  V30 1982 H 184.359 6.45738 2.10238 0
M  V30 1983 H 182.305 5.21931 3.97396 0
M  V30 1984 H 182.222 6.80819 3.28667 0
M  V30 1985 H 183.49 6.42576 4.41267 0
M  V30 1986 N 187.719 -0.156864 1.56817 0
M  V30 1987 C 188.947 -0.886316 1.86955 0
M  V30 1988 C 189.362 -1.75185 0.703975 0
M  V30 1989 O 188.719 -1.79555 -0.326552 0
M  V30 1990 C 188.77 -1.75117 3.16253 0
M  V30 1991 O 188.491 -0.920537 4.2832 0
M  V30 1992 C 189.992 -2.58905 3.59837 0
M  V30 1993 H 187.212 -0.25678 0.619923 0
M  V30 1994 H 189.756 -0.152615 2.0393 0
M  V30 1995 H 187.911 -2.43805 3.01062 0
M  V30 1996 H 188.325 -1.51337 5.02192 0
M  V30 1997 H 189.799 -3.1518 4.53172 0
M  V30 1998 H 190.276 -3.34472 2.84649 0
M  V30 1999 H 190.882 -1.95526 3.7769 0
M  V30 2000 N 189.197 -1.51736 -0.425897 0
M  V30 2001 C 190.446 -1.64201 -1.17136 0
M  V30 2002 C 190.759 -0.369705 -1.92074 0
M  V30 2003 O 191.965 -0.373898 -2.68913 0
M  V30 2004 C 190.421 -2.90035 -2.13091 0
M  V30 2005 C 190.029 -4.24312 -1.43747 0
M  V30 2006 C 191.773 -3.1186 -2.87999 0
M  V30 2007 C 189.68 -5.41285 -2.38253 0
M  V30 2008 H 188.61 -0.611624 -0.440944 0
M  V30 2009 H 191.261 -1.78212 -0.437328 0
M  V30 2010 H 189.643 -2.69684 -2.89977 0
M  V30 2011 H 190.817 -4.55086 -0.723408 0
M  V30 2012 H 189.132 -4.08456 -0.809465 0
M  V30 2013 H 191.729 -3.96427 -3.58817 0
M  V30 2014 H 192.072 -2.25403 -3.49999 0
M  V30 2015 H 192.605 -3.32605 -2.18217 0
M  V30 2016 H 189.344 -6.30037 -1.80925 0
M  V30 2017 H 188.864 -5.14872 -3.0768 0
M  V30 2018 H 190.543 -5.73694 -2.99139 0
M  V30 2019 N 190.675 0.682077 -1.42076 0
M  V30 2020 C 191.622 1.79578 -1.44984 0
M  V30 2021 C 192.592 1.6332 -0.302614 0
M  V30 2022 O 193.777 1.83978 -0.505633 0
M  V30 2023 C 190.917 3.1756 -1.35091 0
M  V30 2024 C 190.03 3.45156 -2.59791 0
M  V30 2025 C 189.165 4.72826 -2.42093 0
M  V30 2026 C 188.204 4.93433 -3.62202 0
M  V30 2027 N 187.341 6.12338 -3.43491 0
M  V30 2028 H 192.181 1.76427 -2.40161 0
M  V30 2029 H 189.718 0.861376 -1.19242 0
M  V30 2030 H 191.676 3.97287 -1.27354 0
M  V30 2031 H 190.306 3.19854 -0.435133 0
M  V30 2032 H 189.358 2.59736 -2.77923 0
M  V30 2033 H 190.67 3.5628 -3.49094 0
M  V30 2034 H 189.824 5.60631 -2.319 0
M  V30 2035 H 188.563 4.63973 -1.50268 0
M  V30 2036 H 187.568 4.04073 -3.72834 0
M  V30 2037 H 188.793 5.04136 -4.54998 0
M  V30 2038 H 186.739 6.04672 -2.54377 0
M  V30 2039 H 186.656 6.2429 -4.26377 0
M  V30 2040 H 187.924 7.02841 -3.37097 0
M  V30 2041 N 192.153 1.28127 0.917671 0
M  V30 2042 C 193.083 1.14248 2.03641 0
M  V30 2043 C 194.064 0.0412748 1.7005 0
M  V30 2044 O 195.249 0.217566 1.92977 0
M  V30 2045 C 192.379 0.799431 3.37974 0
M  V30 2046 C 191.333 1.85497 3.85713 0
M  V30 2047 C 190.659 1.36565 5.16966 0
M  V30 2048 C 191.959 3.26085 4.08002 0
M  V30 2049 H 193.653 2.07835 2.15511 0
M  V30 2050 H 191.199 1.00064 1.03553 0
M  V30 2051 H 193.152 0.689114 4.15727 0
M  V30 2052 H 191.876 -0.172145 3.26146 0
M  V30 2053 H 190.535 1.95437 3.10161 0
M  V30 2054 H 190.183 0.383253 5.01538 0
M  V30 2055 H 189.883 2.07143 5.49878 0
M  V30 2056 H 191.407 1.26848 5.97279 0
M  V30 2057 H 192.821 3.19089 4.76293 0
M  V30 2058 H 191.218 3.94462 4.52238 0
M  V30 2059 H 192.288 3.70394 3.12948 0
M  V30 2060 N 193.631 -1.12557 1.10312 0
M  V30 2061 C 194.877 -1.84515 0.855901 0
M  V30 2062 C 195.232 -1.82409 -0.611936 0
M  V30 2063 O 194.525 -1.25778 -1.44535 0
M  V30 2064 C 194.719 -3.31462 1.33669 0
M  V30 2065 C 194.548 -3.47879 2.84974 0
M  V30 2066 C 193.318 -3.61589 3.52961 0
M  V30 2067 C 195.516 -3.43152 3.83081 0
M  V30 2068 N 193.498 -3.66359 4.926 0
M  V30 2069 C 194.869 -3.54401 5.08724 0
M  V30 2070 C 196.924 -3.2661 3.75807 0
M  V30 2071 C 195.627 -3.50815 6.2795 0
M  V30 2072 C 197.653 -3.24335 4.94531 0
M  V30 2073 C 197.015 -3.36144 6.19021 0
M  V30 2074 H 193.114 -0.690967 0.366182 0
M  V30 2075 H 195.698 -1.34763 1.40524 0
M  V30 2076 H 193.869 -3.7976 0.814686 0
M  V30 2077 H 195.601 -3.91272 1.03385 0
M  V30 2078 H 192.356 -3.63652 3.03404 0
M  V30 2079 H 192.78 -3.72411 5.65366 0
M  V30 2080 H 197.422 -3.16375 2.80476 0
M  V30 2081 H 195.14 -3.5982 7.23571 0
M  V30 2082 H 198.726 -3.12719 4.9061 0
M  V30 2083 H 197.606 -3.34357 7.09348 0
M  V30 2084 N 195.109 -0.891671 -1.2995 0
M  V30 2085 C 196.057 -0.353066 -2.29905 0
M  V30 2086 C 197.051 0.543509 -1.60444 0
M  V30 2087 O 198.257 0.4272 -1.74857 0
M  V30 2088 H 194.632 -0.095531 -0.745907 0
M  V30 2089 H 196.603 -1.20961 -2.72784 0
M  V30 2090 C 195.352 0.411475 -3.45257 0
M  V30 2091 H 194.675 -0.269182 -3.98893 0
M  V30 2092 H 196.115 0.753328 -4.17254 0
M  V30 2093 C 194.574 1.6111 -2.9588 0
M  V30 2094 O 195.104 2.71045 -2.96475 0
M  V30 2095 N 193.31 1.45054 -2.51809 0
M  V30 2096 H 192.857 0.556175 -2.51524 0
M  V30 2097 H 192.815 2.25453 -2.1913 0
M  V30 2098 N 196.587 1.43421 -0.653314 0
M  V30 2099 C 197.815 2.06163 -0.174491 0
M  V30 2100 C 198.23 1.48969 1.1599 0
M  V30 2101 O 197.587 0.621042 1.71608 0
M  V30 2102 C 197.638 3.61417 -0.0774865 0
M  V30 2103 O 197.359 4.16485 -1.35912 0
M  V30 2104 C 198.86 4.41235 0.427402 0
M  V30 2105 H 196.08 0.664946 -0.0899353 0
M  V30 2106 H 198.624 1.83924 -0.893988 0
M  V30 2107 H 196.779 3.82841 0.59257 0
M  V30 2108 H 197.193 5.10153 -1.21839 0
M  V30 2109 H 198.667 5.5021 0.44423 0
M  V30 2110 H 199.144 4.14268 1.45873 0
M  V30 2111 H 199.75 4.2478 -0.210167 0
M  V30 2112 N 198.065 0.39524 1.52563 0
M  V30 2113 C 198.995 -0.428384 2.29537 0
M  V30 2114 C 199.976 -1.05831 1.33169 0
M  V30 2115 O 201.161 -1.06995 1.62067 0
M  V30 2116 C 198.291 -1.55274 3.10656 0
M  V30 2117 C 197.245 -1.04855 4.14957 0
M  V30 2118 C 196.571 -2.26543 4.84337 0
M  V30 2119 C 197.871 -0.112324 5.22179 0
M  V30 2120 H 199.565 0.213867 2.98635 0
M  V30 2121 H 197.111 0.104298 1.43622 0
M  V30 2122 H 199.064 -2.1358 3.63265 0
M  V30 2123 H 197.788 -2.22266 2.39302 0
M  V30 2124 H 196.447 -0.487985 3.63338 0
M  V30 2125 H 196.095 -2.92059 4.09525 0
M  V30 2126 H 195.795 -1.93466 5.54837 0
M  V30 2127 H 197.319 -2.85481 5.39753 0
M  V30 2128 H 198.733 -0.603752 5.70112 0
M  V30 2129 H 197.13 0.128968 5.99961 0
M  V30 2130 H 198.2 0.837052 4.77621 0
M  V30 2131 N 199.544 -1.57102 0.125237 0
M  V30 2132 C 200.792 -1.95021 -0.530198 0
M  V30 2133 C 201.113 -1.00982 -1.66816 0
M  V30 2134 O 200.383 -0.0672693 -1.95784 0
M  V30 2135 H 198.963 -0.720046 -0.198853 0
M  V30 2136 H 201.625 -1.93916 0.19564 0
M  V30 2137 H 200.721 -2.98211 -0.920681 0
M  V30 2138 N 201.022 0.148545 -1.56898 0
M  V30 2139 C 202.268 0.862694 -1.83536 0
M  V30 2140 C 202.601 1.80889 -0.706604 0
M  V30 2141 O 201.876 1.92328 0.289885 0
M  V30 2142 C 202.159 1.63853 -3.20662 0
M  V30 2143 C 202.012 0.713925 -4.44098 0
M  V30 2144 C 203.331 2.60133 -3.54991 0
M  V30 2145 H 200.45 0.312179 -0.667618 0
M  V30 2146 H 203.092 0.127953 -1.89569 0
M  V30 2147 H 201.242 2.26489 -3.1565 0
M  V30 2148 H 202.914 0.098686 -4.61194 0
M  V30 2149 H 201.157 0.0234019 -4.33794 0
M  V30 2150 H 201.828 1.29278 -5.36648 0
M  V30 2151 H 204.304 2.07616 -3.60603 0
M  V30 2152 H 203.18 3.11468 -4.51972 0
M  V30 2153 H 203.441 3.41417 -2.80868 0
M  V30 2154 N 202.5 1.5196 0.417844 0
M  V30 2155 C 203.74 1.67262 1.17486 0
M  V30 2156 C 204.104 0.38983 1.88001 0
M  V30 2157 O 205.305 0.418845 2.65517 0
M  V30 2158 C 203.576 2.85526 2.14965 0
M  V30 2159 S 205.135 3.21263 2.98891 0
M  V30 2160 H 201.953 0.589077 0.398132 0
M  V30 2161 H 204.555 1.89927 0.463452 0
M  V30 2162 H 203.259 3.77145 1.61833 0
M  V30 2163 H 202.79 2.65107 2.90657 0
M  V30 2164 H 204.805 2.69208 4.16823 0
M  V30 2165 N 203.978 -0.674533 1.42435 0
M  V30 2166 C 204.925 -1.78807 1.45934 0
M  V30 2167 C 205.895 -1.63157 0.311271 0
M  V30 2168 O 207.08 -1.83707 0.515383 0
M  V30 2169 C 204.22 -3.16839 1.36773 0
M  V30 2170 C 203.333 -3.43774 2.61617 0
M  V30 2171 C 202.468 -4.71536 2.44597 0
M  V30 2172 C 201.507 -4.91505 3.64814 0
M  V30 2173 N 200.644 -6.10508 3.46734 0
M  V30 2174 H 205.484 -1.75151 2.41093 0
M  V30 2175 H 203.021 -0.85504 1.19697 0
M  V30 2176 H 204.979 -3.96606 1.29459 0
M  V30 2177 H 203.609 -3.19619 0.452089 0
M  V30 2178 H 202.661 -2.58259 2.79297 0
M  V30 2179 H 203.973 -3.54423 3.50978 0
M  V30 2180 H 203.127 -5.59393 2.3487 0
M  V30 2181 H 201.866 -4.6317 1.52726 0
M  V30 2182 H 200.871 -4.0209 3.74972 0
M  V30 2183 H 202.096 -5.01716 4.57665 0
M  V30 2184 H 200.042 -6.03315 2.5758 0
M  V30 2185 H 199.959 -6.2202 4.29682 0
M  V30 2186 H 201.227 -7.01044 3.40819 0
M  V30 2187 N 205.456 -1.28612 -0.910864 0
M  V30 2188 C 206.686 -1.1862 -1.69153 0
M  V30 2189 C 207.094 0.257324 -1.87442 0
M  V30 2190 O 206.437 1.18543 -1.40332 0
M  V30 2191 C 206.499 -1.81606 -3.10257 0
M  V30 2192 C 206.163 -3.30864 -3.15243 0
M  V30 2193 C 207.16 -4.27256 -2.96223 0
M  V30 2194 C 204.845 -3.71871 -3.37664 0
M  V30 2195 C 206.839 -5.62631 -2.99541 0
M  V30 2196 C 204.526 -5.07371 -3.40614 0
M  V30 2197 C 205.524 -6.02561 -3.21573 0
M  V30 2198 O 205.212 -7.35589 -3.2429 0
M  V30 2199 H 204.944 -0.412633 -0.535453 0
M  V30 2200 H 207.498 -1.70306 -1.14827 0
M  V30 2201 H 205.728 -1.24418 -3.66138 0
M  V30 2202 H 207.417 -1.66092 -3.70362 0
M  V30 2203 H 208.183 -3.9691 -2.78725 0
M  V30 2204 H 204.062 -2.98241 -3.5153 0
M  V30 2205 H 207.606 -6.36907 -2.84597 0
M  V30 2206 H 203.503 -5.37366 -3.57642 0
M  V30 2207 H 204.271 -7.44252 -3.40633 0
M  V30 2208 N 206.934 1.1197 -1.10907 0
M  V30 2209 C 208.162 1.87402 -0.876824 0
M  V30 2210 C 208.577 1.79894 0.573025 0
M  V30 2211 O 207.934 1.17629 1.39534 0
M  V30 2212 C 207.985 3.36428 -1.32282 0
M  V30 2213 O 207.706 3.43765 -2.71582 0
M  V30 2214 C 209.207 4.28783 -1.12518 0
M  V30 2215 H 206.427 0.592793 -0.314384 0
M  V30 2216 H 208.971 1.41649 -1.47499 0
M  V30 2217 H 207.126 3.79706 -0.768229 0
M  V30 2218 H 207.54 4.3652 -2.90776 0
M  V30 2219 H 209.014 5.31613 -1.48633 0
M  V30 2220 H 209.491 4.39153 -0.0642394 0
M  V30 2221 H 210.097 3.91291 -1.66648 0
M  V30 2222 N 208.412 0.89855 1.29475 0
M  V30 2223 C 209.658 0.524658 1.95896 0
M  V30 2224 C 209.991 -0.926468 1.70676 0
M  V30 2225 O 209.266 -1.65665 1.01908 0
M  V30 2226 C 209.549 0.81633 3.50725 0
M  V30 2227 C 209.402 2.31907 3.85408 0
M  V30 2228 C 210.721 0.302038 4.39062 0
M  V30 2229 H 207.84 0.19209 0.711527 0
M  V30 2230 H 210.482 1.12502 1.53112 0
M  V30 2231 H 208.632 0.305369 3.87298 0
M  V30 2232 H 210.304 2.89949 3.58786 0
M  V30 2233 H 208.547 2.78027 3.32992 0
M  V30 2234 H 209.218 2.47373 4.93468 0
M  V30 2235 H 211.694 0.739551 4.09475 0
M  V30 2236 H 210.57 0.535331 5.46283 0
M  V30 2237 H 210.831 -0.797216 4.34853 0
M  V30 2238 N 209.89 -1.43072 0.660911 0
M  V30 2239 C 210.822 -2.29108 -0.0647641 0
M  V30 2240 C 211.835 -1.42928 -0.779448 0
M  V30 2241 O 213.024 -1.66788 -0.635921 0
M  V30 2242 C 210.124 -3.20032 -1.11503 0
M  V30 2243 C 209.297 -4.34792 -0.476955 0
M  V30 2244 C 208.356 -5.06534 -1.42513 0
M  V30 2245 O 207.382 -5.61538 -0.930771 0
M  V30 2246 N 208.584 -5.1075 -2.75889 0
M  V30 2247 H 211.349 -2.92029 0.673731 0
M  V30 2248 H 208.91 -1.53846 0.50427 0
M  V30 2249 H 210.902 -3.64892 -1.75032 0
M  V30 2250 H 209.472 -2.58658 -1.75541 0
M  V30 2251 H 208.692 -3.92752 0.337572 0
M  V30 2252 H 209.98 -5.0879 -0.0318525 0
M  V30 2253 H 209.378 -4.67447 -3.18606 0
M  V30 2254 H 207.935 -5.59302 -3.347 0
M  V30 2255 N 211.368 -0.403325 -1.52352 0
M  V30 2256 C 212.645 0.232611 -1.94212 0
M  V30 2257 C 213.025 1.63133 -1.33981 0
M  V30 2258 O 212.373 2.22659 -0.513344 0
M  V30 2259 C 212.583 0.244811 -3.4814 0
M  V30 2260 C 213.931 0.46698 -4.22024 0
M  V30 2261 O 214.955 0.324419 -3.5472 0
M  V30 2262 O 213.814 0.74747 -5.41364 0
M  V30 2263 H 210.908 0.148223 -0.813609 0
M  V30 2264 H 213.454 -0.458848 -1.63379 0
M  V30 2265 H 212.226 -0.734378 -3.84347 0
M  V30 2266 H 211.849 0.980611 -3.85318 0
M  V30 2267 N 212.846 1.57033 -0.133567 0
M  V30 2268 C 213.756 2.19632 0.824564 0
M  V30 2269 C 214.772 1.17666 1.28182 0
M  V30 2270 O 215.948 1.50193 1.3418 0
M  V30 2271 C 213.013 2.79499 2.05137 0
M  V30 2272 C 212.074 3.96548 1.64464 0
M  V30 2273 C 211.307 4.5355 2.81297 0
M  V30 2274 O 211.53 4.09438 3.97136 0
M  V30 2275 O 210.464 5.44018 2.57542 0
M  V30 2276 H 214.29 3.01991 0.321766 0
M  V30 2277 H 211.875 1.49112 0.0927889 0
M  V30 2278 H 213.757 3.17602 2.7696 0
M  V30 2279 H 212.432 2.00162 2.54395 0
M  V30 2280 H 211.339 3.63186 0.897048 0
M  V30 2281 H 212.672 4.77364 1.19934 0
M  V30 2282 N 214.325 -0.140222 1.56975 0
M  V30 2283 C 215.55 -0.870414 1.88251 0
M  V30 2284 C 215.975 -1.73637 0.723312 0
M  V30 2285 O 215.333 -1.78329 -0.32689 0
M  V30 2286 C 215.381 -1.69737 3.18154 0
M  V30 2287 O 214.485 -2.80229 3.02565 0
M  V30 2288 H 213.826 -0.242025 0.61832 0
M  V30 2289 H 216.356 -0.128999 2.04193 0
M  V30 2290 H 216.366 -2.09099 3.50345 0
M  V30 2291 H 215.041 -1.06152 4.02125 0
M  V30 2292 H 213.618 -2.44224 2.81796 0
M  V30 2293 N 215.803 -1.52179 -0.40978 0
M  V30 2294 C 216.753 -1.71857 -1.49831 0
M  V30 2295 C 217.737 -0.572469 -1.50372 0
M  V30 2296 O 218.929 -0.829509 -1.56359 0
M  V30 2297 C 216.058 -1.87206 -2.87765 0
M  V30 2298 C 215.144 -3.07685 -2.91875 0
M  V30 2299 N 215.535 -4.30403 -2.65683 0
M  V30 2300 C 213.833 -3.07505 -3.23043 0
M  V30 2301 C 214.534 -5.11868 -2.76344 0
M  V30 2302 N 213.51 -4.47101 -3.09195 0
M  V30 2303 H 217.312 -2.64381 -1.28375 0
M  V30 2304 H 214.826 -1.50203 -0.617479 0
M  V30 2305 H 216.823 -1.99419 -3.66111 0
M  V30 2306 H 215.483 -0.958814 -3.10221 0
M  V30 2307 H 216.494 -4.58887 -2.4009 0
M  V30 2308 H 213.171 -2.25915 -3.51096 0
M  V30 2309 H 214.561 -6.19634 -2.59814 0
M  V30 2310 N 217.281 0.66697 -1.42791 0
M  V30 2311 C 218.506 1.46004 -1.47301 0
M  V30 2312 C 218.931 1.87894 -0.0880317 0
M  V30 2313 O 218.289 1.56502 0.915253 0
M  V30 2314 C 218.337 2.68031 -2.41229 0
M  V30 2315 O 217.441 3.6659 -1.88906 0
M  V30 2316 H 216.782 0.43832 -0.49877 0
M  V30 2317 H 219.312 0.817391 -1.87563 0
M  V30 2318 H 219.322 3.1601 -2.58073 0
M  V30 2319 H 217.997 2.36883 -3.41847 0
M  V30 2320 H 216.574 3.25661 -1.81656 0
M  V30 2321 N 218.759 1.29093 0.90403 0
M  V30 2322 C 219.669 1.15727 2.0407 0
M  V30 2323 C 220.685 0.0815308 1.73809 0
M  V30 2324 O 221.861 0.292749 1.99261 0
M  V30 2325 C 218.926 0.830424 3.36608 0
M  V30 2326 C 217.987 1.98955 3.80415 0
M  V30 2327 C 217.22 1.6782 5.06628 0
M  V30 2328 O 217.443 0.597105 5.67266 0
M  V30 2329 O 216.377 2.52486 5.46383 0
M  V30 2330 H 220.203 2.11171 2.18267 0
M  V30 2331 H 217.788 1.08504 1.027 0
M  V30 2332 H 219.67 0.662521 4.16159 0
M  V30 2333 H 218.345 -0.0942678 3.23563 0
M  V30 2334 H 217.252 2.21267 3.01648 0
M  V30 2335 H 218.585 2.89529 3.98037 0
M  V30 2336 N 220.237 -1.11381 1.11499 0
M  V30 2337 C 221.483 -1.83597 0.875423 0
M  V30 2338 C 221.838 -1.83048 -0.592555 0
M  V30 2339 O 221.131 -1.27304 -1.43193 0
M  V30 2340 C 221.325 -3.30026 1.37177 0
M  V30 2341 C 221.154 -3.44837 2.88647 0
M  V30 2342 C 219.924 -3.57825 3.56776 0
M  V30 2343 C 222.122 -3.3907 3.86699 0
M  V30 2344 N 220.104 -3.61113 4.96458 0
M  V30 2345 C 221.475 -3.48986 5.12454 0
M  V30 2346 C 223.53 -3.22605 3.7925 0
M  V30 2347 C 222.233 -3.44135 6.31636 0
M  V30 2348 C 224.259 -3.19072 4.97943 0
M  V30 2349 C 223.621 -3.29559 6.22551 0
M  V30 2350 H 219.72 -0.687044 0.37349 0
M  V30 2351 H 222.304 -1.33265 1.41946 0
M  V30 2352 H 220.475 -3.78874 0.854919 0
M  V30 2353 H 222.207 -3.90153 1.07529 0
M  V30 2354 H 218.962 -3.60414 3.07244 0
M  V30 2355 H 219.386 -3.66394 5.69284 0
M  V30 2356 H 224.028 -3.13382 2.83816 0
M  V30 2357 H 221.746 -3.52126 7.27347 0
M  V30 2358 H 225.332 -3.07498 4.93899 0
M  V30 2359 H 224.212 -3.26815 7.12855 0
M  V30 2360 N 221.715 -0.905404 -1.28997 0
M  V30 2361 C 222.961 -0.535039 -1.95615 0
M  V30 2362 C 223.294 0.917404 -1.71165 0
M  V30 2363 O 222.569 1.65123 -1.02785 0
M  V30 2364 C 222.852 -0.834918 -3.50287 0
M  V30 2365 C 222.705 -2.33948 -3.84172 0
M  V30 2366 C 224.024 -0.325318 -4.38896 0
M  V30 2367 H 221.143 -0.195861 -0.710498 0
M  V30 2368 H 223.785 -1.13313 -1.52513 0
M  V30 2369 H 221.935 -0.325904 -3.87131 0
M  V30 2370 H 223.607 -2.91847 -3.57243 0
M  V30 2371 H 221.85 -2.79789 -3.31513 0
M  V30 2372 H 222.521 -2.49987 -4.92149 0
M  V30 2373 H 224.997 -0.761256 -4.09077 0
M  V30 2374 H 223.873 -0.564295 -5.45992 0
M  V30 2375 H 224.134 0.774144 -4.35269 0
M  V30 2376 N 223.193 1.4272 -0.668489 0
M  V30 2377 C 224.418 2.06484 -0.194758 0
M  V30 2378 C 224.843 1.49862 1.13679 0
M  V30 2379 O 224.201 0.614582 1.70565 0
M  V30 2380 C 224.249 3.60353 -0.133546 0
M  V30 2381 O 223.353 4.02464 0.899806 0
M  V30 2382 H 222.694 0.656137 -0.10188 0
M  V30 2383 H 225.224 1.82964 -0.915722 0
M  V30 2384 H 225.234 4.07976 0.0447041 0
M  V30 2385 H 223.909 4.00938 -1.1055 0
M  V30 2386 H 222.486 3.66402 0.693109 0
M  V30 2387 N 224.671 0.411399 1.52136 0
M  V30 2388 C 225.911 -0.163143 2.03748 0
M  V30 2389 C 226.275 -1.42187 1.29022 0
M  V30 2390 O 227.476 -2.075 1.70872 0
M  V30 2391 C 225.747 -0.402651 3.55125 0
M  V30 2392 S 227.306 -0.944315 4.28519 0
M  V30 2393 H 224.124 -0.0439833 0.709638 0
M  V30 2394 H 226.726 0.56484 1.87163 0
M  V30 2395 H 225.43 0.520212 4.0709 0
M  V30 2396 H 224.961 -1.15844 3.75957 0
M  V30 2397 H 226.976 -2.22463 4.43536 0
M  V30 2398 N 226.149 -1.5696 0.141893 0
M  V30 2399 C 227.395 -1.9625 -0.511248 0
M  V30 2400 C 227.728 -1.02654 -1.64851 0
M  V30 2401 O 227.003 -0.0679676 -1.94381 0
M  V30 2402 C 227.286 -3.45285 -1.02227 0
M  V30 2403 C 227.139 -4.49658 0.113138 0
M  V30 2404 C 228.458 -3.96698 -1.90574 0
M  V30 2405 H 225.577 -0.713567 -0.184367 0
M  V30 2406 H 228.219 -1.88698 0.222087 0
M  V30 2407 H 226.369 -3.51852 -1.64719 0
M  V30 2408 H 228.041 -4.55174 0.749302 0
M  V30 2409 H 226.284 -4.26857 0.773026 0
M  V30 2410 H 226.955 -5.51258 -0.286053 0
M  V30 2411 H 229.431 -3.92578 -1.37918 0
M  V30 2412 H 228.307 -5.01453 -2.2324 0
M  V30 2413 H 228.568 -3.3875 -2.84079 0
M  V30 2414 N 227.627 0.131896 -1.57047 0
M  V30 2415 C 229.043 0.485031 -1.52051 0
M  V30 2416 C 229.243 1.82563 -0.85281 0
M  V30 2417 O 228.299 2.48817 -0.429694 0
M  V30 2418 C 229.612 0.481409 -2.96821 0
M  V30 2419 C 231.16 0.565868 -3.07842 0
M  V30 2420 C 231.635 0.592762 -4.54148 0
M  V30 2421 N 233.126 0.654564 -4.58552 0
M  V30 2422 C 233.861 0.696608 -5.69153 0
M  V30 2423 N 233.357 0.697078 -6.89284 0
M  V30 2424 N 235.15 0.738639 -5.57226 0
M  V30 2425 H 227.301 -0.746664 -1.98843 0
M  V30 2426 H 229.564 -0.273999 -0.90754 0
M  V30 2427 H 229.27 -0.435731 -3.4899 0
M  V30 2428 H 229.144 1.3139 -3.53577 0
M  V30 2429 H 231.531 1.47343 -2.55684 0
M  V30 2430 H 231.612 -0.29406 -2.54104 0
M  V30 2431 H 231.256 -0.310701 -5.06949 0
M  V30 2432 H 231.186 1.46939 -5.05684 0
M  V30 2433 H 233.677 0.660887 -3.72076 0
M  V30 2434 H 233.99 0.731426 -7.69331 0
M  V30 2435 H 232.335 0.66471 -6.91814 0
M  V30 2436 H 235.526 0.735545 -4.62285 0
M  V30 2437 H 235.699 0.767938 -6.43434 0
M  V30 2438 N 229.106 1.52395 0.401703 0
M  V30 2439 C 230.353 1.66817 1.14796 0
M  V30 2440 C 230.681 0.401772 1.90305 0
M  V30 2441 O 229.936 -0.615487 1.85769 0
M  V30 2442 C 230.235 2.84578 2.16217 0
M  V30 2443 C 229.901 4.22513 1.5746 0
M  V30 2444 C 228.563 4.60029 1.41161 0
M  V30 2445 C 230.915 5.0844 1.14622 0
M  V30 2446 C 228.243 5.81144 0.80552 0
M  V30 2447 C 230.595 6.30167 0.55428 0
M  V30 2448 C 229.259 6.66426 0.378482 0
M  V30 2449 H 228.529 0.610428 0.420069 0
M  V30 2450 H 231.176 1.86512 0.434212 0
M  V30 2451 H 229.481 2.59248 2.93764 0
M  V30 2452 H 231.178 2.92933 2.73845 0
M  V30 2453 H 227.768 3.92953 1.71132 0
M  V30 2454 H 231.952 4.80034 1.26021 0
M  V30 2455 H 227.208 6.07855 0.657399 0
M  V30 2456 H 231.382 6.96071 0.213983 0
M  V30 2457 H 229.009 7.60143 -0.0932606 0
M  V30 2458 N 230.584 -0.659388 1.43143 0
M  V30 2459 C 231.809 -1.45221 1.48073 0
M  V30 2460 C 232.234 -1.87845 0.097995 0
M  V30 2461 O 231.592 -1.56985 -0.90694 0
M  V30 2462 C 231.64 -2.66748 2.42647 0
M  V30 2463 O 230.744 -3.65583 1.90848 0
M  V30 2464 H 230.085 -0.435669 0.501088 0
M  V30 2465 H 232.615 -0.807432 1.87994 0
M  V30 2466 H 232.625 -3.14637 2.59745 0
M  V30 2467 H 231.3 -2.35067 3.43098 0
M  V30 2468 H 229.877 -3.24693 1.83381 0
M  V30 2469 N 232.062 -1.29571 -0.897171 0
M  V30 2470 C 233.473 -1.15964 -1.46319 0
M  V30 2471 C 233.824 0.244267 -1.94674 0
M  V30 2472 O 232.949 1.13998 -1.83939 0
M  V30 2473 C 233.544 -2.09906 -2.65942 0
M  V30 2474 C 232.103 -2.00314 -3.18671 0
M  V30 2475 C 231.25 -2.00687 -1.91363 0
M  V30 2476 H 234.201 -1.42019 -0.708268 0
M  V30 2477 H 234.222 -1.67276 -3.41759 0
M  V30 2478 H 233.734 -3.12075 -2.30718 0
M  V30 2479 H 231.835 -1.01242 -3.58582 0
M  V30 2480 H 231.948 -2.88102 -3.82798 0
M  V30 2481 H 230.312 -1.45319 -2.09175 0
M  V30 2482 H 231.095 -3.04566 -1.58413 0
M  V30 2483 N 233.54 1.10788 -1.12088 0
M  V30 2484 C 234.488 2.19111 -0.780587 0
M  V30 2485 C 235.482 1.67818 0.230961 0
M  V30 2486 O 236.688 1.79777 0.0895427 0
M  V30 2487 H 233.063 0.714477 -0.234578 0
M  V30 2488 H 235.034 2.45055 -1.70266 0
M  V30 2489 C 233.783 3.46818 -0.24747 0
M  V30 2490 H 233.106 3.86646 -1.01712 0
M  V30 2491 H 234.546 4.23973 -0.0476291 0
M  V30 2492 C 233.005 3.20968 1.02378 0
M  V30 2493 O 233.535 3.42298 2.10226 0
M  V30 2494 N 231.741 2.74658 0.949271 0
M  V30 2495 H 231.288 2.57501 0.0715173 0
M  V30 2496 H 231.246 2.57739 1.80049 0
M  V30 2497 N 235.018 0.912232 1.28515 0
M  V30 2498 C 236.243 0.559774 1.99703 0
M  V30 2499 C 236.668 -0.851393 1.67729 0
M  V30 2500 O 236.026 -1.56875 0.908834 0
M  V30 2501 C 236.074 0.773874 3.52198 0
M  V30 2502 O 235.178 -0.167842 4.12058 0
M  V30 2503 H 234.519 0.21723 0.627461 0
M  V30 2504 H 237.049 1.22725 1.63706 0
M  V30 2505 H 237.059 0.683386 4.02236 0
M  V30 2506 H 235.734 1.80261 3.74805 0
M  V30 2507 H 234.311 -0.0287509 3.72889 0
M  V30 2508 N 236.496 -1.42363 0.676048 0
M  V30 2509 C 237.721 -2.06377 0.205705 0
M  V30 2510 C 238.146 -1.50463 -1.12883 0
M  V30 2511 O 237.504 -0.623619 -1.70237 0
M  V30 2512 C 237.552 -3.60277 0.152655 0
M  V30 2513 O 236.656 -4.02935 -0.87845 0
M  V30 2514 H 235.997 -0.655588 0.105359 0
M  V30 2515 H 238.527 -1.82475 0.925412 0
M  V30 2516 H 238.537 -4.07993 -0.0230675 0
M  V30 2517 H 237.212 -4.00346 1.12675 0
M  V30 2518 H 235.789 -3.66764 -0.673668 0
M  V30 2519 N 237.974 -0.419461 -1.51915 0
M  V30 2520 C 238.922 0.415502 -2.28859 0
M  V30 2521 C 239.916 1.03674 -1.3397 0
M  V30 2522 O 241.122 0.973757 -1.51387 0
M  V30 2523 H 237.497 0.152786 -0.736315 0
M  V30 2524 H 239.468 -0.254531 -2.97312 0
M  V30 2525 C 238.217 1.51425 -3.12995 0
M  V30 2526 H 237.54 1.04556 -3.85886 0
M  V30 2527 H 238.98 2.07208 -3.6992 0
M  V30 2528 C 237.439 2.48745 -2.27217 0
M  V30 2529 O 237.969 3.52871 -1.9195 0
M  V30 2530 N 236.175 2.19202 -1.90785 0
M  V30 2531 H 235.722 1.34556 -2.19664 0
M  V30 2532 H 235.68 2.84561 -1.33687 0
M  V30 2533 N 239.452 1.56882 -0.150215 0
M  V30 2534 C 240.863 1.82995 0.370076 0
M  V30 2535 C 241.214 1.06907 1.64515 0
M  V30 2536 O 240.339 0.315369 2.1409 0
M  V30 2537 C 240.934 3.31942 0.678208 0
M  V30 2538 C 239.493 3.58625 1.14301 0
M  V30 2539 C 238.64 2.76792 0.167778 0
M  V30 2540 H 241.591 1.54209 -0.374858 0
M  V30 2541 H 241.612 3.48272 1.53254 0
M  V30 2542 H 241.124 3.87294 -0.249991 0
M  V30 2543 H 239.225 3.08664 2.08704 0
M  V30 2544 H 239.338 4.67073 1.06676 0
M  V30 2545 H 237.702 2.45972 0.661037 0
M  V30 2546 H 238.485 3.34916 -0.754069 0
M  V30 2547 N 240.93 -0.123565 1.57115 0
M  V30 2548 C 242.179 -0.830704 1.83799 0
M  V30 2549 C 242.492 -1.81259 0.735158 0
M  V30 2550 O 243.698 -2.56558 0.888278 0
M  V30 2551 C 242.154 -1.52802 3.25852 0
M  V30 2552 C 241.762 -0.587356 4.44133 0
M  V30 2553 C 243.506 -2.22056 3.61789 0
M  V30 2554 C 241.413 -1.28764 5.77212 0
M  V30 2555 H 240.343 -0.313967 0.685522 0
M  V30 2556 H 242.994 -0.0834359 1.8331 0
M  V30 2557 H 241.376 -2.32175 3.20797 0
M  V30 2558 H 242.55 0.172829 4.60476 0
M  V30 2559 H 240.865 -0.00201892 4.164 0
M  V30 2560 H 243.462 -2.75131 4.58483 0
M  V30 2561 H 243.805 -2.99644 2.88997 0
M  V30 2562 H 244.338 -1.49576 3.68608 0
M  V30 2563 H 241.077 -0.55314 6.53162 0
M  V30 2564 H 240.597 -2.01995 5.64764 0
M  V30 2565 H 242.276 -1.8221 6.20813 0
M  V30 2566 N 242.408 -1.52605 -0.393616 0
M  V30 2567 C 243.657 -1.66649 -1.13627 0
M  V30 2568 C 243.97 -0.410364 -1.91247 0
M  V30 2569 O 245.176 -0.430854 -2.68059 0
M  V30 2570 C 243.632 -2.9449 -2.06891 0
M  V30 2571 C 243.24 -4.27266 -1.34714 0
M  V30 2572 C 244.984 -3.17899 -2.81319 0
M  V30 2573 C 242.891 -5.46217 -2.26717 0
M  V30 2574 H 241.821 -0.62084 -0.427871 0
M  V30 2575 H 244.472 -1.791 -0.399428 0
M  V30 2576 H 242.854 -2.75774 -2.84191 0
M  V30 2577 H 244.028 -4.56518 -0.626714 0
M  V30 2578 H 242.343 -4.10081 -0.722643 0
M  V30 2579 H 244.94 -4.03949 -3.50328 0
M  V30 2580 H 245.283 -2.32777 -3.45139 0
M  V30 2581 H 245.816 -3.37159 -2.11113 0
M  V30 2582 H 242.555 -6.33733 -1.67521 0
M  V30 2583 H 242.075 -5.21283 -2.96689 0
M  V30 2584 H 243.754 -5.7991 -2.86903 0
M  V30 2585 N 243.887 0.651787 -1.4349 0
M  V30 2586 C 245.133 1.41376 -1.45398 0
M  V30 2587 C 245.466 1.94041 -0.0784823 0
M  V30 2588 O 244.741 1.72379 0.900878 0
M  V30 2589 C 245.024 2.59414 -2.49752 0
M  V30 2590 C 244.877 2.12232 -3.96582 0
M  V30 2591 C 246.196 3.61626 -2.50827 0
M  V30 2592 H 243.315 0.512719 -0.529422 0
M  V30 2593 H 245.957 0.738796 -1.75048 0
M  V30 2594 H 244.107 3.16997 -2.246 0
M  V30 2595 H 245.779 1.59639 -4.32797 0
M  V30 2596 H 244.022 1.43592 -4.09346 0
M  V30 2597 H 244.693 2.9712 -4.65214 0
M  V30 2598 H 247.169 3.13805 -2.7325 0
M  V30 2599 H 246.045 4.41766 -3.25783 0
M  V30 2600 H 246.306 4.14314 -1.5426 0
M  V30 2601 N 245.365 1.30045 0.890287 0
M  V30 2602 C 246.59 1.21598 1.68014 0
M  V30 2603 C 247.015 -0.218678 1.86825 0
M  V30 2604 O 246.373 -1.15756 1.39536 0
M  V30 2605 C 246.421 1.94434 3.03691 0
M  V30 2606 O 245.525 1.2678 3.92429 0
M  V30 2607 H 244.866 0.420856 0.513592 0
M  V30 2608 H 247.396 1.71775 1.11151 0
M  V30 2609 H 247.406 2.03251 3.5377 0
M  V30 2610 H 246.081 2.98777 2.89318 0
M  V30 2611 H 244.658 1.26282 3.50866 0
M  V30 2612 N 246.843 -1.10192 1.12674 0
M  V30 2613 C 248.083 -1.83825 0.893736 0
M  V30 2614 C 248.447 -1.83341 -0.570082 0
M  V30 2615 O 249.648 -2.52553 -0.920354 0
M  V30 2616 C 247.919 -3.26405 1.45582 0
M  V30 2617 S 249.478 -4.17136 1.36171 0
M  V30 2618 H 246.296 -0.633732 0.322342 0
M  V30 2619 H 248.898 -1.32581 1.43675 0
M  V30 2620 H 247.602 -3.24329 2.51473 0
M  V30 2621 H 247.133 -3.82721 0.910405 0
M  V30 2622 H 249.148 -4.95069 0.334863 0
M  V30 2623 N 248.321 -0.919034 -1.28029 0
M  V30 2624 C 249.569 -0.553838 -1.94363 0
M  V30 2625 C 249.89 0.906357 -1.72656 0
M  V30 2626 O 249.16 1.64143 -1.0693 0
M  V30 2627 H 247.74 -0.201834 -0.719216 0
M  V30 2628 H 250.402 -1.16954 -1.55909 0
M  V30 2629 H 249.498 -0.752758 -3.02886 0
M  V30 2630 N 249.799 1.42003 -0.683588 0
M  V30 2631 C 251.045 2.02223 -0.218536 0
M  V30 2632 C 251.4 1.53126 1.16492 0
M  V30 2633 O 250.693 0.727459 1.77253 0
M  V30 2634 C 250.887 3.56827 -0.202357 0
M  V30 2635 C 250.716 4.20928 -1.5827 0
M  V30 2636 C 249.486 4.5573 -2.18262 0
M  V30 2637 C 251.684 4.47933 -2.52706 0
M  V30 2638 N 249.666 5.05056 -3.48986 0
M  V30 2639 C 251.037 4.98906 -3.68094 0
M  V30 2640 C 253.092 4.29931 -2.51125 0
M  V30 2641 C 251.795 5.33768 -4.82166 0
M  V30 2642 C 253.821 4.65875 -3.643 0
M  V30 2643 C 253.183 5.17008 -4.78417 0
M  V30 2644 H 249.282 0.771931 -0.125088 0
M  V30 2645 H 251.866 1.72729 -0.898479 0
M  V30 2646 H 250.037 3.85819 0.447029 0
M  V30 2647 H 251.769 4.03755 0.276399 0
M  V30 2648 H 248.524 4.41781 -1.70665 0
M  V30 2649 H 248.948 5.34139 -4.15962 0
M  V30 2650 H 253.59 3.89647 -1.6412 0
M  V30 2651 H 251.308 5.72981 -5.6984 0
M  V30 2652 H 254.894 4.53615 -3.64314 0
M  V30 2653 H 253.774 5.44301 -5.64541 0
M  V30 2654 N 251.277 0.427512 1.51691 0
M  V30 2655 C 252.554 -0.201684 1.94557 0
M  V30 2656 C 252.934 -1.60981 1.36559 0
M  V30 2657 O 252.282 -2.21814 0.548702 0
M  V30 2658 C 252.492 -0.189394 3.48486 0
M  V30 2659 C 253.84 -0.39978 4.22714 0
M  V30 2660 O 254.864 -0.267945 3.55191 0
M  V30 2661 O 253.723 -0.661249 5.42485 0
M  V30 2662 H 250.817 -0.135261 0.815864 0
M  V30 2663 H 253.363 0.484782 1.62628 0
M  V30 2664 H 252.135 0.795431 3.8313 0
M  V30 2665 H 251.758 -0.919187 3.86829 0
M  V30 2666 N 252.755 -1.56801 0.158532 0
M  V30 2667 C 253.702 -2.17337 -0.776729 0
M  V30 2668 C 254.672 -1.1096 -1.23601 0
M  V30 2669 O 255.857 -1.39054 -1.30647 0
M  V30 2670 C 252.997 -2.80822 -2.00582 0
M  V30 2671 C 252.11 -4.01624 -1.59129 0
M  V30 2672 C 251.245 -4.53072 -2.77306 0
M  V30 2673 C 250.284 -5.66314 -2.32282 0
M  V30 2674 N 249.421 -6.12329 -3.43508 0
M  V30 2675 H 254.261 -2.96918 -0.253701 0
M  V30 2676 H 251.798 -1.46661 -0.113504 0
M  V30 2677 H 253.756 -3.15779 -2.72652 0
M  V30 2678 H 252.386 -2.03866 -2.50277 0
M  V30 2679 H 251.438 -3.72571 -0.767806 0
M  V30 2680 H 252.75 -4.83633 -1.2207 0
M  V30 2681 H 251.904 -4.90145 -3.57551 0
M  V30 2682 H 250.643 -3.70095 -3.17617 0
M  V30 2683 H 249.648 -5.28806 -1.5048 0
M  V30 2684 H 250.873 -6.51085 -1.93043 0
M  V30 2685 H 248.819 -5.32284 -3.83418 0
M  V30 2686 H 248.736 -6.89293 -3.105 0
M  V30 2687 H 250.004 -6.5405 -4.24075 0
M  V30 2688 N 254.233 0.115231 -1.57178 0
M  V30 2689 C 255.163 1.1423 -2.03651 0
M  V30 2690 C 256.144 1.42967 -0.921655 0
M  V30 2691 O 257.329 1.53343 -1.19162 0
M  V30 2692 C 254.459 2.4675 -2.44401 0
M  V30 2693 C 253.413 2.32467 -3.59365 0
M  V30 2694 C 252.739 3.69984 -3.86026 0
M  V30 2695 C 254.039 1.78203 -4.90959 0
M  V30 2696 H 255.733 0.755749 -2.89705 0
M  V30 2697 H 253.279 0.362093 -1.39373 0
M  V30 2698 H 255.232 3.18854 -2.75517 0
M  V30 2699 H 253.956 2.87302 -1.55322 0
M  V30 2700 H 252.615 1.62811 -3.28463 0
M  V30 2701 H 252.263 4.08028 -2.94147 0
M  V30 2702 H 251.963 3.61279 -4.63412 0
M  V30 2703 H 253.487 4.43587 -4.19599 0
M  V30 2704 H 254.901 2.40128 -5.20587 0
M  V30 2705 H 253.298 1.8031 -5.72371 0
M  V30 2706 H 254.368 0.739876 -4.79222 0
M  V30 2707 N 255.711 1.52812 0.385517 0
M  V30 2708 C 256.957 1.68275 1.13188 0
M  V30 2709 C 257.29 0.423179 1.89533 0
M  V30 2710 O 256.565 -0.579113 1.85679 0
M  V30 2711 C 256.848 2.92001 2.1073 0
M  V30 2712 C 256.701 4.28067 1.38125 0
M  V30 2713 C 258.02 3.11283 3.11113 0
M  V30 2714 H 255.139 0.612352 0.410115 0
M  V30 2715 H 257.781 1.85415 0.414869 0
M  V30 2716 H 255.931 2.77519 2.71874 0
M  V30 2717 H 257.603 4.54324 0.799187 0
M  V30 2718 H 255.846 4.28388 0.683092 0
M  V30 2719 H 256.517 5.10733 2.09417 0
M  V30 2720 H 258.993 3.2482 2.6006 0
M  V30 2721 H 257.869 3.99325 3.76605 0
M  V30 2722 H 258.13 2.25656 3.80173 0
M  V30 2723 N 257.189 -0.644168 1.43834 0
M  V30 2724 C 258.136 -1.75671 1.49694 0
M  V30 2725 C 259.106 -1.6246 0.345809 0
M  V30 2726 O 260.291 -1.82573 0.554234 0
M  V30 2727 C 257.431 -3.13867 1.43463 0
M  V30 2728 C 256.544 -3.38147 2.6885 0
M  V30 2729 C 255.679 -4.66241 2.54544 0
M  V30 2730 C 254.718 -4.83657 3.75157 0
M  V30 2731 N 253.855 -6.03016 3.59605 0
M  V30 2732 H 258.695 -1.69998 2.44754 0
M  V30 2733 H 256.232 -0.829458 1.21484 0
M  V30 2734 H 258.19 -3.9377 1.37843 0
M  V30 2735 H 256.82 -3.18588 0.519783 0
M  V30 2736 H 255.872 -2.52276 2.84712 0
M  V30 2737 H 257.184 -3.46899 3.58417 0
M  V30 2738 H 256.338 -5.54285 2.46683 0
M  V30 2739 H 255.077 -4.59826 1.62516 0
M  V30 2740 H 254.082 -3.94046 3.83416 0
M  V30 2741 H 255.307 -4.91896 4.68204 0
M  V30 2742 H 253.253 -5.97715 2.7032 0
M  V30 2743 H 253.17 -6.12766 4.42779 0
M  V30 2744 H 254.438 -6.93657 3.55613 0
M  V30 2745 N 258.668 -1.30515 -0.883378 0
M  V30 2746 C 259.914 -1.19607 -1.63774 0
M  V30 2747 C 260.247 0.248314 -1.92606 0
M  V30 2748 O 259.522 1.17742 -1.54813 0
M  V30 2749 C 259.805 -2.02669 -2.97653 0
M  V30 2750 C 259.658 -3.55335 -2.75784 0
M  V30 2751 C 260.977 -1.86573 -3.98596 0
M  V30 2752 H 258.096 -0.435856 -0.594305 0
M  V30 2753 H 260.738 -1.60165 -1.02212 0
M  V30 2754 H 258.888 -1.68208 -3.50197 0
M  V30 2755 H 260.56 -3.99863 -2.30016 0
M  V30 2756 H 258.803 -3.79438 -2.1026 0
M  V30 2757 H 259.474 -4.08745 -3.70988 0
M  V30 2758 H 261.95 -2.16703 -3.55217 0
M  V30 2759 H 260.826 -2.47014 -4.90179 0
M  V30 2760 H 261.087 -0.825321 -4.34328 0
M  V30 2761 N 260.146 1.09593 -1.13257 0
M  V30 2762 C 261.392 1.82181 -0.904521 0
M  V30 2763 C 261.747 1.83967 0.563358 0
M  V30 2764 O 261.04 1.29566 1.41149 0
M  V30 2765 C 261.234 3.27802 -1.42411 0
M  V30 2766 C 261.063 3.40201 -2.94097 0
M  V30 2767 C 259.833 3.52104 -3.62424 0
M  V30 2768 C 262.031 3.32875 -3.92044 0
M  V30 2769 N 260.013 3.53169 -5.0214 0
M  V30 2770 C 261.384 3.40789 -5.17941 0
M  V30 2771 C 263.439 3.16531 -3.84334 0
M  V30 2772 C 262.142 3.34042 -6.37031 0
M  V30 2773 C 264.168 3.11109 -5.02956 0
M  V30 2774 C 263.53 3.19614 -6.27715 0
M  V30 2775 H 259.629 0.681015 -0.384373 0
M  V30 2776 H 262.213 1.3099 -1.44048 0
M  V30 2777 H 260.384 3.77466 -0.915086 0
M  V30 2778 H 262.116 3.88393 -1.13722 0
M  V30 2779 H 258.871 3.5548 -3.12939 0
M  V30 2780 H 259.295 3.57291 -5.75041 0
M  V30 2781 H 263.937 3.08827 -2.88766 0
M  V30 2782 H 261.655 3.4051 -7.32857 0
M  V30 2783 H 265.241 2.99601 -4.98729 0
M  V30 2784 H 264.121 3.15432 -7.17964 0
M  V30 2785 N 261.624 0.925811 1.2754 0
M  V30 2786 C 262.572 0.413897 2.28888 0
M  V30 2787 C 263.566 -0.500779 1.61829 0
M  V30 2788 O 264.772 -0.38069 1.75928 0
M  V30 2789 H 261.147 0.115274 0.743112 0
M  V30 2790 H 263.118 1.28151 2.69481 0
M  V30 2791 C 261.867 -0.319792 3.46226 0
M  V30 2792 H 261.19 0.374846 3.98039 0
M  V30 2793 H 262.63 -0.642435 4.19105 0
M  V30 2794 C 261.089 -1.53209 3.00048 0
M  V30 2795 O 261.619 -2.6309 3.03557 0
M  V30 2796 N 259.825 -1.38326 2.55566 0
M  V30 2797 H 259.372 -0.489292 2.5291 0
M  V30 2798 H 259.33 -2.19564 2.25031 0
M  V30 2799 N 263.102 -1.41638 0.69111 0
M  V30 2800 C 264.032 -2.3347 0.037248 0
M  V30 2801 C 265.013 -1.51575 -0.771947 0
M  V30 2802 O 266.198 -1.80126 -0.72582 0
M  V30 2803 C 263.328 -3.35354 -0.903064 0
M  V30 2804 C 262.282 -4.27526 -0.201288 0
M  V30 2805 C 261.608 -5.19747 -1.25565 0
M  V30 2806 C 262.908 -5.13959 0.929689 0
M  V30 2807 H 264.602 -2.88397 0.804227 0
M  V30 2808 H 262.148 -1.38669 0.388189 0
M  V30 2809 H 264.101 -3.98519 -1.36969 0
M  V30 2810 H 262.825 -2.78767 -1.70166 0
M  V30 2811 H 261.484 -3.65779 0.245265 0
M  V30 2812 H 261.132 -4.59479 -2.04666 0
M  V30 2813 H 260.832 -5.8225 -0.791128 0
M  V30 2814 H 262.356 -5.85789 -1.72288 0
M  V30 2815 H 263.77 -5.70718 0.543546 0
M  V30 2816 H 262.167 -5.85379 1.32103 0
M  V30 2817 H 263.237 -4.51389 1.77133 0
M  V30 2818 N 264.58 -0.43555 -1.51462 0
M  V30 2819 C 265.543 0.365137 -2.26273 0
M  V30 2820 C 266.543 0.951227 -1.29647 0
M  V30 2821 O 267.733 0.825958 -1.53374 0
M  V30 2822 C 264.865 1.51645 -3.05314 0
M  V30 2823 H 266.058 -0.290474 -2.9849 0
M  V30 2824 H 263.611 -0.188676 -1.55157 0
M  V30 2825 H 264.346 2.20816 -2.3751 0
M  V30 2826 H 264.131 1.10238 -3.76284 0
M  V30 2827 H 265.621 2.08218 -3.61987 0
M  V30 2828 N 266.058 1.56714 -0.166846 0
M  V30 2829 C 267.006 2.19056 0.782123 0
M  V30 2830 C 268 1.15328 1.24079 0
M  V30 2831 O 269.206 1.33537 1.20697 0
M  V30 2832 H 265.581 0.70167 0.270486 0
M  V30 2833 H 267.552 2.97494 0.232322 0
M  V30 2834 C 266.301 2.84206 2.00306 0
M  V30 2835 H 265.624 3.63748 1.65914 0
M  V30 2836 H 267.064 3.31302 2.64604 0
M  V30 2837 C 265.523 1.83744 2.82382 0
M  V30 2838 O 266.053 1.32014 3.79388 0
M  V30 2839 N 264.259 1.52601 2.47308 0
M  V30 2840 H 263.806 1.9486 1.68485 0
M  V30 2841 H 263.764 0.856351 3.02513 0
M  V30 2842 N 267.536 -0.106894 1.57237 0
M  V30 2843 C 268.776 -0.818277 1.87306 0
M  V30 2844 C 269.14 -1.76474 0.756371 0
M  V30 2845 O 270.341 -2.5186 0.939155 0
M  V30 2846 C 268.612 -1.53806 3.22612 0
M  V30 2847 S 270.171 -2.28935 3.74345 0
M  V30 2848 H 266.989 -0.272862 0.656557 0
M  V30 2849 H 269.591 -0.075988 1.95352 0
M  V30 2850 H 268.295 -0.834951 4.01817 0
M  V30 2851 H 267.826 -2.32049 3.17674 0
M  V30 2852 H 269.841 -3.54871 3.46815 0
M  V30 2853 N 269.014 -1.53014 -0.377408 0
M  V30 2854 C 269.961 -1.78616 -1.46168 0
M  V30 2855 C 270.931 -0.629917 -1.53692 0
M  V30 2856 O 272.116 -0.870861 -1.69766 0
M  V30 2857 C 269.256 -1.97123 -2.8326 0
M  V30 2858 C 268.369 -3.24831 -2.84796 0
M  V30 2859 C 267.504 -3.33591 -4.13389 0
M  V30 2860 C 266.543 -4.55377 -4.09021 0
M  V30 2861 N 265.68 -4.61355 -5.29241 0
M  V30 2862 H 270.52 -2.71142 -1.23637 0
M  V30 2863 H 268.057 -1.34326 -0.599577 0
M  V30 2864 H 270.015 -2.05839 -3.62886 0
M  V30 2865 H 268.645 -1.07946 -3.04216 0
M  V30 2866 H 267.697 -3.25128 -1.97474 0
M  V30 2867 H 269.009 -4.14523 -2.77439 0
M  V30 2868 H 268.163 -3.41554 -5.01424 0
M  V30 2869 H 266.902 -2.41894 -4.23484 0
M  V30 2870 H 265.907 -4.47527 -3.19373 0
M  V30 2871 H 267.132 -5.48402 -4.00539 0
M  V30 2872 H 265.078 -3.72554 -5.39944 0
M  V30 2873 H 264.995 -5.44935 -5.24006 0
M  V30 2874 H 266.263 -4.73586 -6.19141 0
M  V30 2875 N 270.492 0.636531 -1.44174 0
M  V30 2876 C 271.422 1.76003 -1.53444 0
M  V30 2877 C 272.403 1.65619 -0.387841 0
M  V30 2878 O 273.588 1.84461 -0.607257 0
M  V30 2879 C 270.718 3.14511 -1.4731 0
M  V30 2880 C 269.672 3.39677 -2.60391 0
M  V30 2881 C 268.998 4.78159 -2.39308 0
M  V30 2882 C 270.298 3.32772 -4.02567 0
M  V30 2883 H 271.992 1.68501 -2.47483 0
M  V30 2884 H 269.538 0.809237 -1.19111 0
M  V30 2885 H 271.491 3.92878 -1.52397 0
M  V30 2886 H 270.215 3.22783 -0.49785 0
M  V30 2887 H 268.874 2.63688 -2.54684 0
M  V30 2888 H 268.522 4.83128 -1.39988 0
M  V30 2889 H 268.222 4.95956 -3.15122 0
M  V30 2890 H 269.746 5.58762 -2.46205 0
M  V30 2891 H 271.16 4.01051 -4.09672 0
M  V30 2892 H 269.557 3.62104 -4.7854 0
M  V30 2893 H 270.627 2.30669 -4.2652 0
M  V30 2894 N 271.97 1.30982 0.876444 0
M  V30 2895 C 272.917 1.18085 1.98304 0
M  V30 2896 C 273.887 0.0682263 1.6596 0
M  V30 2897 O 275.072 0.239937 1.89285 0
M  V30 2898 C 272.212 0.887475 3.33493 0
M  V30 2899 C 271.325 2.08281 3.78475 0
M  V30 2900 C 270.46 1.72678 5.0235 0
M  V30 2901 C 269.499 2.88657 5.39762 0
M  V30 2902 N 268.636 2.53292 6.54819 0
M  V30 2903 H 273.476 2.1275 2.08666 0
M  V30 2904 H 271.013 1.05839 1.02159 0
M  V30 2905 H 272.971 0.697961 4.1132 0
M  V30 2906 H 271.601 -0.022315 3.22792 0
M  V30 2907 H 270.653 2.3833 2.96484 0
M  V30 2908 H 271.965 2.95108 4.02135 0
M  V30 2909 H 271.119 1.50151 5.87826 0
M  V30 2910 H 269.858 0.830327 4.8058 0
M  V30 2911 H 268.863 3.1184 4.52809 0
M  V30 2912 H 270.088 3.79002 5.63502 0
M  V30 2913 H 268.034 1.66163 6.34607 0
M  V30 2914 H 267.951 3.3365 6.7839 0
M  V30 2915 H 269.219 2.34143 7.43503 0
M  V30 2916 N 273.449 -1.08991 1.13837 0
M  V30 2917 C 274.677 -1.85011 0.926202 0
M  V30 2918 C 275.092 -1.8135 -0.525127 0
M  V30 2919 O 274.449 -1.21287 -1.36366 0
M  V30 2920 C 274.5 -3.32802 1.41155 0
M  V30 2921 O 274.221 -3.36444 2.80601 0
M  V30 2922 C 275.722 -4.25649 1.23847 0
M  V30 2923 H 272.942 -0.584249 0.32999 0
M  V30 2924 H 275.486 -1.37688 1.51202 0
M  V30 2925 H 273.641 -3.77536 0.868631 0
M  V30 2926 H 274.055 -4.28657 3.02248 0
M  V30 2927 H 275.529 -5.27485 1.62675 0
M  V30 2928 H 276.006 -4.38828 0.18065 0
M  V30 2929 H 276.612 -3.86735 1.76964 0
M  V30 2930 N 274.927 -0.932562 -1.27047 0
M  V30 2931 C 275.875 -0.42603 -2.28665 0
M  V30 2932 C 276.869 0.49219 -1.62092 0
M  V30 2933 O 278.075 0.371355 -1.76128 0
M  V30 2934 H 274.45 -0.119213 -0.742491 0
M  V30 2935 H 276.421 -1.29579 -2.68797 0
M  V30 2936 C 275.17 0.301426 -3.46391 0
M  V30 2937 H 274.493 -0.39595 -3.97834 0
M  V30 2938 H 275.933 0.6202 -4.1944 0
M  V30 2939 C 274.392 1.51616 -3.00856 0
M  V30 2940 O 274.922 2.61476 -3.04948 0
M  V30 2941 N 273.128 1.36969 -2.56296 0
M  V30 2942 H 272.675 0.475873 -2.53166 0
M  V30 2943 H 272.633 2.18368 -2.26192 0
M  V30 2944 N 276.405 1.4127 -0.698611 0
M  V30 2945 C 277.355 2.27997 -0.0119836 0
M  V30 2946 C 278.339 1.42363 0.749765 0
M  V30 2947 O 279.531 1.65607 0.624758 0
M  V30 2948 C 276.66 3.30702 0.921458 0
M  V30 2949 C 275.746 4.23814 0.155796 0
M  V30 2950 N 276.137 4.98572 -0.852015 0
M  V30 2951 C 274.435 4.44284 0.390836 0
M  V30 2952 C 275.136 5.66744 -1.3106 0
M  V30 2953 N 274.112 5.39867 -0.635944 0
M  V30 2954 H 277.914 2.83232 -0.784649 0
M  V30 2955 H 275.428 1.53518 -0.529711 0
M  V30 2956 H 277.425 3.91661 1.42854 0
M  V30 2957 H 276.085 2.77028 1.69369 0
M  V30 2958 H 277.096 5.03024 -1.23235 0
M  V30 2959 H 273.773 4.01614 1.14071 0
M  V30 2960 H 275.163 6.36672 -2.14707 0
M  V30 2961 N 277.883 0.443576 1.51229 0
M  V30 2962 C 279.132 -0.122332 2.01329 0
M  V30 2963 C 279.445 -1.43237 1.33201 0
M  V30 2964 O 280.651 -2.0816 1.74304 0
M  V30 2965 C 279.107 -0.268551 3.58897 0
M  V30 2966 C 278.715 1.03142 4.35965 0
M  V30 2967 C 280.459 -0.787894 4.17124 0
M  V30 2968 C 278.366 0.850504 5.85252 0
M  V30 2969 H 277.296 -0.0494929 0.752374 0
M  V30 2970 H 279.947 0.574289 1.74282 0
M  V30 2971 H 278.329 -1.02832 3.82415 0
M  V30 2972 H 279.503 1.80001 4.24189 0
M  V30 2973 H 277.818 1.47977 3.89219 0
M  V30 2974 H 280.415 -0.939841 5.26375 0
M  V30 2975 H 280.758 -1.77201 3.76703 0
M  V30 2976 H 281.291 -0.0862669 3.97706 0
M  V30 2977 H 278.03 1.80718 6.30096 0
M  V30 2978 H 277.55 0.121825 5.99676 0
M  V30 2979 H 279.229 0.506163 6.45017 0
M  V30 2980 N 279.361 -1.56624 0.175154 0
M  V30 2981 C 280.609 -1.96609 -0.467885 0
M  V30 2982 C 280.93 -1.06238 -1.63519 0
M  V30 2983 O 280.2 -0.129523 -1.95471 0
M  V30 2984 H 278.78 -0.726008 -0.175845 0
M  V30 2985 H 281.442 -1.93195 0.257234 0
M  V30 2986 H 280.538 -3.00989 -0.825342 0
M  V30 2987 N 280.839 0.0985539 -1.57292 0
M  V30 2988 C 281.789 1.1261 -1.9825 0
M  V30 2989 C 282.773 1.35961 -0.860426 0
M  V30 2990 O 283.965 1.36711 -1.12424 0
M  V30 2991 C 281.094 2.44727 -2.40757 0
M  V30 2992 C 280.18 2.24764 -3.59642 0
M  V30 2993 N 280.571 1.74661 -4.74687 0
M  V30 2994 C 278.869 2.55344 -3.65672 0
M  V30 2995 C 279.57 1.68887 -5.56644 0
M  V30 2996 N 278.546 2.13976 -4.99715 0
M  V30 2997 H 282.348 0.731604 -2.84648 0
M  V30 2998 H 279.862 0.306029 -1.59491 0
M  V30 2999 H 281.859 3.19072 -2.68326 0
M  V30 3000 H 280.519 2.84917 -1.55733 0
M  V30 3001 H 281.53 1.43908 -4.97505 0
M  V30 3002 H 278.207 2.99081 -2.91302 0
M  V30 3003 H 279.597 1.3123 -6.5896 0
M  V30 3004 N 282.317 1.53212 0.369288 0
M  V30 3005 C 283.545 1.73119 1.13303 0
M  V30 3006 C 283.96 0.458455 1.83149 0
M  V30 3007 O 283.317 -0.568403 1.73423 0
M  V30 3008 C 283.368 2.89413 2.16616 0
M  V30 3009 O 283.089 4.11761 1.49614 0
M  V30 3010 C 284.59 3.21161 3.05566 0
M  V30 3011 H 281.81 0.579107 0.338934 0
M  V30 3012 H 284.354 1.99942 0.429338 0
M  V30 3013 H 282.509 2.64994 2.82589 0
M  V30 3014 H 282.923 4.76858 2.18419 0
M  V30 3015 H 284.397 4.05949 3.74045 0
M  V30 3016 H 284.874 2.36369 3.70171 0
M  V30 3017 H 285.48 3.47492 2.45213 0
M  V30 3018 N 283.795 -0.628877 1.44509 0
M  V30 3019 C 285.043 -1.38565 1.4712 0
M  V30 3020 C 285.364 -1.94712 0.105899 0
M  V30 3021 O 284.634 -1.75912 -0.862079 0
M  V30 3022 H 283.214 -0.514333 0.541729 0
M  V30 3023 H 285.876 -0.740018 1.80305 0
M  V30 3024 H 284.972 -2.21583 2.19789 0
M  V30 3025 N 285.273 -1.31445 -0.869486 0
M  V30 3026 C 286.503 -1.23942 -1.65294 0
M  V30 3027 C 286.911 0.197561 -1.88166 0
M  V30 3028 O 286.254 1.14019 -1.44033 0
M  V30 3029 C 286.316 -1.91385 -3.04322 0
M  V30 3030 C 285.98 -3.40726 -3.04557 0
M  V30 3031 C 286.977 -4.36464 -2.82481 0
M  V30 3032 C 284.662 -3.82425 -3.25663 0
M  V30 3033 C 286.656 -5.71876 -2.8149 0
M  V30 3034 C 284.343 -5.1795 -3.243 0
M  V30 3035 C 285.341 -6.12486 -3.02241 0
M  V30 3036 O 285.029 -7.45534 -3.00724 0
M  V30 3037 H 284.761 -0.429459 -0.522054 0
M  V30 3038 H 287.315 -1.73873 -1.0935 0
M  V30 3039 H 285.545 -1.36004 -3.61994 0
M  V30 3040 H 287.234 -1.77791 -3.64891 0
M  V30 3041 H 288 -4.05576 -2.65956 0
M  V30 3042 H 283.879 -3.09274 -3.41863 0
M  V30 3043 H 287.423 -6.45638 -2.64191 0
M  V30 3044 H 283.32 -5.48473 -3.40365 0
M  V30 3045 H 284.088 -7.54713 -3.16782 0
M  V30 3046 N 286.751 1.08385 -1.14413 0
M  V30 3047 C 287.681 2.17321 -0.854044 0
M  V30 3048 C 288.662 1.69024 0.191049 0
M  V30 3049 O 289.847 1.94141 0.0476779 0
M  V30 3050 C 286.977 3.45719 -0.330983 0
M  V30 3051 C 285.931 4.07409 -1.31155 0
M  V30 3052 C 285.257 5.30762 -0.64778 0
M  V30 3053 C 286.557 4.48665 -2.67388 0
M  V30 3054 H 288.251 2.41845 -1.76498 0
M  V30 3055 H 285.797 1.16233 -0.850051 0
M  V30 3056 H 287.75 4.21241 -0.115645 0
M  V30 3057 H 286.474 3.2075 0.615381 0
M  V30 3058 H 285.133 3.33919 -1.51306 0
M  V30 3059 H 284.781 5.02078 0.304398 0
M  V30 3060 H 284.481 5.72992 -1.30207 0
M  V30 3061 H 286.005 6.08998 -0.441972 0
M  V30 3062 H 287.419 5.15364 -2.51143 0
M  V30 3063 H 285.816 5.01814 -3.29093 0
M  V30 3064 H 286.886 3.60543 -3.24248 0
M  V30 3065 N 288.23 0.939286 1.26551 0
M  V30 3066 C 289.178 0.43815 2.28436 0
M  V30 3067 C 290.172 -0.483587 1.62351 0
M  V30 3068 O 291.378 -0.362009 1.76322 0
M  V30 3069 H 287.753 0.123149 0.741848 0
M  V30 3070 H 289.724 1.31002 2.68106 0
M  V30 3071 C 288.473 -0.283052 3.46546 0
M  V30 3072 H 287.796 0.417043 3.97619 0
M  V30 3073 H 289.236 -0.597948 4.19763 0
M  V30 3074 C 287.695 -1.50018 3.01656 0
M  V30 3075 O 288.225 -2.59855 3.0633 0
M  V30 3076 N 286.431 -1.35608 2.57019 0
M  V30 3077 H 285.978 -0.46244 2.53415 0
M  V30 3078 H 285.936 -2.17165 2.27347 0
M  V30 3079 N 289.708 -1.40897 0.706093 0
M  V30 3080 C 290.936 -2.05373 0.250887 0
M  V30 3081 C 291.351 -1.53172 -1.10381 0
M  V30 3082 O 290.708 -0.684305 -1.69185 0
M  V30 3083 C 290.759 -3.6088 0.211571 0
M  V30 3084 O 290.48 -4.11153 1.51276 0
M  V30 3085 C 291.981 -4.42517 -0.263346 0
M  V30 3086 H 289.201 -0.66115 0.114552 0
M  V30 3087 H 291.745 -1.80479 0.961635 0
M  V30 3088 H 289.9 -3.84777 -0.450073 0
M  V30 3089 H 290.314 -5.05279 1.40689 0
M  V30 3090 H 291.788 -5.51479 -0.239718 0
M  V30 3091 H 292.265 -4.19396 -1.30397 0
M  V30 3092 H 292.871 -4.23708 0.367677 0
M  V30 3093 N 291.186 -0.45159 -1.50991 0
M  V30 3094 C 292.432 0.110237 -2.025 0
M  V30 3095 C 292.765 1.41109 -1.33424 0
M  V30 3096 O 292.04 1.89135 -0.453659 0
M  V30 3097 C 292.323 0.314271 -3.58726 0
M  V30 3098 C 292.176 -1.00623 -4.38401 0
M  V30 3099 C 293.495 1.07767 -4.26702 0
M  V30 3100 H 290.614 0.0385897 -0.735989 0
M  V30 3101 H 293.256 -0.593374 -1.80497 0
M  V30 3102 H 291.406 0.913601 -3.77605 0
M  V30 3103 H 293.078 -1.64064 -4.31139 0
M  V30 3104 H 291.321 -1.6075 -4.02917 0
M  V30 3105 H 291.992 -0.817341 -5.45915 0
M  V30 3106 H 294.468 0.56986 -4.12179 0
M  V30 3107 H 293.344 1.18921 -5.35863 0
M  V30 3108 H 293.605 2.10939 -3.88532 0
M  V30 3109 N 292.664 1.56529 -0.183458 0
M  V30 3110 C 293.892 2.01623 0.464285 0
M  V30 3111 C 294.307 1.06366 1.55986 0
M  V30 3112 O 293.664 0.0665398 1.82379 0
M  V30 3113 C 293.715 3.46475 1.03139 0
M  V30 3114 O 293.436 4.38095 -0.0204675 0
M  V30 3115 C 294.937 4.0703 1.75617 0
M  V30 3116 H 292.157 0.660596 0.117704 0
M  V30 3117 H 294.701 2.02451 -0.288751 0
M  V30 3118 H 292.856 3.46383 1.73486 0
M  V30 3119 H 293.27 5.22973 0.399952 0
M  V30 3120 H 294.744 5.10271 2.10542 0
M  V30 3121 H 295.221 3.49819 2.65563 0
M  V30 3122 H 295.827 4.1086 1.09882 0
M  V30 3123 N 294.142 -0.090211 1.57342 0
M  V30 3124 C 295.388 -0.793982 1.86611 0
M  V30 3125 C 295.721 -1.78142 0.773252 0
M  V30 3126 O 294.996 -1.93271 -0.218304 0
M  V30 3127 C 295.279 -1.51839 3.26523 0
M  V30 3128 C 295.132 -0.548609 4.46442 0
M  V30 3129 C 296.451 -2.46779 3.64401 0
M  V30 3130 H 293.57 -0.287186 0.678744 0
M  V30 3131 H 296.212 -0.0575076 1.89913 0
M  V30 3132 H 294.362 -2.14617 3.23839 0
M  V30 3133 H 296.034 0.0725513 4.61243 0
M  V30 3134 H 294.277 0.137614 4.33582 0
M  V30 3135 H 294.948 -1.09271 5.41076 0
M  V30 3136 H 297.424 -1.94089 3.68061 0
M  V30 3137 H 296.3 -2.94479 4.63221 0
M  V30 3138 H 296.561 -3.30758 2.93346 0
M  V30 3139 N 295.62 -1.53406 -0.361157 0
M  V30 3140 C 296.845 -1.74024 -1.12829 0
M  V30 3141 C 297.27 -0.470069 -1.82132 0
M  V30 3142 O 296.628 0.57619 -1.719 0
M  V30 3143 C 296.676 -2.90903 -2.13091 0
M  V30 3144 O 295.78 -2.59821 -3.20261 0
M  V30 3145 H 295.121 -0.577804 -0.327168 0
M  V30 3146 H 297.651 -2.00307 -0.41693 0
M  V30 3147 H 297.661 -3.17194 -2.56616 0
M  V30 3148 H 296.336 -3.83034 -1.62042 0
M  V30 3149 H 294.913 -2.44362 -2.81677 0
M  V30 3150 N 297.098 0.621204 -1.44841 0
M  V30 3151 C 298.509 1.20298 -1.42777 0
M  V30 3152 C 298.86 1.95639 -0.148259 0
M  V30 3153 O 297.985 2.02955 0.750892 0
M  V30 3154 C 298.58 2.1882 -2.58657 0
M  V30 3155 C 297.139 2.72403 -2.59756 0
M  V30 3156 C 296.286 1.4757 -2.34773 0
M  V30 3157 H 299.237 0.411297 -1.53278 0
M  V30 3158 H 299.258 3.01607 -2.31977 0
M  V30 3159 H 298.77 1.63957 -3.51766 0
M  V30 3160 H 296.871 3.31242 -1.70615 0
M  V30 3161 H 296.984 3.17765 -3.58556 0
M  V30 3162 H 295.348 1.76051 -1.8406 0
M  V30 3163 H 296.131 0.945954 -3.3001 0
M  V30 3164 N 298.576 1.31904 0.862503 0
M  V30 3165 C 299.853 1.12644 1.59908 0
M  V30 3166 C 300.233 -0.316104 2.0872 0
M  V30 3167 O 299.581 -1.31145 1.87118 0
M  V30 3168 C 299.791 2.1472 2.7513 0
M  V30 3169 C 301.139 2.47637 3.44907 0
M  V30 3170 O 302.163 2.13205 2.85346 0
M  V30 3171 O 301.022 3.06632 4.52371 0
M  V30 3172 H 298.116 0.43416 0.703871 0
M  V30 3173 H 300.662 1.43408 0.907314 0
M  V30 3174 H 299.434 3.1172 2.3653 0
M  V30 3175 H 299.057 1.84905 3.51989 0
M  V30 3176 N 300.054 -1.07777 1.14986 0
M  V30 3177 C 301.302 -1.79934 0.920235 0
M  V30 3178 C 301.623 -1.86955 -0.554336 0
M  V30 3179 O 300.893 -1.36731 -1.40291 0
M  V30 3180 H 299.473 -0.666424 0.337473 0
M  V30 3181 H 302.135 -1.3027 1.44968 0
M  V30 3182 H 301.231 -2.82539 1.32583 0
M  V30 3183 N 301.532 -0.945985 -1.26051 0
M  V30 3184 C 302.757 -0.612525 -1.98149 0
M  V30 3185 C 303.182 0.806623 -1.69927 0
M  V30 3186 O 302.54 1.54411 -0.950108 0
M  V30 3187 C 302.588 -0.866981 -3.50023 0
M  V30 3188 O 301.692 0.0585333 -4.12358 0
M  V30 3189 H 301.033 -0.23379 -0.621481 0
M  V30 3190 H 303.563 -1.27023 -1.60395 0
M  V30 3191 H 303.573 -0.789792 -4.00283 0
M  V30 3192 H 302.248 -1.90135 -3.69894 0
M  V30 3193 H 300.825 -0.0701241 -3.72834 0
M  V30 3194 N 303.011 1.40521 -0.713556 0
M  V30 3195 C 303.941 2.33381 -0.0743864 0
M  V30 3196 C 304.922 1.52784 0.747735 0
M  V30 3197 O 306.107 1.81258 0.697071 0
M  V30 3198 C 303.237 3.36748 0.849598 0
M  V30 3199 C 302.191 4.27793 0.133247 0
M  V30 3200 C 301.517 5.21679 1.17281 0
M  V30 3201 C 302.817 5.12415 -1.01134 0
M  V30 3202 H 304.511 2.87081 -0.850007 0
M  V30 3203 H 302.057 1.38034 -0.410201 0
M  V30 3204 H 304.01 4.00648 1.30612 0
M  V30 3205 H 302.734 2.81439 1.65709 0
M  V30 3206 H 301.393 3.65342 -0.303426 0
M  V30 3207 H 301.041 4.62677 1.9733 0
M  V30 3208 H 300.741 5.83435 0.698397 0
M  V30 3209 H 302.265 5.88456 1.62947 0
M  V30 3210 H 303.679 5.69781 -0.634274 0
M  V30 3211 H 302.076 5.83203 -1.41399 0
M  V30 3212 H 303.146 4.48514 -1.84292 0
M  V30 3213 N 304.489 0.459591 1.5075 0
M  V30 3214 C 305.729 -0.09824 2.04164 0
M  V30 3215 C 306.093 -1.3801 1.33481 0
M  V30 3216 O 307.294 -2.01959 1.77387 0
M  V30 3217 C 305.565 -0.289467 3.56226 0
M  V30 3218 S 307.124 -0.807507 4.31306 0
M  V30 3219 H 303.942 -0.0213845 0.710678 0
M  V30 3220 H 306.544 0.624098 1.85271 0
M  V30 3221 H 305.248 0.649461 4.05229 0
M  V30 3222 H 304.779 -1.03825 3.79452 0
M  V30 3223 H 306.794 -2.0824 4.50389 0
M  V30 3224 N 305.967 -1.56429 0.191757 0
M  V30 3225 C 306.93 -2.17707 -0.716688 0
M  V30 3226 C 307.93 -1.13061 -1.14341 0
M  V30 3227 O 309.12 -1.38464 -1.05704 0
M  V30 3228 C 306.252 -2.77644 -1.97804 0
M  V30 3229 H 307.445 -2.99342 -0.1829 0
M  V30 3230 H 304.998 -1.56193 -0.0578566 0
M  V30 3231 H 305.733 -1.99799 -2.55443 0
M  V30 3232 H 305.518 -3.54246 -1.68083 0
M  V30 3233 H 307.008 -3.24708 -2.62592 0
M  V30 3234 N 307.445 0.0818655 -1.57387 0
M  V30 3235 C 308.67 0.799946 -1.91352 0
M  V30 3236 C 309.095 1.70833 -0.787258 0
M  V30 3237 O 308.453 1.79419 0.26048 0
M  V30 3238 C 308.501 1.57812 -3.24234 0
M  V30 3239 O 307.605 2.68806 -3.12757 0
M  V30 3240 H 306.946 0.21891 -0.626877 0
M  V30 3241 H 309.476 0.0531256 -2.04531 0
M  V30 3242 H 309.486 1.95952 -3.57864 0
M  V30 3243 H 308.161 0.911548 -4.05788 0
M  V30 3244 H 306.738 2.33597 -2.90666 0
M  V30 3245 N 308.923 1.53595 0.353017 0
M  V30 3246 C 310.171 1.70049 1.09215 0
M  V30 3247 C 310.492 0.461406 1.89463 0
M  V30 3248 O 309.762 -0.524633 1.88744 0
M  V30 3249 H 308.342 0.626912 0.40619 0
M  V30 3250 H 311.004 1.90822 0.396585 0
M  V30 3251 H 310.1 2.56718 1.77488 0
M  V30 3252 N 310.401 -0.613514 1.45168 0
M  V30 3253 C 311.649 -1.36997 1.48581 0
M  V30 3254 C 311.97 -1.94589 0.126545 0
M  V30 3255 O 311.24 -1.76816 -0.843372 0
M  V30 3256 H 309.82 -0.508558 0.547154 0
M  V30 3257 H 312.482 -0.720853 1.81079 0
M  V30 3258 H 311.578 -2.1924 2.22127 0
M  V30 3259 N 311.879 -1.3236 -0.855495 0
M  V30 3260 C 312.826 -1.21225 -1.964 0
M  V30 3261 C 313.796 -0.0946204 -1.6583 0
M  V30 3262 O 314.981 -0.27002 -1.8888 0
M  V30 3263 C 312.121 -0.940419 -3.32039 0
M  V30 3264 C 311.234 -2.14276 -3.75113 0
M  V30 3265 C 310.369 -1.80648 -4.9954 0
M  V30 3266 C 309.408 -2.97208 -5.35102 0
M  V30 3267 N 308.545 -2.63678 -6.50706 0
M  V30 3268 H 313.385 -2.16042 -2.05255 0
M  V30 3269 H 310.922 -1.07451 -1.00463 0
M  V30 3270 H 312.88 -0.763311 -4.10158 0
M  V30 3271 H 311.51 -0.0290413 -3.22787 0
M  V30 3272 H 310.562 -2.43017 -2.92655 0
M  V30 3273 H 311.874 -3.01468 -3.97389 0
M  V30 3274 H 311.028 -1.59484 -5.85363 0
M  V30 3275 H 309.767 -0.906678 -4.79198 0
M  V30 3276 H 308.772 -3.19004 -4.47791 0
M  V30 3277 H 309.997 -3.87918 -5.57401 0
M  V30 3278 H 307.943 -1.76238 -6.31883 0
M  V30 3279 H 307.86 -3.444 -6.72997 0
M  V30 3280 H 309.128 -2.45942 -7.39684 0
M  V30 3281 N 313.357 1.07166 -1.15556 0
M  V30 3282 C 314.634 1.76546 -0.842069 0
M  V30 3283 C 315.014 2.00453 0.661939 0
M  V30 3284 O 314.362 1.62452 1.60691 0
M  V30 3285 C 314.572 3.07266 -1.65495 0
M  V30 3286 C 315.92 3.81578 -1.86234 0
M  V30 3287 O 316.944 3.17083 -1.62287 0
M  V30 3288 O 315.803 4.97419 -2.26355 0
M  V30 3289 H 312.897 0.766756 -0.309862 0
M  V30 3290 H 315.443 1.13514 -1.26145 0
M  V30 3291 H 314.215 2.85494 -2.67598 0
M  V30 3292 H 313.838 3.7803 -1.23203 0
M  V30 3293 N 314.835 0.952656 1.25548 0
M  V30 3294 C 316.083 0.605176 1.92826 0
M  V30 3295 C 316.404 -0.860261 1.74999 0
M  V30 3296 O 315.674 -1.6125 1.11244 0
M  V30 3297 H 314.254 0.220832 0.713612 0
M  V30 3298 H 316.916 1.21047 1.52754 0
M  V30 3299 H 316.012 0.832798 3.00784 0
M  V30 3300 N 316.313 -1.40141 0.720998 0
M  V30 3301 C 317.245 -2.29177 0.0324669 0
M  V30 3302 C 318.258 -1.46105 -0.718126 0
M  V30 3303 O 319.447 -1.69335 -0.564608 0
M  V30 3304 C 316.547 -3.24473 -0.978292 0
M  V30 3305 C 315.72 -4.36423 -0.292115 0
M  V30 3306 C 314.779 -5.12122 -1.20901 0
M  V30 3307 O 313.805 -5.64981 -0.691766 0
M  V30 3308 N 315.007 -5.21992 -2.53978 0
M  V30 3309 H 317.772 -2.88909 0.796984 0
M  V30 3310 H 315.333 -1.51569 0.569068 0
M  V30 3311 H 317.325 -3.71987 -1.59398 0
M  V30 3312 H 315.895 -2.65871 -1.64413 0
M  V30 3313 H 315.115 -3.90967 0.503847 0
M  V30 3314 H 316.403 -5.08467 0.183971 0
M  V30 3315 H 315.801 -4.8054 -2.98493 0
M  V30 3316 H 314.358 -5.72995 -3.10677 0
M  V30 3317 N 317.792 -0.46758 -1.50504 0
M  V30 3318 C 318.755 0.317059 -2.26996 0
M  V30 3319 C 319.755 0.923513 -1.31635 0
M  V30 3320 O 320.945 0.793239 -1.55091 0
M  V30 3321 C 318.077 1.45134 -3.08462 0
M  V30 3322 H 319.27 -0.353723 -2.97807 0
M  V30 3323 H 316.823 -0.221545 -1.54722 0
M  V30 3324 H 317.558 2.15728 -2.4214 0
M  V30 3325 H 317.343 1.02232 -3.78538 0
M  V30 3326 H 318.833 2.00493 -3.66323 0
M  V30 3327 N 319.27 1.56325 -0.20005 0
M  V30 3328 C 320.203 2.15234 0.758267 0
M  V30 3329 C 321.181 1.09046 1.20614 0
M  V30 3330 O 322.365 1.37186 1.29276 0
M  V30 3331 C 319.492 2.71524 2.02466 0
M  V30 3332 C 318.538 3.90345 1.71852 0
M  V30 3333 S 319.371 5.28513 0.862249 0
M  V30 3334 C 320.527 5.88227 2.13868 0
M  V30 3335 H 320.76 2.96183 0.2575 0
M  V30 3336 H 318.293 1.54393 0.0150099 0
M  V30 3337 H 320.251 3.04598 2.75191 0
M  V30 3338 H 318.912 1.90607 2.49655 0
M  V30 3339 H 318.105 4.28158 2.65888 0
M  V30 3340 H 317.707 3.58306 1.07205 0
M  V30 3341 H 319.999 6.02891 3.09076 0
M  V30 3342 H 320.942 6.84714 1.80479 0
M  V30 3343 H 321.35 5.16874 2.2694 0
M  V30 3344 N 320.748 -0.0735177 1.57428 0
M  V30 3345 C 321.678 -1.0879 2.06608 0
M  V30 3346 C 322.659 -1.40473 0.959237 0
M  V30 3347 O 323.844 -1.5013 1.23185 0
M  V30 3348 C 320.974 -2.40183 2.50857 0
M  V30 3349 C 319.928 -2.22858 3.65402 0
M  V30 3350 C 319.254 -3.59619 3.957 0
M  V30 3351 C 320.554 -1.65123 4.95511 0
M  V30 3352 H 322.248 -0.678673 2.91607 0
M  V30 3353 H 319.794 -0.325013 1.40284 0
M  V30 3354 H 321.747 -3.11437 2.83874 0
M  V30 3355 H 320.471 -2.83083 1.62885 0
M  V30 3356 H 319.13 -1.54045 3.32664 0
M  V30 3357 H 318.778 -4.00086 3.04861 0
M  V30 3358 H 318.478 -3.48866 4.72828 0
M  V30 3359 H 320.002 -4.32306 4.31212 0
M  V30 3360 H 321.416 -2.26241 5.26771 0
M  V30 3361 H 319.813 -1.65071 5.7695 0
M  V30 3362 H 320.883 -0.612559 4.81015 0
M  V30 3363 N 322.226 -1.5378 -0.344866 0
M  V30 3364 C 323.472 -1.72158 -1.0832 0
M  V30 3365 C 323.827 -0.478218 -1.86362 0
M  V30 3366 O 323.12 0.529152 -1.84148 0
M  V30 3367 C 323.314 -2.92407 -2.05506 0
M  V30 3368 C 323.143 -4.28318 -1.37017 0
M  V30 3369 C 321.913 -4.92832 -1.11558 0
M  V30 3370 C 324.111 -5.08086 -0.797071 0
M  V30 3371 N 322.093 -6.12619 -0.396358 0
M  V30 3372 C 323.464 -6.1965 -0.208336 0
M  V30 3373 C 325.519 -4.92986 -0.697787 0
M  V30 3374 C 324.222 -7.17763 0.470023 0
M  V30 3375 C 326.248 -5.91391 -0.033171 0
M  V30 3376 C 325.61 -7.02292 0.544599 0
M  V30 3377 H 321.709 -0.683017 -0.380805 0
M  V30 3378 H 324.293 -1.91211 -0.366961 0
M  V30 3379 H 322.464 -2.74857 -2.74423 0
M  V30 3380 H 324.196 -2.9951 -2.72169 0
M  V30 3381 H 320.951 -4.52362 -1.40234 0
M  V30 3382 H 321.375 -6.7698 -0.0515119 0
M  V30 3383 H 326.017 -4.07414 -1.13022 0
M  V30 3384 H 323.735 -8.0291 0.914351 0
M  V30 3385 H 327.321 -5.81784 0.0430009 0
M  V30 3386 H 326.201 -7.77129 1.05073 0
M  V30 3387 N 323.704 0.605807 -1.45491 0
M  V30 3388 C 324.981 1.36522 -1.40075 0
M  V30 3389 C 325.361 2.10976 -0.0722744 0
M  V30 3390 O 324.709 2.08007 0.945808 0
M  V30 3391 C 324.919 2.31056 -2.61561 0
M  V30 3392 C 326.267 2.93608 -3.06724 0
M  V30 3393 O 327.291 2.41376 -2.61946 0
M  V30 3394 O 326.15 3.88421 -3.84437 0
M  V30 3395 H 323.244 0.612248 -0.555951 0
M  V30 3396 H 325.79 0.628747 -1.57623 0
M  V30 3397 H 324.562 1.75311 -3.49831 0
M  V30 3398 H 324.185 3.12081 -2.46356 0
M  V30 3399 N 325.182 1.32811 0.848464 0
M  V30 3400 C 326.112 1.24882 1.97299 0
M  V30 3401 C 327.093 0.131357 1.69592 0
M  V30 3402 O 328.278 0.319553 1.91553 0
M  V30 3403 C 325.408 0.97746 3.33261 0
M  V30 3404 C 324.362 2.05682 3.75338 0
M  V30 3405 C 323.688 1.63777 5.09 0
M  V30 3406 C 324.988 3.47254 3.90144 0
M  V30 3407 H 326.682 2.18966 2.04191 0
M  V30 3408 H 324.228 1.05413 0.981029 0
M  V30 3409 H 326.181 0.908513 4.1149 0
M  V30 3410 H 324.905 0.000980011 3.266 0
M  V30 3411 H 323.564 2.11603 2.99366 0
M  V30 3412 H 323.212 0.648569 4.98801 0
M  V30 3413 H 322.912 2.36 5.38124 0
M  V30 3414 H 324.436 1.5833 5.89715 0
M  V30 3415 H 325.85 3.43888 4.58709 0
M  V30 3416 H 324.247 4.1788 4.30693 0
M  V30 3417 H 325.317 3.86462 2.92874 0
M  V30 3418 N 326.66 -1.06551 1.16123 0
M  V30 3419 C 327.608 -2.16063 0.861371 0
M  V30 3420 C 328.602 -1.6856 -0.168517 0
M  V30 3421 O 329.808 -1.79986 -0.0227579 0
M  V30 3422 H 326.183 -0.705278 0.260934 0
M  V30 3423 H 328.154 -2.38567 1.79244 0
M  V30 3424 C 326.903 -3.45661 0.376018 0
M  V30 3425 H 326.226 -3.82604 1.15992 0
M  V30 3426 H 327.666 -4.23504 0.204951 0
M  V30 3427 C 326.125 -3.24546 -0.903954 0
M  V30 3428 O 326.655 -3.49865 -1.97377 0
M  V30 3429 N 324.861 -2.77992 -0.846679 0
M  V30 3430 H 324.408 -2.57589 0.0241017 0
M  V30 3431 H 324.366 -2.64244 -1.70359 0
M  V30 3432 N 328.138 -0.959301 -1.25041 0
M  V30 3433 C 329.048 -0.489994 -2.29426 0
M  V30 3434 C 330.064 0.444944 -1.68215 0
M  V30 3435 O 331.24 0.320046 -1.98841 0
M  V30 3436 C 328.305 0.220309 -3.45999 0
M  V30 3437 C 327.366 -0.753418 -4.22637 0
M  V30 3438 C 326.599 -0.076918 -5.33645 0
M  V30 3439 O 326.822 1.13649 -5.58963 0
M  V30 3440 O 325.756 -0.764824 -5.97021 0
M  V30 3441 H 329.582 -1.35755 -2.71669 0
M  V30 3442 H 327.167 -0.725961 -1.30576 0
M  V30 3443 H 329.049 0.619677 -4.16819 0
M  V30 3444 H 327.724 1.06296 -3.0575 0
M  V30 3445 H 326.631 -1.20308 -3.54227 0
M  V30 3446 H 327.964 -1.56423 -4.66683 0
M  V30 3447 N 329.616 1.39756 -0.72842 0
M  V30 3448 C 330.864 2.00248 -0.272946 0
M  V30 3449 C 331.185 1.58077 1.14178 0
M  V30 3450 O 330.455 0.826014 1.77634 0
M  V30 3451 H 329.035 0.740554 -0.0979247 0
M  V30 3452 H 331.697 1.70903 -0.936912 0
M  V30 3453 H 330.793 3.10495 -0.316142 0
M  V30 3454 N 331.094 0.475555 1.50254 0
M  V30 3455 C 332.041 -0.316293 2.28622 0
M  V30 3456 C 333.011 -0.983227 1.33873 0
M  V30 3457 O 334.196 -0.994805 1.62814 0
M  V30 3458 C 331.336 -1.38975 3.1588 0
M  V30 3459 C 330.449 -0.737146 4.25664 0
M  V30 3460 C 329.584 -1.78887 5.00173 0
M  V30 3461 C 328.623 -1.11676 6.01826 0
M  V30 3462 N 327.76 -2.11154 6.69596 0
M  V30 3463 H 332.6 0.358297 2.95838 0
M  V30 3464 H 330.137 0.188541 1.45887 0
M  V30 3465 H 332.095 -2.02383 3.64825 0
M  V30 3466 H 330.725 -2.03344 2.50701 0
M  V30 3467 H 329.777 0.0096065 3.80399 0
M  V30 3468 H 331.089 -0.206816 4.98371 0
M  V30 3469 H 330.243 -2.49865 5.52859 0
M  V30 3470 H 328.982 -2.35302 4.27182 0
M  V30 3471 H 327.987 -0.392633 5.48396 0
M  V30 3472 H 329.212 -0.55945 6.76792 0
M  V30 3473 H 327.158 -2.66577 5.99394 0
M  V30 3474 H 327.075 -1.63118 7.38193 0
M  V30 3475 H 328.343 -2.81497 7.26897 0
M  V30 3476 N 332.573 -1.56217 0.208337 0
M  V30 3477 C 333.523 -2.16324 -0.720281 0
M  V30 3478 C 334.507 -1.10775 -1.16695 0
M  V30 3479 O 335.699 -1.36801 -1.12314 0
M  V30 3480 C 332.828 -2.83644 -1.93393 0
M  V30 3481 C 331.914 -3.96401 -1.50755 0
M  V30 3482 N 332.305 -4.99546 -0.792937 0
M  V30 3483 C 330.603 -4.08246 -1.79585 0
M  V30 3484 C 331.304 -5.78828 -0.577364 0
M  V30 3485 N 330.28 -5.31723 -1.1301 0
M  V30 3486 H 334.082 -2.93432 -0.165725 0
M  V30 3487 H 331.596 -1.62397 0.00906463 0
M  V30 3488 H 333.593 -3.25107 -2.60981 0
M  V30 3489 H 332.253 -2.08027 -2.49308 0
M  V30 3490 H 333.264 -5.15967 -0.447004 0
M  V30 3491 H 329.941 -3.4377 -2.36915 0
M  V30 3492 H 331.331 -6.71899 -0.00952956 0
M  V30 3493 N 334.051 0.0651679 -1.57465 0
M  V30 3494 C 334.981 1.07693 -2.07182 0
M  V30 3495 C 335.962 1.39962 -0.966673 0
M  V30 3496 O 337.147 1.49475 -1.2398 0
M  V30 3497 C 334.277 2.3885 -2.52127 0
M  V30 3498 C 333.231 2.20917 -3.66579 0
M  V30 3499 C 332.557 3.57515 -3.97601 0
M  V30 3500 C 333.857 1.62493 -4.9638 0
M  V30 3501 H 335.551 0.663199 -2.91962 0
M  V30 3502 H 333.097 0.317569 -1.40455 0
M  V30 3503 H 335.05 3.09928 -2.85522 0
M  V30 3504 H 333.774 2.82215 -1.64384 0
M  V30 3505 H 332.433 1.52279 -3.33477 0
M  V30 3506 H 332.081 3.98463 -3.06979 0
M  V30 3507 H 331.781 3.46353 -4.74672 0
M  V30 3508 H 333.305 4.30013 -4.33499 0
M  V30 3509 H 334.719 2.23445 -5.27963 0
M  V30 3510 H 333.116 1.62009 -5.77818 0
M  V30 3511 H 334.186 0.587041 -4.81333 0
M  V30 3512 N 335.529 1.53961 0.336706 0
M  V30 3513 C 336.759 1.75229 1.09446 0
M  V30 3514 C 337.167 0.494602 1.82621 0
M  V30 3515 O 336.51 -0.543764 1.75468 0
M  V30 3516 C 336.572 2.88288 2.1478 0
M  V30 3517 C 336.236 4.27656 1.6112 0
M  V30 3518 C 337.233 5.08981 1.0599 0
M  V30 3519 C 334.918 4.74161 1.6576 0
M  V30 3520 C 336.912 6.34916 0.562129 0
M  V30 3521 C 334.599 6.00067 1.15595 0
M  V30 3522 C 335.597 6.80278 0.609147 0
M  V30 3523 O 335.285 8.03818 0.114999 0
M  V30 3524 H 335.017 0.588881 0.331956 0
M  V30 3525 H 337.571 2.01614 0.392566 0
M  V30 3526 H 335.801 2.57443 2.88548 0
M  V30 3527 H 337.49 2.97461 2.76174 0
M  V30 3528 H 338.256 4.74213 1.01722 0
M  V30 3529 H 334.135 4.11781 2.07261 0
M  V30 3530 H 337.679 6.9747 0.134668 0
M  V30 3531 H 333.576 6.3433 1.19566 0
M  V30 3532 H 334.344 8.18172 0.231651 0
M  V30 3533 N 337.007 -0.598083 1.45811 0
M  V30 3534 C 338.235 -1.38322 1.53866 0
M  V30 3535 C 338.65 -1.87992 0.174479 0
M  V30 3536 O 338.007 -1.62756 -0.825627 0
M  V30 3537 C 338.058 -2.58125 2.53089 0
M  V30 3538 O 337.779 -2.10516 3.84206 0
M  V30 3539 C 339.28 -3.50869 2.70935 0
M  V30 3540 H 336.5 -0.423093 0.520801 0
M  V30 3541 H 339.044 -0.728527 1.91083 0
M  V30 3542 H 337.199 -3.19615 2.18917 0
M  V30 3543 H 337.613 -2.88425 4.38077 0
M  V30 3544 H 339.087 -4.31451 3.44317 0
M  V30 3545 H 339.564 -4.01822 1.77301 0
M  V30 3546 H 340.17 -2.95225 3.06141 0
M  V30 3547 N 338.485 -1.33259 -0.841409 0
M  V30 3548 C 339.415 -1.25926 -1.96634 0
M  V30 3549 C 340.396 -0.140349 -1.6952 0
M  V30 3550 O 341.581 -0.329707 -1.91381 0
M  V30 3551 C 338.711 -0.99512 -3.32738 0
M  V30 3552 C 337.665 -2.0767 -3.74242 0
M  V30 3553 C 336.991 -1.66474 -5.08125 0
M  V30 3554 C 338.291 -3.49318 -3.88297 0
M  V30 3555 H 339.985 -2.20046 -2.03027 0
M  V30 3556 H 337.531 -1.05931 -0.975425 0
M  V30 3557 H 339.484 -0.930323 -4.11002 0
M  V30 3558 H 338.208 -0.0183004 -3.26595 0
M  V30 3559 H 336.867 -2.13187 -2.98239 0
M  V30 3560 H 336.515 -0.675012 -4.9845 0
M  V30 3561 H 336.215 -2.3885 -5.36865 0
M  V30 3562 H 337.739 -1.61455 -5.88867 0
M  V30 3563 H 339.153 -3.46316 -4.56879 0
M  V30 3564 H 337.55 -4.20158 -4.28471 0
M  V30 3565 H 338.62 -3.8801 -2.9082 0
M  V30 3566 N 339.963 1.05934 -1.16686 0
M  V30 3567 C 341.24 1.75643 -0.860747 0
M  V30 3568 C 341.62 2.01144 0.640641 0
M  V30 3569 O 340.968 1.64147 1.58959 0
M  V30 3570 C 341.178 3.05493 -1.68745 0
M  V30 3571 C 342.526 3.79581 -1.90271 0
M  V30 3572 O 343.55 3.15344 -1.65641 0
M  V30 3573 O 342.409 4.9499 -2.31618 0
M  V30 3574 H 339.503 0.763426 -0.317977 0
M  V30 3575 H 342.049 1.1217 -1.27342 0
M  V30 3576 H 340.821 2.8264 -2.70611 0
M  V30 3577 H 340.444 3.76702 -1.27206 0
M  V30 3578 N 341.441 0.965919 1.2453 0
M  V30 3579 C 342.689 0.625593 1.92174 0
M  V30 3580 C 343.01 -0.841652 1.75901 0
M  V30 3581 O 342.28 -1.60061 1.12948 0
M  V30 3582 H 340.86 0.228388 0.71123 0
M  V30 3583 H 343.522 1.2266 1.51461 0
M  V30 3584 H 342.618 0.864653 2.99884 0
M  V30 3585 N 342.919 -1.39368 0.735821 0
M  V30 3586 C 344.167 -2.00101 0.283562 0
M  V30 3587 C 344.488 -1.5868 -1.13338 0
M  V30 3588 O 343.758 -0.835423 -1.77193 0
M  V30 3589 H 342.338 -0.740024 0.101851 0
M  V30 3590 H 345 -1.70404 0.945962 0
M  V30 3591 H 344.096 -3.10323 0.332604 0
M  V30 3592 N 344.397 -0.483516 -1.5 0
M  V30 3593 C 345.674 0.129337 -1.95172 0
M  V30 3594 C 346.054 1.55802 -1.4244 0
M  V30 3595 O 345.402 2.19625 -0.630649 0
M  V30 3596 C 345.612 0.0599251 -3.48949 0
M  V30 3597 C 346.96 0.242617 -4.23906 0
M  V30 3598 O 347.984 0.135933 -3.55941 0
M  V30 3599 O 346.843 0.459454 -5.44565 0
M  V30 3600 H 343.937 0.104887 -0.820322 0
M  V30 3601 H 346.483 -0.544807 -1.60717 0
M  V30 3602 H 345.255 -0.937079 -3.79914 0
M  V30 3603 H 344.878 0.774984 -3.89974 0
M  V30 3604 N 345.875 1.56104 -0.216619 0
M  V30 3605 C 347.124 1.97348 0.416744 0
M  V30 3606 C 347.437 1.10715 1.6125 0
M  V30 3607 O 348.643 1.41836 2.31506 0
M  V30 3608 C 347.099 3.51059 0.792835 0
M  V30 3609 C 346.707 4.46387 -0.379828 0
M  V30 3610 C 348.451 4.01026 1.39208 0
M  V30 3611 C 346.358 5.91397 0.0184223 0
M  V30 3612 H 345.288 0.736942 0.159475 0
M  V30 3613 H 347.939 1.80827 -0.31205 0
M  V30 3614 H 346.321 3.63162 1.57891 0
M  V30 3615 H 347.495 4.46029 -1.15737 0
M  V30 3616 H 345.81 4.06734 -0.891979 0
M  V30 3617 H 348.407 5.0686 1.70286 0
M  V30 3618 H 348.75 3.46587 2.30614 0
M  V30 3619 H 349.283 3.92125 0.669537 0
M  V30 3620 H 346.022 6.49807 -0.862002 0
M  V30 3621 H 345.542 5.94961 0.760384 0
M  V30 3622 H 347.221 6.45455 0.446818 0
M  V30 3623 N 347.353 -0.0568162 1.57498 0
M  V30 3624 C 348.602 -0.752001 1.87157 0
M  V30 3625 C 348.915 -1.77978 0.811375 0
M  V30 3626 O 350.121 -2.52559 0.996293 0
M  V30 3627 C 348.577 -1.38844 3.3204 0
M  V30 3628 C 348.185 -0.398456 4.46225 0
M  V30 3629 C 349.929 -2.06512 3.70882 0
M  V30 3630 C 347.836 -1.04166 5.82154 0
M  V30 3631 H 346.766 -0.28461 0.698222 0
M  V30 3632 H 349.417 -0.00561272 1.83499 0
M  V30 3633 H 347.799 -2.1836 3.30356 0
M  V30 3634 H 348.973 0.367977 4.59328 0
M  V30 3635 H 347.288 0.174592 4.16034 0
M  V30 3636 H 349.885 -2.55437 4.6974 0
M  V30 3637 H 350.228 -2.87117 3.01445 0
M  V30 3638 H 350.761 -1.33808 3.7462 0
M  V30 3639 H 347.5 -0.275614 6.5492 0
M  V30 3640 H 347.02 -1.7786 5.72823 0
M  V30 3641 H 348.699 -1.55715 6.27982 0
M  V30 3642 N 348.832 -1.54138 -0.328536 0
M  V30 3643 C 349.78 -1.83894 -1.42428 0
M  V30 3644 C 350.774 -0.710478 -1.53781 0
M  V30 3645 O 351.98 -0.894062 -1.56226 0
M  V30 3646 H 348.355 -0.582837 -0.475189 0
M  V30 3647 H 350.326 -2.75537 -1.14552 0
M  V30 3648 C 349.075 -2.07866 -2.78724 0
M  V30 3649 H 348.398 -2.94158 -2.7076 0
M  V30 3650 H 349.838 -2.32644 -3.54476 0
M  V30 3651 C 348.297 -0.868689 -3.25508 0
M  V30 3652 O 348.827 -0.0754908 -4.01629 0
M  V30 3653 N 347.033 -0.681711 -2.82491 0
M  V30 3654 H 346.58 -1.32838 -2.20708 0
M  V30 3655 H 346.538 0.126374 -3.14146 0
M  V30 3656 N 350.31 0.590341 -1.46126 0
M  V30 3657 C 351.273 1.68194 -1.55703 0
M  V30 3658 C 352.273 1.54808 -0.434868 0
M  V30 3659 O 353.463 1.59564 -0.698928 0
M  V30 3660 C 350.595 3.07575 -1.47005 0
M  V30 3661 H 351.788 1.61064 -2.52979 0
M  V30 3662 H 349.341 0.807541 -1.33823 0
M  V30 3663 H 350.076 3.20268 -0.509785 0
M  V30 3664 H 349.861 3.187 -2.28414 0
M  V30 3665 H 351.351 3.87055 -1.56776 0
M  V30 3666 N 351.788 1.33704 0.83433 0
M  V30 3667 C 352.718 1.26967 1.95963 0
M  V30 3668 C 353.699 0.149337 1.69443 0
M  V30 3669 O 354.884 0.339852 1.91203 0
M  V30 3670 C 352.014 1.01275 3.32206 0
M  V30 3671 C 350.968 2.09652 3.73136 0
M  V30 3672 C 350.294 1.69166 5.07235 0
M  V30 3673 C 351.594 3.51372 3.86439 0
M  V30 3674 H 353.288 2.2112 2.01857 0
M  V30 3675 H 350.834 1.06447 0.969793 0
M  V30 3676 H 352.787 0.952106 4.10503 0
M  V30 3677 H 351.511 0.0356203 3.26581 0
M  V30 3678 H 350.17 2.14766 2.97104 0
M  V30 3679 H 349.818 0.701437 4.98085 0
M  V30 3680 H 349.518 2.41694 5.35591 0
M  V30 3681 H 351.042 1.64576 5.88003 0
M  V30 3682 H 352.456 3.48734 4.55036 0
M  V30 3683 H 350.853 4.22425 4.26236 0
M  V30 3684 H 351.923 3.89546 2.88759 0
M  V30 3685 N 353.266 -1.05314 1.17247 0
M  V30 3686 C 354.506 -1.79869 0.970898 0
M  V30 3687 C 354.87 -1.85594 -0.491808 0
M  V30 3688 O 356.071 -2.56229 -0.812409 0
M  V30 3689 C 354.342 -3.19937 1.59295 0
M  V30 3690 S 355.901 -4.10986 1.53741 0
M  V30 3691 H 352.719 -0.61949 0.348931 0
M  V30 3692 H 355.321 -1.26368 1.49169 0
M  V30 3693 H 354.025 -3.13372 2.65003 0
M  V30 3694 H 353.556 -3.78515 1.07191 0
M  V30 3695 H 355.571 -4.93203 0.544537 0
M  V30 3696 N 354.744 -0.972509 -1.24016 0
M  V30 3697 C 355.991 -0.637034 -1.92219 0
M  V30 3698 C 356.319 0.828418 -1.75976 0
M  V30 3699 O 355.574 1.61206 -1.10955 0
M  V30 3700 C 355.873 -0.963694 -3.44162 0
M  V30 3701 C 355.539 -2.41807 -3.80579 0
M  V30 3702 C 354.201 -2.81556 -3.9023 0
M  V30 3703 C 356.553 -3.36172 -3.98293 0
M  V30 3704 C 353.881 -4.14702 -4.15017 0
M  V30 3705 C 356.233 -4.68952 -4.24578 0
M  V30 3706 C 354.897 -5.08472 -4.32449 0
M  V30 3707 H 354.167 -0.233107 -0.703379 0
M  V30 3708 H 356.814 -1.2249 -1.47202 0
M  V30 3709 H 355.119 -0.29365 -3.90698 0
M  V30 3710 H 356.816 -0.682449 -3.9515 0
M  V30 3711 H 353.406 -2.09988 -3.73635 0
M  V30 3712 H 357.59 -3.06644 -3.90234 0
M  V30 3713 H 352.846 -4.4494 -4.19331 0
M  V30 3714 H 357.02 -5.42037 -4.37229 0
M  V30 3715 H 354.647 -6.11665 -4.51409 0
M  V30 3716 N 356.222 1.38976 -0.743202 0
M  V30 3717 C 357.447 2.05161 -0.303936 0
M  V30 3718 C 357.872 1.55677 1.05576 0
M  V30 3719 O 357.23 0.704131 1.67068 0
M  V30 3720 C 357.278 3.59138 -0.324373 0
M  V30 3721 O 356.382 4.06668 0.685204 0
M  V30 3722 H 355.723 0.649815 -0.136518 0
M  V30 3723 H 358.253 1.77852 -1.01142 0
M  V30 3724 H 358.263 4.07639 -0.171618 0
M  V30 3725 H 356.938 3.94515 -1.31647 0
M  V30 3726 H 355.515 3.69561 0.497913 0
M  V30 3727 N 357.7 0.491464 1.49741 0
M  V30 3728 C 359.111 0.0413169 1.86654 0
M  V30 3729 C 359.462 -1.36985 1.40462 0
M  V30 3730 O 358.587 -2.01917 0.778354 0
M  V30 3731 C 359.182 0.0682023 3.38731 0
M  V30 3732 C 357.741 -0.32656 3.74981 0
M  V30 3733 C 356.888 0.444888 2.73708 0
M  V30 3734 H 359.839 0.704733 1.42194 0
M  V30 3735 H 359.86 -0.729322 3.73445 0
M  V30 3736 H 359.372 1.09539 3.72321 0
M  V30 3737 H 357.473 -1.35734 3.46997 0
M  V30 3738 H 357.586 -0.013741 4.79098 0
M  V30 3739 H 355.95 -0.104062 2.54487 0
M  V30 3740 H 356.733 1.47197 3.10142 0
M  V30 3741 N 359.178 -1.55987 0.224894 0
M  V30 3742 C 360.126 -2.21808 -0.700283 0
M  V30 3743 C 361.12 -1.19854 -1.19714 0
M  V30 3744 O 362.326 -1.37925 -1.15658 0
M  V30 3745 H 358.701 -0.711226 -0.244258 0
M  V30 3746 H 360.672 -2.98152 -0.121749 0
M  V30 3747 C 359.421 -2.91444 -1.8962 0
M  V30 3748 H 358.744 -3.69655 -1.52299 0
M  V30 3749 H 360.184 -3.40894 -2.52125 0
M  V30 3750 C 358.643 -1.94098 -2.75368 0
M  V30 3751 O 359.173 -1.46004 -3.74227 0
M  V30 3752 N 357.379 -1.61675 -2.41474 0
M  V30 3753 H 356.926 -2.00979 -1.61137 0
M  V30 3754 H 356.884 -0.968036 -2.99126 0
M  V30 3755 N 360.656 0.0484629 -1.57525 0
M  V30 3756 C 362.072 0.40375 -1.54409 0
M  V30 3757 C 362.272 1.77786 -0.948384 0
M  V30 3758 O 361.328 2.46189 -0.560983 0
M  V30 3759 C 362.641 0.323394 -2.98956 0
M  V30 3760 C 364.189 0.401892 -3.10409 0
M  V30 3761 C 364.664 0.351195 -4.56652 0
M  V30 3762 N 366.155 0.410576 -4.61377 0
M  V30 3763 C 366.89 0.393933 -5.72045 0
M  V30 3764 N 366.386 0.330724 -6.9201 0
M  V30 3765 N 368.179 0.442227 -5.60358 0
M  V30 3766 H 360.33 -0.851016 -1.94606 0
M  V30 3767 H 362.593 -0.321721 -0.89174 0
M  V30 3768 H 362.299 -0.62011 -3.4619 0
M  V30 3769 H 362.173 1.12463 -3.60044 0
M  V30 3770 H 364.56 1.33582 -2.63134 0
M  V30 3771 H 364.641 -0.428342 -2.52188 0
M  V30 3772 H 364.285 -0.578987 -5.04589 0
M  V30 3773 H 364.215 1.19928 -5.12762 0
M  V30 3774 H 366.706 0.462729 -3.75056 0
M  V30 3775 H 367.019 0.322592 -7.72126 0
M  V30 3776 H 365.364 0.29706 -6.94365 0
M  V30 3777 H 368.555 0.489464 -4.65534 0
M  V30 3778 H 368.728 0.425788 -6.466 0
M  V30 3779 N 362.134 1.5431 0.320358 0
M  V30 3780 C 363.364 1.7638 1.07582 0
M  V30 3781 C 363.772 0.513944 1.82086 0
M  V30 3782 O 363.115 -0.525123 1.76035 0
M  V30 3783 C 363.177 2.9055 2.1171 0
M  V30 3784 C 362.841 4.2934 1.56575 0
M  V30 3785 C 363.838 5.10077 1.00586 0
M  V30 3786 C 361.523 4.75893 1.60722 0
M  V30 3787 C 363.517 6.35477 0.494756 0
M  V30 3788 C 361.204 6.0126 1.09224 0
M  V30 3789 C 362.202 6.80886 0.53696 0
M  V30 3790 O 361.89 8.03894 0.0297371 0
M  V30 3791 H 361.622 0.592369 0.325692 0
M  V30 3792 H 364.176 2.02019 0.37116 0
M  V30 3793 H 362.406 2.60489 2.85801 0
M  V30 3794 H 364.095 3.00373 2.73003 0
M  V30 3795 H 364.861 4.75265 0.966869 0
M  V30 3796 H 360.74 4.13957 2.02882 0
M  V30 3797 H 364.284 6.97574 0.0606842 0
M  V30 3798 H 360.181 6.35562 1.12831 0
M  V30 3799 H 360.949 8.18372 0.14486 0
M  V30 3800 N 363.613 -0.582584 1.46437 0
M  V30 3801 C 364.859 -1.34064 1.52965 0
M  V30 3802 C 365.214 -1.91566 0.178968 0
M  V30 3803 O 364.507 -1.73526 -0.812365 0
M  V30 3804 C 364.701 -2.48964 2.56421 0
M  V30 3805 C 364.53 -2.02717 4.01417 0
M  V30 3806 C 363.3 -1.87728 4.69134 0
M  V30 3807 C 365.498 -1.58675 4.8921 0
M  V30 3808 N 363.48 -1.35554 5.98747 0
M  V30 3809 C 364.851 -1.18093 6.08649 0
M  V30 3810 C 366.906 -1.46494 4.75861 0
M  V30 3811 C 365.609 -0.665427 7.16215 0
M  V30 3812 C 367.635 -0.96347 5.83499 0
M  V30 3813 C 366.997 -0.567432 7.02111 0
M  V30 3814 H 363.096 -0.483551 0.614575 0
M  V30 3815 H 365.68 -0.663309 1.83053 0
M  V30 3816 H 363.851 -3.1426 2.28244 0
M  V30 3817 H 365.583 -3.15913 2.52944 0
M  V30 3818 H 362.338 -2.09678 4.24655 0
M  V30 3819 H 362.762 -1.11628 6.67734 0
M  V30 3820 H 367.404 -1.75731 3.8455 0
M  V30 3821 H 365.122 -0.360639 8.07295 0
M  V30 3822 H 368.708 -0.873129 5.75211 0
M  V30 3823 H 367.588 -0.185389 7.83981 0
M  V30 3824 N 365.091 -1.34144 -0.827227 0
M  V30 3825 C 366.021 -1.28005 -1.95287 0
M  V30 3826 C 367.002 -0.158321 -1.69362 0
M  V30 3827 O 368.187 -0.349987 -1.9102 0
M  V30 3828 C 365.317 -1.03036 -3.31664 0
M  V30 3829 C 364.271 -2.11628 -3.72019 0
M  V30 3830 C 363.597 -1.71854 -5.0633 0
M  V30 3831 C 364.897 -3.53417 -3.8457 0
M  V30 3832 H 366.591 -2.22187 -2.00682 0
M  V30 3833 H 364.137 -1.0696 -0.964135 0
M  V30 3834 H 366.09 -0.973863 -4.09993 0
M  V30 3835 H 364.814 -0.0529391 -3.26557 0
M  V30 3836 H 363.473 -2.16339 -2.95961 0
M  V30 3837 H 363.121 -0.727841 -4.97706 0
M  V30 3838 H 362.821 -2.44531 -5.34302 0
M  V30 3839 H 364.345 -1.67692 -5.87122 0
M  V30 3840 H 365.759 -3.51142 -4.5318 0
M  V30 3841 H 364.156 -4.24679 -4.2399 0
M  V30 3842 H 365.226 -3.91072 -2.86689 0
M  V30 3843 N 366.569 1.04691 -1.17803 0
M  V30 3844 C 367.809 1.79352 -0.980423 0
M  V30 3845 C 368.173 1.85853 0.481958 0
M  V30 3846 O 369.374 2.56656 0.798809 0
M  V30 3847 C 367.645 3.19088 -1.6099 0
M  V30 3848 S 369.204 4.10164 -1.55918 0
M  V30 3849 H 366.022 0.617631 -0.352211 0
M  V30 3850 H 368.624 1.25575 -1.49837 0
M  V30 3851 H 367.328 3.11962 -2.66661 0
M  V30 3852 H 366.859 3.77941 -1.09197 0
M  V30 3853 H 368.874 4.92907 -0.570685 0
M  V30 3854 N 368.047 0.979072 1.23499 0
M  V30 3855 C 369.01 0.523244 2.23147 0
M  V30 3856 C 370.01 -0.386406 1.56088 0
M  V30 3857 O 371.2 -0.180283 1.73265 0
M  V30 3858 C 368.332 -0.240739 3.40049 0
M  V30 3859 H 369.525 1.40432 2.64989 0
M  V30 3860 H 367.078 0.764824 1.36309 0
M  V30 3861 H 367.813 -1.13841 3.03662 0
M  V30 3862 H 367.598 0.412207 3.89927 0
M  V30 3863 H 369.088 -0.548297 4.13985 0
M  V30 3864 N 369.525 -1.3858 0.750561 0
M  V30 3865 C 370.488 -2.28836 0.129152 0
M  V30 3866 C 371.488 -1.47045 -0.650714 0
M  V30 3867 O 372.678 -1.6753 -0.477428 0
M  V30 3868 C 369.81 -3.30751 -0.825622 0
M  V30 3869 H 371.003 -2.85294 0.924516 0
M  V30 3870 H 368.556 -1.47489 0.517376 0
M  V30 3871 H 369.291 -2.79378 -1.64677 0
M  V30 3872 H 369.076 -3.91177 -0.268852 0
M  V30 3873 H 370.566 -3.98249 -1.2565 0
M  V30 3874 N 371.003 -0.499398 -1.49478 0
M  V30 3875 C 372.231 0.0425456 -2.06856 0
M  V30 3876 C 372.646 1.30964 -1.35992 0
M  V30 3877 O 372.003 1.77172 -0.437762 0
M  V30 3878 C 372.054 0.301735 -3.60239 0
M  V30 3879 O 371.775 -0.915127 -4.28436 0
M  V30 3880 C 373.276 0.887499 -4.34325 0
M  V30 3881 H 370.496 -0.0197482 -0.670709 0
M  V30 3882 H 373.04 -0.696297 -1.92281 0
M  V30 3883 H 371.195 0.990556 -3.74522 0
M  V30 3884 H 371.609 -0.676993 -5.20113 0
M  V30 3885 H 373.083 1.01845 -5.42523 0
M  V30 3886 H 373.56 1.88488 -3.96698 0
M  V30 3887 H 374.166 0.236196 -4.24644 0
M  V30 3888 N 372.481 1.55866 -0.233164 0
M  V30 3889 C 373.729 1.9821 0.394593 0
M  V30 3890 C 374.05 1.12234 1.59463 0
M  V30 3891 O 373.32 0.201981 1.94856 0
M  V30 3892 H 371.9 0.732034 0.148778 0
M  V30 3893 H 374.562 1.92107 -0.32876 0
M  V30 3894 H 373.658 3.03845 0.713063 0
M  V30 3895 N 373.959 -0.0401083 1.57549 0
M  V30 3896 C 375.37 -0.588097 1.77196 0
M  V30 3897 C 375.721 -1.76209 0.862832 0
M  V30 3898 O 374.846 -2.16331 0.0548389 0
M  V30 3899 C 375.441 -1.07363 3.21339 0
M  V30 3900 C 374 -1.56723 3.42221 0
M  V30 3901 C 373.147 -0.50041 2.72747 0
M  V30 3902 H 376.098 0.186119 1.57605 0
M  V30 3903 H 376.119 -1.94143 3.27244 0
M  V30 3904 H 375.631 -0.218975 3.87482 0
M  V30 3905 H 373.732 -2.4441 2.81237 0
M  V30 3906 H 373.845 -1.62234 4.50796 0
M  V30 3907 H 372.209 -0.952894 2.36203 0
M  V30 3908 H 372.992 0.344599 3.41566 0
M  V30 3909 N 375.437 -1.54477 -0.31217 0
M  V30 3910 C 376.662 -1.77526 -1.07235 0
M  V30 3911 C 377.087 -0.527775 -1.80544 0
M  V30 3912 O 376.445 0.52121 -1.73646 0
M  V30 3913 C 376.493 -2.97535 -2.03728 0
M  V30 3914 O 375.597 -2.69878 -3.11833 0
M  V30 3915 H 374.938 -0.58792 -0.30862 0
M  V30 3916 H 377.468 -2.01532 -0.352993 0
M  V30 3917 H 377.478 -3.25198 -2.46395 0
M  V30 3918 H 376.153 -3.87996 -1.49774 0
M  V30 3919 H 374.73 -2.53199 -2.7376 0
M  V30 3920 N 376.915 0.57481 -1.46744 0
M  V30 3921 C 378.164 1.32898 -1.51727 0
M  V30 3922 C 378.477 1.948 -0.176692 0
M  V30 3923 O 379.683 2.71299 -0.104385 0
M  V30 3924 C 378.139 2.40901 -2.67385 0
M  V30 3925 C 377.747 1.85266 -4.07898 0
M  V30 3926 C 379.491 3.17609 -2.81646 0
M  V30 3927 C 377.398 2.90945 -5.14883 0
M  V30 3928 H 376.328 0.499631 -0.564699 0
M  V30 3929 H 378.979 0.612536 -1.72975 0
M  V30 3930 H 377.361 3.15379 -2.39483 0
M  V30 3931 H 378.535 1.17278 -4.45626 0
M  V30 3932 H 376.85 1.21199 -3.98371 0
M  V30 3933 H 379.447 3.96493 -3.58744 0
M  V30 3934 H 379.79 3.70696 -1.89448 0
M  V30 3935 H 380.323 2.50239 -3.09233 0
M  V30 3936 H 377.062 2.42736 -6.089 0
M  V30 3937 H 376.582 3.57398 -4.81691 0
M  V30 3938 H 378.261 3.54755 -5.41071 0
M  V30 3939 N 378.394 1.34581 0.820102 0
M  V30 3940 C 379.341 1.2639 1.93117 0
M  V30 3941 C 380.311 0.138554 1.65521 0
M  V30 3942 O 381.496 0.320004 1.88097 0
M  V30 3943 C 378.636 1.02812 3.29429 0
M  V30 3944 C 377.749 2.24146 3.693 0
M  V30 3945 C 376.884 1.93829 4.94574 0
M  V30 3946 C 375.923 3.1129 5.27034 0
M  V30 3947 N 375.06 2.80838 6.43486 0
M  V30 3948 H 379.9 2.21408 1.99455 0
M  V30 3949 H 377.437 1.10077 0.975784 0
M  V30 3950 H 379.395 0.871788 4.0799 0
M  V30 3951 H 378.025 0.114612 3.22596 0
M  V30 3952 H 377.077 2.50691 2.86109 0
M  V30 3953 H 378.389 3.11899 3.89257 0
M  V30 3954 H 377.543 1.74948 5.80929 0
M  V30 3955 H 376.282 1.03341 4.76626 0
M  V30 3956 H 375.287 3.30764 4.39175 0
M  V30 3957 H 376.512 4.02561 5.4692 0
M  V30 3958 H 374.458 1.92929 6.26988 0
M  V30 3959 H 374.375 3.62123 6.63629 0
M  V30 3960 H 375.643 2.65467 7.32903 0
M  V30 3961 N 379.872 -1.04064 1.18357 0
M  V30 3962 C 381.121 -1.76662 0.973313 0
M  V30 3963 C 381.434 -1.89154 -0.497991 0
M  V30 3964 O 382.64 -2.58606 -0.826762 0
M  V30 3965 C 381.096 -3.17624 1.69242 0
M  V30 3966 C 380.704 -3.13225 3.20303 0
M  V30 3967 C 382.448 -3.946 1.56497 0
M  V30 3968 C 380.355 -4.49046 3.84853 0
M  V30 3969 H 379.285 -0.662214 0.36054 0
M  V30 3970 H 381.936 -1.16553 1.41731 0
M  V30 3971 H 380.318 -3.78129 1.1762 0
M  V30 3972 H 381.492 -2.62172 3.78949 0
M  V30 3973 H 379.807 -2.49749 3.33189 0
M  V30 3974 H 382.404 -4.95042 2.02084 0
M  V30 3975 H 382.747 -4.13074 0.517243 0
M  V30 3976 H 383.28 -3.4067 2.05399 0
M  V30 3977 H 380.019 -4.35777 4.89672 0
M  V30 3978 H 379.539 -5.00203 3.30994 0
M  V30 3979 H 381.218 -5.17961 3.87718 0
M  V30 3980 N 381.35 -0.985608 -1.22978 0
M  V30 3981 C 382.596 -0.667998 -1.92118 0
M  V30 3982 C 382.951 0.790454 -1.75413 0
M  V30 3983 O 382.244 1.56336 -1.10768 0
M  V30 3984 C 382.438 -1.00014 -3.43121 0
M  V30 3985 C 382.267 -2.48933 -3.74516 0
M  V30 3986 C 381.037 -3.15218 -3.94925 0
M  V30 3987 C 383.235 -3.47024 -3.79577 0
M  V30 3988 N 381.217 -4.53689 -4.13569 0
M  V30 3989 C 382.588 -4.70923 -4.03276 0
M  V30 3990 C 384.643 -3.41432 -3.62393 0
M  V30 3991 C 383.346 -5.89914 -4.11574 0
M  V30 3992 C 385.372 -4.59793 -3.71947 0
M  V30 3993 C 384.734 -5.82489 -3.96088 0
M  V30 3994 H 380.833 -0.295589 -0.723983 0
M  V30 3995 H 383.417 -1.26413 -1.4808 0
M  V30 3996 H 381.588 -0.432655 -3.85983 0
M  V30 3997 H 383.32 -0.63927 -3.99619 0
M  V30 3998 H 380.075 -2.65702 -3.92045 0
M  V30 3999 H 380.499 -5.25492 -4.26834 0
M  V30 4000 H 385.141 -2.47594 -3.4272 0
M  V30 4001 H 382.859 -6.84164 -4.30053 0
M  V30 4002 H 386.445 -4.57048 -3.59998 0
M  V30 4003 H 385.325 -6.72546 -4.033 0
M  V30 4004 N 382.828 1.3818 -0.7579 0
M  V30 4005 C 384.105 1.94106 -0.241306 0
M  V30 4006 C 384.485 1.69282 1.26122 0
M  V30 4007 O 383.833 1.03378 2.03777 0
M  V30 4008 C 384.043 3.43809 -0.59967 0
M  V30 4009 C 385.391 4.20868 -0.561717 0
M  V30 4010 O 386.415 3.5211 -0.538222 0
M  V30 4011 O 385.274 5.43451 -0.576478 0
M  V30 4012 H 382.368 0.825376 -0.0518042 0
M  V30 4013 H 384.914 1.47548 -0.838315 0
M  V30 4014 H 383.686 3.55403 -1.6372 0
M  V30 4015 H 383.309 3.97592 0.0251197 0
M  V30 4016 N 384.306 0.507319 1.49211 0
M  V30 4017 C 385.236 -0.256939 2.32082 0
M  V30 4018 C 386.217 -0.956609 1.40652 0
M  V30 4019 O 387.402 -0.946788 1.69557 0
M  V30 4020 C 384.532 -1.31802 3.21318 0
M  V30 4021 C 383.486 -0.737855 4.21592 0
M  V30 4022 C 382.812 -1.89992 4.99807 0
M  V30 4023 C 384.112 0.275325 5.21574 0
M  V30 4024 H 385.806 0.434798 2.96226 0
M  V30 4025 H 383.352 0.210546 1.42452 0
M  V30 4026 H 385.305 -1.86045 3.78107 0
M  V30 4027 H 384.029 -2.03903 2.5513 0
M  V30 4028 H 382.688 -0.217126 3.65956 0
M  V30 4029 H 382.336 -2.60877 4.30061 0
M  V30 4030 H 382.036 -1.51777 5.6766 0
M  V30 4031 H 383.56 -2.44657 5.59442 0
M  V30 4032 H 384.974 -0.179193 5.7302 0
M  V30 4033 H 383.371 0.573649 5.97352 0
M  V30 4034 H 384.441 1.18903 4.70096 0
M  V30 4035 N 385.784 -1.5574 0.241426 0
M  V30 4036 C 386.694 -2.2479 -0.671305 0
M  V30 4037 C 387.71 -1.26217 -1.19772 0
M  V30 4038 O 388.886 -1.59079 -1.23514 0
M  V30 4039 C 385.951 -2.92966 -1.85396 0
M  V30 4040 C 385.012 -4.06935 -1.36756 0
M  V30 4041 C 384.245 -4.71851 -2.49384 0
M  V30 4042 O 384.468 -4.35823 -3.67987 0
M  V30 4043 O 383.402 -5.60467 -2.19454 0
M  V30 4044 H 387.228 -3.0349 -0.112966 0
M  V30 4045 H 384.813 -1.49397 0.0101513 0
M  V30 4046 H 386.695 -3.35927 -2.54423 0
M  V30 4047 H 385.37 -2.17211 -2.40002 0
M  V30 4048 H 384.277 -3.68503 -0.644726 0
M  V30 4049 H 385.61 -4.84492 -0.867647 0
M  V30 4050 N 387.262 0.0317525 -1.57568 0
M  V30 4051 C 388.51 0.721676 -1.88776 0
M  V30 4052 C 388.831 1.76039 -0.838772 0
M  V30 4053 O 388.101 1.95482 0.127935 0
M  V30 4054 H 386.681 0.269534 -0.696678 0
M  V30 4055 H 389.343 -0.00165879 -1.949 0
M  V30 4056 H 388.439 1.21293 -2.87566 0
M  V30 4057 N 388.74 1.54641 0.303973 0
M  V30 4058 C 389.687 1.85386 1.37479 0
M  V30 4059 C 390.657 0.702528 1.50512 0
M  V30 4060 O 391.842 0.950867 1.65418 0
M  V30 4061 C 388.982 2.10413 2.73533 0
M  V30 4062 C 388.095 3.38049 2.68974 0
M  V30 4063 C 387.23 3.52934 3.97002 0
M  V30 4064 C 386.269 4.74373 3.86829 0
M  V30 4065 N 385.406 4.8608 5.06627 0
M  V30 4066 H 390.246 2.76732 1.1056 0
M  V30 4067 H 387.783 1.37034 0.534805 0
M  V30 4068 H 389.741 2.22919 3.52652 0
M  V30 4069 H 388.371 1.22338 2.98719 0
M  V30 4070 H 387.423 3.3418 1.81736 0
M  V30 4071 H 388.735 4.27288 2.57346 0
M  V30 4072 H 387.889 3.65088 4.84557 0
M  V30 4073 H 386.628 2.61824 4.1146 0
M  V30 4074 H 385.633 4.62255 2.97658 0
M  V30 4075 H 386.858 5.66888 3.73918 0
M  V30 4076 H 384.804 3.97891 5.21554 0
M  V30 4077 H 384.721 5.69315 4.9741 0
M  V30 4078 H 385.989 5.02587 5.95841 0
M  V30 4079 N 390.218 -0.567019 1.47046 0
M  V30 4080 C 391.467 -1.32091 1.5243 0
M  V30 4081 C 391.78 -1.94704 0.187021 0
M  V30 4082 O 392.986 -2.7124 0.118771 0
M  V30 4083 C 391.442 -2.39479 2.68659 0
M  V30 4084 C 391.05 -1.831 4.08874 0
M  V30 4085 C 392.794 -3.16111 2.83327 0
M  V30 4086 C 390.701 -2.8821 5.16419 0
M  V30 4087 H 389.631 -0.496629 0.56734 0
M  V30 4088 H 392.282 -0.603354 1.73297 0
M  V30 4089 H 390.664 -3.14105 2.41152 0
M  V30 4090 H 391.838 -1.14913 4.46242 0
M  V30 4091 H 390.153 -1.19085 3.99008 0
M  V30 4092 H 392.75 -3.94585 3.60842 0
M  V30 4093 H 393.093 -3.69686 1.91411 0
M  V30 4094 H 393.626 -2.48595 3.10556 0
M  V30 4095 H 390.365 -2.39504 6.10179 0
M  V30 4096 H 389.885 -3.54839 4.8358 0
M  V30 4097 H 391.564 -3.51881 5.42945 0
M  V30 4098 N 391.696 -1.35014 -0.812953 0
M  V30 4099 C 392.945 -1.27269 -1.56479 0
M  V30 4100 C 393.258 0.152771 -1.95002 0
M  V30 4101 O 394.464 0.352451 -2.69203 0
M  V30 4102 C 392.92 -2.23159 -2.82362 0
M  V30 4103 C 392.528 -3.71016 -2.511 0
M  V30 4104 C 394.272 -2.24342 -3.60376 0
M  V30 4105 C 392.179 -4.58746 -3.73237 0
M  V30 4106 H 391.109 -0.472829 -0.587324 0
M  V30 4107 H 393.76 -1.6024 -0.894171 0
M  V30 4108 H 392.142 -1.83151 -3.51101 0
M  V30 4109 H 393.316 -4.1962 -1.90409 0
M  V30 4110 H 391.631 -3.72378 -1.86343 0
M  V30 4111 H 394.228 -2.87107 -4.51081 0
M  V30 4112 H 394.571 -1.24542 -3.97234 0
M  V30 4113 H 395.104 -2.62846 -2.98591 0
M  V30 4114 H 391.843 -5.59521 -3.41492 0
M  V30 4115 H 391.363 -4.14871 -4.33176 0
M  V30 4116 H 393.042 -4.73852 -4.40537 0
M  V30 4117 N 393.175 1.03435 -1.18907 0
M  V30 4118 C 394.421 1.77005 -0.989798 0
M  V30 4119 C 394.754 1.88205 0.478816 0
M  V30 4120 O 394.029 1.39481 1.35556 0
M  V30 4121 C 394.312 3.19925 -1.65287 0
M  V30 4122 C 394.165 3.1663 -3.19477 0
M  V30 4123 C 395.484 4.18189 -1.37134 0
M  V30 4124 H 392.603 0.642538 -0.360991 0
M  V30 4125 H 395.245 1.20784 -1.46667 0
M  V30 4126 H 393.395 3.67929 -1.24741 0
M  V30 4127 H 395.067 2.76567 -3.692 0
M  V30 4128 H 393.31 2.54491 -3.51307 0
M  V30 4129 H 393.981 4.1758 -3.61013 0
M  V30 4130 H 396.457 3.78761 -1.72276 0
M  V30 4131 H 395.333 5.16394 -1.86087 0
M  V30 4132 H 395.594 4.41112 -0.295424 0
M  V30 4133 N 394.653 0.992116 1.22453 0
M  V30 4134 C 395.93 0.583508 1.86694 0
M  V30 4135 C 396.31 -0.9392 1.89056 0
M  V30 4136 O 395.658 -1.82081 1.38053 0
M  V30 4137 C 395.868 1.20304 3.2761 0
M  V30 4138 C 397.216 1.30308 4.0411 0
M  V30 4139 O 398.24 1.15737 3.36873 0
M  V30 4140 O 397.099 1.53615 5.24466 0
M  V30 4141 H 394.193 0.198129 0.802916 0
M  V30 4142 H 396.739 1.08794 1.30238 0
M  V30 4143 H 395.511 2.24461 3.2052 0
M  V30 4144 H 395.134 0.684144 3.9167 0
M  V30 4145 N 396.131 -1.37776 0.765217 0
M  V30 4146 C 397.041 -2.34135 0.147666 0
M  V30 4147 C 398.057 -1.59854 -0.687215 0
M  V30 4148 O 399.233 -1.91983 -0.608659 0
M  V30 4149 C 396.298 -3.3901 -0.72617 0
M  V30 4150 C 395.359 -4.2912 0.124417 0
M  V30 4151 C 394.592 -5.28986 -0.707807 0
M  V30 4152 O 394.815 -5.36205 -1.94525 0
M  V30 4153 O 393.749 -6.01779 -0.12046 0
M  V30 4154 H 397.575 -2.88664 0.943758 0
M  V30 4155 H 395.16 -1.39824 0.526277 0
M  V30 4156 H 397.042 -4.03195 -1.22524 0
M  V30 4157 H 395.717 -2.86819 -1.50056 0
M  V30 4158 H 394.624 -3.68057 0.669696 0
M  V30 4159 H 395.957 -4.84598 0.861736 0
M  V30 4160 N 397.609 -0.515225 -1.4894 0
M  V30 4161 C 398.539 0.244628 -2.32215 0
M  V30 4162 C 399.52 0.949136 -1.41157 0
M  V30 4163 O 400.705 0.937783 -1.70057 0
M  V30 4164 C 397.835 1.30096 -3.22013 0
M  V30 4165 C 396.789 0.715486 -4.21977 0
M  V30 4166 C 396.115 1.87339 -5.00808 0
M  V30 4167 C 397.415 -0.302982 -5.2142 0
M  V30 4168 H 399.109 -0.450501 -2.95991 0
M  V30 4169 H 396.655 -0.218098 -1.42339 0
M  V30 4170 H 398.608 1.84037 -3.79089 0
M  V30 4171 H 397.332 2.02547 -2.56207 0
M  V30 4172 H 395.991 0.197715 -3.66066 0
M  V30 4173 H 395.639 2.58592 -4.31438 0
M  V30 4174 H 395.339 1.48764 -5.68457 0
M  V30 4175 H 396.863 2.41686 -5.60732 0
M  V30 4176 H 398.277 0.148802 -5.73107 0
M  V30 4177 H 396.674 -0.60532 -5.97039 0
M  V30 4178 H 397.744 -1.21395 -4.69459 0
M  V30 4179 N 399.087 1.5561 -0.249682 0
M  V30 4180 C 400.034 2.21496 0.648694 0
M  V30 4181 C 401.004 1.17977 1.16921 0
M  V30 4182 O 402.189 1.46434 1.22318 0
M  V30 4183 C 399.329 2.92039 1.83868 0
M  V30 4184 C 398.442 4.10219 1.35442 0
M  V30 4185 C 397.577 4.6847 2.50419 0
M  V30 4186 C 396.616 5.78893 1.98869 0
M  V30 4187 N 395.753 6.31315 3.07223 0
M  V30 4188 H 400.593 2.97892 0.0801582 0
M  V30 4189 H 398.13 1.47074 0.0278031 0
M  V30 4190 H 400.088 3.31138 2.53778 0
M  V30 4191 H 398.718 2.18111 2.37965 0
M  V30 4192 H 397.77 3.76413 0.54928 0
M  V30 4193 H 399.082 4.89927 0.936649 0
M  V30 4194 H 398.236 5.10158 3.28366 0
M  V30 4195 H 396.975 3.87984 2.95499 0
M  V30 4196 H 395.98 5.3668 1.19393 0
M  V30 4197 H 397.205 6.61232 1.54755 0
M  V30 4198 H 395.151 5.53733 3.51732 0
M  V30 4199 H 395.068 7.06224 2.69784 0
M  V30 4200 H 396.336 6.77662 3.8522 0
M  V30 4201 N 400.565 -0.0233959 1.57583 0
M  V30 4202 C 401.497 -1.04994 2.03737 0
M  V30 4203 C 402.51 -1.32125 0.951152 0
M  V30 4204 O 403.699 -1.29512 1.22837 0
M  V30 4205 C 400.799 -2.39026 2.40249 0
M  V30 4206 C 399.972 -2.31171 3.7132 0
M  V30 4207 C 399.031 -3.47698 3.94959 0
M  V30 4208 O 398.057 -3.26937 4.65941 0
M  V30 4209 N 399.259 -4.6976 3.41037 0
M  V30 4210 H 402.024 -0.656507 2.92421 0
M  V30 4211 H 399.585 -0.211235 1.60516 0
M  V30 4212 H 401.577 -3.15712 2.53196 0
M  V30 4213 H 400.147 -2.70194 1.57207 0
M  V30 4214 H 399.367 -1.39547 3.68674 0
M  V30 4215 H 400.655 -2.23071 4.57293 0
M  V30 4216 H 400.053 -4.89528 2.83512 0
M  V30 4217 H 398.61 -5.43791 3.59353 0
M  V30 4218 N 402.043 -1.548 -0.295768 0
M  V30 4219 C 402.953 -1.89177 -1.38742 0
M  V30 4220 C 403.969 -0.786481 -1.55211 0
M  V30 4221 O 405.145 -1.08344 -1.69775 0
M  V30 4222 C 402.21 -2.13663 -2.73036 0
M  V30 4223 C 401.271 -3.37349 -2.65508 0
M  V30 4224 C 400.504 -3.60658 -3.93398 0
M  V30 4225 O 400.727 -2.86882 -4.93006 0
M  V30 4226 O 399.661 -4.54179 -3.94975 0
M  V30 4227 H 403.487 -2.82059 -1.12589 0
M  V30 4228 H 401.072 -1.41056 -0.492295 0
M  V30 4229 H 402.954 -2.3094 -3.52484 0
M  V30 4230 H 401.629 -1.23967 -2.99022 0
M  V30 4231 H 400.536 -3.25431 -1.84514 0
M  V30 4232 H 401.869 -4.27192 -2.44474 0
M  V30 4233 N 403.521 0.559213 -1.47345 0
M  V30 4234 C 404.767 1.31843 -1.54095 0
M  V30 4235 C 405.1 1.93149 -0.201726 0
M  V30 4236 O 404.375 1.77759 0.789428 0
M  V30 4237 C 404.658 2.43006 -2.65744 0
M  V30 4238 C 404.511 1.86581 -4.09277 0
M  V30 4239 C 405.83 3.44943 -2.73318 0
M  V30 4240 H 402.949 0.478012 -0.560957 0
M  V30 4241 H 405.591 0.625977 -1.79392 0
M  V30 4242 H 403.741 3.02072 -2.44305 0
M  V30 4243 H 405.413 1.31792 -4.42073 0
M  V30 4244 H 403.656 1.17268 -4.17649 0
M  V30 4245 H 404.327 2.66933 -4.83168 0
M  V30 4246 H 406.803 2.95793 -2.92653 0
M  V30 4247 H 405.679 4.20153 -3.53218 0
M  V30 4248 H 405.94 4.03665 -1.80296 0
M  V30 4249 N 404.999 1.35443 0.805782 0
M  V30 4250 C 406.248 1.28097 1.55801 0
M  V30 4251 C 406.561 -0.142428 1.95081 0
M  V30 4252 O 407.767 -0.33817 2.69386 0
M  V30 4253 C 406.223 2.24653 2.81174 0
M  V30 4254 C 405.831 3.72342 2.49129 0
M  V30 4255 C 407.575 2.2625 3.59181 0
M  V30 4256 C 405.482 4.60719 3.70799 0
M  V30 4257 H 404.412 0.475937 0.584808 0
M  V30 4258 H 407.063 1.60712 0.885661 0
M  V30 4259 H 405.445 1.85011 3.50124 0
M  V30 4260 H 406.619 4.20624 1.88181 0
M  V30 4261 H 404.934 3.73361 1.84366 0
M  V30 4262 H 407.531 2.89495 4.49552 0
M  V30 4263 H 407.874 1.26647 3.96568 0
M  V30 4264 H 408.407 2.64426 2.97193 0
M  V30 4265 H 405.146 5.61324 3.3852 0
M  V30 4266 H 404.666 4.17163 4.3097 0
M  V30 4267 H 406.345 4.76182 4.38018 0
M  V30 4268 N 406.477 -1.02803 1.19454 0
M  V30 4269 C 407.702 -1.80378 1.02364 0
M  V30 4270 C 408.127 -1.83282 -0.423007 0
M  V30 4271 O 407.485 -1.25945 -1.30413 0
M  V30 4272 C 407.533 -3.23248 1.59821 0
M  V30 4273 O 406.637 -4.04 0.828105 0
M  V30 4274 H 405.978 -0.556799 0.361761 0
M  V30 4275 H 408.508 -1.29385 1.58495 0
M  V30 4276 H 408.518 -3.73994 1.63073 0
M  V30 4277 H 407.193 -3.2045 2.65113 0
M  V30 4278 H 405.77 -3.62635 0.86891 0
M  V30 4279 N 407.956 -0.998596 -1.21925 0
M  V30 4280 C 409.184 -0.696286 -1.94832 0
M  V30 4281 C 409.599 0.740032 -1.73692 0
M  V30 4282 O 408.956 1.5 -1.03953 0
M  V30 4283 C 409.007 -0.999833 -3.47398 0
M  V30 4284 O 408.728 -2.37972 -3.67833 0
M  V30 4285 C 410.229 -0.716025 -4.37479 0
M  V30 4286 H 407.449 -0.257111 -0.619786 0
M  V30 4287 H 409.993 -1.33491 -1.54921 0
M  V30 4288 H 408.148 -0.406918 -3.85257 0
M  V30 4289 H 408.562 -2.48338 -4.61983 0
M  V30 4290 H 410.036 -0.978642 -5.43256 0
M  V30 4291 H 410.513 0.349968 -4.37803 0
M  V30 4292 H 411.119 -1.29025 -4.05256 0
M  V30 4293 N 409.434 1.37368 -0.772513 0
M  V30 4294 C 410.659 2.0447 -0.347386 0
M  V30 4295 C 411.084 1.57882 1.0225 0
M  V30 4296 O 410.442 0.73941 1.65537 0
M  V30 4297 C 410.49 3.58369 -0.400479 0
M  V30 4298 O 409.594 4.0803 0.598789 0
M  V30 4299 H 408.935 0.646773 -0.15027 0
M  V30 4300 H 411.465 1.75667 -1.04892 0
M  V30 4301 H 411.475 4.07183 -0.258045 0
M  V30 4302 H 410.15 3.91633 -1.39986 0
M  V30 4303 H 408.727 3.70534 0.419411 0
M  V30 4304 N 410.912 0.523116 1.48665 0
M  V30 4305 C 412.137 -0.0117284 2.07397 0
M  V30 4306 C 412.562 -1.28031 1.37803 0
M  V30 4307 O 411.92 -1.75836 0.441762 0
M  V30 4308 C 411.968 -0.225786 3.59892 0
M  V30 4309 O 411.072 -1.29592 3.91509 0
M  V30 4310 H 410.413 0.0360673 0.66302 0
M  V30 4311 H 412.943 0.729066 1.9117 0
M  V30 4312 H 412.953 -0.450552 4.05505 0
M  V30 4313 H 411.628 0.700944 4.09951 0
M  V30 4314 H 410.205 -1.05436 3.57684 0
M  V30 4315 N 412.39 -1.55475 0.257931 0
M  V30 4316 C 413.337 -2.21837 -0.636939 0
M  V30 4317 C 414.307 -1.18596 -1.16294 0
M  V30 4318 O 415.492 -1.47081 -1.21539 0
M  V30 4319 C 412.632 -2.9301 -1.82317 0
M  V30 4320 C 411.745 -4.10931 -1.33265 0
M  V30 4321 C 410.88 -4.69791 -2.47931 0
M  V30 4322 C 409.919 -5.7994 -1.95796 0
M  V30 4323 N 409.056 -6.32935 -3.0387 0
M  V30 4324 H 413.896 -2.9793 -0.0643591 0
M  V30 4325 H 411.433 -1.47086 -0.0200031 0
M  V30 4326 H 413.391 -3.3248 -2.52018 0
M  V30 4327 H 412.021 -2.1937 -2.36805 0
M  V30 4328 H 411.073 -3.76699 -0.52931 0
M  V30 4329 H 412.385 -4.90417 -0.910654 0
M  V30 4330 H 411.539 -5.11892 -3.25656 0
M  V30 4331 H 410.278 -3.89545 -2.93438 0
M  V30 4332 H 409.283 -5.37305 -1.16546 0
M  V30 4333 H 410.508 -6.62043 -1.51246 0
M  V30 4334 H 408.454 -5.55591 -3.48791 0
M  V30 4335 H 408.371 -7.07645 -2.66035 0
M  V30 4336 H 409.639 -6.79695 -3.81621 0
M  V30 4337 N 413.868 0.0150385 -1.57593 0
M  V30 4338 C 414.831 0.995996 -2.06428 0
M  V30 4339 C 415.831 1.2818 -0.970903 0
M  V30 4340 O 417.021 1.22949 -1.23406 0
M  V30 4341 C 414.153 2.32506 -2.49307 0
M  V30 4342 H 415.346 0.573873 -2.94358 0
M  V30 4343 H 412.899 0.262186 -1.54085 0
M  V30 4344 H 413.634 2.79438 -1.64575 0
M  V30 4345 H 413.419 2.13087 -3.29145 0
M  V30 4346 H 414.909 3.02906 -2.87468 0
M  V30 4347 N 415.346 1.54954 0.287554 0
M  V30 4348 C 416.256 1.8991 1.37736 0
M  V30 4349 C 417.272 0.794701 1.54792 0
M  V30 4350 O 418.448 1.09243 1.69198 0
M  V30 4351 C 415.513 2.15108 2.71899 0
M  V30 4352 C 414.574 3.38752 2.63715 0
M  V30 4353 C 413.807 3.62739 3.91479 0
M  V30 4354 O 414.03 2.89492 4.91478 0
M  V30 4355 O 412.964 4.56267 3.92561 0
M  V30 4356 H 416.79 2.82652 1.11092 0
M  V30 4357 H 414.375 1.41315 0.484807 0
M  V30 4358 H 416.257 2.32806 3.51254 0
M  V30 4359 H 414.932 1.25551 2.9836 0
M  V30 4360 H 413.839 3.26405 1.82786 0
M  V30 4361 H 415.172 4.28483 2.42205 0
M  V30 4362 N 416.824 -0.551391 1.4764 0
M  V30 4363 C 418.235 -1.13349 1.48354 0
M  V30 4364 C 418.586 -1.94709 0.241432 0
M  V30 4365 O 417.711 -2.06306 -0.653205 0
M  V30 4366 C 418.306 -2.0623 2.68802 0
M  V30 4367 C 416.865 -2.597 2.72457 0
M  V30 4368 C 416.012 -1.36201 2.41546 0
M  V30 4369 H 418.963 -0.337698 1.55065 0
M  V30 4370 H 418.984 -2.90196 2.46103 0
M  V30 4371 H 418.496 -1.46987 3.59188 0
M  V30 4372 H 416.597 -3.22724 1.86225 0
M  V30 4373 H 416.71 -3.00296 3.73308 0
M  V30 4374 H 415.074 -1.67068 1.9225 0
M  V30 4375 H 415.857 -0.787425 3.34147 0
M  V30 4376 N 418.302 -1.35869 -0.798587 0
M  V30 4377 C 419.713 -1.26498 -1.37314 0
M  V30 4378 C 420.064 0.0991899 -1.95949 0
M  V30 4379 O 419.189 1.0004 -1.91888 0
M  V30 4380 C 419.784 -2.29054 -2.49639 0
M  V30 4381 C 418.343 -2.234 -3.02935 0
M  V30 4382 C 417.49 -2.14329 -1.75949 0
M  V30 4383 H 420.441 -1.46881 -0.600971 0
M  V30 4384 H 420.462 -1.92166 -3.28409 0
M  V30 4385 H 419.974 -3.2833 -2.06933 0
M  V30 4386 H 418.075 -1.27562 -3.50084 0
M  V30 4387 H 418.188 -3.15703 -3.60372 0
M  V30 4388 H 416.552 -1.60435 -1.9782 0
M  V30 4389 H 417.335 -3.15477 -1.35384 0
M  V30 4390 N 419.78 1.02168 -1.19998 0
M  V30 4391 C 420.712 2.10705 -0.901994 0
M  V30 4392 C 421.725 1.6244 0.108216 0
M  V30 4393 O 422.914 1.78082 -0.12214 0
M  V30 4394 C 420.014 3.37291 -0.329834 0
M  V30 4395 C 419.187 4.14714 -1.39035 0
M  V30 4396 C 418.246 5.19606 -0.830432 0
M  V30 4397 O 417.272 5.48809 -1.50989 0
M  V30 4398 N 418.474 5.79366 0.362696 0
M  V30 4399 H 421.239 2.36856 -1.83628 0
M  V30 4400 H 418.8 1.18518 -1.10296 0
M  V30 4401 H 420.792 4.04657 0.0587633 0
M  V30 4402 H 419.362 3.0843 0.508891 0
M  V30 4403 H 418.582 3.42392 -1.9535 0
M  V30 4404 H 419.87 4.63226 -2.10474 0
M  V30 4405 H 419.268 5.57968 0.932081 0
M  V30 4406 H 417.825 6.48106 0.69299 0
M  V30 4407 N 421.258 1.00505 1.21394 0
M  V30 4408 C 422.498 0.696149 1.9218 0
M  V30 4409 C 422.862 -0.759099 1.76357 0
M  V30 4410 O 424.063 -1.17998 2.41516 0
M  V30 4411 C 422.334 1.10571 3.39866 0
M  V30 4412 S 423.893 0.91702 4.29111 0
M  V30 4413 H 420.711 0.254147 0.664026 0
M  V30 4414 H 423.313 1.28988 1.46909 0
M  V30 4415 H 422.017 2.16096 3.489 0
M  V30 4416 H 421.548 0.504268 3.90155 0
M  V30 4417 H 423.563 -0.185855 4.95852 0
M  V30 4418 N 422.737 -1.36956 0.779787 0
M  V30 4419 C 423.965 -2.03755 0.359398 0
M  V30 4420 C 424.38 -1.58807 -1.02106 0
M  V30 4421 O 423.737 -0.773024 -1.6532 0
M  V30 4422 C 423.788 -3.59251 0.402568 0
M  V30 4423 O 423.509 -4.02557 1.72858 0
M  V30 4424 C 425.01 -4.43291 -0.0284068 0
M  V30 4425 H 422.23 -0.654148 0.149437 0
M  V30 4426 H 424.774 -1.75128 1.05595 0
M  V30 4427 H 422.929 -3.86621 -0.245478 0
M  V30 4428 H 423.343 -4.97111 1.67275 0
M  V30 4429 H 424.817 -5.51975 0.0529466 0
M  V30 4430 H 425.294 -4.25719 -1.07982 0
M  V30 4431 H 425.9 -4.21163 0.591758 0
M  V30 4432 N 424.215 -0.530993 -1.48385 0
M  V30 4433 C 425.44 0.000729535 -2.074 0
M  V30 4434 C 425.865 1.27298 -1.3848 0
M  V30 4435 O 425.223 1.75599 -0.451081 0
M  V30 4436 C 425.271 0.206697 -3.60007 0
M  V30 4437 O 424.375 1.27514 -3.92191 0
M  V30 4438 H 423.716 -0.039583 -0.662819 0
M  V30 4439 H 426.246 -0.739194 -1.9078 0
M  V30 4440 H 426.256 0.42904 -4.05738 0
M  V30 4441 H 424.931 -0.722675 -4.09573 0
M  V30 4442 H 423.508 1.03537 -3.58238 0
M  V30 4443 N 425.693 1.55336 -0.266172 0
M  V30 4444 C 426.623 2.25146 0.618981 0
M  V30 4445 C 427.604 1.23845 1.16604 0
M  V30 4446 O 428.789 1.52544 1.20183 0
M  V30 4447 C 425.919 2.96572 1.80728 0
M  V30 4448 C 424.873 4.04726 1.39215 0
M  V30 4449 C 424.199 4.63678 2.66283 0
M  V30 4450 C 425.499 5.19407 0.548942 0
M  V30 4451 H 427.193 2.99377 0.0368116 0
M  V30 4452 H 424.739 1.43991 0.0162651 0
M  V30 4453 H 426.692 3.44116 2.43232 0
M  V30 4454 H 425.416 2.19861 2.41514 0
M  V30 4455 H 424.075 3.57979 0.790351 0
M  V30 4456 H 423.723 3.83646 3.25308 0
M  V30 4457 H 423.423 5.367 2.39222 0
M  V30 4458 H 424.947 5.13967 3.29651 0
M  V30 4459 H 426.361 5.63059 1.07876 0
M  V30 4460 H 424.758 5.98936 0.373593 0
M  V30 4461 H 425.828 4.8295 -0.434394 0
M  V30 4462 N 427.171 -0.0066808 1.57599 0
M  V30 4463 C 428.134 -0.985035 2.06953 0
M  V30 4464 C 429.134 -1.27663 0.977687 0
M  V30 4465 O 430.324 -1.22293 1.24057 0
M  V30 4466 C 427.456 -2.3118 2.50536 0
M  V30 4467 H 428.649 -0.558255 2.94658 0
M  V30 4468 H 426.202 -0.254011 1.54222 0
M  V30 4469 H 426.937 -2.78561 1.66054 0
M  V30 4470 H 426.722 -2.11338 3.3027 0
M  V30 4471 H 428.212 -3.01377 2.8907 0
M  V30 4472 N 428.649 -1.55105 -0.279332 0
M  V30 4473 C 429.895 -1.76597 -1.00921 0
M  V30 4474 C 430.25 -0.556831 -1.84166 0
M  V30 4475 O 429.543 0.450573 -1.86227 0
M  V30 4476 C 429.737 -3.0086 -1.92919 0
M  V30 4477 C 429.566 -4.33744 -1.18728 0
M  V30 4478 C 428.336 -4.9712 -0.905545 0
M  V30 4479 C 430.534 -5.11009 -0.580857 0
M  V30 4480 N 428.516 -6.13749 -0.136169 0
M  V30 4481 C 429.887 -6.19976 0.0546661 0
M  V30 4482 C 431.942 -4.95502 -0.488067 0
M  V30 4483 C 430.645 -7.15123 0.774028 0
M  V30 4484 C 432.671 -5.90999 0.217688 0
M  V30 4485 C 432.033 -6.9935 0.841975 0
M  V30 4486 H 428.132 -0.698553 -0.351493 0
M  V30 4487 H 430.716 -1.92595 -0.285531 0
M  V30 4488 H 428.887 -2.86249 -2.62519 0
M  V30 4489 H 430.619 -3.10784 -2.59221 0
M  V30 4490 H 427.374 -4.57903 -1.20921 0
M  V30 4491 H 427.798 -6.7659 0.235665 0
M  V30 4492 H 432.44 -4.11841 -0.956406 0
M  V30 4493 H 430.158 -7.9831 1.25407 0
M  V30 4494 H 433.744 -5.81078 0.289717 0
M  V30 4495 H 432.624 -7.71973 1.37939 0
M  V30 4496 N 430.127 0.543554 -1.4793 0
M  V30 4497 C 431.352 1.32995 -1.59145 0
M  V30 4498 C 431.777 1.86472 -0.246956 0
M  V30 4499 O 431.135 1.63696 0.779324 0
M  V30 4500 C 431.183 2.46623 -2.63077 0
M  V30 4501 O 430.287 3.49261 -2.19295 0
M  V30 4502 H 429.628 0.394472 -0.534124 0
M  V30 4503 H 432.158 0.655489 -1.93816 0
M  V30 4504 H 432.168 2.93001 -2.83926 0
M  V30 4505 H 430.843 2.07059 -3.60693 0
M  V30 4506 H 429.42 3.09094 -2.08603 0
M  V30 4507 N 431.605 1.3629 0.791371 0
M  V30 4508 C 432.568 1.30309 1.88553 0
M  V30 4509 C 433.568 0.211204 1.59407 0
M  V30 4510 O 434.758 0.465865 1.67855 0
M  V30 4511 C 431.89 1.01956 3.25297 0
M  V30 4512 H 433.083 2.27614 1.95273 0
M  V30 4513 H 430.636 1.21035 0.988953 0
M  V30 4514 H 431.371 0.050998 3.2426 0
M  V30 4515 H 431.156 1.80968 3.4784 0
M  V30 4516 H 432.646 1.0037 4.05359 0
M  V30 4517 N 433.083 -1.0153 1.20538 0
M  V30 4518 C 434.36 -1.72327 0.925343 0
M  V30 4519 C 434.74 -2.03383 -0.565547 0
M  V30 4520 O 434.088 -1.69934 -1.52757 0
M  V30 4521 C 434.298 -2.9902 1.79967 0
M  V30 4522 C 435.646 -3.72258 2.04228 0
M  V30 4523 O 436.67 -3.08979 1.77231 0
M  V30 4524 O 435.529 -4.86053 2.4983 0
M  V30 4525 H 432.623 -0.751099 0.346092 0
M  V30 4526 H 435.169 -1.07366 1.31417 0
M  V30 4527 H 433.941 -2.72402 2.80915 0
M  V30 4528 H 433.564 -3.71721 1.41099 0
M  V30 4529 N 434.561 -1.01147 -1.20859 0
M  V30 4530 C 435.809 -0.696486 -1.89719 0
M  V30 4531 C 436.13 0.775788 -1.78904 0
M  V30 4532 O 435.4 1.55759 -1.18811 0
M  V30 4533 H 433.98 -0.254628 -0.702263 0
M  V30 4534 H 436.642 -1.28197 -1.46804 0
M  V30 4535 H 435.738 -0.975357 -2.96468 0
M  V30 4536 N 436.039 1.36541 -0.78704 0
M  V30 4537 C 436.971 2.28761 -0.141773 0
M  V30 4538 C 437.984 1.49365 0.647599 0
M  V30 4539 O 439.173 1.71836 0.483173 0
M  V30 4540 C 436.273 3.28771 0.822368 0
M  V30 4541 C 435.446 4.3732 0.0835594 0
M  V30 4542 C 434.505 5.17307 0.963296 0
M  V30 4543 O 433.531 5.67638 0.421419 0
M  V30 4544 N 434.733 5.33515 2.28784 0
M  V30 4545 H 437.498 2.84777 -0.933919 0
M  V30 4546 H 435.059 1.48682 -0.640735 0
M  V30 4547 H 437.051 3.79169 1.41468 0
M  V30 4548 H 435.621 2.73412 1.5154 0
M  V30 4549 H 434.841 3.88118 -0.689809 0
M  V30 4550 H 436.129 5.0701 -0.426358 0
M  V30 4551 H 435.527 4.94234 2.75226 0
M  V30 4552 H 434.084 5.87165 2.82985 0
M  V30 4553 N 437.518 0.538854 1.48102 0
M  V30 4554 C 438.746 0.0123136 2.06896 0
M  V30 4555 C 439.161 -1.27312 1.39417 0
M  V30 4556 O 438.518 -1.75949 0.484582 0
M  V30 4557 C 438.569 -0.206118 3.60912 0
M  V30 4558 O 438.29 1.0284 4.25859 0
M  V30 4559 C 439.791 -0.772033 4.36526 0
M  V30 4560 H 437.011 0.0375239 0.66995 0
M  V30 4561 H 439.555 0.747032 1.90367 0
M  V30 4562 H 437.71 -0.89091 3.77017 0
M  V30 4563 H 438.124 0.814654 5.18135 0
M  V30 4564 H 439.598 -0.874251 5.45033 0
M  V30 4565 H 440.075 -1.77904 4.01555 0
M  V30 4566 H 440.681 -0.123526 4.25121 0
M  V30 4567 N 438.996 -1.55193 0.274407 0
M  V30 4568 C 439.926 -2.25471 -0.607032 0
M  V30 4569 C 440.907 -1.24461 -1.15946 0
M  V30 4570 O 442.092 -1.53179 -1.19373 0
M  V30 4571 C 439.222 -2.97526 -1.79153 0
M  V30 4572 C 438.176 -4.05459 -1.37067 0
M  V30 4573 C 437.502 -4.65084 -2.6382 0
M  V30 4574 C 438.802 -5.19691 -0.521389 0
M  V30 4575 H 440.496 -2.99393 -0.0209343 0
M  V30 4576 H 438.042 -1.43997 -0.00862866 0
M  V30 4577 H 439.995 -3.45402 -2.41404 0
M  V30 4578 H 438.719 -2.21138 -2.40344 0
M  V30 4579 H 437.378 -3.58393 -0.771355 0
M  V30 4580 H 437.026 -3.85365 -3.23268 0
M  V30 4581 H 436.726 -5.37961 -2.36372 0
M  V30 4582 H 438.25 -5.15708 -3.26921 0
M  V30 4583 H 439.664 -5.63623 -1.04889 0
M  V30 4584 H 438.061 -5.99126 -0.341825 0
M  V30 4585 H 439.131 -4.82713 0.46 0
M  V30 4586 N 440.474 -0.00167713 -1.576 0
M  V30 4587 C 441.721 0.68282 -1.90641 0
M  V30 4588 C 442.049 1.73686 -0.875415 0
M  V30 4589 O 441.304 1.95334 0.119575 0
M  V30 4590 C 441.603 1.36189 -3.30435 0
M  V30 4591 C 441.269 0.440887 -4.48739 0
M  V30 4592 C 439.931 0.187312 -4.80835 0
M  V30 4593 C 442.283 -0.193134 -5.20842 0
M  V30 4594 C 439.611 -0.70855 -5.82406 0
M  V30 4595 C 441.963 -1.07688 -6.23367 0
M  V30 4596 C 440.627 -1.33962 -6.53919 0
M  V30 4597 H 439.897 0.249862 -0.697603 0
M  V30 4598 H 442.544 -0.0575642 -1.91413 0
M  V30 4599 H 440.849 2.17636 -3.25794 0
M  V30 4600 H 442.546 1.89759 -3.5326 0
M  V30 4601 H 439.136 0.648694 -4.23663 0
M  V30 4602 H 443.32 -0.0102445 -4.96299 0
M  V30 4603 H 438.576 -0.920097 -6.04437 0
M  V30 4604 H 442.75 -1.57451 -6.78367 0
M  V30 4605 H 440.377 -2.03549 -7.32442 0
M  V30 4606 N 441.952 1.55251 0.271103 0
M  V30 4607 C 442.915 1.87484 1.31842 0
M  V30 4608 C 443.915 0.749545 1.42262 0
M  V30 4609 O 445.105 1.01771 1.4138 0
M  V30 4610 C 442.237 2.0818 2.69951 0
M  V30 4611 H 443.43 2.81108 1.0449 0
M  V30 4612 H 440.983 1.47771 0.509258 0
M  V30 4613 H 441.718 1.16944 3.02481 0
M  V30 4614 H 441.503 2.90114 2.63774 0
M  V30 4615 H 442.993 2.34385 3.4562 0
M  V30 4616 N 443.43 -0.535701 1.48216 0
M  V30 4617 C 444.678 -1.28928 1.55634 0
M  V30 4618 C 444.999 -1.93645 0.229514 0
M  V30 4619 O 444.269 -1.81038 -0.74846 0
M  V30 4620 H 442.849 -0.47884 0.573342 0
M  V30 4621 H 445.511 -0.623853 1.84646 0
M  V30 4622 H 444.607 -2.07157 2.33436 0
M  V30 4623 N 444.908 -1.36708 -0.784132 0
M  V30 4624 C 446.138 -1.34203 -1.57077 0
M  V30 4625 C 446.546 0.0774945 -1.89041 0
M  V30 4626 O 445.889 1.04628 -1.50992 0
M  V30 4627 C 445.951 -2.10351 -2.91535 0
M  V30 4628 C 445.615 -3.59405 -2.82272 0
M  V30 4629 C 446.612 -4.53545 -2.54151 0
M  V30 4630 C 444.297 -4.02362 -3.00683 0
M  V30 4631 C 446.291 -5.8862 -2.44551 0
M  V30 4632 C 443.978 -5.37526 -2.90704 0
M  V30 4633 C 444.976 -6.30468 -2.62677 0
M  V30 4634 O 444.664 -7.63149 -2.52702 0
M  V30 4635 H 444.396 -0.461791 -0.493685 0
M  V30 4636 H 446.95 -1.80475 -0.980712 0
M  V30 4637 H 445.18 -1.5875 -3.52612 0
M  V30 4638 H 446.869 -2.00636 -3.52845 0
M  V30 4639 H 447.635 -4.21669 -2.39625 0
M  V30 4640 H 443.514 -3.30389 -3.21503 0
M  V30 4641 H 447.058 -6.61133 -2.22596 0
M  V30 4642 H 442.955 -5.69008 -3.04795 0
M  V30 4643 H 443.723 -7.73331 -2.68144 0
M  V30 4644 N 446.386 1.0089 -1.21074 0
M  V30 4645 C 447.614 1.78191 -1.05145 0
M  V30 4646 C 448.029 1.84537 0.398952 0
M  V30 4647 O 447.386 1.30393 1.27687 0
M  V30 4648 C 447.437 3.22288 -1.63746 0
M  V30 4649 O 447.158 3.16315 -3.03111 0
M  V30 4650 C 448.659 4.16106 -1.52875 0
M  V30 4651 H 445.879 0.560129 -0.369454 0
M  V30 4652 H 448.423 1.26945 -1.60328 0
M  V30 4653 H 446.578 3.70655 -1.12664 0
M  V30 4654 H 446.992 4.06817 -3.31059 0
M  V30 4655 H 448.466 5.15026 -1.98626 0
M  V30 4656 H 448.943 4.36541 -0.482521 0
M  V30 4657 H 449.549 3.73625 -2.03185 0
M  V30 4658 N 447.864 1.01787 1.20321 0
M  V30 4659 C 449.141 0.622978 1.85414 0
M  V30 4660 C 449.521 -0.898887 1.91006 0
M  V30 4661 O 448.869 -1.79112 1.41884 0
M  V30 4662 C 449.079 1.27226 3.24984 0
M  V30 4663 C 450.427 1.3885 4.01255 0
M  V30 4664 O 451.451 1.22857 3.34342 0
M  V30 4665 O 450.31 1.64705 5.2109 0
M  V30 4666 H 447.404 0.215116 0.798533 0
M  V30 4667 H 449.95 1.11533 1.27901 0
M  V30 4668 H 448.722 2.31209 3.15687 0
M  V30 4669 H 448.345 0.767069 3.90131 0
M  V30 4670 N 449.342 -1.36122 0.79427 0
M  V30 4671 C 450.29 -2.31871 0.184023 0
M  V30 4672 C 451.284 -1.56041 -0.659365 0
M  V30 4673 O 452.49 -1.71266 -0.553906 0
M  V30 4674 H 448.865 -0.750896 0.0407373 0
M  V30 4675 H 450.836 -2.80898 1.00693 0
M  V30 4676 C 449.585 -3.41324 -0.662813 0
M  V30 4677 H 448.908 -3.99793 -0.0231944 0
M  V30 4678 H 450.348 -4.10629 -1.05639 0
M  V30 4679 C 448.807 -2.83308 -1.82313 0
M  V30 4680 O 449.337 -2.75863 -2.91997 0
M  V30 4681 N 447.543 -2.40529 -1.63077 0
M  V30 4682 H 447.09 -2.46785 -0.738591 0
M  V30 4683 H 447.048 -2.02059 -2.40872 0
M  V30 4684 N 450.82 -0.546701 -1.47814 0
M  V30 4685 C 451.75 0.195317 -2.32682 0
M  V30 4686 C 452.731 0.918981 -1.43139 0
M  V30 4687 O 453.916 0.901501 -1.72008 0
M  V30 4688 C 451.046 1.23237 -3.247 0
M  V30 4689 C 450 0.625818 -4.234 0
M  V30 4690 C 449.326 1.76674 -5.04669 0
M  V30 4691 C 450.626 -0.413515 -5.2066 0
M  V30 4692 H 452.32 -0.513184 -2.94969 0
M  V30 4693 H 449.866 -0.248241 -1.41844 0
M  V30 4694 H 451.819 1.75955 -3.82907 0
M  V30 4695 H 450.543 1.97067 -2.60446 0
M  V30 4696 H 449.202 0.120023 -3.66403 0
M  V30 4697 H 448.85 2.49383 -4.36826 0
M  V30 4698 H 448.55 1.36673 -5.71484 0
M  V30 4699 H 450.074 2.29738 -5.65732 0
M  V30 4700 H 451.488 0.0272042 -5.73294 0
M  V30 4701 H 449.885 -0.731825 -5.95621 0
M  V30 4702 H 450.955 -1.31325 -4.66778 0
M  V30 4703 N 452.299 1.55045 -0.282633 0
M  V30 4704 C 453.545 2.00056 0.332481 0
M  V30 4705 C 453.878 1.1708 1.54939 0
M  V30 4706 O 453.153 0.2427 1.9298 0
M  V30 4707 C 453.436 3.53086 0.70725 0
M  V30 4708 C 453.289 4.46813 -0.517521 0
M  V30 4709 C 454.608 4.12245 1.54084 0
M  V30 4710 H 451.727 0.727268 0.119373 0
M  V30 4711 H 454.369 1.85932 -0.391076 0
M  V30 4712 H 452.519 3.65253 1.32372 0
M  V30 4713 H 454.191 4.46579 -1.15607 0
M  V30 4714 H 452.434 4.18163 -1.1542 0
M  V30 4715 H 453.105 5.51595 -0.211426 0
M  V30 4716 H 455.581 4.03401 1.02013 0
M  V30 4717 H 454.457 5.19515 1.77186 0
M  V30 4718 H 454.718 3.62951 2.52427 0
M  V30 4719 N 453.777 0.010035 1.57597 0
M  V30 4720 C 455.193 -0.346164 1.55801 0
M  V30 4721 C 455.393 -1.74144 1.01371 0
M  V30 4722 O 454.449 -2.43938 0.651968 0
M  V30 4723 C 455.762 -0.212216 2.9995 0
M  V30 4724 C 457.31 -0.286409 3.11687 0
M  V30 4725 C 457.785 -0.18147 4.5764 0
M  V30 4726 N 459.276 -0.239056 4.62583 0
M  V30 4727 C 460.011 -0.181351 5.73113 0
M  V30 4728 N 459.507 -0.073661 6.92761 0
M  V30 4729 N 461.3 -0.233949 5.61613 0
M  V30 4730 H 453.451 0.922657 1.91313 0
M  V30 4731 H 455.714 0.354595 0.879185 0
M  V30 4732 H 455.42 0.748169 3.4365 0
M  V30 4733 H 455.294 -0.990224 3.6397 0
M  V30 4734 H 457.681 -1.23724 2.67911 0
M  V30 4735 H 457.762 0.521645 2.50425 0
M  V30 4736 H 457.406 0.765863 5.02093 0
M  V30 4737 H 457.336 -1.00814 5.1686 0
M  V30 4738 H 459.827 -0.32321 3.76515 0
M  V30 4739 H 460.14 -0.0358003 7.72792 0
M  V30 4740 H 458.485 -0.0391461 6.94989 0
M  V30 4741 H 461.676 -0.316347 4.6703 0
M  V30 4742 H 461.849 -0.185514 6.47734 0
M  V30 4743 N 455.255 -1.55392 -0.262866 0
M  V30 4744 C 456.501 -1.76737 -0.99458 0
M  V30 4745 C 456.834 -0.572453 -1.85571 0
M  V30 4746 O 456.109 0.429732 -1.89693 0
M  V30 4747 C 456.392 -3.07824 -1.8686 0
M  V30 4748 C 456.245 -4.3769 -1.03672 0
M  V30 4749 C 457.564 -3.35021 -2.85393 0
M  V30 4750 H 454.683 -0.643005 -0.360157 0
M  V30 4751 H 457.325 -1.88126 -0.266216 0
M  V30 4752 H 455.475 -2.98245 -2.48962 0
M  V30 4753 H 457.147 -4.59238 -0.43563 0
M  V30 4754 H 455.39 -4.32461 -0.340513 0
M  V30 4755 H 456.061 -5.25759 -1.6817 0
M  V30 4756 H 458.537 -3.44458 -2.33426 0
M  V30 4757 H 457.413 -4.27989 -3.43681 0
M  V30 4758 H 457.674 -2.55153 -3.61039 0
M  V30 4759 N 456.733 0.527833 -1.48498 0
M  V30 4760 C 457.979 1.28295 -1.57836 0
M  V30 4761 C 458.334 1.9077 -0.249943 0
M  V30 4762 O 457.627 1.76421 0.747402 0
M  V30 4763 C 457.821 2.39275 -2.65485 0
M  V30 4764 C 457.65 1.87679 -4.08664 0
M  V30 4765 C 456.42 1.70187 -4.75778 0
M  V30 4766 C 458.618 1.40409 -4.94762 0
M  V30 4767 N 456.6 1.13238 -6.03366 0
M  V30 4768 C 457.971 0.954216 -6.12613 0
M  V30 4769 C 460.026 1.28732 -4.8097 0
M  V30 4770 C 458.729 0.39915 -7.18192 0
M  V30 4771 C 460.755 0.746244 -5.86673 0
M  V30 4772 C 460.117 0.306457 -7.03733 0
M  V30 4773 H 456.216 0.460408 -0.632099 0
M  V30 4774 H 458.8 0.594913 -1.85388 0
M  V30 4775 H 456.971 3.05572 -2.3975 0
M  V30 4776 H 458.703 3.06308 -2.64495 0
M  V30 4777 H 455.458 1.93772 -4.32145 0
M  V30 4778 H 455.882 0.867687 -6.71417 0
M  V30 4779 H 460.524 1.61338 -3.90807 0
M  V30 4780 H 458.242 0.0607678 -8.08077 0
M  V30 4781 H 461.828 0.659041 -5.78055 0
M  V30 4782 H 460.708 -0.105708 -7.84129 0
M  V30 4783 N 458.211 1.37122 0.776871 0
M  V30 4784 C 459.143 1.28342 1.89897 0
M  V30 4785 C 460.156 0.200277 1.61563 0
M  V30 4786 O 461.345 0.456012 1.72577 0
M  V30 4787 C 458.445 0.960427 3.25006 0
M  V30 4788 C 457.618 2.148 3.81025 0
M  V30 4789 C 456.677 1.79608 4.94598 0
M  V30 4790 O 455.703 2.51845 5.10454 0
M  V30 4791 N 456.905 0.737171 5.758 0
M  V30 4792 H 459.67 2.25027 1.97947 0
M  V30 4793 H 457.231 1.3068 0.955739 0
M  V30 4794 H 459.223 0.705942 3.98495 0
M  V30 4795 H 457.793 0.0823066 3.12492 0
M  V30 4796 H 457.013 2.56454 2.99374 0
M  V30 4797 H 458.301 2.9411 4.15183 0
M  V30 4798 H 457.699 0.137637 5.65533 0
M  V30 4799 H 456.256 0.542534 6.49538 0
M  V30 4800 N 459.689 -1.00246 1.21608 0
M  V30 4801 C 460.935 -1.74319 1.03638 0
M  V30 4802 C 461.268 -1.89408 -0.428749 0
M  V30 4803 O 460.543 -1.43026 -1.3181 0
M  V30 4804 C 460.826 -3.15431 1.73711 0
M  V30 4805 C 460.679 -3.08049 3.27759 0
M  V30 4806 C 461.998 -4.14407 1.48173 0
M  V30 4807 H 459.117 -0.632741 0.377899 0
M  V30 4808 H 461.759 -1.16853 1.49818 0
M  V30 4809 H 459.909 -3.64493 1.34452 0
M  V30 4810 H 461.581 -2.66681 3.76403 0
M  V30 4811 H 459.824 -2.45088 3.57931 0
M  V30 4812 H 460.495 -4.07862 3.71958 0
M  V30 4813 H 462.971 -3.74061 1.82258 0
M  V30 4814 H 461.847 -5.11279 1.99713 0
M  V30 4815 H 462.108 -4.40174 0.412273 0
M  V30 4816 N 461.167 -1.02423 -1.1978 0
M  V30 4817 C 462.395 -0.737456 -1.93311 0
M  V30 4818 C 462.81 0.703023 -1.75223 0
M  V30 4819 O 462.167 1.47761 -1.07112 0
M  V30 4820 C 462.218 -1.0733 -3.45199 0
M  V30 4821 O 461.939 -2.4572 -3.62702 0
M  V30 4822 C 463.44 -0.80866 -4.35862 0
M  V30 4823 H 460.66 -0.2702 -0.614193 0
M  V30 4824 H 463.204 -1.36747 -1.52054 0
M  V30 4825 H 461.359 -0.488545 -3.84307 0
M  V30 4826 H 461.773 -2.58081 -4.56612 0
M  V30 4827 H 463.247 -1.09365 -5.41057 0
M  V30 4828 H 463.724 0.257025 -4.38447 0
M  V30 4829 H 464.33 -1.37592 -4.02428 0
M  V30 4830 N 462.645 1.35699 -0.801477 0
M  V30 4831 C 463.894 1.98165 -0.375979 0
M  V30 4832 C 464.207 1.64306 1.06127 0
M  V30 4833 O 465.413 2.20097 1.58964 0
M  V30 4834 C 463.869 3.54497 -0.621305 0
M  V30 4835 C 463.477 3.9727 -2.07076 0
M  V30 4836 C 465.221 4.23697 -0.26091 0
M  V30 4837 C 463.128 5.46427 -2.26211 0
M  V30 4838 H 462.058 0.741478 -0.136844 0
M  V30 4839 H 464.709 1.54834 -0.984814 0
M  V30 4840 H 463.091 3.95958 0.0574112 0
M  V30 4841 H 464.265 3.66974 -2.78687 0
M  V30 4842 H 462.58 3.40943 -2.39054 0
M  V30 4843 H 465.177 5.33334 -0.381994 0
M  V30 4844 H 465.52 4.0869 0.792344 0
M  V30 4845 H 466.053 3.87639 -0.893339 0
M  V30 4846 H 462.792 5.66396 -3.29963 0
M  V30 4847 H 462.312 5.78309 -1.59119 0
M  V30 4848 H 463.991 6.12819 -2.07513 0
M  V30 4849 N 464.123 0.554532 1.47522 0
M  V30 4850 C 465.371 0.0294208 2.02079 0
M  V30 4851 C 465.692 -1.32411 1.43151 0
M  V30 4852 O 464.962 -1.863 0.605728 0
M  V30 4853 H 463.542 0.00788672 0.746958 0
M  V30 4854 H 466.204 0.723934 1.80956 0
M  V30 4855 H 465.3 -0.0606745 3.12041 0
M  V30 4856 N 465.601 -1.54893 0.290851 0
M  V30 4857 C 466.829 -2.04343 -0.324288 0
M  V30 4858 C 467.244 -1.16859 -1.48289 0
M  V30 4859 O 466.601 -0.192018 -1.81487 0
M  V30 4860 C 466.652 -3.52756 -0.79026 0
M  V30 4861 O 466.373 -4.36913 0.322213 0
M  V30 4862 C 467.874 -4.18161 -1.4716 0
M  V30 4863 H 465.094 -0.667135 -0.0719173 0
M  V30 4864 H 467.638 -1.99981 0.427529 0
M  V30 4865 H 465.793 -3.57511 -1.49213 0
M  V30 4866 H 466.207 -5.24486 -0.0387372 0
M  V30 4867 H 467.681 -5.23562 -1.7489 0
M  V30 4868 H 468.158 -3.67282 -2.40834 0
M  V30 4869 H 468.764 -4.17454 -0.813178 0
M  V30 4870 N 467.08 -0.0183926 -1.57589 0
M  V30 4871 C 468.496 0.337897 -1.55982 0
M  V30 4872 C 468.696 1.73604 -1.02294 0
M  V30 4873 O 467.752 2.43589 -0.664895 0
M  V30 4874 C 469.065 0.196305 -3.00059 0
M  V30 4875 C 470.613 0.269875 -3.11834 0
M  V30 4876 C 471.088 0.157197 -4.5773 0
M  V30 4877 N 472.579 0.214521 -4.62703 0
M  V30 4878 C 473.314 0.150955 -5.73201 0
M  V30 4879 N 472.81 0.0369212 -6.9279 0
M  V30 4880 N 474.603 0.204162 -5.61729 0
M  V30 4881 H 466.754 -0.93279 -1.90821 0
M  V30 4882 H 469.017 -0.359253 -0.877292 0
M  V30 4883 H 468.723 -0.766383 -3.43248 0
M  V30 4884 H 468.597 0.970908 -3.6449 0
M  V30 4885 H 470.984 1.22302 -2.68563 0
M  V30 4886 H 471.065 -0.534918 -2.50144 0
M  V30 4887 H 470.709 -0.792479 -5.01679 0
M  V30 4888 H 470.639 0.980717 -5.17387 0
M  V30 4889 H 473.13 0.303238 -3.76681 0
M  V30 4890 H 473.443 -0.00518321 -7.728 0
M  V30 4891 H 471.788 0.0022886 -6.95 0
M  V30 4892 H 474.979 0.291575 -4.67191 0
M  V30 4893 H 475.152 0.15116 -6.47824 0
M  V30 4894 O 468.597 1.61027 0.12348 0
M  V30 4895 H 469.288 1.78369 0.755254 0
M  V30 END ATOM
M  V30 BEGIN BOND
M  V30 END BOND
M  V30 END CTAB
M  END
$$$$
