drugbank_target|P63252 Inward rectifier potassium channel 2 (DB00243; DB01110; DB04855)
 OpenBabel12092121193D

  0  0  0     0  0            999 V3000
M  V30 BEGIN CTAB
M  V30 COUNTS 6738 6810 0 0 0
M  V30 BEGIN ATOM
M  V30 1 H -0.908 1.98254 -0.117106 0
M  V30 2 N 0 1.576 0 0
M  V30 3 C 0.933 2.03868 1.02534 0
M  V30 4 C 1.911 0.928543 1.3348 0
M  V30 5 O 3.095 1.19667 1.45644 0
M  V30 6 C 0.222 2.43627 2.35294 0
M  V30 7 C -0.732 3.65373 2.2001 0
M  V30 8 S 0.101 5.13292 1.52614 0
M  V30 9 C 1.257 5.56322 2.86805 0
M  V30 10 H 1.49 2.90518 0.631377 0
M  V30 11 H -0.977 1.52953 0.210867 0
M  V30 12 H 0.981 2.67203 3.11629 0
M  V30 13 H -0.358 1.57376 2.7183 0
M  V30 14 H -1.165 3.90944 3.18086 0
M  V30 15 H -1.563 3.418 1.51819 0
M  V30 16 H 0.729 5.58782 3.83104 0
M  V30 17 H 1.672 6.56266 2.65933 0
M  V30 18 H 2.08 4.83886 2.90714 0
M  V30 19 N 1.4781 -0.272755 1.55222 0
M  V30 20 C 2.7261 -1.00234 1.75492 0
M  V30 21 C 3.0471 -1.8681 0.5592 0
M  V30 22 O 2.3171 -1.91215 -0.425882 0
M  V30 23 H 0.8971 -0.373076 0.647166 0
M  V30 24 H 3.5591 -0.296926 1.92625 0
M  V30 25 H 2.6551 -1.63913 2.65592 0
M  V30 26 N 2.9562 -1.48159 -0.537278 0
M  V30 27 C 4.1812 -1.59707 -1.32319 0
M  V30 28 C 4.6062 -0.254859 -1.86365 0
M  V30 29 O 3.9642 0.772378 -1.64024 0
M  V30 30 C 4.0122 -2.6412 -2.45505 0
M  V30 31 O 3.1162 -2.20774 -3.48328 0
M  V30 32 H 2.4572 -0.535791 -0.392204 0
M  V30 33 H 4.9872 -1.94092 -0.647268 0
M  V30 34 H 4.9972 -2.85166 -2.91795 0
M  V30 35 H 3.6722 -3.61567 -2.05528 0
M  V30 36 H 2.2492 -2.09911 -3.08207 0
M  V30 37 N 4.4343 0.785586 -1.36625 0
M  V30 38 C 5.6803 1.54591 -1.31261 0
M  V30 39 C 6.0133 1.93906 0.106823 0
M  V30 40 O 5.2883 1.63007 1.06108 0
M  V30 41 C 5.5713 2.82038 -2.23889 0
M  V30 42 C 5.4243 2.49066 -3.74548 0
M  V30 43 C 6.7433 3.83887 -2.15217 0
M  V30 44 H 3.8623 0.560846 -0.478143 0
M  V30 45 H 6.5043 0.902278 -1.67209 0
M  V30 46 H 4.6543 3.36961 -1.93363 0
M  V30 47 H 6.3263 2.00164 -4.15611 0
M  V30 48 H 4.5693 1.81954 -3.93796 0
M  V30 49 H 5.2403 3.40109 -4.34776 0
M  V30 50 H 7.7163 3.38421 -2.42096 0
M  V30 51 H 6.5923 4.70806 -2.82193 0
M  V30 52 H 6.8533 4.27131 -1.14068 0
M  V30 53 N 5.9124 1.20967 1.01018 0
M  V30 54 C 7.3284 0.965905 1.27053 0
M  V30 55 C 7.5284 -0.350785 1.98423 0
M  V30 56 O 6.5844 -1.07773 2.28344 0
M  V30 57 C 7.8974 2.15294 2.09926 0
M  V30 58 C 9.4454 2.19463 2.23171 0
M  V30 59 C 9.9204 3.3767 3.09424 0
M  V30 60 N 11.4114 3.37724 3.17012 0
M  V30 61 C 12.1464 4.25837 3.83993 0
M  V30 62 N 11.6424 5.24138 4.53047 0
M  V30 63 N 13.4354 4.1366 3.80581 0
M  V30 64 H 5.5864 2.0565 0.531194 0
M  V30 65 H 7.8494 0.90024 0.297106 0
M  V30 66 H 7.5554 3.10684 1.64828 0
M  V30 67 H 7.4294 2.13923 3.10672 0
M  V30 68 H 9.8164 1.24632 2.6749 0
M  V30 69 H 9.8974 2.2488 1.21912 0
M  V30 70 H 9.5414 4.32791 2.65808 0
M  V30 71 H 9.4714 3.29491 4.10784 0
M  V30 72 H 11.9624 2.6658 2.6785 0
M  V30 73 H 12.2754 5.87684 5.01844 0
M  V30 74 H 10.6204 5.28068 4.5185 0
M  V30 75 H 13.8114 3.36127 3.25785 0
M  V30 76 H 13.9844 4.82538 4.32505 0
M  V30 77 N 7.3905 -1.2043 1.01659 0
M  V30 78 C 8.6185 -1.93777 0.725132 0
M  V30 79 C 9.0335 -1.74772 -0.714166 0
M  V30 80 O 8.3905 -1.06169 -1.4844 0
M  V30 81 C 8.4415 -3.45876 1.05129 0
M  V30 82 O 8.1625 -3.6426 2.43406 0
M  V30 83 C 9.6635 -4.36368 0.780891 0
M  V30 84 H 6.8835 -0.615901 0.266284 0
M  V30 85 H 9.4275 -1.52922 1.35776 0
M  V30 86 H 7.5825 -3.8461 0.464065 0
M  V30 87 H 7.9965 -4.58246 2.55169 0
M  V30 88 H 9.4705 -5.41743 1.05918 0
M  V30 89 H 9.9475 -4.38275 -0.284937 0
M  V30 90 H 10.5535 -4.03296 1.35027 0
M  V30 91 N 8.8686 -0.792821 -1.36206 0
M  V30 92 C 9.8166 -0.181555 -2.3189 0
M  V30 93 C 10.8106 0.661025 -1.55971 0
M  V30 94 O 12.0166 0.555728 -1.71206 0
M  V30 95 H 8.3916 -0.0399382 -0.750939 0
M  V30 96 H 10.3626 -1.00394 -2.81005 0
M  V30 97 C 9.1116 0.666444 -3.41253 0
M  V30 98 H 8.4346 0.0274489 -3.99791 0
M  V30 99 H 9.8746 1.06076 -4.10517 0
M  V30 100 C 8.3336 1.82614 -2.83114 0
M  V30 101 O 8.8636 2.9229 -2.75553 0
M  V30 102 N 7.0696 1.63333 -2.40356 0
M  V30 103 H 6.6166 0.741217 -2.46706 0
M  V30 104 H 6.5746 2.41087 -2.01803 0
M  V30 105 N 10.3467 1.47872 -0.545128 0
M  V30 106 C 11.7627 1.5829 -0.204032 0
M  V30 107 C 11.9627 1.54529 1.29317 0
M  V30 108 O 11.0187 1.44232 2.07252 0
M  V30 109 C 12.3317 2.89304 -0.819987 0
M  V30 110 C 13.8797 3.02864 -0.790105 0
M  V30 111 C 14.3547 4.3656 -1.38491 0
M  V30 112 N 15.8457 4.43165 -1.34755 0
M  V30 113 C 16.5807 5.45153 -1.77753 0
M  V30 114 N 16.0767 6.54016 -2.2855 0
M  V30 115 N 17.8697 5.36125 -1.68897 0
M  V30 116 H 10.0207 1.4856 -1.51802 0
M  V30 117 H 12.2837 0.706305 -0.632327 0
M  V30 118 H 11.9897 2.97757 -1.87173 0
M  V30 119 H 11.8637 3.75957 -0.305915 0
M  V30 120 H 14.2507 2.94014 0.252913 0
M  V30 121 H 14.3317 2.17782 -1.34181 0
M  V30 122 H 13.9757 4.46164 -2.42693 0
M  V30 123 H 13.9057 5.20353 -0.808754 0
M  V30 124 H 16.3967 3.65083 -0.975855 0
M  V30 125 H 16.7097 7.27994 -2.59314 0
M  V30 126 H 15.0547 6.54938 -2.32553 0
M  V30 127 H 18.2457 4.49975 -1.28998 0
M  V30 128 H 18.4187 6.15472 -2.02726 0
M  V30 129 N 11.8248 0.280983 1.55075 0
M  V30 130 C 13.0548 -0.336804 2.03836 0
M  V30 131 C 13.4628 -1.49577 1.15859 0
M  V30 132 O 12.8058 -1.82888 0.172503 0
M  V30 133 C 12.8678 -0.874616 3.48699 0
M  V30 134 C 12.5318 0.156478 4.56732 0
M  V30 135 C 13.5288 0.978032 5.10618 0
M  V30 136 C 11.2138 0.292409 5.01448 0
M  V30 137 C 13.2078 1.92165 6.07743 0
M  V30 138 C 10.8948 1.23949 5.98398 0
M  V30 139 C 11.8928 2.05261 6.51427 0
M  V30 140 O 11.5808 2.98367 7.4648 0
M  V30 141 H 11.3128 -0.0800885 0.671239 0
M  V30 142 H 13.8668 0.412589 2.01213 0
M  V30 143 H 12.0968 -1.67418 3.4858 0
M  V30 144 H 13.7858 -1.40612 3.80766 0
M  V30 145 H 14.5518 0.883782 4.7688 0
M  V30 146 H 10.4308 -0.330498 4.59814 0
M  V30 147 H 13.9748 2.55672 6.49059 0
M  V30 148 H 9.8718 1.33454 6.31554 0
M  V30 149 H 10.6398 2.93116 7.64215 0
M  V30 150 N 13.3029 -1.57598 0.00835791 0
M  V30 151 C 14.5279 -1.95617 -0.689103 0
M  V30 152 C 14.9529 -0.883753 -1.66046 0
M  V30 153 O 14.3109 0.157352 -1.80616 0
M  V30 154 C 14.3589 -3.32736 -1.38994 0
M  V30 155 O 13.4629 -3.27631 -2.50463 0
M  V30 156 H 12.8039 -0.638379 -0.182668 0
M  V30 157 H 15.3339 -2.045 0.064036 0
M  V30 158 H 15.3439 -3.68494 -1.75147 0
M  V30 159 H 14.0189 -4.1034 -0.677778 0
M  V30 160 H 12.5959 -3.03561 -2.16576 0
M  V30 161 N 14.781 0.264519 -1.55364 0
M  V30 162 C 16.03 0.992812 -1.75574 0
M  V30 163 C 16.343 1.87142 -0.568979 0
M  V30 164 O 17.549 2.63513 -0.653682 0
M  V30 165 C 16.005 1.81519 -3.10771 0
M  V30 166 C 15.613 0.984839 -4.37041 0
M  V30 167 C 17.357 2.53727 -3.40327 0
M  V30 168 C 15.264 1.80209 -5.63275 0
M  V30 169 H 14.194 0.374412 -0.65447 0
M  V30 170 H 16.845 0.248138 -1.81815 0
M  V30 171 H 15.227 2.60115 -2.98591 0
M  V30 172 H 16.401 0.242455 -4.60162 0
M  V30 173 H 14.716 0.37691 -4.14691 0
M  V30 174 H 17.313 3.15292 -4.3185 0
M  V30 175 H 17.656 3.24447 -2.60845 0
M  V30 176 H 18.189 1.82156 -3.53644 0
M  V30 177 H 14.928 1.13896 -6.45529 0
M  V30 178 H 14.448 2.52022 -5.44284 0
M  V30 179 H 16.127 2.37364 -6.01887 0
M  V30 180 N 16.2591 1.48442 0.529413 0
M  V30 181 C 17.5051 1.5672 1.28711 0
M  V30 182 C 17.8381 0.2406 1.92704 0
M  V30 183 O 17.1131 -0.753454 1.79313 0
M  V30 184 C 17.3961 2.70587 2.37603 0
M  V30 185 C 17.2491 4.12953 1.78297 0
M  V30 186 C 18.5681 2.80212 3.39366 0
M  V30 187 H 15.6871 0.570474 0.466613 0
M  V30 188 H 18.3291 1.80617 0.589706 0
M  V30 189 H 16.4791 2.50342 2.97088 0
M  V30 190 H 18.1511 4.44639 1.22858 0
M  V30 191 H 16.3941 4.19927 1.0883 0
M  V30 192 H 17.0651 4.88448 2.57144 0
M  V30 193 H 19.5411 2.98553 2.89836 0
M  V30 194 H 18.4171 3.61611 4.12951 0
M  V30 195 H 18.6781 1.88393 3.99951 0
M  V30 196 N 17.7372 -0.778329 1.37039 0
M  V30 197 C 18.9622 -1.57248 1.35233 0
M  V30 198 C 19.3872 -1.87999 -0.0615568 0
M  V30 199 O 18.7452 -1.48734 -1.03672 0
M  V30 200 C 18.7932 -2.86353 2.19167 0
M  V30 201 O 17.8972 -3.80442 1.59178 0
M  V30 202 H 17.2382 -0.476569 0.462362 0
M  V30 203 H 19.7682 -0.963853 1.80474 0
M  V30 204 H 19.7782 -3.35519 2.32145 0
M  V30 205 H 18.4532 -2.63299 3.21942 0
M  V30 206 H 17.0302 -3.39067 1.55203 0
M  V30 207 N 19.2153 -1.21501 -1.00376 0
M  V30 208 C 20.4403 -1.05977 -1.78279 0
M  V30 209 C 20.8653 0.385994 -1.84097 0
M  V30 210 O 20.2233 1.27849 -1.28547 0
M  V30 211 C 20.2713 -1.66302 -3.19963 0
M  V30 212 O 19.3753 -0.909333 -4.0225 0
M  V30 213 H 18.7163 -0.372906 -0.549397 0
M  V30 214 H 21.2463 -1.6107 -1.26165 0
M  V30 215 H 21.2563 -1.70574 -3.70632 0
M  V30 216 H 19.9313 -2.71515 -3.15043 0
M  V30 217 H 18.5083 -0.941795 -3.60811 0
M  V30 218 N 20.6934 1.19889 -1.02296 0
M  V30 219 C 21.6034 2.26571 -0.608508 0
M  V30 220 C 22.6194 1.70299 0.356964 0
M  V30 221 O 23.7954 2.00235 0.216326 0
M  V30 222 C 20.8604 3.46677 0.0402814 0
M  V30 223 C 19.9214 4.18153 -0.97194 0
M  V30 224 C 19.1544 5.32525 -0.354016 0
M  V30 225 O 19.3774 5.64112 0.844604 0
M  V30 226 O 18.3114 5.92242 -1.07391 0
M  V30 227 H 22.1374 2.64251 -1.49684 0
M  V30 228 H 19.7224 1.26629 -0.792809 0
M  V30 229 H 21.6044 4.19475 0.402324 0
M  V30 230 H 20.2794 3.10858 0.902707 0
M  V30 231 H 19.1864 3.47499 -1.38546 0
M  V30 232 H 20.5194 4.57927 -1.80454 0
M  V30 233 N 22.1715 0.800033 1.35784 0
M  V30 234 C 23.0815 0.207204 2.33683 0
M  V30 235 C 24.0975 -0.64631 1.61551 0
M  V30 236 O 25.2735 -0.559604 1.93469 0
M  V30 237 C 22.3385 -0.639659 3.40748 0
M  V30 238 C 21.3995 0.233585 4.28664 0
M  V30 239 C 20.6325 -0.572954 5.30616 0
M  V30 240 O 20.8555 -1.80816 5.40982 0
M  V30 241 O 19.7895 0.0327285 6.01891 0
M  V30 242 H 23.6155 1.01692 2.86169 0
M  V30 243 H 21.2005 0.561691 1.38439 0
M  V30 244 H 23.0825 -1.12223 4.06182 0
M  V30 245 H 21.7575 -1.42708 2.90544 0
M  V30 246 H 20.6645 0.763147 3.66233 0
M  V30 247 H 21.9975 0.984784 4.82248 0
M  V30 248 N 23.6496 -1.47581 0.552962 0
M  V30 249 C 24.9266 -1.95563 -0.0381515 0
M  V30 250 C 25.3066 -1.49552 -1.48988 0
M  V30 251 O 24.6546 -0.732414 -2.16444 0
M  V30 252 C 24.8646 -3.48848 0.102919 0
M  V30 253 C 26.2126 -4.24577 -0.0446082 0
M  V30 254 O 27.2366 -3.56187 0.0302548 0
M  V30 255 O 26.0956 -5.46116 -0.204923 0
M  V30 256 H 23.1896 -0.824321 -0.0665067 0
M  V30 257 H 25.7356 -1.58001 0.619186 0
M  V30 258 H 24.5076 -3.75129 1.11328 0
M  V30 259 H 24.1306 -3.93165 -0.592224 0
M  V30 260 N 25.1277 -0.289203 -1.54924 0
M  V30 261 C 26.3757 0.322879 -1.99504 0
M  V30 262 C 26.6967 1.55313 -1.1791 0
M  V30 263 O 25.9667 1.94001 -0.272097 0
M  V30 264 H 24.5467 0.122291 -0.736922 0
M  V30 265 H 27.2087 -0.397802 -1.90797 0
M  V30 266 H 26.3047 0.603061 -3.06218 0
M  V30 267 N 26.6058 1.57591 -0.0167156 0
M  V30 268 C 27.5388 2.04944 1.00366 0
M  V30 269 C 28.5168 0.942648 1.32487 0
M  V30 270 O 29.7008 1.21205 1.44367 0
M  V30 271 C 26.8278 2.46109 2.32697 0
M  V30 272 C 25.8738 3.67686 2.16123 0
M  V30 273 S 26.7068 5.14882 1.47161 0
M  V30 274 C 27.8628 5.59332 2.80888 0
M  V30 275 H 28.0958 2.91172 0.600528 0
M  V30 276 H 25.6288 1.53168 0.194632 0
M  V30 277 H 27.5868 2.70493 3.08778 0
M  V30 278 H 26.2478 1.6025 2.70146 0
M  V30 279 H 25.4408 3.94296 3.13922 0
M  V30 280 H 25.0428 3.43391 1.48185 0
M  V30 281 H 27.3348 5.62814 3.77156 0
M  V30 282 H 28.2778 6.5905 2.58958 0
M  V30 283 H 28.6858 4.86942 2.85565 0
M  V30 284 N 28.0839 -0.256276 1.55502 0
M  V30 285 C 29.0309 -1.31714 1.89526 0
M  V30 286 C 30.0009 -1.4828 0.748479 0
M  V30 287 O 31.1859 -1.62416 1.00128 0
M  V30 288 C 28.3259 -2.66933 2.18725 0
M  V30 289 C 27.4389 -2.58452 3.4616 0
M  V30 290 C 26.5739 -3.85961 3.64976 0
M  V30 291 C 25.6129 -3.72059 4.86044 0
M  V30 292 N 24.7499 -4.9144 5.01429 0
M  V30 293 H 29.5899 -1.01998 2.80001 0
M  V30 294 H 27.1269 -0.492413 1.38613 0
M  V30 295 H 29.0849 -3.4563 2.33657 0
M  V30 296 H 27.7149 -2.94816 1.31466 0
M  V30 297 H 26.7669 -1.71374 3.3961 0
M  V30 298 H 28.0789 -2.44085 4.34999 0
M  V30 299 H 27.2329 -4.73101 3.79816 0
M  V30 300 H 25.9719 -4.03215 2.74353 0
M  V30 301 H 24.9769 -2.83302 4.7119 0
M  V30 302 H 26.2019 -3.56309 5.78118 0
M  V30 303 H 24.1479 -5.09072 4.13741 0
M  V30 304 H 24.0649 -4.79668 5.84341 0
M  V30 305 H 25.3329 -5.80104 5.20672 0
M  V30 306 N 29.562 -1.4872 -0.521534 0
M  V30 307 C 30.492 -1.66771 -1.63431 0
M  V30 308 C 31.473 -0.516499 -1.62069 0
M  V30 309 O 32.658 -0.750013 -1.79132 0
M  V30 310 C 29.788 -1.71515 -3.01993 0
M  V30 311 C 28.742 -2.86222 -3.18216 0
M  V30 312 C 28.068 -2.76061 -4.57924 0
M  V30 313 C 29.368 -4.27419 -3.00184 0
M  V30 314 H 31.062 -2.59932 -1.48579 0
M  V30 315 H 28.608 -1.25089 -0.713358 0
M  V30 316 H 30.561 -1.82731 -3.7972 0
M  V30 317 H 29.285 -0.749393 -3.17886 0
M  V30 318 H 27.944 -2.74575 -2.42908 0
M  V30 319 H 27.592 -1.77437 -4.70665 0
M  V30 320 H 27.292 -3.53037 -4.69722 0
M  V30 321 H 28.816 -2.89256 -5.37739 0
M  V30 322 H 30.23 -4.39855 -3.67697 0
M  V30 323 H 28.627 -5.05458 -3.2347 0
M  V30 324 H 29.697 -4.43293 -1.96518 0
M  V30 325 N 31.0401 0.771051 -1.3745 0
M  V30 326 C 32.0031 1.86598 -1.33093 0
M  V30 327 C 33.0031 1.59076 -0.234845 0
M  V30 328 O 34.1931 1.67145 -0.490732 0
M  V30 329 C 31.3251 3.23747 -1.06773 0
M  V30 330 H 32.5181 1.91873 -2.30488 0
M  V30 331 H 30.0711 0.970876 -1.2249 0
M  V30 332 H 30.8061 3.24148 -0.099129 0
M  V30 333 H 30.5911 3.45115 -1.86112 0
M  V30 334 H 32.0811 4.03824 -1.06377 0
M  V30 335 N 32.5182 1.22032 0.997298 0
M  V30 336 C 33.7462 1.06841 1.7718 0
M  V30 337 C 34.1612 -0.381325 1.84909 0
M  V30 338 O 33.5182 -1.26437 1.31605 0
M  V30 339 C 33.5692 1.66814 3.20711 0
M  V30 340 O 33.2902 3.06116 3.13408 0
M  V30 341 C 34.7912 1.56838 4.14628 0
M  V30 342 H 32.0112 0.374782 0.556578 0
M  V30 343 H 34.5552 1.61532 1.2541 0
M  V30 344 H 32.7102 1.16196 3.69564 0
M  V30 345 H 33.1242 3.34926 4.0364 0
M  V30 346 H 34.5982 2.03532 5.13107 0
M  V30 347 H 35.0752 0.524155 4.36061 0
M  V30 348 H 35.6812 2.06741 3.7167 0
M  V30 349 N 33.9963 -1.19345 1.0293 0
M  V30 350 C 34.9293 -2.21347 0.555029 0
M  V30 351 C 35.9073 -1.57492 -0.404351 0
M  V30 352 O 37.0913 -1.85741 -0.321352 0
M  V30 353 C 34.2183 -3.38163 -0.19064 0
M  V30 354 C 33.2643 -4.20375 0.720236 0
M  V30 355 S 34.0973 -4.88371 2.19668 0
M  V30 356 C 35.2533 -6.08597 1.46153 0
M  V30 357 H 35.4863 -2.61235 1.41929 0
M  V30 358 H 33.0193 -1.29598 0.839272 0
M  V30 359 H 34.9773 -4.05871 -0.614724 0
M  V30 360 H 33.6383 -2.9671 -1.03063 0
M  V30 361 H 32.8313 -5.03793 0.14455 0
M  V30 362 H 32.4333 -3.57987 1.08266 0
M  V30 363 H 34.7253 -6.73354 0.748357 0
M  V30 364 H 35.6683 -6.7065 2.27233 0
M  V30 365 H 36.0763 -5.56297 0.958842 0
M  V30 366 N 35.4744 -0.807222 -1.35358 0
M  V30 367 C 36.4374 -0.223665 -2.28106 0
M  V30 368 C 37.4374 0.589354 -1.4961 0
M  V30 369 O 38.6274 0.407745 -1.69361 0
M  V30 370 C 35.7594 0.688149 -3.33882 0
M  V30 371 H 36.9524 -1.04169 -2.81227 0
M  V30 372 H 34.5054 -0.577921 -1.45223 0
M  V30 373 H 35.2404 1.52984 -2.85948 0
M  V30 374 H 35.0254 0.10687 -3.91954 0
M  V30 375 H 36.5154 1.09075 -4.03104 0
M  V30 376 N 36.9525 1.47285 -0.560781 0
M  V30 377 C 38.1985 2.02764 -0.0381184 0
M  V30 378 C 38.5315 1.43384 1.30976 0
M  V30 379 O 37.8065 0.590733 1.85312 0
M  V30 380 C 38.0895 3.60064 0.0511427 0
M  V30 381 C 37.9425 4.2987 -1.32408 0
M  V30 382 C 39.2615 4.33439 0.762795 0
M  V30 383 H 36.3805 0.736841 -0.0153264 0
M  V30 384 H 39.0225 1.75675 -0.723759 0
M  V30 385 H 37.1725 3.83274 0.635065 0
M  V30 386 H 38.8445 4.17989 -1.95148 0
M  V30 387 H 37.0875 3.90085 -1.8978 0
M  V30 388 H 37.7585 5.38478 -1.21431 0
M  V30 389 H 40.2345 4.15243 0.266965 0
M  V30 390 H 39.1105 5.43124 0.794221 0
M  V30 391 H 39.3715 4.02915 1.81966 0
M  V30 392 N 38.4306 0.297415 1.54768 0
M  V30 393 C 39.3936 -0.567375 2.22066 0
M  V30 394 C 40.3936 -1.06409 1.20556 0
M  V30 395 O 41.5836 -0.960691 1.45315 0
M  V30 396 C 38.7156 -1.78517 2.90421 0
M  V30 397 H 39.9086 0.0205534 2.99893 0
M  V30 398 H 37.4616 0.0482163 1.56226 0
M  V30 399 H 38.1966 -2.41303 2.16664 0
M  V30 400 H 37.9816 -1.43669 3.64831 0
M  V30 401 H 39.4716 -2.39964 3.41771 0
M  V30 402 N 39.9087 -1.5758 0.0250728 0
M  V30 403 C 40.8567 -2.11125 -0.97617 0
M  V30 404 C 41.8507 -1.03689 -1.33959 0
M  V30 405 O 43.0567 -1.22128 -1.3223 0
M  V30 406 H 39.4317 -0.674468 -0.332561 0
M  V30 407 H 41.4027 -2.94194 -0.499223 0
M  V30 408 C 40.1517 -2.65017 -2.2508 0
M  V30 409 H 39.4747 -3.47333 -1.9799 0
M  V30 410 H 40.9147 -3.06133 -2.93357 0
M  V30 411 C 39.3737 -1.57574 -2.97779 0
M  V30 412 O 39.9037 -0.973203 -3.89733 0
M  V30 413 N 38.1097 -1.29716 -2.60043 0
M  V30 414 H 37.6567 -1.789 -1.85345 0
M  V30 415 H 37.6147 -0.58051 -3.08994 0
M  V30 416 N 41.3868 0.248026 -1.55636 0
M  V30 417 C 42.6348 0.974295 -1.77065 0
M  V30 418 C 42.9558 1.85897 -0.588849 0
M  V30 419 O 42.2258 1.91868 0.395407 0
M  V30 420 H 40.8058 0.362733 -0.653019 0
M  V30 421 H 43.4678 0.266244 -1.93073 0
M  V30 422 H 42.5638 1.59667 -2.68166 0
M  V30 423 N 42.8649 1.48995 0.513639 0
M  V30 424 C 44.1119 1.57843 1.26854 0
M  V30 425 C 44.4399 0.259501 1.92761 0
M  V30 426 O 43.6949 -0.75159 1.80692 0
M  V30 427 C 43.9939 2.67756 2.36731 0
M  V30 428 C 43.6599 4.09669 1.88368 0
M  V30 429 C 42.3219 4.48291 1.74896 0
M  V30 430 C 44.6739 4.98537 1.52021 0
M  V30 431 C 42.0019 5.73568 1.23438 0
M  V30 432 C 44.3539 6.24319 1.0202 0
M  V30 433 C 43.0179 6.61783 0.871778 0
M  V30 434 H 42.2879 0.577587 0.464192 0
M  V30 435 H 44.9349 1.82778 0.571366 0
M  V30 436 H 43.2399 2.36743 3.12185 0
M  V30 437 H 44.9369 2.71813 2.9482 0
M  V30 438 H 41.5269 3.79176 1.99808 0
M  V30 439 H 45.7109 4.69363 1.61281 0
M  V30 440 H 40.9669 6.01304 1.10648 0
M  V30 441 H 45.1409 6.92566 0.729722 0
M  V30 442 H 42.7679 7.5874 0.470852 0
M  V30 443 N 44.343 -0.763751 1.37857 0
M  V30 444 C 45.591 -1.51957 1.33243 0
M  V30 445 C 45.912 -1.94835 -0.0801709 0
M  V30 446 O 45.182 -1.66894 -1.02582 0
M  V30 447 H 43.762 -0.563626 0.49024 0
M  V30 448 H 46.424 -0.908504 1.7243 0
M  V30 449 H 45.52 -2.41523 1.97669 0
M  V30 450 N 45.8211 -1.22559 -0.990812 0
M  V30 451 C 46.7691 -0.994798 -2.10253 0
M  V30 452 C 47.7631 0.0627798 -1.69284 0
M  V30 453 O 48.9691 -0.0898392 -1.79776 0
M  V30 454 H 45.3441 -0.304527 -0.687581 0
M  V30 455 H 47.3151 -1.93812 -2.26891 0
M  V30 456 C 46.0641 -0.591439 -3.42633 0
M  V30 457 H 45.3871 -1.3969 -3.74602 0
M  V30 458 H 46.8271 -0.469385 -4.21394 0
M  V30 459 C 45.2861 0.699232 -3.29564 0
M  V30 460 O 45.8161 1.75112 -3.61523 0
M  V30 461 N 44.0221 0.671182 -2.82743 0
M  V30 462 H 43.5691 -0.185136 -2.56934 0
M  V30 463 H 43.5271 1.53502 -2.7438 0
M  V30 464 N 47.2992 1.18797 -1.03562 0
M  V30 465 C 48.5472 1.88278 -0.734569 0
M  V30 466 C 48.8682 1.8043 0.739586 0
M  V30 467 O 48.1382 1.21925 1.53333 0
M  V30 468 H 46.7182 0.696991 -0.268725 0
M  V30 469 H 49.3802 1.44192 -1.31129 0
M  V30 470 H 48.4762 2.94443 -1.03489 0
M  V30 471 N 48.7773 0.814389 1.34928 0
M  V30 472 C 49.7243 0.22822 2.29669 0
M  V30 473 C 50.6943 -0.642164 1.53184 0
M  V30 474 O 51.8793 -0.585605 1.81591 0
M  V30 475 C 49.0193 -0.61089 3.3965 0
M  V30 476 C 48.1323 0.280792 4.31086 0
M  V30 477 C 47.2673 -0.567067 5.28165 0
M  V30 478 C 46.3063 0.324531 6.11239 0
M  V30 479 N 45.4433 -0.483756 7.00431 0
M  V30 480 H 50.2833 1.04153 2.79206 0
M  V30 481 H 47.8203 0.525133 1.37407 0
M  V30 482 H 49.7783 -1.11263 4.0209 0
M  V30 483 H 48.4083 -1.38939 2.91369 0
M  V30 484 H 47.4603 0.900688 3.69583 0
M  V30 485 H 48.7723 0.966723 4.89342 0
M  V30 486 H 47.9263 -1.13363 5.96015 0
M  V30 487 H 46.6653 -1.28654 4.70425 0
M  V30 488 H 45.6703 0.903298 5.42329 0
M  V30 489 H 46.8953 1.04198 6.71059 0
M  V30 490 H 44.8413 -1.18706 6.45171 0
M  V30 491 H 44.7583 0.143965 7.55863 0
M  V30 492 H 46.0263 -1.03334 7.7262 0
M  V30 493 N 50.2554 -1.46986 0.568584 0
M  V30 494 C 51.4804 -2.07335 0.0520528 0
M  V30 495 C 51.9054 -1.41675 -1.23733 0
M  V30 496 O 51.2634 -0.495623 -1.74394 0
M  V30 497 C 51.3114 -3.60417 -0.11501 0
M  V30 498 O 50.4154 -3.95309 -1.17492 0
M  V30 499 H 49.7564 -0.661597 0.0564385 0
M  V30 500 H 52.2864 -1.88837 0.787507 0
M  V30 501 H 52.2964 -4.06698 -0.325644 0
M  V30 502 H 50.9714 -4.07601 0.826675 0
M  V30 503 H 49.5484 -3.60757 -0.943869 0
M  V30 504 N 51.7335 -0.305618 -1.54608 0
M  V30 505 C 52.6805 0.568421 -2.23691 0
M  V30 506 C 53.6505 1.12592 -1.22116 0
M  V30 507 O 54.8355 1.16959 -1.50749 0
M  V30 508 C 51.9755 1.7322 -2.98477 0
M  V30 509 C 51.0885 1.20566 -4.14835 0
M  V30 510 C 50.2235 2.33368 -4.77193 0
M  V30 511 C 49.2625 1.7787 -5.85686 0
M  V30 512 N 48.3995 2.84263 -6.4198 0
M  V30 513 H 53.2395 -0.0272867 -2.97988 0
M  V30 514 H 50.7765 -0.0252363 -1.47078 0
M  V30 515 H 52.7345 2.41675 -3.40072 0
M  V30 516 H 51.3645 2.29947 -2.26548 0
M  V30 517 H 50.4165 0.413223 -3.78149 0
M  V30 518 H 51.7285 0.759417 -4.92985 0
M  V30 519 H 50.8825 3.09761 -5.21664 0
M  V30 520 H 49.6215 2.8132 -3.98385 0
M  V30 521 H 48.6265 0.99968 -5.40635 0
M  V30 522 H 49.8515 1.30816 -6.66381 0
M  V30 523 H 47.7975 3.31541 -5.66053 0
M  V30 524 H 47.7145 2.44149 -7.15491 0
M  V30 525 H 48.9825 3.6054 -6.91109 0
M  V30 526 N 53.2116 1.57565 -0.0334293 0
M  V30 527 C 54.4576 1.92262 0.645226 0
M  V30 528 C 54.7906 0.910543 1.71531 0
M  V30 529 O 54.0656 -0.066099 1.94388 0
M  V30 530 C 54.3486 3.37422 1.2577 0
M  V30 531 C 54.2016 4.49369 0.196891 0
M  V30 532 C 55.5206 3.82628 2.17449 0
M  V30 533 H 52.6396 0.699171 0.233085 0
M  V30 534 H 55.2816 1.89779 -0.0915694 0
M  V30 535 H 53.4316 3.39669 1.88566 0
M  V30 536 H 55.1036 4.59254 -0.433962 0
M  V30 537 H 53.3466 4.31168 -0.477137 0
M  V30 538 H 54.0176 5.47978 0.665124 0
M  V30 539 H 56.4936 3.82145 1.64634 0
M  V30 540 H 55.3696 4.84883 2.57254 0
M  V30 541 H 55.6306 3.18376 3.0674 0
M  V30 542 N 54.6897 -0.239769 1.55765 0
M  V30 543 C 55.6397 -1.30002 1.87306 0
M  V30 544 C 56.6237 -1.43156 0.73452 0
M  V30 545 O 57.8157 -1.46277 0.99659 0
M  V30 546 C 54.9447 -2.65409 2.17745 0
M  V30 547 C 54.0307 -2.56231 3.37945 0
M  V30 548 N 54.4217 -2.16689 4.57033 0
M  V30 549 C 52.7197 -2.87229 3.41197 0
M  V30 550 C 53.4207 -2.18318 5.39177 0
M  V30 551 N 52.3967 -2.58098 4.78421 0
M  V30 552 H 56.1987 -0.984912 2.76906 0
M  V30 553 H 53.7127 -0.448381 1.56087 0
M  V30 554 H 55.7097 -3.41934 2.38509 0
M  V30 555 H 54.3697 -2.97781 1.29448 0
M  V30 556 H 55.3807 -1.88116 4.82528 0
M  V30 557 H 52.0577 -3.24094 2.63191 0
M  V30 558 H 53.4477 -1.90025 6.44469 0
M  V30 559 N 56.1678 -1.49265 -0.50573 0
M  V30 560 C 57.3958 -1.62215 -1.28429 0
M  V30 561 C 57.8108 -0.291697 -1.86533 0
M  V30 562 O 57.1678 0.722233 -1.67601 0
M  V30 563 C 57.2188 -2.68735 -2.41793 0
M  V30 564 O 56.9398 -3.96619 -1.86078 0
M  V30 565 C 58.4408 -2.92346 -3.3324 0
M  V30 566 H 55.6608 -0.546239 -0.389697 0
M  V30 567 H 58.2048 -1.95265 -0.607609 0
M  V30 568 H 56.3598 -2.38476 -3.053 0
M  V30 569 H 56.7738 -4.55256 -2.60465 0
M  V30 570 H 58.2478 -3.70623 -4.09075 0
M  V30 571 H 58.7248 -2.02081 -3.89948 0
M  V30 572 H 59.3308 -3.24003 -2.75503 0
M  V30 573 N 57.6459 0.756429 -1.3826 0
M  V30 574 C 59.0619 1.0591 -1.19395 0
M  V30 575 C 59.2619 2.01459 -0.0406567 0
M  V30 576 O 58.3179 2.44909 0.614467 0
M  V30 577 C 59.6309 1.64191 -2.51916 0
M  V30 578 C 61.1789 1.76376 -2.58574 0
M  V30 579 C 61.6539 2.38069 -3.91264 0
M  V30 580 N 63.1449 2.45503 -3.92788 0
M  V30 581 C 63.8799 2.94126 -4.92217 0
M  V30 582 N 63.3759 3.42805 -6.02043 0
M  V30 583 N 65.1689 2.9314 -4.7961 0
M  V30 584 H 57.3199 0.122313 -2.12048 0
M  V30 585 H 59.5829 0.116892 -0.940766 0
M  V30 586 H 59.2889 1.01451 -3.3675 0
M  V30 587 H 59.1629 2.6329 -2.70108 0
M  V30 588 H 61.5499 2.38244 -1.74137 0
M  V30 589 H 61.6309 0.759894 -2.44252 0
M  V30 590 H 61.2749 1.76835 -4.76121 0
M  V30 591 H 61.2049 3.39091 -4.02895 0
M  V30 592 H 63.6959 2.1107 -3.13461 0
M  V30 593 H 64.0089 3.78354 -6.73846 0
M  V30 594 H 62.3539 3.4087 -6.05667 0
M  V30 595 H 65.5449 2.54419 -3.92923 0
M  V30 596 H 65.7179 3.30721 -5.5725 0
M  V30 597 N 59.124 1.23083 0.984299 0
M  V30 598 C 60.056 0.96636 2.07832 0
M  V30 599 C 61.069 -0.0582135 1.62696 0
M  V30 600 O 62.258 0.176843 1.77622 0
M  V30 601 C 59.358 0.433397 3.36117 0
M  V30 602 C 58.531 1.51722 4.10243 0
M  V30 603 C 57.59 0.989821 5.16807 0
M  V30 604 O 56.616 1.67794 5.43906 0
M  V30 605 N 57.818 -0.184367 5.80207 0
M  V30 606 H 60.583 1.90824 2.31098 0
M  V30 607 H 58.144 1.13888 1.1507 0
M  V30 608 H 60.136 0.065699 4.04647 0
M  V30 609 H 58.706 -0.413806 3.09849 0
M  V30 610 H 57.926 2.05786 3.36223 0
M  V30 611 H 59.214 2.24619 4.56534 0
M  V30 612 H 58.612 -0.760062 5.60571 0
M  V30 613 H 57.169 -0.493366 6.4993 0
M  V30 614 N 60.6021 -1.18246 1.0419 0
M  V30 615 C 61.5341 -2.2142 0.592088 0
M  V30 616 C 62.5471 -1.59233 -0.338909 0
M  V30 617 O 63.7361 -1.78002 -0.133231 0
M  V30 618 C 60.8361 -3.38546 -0.154854 0
M  V30 619 C 60.0091 -4.3031 0.784328 0
M  V30 620 C 59.0681 -5.26138 0.0804583 0
M  V30 621 O 58.0941 -5.64738 0.711292 0
M  V30 622 N 59.2961 -5.68261 -1.18574 0
M  V30 623 H 62.0611 -2.60636 1.47949 0
M  V30 624 H 59.6221 -1.33044 0.922544 0
M  V30 625 H 61.6141 -3.99678 -0.635606 0
M  V30 626 H 60.1841 -2.98012 -0.943811 0
M  V30 627 H 59.4041 -3.66764 1.44491 0
M  V30 628 H 60.6921 -4.8852 1.42218 0
M  V30 629 H 60.0901 -5.38957 -1.71876 0
M  V30 630 H 58.6471 -6.31584 -1.61074 0
M  V30 631 N 62.0802 -0.821533 -1.34494 0
M  V30 632 C 63.3202 -0.414785 -2.00147 0
M  V30 633 C 63.6842 1.00299 -1.6372 0
M  V30 634 O 64.8852 1.51255 -2.22206 0
M  V30 635 C 63.1562 -0.609403 -3.52166 0
M  V30 636 S 64.7152 -0.295297 -4.37805 0
M  V30 637 H 61.5332 -0.15679 -0.693497 0
M  V30 638 H 64.1352 -1.06705 -1.63812 0
M  V30 639 H 62.8392 -1.64096 -3.76166 0
M  V30 640 H 62.3702 0.0576414 -3.93358 0
M  V30 641 H 64.3852 0.891531 -4.88125 0
M  V30 642 N 63.5583 1.46682 -0.576371 0
M  V30 643 C 64.9743 1.57822 -0.237562 0
M  V30 644 C 65.1743 1.57237 1.26011 0
M  V30 645 O 64.2303 1.48596 2.04146 0
M  V30 646 C 65.5433 2.87499 -0.881168 0
M  V30 647 C 67.0913 3.01119 -0.85417 0
M  V30 648 C 67.5663 4.33524 -1.4772 0
M  V30 649 N 69.0573 4.40207 -1.44125 0
M  V30 650 C 69.7923 5.4126 -1.89276 0
M  V30 651 N 69.2883 6.49021 -2.42371 0
M  V30 652 N 71.0813 5.32422 -1.80231 0
M  V30 653 H 63.2323 1.45306 -1.54919 0
M  V30 654 H 65.4953 0.692733 -0.647167 0
M  V30 655 H 65.2013 2.9372 -1.93447 0
M  V30 656 H 65.0753 3.75224 -0.385592 0
M  V30 657 H 67.4623 2.94485 0.190491 0
M  V30 658 H 67.5433 2.14887 -1.3877 0
M  V30 659 H 67.1873 4.40916 -2.52103 0
M  V30 660 H 67.1173 5.1852 -0.918947 0
M  V30 661 H 69.6083 3.62931 -1.05307 0
M  V30 662 H 69.9213 7.2233 -2.74698 0
M  V30 663 H 68.2663 6.49858 -2.46393 0
M  V30 664 H 71.4573 4.47137 -1.38514 0
M  V30 665 H 71.6303 6.11034 -2.15735 0
M  V30 666 N 65.0364 0.313813 1.54444 0
M  V30 667 C 66.2614 -0.296681 2.05267 0
M  V30 668 C 66.6864 -1.45757 1.18897 0
M  V30 669 O 66.0444 -1.80239 0.195886 0
M  V30 670 C 66.0924 -0.71831 3.53373 0
M  V30 671 O 65.1964 -1.82175 3.69981 0
M  V30 672 H 64.5374 -0.0554061 0.661684 0
M  V30 673 H 67.0674 0.459387 1.99376 0
M  V30 674 H 67.0774 -1.00364 3.95463 0
M  V30 675 H 65.7524 0.130821 4.15694 0
M  V30 676 H 64.3294 -1.53598 3.39797 0
M  V30 677 N 66.5145 -1.57545 0.0417849 0
M  V30 678 C 67.9305 -1.56467 -0.314704 0
M  V30 679 C 68.1305 -1.04859 -1.72066 0
M  V30 680 O 67.1865 -0.700983 -2.42575 0
M  V30 681 C 68.4995 -3.00317 -0.15174 0
M  V30 682 C 70.0475 -3.12201 -0.223553 0
M  V30 683 C 70.5225 -4.57913 -0.0892295 0
M  V30 684 N 72.0135 -4.6297 -0.145808 0
M  V30 685 C 72.7485 -5.73362 -0.0658459 0
M  V30 686 N 72.2445 -6.92769 0.0659282 0
M  V30 687 N 74.0375 -5.6197 -0.12075 0
M  V30 688 H 66.1885 -1.89416 0.961014 0
M  V30 689 H 68.4515 -0.871862 0.372237 0
M  V30 690 H 68.1575 -3.42073 0.817254 0
M  V30 691 H 68.0315 -3.65892 -0.916692 0
M  V30 692 H 70.4185 -2.70349 -1.18301 0
M  V30 693 H 70.4995 -2.49323 0.571994 0
M  V30 694 H 70.1435 -5.00448 0.866867 0
M  V30 695 H 70.0735 -5.18786 -0.903802 0
M  V30 696 H 72.5645 -3.7709 -0.247286 0
M  V30 697 H 72.8775 -7.72707 0.119905 0
M  V30 698 H 71.2225 -6.94927 0.100885 0
M  V30 699 H 74.4135 -4.67572 -0.222187 0
M  V30 700 H 74.5865 -6.47977 -0.0549735 0
M  V30 701 N 67.9926 0.231505 -1.5589 0
M  V30 702 C 69.2396 0.957352 -1.78441 0
M  V30 703 C 69.5676 1.84726 -0.60882 0
M  V30 704 O 68.8226 1.91416 0.40725 0
M  V30 705 C 69.1216 1.83577 -3.0665 0
M  V30 706 C 68.7876 1.09993 -4.37278 0
M  V30 707 C 67.4496 0.896629 -4.72773 0
M  V30 708 C 69.8016 0.579558 -5.17968 0
M  V30 709 C 67.1296 0.160896 -5.86479 0
M  V30 710 C 69.4816 -0.142783 -6.32439 0
M  V30 711 C 68.1456 -0.357427 -6.66542 0
M  V30 712 H 67.4156 0.35032 -0.65296 0
M  V30 713 H 70.0626 0.226259 -1.90159 0
M  V30 714 H 68.3676 2.63441 -2.90011 0
M  V30 715 H 70.0646 2.39934 -3.21298 0
M  V30 716 H 66.6546 1.26835 -4.09403 0
M  V30 717 H 70.8386 0.724125 -4.90989 0
M  V30 718 H 66.0946 -0.0157293 -6.11398 0
M  V30 719 H 70.2686 -0.553559 -6.94196 0
M  V30 720 H 67.8956 -0.929466 -7.54497 0
M  V30 721 N 69.4707 1.49531 0.497807 0
M  V30 722 C 70.7167 1.59415 1.25358 0
M  V30 723 C 71.0497 0.281422 1.9215 0
M  V30 724 O 70.3247 -0.715249 1.80871 0
M  V30 725 C 70.6077 2.75566 2.3181 0
M  V30 726 C 70.4607 4.16642 1.69498 0
M  V30 727 C 71.7797 2.87347 3.33346 0
M  V30 728 H 68.8987 0.580244 0.454408 0
M  V30 729 H 71.5407 1.81827 0.551262 0
M  V30 730 H 69.6907 2.56587 2.91711 0
M  V30 731 H 71.3627 4.47145 1.13399 0
M  V30 732 H 69.6057 4.22141 0.998978 0
M  V30 733 H 70.2767 4.93792 2.46725 0
M  V30 734 H 72.7527 3.04634 2.83438 0
M  V30 735 H 71.6287 3.70289 4.05188 0
M  V30 736 H 71.8897 1.96834 3.95865 0
M  V30 737 N 70.9488 -0.749086 1.3866 0
M  V30 738 C 71.8958 -1.86291 1.36251 0
M  V30 739 C 72.8658 -1.64578 0.224347 0
M  V30 740 O 74.0508 -1.86181 0.417279 0
M  V30 741 C 71.1908 -3.23644 1.19786 0
M  V30 742 C 70.3038 -3.57158 2.43027 0
M  V30 743 C 69.4388 -4.83838 2.19258 0
M  V30 744 C 68.4778 -5.10152 3.38247 0
M  V30 745 N 67.6148 -6.28029 3.13884 0
M  V30 746 H 72.4548 -1.87685 2.3147 0
M  V30 747 H 69.9918 -0.917287 1.14997 0
M  V30 748 H 71.9498 -4.0291 1.08254 0
M  V30 749 H 70.5798 -3.21566 0.282031 0
M  V30 750 H 69.6318 -2.72701 2.65214 0
M  V30 751 H 70.9438 -3.7253 3.31697 0
M  V30 752 H 70.0978 -5.71057 2.04888 0
M  V30 753 H 68.8368 -4.70614 1.2796 0
M  V30 754 H 67.8418 -4.21401 3.53131 0
M  V30 755 H 69.0668 -5.25271 4.30427 0
M  V30 756 H 67.0128 -6.1612 2.25238 0
M  V30 757 H 66.9298 -6.43922 3.96106 0
M  V30 758 H 68.1978 -7.18124 3.03179 0
M  V30 759 N 72.4269 -1.23603 -0.977757 0
M  V30 760 C 73.3739 -1.01954 -2.07061 0
M  V30 761 C 74.3439 0.0638697 -1.65977 0
M  V30 762 O 75.5289 -0.0887624 -1.90593 0
M  V30 763 C 72.6689 -0.619658 -3.39491 0
M  V30 764 C 71.7819 -1.77547 -3.93829 0
M  V30 765 C 70.9169 -1.32212 -5.14484 0
M  V30 766 C 69.9559 -2.44852 -5.60994 0
M  V30 767 N 69.0929 -2.00456 -6.72876 0
M  V30 768 H 73.9329 -1.95495 -2.24913 0
M  V30 769 H 71.4699 -0.973861 -1.10247 0
M  V30 770 H 73.4279 -0.368898 -4.15566 0
M  V30 771 H 72.0579 0.278752 -3.21594 0
M  V30 772 H 71.1099 -2.14016 -3.14486 0
M  V30 773 H 72.4219 -2.62219 -4.24314 0
M  V30 774 H 71.5759 -1.02965 -5.97899 0
M  V30 775 H 70.3149 -0.445808 -4.85658 0
M  V30 776 H 69.3199 -2.74871 -4.76157 0
M  V30 777 H 70.5449 -3.33024 -5.91837 0
M  V30 778 H 68.4909 -1.15208 -6.45804 0
M  V30 779 H 68.4079 -2.78687 -7.02759 0
M  V30 780 H 69.6759 -1.7432 -7.59758 0
M  V30 781 N 73.905 1.17692 -1.04816 0
M  V30 782 C 75.182 1.83768 -0.669963 0
M  V30 783 C 75.562 1.93232 0.849986 0
M  V30 784 O 74.91 1.46397 1.75443 0
M  V30 785 C 75.12 3.21641 -1.35455 0
M  V30 786 C 76.468 3.97592 -1.49017 0
M  V30 787 O 77.492 3.31107 -1.31326 0
M  V30 788 O 76.351 5.16729 -1.77914 0
M  V30 789 H 73.445 0.792799 -0.235368 0
M  V30 790 H 75.991 1.25021 -1.14751 0
M  V30 791 H 74.763 3.097 -2.39168 0
M  V30 792 H 74.386 3.88052 -0.866107 0
M  V30 793 N 75.3831 0.828654 1.34056 0
M  V30 794 C 76.6311 0.41863 1.97717 0
M  V30 795 C 76.9521 -1.02314 1.66002 0
M  V30 796 O 76.2221 -1.71119 0.953683 0
M  V30 797 H 74.8021 0.151809 0.731412 0
M  V30 798 H 77.4641 1.05936 1.63596 0
M  V30 799 H 76.5601 0.542318 3.07352 0
M  V30 800 N 76.8612 -1.46375 0.584142 0
M  V30 801 C 77.8112 -2.27371 -0.169232 0
M  V30 802 C 78.7952 -1.35955 -0.860523 0
M  V30 803 O 79.9872 -1.60119 -0.754382 0
M  V30 804 C 77.1162 -3.22334 -1.18134 0
M  V30 805 C 76.2022 -4.21235 -0.492088 0
M  V30 806 N 76.5932 -5.03766 0.453129 0
M  V30 807 C 74.8912 -4.39773 -0.742652 0
M  V30 808 C 75.5922 -5.75366 0.85609 0
M  V30 809 N 74.5682 -5.43214 0.204926 0
M  V30 810 H 78.3702 -2.88572 0.557097 0
M  V30 811 H 75.8842 -1.57242 0.406042 0
M  V30 812 H 77.8812 -3.79071 -1.73525 0
M  V30 813 H 76.5412 -2.62693 -1.90847 0
M  V30 814 H 77.5522 -5.11227 0.828723 0
M  V30 815 H 74.2292 -3.91279 -1.45625 0
M  V30 816 H 75.6192 -6.5172 1.63434 0
M  V30 817 N 78.3393 -0.321999 -1.54275 0
M  V30 818 C 79.5793 0.281657 -2.0245 0
M  V30 819 C 79.9433 1.49468 -1.20513 0
M  V30 820 O 81.1443 2.17109 -1.58484 0
M  V30 821 C 79.4153 0.609014 -3.52173 0
M  V30 822 S 80.9743 1.19255 -4.22284 0
M  V30 823 H 77.7923 0.0852825 -0.705867 0
M  V30 824 H 80.3943 -0.454758 -1.90137 0
M  V30 825 H 79.0983 -0.281982 -4.0943 0
M  V30 826 H 78.6293 1.37567 -3.68563 0
M  V30 827 H 80.6443 2.47944 -4.29812 0
M  V30 828 N 79.8174 1.5752 -0.0501392 0
M  V30 829 C 80.7654 2.12651 0.942459 0
M  V30 830 C 81.7594 1.05807 1.32292 0
M  V30 831 O 82.9654 1.24217 1.3027 0
M  V30 832 H 79.3404 0.679673 0.321789 0
M  V30 833 H 81.3114 2.94951 0.452356 0
M  V30 834 C 80.0604 2.68565 2.20836 0
M  V30 835 H 79.3834 3.50439 1.92439 0
M  V30 836 H 80.8234 3.10761 2.8845 0
M  V30 837 C 79.2824 1.62291 2.95234 0
M  V30 838 O 79.8124 1.03508 3.88135 0
M  V30 839 N 78.0184 1.33836 2.57946 0
M  V30 840 H 77.5654 1.81826 1.82475 0
M  V30 841 H 77.5234 0.629595 3.08032 0
M  V30 842 N 81.2955 -0.223234 1.56011 0
M  V30 843 C 82.5415 -0.949279 1.79211 0
M  V30 844 C 82.8745 -1.84054 0.619494 0
M  V30 845 O 82.1495 -1.90726 -0.381317 0
M  V30 846 C 82.4325 -1.78965 3.12479 0
M  V30 847 C 82.2855 -0.924997 4.40186 0
M  V30 848 C 83.6045 -2.76774 3.42175 0
M  V30 849 H 80.7235 -0.343676 0.651963 0
M  V30 850 H 83.3655 -0.218253 1.88742 0
M  V30 851 H 81.5155 -2.41291 3.04485 0
M  V30 852 H 83.1875 -0.318615 4.60198 0
M  V30 853 H 81.4305 -0.230344 4.33188 0
M  V30 854 H 82.1015 -1.54735 5.29869 0
M  V30 855 H 84.5775 -2.24584 3.50287 0
M  V30 856 H 83.4535 -3.32678 4.36597 0
M  V30 857 H 83.7145 -3.54429 2.64258 0
M  V30 858 N 82.7736 -1.49793 -0.48987 0
M  V30 859 C 83.7056 -1.63413 -1.60713 0
M  V30 860 C 84.7186 -0.516329 -1.54395 0
M  V30 861 O 85.9076 -0.788812 -1.60125 0
M  V30 862 C 83.0076 -1.58516 -2.99543 0
M  V30 863 C 82.1806 -2.86016 -3.30928 0
M  V30 864 C 81.2396 -2.74018 -4.49222 0
M  V30 865 O 80.2656 -3.47964 -4.50455 0
M  V30 866 N 81.4676 -1.86309 -5.4979 0
M  V30 867 H 84.2326 -2.59777 -1.49452 0
M  V30 868 H 81.7936 -1.47022 -0.677955 0
M  V30 869 H 83.7856 -1.48128 -3.76617 0
M  V30 870 H 82.3556 -0.69965 -3.0467 0
M  V30 871 H 81.5756 -3.10672 -2.42645 0
M  V30 872 H 82.8636 -3.70521 -3.487 0
M  V30 873 H 82.2616 -1.2551 -5.51601 0
M  V30 874 H 80.8186 -1.81837 -6.25922 0
M  V30 875 N 84.2517 0.741722 -1.39055 0
M  V30 876 C 85.4987 1.50114 -1.35912 0
M  V30 877 C 85.8267 1.94443 0.0470937 0
M  V30 878 O 85.0817 1.66612 1.02659 0
M  V30 879 C 85.3807 2.7592 -2.27163 0
M  V30 880 C 85.0467 2.50493 -3.74919 0
M  V30 881 C 83.7087 2.43267 -4.1518 0
M  V30 882 C 86.0607 2.28585 -4.684 0
M  V30 883 C 83.3887 2.12166 -5.46994 0
M  V30 884 C 85.7407 1.99002 -6.00484 0
M  V30 885 C 84.4047 1.90241 -6.39816 0
M  V30 886 H 83.6747 0.549306 -0.497336 0
M  V30 887 H 86.3217 0.851896 -1.71508 0
M  V30 888 H 84.6267 3.45553 -1.84663 0
M  V30 889 H 86.3237 3.33923 -2.22028 0
M  V30 890 H 82.9137 2.56992 -3.43006 0
M  V30 891 H 87.0977 2.33139 -4.38132 0
M  V30 892 H 82.3537 2.03901 -5.76398 0
M  V30 893 H 86.5277 1.81057 -6.72452 0
M  V30 894 H 84.1547 1.65907 -7.41875 0
M  V30 895 N 85.7298 1.2412 0.971189 0
M  V30 896 C 86.9788 1.07284 1.70801 0
M  V30 897 C 87.2918 -0.388902 1.91695 0
M  V30 898 O 88.4978 -0.677379 2.62914 0
M  V30 899 C 86.9538 1.87145 3.07416 0
M  V30 900 C 86.5618 3.37707 2.94377 0
M  V30 901 C 88.3058 1.78828 3.84995 0
M  V30 902 C 86.2128 4.09925 4.26281 0
M  V30 903 H 85.1428 0.397854 0.64049 0
M  V30 904 H 87.7938 1.4817 1.0825 0
M  V30 905 H 86.1758 1.39071 3.70777 0
M  V30 906 H 87.3498 3.93335 2.4005 0
M  V30 907 H 85.6648 3.46938 2.30267 0
M  V30 908 H 88.2618 2.30089 4.82662 0
M  V30 909 H 88.6048 0.75284 4.09436 0
M  V30 910 H 89.1378 2.24563 3.28354 0
M  V30 911 H 85.8768 5.13813 4.07033 0
M  V30 912 H 85.3968 3.59083 4.80437 0
M  V30 913 H 87.0758 4.1673 4.94919 0
M  V30 914 N 87.2079 -1.17134 1.05439 0
M  V30 915 C 88.1559 -2.23289 0.651511 0
M  V30 916 C 89.1499 -1.66186 -0.328411 0
M  V30 917 O 90.3559 -1.78949 -0.194206 0
M  V30 918 H 86.7309 -0.726938 0.192523 0
M  V30 919 H 88.7019 -2.54565 1.55689 0
M  V30 920 C 87.4509 -3.47671 0.0448436 0
M  V30 921 H 86.7739 -3.91918 0.78996 0
M  V30 922 H 88.2139 -4.2353 -0.19964 0
M  V30 923 C 86.6729 -3.14453 -1.20918 0
M  V30 924 O 87.2029 -3.29459 -2.29825 0
M  V30 925 N 85.4089 -2.68657 -1.10779 0
M  V30 926 H 84.9559 -2.56646 -0.221526 0
M  V30 927 H 84.9139 -2.46804 -1.9477 0
M  V30 928 N 88.686 -0.835752 -1.33615 0
M  V30 929 C 89.932 -0.430596 -1.98176 0
M  V30 930 C 90.265 1.00684 -1.66061 0
M  V30 931 O 89.54 1.70339 -0.938877 0
M  V30 932 C 89.823 -0.648065 -3.5422 0
M  V30 933 C 89.676 -2.13255 -3.96033 0
M  V30 934 C 90.995 -0.0922113 -4.40003 0
M  V30 935 H 88.114 -0.157924 -0.719881 0
M  V30 936 H 90.756 -1.05069 -1.58305 0
M  V30 937 H 88.906 -0.120237 -3.88314 0
M  V30 938 H 90.578 -2.725 -3.72211 0
M  V30 939 H 88.821 -2.61823 -3.45878 0
M  V30 940 H 89.492 -2.23547 -5.04708 0
M  V30 941 H 91.968 -0.543343 -4.12537 0
M  V30 942 H 90.844 -0.274083 -5.48215 0
M  V30 943 H 91.105 1.00378 -4.30554 0
M  V30 944 N 90.1641 1.46063 -0.591896 0
M  V30 945 C 91.4121 2.01938 -0.0808391 0
M  V30 946 C 91.7331 1.46475 1.28725 0
M  V30 947 O 91.0031 0.652944 1.84698 0
M  V30 948 H 89.5831 0.746516 -0.0268938 0
M  V30 949 H 92.2451 1.79055 -0.769752 0
M  V30 950 H 91.3411 3.12094 -0.0187578 0
M  V30 951 N 91.6422 0.330177 1.54103 0
M  V30 952 C 92.5522 -0.541534 2.28264 0
M  V30 953 C 93.5682 -1.12351 1.32866 0
M  V30 954 O 94.7442 -1.14206 1.65888 0
M  V30 955 C 91.8092 -1.68322 3.03098 0
M  V30 956 C 90.8702 -1.13238 4.14096 0
M  V30 957 C 90.1032 -2.21966 4.85352 0
M  V30 958 O 90.3262 -3.42437 4.56172 0
M  V30 959 O 89.2602 -1.87013 5.7211 0
M  V30 960 H 93.0862 0.060938 3.03639 0
M  V30 961 H 90.6712 0.09565 1.49093 0
M  V30 962 H 92.5532 -2.34777 3.49939 0
M  V30 963 H 91.2282 -2.27176 2.30593 0
M  V30 964 H 90.1352 -0.432736 3.71589 0
M  V30 965 H 91.4682 -0.588898 4.88664 0
M  V30 966 N 93.1203 -1.57491 0.0584922 0
M  V30 967 C 94.0673 -2.11958 -0.913376 0
M  V30 968 C 95.0373 -1.02875 -1.30407 0
M  V30 969 O 96.2223 -1.30464 -1.39226 0
M  V30 970 C 93.3623 -2.67497 -2.18035 0
M  V30 971 C 92.4753 -3.90691 -1.84349 0
M  V30 972 C 91.6103 -4.3452 -3.05559 0
M  V30 973 C 90.6493 -5.50395 -2.67827 0
M  V30 974 N 89.7863 -5.89244 -3.81754 0
M  V30 975 H 94.6263 -2.94704 -0.442017 0
M  V30 976 H 92.1633 -1.45643 -0.206545 0
M  V30 977 H 94.1213 -2.978 -2.92183 0
M  V30 978 H 92.7513 -1.87537 -2.62735 0
M  V30 979 H 91.8033 -3.66934 -1.00319 0
M  V30 980 H 93.1153 -4.7489 -1.5258 0
M  V30 981 H 92.2693 -4.66414 -3.87998 0
M  V30 982 H 91.0083 -3.49147 -3.40511 0
M  V30 983 H 90.0133 -5.18165 -1.83806 0
M  V30 984 H 91.2383 -6.3749 -2.34059 0
M  V30 985 H 89.1843 -5.06823 -4.16493 0
M  V30 986 H 89.1013 -6.68151 -3.53708 0
M  V30 987 H 90.3693 -6.25756 -4.64811 0
M  V30 988 N 94.5984 0.214957 -1.56127 0
M  V30 989 C 95.8464 0.936518 -1.79091 0
M  V30 990 C 96.1674 1.84606 -0.628148 0
M  V30 991 O 95.4374 1.92664 0.35462 0
M  V30 992 H 94.0174 0.3488 -0.660566 0
M  V30 993 H 96.6794 0.22523 -1.93594 0
M  V30 994 H 95.7754 1.53943 -2.71492 0
M  V30 995 N 96.0765 1.50051 0.48192 0
M  V30 996 C 97.0085 1.64263 1.59844 0
M  V30 997 C 98.0215 0.52451 1.54119 0
M  V30 998 O 99.2105 0.797293 1.59704 0
M  V30 999 C 96.3105 1.60102 2.98698 0
M  V30 1000 C 95.4835 2.87767 3.29407 0
M  V30 1001 C 94.5425 2.76397 4.47762 0
M  V30 1002 O 93.5685 3.50348 4.48603 0
M  V30 1003 N 94.7705 1.89222 5.48794 0
M  V30 1004 H 97.5355 2.60566 1.48073 0
M  V30 1005 H 95.0965 1.47379 0.670149 0
M  V30 1006 H 97.0885 1.50123 3.75826 0
M  V30 1007 H 95.6585 0.715798 3.04294 0
M  V30 1008 H 94.8785 3.11954 2.40994 0
M  V30 1009 H 96.1665 3.72365 3.4673 0
M  V30 1010 H 95.5645 1.28434 5.50928 0
M  V30 1011 H 94.1215 1.85154 6.24949 0
M  V30 1012 N 97.5546 -0.734337 1.39446 0
M  V30 1013 C 98.9706 -1.03997 1.21065 0
M  V30 1014 C 99.1706 -2.01369 0.0727019 0
M  V30 1015 O 98.2266 -2.45856 -0.575426 0
M  V30 1016 C 99.5396 -1.60163 2.54496 0
M  V30 1017 C 101.088 -1.7224 2.61347 0
M  V30 1018 C 101.563 -2.31814 3.95002 0
M  V30 1019 N 103.054 -2.39223 3.96644 0
M  V30 1020 C 103.789 -2.86258 4.96834 0
M  V30 1021 N 103.285 -3.33184 6.07421 0
M  V30 1022 N 105.078 -2.85473 4.84213 0
M  V30 1023 H 97.2286 -0.0885624 2.12215 0
M  V30 1024 H 99.4916 -0.10191 0.942506 0
M  V30 1025 H 99.1976 -0.960811 3.38321 0
M  V30 1026 H 99.0716 -2.5896 2.74262 0
M  V30 1027 H 101.459 -2.35443 1.77906 0
M  V30 1028 H 101.54 -0.720939 2.4543 0
M  V30 1029 H 101.184 -1.69238 4.78875 0
M  V30 1030 H 101.114 -3.32638 4.08239 0
M  V30 1031 H 103.605 -2.06057 3.16779 0
M  V30 1032 H 103.918 -3.67586 6.7978 0
M  V30 1033 H 102.263 -3.31191 6.11013 0
M  V30 1034 H 105.454 -2.48136 3.96921 0
M  V30 1035 H 105.627 -3.21814 5.62441 0
M  V30 1036 N 99.0327 -1.24633 -0.964593 0
M  V30 1037 C 100.263 -1.11339 -1.74032 0
M  V30 1038 C 100.671 0.336593 -1.86182 0
M  V30 1039 O 100.014 1.24389 -1.35178 0
M  V30 1040 C 100.076 -1.68284 -3.1768 0
M  V30 1041 C 99.7397 -3.17196 -3.28992 0
M  V30 1042 C 100.737 -4.14308 -3.14078 0
M  V30 1043 C 98.4217 -3.57215 -3.53133 0
M  V30 1044 C 100.416 -5.4942 -3.23135 0
M  V30 1045 C 98.1027 -4.92468 -3.61827 0
M  V30 1046 C 99.1007 -5.8838 -3.46841 0
M  V30 1047 O 98.7887 -7.21173 -3.55197 0
M  V30 1048 H 98.5207 -0.389551 -0.552472 0
M  V30 1049 H 101.075 -1.65282 -1.21946 0
M  V30 1050 H 99.3047 -1.08777 -3.71085 0
M  V30 1051 H 100.994 -1.50234 -3.77074 0
M  V30 1052 H 101.76 -3.84731 -2.95308 0
M  V30 1053 H 97.6387 -2.83063 -3.63863 0
M  V30 1054 H 101.183 -6.24263 -3.11355 0
M  V30 1055 H 97.0797 -5.21714 -3.80111 0
M  V30 1056 H 97.8477 -7.29135 -3.71892 0
M  V30 1057 N 100.511 1.16574 -1.06058 0
M  V30 1058 C 101.441 2.23057 -0.690488 0
M  V30 1059 C 102.422 1.67141 0.315901 0
M  V30 1060 O 103.607 1.93253 0.191556 0
M  V30 1061 C 100.737 3.47222 -0.073625 0
M  V30 1062 C 99.6908 4.16016 -1.00573 0
M  V30 1063 C 99.0168 5.34104 -0.252289 0
M  V30 1064 C 100.317 4.67264 -2.33371 0
M  V30 1065 H 102.011 2.54271 -1.58072 0
M  V30 1066 H 99.5568 1.22218 -0.76149 0
M  V30 1067 H 101.51 4.20939 0.19714 0
M  V30 1068 H 100.234 3.15302 0.85161 0
M  V30 1069 H 98.8928 3.44223 -1.2612 0
M  V30 1070 H 98.5408 4.98437 0.675988 0
M  V30 1071 H 98.2408 5.81072 -0.873455 0
M  V30 1072 H 99.7648 6.10599 0.0109857 0
M  V30 1073 H 101.179 5.32573 -2.12223 0
M  V30 1074 H 99.5758 5.24843 -2.90963 0
M  V30 1075 H 100.646 3.83602 -2.96611 0
M  V30 1076 N 101.989 0.842826 1.3317 0
M  V30 1077 C 102.952 0.284065 2.27433 0
M  V30 1078 C 103.952 -0.54948 1.5112 0
M  V30 1079 O 105.142 -0.362699 1.70382 0
M  V30 1080 C 102.274 -0.599384 3.35589 0
M  V30 1081 H 103.467 1.11589 2.78366 0
M  V30 1082 H 101.02 0.616221 1.4364 0
M  V30 1083 H 101.755 -1.45349 2.89904 0
M  V30 1084 H 101.54 -0.00291266 3.921 0
M  V30 1085 H 103.03 -0.983488 4.05854 0
M  V30 1086 N 103.467 -1.45747 0.599634 0
M  V30 1087 C 104.744 -1.95585 0.0240846 0
M  V30 1088 C 105.124 -1.54217 -1.44154 0
M  V30 1089 O 104.472 -0.800903 -2.14004 0
M  V30 1090 C 104.682 -3.48344 0.21385 0
M  V30 1091 C 106.03 -4.24504 0.0904902 0
M  V30 1092 O 107.054 -3.55911 0.143558 0
M  V30 1093 O 105.913 -5.46491 -0.0310766 0
M  V30 1094 H 103.007 -0.82602 -0.0402478 0
M  V30 1095 H 105.553 -1.55951 0.669139 0
M  V30 1096 H 104.325 -3.71397 1.23206 0
M  V30 1097 H 103.948 -3.9485 -0.466842 0
M  V30 1098 N 104.945 -0.338344 -1.53925 0
M  V30 1099 C 106.194 0.260732 -2.00008 0
M  V30 1100 C 106.507 1.52073 -1.23017 0
M  V30 1101 O 107.713 2.19672 -1.5955 0
M  V30 1102 C 106.169 0.51515 -3.56194 0
M  V30 1103 C 105.777 -0.728645 -4.42035 0
M  V30 1104 C 107.521 1.07337 -4.10706 0
M  V30 1105 C 105.428 -0.445315 -5.89721 0
M  V30 1106 H 104.358 0.101205 -0.747177 0
M  V30 1107 H 107.009 -0.452866 -1.77824 0
M  V30 1108 H 105.391 1.28932 -3.74423 0
M  V30 1109 H 106.565 -1.50352 -4.35581 0
M  V30 1110 H 104.88 -1.20813 -3.98489 0
M  V30 1111 H 107.477 1.30022 -5.18651 0
M  V30 1112 H 107.82 2.0273 -3.63602 0
M  V30 1113 H 108.353 0.360034 -3.96167 0
M  V30 1114 H 105.092 -1.36883 -6.41049 0
M  V30 1115 H 104.612 0.291569 -5.99091 0
M  V30 1116 H 106.291 -0.0606218 -6.46972 0
M  V30 1117 N 106.423 1.57458 -0.0668435 0
M  V30 1118 C 107.67 1.93301 0.603406 0
M  V30 1119 C 107.998 0.946486 1.69917 0
M  V30 1120 O 107.253 -0.0387021 1.95662 0
M  V30 1121 C 107.552 3.35784 1.22409 0
M  V30 1122 C 107.218 4.50179 0.254955 0
M  V30 1123 C 105.88 4.81199 -0.0116746 0
M  V30 1124 C 108.232 5.19598 -0.408338 0
M  V30 1125 C 105.56 5.78978 -0.94877 0
M  V30 1126 C 107.912 6.18381 -1.33372 0
M  V30 1127 C 106.576 6.47821 -1.60887 0
M  V30 1128 H 105.846 0.707338 0.220802 0
M  V30 1129 H 108.493 1.91012 -0.136665 0
M  V30 1130 H 106.798 3.34515 2.03978 0
M  V30 1131 H 108.495 3.60804 1.74989 0
M  V30 1132 H 105.085 4.25983 0.472954 0
M  V30 1133 H 109.269 4.95832 -0.215456 0
M  V30 1134 H 104.525 6.00115 -1.16925 0
M  V30 1135 H 108.699 6.71277 -1.85367 0
M  V30 1136 H 106.326 7.23399 -2.33661 0
M  V30 1137 N 107.901 -0.206675 1.56239 0
M  V30 1138 C 109.129 -0.945345 1.8404 0
M  V30 1139 C 109.544 -1.77336 0.647885 0
M  V30 1140 O 108.901 -1.78425 -0.383511 0
M  V30 1141 C 108.952 -1.8509 3.10522 0
M  V30 1142 O 108.673 -1.05634 4.25174 0
M  V30 1143 C 110.174 -2.70222 3.51418 0
M  V30 1144 H 107.394 -0.276372 0.61144 0
M  V30 1145 H 109.938 -0.217417 2.03341 0
M  V30 1146 H 108.093 -2.53259 2.93153 0
M  V30 1147 H 108.507 -1.67238 4.97124 0
M  V30 1148 H 109.981 -3.29438 4.42916 0
M  V30 1149 H 110.458 -3.43358 2.73864 0
M  V30 1150 H 111.064 -2.07443 3.71278 0
M  V30 1151 N 109.379 -1.50304 -0.473955 0
M  V30 1152 C 110.607 -1.64902 -1.24959 0
M  V30 1153 C 111.022 -0.331198 -1.85872 0
M  V30 1154 O 110.379 0.68652 -1.69095 0
M  V30 1155 C 110.43 -2.73803 -2.36038 0
M  V30 1156 O 110.151 -4.00477 -1.77624 0
M  V30 1157 C 111.652 -2.99349 -3.26964 0
M  V30 1158 H 108.872 -0.554383 -0.378022 0
M  V30 1159 H 111.416 -1.9651 -0.566054 0
M  V30 1160 H 109.571 -2.44898 -3.00173 0
M  V30 1161 H 109.985 -4.60678 -2.5075 0
M  V30 1162 H 111.459 -3.79217 -4.01121 0
M  V30 1163 H 111.936 -2.10307 -3.85574 0
M  V30 1164 H 112.542 -3.29774 -2.68569 0
M  V30 1165 N 110.857 0.726932 -1.39834 0
M  V30 1166 C 112.097 1.4992 -1.38936 0
M  V30 1167 C 112.461 1.91996 0.0126883 0
M  V30 1168 O 113.662 2.68399 0.146715 0
M  V30 1169 C 111.933 2.70013 -2.34153 0
M  V30 1170 S 113.492 3.59563 -2.51515 0
M  V30 1171 H 110.31 0.51271 -0.492595 0
M  V30 1172 H 112.912 0.85107 -1.76003 0
M  V30 1173 H 111.616 2.37254 -3.34871 0
M  V30 1174 H 111.147 3.39748 -1.98331 0
M  V30 1175 H 113.162 4.63973 -1.75909 0
M  V30 1176 N 112.336 1.25143 0.95797 0
M  V30 1177 C 113.582 1.09855 1.70469 0
M  V30 1178 C 113.915 -0.360187 1.90831 0
M  V30 1179 O 113.19 -1.26568 1.47685 0
M  V30 1180 C 113.473 1.8497 3.08963 0
M  V30 1181 C 113.326 3.38652 2.96032 0
M  V30 1182 C 114.645 1.63016 4.08795 0
M  V30 1183 H 111.764 0.400465 0.618706 0
M  V30 1184 H 114.406 1.53933 1.11376 0
M  V30 1185 H 112.556 1.47505 3.59409 0
M  V30 1186 H 114.228 3.85772 2.52938 0
M  V30 1187 H 112.471 3.66534 2.32025 0
M  V30 1188 H 113.142 3.8642 3.94187 0
M  V30 1189 H 115.618 1.95625 3.67247 0
M  V30 1190 H 114.494 2.18015 5.03747 0
M  V30 1191 H 114.755 0.570692 4.38401 0
M  V30 1192 N 113.814 -1.1601 1.06675 0
M  V30 1193 C 115.091 -1.82679 0.699114 0
M  V30 1194 C 115.471 -1.94559 -0.819137 0
M  V30 1195 O 114.819 -1.49169 -1.73092 0
M  V30 1196 C 115.029 -3.19445 1.40555 0
M  V30 1197 C 116.377 -3.95171 1.55323 0
M  V30 1198 O 117.401 -3.28976 1.36577 0
M  V30 1199 O 116.26 -5.13833 1.86112 0
M  V30 1200 H 113.354 -0.788954 0.247951 0
M  V30 1201 H 115.9 -1.23179 1.16726 0
M  V30 1202 H 114.672 -3.05856 2.44065 0
M  V30 1203 H 114.295 -3.86625 0.927733 0
M  V30 1204 N 115.292 -0.849877 -1.32721 0
M  V30 1205 C 116.541 -0.447175 -1.96681 0
M  V30 1206 C 116.854 1.00135 -1.68025 0
M  V30 1207 O 118.06 1.50926 -2.25685 0
M  V30 1208 C 116.516 -0.7487 -3.52026 0
M  V30 1209 C 116.124 -2.21264 -3.89546 0
M  V30 1210 C 117.868 -0.413487 -4.22481 0
M  V30 1211 C 115.775 -2.45763 -5.37917 0
M  V30 1212 H 114.705 -0.163486 -0.736063 0
M  V30 1213 H 117.356 -1.03999 -1.51183 0
M  V30 1214 H 115.738 -0.0853727 -3.95908 0
M  V30 1215 H 116.912 -2.91736 -3.56689 0
M  V30 1216 H 115.227 -2.5119 -3.32103 0
M  V30 1217 H 117.824 -0.574017 -5.3161 0
M  V30 1218 H 118.167 0.644492 -4.11281 0
M  V30 1219 H 118.7 -1.03251 -3.84167 0
M  V30 1220 H 115.439 -3.50168 -5.54132 0
M  V30 1221 H 114.959 -1.79864 -5.72197 0
M  V30 1222 H 116.638 -2.29471 -6.0494 0
M  V30 1223 N 116.77 1.45427 -0.607355 0
M  V30 1224 C 118.186 1.57283 -0.270985 0
M  V30 1225 C 118.386 1.59875 1.22647 0
M  V30 1226 O 117.442 1.52893 2.00948 0
M  V30 1227 C 118.755 2.85566 -0.941952 0
M  V30 1228 C 120.303 2.9924 -0.917849 0
M  V30 1229 C 120.778 4.30293 -1.56882 0
M  V30 1230 N 122.269 4.37051 -1.5343 0
M  V30 1231 C 123.004 5.37123 -2.00715 0
M  V30 1232 N 122.5 6.43734 -2.56084 0
M  V30 1233 N 124.293 5.28479 -1.91484 0
M  V30 1234 H 116.444 1.41988 -1.57966 0
M  V30 1235 H 118.707 0.67885 -0.661715 0
M  V30 1236 H 118.413 2.8955 -1.99633 0
M  V30 1237 H 118.287 3.74322 -0.465096 0
M  V30 1238 H 120.674 2.94822 0.127984 0
M  V30 1239 H 120.755 2.11895 -1.43297 0
M  V30 1240 H 120.399 4.35469 -2.61398 0
M  V30 1241 H 120.329 5.16454 -1.02873 0
M  V30 1242 H 122.82 3.60615 -1.12982 0
M  V30 1243 H 123.133 7.16341 -2.89958 0
M  V30 1244 H 121.478 6.44485 -2.60122 0
M  V30 1245 H 124.669 4.44098 -1.47967 0
M  V30 1246 H 124.842 6.0632 -2.28648 0
M  V30 1247 N 118.248 0.346503 1.53744 0
M  V30 1248 C 119.494 -0.242135 2.01954 0
M  V30 1249 C 119.849 -1.47962 1.22984 0
M  V30 1250 O 119.142 -1.89077 0.309924 0
M  V30 1251 C 119.336 -0.605809 3.52228 0
M  V30 1252 C 119.165 0.594882 4.45748 0
M  V30 1253 C 117.935 1.1011 4.93157 0
M  V30 1254 C 120.133 1.45425 4.93311 0
M  V30 1255 N 118.115 2.26381 5.70636 0
M  V30 1256 C 119.486 2.46383 5.68942 0
M  V30 1257 C 121.541 1.47935 4.75415 0
M  V30 1258 C 120.244 3.49684 6.28581 0
M  V30 1259 C 122.27 2.50119 5.35905 0
M  V30 1260 C 121.632 3.49803 6.11406 0
M  V30 1261 H 117.731 -0.0518296 0.780281 0
M  V30 1262 H 120.315 0.486736 1.88518 0
M  V30 1263 H 118.486 -1.30378 3.65864 0
M  V30 1264 H 120.218 -1.17789 3.87179 0
M  V30 1265 H 116.973 0.668721 4.68855 0
M  V30 1266 H 117.397 2.85094 6.14044 0
M  V30 1267 H 122.039 0.722274 4.16585 0
M  V30 1268 H 119.757 4.26285 6.86518 0
M  V30 1269 H 123.343 2.52892 5.23963 0
M  V30 1270 H 122.223 4.27576 6.5738 0
M  V30 1271 N 119.726 -1.57421 0.075193 0
M  V30 1272 C 121.142 -1.57099 -0.281444 0
M  V30 1273 C 121.342 -1.08486 -1.69803 0
M  V30 1274 O 120.398 -0.752279 -2.41033 0
M  V30 1275 C 121.711 -3.00571 -0.0880041 0
M  V30 1276 C 123.259 -3.12605 -0.157281 0
M  V30 1277 C 123.734 -4.57999 0.0079207 0
M  V30 1278 N 125.225 -4.63176 -0.0475725 0
M  V30 1279 C 125.96 -5.73373 0.0557876 0
M  V30 1280 N 125.456 -6.92473 0.21286 0
M  V30 1281 N 127.249 -5.621 -0.00152098 0
M  V30 1282 H 119.4 -1.87335 1.00098 0
M  V30 1283 H 121.663 -0.86377 0.390646 0
M  V30 1284 H 121.369 -3.40262 0.889629 0
M  V30 1285 H 121.243 -3.67754 -0.838875 0
M  V30 1286 H 123.63 -2.72798 -1.1254 0
M  V30 1287 H 123.711 -2.48053 0.62475 0
M  V30 1288 H 123.355 -4.98496 0.972824 0
M  V30 1289 H 123.285 -5.20586 -0.793556 0
M  V30 1290 H 125.776 -3.7753 -0.167244 0
M  V30 1291 H 126.089 -7.72279 0.283781 0
M  V30 1292 H 124.434 -6.94556 0.248267 0
M  V30 1293 H 127.625 -4.67938 -0.122958 0
M  V30 1294 H 127.798 -6.47948 0.0824844 0
M  V30 1295 N 121.204 0.198386 -1.56346 0
M  V30 1296 C 122.45 0.916115 -1.81601 0
M  V30 1297 C 122.805 1.81025 -0.651744 0
M  V30 1298 O 122.098 1.88316 0.353229 0
M  V30 1299 C 122.292 1.77031 -3.10475 0
M  V30 1300 C 122.121 0.960365 -4.39326 0
M  V30 1301 C 120.891 0.646093 -5.01152 0
M  V30 1302 C 123.089 0.314628 -5.13337 0
M  V30 1303 N 121.071 -0.182828 -6.13628 0
M  V30 1304 C 122.442 -0.37664 -6.18855 0
M  V30 1305 C 124.497 0.230019 -4.97368 0
M  V30 1306 C 123.2 -1.14445 -7.10137 0
M  V30 1307 C 125.226 -0.524389 -5.89071 0
M  V30 1308 C 124.588 -1.20412 -6.94032 0
M  V30 1309 H 120.687 0.314732 -0.715868 0
M  V30 1310 H 123.271 0.185102 -1.93818 0
M  V30 1311 H 121.442 2.47295 -2.99499 0
M  V30 1312 H 123.174 2.42727 -3.2383 0
M  V30 1313 H 119.929 0.969724 -4.63566 0
M  V30 1314 H 120.353 -0.586802 -6.74452 0
M  V30 1315 H 124.995 0.741184 -4.16253 0
M  V30 1316 H 122.713 -1.66706 -7.90718 0
M  V30 1317 H 126.299 -0.591167 -5.78789 0
M  V30 1318 H 125.179 -1.77853 -7.63766 0
M  V30 1319 N 122.682 1.50554 0.465978 0
M  V30 1320 C 123.615 1.64436 1.58227 0
M  V30 1321 C 124.593 0.492367 1.54966 0
M  V30 1322 O 125.777 0.712536 1.74514 0
M  V30 1323 C 122.904 1.63165 2.96808 0
M  V30 1324 C 121.95 2.83987 3.18204 0
M  V30 1325 S 122.783 4.45219 2.97557 0
M  V30 1326 C 123.939 4.46649 4.3847 0
M  V30 1327 H 124.172 2.58861 1.46213 0
M  V30 1328 H 121.705 1.3988 0.653678 0
M  V30 1329 H 123.663 1.63116 3.76701 0
M  V30 1330 H 122.324 0.69967 3.06208 0
M  V30 1331 H 121.517 2.79416 4.19455 0
M  V30 1332 H 121.119 2.81629 2.46092 0
M  V30 1333 H 123.411 4.20526 5.31191 0
M  V30 1334 H 124.354 5.48295 4.48082 0
M  V30 1335 H 124.762 3.76296 4.20787 0
M  V30 1336 N 124.16 -0.719506 1.40217 0
M  V30 1337 C 125.09 -1.8465 1.42922 0
M  V30 1338 C 126.071 -1.67599 0.29062 0
M  V30 1339 O 127.256 -1.87688 0.498677 0
M  V30 1340 C 124.386 -3.22565 1.28722 0
M  V30 1341 C 123.34 -3.54281 2.40144 0
M  V30 1342 C 122.666 -4.91298 2.11023 0
M  V30 1343 C 123.966 -3.55676 3.82481 0
M  V30 1344 H 125.66 -1.82644 2.37237 0
M  V30 1345 H 123.206 -0.877305 1.1419 0
M  V30 1346 H 125.159 -4.01095 1.29232 0
M  V30 1347 H 123.883 -3.25137 0.308811 0
M  V30 1348 H 122.542 -2.78088 2.38877 0
M  V30 1349 H 122.19 -4.90468 1.11582 0
M  V30 1350 H 121.89 -5.13485 2.8567 0
M  V30 1351 H 123.414 -5.72166 2.13209 0
M  V30 1352 H 124.828 -4.24254 3.85592 0
M  V30 1353 H 123.225 -3.89388 4.56614 0
M  V30 1354 H 124.295 -2.55144 4.12346 0
M  V30 1355 N 125.638 -1.25649 -0.95132 0
M  V30 1356 C 126.884 -1.10757 -1.69884 0
M  V30 1357 C 127.217 0.350061 -1.91019 0
M  V30 1358 O 126.492 1.25783 -1.48354 0
M  V30 1359 C 126.775 -1.86606 -3.07978 0
M  V30 1360 C 126.628 -3.40217 -2.94232 0
M  V30 1361 C 127.947 -1.65182 -4.07925 0
M  V30 1362 H 125.066 -0.40374 -0.616574 0
M  V30 1363 H 127.708 -1.54521 -1.10558 0
M  V30 1364 H 125.858 -1.49409 -3.58621 0
M  V30 1365 H 127.53 -3.87108 -2.50889 0
M  V30 1366 H 125.773 -3.67759 -2.30078 0
M  V30 1367 H 126.444 -3.88505 -3.92133 0
M  V30 1368 H 128.92 -1.9757 -3.66204 0
M  V30 1369 H 127.796 -2.20683 -5.02583 0
M  V30 1370 H 128.057 -0.593933 -4.38092 0
M  V30 1371 N 127.117 1.15442 -1.07289 0
M  V30 1372 C 128.366 1.85557 -0.790669 0
M  V30 1373 C 128.679 1.83186 0.685739 0
M  V30 1374 O 129.885 2.48977 1.0827 0
M  V30 1375 C 128.341 3.33038 -1.36433 0
M  V30 1376 C 127.949 3.43856 -2.8717 0
M  V30 1377 C 129.693 4.0834 -1.1601 0
M  V30 1378 C 127.6 4.85482 -3.3773 0
M  V30 1379 H 126.53 0.695122 -0.292098 0
M  V30 1380 H 129.181 1.30219 -1.29287 0
M  V30 1381 H 127.563 3.88043 -0.789864 0
M  V30 1382 H 128.737 2.98961 -3.50655 0
M  V30 1383 H 127.052 2.81998 -3.06376 0
M  V30 1384 H 129.649 5.12859 -1.51262 0
M  V30 1385 H 129.992 4.16182 -0.0991007 0
M  V30 1386 H 130.525 3.59603 -1.70089 0
M  V30 1387 H 127.264 4.82823 -4.43353 0
M  V30 1388 H 126.784 5.30961 -2.78999 0
M  V30 1389 H 128.463 5.54335 -3.33648 0
M  V30 1390 N 128.595 0.856903 1.32268 0
M  V30 1391 C 129.842 0.461386 1.97174 0
M  V30 1392 C 130.17 -0.983491 1.67803 0
M  V30 1393 O 129.425 -1.70541 0.959903 0
M  V30 1394 C 129.724 0.649919 3.51441 0
M  V30 1395 C 129.39 2.0656 4.00804 0
M  V30 1396 C 128.052 2.45279 4.13995 0
M  V30 1397 C 130.404 2.98947 4.26943 0
M  V30 1398 C 127.732 3.75653 4.50668 0
M  V30 1399 C 130.084 4.28822 4.65075 0
M  V30 1400 C 128.748 4.67472 4.76472 0
M  V30 1401 H 128.018 0.168833 0.72151 0
M  V30 1402 H 130.665 1.08739 1.57633 0
M  V30 1403 H 128.97 -0.0593018 3.91755 0
M  V30 1404 H 130.667 0.32391 3.9969 0
M  V30 1405 H 127.257 1.75495 3.91024 0
M  V30 1406 H 131.441 2.70265 4.16258 0
M  V30 1407 H 126.697 4.05379 4.57688 0
M  V30 1408 H 130.871 5.0047 4.84255 0
M  V30 1409 H 128.498 5.68539 5.04646 0
M  V30 1410 N 130.073 -1.45103 0.615059 0
M  V30 1411 C 131.313 -2.04069 0.116282 0
M  V30 1412 C 131.677 -1.4721 -1.2326 0
M  V30 1413 O 132.878 -1.97577 -1.82255 0
M  V30 1414 C 131.149 -3.57298 0.085482 0
M  V30 1415 S 132.708 -4.37394 -0.351015 0
M  V30 1416 H 129.526 -0.709006 0.0532183 0
M  V30 1417 H 132.128 -1.77709 0.81484 0
M  V30 1418 H 130.832 -3.9619 1.0706 0
M  V30 1419 H 130.363 -3.88244 -0.634835 0
M  V30 1420 H 132.378 -4.69734 -1.59889 0
M  V30 1421 N 131.551 -0.354651 -1.53558 0
M  V30 1422 C 132.481 0.489091 -2.2832 0
M  V30 1423 C 133.462 1.09324 -1.30316 0
M  V30 1424 O 134.647 1.11255 -1.59173 0
M  V30 1425 C 131.777 1.63456 -3.0643 0
M  V30 1426 C 130.731 1.1582 -4.12031 0
M  V30 1427 C 130.057 2.39305 -4.7816 0
M  V30 1428 C 131.357 0.250731 -5.21698 0
M  V30 1429 H 133.051 -0.134614 -2.99097 0
M  V30 1430 H 130.597 -0.0661826 -1.43848 0
M  V30 1431 H 132.55 2.23136 -3.57475 0
M  V30 1432 H 131.274 2.28533 -2.33325 0
M  V30 1433 H 129.933 0.584146 -3.61916 0
M  V30 1434 H 129.581 3.02814 -4.01637 0
M  V30 1435 H 129.281 2.08109 -5.49513 0
M  V30 1436 H 130.805 2.99691 -5.31994 0
M  V30 1437 H 132.219 0.754695 -5.68311 0
M  V30 1438 H 130.616 0.0301468 -6.00092 0
M  V30 1439 H 131.686 -0.710125 -4.79672 0
M  V30 1440 N 133.029 1.57378 -0.0835403 0
M  V30 1441 C 133.992 2.12252 0.864959 0
M  V30 1442 C 134.992 1.04916 1.21858 0
M  V30 1443 O 136.182 1.30853 1.14991 0
M  V30 1444 C 133.314 2.63358 2.16461 0
M  V30 1445 H 134.507 2.97371 0.388676 0
M  V30 1446 H 132.06 1.55423 0.165317 0
M  V30 1447 H 132.795 1.81727 2.686 0
M  V30 1448 H 132.58 3.41826 1.92087 0
M  V30 1449 H 134.07 3.05847 2.84337 0
M  V30 1450 N 134.507 -0.190092 1.56449 0
M  V30 1451 C 135.754 -0.909705 1.80916 0
M  V30 1452 C 136.082 -1.83047 0.657583 0
M  V30 1453 O 135.337 -1.92428 -0.356356 0
M  V30 1454 C 135.636 -1.75382 3.1141 0
M  V30 1455 C 135.302 -0.983606 4.40041 0
M  V30 1456 C 133.964 -0.770967 4.74984 0
M  V30 1457 C 136.316 -0.442024 5.19322 0
M  V30 1458 C 133.644 -0.0053448 5.867 0
M  V30 1459 C 135.996 0.310412 6.31838 0
M  V30 1460 C 134.66 0.534023 6.6536 0
M  V30 1461 H 133.93 -0.332885 0.662019 0
M  V30 1462 H 136.577 -0.175762 1.90692 0
M  V30 1463 H 134.882 -2.55659 2.96893 0
M  V30 1464 H 136.579 -2.31331 3.27547 0
M  V30 1465 H 133.169 -1.15936 4.12622 0
M  V30 1466 H 137.353 -0.593693 4.92736 0
M  V30 1467 H 132.609 0.177825 6.11141 0
M  V30 1468 H 136.783 0.737419 6.92485 0
M  V30 1469 H 134.41 1.12918 7.51767 0
M  V30 1470 N 135.985 -1.50799 -0.457987 0
M  V30 1471 C 137.231 -1.62683 -1.21088 0
M  V30 1472 C 137.564 -0.332268 -1.91336 0
M  V30 1473 O 136.839 0.667043 -1.82704 0
M  V30 1474 C 137.122 -2.81615 -2.24422 0
M  V30 1475 C 136.975 -4.20989 -1.58392 0
M  V30 1476 C 138.294 -2.96085 -3.2561 0
M  V30 1477 H 135.413 -0.592087 -0.438864 0
M  V30 1478 H 138.055 -1.83225 -0.50286 0
M  V30 1479 H 136.205 -2.64231 -2.84806 0
M  V30 1480 H 137.877 -4.49994 -1.01504 0
M  V30 1481 H 136.12 -4.24641 -0.886704 0
M  V30 1482 H 136.791 -5.0016 -2.33547 0
M  V30 1483 H 139.267 -3.12042 -2.75262 0
M  V30 1484 H 138.143 -3.80902 -3.95228 0
M  V30 1485 H 138.404 -2.0726 -3.90507 0
M  V30 1486 N 137.463 0.71206 -1.40597 0
M  V30 1487 C 138.393 1.83889 -1.43899 0
M  V30 1488 C 139.374 1.67442 -0.299504 0
M  V30 1489 O 140.559 1.87421 -0.508624 0
M  V30 1490 C 137.689 3.21877 -1.30431 0
M  V30 1491 C 136.643 3.53002 -2.42019 0
M  V30 1492 C 135.969 4.90172 -2.13626 0
M  V30 1493 C 137.269 3.53643 -3.84362 0
M  V30 1494 H 138.963 1.81383 -2.38203 0
M  V30 1495 H 136.509 0.871237 -1.14654 0
M  V30 1496 H 138.462 4.00404 -1.31357 0
M  V30 1497 H 137.186 3.24968 -0.326049 0
M  V30 1498 H 135.845 2.76818 -2.40349 0
M  V30 1499 H 135.493 4.89869 -1.14182 0
M  V30 1500 H 135.193 5.11962 -2.88389 0
M  V30 1501 H 136.717 5.71028 -2.1624 0
M  V30 1502 H 138.131 4.22203 -3.87837 0
M  V30 1503 H 136.528 3.86961 -4.58673 0
M  V30 1504 H 137.598 2.52954 -4.13693 0
M  V30 1505 N 138.941 1.26152 0.944643 0
M  V30 1506 C 140.166 1.14363 1.7302 0
M  V30 1507 C 140.591 -0.29772 1.85729 0
M  V30 1508 O 139.949 -1.2157 1.34501 0
M  V30 1509 C 139.997 1.81378 3.11664 0
M  V30 1510 O 139.101 1.10022 3.97453 0
M  V30 1511 H 138.442 0.398694 0.53098 0
M  V30 1512 H 140.972 1.66906 1.18337 0
M  V30 1513 H 140.982 1.88064 3.62072 0
M  V30 1514 H 139.657 2.86237 3.0173 0
M  V30 1515 H 138.234 1.11287 3.55907 0
M  V30 1516 N 140.419 -1.14872 1.07899 0
M  V30 1517 C 141.665 -1.86289 0.81657 0
M  V30 1518 C 142.02 -1.8107 -0.65049 0
M  V30 1519 O 141.313 -1.22684 -1.47171 0
M  V30 1520 C 141.507 -3.34223 1.26609 0
M  V30 1521 C 141.336 -3.53846 2.77531 0
M  V30 1522 C 140.106 -3.68995 3.45212 0
M  V30 1523 C 142.304 -3.51201 3.75716 0
M  V30 1524 N 140.286 -3.76725 4.84718 0
M  V30 1525 C 141.657 -3.65112 5.01092 0
M  V30 1526 C 143.712 -3.34507 3.68794 0
M  V30 1527 C 142.415 -3.64056 6.20368 0
M  V30 1528 C 144.441 -3.34752 4.8754 0
M  V30 1529 C 143.803 -3.49199 6.11751 0
M  V30 1530 H 139.902 -0.698579 0.351443 0
M  V30 1531 H 142.486 -1.37713 1.37634 0
M  V30 1532 H 140.657 -3.81402 0.73395 0
M  V30 1533 H 142.389 -3.93377 0.95062 0
M  V30 1534 H 139.144 -3.70006 2.95622 0
M  V30 1535 H 139.568 -3.8432 5.5734 0
M  V30 1536 H 144.21 -3.22253 2.73702 0
M  V30 1537 H 141.928 -3.75087 7.15776 0
M  V30 1538 H 145.514 -3.23055 4.83866 0
M  V30 1539 H 144.394 -3.49328 7.02097 0
M  V30 1540 N 141.898 -0.863906 -1.31812 0
M  V30 1541 C 142.828 -0.330843 -2.31144 0
M  V30 1542 C 143.809 0.575005 -1.60087 0
M  V30 1543 O 144.994 0.493304 -1.8783 0
M  V30 1544 C 142.124 0.47374 -3.44054 0
M  V30 1545 C 141.078 -0.338481 -4.26659 0
M  V30 1546 C 140.404 0.591412 -5.31419 0
M  V30 1547 C 141.704 -1.56926 -4.98168 0
M  V30 1548 H 143.398 -1.16086 -2.75979 0
M  V30 1549 H 140.944 -0.559657 -1.32679 0
M  V30 1550 H 142.897 0.857143 -4.12591 0
M  V30 1551 H 141.621 1.33721 -2.9797 0
M  V30 1552 H 140.28 -0.703754 -3.59782 0
M  V30 1553 H 139.928 1.45199 -4.81587 0
M  V30 1554 H 139.628 0.0519022 -5.87577 0
M  V30 1555 H 141.152 0.97179 -6.02817 0
M  V30 1556 H 142.566 -1.25764 -5.59336 0
M  V30 1557 H 140.963 -2.04739 -5.64094 0
M  V30 1558 H 142.033 -2.32544 -4.25501 0
M  V30 1559 N 143.376 1.44774 -0.622745 0
M  V30 1560 C 144.623 2.02121 -0.1239 0
M  V30 1561 C 144.951 1.48915 1.25118 0
M  V30 1562 O 144.206 0.660045 1.84233 0
M  V30 1563 C 144.505 3.57364 -0.0508323 0
M  V30 1564 C 144.171 4.29787 -1.36358 0
M  V30 1565 C 142.833 4.4929 -1.72314 0
M  V30 1566 C 145.185 4.71062 -2.23048 0
M  V30 1567 C 142.513 5.07325 -2.94682 0
M  V30 1568 C 144.865 5.30452 -3.44679 0
M  V30 1569 C 143.529 5.48175 -3.80868 0
M  V30 1570 H 142.799 0.739612 -0.0453381 0
M  V30 1571 H 145.446 1.73648 -0.807389 0
M  V30 1572 H 143.751 3.85202 0.715991 0
M  V30 1573 H 145.448 3.99456 0.351533 0
M  V30 1574 H 142.038 4.14932 -1.07375 0
M  V30 1575 H 146.222 4.55715 -1.96565 0
M  V30 1576 H 141.478 5.19235 -3.22809 0
M  V30 1577 H 145.652 5.61385 -4.12092 0
M  V30 1578 H 143.279 5.92912 -4.75773 0
M  V30 1579 N 144.854 0.36279 1.53368 0
M  V30 1580 C 146.101 -0.227776 2.01215 0
M  V30 1581 C 146.429 -1.49003 1.25014 0
M  V30 1582 O 145.684 -1.92876 0.331236 0
M  V30 1583 C 145.983 -0.568417 3.52851 0
M  V30 1584 C 145.649 0.59918 4.46901 0
M  V30 1585 C 144.311 0.919559 4.72332 0
M  V30 1586 C 146.663 1.38156 5.02556 0
M  V30 1587 C 143.991 2.02434 5.5067 0
M  V30 1588 C 146.343 2.47674 5.821 0
M  V30 1589 C 145.007 2.8025 6.05819 0
M  V30 1590 H 144.277 -0.083349 0.736297 0
M  V30 1591 H 146.924 0.494677 1.85001 0
M  V30 1592 H 145.229 -1.37185 3.66998 0
M  V30 1593 H 146.926 -1.03756 3.87344 0
M  V30 1594 H 143.516 0.339437 4.27254 0
M  V30 1595 H 147.7 1.14729 4.82857 0
M  V30 1596 H 142.956 2.28075 5.67267 0
M  V30 1597 H 147.13 3.08716 6.24234 0
M  V30 1598 H 144.757 3.65979 6.66306 0
M  V30 1599 N 146.332 -1.57332 0.0918853 0
M  V30 1600 C 147.58 -1.93853 -0.571446 0
M  V30 1601 C 147.901 -0.974212 -1.6892 0
M  V30 1602 O 147.171 -0.0257254 -1.95883 0
M  V30 1603 H 145.751 -0.715666 -0.214082 0
M  V30 1604 H 148.413 -1.94287 0.154464 0
M  V30 1605 H 147.509 -2.96191 -0.983729 0
M  V30 1606 N 147.81 0.181792 -1.56548 0
M  V30 1607 C 149.05 0.906711 -1.83189 0
M  V30 1608 C 149.414 1.79882 -0.671312 0
M  V30 1609 O 150.615 2.56054 -0.81792 0
M  V30 1610 C 148.886 1.69023 -3.14906 0
M  V30 1611 S 150.445 2.46535 -3.62996 0
M  V30 1612 H 147.263 0.303877 -0.642791 0
M  V30 1613 H 149.865 0.169107 -1.94767 0
M  V30 1614 H 148.569 1.02571 -3.97376 0
M  V30 1615 H 148.1 2.46941 -3.06241 0
M  V30 1616 H 150.115 3.71014 -3.29489 0
M  V30 1617 N 149.288 1.51039 0.449983 0
M  V30 1618 C 150.534 1.63322 1.20223 0
M  V30 1619 C 150.867 0.34241 1.91158 0
M  V30 1620 O 150.142 -0.657344 1.83055 0
M  V30 1621 C 150.425 2.82801 2.22925 0
M  V30 1622 C 150.278 4.21823 1.56157 0
M  V30 1623 C 151.597 2.97807 3.24035 0
M  V30 1624 H 148.716 0.594407 0.435718 0
M  V30 1625 H 151.358 1.83489 0.493136 0
M  V30 1626 H 149.508 2.65738 2.834 0
M  V30 1627 H 151.18 4.50526 0.991162 0
M  V30 1628 H 149.423 4.25105 0.864172 0
M  V30 1629 H 150.094 5.01391 2.30891 0
M  V30 1630 H 152.57 3.13497 2.73603 0
M  V30 1631 H 151.446 3.82992 3.93202 0
M  V30 1632 H 151.707 2.09328 3.89402 0
M  V30 1633 N 150.766 -0.704594 1.40972 0
M  V30 1634 C 152.013 -1.46458 1.39844 0
M  V30 1635 C 152.341 -1.94499 0.00447594 0
M  V30 1636 O 151.596 -1.69275 -0.982057 0
M  V30 1637 C 151.895 -2.698 2.34399 0
M  V30 1638 C 151.561 -2.40464 3.81429 0
M  V30 1639 C 150.223 -2.32174 4.21484 0
M  V30 1640 C 152.575 -2.16086 4.74296 0
M  V30 1641 C 149.903 -1.97589 5.52427 0
M  V30 1642 C 152.255 -1.83011 6.05549 0
M  V30 1643 C 150.919 -1.7321 6.44635 0
M  V30 1644 H 150.189 -0.535927 0.511725 0
M  V30 1645 H 152.836 -0.806124 1.73706 0
M  V30 1646 H 151.141 -3.40536 1.93759 0
M  V30 1647 H 152.838 -3.27919 2.30804 0
M  V30 1648 H 149.428 -2.47808 3.49699 0
M  V30 1649 H 153.612 -2.2144 4.4416 0
M  V30 1650 H 148.868 -1.88547 5.81601 0
M  V30 1651 H 153.042 -1.63164 6.77016 0
M  V30 1652 H 150.669 -1.46179 7.46013 0
M  V30 1653 N 152.244 -1.26651 -0.937939 0
M  V30 1654 C 153.49 -1.13562 -1.68746 0
M  V30 1655 C 153.845 0.317241 -1.89767 0
M  V30 1656 O 153.138 1.22939 -1.46957 0
M  V30 1657 C 153.332 -1.84168 -3.06295 0
M  V30 1658 C 153.161 -3.36171 -2.98696 0
M  V30 1659 C 151.931 -4.05468 -3.01535 0
M  V30 1660 C 154.129 -4.32312 -2.78588 0
M  V30 1661 N 152.111 -5.44118 -2.84269 0
M  V30 1662 C 153.482 -5.58159 -2.69924 0
M  V30 1663 C 155.537 -4.22524 -2.63396 0
M  V30 1664 C 154.24 -6.75335 -2.47618 0
M  V30 1665 C 156.266 -5.39411 -2.42466 0
M  V30 1666 C 155.628 -6.64208 -2.34536 0
M  V30 1667 H 151.727 -0.470361 -0.624728 0
M  V30 1668 H 154.311 -1.59982 -1.10968 0
M  V30 1669 H 152.482 -1.40219 -3.62206 0
M  V30 1670 H 154.214 -1.63674 -3.70126 0
M  V30 1671 H 150.969 -3.56854 -3.11372 0
M  V30 1672 H 151.393 -6.1693 -2.78795 0
M  V30 1673 H 156.035 -3.26771 -2.68292 0
M  V30 1674 H 153.753 -7.71182 -2.41463 0
M  V30 1675 H 157.339 -5.33711 -2.31611 0
M  V30 1676 H 156.219 -7.53129 -2.18555 0
M  V30 1677 N 153.722 1.14298 -1.08507 0
M  V30 1678 C 154.652 2.21542 -0.737646 0
M  V30 1679 C 155.633 1.67773 0.280377 0
M  V30 1680 O 156.818 1.93616 0.150521 0
M  V30 1681 C 153.948 3.46988 -0.147259 0
M  V30 1682 C 152.902 4.13789 -1.09374 0
M  V30 1683 C 152.228 5.33449 -0.365524 0
M  V30 1684 C 153.528 4.62208 -2.4323 0
M  V30 1685 H 155.222 2.5086 -1.6343 0
M  V30 1686 H 152.768 1.20576 -0.787243 0
M  V30 1687 H 154.721 4.21262 0.107808 0
M  V30 1688 H 153.445 3.17037 0.784538 0
M  V30 1689 H 152.104 3.4147 -1.33393 0
M  V30 1690 H 151.752 4.99759 0.57011 0
M  V30 1691 H 151.452 5.79088 -0.996512 0
M  V30 1692 H 152.976 6.10485 -0.118534 0
M  V30 1693 H 154.39 5.27952 -2.23472 0
M  V30 1694 H 152.787 5.18553 -3.02031 0
M  V30 1695 H 153.857 3.77224 -3.04681 0
M  V30 1696 N 155.201 0.870884 1.31352 0
M  V30 1697 C 156.45 0.478408 1.95944 0
M  V30 1698 C 156.763 -0.974493 1.69597 0
M  V30 1699 O 157.969 -1.47316 2.28058 0
M  V30 1700 C 156.425 0.804609 3.50791 0
M  V30 1701 C 156.033 2.27433 3.85977 0
M  V30 1702 C 157.777 0.480648 4.2177 0
M  V30 1703 C 155.684 2.5429 5.33939 0
M  V30 1704 H 154.614 0.175175 0.733369 0
M  V30 1705 H 157.265 1.06391 1.4951 0
M  V30 1706 H 155.647 0.148347 3.95722 0
M  V30 1707 H 156.821 2.97373 3.52002 0
M  V30 1708 H 155.136 2.56442 3.28065 0
M  V30 1709 H 157.733 0.658519 5.30629 0
M  V30 1710 H 158.076 -0.578979 4.12254 0
M  V30 1711 H 158.609 1.09349 3.82476 0
M  V30 1712 H 155.348 3.58939 5.48491 0
M  V30 1713 H 154.868 1.88945 5.69263 0
M  V30 1714 H 156.547 2.39066 6.01212 0
M  V30 1715 N 156.679 -1.44442 0.630414 0
M  V30 1716 C 157.642 -2.29107 -0.0652523 0
M  V30 1717 C 158.642 -1.41002 -0.772995 0
M  V30 1718 O 159.832 -1.62881 -0.617692 0
M  V30 1719 C 156.964 -3.22564 -1.10296 0
M  V30 1720 H 158.157 -2.92103 0.679401 0
M  V30 1721 H 155.71 -1.51343 0.390517 0
M  V30 1722 H 156.445 -2.64416 -1.87762 0
M  V30 1723 H 156.23 -3.87491 -0.59941 0
M  V30 1724 H 157.72 -3.86167 -1.5895 0
M  V30 1725 N 158.157 -0.370918 -1.53173 0
M  V30 1726 C 159.087 0.464847 -2.28826 0
M  V30 1727 C 160.068 1.07936 -1.31468 0
M  V30 1728 O 161.253 1.0956 -1.60344 0
M  V30 1729 C 158.383 1.60196 -3.08147 0
M  V30 1730 C 157.337 1.11443 -4.13237 0
M  V30 1731 C 156.663 2.3422 -4.80672 0
M  V30 1732 C 157.963 0.195384 -5.21934 0
M  V30 1733 H 159.657 -0.166329 -2.98938 0
M  V30 1734 H 157.203 -0.0814359 -1.4377 0
M  V30 1735 H 159.156 2.19332 -3.59822 0
M  V30 1736 H 157.88 2.26045 -2.35735 0
M  V30 1737 H 156.539 0.545727 -3.62515 0
M  V30 1738 H 156.187 2.98537 -4.04827 0
M  V30 1739 H 155.887 2.02269 -5.51689 0
M  V30 1740 H 157.411 2.94032 -5.35143 0
M  V30 1741 H 158.825 0.694375 -5.69079 0
M  V30 1742 H 157.222 -0.0335027 -6.00091 0
M  V30 1743 H 158.292 -0.760961 -4.78892 0
M  V30 1744 N 159.635 1.57281 -0.100228 0
M  V30 1745 C 160.565 2.17328 0.853857 0
M  V30 1746 C 161.546 1.10804 1.2906 0
M  V30 1747 O 162.731 1.38963 1.35657 0
M  V30 1748 C 159.861 2.75772 2.11109 0
M  V30 1749 C 158.815 3.87713 1.81279 0
M  V30 1750 C 158.141 4.32882 3.13874 0
M  V30 1751 C 159.441 5.10677 1.09574 0
M  V30 1752 H 161.135 2.97305 0.353545 0
M  V30 1753 H 158.681 1.43009 0.168612 0
M  V30 1754 H 160.634 3.16433 2.78296 0
M  V30 1755 H 159.358 1.93057 2.63432 0
M  V30 1756 H 158.017 3.476 1.16489 0
M  V30 1757 H 157.665 3.47051 3.64095 0
M  V30 1758 H 157.365 5.08358 2.94696 0
M  V30 1759 H 158.889 4.7618 3.82211 0
M  V30 1760 H 160.303 5.48474 1.66879 0
M  V30 1761 H 158.7 5.91615 1.00557 0
M  V30 1762 H 159.77 4.84835 0.0793299 0
M  V30 1763 N 161.113 -0.173488 1.56642 0
M  V30 1764 C 162.063 -1.21941 1.92651 0
M  V30 1765 C 163.047 -1.39912 0.794577 0
M  V30 1766 O 164.239 -1.41919 1.05773 0
M  V30 1767 C 161.368 -2.55935 2.28806 0
M  V30 1768 C 160.454 -2.41667 3.48508 0
M  V30 1769 N 160.845 -1.9711 4.65813 0
M  V30 1770 C 159.143 -2.72499 3.53072 0
M  V30 1771 C 159.844 -1.95253 5.47952 0
M  V30 1772 N 158.82 -2.37575 4.88937 0
M  V30 1773 H 162.622 -0.866581 2.80834 0
M  V30 1774 H 160.136 -0.381776 1.57849 0
M  V30 1775 H 162.133 -3.31511 2.52797 0
M  V30 1776 H 160.793 -2.92022 1.41961 0
M  V30 1777 H 161.804 -1.67481 4.90072 0
M  V30 1778 H 158.481 -3.12639 2.767 0
M  V30 1779 H 159.871 -1.6252 6.51948 0
M  V30 1780 N 162.591 -1.51276 -0.441967 0
M  V30 1781 C 163.839 -1.63392 -1.18943 0
M  V30 1782 C 164.16 -0.350159 -1.9183 0
M  V30 1783 O 163.43 0.633784 -1.85364 0
M  V30 1784 H 162.01 -0.602164 -0.442049 0
M  V30 1785 H 164.672 -1.88186 -0.507165 0
M  V30 1786 H 163.768 -2.45934 -1.92154 0
M  V30 1787 N 164.069 0.697108 -1.41344 0
M  V30 1788 C 165.346 1.45154 -1.31109 0
M  V30 1789 C 165.726 2.11009 0.0620449 0
M  V30 1790 O 165.074 2.01571 1.07618 0
M  V30 1791 C 165.284 2.47223 -2.46337 0
M  V30 1792 C 166.632 3.1252 -2.87431 0
M  V30 1793 O 167.656 2.57547 -2.46065 0
M  V30 1794 O 166.515 4.12083 -3.58957 0
M  V30 1795 H 163.609 0.646365 -0.515889 0
M  V30 1796 H 166.155 0.727716 -1.53305 0
M  V30 1797 H 164.927 1.97204 -3.37974 0
M  V30 1798 H 164.55 3.27116 -2.2601 0
M  V30 1799 N 165.547 1.27147 0.931209 0
M  V30 1800 C 166.477 1.12081 2.04842 0
M  V30 1801 C 167.458 0.0232364 1.70084 0
M  V30 1802 O 168.643 0.197085 1.93197 0
M  V30 1803 C 165.773 0.76354 3.38803 0
M  V30 1804 C 164.727 1.81396 3.87659 0
M  V30 1805 C 164.053 1.31075 5.18385 0
M  V30 1806 C 165.353 3.21739 4.11438 0
M  V30 1807 H 167.047 2.05537 2.17703 0
M  V30 1808 H 164.593 0.989603 1.04608 0
M  V30 1809 H 166.546 0.644982 4.16435 0
M  V30 1810 H 165.27 -0.206727 3.25945 0
M  V30 1811 H 163.929 1.92136 3.12217 0
M  V30 1812 H 163.577 0.330037 5.01916 0
M  V30 1813 H 163.277 2.013 5.52044 0
M  V30 1814 H 164.801 1.20506 5.98591 0
M  V30 1815 H 166.215 3.14019 4.79651 0
M  V30 1816 H 164.612 3.89644 4.56397 0
M  V30 1817 H 165.682 3.67054 3.16859 0
M  V30 1818 N 167.025 -1.13721 1.09112 0
M  V30 1819 C 168.302 -1.81155 0.737706 0
M  V30 1820 C 168.682 -1.96253 -0.777683 0
M  V30 1821 O 168.03 -1.52807 -1.69889 0
M  V30 1822 C 168.24 -3.16392 1.47299 0
M  V30 1823 C 169.588 -3.91787 1.63671 0
M  V30 1824 O 170.612 -3.26005 1.43524 0
M  V30 1825 O 169.471 -5.0977 1.96969 0
M  V30 1826 H 166.565 -0.783518 0.26463 0
M  V30 1827 H 169.111 -1.20676 1.19312 0
M  V30 1828 H 167.883 -3.0061 2.50498 0
M  V30 1829 H 167.506 -3.8457 1.00953 0
M  V30 1830 N 168.503 -0.877838 -1.30888 0
M  V30 1831 C 169.466 -0.344265 -2.266 0
M  V30 1832 C 170.466 0.50922 -1.52524 0
M  V30 1833 O 171.656 0.317398 -1.71284 0
M  V30 1834 C 168.788 0.510198 -3.37061 0
M  V30 1835 H 169.981 -1.1893 -2.7531 0
M  V30 1836 H 167.534 -0.654088 -1.41956 0
M  V30 1837 H 168.269 1.37612 -2.93655 0
M  V30 1838 H 168.054 -0.101047 -3.9197 0
M  V30 1839 H 169.544 0.875537 -4.08319 0
M  V30 1840 N 169.982 1.44106 -0.638065 0
M  V30 1841 C 171.207 2.0685 -0.150916 0
M  V30 1842 C 171.632 1.47417 1.16833 0
M  V30 1843 O 170.99 0.578264 1.71831 0
M  V30 1844 C 171.038 3.60555 -0.05708 0
M  V30 1845 O 170.142 4.00465 0.984972 0
M  V30 1846 H 169.483 0.658151 -0.0879399 0
M  V30 1847 H 172.013 1.84865 -0.876707 0
M  V30 1848 H 172.023 4.07789 0.131232 0
M  V30 1849 H 170.698 4.03193 -1.02021 0
M  V30 1850 H 169.275 3.64849 0.770672 0
M  V30 1851 N 171.46 0.379036 1.52974 0
M  V30 1852 C 172.407 -0.461048 2.26148 0
M  V30 1853 C 173.377 -1.06637 1.27349 0
M  V30 1854 O 174.562 -1.09633 1.56157 0
M  V30 1855 C 171.702 -1.58782 3.06402 0
M  V30 1856 C 170.815 -1.00636 4.20115 0
M  V30 1857 C 169.95 -2.10334 4.87784 0
M  V30 1858 C 168.989 -1.49724 5.93506 0
M  V30 1859 N 168.126 -2.5331 6.54812 0
M  V30 1860 H 172.966 0.169429 2.97518 0
M  V30 1861 H 170.503 0.0953806 1.4679 0
M  V30 1862 H 172.461 -2.25174 3.51215 0
M  V30 1863 H 171.091 -2.18876 2.37261 0
M  V30 1864 H 170.143 -0.232332 3.7969 0
M  V30 1865 H 171.455 -0.523343 4.96047 0
M  V30 1866 H 170.609 -2.84519 5.35849 0
M  V30 1867 H 169.348 -2.61992 4.11353 0
M  V30 1868 H 168.353 -0.740598 5.44789 0
M  V30 1869 H 169.578 -0.988732 6.71864 0
M  V30 1870 H 167.524 -3.04156 5.81227 0
M  V30 1871 H 167.441 -2.09734 7.26325 0
M  V30 1872 H 168.709 -3.27155 7.07524 0
M  V30 1873 N 172.938 -1.57226 0.108567 0
M  V30 1874 C 173.848 -2.18292 -0.859401 0
M  V30 1875 C 174.864 -1.15612 -1.30038 0
M  V30 1876 O 176.04 -1.48039 -1.36552 0
M  V30 1877 C 173.105 -2.762 -2.09558 0
M  V30 1878 C 172.166 -3.93881 -1.70752 0
M  V30 1879 C 171.399 -4.49018 -2.88477 0
M  V30 1880 O 171.622 -4.03068 -4.036 0
M  V30 1881 O 170.556 -5.39852 -2.66164 0
M  V30 1882 H 174.382 -3.01441 -0.369769 0
M  V30 1883 H 171.967 -1.48945 -0.1165 0
M  V30 1884 H 173.849 -3.13156 -2.81978 0
M  V30 1885 H 172.524 -1.96089 -2.57548 0
M  V30 1886 H 171.431 -3.61713 -0.954714 0
M  V30 1887 H 172.764 -4.75396 -1.27513 0
M  V30 1888 N 174.416 0.165178 -1.56732 0
M  V30 1889 C 175.664 0.879068 -1.8198 0
M  V30 1890 C 175.985 1.82514 -0.686561 0
M  V30 1891 O 175.255 1.93694 0.293146 0
M  V30 1892 H 173.835 0.327608 -0.671329 0
M  V30 1893 H 176.497 0.163526 -1.94213 0
M  V30 1894 H 175.593 1.45228 -2.76252 0
M  V30 1895 N 175.894 1.51508 0.433938 0
M  V30 1896 C 176.841 1.73068 1.52696 0
M  V30 1897 C 177.811 0.572441 1.55924 0
M  V30 1898 O 178.996 0.807253 1.72882 0
M  V30 1899 C 176.136 1.86474 2.90381 0
M  V30 1900 C 175.249 3.14037 2.96656 0
M  V30 1901 C 174.384 3.18019 4.25485 0
M  V30 1902 C 173.423 4.39882 4.2564 0
M  V30 1903 N 172.56 4.41394 5.45999 0
M  V30 1904 H 177.4 2.66366 1.33615 0
M  V30 1905 H 174.937 1.32008 0.649018 0
M  V30 1906 H 176.895 1.92229 3.70275 0
M  V30 1907 H 175.525 0.965809 3.08013 0
M  V30 1908 H 174.577 3.17575 2.09404 0
M  V30 1909 H 175.889 4.0394 2.92633 0
M  V30 1910 H 175.043 3.22708 5.13755 0
M  V30 1911 H 173.782 2.2601 4.3217 0
M  V30 1912 H 172.787 4.35366 3.35763 0
M  V30 1913 H 174.012 5.33159 4.20617 0
M  V30 1914 H 171.958 3.52258 5.53399 0
M  V30 1915 H 171.875 5.25111 5.4387 0
M  V30 1916 H 173.143 4.50281 6.36292 0
M  V30 1917 N 177.372 -0.689602 1.41712 0
M  V30 1918 C 178.335 -1.78521 1.43746 0
M  V30 1919 C 179.335 -1.57436 0.327191 0
M  V30 1920 O 180.525 -1.64 0.587348 0
M  V30 1921 C 177.657 -3.16971 1.25467 0
M  V30 1922 H 178.85 -1.78108 2.41283 0
M  V30 1923 H 176.403 -0.89781 1.27942 0
M  V30 1924 H 177.138 -3.23019 0.287948 0
M  V30 1925 H 176.923 -3.33678 2.05917 0
M  V30 1926 H 178.413 -3.96935 1.2974 0
M  V30 1927 N 178.85 -1.27639 -0.924453 0
M  V30 1928 C 180.09 -1.15407 -1.68703 0
M  V30 1929 C 180.454 0.294581 -1.89727 0
M  V30 1930 O 181.655 0.539385 -2.63333 0
M  V30 1931 C 179.926 -1.9195 -3.0148 0
M  V30 1932 S 181.485 -1.95969 -3.92609 0
M  V30 1933 H 178.303 -0.411937 -0.579507 0
M  V30 1934 H 180.905 -1.61592 -1.10038 0
M  V30 1935 H 179.609 -2.96387 -2.83871 0
M  V30 1936 H 179.14 -1.46272 -3.65196 0
M  V30 1937 H 181.155 -1.05846 -4.84779 0
M  V30 1938 N 180.328 1.1314 -1.09713 0
M  V30 1939 C 181.574 1.84757 -0.836224 0
M  V30 1940 C 181.907 1.8347 0.636598 0
M  V30 1941 O 181.182 1.27491 1.46889 0
M  V30 1942 C 181.465 3.32782 -1.37578 0
M  V30 1943 C 181.318 3.42567 -2.91493 0
M  V30 1944 C 182.637 4.28307 -1.01198 0
M  V30 1945 H 179.756 0.67082 -0.305236 0
M  V30 1946 H 182.398 1.3278 -1.35903 0
M  V30 1947 H 180.548 3.77177 -0.931097 0
M  V30 1948 H 182.22 3.06862 -3.44432 0
M  V30 1949 H 180.463 2.83349 -3.28475 0
M  V30 1950 H 181.134 4.46674 -3.24324 0
M  V30 1951 H 183.61 3.91999 -1.39556 0
M  V30 1952 H 182.486 5.30307 -1.41653 0
M  V30 1953 H 182.747 4.42029 0.0794833 0
M  V30 1954 N 181.806 0.884767 1.30421 0
M  V30 1955 C 183.031 0.517288 2.00845 0
M  V30 1956 C 183.456 -0.886779 1.65885 0
M  V30 1957 O 182.814 -1.58768 0.875354 0
M  V30 1958 C 182.862 0.698994 3.5376 0
M  V30 1959 O 181.966 -0.255208 4.1161 0
M  V30 1960 H 181.307 0.203872 0.631927 0
M  V30 1961 H 183.837 1.19225 1.66272 0
M  V30 1962 H 183.847 0.597912 4.03595 0
M  V30 1963 H 182.522 1.72271 3.78544 0
M  V30 1964 H 181.099 -0.10784 3.72744 0
M  V30 1965 N 183.284 -1.43765 0.645699 0
M  V30 1966 C 184.194 -2.34544 -0.0512957 0
M  V30 1967 C 185.21 -1.53455 -0.82022 0
M  V30 1968 O 186.386 -1.86133 -0.769176 0
M  V30 1969 C 183.451 -3.31636 -1.01087 0
M  V30 1970 C 182.512 -4.2863 -0.239712 0
M  V30 1971 C 181.745 -5.21084 -1.15358 0
M  V30 1972 O 181.968 -5.1779 -2.39269 0
M  V30 1973 O 180.902 -5.98593 -0.630038 0
M  V30 1974 H 184.728 -2.95624 0.695718 0
M  V30 1975 H 182.313 -1.43781 0.405882 0
M  V30 1976 H 184.195 -3.9136 -1.56254 0
M  V30 1977 H 182.87 -2.73069 -1.73824 0
M  V30 1978 H 181.777 -3.72408 0.355356 0
M  V30 1979 H 183.11 -4.90157 0.447936 0
M  V30 1980 N 184.763 -0.387143 -1.52771 0
M  V30 1981 C 186.009 0.196025 -2.0185 0
M  V30 1982 C 186.342 1.46641 -1.27319 0
M  V30 1983 O 185.617 1.90889 -0.373032 0
M  V30 1984 C 185.9 0.466136 -3.5707 0
M  V30 1985 C 185.753 -0.819385 -4.42274 0
M  V30 1986 C 187.072 1.25768 -4.21747 0
M  V30 1987 H 184.191 0.0697708 -0.73369 0
M  V30 1988 H 186.833 -0.516286 -1.82851 0
M  V30 1989 H 184.983 1.07293 -3.7339 0
M  V30 1990 H 186.655 -1.4563 -4.37709 0
M  V30 1991 H 184.898 -1.43517 -4.09372 0
M  V30 1992 H 185.569 -0.585065 -5.48891 0
M  V30 1993 H 188.045 0.744167 -4.09391 0
M  V30 1994 H 186.921 1.41541 -5.30337 0
M  V30 1995 H 187.182 2.27228 -3.79236 0
M  V30 1996 N 186.241 1.57166 -0.116904 0
M  V30 1997 C 187.189 2.16457 0.851418 0
M  V30 1998 C 188.183 1.11323 1.27686 0
M  V30 1999 O 189.389 1.2963 1.24884 0
M  V30 2000 H 185.764 0.69271 0.292672 0
M  V30 2001 H 187.735 2.96605 0.32685 0
M  V30 2002 C 186.484 2.77689 2.09246 0
M  V30 2003 H 185.807 3.58285 1.77402 0
M  V30 2004 H 187.247 3.22716 2.7501 0
M  V30 2005 C 185.706 1.74667 2.88085 0
M  V30 2006 O 186.236 1.19877 3.83396 0
M  V30 2007 N 184.442 1.44656 2.52038 0
M  V30 2008 H 183.989 1.89402 1.74599 0
M  V30 2009 H 183.947 0.759675 3.05084 0
M  V30 2010 N 187.719 -0.156864 1.56817 0
M  V30 2011 C 188.944 -0.890331 1.87318 0
M  V30 2012 C 189.369 -1.74394 0.704855 0
M  V30 2013 O 188.727 -1.77972 -0.345786 0
M  V30 2014 C 188.775 -1.73102 3.16336 0
M  V30 2015 O 187.879 -2.83422 2.99576 0
M  V30 2016 H 187.22 -0.24857 0.615718 0
M  V30 2017 H 189.75 -0.150649 2.04045 0
M  V30 2018 H 189.76 -2.12803 3.48107 0
M  V30 2019 H 188.435 -1.10412 4.00976 0
M  V30 2020 H 187.012 -2.47199 2.7919 0
M  V30 2021 N 189.197 -1.51736 -0.425897 0
M  V30 2022 C 190.444 -1.6497 -1.17436 0
M  V30 2023 C 190.772 -0.371445 -1.9092 0
M  V30 2024 O 190.027 0.644963 -1.84767 0
M  V30 2025 C 190.326 -2.81103 -2.20717 0
M  V30 2026 C 189.992 -4.19954 -1.64162 0
M  V30 2027 C 188.654 -4.57725 -1.48462 0
M  V30 2028 C 191.006 -5.06552 -1.22696 0
M  V30 2029 C 188.334 -5.79789 -0.897873 0
M  V30 2030 C 190.686 -6.29205 -0.654464 0
M  V30 2031 C 189.35 -6.6574 -0.484456 0
M  V30 2032 H 188.62 -0.603668 -0.429727 0
M  V30 2033 H 191.267 -1.85798 -0.463829 0
M  V30 2034 H 189.572 -2.54542 -2.97852 0
M  V30 2035 H 191.269 -2.8854 -2.78471 0
M  V30 2036 H 187.859 -3.90181 -1.77361 0
M  V30 2037 H 192.043 -4.77968 -1.33642 0
M  V30 2038 H 187.299 -6.06733 -0.75402 0
M  V30 2039 H 191.473 -6.95643 -0.324694 0
M  V30 2040 H 189.1 -7.60195 -0.0276833 0
M  V30 2041 N 190.675 0.682077 -1.42076 0
M  V30 2042 C 191.903 1.47057 -1.4554 0
M  V30 2043 C 192.318 1.8869 -0.0645779 0
M  V30 2044 O 191.675 1.57666 0.919115 0
M  V30 2045 C 191.726 2.72442 -2.37609 0
M  V30 2046 O 191.447 2.32559 -3.71279 0
M  V30 2047 C 192.948 3.66069 -2.50017 0
M  V30 2048 H 190.168 0.452737 -0.495248 0
M  V30 2049 H 192.712 0.838695 -1.8651 0
M  V30 2050 H 190.867 3.31835 -1.9991 0
M  V30 2051 H 191.281 3.13475 -4.20516 0
M  V30 2052 H 192.755 4.50792 -3.18576 0
M  V30 2053 H 193.232 4.11476 -1.53572 0
M  V30 2054 H 193.838 3.12572 -2.88407 0
M  V30 2055 N 192.153 1.28127 0.917671 0
M  V30 2056 C 193.116 1.11744 2.00115 0
M  V30 2057 C 194.116 0.0583052 1.60694 0
M  V30 2058 O 195.306 0.303755 1.71531 0
M  V30 2059 C 192.438 0.704862 3.33533 0
M  V30 2060 H 193.631 2.07966 2.16079 0
M  V30 2061 H 191.184 1.11058 1.09981 0
M  V30 2062 H 191.919 -0.258299 3.2327 0
M  V30 2063 H 191.704 1.4699 3.63505 0
M  V30 2064 H 193.194 0.612768 4.1308 0
M  V30 2065 N 193.631 -1.12557 1.10312 0
M  V30 2066 C 194.594 -2.16434 0.75424 0
M  V30 2067 C 195.594 -1.59278 -0.220685 0
M  V30 2068 O 196.784 -1.742 0.00230591 0
M  V30 2069 C 193.916 -3.40699 0.116987 0
M  V30 2070 H 195.109 -2.48811 1.67431 0
M  V30 2071 H 192.662 -1.27542 0.903475 0
M  V30 2072 H 193.397 -3.13921 -0.813877 0
M  V30 2073 H 193.182 -3.83459 0.818613 0
M  V30 2074 H 194.672 -4.17451 -0.111387 0
M  V30 2075 N 195.109 -0.891671 -1.2995 0
M  V30 2076 C 196.356 -0.513501 -1.95881 0
M  V30 2077 C 196.684 0.938655 -1.70351 0
M  V30 2078 O 195.939 1.67936 -1.00478 0
M  V30 2079 C 196.238 -0.742868 -3.49594 0
M  V30 2080 C 195.904 -2.17114 -3.95186 0
M  V30 2081 C 194.566 -2.56169 -4.07346 0
M  V30 2082 C 196.918 -3.10162 -4.18866 0
M  V30 2083 C 194.246 -3.87469 -4.4055 0
M  V30 2084 C 196.598 -4.41001 -4.53542 0
M  V30 2085 C 195.262 -4.79941 -4.63911 0
M  V30 2086 H 194.532 -0.187903 -0.71678 0
M  V30 2087 H 197.179 -1.1288 -1.54694 0
M  V30 2088 H 195.484 -0.044586 -3.91775 0
M  V30 2089 H 197.181 -0.429767 -3.9869 0
M  V30 2090 H 193.771 -1.85801 -3.86233 0
M  V30 2091 H 197.955 -2.81206 -4.08946 0
M  V30 2092 H 193.211 -4.17371 -4.46779 0
M  V30 2093 H 197.385 -5.13133 -4.70815 0
M  V30 2094 H 195.012 -5.81719 -4.89395 0
M  V30 2095 N 196.587 1.43421 -0.653314 0
M  V30 2096 C 197.517 2.33487 0.0246656 0
M  V30 2097 C 198.498 1.49475 0.811863 0
M  V30 2098 O 199.683 1.78139 0.773322 0
M  V30 2099 C 196.813 3.32841 0.99166 0
M  V30 2100 C 195.767 4.26842 0.314568 0
M  V30 2101 C 195.093 5.16236 1.39302 0
M  V30 2102 C 196.393 5.16243 -0.793095 0
M  V30 2103 H 198.087 2.90427 -0.727481 0
M  V30 2104 H 195.633 1.39649 -0.351287 0
M  V30 2105 H 197.586 3.94747 1.47487 0
M  V30 2106 H 196.31 2.74158 1.77497 0
M  V30 2107 H 194.969 3.663 -0.148199 0
M  V30 2108 H 194.617 4.53891 2.16776 0
M  V30 2109 H 194.317 5.79948 0.945223 0
M  V30 2110 H 195.841 5.81015 1.87759 0
M  V30 2111 H 197.255 5.71958 -0.392039 0
M  V30 2112 H 195.652 5.88676 -1.16536 0
M  V30 2113 H 196.722 4.55927 -1.65103 0
M  V30 2114 N 198.065 0.39524 1.52563 0
M  V30 2115 C 199.312 -0.185044 2.01653 0
M  V30 2116 C 199.64 -1.46317 1.28146 0
M  V30 2117 O 198.895 -1.9213 0.372074 0
M  V30 2118 C 199.194 -0.493444 3.53977 0
M  V30 2119 C 198.86 0.69384 4.4553 0
M  V30 2120 C 197.522 1.01954 4.70275 0
M  V30 2121 C 199.874 1.48785 4.99512 0
M  V30 2122 C 197.202 2.14069 5.46252 0
M  V30 2123 C 199.554 2.59965 5.76716 0
M  V30 2124 C 198.218 2.93037 5.99738 0
M  V30 2125 H 197.488 -0.0677123 0.7379 0
M  V30 2126 H 200.135 0.533807 1.8391 0
M  V30 2127 H 198.44 -1.29369 3.69825 0
M  V30 2128 H 200.137 -0.955163 3.89458 0
M  V30 2129 H 196.727 0.429987 4.26438 0
M  V30 2130 H 200.911 1.24946 4.80315 0
M  V30 2131 H 196.167 2.40056 5.62302 0
M  V30 2132 H 200.341 3.21887 6.17545 0
M  V30 2133 H 197.968 3.8003 6.58393 0
M  V30 2134 N 199.544 -1.57102 0.125237 0
M  V30 2135 C 200.769 -2.0019 -0.542101 0
M  V30 2136 C 201.194 -1.00449 -1.59034 0
M  V30 2137 O 200.552 0.0229423 -1.81285 0
M  V30 2138 C 200.6 -3.42129 -1.13929 0
M  V30 2139 O 199.704 -3.45307 -2.2547 0
M  V30 2140 H 199.045 -0.650171 -0.134812 0
M  V30 2141 H 201.575 -2.03461 0.215553 0
M  V30 2142 H 201.585 -3.80471 -1.4733 0
M  V30 2143 H 200.26 -4.14237 -0.371531 0
M  V30 2144 H 198.837 -3.1879 -1.93462 0
M  V30 2145 N 201.022 0.148545 -1.56898 0
M  V30 2146 C 202.271 0.85984 -1.82454 0
M  V30 2147 C 202.584 1.82406 -0.706229 0
M  V30 2148 O 203.79 2.57938 -0.847349 0
M  V30 2149 C 202.246 1.57967 -3.2338 0
M  V30 2150 C 201.854 0.65794 -4.43142 0
M  V30 2151 C 203.598 2.27784 -3.58211 0
M  V30 2152 C 201.505 1.3793 -5.75091 0
M  V30 2153 H 200.435 0.324834 -0.68044 0
M  V30 2154 H 203.086 0.112588 -1.83154 0
M  V30 2155 H 201.468 2.37249 -3.17063 0
M  V30 2156 H 202.642 -0.0995497 -4.60692 0
M  V30 2157 H 200.957 0.0682643 -4.16344 0
M  V30 2158 H 203.554 2.8239 -4.54048 0
M  V30 2159 H 203.897 3.04204 -2.84193 0
M  V30 2160 H 204.43 1.55421 -3.66182 0
M  V30 2161 H 201.169 0.656982 -6.52199 0
M  V30 2162 H 200.689 2.10954 -5.61479 0
M  V30 2163 H 202.368 1.92063 -6.17835 0
M  V30 2164 N 202.5 1.5196 0.417844 0
M  V30 2165 C 203.41 1.77554 1.53336 0
M  V30 2166 C 204.426 0.660655 1.6097 0
M  V30 2167 O 205.602 0.945099 1.77848 0
M  V30 2168 C 202.667 1.91291 2.89152 0
M  V30 2169 C 201.728 3.15183 2.91475 0
M  V30 2170 C 200.961 3.28256 4.20813 0
M  V30 2171 O 201.184 2.46798 5.14244 0
M  V30 2172 O 200.118 4.21356 4.29817 0
M  V30 2173 H 203.944 2.7222 1.34647 0
M  V30 2174 H 201.529 1.36698 0.602828 0
M  V30 2175 H 203.411 2.02199 3.69721 0
M  V30 2176 H 202.086 0.998129 3.07927 0
M  V30 2177 H 200.993 3.09739 2.09791 0
M  V30 2178 H 202.326 4.06414 2.77648 0
M  V30 2179 N 203.978 -0.674533 1.42435 0
M  V30 2180 C 205.206 -1.46283 1.46317 0
M  V30 2181 C 205.621 -1.88653 0.0745836 0
M  V30 2182 O 204.978 -1.58151 -0.91074 0
M  V30 2183 C 205.029 -2.71178 2.3905 0
M  V30 2184 O 204.75 -2.30586 3.72507 0
M  V30 2185 C 206.251 -3.64738 2.51955 0
M  V30 2186 H 203.471 -0.450104 0.497642 0
M  V30 2187 H 206.015 -0.828792 1.86953 0
M  V30 2188 H 204.17 -3.3077 2.01667 0
M  V30 2189 H 204.584 -3.11241 4.22172 0
M  V30 2190 H 206.058 -4.49096 3.20962 0
M  V30 2191 H 206.535 -4.10656 1.55752 0
M  V30 2192 H 207.141 -3.11038 2.90061 0
M  V30 2193 N 205.456 -1.28612 -0.910864 0
M  V30 2194 C 206.388 -1.08589 -2.01844 0
M  V30 2195 C 207.401 -0.0367419 -1.62759 0
M  V30 2196 O 208.59 -0.280101 -1.76289 0
M  V30 2197 C 205.69 -0.628626 -3.33019 0
M  V30 2198 C 204.863 -1.75382 -4.00699 0
M  V30 2199 C 203.922 -1.28945 -5.10156 0
M  V30 2200 O 202.948 -1.9922 -5.33198 0
M  V30 2201 N 204.15 -0.154224 -5.80295 0
M  V30 2202 H 206.915 -2.03973 -2.19579 0
M  V30 2203 H 204.476 -1.20403 -1.08234 0
M  V30 2204 H 206.468 -0.301508 -4.03575 0
M  V30 2205 H 205.038 0.232451 -3.11735 0
M  V30 2206 H 204.258 -2.25039 -3.23653 0
M  V30 2207 H 205.546 -2.50854 -4.42662 0
M  V30 2208 H 204.944 0.43194 -5.64049 0
M  V30 2209 H 203.501 0.113599 -6.51701 0
M  V30 2210 N 206.934 1.1197 -1.10907 0
M  V30 2211 C 208.162 1.87402 -0.876824 0
M  V30 2212 C 208.577 1.79894 0.573025 0
M  V30 2213 O 207.934 1.17629 1.39534 0
M  V30 2214 C 207.985 3.36428 -1.32282 0
M  V30 2215 O 207.706 3.43765 -2.71582 0
M  V30 2216 C 209.207 4.28783 -1.12518 0
M  V30 2217 H 206.427 0.592793 -0.314384 0
M  V30 2218 H 208.971 1.41649 -1.47499 0
M  V30 2219 H 207.126 3.79706 -0.768229 0
M  V30 2220 H 207.54 4.3652 -2.90776 0
M  V30 2221 H 209.014 5.31613 -1.48633 0
M  V30 2222 H 209.491 4.39153 -0.0642394 0
M  V30 2223 H 210.097 3.91291 -1.66648 0
M  V30 2224 N 208.412 0.89855 1.29475 0
M  V30 2225 C 209.64 0.539261 1.99749 0
M  V30 2226 C 210.055 -0.875716 1.67262 0
M  V30 2227 O 209.412 -1.57786 0.917049 0
M  V30 2228 C 209.463 0.72061 3.54245 0
M  V30 2229 O 209.184 2.07989 3.8558 0
M  V30 2230 C 210.685 0.366118 4.41786 0
M  V30 2231 H 207.905 0.207047 0.638258 0
M  V30 2232 H 210.449 1.20758 1.65039 0
M  V30 2233 H 208.604 0.0994862 3.87272 0
M  V30 2234 H 209.018 2.10841 4.80257 0
M  V30 2235 H 210.492 0.543848 5.49314 0
M  V30 2236 H 210.969 -0.696763 4.33638 0
M  V30 2237 H 211.575 0.964135 4.14228 0
M  V30 2238 N 209.89 -1.43072 0.660911 0
M  V30 2239 C 211.139 -2.00942 0.174735 0
M  V30 2240 C 211.452 -1.52797 -1.22117 0
M  V30 2241 O 212.658 -2.02991 -1.80297 0
M  V30 2242 C 211.114 -3.58948 0.261559 0
M  V30 2243 C 210.722 -4.16085 1.66064 0
M  V30 2244 C 212.466 -4.24173 -0.166617 0
M  V30 2245 C 210.373 -5.6641 1.70098 0
M  V30 2246 H 209.303 -0.751483 0.0615631 0
M  V30 2247 H 211.954 -1.63955 0.824069 0
M  V30 2248 H 210.336 -3.93372 -0.455421 0
M  V30 2249 H 211.51 -3.93147 2.40359 0
M  V30 2250 H 209.825 -3.6326 2.03546 0
M  V30 2251 H 212.422 -5.34471 -0.156433 0
M  V30 2252 H 212.765 -3.98647 -1.19943 0
M  V30 2253 H 213.298 -3.94659 0.498875 0
M  V30 2254 H 210.037 -5.96715 2.71315 0
M  V30 2255 H 209.557 -5.91382 1.00139 0
M  V30 2256 H 211.236 -6.30585 1.44816 0
M  V30 2257 N 211.368 -0.403325 -1.52352 0
M  V30 2258 C 212.616 0.174003 -2.0135 0
M  V30 2259 C 212.937 1.46139 -1.29106 0
M  V30 2260 O 212.207 1.91448 -0.415253 0
M  V30 2261 H 210.787 0.0672911 -0.743963 0
M  V30 2262 H 213.449 -0.538235 -1.87321 0
M  V30 2263 H 212.545 0.374254 -3.09848 0
M  V30 2264 N 212.846 1.57033 -0.133567 0
M  V30 2265 C 214.076 1.99754 0.527429 0
M  V30 2266 C 214.484 1.01245 1.59832 0
M  V30 2267 O 213.827 -0.000645496 1.837 0
M  V30 2268 C 213.889 3.38903 1.19939 0
M  V30 2269 C 213.553 4.56174 0.274709 0
M  V30 2270 C 214.55 5.17563 -0.492398 0
M  V30 2271 C 212.235 5.01972 0.18153 0
M  V30 2272 C 214.229 6.2315 -1.34027 0
M  V30 2273 C 211.916 6.07416 -0.669958 0
M  V30 2274 C 212.914 6.67874 -1.42947 0
M  V30 2275 O 212.602 7.71279 -2.2668 0
M  V30 2276 H 212.334 0.660702 0.142999 0
M  V30 2277 H 214.888 2.04207 -0.221099 0
M  V30 2278 H 213.118 3.31248 1.99528 0
M  V30 2279 H 214.807 3.65818 1.75875 0
M  V30 2280 H 215.573 4.83087 -0.430367 0
M  V30 2281 H 211.452 4.54652 0.762422 0
M  V30 2282 H 214.996 6.70268 -1.93357 0
M  V30 2283 H 210.893 6.41321 -0.73333 0
M  V30 2284 H 211.661 7.88441 -2.1978 0
M  V30 2285 N 214.325 -0.140222 1.56975 0
M  V30 2286 C 215.573 -0.850005 1.83356 0
M  V30 2287 C 215.894 -1.81399 0.71551 0
M  V30 2288 O 215.164 -1.94136 -0.262294 0
M  V30 2289 H 213.744 -0.316886 0.676456 0
M  V30 2290 H 216.406 -0.132608 1.94448 0
M  V30 2291 H 215.502 -1.40814 2.78528 0
M  V30 2292 N 215.803 -1.52179 -0.40978 0
M  V30 2293 C 217.05 -1.66206 -1.15679 0
M  V30 2294 C 217.378 -0.391674 -1.90516 0
M  V30 2295 O 216.633 0.62533 -1.8544 0
M  V30 2296 C 216.932 -2.83428 -2.17723 0
M  V30 2297 C 216.598 -4.21672 -1.59699 0
M  V30 2298 C 215.26 -4.59274 -1.43599 0
M  V30 2299 C 217.612 -5.07825 -1.17317 0
M  V30 2300 C 214.94 -5.80709 -0.836328 0
M  V30 2301 C 217.292 -6.29864 -0.587691 0
M  V30 2302 C 215.956 -6.66216 -0.413818 0
M  V30 2303 H 215.226 -0.608192 -0.423301 0
M  V30 2304 H 217.873 -1.86279 -0.444097 0
M  V30 2305 H 216.178 -2.57687 -2.95135 0
M  V30 2306 H 217.875 -2.91477 -2.75394 0
M  V30 2307 H 214.465 -3.9204 -1.73213 0
M  V30 2308 H 218.649 -4.79359 -1.28565 0
M  V30 2309 H 213.905 -6.07498 -0.689626 0
M  V30 2310 H 218.079 -6.95948 -0.250894 0
M  V30 2311 H 215.706 -7.60182 0.0529471 0
M  V30 2312 N 217.281 0.66697 -1.42791 0
M  V30 2313 C 218.697 0.981027 -1.25889 0
M  V30 2314 C 218.897 2.00793 -0.168695 0
M  V30 2315 O 217.953 2.48321 0.45747 0
M  V30 2316 C 219.266 1.47838 -2.61848 0
M  V30 2317 C 220.814 1.59575 -2.69267 0
M  V30 2318 C 221.289 2.12704 -4.05612 0
M  V30 2319 N 222.78 2.20026 -4.07606 0
M  V30 2320 C 223.515 2.62227 -5.09926 0
M  V30 2321 N 223.011 3.03824 -6.22626 0
M  V30 2322 N 224.804 2.62045 -4.97281 0
M  V30 2323 H 216.955 -0.0127891 -2.12396 0
M  V30 2324 H 219.218 0.0568258 -0.946295 0
M  V30 2325 H 218.924 0.798299 -3.4252 0
M  V30 2326 H 218.798 2.45579 -2.86305 0
M  V30 2327 H 221.185 2.26687 -1.88936 0
M  V30 2328 H 221.266 0.60302 -2.48591 0
M  V30 2329 H 220.91 1.46198 -4.86404 0
M  V30 2330 H 220.84 3.12782 -4.23645 0
M  V30 2331 H 223.331 1.90708 -3.2625 0
M  V30 2332 H 223.644 3.34734 -6.96544 0
M  V30 2333 H 221.989 3.01662 -6.26119 0
M  V30 2334 H 225.18 2.28916 -4.08308 0
M  V30 2335 H 225.353 2.94613 -5.77154 0
M  V30 2336 N 218.759 1.29093 0.90403 0
M  V30 2337 C 219.999 1.18076 1.66845 0
M  V30 2338 C 220.363 -0.26436 1.90171 0
M  V30 2339 O 221.564 -0.497423 2.64157 0
M  V30 2340 C 219.835 1.96722 2.98388 0
M  V30 2341 S 221.394 2.0219 3.89441 0
M  V30 2342 H 218.212 0.421104 0.572881 0
M  V30 2343 H 220.814 1.63322 1.07453 0
M  V30 2344 H 219.518 3.00866 2.7912 0
M  V30 2345 H 219.049 1.52064 3.62823 0
M  V30 2346 H 221.064 1.13545 4.83034 0
M  V30 2347 N 220.237 -1.11381 1.11499 0
M  V30 2348 C 221.483 -1.83403 0.865512 0
M  V30 2349 C 221.816 -1.84459 -0.607329 0
M  V30 2350 O 221.091 -1.29811 -1.44842 0
M  V30 2351 C 221.374 -3.30552 1.42855 0
M  V30 2352 C 221.227 -3.37886 2.96906 0
M  V30 2353 C 222.546 -4.26643 1.08 0
M  V30 2354 H 219.665 -0.665879 0.31587 0
M  V30 2355 H 222.307 -1.30601 1.37998 0
M  V30 2356 H 220.457 -3.75648 0.990985 0
M  V30 2357 H 222.129 -3.01343 3.49271 0
M  V30 2358 H 220.372 -2.78088 3.32941 0
M  V30 2359 H 221.043 -4.41458 3.31389 0
M  V30 2360 H 223.519 -3.89729 1.45775 0
M  V30 2361 H 222.395 -5.27986 1.50072 0
M  V30 2362 H 222.656 -4.42099 -0.00915037 0
M  V30 2363 N 221.715 -0.905404 -1.28997 0
M  V30 2364 C 222.943 -0.549846 -1.9946 0
M  V30 2365 C 223.358 0.866834 -1.67724 0
M  V30 2366 O 222.715 1.57298 -0.925404 0
M  V30 2367 C 222.766 -0.739387 -3.53858 0
M  V30 2368 O 222.487 -2.10031 -3.84472 0
M  V30 2369 C 223.988 -0.389541 -4.41585 0
M  V30 2370 H 221.208 -0.210429 -0.637151 0
M  V30 2371 H 223.752 -1.21632 -1.64396 0
M  V30 2372 H 221.907 -0.120023 -3.87214 0
M  V30 2373 H 222.321 -2.13385 -4.79132 0
M  V30 2374 H 223.795 -0.572972 -5.49018 0
M  V30 2375 H 224.272 0.673756 -4.34001 0
M  V30 2376 H 224.878 -0.986089 -4.1371 0
M  V30 2377 N 223.193 1.4272 -0.668489 0
M  V30 2378 C 224.47 1.95248 -0.117373 0
M  V30 2379 C 224.85 1.60919 1.36632 0
M  V30 2380 O 224.198 0.902095 2.09939 0
M  V30 2381 C 224.408 3.46927 -0.379806 0
M  V30 2382 C 225.756 4.23588 -0.292923 0
M  V30 2383 O 226.78 3.5482 -0.313204 0
M  V30 2384 O 225.639 5.46017 -0.229697 0
M  V30 2385 H 222.733 0.827 0.00079152 0
M  V30 2386 H 225.279 1.52581 -0.742783 0
M  V30 2387 H 224.051 3.65096 -1.40786 0
M  V30 2388 H 223.674 3.96627 0.277923 0
M  V30 2389 N 224.671 0.411399 1.52136 0
M  V30 2390 C 225.581 -0.419774 2.30814 0
M  V30 2391 C 226.597 -1.0515 1.38634 0
M  V30 2392 O 227.773 -1.05252 1.71709 0
M  V30 2393 C 224.838 -1.52019 3.11594 0
M  V30 2394 C 223.899 -0.91129 4.19516 0
M  V30 2395 C 223.132 -1.95927 4.96436 0
M  V30 2396 O 223.355 -3.17775 4.73683 0
M  V30 2397 O 222.289 -1.56423 5.81219 0
M  V30 2398 H 226.115 0.221805 3.02889 0
M  V30 2399 H 223.7 0.174547 1.48377 0
M  V30 2400 H 225.582 -2.15898 3.61892 0
M  V30 2401 H 224.257 -2.14633 2.42311 0
M  V30 2402 H 223.164 -0.235157 3.7336 0
M  V30 2403 H 224.497 -0.32904 4.91099 0
M  V30 2404 N 226.149 -1.5696 0.141893 0
M  V30 2405 C 227.389 -1.9785 -0.513304 0
M  V30 2406 C 227.753 -1.02467 -1.62371 0
M  V30 2407 O 228.954 -1.32382 -2.33941 0
M  V30 2408 C 227.225 -3.42797 -1.01118 0
M  V30 2409 S 228.784 -4.05709 -1.67169 0
M  V30 2410 H 225.602 -0.691318 -0.166135 0
M  V30 2411 H 228.204 -1.94114 0.232398 0
M  V30 2412 H 226.908 -4.0995 -0.192179 0
M  V30 2413 H 226.439 -3.50235 -1.79162 0
M  V30 2414 H 228.454 -3.98342 -2.95868 0
M  V30 2415 N 227.627 0.131896 -1.57047 0
M  V30 2416 C 229.038 0.690407 -1.73465 0
M  V30 2417 C 229.389 1.8094 -0.758629 0
M  V30 2418 O 228.514 2.16282 0.0713813 0
M  V30 2419 C 229.109 1.25916 -3.14532 0
M  V30 2420 C 227.668 1.76409 -3.32501 0
M  V30 2421 C 226.815 0.658579 -2.69366 0
M  V30 2422 H 229.766 -0.0939144 -1.58422 0
M  V30 2423 H 229.787 2.12892 -3.15369 0
M  V30 2424 H 229.299 0.444515 -3.85546 0
M  V30 2425 H 227.4 2.60391 -2.66509 0
M  V30 2426 H 227.513 1.88241 -4.4057 0
M  V30 2427 H 225.877 1.08899 -2.30246 0
M  V30 2428 H 226.66 -0.14487 -3.42994 0
M  V30 2429 N 229.106 1.52395 0.401703 0
M  V30 2430 C 230.355 1.66044 1.14509 0
M  V30 2431 C 230.668 0.400216 1.91462 0
M  V30 2432 O 231.874 0.416632 2.68284 0
M  V30 2433 C 230.33 2.93388 2.0845 0
M  V30 2434 C 229.938 4.26545 1.36978 0
M  V30 2435 C 231.682 3.16402 2.83001 0
M  V30 2436 C 229.589 5.45007 2.29611 0
M  V30 2437 H 228.519 0.618562 0.431158 0
M  V30 2438 H 231.17 1.78886 0.40892 0
M  V30 2439 H 229.552 2.74263 2.8565 0
M  V30 2440 H 230.726 4.56179 0.650916 0
M  V30 2441 H 229.041 4.09692 0.74438 0
M  V30 2442 H 231.638 4.02085 3.52465 0
M  V30 2443 H 231.981 2.30943 3.46368 0
M  V30 2444 H 232.514 3.36034 2.12898 0
M  V30 2445 H 229.253 6.32835 1.70879 0
M  V30 2446 H 228.773 5.19702 2.9945 0
M  V30 2447 H 230.452 5.7838 2.89974 0
M  V30 2448 N 230.584 -0.659388 1.43143 0
M  V30 2449 C 231.547 -1.75432 1.47501 0
M  V30 2450 C 232.547 -1.56707 0.360512 0
M  V30 2451 O 233.737 -1.62717 0.622002 0
M  V30 2452 C 230.869 -3.14239 1.32162 0
M  V30 2453 H 232.062 -1.7295 2.45006 0
M  V30 2454 H 229.615 -0.870469 1.29817 0
M  V30 2455 H 230.35 -3.22336 0.356401 0
M  V30 2456 H 230.135 -3.29235 2.12948 0
M  V30 2457 H 231.625 -3.94094 1.3813 0
M  V30 2458 N 232.062 -1.29571 -0.897171 0
M  V30 2459 C 233.308 -1.17863 -1.65034 0
M  V30 2460 C 233.641 0.268729 -1.92332 0
M  V30 2461 O 232.916 1.19378 -1.53555 0
M  V30 2462 C 233.199 -1.995 -2.99786 0
M  V30 2463 C 233.052 -3.5239 -2.79538 0
M  V30 2464 C 234.371 -1.82335 -4.00552 0
M  V30 2465 H 231.49 -0.429528 -0.598895 0
M  V30 2466 H 234.132 -1.59072 -1.03905 0
M  V30 2467 H 232.282 -1.64485 -3.51962 0
M  V30 2468 H 233.954 -3.97401 -2.34244 0
M  V30 2469 H 232.197 -3.77187 -2.14273 0
M  V30 2470 H 232.868 -4.04787 -3.75302 0
M  V30 2471 H 235.344 -2.12924 -3.57495 0
M  V30 2472 H 234.22 -2.41801 -4.92771 0
M  V30 2473 H 234.481 -0.779209 -4.35179 0
M  V30 2474 N 233.54 1.10788 -1.12088 0
M  V30 2475 C 234.787 1.82671 -0.873931 0
M  V30 2476 C 235.115 1.85004 0.600311 0
M  V30 2477 O 234.37 1.30365 1.45957 0
M  V30 2478 C 234.669 3.29294 -1.38926 0
M  V30 2479 C 234.335 3.47113 -2.87791 0
M  V30 2480 C 232.997 3.51684 -3.28439 0
M  V30 2481 C 235.349 3.52808 -3.83635 0
M  V30 2482 C 232.677 3.59513 -4.63646 0
M  V30 2483 C 235.029 3.62169 -5.18668 0
M  V30 2484 C 233.693 3.65003 -5.58864 0
M  V30 2485 H 232.963 0.668441 -0.319794 0
M  V30 2486 H 235.61 1.30613 -1.40045 0
M  V30 2487 H 233.915 3.83894 -0.783122 0
M  V30 2488 H 235.612 3.83416 -1.17443 0
M  V30 2489 H 232.202 3.4423 -2.5535 0
M  V30 2490 H 236.386 3.4853 -3.53328 0
M  V30 2491 H 231.642 3.59987 -4.94185 0
M  V30 2492 H 235.816 3.6552 -5.92763 0
M  V30 2493 H 233.443 3.70822 -6.63623 0
M  V30 2494 N 235.018 0.912232 1.28515 0
M  V30 2495 C 235.951 0.343928 2.25593 0
M  V30 2496 C 236.929 -0.550994 1.5298 0
M  V30 2497 O 238.113 -0.494991 1.81885 0
M  V30 2498 C 235.24 -0.508525 3.34861 0
M  V30 2499 C 234.286 0.320808 4.25292 0
M  V30 2500 S 235.119 1.72658 5.06902 0
M  V30 2501 C 236.275 0.881394 6.19663 0
M  V30 2502 H 236.508 1.16674 2.73449 0
M  V30 2503 H 234.041 0.713384 1.36931 0
M  V30 2504 H 235.999 -0.994539 3.9827 0
M  V30 2505 H 234.66 -1.30571 2.85675 0
M  V30 2506 H 233.853 -0.330941 5.02912 0
M  V30 2507 H 233.455 0.74042 3.66598 0
M  V30 2508 H 235.747 0.110359 6.7741 0
M  V30 2509 H 236.69 1.63009 6.89082 0
M  V30 2510 H 237.098 0.430239 5.62858 0
M  V30 2511 N 236.496 -1.42363 0.676048 0
M  V30 2512 C 237.742 -2.0182 0.199125 0
M  V30 2513 C 238.075 -1.53339 -1.19168 0
M  V30 2514 O 237.35 -0.736124 -1.80032 0
M  V30 2515 C 237.633 -3.59331 0.235144 0
M  V30 2516 C 237.486 -4.17989 1.66149 0
M  V30 2517 C 238.805 -4.3813 -0.41595 0
M  V30 2518 H 235.924 -0.733293 0.0738311 0
M  V30 2519 H 238.566 -1.69368 0.86107 0
M  V30 2520 H 236.716 -3.87109 -0.328487 0
M  V30 2521 H 238.388 -4.0116 2.27747 0
M  V30 2522 H 236.631 -3.7377 2.20178 0
M  V30 2523 H 237.302 -5.27126 1.63837 0
M  V30 2524 H 239.778 -4.16051 0.0638529 0
M  V30 2525 H 238.654 -5.47717 -0.360115 0
M  V30 2526 H 238.915 -4.16101 -1.49373 0
M  V30 2527 N 237.974 -0.419461 -1.51915 0
M  V30 2528 C 239.22 0.153166 -2.02221 0
M  V30 2529 C 239.553 1.43907 -1.30401 0
M  V30 2530 O 238.828 1.90055 -0.413438 0
M  V30 2531 C 239.111 0.390291 -3.57979 0
M  V30 2532 C 238.964 -0.913014 -4.40436 0
M  V30 2533 C 240.283 1.16794 -4.2432 0
M  V30 2534 H 237.402 0.0541924 -0.735005 0
M  V30 2535 H 240.044 -0.554955 -1.81715 0
M  V30 2536 H 238.194 0.993491 -3.75582 0
M  V30 2537 H 239.866 -1.54882 -4.34522 0
M  V30 2538 H 238.109 -1.52168 -4.06236 0
M  V30 2539 H 238.78 -0.701361 -5.47526 0
M  V30 2540 H 241.256 0.657161 -4.10878 0
M  V30 2541 H 240.132 1.3026 -5.3322 0
M  V30 2542 H 240.393 2.19132 -3.83971 0
M  V30 2543 N 239.452 1.56882 -0.150215 0
M  V30 2544 C 240.699 1.96228 0.500093 0
M  V30 2545 C 241.027 1.03522 1.64661 0
M  V30 2546 O 240.282 0.0650683 1.95592 0
M  V30 2547 C 240.581 3.41801 1.04437 0
M  V30 2548 C 240.247 4.50897 0.0159671 0
M  V30 2549 C 238.909 4.8046 -0.266731 0
M  V30 2550 C 241.261 5.16703 -0.683192 0
M  V30 2551 C 238.589 5.73135 -1.25434 0
M  V30 2552 C 240.941 6.10441 -1.65964 0
M  V30 2553 C 239.605 6.38382 -1.95 0
M  V30 2554 H 238.875 0.718048 0.182997 0
M  V30 2555 H 241.522 1.90019 -0.237724 0
M  V30 2556 H 239.827 3.44857 1.85959 0
M  V30 2557 H 241.524 3.69573 1.55618 0
M  V30 2558 H 238.114 4.27891 0.246485 0
M  V30 2559 H 242.298 4.93993 -0.477983 0
M  V30 2560 H 237.554 5.93074 -1.48571 0
M  V30 2561 H 241.728 6.60507 -2.20689 0
M  V30 2562 H 239.355 7.09996 -2.71679 0
M  V30 2563 N 240.93 -0.123565 1.57115 0
M  V30 2564 C 241.862 -1.17739 1.96648 0
M  V30 2565 C 242.875 -1.37906 0.865201 0
M  V30 2566 O 244.064 -1.37062 1.14351 0
M  V30 2567 C 241.164 -2.53821 2.24562 0
M  V30 2568 C 240.337 -2.54317 3.55867 0
M  V30 2569 C 239.396 -3.72112 3.72047 0
M  V30 2570 O 238.422 -3.55907 4.44206 0
M  V30 2571 N 239.624 -4.90498 3.10471 0
M  V30 2572 H 242.389 -0.841147 2.87654 0
M  V30 2573 H 239.95 -0.31289 1.58848 0
M  V30 2574 H 241.942 -3.31175 2.32606 0
M  V30 2575 H 240.512 -2.79645 1.39705 0
M  V30 2576 H 239.732 -1.62711 3.59053 0
M  V30 2577 H 241.02 -2.51701 4.42181 0
M  V30 2578 H 240.418 -5.06567 2.51806 0
M  V30 2579 H 238.975 -5.65544 3.24043 0
M  V30 2580 N 242.408 -1.52605 -0.393616 0
M  V30 2581 C 243.633 -1.71592 -1.16495 0
M  V30 2582 C 244.058 -0.43133 -1.83088 0
M  V30 2583 O 243.416 0.612523 -1.7064 0
M  V30 2584 C 243.464 -2.86318 -2.19213 0
M  V30 2585 O 242.568 -2.52969 -3.257 0
M  V30 2586 H 241.909 -0.570734 -0.33935 0
M  V30 2587 H 244.439 -1.99377 -0.459324 0
M  V30 2588 H 244.449 -3.1168 -2.63286 0
M  V30 2589 H 243.124 -3.79511 -1.7013 0
M  V30 2590 H 241.701 -2.38332 -2.86797 0
M  V30 2591 N 243.887 0.651787 -1.4349 0
M  V30 2592 C 245.136 1.40754 -1.44469 0
M  V30 2593 C 245.449 1.95463 -0.0731845 0
M  V30 2594 O 246.655 2.71471 0.0395721 0
M  V30 2595 C 245.111 2.54735 -2.5424 0
M  V30 2596 C 244.719 2.06628 -3.97504 0
M  V30 2597 C 246.463 3.32092 -2.64414 0
M  V30 2598 C 244.37 3.17829 -4.98737 0
M  V30 2599 H 243.3 0.528862 -0.53742 0
M  V30 2600 H 245.951 0.703365 -1.69485 0
M  V30 2601 H 244.333 3.2763 -2.22428 0
M  V30 2602 H 245.507 1.40734 -4.38783 0
M  V30 2603 H 243.822 1.42146 -3.91387 0
M  V30 2604 H 246.419 4.14952 -3.37223 0
M  V30 2605 H 246.762 3.80217 -1.69532 0
M  V30 2606 H 247.295 2.66279 -2.95534 0
M  V30 2607 H 244.034 2.74671 -5.95177 0
M  V30 2608 H 243.554 3.82429 -4.62069 0
M  V30 2609 H 245.233 3.82937 -5.21505 0
M  V30 2610 N 245.365 1.30045 0.890287 0
M  V30 2611 C 246.611 1.18737 1.64406 0
M  V30 2612 C 246.944 -0.258525 1.92472 0
M  V30 2613 O 246.219 -1.18562 1.54186 0
M  V30 2614 C 246.502 2.01087 2.98724 0
M  V30 2615 C 246.355 3.53867 2.77665 0
M  V30 2616 C 247.674 1.84457 3.9958 0
M  V30 2617 H 244.793 0.432698 0.596608 0
M  V30 2618 H 247.435 1.5962 1.0306 0
M  V30 2619 H 245.585 1.66349 3.51084 0
M  V30 2620 H 247.257 3.98637 2.32133 0
M  V30 2621 H 245.5 3.78318 2.12269 0
M  V30 2622 H 246.171 4.06772 3.7315 0
M  V30 2623 H 248.647 2.14817 3.56361 0
M  V30 2624 H 247.523 2.44411 4.91482 0
M  V30 2625 H 247.784 0.802276 4.3476 0
M  V30 2626 N 246.843 -1.10192 1.12674 0
M  V30 2627 C 248.091 -1.81845 0.881861 0
M  V30 2628 C 248.412 -1.85737 -0.593867 0
M  V30 2629 O 247.682 -1.33724 -1.4316 0
M  V30 2630 H 246.262 -0.673432 0.323261 0
M  V30 2631 H 248.924 -1.33316 1.42172 0
M  V30 2632 H 248.02 -2.85288 1.2656 0
M  V30 2633 N 248.321 -0.919034 -1.28029 0
M  V30 2634 C 249.561 -0.562107 -1.96519 0
M  V30 2635 C 249.925 0.878784 -1.70708 0
M  V30 2636 O 251.126 1.34355 -2.32813 0
M  V30 2637 C 249.397 -0.868953 -3.46676 0
M  V30 2638 S 250.956 -0.619237 -4.34409 0
M  V30 2639 H 247.774 -0.2078 -0.679956 0
M  V30 2640 H 250.376 -1.18562 -1.55446 0
M  V30 2641 H 249.08 -1.91547 -3.62957 0
M  V30 2642 H 248.611 -0.234301 -3.92702 0
M  V30 2643 H 250.626 0.526995 -4.93394 0
M  V30 2644 N 249.799 1.42003 -0.683588 0
M  V30 2645 C 251.048 2.00638 -0.206681 0
M  V30 2646 C 251.361 1.5472 1.19671 0
M  V30 2647 O 252.567 2.05833 1.77045 0
M  V30 2648 C 251.023 3.58487 -0.318632 0
M  V30 2649 C 250.631 4.1339 -1.72663 0
M  V30 2650 C 252.375 4.24384 0.0991141 0
M  V30 2651 C 250.282 5.63633 -1.79087 0
M  V30 2652 H 249.212 0.750408 -0.0735107 0
M  V30 2653 H 251.863 1.62624 -0.850048 0
M  V30 2654 H 250.245 3.94047 0.392781 0
M  V30 2655 H 251.419 3.89273 -2.46583 0
M  V30 2656 H 249.734 3.59976 -2.09299 0
M  V30 2657 H 252.331 5.34652 0.0713833 0
M  V30 2658 H 252.674 4.00505 1.13586 0
M  V30 2659 H 253.207 3.93816 -0.561599 0
M  V30 2660 H 249.946 5.92323 -2.80774 0
M  V30 2661 H 249.466 5.89714 -1.09535 0
M  V30 2662 H 251.145 6.28201 -1.5483 0
M  V30 2663 N 251.277 0.427512 1.51691 0
M  V30 2664 C 252.526 -0.143679 2.01188 0
M  V30 2665 C 252.839 -1.44642 1.31674 0
M  V30 2666 O 254.045 -2.09997 1.72086 0
M  V30 2667 C 252.501 -0.306602 3.58592 0
M  V30 2668 C 252.109 0.985125 4.37035 0
M  V30 2669 C 253.853 -0.832091 4.16265 0
M  V30 2670 C 251.76 0.788382 5.86122 0
M  V30 2671 H 250.69 -0.0574701 0.751807 0
M  V30 2672 H 253.341 0.555772 1.74881 0
M  V30 2673 H 251.723 -1.06882 3.81303 0
M  V30 2674 H 252.897 1.75492 4.26074 0
M  V30 2675 H 251.212 1.4384 3.90767 0
M  V30 2676 H 253.809 -0.995617 5.25349 0
M  V30 2677 H 254.152 -1.81186 3.74803 0
M  V30 2678 H 254.685 -0.128444 3.97593 0
M  V30 2679 H 251.424 1.74025 6.31978 0
M  V30 2680 H 250.944 0.0582143 5.99772 0
M  V30 2681 H 252.623 0.437722 6.45518 0
M  V30 2682 N 252.755 -1.56801 0.158532 0
M  V30 2683 C 254.032 -1.88131 -0.535357 0
M  V30 2684 C 254.412 -1.06638 -1.82186 0
M  V30 2685 O 253.76 -0.156533 -2.27963 0
M  V30 2686 C 253.97 -3.39949 -0.789653 0
M  V30 2687 C 255.318 -4.09416 -1.12533 0
M  V30 2688 O 256.342 -3.45194 -0.878622 0
M  V30 2689 O 255.201 -5.22855 -1.59014 0
M  V30 2690 H 252.295 -0.780143 -0.27442 0
M  V30 2691 H 254.841 -1.68564 0.19601 0
M  V30 2692 H 253.613 -3.91115 0.120353 0
M  V30 2693 H 253.236 -3.65084 -1.57479 0
M  V30 2694 N 254.233 0.115231 -1.57178 0
M  V30 2695 C 255.196 1.12526 -1.99676 0
M  V30 2696 C 256.196 1.34095 -0.88742 0
M  V30 2697 O 257.386 1.30548 -1.15337 0
M  V30 2698 C 254.518 2.4789 -2.34015 0
M  V30 2699 H 255.711 0.759912 -2.90113 0
M  V30 2700 H 253.264 0.359648 -1.52106 0
M  V30 2701 H 253.999 2.89339 -1.4647 0
M  V30 2702 H 253.784 2.33588 -3.14927 0
M  V30 2703 H 255.274 3.20575 -2.67622 0
M  V30 2704 N 255.711 1.52812 0.385517 0
M  V30 2705 C 256.958 1.68026 1.1302 0
M  V30 2706 C 257.286 0.421934 1.89868 0
M  V30 2707 O 256.541 -0.595749 1.86412 0
M  V30 2708 C 256.84 2.86856 2.13187 0
M  V30 2709 C 256.506 4.24159 1.5297 0
M  V30 2710 C 255.168 4.61501 1.36274 0
M  V30 2711 C 257.52 5.09627 1.09223 0
M  V30 2712 C 254.848 5.81966 0.743837 0
M  V30 2713 C 257.2 6.30719 0.487411 0
M  V30 2714 C 255.864 6.6679 0.307777 0
M  V30 2715 H 255.134 0.614849 0.413571 0
M  V30 2716 H 257.781 1.86962 0.414405 0
M  V30 2717 H 256.086 2.6235 2.90998 0
M  V30 2718 H 257.783 2.95821 2.70722 0
M  V30 2719 H 254.373 3.94746 1.66954 0
M  V30 2720 H 258.557 4.81343 1.20922 0
M  V30 2721 H 253.813 6.08519 0.592891 0
M  V30 2722 H 257.987 6.96259 0.140143 0
M  V30 2723 H 255.614 7.60001 -0.173879 0
M  V30 2724 N 257.189 -0.644168 1.43834 0
M  V30 2725 C 258.438 -1.39985 1.45214 0
M  V30 2726 C 258.751 -1.95421 0.0835494 0
M  V30 2727 O 259.957 -2.71488 -0.0251748 0
M  V30 2728 C 258.413 -2.53384 2.55587 0
M  V30 2729 C 258.021 -2.04517 3.98594 0
M  V30 2730 C 259.765 -3.30685 2.66172 0
M  V30 2731 C 257.672 -3.1518 5.00416 0
M  V30 2732 H 256.602 -0.526005 0.540218 0
M  V30 2733 H 259.253 -0.694367 1.69855 0
M  V30 2734 H 257.635 -3.26446 2.24163 0
M  V30 2735 H 258.809 -1.38405 4.39523 0
M  V30 2736 H 257.124 -1.40068 3.92135 0
M  V30 2737 H 259.721 -4.13158 3.39418 0
M  V30 2738 H 260.064 -3.79312 1.71546 0
M  V30 2739 H 260.597 -2.64708 2.96942 0
M  V30 2740 H 257.336 -2.71511 5.96625 0
M  V30 2741 H 256.856 -3.79974 4.64091 0
M  V30 2742 H 258.535 -3.80166 5.23529 0
M  V30 2743 N 258.668 -1.30515 -0.883378 0
M  V30 2744 C 259.917 -1.18795 -1.63005 0
M  V30 2745 C 260.23 0.255923 -1.93919 0
M  V30 2746 O 261.436 0.494654 -2.66956 0
M  V30 2747 C 259.892 -2.07878 -2.93794 0
M  V30 2748 C 259.5 -3.57184 -2.70414 0
M  V30 2749 C 261.244 -2.04924 -3.71761 0
M  V30 2750 C 259.151 -4.38317 -3.97029 0
M  V30 2751 H 258.081 -0.441031 -0.611562 0
M  V30 2752 H 260.732 -1.55275 -0.977854 0
M  V30 2753 H 259.114 -1.64283 -3.60315 0
M  V30 2754 H 260.288 -4.08937 -2.12384 0
M  V30 2755 H 258.603 -3.61976 -2.0582 0
M  V30 2756 H 261.2 -2.62792 -4.65665 0
M  V30 2757 H 261.543 -1.0331 -4.03277 0
M  V30 2758 H 262.076 -2.46649 -3.12104 0
M  V30 2759 H 258.815 -5.40632 -3.70671 0
M  V30 2760 H 258.335 -3.91326 -4.54559 0
M  V30 2761 H 260.014 -4.49834 -4.65036 0
M  V30 2762 N 260.146 1.09593 -1.13257 0
M  V30 2763 C 261.394 1.81375 -0.891492 0
M  V30 2764 C 261.715 1.86049 0.584009 0
M  V30 2765 O 260.985 1.34481 1.42449 0
M  V30 2766 H 259.565 0.671708 -0.326828 0
M  V30 2767 H 262.227 1.3256 -1.42877 0
M  V30 2768 H 261.323 2.84612 -1.28071 0
M  V30 2769 N 261.624 0.925811 1.2754 0
M  V30 2770 C 262.587 0.428129 2.25166 0
M  V30 2771 C 263.587 -0.452261 1.54309 0
M  V30 2772 O 264.777 -0.253608 1.72344 0
M  V30 2773 C 261.909 -0.384749 3.38722 0
M  V30 2774 H 263.102 1.29066 2.70706 0
M  V30 2775 H 260.655 0.706323 1.3943 0
M  V30 2776 H 261.39 -1.26618 2.98561 0
M  V30 2777 H 261.175 0.246454 3.91325 0
M  V30 2778 H 262.665 -0.723389 4.11287 0
M  V30 2779 N 263.102 -1.41638 0.69111 0
M  V30 2780 C 264.348 -2.01598 0.220519 0
M  V30 2781 C 264.681 -1.54594 -1.17535 0
M  V30 2782 O 263.956 -0.755177 -1.79241 0
M  V30 2783 C 264.239 -3.59062 0.273243 0
M  V30 2784 C 264.092 -4.16203 1.70573 0
M  V30 2785 C 265.411 -4.38546 -0.369457 0
M  V30 2786 H 262.53 -0.732468 0.0816045 0
M  V30 2787 H 265.172 -1.68445 0.878986 0
M  V30 2788 H 263.322 -3.87435 -0.287411 0
M  V30 2789 H 264.994 -3.98722 2.31989 0
M  V30 2790 H 263.237 -3.71414 2.2413 0
M  V30 2791 H 263.908 -5.25358 1.69419 0
M  V30 2792 H 266.384 -4.1596 0.107977 0
M  V30 2793 H 265.26 -5.48069 -0.302002 0
M  V30 2794 H 265.521 -4.17662 -1.44951 0
M  V30 2795 N 264.58 -0.43555 -1.51462 0
M  V30 2796 C 265.513 0.421989 -2.24264 0
M  V30 2797 C 266.491 1.02619 -1.26127 0
M  V30 2798 O 267.675 1.069 -1.55257 0
M  V30 2799 C 264.802 1.588 -2.99166 0
M  V30 2800 C 263.848 1.10465 -4.11946 0
M  V30 2801 S 264.681 0.048146 -5.35478 0
M  V30 2802 C 265.837 1.21887 -6.13917 0
M  V30 2803 H 266.07 -0.196102 -2.96653 0
M  V30 2804 H 263.603 -0.220054 -1.52824 0
M  V30 2805 H 265.561 2.25647 -3.42919 0
M  V30 2806 H 264.222 2.1775 -2.26371 0
M  V30 2807 H 263.415 1.97654 -4.63626 0
M  V30 2808 H 263.017 0.51445 -3.70445 0
M  V30 2809 H 265.309 2.13756 -6.42895 0
M  V30 2810 H 266.252 0.742076 -7.04201 0
M  V30 2811 H 266.66 1.45663 -5.45383 0
M  V30 2812 N 266.058 1.56714 -0.166846 0
M  V30 2813 C 267.021 2.16539 0.751232 0
M  V30 2814 C 268.021 1.11228 1.16125 0
M  V30 2815 O 269.211 1.36765 1.07894 0
M  V30 2816 C 266.343 2.74462 2.02196 0
M  V30 2817 H 267.536 2.99013 0.230499 0
M  V30 2818 H 265.089 1.56081 0.0826982 0
M  V30 2819 H 265.824 1.95709 2.58589 0
M  V30 2820 H 265.609 3.51527 1.73698 0
M  V30 2821 H 267.099 3.20489 2.67725 0
M  V30 2822 N 267.536 -0.106894 1.57237 0
M  V30 2823 C 268.483 -1.13049 2.01217 0
M  V30 2824 C 269.453 -1.40471 0.886403 0
M  V30 2825 O 270.638 -1.52133 1.15153 0
M  V30 2826 C 267.778 -2.4487 2.43172 0
M  V30 2827 C 266.891 -2.24281 3.69218 0
M  V30 2828 C 266.026 -3.49417 4.00101 0
M  V30 2829 C 265.065 -3.24038 5.19294 0
M  V30 2830 N 264.202 -4.41409 5.45988 0
M  V30 2831 H 269.042 -0.748456 2.88448 0
M  V30 2832 H 266.579 -0.358054 1.42676 0
M  V30 2833 H 268.537 -3.21786 2.65537 0
M  V30 2834 H 267.167 -2.80944 1.58967 0
M  V30 2835 H 266.219 -1.38224 3.54398 0
M  V30 2836 H 267.531 -2.01512 4.56283 0
M  V30 2837 H 266.685 -4.34746 4.2318 0
M  V30 2838 H 265.424 -3.75229 3.11535 0
M  V30 2839 H 264.429 -2.37102 4.96047 0
M  V30 2840 H 265.654 -2.99584 6.09447 0
M  V30 2841 H 263.6 -4.67319 4.60379 0
M  V30 2842 H 263.517 -4.21788 6.274 0
M  V30 2843 H 264.785 -5.27836 5.73593 0
M  V30 2844 N 269.014 -1.53014 -0.377408 0
M  V30 2845 C 269.947 -1.73382 -1.48371 0
M  V30 2846 C 270.925 -0.581879 -1.51832 0
M  V30 2847 O 272.109 -0.81307 -1.70063 0
M  V30 2848 C 269.236 -1.80192 -2.8679 0
M  V30 2849 C 268.282 -3.02056 -3.01105 0
M  V30 2850 S 269.115 -4.61811 -2.71093 0
M  V30 2851 C 270.271 -4.71453 -4.11683 0
M  V30 2852 H 270.504 -2.66946 -1.30872 0
M  V30 2853 H 268.037 -1.43453 -0.571012 0
M  V30 2854 H 269.995 -1.84802 -3.6655 0
M  V30 2855 H 268.656 -0.877008 -3.01608 0
M  V30 2856 H 267.849 -3.03396 -4.02451 0
M  V30 2857 H 267.451 -2.95498 -2.29253 0
M  V30 2858 H 269.743 -4.50781 -5.0577 0
M  V30 2859 H 270.686 -5.73487 -4.15353 0
M  V30 2860 H 271.094 -4.00189 -3.98132 0
M  V30 2861 N 270.492 0.636531 -1.44174 0
M  V30 2862 C 271.455 1.73063 -1.50273 0
M  V30 2863 C 272.455 1.56113 -0.385397 0
M  V30 2864 O 273.645 1.61707 -0.64781 0
M  V30 2865 C 270.777 3.12096 -1.37145 0
M  V30 2866 H 271.97 1.69031 -2.47727 0
M  V30 2867 H 269.523 0.849706 -1.31186 0
M  V30 2868 H 270.258 3.21728 -0.407636 0
M  V30 2869 H 270.043 3.25805 -2.18159 0
M  V30 2870 H 271.533 3.91846 -1.44382 0
M  V30 2871 N 271.97 1.30982 0.876444 0
M  V30 2872 C 272.917 1.18085 1.98304 0
M  V30 2873 C 273.887 0.0682263 1.6596 0
M  V30 2874 O 275.072 0.239937 1.89285 0
M  V30 2875 C 272.212 0.887475 3.33493 0
M  V30 2876 C 271.325 2.08281 3.78475 0
M  V30 2877 C 270.46 1.72678 5.0235 0
M  V30 2878 C 269.499 2.88657 5.39762 0
M  V30 2879 N 268.636 2.53292 6.54819 0
M  V30 2880 H 273.476 2.1275 2.08666 0
M  V30 2881 H 271.013 1.05839 1.02159 0
M  V30 2882 H 272.971 0.697961 4.1132 0
M  V30 2883 H 271.601 -0.022315 3.22792 0
M  V30 2884 H 270.653 2.3833 2.96484 0
M  V30 2885 H 271.965 2.95108 4.02135 0
M  V30 2886 H 271.119 1.50151 5.87826 0
M  V30 2887 H 269.858 0.830327 4.8058 0
M  V30 2888 H 268.863 3.1184 4.52809 0
M  V30 2889 H 270.088 3.79002 5.63502 0
M  V30 2890 H 268.034 1.66163 6.34607 0
M  V30 2891 H 267.951 3.3365 6.7839 0
M  V30 2892 H 269.219 2.34143 7.43503 0
M  V30 2893 N 273.449 -1.08991 1.13837 0
M  V30 2894 C 274.86 -1.62746 0.914917 0
M  V30 2895 C 275.211 -1.88403 -0.547594 0
M  V30 2896 O 274.336 -1.63706 -1.41525 0
M  V30 2897 C 274.931 -2.95662 1.65437 0
M  V30 2898 C 273.49 -3.46225 1.47666 0
M  V30 2899 C 272.637 -2.20562 1.6807 0
M  V30 2900 H 275.588 -0.922946 1.29102 0
M  V30 2901 H 275.609 -3.63825 1.11407 0
M  V30 2902 H 275.121 -2.76956 2.71877 0
M  V30 2903 H 273.222 -3.70046 0.435478 0
M  V30 2904 H 273.335 -4.23368 2.24268 0
M  V30 2905 H 271.699 -2.29439 1.10589 0
M  V30 2906 H 272.482 -2.0437 2.7584 0
M  V30 2907 N 274.927 -0.932562 -1.27047 0
M  V30 2908 C 275.874 -0.434072 -2.26681 0
M  V30 2909 C 276.844 0.501639 -1.58344 0
M  V30 2910 O 278.029 0.419734 -1.86126 0
M  V30 2911 C 275.169 0.30261 -3.43771 0
M  V30 2912 C 274.282 -0.667774 -4.26808 0
M  V30 2913 C 273.417 0.0892393 -5.31125 0
M  V30 2914 C 272.456 -0.873532 -6.05835 0
M  V30 2915 N 271.593 -0.148832 -7.01942 0
M  V30 2916 H 276.433 -1.28868 -2.68695 0
M  V30 2917 H 273.97 -0.646713 -1.32121 0
M  V30 2918 H 275.928 0.746092 -4.10474 0
M  V30 2919 H 274.558 1.12142 -3.02695 0
M  V30 2920 H 273.61 -1.22978 -3.59973 0
M  V30 2921 H 274.922 -1.40337 -4.78651 0
M  V30 2922 H 274.076 0.592409 -6.03801 0
M  V30 2923 H 272.815 0.85777 -4.80097 0
M  V30 2924 H 271.82 -1.38791 -5.31994 0
M  V30 2925 H 273.045 -1.64193 -6.58952 0
M  V30 2926 H 270.991 0.601365 -6.53238 0
M  V30 2927 H 270.908 -0.82391 -7.51497 0
M  V30 2928 H 272.176 0.333527 -7.78786 0
M  V30 2929 N 276.405 1.4127 -0.698611 0
M  V30 2930 C 277.352 2.30773 -0.0352094 0
M  V30 2931 C 278.322 1.47273 0.768111 0
M  V30 2932 O 279.507 1.76053 0.735524 0
M  V30 2933 C 276.647 3.33346 0.893 0
M  V30 2934 C 275.76 4.31924 0.0809695 0
M  V30 2935 C 274.895 5.21566 1.0071 0
M  V30 2936 C 273.934 6.11811 0.188155 0
M  V30 2937 N 273.071 6.93926 1.06825 0
M  V30 2938 H 277.911 2.86943 -0.804207 0
M  V30 2939 H 275.448 1.4132 -0.408294 0
M  V30 2940 H 277.406 3.91368 1.44523 0
M  V30 2941 H 276.036 2.78719 1.62836 0
M  V30 2942 H 275.088 3.75825 -0.588224 0
M  V30 2943 H 276.4 4.95716 -0.553801 0
M  V30 2944 H 275.554 5.84437 1.62845 0
M  V30 2945 H 274.293 4.58008 1.67572 0
M  V30 2946 H 273.298 5.47986 -0.446254 0
M  V30 2947 H 274.523 6.77425 -0.476716 0
M  V30 2948 H 272.469 6.32973 1.72283 0
M  V30 2949 H 272.386 7.54416 0.489123 0
M  V30 2950 H 273.654 7.61262 1.67632 0
M  V30 2951 N 277.883 0.443576 1.51229 0
M  V30 2952 C 279.299 0.0962001 1.5931 0
M  V30 2953 C 279.499 -1.39501 1.45402 0
M  V30 2954 O 278.555 -2.16557 1.29843 0
M  V30 2955 C 279.868 0.621875 2.94199 0
M  V30 2956 C 281.416 0.582865 3.07525 0
M  V30 2957 C 281.891 1.08562 4.44948 0
M  V30 2958 N 283.382 1.04387 4.51284 0
M  V30 2959 C 284.117 1.40368 5.55954 0
M  V30 2960 N 283.613 1.83664 6.68011 0
M  V30 2961 N 285.406 1.32145 5.46346 0
M  V30 2962 H 277.557 1.41376 1.58514 0
M  V30 2963 H 279.82 0.582965 0.747567 0
M  V30 2964 H 279.526 1.66546 3.09767 0
M  V30 2965 H 279.4 0.0502125 3.77167 0
M  V30 2966 H 281.787 -0.451749 2.91622 0
M  V30 2967 H 281.868 1.191 2.26382 0
M  V30 2968 H 281.512 2.11873 4.61598 0
M  V30 2969 H 281.442 0.453956 5.2464 0
M  V30 2970 H 283.933 0.725986 3.70861 0
M  V30 2971 H 284.246 2.0934 7.43906 0
M  V30 2972 H 282.591 1.87596 6.69203 0
M  V30 2973 H 285.782 0.981808 4.57688 0
M  V30 2974 H 285.955 1.60514 6.27805 0
M  V30 2975 N 279.361 -1.56624 0.175154 0
M  V30 2976 C 280.309 -2.19468 -0.770495 0
M  V30 2977 C 281.303 -1.15985 -1.23466 0
M  V30 2978 O 282.509 -1.34176 -1.19987 0
M  V30 2979 H 278.884 -0.703095 -0.266761 0
M  V30 2980 H 280.855 -2.97613 -0.216542 0
M  V30 2981 C 279.604 -2.85264 -1.98796 0
M  V30 2982 H 278.927 -3.64623 -1.63983 0
M  V30 2983 H 280.367 -3.327 -2.62843 0
M  V30 2984 C 278.826 -1.85239 -2.81404 0
M  V30 2985 O 279.356 -1.34024 -3.78682 0
M  V30 2986 N 277.562 -1.53911 -2.46495 0
M  V30 2987 H 277.109 -1.95751 -1.67449 0
M  V30 2988 H 277.067 -0.872382 -3.02054 0
M  V30 2989 N 280.839 0.0985539 -1.57292 0
M  V30 2990 C 281.749 1.13824 -2.05137 0
M  V30 2991 C 282.765 1.44076 -0.975604 0
M  V30 2992 O 283.941 1.54786 -1.28853 0
M  V30 2993 C 281.006 2.43969 -2.46333 0
M  V30 2994 C 280.067 2.2093 -3.68087 0
M  V30 2995 C 279.3 3.44869 -4.0731 0
M  V30 2996 O 279.523 4.52972 -3.46659 0
M  V30 2997 O 278.457 3.34661 -5.00285 0
M  V30 2998 H 282.283 0.761881 -2.93988 0
M  V30 2999 H 279.868 0.310818 -1.46131 0
M  V30 3000 H 281.75 3.20609 -2.73473 0
M  V30 3001 H 280.425 2.81038 -1.60621 0
M  V30 3002 H 279.332 1.42081 -3.46069 0
M  V30 3003 H 280.665 1.88755 -4.54568 0
M  V30 3004 N 282.317 1.53212 0.369288 0
M  V30 3005 C 283.545 1.73119 1.13303 0
M  V30 3006 C 283.96 0.458455 1.83149 0
M  V30 3007 O 283.317 -0.568403 1.73423 0
M  V30 3008 C 283.368 2.89413 2.16616 0
M  V30 3009 O 283.089 4.11761 1.49614 0
M  V30 3010 C 284.59 3.21161 3.05566 0
M  V30 3011 H 281.81 0.579107 0.338934 0
M  V30 3012 H 284.354 1.99942 0.429338 0
M  V30 3013 H 282.509 2.64994 2.82589 0
M  V30 3014 H 282.923 4.76858 2.18419 0
M  V30 3015 H 284.397 4.05949 3.74045 0
M  V30 3016 H 284.874 2.36369 3.70171 0
M  V30 3017 H 285.48 3.47492 2.45213 0
M  V30 3018 N 283.795 -0.628877 1.44509 0
M  V30 3019 C 284.725 -1.75187 1.54376 0
M  V30 3020 C 285.706 -1.65411 0.396618 0
M  V30 3021 O 286.891 -1.84137 0.617031 0
M  V30 3022 C 284.021 -3.13725 1.48976 0
M  V30 3023 C 282.975 -3.38291 2.62189 0
M  V30 3024 C 282.301 -4.76883 2.41841 0
M  V30 3025 C 283.601 -3.30632 4.04326 0
M  V30 3026 H 285.295 -1.67187 2.48373 0
M  V30 3027 H 282.841 -0.802909 1.19538 0
M  V30 3028 H 284.794 -3.92064 1.54478 0
M  V30 3029 H 283.518 -3.22515 0.514961 0
M  V30 3030 H 282.177 -2.62334 2.56079 0
M  V30 3031 H 281.825 -4.82378 1.42548 0
M  V30 3032 H 281.525 -4.94278 3.17747 0
M  V30 3033 H 283.049 -5.57449 2.49165 0
M  V30 3034 H 284.463 -3.98873 4.11793 0
M  V30 3035 H 282.86 -3.59561 4.80454 0
M  V30 3036 H 283.93 -2.28404 4.27738 0
M  V30 3037 N 285.273 -1.31445 -0.869486 0
M  V30 3038 C 286.519 -1.21337 -1.62496 0
M  V30 3039 C 286.852 0.227872 -1.92858 0
M  V30 3040 O 286.127 1.16094 -1.56053 0
M  V30 3041 C 286.41 -2.05814 -2.95487 0
M  V30 3042 C 286.263 -3.5824 -2.72 0
M  V30 3043 C 287.582 -1.9079 -3.96594 0
M  V30 3044 H 284.701 -0.442135 -0.589649 0
M  V30 3045 H 287.343 -1.6124 -1.00507 0
M  V30 3046 H 285.493 -1.71913 -3.48394 0
M  V30 3047 H 287.165 -4.0228 -2.25762 0
M  V30 3048 H 285.408 -3.81647 -2.06224 0
M  V30 3049 H 286.079 -4.12657 -3.66631 0
M  V30 3050 H 288.555 -2.20459 -3.52898 0
M  V30 3051 H 287.431 -2.52199 -4.87531 0
M  V30 3052 H 287.692 -0.871341 -4.33428 0
M  V30 3053 N 286.751 1.08385 -1.14413 0
M  V30 3054 C 287.998 1.80776 -0.912482 0
M  V30 3055 C 288.326 1.86236 0.560934 0
M  V30 3056 O 287.581 1.33431 1.43159 0
M  V30 3057 C 287.88 3.26273 -1.45879 0
M  V30 3058 C 287.546 3.4093 -2.95089 0
M  V30 3059 C 286.208 3.44638 -3.35824 0
M  V30 3060 C 288.56 3.44591 -3.91033 0
M  V30 3061 C 285.888 3.49597 -4.71167 0
M  V30 3062 C 288.24 3.51086 -5.26233 0
M  V30 3063 C 286.904 3.53067 -5.6648 0
M  V30 3064 H 286.174 0.661507 -0.333901 0
M  V30 3065 H 288.821 1.27613 -1.42784 0
M  V30 3066 H 287.126 3.82146 -0.864376 0
M  V30 3067 H 288.823 3.80839 -1.2555 0
M  V30 3068 H 285.413 3.38736 -2.62594 0
M  V30 3069 H 289.597 3.40957 -3.60641 0
M  V30 3070 H 284.853 3.49424 -5.0171 0
M  V30 3071 H 289.027 3.52864 -6.00383 0
M  V30 3072 H 286.654 3.56662 -6.71339 0
M  V30 3073 N 288.23 0.939286 1.26551 0
M  V30 3074 C 289.455 0.602008 1.98471 0
M  V30 3075 C 289.88 -0.815624 1.69497 0
M  V30 3076 O 289.238 -1.54912 0.941905 0
M  V30 3077 C 289.286 0.848407 3.50477 0
M  V30 3078 O 288.39 -0.0804009 4.12322 0
M  V30 3079 H 287.731 0.23049 0.622712 0
M  V30 3080 H 290.261 1.2617 1.61066 0
M  V30 3081 H 290.271 0.768553 4.00696 0
M  V30 3082 H 288.946 1.88171 3.70897 0
M  V30 3083 H 287.523 0.0503508 3.72866 0
M  V30 3084 N 289.708 -1.40897 0.706093 0
M  V30 3085 C 290.658 -2.27987 0.0240746 0
M  V30 3086 C 291.642 -1.42759 -0.742204 0
M  V30 3087 O 292.834 -1.65936 -0.615966 0
M  V30 3088 C 289.963 -3.31186 -0.903907 0
M  V30 3089 C 289.049 -4.2389 -0.133318 0
M  V30 3090 N 289.44 -4.98113 0.878444 0
M  V30 3091 C 287.738 -4.44485 -0.367269 0
M  V30 3092 C 288.439 -5.6604 1.34064 0
M  V30 3093 N 287.415 -5.39522 0.664565 0
M  V30 3094 H 291.217 -2.82812 0.799658 0
M  V30 3095 H 288.731 -1.53235 0.537845 0
M  V30 3096 H 290.728 -3.92413 -1.40775 0
M  V30 3097 H 289.388 -2.77922 -1.67897 0
M  V30 3098 H 290.399 -5.02364 1.25901 0
M  V30 3099 H 287.076 -4.02213 -1.1194 0
M  V30 3100 H 288.466 -6.35524 2.1808 0
M  V30 3101 N 291.186 -0.45159 -1.50991 0
M  V30 3102 C 292.134 0.366864 -2.29689 0
M  V30 3103 C 293.128 1.00809 -1.36139 0
M  V30 3104 O 294.334 0.941427 -1.53418 0
M  V30 3105 H 290.709 0.137133 -0.739391 0
M  V30 3106 H 292.68 -0.317538 -2.96706 0
M  V30 3107 C 291.429 1.44751 -3.16137 0
M  V30 3108 H 290.752 0.963473 -3.88017 0
M  V30 3109 H 292.192 1.99315 -3.74232 0
M  V30 3110 C 290.651 2.43869 -2.32442 0
M  V30 3111 O 291.181 3.4872 -1.99392 0
M  V30 3112 N 289.387 2.15105 -1.95392 0
M  V30 3113 H 288.934 1.29866 -2.22469 0
M  V30 3114 H 288.892 2.81661 -1.39693 0
M  V30 3115 N 292.664 1.56529 -0.183458 0
M  V30 3116 C 293.627 2.17324 0.728223 0
M  V30 3117 C 294.627 1.12453 1.14939 0
M  V30 3118 O 295.817 1.37902 1.06437 0
M  V30 3119 C 292.949 2.76591 1.99274 0
M  V30 3120 H 294.142 2.99241 0.198772 0
M  V30 3121 H 291.695 1.5616 0.0661391 0
M  V30 3122 H 292.43 1.98441 2.56499 0
M  V30 3123 H 292.215 3.5335 1.69959 0
M  V30 3124 H 293.705 3.23311 2.6431 0
M  V30 3125 N 294.142 -0.090211 1.57342 0
M  V30 3126 C 295.388 -0.793982 1.86611 0
M  V30 3127 C 295.721 -1.78142 0.773252 0
M  V30 3128 O 294.996 -1.93271 -0.218304 0
M  V30 3129 C 295.279 -1.51839 3.26523 0
M  V30 3130 C 295.132 -0.548609 4.46442 0
M  V30 3131 C 296.451 -2.46779 3.64401 0
M  V30 3132 H 293.57 -0.287186 0.678744 0
M  V30 3133 H 296.212 -0.0575076 1.89913 0
M  V30 3134 H 294.362 -2.14617 3.23839 0
M  V30 3135 H 296.034 0.0725513 4.61243 0
M  V30 3136 H 294.277 0.137614 4.33582 0
M  V30 3137 H 294.948 -1.09271 5.41076 0
M  V30 3138 H 297.424 -1.94089 3.68061 0
M  V30 3139 H 296.3 -2.94479 4.63221 0
M  V30 3140 H 296.561 -3.30758 2.93346 0
M  V30 3141 N 295.62 -1.53406 -0.361157 0
M  V30 3142 C 296.869 -1.69022 -1.10066 0
M  V30 3143 C 297.182 -0.450838 -1.90333 0
M  V30 3144 O 298.388 -0.487617 -2.67085 0
M  V30 3145 C 296.844 -2.98812 -2.00598 0
M  V30 3146 C 296.452 -4.30027 -1.25621 0
M  V30 3147 C 298.196 -3.23795 -2.74513 0
M  V30 3148 C 296.103 -5.50903 -2.1508 0
M  V30 3149 H 295.033 -0.629776 -0.414606 0
M  V30 3150 H 297.684 -1.79907 -0.361348 0
M  V30 3151 H 296.066 -2.8174 -2.78278 0
M  V30 3152 H 297.24 -4.57745 -0.529739 0
M  V30 3153 H 295.555 -4.11522 -0.635496 0
M  V30 3154 H 298.152 -4.11289 -3.41681 0
M  V30 3155 H 298.495 -2.40045 -3.40123 0
M  V30 3156 H 299.028 -3.41561 -2.03914 0
M  V30 3157 H 295.767 -6.37143 -1.54041 0
M  V30 3158 H 295.287 -5.27459 -2.85565 0
M  V30 3159 H 296.966 -5.85865 -2.74538 0
M  V30 3160 N 297.098 0.621204 -1.44841 0
M  V30 3161 C 298.061 1.71459 -1.521 0
M  V30 3162 C 299.061 1.55696 -0.401933 0
M  V30 3163 O 300.251 1.61011 -0.664925 0
M  V30 3164 C 297.383 3.10624 -1.40447 0
M  V30 3165 H 298.576 1.66394 -2.49506 0
M  V30 3166 H 296.129 0.835745 -1.3208 0
M  V30 3167 H 296.864 3.21277 -0.441737 0
M  V30 3168 H 296.649 3.23473 -2.21602 0
M  V30 3169 H 298.139 3.90293 -1.4853 0
M  V30 3170 N 298.576 1.31904 0.862503 0
M  V30 3171 C 299.509 1.14514 1.97388 0
M  V30 3172 C 300.487 0.0466493 1.62533 0
M  V30 3173 O 301.671 0.204484 1.87388 0
M  V30 3174 C 298.798 0.751347 3.30261 0
M  V30 3175 C 297.844 1.85395 3.84098 0
M  V30 3176 S 298.677 3.46081 4.08642 0
M  V30 3177 C 299.833 3.08655 5.44502 0
M  V30 3178 H 300.066 2.08597 2.11836 0
M  V30 3179 H 297.599 1.16475 1.01356 0
M  V30 3180 H 299.557 0.530901 4.07052 0
M  V30 3181 H 298.218 -0.170493 3.13637 0
M  V30 3182 H 297.411 1.53122 4.80177 0
M  V30 3183 H 297.013 2.02984 3.14123 0
M  V30 3184 H 299.305 2.58012 6.26447 0
M  V30 3185 H 300.248 4.03726 5.81731 0
M  V30 3186 H 300.656 2.45891 5.08132 0
M  V30 3187 N 300.054 -1.07777 1.14986 0
M  V30 3188 C 301.47 -1.32373 0.891596 0
M  V30 3189 C 301.67 -1.9609 -0.463788 0
M  V30 3190 O 300.726 -2.21801 -1.20667 0
M  V30 3191 C 302.039 -2.21905 2.02925 0
M  V30 3192 C 303.587 -2.35367 2.06329 0
M  V30 3193 C 304.062 -3.28245 3.19405 0
M  V30 3194 N 305.553 -3.35824 3.19024 0
M  V30 3195 C 306.288 -4.07739 4.03158 0
M  V30 3196 N 305.784 -4.82306 4.97346 0
M  V30 3197 N 307.577 -4.03635 3.91197 0
M  V30 3198 H 299.728 -0.648039 2.02273 0
M  V30 3199 H 301.991 -0.348149 0.881757 0
M  V30 3200 H 301.697 -1.82342 3.0074 0
M  V30 3201 H 301.571 -3.22407 1.95789 0
M  V30 3202 H 303.958 -2.74186 1.09116 0
M  V30 3203 H 304.039 -1.34585 2.17533 0
M  V30 3204 H 303.683 -2.90146 4.16867 0
M  V30 3205 H 303.613 -4.28971 3.05437 0
M  V30 3206 H 306.104 -2.8267 2.50811 0
M  V30 3207 H 306.417 -5.34661 5.57994 0
M  V30 3208 H 304.762 -4.81337 5.01338 0
M  V30 3209 H 307.953 -3.44491 3.16928 0
M  V30 3210 H 308.126 -4.59417 4.5699 0
M  V30 3211 N 301.532 -0.945985 -1.26051 0
M  V30 3212 C 302.809 -0.513816 -1.88731 0
M  V30 3213 C 303.189 1.00872 -1.8544 0
M  V30 3214 O 302.537 1.8708 -1.312 0
M  V30 3215 C 302.747 -1.08062 -3.31849 0
M  V30 3216 C 304.095 -1.1522 -4.08668 0
M  V30 3217 O 305.119 -1.03155 -3.40936 0
M  V30 3218 O 303.978 -1.34044 -5.29806 0
M  V30 3219 H 301.072 -0.168193 -0.809716 0
M  V30 3220 H 303.618 -1.03886 -1.34186 0
M  V30 3221 H 302.39 -2.1241 -3.2863 0
M  V30 3222 H 302.013 -0.538307 -3.93939 0
M  V30 3223 N 303.011 1.40521 -0.713556 0
M  V30 3224 C 304.259 2.00527 -0.251692 0
M  V30 3225 C 304.58 1.56857 1.15848 0
M  V30 3226 O 303.85 0.807127 1.785 0
M  V30 3227 H 302.43 0.741551 -0.0900646 0
M  V30 3228 H 305.092 1.71887 -0.918733 0
M  V30 3229 H 304.188 3.10813 -0.283192 0
M  V30 3230 N 304.489 0.459591 1.5075 0
M  V30 3231 C 305.436 -0.340524 2.28274 0
M  V30 3232 C 306.406 -0.997371 1.32822 0
M  V30 3233 O 307.591 -1.01202 1.61749 0
M  V30 3234 C 304.731 -1.42317 3.14388 0
M  V30 3235 C 303.844 -0.782251 4.24859 0
M  V30 3236 C 302.979 -1.84182 4.98247 0
M  V30 3237 C 302.018 -1.18053 6.00608 0
M  V30 3238 N 301.155 -2.18244 6.67319 0
M  V30 3239 H 305.995 0.326899 2.96202 0
M  V30 3240 H 303.532 0.173057 1.46078 0
M  V30 3241 H 305.49 -2.06241 3.62658 0
M  V30 3242 H 304.12 -2.05992 2.4853 0
M  V30 3243 H 303.172 -0.0307404 3.80388 0
M  V30 3244 H 304.484 -0.259663 4.98124 0
M  V30 3245 H 303.638 -2.55714 5.50177 0
M  V30 3246 H 302.377 -2.39819 4.24662 0
M  V30 3247 H 301.382 -0.450776 5.47949 0
M  V30 3248 H 302.607 -0.631202 6.7616 0
M  V30 3249 H 300.553 -2.72919 5.96533 0
M  V30 3250 H 300.47 -1.70938 7.36421 0
M  V30 3251 H 301.738 -2.89191 7.23871 0
M  V30 3252 N 305.967 -1.56429 0.191757 0
M  V30 3253 C 306.897 -2.21937 -0.725696 0
M  V30 3254 C 307.878 -1.1814 -1.2238 0
M  V30 3255 O 309.063 -1.46636 -1.27325 0
M  V30 3256 C 306.193 -2.87611 -1.94672 0
M  V30 3257 C 305.147 -3.97623 -1.58366 0
M  V30 3258 C 304.473 -4.50446 -2.88102 0
M  V30 3259 C 305.773 -5.16197 -0.796133 0
M  V30 3260 H 307.467 -2.98861 -0.179606 0
M  V30 3261 H 305.013 -1.43749 -0.0849464 0
M  V30 3262 H 306.966 -3.3212 -2.59373 0
M  V30 3263 H 305.69 -2.08087 -2.51728 0
M  V30 3264 H 304.349 -3.53801 -0.960247 0
M  V30 3265 H 303.997 -3.67688 -3.43241 0
M  V30 3266 H 303.697 -5.24675 -2.64556 0
M  V30 3267 H 305.221 -4.97654 -3.53798 0
M  V30 3268 H 306.635 -5.57271 -1.34618 0
M  V30 3269 H 305.032 -5.96471 -0.658928 0
M  V30 3270 H 306.102 -4.84473 0.203478 0
M  V30 3271 N 307.445 0.0818655 -1.57387 0
M  V30 3272 C 308.685 0.788375 -1.88584 0
M  V30 3273 C 309.049 1.75248 -0.784351 0
M  V30 3274 O 310.25 2.50334 -0.979105 0
M  V30 3275 C 308.521 1.48654 -3.25018 0
M  V30 3276 S 310.08 2.22951 -3.7794 0
M  V30 3277 H 306.898 0.262383 -0.660815 0
M  V30 3278 H 309.5 0.0448995 -1.95448 0
M  V30 3279 H 308.204 0.770919 -4.03094 0
M  V30 3280 H 307.735 2.26965 -3.21326 0
M  V30 3281 H 309.75 3.49309 -3.52417 0
M  V30 3282 N 308.923 1.53595 0.353017 0
M  V30 3283 C 309.853 1.83902 1.43883 0
M  V30 3284 C 310.834 0.693421 1.55324 0
M  V30 3285 O 312.019 0.944452 1.69687 0
M  V30 3286 C 309.149 2.04016 2.8106 0
M  V30 3287 C 308.103 3.19814 2.84434 0
M  V30 3288 C 307.429 3.25244 4.24406 0
M  V30 3289 C 308.729 4.58133 2.50822 0
M  V30 3290 H 310.423 2.74835 1.1877 0
M  V30 3291 H 307.969 1.32242 0.569917 0
M  V30 3292 H 309.922 2.238 3.57059 0
M  V30 3293 H 308.646 1.09804 3.07588 0
M  V30 3294 H 307.305 2.9987 2.10887 0
M  V30 3295 H 306.953 2.28646 4.48029 0
M  V30 3296 H 306.653 4.03054 4.27576 0
M  V30 3297 H 308.177 3.47228 5.0226 0
M  V30 3298 H 309.591 4.77995 3.16534 0
M  V30 3299 H 307.988 5.38276 2.6529 0
M  V30 3300 H 309.058 4.62387 1.46034 0
M  V30 3301 N 310.401 -0.613514 1.45168 0
M  V30 3302 C 311.334 -1.73809 1.47871 0
M  V30 3303 C 312.312 -1.59097 0.33568 0
M  V30 3304 O 313.496 -1.8074 0.535299 0
M  V30 3305 C 310.623 -3.11574 1.32813 0
M  V30 3306 C 309.669 -3.4489 2.50905 0
M  V30 3307 S 310.502 -3.40393 4.13392 0
M  V30 3308 C 311.658 -4.80749 4.00789 0
M  V30 3309 H 311.891 -1.71252 2.43023 0
M  V30 3310 H 309.424 -0.789658 1.32679 0
M  V30 3311 H 311.382 -3.91065 1.24812 0
M  V30 3312 H 310.043 -3.11652 0.391418 0
M  V30 3313 H 309.236 -4.45183 2.36279 0
M  V30 3314 H 308.838 -2.72901 2.55736 0
M  V30 3315 H 311.13 -5.7041 3.65567 0
M  V30 3316 H 312.073 -5.00431 5.00974 0
M  V30 3317 H 312.481 -4.56151 3.32545 0
M  V30 3318 N 311.879 -1.3236 -0.855495 0
M  V30 3319 C 313.125 -1.24064 -1.61182 0
M  V30 3320 C 313.48 0.195914 -1.914 0
M  V30 3321 O 312.773 1.13345 -1.54478 0
M  V30 3322 C 312.967 -2.03275 -2.93963 0
M  V30 3323 C 312.796 -3.54486 -2.76712 0
M  V30 3324 C 311.566 -4.23824 -2.75139 0
M  V30 3325 C 313.764 -4.49154 -2.50531 0
M  V30 3326 N 311.746 -5.61095 -2.4909 0
M  V30 3327 C 313.117 -5.74195 -2.3388 0
M  V30 3328 C 315.172 -4.3842 -2.35992 0
M  V30 3329 C 313.875 -6.89716 -2.04168 0
M  V30 3330 C 315.901 -5.53739 -2.0767 0
M  V30 3331 C 315.263 -6.77779 -1.9182 0
M  V30 3332 H 311.362 -0.509139 -0.59355 0
M  V30 3333 H 313.946 -1.66715 -1.00569 0
M  V30 3334 H 312.117 -1.6297 -3.52555 0
M  V30 3335 H 313.849 -1.86881 -3.58967 0
M  V30 3336 H 310.604 -3.75934 -2.88047 0
M  V30 3337 H 311.028 -6.33411 -2.38996 0
M  V30 3338 H 315.67 -3.43172 -2.46967 0
M  V30 3339 H 313.388 -7.84977 -1.9193 0
M  V30 3340 H 316.974 -5.4736 -1.97201 0
M  V30 3341 H 315.854 -7.65504 -1.70217 0
M  V30 3342 N 313.357 1.07166 -1.15556 0
M  V30 3343 C 314.773 1.31899 -0.898603 0
M  V30 3344 C 314.973 1.96333 0.453383 0
M  V30 3345 O 314.029 2.22438 1.19489 0
M  V30 3346 C 315.342 2.20826 -2.04099 0
M  V30 3347 C 316.89 2.34269 -2.07574 0
M  V30 3348 C 317.365 3.26546 -3.21141 0
M  V30 3349 N 318.856 3.34127 -3.20801 0
M  V30 3350 C 319.591 4.05595 -4.05315 0
M  V30 3351 N 319.087 4.79661 -4.99897 0
M  V30 3352 N 320.88 4.01555 -3.93332 0
M  V30 3353 H 313.031 0.637302 -2.02613 0
M  V30 3354 H 315.294 0.343468 -0.883591 0
M  V30 3355 H 315 1.80744 -3.01703 0
M  V30 3356 H 314.874 3.21364 -1.97496 0
M  V30 3357 H 317.261 2.73603 -1.10568 0
M  V30 3358 H 317.342 1.33429 -2.18244 0
M  V30 3359 H 316.986 2.87931 -4.184 0
M  V30 3360 H 316.916 4.27345 -3.07708 0
M  V30 3361 H 319.407 2.81336 -2.52306 0
M  V30 3362 H 319.72 5.31694 -5.60822 0
M  V30 3363 H 318.065 4.78671 -5.03884 0
M  V30 3364 H 321.256 3.42806 -3.18751 0
M  V30 3365 H 321.429 4.56987 -4.5942 0
M  V30 3366 N 314.835 0.952656 1.25548 0
M  V30 3367 C 316.081 0.607272 1.93494 0
M  V30 3368 C 316.414 -0.853245 1.74452 0
M  V30 3369 O 315.689 -1.61194 1.08843 0
M  V30 3370 C 315.972 0.96435 3.46947 0
M  V30 3371 C 315.825 2.48045 3.75225 0
M  V30 3372 C 317.144 0.487987 4.37386 0
M  V30 3373 H 314.263 0.222096 0.702739 0
M  V30 3374 H 316.905 1.18895 1.48203 0
M  V30 3375 H 315.055 0.469361 3.85654 0
M  V30 3376 H 316.727 3.04905 3.46166 0
M  V30 3377 H 314.97 2.919 3.209 0
M  V30 3378 H 315.641 2.6808 4.82532 0
M  V30 3379 H 318.117 0.912558 4.0597 0
M  V30 3380 H 316.993 0.766547 5.43521 0
M  V30 3381 H 317.254 -0.612063 4.37843 0
M  V30 3382 N 316.313 -1.40141 0.720998 0
M  V30 3383 C 317.561 -2.0039 0.262323 0
M  V30 3384 C 317.882 -1.57469 -1.15015 0
M  V30 3385 O 317.152 -0.816582 -1.78069 0
M  V30 3386 H 315.732 -0.741063 0.093996 0
M  V30 3387 H 318.394 -1.71398 0.927835 0
M  V30 3388 H 317.49 -3.10658 0.299671 0
M  V30 3389 N 317.792 -0.46758 -1.50504 0
M  V30 3390 C 318.74 0.342482 -2.30065 0
M  V30 3391 C 319.734 0.993596 -1.37201 0
M  V30 3392 O 320.94 0.925102 -1.54408 0
M  V30 3393 H 317.315 0.129283 -0.740803 0
M  V30 3394 H 319.286 -0.34899 -2.96352 0
M  V30 3395 C 318.035 1.4139 -3.17654 0
M  V30 3396 H 317.358 0.922264 -3.89017 0
M  V30 3397 H 318.798 1.95335 -3.76325 0
M  V30 3398 C 317.257 2.4139 -2.35016 0
M  V30 3399 O 317.787 3.46586 -2.03079 0
M  V30 3400 N 315.993 2.13021 -1.97662 0
M  V30 3401 H 315.54 1.27499 -2.23834 0
M  V30 3402 H 315.498 2.80164 -1.42673 0
M  V30 3403 N 319.27 1.56325 -0.20005 0
M  V30 3404 C 320.2 2.22318 0.713916 0
M  V30 3405 C 321.181 1.18788 1.21752 0
M  V30 3406 O 322.366 1.47309 1.26545 0
M  V30 3407 C 319.496 2.88639 1.93144 0
M  V30 3408 C 318.45 3.98457 1.56255 0
M  V30 3409 C 317.776 4.51967 2.85709 0
M  V30 3410 C 319.076 5.16612 0.768747 0
M  V30 3411 H 320.77 2.98952 0.163755 0
M  V30 3412 H 318.316 1.43792 0.0773219 0
M  V30 3413 H 320.269 3.33491 2.57608 0
M  V30 3414 H 318.993 2.09419 2.50621 0
M  V30 3415 H 317.652 3.54305 0.941471 0
M  V30 3416 H 317.3 3.69503 3.41287 0
M  V30 3417 H 317 5.26071 2.6177 0
M  V30 3418 H 318.524 4.99523 3.51154 0
M  V30 3419 H 319.938 5.57977 1.3166 0
M  V30 3420 H 318.335 5.96812 0.627286 0
M  V30 3421 H 319.405 4.84358 -0.229168 0
M  V30 3422 N 320.748 -0.0735177 1.57428 0
M  V30 3423 C 322.164 -0.428264 1.53747 0
M  V30 3424 C 322.364 -1.79272 0.91998 0
M  V30 3425 O 321.42 -2.47051 0.521745 0
M  V30 3426 C 322.733 -0.370914 2.98404 0
M  V30 3427 C 324.281 -0.451224 3.0973 0
M  V30 3428 C 324.756 -0.4238 4.56035 0
M  V30 3429 N 326.247 -0.483925 4.60665 0
M  V30 3430 C 326.982 -0.484891 5.71346 0
M  V30 3431 N 326.478 -0.440775 6.91396 0
M  V30 3432 N 328.271 -0.531319 5.59583 0
M  V30 3433 H 320.422 0.819949 1.95935 0
M  V30 3434 H 322.685 0.307493 0.896745 0
M  V30 3435 H 322.391 0.564956 3.47133 0
M  V30 3436 H 322.265 -1.18176 3.5821 0
M  V30 3437 H 324.652 -1.37752 2.60976 0
M  V30 3438 H 324.733 0.388167 2.52838 0
M  V30 3439 H 324.377 0.498638 5.05446 0
M  V30 3440 H 324.307 -1.2807 5.10789 0
M  V30 3441 H 326.798 -0.522338 3.74273 0
M  V30 3442 H 327.111 -0.44539 7.71515 0
M  V30 3443 H 325.456 -0.40749 6.93804 0
M  V30 3444 H 328.647 -0.563464 4.64696 0
M  V30 3445 H 328.82 -0.528603 6.4584 0
M  V30 3446 N 322.226 -1.5378 -0.344866 0
M  V30 3447 C 323.173 -1.81676 -1.42346 0
M  V30 3448 C 324.143 -0.662376 -1.52321 0
M  V30 3449 O 325.328 -0.906675 -1.67881 0
M  V30 3450 C 322.468 -2.03087 -2.79015 0
M  V30 3451 C 321.581 -3.30799 -2.77842 0
M  V30 3452 C 320.716 -3.42285 -4.0622 0
M  V30 3453 C 319.755 -4.6395 -3.9927 0
M  V30 3454 N 318.892 -4.72477 -5.19336 0
M  V30 3455 H 323.732 -2.73703 -1.17858 0
M  V30 3456 H 321.269 -1.35568 -0.570949 0
M  V30 3457 H 323.227 -2.1349 -3.58438 0
M  V30 3458 H 321.857 -1.14375 -3.01858 0
M  V30 3459 H 320.909 -3.29244 -1.90533 0
M  V30 3460 H 322.221 -4.20314 -2.68584 0
M  V30 3461 H 321.375 -3.52113 -4.94066 0
M  V30 3462 H 320.114 -2.50823 -4.18258 0
M  V30 3463 H 319.119 -4.54201 -3.09809 0
M  V30 3464 H 320.344 -5.56775 -3.88817 0
M  V30 3465 H 318.29 -3.83924 -5.3192 0
M  V30 3466 H 318.207 -5.55927 -5.12329 0
M  V30 3467 H 319.475 -4.86613 -6.08957 0
M  V30 3468 N 323.704 0.605807 -1.45491 0
M  V30 3469 C 324.929 1.39625 -1.53361 0
M  V30 3470 C 325.354 1.87351 -0.167645 0
M  V30 3471 O 324.712 1.60243 0.848051 0
M  V30 3472 C 324.76 2.57559 -2.5238 0
M  V30 3473 O 323.864 3.58248 -2.04285 0
M  V30 3474 H 323.205 0.416771 -0.516912 0
M  V30 3475 H 325.735 0.737103 -1.90861 0
M  V30 3476 H 325.745 3.0478 -2.71244 0
M  V30 3477 H 324.42 2.22171 -3.51586 0
M  V30 3478 H 322.997 3.17664 -1.95305 0
M  V30 3479 N 325.182 1.32811 0.848464 0
M  V30 3480 C 326.132 1.18842 1.94578 0
M  V30 3481 C 327.116 0.0937517 1.60627 0
M  V30 3482 O 328.308 0.320887 1.74067 0
M  V30 3483 C 325.437 0.91999 3.30743 0
M  V30 3484 C 324.523 2.05665 3.70894 0
M  V30 3485 N 324.914 3.30579 3.8282 0
M  V30 3486 C 323.212 1.9612 4.00566 0
M  V30 3487 C 323.913 4.05067 4.17487 0
M  V30 3488 N 322.889 3.33419 4.2934 0
M  V30 3489 H 326.691 2.13536 2.0194 0
M  V30 3490 H 324.205 1.2468 1.0406 0
M  V30 3491 H 326.202 0.800859 4.09136 0
M  V30 3492 H 324.862 -0.0185076 3.24695 0
M  V30 3493 H 325.873 3.65441 3.66978 0
M  V30 3494 H 322.55 1.09871 4.02784 0
M  V30 3495 H 323.94 5.12815 4.34131 0
M  V30 3496 N 326.66 -1.06551 1.16123 0
M  V30 3497 C 327.59 -2.15935 0.88851 0
M  V30 3498 C 328.571 -1.69306 -0.164135 0
M  V30 3499 O 329.756 -1.94193 -0.0167857 0
M  V30 3500 C 326.886 -3.45149 0.385942 0
M  V30 3501 C 325.84 -4.05271 1.3762 0
M  V30 3502 C 325.166 -5.29664 0.732137 0
M  V30 3503 C 326.466 -4.44355 2.74493 0
M  V30 3504 H 328.16 -2.39006 1.80323 0
M  V30 3505 H 325.706 -1.14866 0.868435 0
M  V30 3506 H 327.659 -4.21004 0.182647 0
M  V30 3507 H 326.383 -3.21689 -0.564274 0
M  V30 3508 H 325.042 -3.3147 1.56599 0
M  V30 3509 H 324.69 -5.02499 -0.224483 0
M  V30 3510 H 324.39 -5.70848 1.39307 0
M  V30 3511 H 325.914 -6.08218 0.538802 0
M  V30 3512 H 327.328 -5.11303 2.59311 0
M  V30 3513 H 325.725 -4.96515 3.37035 0
M  V30 3514 H 326.795 -3.55339 3.29943 0
M  V30 3515 N 328.138 -0.959301 -1.25041 0
M  V30 3516 C 329.384 -0.617525 -1.9317 0
M  V30 3517 C 329.717 0.843981 -1.74902 0
M  V30 3518 O 328.992 1.60615 -1.09696 0
M  V30 3519 C 329.275 -0.982736 -3.46431 0
M  V30 3520 C 329.128 -2.50032 -3.73904 0
M  V30 3521 C 330.447 -0.511176 -4.37121 0
M  V30 3522 H 327.566 -0.22582 -0.701552 0
M  V30 3523 H 330.208 -1.19679 -1.4757 0
M  V30 3524 H 328.358 -0.489806 -3.854 0
M  V30 3525 H 330.03 -3.06737 -3.44544 0
M  V30 3526 H 328.273 -2.93598 -3.19348 0
M  V30 3527 H 328.944 -2.70635 -4.81103 0
M  V30 3528 H 331.42 -0.934075 -4.0548 0
M  V30 3529 H 330.296 -0.795361 -5.43107 0
M  V30 3530 H 330.557 0.588834 -4.38161 0
M  V30 3531 N 329.616 1.39756 -0.72842 0
M  V30 3532 C 330.526 2.34444 -0.0855374 0
M  V30 3533 C 331.542 1.57976 0.729356 0
M  V30 3534 O 332.718 1.90301 0.659346 0
M  V30 3535 C 329.783 3.36965 0.815798 0
M  V30 3536 C 328.844 4.29299 -0.0105996 0
M  V30 3537 C 328.077 5.26923 0.84781 0
M  V30 3538 O 328.3 5.30859 2.08673 0
M  V30 3539 O 327.234 6.01249 0.279969 0
M  V30 3540 H 331.06 2.91065 -0.866892 0
M  V30 3541 H 328.645 1.4117 -0.48902 0
M  V30 3542 H 330.527 3.99804 1.33171 0
M  V30 3543 H 329.202 2.82739 1.57608 0
M  V30 3544 H 328.109 3.69703 -0.571877 0
M  V30 3545 H 329.442 4.86712 -0.73295 0
M  V30 3546 N 331.094 0.475555 1.50254 0
M  V30 3547 C 332.057 -0.305016 2.27161 0
M  V30 3548 C 333.057 -0.916519 1.32123 0
M  V30 3549 O 334.247 -0.785003 1.5551 0
M  V30 3550 C 331.379 -1.43496 3.09227 0
M  V30 3551 H 332.572 0.369511 2.97615 0
M  V30 3552 H 330.125 0.229747 1.54602 0
M  V30 3553 H 330.86 -2.14441 2.43281 0
M  V30 3554 H 330.645 -1.00223 3.79075 0
M  V30 3555 H 332.135 -1.98548 3.67381 0
M  V30 3556 N 332.573 -1.56217 0.208337 0
M  V30 3557 C 333.523 -2.16324 -0.720281 0
M  V30 3558 C 334.507 -1.10775 -1.16695 0
M  V30 3559 O 335.699 -1.36801 -1.12314 0
M  V30 3560 C 332.828 -2.83644 -1.93393 0
M  V30 3561 C 331.914 -3.96401 -1.50755 0
M  V30 3562 N 332.305 -4.99546 -0.792937 0
M  V30 3563 C 330.603 -4.08246 -1.79585 0
M  V30 3564 C 331.304 -5.78828 -0.577364 0
M  V30 3565 N 330.28 -5.31723 -1.1301 0
M  V30 3566 H 334.082 -2.93432 -0.165725 0
M  V30 3567 H 331.596 -1.62397 0.00906463 0
M  V30 3568 H 333.593 -3.25107 -2.60981 0
M  V30 3569 H 332.253 -2.08027 -2.49308 0
M  V30 3570 H 333.264 -5.15967 -0.447004 0
M  V30 3571 H 329.941 -3.4377 -2.36915 0
M  V30 3572 H 331.331 -6.71899 -0.00952956 0
M  V30 3573 N 334.051 0.0651679 -1.57465 0
M  V30 3574 C 335.297 0.764193 -1.87851 0
M  V30 3575 C 335.63 1.76889 -0.801495 0
M  V30 3576 O 334.905 1.93594 0.187528 0
M  V30 3577 C 335.188 1.46625 -3.28897 0
M  V30 3578 C 335.041 0.477515 -4.47258 0
M  V30 3579 C 336.36 2.4095 -3.68281 0
M  V30 3580 H 333.479 0.276351 -0.683227 0
M  V30 3581 H 336.121 0.0272868 -1.8998 0
M  V30 3582 H 334.271 2.09438 -3.27212 0
M  V30 3583 H 335.943 -0.145922 -4.61069 0
M  V30 3584 H 334.186 -0.206576 -4.33308 0
M  V30 3585 H 334.857 1.0065 -5.42746 0
M  V30 3586 H 337.333 1.88209 -3.71102 0
M  V30 3587 H 336.209 2.87072 -4.67847 0
M  V30 3588 H 336.47 3.26049 -2.98571 0
M  V30 3589 N 335.529 1.53961 0.336706 0
M  V30 3590 C 336.945 1.44378 0.680241 0
M  V30 3591 C 337.145 0.606034 1.9217 0
M  V30 3592 O 336.201 0.099688 2.52303 0
M  V30 3593 C 337.514 2.87945 0.8665 0
M  V30 3594 C 339.062 2.97763 0.964682 0
M  V30 3595 C 339.537 4.42453 1.18321 0
M  V30 3596 N 341.028 4.46008 1.25025 0
M  V30 3597 C 341.763 5.55102 1.43697 0
M  V30 3598 N 341.259 6.7419 1.59498 0
M  V30 3599 N 343.052 5.42727 1.463 0
M  V30 3600 H 335.203 2.06918 -0.479455 0
M  V30 3601 H 337.466 0.935634 -0.152619 0
M  V30 3602 H 337.172 3.51691 0.0256937 0
M  V30 3603 H 337.046 3.33293 1.76623 0
M  V30 3604 H 339.433 2.34153 1.796 0
M  V30 3605 H 339.514 2.55766 0.041708 0
M  V30 3606 H 339.158 5.06645 0.356788 0
M  V30 3607 H 339.088 4.82048 2.11985 0
M  V30 3608 H 341.579 3.60196 1.14312 0
M  V30 3609 H 341.892 7.53095 1.734 0
M  V30 3610 H 340.237 6.77123 1.56621 0
M  V30 3611 H 343.428 4.48647 1.33543 0
M  V30 3612 H 343.601 6.27806 1.6051 0
M  V30 3613 N 337.007 -0.598083 1.45811 0
M  V30 3614 C 337.97 -1.69018 1.54808 0
M  V30 3615 C 338.97 -1.55037 0.426652 0
M  V30 3616 O 340.16 -1.59932 0.690456 0
M  V30 3617 C 337.292 -3.0835 1.45371 0
M  V30 3618 H 338.485 -1.62403 2.52121 0
M  V30 3619 H 336.038 -0.814626 1.33392 0
M  V30 3620 H 336.773 -3.20534 0.492793 0
M  V30 3621 H 336.558 -3.19907 2.26721 0
M  V30 3622 H 338.048 -3.8788 1.54721 0
M  V30 3623 N 338.485 -1.33259 -0.841409 0
M  V30 3624 C 339.417 -1.19136 -1.95804 0
M  V30 3625 C 340.43 -0.122965 -1.62335 0
M  V30 3626 O 341.619 -0.373154 -1.74556 0
M  V30 3627 C 338.719 -0.804268 -3.29218 0
M  V30 3628 C 337.892 -1.96376 -3.90839 0
M  V30 3629 C 336.951 -1.55806 -5.02604 0
M  V30 3630 O 335.977 -2.27203 -5.21888 0
M  V30 3631 N 337.179 -0.461609 -5.78662 0
M  V30 3632 H 339.944 -2.15326 -2.08458 0
M  V30 3633 H 337.505 -1.25971 -1.017 0
M  V30 3634 H 339.497 -0.51501 -4.0141 0
M  V30 3635 H 338.067 0.0668809 -3.12528 0
M  V30 3636 H 337.287 -2.41879 -3.11269 0
M  V30 3637 H 338.575 -2.73966 -4.28742 0
M  V30 3638 H 337.973 0.132343 -5.65545 0
M  V30 3639 H 336.53 -0.232013 -6.51387 0
M  V30 3640 N 339.963 1.05934 -1.16686 0
M  V30 3641 C 340.893 2.1546 -0.899949 0
M  V30 3642 C 341.874 1.69391 0.155154 0
M  V30 3643 O 343.059 1.94199 0.00648693 0
M  V30 3644 C 340.189 3.44939 -0.404241 0
M  V30 3645 C 339.143 4.04536 -1.39767 0
M  V30 3646 C 338.469 5.29268 -0.760216 0
M  V30 3647 C 339.769 4.42893 -2.76845 0
M  V30 3648 H 341.463 2.38046 -1.81588 0
M  V30 3649 H 339.009 1.14404 -0.874514 0
M  V30 3650 H 340.962 4.20901 -0.204971 0
M  V30 3651 H 339.686 3.21983 0.547206 0
M  V30 3652 H 338.345 3.30635 -1.58355 0
M  V30 3653 H 337.993 5.02611 0.197831 0
M  V30 3654 H 337.693 5.70101 -1.42332 0
M  V30 3655 H 339.217 6.07924 -0.57105 0
M  V30 3656 H 340.631 5.09921 -2.62019 0
M  V30 3657 H 339.028 4.94721 -3.39663 0
M  V30 3658 H 340.098 3.53584 -3.31823 0
M  V30 3659 N 341.441 0.965919 1.2453 0
M  V30 3660 C 342.371 0.513476 2.27784 0
M  V30 3661 C 343.352 -0.445974 1.6415 0
M  V30 3662 O 344.537 -0.342485 1.91156 0
M  V30 3663 C 341.667 -0.198839 3.4673 0
M  V30 3664 C 340.621 0.676456 4.2262 0
M  V30 3665 C 339.947 -0.167248 5.34438 0
M  V30 3666 C 341.247 1.96017 4.84123 0
M  V30 3667 H 342.941 1.3765 2.65881 0
M  V30 3668 H 340.487 0.663321 1.27813 0
M  V30 3669 H 342.44 -0.526567 4.18097 0
M  V30 3670 H 341.164 -1.0962 3.07654 0
M  V30 3671 H 339.823 0.98743 3.53052 0
M  V30 3672 H 339.471 -1.0647 4.91603 0
M  V30 3673 H 339.171 0.415181 5.86131 0
M  V30 3674 H 340.695 -0.489688 6.08633 0
M  V30 3675 H 342.109 1.69814 5.47573 0
M  V30 3676 H 340.506 2.48918 5.4604 0
M  V30 3677 H 341.576 2.65622 4.05676 0
M  V30 3678 N 342.919 -1.39368 0.735821 0
M  V30 3679 C 343.866 -2.30599 0.0963825 0
M  V30 3680 C 344.836 -1.49257 -0.728794 0
M  V30 3681 O 346.021 -1.77941 -0.688588 0
M  V30 3682 C 343.161 -3.35596 -0.804305 0
M  V30 3683 C 342.274 -4.31987 0.0335761 0
M  V30 3684 C 341.409 -5.24053 -0.868461 0
M  V30 3685 C 340.448 -6.12095 -0.0258776 0
M  V30 3686 N 339.585 -6.96514 -0.883893 0
M  V30 3687 H 344.425 -2.8471 0.880002 0
M  V30 3688 H 341.962 -1.40188 0.445619 0
M  V30 3689 H 343.92 -3.95062 -1.34096 0
M  V30 3690 H 342.55 -2.82938 -1.55389 0
M  V30 3691 H 341.602 -3.74133 0.68766 0
M  V30 3692 H 342.914 -4.94074 0.685036 0
M  V30 3693 H 342.068 -5.88549 -1.47293 0
M  V30 3694 H 340.807 -4.62289 -1.5537 0
M  V30 3695 H 339.812 -5.4661 0.591386 0
M  V30 3696 H 341.037 -6.75923 0.656156 0
M  V30 3697 H 338.983 -6.37318 -1.55441 0
M  V30 3698 H 338.9 -7.55448 -0.288931 0
M  V30 3699 H 340.168 -7.65439 -1.4739 0
M  V30 3700 N 344.397 -0.483516 -1.5 0
M  V30 3701 C 345.622 0.0667119 -2.07293 0
M  V30 3702 C 346.047 1.3164 -1.3436 0
M  V30 3703 O 345.405 1.76945 -0.394987 0
M  V30 3704 C 345.453 0.321126 -3.59167 0
M  V30 3705 O 344.557 1.39927 -3.87936 0
M  V30 3706 H 343.898 -0.0184758 -0.663743 0
M  V30 3707 H 346.428 -0.678125 -1.93035 0
M  V30 3708 H 346.438 0.557906 -4.04168 0
M  V30 3709 H 345.113 -0.592007 -4.11665 0
M  V30 3710 H 343.69 1.14882 -3.54763 0
M  V30 3711 N 345.875 1.56104 -0.216619 0
M  V30 3712 C 347.291 1.58995 0.13886 0
M  V30 3713 C 347.491 1.23333 1.59346 0
M  V30 3714 O 346.547 0.966234 2.33281 0
M  V30 3715 C 347.86 3.00143 -0.182968 0
M  V30 3716 C 349.408 3.12751 -0.124807 0
M  V30 3717 C 349.883 4.56068 -0.420241 0
M  V30 3718 N 351.374 4.61723 -0.369634 0
M  V30 3719 C 352.109 5.70542 -0.571789 0
M  V30 3720 N 351.605 6.87744 -0.835453 0
M  V30 3721 N 353.398 5.59831 -0.504563 0
M  V30 3722 H 345.549 1.77562 -1.16557 0
M  V30 3723 H 347.812 0.825091 -0.466828 0
M  V30 3724 H 347.518 3.30871 -1.19237 0
M  V30 3725 H 347.392 3.73813 0.504367 0
M  V30 3726 H 349.779 2.81822 0.875223 0
M  V30 3727 H 349.86 2.41421 -0.845544 0
M  V30 3728 H 349.504 4.87713 -1.41769 0
M  V30 3729 H 349.434 5.25617 0.321631 0
M  V30 3730 H 351.925 3.77502 -0.173338 0
M  V30 3731 H 352.238 7.66587 -0.977938 0
M  V30 3732 H 350.583 6.895 -0.872592 0
M  V30 3733 H 353.774 4.67145 -0.298842 0
M  V30 3734 H 353.947 6.44573 -0.665519 0
M  V30 3735 N 347.353 -0.0568162 1.57498 0
M  V30 3736 C 348.602 -0.752001 1.87157 0
M  V30 3737 C 348.915 -1.77978 0.811375 0
M  V30 3738 O 350.121 -2.52559 0.996293 0
M  V30 3739 C 348.577 -1.38844 3.3204 0
M  V30 3740 C 348.185 -0.398456 4.46225 0
M  V30 3741 C 349.929 -2.06512 3.70882 0
M  V30 3742 C 347.836 -1.04166 5.82154 0
M  V30 3743 H 346.766 -0.28461 0.698222 0
M  V30 3744 H 349.417 -0.00561272 1.83499 0
M  V30 3745 H 347.799 -2.1836 3.30356 0
M  V30 3746 H 348.973 0.367977 4.59328 0
M  V30 3747 H 347.288 0.174592 4.16034 0
M  V30 3748 H 349.885 -2.55437 4.6974 0
M  V30 3749 H 350.228 -2.87117 3.01445 0
M  V30 3750 H 350.761 -1.33808 3.7462 0
M  V30 3751 H 347.5 -0.275614 6.5492 0
M  V30 3752 H 347.02 -1.7786 5.72823 0
M  V30 3753 H 348.699 -1.55715 6.27982 0
M  V30 3754 N 348.832 -1.54138 -0.328536 0
M  V30 3755 C 350.06 -1.76062 -1.08673 0
M  V30 3756 C 350.475 -0.506852 -1.81869 0
M  V30 3757 O 349.832 0.522223 -1.74869 0
M  V30 3758 C 349.883 -2.95054 -2.08866 0
M  V30 3759 O 349.604 -4.15583 -1.38644 0
M  V30 3760 C 351.105 -3.2915 -2.96943 0
M  V30 3761 H 348.325 -0.587889 -0.323461 0
M  V30 3762 H 350.869 -2.0101 -0.376175 0
M  V30 3763 H 349.024 -2.72394 -2.75464 0
M  V30 3764 H 349.438 -4.82481 -2.05699 0
M  V30 3765 H 350.912 -4.15723 -3.63151 0
M  V30 3766 H 351.389 -2.461 -3.63774 0
M  V30 3767 H 351.995 -3.53871 -2.35914 0
M  V30 3768 N 350.31 0.590341 -1.46126 0
M  V30 3769 C 351.535 1.37991 -1.54833 0
M  V30 3770 C 351.96 1.87163 -0.187506 0
M  V30 3771 O 351.318 1.61133 0.831008 0
M  V30 3772 C 351.366 2.54867 -2.55098 0
M  V30 3773 O 350.47 3.56061 -2.08073 0
M  V30 3774 H 349.811 0.411265 -0.521303 0
M  V30 3775 H 352.341 0.716819 -1.91632 0
M  V30 3776 H 352.351 3.01886 -2.74461 0
M  V30 3777 H 351.026 2.18429 -3.53923 0
M  V30 3778 H 349.603 3.15574 -1.98664 0
M  V30 3779 N 351.788 1.33704 0.83433 0
M  V30 3780 C 352.698 1.26382 1.97648 0
M  V30 3781 C 353.714 0.173548 1.73132 0
M  V30 3782 O 354.89 0.397962 1.97429 0
M  V30 3783 C 351.955 1.00769 3.31733 0
M  V30 3784 C 351.016 2.1884 3.69334 0
M  V30 3785 C 350.249 1.9444 4.9702 0
M  V30 3786 O 350.472 0.896961 5.63303 0
M  V30 3787 O 349.406 2.81093 5.32231 0
M  V30 3788 H 353.232 2.22444 2.06767 0
M  V30 3789 H 350.817 1.13795 0.968037 0
M  V30 3790 H 352.699 0.882186 4.12062 0
M  V30 3791 H 351.374 0.0773783 3.23608 0
M  V30 3792 H 350.281 2.36946 2.89495 0
M  V30 3793 H 351.614 3.10221 3.82131 0
M  V30 3794 N 353.266 -1.05314 1.17247 0
M  V30 3795 C 354.514 -1.77941 0.958194 0
M  V30 3796 C 354.835 -1.88089 -0.514556 0
M  V30 3797 O 354.105 -1.39676 -1.37359 0
M  V30 3798 H 352.685 -0.659116 0.351533 0
M  V30 3799 H 355.347 -1.27166 1.47699 0
M  V30 3800 H 354.443 -2.79663 1.38546 0
M  V30 3801 N 354.744 -0.972509 -1.24016 0
M  V30 3802 C 355.654 -0.5143 -2.28893 0
M  V30 3803 C 356.67 0.427078 -1.68677 0
M  V30 3804 O 357.846 0.298939 -1.99169 0
M  V30 3805 C 354.911 0.183598 -3.46214 0
M  V30 3806 C 353.972 -0.798202 -4.21814 0
M  V30 3807 C 353.205 -0.133514 -5.33533 0
M  V30 3808 O 353.428 1.07714 -5.60137 0
M  V30 3809 O 352.362 -0.828103 -5.96176 0
M  V30 3810 H 356.188 -1.38629 -2.70214 0
M  V30 3811 H 353.773 -0.739769 -1.29799 0
M  V30 3812 H 355.655 0.575433 -4.17453 0
M  V30 3813 H 354.33 1.03048 -3.0686 0
M  V30 3814 H 353.237 -1.24059 -3.52931 0
M  V30 3815 H 354.57 -1.61364 -4.64997 0
M  V30 3816 N 356.222 1.38976 -0.743202 0
M  V30 3817 C 357.452 2.04339 -0.304807 0
M  V30 3818 C 357.86 1.56162 1.06819 0
M  V30 3819 O 357.203 0.725284 1.68776 0
M  V30 3820 C 357.265 3.58716 -0.237369 0
M  V30 3821 C 356.929 4.29905 -1.55018 0
M  V30 3822 C 357.926 4.55987 -2.49744 0
M  V30 3823 C 355.611 4.68294 -1.81675 0
M  V30 3824 C 357.605 5.19478 -3.69353 0
M  V30 3825 C 355.292 5.31512 -3.0156 0
M  V30 3826 C 356.29 5.57037 -3.9522 0
M  V30 3827 O 355.978 6.18941 -5.12998 0
M  V30 3828 H 355.71 0.663439 -0.12971 0
M  V30 3829 H 358.264 1.78852 -1.01001 0
M  V30 3830 H 356.494 3.83133 0.524003 0
M  V30 3831 H 358.183 4.05543 0.170121 0
M  V30 3832 H 358.949 4.26767 -2.30423 0
M  V30 3833 H 354.828 4.47779 -1.09615 0
M  V30 3834 H 358.372 5.39318 -4.42473 0
M  V30 3835 H 354.269 5.60153 -3.20778 0
M  V30 3836 H 355.037 6.37433 -5.13441 0
M  V30 3837 N 357.7 0.491464 1.49741 0
M  V30 3838 C 358.949 -0.0582189 2.01616 0
M  V30 3839 C 359.262 -1.38927 1.3769 0
M  V30 3840 O 360.468 -2.02509 1.80838 0
M  V30 3841 C 358.924 -0.154235 3.59569 0
M  V30 3842 C 358.532 1.1696 4.32463 0
M  V30 3843 C 360.276 -0.65479 4.1942 0
M  V30 3844 C 358.183 1.03627 5.8225 0
M  V30 3845 H 357.113 -0.0255317 0.753568 0
M  V30 3846 H 359.764 0.629445 1.72367 0
M  V30 3847 H 358.146 -0.906138 3.85493 0
M  V30 3848 H 359.32 1.93405 4.18248 0
M  V30 3849 H 357.635 1.60285 3.84315 0
M  V30 3850 H 360.232 -0.771903 5.29099 0
M  V30 3851 H 360.575 -1.65127 3.8215 0
M  V30 3852 H 361.108 0.040304 3.9778 0
M  V30 3853 H 357.847 2.00672 6.24028 0
M  V30 3854 H 357.367 0.312546 5.98985 0
M  V30 3855 H 359.046 0.711114 6.4308 0
M  V30 3856 N 359.178 -1.55987 0.224894 0
M  V30 3857 C 360.589 -1.84553 -0.282345 0
M  V30 3858 C 360.94 -1.14634 -1.59227 0
M  V30 3859 O 360.065 -0.417155 -2.12341 0
M  V30 3860 C 360.66 -3.348 -0.519062 0
M  V30 3861 C 359.219 -3.63671 -0.970604 0
M  V30 3862 C 358.366 -2.77277 -0.0355261 0
M  V30 3863 H 361.317 -1.52245 0.448006 0
M  V30 3864 H 361.338 -3.55187 -1.36463 0
M  V30 3865 H 360.85 -3.8566 0.43449 0
M  V30 3866 H 358.951 -3.1827 -1.9374 0
M  V30 3867 H 359.064 -4.71631 -0.842698 0
M  V30 3868 H 357.428 -2.48846 -0.542927 0
M  V30 3869 H 358.211 -3.30937 0.913003 0
M  V30 3870 N 360.656 0.0484629 -1.57525 0
M  V30 3871 C 361.586 1.0549 -2.08313 0
M  V30 3872 C 362.567 1.38929 -0.981463 0
M  V30 3873 O 363.752 1.48151 -1.25558 0
M  V30 3874 C 360.882 2.36162 -2.54646 0
M  V30 3875 C 359.836 2.17016 -3.68901 0
M  V30 3876 C 359.162 3.53278 -4.01371 0
M  V30 3877 C 360.462 1.57219 -4.98076 0
M  V30 3878 H 362.156 0.632195 -2.92649 0
M  V30 3879 H 359.702 0.302654 -1.40784 0
M  V30 3880 H 361.655 3.06882 -2.88793 0
M  V30 3881 H 360.379 2.80456 -1.67368 0
M  V30 3882 H 359.038 1.48733 -3.35073 0
M  V30 3883 H 358.686 3.95185 -3.11188 0
M  V30 3884 H 358.386 3.41299 -4.78318 0
M  V30 3885 H 359.91 4.25391 -4.38035 0
M  V30 3886 H 361.324 2.17832 -5.30304 0
M  V30 3887 H 359.721 1.55871 -5.79503 0
M  V30 3888 H 360.791 0.535956 -4.81929 0
M  V30 3889 N 362.134 1.5431 0.320358 0
M  V30 3890 C 363.411 1.63322 1.07635 0
M  V30 3891 C 363.791 0.46912 2.05821 0
M  V30 3892 O 363.139 -0.536274 2.22118 0
M  V30 3893 C 363.349 3.00465 1.77544 0
M  V30 3894 C 364.697 3.56621 2.30449 0
M  V30 3895 O 365.721 3.02791 1.87606 0
M  V30 3896 O 364.58 4.5083 3.08892 0
M  V30 3897 H 361.674 0.661502 0.496331 0
M  V30 3898 H 364.22 1.66656 0.319992 0
M  V30 3899 H 362.992 3.76629 1.06143 0
M  V30 3900 H 362.615 3.00824 2.59982 0
M  V30 3901 N 363.613 -0.582584 1.46437 0
M  V30 3902 C 364.545 -1.70618 1.53043 0
M  V30 3903 C 365.558 -1.57322 0.418769 0
M  V30 3904 O 366.747 -1.64744 0.687136 0
M  V30 3905 C 363.847 -3.08869 1.39474 0
M  V30 3906 C 363.02 -3.48166 2.64762 0
M  V30 3907 C 362.079 -4.65478 2.4539 0
M  V30 3908 O 361.105 -4.71333 3.19114 0
M  V30 3909 N 362.307 -5.60365 1.51564 0
M  V30 3910 H 365.072 -1.65405 2.49923 0
M  V30 3911 H 362.633 -0.768567 1.42494 0
M  V30 3912 H 364.625 -3.85143 1.24287 0
M  V30 3913 H 363.195 -3.08449 0.507758 0
M  V30 3914 H 362.415 -2.61598 2.9489 0
M  V30 3915 H 363.703 -3.71188 3.4799 0
M  V30 3916 H 363.101 -5.5837 0.907705 0
M  V30 3917 H 361.658 -6.36068 1.4234 0
M  V30 3918 N 365.091 -1.34144 -0.827227 0
M  V30 3919 C 366.34 -1.25602 -1.5782 0
M  V30 3920 C 366.653 0.173445 -1.94829 0
M  V30 3921 O 367.859 0.380984 -2.68814 0
M  V30 3922 C 366.315 -2.20151 -2.84713 0
M  V30 3923 C 365.923 -3.68331 -2.55021 0
M  V30 3924 C 367.667 -2.20508 -3.62735 0
M  V30 3925 C 365.574 -4.54762 -3.78082 0
M  V30 3926 H 364.504 -0.466573 -0.592306 0
M  V30 3927 H 367.155 -1.59283 -0.911116 0
M  V30 3928 H 365.537 -1.79417 -3.53023 0
M  V30 3929 H 366.711 -4.17577 -1.94849 0
M  V30 3930 H 365.026 -3.7038 -1.90283 0
M  V30 3931 H 367.623 -2.82306 -4.54101 0
M  V30 3932 H 367.966 -1.20322 -3.98533 0
M  V30 3933 H 368.499 -2.59664 -3.01362 0
M  V30 3934 H 365.238 -5.55867 -3.47407 0
M  V30 3935 H 364.758 -4.10254 -4.37552 0
M  V30 3936 H 366.437 -4.69153 -4.45538 0
M  V30 3937 N 366.569 1.04691 -1.17803 0
M  V30 3938 C 367.846 1.7472 -0.879328 0
M  V30 3939 C 368.226 2.01812 0.619271 0
M  V30 3940 O 367.574 1.65824 1.57209 0
M  V30 3941 C 367.784 3.03686 -1.71976 0
M  V30 3942 C 369.132 3.77542 -1.94286 0
M  V30 3943 O 370.156 3.13569 -1.68976 0
M  V30 3944 O 369.015 4.92506 -2.36855 0
M  V30 3945 H 366.109 0.760011 -0.326056 0
M  V30 3946 H 368.655 1.10813 -1.28525 0
M  V30 3947 H 367.427 2.79754 -2.73594 0
M  V30 3948 H 367.05 3.75332 -1.31194 0
M  V30 3949 N 368.047 0.979072 1.23499 0
M  V30 3950 C 369.296 0.642751 1.91185 0
M  V30 3951 C 369.609 -0.827253 1.77245 0
M  V30 3952 O 370.815 -1.27458 2.39722 0
M  V30 3953 C 369.271 1.09901 3.42709 0
M  V30 3954 C 368.879 2.59327 3.65313 0
M  V30 3955 C 370.623 0.836371 4.16179 0
M  V30 3956 C 368.53 2.98627 5.10467 0
M  V30 3957 H 367.46 0.236698 0.715884 0
M  V30 3958 H 370.111 1.1868 1.39955 0
M  V30 3959 H 368.493 0.48319 3.93041 0
M  V30 3960 H 369.667 3.26136 3.25533 0
M  V30 3961 H 367.982 2.83323 3.05151 0
M  V30 3962 H 370.579 1.10586 5.23139 0
M  V30 3963 H 370.922 -0.227509 4.15678 0
M  V30 3964 H 371.455 1.41371 3.71832 0
M  V30 3965 H 368.194 4.04133 5.16098 0
M  V30 3966 H 367.714 2.3651 5.51201 0
M  V30 3967 H 369.393 2.89159 5.78788 0
M  V30 3968 N 369.525 -1.3858 0.750561 0
M  V30 3969 C 370.473 -2.32339 0.110162 0
M  V30 3970 C 371.467 -1.53864 -0.708674 0
M  V30 3971 O 372.673 -1.69417 -0.608112 0
M  V30 3972 H 369.048 -0.751812 0.0168275 0
M  V30 3973 H 371.019 -2.83959 0.917053 0
M  V30 3974 C 369.768 -3.39043 -0.771067 0
M  V30 3975 H 369.091 -3.99517 -0.150374 0
M  V30 3976 H 370.531 -4.07061 -1.1865 0
M  V30 3977 C 368.99 -2.77365 -1.91234 0
M  V30 3978 O 369.52 -2.66434 -3.00626 0
M  V30 3979 N 367.726 -2.35219 -1.70646 0
M  V30 3980 H 367.273 -2.4431 -0.81673 0
M  V30 3981 H 367.231 -1.94294 -2.47178 0
M  V30 3982 N 371.003 -0.499398 -1.49478 0
M  V30 3983 C 372.249 0.0457576 -2.02748 0
M  V30 3984 C 372.582 1.36793 -1.37846 0
M  V30 3985 O 371.857 1.87596 -0.513601 0
M  V30 3986 C 372.14 0.199986 -3.59544 0
M  V30 3987 C 371.993 -1.1452 -4.34977 0
M  V30 3988 C 373.312 0.94137 -4.29914 0
M  V30 3989 H 370.431 0.0151552 -0.736844 0
M  V30 3990 H 373.073 -0.650498 -1.78518 0
M  V30 3991 H 371.223 0.793007 -3.8032 0
M  V30 3992 H 372.895 -1.77697 -4.25701 0
M  V30 3993 H 371.138 -1.73488 -3.97598 0
M  V30 3994 H 371.809 -0.990607 -5.43039 0
M  V30 3995 H 374.285 0.43844 -4.13784 0
M  V30 3996 H 373.161 1.01812 -5.39375 0
M  V30 3997 H 373.422 1.98471 -3.95046 0
M  V30 3998 N 372.481 1.55866 -0.233164 0
M  V30 3999 C 373.729 1.9821 0.394593 0
M  V30 4000 C 374.05 1.12234 1.59463 0
M  V30 4001 O 373.32 0.201981 1.94856 0
M  V30 4002 H 371.9 0.732034 0.148778 0
M  V30 4003 H 374.562 1.92107 -0.32876 0
M  V30 4004 H 373.658 3.03845 0.713063 0
M  V30 4005 N 373.959 -0.0401083 1.57549 0
M  V30 4006 C 375.206 -0.733125 1.88763 0
M  V30 4007 C 375.534 -1.75946 0.829058 0
M  V30 4008 O 374.789 -1.94949 -0.171323 0
M  V30 4009 C 375.088 -1.44902 3.26708 0
M  V30 4010 C 374.754 -0.559707 4.47413 0
M  V30 4011 C 373.416 -0.314731 4.8017 0
M  V30 4012 C 375.768 0.0549743 5.21171 0
M  V30 4013 C 373.096 0.553886 5.8408 0
M  V30 4014 C 375.448 0.911229 6.26003 0
M  V30 4015 C 374.112 1.16577 6.57241 0
M  V30 4016 H 373.382 -0.268269 0.690733 0
M  V30 4017 H 376.029 0.00679408 1.91499 0
M  V30 4018 H 374.334 -2.26197 3.1991 0
M  V30 4019 H 376.031 -1.99058 3.48105 0
M  V30 4020 H 372.621 -0.760793 4.21794 0
M  V30 4021 H 376.805 -0.121344 4.96152 0
M  V30 4022 H 372.061 0.759518 6.06664 0
M  V30 4023 H 376.235 1.3941 6.82303 0
M  V30 4024 H 373.862 1.84058 7.37582 0
M  V30 4025 N 375.437 -1.54477 -0.31217 0
M  V30 4026 C 376.714 -1.63891 -1.06767 0
M  V30 4027 C 377.094 -0.480028 -2.0557 0
M  V30 4028 O 376.442 0.524487 -2.22399 0
M  V30 4029 C 376.652 -3.01402 -1.75948 0
M  V30 4030 C 378 -3.57838 -2.28554 0
M  V30 4031 O 379.024 -3.03782 -1.85998 0
M  V30 4032 O 377.883 -4.52462 -3.06497 0
M  V30 4033 H 374.977 -0.664125 -0.492816 0
M  V30 4034 H 377.523 -1.66823 -0.311149 0
M  V30 4035 H 376.295 -3.77187 -1.04144 0
M  V30 4036 H 375.918 -3.02199 -2.58383 0
M  V30 4037 N 376.915 0.57481 -1.46744 0
M  V30 4038 C 378.14 1.36341 -1.56288 0
M  V30 4039 C 378.565 1.86954 -0.207347 0
M  V30 4040 O 377.923 1.62006 0.813871 0
M  V30 4041 C 377.971 2.52147 -2.57787 0
M  V30 4042 O 377.075 3.53834 -2.11838 0
M  V30 4043 H 376.416 0.405713 -0.525636 0
M  V30 4044 H 378.946 0.696453 -1.92382 0
M  V30 4045 H 378.956 2.98958 -2.77648 0
M  V30 4046 H 377.631 2.14663 -3.5622 0
M  V30 4047 H 376.208 3.1345 -2.01999 0
M  V30 4048 N 378.394 1.34581 0.820102 0
M  V30 4049 C 379.642 1.26845 1.57336 0
M  V30 4050 C 379.963 -0.160667 1.94337 0
M  V30 4051 O 379.233 -1.09396 1.6251 0
M  V30 4052 H 377.813 0.466514 0.583415 0
M  V30 4053 H 380.475 1.68526 0.979027 0
M  V30 4054 H 379.571 1.87513 2.4949 0
M  V30 4055 N 379.872 -1.04064 1.18357 0
M  V30 4056 C 381.121 -1.76662 0.973313 0
M  V30 4057 C 381.434 -1.89154 -0.497991 0
M  V30 4058 O 382.64 -2.58606 -0.826762 0
M  V30 4059 C 381.096 -3.17624 1.69242 0
M  V30 4060 C 380.704 -3.13225 3.20303 0
M  V30 4061 C 382.448 -3.946 1.56497 0
M  V30 4062 C 380.355 -4.49046 3.84853 0
M  V30 4063 H 379.285 -0.662214 0.36054 0
M  V30 4064 H 381.936 -1.16553 1.41731 0
M  V30 4065 H 380.318 -3.78129 1.1762 0
M  V30 4066 H 381.492 -2.62172 3.78949 0
M  V30 4067 H 379.807 -2.49749 3.33189 0
M  V30 4068 H 382.404 -4.95042 2.02084 0
M  V30 4069 H 382.747 -4.13074 0.517243 0
M  V30 4070 H 383.28 -3.4067 2.05399 0
M  V30 4071 H 380.019 -4.35777 4.89672 0
M  V30 4072 H 379.539 -5.00203 3.30994 0
M  V30 4073 H 381.218 -5.17961 3.87718 0
M  V30 4074 N 381.35 -0.985608 -1.22978 0
M  V30 4075 C 382.627 -0.573599 -1.87001 0
M  V30 4076 C 383.007 0.949213 -1.88555 0
M  V30 4077 O 382.355 1.82811 -1.37086 0
M  V30 4078 C 382.565 -1.18564 -3.28243 0
M  V30 4079 C 383.913 -1.28163 -4.04796 0
M  V30 4080 O 384.937 -1.13949 -3.37482 0
M  V30 4081 O 383.796 -1.50832 -5.25273 0
M  V30 4082 H 380.89 -0.193868 -0.803955 0
M  V30 4083 H 383.436 -1.08102 -1.30813 0
M  V30 4084 H 382.208 -2.22758 -3.21706 0
M  V30 4085 H 381.831 -0.663363 -3.92027 0
M  V30 4086 N 382.828 1.3818 -0.7579 0
M  V30 4087 C 384.244 1.5353 -0.435972 0
M  V30 4088 C 384.444 1.71961 1.05032 0
M  V30 4089 O 383.5 1.73307 1.83633 0
M  V30 4090 C 384.813 2.73989 -1.23898 0
M  V30 4091 C 386.361 2.87841 -1.22949 0
M  V30 4092 C 386.836 4.11266 -2.01554 0
M  V30 4093 N 388.327 4.18352 -1.98837 0
M  V30 4094 C 389.062 5.12856 -2.5645 0
M  V30 4095 N 388.558 6.13005 -3.22794 0
M  V30 4096 N 390.351 5.05238 -2.46356 0
M  V30 4097 H 382.502 1.24467 -1.7211 0
M  V30 4098 H 384.765 0.604982 -0.729864 0
M  V30 4099 H 384.471 2.66789 -2.29165 0
M  V30 4100 H 384.345 3.67294 -0.858764 0
M  V30 4101 H 386.732 2.9452 -0.184854 0
M  V30 4102 H 386.813 1.95534 -1.64924 0
M  V30 4103 H 386.457 4.05349 -3.06031 0
M  V30 4104 H 386.387 5.02661 -1.5697 0
M  V30 4105 H 388.878 3.46628 -1.50524 0
M  V30 4106 H 389.191 6.81619 -3.64165 0
M  V30 4107 H 387.536 6.13325 -3.2689 0
M  V30 4108 H 390.727 4.25938 -1.9415 0
M  V30 4109 H 390.9 5.78707 -2.91552 0
M  V30 4110 N 384.306 0.507319 1.49211 0
M  V30 4111 C 385.555 -0.0368315 2.01666 0
M  V30 4112 C 385.868 -1.37459 1.39156 0
M  V30 4113 O 387.074 -2.00579 1.82976 0
M  V30 4114 C 385.53 -0.116089 3.59713 0
M  V30 4115 C 385.138 1.2154 4.31198 0
M  V30 4116 C 386.882 -0.610268 4.2009 0
M  V30 4117 C 384.789 1.09796 5.81119 0
M  V30 4118 H 383.719 -0.0175376 0.753796 0
M  V30 4119 H 386.37 0.647691 1.71689 0
M  V30 4120 H 384.752 -0.8652 3.86433 0
M  V30 4121 H 385.926 1.9783 4.16173 0
M  V30 4122 H 384.241 1.64352 3.82593 0
M  V30 4123 H 386.838 -0.715742 5.29888 0
M  V30 4124 H 387.181 -1.61064 3.8388 0
M  V30 4125 H 387.714 0.0824916 3.97714 0
M  V30 4126 H 384.453 2.0728 6.21864 0
M  V30 4127 H 383.973 0.376058 5.9862 0
M  V30 4128 H 385.652 0.779281 6.4229 0
M  V30 4129 N 385.784 -1.5574 0.241426 0
M  V30 4130 C 387.031 -1.9881 -0.384836 0
M  V30 4131 C 387.359 -1.12947 -1.58346 0
M  V30 4132 O 386.614 -0.178993 -1.9488 0
M  V30 4133 C 386.913 -3.47308 -0.843317 0
M  V30 4134 C 386.579 -4.50223 0.246946 0
M  V30 4135 C 385.241 -4.78088 0.546399 0
M  V30 4136 C 387.593 -5.11841 0.983282 0
M  V30 4137 C 384.921 -5.64846 1.58636 0
M  V30 4138 C 387.273 -5.99727 2.01272 0
M  V30 4139 C 385.937 -6.25927 2.31888 0
M  V30 4140 H 385.207 -0.727496 -0.140821 0
M  V30 4141 H 387.854 -1.8831 0.348106 0
M  V30 4142 H 386.159 -3.55112 -1.65537 0
M  V30 4143 H 387.856 -3.78017 -1.33806 0
M  V30 4144 H 384.446 -4.286 0.00340639 0
M  V30 4145 H 388.63 -4.90366 0.765182 0
M  V30 4146 H 383.886 -5.83403 1.82896 0
M  V30 4147 H 388.06 -6.46517 2.58823 0
M  V30 4148 H 385.687 -6.92949 3.12611 0
M  V30 4149 N 387.262 0.0317525 -1.57568 0
M  V30 4150 C 388.192 1.03274 -2.0942 0
M  V30 4151 C 389.173 1.3788 -0.996143 0
M  V30 4152 O 390.358 1.46811 -1.27122 0
M  V30 4153 C 387.488 2.33448 -2.57137 0
M  V30 4154 C 386.442 2.13091 -3.71182 0
M  V30 4155 C 385.768 3.49001 -4.05095 0
M  V30 4156 C 387.068 1.51928 -4.99715 0
M  V30 4157 H 388.762 0.60112 -2.93303 0
M  V30 4158 H 386.308 0.287705 -1.41097 0
M  V30 4159 H 388.261 3.03802 -2.92032 0
M  V30 4160 H 386.985 2.78665 -1.70333 0
M  V30 4161 H 385.644 1.45171 -3.36632 0
M  V30 4162 H 385.292 3.91862 -3.15362 0
M  V30 4163 H 384.992 3.36207 -4.81911 0
M  V30 4164 H 386.516 4.20721 -4.42522 0
M  V30 4165 H 387.93 2.12196 -5.32584 0
M  V30 4166 H 386.327 1.49716 -5.81124 0
M  V30 4167 H 387.397 0.484811 -4.8247 0
M  V30 4168 N 388.74 1.54641 0.303973 0
M  V30 4169 C 389.986 1.74038 1.04109 0
M  V30 4170 C 390.319 0.523051 1.87024 0
M  V30 4171 O 389.594 -0.479874 1.88487 0
M  V30 4172 C 389.877 3.02761 1.94955 0
M  V30 4173 C 389.73 4.34787 1.1524 0
M  V30 4174 C 391.049 3.27336 2.94175 0
M  V30 4175 H 388.168 0.63323 0.377079 0
M  V30 4176 H 390.81 1.87354 0.316001 0
M  V30 4177 H 388.96 2.9154 2.56782 0
M  V30 4178 H 390.632 4.57922 0.557236 0
M  V30 4179 H 388.875 4.31407 0.455053 0
M  V30 4180 H 389.546 5.21116 1.8205 0
M  V30 4181 H 392.022 3.38148 2.42477 0
M  V30 4182 H 390.898 4.18726 3.54908 0
M  V30 4183 H 391.159 2.45491 3.67677 0
M  V30 4184 N 390.218 -0.567019 1.47046 0
M  V30 4185 C 391.443 -1.3551 1.57009 0
M  V30 4186 C 391.868 -1.86841 0.217259 0
M  V30 4187 O 391.226 -1.62435 -0.805268 0
M  V30 4188 C 391.274 -2.50777 2.5912 0
M  V30 4189 O 390.378 -3.52706 2.13711 0
M  V30 4190 H 389.719 -0.402919 0.52778 0
M  V30 4191 H 392.249 -0.686241 1.92748 0
M  V30 4192 H 392.259 -2.97481 2.79229 0
M  V30 4193 H 390.934 -2.12771 3.57353 0
M  V30 4194 H 389.511 -3.12374 2.03659 0
M  V30 4195 N 391.696 -1.35014 -0.812953 0
M  V30 4196 C 393.107 -1.25035 -1.38648 0
M  V30 4197 C 393.458 0.119967 -1.95833 0
M  V30 4198 O 392.583 1.02069 -1.90816 0
M  V30 4199 C 393.178 -2.26394 -2.52054 0
M  V30 4200 C 391.737 -2.20175 -3.05287 0
M  V30 4201 C 390.884 -2.12451 -1.78213 0
M  V30 4202 H 393.835 -1.46235 -0.616516 0
M  V30 4203 H 393.856 -1.88672 -3.30429 0
M  V30 4204 H 393.368 -3.26116 -2.10404 0
M  V30 4205 H 391.469 -1.23841 -3.51417 0
M  V30 4206 H 391.582 -3.11863 -3.63701 0
M  V30 4207 H 389.946 -1.58328 -1.9951 0
M  V30 4208 H 390.729 -3.14024 -1.38723 0
M  V30 4209 N 393.175 1.03435 -1.18907 0
M  V30 4210 C 394.424 1.76143 -0.982669 0
M  V30 4211 C 394.737 1.89416 0.487953 0
M  V30 4212 O 395.943 2.59041 0.813036 0
M  V30 4213 C 394.399 3.16722 -1.70924 0
M  V30 4214 C 394.007 3.11522 -3.21959 0
M  V30 4215 C 395.751 3.93764 -1.58588 0
M  V30 4216 C 393.658 4.46999 -3.87228 0
M  V30 4217 H 392.588 0.660292 -0.364047 0
M  V30 4218 H 395.239 1.158 -1.42347 0
M  V30 4219 H 393.621 3.775 -1.19623 0
M  V30 4220 H 394.795 2.60158 -3.80335 0
M  V30 4221 H 393.11 2.47978 -3.34508 0
M  V30 4222 H 395.707 4.93963 -2.04707 0
M  V30 4223 H 396.05 4.12794 -0.539142 0
M  V30 4224 H 396.583 3.39576 -2.07203 0
M  V30 4225 H 393.322 4.33174 -4.91976 0
M  V30 4226 H 392.842 4.98441 -3.33642 0
M  V30 4227 H 394.521 5.15898 -3.90459 0
M  V30 4228 N 394.653 0.992116 1.22453 0
M  V30 4229 C 395.881 0.685944 1.95198 0
M  V30 4230 C 396.296 -0.749233 1.73297 0
M  V30 4231 O 395.653 -1.50549 1.03156 0
M  V30 4232 C 395.704 0.981395 3.47924 0
M  V30 4233 O 395.425 2.36018 3.6909 0
M  V30 4234 C 396.926 0.692815 4.37853 0
M  V30 4235 H 394.146 0.253821 0.621141 0
M  V30 4236 H 396.69 1.32668 1.55626 0
M  V30 4237 H 394.845 0.386481 3.85467 0
M  V30 4238 H 395.259 2.45884 4.63294 0
M  V30 4239 H 396.733 0.949818 5.43767 0
M  V30 4240 H 397.21 -0.373181 4.37612 0
M  V30 4241 H 397.816 1.26874 4.05935 0
M  V30 4242 N 396.131 -1.37776 0.765217 0
M  V30 4243 C 397.38 -1.99092 0.323307 0
M  V30 4244 C 397.693 -1.61434 -1.10446 0
M  V30 4245 O 398.899 -2.15805 -1.64743 0
M  V30 4246 C 397.355 -3.56019 0.527098 0
M  V30 4247 C 396.963 -4.0262 1.96471 0
M  V30 4248 C 398.707 -4.2424 0.148483 0
M  V30 4249 C 396.614 -5.52233 2.11644 0
M  V30 4250 H 395.544 -0.744846 0.117137 0
M  V30 4251 H 398.195 -1.57391 0.943417 0
M  V30 4252 H 396.577 -3.95667 -0.162372 0
M  V30 4253 H 397.751 -3.74234 2.68859 0
M  V30 4254 H 396.066 -3.47161 2.29931 0
M  V30 4255 H 398.663 -5.34159 0.240456 0
M  V30 4256 H 399.006 -4.06446 -0.900422 0
M  V30 4257 H 399.539 -3.89872 0.79025 0
M  V30 4258 H 396.278 -5.74945 3.1483 0
M  V30 4259 H 395.798 -5.82324 1.4373 0
M  V30 4260 H 397.477 -6.18106 1.91193 0
M  V30 4261 N 397.609 -0.515225 -1.4894 0
M  V30 4262 C 398.855 0.0242508 -2.02785 0
M  V30 4263 C 399.188 1.35323 -1.39289 0
M  V30 4264 O 398.463 1.87041 -0.533469 0
M  V30 4265 C 398.746 0.16184 -3.59736 0
M  V30 4266 C 398.599 -1.19127 -4.33738 0
M  V30 4267 C 399.918 0.895719 -4.30888 0
M  V30 4268 H 397.037 0.00733914 -0.736963 0
M  V30 4269 H 399.679 -0.669395 -1.77818 0
M  V30 4270 H 397.829 0.752624 -3.8114 0
M  V30 4271 H 399.501 -1.82202 -4.23792 0
M  V30 4272 H 397.744 -1.77695 -3.95736 0
M  V30 4273 H 398.415 -1.04815 -5.41957 0
M  V30 4274 H 400.891 0.394528 -4.14225 0
M  V30 4275 H 399.767 0.960859 -5.40425 0
M  V30 4276 H 400.028 1.9427 -3.97129 0
M  V30 4277 N 399.087 1.5561 -0.249682 0
M  V30 4278 C 400.037 2.18157 0.662673 0
M  V30 4279 C 401.021 1.1383 1.13717 0
M  V30 4280 O 402.213 1.39731 1.08648 0
M  V30 4281 C 399.342 2.88672 1.85805 0
M  V30 4282 C 398.428 4.00258 1.40193 0
M  V30 4283 N 398.819 5.01473 0.660213 0
M  V30 4284 C 397.117 4.12864 1.68698 0
M  V30 4285 C 397.818 5.80155 0.423695 0
M  V30 4286 N 396.794 5.34533 0.988721 0
M  V30 4287 H 400.596 2.93769 0.0878688 0
M  V30 4288 H 398.11 1.62316 -0.0521183 0
M  V30 4289 H 400.107 3.31912 2.5227 0
M  V30 4290 H 398.767 2.14564 2.43705 0
M  V30 4291 H 399.778 5.16971 0.310047 0
M  V30 4292 H 396.455 3.4993 2.27717 0
M  V30 4293 H 397.845 6.71688 -0.168616 0
M  V30 4294 N 400.565 -0.0233959 1.57583 0
M  V30 4295 C 401.475 -1.03907 2.10334 0
M  V30 4296 C 402.491 -1.39257 1.04323 0
M  V30 4297 O 403.667 -1.48462 1.36091 0
M  V30 4298 C 400.732 -2.31938 2.57693 0
M  V30 4299 C 399.793 -2.03117 3.78209 0
M  V30 4300 C 399.026 -3.25043 4.233 0
M  V30 4301 O 399.249 -4.35916 3.67876 0
M  V30 4302 O 398.183 -3.10411 5.15683 0
M  V30 4303 H 402.009 -0.620748 2.97288 0
M  V30 4304 H 399.594 -0.240743 1.47448 0
M  V30 4305 H 401.476 -3.07196 2.88458 0
M  V30 4306 H 400.151 -2.73055 1.73847 0
M  V30 4307 H 399.058 -1.25408 3.52454 0
M  V30 4308 H 400.391 -1.66852 4.63056 0
M  V30 4309 N 402.043 -1.548 -0.295768 0
M  V30 4310 C 403.292 -1.73538 -1.02798 0
M  V30 4311 C 403.605 -0.531159 -1.8825 0
M  V30 4312 O 404.811 -0.600458 -2.64777 0
M  V30 4313 C 403.267 -3.07051 -1.87744 0
M  V30 4314 C 402.875 -4.34968 -1.07269 0
M  V30 4315 C 404.619 -3.35146 -2.60533 0
M  V30 4316 C 402.526 -5.5953 -1.91521 0
M  V30 4317 H 401.456 -0.646794 -0.387522 0
M  V30 4318 H 404.107 -1.81278 -0.284718 0
M  V30 4319 H 402.489 -2.93289 -2.66078 0
M  V30 4320 H 403.663 -4.5958 -0.335117 0
M  V30 4321 H 401.978 -4.13847 -0.460384 0
M  V30 4322 H 404.575 -4.2541 -3.23929 0
M  V30 4323 H 404.918 -2.54255 -3.29636 0
M  V30 4324 H 405.451 -3.49902 -1.89244 0
M  V30 4325 H 402.19 -6.43103 -1.26878 0
M  V30 4326 H 401.71 -5.39096 -2.62937 0
M  V30 4327 H 403.389 -5.96982 -2.49442 0
M  V30 4328 N 403.521 0.559213 -1.47345 0
M  V30 4329 C 404.798 1.31997 -1.44348 0
M  V30 4330 C 405.178 2.1064 -0.139358 0
M  V30 4331 O 404.526 2.1091 0.879153 0
M  V30 4332 C 404.736 2.22618 -2.68779 0
M  V30 4333 C 406.084 2.83701 -3.1591 0
M  V30 4334 O 407.108 2.32921 -2.69493 0
M  V30 4335 O 405.967 3.75993 -3.966 0
M  V30 4336 H 403.061 0.594251 -0.575147 0
M  V30 4337 H 405.607 0.578282 -1.59543 0
M  V30 4338 H 404.379 1.64093 -3.55231 0
M  V30 4339 H 404.002 3.04085 -2.5616 0
M  V30 4340 N 404.999 1.35443 0.805782 0
M  V30 4341 C 405.909 1.30546 1.94923 0
M  V30 4342 C 406.925 0.210233 1.72725 0
M  V30 4343 O 408.101 0.43975 1.9654 0
M  V30 4344 C 405.166 1.07782 3.29521 0
M  V30 4345 C 404.227 2.26625 3.64609 0
M  V30 4346 C 403.46 2.04938 4.92784 0
M  V30 4347 O 403.683 1.01624 5.61274 0
M  V30 4348 O 402.617 2.9232 5.26149 0
M  V30 4349 H 406.443 2.26779 2.02002 0
M  V30 4350 H 404.028 1.15823 0.943682 0
M  V30 4351 H 405.91 0.969392 4.10098 0
M  V30 4352 H 404.585 0.146003 3.23371 0
M  V30 4353 H 403.492 2.43033 2.84404 0
M  V30 4354 H 404.825 3.18257 3.75464 0
M  V30 4355 N 406.477 -1.02803 1.19454 0
M  V30 4356 C 407.754 -1.73299 0.907013 0
M  V30 4357 C 408.134 -2.02772 -0.587086 0
M  V30 4358 O 407.482 -1.68304 -1.54551 0
M  V30 4359 C 407.692 -3.00912 1.76785 0
M  V30 4360 C 409.04 -3.74403 2.00268 0
M  V30 4361 O 410.064 -3.10841 1.73943 0
M  V30 4362 O 408.923 -4.88675 2.4466 0
M  V30 4363 H 406.017 -0.754727 0.338106 0
M  V30 4364 H 408.563 -1.08754 1.30271 0
M  V30 4365 H 407.335 -2.75366 2.7801 0
M  V30 4366 H 406.958 -3.73197 1.37149 0
M  V30 4367 N 407.956 -0.998596 -1.21925 0
M  V30 4368 C 409.181 -0.696015 -1.95372 0
M  V30 4369 C 409.606 0.733826 -1.73195 0
M  V30 4370 O 408.964 1.50242 -1.01474 0
M  V30 4371 C 409.012 -1.01466 -3.4603 0
M  V30 4372 O 408.116 -0.116415 -4.12236 0
M  V30 4373 H 407.457 -0.259938 -0.611006 0
M  V30 4374 H 409.987 -1.33711 -1.54863 0
M  V30 4375 H 409.997 -0.958855 -3.96573 0
M  V30 4376 H 408.672 -2.05653 -3.61497 0
M  V30 4377 H 407.249 -0.228193 -3.72201 0
M  V30 4378 N 409.434 1.37368 -0.772513 0
M  V30 4379 C 410.845 1.8231 -0.402493 0
M  V30 4380 C 411.196 1.6436 1.07146 0
M  V30 4381 O 410.321 1.15514 1.82991 0
M  V30 4382 C 410.916 3.30979 -0.723776 0
M  V30 4383 C 409.475 3.74195 -0.406802 0
M  V30 4384 C 408.622 2.59885 -0.967218 0
M  V30 4385 H 411.573 1.25829 -0.967099 0
M  V30 4386 H 411.594 3.80499 -0.00870832 0
M  V30 4387 H 411.106 3.44011 -1.7966 0
M  V30 4388 H 409.207 3.66732 0.658673 0
M  V30 4389 H 409.32 4.7027 -0.915588 0
M  V30 4390 H 407.684 2.51674 -0.391416 0
M  V30 4391 H 408.467 2.7571 -2.04546 0
M  V30 4392 N 410.912 0.523116 1.48665 0
M  V30 4393 C 411.842 -0.23231 2.32342 0
M  V30 4394 C 412.823 -0.941637 1.41659 0
M  V30 4395 O 414.008 -0.928751 1.70552 0
M  V30 4396 C 411.138 -1.28387 3.22698 0
M  V30 4397 C 410.092 -0.693098 4.22351 0
M  V30 4398 C 409.418 -1.8468 5.01794 0
M  V30 4399 C 410.718 0.33063 5.21252 0
M  V30 4400 H 412.412 0.466192 2.95748 0
M  V30 4401 H 409.958 0.225643 1.42221 0
M  V30 4402 H 411.911 -1.82024 3.80059 0
M  V30 4403 H 410.635 -2.01186 2.57278 0
M  V30 4404 H 409.294 -0.178299 3.66166 0
M  V30 4405 H 408.942 -2.56301 4.32804 0
M  V30 4406 H 408.642 -1.45747 5.69238 0
M  V30 4407 H 410.166 -2.38709 5.62006 0
M  V30 4408 H 411.58 -0.118407 5.73178 0
M  V30 4409 H 409.977 0.636974 5.9671 0
M  V30 4410 H 411.047 1.23883 4.68808 0
M  V30 4411 N 412.39 -1.55475 0.257931 0
M  V30 4412 C 413.62 -2.03314 -0.367026 0
M  V30 4413 C 414.028 -1.13625 -1.51281 0
M  V30 4414 O 413.371 -0.145334 -1.83124 0
M  V30 4415 C 413.433 -3.47362 -0.926284 0
M  V30 4416 C 413.097 -4.56914 0.0886584 0
M  V30 4417 C 414.094 -5.12013 0.902123 0
M  V30 4418 C 411.779 -5.01827 0.217936 0
M  V30 4419 C 413.773 -6.10529 1.83122 0
M  V30 4420 C 411.46 -6.00172 1.15052 0
M  V30 4421 C 412.458 -6.54402 1.95568 0
M  V30 4422 O 412.146 -7.50827 2.87253 0
M  V30 4423 H 411.878 -0.669976 -0.0900443 0
M  V30 4424 H 414.432 -2.01804 0.382673 0
M  V30 4425 H 412.662 -3.46056 -1.72575 0
M  V30 4426 H 414.351 -3.78637 -1.46249 0
M  V30 4427 H 415.117 -4.78139 0.812891 0
M  V30 4428 H 410.996 -4.59272 -0.398721 0
M  V30 4429 H 414.54 -6.52783 2.46008 0
M  V30 4430 H 410.437 -6.33465 1.24064 0
M  V30 4431 H 411.205 -7.68483 2.81739 0
M  V30 4432 N 413.868 0.0150385 -1.57593 0
M  V30 4433 C 415.145 0.7392 -1.81094 0
M  V30 4434 C 415.525 1.92817 -0.859344 0
M  V30 4435 O 414.873 2.28301 0.095362 0
M  V30 4436 C 415.083 1.15907 -3.29191 0
M  V30 4437 C 416.431 1.56918 -3.9454 0
M  V30 4438 O 417.455 1.25328 -3.33424 0
M  V30 4439 O 416.314 2.15604 -5.02173 0
M  V30 4440 H 413.408 0.358631 -0.745193 0
M  V30 4441 H 415.954 -0.00926156 -1.69697 0
M  V30 4442 H 414.726 0.310921 -3.90063 0
M  V30 4443 H 414.349 1.96711 -3.45529 0
M  V30 4444 N 415.346 1.54954 0.287554 0
M  V30 4445 C 416.276 1.89839 1.35954 0
M  V30 4446 C 417.257 0.758675 1.52244 0
M  V30 4447 O 418.442 1.01557 1.65529 0
M  V30 4448 C 415.572 2.15753 2.72154 0
M  V30 4449 C 414.526 3.3159 2.70614 0
M  V30 4450 C 413.852 3.42952 4.10229 0
M  V30 4451 C 415.152 4.68359 2.31165 0
M  V30 4452 H 416.846 2.79625 1.07007 0
M  V30 4453 H 414.392 1.3454 0.513316 0
M  V30 4454 H 416.345 2.38743 3.47246 0
M  V30 4455 H 415.069 1.22752 3.02654 0
M  V30 4456 H 413.728 3.08545 1.97979 0
M  V30 4457 H 413.376 2.47443 4.37928 0
M  V30 4458 H 413.076 4.20826 4.10097 0
M  V30 4459 H 414.6 3.68218 4.87081 0
M  V30 4460 H 416.014 4.9099 2.95976 0
M  V30 4461 H 414.411 5.49044 2.42221 0
M  V30 4462 H 415.481 4.68165 1.26291 0
M  V30 4463 N 416.824 -0.551391 1.4764 0
M  V30 4464 C 418.049 -1.33837 1.58437 0
M  V30 4465 C 418.474 -1.866 0.237063 0
M  V30 4466 O 417.832 -1.6328 -0.787994 0
M  V30 4467 C 417.88 -2.48014 2.61766 0
M  V30 4468 O 416.984 -3.50419 2.1744 0
M  V30 4469 H 416.325 -0.397299 0.532024 0
M  V30 4470 H 418.855 -0.665759 1.93465 0
M  V30 4471 H 418.865 -2.94503 2.82369 0
M  V30 4472 H 417.54 -2.08969 3.5959 0
M  V30 4473 H 416.117 -3.10196 2.06961 0
M  V30 4474 N 418.302 -1.35869 -0.798587 0
M  V30 4475 C 419.249 -1.29446 -1.91082 0
M  V30 4476 C 420.219 -0.16487 -1.6528 0
M  V30 4477 O 421.404 -0.349888 -1.87564 0
M  V30 4478 C 418.544 -1.0804 -3.27752 0
M  V30 4479 C 417.657 -2.29993 -3.65687 0
M  V30 4480 C 416.792 -2.01673 -4.91428 0
M  V30 4481 C 415.831 -3.19636 -5.22015 0
M  V30 4482 N 414.968 -2.91039 -6.38937 0
M  V30 4483 H 419.808 -2.24553 -1.95907 0
M  V30 4484 H 417.345 -1.11615 -0.958148 0
M  V30 4485 H 419.303 -0.936586 -4.06551 0
M  V30 4486 H 417.933 -0.16592 -3.22373 0
M  V30 4487 H 416.985 -2.55211 -2.82085 0
M  V30 4488 H 418.297 -3.18052 -3.84245 0
M  V30 4489 H 417.451 -1.84168 -5.78072 0
M  V30 4490 H 416.19 -1.10911 -4.74921 0
M  V30 4491 H 415.195 -3.37709 -4.33858 0
M  V30 4492 H 416.42 -4.11211 -5.40447 0
M  V30 4493 H 414.366 -2.0288 -6.2384 0
M  V30 4494 H 414.283 -3.72635 -6.57784 0
M  V30 4495 H 415.551 -2.77093 -7.28587 0
M  V30 4496 N 419.78 1.02168 -1.19998 0
M  V30 4497 C 420.712 2.10705 -0.901994 0
M  V30 4498 C 421.725 1.6244 0.108216 0
M  V30 4499 O 422.914 1.78082 -0.12214 0
M  V30 4500 C 420.014 3.37291 -0.329834 0
M  V30 4501 C 419.187 4.14714 -1.39035 0
M  V30 4502 C 418.246 5.19606 -0.830432 0
M  V30 4503 O 417.272 5.48809 -1.50989 0
M  V30 4504 N 418.474 5.79366 0.362696 0
M  V30 4505 H 421.239 2.36856 -1.83628 0
M  V30 4506 H 418.8 1.18518 -1.10296 0
M  V30 4507 H 420.792 4.04657 0.0587633 0
M  V30 4508 H 419.362 3.0843 0.508891 0
M  V30 4509 H 418.582 3.42392 -1.9535 0
M  V30 4510 H 419.87 4.63226 -2.10474 0
M  V30 4511 H 419.268 5.57968 0.932081 0
M  V30 4512 H 417.825 6.48106 0.69299 0
M  V30 4513 N 421.258 1.00505 1.21394 0
M  V30 4514 C 422.535 0.603277 1.86064 0
M  V30 4515 C 422.915 -0.919095 1.90042 0
M  V30 4516 O 422.263 -1.80607 1.39977 0
M  V30 4517 C 422.473 1.23772 3.26315 0
M  V30 4518 C 423.821 1.34586 4.02705 0
M  V30 4519 O 424.845 1.19304 3.35626 0
M  V30 4520 O 423.704 1.59169 5.22807 0
M  V30 4521 H 420.798 0.206634 0.800769 0
M  V30 4522 H 423.344 1.1017 1.29076 0
M  V30 4523 H 422.116 2.27848 3.18121 0
M  V30 4524 H 421.739 0.725648 3.90922 0
M  V30 4525 N 422.737 -1.36956 0.779787 0
M  V30 4526 C 423.986 -1.98738 0.344405 0
M  V30 4527 C 424.299 -1.62596 -1.08728 0
M  V30 4528 O 425.505 -2.1754 -1.62445 0
M  V30 4529 C 423.961 -3.5544 0.564829 0
M  V30 4530 C 423.569 -4.00514 2.0073 0
M  V30 4531 C 425.313 -4.24059 0.193471 0
M  V30 4532 C 423.22 -5.49957 2.17489 0
M  V30 4533 H 422.15 -0.743561 0.12503 0
M  V30 4534 H 424.801 -1.56381 0.960057 0
M  V30 4535 H 423.183 -3.95817 -0.120397 0
M  V30 4536 H 424.357 -3.71362 2.72814 0
M  V30 4537 H 422.672 -3.44703 2.336 0
M  V30 4538 H 425.269 -5.33874 0.297097 0
M  V30 4539 H 425.612 -4.07378 -0.857263 0
M  V30 4540 H 426.145 -3.89012 0.831556 0
M  V30 4541 H 422.884 -5.71574 3.2091 0
M  V30 4542 H 422.404 -5.80767 1.49899 0
M  V30 4543 H 424.083 -6.16043 1.97738 0
M  V30 4544 N 424.215 -0.530993 -1.48385 0
M  V30 4545 C 425.492 0.0671788 -1.95485 0
M  V30 4546 C 425.872 1.51191 -1.47324 0
M  V30 4547 O 425.22 2.17507 -0.700202 0
M  V30 4548 C 425.43 -0.0511206 -3.48963 0
M  V30 4549 C 426.778 0.107632 -4.24464 0
M  V30 4550 O 427.802 0.0226248 -3.56193 0
M  V30 4551 O 426.661 0.285972 -5.45751 0
M  V30 4552 H 423.755 0.0787365 -0.823243 0
M  V30 4553 H 426.301 -0.595662 -1.58902 0
M  V30 4554 H 425.073 -1.05747 -3.7674 0
M  V30 4555 H 424.696 0.650525 -3.92242 0
M  V30 4556 N 425.693 1.55336 -0.266172 0
M  V30 4557 C 426.641 2.23587 0.641228 0
M  V30 4558 C 427.635 1.22986 1.16494 0
M  V30 4559 O 428.841 1.40943 1.1196 0
M  V30 4560 H 425.216 0.717452 0.225315 0
M  V30 4561 H 427.187 2.9837 0.0426561 0
M  V30 4562 C 425.936 2.96369 1.81826 0
M  V30 4563 H 425.259 3.73563 1.42445 0
M  V30 4564 H 426.699 3.47459 2.42998 0
M  V30 4565 C 425.158 2.0133 2.70125 0
M  V30 4566 O 425.688 1.55875 3.70224 0
M  V30 4567 N 423.894 1.6802 2.37102 0
M  V30 4568 H 423.441 2.05181 1.55751 0
M  V30 4569 H 423.399 1.047 2.96454 0
M  V30 4570 N 427.171 -0.0066808 1.57599 0
M  V30 4571 C 428.134 -0.985035 2.06953 0
M  V30 4572 C 429.134 -1.27663 0.977687 0
M  V30 4573 O 430.324 -1.22293 1.24057 0
M  V30 4574 C 427.456 -2.3118 2.50536 0
M  V30 4575 H 428.649 -0.558255 2.94658 0
M  V30 4576 H 426.202 -0.254011 1.54222 0
M  V30 4577 H 426.937 -2.78561 1.66054 0
M  V30 4578 H 426.722 -2.11338 3.3027 0
M  V30 4579 H 428.212 -3.01377 2.8907 0
M  V30 4580 N 428.649 -1.55105 -0.279332 0
M  V30 4581 C 429.926 -1.66119 -1.03267 0
M  V30 4582 C 430.306 -0.523525 -2.04505 0
M  V30 4583 O 429.654 0.477194 -2.23462 0
M  V30 4584 C 429.864 -3.05067 -1.69515 0
M  V30 4585 C 431.212 -3.62606 -2.20912 0
M  V30 4586 O 432.236 -3.07659 -1.79512 0
M  V30 4587 O 431.095 -4.58861 -2.96831 0
M  V30 4588 H 428.189 -0.674429 -0.478618 0
M  V30 4589 H 430.735 -1.67446 -0.275694 0
M  V30 4590 H 429.507 -3.79311 -0.9612 0
M  V30 4591 H 429.13 -3.07611 -2.51915 0
M  V30 4592 N 430.127 0.543554 -1.4793 0
M  V30 4593 C 431.374 1.30008 -1.55255 0
M  V30 4594 C 431.702 1.93245 -0.220612 0
M  V30 4595 O 430.957 1.79141 0.787843 0
M  V30 4596 C 431.256 2.42078 -2.62932 0
M  V30 4597 C 430.922 1.96583 -4.0579 0
M  V30 4598 C 429.584 1.83893 -4.44676 0
M  V30 4599 C 431.936 1.62034 -4.95373 0
M  V30 4600 C 429.264 1.34969 -5.70964 0
M  V30 4601 C 431.616 1.14577 -6.22137 0
M  V30 4602 C 430.28 1.00493 -6.59892 0
M  V30 4603 H 429.55 0.475735 -0.568117 0
M  V30 4604 H 432.197 0.608075 -1.81589 0
M  V30 4605 H 430.502 3.16892 -2.30406 0
M  V30 4606 H 432.199 3.00236 -2.65818 0
M  V30 4607 H 428.789 2.07407 -3.75074 0
M  V30 4608 H 432.973 1.70705 -4.66019 0
M  V30 4609 H 428.229 1.2274 -5.98953 0
M  V30 4610 H 432.403 0.869109 -6.90955 0
M  V30 4611 H 430.03 0.623624 -7.57638 0
M  V30 4612 N 431.605 1.3629 0.791371 0
M  V30 4613 C 432.515 1.32606 1.93527 0
M  V30 4614 C 433.531 0.228541 1.72493 0
M  V30 4615 O 434.707 0.460571 1.96063 0
M  V30 4616 C 431.772 1.11271 3.28359 0
M  V30 4617 C 430.833 2.3048 3.62185 0
M  V30 4618 C 430.066 2.10154 4.90583 0
M  V30 4619 O 430.289 1.07572 5.60165 0
M  V30 4620 O 429.223 2.97884 5.23019 0
M  V30 4621 H 433.049 2.28909 1.99585 0
M  V30 4622 H 430.634 1.16818 0.931344 0
M  V30 4623 H 432.516 1.01283 4.09047 0
M  V30 4624 H 431.191 0.180292 3.23198 0
M  V30 4625 H 430.098 2.46036 2.81811 0
M  V30 4626 H 431.431 3.22221 3.72068 0
M  V30 4627 N 433.083 -1.0153 1.20538 0
M  V30 4628 C 434.332 -1.74558 1.01057 0
M  V30 4629 C 434.645 -1.90168 -0.457756 0
M  V30 4630 O 435.851 -2.60301 -0.771722 0
M  V30 4631 C 434.307 -3.13963 1.75941 0
M  V30 4632 C 433.915 -3.06361 3.26875 0
M  V30 4633 C 435.659 -3.91191 1.64832 0
M  V30 4634 C 433.566 -4.40782 3.94291 0
M  V30 4635 H 432.496 -0.654417 0.374505 0
M  V30 4636 H 435.147 -1.13521 1.44171 0
M  V30 4637 H 433.529 -3.75549 1.25614 0
M  V30 4638 H 434.703 -2.54074 3.84425 0
M  V30 4639 H 433.018 -2.42625 3.38411 0
M  V30 4640 H 435.615 -4.90644 2.12539 0
M  V30 4641 H 435.958 -4.11884 0.604745 0
M  V30 4642 H 436.491 -3.36236 2.12579 0
M  V30 4643 H 433.23 -4.25292 4.98805 0
M  V30 4644 H 432.75 -4.9307 3.41529 0
M  V30 4645 H 434.429 -5.09621 3.98617 0
M  V30 4646 N 434.561 -1.01147 -1.20859 0
M  V30 4647 C 435.807 -0.698899 -1.90377 0
M  V30 4648 C 436.14 0.76904 -1.78324 0
M  V30 4649 O 435.415 1.55817 -1.16409 0
M  V30 4650 C 435.698 -1.12878 -3.41951 0
M  V30 4651 C 435.551 -2.65665 -3.62963 0
M  V30 4652 C 436.87 -0.696114 -4.3456 0
M  V30 4653 H 433.989 -0.255372 -0.691342 0
M  V30 4654 H 436.631 -1.25831 -1.42361 0
M  V30 4655 H 434.781 -0.652827 -3.82976 0
M  V30 4656 H 436.453 -3.21074 -3.31224 0
M  V30 4657 H 434.696 -3.06878 -3.06608 0
M  V30 4658 H 435.367 -2.90797 -4.69192 0
M  V30 4659 H 437.843 -1.10521 -4.01154 0
M  V30 4660 H 436.719 -1.025 -5.39245 0
M  V30 4661 H 436.98 0.402465 -4.40264 0
M  V30 4662 N 436.039 1.36541 -0.78704 0
M  V30 4663 C 437.285 1.99599 -0.358872 0
M  V30 4664 C 437.618 1.62323 1.06606 0
M  V30 4665 O 436.893 0.876858 1.73613 0
M  V30 4666 C 437.176 3.56327 -0.519944 0
M  V30 4667 C 437.029 4.03464 -1.98839 0
M  V30 4668 C 438.348 4.4005 0.0664737 0
M  V30 4669 H 435.467 0.725107 -0.131869 0
M  V30 4670 H 438.109 1.6199 -0.992936 0
M  V30 4671 H 436.259 3.88495 0.0198321 0
M  V30 4672 H 437.931 3.81793 -2.58905 0
M  V30 4673 H 436.174 3.55092 -2.49183 0
M  V30 4674 H 436.845 5.12439 -2.05207 0
M  V30 4675 H 439.321 4.14228 -0.394267 0
M  V30 4676 H 438.197 5.48847 -0.0762682 0
M  V30 4677 H 438.458 4.26655 1.15835 0
M  V30 4678 N 437.518 0.538854 1.48102 0
M  V30 4679 C 438.767 0.0059532 2.01699 0
M  V30 4680 C 439.08 -1.34476 1.42041 0
M  V30 4681 O 440.286 -1.96653 1.87189 0
M  V30 4682 C 438.742 -0.0397627 3.59878 0
M  V30 4683 C 438.35 1.30659 4.28523 0
M  V30 4684 C 440.094 -0.521024 4.2129 0
M  V30 4685 C 438.001 1.22098 5.78659 0
M  V30 4686 H 436.931 -0.00154456 0.753998 0
M  V30 4687 H 439.582 0.683963 1.70277 0
M  V30 4688 H 437.964 -0.783037 3.88181 0
M  V30 4689 H 439.138 2.06613 4.11883 0
M  V30 4690 H 437.453 1.7243 3.79021 0
M  V30 4691 H 440.05 -0.603184 5.31287 0
M  V30 4692 H 440.393 -1.52885 3.8721 0
M  V30 4693 H 440.926 0.166834 3.9745 0
M  V30 4694 H 437.665 2.20424 6.17328 0
M  V30 4695 H 437.185 0.50295 5.97688 0
M  V30 4696 H 438.864 0.915345 6.40492 0
M  V30 4697 N 438.996 -1.55193 0.274407 0
M  V30 4698 C 439.926 -2.25471 -0.607032 0
M  V30 4699 C 440.907 -1.24461 -1.15946 0
M  V30 4700 O 442.092 -1.53179 -1.19373 0
M  V30 4701 C 439.222 -2.97526 -1.79153 0
M  V30 4702 C 438.176 -4.05459 -1.37067 0
M  V30 4703 C 437.502 -4.65084 -2.6382 0
M  V30 4704 C 438.802 -5.19691 -0.521389 0
M  V30 4705 H 440.496 -2.99393 -0.0209343 0
M  V30 4706 H 438.042 -1.43997 -0.00862866 0
M  V30 4707 H 439.995 -3.45402 -2.41404 0
M  V30 4708 H 438.719 -2.21138 -2.40344 0
M  V30 4709 H 437.378 -3.58393 -0.771355 0
M  V30 4710 H 437.026 -3.85365 -3.23268 0
M  V30 4711 H 436.726 -5.37961 -2.36372 0
M  V30 4712 H 438.25 -5.15708 -3.26921 0
M  V30 4713 H 439.664 -5.63623 -1.04889 0
M  V30 4714 H 438.061 -5.99126 -0.341825 0
M  V30 4715 H 439.131 -4.82713 0.46 0
M  V30 4716 N 440.474 -0.00167713 -1.576 0
M  V30 4717 C 441.384 1.00548 -2.1196 0
M  V30 4718 C 442.4 1.3758 -1.06526 0
M  V30 4719 O 443.576 1.46278 -1.38436 0
M  V30 4720 C 440.641 2.27809 -2.6135 0
M  V30 4721 C 439.702 1.97074 -3.81393 0
M  V30 4722 C 438.935 3.18267 -4.28417 0
M  V30 4723 O 439.158 4.30009 -3.74765 0
M  V30 4724 O 438.092 3.02167 -5.20556 0
M  V30 4725 H 441.918 0.573373 -2.98238 0
M  V30 4726 H 439.503 0.217255 -1.47812 0
M  V30 4727 H 441.385 3.02568 -2.93309 0
M  V30 4728 H 440.06 2.70254 -1.78169 0
M  V30 4729 H 438.967 1.19785 -3.54404 0
M  V30 4730 H 440.3 1.59464 -4.65652 0
M  V30 4731 N 441.952 1.55251 0.271103 0
M  V30 4732 C 443.2 1.75599 1.00047 0
M  V30 4733 C 443.521 0.561188 1.8675 0
M  V30 4734 O 442.791 -0.423846 1.9126 0
M  V30 4735 H 441.371 0.647562 0.372387 0
M  V30 4736 H 444.033 1.92656 0.294876 0
M  V30 4737 H 443.129 2.65766 1.6363 0
M  V30 4738 N 443.43 -0.535701 1.48216 0
M  V30 4739 C 444.363 -1.65726 1.56876 0
M  V30 4740 C 445.341 -1.57094 0.419542 0
M  V30 4741 O 446.525 -1.77648 0.630352 0
M  V30 4742 C 443.652 -3.04096 1.49142 0
M  V30 4743 C 442.698 -3.31105 2.68834 0
M  V30 4744 S 443.531 -3.18001 4.30854 0
M  V30 4745 C 444.687 -4.58828 4.25709 0
M  V30 4746 H 444.92 -1.58129 2.51759 0
M  V30 4747 H 442.453 -0.718218 1.36678 0
M  V30 4748 H 444.411 -3.839 1.45366 0
M  V30 4749 H 443.072 -3.09139 0.556067 0
M  V30 4750 H 442.265 -4.32033 2.59545 0
M  V30 4751 H 441.867 -2.58961 2.69843 0
M  V30 4752 H 444.159 -5.5023 3.95289 0
M  V30 4753 H 445.102 -4.73172 5.26796 0
M  V30 4754 H 445.51 -4.37883 3.56257 0
M  V30 4755 N 444.908 -1.36708 -0.784132 0
M  V30 4756 C 446.154 -1.31426 -1.54451 0
M  V30 4757 C 446.487 0.10476 -1.93917 0
M  V30 4758 O 445.762 1.05934 -1.6312 0
M  V30 4759 C 446.045 -2.24189 -2.818 0
M  V30 4760 C 445.898 -3.74813 -2.48667 0
M  V30 4761 C 447.217 -2.15626 -3.83658 0
M  V30 4762 H 444.336 -0.478739 -0.560337 0
M  V30 4763 H 446.978 -1.67305 -0.900498 0
M  V30 4764 H 445.128 -1.93722 -3.36755 0
M  V30 4765 H 446.8 -4.15823 -1.99722 0
M  V30 4766 H 445.043 -3.93989 -1.81535 0
M  V30 4767 H 445.714 -4.35138 -3.39646 0
M  V30 4768 H 448.19 -2.42456 -3.38163 0
M  V30 4769 H 447.066 -2.82694 -4.70506 0
M  V30 4770 H 447.327 -1.14522 -4.27009 0
M  V30 4771 N 446.386 1.0089 -1.21074 0
M  V30 4772 C 447.296 2.13039 -0.982425 0
M  V30 4773 C 448.312 1.73881 0.0642161 0
M  V30 4774 O 449.488 2.01012 -0.12496 0
M  V30 4775 C 446.553 3.42377 -0.545803 0
M  V30 4776 C 445.614 3.95731 -1.6642 0
M  V30 4777 C 444.847 5.18896 -1.24832 0
M  V30 4778 O 445.07 5.70273 -0.120265 0
M  V30 4779 O 444.004 5.65597 -2.05873 0
M  V30 4780 H 447.83 2.35175 -1.92163 0
M  V30 4781 H 445.415 1.1142 -0.995285 0
M  V30 4782 H 447.297 4.20244 -0.311912 0
M  V30 4783 H 445.972 3.21639 0.364727 0
M  V30 4784 H 444.879 3.19108 -1.95246 0
M  V30 4785 H 446.212 4.20872 -2.55201 0
M  V30 4786 N 447.864 1.01787 1.20321 0
M  V30 4787 C 448.827 0.593972 2.2137 0
M  V30 4788 C 449.827 -0.336553 1.57239 0
M  V30 4789 O 451.017 -0.125069 1.7375 0
M  V30 4790 C 448.149 -0.132433 3.40643 0
M  V30 4791 H 449.342 1.48791 2.60387 0
M  V30 4792 H 446.895 0.807803 1.33807 0
M  V30 4793 H 447.63 -1.04123 3.0713 0
M  V30 4794 H 447.415 0.53605 3.88418 0
M  V30 4795 H 448.905 -0.416314 4.1552 0
M  V30 4796 N 449.342 -1.36122 0.79427 0
M  V30 4797 C 450.57 -2.03362 0.380989 0
M  V30 4798 C 450.985 -1.59881 -1.00416 0
M  V30 4799 O 450.342 -0.790515 -1.6449 0
M  V30 4800 C 450.393 -3.58804 0.440649 0
M  V30 4801 O 450.114 -4.007 1.77118 0
M  V30 4802 C 451.615 -4.43296 0.0186117 0
M  V30 4803 H 448.835 -0.652526 0.156367 0
M  V30 4804 H 451.379 -1.73998 1.07447 0
M  V30 4805 H 449.534 -3.8686 -0.204458 0
M  V30 4806 H 449.948 -4.95309 1.72538 0
M  V30 4807 H 451.422 -5.51887 0.111488 0
M  V30 4808 H 451.899 -4.2684 -1.03461 0
M  V30 4809 H 452.505 -4.20512 0.636395 0
M  V30 4810 N 450.82 -0.546701 -1.47814 0
M  V30 4811 C 451.783 0.196287 -2.28358 0
M  V30 4812 C 452.783 0.852437 -1.36346 0
M  V30 4813 O 453.973 0.709913 -1.59078 0
M  V30 4814 C 451.105 1.28579 -3.15722 0
M  V30 4815 H 452.298 -0.511086 -2.95513 0
M  V30 4816 H 449.851 -0.303248 -1.5333 0
M  V30 4817 H 450.586 2.0259 -2.53235 0
M  V30 4818 H 450.371 0.820229 -3.83425 0
M  V30 4819 H 451.861 1.80793 -3.76435 0
M  V30 4820 N 452.299 1.55045 -0.282633 0
M  V30 4821 C 453.232 2.18951 0.64311 0
M  V30 4822 C 454.21 1.15287 1.14664 0
M  V30 4823 O 455.394 1.43846 1.21822 0
M  V30 4824 C 452.521 2.81874 1.87789 0
M  V30 4825 C 451.567 3.98906 1.50919 0
M  V30 4826 S 452.4 5.3234 0.580884 0
M  V30 4827 C 453.556 5.98737 1.82387 0
M  V30 4828 H 453.789 2.97131 0.100138 0
M  V30 4829 H 451.322 1.54255 -0.0668514 0
M  V30 4830 H 453.28 3.18757 2.58658 0
M  V30 4831 H 451.941 2.03573 2.392 0
M  V30 4832 H 451.134 4.4165 2.42819 0
M  V30 4833 H 450.736 3.63485 0.88061 0
M  V30 4834 H 453.028 6.18427 2.76684 0
M  V30 4835 H 453.971 6.93318 1.4393 0
M  V30 4836 H 454.379 5.28177 1.99223 0
M  V30 4837 N 453.777 0.010035 1.57597 0
M  V30 4838 C 455.005 -0.683413 1.95287 0
M  V30 4839 C 455.42 -1.66747 0.885481 0
M  V30 4840 O 454.777 -1.82003 -0.134629 0
M  V30 4841 C 454.828 -1.40652 3.33015 0
M  V30 4842 O 454.549 -0.461916 4.35658 0
M  V30 4843 C 456.05 -2.19356 3.85225 0
M  V30 4844 H 453.27 -0.189708 0.643624 0
M  V30 4845 H 455.814 0.0641359 2.04399 0
M  V30 4846 H 453.969 -2.10562 3.2518 0
M  V30 4847 H 454.383 -0.973215 5.15392 0
M  V30 4848 H 455.857 -2.65433 4.83993 0
M  V30 4849 H 456.334 -3.02457 3.18459 0
M  V30 4850 H 456.94 -1.54442 3.96267 0
M  V30 4851 N 455.255 -1.55392 -0.262866 0
M  V30 4852 C 456.483 -1.80513 -1.01108 0
M  V30 4853 C 456.898 -0.583533 -1.79556 0
M  V30 4854 O 456.255 0.447585 -1.76926 0
M  V30 4855 C 456.306 -3.03648 -1.96164 0
M  V30 4856 O 456.027 -4.2109 -1.20893 0
M  V30 4857 C 457.528 -3.41448 -2.82715 0
M  V30 4858 H 454.748 -0.601079 -0.298236 0
M  V30 4859 H 457.292 -2.02425 -0.290582 0
M  V30 4860 H 455.447 -2.83832 -2.63663 0
M  V30 4861 H 455.861 -4.90771 -1.85051 0
M  V30 4862 H 457.335 -4.30751 -3.45192 0
M  V30 4863 H 457.812 -2.61308 -3.53008 0
M  V30 4864 H 458.418 -3.63559 -2.20693 0
M  V30 4865 N 456.733 0.527833 -1.48498 0
M  V30 4866 C 457.665 1.6482 -1.5927 0
M  V30 4867 C 458.678 1.55659 -0.476869 0
M  V30 4868 O 459.867 1.62081 -0.747806 0
M  V30 4869 C 456.967 3.0348 -1.50842 0
M  V30 4870 C 456.14 3.381 -2.77502 0
M  V30 4871 C 455.199 4.5605 -2.62497 0
M  V30 4872 O 454.225 4.59165 -3.36387 0
M  V30 4873 N 455.427 5.54353 -1.72257 0
M  V30 4874 H 458.192 1.56015 -2.55889 0
M  V30 4875 H 455.753 0.715152 -1.45249 0
M  V30 4876 H 457.745 3.80264 -1.38496 0
M  V30 4877 H 456.315 3.06352 -0.621887 0
M  V30 4878 H 455.535 2.50473 -3.04396 0
M  V30 4879 H 456.823 3.58017 -3.61527 0
M  V30 4880 H 456.221 5.54617 -1.11431 0
M  V30 4881 H 454.778 6.30347 -1.65849 0
M  V30 4882 N 458.211 1.37122 0.776871 0
M  V30 4883 C 459.451 1.33441 1.54831 0
M  V30 4884 C 459.815 -0.0818963 1.91825 0
M  V30 4885 O 461.016 -0.24338 2.67696 0
M  V30 4886 C 459.287 2.24267 2.78279 0
M  V30 4887 S 460.846 2.38389 3.68397 0
M  V30 4888 H 457.664 0.473791 0.530135 0
M  V30 4889 H 460.266 1.7282 0.913968 0
M  V30 4890 H 458.97 3.261 2.49173 0
M  V30 4891 H 458.501 1.85953 3.46677 0
M  V30 4892 H 460.516 1.59068 4.70013 0
M  V30 4893 N 459.689 -1.00246 1.21608 0
M  V30 4894 C 461.105 -1.26435 0.973975 0
M  V30 4895 C 461.305 -1.98642 -0.338143 0
M  V30 4896 O 460.361 -2.29026 -1.06317 0
M  V30 4897 C 461.674 -2.08551 2.16626 0
M  V30 4898 C 463.222 -2.21769 2.20879 0
M  V30 4899 C 463.697 -3.07267 3.39633 0
M  V30 4900 N 465.188 -3.14855 3.39736 0
M  V30 4901 C 465.923 -3.81274 4.28273 0
M  V30 4902 N 465.419 -4.497 5.27012 0
M  V30 4903 N 467.212 -3.7794 4.16074 0
M  V30 4904 H 459.363 -0.518089 2.05984 0
M  V30 4905 H 461.626 -0.291368 0.902113 0
M  V30 4906 H 461.332 -1.62847 3.11727 0
M  V30 4907 H 461.206 -3.09303 2.15897 0
M  V30 4908 H 463.593 -2.66691 1.26332 0
M  V30 4909 H 463.674 -1.20478 2.25652 0
M  V30 4910 H 463.318 -2.63047 4.34475 0
M  V30 4911 H 463.248 -4.08678 3.321 0
M  V30 4912 H 465.739 -2.66147 2.6828 0
M  V30 4913 H 466.052 -4.98092 5.90867 0
M  V30 4914 H 464.397 -4.48479 5.30935 0
M  V30 4915 H 467.588 -3.23638 3.38195 0
M  V30 4916 H 467.761 -4.29424 4.85282 0
M  V30 4917 N 461.167 -1.02423 -1.1978 0
M  V30 4918 C 462.392 -0.7373 -1.93852 0
M  V30 4919 C 462.817 0.696923 -1.74713 0
M  V30 4920 O 462.175 1.48056 -1.04638 0
M  V30 4921 C 462.223 -1.08783 -3.438 0
M  V30 4922 O 461.327 -0.20383 -4.11896 0
M  V30 4923 H 460.668 -0.27284 -0.605355 0
M  V30 4924 H 463.198 -1.36966 -1.51992 0
M  V30 4925 H 463.208 -1.04276 -3.9445 0
M  V30 4926 H 461.883 -2.13274 -3.57053 0
M  V30 4927 H 460.46 -0.307091 -3.71633 0
M  V30 4928 N 462.645 1.35699 -0.801477 0
M  V30 4929 C 463.87 2.03687 -0.390678 0
M  V30 4930 C 464.295 1.60015 0.988778 0
M  V30 4931 O 463.653 0.774357 1.63931 0
M  V30 4932 C 463.701 3.57439 -0.476404 0
M  V30 4933 O 462.805 4.09208 0.512106 0
M  V30 4934 H 462.146 0.64344 -0.163956 0
M  V30 4935 H 464.676 1.73403 -1.08594 0
M  V30 4936 H 464.686 4.06544 -0.344357 0
M  V30 4937 H 463.361 3.88576 -1.48262 0
M  V30 4938 H 461.938 3.7134 0.340721 0
M  V30 4939 N 464.123 0.554532 1.47522 0
M  V30 4940 C 465.353 0.0342074 2.06572 0
M  V30 4941 C 465.761 -1.26375 1.40805 0
M  V30 4942 O 465.104 -1.7683 0.49769 0
M  V30 4943 C 465.166 -0.235096 3.5873 0
M  V30 4944 C 464.83 0.973024 4.46521 0
M  V30 4945 C 465.827 1.8779 4.848 0
M  V30 4946 C 463.512 1.18694 4.88075 0
M  V30 4947 C 465.506 2.98039 5.63428 0
M  V30 4948 C 463.193 2.29254 5.66468 0
M  V30 4949 C 464.191 3.18757 6.04055 0
M  V30 4950 O 463.879 4.27401 6.8087 0
M  V30 4951 H 463.611 0.041587 0.67472 0
M  V30 4952 H 466.165 0.766748 1.90552 0
M  V30 4953 H 464.395 -1.02191 3.72953 0
M  V30 4954 H 466.084 -0.700477 3.9981 0
M  V30 4955 H 466.85 1.72467 4.53299 0
M  V30 4956 H 462.729 0.49947 4.58286 0
M  V30 4957 H 466.273 3.67926 5.92685 0
M  V30 4958 H 462.17 2.4455 5.97382 0
M  V30 4959 H 462.938 4.25415 6.9926 0
M  V30 4960 N 465.601 -1.54893 0.290851 0
M  V30 4961 C 466.531 -2.26103 -0.583084 0
M  V30 4962 C 467.512 -1.25684 -1.14619 0
M  V30 4963 O 468.697 -1.54436 -1.17741 0
M  V30 4964 C 465.827 -2.99409 -1.75987 0
M  V30 4965 C 464.781 -4.0689 -1.32758 0
M  V30 4966 C 464.107 -4.67856 -2.58872 0
M  V30 4967 C 465.407 -5.20215 -0.46624 0
M  V30 4968 H 467.101 -2.99398 0.0108214 0
M  V30 4969 H 464.647 -1.43998 0.00664468 0
M  V30 4970 H 466.6 -3.47943 -2.37727 0
M  V30 4971 H 465.324 -2.23675 -2.37985 0
M  V30 4972 H 463.983 -3.59191 -0.733299 0
M  V30 4973 H 463.631 -3.88772 -3.19163 0
M  V30 4974 H 463.331 -5.40438 -2.30653 0
M  V30 4975 H 464.855 -5.19147 -3.21433 0
M  V30 4976 H 466.269 -5.64704 -0.989047 0
M  V30 4977 H 464.666 -5.99455 -0.27826 0
M  V30 4978 H 465.736 -4.82198 0.511173 0
M  V30 4979 N 467.08 -0.0183926 -1.57589 0
M  V30 4980 C 468.043 0.951986 -2.08494 0
M  V30 4981 C 469.043 1.26092 -0.997874 0
M  V30 4982 O 470.233 1.20304 -1.25987 0
M  V30 4983 C 467.365 2.27165 -2.54182 0
M  V30 4984 H 468.558 0.511307 -2.95509 0
M  V30 4985 H 466.111 0.229444 -1.54607 0
M  V30 4986 H 466.846 2.75884 -1.70465 0
M  V30 4987 H 466.631 2.06057 -3.33591 0
M  V30 4988 H 468.121 2.9674 -2.93828 0
M  V30 4989 N 468.558 1.5553 0.254621 0
M  V30 4990 C 469.506 1.9048 1.33492 0
M  V30 4991 C 470.5 0.78304 1.50216 0
M  V30 4992 O 471.706 0.967582 1.51782 0
M  V30 4993 H 468.081 0.604846 0.44684 0
M  V30 4994 H 470.052 2.80688 1.01275 0
M  V30 4995 C 468.801 2.20928 2.68489 0
M  V30 4996 H 468.124 3.06742 2.56417 0
M  V30 4997 H 469.564 2.49291 3.42972 0
M  V30 4998 C 468.023 1.023 3.20993 0
M  V30 4999 O 468.553 0.267027 4.00811 0
M  V30 5000 N 466.759 0.815714 2.78917 0
M  V30 5001 H 466.306 1.43217 2.14119 0
M  V30 5002 H 466.264 0.0236532 3.14391 0
M  V30 5003 N 470.036 -0.519951 1.48776 0
M  V30 5004 C 470.946 -1.65025 1.66745 0
M  V30 5005 C 471.962 -1.6508 0.549954 0
M  V30 5006 O 473.138 -1.83848 0.822295 0
M  V30 5007 C 470.203 -3.0146 1.71238 0
M  V30 5008 C 469.264 -3.12182 2.94688 0
M  V30 5009 C 468.497 -4.42109 2.98958 0
M  V30 5010 O 468.72 -5.29799 2.1135 0
M  V30 5011 O 467.654 -4.57406 3.91233 0
M  V30 5012 H 471.48 -1.52801 2.62461 0
M  V30 5013 H 469.065 -0.694157 1.32294 0
M  V30 5014 H 470.947 -3.82584 1.76657 0
M  V30 5015 H 469.622 -3.13988 0.786975 0
M  V30 5016 H 468.529 -2.30316 2.94797 0
M  V30 5017 H 469.862 -3.04574 3.86646 0
M  V30 5018 N 471.514 -1.37532 -0.769588 0
M  V30 5019 C 472.763 -1.32183 -1.5235 0
M  V30 5020 C 473.076 0.0906555 -1.9539 0
M  V30 5021 O 474.282 0.266628 -2.70188 0
M  V30 5022 C 472.738 -2.32029 -2.75119 0
M  V30 5023 C 472.346 -3.78816 -2.3917 0
M  V30 5024 C 474.09 -2.35694 -3.53056 0
M  V30 5025 C 471.997 -4.70388 -3.58453 0
M  V30 5026 H 470.927 -0.491275 -0.571984 0
M  V30 5027 H 473.578 -1.63004 -0.842739 0
M  V30 5028 H 471.96 -1.94229 -3.45096 0
M  V30 5029 H 473.134 -4.25466 -1.76962 0
M  V30 5030 H 471.449 -3.78117 -1.74402 0
M  V30 5031 H 474.046 -3.01312 -4.41718 0
M  V30 5032 H 474.389 -1.37117 -3.93071 0
M  V30 5033 H 474.922 -2.72212 -2.90078 0
M  V30 5034 H 471.661 -5.70102 -3.23518 0
M  V30 5035 H 471.181 -4.28442 -4.19758 0
M  V30 5036 H 472.86 -4.87628 -4.25239 0
M  V30 5037 N 472.992 0.995999 -1.22138 0
M  V30 5038 C 473.922 2.10387 -1.01289 0
M  V30 5039 C 474.903 1.69975 0.0651454 0
M  V30 5040 O 476.088 1.9396 -0.0964628 0
M  V30 5041 C 473.218 3.42312 -0.586517 0
M  V30 5042 C 472.172 3.96558 -1.61014 0
M  V30 5043 C 471.498 5.24494 -1.0397 0
M  V30 5044 C 472.798 4.27595 -2.99933 0
M  V30 5045 H 474.492 2.28086 -1.93951 0
M  V30 5046 H 472.038 1.09607 -0.933928 0
M  V30 5047 H 473.991 4.19223 -0.427793 0
M  V30 5048 H 472.715 3.24431 0.375761 0
M  V30 5049 H 471.374 3.21776 -1.75658 0
M  V30 5050 H 471.022 5.02953 -0.0688703 0
M  V30 5051 H 470.722 5.61755 -1.72352 0
M  V30 5052 H 472.246 6.04042 -0.892494 0
M  V30 5053 H 473.66 4.95315 -2.8868 0
M  V30 5054 H 472.057 4.76021 -3.6541 0
M  V30 5055 H 473.127 3.35498 -3.50099 0
M  V30 5056 N 474.47 1.03057 1.19235 0
M  V30 5057 C 475.716 0.738841 1.89506 0
M  V30 5058 C 476.071 -0.724807 1.78225 0
M  V30 5059 O 475.364 -1.52118 1.16494 0
M  V30 5060 C 475.558 1.1268 3.39172 0
M  V30 5061 C 475.387 2.62662 3.65019 0
M  V30 5062 C 474.157 3.29658 3.82954 0
M  V30 5063 C 476.355 3.60873 3.66436 0
M  V30 5064 N 474.337 4.68726 3.96446 0
M  V30 5065 C 475.708 4.85566 3.8552 0
M  V30 5066 C 477.763 3.54647 3.49471 0
M  V30 5067 C 476.466 6.04783 3.89397 0
M  V30 5068 C 478.492 4.73281 3.54625 0
M  V30 5069 C 477.854 5.96789 3.74196 0
M  V30 5070 H 473.953 0.322256 0.712513 0
M  V30 5071 H 476.537 1.31822 1.43287 0
M  V30 5072 H 474.708 0.575612 3.84111 0
M  V30 5073 H 476.44 0.787145 3.96971 0
M  V30 5074 H 473.195 2.8007 3.81913 0
M  V30 5075 H 473.619 5.40971 4.07037 0
M  V30 5076 H 478.261 2.60143 3.33295 0
M  V30 5077 H 475.979 6.99654 4.04364 0
M  V30 5078 H 479.565 4.70094 3.42787 0
M  V30 5079 H 478.445 6.87051 3.78061 0
M  V30 5080 N 475.948 -1.35272 0.808662 0
M  V30 5081 C 477.196 -1.98316 0.389233 0
M  V30 5082 C 477.517 -1.64465 -1.04767 0
M  V30 5083 O 476.787 -0.928175 -1.72516 0
M  V30 5084 H 475.367 -0.733585 0.140935 0
M  V30 5085 H 478.029 -1.6515 1.03496 0
M  V30 5086 H 477.125 -3.08123 0.496631 0
M  V30 5087 N 477.426 -0.562348 -1.47226 0
M  V30 5088 C 478.376 0.202967 -2.27095 0
M  V30 5089 C 479.36 0.880611 -1.34663 0
M  V30 5090 O 480.552 0.778069 -1.58981 0
M  V30 5091 C 477.681 1.22906 -3.20545 0
M  V30 5092 C 476.767 0.554566 -4.20459 0
M  V30 5093 N 477.158 -0.378295 -5.04383 0
M  V30 5094 C 475.456 0.807854 -4.38623 0
M  V30 5095 C 476.157 -0.770583 -5.76573 0
M  V30 5096 N 475.133 -0.124263 -5.43458 0
M  V30 5097 H 478.935 -0.514196 -2.89367 0
M  V30 5098 H 476.449 -0.382655 -1.57827 0
M  V30 5099 H 478.446 1.79134 -3.76453 0
M  V30 5100 H 477.106 1.94726 -2.59831 0
M  V30 5101 H 478.117 -0.75274 -5.124 0
M  V30 5102 H 474.794 1.51418 -3.89075 0
M  V30 5103 H 476.184 -1.53742 -6.54074 0
M  V30 5104 N 478.904 1.54736 -0.299062 0
M  V30 5105 C 480.32 1.59507 0.0543849 0
M  V30 5106 C 480.52 1.31606 1.52585 0
M  V30 5107 O 479.576 1.08853 2.27832 0
M  V30 5108 C 480.889 2.98751 -0.34181 0
M  V30 5109 C 482.437 3.1165 -0.290414 0
M  V30 5110 C 482.912 4.53199 -0.661402 0
M  V30 5111 N 484.403 4.59114 -0.613863 0
M  V30 5112 C 485.138 5.66709 -0.873417 0
M  V30 5113 N 484.634 6.82349 -1.19884 0
M  V30 5114 N 486.427 5.56369 -0.800608 0
M  V30 5115 H 478.578 1.71133 -1.25806 0
M  V30 5116 H 480.841 0.799186 -0.509908 0
M  V30 5117 H 480.547 3.24085 -1.36608 0
M  V30 5118 H 480.421 3.75961 0.305508 0
M  V30 5119 H 482.808 2.86066 0.724605 0
M  V30 5120 H 482.889 2.366 -0.972327 0
M  V30 5121 H 482.533 4.79513 -1.67422 0
M  V30 5122 H 482.463 5.26583 0.0425612 0
M  V30 5123 H 484.954 3.76053 -0.3732 0
M  V30 5124 H 485.267 7.60326 -1.38291 0
M  V30 5125 H 483.612 6.83906 -1.23685 0
M  V30 5126 H 486.803 4.64904 -0.546045 0
M  V30 5127 H 486.976 6.40139 -1.00626 0
M  V30 5128 N 480.382 0.0267497 1.57577 0
M  V30 5129 C 481.612 -0.6617 1.95717 0
M  V30 5130 C 482.02 -1.66331 0.901706 0
M  V30 5131 O 481.363 -1.83273 -0.125241 0
M  V30 5132 C 481.425 -1.42649 3.29987 0
M  V30 5133 C 481.089 -0.583482 4.5326 0
M  V30 5134 C 482.086 0.140221 5.19711 0
M  V30 5135 C 479.771 -0.521581 4.99585 0
M  V30 5136 C 481.765 0.914523 6.30805 0
M  V30 5137 C 479.452 0.256428 6.10562 0
M  V30 5138 C 480.45 0.973189 6.76031 0
M  V30 5139 O 480.138 1.73845 7.84878 0
M  V30 5140 H 479.87 -0.187483 0.649481 0
M  V30 5141 H 482.424 0.0820847 2.05236 0
M  V30 5142 H 480.654 -2.21536 3.16952 0
M  V30 5143 H 482.343 -2.00282 3.53047 0
M  V30 5144 H 483.109 0.101716 4.84893 0
M  V30 5145 H 478.988 -1.06904 4.48433 0
M  V30 5146 H 482.532 1.4745 6.81839 0
M  V30 5147 H 478.429 0.296657 6.44818 0
M  V30 5148 H 479.197 1.65797 8.01532 0
M  V30 5149 N 481.861 -1.55662 -0.24637 0
M  V30 5150 C 482.771 -1.93495 -1.32653 0
M  V30 5151 C 483.787 -0.835462 -1.5263 0
M  V30 5152 O 484.963 -1.1369 -1.66242 0
M  V30 5153 C 482.028 -2.22242 -2.66101 0
M  V30 5154 C 481.089 -3.45625 -2.54641 0
M  V30 5155 C 480.322 -3.72991 -3.81724 0
M  V30 5156 O 480.545 -3.02421 -4.8363 0
M  V30 5157 O 479.479 -4.66515 -3.80325 0
M  V30 5158 H 483.305 -2.85498 -1.03559 0
M  V30 5159 H 480.89 -1.42551 -0.44717 0
M  V30 5160 H 482.772 -2.42037 -3.44958 0
M  V30 5161 H 481.447 -1.33417 -2.94926 0
M  V30 5162 H 480.354 -3.31136 -1.74067 0
M  V30 5163 H 481.687 -4.34754 -2.3076 0
M  V30 5164 N 483.339 0.512053 -1.4905 0
M  V30 5165 C 484.75 1.09376 -1.51307 0
M  V30 5166 C 485.101 1.94 -0.292971 0
M  V30 5167 O 484.226 2.07965 0.598277 0
M  V30 5168 C 484.821 1.99031 -2.74176 0
M  V30 5169 C 483.38 2.52385 -2.79247 0
M  V30 5170 C 482.527 1.29749 -2.45073 0
M  V30 5171 H 485.478 0.296467 -1.55906 0
M  V30 5172 H 485.499 2.83569 -2.53711 0
M  V30 5173 H 485.011 1.37412 -3.62959 0
M  V30 5174 H 483.112 3.17673 -1.94716 0
M  V30 5175 H 483.225 2.90293 -3.81139 0
M  V30 5176 H 481.589 1.61912 -1.96612 0
M  V30 5177 H 482.372 0.698555 -3.36118 0
M  V30 5178 N 484.817 1.37938 0.762283 0
M  V30 5179 C 486.063 1.33866 1.52341 0
M  V30 5180 C 486.396 -0.0738961 1.94059 0
M  V30 5181 O 485.671 -1.03326 1.64785 0
M  V30 5182 C 485.954 2.28644 2.78197 0
M  V30 5183 C 485.807 3.78722 2.42672 0
M  V30 5184 C 487.126 2.21702 3.80179 0
M  V30 5185 H 484.245 0.487593 0.55265 0
M  V30 5186 H 486.887 1.68717 0.873767 0
M  V30 5187 H 485.037 1.99055 3.33631 0
M  V30 5188 H 486.709 4.18948 1.93081 0
M  V30 5189 H 484.952 3.96827 1.75244 0
M  V30 5190 H 485.623 4.40486 3.3268 0
M  V30 5191 H 488.099 2.47805 3.34263 0
M  V30 5192 H 486.975 2.90143 4.65949 0
M  V30 5193 H 487.236 1.21301 4.25133 0
M  V30 5194 N 486.295 -0.989507 1.22664 0
M  V30 5195 C 487.225 -2.09847 1.02404 0
M  V30 5196 C 488.206 -1.70007 -0.0561303 0
M  V30 5197 O 489.391 -1.93906 0.106748 0
M  V30 5198 C 486.521 -3.41996 0.604663 0
M  V30 5199 C 485.475 -3.95699 1.63115 0
M  V30 5200 C 484.801 -5.23936 1.0675 0
M  V30 5201 C 486.101 -4.25999 3.02196 0
M  V30 5202 H 487.795 -2.27054 1.95158 0
M  V30 5203 H 485.341 -1.09111 0.939727 0
M  V30 5204 H 487.294 -4.1899 0.45002 0
M  V30 5205 H 486.018 -3.24626 -0.35855 0
M  V30 5206 H 484.677 -3.2084 1.77362 0
M  V30 5207 H 484.325 -5.02909 0.0955422 0
M  V30 5208 H 484.025 -5.60833 1.75328 0
M  V30 5209 H 485.549 -6.0356 0.924516 0
M  V30 5210 H 486.963 -4.93777 2.91303 0
M  V30 5211 H 485.36 -4.74076 3.67929 0
M  V30 5212 H 486.43 -3.33636 3.51873 0
M  V30 5213 N 487.773 -1.03688 -1.18687 0
M  V30 5214 C 489.02 -0.73803 -1.88572 0
M  V30 5215 C 489.348 0.733973 -1.8012 0
M  V30 5216 O 488.603 1.55098 -1.19344 0
M  V30 5217 C 488.902 -1.14477 -3.3857 0
M  V30 5218 C 488.568 -2.61641 -3.67226 0
M  V30 5219 C 487.23 -3.01846 -3.74757 0
M  V30 5220 C 489.582 -3.56812 -3.79914 0
M  V30 5221 C 486.91 -4.36118 -3.92451 0
M  V30 5222 C 489.262 -4.90799 -3.99123 0
M  V30 5223 C 487.926 -5.3068 -4.04888 0
M  V30 5224 H 487.196 -0.270064 -0.690034 0
M  V30 5225 H 489.843 -1.3012 -1.40503 0
M  V30 5226 H 488.148 -0.500337 -3.88592 0
M  V30 5227 H 489.845 -0.89095 -3.90977 0
M  V30 5228 H 486.435 -2.29498 -3.61979 0
M  V30 5229 H 490.619 -3.26899 -3.73431 0
M  V30 5230 H 485.875 -4.66542 -3.95157 0
M  V30 5231 H 490.049 -5.64451 -4.07882 0
M  V30 5232 H 487.676 -6.34733 -4.18351 0
M  V30 5233 N 489.251 1.34841 -0.815825 0
M  V30 5234 C 490.161 2.33425 -0.234462 0
M  V30 5235 C 491.177 1.62295 0.627413 0
M  V30 5236 O 492.353 1.94109 0.536987 0
M  V30 5237 C 489.418 3.41471 0.599849 0
M  V30 5238 C 488.479 4.28362 -0.283596 0
M  V30 5239 C 487.712 5.31248 0.51099 0
M  V30 5240 O 487.935 5.43056 1.7449 0
M  V30 5241 O 486.869 6.01812 -0.10297 0
M  V30 5242 H 490.695 2.84962 -1.05024 0
M  V30 5243 H 488.28 1.37774 -0.577809 0
M  V30 5244 H 490.162 4.07464 1.07475 0
M  V30 5245 H 488.837 2.9219 1.39308 0
M  V30 5246 H 487.744 3.65318 -0.805836 0
M  V30 5247 H 489.077 4.81066 -1.041 0
M  V30 5248 N 490.729 0.570148 1.46925 0
M  V30 5249 C 491.639 -0.173061 2.33961 0
M  V30 5250 C 492.655 -0.898825 1.48987 0
M  V30 5251 O 493.831 -0.864825 1.81887 0
M  V30 5252 C 490.896 -1.18177 3.25937 0
M  V30 5253 C 489.957 -0.462041 4.26806 0
M  V30 5254 C 489.19 -1.4227 5.14388 0
M  V30 5255 O 489.413 -2.65842 5.04662 0
M  V30 5256 O 488.347 -0.940127 5.94513 0
M  V30 5257 H 492.173 0.541216 2.98839 0
M  V30 5258 H 489.758 0.330647 1.45695 0
M  V30 5259 H 491.64 -1.76372 3.82715 0
M  V30 5260 H 490.315 -1.87774 2.63671 0
M  V30 5261 H 489.222 0.161429 3.73752 0
M  V30 5262 H 490.555 0.192719 4.91823 0
M  V30 5263 N 492.207 -1.54576 0.307264 0
M  V30 5264 C 493.154 -2.23751 -0.56604 0
M  V30 5265 C 494.124 -1.22235 -1.12462 0
M  V30 5266 O 495.309 -1.50873 -1.16799 0
M  V30 5267 C 492.449 -2.98661 -1.72903 0
M  V30 5268 C 491.562 -4.14963 -1.20124 0
M  V30 5269 C 490.697 -4.77441 -2.3286 0
M  V30 5270 C 489.736 -5.85875 -1.77247 0
M  V30 5271 N 488.873 -6.42282 -2.8358 0
M  V30 5272 H 493.713 -2.97984 0.0304578 0
M  V30 5273 H 491.25 -1.47076 0.0268015 0
M  V30 5274 H 493.208 -3.40329 -2.41313 0
M  V30 5275 H 491.838 -2.26793 -2.29706 0
M  V30 5276 H 490.89 -3.78193 -0.409198 0
M  V30 5277 H 492.202 -4.93066 -0.754171 0
M  V30 5278 H 491.356 -5.21993 -3.09205 0
M  V30 5279 H 490.095 -3.98684 -2.80896 0
M  V30 5280 H 489.1 -5.40741 -0.993926 0
M  V30 5281 H 490.325 -6.6652 -1.30107 0
M  V30 5282 H 488.271 -5.66406 -3.30939 0
M  V30 5283 H 488.188 -7.1575 -2.43388 0
M  V30 5284 H 489.456 -6.91492 -3.59804 0
M  V30 5285 N 493.685 -0.035106 -1.57561 0
M  V30 5286 C 494.635 0.954034 -2.0708 0
M  V30 5287 C 495.619 1.2818 -0.972558 0
M  V30 5288 O 496.811 1.26691 -1.23606 0
M  V30 5289 C 493.94 2.23442 -2.60631 0
M  V30 5290 C 493.026 1.93475 -3.77396 0
M  V30 5291 N 493.417 1.33802 -4.87781 0
M  V30 5292 C 491.715 2.23434 -3.85996 0
M  V30 5293 C 492.416 1.21103 -5.68954 0
M  V30 5294 N 491.392 1.70855 -5.16052 0
M  V30 5295 H 495.194 0.487731 -2.89825 0
M  V30 5296 H 492.708 0.169759 -1.6151 0
M  V30 5297 H 494.705 2.95183 -2.94402 0
M  V30 5298 H 493.365 2.70693 -1.79319 0
M  V30 5299 H 494.376 1.01227 -5.07911 0
M  V30 5300 H 491.053 2.73317 -3.15601 0
M  V30 5301 H 492.443 0.749105 -6.67711 0
M  V30 5302 N 495.163 1.55791 0.238111 0
M  V30 5303 C 496.393 1.81834 0.980809 0
M  V30 5304 C 496.801 0.609741 1.79106 0
M  V30 5305 O 496.144 -0.431073 1.78571 0
M  V30 5306 C 496.206 3.01363 1.96011 0
M  V30 5307 C 495.87 4.37037 1.33597 0
M  V30 5308 C 496.867 5.14692 0.734063 0
M  V30 5309 C 494.552 4.83743 1.3527 0
M  V30 5310 C 496.546 6.37206 0.157208 0
M  V30 5311 C 494.233 6.06204 0.77199 0
M  V30 5312 C 495.231 6.82775 0.175282 0
M  V30 5313 O 494.919 8.02922 -0.396432 0
M  V30 5314 H 494.651 0.6088 0.293834 0
M  V30 5315 H 497.205 2.03702 0.263552 0
M  V30 5316 H 495.435 2.75273 2.71591 0
M  V30 5317 H 497.124 3.14422 2.56697 0
M  V30 5318 H 497.89 4.79722 0.713582 0
M  V30 5319 H 493.769 4.24129 1.80653 0
M  V30 5320 H 497.313 6.96915 -0.30917 0
M  V30 5321 H 493.21 6.4065 0.789828 0
M  V30 5322 H 493.978 8.17989 -0.289145 0
M  V30 5323 N 496.642 -0.504142 1.49319 0
M  V30 5324 C 497.872 -1.28071 1.62116 0
M  V30 5325 C 498.28 -1.86955 0.290566 0
M  V30 5326 O 497.623 -1.68415 -0.733616 0
M  V30 5327 C 497.685 -2.4521 2.62893 0
M  V30 5328 C 497.349 -2.07218 4.0732 0
M  V30 5329 C 498.346 -1.61375 4.94221 0
M  V30 5330 C 496.031 -2.16949 4.53033 0
M  V30 5331 C 498.025 -1.25763 6.2487 0
M  V30 5332 C 495.712 -1.80949 5.83696 0
M  V30 5333 C 496.71 -1.3543 6.69438 0
M  V30 5334 O 496.398 -0.99915 7.97667 0
M  V30 5335 H 496.13 -0.394763 0.54876 0
M  V30 5336 H 498.684 -0.612118 1.96067 0
M  V30 5337 H 496.914 -3.15134 2.24115 0
M  V30 5338 H 498.603 -3.0724 2.65252 0
M  V30 5339 H 499.369 -1.53306 4.60133 0
M  V30 5340 H 495.248 -2.5133 3.86463 0
M  V30 5341 H 498.792 -0.901631 6.91749 0
M  V30 5342 H 494.689 -1.88667 6.17313 0
M  V30 5343 H 495.457 -1.13089 8.1065 0
M  V30 5344 N 498.12 -1.38341 -0.754957 0
M  V30 5345 C 499.067 -1.3546 -1.86867 0
M  V30 5346 C 500.037 -0.217369 -1.64672 0
M  V30 5347 O 501.222 -0.409383 -1.86356 0
M  V30 5348 C 498.362 -1.18413 -3.24149 0
M  V30 5349 C 497.475 -2.41511 -3.58185 0
M  V30 5350 C 496.61 -2.17205 -4.84763 0
M  V30 5351 C 495.649 -3.36081 -5.11582 0
M  V30 5352 N 494.786 -3.11219 -6.29354 0
M  V30 5353 H 499.626 -2.30672 -1.88664 0
M  V30 5354 H 497.163 -1.14607 -0.922154 0
M  V30 5355 H 499.121 -1.06545 -4.03366 0
M  V30 5356 H 497.751 -0.268397 -3.21682 0
M  V30 5357 H 496.803 -2.64056 -2.73822 0
M  V30 5358 H 498.115 -3.30115 -3.73932 0
M  V30 5359 H 497.269 -2.02465 -5.7192 0
M  V30 5360 H 496.008 -1.25964 -4.71152 0
M  V30 5361 H 495.013 -3.51341 -4.22894 0
M  V30 5362 H 496.238 -4.28196 -5.27091 0
M  V30 5363 H 494.184 -2.22624 -6.17069 0
M  V30 5364 H 494.101 -3.93373 -6.45596 0
M  V30 5365 H 495.369 -3.00132 -7.19403 0
M  V30 5366 N 499.598 0.982988 -1.23187 0
M  V30 5367 C 500.844 1.72648 -1.06398 0
M  V30 5368 C 501.177 1.90066 0.398561 0
M  V30 5369 O 500.452 1.45105 1.29518 0
M  V30 5370 C 500.735 3.12627 -1.78707 0
M  V30 5371 C 500.588 3.02795 -3.32618 0
M  V30 5372 C 501.907 4.11997 -1.54747 0
M  V30 5373 H 499.026 0.626649 -0.387918 0
M  V30 5374 H 501.668 1.14455 -1.51658 0
M  V30 5375 H 499.818 3.62308 -1.40234 0
M  V30 5376 H 501.49 2.60659 -3.80598 0
M  V30 5377 H 499.733 2.39362 -3.61785 0
M  V30 5378 H 500.404 4.01893 -3.78399 0
M  V30 5379 H 502.88 3.71114 -1.88186 0
M  V30 5380 H 501.756 5.08037 -2.07821 0
M  V30 5381 H 502.017 4.39462 -0.482249 0
M  V30 5382 N 501.076 1.04316 1.18135 0
M  V30 5383 C 502.353 0.662166 1.84051 0
M  V30 5384 C 502.733 -0.858169 1.9287 0
M  V30 5385 O 502.081 -1.76062 1.45652 0
M  V30 5386 C 502.291 1.3409 3.22212 0
M  V30 5387 C 503.639 1.4733 3.9822 0
M  V30 5388 O 504.663 1.29921 3.31661 0
M  V30 5389 O 503.522 1.75722 5.17479 0
M  V30 5390 H 500.616 0.232005 0.79379 0
M  V30 5391 H 503.162 1.1422 1.25506 0
M  V30 5392 H 501.934 2.37853 3.10711 0
M  V30 5393 H 501.557 0.849649 3.88416 0
M  V30 5394 N 502.554 -1.34406 0.822964 0
M  V30 5395 C 503.784 -2.02214 0.423424 0
M  V30 5396 C 504.192 -1.62124 -0.975322 0
M  V30 5397 O 503.535 -0.822452 -1.6426 0
M  V30 5398 C 503.597 -3.56721 0.446107 0
M  V30 5399 C 503.261 -4.20136 1.79819 0
M  V30 5400 C 504.258 -4.4065 2.75904 0
M  V30 5401 C 501.943 -4.56906 2.08669 0
M  V30 5402 C 503.937 -4.9706 3.99012 0
M  V30 5403 C 501.624 -5.13026 3.32036 0
M  V30 5404 C 502.622 -5.33047 4.27024 0
M  V30 5405 O 502.31 -5.87979 5.48211 0
M  V30 5406 H 502.042 -0.654748 0.168169 0
M  V30 5407 H 504.596 -1.72659 1.11257 0
M  V30 5408 H 502.826 -3.85537 -0.299734 0
M  V30 5409 H 504.515 -4.05845 0.0666114 0
M  V30 5410 H 505.281 -4.12607 2.54912 0
M  V30 5411 H 501.16 -4.40626 1.35535 0
M  V30 5412 H 504.704 -5.12603 4.73164 0
M  V30 5413 H 500.601 -5.40498 3.52891 0
M  V30 5414 H 501.369 -6.06413 5.49732 0
M  V30 5415 N 504.032 -0.577932 -1.46621 0
M  V30 5416 C 505.257 -0.0652536 -2.07297 0
M  V30 5417 C 505.682 1.22828 -1.4246 0
M  V30 5418 O 505.04 1.74075 -0.506718 0
M  V30 5419 C 505.088 0.0920589 -3.60482 0
M  V30 5420 O 504.192 1.14972 -3.96049 0
M  V30 5421 H 503.533 -0.06065 -0.661224 0
M  V30 5422 H 506.063 -0.799515 -1.88332 0
M  V30 5423 H 506.073 0.299741 -4.06897 0
M  V30 5424 H 504.748 -0.852612 -4.07067 0
M  V30 5425 H 503.325 0.920879 -3.61351 0
M  V30 5426 N 505.51 1.54411 -0.315457 0
M  V30 5427 C 506.926 1.59556 0.037464 0
M  V30 5428 C 507.126 1.33217 1.5118 0
M  V30 5429 O 506.182 1.11264 2.26664 0
M  V30 5430 C 507.495 2.98372 -0.373477 0
M  V30 5431 C 509.043 3.11324 -0.323452 0
M  V30 5432 C 509.518 4.52472 -0.709433 0
M  V30 5433 N 511.009 4.58437 -0.662524 0
M  V30 5434 C 511.744 5.65751 -0.933474 0
M  V30 5435 N 511.24 6.81039 -1.27114 0
M  V30 5436 N 513.033 5.55489 -0.859573 0
M  V30 5437 H 505.184 1.6979 -1.27614 0
M  V30 5438 H 507.447 0.793732 -0.518356 0
M  V30 5439 H 507.153 3.22618 -1.40037 0
M  V30 5440 H 507.027 3.76264 0.265615 0
M  V30 5441 H 509.414 2.86818 0.694223 0
M  V30 5442 H 509.495 2.35555 -0.997367 0
M  V30 5443 H 509.139 4.7771 -1.72498 0
M  V30 5444 H 509.069 5.26598 -0.0132923 0
M  V30 5445 H 511.56 3.75636 -0.413065 0
M  V30 5446 H 511.873 7.58816 -1.46348 0
M  V30 5447 H 510.218 6.82555 -1.30932 0
M  V30 5448 H 513.409 4.64299 -0.595324 0
M  V30 5449 H 513.582 6.39036 -1.0741 0
M  V30 5450 N 506.988 0.0434614 1.5754 0
M  V30 5451 C 508.235 -0.632035 1.92384 0
M  V30 5452 C 508.563 -1.71304 0.921157 0
M  V30 5453 O 507.818 -1.95583 -0.067744 0
M  V30 5454 C 508.117 -1.2738 3.3393 0
M  V30 5455 C 507.783 -0.321757 4.49751 0
M  V30 5456 C 506.445 -0.0597611 4.81163 0
M  V30 5457 C 508.797 0.331158 5.20147 0
M  V30 5458 C 506.125 0.862715 5.80322 0
M  V30 5459 C 508.477 1.24178 6.20292 0
M  V30 5460 C 507.141 1.51252 6.50138 0
M  V30 5461 H 506.411 -0.231278 0.703983 0
M  V30 5462 H 509.058 0.108294 1.91194 0
M  V30 5463 H 507.363 -2.08921 3.3145 0
M  V30 5464 H 509.06 -1.80326 3.58167 0
M  V30 5465 H 505.65 -0.53614 4.25233 0
M  V30 5466 H 509.834 0.141826 4.96097 0
M  V30 5467 H 505.09 1.08003 6.01785 0
M  V30 5468 H 509.264 1.75381 6.73954 0
M  V30 5469 H 506.891 2.22897 7.26788 0
M  V30 5470 N 508.466 -1.55915 -0.229846 0
M  V30 5471 C 509.416 -1.8813 -1.28807 0
M  V30 5472 C 510.4 -0.743621 -1.42685 0
M  V30 5473 O 511.592 -1.00588 -1.4564 0
M  V30 5474 C 508.721 -2.19431 -2.64017 0
M  V30 5475 C 507.807 -3.39569 -2.54074 0
M  V30 5476 N 508.198 -4.58404 -2.13774 0
M  V30 5477 C 506.496 -3.43019 -2.85051 0
M  V30 5478 C 507.197 -5.40557 -2.1488 0
M  V30 5479 N 506.173 -4.80054 -2.55047 0
M  V30 5480 H 509.975 -2.77527 -0.967261 0
M  V30 5481 H 507.489 -1.5637 -0.438433 0
M  V30 5482 H 509.486 -2.40681 -3.40409 0
M  V30 5483 H 508.146 -1.31341 -2.9695 0
M  V30 5484 H 509.157 -4.83716 -1.8504 0
M  V30 5485 H 505.834 -2.65249 -3.22411 0
M  V30 5486 H 507.224 -6.45666 -1.85918 0
M  V30 5487 N 509.944 0.496216 -1.49584 0
M  V30 5488 C 510.891 1.59722 -1.66606 0
M  V30 5489 C 511.861 1.58158 -0.507477 0
M  V30 5490 O 513.046 1.76072 -0.735076 0
M  V30 5491 C 510.186 2.97844 -1.74308 0
M  V30 5492 C 509.299 3.09388 -3.01502 0
M  V30 5493 C 508.434 4.38271 -3.00153 0
M  V30 5494 C 507.473 4.43466 -4.21906 0
M  V30 5495 N 506.61 5.63784 -4.1844 0
M  V30 5496 H 511.45 1.44515 -2.60613 0
M  V30 5497 H 508.987 0.703048 -1.29212 0
M  V30 5498 H 510.945 3.77907 -1.76754 0
M  V30 5499 H 509.575 3.11743 -0.837619 0
M  V30 5500 H 508.627 2.22357 -3.08645 0
M  V30 5501 H 509.939 3.09085 -3.91494 0
M  V30 5502 H 509.093 5.2666 -3.01188 0
M  V30 5503 H 507.832 4.41146 -2.07947 0
M  V30 5504 H 506.837 3.53478 -4.21109 0
M  V30 5505 H 508.062 4.42303 -5.1531 0
M  V30 5506 H 506.008 5.67491 -3.29074 0
M  V30 5507 H 505.925 5.65118 -5.02173 0
M  V30 5508 H 507.193 6.54367 -4.23585 0
M  V30 5509 N 511.423 1.38739 0.74761 0
M  V30 5510 C 512.651 1.38521 1.53686 0
M  V30 5511 C 513.066 -0.0235129 1.88785 0
M  V30 5512 O 512.423 -0.991662 1.53207 0
M  V30 5513 C 512.474 2.24641 2.83229 0
M  V30 5514 O 512.195 3.60026 2.49625 0
M  V30 5515 C 513.696 2.32669 3.77333 0
M  V30 5516 H 510.916 0.473589 0.475347 0
M  V30 5517 H 513.46 1.82395 0.924786 0
M  V30 5518 H 511.615 1.84213 3.40799 0
M  V30 5519 H 512.029 4.05435 3.3275 0
M  V30 5520 H 513.503 2.97201 4.65162 0
M  V30 5521 H 513.98 1.3421 4.18192 0
M  V30 5522 H 514.586 2.73512 3.25685 0
M  V30 5523 N 512.901 -0.976442 1.23707 0
M  V30 5524 C 514.131 -1.75087 1.09673 0
M  V30 5525 C 514.539 -1.85852 -0.354344 0
M  V30 5526 O 513.882 -1.33985 -1.25673 0
M  V30 5527 C 513.944 -3.19272 1.65245 0
M  V30 5528 C 513.608 -3.32004 3.14042 0
M  V30 5529 C 514.605 -3.18017 4.11292 0
M  V30 5530 C 512.29 -3.56525 3.53829 0
M  V30 5531 C 514.284 -3.28363 5.46312 0
M  V30 5532 C 511.971 -3.6651 4.88993 0
M  V30 5533 C 512.969 -3.52439 5.85043 0
M  V30 5534 O 512.657 -3.62063 7.1775 0
M  V30 5535 H 512.389 -0.556164 0.384262 0
M  V30 5536 H 514.943 -1.23518 1.64111 0
M  V30 5537 H 513.173 -3.72107 1.05231 0
M  V30 5538 H 514.862 -3.7849 1.46629 0
M  V30 5539 H 515.628 -2.98966 3.81896 0
M  V30 5540 H 511.507 -3.66547 2.79579 0
M  V30 5541 H 515.051 -3.17297 6.21263 0
M  V30 5542 H 510.948 -3.85072 5.18063 0
M  V30 5543 H 511.716 -3.78833 7.25553 0
M  V30 5544 N 514.379 -1.04941 -1.1758 0
M  V30 5545 C 515.289 -0.658826 -2.25159 0
M  V30 5546 C 516.305 0.318941 -1.71052 0
M  V30 5547 O 517.481 0.171669 -2.00667 0
M  V30 5548 C 514.546 -0.0369522 -3.4668 0
M  V30 5549 C 513.607 -1.06484 -4.15884 0
M  V30 5550 C 512.84 -0.472551 -5.31604 0
M  V30 5551 O 513.063 0.718736 -5.65854 0
M  V30 5552 O 511.997 -1.20557 -5.89703 0
M  V30 5553 H 515.823 -1.55533 -2.60851 0
M  V30 5554 H 513.408 -0.820819 -1.24832 0
M  V30 5555 H 515.29 0.308784 -4.20267 0
M  V30 5556 H 513.965 0.833238 -3.12792 0
M  V30 5557 H 512.872 -1.46253 -3.44327 0
M  V30 5558 H 514.205 -1.9061 -4.53794 0
M  V30 5559 N 515.857 1.33968 -0.830081 0
M  V30 5560 C 517.103 1.98357 -0.422191 0
M  V30 5561 C 517.436 1.65633 1.01387 0
M  V30 5562 O 516.711 0.931648 1.70735 0
M  V30 5563 C 516.994 3.54492 -0.633043 0
M  V30 5564 C 516.847 3.96934 -2.11574 0
M  V30 5565 C 518.166 4.40039 -0.0735584 0
M  V30 5566 H 515.285 0.720544 -0.154871 0
M  V30 5567 H 517.927 1.58749 -1.04397 0
M  V30 5568 H 516.077 3.88361 -0.103775 0
M  V30 5569 H 517.749 3.73363 -2.7092 0
M  V30 5570 H 515.992 3.46984 -2.60354 0
M  V30 5571 H 516.663 5.05651 -2.21406 0
M  V30 5572 H 519.139 4.12764 -0.52585 0
M  V30 5573 H 518.015 5.48327 -0.250841 0
M  V30 5574 H 518.276 4.30124 1.02202 0
M  V30 5575 N 517.335 0.585699 1.46312 0
M  V30 5576 C 518.746 0.159938 1.86014 0
M  V30 5577 C 519.097 -1.27775 1.48889 0
M  V30 5578 O 518.222 -1.96559 0.90519 0
M  V30 5579 C 518.817 0.283485 3.37612 0
M  V30 5580 C 517.376 -0.0874256 3.76298 0
M  V30 5581 C 516.523 0.618055 2.70325 0
M  V30 5582 H 519.474 0.793737 1.37425 0
M  V30 5583 H 519.495 -0.490348 3.77327 0
M  V30 5584 H 519.007 1.32995 3.64601 0
M  V30 5585 H 517.108 -1.13391 3.54927 0
M  V30 5586 H 517.221 0.290975 4.78216 0
M  V30 5587 H 515.585 0.057993 2.54634 0
M  V30 5588 H 516.368 1.66623 3.00153 0
M  V30 5589 N 518.813 -1.54241 0.323641 0
M  V30 5590 C 519.761 -2.25813 -0.557804 0
M  V30 5591 C 520.755 -1.27225 -1.11849 0
M  V30 5592 O 521.961 -1.45001 -1.06652 0
M  V30 5593 H 518.336 -0.72532 -0.198532 0
M  V30 5594 H 520.307 -2.98322 0.0681112 0
M  V30 5595 C 519.056 -3.02913 -1.70701 0
M  V30 5596 H 518.379 -3.78593 -1.28482 0
M  V30 5597 H 519.819 -3.56238 -2.29935 0
M  V30 5598 C 518.278 -2.11217 -2.62467 0
M  V30 5599 O 518.808 -1.69508 -3.64184 0
M  V30 5600 N 517.014 -1.76704 -2.30703 0
M  V30 5601 H 516.561 -2.1082 -1.48029 0
M  V30 5602 H 516.519 -1.15631 -2.92364 0
M  V30 5603 N 520.291 -0.0518155 -1.57515 0
M  V30 5604 C 521.519 0.631395 -1.9703 0
M  V30 5605 C 521.934 1.64341 -0.92938 0
M  V30 5606 O 521.291 1.82296 0.0863266 0
M  V30 5607 C 521.342 1.31774 -3.36627 0
M  V30 5608 O 521.063 0.346247 -4.3673 0
M  V30 5609 C 522.564 2.09065 -3.90905 0
M  V30 5610 H 519.784 0.172576 -0.648428 0
M  V30 5611 H 522.328 -0.118306 -2.04158 0
M  V30 5612 H 520.483 2.01867 -3.30649 0
M  V30 5613 H 520.897 0.836226 -5.17791 0
M  V30 5614 H 522.371 2.52508 -4.9086 0
M  V30 5615 H 522.848 2.93908 -3.26366 0
M  V30 5616 H 523.454 1.43882 -4.00223 0
M  V30 5617 N 521.769 1.56035 0.221574 0
M  V30 5618 C 523.18 1.69229 0.788567 0
M  V30 5619 C 523.531 0.653814 1.84986 0
M  V30 5620 O 522.656 -0.195065 2.15519 0
M  V30 5621 C 523.251 3.06809 1.43713 0
M  V30 5622 C 521.81 3.21858 1.95152 0
M  V30 5623 C 520.957 2.65155 0.811685 0
M  V30 5624 H 523.908 1.587 -0.00307894 0
M  V30 5625 H 523.929 3.02666 2.30594 0
M  V30 5626 H 523.441 3.82369 0.664475 0
M  V30 5627 H 521.542 2.51167 2.7522 0
M  V30 5628 H 521.655 4.29073 2.1315 0
M  V30 5629 H 520.019 2.23635 1.21899 0
M  V30 5630 H 520.802 3.43261 0.0516987 0
M  V30 5631 N 523.247 -0.488276 1.49845 0
M  V30 5632 C 524.177 -1.59675 1.70371 0
M  V30 5633 C 525.158 -1.60878 0.552473 0
M  V30 5634 O 526.343 -1.77417 0.78973 0
M  V30 5635 C 523.473 -2.98098 1.782 0
M  V30 5636 C 522.427 -3.11761 2.93239 0
M  V30 5637 C 521.753 -4.51661 2.86193 0
M  V30 5638 C 523.053 -2.90589 4.33999 0
M  V30 5639 H 524.747 -1.42752 2.63177 0
M  V30 5640 H 522.293 -0.685317 1.26647 0
M  V30 5641 H 524.246 -3.75555 1.91144 0
M  V30 5642 H 522.97 -3.16138 0.820018 0
M  V30 5643 H 521.629 -2.36732 2.79917 0
M  V30 5644 H 521.277 -4.66595 1.87877 0
M  V30 5645 H 520.977 -4.61742 3.63412 0
M  V30 5646 H 522.501 -5.31162 3.01163 0
M  V30 5647 H 523.915 -3.57807 4.47936 0
M  V30 5648 H 522.312 -3.1213 5.12538 0
M  V30 5649 H 523.382 -1.86595 4.4756 0
M  V30 5650 N 524.725 -1.39134 -0.740242 0
M  V30 5651 C 525.965 -1.37499 -1.51239 0
M  V30 5652 C 526.329 0.0310084 -1.91975 0
M  V30 5653 O 527.53 0.172319 -2.68247 0
M  V30 5654 C 525.801 -2.31566 -2.72235 0
M  V30 5655 S 527.36 -2.48073 -3.61947 0
M  V30 5656 H 524.178 -0.48768 -0.517387 0
M  V30 5657 H 526.78 -1.75183 -0.867826 0
M  V30 5658 H 525.484 -3.32592 -2.40439 0
M  V30 5659 H 525.015 -1.9508 -3.41625 0
M  V30 5660 H 527.03 -1.71473 -4.6563 0
M  V30 5661 N 526.204 0.969867 -1.24223 0
M  V30 5662 C 527.429 1.75289 -1.10853 0
M  V30 5663 C 527.854 1.85091 0.335079 0
M  V30 5664 O 527.212 1.32024 1.24255 0
M  V30 5665 C 527.26 3.15255 -1.75062 0
M  V30 5666 O 526.364 3.99589 -1.01992 0
M  V30 5667 H 525.705 0.538904 -0.387915 0
M  V30 5668 H 528.235 1.21675 -1.64488 0
M  V30 5669 H 528.245 3.65787 -1.80731 0
M  V30 5670 H 526.92 3.07436 -2.801 0
M  V30 5671 H 525.497 3.58077 -1.04094 0
M  V30 5672 N 527.682 1.05563 1.17022 0
M  V30 5673 C 528.645 0.664098 2.19368 0
M  V30 5674 C 529.645 -0.286358 1.5823 0
M  V30 5675 O 530.835 -0.069728 1.7406 0
M  V30 5676 C 527.967 -0.0239932 3.40892 0
M  V30 5677 H 529.16 1.57 2.55521 0
M  V30 5678 H 526.713 0.849964 1.31169 0
M  V30 5679 H 527.448 -0.942988 3.10287 0
M  V30 5680 H 527.233 0.659351 3.86516 0
M  V30 5681 H 528.723 -0.283909 4.16634 0
M  V30 5682 N 529.16 -1.33526 0.837174 0
M  V30 5683 C 530.576 -1.50727 0.524743 0
M  V30 5684 C 530.776 -1.77792 -0.948279 0
M  V30 5685 O 529.832 -1.83719 -1.73216 0
M  V30 5686 C 531.145 -2.66299 1.39661 0
M  V30 5687 C 532.693 -2.80183 1.39521 0
M  V30 5688 C 533.168 -3.98815 2.25189 0
M  V30 5689 N 534.659 -4.06047 2.2289 0
M  V30 5690 C 535.394 -4.97032 2.85915 0
M  V30 5691 N 534.89 -5.93143 3.57985 0
M  V30 5692 N 536.683 -4.90015 2.75394 0
M  V30 5693 H 528.834 -1.1422 1.79074 0
M  V30 5694 H 531.097 -0.561399 0.763894 0
M  V30 5695 H 530.803 -2.52974 2.4433 0
M  V30 5696 H 530.677 -3.61663 1.07145 0
M  V30 5697 H 533.064 -2.92942 0.356253 0
M  V30 5698 H 533.145 -1.85586 1.76044 0
M  V30 5699 H 532.789 -3.86817 3.29143 0
M  V30 5700 H 532.719 -4.92654 1.86009 0
M  V30 5701 H 535.21 -3.37262 1.70478 0
M  V30 5702 H 535.523 -6.59227 4.03286 0
M  V30 5703 H 533.868 -5.93223 3.62093 0
M  V30 5704 H 537.059 -4.13894 2.18654 0
M  V30 5705 H 537.232 -5.60724 3.24796 0
M  V30 5706 N 530.638 -0.59345 -1.46 0
M  V30 5707 C 531.915 -0.0157933 -1.95594 0
M  V30 5708 C 532.295 1.44807 -1.53604 0
M  V30 5709 O 531.643 2.14342 -0.791824 0
M  V30 5710 C 531.853 -0.199081 -3.48432 0
M  V30 5711 C 533.201 -0.0724943 -4.24538 0
M  V30 5712 O 534.225 -0.128469 -3.55968 0
M  V30 5713 O 533.084 0.0542426 -5.46473 0
M  V30 5714 H 530.178 0.043749 -0.825842 0
M  V30 5715 H 532.724 -0.662522 -1.56233 0
M  V30 5716 H 531.496 -1.21631 -3.71916 0
M  V30 5717 H 531.119 0.483576 -3.94648 0
M  V30 5718 N 532.116 1.54067 -0.331816 0
M  V30 5719 C 533.046 2.27569 0.522932 0
M  V30 5720 C 534.027 1.28679 1.11247 0
M  V30 5721 O 535.212 1.57504 1.13605 0
M  V30 5722 C 532.342 3.0397 1.67987 0
M  V30 5723 C 531.296 4.10267 1.21924 0
M  V30 5724 C 530.622 4.74555 2.46377 0
M  V30 5725 C 531.922 5.21268 0.32815 0
M  V30 5726 H 533.616 2.99264 -0.0901977 0
M  V30 5727 H 531.162 1.4393 -0.044821 0
M  V30 5728 H 533.115 3.54123 2.28418 0
M  V30 5729 H 531.839 2.29906 2.31971 0
M  V30 5730 H 530.498 3.61009 0.637809 0
M  V30 5731 H 530.146 3.97098 3.08743 0
M  V30 5732 H 529.846 5.46363 2.16243 0
M  V30 5733 H 531.37 5.27487 3.07555 0
M  V30 5734 H 532.784 5.67128 0.838978 0
M  V30 5735 H 531.181 5.99982 0.119228 0
M  V30 5736 H 532.251 4.80673 -0.638839 0
M  V30 5737 N 533.594 0.0601682 1.57485 0
M  V30 5738 C 534.557 -0.896373 2.10945 0
M  V30 5739 C 535.557 -1.23402 1.03095 0
M  V30 5740 O 536.747 -1.16921 1.29132 0
M  V30 5741 C 533.879 -2.20346 2.60116 0
M  V30 5742 H 535.072 -0.432778 2.96761 0
M  V30 5743 H 532.625 -0.188372 1.55161 0
M  V30 5744 H 533.36 -2.71268 1.7772 0
M  V30 5745 H 533.145 -1.9714 3.38937 0
M  V30 5746 H 534.635 -2.88846 3.01592 0
M  V30 5747 N 535.072 -1.5615 -0.213296 0
M  V30 5748 C 535.982 -1.96265 -1.28519 0
M  V30 5749 C 536.998 -0.86765 -1.50824 0
M  V30 5750 O 538.174 -1.17191 -1.63793 0
M  V30 5751 C 535.239 -2.27836 -2.61327 0
M  V30 5752 C 534.3 -3.50949 -2.47252 0
M  V30 5753 C 533.533 -3.81004 -3.73727 0
M  V30 5754 O 533.756 -3.12612 -4.77106 0
M  V30 5755 O 532.69 -4.74477 -3.70344 0
M  V30 5756 H 536.516 -2.87631 -0.974795 0
M  V30 5757 H 534.101 -1.43467 -0.416832 0
M  V30 5758 H 535.983 -2.49299 -3.39747 0
M  V30 5759 H 534.658 -1.39643 -2.9203 0
M  V30 5760 H 533.565 -3.34754 -1.67004 0
M  V30 5761 H 534.898 -4.39551 -2.21486 0
M  V30 5762 N 536.55 0.480323 -1.50102 0
M  V30 5763 C 537.497 1.57946 -1.6829 0
M  V30 5764 C 538.467 1.57611 -0.524223 0
M  V30 5765 O 539.652 1.75282 -0.753709 0
M  V30 5766 C 536.792 2.95978 -1.77457 0
M  V30 5767 C 535.905 3.06173 -3.04766 0
M  V30 5768 C 535.04 4.35063 -3.04784 0
M  V30 5769 C 534.079 4.38966 -4.26586 0
M  V30 5770 N 533.216 5.59314 -4.24396 0
M  V30 5771 H 538.056 1.41743 -2.62131 0
M  V30 5772 H 535.593 0.689304 -1.2995 0
M  V30 5773 H 537.551 3.76011 -1.80752 0
M  V30 5774 H 536.181 3.10837 -0.870637 0
M  V30 5775 H 535.233 2.19071 -3.10986 0
M  V30 5776 H 536.545 3.04916 -3.9475 0
M  V30 5777 H 535.699 5.23436 -3.06757 0
M  V30 5778 H 534.438 4.38915 -2.12614 0
M  V30 5779 H 533.443 3.48992 -4.24835 0
M  V30 5780 H 534.668 4.36813 -5.19972 0
M  V30 5781 H 532.614 5.63969 -3.35074 0
M  V30 5782 H 532.531 5.5976 -5.08138 0
M  V30 5783 H 533.799 6.49837 -4.30502 0
M  V30 5784 N 538.028 1.39524 0.732853 0
M  V30 5785 C 538.975 1.38416 1.84688 0
M  V30 5786 C 539.945 0.243539 1.64305 0
M  V30 5787 O 541.13 0.438979 1.85681 0
M  V30 5788 C 538.27 1.23555 3.22224 0
M  V30 5789 C 537.383 2.47179 3.54298 0
M  V30 5790 C 536.518 2.2489 4.81246 0
M  V30 5791 C 535.557 3.44178 5.0617 0
M  V30 5792 N 534.694 3.21192 6.24323 0
M  V30 5793 H 539.534 2.33645 1.84971 0
M  V30 5794 H 537.071 1.16059 0.903804 0
M  V30 5795 H 539.029 1.12949 4.0162 0
M  V30 5796 H 537.659 0.31954 3.21215 0
M  V30 5797 H 536.711 2.68379 2.69587 0
M  V30 5798 H 538.023 3.36022 3.68633 0
M  V30 5799 H 537.177 2.11538 5.68627 0
M  V30 5800 H 535.916 1.33443 4.69089 0
M  V30 5801 H 534.921 3.58025 4.17251 0
M  V30 5802 H 536.146 4.36528 5.20212 0
M  V30 5803 H 534.092 2.32413 6.1345 0
M  V30 5804 H 534.009 4.03594 6.39256 0
M  V30 5805 H 535.277 3.1154 7.14537 0
M  V30 5806 N 539.506 -0.963266 1.24736 0
M  V30 5807 C 540.736 -1.73913 1.11524 0
M  V30 5808 C 541.144 -1.86218 -0.334612 0
M  V30 5809 O 540.487 -1.3531 -1.24245 0
M  V30 5810 C 540.549 -3.17501 1.68622 0
M  V30 5811 C 540.213 -3.28655 3.17546 0
M  V30 5812 C 541.21 -3.13637 4.14642 0
M  V30 5813 C 538.895 -3.52753 3.5759 0
M  V30 5814 C 540.889 -3.2255 5.49764 0
M  V30 5815 C 538.576 -3.61303 4.92852 0
M  V30 5816 C 539.574 -3.46214 5.88748 0
M  V30 5817 O 539.262 -3.5443 7.2155 0
M  V30 5818 H 538.994 -0.552057 0.390139 0
M  V30 5819 H 541.548 -1.2177 1.65412 0
M  V30 5820 H 539.778 -3.70969 1.09172 0
M  V30 5821 H 541.467 -3.76914 1.50635 0
M  V30 5822 H 542.233 -2.94899 3.85045 0
M  V30 5823 H 538.112 -3.63561 2.83451 0
M  V30 5824 H 541.656 -3.1069 6.24594 0
M  V30 5825 H 537.553 -3.79556 5.22118 0
M  V30 5826 H 538.321 -3.71116 7.29531 0
M  V30 5827 N 540.985 -1.06182 -1.16461 0
M  V30 5828 C 542.234 -0.772927 -1.86303 0
M  V30 5829 C 542.547 0.703187 -1.82523 0
M  V30 5830 O 543.753 1.10641 -2.47933 0
M  V30 5831 C 542.209 -1.33249 -3.34324 0
M  V30 5832 C 541.817 -2.83876 -3.46581 0
M  V30 5833 C 543.561 -1.12108 -4.09429 0
M  V30 5834 C 541.468 -3.33082 -4.88682 0
M  V30 5835 H 540.398 -0.285452 -0.697878 0
M  V30 5836 H 543.049 -1.28039 -1.31447 0
M  V30 5837 H 541.431 -0.7528 -3.88779 0
M  V30 5838 H 542.605 -3.47786 -3.02293 0
M  V30 5839 H 540.92 -3.03671 -2.84909 0
M  V30 5840 H 543.517 -1.46361 -5.14279 0
M  V30 5841 H 543.86 -0.0593832 -4.16258 0
M  V30 5842 H 544.393 -1.6665 -3.6121 0
M  V30 5843 H 541.132 -4.38726 -4.87032 0
M  V30 5844 H 540.652 -2.73919 -5.33599 0
M  V30 5845 H 542.331 -3.28344 -5.57494 0
M  V30 5846 N 542.463 1.3308 -0.844243 0
M  V30 5847 C 543.393 2.3161 -0.296493 0
M  V30 5848 C 544.374 1.59215 0.598707 0
M  V30 5849 O 545.559 1.87077 0.521134 0
M  V30 5850 C 542.689 3.43313 0.524762 0
M  V30 5851 C 541.643 4.27115 -0.275106 0
M  V30 5852 C 540.969 5.30483 0.670236 0
M  V30 5853 C 542.269 5.00443 -1.49514 0
M  V30 5854 H 543.963 2.77672 -1.11976 0
M  V30 5855 H 541.509 1.33496 -0.539899 0
M  V30 5856 H 543.462 4.11273 0.918298 0
M  V30 5857 H 542.186 2.95952 1.3813 0
M  V30 5858 H 540.845 3.60787 -0.650267 0
M  V30 5859 H 540.493 4.79379 1.52332 0
M  V30 5860 H 540.193 5.87435 0.139123 0
M  V30 5861 H 541.717 6.01308 1.06117 0
M  V30 5862 H 543.131 5.61141 -1.17447 0
M  V30 5863 H 541.528 5.67071 -1.96343 0
M  V30 5864 H 542.598 4.28906 -2.26202 0
M  V30 5865 N 543.941 0.601185 1.45683 0
M  V30 5866 C 545.166 0.0982245 2.07167 0
M  V30 5867 C 545.591 -1.20546 1.44396 0
M  V30 5868 O 544.949 -1.73247 0.534347 0
M  V30 5869 C 544.997 -0.0346976 3.60583 0
M  V30 5870 O 544.101 -1.08657 3.97828 0
M  V30 5871 H 543.442 0.0711618 0.660176 0
M  V30 5872 H 545.972 0.829376 1.87036 0
M  V30 5873 H 545.982 -0.234969 4.07323 0
M  V30 5874 H 544.657 0.917265 4.05659 0
M  V30 5875 H 543.234 -0.863275 3.6277 0
M  V30 5876 N 545.419 -1.53889 0.339982 0
M  V30 5877 C 546.367 -2.26391 -0.533822 0
M  V30 5878 C 547.361 -1.28404 -1.10493 0
M  V30 5879 O 548.567 -1.46124 -1.05108 0
M  V30 5880 H 544.942 -0.727385 -0.190828 0
M  V30 5881 H 546.913 -2.98233 0.0997484 0
M  V30 5882 C 545.662 -3.04707 -1.67479 0
M  V30 5883 H 544.985 -3.79934 -1.2446 0
M  V30 5884 H 546.425 -3.58657 -2.26144 0
M  V30 5885 C 544.884 -2.13989 -2.60212 0
M  V30 5886 O 545.414 -1.73361 -3.62366 0
M  V30 5887 N 543.62 -1.79141 -2.28816 0
M  V30 5888 H 543.167 -2.12378 -1.45785 0
M  V30 5889 H 543.125 -1.18725 -2.91121 0
M  V30 5890 N 546.897 -0.0685191 -1.57451 0
M  V30 5891 C 547.86 0.885173 -2.11417 0
M  V30 5892 C 548.86 1.22853 -1.03748 0
M  V30 5893 O 550.05 1.16235 -1.2975 0
M  V30 5894 C 547.182 2.18964 -2.61281 0
M  V30 5895 H 548.375 0.417034 -2.96986 0
M  V30 5896 H 545.928 0.18014 -1.55258 0
M  V30 5897 H 546.663 2.70321 -1.79156 0
M  V30 5898 H 546.448 1.9534 -3.39977 0
M  V30 5899 H 547.938 2.87242 -3.0312 0
M  V30 5900 N 548.375 1.56261 0.205012 0
M  V30 5901 C 549.323 1.94631 1.27364 0
M  V30 5902 C 550.317 0.830434 1.47649 0
M  V30 5903 O 551.523 1.01538 1.48627 0
M  V30 5904 H 547.898 0.618755 0.427371 0
M  V30 5905 H 549.869 2.83768 0.922941 0
M  V30 5906 C 548.618 2.29358 2.61324 0
M  V30 5907 H 547.941 3.14744 2.46528 0
M  V30 5908 H 549.381 2.60076 3.34868 0
M  V30 5909 C 547.84 1.12461 3.17575 0
M  V30 5910 O 548.37 0.394407 3.99759 0
M  V30 5911 N 546.576 0.904036 2.7618 0
M  V30 5912 H 546.123 1.49956 2.09454 0
M  V30 5913 H 546.081 0.123662 3.14157 0
M  V30 5914 N 549.853 -0.472356 1.50355 0
M  V30 5915 C 551.078 -1.25251 1.65309 0
M  V30 5916 C 551.503 -1.85081 0.335643 0
M  V30 5917 O 550.861 -1.67227 -0.700335 0
M  V30 5918 C 550.909 -2.3379 2.74544 0
M  V30 5919 O 550.013 -3.38401 2.35709 0
M  V30 5920 H 549.354 -0.368539 0.552336 0
M  V30 5921 H 551.884 -0.562271 1.96722 0
M  V30 5922 H 551.894 -2.79121 2.97583 0
M  V30 5923 H 550.569 -1.89614 3.70161 0
M  V30 5924 H 549.146 -2.9879 2.23112 0
M  V30 5925 N 551.331 -1.39911 -0.725443 0
M  V30 5926 C 552.578 -1.37654 -1.48518 0
M  V30 5927 C 552.906 0.0243982 -1.94485 0
M  V30 5928 O 552.161 1.00708 -1.67799 0
M  V30 5929 C 552.46 -2.30368 -2.7325 0
M  V30 5930 C 552.126 -3.77817 -2.461 0
M  V30 5931 C 550.788 -4.17991 -2.38405 0
M  V30 5932 C 553.14 -4.71036 -2.23103 0
M  V30 5933 C 550.468 -5.49433 -2.05768 0
M  V30 5934 C 552.82 -6.02766 -1.9198 0
M  V30 5935 C 551.484 -6.41993 -1.82761 0
M  V30 5936 H 550.754 -0.503713 -0.543465 0
M  V30 5937 H 553.401 -1.7249 -0.831822 0
M  V30 5938 H 551.706 -1.88683 -3.43375 0
M  V30 5939 H 553.403 -2.2591 -3.31309 0
M  V30 5940 H 549.993 -3.45982 -2.52972 0
M  V30 5941 H 554.177 -4.40823 -2.2801 0
M  V30 5942 H 549.433 -5.78738 -1.9716 0
M  V30 5943 H 553.607 -6.74519 -1.73197 0
M  V30 5944 H 551.234 -7.43761 -1.57237 0
M  V30 5945 N 552.809 0.956637 -1.25245 0
M  V30 5946 C 554.049 1.71585 -1.11076 0
M  V30 5947 C 554.413 1.88916 0.34277 0
M  V30 5948 O 555.614 2.61875 0.606227 0
M  V30 5949 C 553.885 3.06267 -1.84215 0
M  V30 5950 S 555.444 3.97469 -1.85914 0
M  V30 5951 H 552.262 0.589803 -0.397055 0
M  V30 5952 H 554.864 1.14114 -1.58739 0
M  V30 5953 H 553.568 2.91322 -2.89067 0
M  V30 5954 H 553.099 3.688 -1.36931 0
M  V30 5955 H 555.114 4.87316 -0.93474 0
M  V30 5956 N 554.287 1.06798 1.15896 0
M  V30 5957 C 555.517 0.807522 1.90165 0
M  V30 5958 C 555.925 -0.642417 1.7796 0
M  V30 5959 O 555.268 -1.45193 1.12537 0
M  V30 5960 C 555.33 1.12939 3.41299 0
M  V30 5961 C 554.994 2.57879 3.7729 0
M  V30 5962 C 555.991 3.56118 3.78782 0
M  V30 5963 C 553.676 2.93311 4.07767 0
M  V30 5964 C 555.67 4.87827 4.10248 0
M  V30 5965 C 553.357 4.25219 4.38899 0
M  V30 5966 C 554.355 5.22287 4.4012 0
M  V30 5967 O 554.043 6.51826 4.70508 0
M  V30 5968 H 553.775 0.291946 0.609708 0
M  V30 5969 H 556.329 1.42627 1.47806 0
M  V30 5970 H 554.559 0.45359 3.84031 0
M  V30 5971 H 556.248 0.852363 3.9685 0
M  V30 5972 H 557.014 3.30086 3.55342 0
M  V30 5973 H 552.893 2.18409 4.05979 0
M  V30 5974 H 556.437 5.63586 4.11116 0
M  V30 5975 H 552.334 4.51006 4.61805 0
M  V30 5976 H 553.102 6.56893 4.88298 0
M  V30 5977 N 555.766 -1.3263 0.851289 0
M  V30 5978 C 556.676 -2.32722 0.296268 0
M  V30 5979 C 557.692 -1.63901 -0.584162 0
M  V30 5980 O 558.868 -1.95465 -0.485334 0
M  V30 5981 C 555.933 -3.42942 -0.509103 0
M  V30 5982 C 554.994 -4.2746 0.397069 0
M  V30 5983 C 554.227 -5.32416 -0.36996 0
M  V30 5984 O 554.45 -5.47491 -1.6003 0
M  V30 5985 O 553.384 -6.01327 0.262493 0
M  V30 5986 H 557.21 -2.82078 1.12543 0
M  V30 5987 H 554.795 -1.36194 0.614135 0
M  V30 5988 H 556.677 -4.1017 -0.96634 0
M  V30 5989 H 555.352 -2.95781 -1.31512 0
M  V30 5990 H 554.259 -3.63053 0.902411 0
M  V30 5991 H 555.592 -4.78136 1.16818 0
M  V30 5992 N 557.244 -0.608902 -1.45362 0
M  V30 5993 C 558.192 0.121639 -2.32282 0
M  V30 5994 C 559.186 0.858301 -1.46046 0
M  V30 5995 O 560.392 0.773718 -1.62523 0
M  V30 5996 H 556.767 0.058086 -0.749753 0
M  V30 5997 H 558.738 -0.629866 -2.91677 0
M  V30 5998 C 557.487 1.1047 -3.29684 0
M  V30 5999 H 556.81 0.547278 -3.96036 0
M  V30 6000 H 558.25 1.58576 -3.9323 0
M  V30 6001 C 556.709 2.17891 -2.56954 0
M  V30 6002 O 557.239 3.25652 -2.35189 0
M  V30 6003 N 555.445 1.93211 -2.17066 0
M  V30 6004 H 554.992 1.05584 -2.34967 0
M  V30 6005 H 554.95 2.6529 -1.68727 0
M  V30 6006 N 558.722 1.53707 -0.348139 0
M  V30 6007 C 559.632 2.28881 0.514857 0
M  V30 6008 C 560.648 1.34168 1.10793 0
M  V30 6009 O 561.824 1.6721 1.12262 0
M  V30 6010 C 558.889 3.05042 1.64774 0
M  V30 6011 C 557.95 4.15389 1.08398 0
M  V30 6012 C 557.183 4.87909 2.16287 0
M  V30 6013 O 557.406 4.60137 3.3709 0
M  V30 6014 O 556.34 5.74254 1.80323 0
M  V30 6015 H 560.166 3.03547 -0.0963699 0
M  V30 6016 H 557.751 1.48972 -0.113043 0
M  V30 6017 H 559.633 3.52656 2.30677 0
M  V30 6018 H 558.308 2.33228 2.24469 0
M  V30 6019 H 557.215 3.72068 0.389341 0
M  V30 6020 H 558.548 4.89318 0.531829 0
M  V30 6021 N 560.2 0.0768682 1.57412 0
M  V30 6022 C 561.446 -0.591961 1.93968 0
M  V30 6023 C 561.779 -1.68954 0.9575 0
M  V30 6024 O 561.054 -1.94496 -0.0124675 0
M  V30 6025 C 561.337 -1.16418 3.40762 0
M  V30 6026 C 561.19 -0.0728933 4.49741 0
M  V30 6027 C 562.509 -2.06814 3.88479 0
M  V30 6028 H 559.628 -0.213716 0.705333 0
M  V30 6029 H 562.27 0.14387 1.89455 0
M  V30 6030 H 560.42 -1.79128 3.4474 0
M  V30 6031 H 562.092 0.560446 4.57883 0
M  V30 6032 H 560.335 0.595859 4.29688 0
M  V30 6033 H 561.006 -0.513755 5.49604 0
M  V30 6034 H 563.482 -1.54033 3.8654 0
M  V30 6035 H 562.358 -2.43785 4.91793 0
M  V30 6036 H 562.619 -2.97844 3.26713 0
M  V30 6037 N 561.678 -1.56367 -0.196722 0
M  V30 6038 C 562.641 -1.93561 -1.22746 0
M  V30 6039 C 563.641 -0.816566 -1.38524 0
M  V30 6040 O 564.831 -1.084 -1.36363 0
M  V30 6041 C 561.963 -2.20823 -2.59712 0
M  V30 6042 H 563.156 -2.85774 -0.909586 0
M  V30 6043 H 560.709 -1.50032 -0.438174 0
M  V30 6044 H 561.444 -1.31243 -2.96557 0
M  V30 6045 H 561.229 -3.02368 -2.49632 0
M  V30 6046 H 562.719 -2.50608 -3.34044 0
M  V30 6047 N 563.156 0.464375 -1.50603 0
M  V30 6048 C 564.086 1.56944 -1.72889 0
M  V30 6049 C 565.067 1.59979 -0.577997 0
M  V30 6050 O 566.252 1.76138 -0.817855 0
M  V30 6051 C 563.382 2.95225 -1.8292 0
M  V30 6052 C 562.336 3.07056 -2.98162 0
M  V30 6053 C 561.662 4.47051 -2.93343 0
M  V30 6054 C 562.962 2.83648 -4.38567 0
M  V30 6055 H 564.656 1.38547 -2.65415 0
M  V30 6056 H 562.202 0.665082 -1.27721 0
M  V30 6057 H 564.155 3.72467 -1.97095 0
M  V30 6058 H 562.879 3.14793 -0.870209 0
M  V30 6059 H 561.538 2.32248 -2.83648 0
M  V30 6060 H 561.186 4.63547 -1.95276 0
M  V30 6061 H 560.886 4.55902 -3.70712 0
M  V30 6062 H 562.41 5.26304 -3.09575 0
M  V30 6063 H 563.824 3.50636 -4.53572 0
M  V30 6064 H 562.221 3.03937 -5.17438 0
M  V30 6065 H 563.291 1.79451 -4.50472 0
M  V30 6066 N 564.634 1.40294 0.718013 0
M  V30 6067 C 565.862 1.4175 1.50714 0
M  V30 6068 C 566.277 0.0165366 1.88793 0
M  V30 6069 O 565.634 -0.958942 1.55276 0
M  V30 6070 C 565.685 2.30598 2.784 0
M  V30 6071 O 565.406 3.6524 2.41932 0
M  V30 6072 C 566.907 2.4062 3.72313 0
M  V30 6073 H 564.127 0.483565 0.465194 0
M  V30 6074 H 566.671 1.84316 0.885889 0
M  V30 6075 H 564.826 1.91401 3.36815 0
M  V30 6076 H 565.24 4.12402 3.24076 0
M  V30 6077 H 566.714 3.07001 4.58753 0
M  V30 6078 H 567.191 1.4305 4.15251 0
M  V30 6079 H 567.797 2.80359 3.19811 0
M  V30 6080 N 566.112 -0.949982 1.2575 0
M  V30 6081 C 567.337 -1.73503 1.13628 0
M  V30 6082 C 567.762 -1.85601 -0.30559 0
M  V30 6083 O 567.12 -1.33984 -1.22139 0
M  V30 6084 C 567.168 -3.1243 1.80055 0
M  V30 6085 O 566.272 -3.97916 1.08336 0
M  V30 6086 H 565.613 -0.532665 0.396439 0
M  V30 6087 H 568.143 -1.19043 1.66403 0
M  V30 6088 H 568.153 -3.62866 1.86527 0
M  V30 6089 H 566.828 -3.02941 2.84956 0
M  V30 6090 H 565.405 -3.56375 1.09777 0
M  V30 6091 N 567.59 -1.07411 -1.15328 0
M  V30 6092 C 568.537 -0.694995 -2.20087 0
M  V30 6093 C 569.507 0.313904 -1.63107 0
M  V30 6094 O 570.692 0.200216 -1.89747 0
M  V30 6095 C 567.832 -0.0996218 -3.44956 0
M  V30 6096 C 566.945 -1.16007 -4.16133 0
M  V30 6097 C 566.08 -0.529636 -5.28553 0
M  V30 6098 C 565.119 -1.57283 -5.91548 0
M  V30 6099 N 564.256 -0.964932 -6.95438 0
M  V30 6100 H 569.096 -1.5927 -2.51867 0
M  V30 6101 H 566.633 -0.796115 -1.23695 0
M  V30 6102 H 568.591 0.263197 -4.16369 0
M  V30 6103 H 567.221 0.761435 -3.13691 0
M  V30 6104 H 566.273 -1.64045 -3.4321 0
M  V30 6105 H 567.585 -1.95101 -4.59061 0
M  V30 6106 H 566.739 -0.114487 -6.06592 0
M  V30 6107 H 565.478 0.29307 -4.86819 0
M  V30 6108 H 564.483 -1.99775 -5.12221 0
M  V30 6109 H 565.708 -2.39783 -6.35359 0
M  V30 6110 H 563.654 -0.16314 -6.55797 0
M  V30 6111 H 563.571 -1.69311 -7.36797 0
M  V30 6112 H 564.839 -0.575305 -7.77374 0
M  V30 6113 N 569.068 1.32177 -0.85831 0
M  V30 6114 C 569.978 2.32561 -0.308606 0
M  V30 6115 C 570.994 1.64209 0.575462 0
M  V30 6116 O 572.17 1.95719 0.474961 0
M  V30 6117 C 569.235 3.43207 0.490909 0
M  V30 6118 C 568.296 4.27243 -0.419733 0
M  V30 6119 C 567.529 5.32605 0.341719 0
M  V30 6120 O 567.752 5.48332 1.57125 0
M  V30 6121 O 566.686 6.0118 -0.294379 0
M  V30 6122 H 570.512 2.81477 -1.14037 0
M  V30 6123 H 568.097 1.35866 -0.621349 0
M  V30 6124 H 569.979 4.10677 0.944574 0
M  V30 6125 H 568.654 2.96474 1.29941 0
M  V30 6126 H 567.561 3.62569 -0.921652 0
M  V30 6127 H 568.894 4.7751 -1.19352 0
M  V30 6128 N 570.547 0.616602 1.45037 0
M  V30 6129 C 571.457 -0.0985401 2.34393 0
M  V30 6130 C 572.473 -0.850971 1.51771 0
M  V30 6131 O 573.649 -0.806521 1.84546 0
M  V30 6132 C 570.714 -1.07748 3.29532 0
M  V30 6133 C 569.775 -0.326022 4.2806 0
M  V30 6134 C 569.008 -1.25833 5.18654 0
M  V30 6135 O 569.231 -2.49652 5.12864 0
M  V30 6136 O 568.165 -0.750512 5.97203 0
M  V30 6137 H 571.991 0.636016 2.96966 0
M  V30 6138 H 569.576 0.376832 1.44569 0
M  V30 6139 H 571.458 -1.64107 3.88133 0
M  V30 6140 H 570.133 -1.79291 2.69512 0
M  V30 6141 H 569.04 0.280253 3.73049 0
M  V30 6142 H 570.373 0.349091 4.9096 0
M  V30 6143 N 572.025 -1.5352 0.356285 0
M  V30 6144 C 573.302 -1.93405 -0.292223 0
M  V30 6145 C 573.682 -1.28901 -1.67176 0
M  V30 6146 O 573.03 -0.444632 -2.24132 0
M  V30 6147 C 573.24 -3.47223 -0.35175 0
M  V30 6148 C 574.588 -4.20389 -0.596534 0
M  V30 6149 O 575.612 -3.53554 -0.433344 0
M  V30 6150 O 574.471 -5.3881 -0.913589 0
M  V30 6151 H 571.565 -0.808666 -0.173172 0
M  V30 6152 H 574.111 -1.64713 0.408391 0
M  V30 6153 H 572.883 -3.86423 0.615841 0
M  V30 6154 H 572.506 -3.8212 -1.09864 0
M  V30 6155 N 573.503 -0.0852151 -1.57369 0
M  V30 6156 C 574.78 0.622534 -1.85429 0
M  V30 6157 C 575.16 1.86962 -0.980229 0
M  V30 6158 O 574.508 2.28445 -0.0500219 0
M  V30 6159 C 574.718 0.947374 -3.35896 0
M  V30 6160 C 576.066 1.31509 -4.03721 0
M  V30 6161 O 577.09 1.03869 -3.40719 0
M  V30 6162 O 575.949 1.83231 -5.14868 0
M  V30 6163 H 573.043 0.310513 -0.766492 0
M  V30 6164 H 575.589 -0.117164 -1.69295 0
M  V30 6165 H 574.361 0.0622264 -3.91251 0
M  V30 6166 H 573.984 1.74338 -3.5734 0
M  V30 6167 N 574.981 1.5647 0.188427 0
M  V30 6168 C 576.206 1.85486 0.927891 0
M  V30 6169 C 576.631 0.669575 1.75779 0
M  V30 6170 O 575.989 -0.381573 1.77239 0
M  V30 6171 C 576.037 3.12784 1.7944 0
M  V30 6172 O 575.141 2.93805 2.894 0
M  V30 6173 H 574.482 0.610585 0.260925 0
M  V30 6174 H 577.012 2.037 0.191729 0
M  V30 6175 H 577.022 3.43749 2.19774 0
M  V30 6176 H 575.697 3.98671 1.18468 0
M  V30 6177 H 574.274 2.74153 2.52774 0
M  V30 6178 N 576.459 -0.456382 1.50847 0
M  V30 6179 C 577.369 -1.57805 1.73594 0
M  V30 6180 C 578.385 -1.62599 0.619476 0
M  V30 6181 O 579.561 -1.80195 0.899532 0
M  V30 6182 C 576.626 -2.93926 1.8387 0
M  V30 6183 C 575.687 -2.99402 3.07663 0
M  V30 6184 C 574.92 -4.29031 3.1744 0
M  V30 6185 O 575.143 -5.20358 2.33631 0
M  V30 6186 O 574.077 -4.40401 4.10281 0
M  V30 6187 H 577.903 -1.41531 2.68705 0
M  V30 6188 H 575.488 -0.637422 1.3512 0
M  V30 6189 H 577.37 -3.74747 1.92725 0
M  V30 6190 H 576.045 -3.10368 0.91944 0
M  V30 6191 H 574.952 -2.17606 3.043 0
M  V30 6192 H 576.285 -2.87901 3.99216 0
M  V30 6193 N 577.937 -1.40673 -0.710563 0
M  V30 6194 C 578.885 -1.41517 -1.84596 0
M  V30 6195 C 579.879 -0.295043 -1.66811 0
M  V30 6196 O 581.085 -0.466331 -1.73854 0
M  V30 6197 H 577.46 -0.442467 -0.608052 0
M  V30 6198 H 579.431 -2.37238 -1.80999 0
M  V30 6199 C 578.18 -1.29957 -3.225 0
M  V30 6200 H 577.503 -2.15429 -3.36794 0
M  V30 6201 H 578.943 -1.34608 -4.02066 0
M  V30 6202 C 577.402 -0.0103164 -3.36898 0
M  V30 6203 O 577.932 0.950707 -3.90288 0
M  V30 6204 N 576.138 0.0608409 -2.90536 0
M  V30 6205 H 575.685 -0.721943 -2.47277 0
M  V30 6206 H 575.643 0.92292 -3.00549 0
M  V30 6207 N 579.415 0.9433 -1.26252 0
M  V30 6208 C 580.663 1.68592 -1.11451 0
M  V30 6209 C 580.984 1.91957 0.343123 0
M  V30 6210 O 580.254 1.51475 1.24226 0
M  V30 6211 H 578.834 0.624789 -0.409448 0
M  V30 6212 H 581.496 1.13351 -1.58548 0
M  V30 6213 H 580.592 2.66054 -1.63162 0
M  V30 6214 N 580.893 1.08022 1.14757 0
M  V30 6215 C 582.139 0.808705 1.85978 0
M  V30 6216 C 582.472 -0.663764 1.82504 0
M  V30 6217 O 581.747 -1.48765 1.25296 0
M  V30 6218 C 582.03 1.32623 3.34788 0
M  V30 6219 C 581.883 2.86375 3.46856 0
M  V30 6220 C 583.202 0.948291 4.29762 0
M  V30 6221 H 580.321 0.295244 0.675278 0
M  V30 6222 H 582.963 1.33917 1.34783 0
M  V30 6223 H 581.113 0.875002 3.78518 0
M  V30 6224 H 582.785 3.39839 3.11941 0
M  V30 6225 H 581.028 3.24232 2.88194 0
M  V30 6226 H 581.699 3.17658 4.51439 0
M  V30 6227 H 584.175 1.33722 3.94028 0
M  V30 6228 H 583.051 1.33765 5.32352 0
M  V30 6229 H 583.312 -0.145094 4.41862 0
M  V30 6230 N 582.371 -1.3172 0.865308 0
M  V30 6231 C 583.782 -1.79104 0.527126 0
M  V30 6232 C 584.133 -1.7135 -0.955695 0
M  V30 6233 O 583.258 -1.27845 -1.74598 0
M  V30 6234 C 583.853 -3.25207 0.950061 0
M  V30 6235 C 582.412 -3.70504 0.663611 0
M  V30 6236 C 581.559 -2.52605 1.14395 0
M  V30 6237 H 584.51 -1.18868 1.05148 0
M  V30 6238 H 584.531 -3.79535 0.270805 0
M  V30 6239 H 584.043 -3.30818 2.02931 0
M  V30 6240 H 582.144 -3.70398 -0.404474 0
M  V30 6241 H 582.257 -4.62845 1.23737 0
M  V30 6242 H 580.621 -2.4838 0.563859 0
M  V30 6243 H 581.404 -2.60964 2.23053 0
M  V30 6244 N 583.85 -0.624285 -1.44708 0
M  V30 6245 C 584.76 0.0861083 -2.34442 0
M  V30 6246 C 585.776 0.84291 -1.5222 0
M  V30 6247 O 586.952 0.796723 -1.84971 0
M  V30 6248 C 584.017 1.05999 -3.30099 0
M  V30 6249 C 583.077 0.303316 -4.28227 0
M  V30 6250 C 582.311 1.23081 -5.19314 0
M  V30 6251 O 582.534 2.46929 -5.14181 0
M  V30 6252 O 581.468 0.71883 -5.97592 0
M  V30 6253 H 585.293 -0.651756 -2.96624 0
M  V30 6254 H 582.879 -0.384493 -1.44368 0
M  V30 6255 H 584.76 1.62046 -3.88997 0
M  V30 6256 H 583.436 1.77859 -2.70459 0
M  V30 6257 H 582.343 -0.300033 -3.72895 0
M  V30 6258 H 583.676 -0.375123 -4.90768 0
M  V30 6259 N 585.328 1.53329 -0.364422 0
M  V30 6260 C 586.553 2.06132 0.229033 0
M  V30 6261 C 586.978 1.23625 1.41769 0
M  V30 6262 O 586.336 0.255038 1.79497 0
M  V30 6263 C 586.384 3.55544 0.60174 0
M  V30 6264 O 585.488 3.75771 1.69912 0
M  V30 6265 H 584.829 0.663148 0.0336213 0
M  V30 6266 H 587.359 1.97758 -0.524689 0
M  V30 6267 H 587.369 3.98549 0.873073 0
M  V30 6268 H 586.044 4.15039 -0.267421 0
M  V30 6269 H 584.621 3.44663 1.42343 0
M  V30 6270 N 586.806 0.0935595 1.57322 0
M  V30 6271 C 588.034 -0.578934 1.98635 0
M  V30 6272 C 588.449 -1.61819 0.972626 0
M  V30 6273 O 587.806 -1.82461 -0.0379638 0
M  V30 6274 C 587.857 -1.22802 3.40003 0
M  V30 6275 O 587.578 -0.230334 4.37494 0
M  V30 6276 C 589.079 -1.98627 3.96311 0
M  V30 6277 H 586.299 -0.155324 0.652775 0
M  V30 6278 H 588.843 0.172393 2.03772 0
M  V30 6279 H 586.998 -1.93029 3.35885 0
M  V30 6280 H 587.412 -0.698649 5.19826 0
M  V30 6281 H 588.886 -2.39405 4.97382 0
M  V30 6282 H 589.363 -2.85151 3.34044 0
M  V30 6283 H 589.969 -1.3322 4.03897 0
M  V30 6284 N 588.284 -1.56567 -0.180126 0
M  V30 6285 C 589.509 -1.85975 -0.918041 0
M  V30 6286 C 589.934 -0.678888 -1.75422 0
M  V30 6287 O 589.292 0.372168 -1.77439 0
M  V30 6288 C 589.34 -3.13731 -1.77779 0
M  V30 6289 O 588.444 -2.95335 -2.87838 0
M  V30 6290 H 587.785 -0.61196 -0.257683 0
M  V30 6291 H 590.315 -2.03798 -0.180923 0
M  V30 6292 H 590.325 -3.4491 -2.17948 0
M  V30 6293 H 589 -3.99293 -1.16352 0
M  V30 6294 H 587.577 -2.7549 -2.51316 0
M  V30 6295 N 589.762 0.448376 -1.51087 0
M  V30 6296 C 590.99 1.22143 -1.66999 0
M  V30 6297 C 591.405 1.85283 -0.362699 0
M  V30 6298 O 590.762 1.70236 0.65772 0
M  V30 6299 C 590.813 2.31357 -2.7777 0
M  V30 6300 O 590.534 1.70801 -4.03434 0
M  V30 6301 C 592.035 3.21836 -3.04855 0
M  V30 6302 H 589.255 0.368558 -0.560719 0
M  V30 6303 H 591.799 0.532618 -1.97442 0
M  V30 6304 H 589.954 2.95973 -2.49958 0
M  V30 6305 H 590.368 2.42895 -4.64868 0
M  V30 6306 H 591.842 3.94627 -3.85971 0
M  V30 6307 H 592.319 3.81949 -2.16821 0
M  V30 6308 H 592.925 2.62933 -3.34285 0
M  V30 6309 N 591.24 1.41047 0.703093 0
M  V30 6310 C 592.517 1.30493 1.45708 0
M  V30 6311 C 592.897 -0.0709892 2.10981 0
M  V30 6312 O 592.245 -1.08471 2.01113 0
M  V30 6313 C 592.455 2.45287 2.48265 0
M  V30 6314 C 593.803 2.86104 3.13735 0
M  V30 6315 O 594.827 2.44971 2.58587 0
M  V30 6316 O 593.686 3.57206 4.13601 0
M  V30 6317 H 590.78 0.513144 0.648546 0
M  V30 6318 H 593.326 1.52995 0.734208 0
M  V30 6319 H 592.098 3.37135 1.98635 0
M  V30 6320 H 591.721 2.24622 3.28071 0
M  V30 6321 N 592.718 -0.936591 1.26751 0
M  V30 6322 C 593.946 -1.71758 1.15355 0
M  V30 6323 C 594.361 -1.86549 -0.290683 0
M  V30 6324 O 593.718 -1.37616 -1.19868 0
M  V30 6325 C 593.769 -3.12193 1.82258 0
M  V30 6326 O 593.49 -2.98105 3.21038 0
M  V30 6327 C 594.991 -4.06485 1.76875 0
M  V30 6328 H 592.211 -0.537636 0.401483 0
M  V30 6329 H 594.755 -1.17382 1.67457 0
M  V30 6330 H 592.91 -3.63456 1.34083 0
M  V30 6331 H 593.324 -3.86824 3.54214 0
M  V30 6332 H 594.798 -5.02569 2.28316 0
M  V30 6333 H 595.275 -4.32986 0.736216 0
M  V30 6334 H 595.881 -3.61144 2.24623 0
M  V30 6335 N 594.196 -1.08629 -1.14182 0
M  V30 6336 C 595.607 -0.838003 -1.66836 0
M  V30 6337 C 595.958 0.634885 -1.85644 0
M  V30 6338 O 595.083 1.49008 -1.56926 0
M  V30 6339 C 595.678 -1.51465 -3.03058 0
M  V30 6340 C 594.237 -1.31355 -3.52736 0
M  V30 6341 C 593.384 -1.57599 -2.28162 0
M  V30 6342 H 596.335 -1.24656 -0.982165 0
M  V30 6343 H 596.356 -0.943134 -3.68626 0
M  V30 6344 H 595.868 -2.58661 -2.89337 0
M  V30 6345 H 593.969 -0.262384 -3.71675 0
M  V30 6346 H 594.082 -2.04275 -4.33369 0
M  V30 6347 H 592.446 -0.997659 -2.34348 0
M  V30 6348 H 593.229 -2.66006 -2.17015 0
M  V30 6349 N 595.674 1.31259 -0.872281 0
M  V30 6350 C 597.085 1.78822 -0.536617 0
M  V30 6351 C 597.436 1.71855 0.946594 0
M  V30 6352 O 596.561 1.28769 1.73918 0
M  V30 6353 C 597.156 3.24698 -0.967294 0
M  V30 6354 C 595.715 3.70147 -0.683251 0
M  V30 6355 C 594.862 2.51994 -1.15733 0
M  V30 6356 H 597.813 1.18308 -1.05777 0
M  V30 6357 H 597.834 3.79386 -0.290929 0
M  V30 6358 H 597.346 3.29737 -2.04683 0
M  V30 6359 H 595.447 3.70607 0.384825 0
M  V30 6360 H 595.56 4.62183 -1.2619 0
M  V30 6361 H 593.924 2.48078 -0.577024 0
M  V30 6362 H 594.707 2.59778 -2.24434 0
M  V30 6363 N 597.152 0.631951 1.44375 0
M  V30 6364 C 598.429 0.067646 1.95483 0
M  V30 6365 C 598.809 -1.40683 1.57389 0
M  V30 6366 O 598.157 -2.12167 0.848375 0
M  V30 6367 C 598.367 0.291392 3.47781 0
M  V30 6368 C 599.715 0.185028 4.24197 0
M  V30 6369 O 600.739 0.222803 3.55503 0
M  V30 6370 O 599.598 0.0906642 5.46425 0
M  V30 6371 H 596.692 -0.0218379 0.826712 0
M  V30 6372 H 599.238 0.703711 1.54421 0
M  V30 6373 H 598.01 1.31449 3.68561 0
M  V30 6374 H 597.633 -0.378772 3.95792 0
M  V30 6375 N 598.631 -1.53133 0.372548 0
M  V30 6376 C 599.88 -2.00539 -0.216115 0
M  V30 6377 C 600.193 -1.26374 -1.49295 0
M  V30 6378 O 601.399 -1.64404 -2.16064 0
M  V30 6379 C 599.855 -3.57253 -0.435678 0
M  V30 6380 C 599.463 -4.40302 0.82693 0
M  V30 6381 C 601.207 -4.12995 -0.981618 0
M  V30 6382 C 599.114 -5.88583 0.576567 0
M  V30 6383 H 598.044 -0.749246 -0.084536 0
M  V30 6384 H 600.695 -1.76771 0.492364 0
M  V30 6385 H 599.077 -3.77202 -1.20559 0
M  V30 6386 H 600.251 -4.32124 1.60017 0
M  V30 6387 H 598.566 -3.95699 1.29659 0
M  V30 6388 H 601.163 -5.21418 -1.18436 0
M  V30 6389 H 601.506 -3.68027 -1.94581 0
M  V30 6390 H 602.039 -3.96871 -0.271696 0
M  V30 6391 H 598.778 -6.37841 1.51128 0
M  V30 6392 H 598.298 -5.99592 -0.158047 0
M  V30 6393 H 599.977 -6.46676 0.204722 0
M  V30 6394 N 600.109 -0.101901 -1.5727 0
M  V30 6395 C 601.386 0.602832 -1.86079 0
M  V30 6396 C 601.766 1.85912 -1 0
M  V30 6397 O 601.114 2.28379 -0.0742488 0
M  V30 6398 C 601.324 0.911694 -3.36881 0
M  V30 6399 C 602.672 1.2722 -4.05093 0
M  V30 6400 O 603.696 1.0025 -3.41802 0
M  V30 6401 O 602.555 1.7776 -5.16782 0
M  V30 6402 H 599.649 0.302366 -0.769743 0
M  V30 6403 H 602.195 -0.135113 -1.69161 0
M  V30 6404 H 600.967 0.0207256 -3.91295 0
M  V30 6405 H 600.59 1.70538 -3.59169 0
M  V30 6406 N 601.587 1.56661 0.17182 0
M  V30 6407 C 602.517 1.99401 1.21498 0
M  V30 6408 C 603.498 0.869516 1.46197 0
M  V30 6409 O 604.683 1.13556 1.57539 0
M  V30 6410 C 601.813 2.35346 2.55401 0
M  V30 6411 C 600.767 3.5075 2.45272 0
M  V30 6412 C 600.093 3.72437 3.8366 0
M  V30 6413 C 601.393 4.84216 1.95787 0
M  V30 6414 H 603.087 2.86792 0.859699 0
M  V30 6415 H 600.633 1.37977 0.412103 0
M  V30 6416 H 602.586 2.63843 3.2858 0
M  V30 6417 H 601.31 1.44864 2.92715 0
M  V30 6418 H 599.969 3.2238 1.74547 0
M  V30 6419 H 599.617 2.79246 4.18367 0
M  V30 6420 H 599.317 4.50087 3.77751 0
M  V30 6421 H 600.841 4.03334 4.58426 0
M  V30 6422 H 602.255 5.11592 2.5874 0
M  V30 6423 H 600.652 5.65498 2.00827 0
M  V30 6424 H 601.722 4.76243 0.912159 0
M  V30 6425 N 603.065 -0.440357 1.51323 0
M  V30 6426 C 604.015 -1.53263 1.68803 0
M  V30 6427 C 604.999 -1.51494 0.542057 0
M  V30 6428 O 606.191 -1.57999 0.797839 0
M  V30 6429 C 603.32 -2.91479 1.8137 0
M  V30 6430 C 602.406 -2.98015 3.01742 0
M  V30 6431 N 602.797 -2.743 4.24962 0
M  V30 6432 C 601.095 -3.29173 3.00934 0
M  V30 6433 C 601.796 -2.86601 5.06197 0
M  V30 6434 N 600.772 -3.1814 4.40781 0
M  V30 6435 H 604.574 -1.33675 2.61741 0
M  V30 6436 H 602.088 -0.647616 1.48929 0
M  V30 6437 H 604.085 -3.70055 1.92002 0
M  V30 6438 H 602.745 -3.12089 0.896117 0
M  V30 6439 H 603.756 -2.49287 4.53957 0
M  V30 6440 H 600.433 -3.55577 2.18796 0
M  V30 6441 H 601.823 -2.72246 6.14274 0
M  V30 6442 N 604.543 -1.41418 -0.695603 0
M  V30 6443 C 605.491 -1.43467 -1.83084 0
M  V30 6444 C 606.485 -0.312719 -1.66489 0
M  V30 6445 O 607.691 -0.484744 -1.7335 0
M  V30 6446 H 604.066 -0.448891 -0.603325 0
M  V30 6447 H 606.037 -2.39144 -1.78473 0
M  V30 6448 C 604.786 -1.3337 -3.21104 0
M  V30 6449 H 604.109 -2.18989 -3.3449 0
M  V30 6450 H 605.549 -1.38865 -4.00615 0
M  V30 6451 C 604.008 -0.0460484 -3.36869 0
M  V30 6452 O 604.538 0.909258 -3.91274 0
M  V30 6453 N 602.744 0.0300222 -2.90584 0
M  V30 6454 H 602.291 -0.748129 -2.46497 0
M  V30 6455 H 602.249 0.890991 -3.01511 0
M  V30 6456 N 606.021 0.929856 -1.27246 0
M  V30 6457 C 606.953 2.03434 -1.0558 0
M  V30 6458 C 607.966 1.62795 -0.0125762 0
M  V30 6459 O 609.155 1.76685 -0.2539 0
M  V30 6460 C 606.255 3.33915 -0.57912 0
M  V30 6461 C 605.428 4.03259 -1.69415 0
M  V30 6462 C 604.487 5.12014 -1.21357 0
M  V30 6463 O 603.513 5.36097 -1.91282 0
M  V30 6464 N 604.715 5.8046 -0.0680622 0
M  V30 6465 H 607.48 2.22583 -2.00691 0
M  V30 6466 H 605.041 1.1001 -1.18783 0
M  V30 6467 H 607.033 4.03978 -0.241563 0
M  V30 6468 H 605.603 3.11355 0.278703 0
M  V30 6469 H 604.823 3.26958 -2.20209 0
M  V30 6470 H 606.111 4.46337 -2.44255 0
M  V30 6471 H 605.509 5.63345 0.515626 0
M  V30 6472 H 604.066 6.51461 0.210332 0
M  V30 6473 N 607.499 1.09233 1.13605 0
M  V30 6474 C 608.462 0.733553 2.17144 0
M  V30 6475 C 609.462 -0.235873 1.59061 0
M  V30 6476 O 610.652 -0.0143167 1.74194 0
M  V30 6477 C 607.784 0.084471 3.40795 0
M  V30 6478 H 608.977 1.65049 2.50397 0
M  V30 6479 H 606.53 0.891264 1.28399 0
M  V30 6480 H 607.265 -0.843795 3.1313 0
M  V30 6481 H 607.05 0.781985 3.84223 0
M  V30 6482 H 608.54 -0.151216 4.17326 0
M  V30 6483 N 608.977 -1.30795 0.87923 0
M  V30 6484 C 610.202 -2.01063 0.508769 0
M  V30 6485 C 610.627 -1.65508 -0.893803 0
M  V30 6486 O 609.985 -0.868616 -1.59138 0
M  V30 6487 C 610.033 -3.54054 0.683991 0
M  V30 6488 O 609.137 -4.11498 -0.272654 0
M  V30 6489 H 608.478 -0.632786 0.201191 0
M  V30 6490 H 611.008 -1.66776 1.18519 0
M  V30 6491 H 611.018 -4.03845 0.580798 0
M  V30 6492 H 609.693 -3.79271 1.70665 0
M  V30 6493 H 608.27 -3.72695 -0.12364 0
M  V30 6494 N 610.455 -0.639598 -1.44038 0
M  V30 6495 C 611.701 -0.147698 -2.02261 0
M  V30 6496 C 612.034 1.23031 -1.50256 0
M  V30 6497 O 611.309 1.81847 -0.690068 0
M  V30 6498 C 611.592 -0.14362 -3.59813 0
M  V30 6499 C 611.445 -1.55458 -4.22082 0
M  V30 6500 C 612.764 0.527317 -4.36929 0
M  V30 6501 H 609.883 -0.0551453 -0.734934 0
M  V30 6502 H 612.525 -0.817688 -1.71505 0
M  V30 6503 H 610.675 0.426898 -3.86147 0
M  V30 6504 H 612.347 -2.17464 -4.06826 0
M  V30 6505 H 610.59 -2.10594 -3.79253 0
M  V30 6506 H 611.261 -1.50369 -5.31124 0
M  V30 6507 H 613.737 0.0420504 -4.16079 0
M  V30 6508 H 612.613 0.499389 -5.46624 0
M  V30 6509 H 612.874 1.59914 -4.12165 0
M  V30 6510 N 611.933 1.52934 -0.380664 0
M  V30 6511 C 613.344 1.86457 0.0952684 0
M  V30 6512 C 613.695 1.3007 1.46889 0
M  V30 6513 O 612.82 0.628636 2.07068 0
M  V30 6514 C 613.415 3.38323 0.179648 0
M  V30 6515 C 611.974 3.71589 0.599858 0
M  V30 6516 C 611.121 2.76228 -0.243572 0
M  V30 6517 H 614.072 1.46966 -0.59888 0
M  V30 6518 H 614.093 3.67113 1.00042 0
M  V30 6519 H 613.605 3.79333 -0.820228 0
M  V30 6520 H 611.706 3.36144 1.60742 0
M  V30 6521 H 611.819 4.77715 0.364003 0
M  V30 6522 H 610.183 2.53045 0.289855 0
M  V30 6523 H 610.966 3.20074 -1.24127 0
M  V30 6524 N 613.412 0.11024 1.57214 0
M  V30 6525 C 614.342 -0.840002 2.17867 0
M  V30 6526 C 615.323 -1.28352 1.11624 0
M  V30 6527 O 616.508 -1.3477 1.39824 0
M  V30 6528 C 613.638 -2.09349 2.77111 0
M  V30 6529 C 612.592 -1.78807 3.8886 0
M  V30 6530 C 611.918 -3.11112 4.34872 0
M  V30 6531 C 613.218 -1.0632 5.11364 0
M  V30 6532 H 614.912 -0.334608 2.97524 0
M  V30 6533 H 612.458 -0.159502 1.43114 0
M  V30 6534 H 614.411 -2.76275 3.18198 0
M  V30 6535 H 613.135 -2.62198 1.9473 0
M  V30 6536 H 611.794 -1.14273 3.48335 0
M  V30 6537 H 611.442 -3.61877 3.49362 0
M  V30 6538 H 611.142 -2.91453 5.10224 0
M  V30 6539 H 612.666 -3.79171 4.78604 0
M  V30 6540 H 614.08 -1.63383 5.49526 0
M  V30 6541 H 612.477 -0.967876 5.92243 0
M  V30 6542 H 613.547 -0.0484569 4.84876 0
M  V30 6543 N 614.89 -1.56749 -0.16351 0
M  V30 6544 C 615.8 -2.00255 -1.2221 0
M  V30 6545 C 616.816 -0.915194 -1.47987 0
M  V30 6546 O 617.992 -1.22342 -1.59982 0
M  V30 6547 C 615.057 -2.36035 -2.53946 0
M  V30 6548 C 614.118 -3.58637 -2.35962 0
M  V30 6549 C 613.351 -3.92701 -3.61416 0
M  V30 6550 O 613.574 -3.27632 -4.66919 0
M  V30 6551 O 612.508 -4.86019 -3.55062 0
M  V30 6552 H 616.334 -2.90586 -0.882794 0
M  V30 6553 H 613.919 -1.44721 -0.370978 0
M  V30 6554 H 615.801 -2.59982 -3.31643 0
M  V30 6555 H 614.476 -1.48863 -2.8744 0
M  V30 6556 H 613.383 -3.39898 -1.5627 0
M  V30 6557 H 614.716 -4.46374 -2.0739 0
M  V30 6558 N 616.368 0.432326 -1.51554 0
M  V30 6559 C 617.779 1.01202 -1.56892 0
M  V30 6560 C 618.13 1.92175 -0.395394 0
M  V30 6561 O 617.255 2.10844 0.487198 0
M  V30 6562 C 617.85 1.84217 -2.8434 0
M  V30 6563 C 616.409 2.37228 -2.92233 0
M  V30 6564 C 615.556 1.16576 -2.51606 0
M  V30 6565 H 618.507 0.213407 -1.57259 0
M  V30 6566 H 618.528 2.69721 -2.68385 0
M  V30 6567 H 618.04 1.17979 -3.69733 0
M  V30 6568 H 616.141 3.06905 -2.11282 0
M  V30 6569 H 616.254 2.69682 -3.95991 0
M  V30 6570 H 614.618 1.51263 -2.04919 0
M  V30 6571 H 615.401 0.519404 -3.39348 0
M  V30 6572 N 617.846 1.41785 0.688094 0
M  V30 6573 C 619.262 1.24419 0.999608 0
M  V30 6574 C 619.462 0.138868 2.01021 0
M  V30 6575 O 618.518 -0.494283 2.47615 0
M  V30 6576 C 619.831 2.59625 1.51709 0
M  V30 6577 C 621.379 2.66869 1.63554 0
M  V30 6578 C 621.854 4.0241 2.18702 0
M  V30 6579 N 623.345 4.04295 2.26053 0
M  V30 6580 C 624.08 5.05977 2.69768 0
M  V30 6581 N 623.576 6.18047 3.13033 0
M  V30 6582 N 625.369 4.93336 2.69398 0
M  V30 6583 H 617.52 2.12392 0.0187427 0
M  V30 6584 H 619.783 0.945347 0.0708673 0
M  V30 6585 H 619.489 3.41297 0.849059 0
M  V30 6586 H 619.363 2.82628 2.49803 0
M  V30 6587 H 621.75 1.8555 2.29467 0
M  V30 6588 H 621.831 2.47668 0.639857 0
M  V30 6589 H 621.475 4.8418 1.53402 0
M  V30 6590 H 621.405 4.18955 3.19037 0
M  V30 6591 H 623.896 3.23383 1.9553 0
M  V30 6592 H 624.209 6.91498 3.45038 0
M  V30 6593 H 622.554 6.21572 3.10923 0
M  V30 6594 H 625.745 4.04865 2.34952 0
M  V30 6595 H 625.918 5.72717 3.03148 0
M  V30 6596 N 619.324 -0.923095 1.27737 0
M  V30 6597 C 620.735 -1.48626 1.12993 0
M  V30 6598 C 621.086 -1.94142 -0.283439 0
M  V30 6599 O 620.211 -1.81605 -1.17681 0
M  V30 6600 C 620.806 -2.70117 2.04505 0
M  V30 6601 C 619.365 -3.22642 1.93853 0
M  V30 6602 C 618.512 -1.95368 1.96791 0
M  V30 6603 H 621.463 -0.736737 1.40563 0
M  V30 6604 H 621.484 -3.4506 1.60356 0
M  V30 6605 H 620.996 -2.36959 3.07363 0
M  V30 6606 H 619.097 -3.60549 0.939968 0
M  V30 6607 H 619.21 -3.88525 2.80331 0
M  V30 6608 H 617.574 -2.12061 1.41076 0
M  V30 6609 H 618.357 -1.64517 3.01312 0
M  V30 6610 N 620.802 -1.09834 -1.13024 0
M  V30 6611 C 621.732 -0.763451 -2.20666 0
M  V30 6612 C 622.713 0.260778 -1.68089 0
M  V30 6613 O 623.898 0.127915 -1.93778 0
M  V30 6614 C 621.028 -0.187744 -3.46792 0
M  V30 6615 C 619.982 -1.14196 -4.12484 0
M  V30 6616 C 619.308 -0.427755 -5.32986 0
M  V30 6617 C 620.608 -2.48607 -4.59338 0
M  V30 6618 H 622.302 -1.66347 -2.48936 0
M  V30 6619 H 619.848 -0.801261 -1.19649 0
M  V30 6620 H 621.801 0.0586375 -4.21359 0
M  V30 6621 H 620.525 0.747485 -3.17931 0
M  V30 6622 H 619.184 -1.37369 -3.3989 0
M  V30 6623 H 618.832 0.511747 -5.0039 0
M  V30 6624 H 618.532 -1.06403 -5.77886 0
M  V30 6625 H 620.056 -0.189772 -6.10305 0
M  V30 6626 H 621.47 -2.29618 -5.25308 0
M  V30 6627 H 619.867 -3.08062 -5.14993 0
M  V30 6628 H 620.937 -3.09062 -3.73642 0
M  V30 6629 N 622.28 1.30327 -0.886154 0
M  V30 6630 C 623.696 1.48676 -0.580323 0
M  V30 6631 C 623.896 1.81189 0.881639 0
M  V30 6632 O 622.952 1.90021 1.66278 0
M  V30 6633 C 624.265 2.60932 -1.49449 0
M  V30 6634 C 625.813 2.74812 -1.49824 0
M  V30 6635 C 626.288 3.90183 -2.39836 0
M  V30 6636 N 627.779 3.97495 -2.37806 0
M  V30 6637 C 628.514 4.86078 -3.04165 0
M  V30 6638 N 628.01 5.79448 -3.79753 0
M  V30 6639 N 629.803 4.79456 -2.93391 0
M  V30 6640 H 621.954 1.07495 -1.8319 0
M  V30 6641 H 624.217 0.532661 -0.784204 0
M  V30 6642 H 623.923 2.43731 -2.5355 0
M  V30 6643 H 623.797 3.57437 -1.20494 0
M  V30 6644 H 626.184 2.91418 -0.464731 0
M  V30 6645 H 626.265 1.78924 -1.82811 0
M  V30 6646 H 625.909 3.74334 -3.43273 0
M  V30 6647 H 625.839 4.85411 -2.04166 0
M  V30 6648 H 628.33 3.30703 -1.82877 0
M  V30 6649 H 628.643 6.43805 -4.27475 0
M  V30 6650 H 626.988 5.79376 -3.8386 0
M  V30 6651 H 630.179 4.05494 -2.33864 0
M  V30 6652 H 630.352 5.48283 -3.45383 0
M  V30 6653 N 623.758 0.647228 1.43697 0
M  V30 6654 C 625.174 0.314256 1.56476 0
M  V30 6655 C 625.374 -1.18191 1.63196 0
M  V30 6656 O 624.43 -1.96655 1.58376 0
M  V30 6657 C 625.743 1.02034 2.82859 0
M  V30 6658 C 627.291 1.00002 2.96595 0
M  V30 6659 C 627.766 1.68689 4.25803 0
M  V30 6660 N 629.257 1.65424 4.32654 0
M  V30 6661 C 629.992 2.1545 5.31384 0
M  V30 6662 N 629.488 2.73738 6.36427 0
M  V30 6663 N 631.281 2.05985 5.22998 0
M  V30 6664 H 623.432 1.61821 1.37578 0
M  V30 6665 H 625.695 0.680184 0.660344 0
M  V30 6666 H 625.401 2.07542 2.83935 0
M  V30 6667 H 625.275 0.568146 3.72897 0
M  V30 6668 H 627.662 -0.0466319 2.95063 0
M  V30 6669 H 627.743 1.49086 2.07863 0
M  V30 6670 H 627.387 2.73308 4.28095 0
M  V30 6671 H 627.317 1.17076 5.13421 0
M  V30 6672 H 629.808 1.22884 3.57363 0
M  V30 6673 H 630.121 3.09602 7.08072 0
M  V30 6674 H 628.466 2.77796 6.37067 0
M  V30 6675 H 631.657 1.60157 4.39849 0
M  V30 6676 H 631.83 2.45281 5.99784 0
M  V30 6677 N 625.236 -1.5273 0.388769 0
M  V30 6678 C 626.146 -2.30165 -0.453993 0
M  V30 6679 C 627.162 -1.37058 -1.07197 0
M  V30 6680 O 628.338 -1.70127 -1.0779 0
M  V30 6681 C 625.403 -3.09303 -1.56628 0
M  V30 6682 C 624.464 -4.18117 -0.973467 0
M  V30 6683 C 623.697 -4.93472 -2.03275 0
M  V30 6684 O 623.92 -4.68913 -3.24772 0
M  V30 6685 O 622.854 -5.78833 -1.65034 0
M  V30 6686 H 626.68 -3.03185 0.176816 0
M  V30 6687 H 624.265 -1.4862 0.152501 0
M  V30 6688 H 626.147 -3.58648 -2.21246 0
M  V30 6689 H 624.822 -2.39098 -2.18206 0
M  V30 6690 H 623.729 -3.7297 -0.290556 0
M  V30 6691 H 625.062 -4.90556 -0.401908 0
M  V30 6692 N 626.714 -0.118576 -1.57153 0
M  V30 6693 C 627.939 0.550582 -1.99958 0
M  V30 6694 C 628.364 1.59458 -0.997736 0
M  V30 6695 O 627.722 1.81274 0.0306269 0
M  V30 6696 C 627.77 1.15379 -3.41643 0
M  V30 6697 O 626.874 2.26932 -3.44348 0
M  V30 6698 H 626.215 0.137567 -0.649593 0
M  V30 6699 H 628.745 -0.206926 -2.03551 0
M  V30 6700 H 628.755 1.48942 -3.79843 0
M  V30 6701 H 627.43 0.389087 -4.14076 0
M  V30 6702 H 626.007 1.94812 -3.17967 0
M  V30 6703 N 628.193 1.56834 0.155195 0
M  V30 6704 C 629.103 2.009 1.21146 0
M  V30 6705 C 630.119 0.923029 1.475 0
M  V30 6706 O 631.295 1.23189 1.59331 0
M  V30 6707 C 628.36 2.37378 2.52691 0
M  V30 6708 C 627.421 3.59883 2.34057 0
M  V30 6709 C 626.654 3.94612 3.59329 0
M  V30 6710 O 626.877 3.30104 4.65175 0
M  V30 6711 O 625.811 4.87895 3.52479 0
M  V30 6712 H 629.637 2.9105 0.867371 0
M  V30 6713 H 627.222 1.44916 0.363298 0
M  V30 6714 H 629.104 2.61737 3.3026 0
M  V30 6715 H 627.779 1.50385 2.86646 0
M  V30 6716 H 626.686 3.40722 1.54465 0
M  V30 6717 H 628.019 4.47468 2.0502 0
M  V30 6718 N 629.671 -0.424282 1.51781 0
M  V30 6719 C 630.92 -1.16961 1.64326 0
M  V30 6720 C 631.233 -1.92035 0.371749 0
M  V30 6721 O 632.439 -2.68873 0.37676 0
M  V30 6722 C 630.895 -2.12782 2.90262 0
M  V30 6723 C 630.503 -1.43295 4.24465 0
M  V30 6724 C 632.247 -2.87667 3.12166 0
M  V30 6725 C 630.154 -2.37676 5.41538 0
M  V30 6726 H 629.084 -0.440293 0.612093 0
M  V30 6727 H 631.735 -0.435431 1.78259 0
M  V30 6728 H 630.117 -2.8969 2.69992 0
M  V30 6729 H 631.291 -0.718564 4.55163 0
M  V30 6730 H 629.606 -0.805118 4.08542 0
M  V30 6731 H 632.203 -3.58395 3.96808 0
M  V30 6732 H 632.546 -3.49758 2.25776 0
M  V30 6733 H 633.079 -2.17863 3.32837 0
M  V30 6734 H 629.818 -1.80255 6.30229 0
M  V30 6735 H 629.338 -3.07132 5.15199 0
M  V30 6736 H 631.017 -2.98529 5.74012 0
M  V30 6737 O 631.188 -1.51103 -0.570103 0
M  V30 6738 H 631.879 -1.50032 -1.22516 0
M  V30 END ATOM
M  V30 BEGIN BOND
M  V30 END BOND
M  V30 END CTAB
M  END
$$$$
