drugbank_target|P63462 FMN-dependent NADH-azoreductase (DB03247)
 OpenBabel12092120273D

  0  0  0     0  0            999 V3000
M  V30 BEGIN CTAB
M  V30 COUNTS 3079 3109 0 0 0
M  V30 BEGIN ATOM
M  V30 1 H -0.908 1.98254 -0.117106 0
M  V30 2 N 0 1.576 0 0
M  V30 3 C 0.933 2.03868 1.02534 0
M  V30 4 C 1.911 0.928543 1.3348 0
M  V30 5 O 3.095 1.19667 1.45644 0
M  V30 6 C 0.222 2.43627 2.35294 0
M  V30 7 C -0.732 3.65373 2.2001 0
M  V30 8 S 0.101 5.13292 1.52614 0
M  V30 9 C 1.257 5.56322 2.86805 0
M  V30 10 H 1.49 2.90518 0.631377 0
M  V30 11 H -0.977 1.52953 0.210867 0
M  V30 12 H 0.981 2.67203 3.11629 0
M  V30 13 H -0.358 1.57376 2.7183 0
M  V30 14 H -1.165 3.90944 3.18086 0
M  V30 15 H -1.563 3.418 1.51819 0
M  V30 16 H 0.729 5.58782 3.83104 0
M  V30 17 H 1.672 6.56266 2.65933 0
M  V30 18 H 2.08 4.83886 2.90714 0
M  V30 19 N 1.4781 -0.272755 1.55222 0
M  V30 20 C 2.7031 -1.02683 1.80197 0
M  V30 21 C 3.1281 -1.79142 0.573551 0
M  V30 22 O 2.4861 -1.74917 -0.476849 0
M  V30 23 C 2.5341 -1.9609 3.02624 0
M  V30 24 O 1.6381 -3.04863 2.77727 0
M  V30 25 H 0.9791 -0.293557 0.595584 0
M  V30 26 H 3.5091 -0.30159 2.02365 0
M  V30 27 H 3.5191 -2.38039 3.31363 0
M  V30 28 H 2.1941 -1.39851 3.91682 0
M  V30 29 H 0.7711 -2.67228 2.60084 0
M  V30 30 N 2.9562 -1.48159 -0.537278 0
M  V30 31 C 3.9032 -1.62138 -1.64256 0
M  V30 32 C 4.8732 -0.463668 -1.59497 0
M  V30 33 O 6.0582 -0.686241 -1.78032 0
M  V30 34 C 3.1982 -1.66028 -3.02537 0
M  V30 35 C 2.3112 -2.92855 -3.17585 0
M  V30 36 C 1.4462 -2.87952 -4.46382 0
M  V30 37 C 0.4852 -4.09516 -4.54932 0
M  V30 38 N -0.3778 -4.02733 -5.75109 0
M  V30 39 H 4.4622 -2.56529 -1.51647 0
M  V30 40 H 1.9992 -1.27224 -0.738414 0
M  V30 41 H 3.9572 -1.66265 -3.82638 0
M  V30 42 H 2.5872 -0.751331 -3.13934 0
M  V30 43 H 1.6392 -3.02395 -2.30784 0
M  V30 44 H 2.9512 -3.82822 -3.19764 0
M  V30 45 H 2.1052 -2.8655 -5.34765 0
M  V30 46 H 0.8442 -1.95702 -4.46712 0
M  V30 47 H -0.1508 -4.11201 -3.64957 0
M  V30 48 H 1.0742 -5.02917 -4.56346 0
M  V30 49 H -0.9798 -3.13299 -5.76351 0
M  V30 50 H -1.0628 -4.86397 -5.78752 0
M  V30 51 H 0.2052 -4.05379 -6.65799 0
M  V30 52 N 4.4343 0.785586 -1.36625 0
M  V30 53 C 5.6803 1.54591 -1.31261 0
M  V30 54 C 6.0133 1.93906 0.106823 0
M  V30 55 O 5.2883 1.63007 1.06108 0
M  V30 56 C 5.5713 2.82038 -2.23889 0
M  V30 57 C 5.4243 2.49066 -3.74548 0
M  V30 58 C 6.7433 3.83887 -2.15217 0
M  V30 59 H 3.8623 0.560846 -0.478143 0
M  V30 60 H 6.5043 0.902278 -1.67209 0
M  V30 61 H 4.6543 3.36961 -1.93363 0
M  V30 62 H 6.3263 2.00164 -4.15611 0
M  V30 63 H 4.5693 1.81954 -3.93796 0
M  V30 64 H 5.2403 3.40109 -4.34776 0
M  V30 65 H 7.7163 3.38421 -2.42096 0
M  V30 66 H 6.5923 4.70806 -2.82193 0
M  V30 67 H 6.8533 4.27131 -1.14068 0
M  V30 68 N 5.9124 1.20967 1.01018 0
M  V30 69 C 6.8424 0.988272 2.11555 0
M  V30 70 C 7.8234 -0.0849778 1.69888 0
M  V30 71 O 9.0084 0.0738202 1.9406 0
M  V30 72 C 6.1384 0.546528 3.42973 0
M  V30 73 C 5.0924 1.56375 3.9841 0
M  V30 74 C 4.4184 0.97842 5.25672 0
M  V30 75 C 5.7184 2.94922 4.31066 0
M  V30 76 H 7.4124 1.91276 2.30334 0
M  V30 77 H 4.9584 0.921073 1.1069 0
M  V30 78 H 6.9114 0.378839 4.19694 0
M  V30 79 H 5.6354 -0.413598 3.23971 0
M  V30 80 H 4.2944 1.71891 3.23804 0
M  V30 81 H 3.9424 0.0101688 5.02999 0
M  V30 82 H 3.6424 1.65784 5.63728 0
M  V30 83 H 5.1664 0.821939 6.05043 0
M  V30 84 H 6.5804 2.8288 4.9865 0
M  V30 85 H 4.9774 3.5983 4.80253 0
M  V30 86 H 6.0474 3.4616 3.39561 0
M  V30 87 N 7.3905 -1.2043 1.01659 0
M  V30 88 C 8.6365 -1.90079 0.706963 0
M  V30 89 C 8.9695 -1.78648 -0.761474 0
M  V30 90 O 8.2445 -1.17069 -1.55323 0
M  V30 91 C 8.5275 -3.41469 1.14327 0
M  V30 92 C 8.3805 -3.61833 2.67201 0
M  V30 93 C 9.6995 -4.34261 0.714529 0
M  V30 94 H 6.8185 -0.690254 0.2583 0
M  V30 95 H 9.4605 -1.41826 1.26433 0
M  V30 96 H 7.6105 -3.82696 0.669056 0
M  V30 97 H 9.2825 -3.2986 3.22475 0
M  V30 98 H 7.5255 -3.05304 3.08175 0
M  V30 99 H 8.1965 -4.67955 2.92783 0
M  V30 100 H 10.6725 -4.00682 1.12221 0
M  V30 101 H 9.5485 -5.38806 1.04784 0
M  V30 102 H 9.8095 -4.40431 -0.383799 0
M  V30 103 N 8.8686 -0.792821 -1.36206 0
M  V30 104 C 9.7986 -0.207853 -2.32573 0
M  V30 105 C 10.7796 0.659055 -1.56813 0
M  V30 106 O 11.9646 0.592176 -1.84951 0
M  V30 107 C 9.0946 0.655449 -3.41059 0
M  V30 108 C 8.0486 -0.111842 -4.27854 0
M  V30 109 C 7.3746 0.872274 -5.27537 0
M  V30 110 C 8.6746 -1.30299 -5.05786 0
M  V30 111 H 10.3686 -1.01294 -2.81744 0
M  V30 112 H 7.9146 -0.48854 -1.3546 0
M  V30 113 H 9.8676 1.07464 -4.07467 0
M  V30 114 H 8.5916 1.49328 -2.90463 0
M  V30 115 H 7.2506 -0.512053 -3.63006 0
M  V30 116 H 6.8986 1.70523 -4.73214 0
M  V30 117 H 6.5986 0.363291 -5.86476 0
M  V30 118 H 8.1226 1.28996 -5.96818 0
M  V30 119 H 9.5366 -0.959379 -5.65216 0
M  V30 120 H 7.9336 -1.7455 -5.74154 0
M  V30 121 H 9.0036 -2.09663 -4.37229 0
M  V30 122 N 10.3467 1.47872 -0.545128 0
M  V30 123 C 11.2937 2.29849 0.2093 0
M  V30 124 C 12.2637 1.38313 0.919707 0
M  V30 125 O 13.4487 1.67277 0.917772 0
M  V30 126 C 10.5887 3.22019 1.24088 0
M  V30 127 C 9.7017 4.2864 0.537778 0
M  V30 128 C 8.8367 5.07973 1.5536 0
M  V30 129 C 7.8757 6.06381 0.8348 0
M  V30 130 N 7.0127 6.78717 1.79688 0
M  V30 131 H 11.8527 2.93845 -0.49591 0
M  V30 132 H 9.3897 1.44848 -0.256389 0
M  V30 133 H 11.3477 3.73868 1.85144 0
M  V30 134 H 9.9777 2.59914 1.91428 0
M  V30 135 H 9.0297 3.7994 -0.187046 0
M  V30 136 H 10.3417 4.98793 -0.0258907 0
M  V30 137 H 9.4957 5.63912 2.23803 0
M  V30 138 H 8.2347 4.37693 2.15118 0
M  V30 139 H 7.2397 5.49631 0.136388 0
M  V30 140 H 8.4647 6.78665 0.24313 0
M  V30 141 H 6.4107 6.11177 2.38326 0
M  V30 142 H 6.3277 7.44998 1.28505 0
M  V30 143 H 7.5957 7.39237 2.47282 0
M  V30 144 N 11.8248 0.280983 1.55075 0
M  V30 145 C 13.0498 -0.340154 2.04592 0
M  V30 146 C 13.4748 -1.48246 1.15779 0
M  V30 147 O 12.8328 -1.80614 0.15761 0
M  V30 148 C 12.8808 -0.793104 3.5177 0
M  V30 149 O 11.9848 -1.89981 3.66034 0
M  V30 150 H 11.3258 -0.0694289 0.66036 0
M  V30 151 H 13.8558 0.416993 2.00306 0
M  V30 152 H 13.8658 -1.08729 3.93245 0
M  V30 153 H 12.5408 0.0426163 4.15878 0
M  V30 154 H 11.1178 -1.60771 3.36463 0
M  V30 155 N 13.3029 -1.57598 0.00835791 0
M  V30 156 C 14.5279 -1.95617 -0.689103 0
M  V30 157 C 14.9529 -0.883753 -1.66046 0
M  V30 158 O 14.3109 0.157352 -1.80616 0
M  V30 159 C 14.3589 -3.32736 -1.38994 0
M  V30 160 O 13.4629 -3.27631 -2.50463 0
M  V30 161 H 12.8039 -0.638379 -0.182668 0
M  V30 162 H 15.3339 -2.045 0.064036 0
M  V30 163 H 15.3439 -3.68494 -1.75147 0
M  V30 164 H 14.0189 -4.1034 -0.677778 0
M  V30 165 H 12.5959 -3.03561 -2.16576 0
M  V30 166 N 14.781 0.264519 -1.55364 0
M  V30 167 C 16.03 0.992812 -1.75574 0
M  V30 168 C 16.343 1.87142 -0.568979 0
M  V30 169 O 17.549 2.63513 -0.653682 0
M  V30 170 C 16.005 1.81519 -3.10771 0
M  V30 171 C 15.613 0.984839 -4.37041 0
M  V30 172 C 17.357 2.53727 -3.40327 0
M  V30 173 C 15.264 1.80209 -5.63275 0
M  V30 174 H 14.194 0.374412 -0.65447 0
M  V30 175 H 16.845 0.248138 -1.81815 0
M  V30 176 H 15.227 2.60115 -2.98591 0
M  V30 177 H 16.401 0.242455 -4.60162 0
M  V30 178 H 14.716 0.37691 -4.14691 0
M  V30 179 H 17.313 3.15292 -4.3185 0
M  V30 180 H 17.656 3.24447 -2.60845 0
M  V30 181 H 18.189 1.82156 -3.53644 0
M  V30 182 H 14.928 1.13896 -6.45529 0
M  V30 183 H 14.448 2.52022 -5.44284 0
M  V30 184 H 16.127 2.37364 -6.01887 0
M  V30 185 N 16.2591 1.48442 0.529413 0
M  V30 186 C 17.1891 1.65902 1.64313 0
M  V30 187 C 18.1701 0.507897 1.6234 0
M  V30 188 O 19.3551 0.740503 1.79528 0
M  V30 189 C 16.4851 1.69911 3.02898 0
M  V30 190 C 15.4391 2.8453 3.19729 0
M  V30 191 C 14.7651 2.73629 4.59381 0
M  V30 192 C 16.0651 4.25821 3.02447 0
M  V30 193 H 17.7591 2.5914 1.49955 0
M  V30 194 H 15.3051 1.24709 0.719982 0
M  V30 195 H 17.2581 1.80715 3.80684 0
M  V30 196 H 15.9821 0.732524 3.18279 0
M  V30 197 H 14.6411 2.73283 2.44361 0
M  V30 198 H 14.2891 1.74938 4.71599 0
M  V30 199 H 13.9891 3.50541 4.71588 0
M  V30 200 H 15.5131 2.86401 5.39265 0
M  V30 201 H 16.9271 4.37898 3.70024 0
M  V30 202 H 15.3241 5.03735 3.26146 0
M  V30 203 H 16.3941 4.42244 1.98867 0
M  V30 204 N 17.7372 -0.778329 1.37039 0
M  V30 205 C 18.7002 -1.87301 1.32102 0
M  V30 206 C 19.7002 -1.59198 0.226405 0
M  V30 207 O 20.8902 -1.67403 0.481861 0
M  V30 208 C 18.0222 -3.24309 1.05055 0
M  V30 209 H 19.2152 -1.93093 2.29467 0
M  V30 210 H 16.7682 -0.977358 1.21973 0
M  V30 211 H 17.5032 -3.24196 0.0819373 0
M  V30 212 H 17.2882 -3.46098 1.84279 0
M  V30 213 H 18.7782 -4.04382 1.04234 0
M  V30 214 N 19.2153 -1.21501 -1.00376 0
M  V30 215 C 20.4633 -1.03095 -1.73827 0
M  V30 216 C 20.7843 0.436341 -1.90055 0
M  V30 217 O 20.0543 1.31466 -1.45236 0
M  V30 218 H 18.6343 -0.378487 -0.644016 0
M  V30 219 H 21.2963 -1.52831 -1.20949 0
M  V30 220 H 20.3923 -1.49991 -2.73695 0
M  V30 221 N 20.6934 1.19889 -1.02296 0
M  V30 222 C 21.9234 1.93109 -0.734332 0
M  V30 223 C 22.3314 1.75377 0.709889 0
M  V30 224 O 21.6744 1.06912 1.49384 0
M  V30 225 C 21.7364 3.45362 -0.99827 0
M  V30 226 C 21.4004 3.8686 -2.43287 0
M  V30 227 C 22.3974 3.92102 -3.41397 0
M  V30 228 C 20.0824 4.18668 -2.77529 0
M  V30 229 C 22.0764 4.28573 -4.71809 0
M  V30 230 C 19.7634 4.54813 -4.08153 0
M  V30 231 C 20.7614 4.59739 -5.05103 0
M  V30 232 O 20.4494 4.95051 -6.33388 0
M  V30 233 H 20.1814 0.620409 -0.268456 0
M  V30 234 H 22.7354 1.53144 -1.3688 0
M  V30 235 H 20.9654 3.85482 -0.306645 0
M  V30 236 H 22.6544 3.99814 -0.700234 0
M  V30 237 H 23.4204 3.67685 -3.1628 0
M  V30 238 H 19.2994 4.14021 -2.0275 0
M  V30 239 H 22.8434 4.32333 -5.4748 0
M  V30 240 H 18.7404 4.78687 -4.33047 0
M  V30 241 H 19.5084 5.1302 -6.37772 0
M  V30 242 N 22.1715 0.800033 1.35784 0
M  V30 243 C 23.3965 0.388511 2.03729 0
M  V30 244 C 23.8215 -0.990481 1.5991 0
M  V30 245 O 23.1795 -1.64013 0.772612 0
M  V30 246 C 23.2275 0.4726 3.5749 0
M  V30 247 O 22.3315 -0.51646 4.09153 0
M  V30 248 H 21.6725 0.163271 0.643614 0
M  V30 249 H 24.2025 1.0841 1.73518 0
M  V30 250 H 24.2125 0.34003 4.06581 0
M  V30 251 H 22.8875 1.47848 3.88734 0
M  V30 252 H 21.4645 -0.344673 3.71304 0
M  V30 253 N 23.6496 -1.47581 0.552962 0
M  V30 254 C 24.5816 -2.27997 -0.234533 0
M  V30 255 C 25.5946 -1.36753 -0.883321 0
M  V30 256 O 26.7836 -1.61612 -0.757889 0
M  V30 257 C 23.8836 -3.10879 -1.34935 0
M  V30 258 C 23.0566 -4.30056 -0.798158 0
M  V30 259 C 22.1156 -4.94567 -1.79694 0
M  V30 260 O 21.1416 -5.53087 -1.34474 0
M  V30 261 N 22.3436 -4.88878 -3.13015 0
M  V30 262 H 25.1086 -2.96222 0.455255 0
M  V30 263 H 22.6696 -1.57163 0.388761 0
M  V30 264 H 24.6616 -3.50903 -2.01616 0
M  V30 265 H 23.2316 -2.44924 -1.94244 0
M  V30 266 H 22.4516 -3.94174 0.0453079 0
M  V30 267 H 23.7396 -5.07152 -0.409173 0
M  V30 268 H 23.1376 -4.42526 -3.52402 0
M  V30 269 H 21.6946 -5.32934 -3.75266 0
M  V30 270 N 25.1277 -0.289203 -1.54924 0
M  V30 271 C 26.3527 0.329299 -2.04769 0
M  V30 272 C 26.7777 1.4763 -1.16564 0
M  V30 273 O 26.1357 1.80527 -0.167186 0
M  V30 274 C 26.1837 0.774438 -3.52186 0
M  V30 275 O 25.2877 1.88038 -3.67036 0
M  V30 276 H 24.6287 0.0659259 -0.660719 0
M  V30 277 H 27.1587 -0.42761 -2.00082 0
M  V30 278 H 27.1687 1.06642 -3.93816 0
M  V30 279 H 25.8437 -0.0646707 -4.1585 0
M  V30 280 H 24.4207 1.58985 -3.3731 0
M  V30 281 N 26.6058 1.57591 -0.0167156 0
M  V30 282 C 27.8538 1.90906 0.663285 0
M  V30 283 C 28.1748 0.892509 1.73376 0
M  V30 284 O 27.4448 -0.0677623 1.95783 0
M  V30 285 H 26.0248 0.704637 0.247983 0
M  V30 286 H 28.6868 1.94803 -0.0615909 0
M  V30 287 H 27.7828 2.9116 1.12393 0
M  V30 288 N 28.0839 -0.256276 1.55502 0
M  V30 289 C 29.0159 -1.33981 1.85962 0
M  V30 290 C 30.0289 -1.44743 0.745212 0
M  V30 291 O 31.2179 -1.4626 1.02324 0
M  V30 292 C 28.3179 -2.7194 2.02242 0
M  V30 293 C 27.4909 -2.83562 3.33033 0
M  V30 294 C 26.5499 -4.02304 3.39172 0
M  V30 295 O 25.5759 -3.92273 4.12444 0
M  V30 296 N 26.7779 -5.15045 2.67784 0
M  V30 297 H 29.5429 -1.08191 2.7949 0
M  V30 298 H 27.1039 -0.446388 1.55624 0
M  V30 299 H 29.0959 -3.49697 2.03701 0
M  V30 300 H 27.6659 -2.90479 1.15502 0
M  V30 301 H 26.8859 -1.92555 3.43971 0
M  V30 302 H 28.1739 -2.88271 4.19258 0
M  V30 303 H 27.5719 -5.26085 2.07968 0
M  V30 304 H 26.1289 -5.90972 2.74947 0
M  V30 305 N 29.562 -1.4872 -0.521534 0
M  V30 306 C 30.492 -1.66771 -1.63431 0
M  V30 307 C 31.473 -0.516499 -1.62069 0
M  V30 308 O 32.658 -0.750013 -1.79132 0
M  V30 309 C 29.788 -1.71515 -3.01993 0
M  V30 310 C 28.742 -2.86222 -3.18216 0
M  V30 311 C 28.068 -2.76061 -4.57924 0
M  V30 312 C 29.368 -4.27419 -3.00184 0
M  V30 313 H 31.062 -2.59932 -1.48579 0
M  V30 314 H 28.608 -1.25089 -0.713358 0
M  V30 315 H 30.561 -1.82731 -3.7972 0
M  V30 316 H 29.285 -0.749393 -3.17886 0
M  V30 317 H 27.944 -2.74575 -2.42908 0
M  V30 318 H 27.592 -1.77437 -4.70665 0
M  V30 319 H 27.292 -3.53037 -4.69722 0
M  V30 320 H 28.816 -2.89256 -5.37739 0
M  V30 321 H 30.23 -4.39855 -3.67697 0
M  V30 322 H 28.627 -5.05458 -3.2347 0
M  V30 323 H 29.697 -4.43293 -1.96518 0
M  V30 324 N 31.0401 0.771051 -1.3745 0
M  V30 325 C 32.2681 1.56015 -1.35893 0
M  V30 326 C 32.6831 1.88718 0.0555523 0
M  V30 327 O 32.0401 1.51502 1.01752 0
M  V30 328 C 32.0911 2.87001 -2.19801 0
M  V30 329 O 31.8121 2.557 -3.55738 0
M  V30 330 C 33.3131 3.81228 -2.26231 0
M  V30 331 H 30.5331 0.483317 -0.465453 0
M  V30 332 H 33.0771 0.955611 -1.80799 0
M  V30 333 H 31.2321 3.43877 -1.78402 0
M  V30 334 H 31.6461 3.39584 -3.99729 0
M  V30 335 H 33.1201 4.70139 -2.89263 0
M  V30 336 H 33.5971 4.20409 -1.27093 0
M  V30 337 H 34.2031 3.30281 -2.67945 0
M  V30 338 N 32.5182 1.22032 0.997298 0
M  V30 339 C 33.7952 0.950823 1.70935 0
M  V30 340 C 34.1752 -0.535292 2.042 0
M  V30 341 O 33.5232 -1.50217 1.72183 0
M  V30 342 C 33.7332 1.84386 2.96315 0
M  V30 343 C 35.0812 2.09732 3.69185 0
M  V30 344 O 36.1052 1.81798 3.06314 0
M  V30 345 O 34.9642 2.57018 4.82291 0
M  V30 346 H 32.0582 0.357204 0.745878 0
M  V30 347 H 34.6042 1.32997 1.05404 0
M  V30 348 H 33.3762 2.84928 2.68201 0
M  V30 349 H 32.9992 1.46602 3.69586 0
M  V30 350 N 33.9963 -1.19345 1.0293 0
M  V30 351 C 35.2263 -1.92717 0.744563 0
M  V30 352 C 35.6343 -1.75751 -0.700579 0
M  V30 353 O 34.9773 -1.07703 -1.48815 0
M  V30 354 C 35.0393 -3.44828 1.01657 0
M  V30 355 C 34.7033 -3.85564 2.45335 0
M  V30 356 C 35.7003 -3.90286 3.43472 0
M  V30 357 C 33.3853 -4.1719 2.79746 0
M  V30 358 C 35.3793 -4.26065 4.74075 0
M  V30 359 C 33.0663 -4.52642 4.10559 0
M  V30 360 C 34.0643 -4.57054 5.07534 0
M  V30 361 O 33.7523 -4.91685 6.36004 0
M  V30 362 H 33.4843 -0.618977 0.271742 0
M  V30 363 H 36.0383 -1.52415 1.37691 0
M  V30 364 H 34.2683 -3.85314 0.327084 0
M  V30 365 H 35.9573 -3.99437 0.721427 0
M  V30 366 H 36.7233 -3.66002 3.18225 0
M  V30 367 H 32.6023 -4.1294 2.04943 0
M  V30 368 H 36.1463 -4.29423 5.49765 0
M  V30 369 H 32.0433 -4.76383 4.35579 0
M  V30 370 H 32.8113 -5.09631 6.40483 0
M  V30 371 N 35.4744 -0.807222 -1.35358 0
M  V30 372 C 36.7214 -0.387888 -1.9875 0
M  V30 373 C 37.0494 1.04509 -1.64037 0
M  V30 374 O 36.3044 1.73986 -0.895946 0
M  V30 375 C 36.6034 -0.519036 -3.53611 0
M  V30 376 C 36.2694 -1.91542 -4.08194 0
M  V30 377 C 34.9314 -2.29745 -4.22813 0
M  V30 378 C 37.2834 -2.82896 -4.37744 0
M  V30 379 C 34.6114 -3.58668 -4.643 0
M  V30 380 C 36.9634 -4.11265 -4.8067 0
M  V30 381 C 35.6274 -4.49466 -4.93494 0
M  V30 382 H 34.8974 -0.141938 -0.727279 0
M  V30 383 H 37.5444 -1.02814 -1.6156 0
M  V30 384 H 35.8494 0.204658 -3.91265 0
M  V30 385 H 37.5464 -0.175345 -4.00616 0
M  V30 386 H 34.1364 -1.60862 -3.97268 0
M  V30 387 H 38.3204 -2.54629 -4.26002 0
M  V30 388 H 33.5764 -3.88113 -4.72418 0
M  V30 389 H 37.7504 -4.82153 -5.02496 0
M  V30 390 H 35.3774 -5.49418 -5.25399 0
M  V30 391 N 36.9525 1.47285 -0.560781 0
M  V30 392 C 38.2015 2.01668 -0.035895 0
M  V30 393 C 38.5145 1.44021 1.32353 0
M  V30 394 O 39.7205 1.90088 1.93853 0
M  V30 395 C 38.1765 3.59897 -0.0136659 0
M  V30 396 C 37.7845 4.26536 -1.37006 0
M  V30 397 C 39.5285 4.22017 0.458425 0
M  V30 398 C 37.4355 5.76782 -1.30675 0
M  V30 399 H 36.3655 0.753938 -0.00964879 0
M  V30 400 H 39.0165 1.69243 -0.709166 0
M  V30 401 H 37.3985 3.89301 0.725325 0
M  V30 402 H 38.5725 4.0877 -2.12705 0
M  V30 403 H 36.8875 3.76419 -1.78038 0
M  V30 404 H 39.4845 5.32124 0.524247 0
M  V30 405 H 39.8275 3.89437 1.4712 0
M  V30 406 H 40.3605 3.97159 -0.225818 0
M  V30 407 H 37.0995 6.13988 -2.29564 0
M  V30 408 H 36.6195 5.96875 -0.591622 0
M  V30 409 H 38.2985 6.39063 -1.01033 0
M  V30 410 N 38.4306 0.297415 1.54768 0
M  V30 411 C 39.3406 -0.58983 2.27064 0
M  V30 412 C 40.3566 -1.15144 1.30453 0
M  V30 413 O 41.5326 -1.17699 1.63428 0
M  V30 414 C 38.5976 -1.74714 2.9946 0
M  V30 415 C 37.6586 -1.21997 4.11601 0
M  V30 416 C 36.8916 -2.32212 4.80535 0
M  V30 417 O 37.1146 -3.52036 4.48806 0
M  V30 418 O 36.0486 -1.99106 5.68014 0
M  V30 419 H 39.8746 -0.00348199 3.037 0
M  V30 420 H 37.4596 0.0640035 1.49263 0
M  V30 421 H 39.3416 -2.42147 3.44881 0
M  V30 422 H 38.0166 -2.32016 2.25722 0
M  V30 423 H 36.9236 -0.511458 3.70587 0
M  V30 424 H 38.2566 -0.692419 4.87305 0
M  V30 425 N 39.9087 -1.5758 0.0250728 0
M  V30 426 C 40.8407 -2.06869 -0.986796 0
M  V30 427 C 41.8537 -0.991332 -1.29137 0
M  V30 428 O 43.0427 -1.26761 -1.25674 0
M  V30 429 C 40.1427 -2.47486 -2.31525 0
M  V30 430 C 39.3157 -3.78253 -2.19643 0
M  V30 431 C 38.3747 -4.05464 -3.35388 0
M  V30 432 O 37.4007 -4.75774 -3.12454 0
M  V30 433 N 38.6027 -3.55321 -4.59051 0
M  V30 434 H 41.3677 -2.94302 -0.566276 0
M  V30 435 H 38.9287 -1.6109 -0.161776 0
M  V30 436 H 40.9207 -2.62785 -3.07776 0
M  V30 437 H 39.4907 -1.65441 -2.65232 0
M  V30 438 H 38.7107 -3.7279 -1.28144 0
M  V30 439 H 39.9987 -4.63936 -2.08903 0
M  V30 440 H 39.3967 -2.98431 -4.80578 0
M  V30 441 H 37.9537 -3.75905 -5.32483 0
M  V30 442 N 41.3868 0.248026 -1.55636 0
M  V30 443 C 42.6328 0.973427 -1.78594 0
M  V30 444 C 42.9878 1.83007 -0.593823 0
M  V30 445 O 42.2808 1.87097 0.412961 0
M  V30 446 C 42.4748 1.86819 -3.04686 0
M  V30 447 C 42.3038 1.09965 -4.36048 0
M  V30 448 C 41.0738 0.805204 -4.98843 0
M  V30 449 C 43.2718 0.477783 -5.12076 0
M  V30 450 N 41.2538 0.0124859 -6.13899 0
M  V30 451 C 42.6248 -0.179565 -6.1974 0
M  V30 452 C 44.6798 0.388136 -4.96385 0
M  V30 453 C 43.3828 -0.91795 -7.13419 0
M  V30 454 C 45.4088 -0.336716 -5.90441 0
M  V30 455 C 44.7708 -0.982705 -6.97511 0
M  V30 456 H 40.8698 0.337348 -0.705493 0
M  V30 457 H 43.4538 0.24667 -1.93131 0
M  V30 458 H 41.6248 2.56698 -2.9148 0
M  V30 459 H 43.3568 2.52907 -3.15944 0
M  V30 460 H 40.1118 1.11671 -4.60246 0
M  V30 461 H 40.5358 -0.371933 -6.75978 0
M  V30 462 H 45.1778 0.873237 -4.13684 0
M  V30 463 H 42.8958 -1.41466 -7.95621 0
M  V30 464 H 46.4818 -0.406731 -5.80377 0
M  V30 465 H 45.3618 -1.53464 -7.69037 0
M  V30 466 N 42.8649 1.48995 0.513639 0
M  V30 467 C 44.2809 1.35478 0.843682 0
M  V30 468 C 44.4809 0.378213 1.97919 0
M  V30 469 O 43.5369 -0.194689 2.51748 0
M  V30 470 C 44.8499 2.75901 1.1958 0
M  V30 471 C 46.3979 2.84509 1.30474 0
M  V30 472 C 46.8729 4.25671 1.69021 0
M  V30 473 N 48.3639 4.28422 1.76094 0
M  V30 474 C 49.0989 5.34601 2.07338 0
M  V30 475 N 48.5949 6.5104 2.36894 0
M  V30 476 N 50.3879 5.22007 2.08483 0
M  V30 477 H 42.5389 2.11092 -0.235328 0
M  V30 478 H 44.8019 0.947039 -0.0426669 0
M  V30 479 H 44.5079 3.49001 0.434913 0
M  V30 480 H 44.3819 3.10467 2.1422 0
M  V30 481 H 46.7689 2.11655 2.05637 0
M  V30 482 H 46.8499 2.53542 0.339155 0
M  V30 483 H 46.4939 4.99048 0.944135 0
M  V30 484 H 46.4239 4.54094 2.66658 0
M  V30 485 H 48.9149 3.44441 1.55464 0
M  V30 486 H 49.2279 7.2779 2.59887 0
M  V30 487 H 47.5729 6.54287 2.34378 0
M  V30 488 H 50.7639 4.30051 1.84861 0
M  V30 489 H 50.9369 6.04854 2.325 0
M  V30 490 N 44.343 -0.763751 1.37857 0
M  V30 491 C 45.253 -1.90817 1.36478 0
M  V30 492 C 46.269 -1.71997 0.263248 0
M  V30 493 O 47.445 -1.95095 0.499979 0
M  V30 494 C 44.51 -3.2605 1.17864 0
M  V30 495 C 43.571 -3.57467 2.3773 0
M  V30 496 C 42.804 -4.86249 2.19995 0
M  V30 497 O 43.027 -5.57884 1.18836 0
M  V30 498 O 41.961 -5.16911 3.08361 0
M  V30 499 H 45.787 -1.94933 2.32884 0
M  V30 500 H 43.372 -0.907619 1.1867 0
M  V30 501 H 45.254 -4.06924 1.09504 0
M  V30 502 H 43.929 -3.22769 0.245372 0
M  V30 503 H 42.836 -2.76796 2.51664 0
M  V30 504 H 44.169 -3.655 3.29652 0
M  V30 505 N 45.8211 -1.22559 -0.990812 0
M  V30 506 C 46.7681 -0.997519 -2.0813 0
M  V30 507 C 47.7381 0.0814702 -1.659 0
M  V30 508 O 48.9231 -0.0685424 -1.90677 0
M  V30 509 C 46.0631 -0.583615 -3.40129 0
M  V30 510 C 45.1761 -1.7336 -3.9569 0
M  V30 511 C 44.3111 -1.26748 -5.15857 0
M  V30 512 C 43.3501 -2.38888 -5.63559 0
M  V30 513 N 42.4871 -1.93308 -6.74964 0
M  V30 514 H 47.3271 -1.93099 -2.26973 0
M  V30 515 H 44.8641 -0.962114 -1.11273 0
M  V30 516 H 46.8221 -0.324801 -4.15934 0
M  V30 517 H 45.4521 0.312845 -3.2128 0
M  V30 518 H 44.5041 -2.10669 -3.16738 0
M  V30 519 H 45.8161 -2.57704 -4.27071 0
M  V30 520 H 44.9701 -0.966173 -5.98957 0
M  V30 521 H 43.7091 -0.394272 -4.86104 0
M  V30 522 H 42.7141 -2.69805 -4.79046 0
M  V30 523 H 43.9391 -3.26728 -5.95336 0
M  V30 524 H 41.8851 -1.08352 -6.4699 0
M  V30 525 H 41.8021 -2.71217 -7.05675 0
M  V30 526 H 43.0701 -1.66252 -7.61564 0
M  V30 527 N 47.2992 1.18797 -1.03562 0
M  V30 528 C 48.2492 2.20161 -0.592724 0
M  V30 529 C 49.2332 1.56772 0.362133 0
M  V30 530 O 50.4252 1.76062 0.182009 0
M  V30 531 C 47.5542 3.43266 0.0481024 0
M  V30 532 C 46.6402 4.13786 -0.9296 0
M  V30 533 N 47.0312 4.60388 -2.09467 0
M  V30 534 C 45.3292 4.39572 -0.754499 0
M  V30 535 C 46.0302 5.14619 -2.71187 0
M  V30 536 N 45.0062 5.05826 -1.991 0
M  V30 537 H 48.8082 2.53877 -1.48066 0
M  V30 538 H 46.3222 1.34946 -0.903514 0
M  V30 539 H 48.3192 4.15136 0.383058 0
M  V30 540 H 46.9792 3.11048 0.931636 0
M  V30 541 H 47.9902 4.54999 -2.47379 0
M  V30 542 H 44.6672 4.17425 0.0793713 0
M  V30 543 H 46.0572 5.60917 -3.69895 0
M  V30 544 N 48.7773 0.814389 1.34928 0
M  V30 545 C 50.0233 0.399013 1.98836 0
M  V30 546 C 50.3563 -1.03314 1.64438 0
M  V30 547 O 49.6313 -1.71811 0.911659 0
M  V30 548 C 49.9143 0.591629 3.55207 0
M  V30 549 C 49.7673 2.06928 3.99376 0
M  V30 550 C 51.0863 0.022199 4.40094 0
M  V30 551 H 48.2053 0.146451 0.722303 0
M  V30 552 H 50.8473 1.02537 1.59957 0
M  V30 553 H 48.9973 0.0584441 3.88456 0
M  V30 554 H 50.6693 2.66544 3.76499 0
M  V30 555 H 48.9123 2.56287 3.49999 0
M  V30 556 H 49.5833 2.1549 5.08201 0
M  V30 557 H 52.0593 0.477643 4.13349 0
M  V30 558 H 50.9353 0.186832 5.48582 0
M  V30 559 H 51.1963 -1.07215 4.28902 0
M  V30 560 N 50.2554 -1.46986 0.568584 0
M  V30 561 C 51.2184 -2.28624 -0.162366 0
M  V30 562 C 52.2184 -1.37596 -0.832103 0
M  V30 563 O 53.4084 -1.60115 -0.68622 0
M  V30 564 C 50.5404 -3.17596 -1.23878 0
M  V30 565 H 51.7334 -2.94722 0.554899 0
M  V30 566 H 49.2864 -1.52863 0.325976 0
M  V30 567 H 50.0214 -2.56214 -1.98808 0
M  V30 568 H 49.8064 -3.846 -0.763219 0
M  V30 569 H 51.2964 -3.79078 -1.75185 0
M  V30 570 N 51.7335 -0.305618 -1.54608 0
M  V30 571 C 53.0105 0.355652 -1.92339 0
M  V30 572 C 53.3905 1.71324 -1.23335 0
M  V30 573 O 52.7385 2.25473 -0.370702 0
M  V30 574 C 52.9485 0.46572 -3.45879 0
M  V30 575 C 54.2965 0.734426 -4.182 0
M  V30 576 O 55.3205 0.54935 -3.51938 0
M  V30 577 O 54.1795 1.09024 -5.35515 0
M  V30 578 H 51.2735 0.199666 -0.802535 0
M  V30 579 H 53.8195 -0.354017 -1.65966 0
M  V30 580 H 52.5915 -0.488461 -3.88239 0
M  V30 581 H 52.2145 1.22367 -3.78301 0
M  V30 582 N 53.2116 1.57565 -0.0334293 0
M  V30 583 C 54.1216 2.13943 0.962572 0
M  V30 584 C 55.1376 1.09276 1.35406 0
M  V30 585 O 56.3136 1.41355 1.4346 0
M  V30 586 C 53.3786 2.65887 2.22497 0
M  V30 587 C 52.4396 3.85286 1.8935 0
M  V30 588 C 51.6726 4.34743 3.09571 0
M  V30 589 O 51.8956 3.83352 4.22371 0
M  V30 590 O 50.8296 5.26538 2.91618 0
M  V30 591 H 54.6556 2.99333 0.513169 0
M  V30 592 H 52.2406 1.4822 0.18743 0
M  V30 593 H 54.1226 2.99346 2.96598 0
M  V30 594 H 52.7976 1.83578 2.6661 0
M  V30 595 H 51.7046 3.56746 1.1262 0
M  V30 596 H 53.0376 4.68771 1.5005 0
M  V30 597 N 54.6897 -0.239769 1.55765 0
M  V30 598 C 55.9387 -0.964754 1.77131 0
M  V30 599 C 56.2517 -1.86213 0.59868 0
M  V30 600 O 57.4577 -2.6244 0.695522 0
M  V30 601 C 55.9137 -1.76552 3.1362 0
M  V30 602 C 55.5217 -0.915185 4.38553 0
M  V30 603 C 57.2657 -2.48281 3.44321 0
M  V30 604 C 55.1727 -1.71225 5.66071 0
M  V30 605 H 54.1027 -0.363953 0.660344 0
M  V30 606 H 56.7537 -0.219181 1.82186 0
M  V30 607 H 55.1357 -2.55331 3.02691 0
M  V30 608 H 56.3097 -0.169217 4.60489 0
M  V30 609 H 54.6247 -0.310889 4.15238 0
M  V30 610 H 57.2217 -3.08382 4.36812 0
M  V30 611 H 57.5647 -3.20256 2.65973 0
M  V30 612 H 58.0977 -1.76507 3.56497 0
M  V30 613 H 54.8367 -1.03612 6.4726 0
M  V30 614 H 54.3567 -2.43331 5.48224 0
M  V30 615 H 56.0357 -2.27758 6.05587 0
M  V30 616 N 56.1678 -1.49265 -0.50573 0
M  V30 617 C 57.3958 -1.62215 -1.28429 0
M  V30 618 C 57.8108 -0.291697 -1.86533 0
M  V30 619 O 57.1678 0.722233 -1.67601 0
M  V30 620 C 57.2188 -2.68735 -2.41793 0
M  V30 621 O 56.9398 -3.96619 -1.86078 0
M  V30 622 C 58.4408 -2.92346 -3.3324 0
M  V30 623 H 55.6608 -0.546239 -0.389697 0
M  V30 624 H 58.2048 -1.95265 -0.607609 0
M  V30 625 H 56.3598 -2.38476 -3.053 0
M  V30 626 H 56.7738 -4.55256 -2.60465 0
M  V30 627 H 58.2478 -3.70623 -4.09075 0
M  V30 628 H 58.7248 -2.02081 -3.89948 0
M  V30 629 H 59.3308 -3.24003 -2.75503 0
M  V30 630 N 57.6459 0.756429 -1.3826 0
M  V30 631 C 58.8919 1.51772 -1.34511 0
M  V30 632 C 59.2249 1.94089 0.0656691 0
M  V30 633 O 58.4999 1.65221 1.02626 0
M  V30 634 C 58.7829 2.77226 -2.29821 0
M  V30 635 C 58.6359 2.41065 -3.79747 0
M  V30 636 C 59.9549 3.79236 -2.23312 0
M  V30 637 H 57.0739 0.550578 -0.489931 0
M  V30 638 H 59.7159 0.866607 -1.69086 0
M  V30 639 H 57.8659 3.32784 -2.00467 0
M  V30 640 H 59.5379 1.91303 -4.19763 0
M  V30 641 H 57.7809 1.7356 -3.97567 0
M  V30 642 H 58.4519 3.3081 -4.41892 0
M  V30 643 H 60.9279 3.3321 -2.49219 0
M  V30 644 H 59.8039 4.64714 -2.92116 0
M  V30 645 H 60.0649 4.24615 -1.23102 0
M  V30 646 N 59.124 1.23083 0.984299 0
M  V30 647 C 60.54 0.992637 1.24975 0
M  V30 648 C 60.74 -0.308618 1.99123 0
M  V30 649 O 59.796 -1.02905 2.30579 0
M  V30 650 C 61.109 2.19698 2.05312 0
M  V30 651 C 62.657 2.24147 2.18465 0
M  V30 652 C 63.132 3.44157 3.02192 0
M  V30 653 N 64.623 3.44372 3.09777 0
M  V30 654 C 65.358 4.33886 3.74874 0
M  V30 655 N 64.854 5.3363 4.41827 0
M  V30 656 N 66.647 4.21639 3.71721 0
M  V30 657 H 58.798 2.06731 0.487453 0
M  V30 658 H 61.061 0.906339 0.277944 0
M  V30 659 H 60.767 3.1411 1.58201 0
M  V30 660 H 60.641 2.20465 3.06064 0
M  V30 661 H 63.028 1.30277 2.64786 0
M  V30 662 H 63.109 2.27415 1.17115 0
M  V30 663 H 62.753 4.38332 2.56568 0
M  V30 664 H 62.683 3.3813 4.03702 0
M  V30 665 H 65.174 2.72201 2.62135 0
M  V30 666 H 65.487 5.98196 4.89266 0
M  V30 667 H 63.832 5.37534 4.40548 0
M  V30 668 H 67.023 3.42962 3.18582 0
M  V30 669 H 67.196 4.91604 4.22173 0
M  V30 670 N 60.6021 -1.18246 1.0419 0
M  V30 671 C 61.8791 -1.84121 0.660208 0
M  V30 672 C 62.2591 -1.92778 -0.860221 0
M  V30 673 O 61.6071 -1.45464 -1.76217 0
M  V30 674 C 61.8171 -3.22355 1.33747 0
M  V30 675 C 63.1651 -3.98376 1.46906 0
M  V30 676 O 64.1891 -3.31799 1.29568 0
M  V30 677 O 63.0481 -5.17665 1.75171 0
M  V30 678 H 60.1421 -0.794036 0.231161 0
M  V30 679 H 62.6881 -1.25628 1.14087 0
M  V30 680 H 61.4601 -3.10964 2.37522 0
M  V30 681 H 61.0831 -3.88506 0.845515 0
M  V30 682 N 62.0802 -0.821533 -1.34494 0
M  V30 683 C 63.0102 -0.257138 -2.3208 0
M  V30 684 C 63.9912 0.625645 -1.58176 0
M  V30 685 O 65.1762 0.552811 -1.86166 0
M  V30 686 C 62.3062 0.582958 -3.42372 0
M  V30 687 C 61.2602 -0.202571 -4.2752 0
M  V30 688 C 60.5862 0.760179 -5.29269 0
M  V30 689 C 61.8862 -1.40998 -5.02908 0
M  V30 690 H 63.5802 -1.07247 -2.79532 0
M  V30 691 H 61.1262 -0.517163 -1.34393 0
M  V30 692 H 63.0792 0.987972 -4.09655 0
M  V30 693 H 61.8032 1.43133 -2.93565 0
M  V30 694 H 60.4622 -0.588936 -3.61838 0
M  V30 695 H 60.1102 1.60447 -4.76724 0
M  V30 696 H 59.8102 0.238809 -5.87115 0
M  V30 697 H 61.3342 1.16308 -5.9942 0
M  V30 698 H 62.7482 -1.07905 -5.63054 0
M  V30 699 H 61.1452 -1.86689 -5.70322 0
M  V30 700 H 62.2152 -2.1889 -4.32684 0
M  V30 701 N 63.5583 1.46682 -0.576371 0
M  V30 702 C 64.5213 2.28707 0.150239 0
M  V30 703 C 65.5213 1.38035 0.824794 0
M  V30 704 O 66.7113 1.60476 0.677719 0
M  V30 705 C 63.8433 3.18248 1.22192 0
M  V30 706 H 65.0363 2.94423 -0.570521 0
M  V30 707 H 62.5893 1.52688 -0.334078 0
M  V30 708 H 63.3243 2.57265 1.97447 0
M  V30 709 H 63.1093 3.85 0.742812 0
M  V30 710 H 64.5993 3.80001 1.73172 0
M  V30 711 N 65.0364 0.313813 1.54444 0
M  V30 712 C 65.9994 -0.54379 2.22656 0
M  V30 713 C 66.9994 -1.05124 1.21678 0
M  V30 714 O 68.1894 -0.945225 1.46325 0
M  V30 715 C 65.3214 -1.75427 2.92298 0
M  V30 716 H 66.5144 0.0523599 2.99854 0
M  V30 717 H 64.0674 0.0647834 1.56166 0
M  V30 718 H 64.8024 -2.38991 2.19211 0
M  V30 719 H 64.5874 -1.39791 3.66334 0
M  V30 720 H 66.0774 -2.36325 3.44297 0
M  V30 721 N 66.5145 -1.57545 0.0417849 0
M  V30 722 C 67.4625 -2.12148 -0.953723 0
M  V30 723 C 68.4565 -1.05104 -1.32852 0
M  V30 724 O 69.6625 -1.23524 -1.30927 0
M  V30 725 H 66.0375 -0.677957 -0.325389 0
M  V30 726 H 68.0085 -2.94707 -0.467991 0
M  V30 727 C 66.7575 -2.6739 -2.22257 0
M  V30 728 H 66.0805 -3.49413 -1.94295 0
M  V30 729 H 67.5205 -3.09227 -2.90094 0
M  V30 730 C 65.9795 -1.60723 -2.96091 0
M  V30 731 O 66.5095 -1.01449 -3.88679 0
M  V30 732 N 64.7155 -1.32466 -2.58652 0
M  V30 733 H 64.2625 -1.80856 -1.83437 0
M  V30 734 H 64.2205 -0.61325 -3.08361 0
M  V30 735 N 67.9926 0.231505 -1.5589 0
M  V30 736 C 69.4036 0.799327 -1.68724 0
M  V30 737 C 69.7546 1.85398 -0.642022 0
M  V30 738 O 68.8796 2.1539 0.208784 0
M  V30 739 C 69.4746 1.45664 -3.05888 0
M  V30 740 C 68.0336 1.97197 -3.20609 0
M  V30 741 C 67.1806 0.828552 -2.64632 0
M  V30 742 H 70.1316 0.00702616 -1.58698 0
M  V30 743 H 70.1526 2.32517 -3.01191 0
M  V30 744 H 69.6646 0.688808 -3.81939 0
M  V30 745 H 67.7656 2.76813 -2.4941 0
M  V30 746 H 67.8786 2.15878 -4.27707 0
M  V30 747 H 66.2426 1.23321 -2.22854 0
M  V30 748 H 67.0256 0.0735544 -3.43221 0
M  V30 749 N 69.4707 1.49531 0.497807 0
M  V30 750 C 70.7167 1.59415 1.25358 0
M  V30 751 C 71.0497 0.281422 1.9215 0
M  V30 752 O 70.3247 -0.715249 1.80871 0
M  V30 753 C 70.6077 2.75566 2.3181 0
M  V30 754 C 70.4607 4.16642 1.69498 0
M  V30 755 C 71.7797 2.87347 3.33346 0
M  V30 756 H 68.8987 0.580244 0.454408 0
M  V30 757 H 71.5407 1.81827 0.551262 0
M  V30 758 H 69.6907 2.56587 2.91711 0
M  V30 759 H 71.3627 4.47145 1.13399 0
M  V30 760 H 69.6057 4.22141 0.998978 0
M  V30 761 H 70.2767 4.93792 2.46725 0
M  V30 762 H 72.7527 3.04634 2.83438 0
M  V30 763 H 71.6287 3.70289 4.05188 0
M  V30 764 H 71.8897 1.96834 3.95865 0
M  V30 765 N 70.9488 -0.749086 1.3866 0
M  V30 766 C 72.3598 -1.32664 1.31366 0
M  V30 767 C 72.7108 -1.96179 -0.028484 0
M  V30 768 O 71.8358 -1.9537 -0.93057 0
M  V30 769 C 72.4308 -2.41219 2.37905 0
M  V30 770 C 70.9898 -2.94684 2.34176 0
M  V30 771 C 70.1368 -1.68108 2.20533 0
M  V30 772 H 73.0878 -0.547628 1.48952 0
M  V30 773 H 73.1088 -3.21268 2.0388 0
M  V30 774 H 72.6208 -1.94962 3.35576 0
M  V30 775 H 70.7218 -3.45258 1.401 0
M  V30 776 H 70.8348 -3.48757 3.2849 0
M  V30 777 H 69.1988 -1.91907 1.67463 0
M  V30 778 H 69.9818 -1.23923 3.20153 0
M  V30 779 N 72.4269 -1.23603 -0.977757 0
M  V30 780 C 73.6729 -1.07129 -1.72195 0
M  V30 781 C 74.0059 0.390501 -1.90233 0
M  V30 782 O 73.2809 1.28902 -1.45653 0
M  V30 783 C 73.5639 -1.80031 -3.11867 0
M  V30 784 C 73.4169 -3.33899 -3.01383 0
M  V30 785 C 74.7359 -1.56492 -4.11337 0
M  V30 786 H 71.8549 -0.390571 -0.624999 0
M  V30 787 H 74.4969 -1.52142 -1.13811 0
M  V30 788 H 72.6469 -1.41768 -3.6171 0
M  V30 789 H 74.3189 -3.81699 -2.59043 0
M  V30 790 H 72.5619 -3.62796 -2.37827 0
M  V30 791 H 73.2329 -3.801 -4.00285 0
M  V30 792 H 75.7089 -1.89757 -3.70313 0
M  V30 793 H 74.5849 -2.09973 -5.07151 0
M  V30 794 H 74.8459 -0.500874 -4.39254 0
M  V30 795 N 73.905 1.17692 -1.04816 0
M  V30 796 C 74.835 2.23777 -0.666791 0
M  V30 797 C 75.816 1.66796 0.33361 0
M  V30 798 O 77.001 1.93039 0.212042 0
M  V30 799 C 74.131 3.47281 -0.0367933 0
M  V30 800 C 73.085 4.17059 -0.961546 0
M  V30 801 C 72.411 5.34342 -0.195626 0
M  V30 802 C 73.711 4.69713 -2.28402 0
M  V30 803 H 75.405 2.55933 -1.55367 0
M  V30 804 H 72.951 1.23019 -0.748484 0
M  V30 805 H 74.904 4.20706 0.241775 0
M  V30 806 H 73.628 3.14381 0.885004 0
M  V30 807 H 72.287 3.45541 -1.22462 0
M  V30 808 H 71.935 4.97692 0.728816 0
M  V30 809 H 71.635 5.81966 -0.811775 0
M  V30 810 H 73.159 6.10553 0.0757473 0
M  V30 811 H 74.573 5.34794 -2.06563 0
M  V30 812 H 72.97 5.279 -2.8538 0
M  V30 813 H 74.04 3.86726 -2.92525 0
M  V30 814 N 75.3831 0.828654 1.34056 0
M  V30 815 C 76.6601 0.341809 1.9259 0
M  V30 816 C 77.0401 -1.17158 1.75605 0
M  V30 817 O 76.3881 -1.98132 1.13824 0
M  V30 818 C 76.5981 0.777453 3.4023 0
M  V30 819 C 77.9461 0.779579 4.17382 0
M  V30 820 O 78.9701 0.7204 3.48839 0
M  V30 821 O 77.8291 0.857996 5.39723 0
M  V30 822 H 74.9231 0.0946085 0.821571 0
M  V30 823 H 77.4691 0.913827 1.42994 0
M  V30 824 H 76.2411 1.8196 3.46419 0
M  V30 825 H 75.8641 0.181444 3.97186 0
M  V30 826 N 76.8612 -1.46375 0.584142 0
M  V30 827 C 78.1092 -2.01978 0.0701287 0
M  V30 828 C 78.4302 -1.4579 -1.295 0
M  V30 829 O 77.7002 -0.64314 -1.85042 0
M  V30 830 H 76.2802 -0.746648 0.0229345 0
M  V30 831 H 78.9422 -1.79461 0.760245 0
M  V30 832 H 78.0382 -3.121 0.0022064 0
M  V30 833 N 78.3393 -0.321999 -1.54275 0
M  V30 834 C 79.2493 0.553631 -2.27974 0
M  V30 835 C 80.2653 1.13054 -1.32268 0
M  V30 836 O 81.4413 1.15084 -1.6528 0
M  V30 837 C 78.5063 1.69927 -3.02201 0
M  V30 838 C 77.5673 1.15433 -4.1349 0
M  V30 839 C 76.8003 2.24537 -4.84168 0
M  V30 840 O 77.0233 3.44852 -4.5435 0
M  V30 841 O 75.9573 1.90044 -5.7111 0
M  V30 842 H 79.7833 -0.0448345 -3.03667 0
M  V30 843 H 77.3683 -0.0877418 -1.49142 0
M  V30 844 H 79.2503 2.3663 -3.48689 0
M  V30 845 H 77.9253 2.28395 -2.29385 0
M  V30 846 H 76.8323 0.452436 -3.71354 0
M  V30 847 H 78.1653 0.614805 -4.88345 0
M  V30 848 N 79.8174 1.5752 -0.0501392 0
M  V30 849 C 80.7474 2.14502 0.922566 0
M  V30 850 C 81.7284 1.06642 1.3252 0
M  V30 851 O 82.9134 1.34577 1.4001 0
M  V30 852 C 80.0434 2.68916 2.19776 0
M  V30 853 C 78.9974 3.8175 1.93523 0
M  V30 854 C 78.3234 4.22677 3.27487 0
M  V30 855 C 79.6234 5.06932 1.25765 0
M  V30 856 H 81.3174 2.9603 0.447952 0
M  V30 857 H 78.8634 1.42401 0.214024 0
M  V30 858 H 80.8164 3.07419 2.88222 0
M  V30 859 H 79.5404 1.84578 2.69441 0
M  V30 860 H 78.1994 3.43718 1.27489 0
M  V30 861 H 77.8474 3.35291 3.74952 0
M  V30 862 H 77.5474 4.98725 3.1072 0
M  V30 863 H 79.0714 4.63779 3.97166 0
M  V30 864 H 80.4854 5.42888 1.84244 0
M  V30 865 H 78.8824 5.88116 1.19328 0
M  V30 866 H 79.9524 4.84337 0.233536 0
M  V30 867 N 81.2955 -0.223234 1.56011 0
M  V30 868 C 82.5415 -0.949279 1.79211 0
M  V30 869 C 82.8745 -1.84054 0.619494 0
M  V30 870 O 82.1495 -1.90726 -0.381317 0
M  V30 871 C 82.4325 -1.78965 3.12479 0
M  V30 872 C 82.2855 -0.924997 4.40186 0
M  V30 873 C 83.6045 -2.76774 3.42175 0
M  V30 874 H 80.7235 -0.343676 0.651963 0
M  V30 875 H 83.3655 -0.218253 1.88742 0
M  V30 876 H 81.5155 -2.41291 3.04485 0
M  V30 877 H 83.1875 -0.318615 4.60198 0
M  V30 878 H 81.4305 -0.230344 4.33188 0
M  V30 879 H 82.1015 -1.54735 5.29869 0
M  V30 880 H 84.5775 -2.24584 3.50287 0
M  V30 881 H 83.4535 -3.32678 4.36597 0
M  V30 882 H 83.7145 -3.54429 2.64258 0
M  V30 883 N 82.7736 -1.49793 -0.48987 0
M  V30 884 C 84.0216 -1.59525 -1.24081 0
M  V30 885 C 84.3426 -0.288953 -1.92847 0
M  V30 886 O 83.6126 0.692436 -1.83254 0
M  V30 887 H 82.1926 -0.587796 -0.460983 0
M  V30 888 H 84.8546 -1.86477 -0.566778 0
M  V30 889 H 83.9506 -2.39696 -1.99881 0
M  V30 890 N 84.2517 0.741722 -1.39055 0
M  V30 891 C 85.2147 1.83733 -1.37021 0
M  V30 892 C 86.2147 1.58542 -0.268534 0
M  V30 893 O 87.4047 1.66067 -0.526076 0
M  V30 894 C 84.5367 3.2141 -1.13617 0
M  V30 895 H 85.7297 1.86941 -2.34506 0
M  V30 896 H 83.2827 0.944676 -1.24521 0
M  V30 897 H 84.0177 3.23865 -0.167863 0
M  V30 898 H 83.8027 3.4109 -1.93391 0
M  V30 899 H 85.2927 4.01477 -1.14918 0
M  V30 900 N 85.7298 1.2412 0.971189 0
M  V30 901 C 86.6628 0.97373 2.06382 0
M  V30 902 C 87.6408 -0.0912662 1.62344 0
M  V30 903 O 88.8248 0.0449365 1.88446 0
M  V30 904 C 85.9518 0.468746 3.35441 0
M  V30 905 C 84.9978 1.52176 3.98428 0
M  V30 906 S 85.8308 3.10203 4.36503 0
M  V30 907 C 86.9868 2.61398 5.68702 0
M  V30 908 H 87.2198 1.89893 2.28753 0
M  V30 909 H 84.7528 1.07466 1.10862 0
M  V30 910 H 86.7108 0.184012 4.10087 0
M  V30 911 H 85.3718 -0.435688 3.11064 0
M  V30 912 H 84.5648 1.11876 4.91426 0
M  V30 913 H 84.1668 1.75632 3.30196 0
M  V30 914 H 86.4588 2.03992 6.4606 0
M  V30 915 H 87.4018 3.52972 6.13854 0
M  V30 916 H 87.8098 2.01941 5.27143 0
M  V30 917 N 87.2079 -1.17134 1.05439 0
M  V30 918 C 88.6239 -1.39454 0.776201 0
M  V30 919 C 88.8239 -1.91454 -0.628307 0
M  V30 920 O 87.8799 -2.10777 -1.39031 0
M  V30 921 C 89.1929 -2.38305 1.83388 0
M  V30 922 C 90.7409 -2.52006 1.85639 0
M  V30 923 C 91.2159 -3.54133 2.90437 0
M  V30 924 N 92.7069 -3.61653 2.89415 0
M  V30 925 C 93.4419 -4.4044 3.67152 0
M  V30 926 N 92.9379 -5.22721 4.54681 0
M  V30 927 N 94.7309 -4.35337 3.55581 0
M  V30 928 H 86.8819 -0.817134 1.96053 0
M  V30 929 H 89.1449 -0.421626 0.849079 0
M  V30 930 H 88.8509 -2.07173 2.84204 0
M  V30 931 H 88.7249 -3.37841 1.67761 0
M  V30 932 H 91.1119 -2.82447 0.85486 0
M  V30 933 H 91.1929 -1.52537 2.05344 0
M  V30 934 H 90.8369 -3.24431 3.90777 0
M  V30 935 H 90.7669 -4.53313 2.67983 0
M  V30 936 H 93.2579 -3.02909 2.25952 0
M  V30 937 H 93.5709 -5.80027 5.10674 0
M  V30 938 H 91.9159 -5.22093 4.58741 0
M  V30 939 H 95.1069 -3.70112 2.86592 0
M  V30 940 H 95.2799 -4.96494 4.1641 0
M  V30 941 N 88.686 -0.835752 -1.33615 0
M  V30 942 C 90.097 -0.487099 -1.80234 0
M  V30 943 C 90.448 0.993627 -1.69179 0
M  V30 944 O 89.573 1.77403 -1.23924 0
M  V30 945 C 90.168 -0.877385 -3.27242 0
M  V30 946 C 88.727 -0.580915 -3.7189 0
M  V30 947 C 87.874 -1.0874 -2.5509 0
M  V30 948 H 90.825 -1.02474 -1.2118 0
M  V30 949 H 90.846 -0.186195 -3.80044 0
M  V30 950 H 90.358 -1.95512 -3.35256 0
M  V30 951 H 88.459 0.486881 -3.69405 0
M  V30 952 H 88.572 -1.13396 -4.65487 0
M  V30 953 H 86.936 -0.508392 -2.49575 0
M  V30 954 H 87.719 -2.17184 -2.65868 0
M  V30 955 N 90.1641 1.46063 -0.591896 0
M  V30 956 C 91.4121 2.01938 -0.0808391 0
M  V30 957 C 91.7331 1.46475 1.28725 0
M  V30 958 O 91.0031 0.652944 1.84698 0
M  V30 959 H 89.5831 0.746516 -0.0268938 0
M  V30 960 H 92.2451 1.79055 -0.769752 0
M  V30 961 H 91.3411 3.12094 -0.0187578 0
M  V30 962 N 91.6422 0.330177 1.54103 0
M  V30 963 C 92.9192 -0.325007 1.92881 0
M  V30 964 C 93.2992 -1.6934 1.26045 0
M  V30 965 O 92.6472 -2.24855 0.406526 0
M  V30 966 C 92.8572 -0.410634 3.46576 0
M  V30 967 C 94.2052 -0.667801 4.19316 0
M  V30 968 O 95.2292 -0.49329 3.52768 0
M  V30 969 O 94.0882 -1.00491 5.37181 0
M  V30 970 H 91.1822 -0.186873 0.80561 0
M  V30 971 H 93.7282 0.380376 1.65382 0
M  V30 972 H 92.5002 0.550164 3.87413 0
M  V30 973 H 92.1232 -1.16333 3.802 0
M  V30 974 N 93.1203 -1.57491 0.0584922 0
M  V30 975 C 94.0833 -2.1085 -0.898617 0
M  V30 976 C 95.0833 -1.02964 -1.23511 0
M  V30 977 O 96.2733 -1.29007 -1.17059 0
M  V30 978 C 93.4053 -2.59881 -2.20623 0
M  V30 979 H 94.5983 -2.96715 -0.435936 0
M  V30 980 H 92.1513 -1.55141 -0.190023 0
M  V30 981 H 92.8863 -1.77431 -2.71457 0
M  V30 982 H 92.6713 -3.38727 -1.97501 0
M  V30 983 H 94.1613 -3.01285 -2.89166 0
M  V30 984 N 94.5984 0.214957 -1.56127 0
M  V30 985 C 96.0094 0.781386 -1.69562 0
M  V30 986 C 96.3604 1.84707 -0.66165 0
M  V30 987 O 95.4854 2.156 0.185927 0
M  V30 988 C 96.0804 1.42411 -3.07416 0
M  V30 989 C 94.6394 1.93786 -3.22683 0
M  V30 990 C 93.7864 0.800438 -2.65496 0
M  V30 991 H 96.7374 -0.00980633 -1.58697 0
M  V30 992 H 96.7584 2.29309 -3.0364 0
M  V30 993 H 96.2704 0.64826 -3.82648 0
M  V30 994 H 94.3714 2.74152 -2.52332 0
M  V30 995 H 94.4844 2.1133 -4.29973 0
M  V30 996 H 92.8484 1.2095 -2.2415 0
M  V30 997 H 93.6314 0.0371471 -3.4328 0
M  V30 998 N 96.0765 1.50051 0.48192 0
M  V30 999 C 97.0065 1.71046 1.58951 0
M  V30 1000 C 97.9875 0.559288 1.60642 0
M  V30 1001 O 99.1725 0.797243 1.77081 0
M  V30 1002 C 96.3025 1.79462 2.97339 0
M  V30 1003 C 95.2565 2.94558 3.10515 0
M  V30 1004 C 94.5825 2.88105 4.50444 0
M  V30 1005 C 95.8825 4.35227 2.88747 0
M  V30 1006 H 97.5765 2.6378 1.41635 0
M  V30 1007 H 95.1225 1.26936 0.679942 0
M  V30 1008 H 97.0755 1.92734 3.74742 0
M  V30 1009 H 95.7995 0.833412 3.15788 0
M  V30 1010 H 94.4585 2.80918 2.35543 0
M  V30 1011 H 94.1065 1.89853 4.65795 0
M  V30 1012 H 93.8065 3.65366 4.60197 0
M  V30 1013 H 95.3305 3.03412 5.29881 0
M  V30 1014 H 96.7445 4.49449 3.55905 0
M  V30 1015 H 95.1415 5.13856 3.09955 0
M  V30 1016 H 96.2115 4.48347 1.84696 0
M  V30 1017 N 97.5546 -0.734337 1.39446 0
M  V30 1018 C 98.7826 -1.52358 1.39981 0
M  V30 1019 C 99.1976 -1.88799 -0.0054975 0
M  V30 1020 O 98.5546 -1.54146 -0.976998 0
M  V30 1021 C 98.6056 -2.81072 2.27333 0
M  V30 1022 O 98.3266 -2.46178 3.62392 0
M  V30 1023 C 99.8276 -3.75096 2.36259 0
M  V30 1024 H 97.0476 -0.470806 0.478103 0
M  V30 1025 H 99.5916 -0.907339 1.83269 0
M  V30 1026 H 97.7466 -3.39026 1.87457 0
M  V30 1027 H 98.1606 -3.28866 4.08592 0
M  V30 1028 H 99.6346 -4.62305 3.01626 0
M  V30 1029 H 100.112 -4.16892 1.38194 0
M  V30 1030 H 100.718 -3.23061 2.76608 0
M  V30 1031 N 99.0327 -1.24633 -0.964593 0
M  V30 1032 C 100.444 -1.08045 -1.5226 0
M  V30 1033 C 100.795 0.347116 -1.93105 0
M  V30 1034 O 99.9197 1.23588 -1.77637 0
M  V30 1035 C 100.515 -1.95514 -2.76695 0
M  V30 1036 C 99.0737 -1.8314 -3.28841 0
M  V30 1037 C 98.2207 -1.90262 -2.01732 0
M  V30 1038 H 101.172 -1.38064 -0.782553 0
M  V30 1039 H 101.193 -1.48925 -3.50145 0
M  V30 1040 H 100.705 -2.99407 -2.46936 0
M  V30 1041 H 98.8057 -0.82092 -3.63444 0
M  V30 1042 H 98.9187 -2.67406 -3.97531 0
M  V30 1043 H 97.2827 -1.34027 -2.16584 0
M  V30 1044 H 98.0657 -2.9574 -1.74334 0
M  V30 1045 N 100.511 1.16574 -1.06058 0
M  V30 1046 C 101.927 1.3904 -0.783585 0
M  V30 1047 C 102.127 1.91784 0.618145 0
M  V30 1048 O 101.183 2.11511 1.37911 0
M  V30 1049 C 102.496 2.37329 -1.84649 0
M  V30 1050 C 104.044 2.51018 -1.86973 0
M  V30 1051 C 104.519 3.52588 -2.92311 0
M  V30 1052 N 106.01 3.60113 -2.91329 0
M  V30 1053 C 106.745 4.38486 -3.69482 0
M  V30 1054 N 106.241 5.20302 -4.57447 0
M  V30 1055 N 108.034 4.33446 -3.57885 0
M  V30 1056 H 100.185 0.806725 -1.96483 0
M  V30 1057 H 102.448 0.417117 -0.851303 0
M  V30 1058 H 102.154 2.05663 -2.85299 0
M  V30 1059 H 102.028 3.36946 -1.6955 0
M  V30 1060 H 104.415 2.81989 -0.869827 0
M  V30 1061 H 104.496 1.51445 -2.0615 0
M  V30 1062 H 104.14 3.22354 -3.92492 0
M  V30 1063 H 104.07 4.51886 -2.70383 0
M  V30 1064 H 106.561 3.01707 -2.27555 0
M  V30 1065 H 106.874 5.77311 -5.13743 0
M  V30 1066 H 105.219 5.19653 -4.61503 0
M  V30 1067 H 108.41 3.68586 -2.88551 0
M  V30 1068 H 108.583 4.94279 -4.19037 0
M  V30 1069 N 101.989 0.842826 1.3317 0
M  V30 1070 C 102.921 0.236245 2.27979 0
M  V30 1071 C 103.934 -0.585282 1.51915 0
M  V30 1072 O 105.123 -0.411705 1.73687 0
M  V30 1073 C 102.223 -0.685717 3.3189 0
M  V30 1074 C 101.396 0.0973448 4.37292 0
M  V30 1075 C 100.455 -0.748565 5.20848 0
M  V30 1076 O 99.4809 -0.186339 5.68895 0
M  V30 1077 N 100.683 -2.06527 5.42519 0
M  V30 1078 H 103.448 1.05088 2.80672 0
M  V30 1079 H 101.009 0.701667 1.45905 0
M  V30 1080 H 103.001 -1.25669 3.84694 0
M  V30 1081 H 101.571 -1.40105 2.79445 0
M  V30 1082 H 100.791 0.849706 3.84933 0
M  V30 1083 H 102.079 0.635643 5.04814 0
M  V30 1084 H 101.477 -2.54554 5.05192 0
M  V30 1085 H 100.034 -2.58464 5.98364 0
M  V30 1086 N 103.467 -1.45747 0.599634 0
M  V30 1087 C 104.399 -2.28628 -0.161879 0
M  V30 1088 C 105.412 -1.39494 -0.839367 0
M  V30 1089 O 106.601 -1.63941 -0.706089 0
M  V30 1090 C 103.701 -3.15014 -1.24976 0
M  V30 1091 C 102.874 -4.32378 -0.660935 0
M  V30 1092 C 101.933 -5.00033 -1.63869 0
M  V30 1093 O 100.959 -5.57085 -1.1681 0
M  V30 1094 N 102.161 -4.98589 -2.97303 0
M  V30 1095 H 104.926 -2.94624 0.549265 0
M  V30 1096 H 102.487 -1.55847 0.438565 0
M  V30 1097 H 104.479 -3.5714 -1.9035 0
M  V30 1098 H 103.049 -2.5098 -1.86354 0
M  V30 1099 H 102.269 -3.9383 0.170688 0
M  V30 1100 H 103.557 -5.08197 -0.247619 0
M  V30 1101 H 102.955 -4.53514 -3.38145 0
M  V30 1102 H 101.512 -5.44603 -3.58121 0
M  V30 1103 N 104.945 -0.338344 -1.53925 0
M  V30 1104 C 106.222 0.314774 -1.93051 0
M  V30 1105 C 106.602 1.68669 -1.26941 0
M  V30 1106 O 105.95 2.24636 -0.418445 0
M  V30 1107 C 106.16 0.392249 -3.46789 0
M  V30 1108 C 107.508 0.645554 -4.19664 0
M  V30 1109 O 108.532 0.474575 -3.53024 0
M  V30 1110 O 107.391 0.976408 -5.37707 0
M  V30 1111 H 104.485 0.182598 -0.80659 0
M  V30 1112 H 107.031 -0.389141 -1.65178 0
M  V30 1113 H 105.803 -0.570702 -3.87116 0
M  V30 1114 H 105.426 1.14316 -3.80812 0
M  V30 1115 N 106.423 1.57458 -0.0668435 0
M  V30 1116 C 107.386 2.11323 0.887422 0
M  V30 1117 C 108.386 1.03618 1.22964 0
M  V30 1118 O 109.576 1.29626 1.16373 0
M  V30 1119 C 106.708 2.61048 2.19242 0
M  V30 1120 H 107.901 2.96942 0.420194 0
M  V30 1121 H 105.454 1.55239 0.181793 0
M  V30 1122 H 106.189 1.78868 2.70512 0
M  V30 1123 H 105.974 3.39769 1.95702 0
M  V30 1124 H 107.464 3.02814 2.87565 0
M  V30 1125 N 107.901 -0.206675 1.56239 0
M  V30 1126 C 108.831 -1.25909 1.96645 0
M  V30 1127 C 109.812 -1.48097 0.836734 0
M  V30 1128 O 110.997 -1.6003 1.10019 0
M  V30 1129 C 108.127 -2.6058 2.29599 0
M  V30 1130 C 107.081 -2.53024 3.452 0
M  V30 1131 C 106.407 -3.91861 3.63798 0
M  V30 1132 C 107.707 -2.06524 4.79734 0
M  V30 1133 H 109.401 -0.923369 2.84806 0
M  V30 1134 H 106.947 -0.442735 1.37025 0
M  V30 1135 H 108.9 -3.34375 2.56459 0
M  V30 1136 H 107.624 -2.95869 1.38307 0
M  V30 1137 H 106.283 -1.81684 3.18412 0
M  V30 1138 H 105.931 -4.24483 2.69857 0
M  V30 1139 H 105.631 -3.87683 4.4156 0
M  V30 1140 H 107.155 -4.67296 3.93022 0
M  V30 1141 H 108.569 -2.70072 5.05702 0
M  V30 1142 H 106.966 -2.13374 5.60885 0
M  V30 1143 H 108.036 -1.01802 4.74093 0
M  V30 1144 N 109.379 -1.50304 -0.473955 0
M  V30 1145 C 110.342 -1.6841 -1.55469 0
M  V30 1146 C 111.342 -0.554905 -1.50922 0
M  V30 1147 O 112.532 -0.821882 -1.53593 0
M  V30 1148 C 109.664 -1.70667 -2.95102 0
M  V30 1149 H 110.857 -2.64828 -1.40733 0
M  V30 1150 H 108.41 -1.39742 -0.700132 0
M  V30 1151 H 109.145 -0.75932 -3.15285 0
M  V30 1152 H 108.93 -2.52698 -2.9981 0
M  V30 1153 H 110.42 -1.8664 -3.73571 0
M  V30 1154 N 110.857 0.726932 -1.39834 0
M  V30 1155 C 111.787 1.85405 -1.41941 0
M  V30 1156 C 112.768 1.67751 -0.281728 0
M  V30 1157 O 113.953 1.8795 -0.488717 0
M  V30 1158 C 111.083 3.23243 -1.2701 0
M  V30 1159 C 110.037 3.55549 -2.38262 0
M  V30 1160 C 109.363 4.9241 -2.08415 0
M  V30 1161 C 110.663 3.577 -3.80589 0
M  V30 1162 H 112.357 1.83899 -2.36266 0
M  V30 1163 H 109.903 0.883349 -1.13723 0
M  V30 1164 H 111.856 4.01775 -1.27103 0
M  V30 1165 H 110.58 3.25296 -0.291564 0
M  V30 1166 H 109.239 2.79351 -2.37399 0
M  V30 1167 H 108.887 4.91052 -1.0898 0
M  V30 1168 H 108.587 5.14992 -2.82943 0
M  V30 1169 H 110.111 5.73289 -2.10171 0
M  V30 1170 H 111.525 4.26293 -3.83337 0
M  V30 1171 H 109.922 3.91804 -4.54543 0
M  V30 1172 H 110.992 2.57328 -4.10987 0
M  V30 1173 N 112.336 1.25143 0.95797 0
M  V30 1174 C 113.561 1.12521 1.74223 0
M  V30 1175 C 113.986 -0.317402 1.85403 0
M  V30 1176 O 113.344 -1.2299 1.33204 0
M  V30 1177 C 113.392 1.78062 3.1357 0
M  V30 1178 O 112.496 1.058 3.98598 0
M  V30 1179 H 111.837 0.39304 0.535178 0
M  V30 1180 H 114.367 1.65641 1.201 0
M  V30 1181 H 114.377 1.84213 3.64046 0
M  V30 1182 H 113.052 2.83021 3.04749 0
M  V30 1183 H 111.629 1.07506 3.57067 0
M  V30 1184 N 113.814 -1.1601 1.06675 0
M  V30 1185 C 115.091 -1.82679 0.699114 0
M  V30 1186 C 115.471 -1.94559 -0.819137 0
M  V30 1187 O 114.819 -1.49169 -1.73092 0
M  V30 1188 C 115.029 -3.19445 1.40555 0
M  V30 1189 C 116.377 -3.95171 1.55323 0
M  V30 1190 O 117.401 -3.28976 1.36577 0
M  V30 1191 O 116.26 -5.13833 1.86112 0
M  V30 1192 H 113.354 -0.788954 0.247951 0
M  V30 1193 H 115.9 -1.23179 1.16726 0
M  V30 1194 H 114.672 -3.05856 2.44065 0
M  V30 1195 H 114.295 -3.86625 0.927733 0
M  V30 1196 N 115.292 -0.849877 -1.32721 0
M  V30 1197 C 116.202 -0.293791 -2.32753 0
M  V30 1198 C 117.218 0.585906 -1.63839 0
M  V30 1199 O 118.394 0.487413 -1.95413 0
M  V30 1200 C 115.459 0.512752 -3.42887 0
M  V30 1201 C 114.52 -0.39252 -4.27502 0
M  V30 1202 C 113.753 0.375625 -5.32377 0
M  V30 1203 O 113.976 1.60613 -5.4732 0
M  V30 1204 O 112.91 -0.256094 -6.01355 0
M  V30 1205 H 116.736 -1.12242 -2.82197 0
M  V30 1206 H 114.321 -0.612685 -1.36259 0
M  V30 1207 H 116.203 0.970704 -4.10067 0
M  V30 1208 H 114.878 1.31826 -2.95641 0
M  V30 1209 H 113.785 -0.898547 -3.63149 0
M  V30 1210 H 115.118 -1.16309 -4.7826 0
M  V30 1211 N 116.77 1.45427 -0.607355 0
M  V30 1212 C 117.7 2.3329 0.0989352 0
M  V30 1213 C 118.681 1.46816 0.859007 0
M  V30 1214 O 119.866 1.75588 0.829604 0
M  V30 1215 C 116.996 3.29518 1.09705 0
M  V30 1216 C 115.95 4.25626 0.450206 0
M  V30 1217 C 115.276 5.11542 1.55655 0
M  V30 1218 C 116.576 5.18505 -0.628455 0
M  V30 1219 H 118.27 2.92595 -0.634716 0
M  V30 1220 H 115.816 1.40696 -0.306681 0
M  V30 1221 H 117.769 3.89855 1.59971 0
M  V30 1222 H 116.493 2.68372 1.86129 0
M  V30 1223 H 115.152 3.66586 -0.0315886 0
M  V30 1224 H 114.8 4.46765 2.31107 0
M  V30 1225 H 114.5 5.76647 1.12925 0
M  V30 1226 H 116.024 5.74748 2.06148 0
M  V30 1227 H 117.438 5.72916 -0.209877 0
M  V30 1228 H 115.835 5.92085 -0.977489 0
M  V30 1229 H 116.905 4.60948 -1.50514 0
M  V30 1230 N 118.248 0.346503 1.53744 0
M  V30 1231 C 119.497 -0.250122 2.00143 0
M  V30 1232 C 119.81 -1.51418 1.23822 0
M  V30 1233 O 121.016 -2.18823 1.60713 0
M  V30 1234 C 119.472 -0.496252 3.56462 0
M  V30 1235 C 119.08 0.752077 4.41642 0
M  V30 1236 C 120.824 -1.05157 4.11269 0
M  V30 1237 C 118.731 0.476583 5.89477 0
M  V30 1238 H 117.661 -0.0972409 0.747703 0
M  V30 1239 H 120.312 0.46229 1.77581 0
M  V30 1240 H 118.694 -1.26944 3.75102 0
M  V30 1241 H 119.868 1.5266 4.34778 0
M  V30 1242 H 118.183 1.22925 3.97842 0
M  V30 1243 H 120.78 -1.27269 5.19333 0
M  V30 1244 H 121.123 -2.00799 3.64672 0
M  V30 1245 H 121.656 -0.339019 3.96353 0
M  V30 1246 H 118.395 1.4028 6.40314 0
M  V30 1247 H 117.915 -0.259794 5.99237 0
M  V30 1248 H 119.594 0.0949315 6.4693 0
M  V30 1249 N 119.726 -1.57421 0.075193 0
M  V30 1250 C 120.689 -2.11791 -0.876203 0
M  V30 1251 C 121.689 -1.04268 -1.22412 0
M  V30 1252 O 122.879 -1.30242 -1.15684 0
M  V30 1253 C 120.011 -2.62207 -2.17854 0
M  V30 1254 H 121.204 -2.9716 -0.40444 0
M  V30 1255 H 118.757 -1.55333 -0.173557 0
M  V30 1256 H 119.492 -1.803 -2.6956 0
M  V30 1257 H 119.277 -3.40802 -1.93897 0
M  V30 1258 H 120.767 -3.04335 -2.85955 0
M  V30 1259 N 121.204 0.198386 -1.56346 0
M  V30 1260 C 122.114 1.2664 -1.97483 0
M  V30 1261 C 123.13 1.49989 -0.882002 0
M  V30 1262 O 124.306 1.62668 -1.18748 0
M  V30 1263 C 121.371 2.59141 -2.30319 0
M  V30 1264 C 120.432 2.43892 -3.53292 0
M  V30 1265 C 119.665 3.70074 -3.84553 0
M  V30 1266 O 119.888 4.74101 -3.1715 0
M  V30 1267 O 118.822 3.658 -4.7799 0
M  V30 1268 H 122.648 0.947304 -2.88548 0
M  V30 1269 H 120.233 0.403123 -1.43859 0
M  V30 1270 H 122.115 3.37352 -2.5253 0
M  V30 1271 H 120.79 2.90684 -1.42423 0
M  V30 1272 H 119.697 1.63803 -3.36332 0
M  V30 1273 H 121.03 2.17282 -4.41644 0
M  V30 1274 N 122.682 1.50554 0.465978 0
M  V30 1275 C 123.612 1.72722 1.57128 0
M  V30 1276 C 124.593 0.576294 1.6004 0
M  V30 1277 O 125.778 0.81598 1.76225 0
M  V30 1278 C 122.908 1.82605 2.95419 0
M  V30 1279 C 121.862 2.97835 3.07373 0
M  V30 1280 C 121.188 2.92867 4.47363 0
M  V30 1281 C 122.488 4.38265 2.84114 0
M  V30 1282 H 124.182 2.65267 1.38829 0
M  V30 1283 H 121.728 1.2765 0.666441 0
M  V30 1284 H 123.681 1.96698 3.72677 0
M  V30 1285 H 122.405 0.866858 3.14886 0
M  V30 1286 H 121.064 2.83401 2.3255 0
M  V30 1287 H 120.712 1.94783 4.63755 0
M  V30 1288 H 120.412 3.70227 4.56296 0
M  V30 1289 H 121.936 3.09015 5.26633 0
M  V30 1290 H 123.35 4.53198 3.51118 0
M  V30 1291 H 121.747 5.17115 3.04487 0
M  V30 1292 H 122.817 4.50281 1.7993 0
M  V30 1293 N 124.16 -0.719506 1.40217 0
M  V30 1294 C 125.107 -1.83359 1.40172 0
M  V30 1295 C 126.077 -1.64065 0.259206 0
M  V30 1296 O 127.262 -1.85254 0.456677 0
M  V30 1297 C 124.402 -3.2103 1.26624 0
M  V30 1298 C 123.515 -3.51923 2.50548 0
M  V30 1299 C 122.65 -4.79079 2.29471 0
M  V30 1300 C 121.689 -5.02863 3.48992 0
M  V30 1301 N 120.826 -6.2123 3.27135 0
M  V30 1302 H 125.666 -1.82733 2.35399 0
M  V30 1303 H 123.203 -0.892688 1.16917 0
M  V30 1304 H 125.161 -4.00524 1.16776 0
M  V30 1305 H 123.791 -3.20895 0.350176 0
M  V30 1306 H 122.843 -2.67014 2.70939 0
M  V30 1307 H 124.155 -3.6541 3.39525 0
M  V30 1308 H 123.309 -5.66582 2.16955 0
M  V30 1309 H 122.048 -4.67794 1.37913 0
M  V30 1310 H 121.053 -4.13816 3.6199 0
M  V30 1311 H 122.278 -5.16023 4.41472 0
M  V30 1312 H 120.224 -6.11204 2.38256 0
M  V30 1313 H 120.141 -6.35375 4.09675 0
M  V30 1314 H 121.409 -7.11532 3.18344 0
M  V30 1315 N 125.638 -1.25649 -0.95132 0
M  V30 1316 C 126.601 -1.06399 -2.03007 0
M  V30 1317 C 127.601 -0.0156794 -1.60792 0
M  V30 1318 O 128.791 -0.25817 -1.72276 0
M  V30 1319 C 125.923 -0.616184 -3.35285 0
M  V30 1320 H 127.116 -2.02164 -2.21517 0
M  V30 1321 H 124.669 -1.08103 -1.12887 0
M  V30 1322 H 125.404 0.343917 -3.22471 0
M  V30 1323 H 125.189 -1.37301 -3.67275 0
M  V30 1324 H 126.679 -0.503032 -4.14559 0
M  V30 1325 N 127.117 1.15442 -1.07289 0
M  V30 1326 C 128.067 2.18164 -0.662467 0
M  V30 1327 C 129.051 1.57845 0.312074 0
M  V30 1328 O 130.243 1.76552 0.125905 0
M  V30 1329 C 127.372 3.43246 -0.0611295 0
M  V30 1330 C 126.458 4.1062 -1.06077 0
M  V30 1331 N 126.849 4.53491 -2.24008 0
M  V30 1332 C 125.147 4.36949 -0.893964 0
M  V30 1333 C 125.848 5.05731 -2.87422 0
M  V30 1334 N 124.824 4.99236 -2.15091 0
M  V30 1335 H 128.626 2.49038 -1.56068 0
M  V30 1336 H 126.14 1.32003 -0.945988 0
M  V30 1337 H 128.137 4.16145 0.250792 0
M  V30 1338 H 126.797 3.13854 0.832207 0
M  V30 1339 H 127.808 4.46898 -2.6173 0
M  V30 1340 H 124.485 4.17466 -0.0534693 0
M  V30 1341 H 125.875 5.48865 -3.87553 0
M  V30 1342 N 128.595 0.856903 1.32268 0
M  V30 1343 C 129.872 0.382583 1.91822 0
M  V30 1344 C 130.252 -1.13407 1.78051 0
M  V30 1345 O 129.6 -1.95673 1.18001 0
M  V30 1346 C 129.81 0.849446 3.38505 0
M  V30 1347 C 131.158 0.867936 4.15634 0
M  V30 1348 O 132.182 0.794232 3.47232 0
M  V30 1349 O 131.041 0.972286 5.37781 0
M  V30 1350 H 128.135 0.112014 0.819379 0
M  V30 1351 H 130.681 0.943952 1.41024 0
M  V30 1352 H 129.453 1.89267 3.42482 0
M  V30 1353 H 129.076 0.265652 3.96712 0
M  V30 1354 N 130.073 -1.45103 0.615059 0
M  V30 1355 C 131.319 -2.02483 0.113347 0
M  V30 1356 C 131.652 -1.48146 -1.25564 0
M  V30 1357 O 130.927 -0.659104 -1.82992 0
M  V30 1358 C 131.21 -3.60005 0.0825278 0
M  V30 1359 C 131.063 -4.2466 1.48271 0
M  V30 1360 C 132.382 -4.35972 -0.601401 0
M  V30 1361 H 129.501 -0.735764 0.0426632 0
M  V30 1362 H 132.143 -1.72868 0.788461 0
M  V30 1363 H 130.293 -3.85367 -0.492378 0
M  V30 1364 H 131.965 -4.10458 2.10527 0
M  V30 1365 H 130.208 -3.82772 2.04127 0
M  V30 1366 H 130.879 -5.336 1.41332 0
M  V30 1367 H 133.355 -4.15947 -0.112666 0
M  V30 1368 H 132.231 -5.45697 -0.592097 0
M  V30 1369 H 132.492 -4.09391 -1.66887 0
M  V30 1370 N 131.551 -0.354651 -1.53558 0
M  V30 1371 C 132.8 0.239504 -2.00273 0
M  V30 1372 C 133.113 1.50759 -1.24623 0
M  V30 1373 O 134.319 2.17968 -1.61871 0
M  V30 1374 C 132.775 0.477341 -3.5672 0
M  V30 1375 C 132.383 -0.775488 -4.41237 0
M  V30 1376 C 134.127 1.02975 -4.11821 0
M  V30 1377 C 132.034 -0.507838 -5.89216 0
M  V30 1378 H 130.964 0.0932743 -0.748208 0
M  V30 1379 H 133.615 -0.471701 -1.77334 0
M  V30 1380 H 131.997 1.24953 -3.7577 0
M  V30 1381 H 133.171 -1.54963 -4.33962 0
M  V30 1382 H 131.486 -1.25033 -3.97185 0
M  V30 1383 H 134.083 1.24513 -5.2 0
M  V30 1384 H 134.426 1.98862 -3.65731 0
M  V30 1385 H 134.959 0.317994 -3.96527 0
M  V30 1386 H 131.698 -1.43674 -6.39561 0
M  V30 1387 H 131.218 0.228011 -5.99366 0
M  V30 1388 H 132.897 -0.129238 -6.46871 0
M  V30 1389 N 133.029 1.57378 -0.0835403 0
M  V30 1390 C 134.275 1.94217 0.583733 0
M  V30 1391 C 134.608 0.964653 1.68547 0
M  V30 1392 O 133.883 -0.00422258 1.945 0
M  V30 1393 C 134.166 3.41253 1.14972 0
M  V30 1394 C 134.019 4.49768 0.0538277 0
M  V30 1395 C 135.338 3.89352 2.05166 0
M  V30 1396 H 132.457 0.706233 0.210724 0
M  V30 1397 H 135.099 1.89392 -0.1519 0
M  V30 1398 H 133.249 3.45496 1.77665 0
M  V30 1399 H 134.921 4.57641 -0.579851 0
M  V30 1400 H 133.164 4.29432 -0.614068 0
M  V30 1401 H 133.835 5.49817 0.490452 0
M  V30 1402 H 136.311 3.87189 1.52393 0
M  V30 1403 H 135.187 4.92822 2.41698 0
M  V30 1404 H 135.448 3.27973 2.96456 0
M  V30 1405 N 134.507 -0.190092 1.56449 0
M  V30 1406 C 135.756 -0.907912 1.80111 0
M  V30 1407 C 136.069 -1.84214 0.657619 0
M  V30 1408 O 137.275 -2.60094 0.778663 0
M  V30 1409 C 135.731 -1.66485 3.19078 0
M  V30 1410 C 135.339 -0.7752 4.41242 0
M  V30 1411 C 137.083 -2.37201 3.52045 0
M  V30 1412 C 134.99 -1.53129 5.71231 0
M  V30 1413 H 133.92 -0.34276 0.671589 0
M  V30 1414 H 136.571 -0.161109 1.82791 0
M  V30 1415 H 134.953 -2.45572 3.10661 0
M  V30 1416 H 136.127 -0.0226298 4.60794 0
M  V30 1417 H 134.442 -0.178627 4.16017 0
M  V30 1418 H 137.039 -2.94329 4.46402 0
M  V30 1419 H 137.382 -3.11632 2.76028 0
M  V30 1420 H 137.915 -1.65075 3.61932 0
M  V30 1421 H 134.654 -0.82967 6.50228 0
M  V30 1422 H 134.174 -2.25767 5.55688 0
M  V30 1423 H 135.853 -2.08377 6.12526 0
M  V30 1424 N 135.985 -1.50799 -0.457987 0
M  V30 1425 C 136.948 -1.7005 -1.53674 0
M  V30 1426 C 137.948 -0.570881 -1.50325 0
M  V30 1427 O 139.138 -0.838126 -1.52712 0
M  V30 1428 C 136.27 -1.73788 -2.93276 0
M  V30 1429 H 137.463 -2.66306 -1.37917 0
M  V30 1430 H 135.016 -1.40477 -0.685271 0
M  V30 1431 H 135.751 -0.792717 -3.14462 0
M  V30 1432 H 135.536 -2.55864 -2.97113 0
M  V30 1433 H 137.026 -1.90591 -3.71571 0
M  V30 1434 N 137.463 0.71206 -1.40597 0
M  V30 1435 C 138.426 1.80785 -1.40888 0
M  V30 1436 C 139.426 1.57937 -0.302103 0
M  V30 1437 O 140.616 1.64913 -0.561182 0
M  V30 1438 C 137.748 3.18927 -1.20409 0
M  V30 1439 H 138.941 1.81924 -2.38419 0
M  V30 1440 H 136.494 0.91805 -1.26497 0
M  V30 1441 H 137.229 3.23436 -0.236522 0
M  V30 1442 H 137.014 3.36911 -2.00582 0
M  V30 1443 H 138.504 3.98949 -1.23408 0
M  V30 1444 N 138.941 1.26152 0.944643 0
M  V30 1445 C 140.352 1.10454 1.50522 0
M  V30 1446 C 140.703 -0.31635 1.93633 0
M  V30 1447 O 139.828 -1.20746 1.79581 0
M  V30 1448 C 140.423 1.99891 2.73549 0
M  V30 1449 C 138.982 1.88348 3.25886 0
M  V30 1450 C 138.129 1.93447 1.9868 0
M  V30 1451 H 141.08 1.39292 0.760489 0
M  V30 1452 H 141.101 1.54477 3.47732 0
M  V30 1453 H 140.613 3.03297 2.42141 0
M  V30 1454 H 138.714 0.878636 3.62092 0
M  V30 1455 H 138.827 2.73696 3.93227 0
M  V30 1456 H 137.191 1.37456 2.14425 0
M  V30 1457 H 137.974 2.98476 1.69607 0
M  V30 1458 N 140.419 -1.14872 1.07899 0
M  V30 1459 C 141.352 -2.18794 0.64841 0
M  V30 1460 C 142.33 -1.59065 -0.337189 0
M  V30 1461 O 143.514 -1.86936 -0.242284 0
M  V30 1462 C 140.641 -3.38667 -0.0470417 0
M  V30 1463 C 139.687 -4.16942 0.897884 0
M  V30 1464 S 140.52 -4.78615 2.40183 0
M  V30 1465 C 141.676 -6.0185 1.71834 0
M  V30 1466 H 141.909 -2.5498 1.52881 0
M  V30 1467 H 139.442 -1.25922 0.893484 0
M  V30 1468 H 141.4 -4.08113 -0.442027 0
M  V30 1469 H 140.061 -3.00814 -0.903861 0
M  V30 1470 H 139.254 -5.02726 0.358096 0
M  V30 1471 H 138.856 -3.53073 1.23352 0
M  V30 1472 H 141.148 -6.69574 1.03328 0
M  V30 1473 H 142.091 -6.60408 2.55473 0
M  V30 1474 H 142.499 -5.5173 1.19392 0
M  V30 1475 N 141.898 -0.863906 -1.31812 0
M  V30 1476 C 143.128 -0.485406 -2.00817 0
M  V30 1477 C 143.536 0.925007 -1.65046 0
M  V30 1478 O 142.879 1.61653 -0.872574 0
M  V30 1479 C 142.941 -0.555589 -3.55181 0
M  V30 1480 C 142.605 -1.92654 -4.14407 0
M  V30 1481 C 143.602 -2.89324 -4.31958 0
M  V30 1482 C 141.287 -2.2262 -4.50273 0
M  V30 1483 C 143.281 -4.14108 -4.84555 0
M  V30 1484 C 140.968 -3.47654 -5.02573 0
M  V30 1485 C 141.966 -4.43214 -5.19664 0
M  V30 1486 O 141.654 -5.66033 -5.70843 0
M  V30 1487 H 141.386 -0.188224 -0.649267 0
M  V30 1488 H 143.94 -1.16514 -1.69156 0
M  V30 1489 H 142.17 0.181037 -3.86276 0
M  V30 1490 H 143.859 -0.19138 -4.05449 0
M  V30 1491 H 144.625 -2.6748 -4.04573 0
M  V30 1492 H 140.504 -1.4902 -4.3625 0
M  V30 1493 H 144.048 -4.88703 -4.9781 0
M  V30 1494 H 139.945 -3.69345 -5.29391 0
M  V30 1495 H 140.713 -5.6812 -5.89222 0
M  V30 1496 N 143.376 1.44774 -0.622745 0
M  V30 1497 C 144.324 2.32387 0.0994683 0
M  V30 1498 C 145.318 1.46859 0.844326 0
M  V30 1499 O 146.524 1.63254 0.758174 0
M  V30 1500 H 142.899 0.750273 0.0509291 0
M  V30 1501 H 144.87 2.91062 -0.65767 0
M  V30 1502 C 143.619 3.30723 1.07319 0
M  V30 1503 H 142.942 3.96541 0.509462 0
M  V30 1504 H 144.382 3.94725 1.54817 0
M  V30 1505 C 142.841 2.59021 2.15429 0
M  V30 1506 O 143.371 2.38286 3.23393 0
M  V30 1507 N 141.577 2.189 1.91131 0
M  V30 1508 H 141.124 2.35964 1.03337 0
M  V30 1509 H 141.082 1.71251 2.63668 0
M  V30 1510 N 144.854 0.36279 1.53368 0
M  V30 1511 C 146.101 -0.227776 2.01215 0
M  V30 1512 C 146.429 -1.49003 1.25014 0
M  V30 1513 O 145.684 -1.92876 0.331236 0
M  V30 1514 C 145.983 -0.568417 3.52851 0
M  V30 1515 C 145.649 0.59918 4.46901 0
M  V30 1516 C 144.311 0.919559 4.72332 0
M  V30 1517 C 146.663 1.38156 5.02556 0
M  V30 1518 C 143.991 2.02434 5.5067 0
M  V30 1519 C 146.343 2.47674 5.821 0
M  V30 1520 C 145.007 2.8025 6.05819 0
M  V30 1521 H 144.277 -0.083349 0.736297 0
M  V30 1522 H 146.924 0.494677 1.85001 0
M  V30 1523 H 145.229 -1.37185 3.66998 0
M  V30 1524 H 146.926 -1.03756 3.87344 0
M  V30 1525 H 143.516 0.339437 4.27254 0
M  V30 1526 H 147.7 1.14729 4.82857 0
M  V30 1527 H 142.956 2.28075 5.67267 0
M  V30 1528 H 147.13 3.08716 6.24234 0
M  V30 1529 H 144.757 3.65979 6.66306 0
M  V30 1530 N 146.332 -1.57332 0.0918853 0
M  V30 1531 C 147.28 -2.15075 -0.885747 0
M  V30 1532 C 148.274 -1.09277 -1.29441 0
M  V30 1533 O 149.48 -1.27627 -1.26931 0
M  V30 1534 H 145.855 -0.687966 -0.303656 0
M  V30 1535 H 147.826 -2.96047 -0.373995 0
M  V30 1536 C 146.575 -2.74325 -2.13638 0
M  V30 1537 H 145.898 -3.55418 -1.8308 0
M  V30 1538 H 147.338 -3.183 -2.80109 0
M  V30 1539 C 145.797 -1.70062 -2.90827 0
M  V30 1540 O 146.327 -1.13763 -3.85254 0
M  V30 1541 N 144.533 -1.40628 -2.54307 0
M  V30 1542 H 144.08 -1.866 -1.7759 0
M  V30 1543 H 144.038 -0.711043 -3.06254 0
M  V30 1544 N 147.81 0.181792 -1.56548 0
M  V30 1545 C 149.059 0.898348 -1.8059 0
M  V30 1546 C 149.372 1.83862 -0.667379 0
M  V30 1547 O 150.578 2.59678 -0.792446 0
M  V30 1548 C 149.034 1.64791 -3.19956 0
M  V30 1549 C 148.642 0.751789 -4.41647 0
M  V30 1550 C 150.386 2.35331 -3.53298 0
M  V30 1551 C 148.293 1.50098 -5.72035 0
M  V30 1552 H 147.223 0.339194 -0.673397 0
M  V30 1553 H 149.874 0.151413 -1.82874 0
M  V30 1554 H 148.256 2.43921 -3.11959 0
M  V30 1555 H 149.43 -0.0018076 -4.608 0
M  V30 1556 H 147.745 0.156562 -4.16106 0
M  V30 1557 H 150.342 2.91958 -4.47956 0
M  V30 1558 H 150.685 3.10164 -2.77676 0
M  V30 1559 H 151.218 1.63154 -3.62803 0
M  V30 1560 H 147.957 0.795175 -6.50659 0
M  V30 1561 H 147.477 2.22817 -5.56878 0
M  V30 1562 H 149.156 2.05125 -6.13622 0
M  V30 1563 N 149.288 1.51039 0.449983 0
M  V30 1564 C 150.699 1.557 1.03026 0
M  V30 1565 C 151.05 0.372939 1.92623 0
M  V30 1566 O 150.175 -0.511771 2.10261 0
M  V30 1567 C 150.77 2.82171 1.87523 0
M  V30 1568 C 149.329 2.89444 2.40622 0
M  V30 1569 C 148.476 2.50228 1.19504 0
M  V30 1570 H 151.427 1.56999 0.231745 0
M  V30 1571 H 151.448 2.65219 2.72835 0
M  V30 1572 H 150.96 3.68331 1.22286 0
M  V30 1573 H 149.061 2.07685 3.0935 0
M  V30 1574 H 149.174 3.92816 2.74285 0
M  V30 1575 H 147.538 2.03139 1.53644 0
M  V30 1576 H 148.321 3.38719 0.558972 0
M  V30 1577 N 150.766 -0.704594 1.40972 0
M  V30 1578 C 151.994 -1.49354 1.43182 0
M  V30 1579 C 152.409 -1.88768 0.0345508 0
M  V30 1580 O 151.766 -1.56184 -0.944081 0
M  V30 1581 C 151.817 -2.76187 2.33244 0
M  V30 1582 O 151.538 -2.38436 3.67532 0
M  V30 1583 C 153.039 -3.7 2.44162 0
M  V30 1584 H 150.259 -0.460559 0.487982 0
M  V30 1585 H 152.803 -0.868261 1.85153 0
M  V30 1586 H 150.958 -3.34974 1.94606 0
M  V30 1587 H 151.372 -3.20126 4.15475 0
M  V30 1588 H 152.846 -4.55803 3.11364 0
M  V30 1589 H 153.323 -4.13867 1.47006 0
M  V30 1590 H 153.929 -3.17121 2.83398 0
M  V30 1591 N 152.244 -1.26651 -0.937939 0
M  V30 1592 C 153.176 -1.04283 -2.04102 0
M  V30 1593 C 154.189 -0.00221014 -1.628 0
M  V30 1594 O 155.378 -0.242645 -1.76843 0
M  V30 1595 C 152.478 -0.557846 -3.34277 0
M  V30 1596 C 151.651 -1.66843 -4.04329 0
M  V30 1597 C 150.71 -1.18095 -5.12777 0
M  V30 1598 O 149.736 -1.87865 -5.37304 0
M  V30 1599 N 150.938 -0.0311006 -5.80492 0
M  V30 1600 H 153.703 -1.9927 -2.23856 0
M  V30 1601 H 151.264 -1.1808 -1.10764 0
M  V30 1602 H 153.256 -0.215836 -4.04124 0
M  V30 1603 H 151.826 0.298523 -3.11171 0
M  V30 1604 H 151.046 -2.18123 -3.28353 0
M  V30 1605 H 152.334 -2.41408 -4.47883 0
M  V30 1606 H 151.732 0.551486 -5.63005 0
M  V30 1607 H 150.289 0.251809 -6.51313 0
M  V30 1608 N 153.722 1.14298 -1.08507 0
M  V30 1609 C 154.652 2.21542 -0.737646 0
M  V30 1610 C 155.633 1.67773 0.280377 0
M  V30 1611 O 156.818 1.93616 0.150521 0
M  V30 1612 C 153.948 3.46988 -0.147259 0
M  V30 1613 C 152.902 4.13789 -1.09374 0
M  V30 1614 C 152.228 5.33449 -0.365524 0
M  V30 1615 C 153.528 4.62208 -2.4323 0
M  V30 1616 H 155.222 2.5086 -1.6343 0
M  V30 1617 H 152.768 1.20576 -0.787243 0
M  V30 1618 H 154.721 4.21262 0.107808 0
M  V30 1619 H 153.445 3.17037 0.784538 0
M  V30 1620 H 152.104 3.4147 -1.33393 0
M  V30 1621 H 151.752 4.99759 0.57011 0
M  V30 1622 H 151.452 5.79088 -0.996512 0
M  V30 1623 H 152.976 6.10485 -0.118534 0
M  V30 1624 H 154.39 5.27952 -2.23472 0
M  V30 1625 H 152.787 5.18553 -3.02031 0
M  V30 1626 H 153.857 3.77224 -3.04681 0
M  V30 1627 N 155.201 0.870884 1.31352 0
M  V30 1628 C 156.148 0.325425 2.28494 0
M  V30 1629 C 157.118 -0.576615 1.5577 0
M  V30 1630 O 158.303 -0.508059 1.83911 0
M  V30 1631 C 155.443 -0.466283 3.41935 0
M  V30 1632 C 154.556 0.463378 4.29508 0
M  V30 1633 C 153.691 -0.342544 5.30094 0
M  V30 1634 C 152.73 0.583486 6.09313 0
M  V30 1635 N 151.867 -0.186244 7.01853 0
M  V30 1636 H 156.707 1.15901 2.74538 0
M  V30 1637 H 154.244 0.58294 1.35056 0
M  V30 1638 H 156.202 -0.941085 4.06447 0
M  V30 1639 H 154.832 -1.26456 2.97 0
M  V30 1640 H 153.884 1.05663 3.65431 0
M  V30 1641 H 155.196 1.1734 4.84802 0
M  V30 1642 H 154.35 -0.879816 6.00287 0
M  V30 1643 H 153.089 -1.08585 4.75458 0
M  V30 1644 H 152.094 1.13251 5.3801 0
M  V30 1645 H 153.319 1.32566 6.66035 0
M  V30 1646 H 151.265 -0.912348 6.49625 0
M  V30 1647 H 151.182 0.464422 7.54572 0
M  V30 1648 H 152.45 -0.704716 7.76308 0
M  V30 1649 N 156.679 -1.44442 0.630414 0
M  V30 1650 C 157.627 -2.32437 -0.0871428 0
M  V30 1651 C 158.621 -1.47304 -0.836525 0
M  V30 1652 O 159.827 -1.63653 -0.749506 0
M  V30 1653 H 156.202 -0.750533 -0.0469495 0
M  V30 1654 H 158.173 -2.90709 0.673096 0
M  V30 1655 C 156.922 -3.31288 -1.05563 0
M  V30 1656 H 156.245 -3.96805 -0.488426 0
M  V30 1657 H 157.685 -3.9554 -1.52721 0
M  V30 1658 C 156.144 -2.6016 -2.14052 0
M  V30 1659 O 156.674 -2.39997 -3.22124 0
M  V30 1660 N 154.88 -2.19911 -1.89967 0
M  V30 1661 H 154.427 -2.36509 -1.02085 0
M  V30 1662 H 154.385 -1.72646 -2.62756 0
M  V30 1663 N 158.157 -0.370918 -1.53173 0
M  V30 1664 C 159.387 0.217389 -2.05453 0
M  V30 1665 C 159.795 1.42568 -1.24382 0
M  V30 1666 O 159.138 1.81571 -0.278839 0
M  V30 1667 C 159.2 0.669827 -3.53205 0
M  V30 1668 C 158.864 -0.4225 -4.55043 0
M  V30 1669 C 159.861 -1.27407 -5.04047 0
M  V30 1670 C 157.546 -0.58427 -4.9889 0
M  V30 1671 C 159.54 -2.27271 -5.95505 0
M  V30 1672 C 157.227 -1.58627 -5.90153 0
M  V30 1673 C 158.225 -2.42892 -6.38351 0
M  V30 1674 O 157.913 -3.41382 -7.27814 0
M  V30 1675 H 157.645 0.0408171 -0.674767 0
M  V30 1676 H 160.199 -0.5292 -1.98466 0
M  V30 1677 H 158.429 1.4681 -3.57748 0
M  V30 1678 H 160.118 1.18173 -3.88317 0
M  V30 1679 H 160.884 -1.16031 -4.70916 0
M  V30 1680 H 156.763 0.061851 -4.60959 0
M  V30 1681 H 160.307 -2.93079 -6.33049 0
M  V30 1682 H 156.204 -1.70048 -6.22699 0
M  V30 1683 H 156.972 -3.37173 -7.45826 0
M  V30 1684 N 159.635 1.57281 -0.100228 0
M  V30 1685 C 160.882 1.94537 0.562268 0
M  V30 1686 C 161.21 0.982315 1.67871 0
M  V30 1687 O 160.465 0.00280936 1.957 0
M  V30 1688 C 160.764 3.38305 1.15259 0
M  V30 1689 C 160.43 4.50618 0.159409 0
M  V30 1690 C 159.092 4.81066 -0.113741 0
M  V30 1691 C 161.444 5.18615 -0.518461 0
M  V30 1692 C 158.772 5.76835 -1.07137 0
M  V30 1693 C 161.124 6.15412 -1.46459 0
M  V30 1694 C 159.788 6.44262 -1.74592 0
M  V30 1695 H 159.058 0.711863 0.205748 0
M  V30 1696 H 161.705 1.90679 -0.17715 0
M  V30 1697 H 160.01 3.38766 1.96836 0
M  V30 1698 H 161.707 3.64435 1.67297 0
M  V30 1699 H 158.297 4.2689 0.382491 0
M  V30 1700 H 162.481 4.95264 -0.320581 0
M  V30 1701 H 157.737 5.975 -1.29628 0
M  V30 1702 H 161.911 6.67194 -1.99564 0
M  V30 1703 H 159.538 7.1828 -2.48953 0
M  V30 1704 N 161.113 -0.173488 1.56642 0
M  V30 1705 C 162.39 -0.917617 1.7274 0
M  V30 1706 C 162.77 -2.00484 0.661027 0
M  V30 1707 O 162.118 -2.26184 -0.32453 0
M  V30 1708 C 162.328 -1.48433 3.15862 0
M  V30 1709 C 163.676 -1.95809 3.76754 0
M  V30 1710 O 164.7 -1.58231 3.19126 0
M  V30 1711 O 163.559 -2.65024 4.77938 0
M  V30 1712 H 160.653 -0.431772 0.705338 0
M  V30 1713 H 163.199 -0.161487 1.6893 0
M  V30 1714 H 161.971 -0.701715 3.84957 0
M  V30 1715 H 161.594 -2.30471 3.23989 0
M  V30 1716 N 162.591 -1.51276 -0.441967 0
M  V30 1717 C 163.521 -1.752 -1.54361 0
M  V30 1718 C 164.502 -0.601682 -1.59103 0
M  V30 1719 O 165.687 -0.843913 -1.74905 0
M  V30 1720 C 162.817 -1.87282 -2.92477 0
M  V30 1721 C 161.771 -3.02687 -3.02596 0
M  V30 1722 C 161.097 -2.99947 -4.42647 0
M  V30 1723 C 162.397 -4.4273 -2.77106 0
M  V30 1724 H 164.091 -2.67442 -1.34592 0
M  V30 1725 H 161.637 -1.28694 -0.646048 0
M  V30 1726 H 163.59 -2.02602 -3.695 0
M  V30 1727 H 162.314 -0.916844 -3.13467 0
M  V30 1728 H 160.973 -2.87065 -2.28012 0
M  V30 1729 H 160.621 -2.02136 -4.60597 0
M  V30 1730 H 160.321 -3.77439 -4.50348 0
M  V30 1731 H 161.845 -3.17354 -5.2165 0
M  V30 1732 H 163.259 -4.58727 -3.43864 0
M  V30 1733 H 161.656 -5.21893 -2.96222 0
M  V30 1734 H 162.726 -4.53087 -1.72744 0
M  V30 1735 N 164.069 0.697108 -1.41344 0
M  V30 1736 C 165.318 1.45279 -1.39918 0
M  V30 1737 C 165.631 1.95597 -0.0109624 0
M  V30 1738 O 166.837 2.71208 0.125919 0
M  V30 1739 C 165.293 2.62695 -2.46007 0
M  V30 1740 C 164.901 2.19169 -3.90729 0
M  V30 1741 C 166.645 3.40336 -2.53715 0
M  V30 1742 C 164.552 3.33535 -4.88373 0
M  V30 1743 H 163.482 0.545692 -0.520323 0
M  V30 1744 H 166.133 0.756929 -1.67161 0
M  V30 1745 H 164.515 3.34541 -2.11892 0
M  V30 1746 H 165.689 1.54623 -4.34083 0
M  V30 1747 H 164.004 1.54525 -3.86666 0
M  V30 1748 H 166.601 4.2547 -3.2385 0
M  V30 1749 H 166.944 3.85418 -1.5735 0
M  V30 1750 H 167.477 2.75546 -2.86913 0
M  V30 1751 H 164.216 2.93468 -5.86137 0
M  V30 1752 H 163.736 3.96936 -4.49668 0
M  V30 1753 H 165.415 3.99335 -5.09059 0
M  V30 1754 N 165.547 1.27147 0.931209 0
M  V30 1755 C 166.51 1.09615 2.01289 0
M  V30 1756 C 167.51 0.0412581 1.60747 0
M  V30 1757 O 168.7 0.285545 1.71844 0
M  V30 1758 C 165.832 0.669447 3.34262 0
M  V30 1759 H 167.025 2.05662 2.18273 0
M  V30 1760 H 164.578 1.09885 1.11153 0
M  V30 1761 H 165.313 -0.292572 3.22978 0
M  V30 1762 H 165.098 1.43127 3.65044 0
M  V30 1763 H 166.588 0.568921 4.13706 0
M  V30 1764 N 167.025 -1.13721 1.09112 0
M  V30 1765 C 168.441 -1.36914 0.820174 0
M  V30 1766 C 168.641 -1.93356 -0.567079 0
M  V30 1767 O 167.697 -2.15093 -1.32255 0
M  V30 1768 C 169.01 -2.3235 1.90877 0
M  V30 1769 C 170.558 -2.45973 1.93562 0
M  V30 1770 C 171.033 -3.44714 3.01556 0
M  V30 1771 N 172.524 -3.52263 3.00775 0
M  V30 1772 C 173.259 -4.28536 3.80978 0
M  V30 1773 N 172.755 -5.07991 4.71081 0
M  V30 1774 N 174.548 -4.23804 3.69251 0
M  V30 1775 H 166.699 -0.754348 1.98553 0
M  V30 1776 H 168.962 -0.3944 0.862063 0
M  V30 1777 H 168.668 -1.98027 2.90651 0
M  V30 1778 H 168.542 -3.32332 1.78424 0
M  V30 1779 H 170.929 -2.79584 0.944286 0
M  V30 1780 H 171.01 -1.45926 2.10093 0
M  V30 1781 H 170.654 -3.11835 4.00901 0
M  V30 1782 H 170.584 -4.44558 2.82269 0
M  V30 1783 H 173.075 -2.95567 2.35475 0
M  V30 1784 H 173.388 -5.63487 5.28869 0
M  V30 1785 H 171.733 -5.07235 4.75119 0
M  V30 1786 H 174.924 -3.60806 2.98222 0
M  V30 1787 H 175.097 -4.82995 4.31995 0
M  V30 1788 N 168.503 -0.877838 -1.30888 0
M  V30 1789 C 169.466 -0.344265 -2.266 0
M  V30 1790 C 170.466 0.50922 -1.52524 0
M  V30 1791 O 171.656 0.317398 -1.71284 0
M  V30 1792 C 168.788 0.510198 -3.37061 0
M  V30 1793 H 169.981 -1.1893 -2.7531 0
M  V30 1794 H 167.534 -0.654088 -1.41956 0
M  V30 1795 H 168.269 1.37612 -2.93655 0
M  V30 1796 H 168.054 -0.101047 -3.9197 0
M  V30 1797 H 169.544 0.875537 -4.08319 0
M  V30 1798 N 169.982 1.44106 -0.638065 0
M  V30 1799 C 171.23 2.01579 -0.145043 0
M  V30 1800 C 171.551 1.50496 1.24 0
M  V30 1801 O 170.821 0.711374 1.82527 0
M  V30 1802 H 169.401 0.745282 -0.05063 0
M  V30 1803 H 172.063 1.76516 -0.826327 0
M  V30 1804 H 171.159 3.11877 -0.118039 0
M  V30 1805 N 171.46 0.379036 1.52974 0
M  V30 1806 C 172.709 -0.207612 2.00629 0
M  V30 1807 C 173.022 -1.48758 1.27006 0
M  V30 1808 O 174.228 -2.15365 1.65318 0
M  V30 1809 C 172.684 -0.42053 3.57435 0
M  V30 1810 C 172.292 0.845587 4.39948 0
M  V30 1811 C 174.036 -0.964102 4.13407 0
M  V30 1812 C 171.943 0.601513 5.88333 0
M  V30 1813 H 170.873 -0.0813591 0.749598 0
M  V30 1814 H 173.524 0.499853 1.76561 0
M  V30 1815 H 171.906 -1.18959 3.7771 0
M  V30 1816 H 173.08 1.61848 4.31442 0
M  V30 1817 H 171.395 1.31336 3.95145 0
M  V30 1818 H 173.992 -1.16225 5.21916 0
M  V30 1819 H 174.335 -1.93019 3.68849 0
M  V30 1820 H 174.868 -0.25487 3.96983 0
M  V30 1821 H 171.607 1.53831 6.37194 0
M  V30 1822 H 171.127 -0.132628 5.99653 0
M  V30 1823 H 172.806 0.232134 6.46583 0
M  V30 1824 N 172.938 -1.57226 0.108567 0
M  V30 1825 C 174.166 -1.99179 -0.559954 0
M  V30 1826 C 174.581 -0.988022 -1.60884 0
M  V30 1827 O 173.938 0.0205512 -1.82488 0
M  V30 1828 C 173.989 -3.41159 -1.19552 0
M  V30 1829 O 173.71 -4.37694 -0.188577 0
M  V30 1830 C 175.211 -3.98188 -1.94837 0
M  V30 1831 H 172.431 -0.654228 -0.149088 0
M  V30 1832 H 174.975 -2.03598 0.19183 0
M  V30 1833 H 173.13 -3.37711 -1.89815 0
M  V30 1834 H 173.544 -5.20469 -0.649014 0
M  V30 1835 H 175.018 -4.99644 -2.34648 0
M  V30 1836 H 175.495 -3.3675 -2.81951 0
M  V30 1837 H 176.101 -4.0515 -1.2936 0
M  V30 1838 N 174.416 0.165178 -1.56732 0
M  V30 1839 C 175.663 0.880807 -1.8234 0
M  V30 1840 C 175.991 1.81977 -0.686621 0
M  V30 1841 O 175.246 1.92971 0.325697 0
M  V30 1842 C 175.545 1.70405 -3.1416 0
M  V30 1843 C 175.211 0.913475 -4.4155 0
M  V30 1844 C 173.873 0.695303 -4.7615 0
M  V30 1845 C 176.225 0.359349 -5.1996 0
M  V30 1846 C 173.553 -0.0879947 -5.86634 0
M  V30 1847 C 175.905 -0.410893 -6.31264 0
M  V30 1848 C 174.569 -0.639808 -6.64427 0
M  V30 1849 H 173.839 0.32231 -0.667231 0
M  V30 1850 H 176.486 0.145402 -1.90947 0
M  V30 1851 H 174.791 2.50903 -3.00923 0
M  V30 1852 H 176.488 2.26091 -3.31186 0
M  V30 1853 H 173.078 1.09357 -4.14414 0
M  V30 1854 H 177.262 0.515228 -4.93618 0
M  V30 1855 H 172.518 -0.27503 -6.10781 0
M  V30 1856 H 176.692 -0.847494 -6.91224 0
M  V30 1857 H 174.319 -1.24864 -7.49875 0
M  V30 1858 N 175.894 1.51508 0.433938 0
M  V30 1859 C 177.31 1.39759 0.770682 0
M  V30 1860 C 177.51 0.482594 1.95636 0
M  V30 1861 O 176.566 -0.0609691 2.52426 0
M  V30 1862 C 177.879 2.81851 1.04787 0
M  V30 1863 C 179.427 2.91025 1.1521 0
M  V30 1864 C 179.902 4.34032 1.46219 0
M  V30 1865 N 181.393 4.37154 1.53136 0
M  V30 1866 C 182.128 5.4484 1.78709 0
M  V30 1867 N 181.624 6.62682 2.02051 0
M  V30 1868 N 183.417 5.32324 1.80519 0
M  V30 1869 H 175.568 2.09548 -0.346892 0
M  V30 1870 H 177.831 0.943446 -0.0928074 0
M  V30 1871 H 177.537 3.50815 0.249304 0
M  V30 1872 H 177.411 3.21386 1.97461 0
M  V30 1873 H 179.798 2.22257 1.94128 0
M  V30 1874 H 179.879 2.54983 0.204281 0
M  V30 1875 H 179.523 5.03351 0.678274 0
M  V30 1876 H 179.453 4.6759 2.42212 0
M  V30 1877 H 181.944 3.52197 1.36987 0
M  V30 1878 H 182.257 7.40543 2.20943 0
M  V30 1879 H 180.602 6.65791 1.99366 0
M  V30 1880 H 183.793 4.39246 1.61805 0
M  V30 1881 H 183.966 6.16328 2.00111 0
M  V30 1882 N 177.372 -0.689602 1.41712 0
M  V30 1883 C 178.602 -1.47613 1.44548 0
M  V30 1884 C 179.01 -1.89132 0.0509034 0
M  V30 1885 O 178.353 -1.57741 -0.94146 0
M  V30 1886 C 178.415 -2.76596 2.2964 0
M  V30 1887 C 178.079 -2.57245 3.77722 0
M  V30 1888 C 179.076 -2.22804 4.69739 0
M  V30 1889 C 176.761 -2.727 4.2183 0
M  V30 1890 C 178.755 -2.04064 6.03851 0
M  V30 1891 C 176.442 -2.53576 5.56006 0
M  V30 1892 C 177.44 -2.1931 6.46832 0
M  V30 1893 O 177.128 -2.00359 7.78532 0
M  V30 1894 H 176.86 -0.461227 0.494212 0
M  V30 1895 H 179.414 -0.856045 1.86711 0
M  V30 1896 H 177.644 -3.41033 1.82301 0
M  V30 1897 H 179.333 -3.38424 2.24107 0
M  V30 1898 H 180.099 -2.10473 4.36951 0
M  V30 1899 H 175.978 -2.98353 3.51435 0
M  V30 1900 H 179.522 -1.77241 6.74708 0
M  V30 1901 H 175.419 -2.65499 5.88371 0
M  V30 1902 H 176.187 -2.15075 7.89737 0
M  V30 1903 N 178.85 -1.27639 -0.924453 0
M  V30 1904 C 180.078 -1.16989 -1.70649 0
M  V30 1905 C 180.493 0.272869 -1.86818 0
M  V30 1906 O 179.85 1.18549 -1.38753 0
M  V30 1907 C 179.901 -1.85229 -3.10439 0
M  V30 1908 O 179.622 -3.23868 -2.95028 0
M  V30 1909 C 181.123 -1.80746 -4.04779 0
M  V30 1910 H 178.343 -0.406595 -0.53378 0
M  V30 1911 H 180.887 -1.68569 -1.15778 0
M  V30 1912 H 179.042 -1.37545 -3.6216 0
M  V30 1913 H 179.456 -3.57889 -3.83426 0
M  V30 1914 H 180.93 -2.33101 -5.00368 0
M  V30 1915 H 181.407 -0.777499 -4.32263 0
M  V30 1916 H 182.013 -2.28059 -3.58984 0
M  V30 1917 N 180.328 1.1314 -1.09713 0
M  V30 1918 C 181.238 2.22242 -0.751367 0
M  V30 1919 C 182.254 1.72224 0.247938 0
M  V30 1920 O 183.43 2.01205 0.0885463 0
M  V30 1921 C 180.495 3.46231 -0.180274 0
M  V30 1922 C 179.556 4.11125 -1.2359 0
M  V30 1923 C 178.789 5.29195 -0.691966 0
M  V30 1924 O 179.012 5.68342 0.48414 0
M  V30 1925 O 177.946 5.84214 -1.44838 0
M  V30 1926 H 181.772 2.54197 -1.66186 0
M  V30 1927 H 179.357 1.21331 -0.871735 0
M  V30 1928 H 181.239 4.21185 0.134739 0
M  V30 1929 H 179.914 3.1597 0.703185 0
M  V30 1930 H 178.821 3.37985 -1.60366 0
M  V30 1931 H 180.154 4.45524 -2.09211 0
M  V30 1932 N 181.806 0.884767 1.30421 0
M  V30 1933 C 182.753 0.349642 2.28136 0
M  V30 1934 C 183.723 -0.560061 1.56373 0
M  V30 1935 O 184.908 -0.488524 1.8444 0
M  V30 1936 C 182.048 -0.42999 3.42411 0
M  V30 1937 C 181.161 0.508907 4.28992 0
M  V30 1938 C 180.296 -0.286301 5.30428 0
M  V30 1939 C 179.335 0.648079 6.08659 0
M  V30 1940 N 178.472 -0.111792 7.02011 0
M  V30 1941 H 183.312 1.18807 2.73293 0
M  V30 1942 H 180.849 0.597231 1.3443 0
M  V30 1943 H 182.807 -0.897923 4.07423 0
M  V30 1944 H 181.437 -1.23299 2.98324 0
M  V30 1945 H 180.489 1.09533 3.64289 0
M  V30 1946 H 181.801 1.22475 4.8353 0
M  V30 1947 H 180.955 -0.816098 6.01186 0
M  V30 1948 H 179.694 -1.03536 4.76583 0
M  V30 1949 H 178.699 1.18951 5.36778 0
M  V30 1950 H 179.924 1.39623 6.64592 0
M  V30 1951 H 177.87 -0.843395 6.50556 0
M  V30 1952 H 177.787 0.544429 7.54037 0
M  V30 1953 H 179.055 -0.622339 7.77012 0
M  V30 1954 N 183.284 -1.43765 0.645699 0
M  V30 1955 C 184.532 -2.01499 0.155731 0
M  V30 1956 C 184.853 -1.51151 -1.232 0
M  V30 1957 O 184.123 -0.721044 -1.82148 0
M  V30 1958 H 182.703 -0.745003 0.0545817 0
M  V30 1959 H 185.365 -1.76075 0.835677 0
M  V30 1960 H 184.461 -3.1181 0.134577 0
M  V30 1961 N 184.763 -0.387143 -1.52771 0
M  V30 1962 C 186.174 0.0873634 -1.86495 0
M  V30 1963 C 186.525 1.46336 -1.30691 0
M  V30 1964 O 185.65 2.068 -0.637409 0
M  V30 1965 C 186.245 0.165305 -3.38396 0
M  V30 1966 C 184.804 0.584101 -3.7184 0
M  V30 1967 C 183.951 -0.255279 -2.76122 0
M  V30 1968 H 186.902 -0.605104 -1.46711 0
M  V30 1969 H 186.923 0.984848 -3.67534 0
M  V30 1970 H 186.435 -0.836301 -3.78982 0
M  V30 1971 H 184.536 1.59315 -3.36823 0
M  V30 1972 H 184.649 0.343749 -4.77865 0
M  V30 1973 H 183.013 0.279126 -2.53166 0
M  V30 1974 H 183.796 -1.25482 -3.19545 0
M  V30 1975 N 186.241 1.57166 -0.116904 0
M  V30 1976 C 187.151 2.18745 0.847812 0
M  V30 1977 C 188.167 1.163 1.29423 0
M  V30 1978 O 189.343 1.48761 1.35765 0
M  V30 1979 C 186.408 2.77307 2.0809 0
M  V30 1980 C 185.469 3.94781 1.68661 0
M  V30 1981 C 184.702 4.50541 2.86091 0
M  V30 1982 O 184.925 4.05202 4.01456 0
M  V30 1983 O 183.859 5.41256 2.63298 0
M  V30 1984 H 187.685 3.01632 0.353778 0
M  V30 1985 H 185.27 1.49005 0.108599 0
M  V30 1986 H 187.152 3.14647 2.80313 0
M  V30 1987 H 185.827 1.97452 2.56504 0
M  V30 1988 H 184.734 3.62214 0.935518 0
M  V30 1989 H 186.067 4.76065 1.24991 0
M  V30 1990 N 187.719 -0.156864 1.56817 0
M  V30 1991 C 188.967 -0.869404 1.82444 0
M  V30 1992 C 189.288 -1.82147 0.69623 0
M  V30 1993 O 188.558 -1.93847 -0.28287 0
M  V30 1994 H 187.138 -0.324043 0.673056 0
M  V30 1995 H 189.8 -0.153224 1.94297 0
M  V30 1996 H 188.896 -1.43761 2.77019 0
M  V30 1997 N 189.197 -1.51736 -0.425897 0
M  V30 1998 C 190.127 -1.76827 -1.52494 0
M  V30 1999 C 191.108 -0.618524 -1.58456 0
M  V30 2000 O 192.293 -0.862416 -1.74 0
M  V30 2001 C 189.423 -1.90374 -2.90474 0
M  V30 2002 C 188.377 -3.0588 -2.99369 0
M  V30 2003 C 187.703 -3.04625 -4.3944 0
M  V30 2004 C 189.003 -4.45644 -2.72394 0
M  V30 2005 H 190.697 -2.68855 -1.31748 0
M  V30 2006 H 188.243 -1.29372 -0.632362 0
M  V30 2007 H 190.196 -2.0651 -3.6733 0
M  V30 2008 H 188.92 -0.95004 -3.12477 0
M  V30 2009 H 187.579 -2.89467 -2.24954 0
M  V30 2010 H 187.227 -2.0701 -4.58428 0
M  V30 2011 H 186.927 -3.82195 -4.46319 0
M  V30 2012 H 188.451 -3.22869 -5.18255 0
M  V30 2013 H 189.865 -4.62348 -3.38979 0
M  V30 2014 H 188.262 -5.25006 -2.9067 0
M  V30 2015 H 189.332 -4.54893 -1.67929 0
M  V30 2016 N 190.675 0.682077 -1.42076 0
M  V30 2017 C 191.921 1.44428 -1.42367 0
M  V30 2018 C 192.254 1.94164 -0.0373056 0
M  V30 2019 O 191.529 1.70429 0.937239 0
M  V30 2020 C 191.812 2.64654 -2.44194 0
M  V30 2021 C 191.665 2.20596 -3.91991 0
M  V30 2022 C 192.984 3.66865 -2.431 0
M  V30 2023 H 190.103 0.523834 -0.518428 0
M  V30 2024 H 192.745 0.77576 -1.73442 0
M  V30 2025 H 190.895 3.2169 -2.17826 0
M  V30 2026 H 192.567 1.68783 -4.29313 0
M  V30 2027 H 190.81 1.52242 -4.06208 0
M  V30 2028 H 191.481 3.06921 -4.58807 0
M  V30 2029 H 193.957 3.19531 -2.66532 0
M  V30 2030 H 192.833 4.48577 -3.16339 0
M  V30 2031 H 193.094 4.17493 -1.45437 0
M  V30 2032 N 192.153 1.28127 0.917671 0
M  V30 2033 C 193.381 1.17892 1.70026 0
M  V30 2034 C 193.796 -0.262958 1.8696 0
M  V30 2035 O 193.153 -1.17811 1.3938 0
M  V30 2036 C 193.204 1.86872 3.09453 0
M  V30 2037 O 192.925 3.25428 2.93306 0
M  V30 2038 C 194.426 1.8289 4.03815 0
M  V30 2039 H 191.646 0.40942 0.531617 0
M  V30 2040 H 194.19 1.69181 1.14883 0
M  V30 2041 H 192.345 1.39464 3.61426 0
M  V30 2042 H 192.759 3.59918 3.81523 0
M  V30 2043 H 194.233 2.35751 4.99125 0
M  V30 2044 H 194.71 0.800412 4.31845 0
M  V30 2045 H 195.316 2.29959 3.57769 0
M  V30 2046 N 193.631 -1.12557 1.10312 0
M  V30 2047 C 194.879 -1.83675 0.843091 0
M  V30 2048 C 195.2 -1.84435 -0.633131 0
M  V30 2049 O 194.47 -1.30657 -1.45964 0
M  V30 2050 H 193.05 -0.680138 0.308904 0
M  V30 2051 H 195.712 -1.36301 1.39313 0
M  V30 2052 H 194.808 -2.87908 1.2048 0
M  V30 2053 N 195.109 -0.891671 -1.2995 0
M  V30 2054 C 196.056 -0.361736 -2.27948 0
M  V30 2055 C 197.026 0.551761 -1.56668 0
M  V30 2056 O 198.211 0.478736 -1.84696 0
M  V30 2057 C 195.351 0.411825 -3.42634 0
M  V30 2058 C 194.464 -0.531651 -4.28716 0
M  V30 2059 C 193.599 0.258167 -5.30572 0
M  V30 2060 C 192.638 -0.680349 -6.08307 0
M  V30 2061 N 191.775 0.0745613 -7.0206 0
M  V30 2062 H 196.615 -1.20254 -2.72659 0
M  V30 2063 H 194.152 -0.604352 -1.34112 0
M  V30 2064 H 196.11 0.876304 -4.07893 0
M  V30 2065 H 194.74 1.21715 -2.98974 0
M  V30 2066 H 193.792 -1.11463 -3.63703 0
M  V30 2067 H 195.104 -1.25038 -4.82874 0
M  V30 2068 H 194.258 0.784204 -6.0161 0
M  V30 2069 H 192.997 1.01008 -4.77126 0
M  V30 2070 H 192.002 -1.21796 -5.3614 0
M  V30 2071 H 193.227 -1.43145 -6.63842 0
M  V30 2072 H 191.173 0.808883 -6.50994 0
M  V30 2073 H 191.09 -0.584409 -7.53738 0
M  V30 2074 H 192.358 0.581123 -7.77331 0
M  V30 2075 N 196.587 1.43421 -0.653314 0
M  V30 2076 C 198.003 1.56341 -0.320886 0
M  V30 2077 C 198.203 1.63696 1.17499 0
M  V30 2078 O 197.259 1.59208 1.95982 0
M  V30 2079 C 198.572 2.82424 -1.03233 0
M  V30 2080 C 200.12 2.96168 -1.01259 0
M  V30 2081 C 200.595 4.25084 -1.70492 0
M  V30 2082 N 202.086 4.31948 -1.67257 0
M  V30 2083 C 202.821 5.30466 -2.17701 0
M  V30 2084 N 202.317 6.35261 -2.76434 0
M  V30 2085 N 204.11 5.2212 -2.082 0
M  V30 2086 H 196.261 1.3689 -1.62403 0
M  V30 2087 H 198.524 0.657455 -0.682977 0
M  V30 2088 H 198.23 2.83053 -2.08744 0
M  V30 2089 H 198.104 3.72653 -0.583948 0
M  V30 2090 H 200.491 2.9508 0.0341235 0
M  V30 2091 H 200.572 2.07229 -1.49966 0
M  V30 2092 H 200.216 4.26932 -2.7512 0
M  V30 2093 H 200.146 5.1292 -1.19251 0
M  V30 2094 H 202.637 3.56838 -1.24398 0
M  V30 2095 H 202.95 7.06754 -3.12601 0
M  V30 2096 H 201.295 6.35884 -2.80495 0
M  V30 2097 H 204.486 4.39166 -1.62021 0
M  V30 2098 H 204.659 5.98739 -2.47822 0
M  V30 2099 N 198.065 0.39524 1.52563 0
M  V30 2100 C 199.028 -0.425001 2.25225 0
M  V30 2101 C 200.028 -0.985266 1.27079 0
M  V30 2102 O 201.218 -0.866332 1.5113 0
M  V30 2103 C 198.35 -1.59686 3.01186 0
M  V30 2104 H 199.543 0.211233 2.99155 0
M  V30 2105 H 197.096 0.147472 1.55603 0
M  V30 2106 H 197.831 -2.27035 2.31572 0
M  V30 2107 H 197.616 -1.20176 3.73229 0
M  V30 2108 H 199.106 -2.17743 3.5634 0
M  V30 2109 N 199.544 -1.57102 0.125237 0
M  V30 2110 C 200.79 -1.95697 -0.532035 0
M  V30 2111 C 201.123 -1.009 -1.6593 0
M  V30 2112 O 200.398 -0.047347 -1.94442 0
M  V30 2113 C 200.681 -3.44181 -1.05884 0
M  V30 2114 C 200.534 -4.49752 0.0654392 0
M  V30 2115 C 201.853 -3.94655 -1.9477 0
M  V30 2116 H 198.972 -0.711571 -0.191925 0
M  V30 2117 H 201.614 -1.88923 0.20206 0
M  V30 2118 H 199.764 -3.50085 -1.68442 0
M  V30 2119 H 201.436 -4.55943 0.700982 0
M  V30 2120 H 199.679 -4.27653 0.727709 0
M  V30 2121 H 200.35 -5.50924 -0.344505 0
M  V30 2122 H 202.826 -3.91094 -1.42074 0
M  V30 2123 H 201.702 -4.99057 -2.28546 0
M  V30 2124 H 201.963 -3.35718 -2.87656 0
M  V30 2125 N 201.022 0.148545 -1.56898 0
M  V30 2126 C 202.268 0.862694 -1.83536 0
M  V30 2127 C 202.601 1.80889 -0.706604 0
M  V30 2128 O 201.876 1.92328 0.289885 0
M  V30 2129 C 202.159 1.63853 -3.20662 0
M  V30 2130 C 202.012 0.713925 -4.44098 0
M  V30 2131 C 203.331 2.60133 -3.54991 0
M  V30 2132 H 200.45 0.312179 -0.667618 0
M  V30 2133 H 203.092 0.127953 -1.89569 0
M  V30 2134 H 201.242 2.26489 -3.1565 0
M  V30 2135 H 202.914 0.098686 -4.61194 0
M  V30 2136 H 201.157 0.0234019 -4.33794 0
M  V30 2137 H 201.828 1.29278 -5.36648 0
M  V30 2138 H 204.304 2.07616 -3.60603 0
M  V30 2139 H 203.18 3.11468 -4.51972 0
M  V30 2140 H 203.441 3.41417 -2.80868 0
M  V30 2141 N 202.5 1.5196 0.417844 0
M  V30 2142 C 203.43 1.77634 1.51554 0
M  V30 2143 C 204.411 0.626918 1.58126 0
M  V30 2144 O 205.596 0.871632 1.7354 0
M  V30 2145 C 202.726 1.91911 2.8946 0
M  V30 2146 C 201.68 3.07463 2.97743 0
M  V30 2147 C 201.006 3.06951 4.37819 0
M  V30 2148 C 202.306 4.47082 2.70027 0
M  V30 2149 H 204 2.6955 1.3032 0
M  V30 2150 H 201.546 1.29706 0.625492 0
M  V30 2151 H 203.499 2.08455 3.6623 0
M  V30 2152 H 202.223 0.966598 3.11969 0
M  V30 2153 H 200.882 2.90656 2.23416 0
M  V30 2154 H 200.53 2.09438 4.57323 0
M  V30 2155 H 200.23 3.84556 4.44286 0
M  V30 2156 H 201.754 3.25613 5.16535 0
M  V30 2157 H 203.168 4.6414 3.36522 0
M  V30 2158 H 201.565 5.2654 2.87881 0
M  V30 2159 H 202.635 4.55777 1.65514 0
M  V30 2160 N 203.978 -0.674533 1.42435 0
M  V30 2161 C 205.203 -1.46784 1.46524 0
M  V30 2162 C 205.628 -1.87938 0.078066 0
M  V30 2163 O 204.986 -1.56014 -0.92354 0
M  V30 2164 C 205.034 -2.69307 2.39805 0
M  V30 2165 O 204.138 -3.67587 1.86959 0
M  V30 2166 H 203.479 -0.440959 0.496439 0
M  V30 2167 H 206.009 -0.827326 1.87127 0
M  V30 2168 H 206.019 -3.17374 2.56393 0
M  V30 2169 H 204.694 -2.38692 3.40586 0
M  V30 2170 H 203.271 -3.2662 1.79927 0
M  V30 2171 N 205.456 -1.28612 -0.910864 0
M  V30 2172 C 206.681 -1.1891 -1.69927 0
M  V30 2173 C 207.106 0.248372 -1.86453 0
M  V30 2174 O 206.464 1.17961 -1.37676 0
M  V30 2175 C 206.512 -1.89578 -3.06745 0
M  V30 2176 O 205.616 -1.20521 -3.94396 0
M  V30 2177 H 204.957 -0.412632 -0.520222 0
M  V30 2178 H 207.487 -1.69985 -1.1387 0
M  V30 2179 H 207.497 -1.97597 -3.56958 0
M  V30 2180 H 206.172 -2.94136 -2.94035 0
M  V30 2181 H 204.749 -1.20684 -3.52831 0
M  V30 2182 N 206.934 1.1197 -1.10907 0
M  V30 2183 C 208.35 1.35591 -0.841852 0
M  V30 2184 C 208.55 1.94233 0.536246 0
M  V30 2185 O 207.606 2.1717 1.28816 0
M  V30 2186 C 208.919 2.29284 -1.94549 0
M  V30 2187 C 210.467 2.42862 -1.97451 0
M  V30 2188 C 210.942 3.39873 -3.07002 0
M  V30 2189 N 212.433 3.47433 -3.06341 0
M  V30 2190 C 213.168 4.22421 -3.87748 0
M  V30 2191 N 212.664 5.00432 -4.79103 0
M  V30 2192 N 214.457 4.17876 -3.75946 0
M  V30 2193 H 206.608 0.722664 -1.99728 0
M  V30 2194 H 208.871 0.380635 -0.868229 0
M  V30 2195 H 208.577 1.93378 -2.93765 0
M  V30 2196 H 208.451 3.29452 -1.83688 0
M  V30 2197 H 210.838 2.78046 -0.988645 0
M  V30 2198 H 210.919 1.42566 -2.12388 0
M  V30 2199 H 210.563 3.05417 -4.05811 0
M  V30 2200 H 210.493 4.40011 -2.89306 0
M  V30 2201 H 212.984 2.91784 -2.40147 0
M  V30 2202 H 213.297 5.55002 -5.37766 0
M  V30 2203 H 211.642 4.99612 -4.83128 0
M  V30 2204 H 214.833 3.56016 -3.03924 0
M  V30 2205 H 215.006 4.76061 -4.39624 0
M  V30 2206 N 208.412 0.89855 1.29475 0
M  V30 2207 C 209.66 0.522847 1.9522 0
M  V30 2208 C 209.981 -0.93371 1.71192 0
M  V30 2209 O 209.251 -1.65823 1.04305 0
M  V30 2210 H 207.831 0.190366 0.722336 0
M  V30 2211 H 210.493 1.14459 1.5775 0
M  V30 2212 H 209.589 0.704476 3.04045 0
M  V30 2213 N 209.89 -1.43072 0.660911 0
M  V30 2214 C 211.138 -2.01323 0.177094 0
M  V30 2215 C 211.459 -1.5245 -1.2159 0
M  V30 2216 O 210.729 -0.740322 -1.81373 0
M  V30 2217 H 209.309 -0.744382 0.0624804 0
M  V30 2218 H 211.971 -1.75179 0.854305 0
M  V30 2219 H 211.067 -3.11649 0.167641 0
M  V30 2220 N 211.368 -0.403325 -1.52352 0
M  V30 2221 C 212.617 0.175668 -2.00934 0
M  V30 2222 C 212.93 1.46718 -1.29356 0
M  V30 2223 O 214.136 2.12708 -1.68724 0
M  V30 2224 C 212.592 0.363612 -3.58058 0
M  V30 2225 C 212.2 -0.915472 -4.38547 0
M  V30 2226 C 213.944 0.89821 -4.14888 0
M  V30 2227 C 211.851 -0.695035 -5.87302 0
M  V30 2228 H 210.781 0.0694234 -0.750797 0
M  V30 2229 H 213.432 -0.527879 -1.75743 0
M  V30 2230 H 211.814 1.12935 -3.79555 0
M  V30 2231 H 212.988 -1.68691 -4.28812 0
M  V30 2232 H 211.303 -1.37606 -3.93006 0
M  V30 2233 H 213.9 1.07907 -5.23699 0
M  V30 2234 H 214.243 1.87126 -3.71873 0
M  V30 2235 H 214.776 0.191681 -3.97338 0
M  V30 2236 H 211.515 -1.63948 -6.34666 0
M  V30 2237 H 211.035 0.0372116 -5.99788 0
M  V30 2238 H 212.714 -0.33497 -6.46132 0
M  V30 2239 N 212.846 1.57033 -0.133567 0
M  V30 2240 C 213.796 2.12641 0.822671 0
M  V30 2241 C 214.78 1.05081 1.21847 0
M  V30 2242 O 215.972 1.31287 1.18713 0
M  V30 2243 C 213.101 2.74094 2.06706 0
M  V30 2244 C 212.187 3.88757 1.69497 0
M  V30 2245 N 212.578 4.95194 1.03037 0
M  V30 2246 C 210.876 3.99213 1.98859 0
M  V30 2247 C 211.577 5.75414 0.852873 0
M  V30 2248 N 210.553 5.25726 1.3825 0
M  V30 2249 H 214.355 2.92308 0.305537 0
M  V30 2250 H 211.869 1.62256 0.0684276 0
M  V30 2251 H 213.866 3.12285 2.76195 0
M  V30 2252 H 212.526 1.95896 2.5895 0
M  V30 2253 H 213.537 5.13247 0.692669 0
M  V30 2254 H 210.214 3.32075 2.53047 0
M  V30 2255 H 211.604 6.71089 0.330091 0
M  V30 2256 N 214.325 -0.140222 1.56975 0
M  V30 2257 C 215.272 -1.17292 1.98774 0
M  V30 2258 C 216.242 -1.4232 0.856408 0
M  V30 2259 O 217.427 -1.54541 1.119 0
M  V30 2260 C 214.567 -2.49973 2.37923 0
M  V30 2261 C 213.68 -2.32062 3.64378 0
M  V30 2262 C 212.815 -3.57825 3.926 0
M  V30 2263 C 211.854 -3.3498 5.12303 0
M  V30 2264 N 210.991 -4.52891 5.36502 0
M  V30 2265 H 215.831 -0.809472 2.86795 0
M  V30 2266 H 213.368 -0.388237 1.41884 0
M  V30 2267 H 215.326 -3.27346 2.58652 0
M  V30 2268 H 213.956 -2.84252 1.52972 0
M  V30 2269 H 213.008 -1.45711 3.51387 0
M  V30 2270 H 214.32 -2.11145 4.51906 0
M  V30 2271 H 213.474 -4.43624 4.13863 0
M  V30 2272 H 212.213 -3.81753 3.03506 0
M  V30 2273 H 211.218 -2.4757 4.90906 0
M  V30 2274 H 212.443 -3.12444 6.02956 0
M  V30 2275 H 210.389 -4.76979 4.50363 0
M  V30 2276 H 210.306 -4.35001 6.18312 0
M  V30 2277 H 211.574 -5.39884 5.62268 0
M  V30 2278 N 215.803 -1.52179 -0.40978 0
M  V30 2279 C 217.08 -1.56769 -1.16974 0
M  V30 2280 C 217.46 -0.348322 -2.08206 0
M  V30 2281 O 216.808 0.664862 -2.18613 0
M  V30 2282 C 217.018 -2.89603 -1.9476 0
M  V30 2283 C 218.366 -3.42579 -2.50849 0
M  V30 2284 O 219.39 -2.91338 -2.04941 0
M  V30 2285 O 218.249 -4.32054 -3.34652 0
M  V30 2286 H 215.343 -0.631439 -0.534054 0
M  V30 2287 H 217.889 -1.64507 -0.416613 0
M  V30 2288 H 216.661 -3.698 -1.27921 0
M  V30 2289 H 216.284 -2.85155 -2.77079 0
M  V30 2290 N 217.281 0.66697 -1.42791 0
M  V30 2291 C 218.509 1.45505 -1.47091 0
M  V30 2292 C 218.924 1.8861 -0.0845873 0
M  V30 2293 O 218.281 1.58632 0.90234 0
M  V30 2294 C 218.332 2.69906 -2.40485 0
M  V30 2295 O 218.053 2.28608 -3.73725 0
M  V30 2296 C 219.554 3.63396 -2.53886 0
M  V30 2297 H 216.774 0.447459 -0.500022 0
M  V30 2298 H 219.318 0.818866 -1.8739 0
M  V30 2299 H 217.473 3.29696 -2.03419 0
M  V30 2300 H 217.887 3.08997 -4.23817 0
M  V30 2301 H 219.361 4.47387 -3.2334 0
M  V30 2302 H 219.838 4.09824 -1.57927 0
M  V30 2303 H 220.444 3.09495 -2.91706 0
M  V30 2304 N 218.759 1.29093 0.90403 0
M  V30 2305 C 220.17 1.15186 1.46932 0
M  V30 2306 C 220.521 -0.254587 1.94541 0
M  V30 2307 O 219.646 -1.14972 1.83332 0
M  V30 2308 C 220.241 2.08492 2.67051 0
M  V30 2309 C 218.8 1.98621 3.19729 0
M  V30 2310 C 217.947 1.9967 1.92425 0
M  V30 2311 H 220.898 1.41641 0.715789 0
M  V30 2312 H 220.919 1.65461 3.42641 0
M  V30 2313 H 220.431 3.10847 2.3237 0
M  V30 2314 H 218.532 0.993389 3.59114 0
M  V30 2315 H 218.645 2.86068 3.8432 0
M  V30 2316 H 217.009 1.44208 2.09943 0
M  V30 2317 H 217.792 3.03721 1.60026 0
M  V30 2318 N 220.237 -1.11381 1.11499 0
M  V30 2319 C 221.465 -1.86934 0.88675 0
M  V30 2320 C 221.88 -1.80195 -0.563476 0
M  V30 2321 O 221.237 -1.18367 -1.38908 0
M  V30 2322 C 221.288 -3.35722 1.34064 0
M  V30 2323 O 221.009 -3.4232 2.73401 0
M  V30 2324 C 222.51 -4.2818 1.14791 0
M  V30 2325 H 219.73 -0.591117 0.317523 0
M  V30 2326 H 222.274 -1.40865 1.48248 0
M  V30 2327 H 220.429 -3.79294 0.788355 0
M  V30 2328 H 220.843 -4.34971 2.93087 0
M  V30 2329 H 222.317 -5.30817 1.5145 0
M  V30 2330 H 222.794 -4.39113 0.0875279 0
M  V30 2331 H 223.4 -3.90402 1.68721 0
M  V30 2332 N 221.715 -0.905404 -1.28997 0
M  V30 2333 C 222.992 -0.453513 -1.9027 0
M  V30 2334 C 223.372 1.06721 -1.82137 0
M  V30 2335 O 222.72 1.91159 -1.25182 0
M  V30 2336 C 222.93 -0.974494 -3.35119 0
M  V30 2337 C 224.278 -1.0216 -4.12127 0
M  V30 2338 O 225.302 -0.922557 -3.44046 0
M  V30 2339 O 224.161 -1.17121 -5.33802 0
M  V30 2340 H 221.255 -0.142347 -0.814657 0
M  V30 2341 H 223.801 -0.995642 -1.37423 0
M  V30 2342 H 222.573 -2.01848 -3.35221 0
M  V30 2343 H 222.196 -0.412706 -3.95452 0
M  V30 2344 N 223.193 1.4272 -0.668489 0
M  V30 2345 C 224.123 2.335 -0.000100175 0
M  V30 2346 C 225.104 1.50328 0.795964 0
M  V30 2347 O 226.289 1.78949 0.754385 0
M  V30 2348 C 223.419 3.33874 0.956302 0
M  V30 2349 C 222.373 4.27152 0.269278 0
M  V30 2350 C 221.699 5.17684 1.33818 0
M  V30 2351 C 222.999 5.15373 -0.847805 0
M  V30 2352 H 224.693 2.89639 -0.758244 0
M  V30 2353 H 222.239 1.39269 -0.366079 0
M  V30 2354 H 224.192 3.9629 1.43292 0
M  V30 2355 H 222.916 2.76025 1.74579 0
M  V30 2356 H 221.575 3.66123 -0.187042 0
M  V30 2357 H 221.223 4.56165 2.1195 0
M  V30 2358 H 220.923 5.80918 0.883659 0
M  V30 2359 H 222.447 5.82974 1.81586 0
M  V30 2360 H 223.861 5.7151 -0.452681 0
M  V30 2361 H 222.258 5.87407 -1.22773 0
M  V30 2362 H 223.328 4.5415 -1.69929 0
M  V30 2363 N 224.671 0.411399 1.52136 0
M  V30 2364 C 225.92 -0.165009 2.01024 0
M  V30 2365 C 226.233 -1.4603 1.30133 0
M  V30 2366 O 227.439 -2.1181 1.69849 0
M  V30 2367 C 225.895 -0.344618 3.58246 0
M  V30 2368 C 225.503 0.938716 4.38055 0
M  V30 2369 C 227.247 -0.876195 4.15359 0
M  V30 2370 C 225.154 0.726172 5.86925 0
M  V30 2371 H 224.084 -0.0654407 0.751155 0
M  V30 2372 H 226.735 0.537192 1.75461 0
M  V30 2373 H 225.117 -1.10921 3.80148 0
M  V30 2374 H 226.291 1.70963 4.27912 0
M  V30 2375 H 224.606 1.39688 3.92271 0
M  V30 2376 H 227.203 -1.05128 5.24263 0
M  V30 2377 H 227.546 -1.85152 3.7286 0
M  V30 2378 H 228.079 -0.170607 3.97434 0
M  V30 2379 H 224.818 1.67312 6.33788 0
M  V30 2380 H 224.338 -0.00540283 5.998 0
M  V30 2381 H 226.017 0.369231 6.45946 0
M  V30 2382 N 226.149 -1.5696 0.141893 0
M  V30 2383 C 227.112 -2.15316 -0.785587 0
M  V30 2384 C 228.112 -1.09366 -1.1788 0
M  V30 2385 O 229.302 -1.35031 -1.10056 0
M  V30 2386 C 226.434 -2.71211 -2.06537 0
M  V30 2387 H 227.627 -2.98608 -0.278041 0
M  V30 2388 H 225.18 -1.5593 -0.107519 0
M  V30 2389 H 225.915 -1.91571 -2.6167 0
M  V30 2390 H 225.7 -3.4872 -1.79268 0
M  V30 2391 H 227.19 -3.16189 -2.72789 0
M  V30 2392 N 227.627 0.131896 -1.57047 0
M  V30 2393 C 229.038 0.690407 -1.73465 0
M  V30 2394 C 229.389 1.8094 -0.758629 0
M  V30 2395 O 228.514 2.16282 0.0713813 0
M  V30 2396 C 229.109 1.25916 -3.14532 0
M  V30 2397 C 227.668 1.76409 -3.32501 0
M  V30 2398 C 226.815 0.658579 -2.69366 0
M  V30 2399 H 229.766 -0.0939144 -1.58422 0
M  V30 2400 H 229.787 2.12892 -3.15369 0
M  V30 2401 H 229.299 0.444515 -3.85546 0
M  V30 2402 H 227.4 2.60391 -2.66509 0
M  V30 2403 H 227.513 1.88241 -4.4057 0
M  V30 2404 H 225.877 1.08899 -2.30246 0
M  V30 2405 H 226.66 -0.14487 -3.42994 0
M  V30 2406 N 229.106 1.52395 0.401703 0
M  V30 2407 C 230.336 1.70429 1.1678 0
M  V30 2408 C 230.744 0.416702 1.84554 0
M  V30 2409 O 230.087 -0.617697 1.73003 0
M  V30 2410 C 230.149 2.78919 2.26814 0
M  V30 2411 C 229.813 4.20437 1.79113 0
M  V30 2412 C 230.81 5.04028 1.27482 0
M  V30 2413 C 228.495 4.66704 1.85722 0
M  V30 2414 C 230.489 6.31961 0.830913 0
M  V30 2415 C 228.176 5.94625 1.40942 0
M  V30 2416 C 229.174 6.77082 0.897128 0
M  V30 2417 O 228.862 8.02607 0.455822 0
M  V30 2418 H 228.594 0.574272 0.356634 0
M  V30 2419 H 231.148 1.99767 0.477724 0
M  V30 2420 H 229.378 2.44973 2.99207 0
M  V30 2421 H 231.067 2.8548 2.88541 0
M  V30 2422 H 231.833 4.69471 1.21744 0
M  V30 2423 H 227.712 4.0262 2.24539 0
M  V30 2424 H 231.256 6.96271 0.430368 0
M  V30 2425 H 227.153 6.28688 1.46362 0
M  V30 2426 H 227.921 8.16453 0.578457 0
M  V30 2427 N 230.584 -0.659388 1.43143 0
M  V30 2428 C 231.514 -1.78422 1.50625 0
M  V30 2429 C 232.495 -1.66216 0.361443 0
M  V30 2430 O 233.68 -1.85404 0.577834 0
M  V30 2431 C 230.81 -3.16815 1.42287 0
M  V30 2432 C 229.764 -3.43777 2.54954 0
M  V30 2433 C 229.09 -4.81905 2.31671 0
M  V30 2434 C 230.39 -3.39134 3.97222 0
M  V30 2435 H 232.084 -1.72417 2.44771 0
M  V30 2436 H 229.63 -0.828084 1.17808 0
M  V30 2437 H 231.583 -3.95253 1.46127 0
M  V30 2438 H 230.307 -3.23534 0.446435 0
M  V30 2439 H 228.966 -2.67707 2.50457 0
M  V30 2440 H 228.614 -4.85294 1.32284 0
M  V30 2441 H 228.314 -5.00906 3.07192 0
M  V30 2442 H 229.838 -5.62609 2.37284 0
M  V30 2443 H 231.252 -4.07518 4.03239 0
M  V30 2444 H 229.649 -3.69671 4.72719 0
M  V30 2445 H 230.719 -2.37426 4.22797 0
M  V30 2446 N 232.062 -1.29571 -0.897171 0
M  V30 2447 C 233.009 -1.14916 -2.00158 0
M  V30 2448 C 233.979 -0.0418149 -1.66047 0
M  V30 2449 O 235.164 -0.209793 -1.89643 0
M  V30 2450 C 232.304 -0.834307 -3.34863 0
M  V30 2451 C 231.417 -2.02234 -3.8174 0
M  V30 2452 C 230.552 -1.64664 -5.05034 0
M  V30 2453 C 229.591 -2.80033 -5.44286 0
M  V30 2454 N 228.728 -2.42843 -6.58765 0
M  V30 2455 H 233.568 -2.09403 -2.12025 0
M  V30 2456 H 231.105 -1.042 -1.0383 0
M  V30 2457 H 233.063 -0.632436 -4.12379 0
M  V30 2458 H 231.693 0.0736656 -3.22716 0
M  V30 2459 H 230.745 -2.33583 -3.00238 0
M  V30 2460 H 232.057 -2.88673 -4.06779 0
M  V30 2461 H 231.211 -1.4078 -5.9014 0
M  V30 2462 H 229.95 -0.753766 -4.8184 0
M  V30 2463 H 228.955 -3.04596 -4.57713 0
M  V30 2464 H 230.18 -3.69989 -5.6946 0
M  V30 2465 H 228.126 -1.56046 -6.3717 0
M  V30 2466 H 228.043 -3.22815 -6.83613 0
M  V30 2467 H 229.311 -2.22285 -7.47134 0
M  V30 2468 N 233.54 1.10788 -1.12088 0
M  V30 2469 C 234.786 1.82942 -0.875226 0
M  V30 2470 C 235.119 1.84779 0.597538 0
M  V30 2471 O 234.394 1.30578 1.44152 0
M  V30 2472 C 234.677 3.29789 -1.44606 0
M  V30 2473 C 234.53 3.36307 -2.98693 0
M  V30 2474 C 235.849 4.26064 -1.10261 0
M  V30 2475 H 232.968 0.664195 -0.319397 0
M  V30 2476 H 235.61 1.29867 -1.38689 0
M  V30 2477 H 233.76 3.75118 -1.01089 0
M  V30 2478 H 235.432 2.99487 -3.50864 0
M  V30 2479 H 233.675 2.76318 -3.34411 0
M  V30 2480 H 234.346 4.39694 -3.33726 0
M  V30 2481 H 236.822 3.88951 -1.4784 0
M  V30 2482 H 235.698 5.27183 -1.52869 0
M  V30 2483 H 235.959 4.42098 -0.0142953 0
M  V30 2484 N 235.018 0.912232 1.28515 0
M  V30 2485 C 236.265 0.544599 1.95039 0
M  V30 2486 C 236.593 -0.911435 1.71823 0
M  V30 2487 O 235.848 -1.66317 1.03137 0
M  V30 2488 C 236.147 0.798392 3.48368 0
M  V30 2489 C 235.813 2.23374 3.91682 0
M  V30 2490 C 234.475 2.62617 4.03219 0
M  V30 2491 C 236.827 3.16786 4.13879 0
M  V30 2492 C 234.155 3.94429 4.3433 0
M  V30 2493 C 236.507 4.48161 4.46469 0
M  V30 2494 C 235.171 4.8726 4.56217 0
M  V30 2495 H 234.441 0.199283 0.7137 0
M  V30 2496 H 237.088 1.15327 1.52879 0
M  V30 2497 H 235.393 0.106908 3.91654 0
M  V30 2498 H 237.09 0.493141 3.97956 0
M  V30 2499 H 233.68 1.91922 3.83228 0
M  V30 2500 H 237.864 2.87677 4.0442 0
M  V30 2501 H 233.12 4.24426 4.40082 0
M  V30 2502 H 237.294 5.20559 4.62592 0
M  V30 2503 H 234.921 5.89431 4.80078 0
M  V30 2504 N 236.496 -1.42363 0.676048 0
M  V30 2505 C 237.426 -2.33497 0.0124832 0
M  V30 2506 C 238.407 -1.50748 -0.787981 0
M  V30 2507 O 239.592 -1.79346 -0.744884 0
M  V30 2508 C 236.722 -3.34377 -0.938582 0
M  V30 2509 C 235.676 -4.27289 -0.246622 0
M  V30 2510 C 235.002 -5.18386 -1.31071 0
M  V30 2511 C 236.302 -5.14916 0.875125 0
M  V30 2512 H 237.996 -2.89233 0.773593 0
M  V30 2513 H 235.542 -1.39073 0.37346 0
M  V30 2514 H 237.495 -3.97044 -1.41188 0
M  V30 2515 H 236.219 -2.76947 -1.73113 0
M  V30 2516 H 234.878 -3.66018 0.206456 0
M  V30 2517 H 234.526 -4.57282 -2.09528 0
M  V30 2518 H 234.226 -5.81378 -0.852839 0
M  V30 2519 H 235.75 -5.83929 -1.78492 0
M  V30 2520 H 237.164 -5.71262 0.482983 0
M  V30 2521 H 235.561 -5.86747 1.25887 0
M  V30 2522 H 236.631 -4.53242 1.72335 0
M  V30 2523 N 237.974 -0.419461 -1.51915 0
M  V30 2524 C 239.222 0.152637 -2.01523 0
M  V30 2525 C 239.543 1.44762 -1.30649 0
M  V30 2526 O 238.813 1.90997 -0.435535 0
M  V30 2527 H 237.393 0.0593966 -0.744635 0
M  V30 2528 H 240.055 -0.558073 -1.86739 0
M  V30 2529 H 239.151 0.341369 -3.10227 0
M  V30 2530 N 239.452 1.56882 -0.150215 0
M  V30 2531 C 240.699 1.96228 0.500093 0
M  V30 2532 C 241.027 1.03522 1.64661 0
M  V30 2533 O 240.282 0.0650683 1.95592 0
M  V30 2534 C 240.581 3.41801 1.04437 0
M  V30 2535 C 240.247 4.50897 0.0159671 0
M  V30 2536 C 238.909 4.8046 -0.266731 0
M  V30 2537 C 241.261 5.16703 -0.683192 0
M  V30 2538 C 238.589 5.73135 -1.25434 0
M  V30 2539 C 240.941 6.10441 -1.65964 0
M  V30 2540 C 239.605 6.38382 -1.95 0
M  V30 2541 H 238.875 0.718048 0.182997 0
M  V30 2542 H 241.522 1.90019 -0.237724 0
M  V30 2543 H 239.827 3.44857 1.85959 0
M  V30 2544 H 241.524 3.69573 1.55618 0
M  V30 2545 H 238.114 4.27891 0.246485 0
M  V30 2546 H 242.298 4.93993 -0.477983 0
M  V30 2547 H 237.554 5.93074 -1.48571 0
M  V30 2548 H 241.728 6.60507 -2.20689 0
M  V30 2549 H 239.355 7.09996 -2.71679 0
M  V30 2550 N 240.93 -0.123565 1.57115 0
M  V30 2551 C 242.179 -0.830704 1.83799 0
M  V30 2552 C 242.492 -1.81259 0.735158 0
M  V30 2553 O 243.698 -2.56558 0.888278 0
M  V30 2554 C 242.154 -1.52802 3.25852 0
M  V30 2555 C 241.762 -0.587356 4.44133 0
M  V30 2556 C 243.506 -2.22056 3.61789 0
M  V30 2557 C 241.413 -1.28764 5.77212 0
M  V30 2558 H 240.343 -0.313967 0.685522 0
M  V30 2559 H 242.994 -0.0834359 1.8331 0
M  V30 2560 H 241.376 -2.32175 3.20797 0
M  V30 2561 H 242.55 0.172829 4.60476 0
M  V30 2562 H 240.865 -0.00201892 4.164 0
M  V30 2563 H 243.462 -2.75131 4.58483 0
M  V30 2564 H 243.805 -2.99644 2.88997 0
M  V30 2565 H 244.338 -1.49576 3.68608 0
M  V30 2566 H 241.077 -0.55314 6.53162 0
M  V30 2567 H 240.597 -2.01995 5.64764 0
M  V30 2568 H 242.276 -1.8221 6.20813 0
M  V30 2569 N 242.408 -1.52605 -0.393616 0
M  V30 2570 C 243.656 -1.67093 -1.13685 0
M  V30 2571 C 243.977 -0.411011 -1.90619 0
M  V30 2572 O 243.247 0.574491 -1.87287 0
M  V30 2573 H 241.827 -0.615923 -0.422668 0
M  V30 2574 H 244.489 -1.89704 -0.447039 0
M  V30 2575 H 243.585 -2.51922 -1.84232 0
M  V30 2576 N 243.887 0.651787 -1.4349 0
M  V30 2577 C 245.136 1.40754 -1.44469 0
M  V30 2578 C 245.449 1.95463 -0.0731845 0
M  V30 2579 O 246.655 2.71471 0.0395721 0
M  V30 2580 C 245.111 2.54735 -2.5424 0
M  V30 2581 C 244.719 2.06628 -3.97504 0
M  V30 2582 C 246.463 3.32092 -2.64414 0
M  V30 2583 C 244.37 3.17829 -4.98737 0
M  V30 2584 H 243.3 0.528862 -0.53742 0
M  V30 2585 H 245.951 0.703365 -1.69485 0
M  V30 2586 H 244.333 3.2763 -2.22428 0
M  V30 2587 H 245.507 1.40734 -4.38783 0
M  V30 2588 H 243.822 1.42146 -3.91387 0
M  V30 2589 H 246.419 4.14952 -3.37223 0
M  V30 2590 H 246.762 3.80217 -1.69532 0
M  V30 2591 H 247.295 2.66279 -2.95534 0
M  V30 2592 H 244.034 2.74671 -5.95177 0
M  V30 2593 H 243.554 3.82429 -4.62069 0
M  V30 2594 H 245.233 3.82937 -5.21505 0
M  V30 2595 N 245.365 1.30045 0.890287 0
M  V30 2596 C 246.593 1.21472 1.67487 0
M  V30 2597 C 247.008 -0.223241 1.87476 0
M  V30 2598 O 246.365 -1.14828 1.41847 0
M  V30 2599 C 246.416 1.93394 3.05419 0
M  V30 2600 O 246.137 3.31576 2.86337 0
M  V30 2601 C 247.638 1.91414 3.99844 0
M  V30 2602 H 244.858 0.420604 0.522813 0
M  V30 2603 H 247.402 1.7158 1.11268 0
M  V30 2604 H 245.557 1.47099 3.58386 0
M  V30 2605 H 245.971 3.67929 3.73802 0
M  V30 2606 H 247.445 2.46285 4.94012 0
M  V30 2607 H 247.922 0.891833 4.3005 0
M  V30 2608 H 248.528 2.37496 3.52811 0
M  V30 2609 N 246.843 -1.10192 1.12674 0
M  V30 2610 C 248.12 -1.78717 0.794965 0
M  V30 2611 C 248.5 -1.98628 -0.714853 0
M  V30 2612 O 247.848 -1.58135 -1.64941 0
M  V30 2613 C 248.058 -3.11546 1.5729 0
M  V30 2614 C 249.406 -3.86382 1.76052 0
M  V30 2615 O 250.43 -3.21274 1.53823 0
M  V30 2616 O 249.289 -5.03246 2.13087 0
M  V30 2617 H 246.383 -0.774702 0.289423 0
M  V30 2618 H 248.929 -1.16819 1.23091 0
M  V30 2619 H 247.701 -2.92489 2.59935 0
M  V30 2620 H 247.324 -3.81164 1.13137 0
M  V30 2621 N 248.321 -0.919034 -1.28029 0
M  V30 2622 C 249.567 -0.555757 -1.95036 0
M  V30 2623 C 249.9 0.899198 -1.72128 0
M  V30 2624 O 249.175 1.64023 -1.04531 0
M  V30 2625 C 249.458 -0.872024 -3.49382 0
M  V30 2626 C 249.311 -2.3801 -3.81669 0
M  V30 2627 C 250.63 -0.37185 -4.38526 0
M  V30 2628 H 247.749 -0.203386 -0.708381 0
M  V30 2629 H 250.391 -1.14924 -1.51303 0
M  V30 2630 H 248.541 -0.366946 -3.86763 0
M  V30 2631 H 250.213 -2.9562 -3.54128 0
M  V30 2632 H 248.456 -2.83289 -3.28526 0
M  V30 2633 H 249.127 -2.55192 -4.8947 0
M  V30 2634 H 251.603 -0.804602 -4.08247 0
M  V30 2635 H 250.479 -0.622173 -5.45362 0
M  V30 2636 H 250.74 0.727934 -4.36066 0
M  V30 2637 N 249.799 1.42003 -0.683588 0
M  V30 2638 C 250.747 2.326 0.000815408 0
M  V30 2639 C 251.741 1.50308 0.781278 0
M  V30 2640 O 252.947 1.66322 0.688251 0
M  V30 2641 H 249.322 0.751758 0.0190616 0
M  V30 2642 H 251.293 2.88011 -0.780528 0
M  V30 2643 C 250.042 3.34978 0.93195 0
M  V30 2644 H 249.365 3.98345 0.340817 0
M  V30 2645 H 250.805 4.00936 1.37936 0
M  V30 2646 C 249.264 2.67925 2.04249 0
M  V30 2647 O 249.794 2.51788 3.12995 0
M  V30 2648 N 248 2.2681 1.81675 0
M  V30 2649 H 247.547 2.40135 0.932363 0
M  V30 2650 H 247.505 1.8228 2.56167 0
M  V30 2651 N 251.277 0.427512 1.51691 0
M  V30 2652 C 252.524 -0.142229 2.02 0
M  V30 2653 C 252.852 -1.43566 1.31221 0
M  V30 2654 O 252.107 -1.91298 0.412744 0
M  V30 2655 C 252.406 -0.418249 3.54944 0
M  V30 2656 C 252.072 0.788187 4.43958 0
M  V30 2657 C 250.734 1.11906 4.68007 0
M  V30 2658 C 253.086 1.59347 4.96244 0
M  V30 2659 C 250.414 2.25608 5.41588 0
M  V30 2660 C 252.766 2.7214 5.71072 0
M  V30 2661 C 251.43 3.05692 5.93387 0
M  V30 2662 H 250.7 -0.0520451 0.73917 0
M  V30 2663 H 253.347 0.572697 1.82736 0
M  V30 2664 H 251.652 -1.21496 3.72486 0
M  V30 2665 H 253.349 -0.872339 3.91397 0
M  V30 2666 H 249.939 0.520344 4.2543 0
M  V30 2667 H 254.123 1.35106 4.77556 0
M  V30 2668 H 249.379 2.51929 5.57083 0
M  V30 2669 H 253.553 3.34914 6.10578 0
M  V30 2670 H 251.18 3.9391 6.50184 0
M  V30 2671 N 252.755 -1.56801 0.158532 0
M  V30 2672 C 254.001 -1.96781 -0.490405 0
M  V30 2673 C 254.334 -1.04397 -1.63753 0
M  V30 2674 O 253.609 -0.0885805 -1.94298 0
M  V30 2675 C 253.892 -3.4635 -0.985594 0
M  V30 2676 C 253.745 -4.49512 0.160824 0
M  V30 2677 C 255.064 -3.98697 -1.86355 0
M  V30 2678 H 252.183 -0.715482 -0.176788 0
M  V30 2679 H 254.825 -1.88451 0.242088 0
M  V30 2680 H 252.975 -3.53579 -1.60978 0
M  V30 2681 H 254.647 -4.54353 0.797537 0
M  V30 2682 H 252.89 -4.26013 0.818256 0
M  V30 2683 H 253.561 -5.51531 -0.227569 0
M  V30 2684 H 256.037 -3.94019 -1.33746 0
M  V30 2685 H 254.913 -5.03792 -2.17909 0
M  V30 2686 H 255.174 -3.41744 -2.8047 0
M  V30 2687 N 254.233 0.115231 -1.57178 0
M  V30 2688 C 255.48 0.822351 -1.8505 0
M  V30 2689 C 255.808 1.79701 -0.744168 0
M  V30 2690 O 255.063 1.93909 0.26414 0
M  V30 2691 C 255.362 1.60324 -3.19423 0
M  V30 2692 C 255.028 0.772536 -4.44233 0
M  V30 2693 C 253.69 0.543468 -4.78121 0
M  V30 2694 C 256.042 0.193746 -5.2084 0
M  V30 2695 C 253.37 -0.274583 -5.86057 0
M  V30 2696 C 255.722 -0.611517 -6.29637 0
M  V30 2697 C 254.386 -0.850867 -6.62055 0
M  V30 2698 H 253.656 0.30092 -0.677147 0
M  V30 2699 H 256.303 0.0845802 -1.91313 0
M  V30 2700 H 254.608 2.41203 -3.08753 0
M  V30 2701 H 256.305 2.1544 -3.38211 0
M  V30 2702 H 252.895 0.96117 -4.17683 0
M  V30 2703 H 257.079 0.357926 -4.95008 0
M  V30 2704 H 252.335 -0.469206 -6.09597 0
M  V30 2705 H 256.509 -1.06697 -6.88178 0
M  V30 2706 H 254.136 -1.48657 -7.45523 0
M  V30 2707 N 255.711 1.52812 0.385517 0
M  V30 2708 C 256.674 1.77188 1.45386 0
M  V30 2709 C 257.674 0.641953 1.4743 0
M  V30 2710 O 258.864 0.910033 1.4854 0
M  V30 2711 C 255.996 1.87582 2.8465 0
M  V30 2712 H 257.189 2.72583 1.25054 0
M  V30 2713 H 254.742 1.43586 0.617467 0
M  V30 2714 H 255.477 0.941849 3.10322 0
M  V30 2715 H 255.262 2.69748 2.84567 0
M  V30 2716 H 256.752 2.08102 3.62054 0
M  V30 2717 N 257.189 -0.644168 1.43834 0
M  V30 2718 C 258.099 -1.78563 1.52159 0
M  V30 2719 C 259.115 -1.69147 0.408069 0
M  V30 2720 O 260.291 -1.90156 0.663524 0
M  V30 2721 C 257.356 -3.14888 1.45073 0
M  V30 2722 C 256.417 -3.36034 2.6717 0
M  V30 2723 C 255.65 -4.65855 2.60413 0
M  V30 2724 O 255.873 -5.45805 1.65689 0
M  V30 2725 O 254.807 -4.88918 3.5106 0
M  V30 2726 H 258.633 -1.74494 2.48567 0
M  V30 2727 H 256.218 -0.80378 1.25935 0
M  V30 2728 H 258.1 -3.96179 1.43597 0
M  V30 2729 H 256.775 -3.19528 0.518037 0
M  V30 2730 H 255.682 -2.54472 2.74217 0
M  V30 2731 H 257.015 -3.36247 3.59442 0
M  V30 2732 N 258.668 -1.30515 -0.883378 0
M  V30 2733 C 259.916 -1.19194 -1.63209 0
M  V30 2734 C 260.237 0.253205 -1.93349 0
M  V30 2735 O 259.507 1.17025 -1.57105 0
M  V30 2736 H 258.087 -0.438148 -0.605009 0
M  V30 2737 H 260.749 -1.63663 -1.05832 0
M  V30 2738 H 259.845 -1.75396 -2.58153 0
M  V30 2739 N 260.146 1.09593 -1.13257 0
M  V30 2740 C 261.395 1.81105 -0.887917 0
M  V30 2741 C 261.708 1.86563 0.587672 0
M  V30 2742 O 262.914 2.54367 0.949204 0
M  V30 2743 C 261.37 3.25338 -1.53895 0
M  V30 2744 C 260.978 3.28151 -3.04994 0
M  V30 2745 C 262.722 4.01617 -1.37492 0
M  V30 2746 C 260.629 4.66897 -3.6299 0
M  V30 2747 H 259.559 0.678661 -0.328534 0
M  V30 2748 H 262.21 1.23183 -1.36008 0
M  V30 2749 H 260.592 3.8331 -0.994446 0
M  V30 2750 H 261.766 2.79953 -3.66009 0
M  V30 2751 H 260.081 2.65361 -3.20893 0
M  V30 2752 H 262.678 5.04119 -1.78235 0
M  V30 2753 H 263.021 4.15072 -0.31957 0
M  V30 2754 H 263.554 3.50082 -1.88912 0
M  V30 2755 H 260.293 4.58643 -4.68323 0
M  V30 2756 H 259.813 5.15426 -3.06752 0
M  V30 2757 H 261.492 5.3587 -3.62563 0
M  V30 2758 N 261.624 0.925811 1.2754 0
M  V30 2759 C 262.587 0.428129 2.25166 0
M  V30 2760 C 263.587 -0.452261 1.54309 0
M  V30 2761 O 264.777 -0.253608 1.72344 0
M  V30 2762 C 261.909 -0.384749 3.38722 0
M  V30 2763 H 263.102 1.29066 2.70706 0
M  V30 2764 H 260.655 0.706323 1.3943 0
M  V30 2765 H 261.39 -1.26618 2.98561 0
M  V30 2766 H 261.175 0.246454 3.91325 0
M  V30 2767 H 262.665 -0.723389 4.11287 0
M  V30 2768 N 263.102 -1.41638 0.69111 0
M  V30 2769 C 264.332 -2.0533 0.228758 0
M  V30 2770 C 264.74 -1.52089 -1.12541 0
M  V30 2771 O 264.083 -0.662145 -1.71351 0
M  V30 2772 C 264.145 -3.59349 0.10407 0
M  V30 2773 C 263.809 -4.35362 1.38956 0
M  V30 2774 C 264.806 -4.64942 2.32648 0
M  V30 2775 C 262.491 -4.74714 1.64169 0
M  V30 2776 C 264.485 -5.32828 3.49818 0
M  V30 2777 C 262.172 -5.42338 2.81625 0
M  V30 2778 C 263.17 -5.71322 3.74273 0
M  V30 2779 O 262.858 -6.37554 4.89673 0
M  V30 2780 H 262.59 -0.667796 0.104997 0
M  V30 2781 H 265.144 -1.82477 0.942938 0
M  V30 2782 H 263.374 -3.80924 -0.665839 0
M  V30 2783 H 265.063 -4.04633 -0.320519 0
M  V30 2784 H 265.829 -4.35025 2.14425 0
M  V30 2785 H 261.708 -4.51538 0.929202 0
M  V30 2786 H 265.252 -5.55368 4.22152 0
M  V30 2787 H 261.149 -5.71673 2.99768 0
M  V30 2788 H 261.917 -6.56049 4.8943 0
M  V30 2789 N 264.58 -0.43555 -1.51462 0
M  V30 2790 C 265.828 0.131254 -2.01673 0
M  V30 2791 C 266.149 1.43368 -1.32177 0
M  V30 2792 O 265.419 1.90524 -0.455769 0
M  V30 2793 H 263.999 0.0514954 -0.745223 0
M  V30 2794 H 266.661 -0.577847 -1.86137 0
M  V30 2795 H 265.757 0.308446 -3.10572 0
M  V30 2796 N 266.058 1.56714 -0.166846 0
M  V30 2797 C 267.469 1.83378 0.350646 0
M  V30 2798 C 267.82 1.08646 1.63372 0
M  V30 2799 O 266.945 0.338058 2.13743 0
M  V30 2800 C 267.54 3.32643 0.642963 0
M  V30 2801 C 266.099 3.59818 1.10491 0
M  V30 2802 C 265.246 2.76954 0.138411 0
M  V30 2803 H 268.197 1.53803 -0.391193 0
M  V30 2804 H 268.218 3.49878 1.49551 0
M  V30 2805 H 267.73 3.87007 -0.291055 0
M  V30 2806 H 265.831 3.1086 2.05418 0
M  V30 2807 H 265.944 4.68178 1.01716 0
M  V30 2808 H 264.308 2.4666 0.634911 0
M  V30 2809 H 265.091 3.34097 -0.789549 0
M  V30 2810 N 267.536 -0.106894 1.57237 0
M  V30 2811 C 268.446 -1.14911 2.0453 0
M  V30 2812 C 269.462 -1.44592 0.96795 0
M  V30 2813 O 270.638 -1.55468 1.2803 0
M  V30 2814 C 267.703 -2.45272 2.45036 0
M  V30 2815 C 266.764 -2.22879 3.66911 0
M  V30 2816 C 265.997 -3.47024 4.05475 0
M  V30 2817 O 266.22 -4.54804 3.44252 0
M  V30 2818 O 265.154 -3.3731 4.98504 0
M  V30 2819 H 268.98 -0.777461 2.9358 0
M  V30 2820 H 266.565 -0.318563 1.45964 0
M  V30 2821 H 268.447 -3.22055 2.71769 0
M  V30 2822 H 267.122 -2.81886 1.59129 0
M  V30 2823 H 266.029 -1.43915 3.45311 0
M  V30 2824 H 267.362 -1.91163 4.53561 0
M  V30 2825 N 269.014 -1.53014 -0.377408 0
M  V30 2826 C 270.26 -1.68872 -1.12294 0
M  V30 2827 C 270.593 -0.433224 -1.89306 0
M  V30 2828 O 269.868 0.569258 -1.85983 0
M  V30 2829 C 270.151 -2.93115 -2.09179 0
M  V30 2830 C 270.004 -4.28794 -1.35853 0
M  V30 2831 C 271.323 -3.12928 -3.09458 0
M  V30 2832 H 268.442 -0.614518 -0.406862 0
M  V30 2833 H 271.084 -1.85633 -0.40503 0
M  V30 2834 H 269.234 -2.78956 -2.70399 0
M  V30 2835 H 270.906 -4.54742 -0.775082 0
M  V30 2836 H 269.149 -4.28744 -0.660364 0
M  V30 2837 H 269.82 -5.11837 -2.06706 0
M  V30 2838 H 272.296 -3.26194 -2.58334 0
M  V30 2839 H 271.172 -4.01316 -3.74482 0
M  V30 2840 H 271.433 -2.27669 -3.78971 0
M  V30 2841 N 270.492 0.636531 -1.44174 0
M  V30 2842 C 271.455 1.73063 -1.50273 0
M  V30 2843 C 272.455 1.56113 -0.385397 0
M  V30 2844 O 273.645 1.61707 -0.64781 0
M  V30 2845 C 270.777 3.12096 -1.37145 0
M  V30 2846 H 271.97 1.69031 -2.47727 0
M  V30 2847 H 269.523 0.849706 -1.31186 0
M  V30 2848 H 270.258 3.21728 -0.407636 0
M  V30 2849 H 270.043 3.25805 -2.18159 0
M  V30 2850 H 271.533 3.91846 -1.44382 0
M  V30 2851 N 271.97 1.30982 0.876444 0
M  V30 2852 C 272.933 1.18054 1.96459 0
M  V30 2853 C 273.933 0.109399 1.60427 0
M  V30 2854 O 275.123 0.358173 1.70478 0
M  V30 2855 C 272.255 0.810616 3.31122 0
M  V30 2856 H 273.448 2.14735 2.09354 0
M  V30 2857 H 271.001 1.145 1.06392 0
M  V30 2858 H 271.736 -0.155322 3.23928 0
M  V30 2859 H 271.521 1.58481 3.58645 0
M  V30 2860 H 273.011 0.743876 4.10921 0
M  V30 2861 N 273.449 -1.08991 1.13837 0
M  V30 2862 C 274.396 -2.15748 0.819835 0
M  V30 2863 C 275.366 -1.64636 -0.220026 0
M  V30 2864 O 276.551 -1.90582 -0.0912757 0
M  V30 2865 C 273.691 -3.4382 0.296913 0
M  V30 2866 C 272.804 -4.0881 1.39636 0
M  V30 2867 C 271.939 -5.24655 0.831314 0
M  V30 2868 C 270.978 -5.81575 1.90886 0
M  V30 2869 N 270.115 -6.88774 1.36142 0
M  V30 2870 H 274.955 -2.42338 1.73426 0
M  V30 2871 H 272.492 -1.18935 0.865613 0
M  V30 2872 H 274.45 -4.17193 -0.0244339 0
M  V30 2873 H 273.08 -3.17535 -0.580628 0
M  V30 2874 H 272.132 -3.33258 1.83422 0
M  V30 2875 H 273.444 -4.47141 2.21058 0
M  V30 2876 H 272.598 -6.04942 0.461515 0
M  V30 2877 H 271.337 -4.87698 -0.013932 0
M  V30 2878 H 270.342 -4.99946 2.28767 0
M  V30 2879 H 271.567 -6.20592 2.75758 0
M  V30 2880 H 269.513 -6.53788 0.538254 0
M  V30 2881 H 269.43 -7.25898 2.11208 0
M  V30 2882 H 270.698 -7.72806 1.01933 0
M  V30 2883 N 274.927 -0.932562 -1.27047 0
M  V30 2884 C 275.89 -0.440064 -2.24936 0
M  V30 2885 C 276.89 0.444071 -1.54547 0
M  V30 2886 O 278.08 0.244465 -1.72476 0
M  V30 2887 C 275.212 0.36678 -3.38921 0
M  V30 2888 H 276.405 -1.305 -2.70018 0
M  V30 2889 H 273.958 -0.713707 -1.39054 0
M  V30 2890 H 274.693 1.25033 -2.99228 0
M  V30 2891 H 274.478 -0.267204 -3.91188 0
M  V30 2892 H 275.968 0.701567 -4.11665 0
M  V30 2893 N 276.405 1.4127 -0.698611 0
M  V30 2894 C 277.337 2.292 0.00399731 0
M  V30 2895 C 278.35 1.44944 0.741279 0
M  V30 2896 O 279.539 1.68416 0.591477 0
M  V30 2897 C 276.639 3.22875 1.02979 0
M  V30 2898 C 275.812 4.35904 0.36151 0
M  V30 2899 C 274.871 5.10134 1.29033 0
M  V30 2900 O 273.897 5.63809 0.781562 0
M  V30 2901 N 275.099 5.17885 2.6225 0
M  V30 2902 H 277.864 2.9014 -0.750921 0
M  V30 2903 H 275.425 1.52455 -0.544882 0
M  V30 2904 H 277.417 3.69404 1.65296 0
M  V30 2905 H 275.987 2.63221 1.68622 0
M  V30 2906 H 275.207 3.91719 -0.441584 0
M  V30 2907 H 276.495 5.08696 -0.103055 0
M  V30 2908 H 275.893 4.7573 3.061 0
M  V30 2909 H 274.45 5.6798 3.19754 0
M  V30 2910 N 277.883 0.443576 1.51229 0
M  V30 2911 C 278.846 -0.353132 2.26463 0
M  V30 2912 C 279.846 -0.944338 1.3015 0
M  V30 2913 O 281.036 -0.817813 1.5381 0
M  V30 2914 C 278.168 -1.50023 3.06114 0
M  V30 2915 H 279.361 0.3063 2.98332 0
M  V30 2916 H 276.914 0.196902 1.55055 0
M  V30 2917 H 277.649 -2.19553 2.38677 0
M  V30 2918 H 277.434 -1.08241 3.76864 0
M  V30 2919 H 278.924 -2.06296 3.63087 0
M  V30 2920 N 279.361 -1.56624 0.175154 0
M  V30 2921 C 280.638 -1.88688 -0.515373 0
M  V30 2922 C 281.018 -1.08564 -1.81044 0
M  V30 2923 O 280.366 -0.180703 -2.27784 0
M  V30 2924 C 280.576 -3.40768 -0.753552 0
M  V30 2925 C 281.924 -4.10587 -1.08184 0
M  V30 2926 O 282.948 -3.46106 -0.841961 0
M  V30 2927 O 281.807 -5.24512 -1.53459 0
M  V30 2928 H 278.901 -0.78301 -0.26613 0
M  V30 2929 H 281.447 -1.68347 0.213877 0
M  V30 2930 H 280.219 -3.90965 0.161829 0
M  V30 2931 H 279.842 -3.66733 -1.53598 0
M  V30 2932 N 280.839 0.0985539 -1.57292 0
M  V30 2933 C 281.802 1.10402 -2.00858 0
M  V30 2934 C 282.802 1.33146 -0.901593 0
M  V30 2935 O 283.992 1.29318 -1.16716 0
M  V30 2936 C 281.124 2.45394 -2.36632 0
M  V30 2937 H 282.317 0.729099 -2.90902 0
M  V30 2938 H 279.87 0.343495 -1.52479 0
M  V30 2939 H 280.605 2.87769 -1.49531 0
M  V30 2940 H 280.39 2.30235 -3.17387 0
M  V30 2941 H 281.88 3.17718 -2.71007 0
M  V30 2942 N 282.317 1.53212 0.369288 0
M  V30 2943 C 283.264 1.79388 1.45219 0
M  V30 2944 C 284.234 0.638059 1.53356 0
M  V30 2945 O 285.419 0.879852 1.69302 0
M  V30 2946 C 282.559 1.98623 2.82211 0
M  V30 2947 C 281.672 3.26337 2.8307 0
M  V30 2948 C 280.807 3.35779 4.11614 0
M  V30 2949 C 279.846 4.5754 4.06601 0
M  V30 2950 N 278.983 4.64155 5.26787 0
M  V30 2951 H 283.823 2.71794 1.22198 0
M  V30 2952 H 281.36 1.34642 0.592444 0
M  V30 2953 H 283.318 2.07761 3.61789 0
M  V30 2954 H 281.948 1.09558 3.03639 0
M  V30 2955 H 281 3.26171 1.95747 0
M  V30 2956 H 282.312 4.15988 2.75237 0
M  V30 2957 H 281.466 3.44208 4.99606 0
M  V30 2958 H 280.205 2.44137 4.22195 0
M  V30 2959 H 279.21 4.49215 3.16996 0
M  V30 2960 H 280.435 5.50519 3.97625 0
M  V30 2961 H 278.381 3.75413 5.3796 0
M  V30 2962 H 278.298 5.47706 5.21109 0
M  V30 2963 H 279.566 4.76863 6.16621 0
M  V30 2964 N 283.795 -0.628877 1.44509 0
M  V30 2965 C 284.758 -1.72263 1.51188 0
M  V30 2966 C 285.758 -1.55907 0.39367 0
M  V30 2967 O 286.948 -1.61361 0.656377 0
M  V30 2968 C 284.08 -3.11365 1.38798 0
M  V30 2969 H 285.273 -1.67714 2.4862 0
M  V30 2970 H 282.826 -0.842737 1.31634 0
M  V30 2971 H 283.561 -3.21507 0.424693 0
M  V30 2972 H 283.346 -3.24644 2.19884 0
M  V30 2973 H 284.836 -3.91075 1.46458 0
M  V30 2974 N 285.273 -1.31445 -0.869486 0
M  V30 2975 C 286.236 -1.19094 -1.9583 0
M  V30 2976 C 287.236 -0.117906 -1.60367 0
M  V30 2977 O 288.426 -0.367208 -1.70286 0
M  V30 2978 C 285.558 -0.828165 -3.30688 0
M  V30 2979 H 286.751 -2.15842 -2.08212 0
M  V30 2980 H 284.304 -1.15063 -1.05784 0
M  V30 2981 H 285.039 0.138142 -3.24006 0
M  V30 2982 H 284.824 -1.6038 -3.578 0
M  V30 2983 H 286.314 -0.765658 -4.10521 0
M  V30 2984 N 286.751 1.08385 -1.14413 0
M  V30 2985 C 288 1.80153 -0.907076 0
M  V30 2986 C 288.313 1.87176 0.567851 0
M  V30 2987 O 289.519 2.55359 0.922172 0
M  V30 2988 C 287.975 3.23687 -1.57336 0
M  V30 2989 C 287.583 3.24897 -3.08457 0
M  V30 2990 C 289.327 4.00136 -1.41744 0
M  V30 2991 C 287.234 4.6302 -3.67921 0
M  V30 2992 H 286.164 0.675139 -0.335714 0
M  V30 2993 H 288.815 1.21733 -1.37307 0
M  V30 2994 H 287.197 3.82234 -1.03505 0
M  V30 2995 H 288.371 2.76055 -3.68958 0
M  V30 2996 H 286.686 2.61943 -3.2369 0
M  V30 2997 H 289.283 5.02201 -1.83572 0
M  V30 2998 H 289.626 4.14709 -0.363576 0
M  V30 2999 H 290.159 3.48058 -1.92614 0
M  V30 3000 H 286.898 4.5365 -4.73161 0
M  V30 3001 H 286.418 5.12143 -3.12201 0
M  V30 3002 H 288.097 5.31994 -3.68227 0
M  V30 3003 N 288.23 0.939286 1.26551 0
M  V30 3004 C 289.507 0.5038 1.89001 0
M  V30 3005 C 289.887 -1.01854 1.84903 0
M  V30 3006 O 289.235 -1.87773 1.30206 0
M  V30 3007 C 289.445 1.063 3.32417 0
M  V30 3008 C 290.793 1.13051 4.09273 0
M  V30 3009 O 291.817 1.01345 3.41479 0
M  V30 3010 O 290.676 1.31233 5.30509 0
M  V30 3011 H 287.77 0.163897 0.810597 0
M  V30 3012 H 290.316 1.03173 1.34735 0
M  V30 3013 H 289.088 2.10665 3.29752 0
M  V30 3014 H 288.711 0.517408 3.94219 0
M  V30 3015 N 289.708 -1.40897 0.706093 0
M  V30 3016 C 290.933 -2.05895 0.249435 0
M  V30 3017 C 291.358 -1.52823 -1.09666 0
M  V30 3018 O 290.716 -0.659589 -1.68876 0
M  V30 3019 C 290.764 -3.59872 0.22904 0
M  V30 3020 O 289.868 -4.04708 -0.792784 0
M  V30 3021 H 289.209 -0.653206 0.119241 0
M  V30 3022 H 291.739 -1.80471 0.96391 0
M  V30 3023 H 291.749 -4.07951 0.0634791 0
M  V30 3024 H 290.424 -3.97866 1.21141 0
M  V30 3025 H 289.001 -3.68111 -0.59572 0
M  V30 3026 N 291.186 -0.45159 -1.50991 0
M  V30 3027 C 292.432 0.110237 -2.025 0
M  V30 3028 C 292.765 1.41109 -1.33424 0
M  V30 3029 O 292.04 1.89135 -0.453659 0
M  V30 3030 C 292.323 0.314271 -3.58726 0
M  V30 3031 C 292.176 -1.00623 -4.38401 0
M  V30 3032 C 293.495 1.07767 -4.26702 0
M  V30 3033 H 290.614 0.0385897 -0.735989 0
M  V30 3034 H 293.256 -0.593374 -1.80497 0
M  V30 3035 H 291.406 0.913601 -3.77605 0
M  V30 3036 H 293.078 -1.64064 -4.31139 0
M  V30 3037 H 291.321 -1.6075 -4.02917 0
M  V30 3038 H 291.992 -0.817341 -5.45915 0
M  V30 3039 H 294.468 0.56986 -4.12179 0
M  V30 3040 H 293.344 1.18921 -5.35863 0
M  V30 3041 H 293.605 2.10939 -3.88532 0
M  V30 3042 N 292.664 1.56529 -0.183458 0
M  V30 3043 C 293.91 1.97537 0.459036 0
M  V30 3044 C 294.243 1.06989 1.62071 0
M  V30 3045 O 293.518 0.11948 1.94133 0
M  V30 3046 C 293.801 3.47874 0.930368 0
M  V30 3047 C 293.654 4.492 -0.232317 0
M  V30 3048 C 294.973 4.01612 1.79989 0
M  V30 3049 H 292.092 0.718204 0.165383 0
M  V30 3050 H 294.734 1.88042 -0.272038 0
M  V30 3051 H 292.884 3.56095 1.55333 0
M  V30 3052 H 294.556 4.53027 -0.86972 0
M  V30 3053 H 292.799 4.24657 -0.885928 0
M  V30 3054 H 293.47 5.51823 0.139796 0
M  V30 3055 H 295.946 3.96097 1.27461 0
M  V30 3056 H 294.822 5.07195 2.09867 0
M  V30 3057 H 295.083 3.46163 2.74998 0
M  V30 3058 N 294.142 -0.090211 1.57342 0
M  V30 3059 C 295.105 -1.09335 2.01441 0
M  V30 3060 C 296.105 -1.32666 0.908641 0
M  V30 3061 O 297.295 -1.28697 1.174 0
M  V30 3062 C 294.427 -2.44136 2.3793 0
M  V30 3063 H 295.62 -0.713662 2.91285 0
M  V30 3064 H 293.173 -0.335404 1.52659 0
M  V30 3065 H 293.908 -2.86972 1.51055 0
M  V30 3066 H 293.693 -2.28548 3.18603 0
M  V30 3067 H 295.183 -3.16277 2.72688 0
M  V30 3068 N 295.62 -1.53406 -0.361157 0
M  V30 3069 C 296.583 -1.79479 -1.42548 0
M  V30 3070 C 297.583 -0.665327 -1.4639 0
M  V30 3071 O 298.773 -0.933549 -1.47073 0
M  V30 3072 C 295.905 -1.92087 -2.8163 0
M  V30 3073 H 297.098 -2.74538 -1.20701 0
M  V30 3074 H 294.651 -1.4455 -0.594546 0
M  V30 3075 H 295.386 -0.991099 -3.08784 0
M  V30 3076 H 295.171 -2.74241 -2.80239 0
M  V30 3077 H 296.661 -2.13836 -3.58697 0
M  V30 3078 O 297.137 0.507134 -1.53331 0
M  V30 3079 H 297.828 1.16207 -1.5497 0
M  V30 END ATOM
M  V30 BEGIN BOND
M  V30 END BOND
M  V30 END CTAB
M  END
$$$$
