drugbank_target|P67775 Serine/threonine-protein phosphatase 2A catalytic subunit alpha isoform (DB00163; DB02506; DB06905)
 OpenBabel12092120093D

  0  0  0     0  0            999 V3000
M  V30 BEGIN CTAB
M  V30 COUNTS 4911 4973 0 0 0
M  V30 BEGIN ATOM
M  V30 1 H -0.908 1.98254 -0.117106 0
M  V30 2 N 0 1.576 0 0
M  V30 3 C 0.933 2.03868 1.02534 0
M  V30 4 C 1.911 0.928543 1.3348 0
M  V30 5 O 3.095 1.19667 1.45644 0
M  V30 6 C 0.222 2.43627 2.35294 0
M  V30 7 C -0.732 3.65373 2.2001 0
M  V30 8 S 0.101 5.13292 1.52614 0
M  V30 9 C 1.257 5.56322 2.86805 0
M  V30 10 H 1.49 2.90518 0.631377 0
M  V30 11 H -0.977 1.52953 0.210867 0
M  V30 12 H 0.981 2.67203 3.11629 0
M  V30 13 H -0.358 1.57376 2.7183 0
M  V30 14 H -1.165 3.90944 3.18086 0
M  V30 15 H -1.563 3.418 1.51819 0
M  V30 16 H 0.729 5.58782 3.83104 0
M  V30 17 H 1.672 6.56266 2.65933 0
M  V30 18 H 2.08 4.83886 2.90714 0
M  V30 19 N 1.4781 -0.272755 1.55222 0
M  V30 20 C 2.7551 -1.02562 1.66555 0
M  V30 21 C 3.1351 -2.04282 0.532189 0
M  V30 22 O 2.4831 -2.23662 -0.467717 0
M  V30 23 C 2.6931 -1.6822 3.05782 0
M  V30 24 C 4.0411 -2.19373 3.63539 0
M  V30 25 O 5.0651 -1.78206 3.08417 0
M  V30 26 O 3.9241 -2.94883 4.60115 0
M  V30 27 H 1.0181 -0.475755 0.676451 0
M  V30 28 H 3.5641 -0.268593 1.67561 0
M  V30 29 H 2.3361 -0.945112 3.79715 0
M  V30 30 H 1.9591 -2.50609 3.08676 0
M  V30 31 N 2.9562 -1.48159 -0.537278 0
M  V30 32 C 3.8662 -1.64807 -1.6696 0
M  V30 33 C 4.8822 -0.530651 -1.65711 0
M  V30 34 O 6.0582 -0.800784 -1.84796 0
M  V30 35 C 3.1232 -1.67708 -3.03438 0
M  V30 36 C 2.1842 -2.91025 -3.156 0
M  V30 37 C 1.4172 -2.93778 -4.45567 0
M  V30 38 O 1.6402 -2.05153 -5.3223 0
M  V30 39 O 0.5742 -3.85868 -4.61941 0
M  V30 40 H 4.4002 -2.6066 -1.55853 0
M  V30 41 H 1.9852 -1.31475 -0.709549 0
M  V30 42 H 3.8672 -1.7218 -3.84619 0
M  V30 43 H 2.5422 -0.750278 -3.14885 0
M  V30 44 H 1.4492 -2.92089 -2.33741 0
M  V30 45 H 2.7822 -3.83065 -3.09066 0
M  V30 46 N 4.4343 0.785586 -1.36625 0
M  V30 47 C 5.3813 1.89838 -1.31264 0
M  V30 48 C 6.3513 1.65115 -0.180633 0
M  V30 49 O 7.5363 1.87222 -0.36777 0
M  V30 50 C 4.6763 3.26706 -1.11163 0
M  V30 51 C 3.7893 3.63476 -2.33472 0
M  V30 52 C 2.9243 4.89481 -2.06353 0
M  V30 53 C 1.9633 5.18941 -3.24602 0
M  V30 54 N 1.1003 6.36131 -2.97123 0
M  V30 55 H 5.9403 1.93756 -2.26413 0
M  V30 56 H 3.4773 0.947454 -1.12524 0
M  V30 57 H 5.4353 4.05639 -0.975337 0
M  V30 58 H 4.0653 3.222 -0.196674 0
M  V30 59 H 3.1173 2.79636 -2.57891 0
M  V30 60 H 4.4293 3.81193 -3.21704 0
M  V30 61 H 3.5833 5.76288 -1.89675 0
M  V30 62 H 2.3223 4.73841 -1.15437 0
M  V30 63 H 1.3273 4.30615 -3.41834 0
M  V30 64 H 2.5523 5.36498 -4.16349 0
M  V30 65 H 0.4983 6.21875 -2.08823 0
M  V30 66 H 0.4153 6.54198 -3.78894 0
M  V30 67 H 1.6833 7.2591 -2.84033 0
M  V30 68 N 5.9124 1.20967 1.01018 0
M  V30 69 C 7.1584 1.02526 1.74975 0
M  V30 70 C 7.4914 -0.4408 1.89131 0
M  V30 71 O 6.7664 -1.32718 1.42184 0
M  V30 72 C 7.0494 1.71699 3.1653 0
M  V30 73 C 6.9024 3.25791 3.10129 0
M  V30 74 C 8.2214 1.45531 4.15342 0
M  V30 75 H 5.3404 0.373863 0.635134 0
M  V30 76 H 7.9824 1.49071 1.17805 0
M  V30 77 H 6.1324 1.32128 3.65341 0
M  V30 78 H 7.8044 3.74697 2.69072 0
M  V30 79 H 6.0474 3.56363 2.47362 0
M  V30 80 H 6.7184 3.69353 4.10222 0
M  V30 81 H 9.1944 1.79872 3.75213 0
M  V30 82 H 8.0704 1.96453 5.1254 0
M  V30 83 H 8.3314 0.384237 4.40427 0
M  V30 84 N 7.3905 -1.2043 1.01659 0
M  V30 85 C 8.6375 -1.89797 0.705917 0
M  V30 86 C 8.9655 -1.78848 -0.764439 0
M  V30 87 O 8.2205 -1.16694 -1.57102 0
M  V30 88 C 8.5195 -3.40464 1.08714 0
M  V30 89 C 8.1855 -3.71614 2.5537 0
M  V30 90 C 6.8475 -3.79826 2.95441 0
M  V30 91 C 9.1995 -3.85915 3.50313 0
M  V30 92 C 6.5275 -3.99797 4.29394 0
M  V30 93 C 8.8795 -4.07396 4.83954 0
M  V30 94 C 7.5435 -4.13837 5.23732 0
M  V30 95 H 6.8135 -0.694518 0.258313 0
M  V30 96 H 9.4605 -1.42691 1.27717 0
M  V30 97 H 7.7655 -3.89385 0.434309 0
M  V30 98 H 9.4625 -3.92433 0.824461 0
M  V30 99 H 6.0525 -3.65822 2.23321 0
M  V30 100 H 10.2365 -3.78926 3.20513 0
M  V30 101 H 5.4925 -4.03018 4.59768 0
M  V30 102 H 9.6665 -4.17404 5.57447 0
M  V30 103 H 7.2935 -4.29064 6.27541 0
M  V30 104 N 8.8686 -0.792821 -1.36206 0
M  V30 105 C 10.0966 -0.378825 -2.03402 0
M  V30 106 C 10.5116 1.00586 -1.59774 0
M  V30 107 O 9.8686 1.64574 -0.788764 0
M  V30 108 C 9.9196 -0.43683 -3.58851 0
M  V30 109 O 9.6406 -1.76691 -4.00889 0
M  V30 110 C 11.1416 -0.0138943 -4.43298 0
M  V30 111 H 8.3616 -0.155673 -0.652692 0
M  V30 112 H 10.9056 -1.07261 -1.74113 0
M  V30 113 H 9.0606 0.208575 -3.86838 0
M  V30 114 H 9.4746 -1.72011 -4.95492 0
M  V30 115 H 10.9486 -0.105615 -5.51899 0
M  V30 116 H 11.4256 1.03915 -4.2673 0
M  V30 117 H 12.0316 -0.63192 -4.20579 0
M  V30 118 N 10.3467 1.47872 -0.545128 0
M  V30 119 C 11.2937 2.29849 0.2093 0
M  V30 120 C 12.2637 1.38313 0.919707 0
M  V30 121 O 13.4487 1.67277 0.917772 0
M  V30 122 C 10.5887 3.22019 1.24088 0
M  V30 123 C 9.7017 4.2864 0.537778 0
M  V30 124 C 8.8367 5.07973 1.5536 0
M  V30 125 C 7.8757 6.06381 0.8348 0
M  V30 126 N 7.0127 6.78717 1.79688 0
M  V30 127 H 11.8527 2.93845 -0.49591 0
M  V30 128 H 9.3897 1.44848 -0.256389 0
M  V30 129 H 11.3477 3.73868 1.85144 0
M  V30 130 H 9.9777 2.59914 1.91428 0
M  V30 131 H 9.0297 3.7994 -0.187046 0
M  V30 132 H 10.3417 4.98793 -0.0258907 0
M  V30 133 H 9.4957 5.63912 2.23803 0
M  V30 134 H 8.2347 4.37693 2.15118 0
M  V30 135 H 7.2397 5.49631 0.136388 0
M  V30 136 H 8.4647 6.78665 0.24313 0
M  V30 137 H 6.4107 6.11177 2.38326 0
M  V30 138 H 6.3277 7.44998 1.28505 0
M  V30 139 H 7.5957 7.39237 2.47282 0
M  V30 140 N 11.8248 0.280983 1.55075 0
M  V30 141 C 12.7348 -0.61388 2.26426 0
M  V30 142 C 13.7508 -1.16521 1.29224 0
M  V30 143 O 14.9268 -1.19426 1.62171 0
M  V30 144 C 11.9918 -1.7788 2.9759 0
M  V30 145 C 11.0528 -1.26355 4.10284 0
M  V30 146 C 10.2858 -2.37295 4.78045 0
M  V30 147 O 10.5088 -3.56777 4.45047 0
M  V30 148 O 9.4428 -2.05119 5.65871 0
M  V30 149 H 13.2688 -0.0356932 3.03679 0
M  V30 150 H 10.8538 0.0481686 1.49322 0
M  V30 151 H 12.7358 -2.45791 3.42293 0
M  V30 152 H 11.4108 -2.34397 2.23249 0
M  V30 153 H 10.3178 -0.550735 3.70024 0
M  V30 154 H 11.6508 -0.744065 4.86543 0
M  V30 155 N 13.3029 -1.57598 0.00835791 0
M  V30 156 C 14.2329 -2.1198 -0.979113 0
M  V30 157 C 15.2139 -1.03091 -1.35301 0
M  V30 158 O 16.3989 -1.30818 -1.43528 0
M  V30 159 C 13.5289 -2.62995 -2.26828 0
M  V30 160 C 12.4829 -3.76485 -2.03576 0
M  V30 161 C 11.8089 -4.13846 -3.38579 0
M  V30 162 C 13.1089 -5.0342 -1.39161 0
M  V30 163 H 14.8029 -2.94738 -0.526281 0
M  V30 164 H 12.3489 -1.41783 -0.251704 0
M  V30 165 H 14.3019 -2.99669 -2.96271 0
M  V30 166 H 13.0259 -1.7737 -2.7424 0
M  V30 167 H 11.6849 -3.40217 -1.36557 0
M  V30 168 H 11.3329 -3.25232 -3.83709 0
M  V30 169 H 11.0329 -4.90312 -3.23834 0
M  V30 170 H 12.5569 -4.53086 -4.09323 0
M  V30 171 H 13.9709 -5.37812 -1.98573 0
M  V30 172 H 12.3679 -5.84746 -1.34878 0
M  V30 173 H 13.4379 -4.83548 -0.361868 0
M  V30 174 N 14.781 0.264519 -1.55364 0
M  V30 175 C 16.058 1.01677 -1.67096 0
M  V30 176 C 16.438 2.03996 -0.543015 0
M  V30 177 O 15.786 2.23907 0.45585 0
M  V30 178 C 15.996 1.66596 -3.0667 0
M  V30 179 C 17.344 2.17442 -3.64697 0
M  V30 180 O 18.368 1.76568 -3.09358 0
M  V30 181 O 17.227 2.92439 -4.61673 0
M  V30 182 H 14.321 0.472161 -0.678965 0
M  V30 183 H 16.867 0.259703 -1.67701 0
M  V30 184 H 15.639 0.924962 -3.80211 0
M  V30 185 H 15.262 2.48968 -3.10001 0
M  V30 186 N 16.2591 1.48442 0.529413 0
M  V30 187 C 17.1911 1.59095 1.64989 0
M  V30 188 C 18.2041 0.475212 1.5571 0
M  V30 189 O 19.3931 0.746081 1.6216 0
M  V30 190 C 16.4931 1.50518 3.0364 0
M  V30 191 C 15.6661 2.77142 3.38395 0
M  V30 192 C 14.7251 2.62012 4.56329 0
M  V30 193 O 13.7511 3.35898 4.59522 0
M  V30 194 N 14.9531 1.71667 5.54536 0
M  V30 195 H 17.7181 2.55723 1.56287 0
M  V30 196 H 15.2791 1.45173 0.716697 0
M  V30 197 H 17.2711 1.38091 3.80412 0
M  V30 198 H 15.8411 0.618627 3.06418 0
M  V30 199 H 15.0611 3.0413 2.50796 0
M  V30 200 H 16.3491 3.61146 3.58401 0
M  V30 201 H 15.7471 1.10841 5.54735 0
M  V30 202 H 14.3041 1.65178 6.30523 0
M  V30 203 N 17.7372 -0.778329 1.37039 0
M  V30 204 C 18.9832 -1.53817 1.33086 0
M  V30 205 C 19.3382 -1.92208 -0.0860346 0
M  V30 206 O 18.6312 -1.60713 -1.04316 0
M  V30 207 C 18.8252 -2.81845 2.19768 0
M  V30 208 C 18.6542 -2.55967 3.69744 0
M  V30 209 C 17.4242 -2.50428 4.38878 0
M  V30 210 C 19.6222 -2.2441 4.62758 0
M  V30 211 N 17.6042 -2.16564 5.74433 0
M  V30 212 C 18.9752 -2.0063 5.86641 0
M  V30 213 C 21.0302 -2.1051 4.5121 0
M  V30 214 C 19.7332 -1.64354 7.00272 0
M  V30 215 C 21.7592 -1.75634 5.64718 0
M  V30 216 C 21.1212 -1.52709 6.87648 0
M  V30 217 H 17.2202 -0.563434 0.542279 0
M  V30 218 H 19.8042 -0.908617 1.72198 0
M  V30 219 H 17.9752 -3.42649 1.82883 0
M  V30 220 H 19.7072 -3.47682 2.07122 0
M  V30 221 H 16.4622 -2.66056 3.91805 0
M  V30 222 H 16.8862 -2.02348 6.46053 0
M  V30 223 H 21.5282 -2.26919 3.56746 0
M  V30 224 H 19.2462 -1.46683 7.94676 0
M  V30 225 H 22.8322 -1.65546 5.57751 0
M  V30 226 H 21.7122 -1.2612 7.73992 0
M  V30 227 N 19.2153 -1.21501 -1.00376 0
M  V30 228 C 20.4643 -1.02718 -1.73586 0
M  V30 229 C 20.7773 0.439589 -1.90596 0
M  V30 230 O 21.9833 0.746848 -2.61026 0
M  V30 231 C 20.4393 -1.78929 -3.1227 0
M  V30 232 C 20.0473 -3.29783 -3.03228 0
M  V30 233 C 21.7913 -1.68557 -3.89601 0
M  V30 234 C 19.6983 -3.98479 -4.36999 0
M  V30 235 H 18.6283 -0.380733 -0.650814 0
M  V30 236 H 21.2793 -1.45248 -1.1214 0
M  V30 237 H 19.6613 -1.29192 -3.74333 0
M  V30 238 H 20.8353 -3.86832 -2.50395 0
M  V30 239 H 19.1503 -3.40711 -2.39385 0
M  V30 240 H 21.7473 -2.17211 -4.88593 0
M  V30 241 H 22.0903 -0.644021 -4.11288 0
M  V30 242 H 22.6233 -2.15778 -3.34193 0
M  V30 243 H 19.3623 -5.02841 -4.20513 0
M  V30 244 H 18.8823 -3.46219 -4.89788 0
M  V30 245 H 20.5613 -4.03462 -5.05794 0
M  V30 246 N 20.6934 1.19889 -1.02296 0
M  V30 247 C 21.6034 2.26571 -0.608508 0
M  V30 248 C 22.6194 1.70299 0.356964 0
M  V30 249 O 23.7954 2.00235 0.216326 0
M  V30 250 C 20.8604 3.46677 0.0402814 0
M  V30 251 C 19.9214 4.18153 -0.97194 0
M  V30 252 C 19.1544 5.32525 -0.354016 0
M  V30 253 O 19.3774 5.64112 0.844604 0
M  V30 254 O 18.3114 5.92242 -1.07391 0
M  V30 255 H 22.1374 2.64251 -1.49684 0
M  V30 256 H 19.7224 1.26629 -0.792809 0
M  V30 257 H 21.6044 4.19475 0.402324 0
M  V30 258 H 20.2794 3.10858 0.902707 0
M  V30 259 H 19.1864 3.47499 -1.38546 0
M  V30 260 H 20.5194 4.57927 -1.80454 0
M  V30 261 N 22.1715 0.800033 1.35784 0
M  V30 262 C 23.1035 0.163596 2.28615 0
M  V30 263 C 24.1165 -0.633317 1.49976 0
M  V30 264 O 25.3055 -0.466754 1.72289 0
M  V30 265 C 22.4055 -0.790958 3.29541 0
M  V30 266 C 21.5785 -0.0418255 4.3738 0
M  V30 267 C 20.6375 -0.91389 5.18203 0
M  V30 268 O 19.6635 -0.367234 5.68014 0
M  V30 269 N 20.8655 -2.23682 5.35674 0
M  V30 270 H 23.6305 0.96105 2.83873 0
M  V30 271 H 21.1915 0.654894 1.48063 0
M  V30 272 H 23.1835 -1.37844 3.80501 0
M  V30 273 H 21.7535 -1.48925 2.74846 0
M  V30 274 H 20.9735 0.726813 3.87442 0
M  V30 275 H 22.2615 0.474719 5.06581 0
M  V30 276 H 21.6595 -2.70497 4.96838 0
M  V30 277 H 20.2165 -2.77369 5.89839 0
M  V30 278 N 23.6496 -1.47581 0.552962 0
M  V30 279 C 24.5796 -2.32762 -0.185451 0
M  V30 280 C 25.5606 -1.43527 -0.912905 0
M  V30 281 O 26.7456 -1.72388 -0.894201 0
M  V30 282 C 23.8756 -3.25219 -1.21859 0
M  V30 283 C 22.8296 -4.23661 -0.607864 0
M  V30 284 C 22.1556 -5.05413 -1.74533 0
M  V30 285 C 23.4556 -5.20481 0.435582 0
M  V30 286 H 25.1496 -2.94749 0.525684 0
M  V30 287 H 22.6956 -1.41738 0.254251 0
M  V30 288 H 24.6486 -3.8365 -1.7433 0
M  V30 289 H 23.3726 -2.61279 -1.95961 0
M  V30 290 H 22.0316 -3.66451 -0.104489 0
M  V30 291 H 21.6796 -4.3788 -2.47529 0
M  V30 292 H 21.3796 -5.72059 -1.34249 0
M  V30 293 H 22.9036 -5.66701 -2.27338 0
M  V30 294 H 24.3176 -5.733 -0.00290157 0
M  V30 295 H 22.7146 -5.95305 0.757067 0
M  V30 296 H 23.7846 -4.66217 1.33303 0
M  V30 297 N 25.1277 -0.289203 -1.54924 0
M  V30 298 C 26.0757 0.607966 -2.24514 0
M  V30 299 C 27.0697 1.14655 -1.24702 0
M  V30 300 O 28.2757 1.09856 -1.4259 0
M  V30 301 H 24.6507 0.21464 -0.720718 0
M  V30 302 H 26.6217 -0.00164182 -2.984 0
M  V30 303 C 25.3707 1.77406 -2.99036 0
M  V30 304 H 24.6937 1.36884 -3.75637 0
M  V30 305 H 26.1337 2.37814 -3.51028 0
M  V30 306 C 24.5927 2.67107 -2.05318 0
M  V30 307 O 25.1227 3.6787 -1.61353 0
M  V30 308 N 23.3287 2.34582 -1.71521 0
M  V30 309 H 22.8757 1.52688 -2.07471 0
M  V30 310 H 22.8337 2.94867 -1.0909 0
M  V30 311 N 26.6058 1.57591 -0.0167156 0
M  V30 312 C 27.5158 2.1291 0.98521 0
M  V30 313 C 28.5318 1.07834 1.36557 0
M  V30 314 O 29.7078 1.39826 1.44951 0
M  V30 315 C 26.7728 2.63512 2.25305 0
M  V30 316 C 25.8338 3.83256 1.93426 0
M  V30 317 C 25.0668 4.31435 3.14165 0
M  V30 318 O 25.2898 3.78851 4.26413 0
M  V30 319 O 24.2238 5.23416 2.97186 0
M  V30 320 H 28.0498 2.98772 0.544888 0
M  V30 321 H 25.6348 1.48012 0.203141 0
M  V30 322 H 27.5168 2.96183 2.99756 0
M  V30 323 H 26.1918 1.8074 2.68542 0
M  V30 324 H 25.0988 3.55531 1.16398 0
M  V30 325 H 26.4318 4.67153 1.55013 0
M  V30 326 N 28.0839 -0.256276 1.55502 0
M  V30 327 C 29.3239 -0.993081 1.78654 0
M  V30 328 C 29.6879 -1.8288 0.584724 0
M  V30 329 O 30.8889 -2.59665 0.694822 0
M  V30 330 C 29.1599 -1.83856 3.06483 0
M  V30 331 S 30.7189 -2.63573 3.5082 0
M  V30 332 H 27.5369 -0.334199 0.62756 0
M  V30 333 H 30.1389 -0.26184 1.93739 0
M  V30 334 H 28.8429 -1.21414 3.92029 0
M  V30 335 H 28.3739 -2.61271 2.94111 0
M  V30 336 H 30.3889 -3.86312 3.11412 0
M  V30 337 N 29.562 -1.4872 -0.521534 0
M  V30 338 C 30.509 -1.63871 -1.62527 0
M  V30 339 C 31.479 -0.480559 -1.58996 0
M  V30 340 O 32.664 -0.705085 -1.77294 0
M  V30 341 C 29.804 -1.69227 -3.00759 0
M  V30 342 C 28.917 -2.96207 -3.14461 0
M  V30 343 C 28.052 -2.92671 -4.43303 0
M  V30 344 C 27.091 -4.14318 -4.50563 0
M  V30 345 N 26.228 -4.0881 -5.70805 0
M  V30 346 H 31.068 -2.58123 -1.48918 0
M  V30 347 H 28.605 -1.28 -0.724878 0
M  V30 348 H 30.563 -1.70314 -3.80853 0
M  V30 349 H 29.193 -0.784586 -3.1312 0
M  V30 350 H 28.245 -3.04826 -2.27564 0
M  V30 351 H 29.557 -3.86192 -3.15686 0
M  V30 352 H 28.711 -2.92206 -5.31696 0
M  V30 353 H 27.45 -2.00429 -4.44612 0
M  V30 354 H 26.455 -4.15049 -3.60575 0
M  V30 355 H 27.68 -5.07729 -4.50986 0
M  V30 356 H 25.626 -3.19394 -5.72995 0
M  V30 357 H 25.543 -4.92509 -5.7356 0
M  V30 358 H 26.811 -4.12418 -6.61462 0
M  V30 359 N 31.0401 0.771051 -1.3745 0
M  V30 360 C 31.9721 1.89352 -1.29146 0
M  V30 361 C 32.9851 1.61477 -0.207124 0
M  V30 362 O 34.1741 1.72382 -0.463324 0
M  V30 363 C 31.2741 3.24596 -0.974195 0
M  V30 364 C 30.4471 3.80111 -2.16413 0
M  V30 365 C 29.5061 4.93832 -1.81703 0
M  V30 366 O 28.5321 5.09382 -2.54006 0
M  V30 367 N 29.7341 5.75483 -0.761573 0
M  V30 368 H 32.4991 1.96991 -2.25864 0
M  V30 369 H 30.0601 0.950191 -1.31084 0
M  V30 370 H 32.0521 3.98193 -0.722828 0
M  V30 371 H 30.6221 3.12454 -0.0955527 0
M  V30 372 H 29.8421 2.98284 -2.57721 0
M  V30 373 H 31.1301 4.13932 -2.95867 0
M  V30 374 H 30.5281 5.65469 -0.161609 0
M  V30 375 H 29.0851 6.49302 -0.570064 0
M  V30 376 N 32.5182 1.22032 0.997298 0
M  V30 377 C 33.4482 1.01065 2.10495 0
M  V30 378 C 34.4292 -0.0669542 1.69968 0
M  V30 379 O 35.6142 0.0943987 1.9397 0
M  V30 380 C 32.7442 0.582874 3.42374 0
M  V30 381 C 31.6982 1.60592 3.96729 0
M  V30 382 C 31.0242 1.03412 5.24605 0
M  V30 383 C 32.3242 2.99478 4.27914 0
M  V30 384 H 34.0182 1.93708 2.28292 0
M  V30 385 H 31.5642 0.932761 1.09707 0
M  V30 386 H 33.5172 0.423332 4.19268 0
M  V30 387 H 32.2412 -0.379213 3.24391 0
M  V30 388 H 30.9002 1.75316 3.21963 0
M  V30 389 H 30.5482 0.063518 5.0296 0
M  V30 390 H 30.2482 1.71754 5.61938 0
M  V30 391 H 31.7722 0.886066 6.04137 0
M  V30 392 H 33.1862 2.88153 4.95622 0
M  V30 393 H 31.5832 3.64903 4.76409 0
M  V30 394 H 32.6532 3.49742 3.3587 0
M  V30 395 N 33.9963 -1.19345 1.0293 0
M  V30 396 C 35.2213 -1.93538 0.745511 0
M  V30 397 C 35.6463 -1.75007 -0.689511 0
M  V30 398 O 35.0043 -1.05265 -1.47611 0
M  V30 399 C 35.0523 -3.43336 1.10239 0
M  V30 400 O 34.1563 -4.11806 0.221289 0
M  V30 401 H 33.4973 -0.604193 0.275404 0
M  V30 402 H 36.0273 -1.5141 1.37609 0
M  V30 403 H 36.0373 -3.94004 1.05947 0
M  V30 404 H 34.7123 -3.56146 2.14786 0
M  V30 405 H 33.2893 -3.715 0.322842 0
M  V30 406 N 35.4744 -0.807222 -1.35358 0
M  V30 407 C 36.3844 -0.219594 -2.3357 0
M  V30 408 C 37.4004 0.637734 -1.61892 0
M  V30 409 O 38.5764 0.549336 -1.93763 0
M  V30 410 C 35.6414 0.62158 -3.41083 0
M  V30 411 C 34.7024 -0.256315 -4.28534 0
M  V30 412 C 33.9354 0.544807 -5.30912 0
M  V30 413 O 34.1584 1.77944 -5.41934 0
M  V30 414 O 33.0924 -0.0646478 -6.01865 0
M  V30 415 H 36.9184 -1.03208 -2.85625 0
M  V30 416 H 34.5034 -0.569025 -1.38139 0
M  V30 417 H 36.3854 1.10067 -4.06772 0
M  V30 418 H 35.0604 1.41165 -2.91297 0
M  V30 419 H 33.9674 -0.782559 -3.65823 0
M  V30 420 H 35.3004 -1.01034 -4.81719 0
M  V30 421 N 36.9525 1.47285 -0.560781 0
M  V30 422 C 38.1775 2.07359 -0.0410566 0
M  V30 423 C 38.6025 1.41017 1.24483 0
M  V30 424 O 37.9605 0.486368 1.74654 0
M  V30 425 C 38.0085 3.6035 0.134123 0
M  V30 426 O 37.1125 3.94681 1.19587 0
M  V30 427 H 36.4535 0.661887 -0.0529291 0
M  V30 428 H 38.9835 1.89252 -0.777482 0
M  V30 429 H 38.9935 4.0652 0.347207 0
M  V30 430 H 37.6685 4.08034 -0.805047 0
M  V30 431 H 36.2455 3.60251 0.962987 0
M  V30 432 N 38.4306 0.297415 1.54768 0
M  V30 433 C 39.3626 -0.613881 2.20826 0
M  V30 434 C 40.3756 -1.10032 1.19987 0
M  V30 435 O 41.5646 -1.01839 1.46598 0
M  V30 436 C 38.6646 -1.852 2.83821 0
M  V30 437 C 37.8376 -1.50865 4.10559 0
M  V30 438 C 36.8966 -2.60154 4.57391 0
M  V30 439 O 35.9226 -2.25398 5.2267 0
M  V30 440 N 37.1246 -3.90629 4.29406 0
M  V30 441 H 39.8896 -0.048389 2.99661 0
M  V30 442 H 37.4506 0.11946 1.61459 0
M  V30 443 H 39.4426 -2.57652 3.12086 0
M  V30 444 H 38.0126 -2.32597 2.08847 0
M  V30 445 H 37.2326 -0.616925 3.89343 0
M  V30 446 H 38.5206 -1.25458 4.9309 0
M  V30 447 H 37.9186 -4.21677 3.77101 0
M  V30 448 H 36.4756 -4.59391 4.62388 0
M  V30 449 N 39.9087 -1.5758 0.0250728 0
M  V30 450 C 41.1547 -1.91917 -0.655413 0
M  V30 451 C 41.4877 -0.901433 -1.72011 0
M  V30 452 O 40.7627 0.0764069 -1.9435 0
M  V30 453 C 41.0457 -3.36751 -1.27558 0
M  V30 454 C 40.8987 -4.49258 -0.220719 0
M  V30 455 C 42.2177 -3.81469 -2.19475 0
M  V30 456 H 39.3367 -0.697925 -0.23679 0
M  V30 457 H 41.9787 -1.89825 0.0815036 0
M  V30 458 H 40.1287 -3.38664 -1.90365 0
M  V30 459 H 41.8007 -4.59478 0.409601 0
M  V30 460 H 40.0437 -4.31415 0.454264 0
M  V30 461 H 40.7147 -5.47618 -0.694175 0
M  V30 462 H 43.1907 -3.81266 -1.66659 0
M  V30 463 H 42.0667 -4.83512 -2.59822 0
M  V30 464 H 42.3277 -3.16744 -3.08424 0
M  V30 465 N 41.3868 0.248026 -1.55636 0
M  V30 466 C 42.3338 1.30707 -1.90222 0
M  V30 467 C 43.3038 1.47881 -0.756332 0
M  V30 468 O 44.4888 1.61883 -1.00988 0
M  V30 469 C 41.6288 2.65769 -2.20138 0
M  V30 470 C 40.7418 2.56612 -3.47526 0
M  V30 471 C 39.8768 3.8402 -3.67017 0
M  V30 472 C 38.9158 3.69476 -4.8801 0
M  V30 473 N 38.0528 4.88774 -5.04029 0
M  V30 474 H 42.8928 1.00512 -2.80538 0
M  V30 475 H 40.4298 0.485055 -1.38873 0
M  V30 476 H 42.3878 3.44386 -2.35487 0
M  V30 477 H 41.0178 2.94115 -1.33027 0
M  V30 478 H 40.0698 1.69571 -3.40514 0
M  V30 479 H 41.3818 2.41774 -4.36287 0
M  V30 480 H 40.5358 4.7108 -3.8232 0
M  V30 481 H 39.2748 4.01754 -2.76487 0
M  V30 482 H 38.2798 2.80799 -4.72686 0
M  V30 483 H 39.5048 3.53238 -5.8 0
M  V30 484 H 37.4508 5.0687 -4.16435 0
M  V30 485 H 37.3678 4.76562 -5.86877 0
M  V30 486 H 38.6358 5.77335 -5.23741 0
M  V30 487 N 42.8649 1.48995 0.513639 0
M  V30 488 C 44.0899 1.61792 1.29762 0
M  V30 489 C 44.5149 0.284475 1.85936 0
M  V30 490 O 43.8729 -0.746185 1.65232 0
M  V30 491 C 43.9209 2.67993 2.41272 0
M  V30 492 O 43.0249 2.26287 3.44772 0
M  V30 493 H 42.3659 0.541963 0.38363 0
M  V30 494 H 44.8959 1.95097 0.616307 0
M  V30 495 H 44.9059 2.89772 2.87221 0
M  V30 496 H 43.5809 3.64791 1.9975 0
M  V30 497 H 42.1579 2.14788 3.04829 0
M  V30 498 N 44.343 -0.763751 1.37857 0
M  V30 499 C 45.273 -1.89103 1.36975 0
M  V30 500 C 46.254 -1.68439 0.237152 0
M  V30 501 O 47.439 -1.8918 0.438713 0
M  V30 502 C 44.569 -3.26496 1.18395 0
M  V30 503 C 43.523 -3.61741 2.28751 0
M  V30 504 C 42.849 -4.97762 1.95286 0
M  V30 505 C 44.149 -3.67665 3.70972 0
M  V30 506 H 45.843 -1.90099 2.31307 0
M  V30 507 H 43.389 -0.91319 1.11341 0
M  V30 508 H 45.342 -4.05003 1.16406 0
M  V30 509 H 44.066 -3.25955 0.205215 0
M  V30 510 H 42.725 -2.85547 2.29909 0
M  V30 511 H 42.373 -4.93769 0.959221 0
M  V30 512 H 42.073 -5.22313 2.69189 0
M  V30 513 H 43.597 -5.7866 1.94898 0
M  V30 514 H 45.011 -4.36307 3.719 0
M  V30 515 H 43.408 -4.03718 4.43995 0
M  V30 516 H 44.478 -2.68134 4.0402 0
M  V30 517 N 45.8211 -1.22559 -0.990812 0
M  V30 518 C 47.0611 -1.06302 -1.74583 0
M  V30 519 C 47.4251 0.394737 -1.87898 0
M  V30 520 O 48.6261 0.678214 -2.60103 0
M  V30 521 C 46.8971 -1.75699 -3.11231 0
M  V30 522 S 48.4561 -1.74882 -4.02445 0
M  V30 523 H 45.2741 -0.380639 -0.600529 0
M  V30 524 H 47.8761 -1.55532 -1.18449 0
M  V30 525 H 46.5801 -2.80923 -2.99183 0
M  V30 526 H 46.1111 -1.26708 -3.72436 0
M  V30 527 H 48.1261 -0.799997 -4.89709 0
M  V30 528 N 47.2992 1.18797 -1.03562 0
M  V30 529 C 48.2092 2.25913 -0.632505 0
M  V30 530 C 49.2252 1.70668 0.338882 0
M  V30 531 O 50.4012 2.00453 0.195076 0
M  V30 532 C 47.4662 3.467 0.00350942 0
M  V30 533 C 46.5272 4.17098 -1.01624 0
M  V30 534 C 45.7602 5.32119 -0.410478 0
M  V30 535 O 45.9832 5.64976 0.784725 0
M  V30 536 O 44.9172 5.9107 -1.13667 0
M  V30 537 H 48.7432 2.62648 -1.52478 0
M  V30 538 H 46.3282 1.25781 -0.806195 0
M  V30 539 H 48.2102 4.19878 0.35781 0
M  V30 540 H 46.8852 3.11798 0.869686 0
M  V30 541 H 45.7922 3.4601 -1.42224 0
M  V30 542 H 47.1252 4.55987 -1.85301 0
M  V30 543 N 48.7773 0.814389 1.34928 0
M  V30 544 C 49.7243 0.22822 2.29669 0
M  V30 545 C 50.6943 -0.642164 1.53184 0
M  V30 546 O 51.8793 -0.585605 1.81591 0
M  V30 547 C 49.0193 -0.61089 3.3965 0
M  V30 548 C 48.1323 0.280792 4.31086 0
M  V30 549 C 47.2673 -0.567067 5.28165 0
M  V30 550 C 46.3063 0.324531 6.11239 0
M  V30 551 N 45.4433 -0.483756 7.00431 0
M  V30 552 H 50.2833 1.04153 2.79206 0
M  V30 553 H 47.8203 0.525133 1.37407 0
M  V30 554 H 49.7783 -1.11263 4.0209 0
M  V30 555 H 48.4083 -1.38939 2.91369 0
M  V30 556 H 47.4603 0.900688 3.69583 0
M  V30 557 H 48.7723 0.966723 4.89342 0
M  V30 558 H 47.9263 -1.13363 5.96015 0
M  V30 559 H 46.6653 -1.28654 4.70425 0
M  V30 560 H 45.6703 0.903298 5.42329 0
M  V30 561 H 46.8953 1.04198 6.71059 0
M  V30 562 H 44.8413 -1.18706 6.45171 0
M  V30 563 H 44.7583 0.143965 7.55863 0
M  V30 564 H 46.0263 -1.03334 7.7262 0
M  V30 565 N 50.2554 -1.46986 0.568584 0
M  V30 566 C 51.2184 -2.28624 -0.162366 0
M  V30 567 C 52.2184 -1.37596 -0.832103 0
M  V30 568 O 53.4084 -1.60115 -0.68622 0
M  V30 569 C 50.5404 -3.17596 -1.23878 0
M  V30 570 H 51.7334 -2.94722 0.554899 0
M  V30 571 H 49.2864 -1.52863 0.325976 0
M  V30 572 H 50.0214 -2.56214 -1.98808 0
M  V30 573 H 49.8064 -3.846 -0.763219 0
M  V30 574 H 51.2964 -3.79078 -1.75185 0
M  V30 575 N 51.7335 -0.305618 -1.54608 0
M  V30 576 C 52.6805 0.568421 -2.23691 0
M  V30 577 C 53.6505 1.12592 -1.22116 0
M  V30 578 O 54.8355 1.16959 -1.50749 0
M  V30 579 C 51.9755 1.7322 -2.98477 0
M  V30 580 C 51.0885 1.20566 -4.14835 0
M  V30 581 C 50.2235 2.33368 -4.77193 0
M  V30 582 C 49.2625 1.7787 -5.85686 0
M  V30 583 N 48.3995 2.84263 -6.4198 0
M  V30 584 H 53.2395 -0.0272867 -2.97988 0
M  V30 585 H 50.7765 -0.0252363 -1.47078 0
M  V30 586 H 52.7345 2.41675 -3.40072 0
M  V30 587 H 51.3645 2.29947 -2.26548 0
M  V30 588 H 50.4165 0.413223 -3.78149 0
M  V30 589 H 51.7285 0.759417 -4.92985 0
M  V30 590 H 50.8825 3.09761 -5.21664 0
M  V30 591 H 49.6215 2.8132 -3.98385 0
M  V30 592 H 48.6265 0.99968 -5.40635 0
M  V30 593 H 49.8515 1.30816 -6.66381 0
M  V30 594 H 47.7975 3.31541 -5.66053 0
M  V30 595 H 47.7145 2.44149 -7.15491 0
M  V30 596 H 48.9825 3.6054 -6.91109 0
M  V30 597 N 53.2116 1.57565 -0.0334293 0
M  V30 598 C 54.1216 2.13943 0.962572 0
M  V30 599 C 55.1376 1.09276 1.35406 0
M  V30 600 O 56.3136 1.41355 1.4346 0
M  V30 601 C 53.3786 2.65887 2.22497 0
M  V30 602 C 52.4396 3.85286 1.8935 0
M  V30 603 C 51.6726 4.34743 3.09571 0
M  V30 604 O 51.8956 3.83352 4.22371 0
M  V30 605 O 50.8296 5.26538 2.91618 0
M  V30 606 H 54.6556 2.99333 0.513169 0
M  V30 607 H 52.2406 1.4822 0.18743 0
M  V30 608 H 54.1226 2.99346 2.96598 0
M  V30 609 H 52.7976 1.83578 2.6661 0
M  V30 610 H 51.7046 3.56746 1.1262 0
M  V30 611 H 53.0376 4.68771 1.5005 0
M  V30 612 N 54.6897 -0.239769 1.55765 0
M  V30 613 C 55.9387 -0.964754 1.77131 0
M  V30 614 C 56.2517 -1.86213 0.59868 0
M  V30 615 O 57.4577 -2.6244 0.695522 0
M  V30 616 C 55.9137 -1.76552 3.1362 0
M  V30 617 C 55.5217 -0.915185 4.38553 0
M  V30 618 C 57.2657 -2.48281 3.44321 0
M  V30 619 C 55.1727 -1.71225 5.66071 0
M  V30 620 H 54.1027 -0.363953 0.660344 0
M  V30 621 H 56.7537 -0.219181 1.82186 0
M  V30 622 H 55.1357 -2.55331 3.02691 0
M  V30 623 H 56.3097 -0.169217 4.60489 0
M  V30 624 H 54.6247 -0.310889 4.15238 0
M  V30 625 H 57.2217 -3.08382 4.36812 0
M  V30 626 H 57.5647 -3.20256 2.65973 0
M  V30 627 H 58.0977 -1.76507 3.56497 0
M  V30 628 H 54.8367 -1.03612 6.4726 0
M  V30 629 H 54.3567 -2.43331 5.48224 0
M  V30 630 H 56.0357 -2.27758 6.05587 0
M  V30 631 N 56.1678 -1.49265 -0.50573 0
M  V30 632 C 57.0978 -1.68495 -1.61653 0
M  V30 633 C 58.0788 -0.53366 -1.61512 0
M  V30 634 O 59.2638 -0.76897 -1.78327 0
M  V30 635 C 56.3938 -1.74709 -3.00157 0
M  V30 636 C 55.3478 -2.89581 -3.15162 0
M  V30 637 C 54.6738 -2.80903 -4.5497 0
M  V30 638 C 55.9738 -4.30578 -2.95634 0
M  V30 639 H 57.6678 -2.61493 -1.45814 0
M  V30 640 H 55.2138 -1.25838 -0.70005 0
M  V30 641 H 57.1668 -1.86748 -3.77761 0
M  V30 642 H 55.8908 -0.783067 -3.17074 0
M  V30 643 H 54.5498 -2.77136 -2.39982 0
M  V30 644 H 54.1978 -1.82419 -4.68756 0
M  V30 645 H 53.8978 -3.57999 -4.65951 0
M  V30 646 H 55.4218 -2.94944 -5.34641 0
M  V30 647 H 56.8358 -4.4373 -3.63011 0
M  V30 648 H 55.2328 -5.0886 -3.18091 0
M  V30 649 H 56.3028 -4.45352 -1.91806 0
M  V30 650 N 57.6459 0.756429 -1.3826 0
M  V30 651 C 58.8739 1.54565 -1.3754 0
M  V30 652 C 59.2889 1.88767 0.0355331 0
M  V30 653 O 58.6459 1.52572 1.0014 0
M  V30 654 C 58.6969 2.84654 -2.22833 0
M  V30 655 O 58.4179 2.51912 -3.5843 0
M  V30 656 C 59.9189 3.78807 -2.30261 0
M  V30 657 H 57.1389 0.478353 -0.470553 0
M  V30 658 H 59.6829 0.936381 -1.81803 0
M  V30 659 H 57.8379 3.41965 -1.8204 0
M  V30 660 H 58.2519 3.35325 -4.03308 0
M  V30 661 H 59.7259 4.67045 -2.94233 0
M  V30 662 H 60.2029 4.19038 -1.31545 0
M  V30 663 H 60.8089 3.2742 -2.71433 0
M  V30 664 N 59.124 1.23083 0.984299 0
M  V30 665 C 60.071 1.00854 2.07598 0
M  V30 666 C 61.041 -0.0726709 1.65941 0
M  V30 667 O 62.226 0.0786535 1.90638 0
M  V30 668 C 59.366 0.601645 3.39815 0
M  V30 669 C 58.479 1.75456 3.94765 0
M  V30 670 C 57.614 1.29482 5.15177 0
M  V30 671 C 56.653 2.41873 5.62284 0
M  V30 672 N 55.79 1.96885 6.73929 0
M  V30 673 H 60.63 1.943 2.25946 0
M  V30 674 H 58.167 0.968001 1.10762 0
M  V30 675 H 60.125 0.346854 4.15756 0
M  V30 676 H 58.755 -0.295803 3.21442 0
M  V30 677 H 57.807 2.12346 3.15616 0
M  V30 678 H 59.119 2.59965 4.25699 0
M  V30 679 H 58.273 0.997923 5.98437 0
M  V30 680 H 57.012 0.420046 4.85888 0
M  V30 681 H 56.017 2.72342 4.77608 0
M  V30 682 H 57.242 3.29881 5.93595 0
M  V30 683 H 55.188 1.11782 6.46406 0
M  V30 684 H 55.105 2.74956 7.04227 0
M  V30 685 H 56.373 1.70289 7.60672 0
M  V30 686 N 60.6021 -1.18246 1.0419 0
M  V30 687 C 61.5121 -2.25574 0.644476 0
M  V30 688 C 62.5281 -1.70845 -0.329826 0
M  V30 689 O 63.7041 -2.00554 -0.184443 0
M  V30 690 C 60.7691 -3.46697 0.014877 0
M  V30 691 C 59.8301 -4.16554 1.03834 0
M  V30 692 C 59.0631 -5.31894 0.438692 0
M  V30 693 O 59.2861 -5.65385 -0.754752 0
M  V30 694 O 58.2201 -5.90459 1.168 0
M  V30 695 H 62.0461 -2.61836 1.53869 0
M  V30 696 H 59.6311 -1.25352 0.812854 0
M  V30 697 H 61.5131 -4.20062 -0.335538 0
M  V30 698 H 60.1881 -3.12255 -0.853138 0
M  V30 699 H 59.0951 -3.45251 1.44057 0
M  V30 700 H 60.4281 -4.54998 1.87716 0
M  V30 701 N 62.0802 -0.821533 -1.34494 0
M  V30 702 C 63.3052 -0.420873 -2.03085 0
M  V30 703 C 63.7302 0.964915 -1.61465 0
M  V30 704 O 63.0882 1.62763 -0.798607 0
M  V30 705 C 63.1362 -0.529414 -3.56693 0
M  V30 706 O 62.2402 0.451302 -4.09923 0
M  V30 707 H 61.5812 -0.173489 -0.640935 0
M  V30 708 H 64.1112 -1.11157 -1.71771 0
M  V30 709 H 64.1212 -0.404671 -4.05988 0
M  V30 710 H 62.7962 -1.54014 -3.86332 0
M  V30 711 H 61.3732 0.285558 -3.71805 0
M  V30 712 N 63.5583 1.46682 -0.576371 0
M  V30 713 C 64.5063 2.31953 0.17335 0
M  V30 714 C 65.5003 1.44098 0.89062 0
M  V30 715 O 66.7063 1.60759 0.809728 0
M  V30 716 H 63.0813 0.748273 0.0747727 0
M  V30 717 H 65.0523 2.93007 -0.564738 0
M  V30 718 C 63.8013 3.27142 1.17786 0
M  V30 719 H 63.1243 3.94719 0.635361 0
M  V30 720 H 64.5643 3.896 1.67296 0
M  V30 721 C 63.0233 2.52036 2.23561 0
M  V30 722 O 63.5533 2.27877 3.3081 0
M  V30 723 N 61.7593 2.12709 1.97998 0
M  V30 724 H 61.3063 2.32557 1.10792 0
M  V30 725 H 61.2643 1.62776 2.68982 0
M  V30 726 N 65.0364 0.313813 1.54444 0
M  V30 727 C 66.2824 -0.292108 2.00685 0
M  V30 728 C 66.6154 -1.52548 1.20177 0
M  V30 729 O 65.8904 -1.92452 0.281531 0
M  V30 730 C 66.1734 -0.635968 3.5444 0
M  V30 731 C 66.0264 0.607437 4.4568 0
M  V30 732 C 67.3454 -1.45747 4.15266 0
M  V30 733 H 64.4644 -0.104697 0.729526 0
M  V30 734 H 67.1064 0.428457 1.85106 0
M  V30 735 H 65.2564 -1.24986 3.67846 0
M  V30 736 H 66.9284 1.24581 4.44159 0
M  V30 737 H 65.1714 1.23822 4.15753 0
M  V30 738 H 65.8424 0.322515 5.51057 0
M  V30 739 H 68.3184 -0.938645 4.05375 0
M  V30 740 H 67.1944 -1.66683 5.2298 0
M  V30 741 H 67.4554 -2.45063 3.67963 0
M  V30 742 N 66.5145 -1.57545 0.0417849 0
M  V30 743 C 67.4465 -2.07904 -0.964799 0
M  V30 744 C 68.4595 -1.00497 -1.28079 0
M  V30 745 O 69.6485 -1.28087 -1.24322 0
M  V30 746 C 66.7485 -2.49928 -2.28887 0
M  V30 747 C 65.9215 -3.80562 -2.15619 0
M  V30 748 C 64.9805 -4.08999 -3.31069 0
M  V30 749 O 64.0065 -4.79061 -3.0739 0
M  V30 750 N 65.2085 -3.6017 -4.55256 0
M  V30 751 H 67.9735 -2.94886 -0.535029 0
M  V30 752 H 65.5345 -1.61252 -0.144681 0
M  V30 753 H 67.5265 -2.66034 -3.04972 0
M  V30 754 H 66.0965 -1.68245 -2.63463 0
M  V30 755 H 65.3165 -3.74129 -1.24183 0
M  V30 756 H 66.6045 -4.66126 -2.03971 0
M  V30 757 H 66.0025 -3.03512 -4.77386 0
M  V30 758 H 64.5595 -3.81532 -5.28466 0
M  V30 759 N 67.9926 0.231505 -1.5589 0
M  V30 760 C 68.9026 1.308 -1.94752 0
M  V30 761 C 69.9186 1.51826 -0.849989 0
M  V30 762 O 71.0946 1.6515 -1.15271 0
M  V30 763 C 68.1596 2.63968 -2.24771 0
M  V30 764 C 67.2206 2.51331 -3.48039 0
M  V30 765 C 66.4536 3.78148 -3.76616 0
M  V30 766 O 66.6766 4.80722 -3.07022 0
M  V30 767 O 65.6106 3.75857 -4.70123 0
M  V30 768 H 69.4366 1.0083 -2.86474 0
M  V30 769 H 67.0216 0.433547 -1.42971 0
M  V30 770 H 68.9036 3.42633 -2.45318 0
M  V30 771 H 67.5786 2.9364 -1.36225 0
M  V30 772 H 66.4856 1.709 -3.32782 0
M  V30 773 H 67.8186 2.26601 -4.36936 0
M  V30 774 N 69.4707 1.49531 0.497807 0
M  V30 775 C 70.7167 1.59415 1.25358 0
M  V30 776 C 71.0497 0.281422 1.9215 0
M  V30 777 O 70.3247 -0.715249 1.80871 0
M  V30 778 C 70.6077 2.75566 2.3181 0
M  V30 779 C 70.4607 4.16642 1.69498 0
M  V30 780 C 71.7797 2.87347 3.33346 0
M  V30 781 H 68.8987 0.580244 0.454408 0
M  V30 782 H 71.5407 1.81827 0.551262 0
M  V30 783 H 69.6907 2.56587 2.91711 0
M  V30 784 H 71.3627 4.47145 1.13399 0
M  V30 785 H 69.6057 4.22141 0.998978 0
M  V30 786 H 70.2767 4.93792 2.46725 0
M  V30 787 H 72.7527 3.04634 2.83438 0
M  V30 788 H 71.6287 3.70289 4.05188 0
M  V30 789 H 71.8897 1.96834 3.95865 0
M  V30 790 N 70.9488 -0.749086 1.3866 0
M  V30 791 C 72.3648 -1.05276 1.19955 0
M  V30 792 C 72.5648 -2.01435 0.05134 0
M  V30 793 O 71.6208 -2.45232 -0.60147 0
M  V30 794 C 72.9338 -1.62853 2.52783 0
M  V30 795 C 74.4818 -1.75002 2.59506 0
M  V30 796 C 74.9568 -2.35991 3.92521 0
M  V30 797 N 76.4478 -2.43416 3.94085 0
M  V30 798 C 77.1828 -2.91511 4.9377 0
M  V30 799 N 76.6788 -3.39608 6.03853 0
M  V30 800 N 78.4718 -2.90592 4.81157 0
M  V30 801 H 70.6228 -0.111066 2.12109 0
M  V30 802 H 72.8858 -0.111901 0.941373 0
M  V30 803 H 72.5918 -0.99664 3.37283 0
M  V30 804 H 72.4658 -2.61854 2.715 0
M  V30 805 H 74.8528 -2.37317 1.75398 0
M  V30 806 H 74.9338 -0.74693 2.44652 0
M  V30 807 H 74.5778 -1.74308 4.77053 0
M  V30 808 H 74.5078 -3.3695 4.04688 0
M  V30 809 H 76.9988 -2.09405 3.14576 0
M  V30 810 H 77.3118 -3.74775 6.75843 0
M  V30 811 H 75.6568 -3.37653 6.07466 0
M  V30 812 H 78.8478 -2.52332 3.94267 0
M  V30 813 H 79.0208 -3.27762 5.58996 0
M  V30 814 N 72.4269 -1.23603 -0.977757 0
M  V30 815 C 73.6669 -1.08148 -1.73446 0
M  V30 816 C 74.0309 0.374785 -1.88307 0
M  V30 817 O 75.2319 0.650588 -2.60808 0
M  V30 818 C 73.5029 -1.78991 -3.0935 0
M  V30 819 S 75.0619 -1.79141 -4.00567 0
M  V30 820 H 71.8799 -0.386987 -0.596458 0
M  V30 821 H 74.4819 -1.5678 -1.16792 0
M  V30 822 H 73.1859 -2.8408 -2.96187 0
M  V30 823 H 72.7169 -1.30651 -3.71071 0
M  V30 824 H 74.7319 -0.851892 -4.88833 0
M  V30 825 N 73.905 1.17692 -1.04816 0
M  V30 826 C 75.316 1.69501 -0.782698 0
M  V30 827 C 75.667 1.83456 0.695577 0
M  V30 828 O 74.792 1.51942 1.54086 0
M  V30 829 C 75.387 3.07874 -1.41419 0
M  V30 830 C 73.946 3.56864 -1.19686 0
M  V30 831 C 73.093 2.3322 -1.50012 0
M  V30 832 H 76.044 1.02262 -1.2136 0
M  V30 833 H 76.065 3.71528 -0.821428 0
M  V30 834 H 75.577 2.97685 -2.49009 0
M  V30 835 H 73.678 3.72337 -0.140043 0
M  V30 836 H 73.791 4.39851 -1.89916 0
M  V30 837 H 72.155 2.37501 -0.920071 0
M  V30 838 H 72.938 2.25644 -2.58727 0
M  V30 839 N 75.3831 0.828654 1.34056 0
M  V30 840 C 76.6291 0.42008 1.98402 0
M  V30 841 C 76.9621 -1.01564 1.65525 0
M  V30 842 O 76.2371 -1.70834 0.929831 0
M  V30 843 C 76.5201 0.62927 3.54559 0
M  V30 844 C 76.3731 2.11152 3.97159 0
M  V30 845 C 77.6921 0.0688756 4.40046 0
M  V30 846 H 74.8111 0.154104 0.720709 0
M  V30 847 H 77.4531 1.04228 1.5886 0
M  V30 848 H 75.6031 0.0996418 3.88372 0
M  V30 849 H 77.2751 2.70522 3.73651 0
M  V30 850 H 75.5181 2.59985 3.47261 0
M  V30 851 H 76.1891 2.20868 5.05887 0
M  V30 852 H 78.6651 0.521458 4.1282 0
M  V30 853 H 77.5411 0.245006 5.48353 0
M  V30 854 H 77.8021 -1.0266 4.30015 0
M  V30 855 N 76.8612 -1.46375 0.584142 0
M  V30 856 C 78.0892 -2.06761 0.0759296 0
M  V30 857 C 78.5042 -1.43266 -1.22965 0
M  V30 858 O 77.8612 -0.538458 -1.74376 0
M  V30 859 C 77.9122 -3.61375 -0.0950384 0
M  V30 860 O 77.6332 -4.22495 1.15887 0
M  V30 861 C 79.1342 -4.38693 -0.637434 0
M  V30 862 H 76.3542 -0.668479 0.0581075 0
M  V30 863 H 78.8982 -1.8798 0.805218 0
M  V30 864 H 77.0532 -3.79578 -0.774554 0
M  V30 865 H 77.4672 -5.15385 0.973598 0
M  V30 866 H 78.9412 -5.47464 -0.706237 0
M  V30 867 H 79.4182 -4.06836 -1.65472 0
M  V30 868 H 80.0242 -4.25299 0.00725967 0
M  V30 869 N 78.3393 -0.321999 -1.54275 0
M  V30 870 C 79.5853 0.281461 -2.00837 0
M  V30 871 C 79.9183 1.51909 -1.20985 0
M  V30 872 O 79.1933 1.923 -0.291733 0
M  V30 873 C 79.4763 0.617162 -3.54772 0
M  V30 874 C 79.3293 -0.631064 -4.45351 0
M  V30 875 C 80.6483 1.43542 -4.16033 0
M  V30 876 H 77.7673 0.100826 -0.730071 0
M  V30 877 H 80.4093 -0.438268 -1.84876 0
M  V30 878 H 78.5593 1.23034 -3.68504 0
M  V30 879 H 80.2313 -1.26934 -4.43492 0
M  V30 880 H 78.4743 -1.26025 -4.15091 0
M  V30 881 H 79.1453 -0.351735 -5.50878 0
M  V30 882 H 81.6213 0.917134 -4.05867 0
M  V30 883 H 80.4973 1.63907 -5.23856 0
M  V30 884 H 80.7583 2.43108 -3.69257 0
M  V30 885 N 79.8174 1.5752 -0.0501392 0
M  V30 886 C 81.0574 1.94521 0.627783 0
M  V30 887 C 81.4214 0.928265 1.68069 0
M  V30 888 O 82.6224 1.18517 2.41261 0
M  V30 889 C 80.8934 3.36319 1.20932 0
M  V30 890 S 82.4524 3.95272 1.90539 0
M  V30 891 H 79.2704 0.680456 0.206158 0
M  V30 892 H 81.8724 1.95139 -0.118829 0
M  V30 893 H 80.5764 4.08132 0.430865 0
M  V30 894 H 80.1074 3.39193 1.99277 0
M  V30 895 H 82.1224 3.80415 3.18589 0
M  V30 896 N 81.2955 -0.223234 1.56011 0
M  V30 897 C 82.5435 -0.946003 1.78592 0
M  V30 898 C 82.8645 -1.84936 0.618349 0
M  V30 899 O 82.1345 -1.92473 -0.364833 0
M  V30 900 H 80.7145 -0.352298 0.658707 0
M  V30 901 H 83.3765 -0.235494 1.93472 0
M  V30 902 H 82.4725 -1.55381 2.70672 0
M  V30 903 N 82.7736 -1.49793 -0.48987 0
M  V30 904 C 84.0506 -1.50348 -1.25119 0
M  V30 905 C 84.4306 -0.237466 -2.0976 0
M  V30 906 O 83.7786 0.77981 -2.14782 0
M  V30 907 C 83.9886 -2.78872 -2.09837 0
M  V30 908 C 85.3366 -3.288 -2.68655 0
M  V30 909 O 86.3606 -2.80065 -2.20096 0
M  V30 910 O 85.2196 -4.13707 -3.57083 0
M  V30 911 H 82.3136 -0.602242 -0.566775 0
M  V30 912 H 84.8596 -1.62067 -0.503229 0
M  V30 913 H 83.6316 -3.62499 -1.47343 0
M  V30 914 H 83.2546 -2.70066 -2.91805 0
M  V30 915 N 84.2517 0.741722 -1.39055 0
M  V30 916 C 85.4977 1.50336 -1.36113 0
M  V30 917 C 85.8307 1.94148 0.0450796 0
M  V30 918 O 85.1057 1.66301 1.00868 0
M  V30 919 C 85.3887 2.74773 -2.32749 0
M  V30 920 C 85.2417 2.37023 -3.82283 0
M  V30 921 C 86.5607 3.76846 -2.27322 0
M  V30 922 H 83.6797 0.545351 -0.495743 0
M  V30 923 H 86.3217 0.848624 -1.69995 0
M  V30 924 H 84.4717 3.30639 -2.03986 0
M  V30 925 H 86.1437 1.8684 -4.21768 0
M  V30 926 H 84.3867 1.69334 -3.99385 0
M  V30 927 H 85.0577 3.26104 -4.45376 0
M  V30 928 H 87.5337 3.30548 -2.5274 0
M  V30 929 H 86.4097 4.6159 -2.97028 0
M  V30 930 H 86.6707 4.23286 -1.27599 0
M  V30 931 N 85.7298 1.2412 0.971189 0
M  V30 932 C 86.6798 0.997551 2.05019 0
M  V30 933 C 87.6638 -0.0597747 1.60789 0
M  V30 934 O 88.8558 0.153516 1.76333 0
M  V30 935 C 85.9848 0.600557 3.38006 0
M  V30 936 C 85.0708 1.69377 3.88809 0
M  V30 937 N 85.4618 2.92586 4.12586 0
M  V30 938 C 83.7598 1.57048 4.17435 0
M  V30 939 C 84.4608 3.63431 4.54195 0
M  V30 940 N 83.4368 2.90979 4.59165 0
M  V30 941 H 87.2388 1.93316 2.21374 0
M  V30 942 H 84.7528 1.14194 1.1547 0
M  V30 943 H 86.7498 0.40725 4.14906 0
M  V30 944 H 85.4098 -0.327903 3.2304 0
M  V30 945 H 86.4208 3.288 4.00139 0
M  V30 946 H 83.0978 0.709798 4.11422 0
M  V30 947 H 84.4878 4.69102 4.81033 0
M  V30 948 N 87.2079 -1.17134 1.05439 0
M  V30 949 C 88.4559 -1.87085 0.764429 0
M  V30 950 C 88.7769 -1.81584 -0.710787 0
M  V30 951 O 88.0469 -1.24349 -1.51374 0
M  V30 952 H 86.6269 -0.692627 0.279779 0
M  V30 953 H 89.2889 -1.42087 1.33406 0
M  V30 954 H 88.3849 -2.92759 1.0816 0
M  V30 955 N 88.686 -0.835752 -1.33615 0
M  V30 956 C 89.618 -0.224151 -2.28101 0
M  V30 957 C 90.631 0.593331 -1.51603 0
M  V30 958 O 91.82 0.420911 -1.73466 0
M  V30 959 C 88.92 0.703309 -3.31522 0
M  V30 960 C 88.093 -0.0741528 -4.37337 0
M  V30 961 C 87.152 0.776176 -5.20444 0
M  V30 962 O 86.178 0.216506 -5.68788 0
M  V30 963 N 87.38 2.09401 -5.41416 0
M  V30 964 H 90.145 -1.03598 -2.81225 0
M  V30 965 H 87.706 -0.69392 -1.46275 0
M  V30 966 H 89.698 1.27707 -3.84022 0
M  V30 967 H 88.268 1.41585 -2.78698 0
M  V30 968 H 87.488 -0.82928 -3.85378 0
M  V30 969 H 88.776 -0.608863 -5.05144 0
M  V30 970 H 88.174 2.57229 -5.03835 0
M  V30 971 H 86.731 2.61633 -5.96985 0
M  V30 972 N 90.1641 1.46063 -0.591896 0
M  V30 973 C 91.4111 2.02338 -0.0809991 0
M  V30 974 C 91.7391 1.46228 1.28249 0
M  V30 975 O 90.9941 0.620818 1.85592 0
M  V30 976 C 91.2931 3.57391 0.0249813 0
M  V30 977 C 90.9591 4.32583 -1.27211 0
M  V30 978 C 89.6211 4.52844 -1.62745 0
M  V30 979 C 91.9731 4.75687 -2.13005 0
M  V30 980 C 89.3011 5.13462 -2.83855 0
M  V30 981 C 91.6531 5.37644 -3.3335 0
M  V30 982 C 90.3171 5.5613 -3.69155 0
M  V30 983 H 89.5871 0.740407 -0.0296397 0
M  V30 984 H 92.2341 1.75321 -0.770374 0
M  V30 985 H 90.5391 3.83597 0.797537 0
M  V30 986 H 92.2361 3.98621 0.436184 0
M  V30 987 H 88.8261 4.17116 -0.985499 0
M  V30 988 H 93.0101 4.59782 -1.86855 0
M  V30 989 H 88.2661 5.25965 -3.11722 0
M  V30 990 H 92.4401 5.7 -4.00092 0
M  V30 991 H 90.0671 6.0287 -4.63089 0
M  V30 992 N 91.6422 0.330177 1.54103 0
M  V30 993 C 92.5922 -0.548456 2.21305 0
M  V30 994 C 93.5762 -1.07651 1.19583 0
M  V30 995 O 94.7682 -1.01243 1.45186 0
M  V30 996 C 91.8972 -1.70559 2.97934 0
M  V30 997 C 90.9832 -1.19212 4.07 0
M  V30 998 N 91.3742 -0.398831 5.04225 0
M  V30 999 C 89.6722 -1.47024 4.2107 0
M  V30 1000 C 90.3732 -0.121761 5.81573 0
M  V30 1001 N 89.3492 -0.709722 5.38947 0
M  V30 1002 H 93.1512 0.0648483 2.93828 0
M  V30 1003 H 90.6652 0.136363 1.61826 0
M  V30 1004 H 92.6622 -2.34688 3.44568 0
M  V30 1005 H 91.3222 -2.32231 2.26934 0
M  V30 1006 H 92.3332 -0.0410869 5.17884 0
M  V30 1007 H 89.0102 -2.09232 3.61287 0
M  V30 1008 H 90.4002 0.517298 6.69906 0
M  V30 1009 N 93.1203 -1.57491 0.0584922 0
M  V30 1010 C 94.3973 -1.84346 -0.653918 0
M  V30 1011 C 94.7773 -0.948355 -1.88599 0
M  V30 1012 O 94.1253 -0.0112403 -2.28497 0
M  V30 1013 C 94.3353 -3.34239 -1.00425 0
M  V30 1014 C 95.6833 -4.01431 -1.38342 0
M  V30 1015 O 96.7073 -3.38907 -1.09637 0
M  V30 1016 O 95.5663 -5.11683 -1.91943 0
M  V30 1017 H 92.6603 -0.761112 -0.323478 0
M  V30 1018 H 95.2063 -1.6947 0.0884125 0
M  V30 1019 H 93.9783 -3.91089 -0.128625 0
M  V30 1020 H 93.6013 -3.54329 -1.80378 0
M  V30 1021 N 94.5984 0.214957 -1.56127 0
M  V30 1022 C 95.5284 1.2695 -1.95974 0
M  V30 1023 C 96.5094 1.48539 -0.828868 0
M  V30 1024 O 97.6944 1.60611 -1.09168 0
M  V30 1025 C 94.8244 2.61794 -2.28214 0
M  V30 1026 C 93.7784 2.54851 -3.43853 0
M  V30 1027 C 93.1044 3.93785 -3.61715 0
M  V30 1028 C 94.4044 2.09065 -4.78632 0
M  V30 1029 H 96.0984 0.93846 -2.84312 0
M  V30 1030 H 93.6444 0.449996 -1.36788 0
M  V30 1031 H 95.5974 3.35731 -2.54682 0
M  V30 1032 H 94.3214 2.96599 -1.36736 0
M  V30 1033 H 92.9804 1.8337 -3.17444 0
M  V30 1034 H 92.6284 4.25908 -2.67602 0
M  V30 1035 H 92.3284 3.90019 -4.39498 0
M  V30 1036 H 93.8524 4.69374 -3.90539 0
M  V30 1037 H 95.2664 2.7275 -5.04262 0
M  V30 1038 H 93.6634 2.16346 -5.59745 0
M  V30 1039 H 94.7334 1.04315 -4.73547 0
M  V30 1040 N 96.0765 1.50051 0.48192 0
M  V30 1041 C 97.0095 1.62749 1.59963 0
M  V30 1042 C 97.9875 0.475903 1.5548 0
M  V30 1043 O 99.1715 0.693986 1.7526 0
M  V30 1044 C 96.2985 1.60008 2.98522 0
M  V30 1045 C 95.3445 2.80596 3.21198 0
M  V30 1046 S 96.1775 4.42038 3.02262 0
M  V30 1047 C 97.3335 4.41973 4.43182 0
M  V30 1048 H 97.5665 2.57296 1.4895 0
M  V30 1049 H 95.0995 1.39179 0.668477 0
M  V30 1050 H 97.0575 1.59112 3.78409 0
M  V30 1051 H 95.7185 0.667153 3.06933 0
M  V30 1052 H 94.9115 2.74952 4.22395 0
M  V30 1053 H 94.5135 2.79003 2.49065 0
M  V30 1054 H 96.8055 4.14868 5.35622 0
M  V30 1055 H 97.7485 5.43512 4.53873 0
M  V30 1056 H 98.1565 3.71812 4.24755 0
M  V30 1057 N 97.5546 -0.734337 1.39446 0
M  V30 1058 C 98.4646 -1.87879 1.40495 0
M  V30 1059 C 99.4806 -1.714 0.299672 0
M  V30 1060 O 100.657 -1.93991 0.541249 0
M  V30 1061 C 97.7216 -3.23477 1.24754 0
M  V30 1062 C 96.7826 -3.52344 2.45259 0
M  V30 1063 C 96.0156 -4.81473 2.30259 0
M  V30 1064 O 96.2386 -5.55237 1.30643 0
M  V30 1065 O 95.1726 -5.10254 3.19256 0
M  V30 1066 H 98.9986 -1.89949 2.36966 0
M  V30 1067 H 96.5836 -0.882243 1.20569 0
M  V30 1068 H 98.4656 -4.04509 1.18111 0
M  V30 1069 H 97.1406 -3.22176 0.313781 0
M  V30 1070 H 96.0476 -2.71396 2.57478 0
M  V30 1071 H 97.3806 -3.58426 3.37331 0
M  V30 1072 N 99.0327 -1.24633 -0.964593 0
M  V30 1073 C 99.9627 -1.06611 -2.07741 0
M  V30 1074 C 100.944 0.0218666 -1.70086 0
M  V30 1075 O 102.129 -0.145793 -1.93652 0
M  V30 1076 C 99.2587 -0.673444 -3.40708 0
M  V30 1077 C 98.2127 -1.71054 -3.92332 0
M  V30 1078 C 97.5387 -1.17285 -5.21678 0
M  V30 1079 C 98.8387 -3.10718 -4.19824 0
M  V30 1080 H 100.533 -1.99693 -2.23076 0
M  V30 1081 H 98.0787 -0.96152 -1.07195 0
M  V30 1082 H 100.032 -0.534345 -4.17998 0
M  V30 1083 H 98.7557 0.293073 -3.25282 0
M  V30 1084 H 97.4147 -1.83791 -3.17201 0
M  V30 1085 H 97.0627 -0.196847 -5.02615 0
M  V30 1086 H 96.7627 -1.86592 -5.57187 0
M  V30 1087 H 98.2867 -1.04593 -6.01575 0
M  V30 1088 H 99.7007 -3.01192 -4.87808 0
M  V30 1089 H 98.0977 -3.77406 -4.66567 0
M  V30 1090 H 99.1677 -3.58524 -3.26479 0
M  V30 1091 N 100.511 1.16574 -1.06058 0
M  V30 1092 C 101.758 1.87047 -0.775873 0
M  V30 1093 C 102.086 1.81562 0.697534 0
M  V30 1094 O 101.341 1.22445 1.52662 0
M  V30 1095 C 101.64 3.36195 -1.21275 0
M  V30 1096 C 101.306 3.6188 -2.68986 0
M  V30 1097 C 99.9678 3.68599 -3.09335 0
M  V30 1098 C 102.32 3.72648 -3.64394 0
M  V30 1099 C 99.6478 3.83584 -4.43937 0
M  V30 1100 C 102 3.89154 -4.98741 0
M  V30 1101 C 100.664 3.94114 -5.3873 0
M  V30 1102 H 99.9338 0.684452 -0.283912 0
M  V30 1103 H 102.581 1.37853 -1.32925 0
M  V30 1104 H 100.886 3.87505 -0.578528 0
M  V30 1105 H 102.583 3.89103 -0.969542 0
M  V30 1106 H 99.1728 3.57281 -2.36744 0
M  V30 1107 H 103.357 3.66769 -3.34356 0
M  V30 1108 H 98.6128 3.85677 -4.74409 0
M  V30 1109 H 102.787 3.96427 -5.72554 0
M  V30 1110 H 100.414 4.05478 -6.43033 0
M  V30 1111 N 101.989 0.842826 1.3317 0
M  V30 1112 C 103.405 0.531128 1.50503 0
M  V30 1113 C 103.605 -0.940734 1.78192 0
M  V30 1114 O 102.661 -1.72436 1.84451 0
M  V30 1115 C 103.974 1.40789 2.65705 0
M  V30 1116 C 105.522 1.40708 2.79589 0
M  V30 1117 C 105.997 2.26878 3.97857 0
M  V30 1118 N 107.488 2.24609 4.05099 0
M  V30 1119 C 108.223 2.88019 4.95815 0
M  V30 1120 N 107.719 3.60496 5.9162 0
M  V30 1121 N 109.512 2.77469 4.88843 0
M  V30 1122 H 101.663 1.79557 1.1346 0
M  V30 1123 H 103.926 0.766267 0.558156 0
M  V30 1124 H 103.632 2.454 2.51936 0
M  V30 1125 H 103.506 1.08677 3.61205 0
M  V30 1126 H 105.893 0.368668 2.92788 0
M  V30 1127 H 105.974 1.76829 1.84838 0
M  V30 1128 H 105.618 3.3078 3.85418 0
M  V30 1129 H 105.548 1.88096 4.91861 0
M  V30 1130 H 108.039 1.71906 3.36536 0
M  V30 1131 H 108.352 4.06076 6.57512 0
M  V30 1132 H 106.697 3.64604 5.91683 0
M  V30 1133 H 109.888 2.20406 4.12963 0
M  V30 1134 H 110.061 3.2717 5.59342 0
M  V30 1135 N 103.467 -1.45747 0.599634 0
M  V30 1136 C 104.716 -2.01502 0.0893511 0
M  V30 1137 C 105.029 -1.4748 -1.28488 0
M  V30 1138 O 106.235 -1.95161 -1.88745 0
M  V30 1139 C 104.691 -3.59735 0.109082 0
M  V30 1140 C 104.299 -4.22754 1.48267 0
M  V30 1141 C 106.043 -4.23085 -0.346374 0
M  V30 1142 C 103.95 -5.73115 1.45921 0
M  V30 1143 H 102.88 -0.753417 0.0296347 0
M  V30 1144 H 105.531 -1.67303 0.753788 0
M  V30 1145 H 103.913 -3.91087 -0.621854 0
M  V30 1146 H 105.087 -4.02987 2.23468 0
M  V30 1147 H 103.402 -3.71567 1.87955 0
M  V30 1148 H 105.999 -5.33327 -0.38298 0
M  V30 1149 H 106.342 -3.93201 -1.36743 0
M  V30 1150 H 106.875 -3.9642 0.331038 0
M  V30 1151 H 103.614 -6.07685 2.45762 0
M  V30 1152 H 103.134 -5.95097 0.749665 0
M  V30 1153 H 104.813 -6.3616 1.17941 0
M  V30 1154 N 104.945 -0.338344 -1.53925 0
M  V30 1155 C 106.193 0.259245 -2.0043 0
M  V30 1156 C 106.514 1.51484 -1.22791 0
M  V30 1157 O 105.784 1.93037 -0.33368 0
M  V30 1158 H 104.364 0.0987845 -0.740439 0
M  V30 1159 H 107.026 -0.458302 -1.89435 0
M  V30 1160 H 106.122 0.505334 -3.07982 0
M  V30 1161 N 106.423 1.57458 -0.0668435 0
M  V30 1162 C 107.671 1.92919 0.602214 0
M  V30 1163 C 107.992 0.947215 1.70449 0
M  V30 1164 O 107.262 -0.00544117 1.95899 0
M  V30 1165 H 105.842 0.71217 0.22544 0
M  V30 1166 H 108.504 1.94508 -0.123535 0
M  V30 1167 H 107.6 2.94589 1.03073 0
M  V30 1168 N 107.901 -0.206675 1.56239 0
M  V30 1169 C 108.848 -1.25617 1.93621 0
M  V30 1170 C 109.818 -1.45824 0.795274 0
M  V30 1171 O 111.003 -1.59148 1.05245 0
M  V30 1172 C 108.143 -2.59839 2.27107 0
M  V30 1173 C 107.256 -2.47308 3.54207 0
M  V30 1174 C 106.391 -3.74155 3.7707 0
M  V30 1175 C 105.43 -3.56407 4.97635 0
M  V30 1176 N 104.567 -4.75238 5.1681 0
M  V30 1177 H 109.407 -0.930383 2.83104 0
M  V30 1178 H 106.944 -0.448065 1.4011 0
M  V30 1179 H 108.902 -3.38021 2.44535 0
M  V30 1180 H 107.532 -2.90485 1.40778 0
M  V30 1181 H 106.584 -1.60483 3.4489 0
M  V30 1182 H 107.896 -2.30122 4.42544 0
M  V30 1183 H 107.05 -4.60778 3.94675 0
M  V30 1184 H 105.789 -3.94282 2.87042 0
M  V30 1185 H 104.794 -2.68168 4.79964 0
M  V30 1186 H 106.019 -3.37736 5.89161 0
M  V30 1187 H 103.965 -4.95651 4.29728 0
M  V30 1188 H 103.882 -4.60835 5.99306 0
M  V30 1189 H 105.15 -5.63246 5.38864 0
M  V30 1190 N 109.379 -1.50304 -0.473955 0
M  V30 1191 C 110.604 -1.65175 -1.25427 0
M  V30 1192 C 111.029 -0.333673 -1.85117 0
M  V30 1193 O 110.387 0.702114 -1.67153 0
M  V30 1194 C 110.435 -2.74295 -2.34082 0
M  V30 1195 O 109.539 -2.35349 -3.38651 0
M  V30 1196 H 108.88 -0.551944 -0.369126 0
M  V30 1197 H 111.41 -1.96662 -0.564364 0
M  V30 1198 H 111.42 -2.97285 -2.79438 0
M  V30 1199 H 110.095 -3.69959 -1.90008 0
M  V30 1200 H 108.672 -2.22794 -2.99027 0
M  V30 1201 N 110.857 0.726932 -1.39834 0
M  V30 1202 C 112.268 1.30558 -1.3346 0
M  V30 1203 C 112.619 1.962 -0.00273003 0
M  V30 1204 O 111.744 1.96826 0.899371 0
M  V30 1205 C 112.339 2.37404 -2.41713 0
M  V30 1206 C 110.898 2.90921 -2.38835 0
M  V30 1207 C 110.045 1.64578 -2.2318 0
M  V30 1208 H 112.996 0.523862 -1.49804 0
M  V30 1209 H 113.017 3.17984 -2.08966 0
M  V30 1210 H 112.529 1.89599 -3.38635 0
M  V30 1211 H 110.63 3.42985 -1.45575 0
M  V30 1212 H 110.743 3.43487 -3.33997 0
M  V30 1213 H 109.107 1.89219 -1.70494 0
M  V30 1214 H 109.89 1.18814 -3.22084 0
M  V30 1215 N 112.336 1.25143 0.95797 0
M  V30 1216 C 113.613 1.00472 1.67823 0
M  V30 1217 C 113.993 -0.470056 2.058 0
M  V30 1218 O 113.341 -1.44663 1.76875 0
M  V30 1219 C 113.551 1.9372 2.90299 0
M  V30 1220 C 114.899 2.21371 3.62326 0
M  V30 1221 O 115.923 1.91451 3.00375 0
M  V30 1222 O 114.782 2.72231 4.7387 0
M  V30 1223 H 111.876 0.380752 0.734137 0
M  V30 1224 H 114.422 1.36283 1.01119 0
M  V30 1225 H 113.194 2.93316 2.59001 0
M  V30 1226 H 112.817 1.58286 3.64735 0
M  V30 1227 N 113.814 -1.1601 1.06675 0
M  V30 1228 C 115.042 -1.90527 0.806667 0
M  V30 1229 C 115.457 -1.77643 -0.639396 0
M  V30 1230 O 114.814 -1.12369 -1.43803 0
M  V30 1231 C 114.865 -3.41106 1.19705 0
M  V30 1232 O 114.586 -3.53608 2.58636 0
M  V30 1233 C 116.087 -4.32663 0.965266 0
M  V30 1234 H 113.307 -0.604053 0.292166 0
M  V30 1235 H 115.851 -1.47026 1.4214 0
M  V30 1236 H 114.006 -3.82296 0.626774 0
M  V30 1237 H 114.42 -4.47011 2.74375 0
M  V30 1238 H 115.894 -5.36763 1.288 0
M  V30 1239 H 116.371 -4.39089 -0.0987936 0
M  V30 1240 H 116.977 -3.97206 1.52011 0
M  V30 1241 N 115.292 -0.849877 -1.32721 0
M  V30 1242 C 116.24 -0.279745 -2.30912 0
M  V30 1243 C 117.234 0.594278 -1.58634 0
M  V30 1244 O 118.44 0.482613 -1.73409 0
M  V30 1245 H 114.815 -0.0717521 -0.748569 0
M  V30 1246 H 116.786 -1.12222 -2.76494 0
M  V30 1247 C 115.535 0.521108 -3.43773 0
M  V30 1248 H 114.858 -0.142141 -3.99547 0
M  V30 1249 H 116.298 0.885693 -4.14646 0
M  V30 1250 C 114.757 1.70442 -2.90605 0
M  V30 1251 O 115.287 2.8034 -2.87702 0
M  V30 1252 N 113.493 1.52991 -2.47067 0
M  V30 1253 H 113.04 0.635914 -2.49628 0
M  V30 1254 H 112.998 2.32311 -2.11847 0
M  V30 1255 N 116.77 1.45427 -0.607355 0
M  V30 1256 C 118 2.06314 -0.108656 0
M  V30 1257 C 118.408 1.45269 1.21217 0
M  V30 1258 O 117.751 0.561115 1.74921 0
M  V30 1259 C 117.813 3.59345 0.105618 0
M  V30 1260 C 117.477 4.42723 -1.13337 0
M  V30 1261 C 118.474 4.77715 -2.05145 0
M  V30 1262 C 116.159 4.83478 -1.36213 0
M  V30 1263 C 118.153 5.52317 -3.18158 0
M  V30 1264 C 115.84 5.57835 -2.49527 0
M  V30 1265 C 116.838 5.92171 -3.40327 0
M  V30 1266 O 116.526 6.65019 -4.51669 0
M  V30 1267 H 116.258 0.672782 -0.0658842 0
M  V30 1268 H 118.812 1.87664 -0.834945 0
M  V30 1269 H 117.042 3.76394 0.886796 0
M  V30 1270 H 118.731 4.02076 0.555886 0
M  V30 1271 H 119.497 4.46787 -1.88697 0
M  V30 1272 H 115.376 4.56188 -0.664362 0
M  V30 1273 H 118.92 5.79036 -3.89054 0
M  V30 1274 H 114.817 5.88177 -2.65928 0
M  V30 1275 H 115.585 6.83469 -4.50348 0
M  V30 1276 N 118.248 0.346503 1.53744 0
M  V30 1277 C 119.178 -0.501193 2.28058 0
M  V30 1278 C 120.159 -1.10014 1.29734 0
M  V30 1279 O 121.344 -1.12097 1.58581 0
M  V30 1280 C 118.474 -1.65078 3.05559 0
M  V30 1281 C 117.428 -1.18003 4.11411 0
M  V30 1282 C 116.754 -2.41837 4.76884 0
M  V30 1283 C 118.054 -0.278394 5.21558 0
M  V30 1284 H 119.748 0.11875 2.99164 0
M  V30 1285 H 117.294 0.0585531 1.43881 0
M  V30 1286 H 119.247 -2.25028 3.56287 0
M  V30 1287 H 117.971 -2.29767 2.32109 0
M  V30 1288 H 116.63 -0.603331 3.61601 0
M  V30 1289 H 116.278 -3.0494 4.00026 0
M  V30 1290 H 115.978 -2.1102 5.48402 0
M  V30 1291 H 117.502 -3.02508 5.30397 0
M  V30 1292 H 118.916 -0.784823 5.67903 0
M  V30 1293 H 117.313 -0.0619707 6.00068 0
M  V30 1294 H 118.383 0.684677 4.80042 0
M  V30 1295 N 119.726 -1.57421 0.075193 0
M  V30 1296 C 120.973 -1.93618 -0.593146 0
M  V30 1297 C 121.301 -0.955484 -1.69413 0
M  V30 1298 O 120.556 0.0283251 -1.9568 0
M  V30 1299 C 120.855 -3.36428 -1.20626 0
M  V30 1300 C 120.521 -4.50307 -0.231078 0
M  V30 1301 C 119.183 -4.81186 0.0371936 0
M  V30 1302 C 121.535 -5.19374 0.435888 0
M  V30 1303 C 118.863 -5.78466 0.979461 0
M  V30 1304 C 121.215 -6.17665 1.3665 0
M  V30 1305 C 119.879 -6.46958 1.6432 0
M  V30 1306 H 119.149 -0.708499 -0.217047 0
M  V30 1307 H 121.796 -1.90937 0.146793 0
M  V30 1308 H 120.101 -3.35592 -2.02201 0
M  V30 1309 H 121.798 -3.61727 -1.73073 0
M  V30 1310 H 118.388 -4.26227 -0.450357 0
M  V30 1311 H 122.572 -4.95711 0.241748 0
M  V30 1312 H 117.828 -5.99487 1.20106 0
M  V30 1313 H 122.002 -6.70284 1.88924 0
M  V30 1314 H 119.629 -7.2215 2.37494 0
M  V30 1315 N 121.204 0.198386 -1.56346 0
M  V30 1316 C 122.137 1.27381 -1.89339 0
M  V30 1317 C 123.115 1.44106 -0.753134 0
M  V30 1318 O 124.299 1.59549 -1.00381 0
M  V30 1319 C 121.426 2.6409 -2.12071 0
M  V30 1320 C 120.472 2.64253 -3.34772 0
M  V30 1321 S 121.305 2.16013 -4.89999 0
M  V30 1322 C 122.461 3.54553 -5.15794 0
M  V30 1323 H 122.694 0.992058 -2.8026 0
M  V30 1324 H 120.227 0.401726 -1.49082 0
M  V30 1325 H 122.185 3.42786 -2.2585 0
M  V30 1326 H 120.846 2.89478 -1.21906 0
M  V30 1327 H 120.039 3.64768 -3.47794 0
M  V30 1328 H 119.641 1.93637 -3.1997 0
M  V30 1329 H 121.933 4.50396 -5.06112 0
M  V30 1330 H 122.876 3.46428 -6.1757 0
M  V30 1331 H 123.284 3.49313 -4.43442 0
M  V30 1332 N 122.682 1.50554 0.465978 0
M  V30 1333 C 123.93 1.61479 1.21528 0
M  V30 1334 C 124.251 0.319596 1.92363 0
M  V30 1335 O 123.521 -0.663194 1.84333 0
M  V30 1336 H 122.101 0.595055 0.451573 0
M  V30 1337 H 124.763 1.87355 0.53704 0
M  V30 1338 H 123.859 2.42846 1.96042 0
M  V30 1339 N 124.16 -0.719506 1.40217 0
M  V30 1340 C 125.437 -1.47221 1.28784 0
M  V30 1341 C 125.817 -2.10883 -0.0956067 0
M  V30 1342 O 125.165 -1.99833 -1.10811 0
M  V30 1343 C 125.375 -2.5111 2.42373 0
M  V30 1344 C 126.723 -3.17053 2.82423 0
M  V30 1345 O 127.747 -2.61429 2.41937 0
M  V30 1346 O 126.606 -4.17742 3.52355 0
M  V30 1347 H 123.7 -0.654491 0.50554 0
M  V30 1348 H 126.246 -0.752014 1.52128 0
M  V30 1349 H 125.018 -2.02556 3.34793 0
M  V30 1350 H 124.641 -3.3067 2.20778 0
M  V30 1351 N 125.638 -1.25649 -0.95132 0
M  V30 1352 C 126.868 -1.13179 -1.72841 0
M  V30 1353 C 127.276 0.316827 -1.86528 0
M  V30 1354 O 126.619 1.22948 -1.3649 0
M  V30 1355 C 126.681 -1.71644 -3.15878 0
M  V30 1356 C 126.345 -3.20667 -3.25609 0
M  V30 1357 C 127.342 -4.17616 -3.09666 0
M  V30 1358 C 125.027 -3.6094 -3.49324 0
M  V30 1359 C 127.021 -5.52817 -3.17289 0
M  V30 1360 C 124.708 -4.96278 -3.56584 0
M  V30 1361 C 125.706 -5.92025 -3.40581 0
M  V30 1362 O 125.394 -7.24899 -3.47528 0
M  V30 1363 H 125.126 -0.395389 -0.54831 0
M  V30 1364 H 127.68 -1.66566 -1.20187 0
M  V30 1365 H 125.91 -1.12707 -3.69911 0
M  V30 1366 H 127.599 -1.54225 -3.75459 0
M  V30 1367 H 128.365 -3.87842 -2.91211 0
M  V30 1368 H 124.244 -2.86907 -3.6084 0
M  V30 1369 H 127.788 -6.2753 -3.04716 0
M  V30 1370 H 123.685 -5.25716 -3.74556 0
M  V30 1371 H 124.453 -7.33039 -3.64138 0
M  V30 1372 N 127.117 1.15442 -1.07289 0
M  V30 1373 C 128.363 1.86489 -0.796846 0
M  V30 1374 C 128.696 1.82078 0.675371 0
M  V30 1375 O 127.971 1.24346 1.4956 0
M  V30 1376 C 128.254 3.35626 -1.30489 0
M  V30 1377 C 128.107 3.48673 -2.84161 0
M  V30 1378 C 129.426 4.30357 -0.920907 0
M  V30 1379 H 126.545 0.677144 -0.290939 0
M  V30 1380 H 129.187 1.35633 -1.33056 0
M  V30 1381 H 127.337 3.79068 -0.850883 0
M  V30 1382 H 129.009 3.14099 -3.37846 0
M  V30 1383 H 127.252 2.90253 -3.22391 0
M  V30 1384 H 127.923 4.53453 -3.14777 0
M  V30 1385 H 130.399 3.94871 -1.3121 0
M  V30 1386 H 129.275 5.33193 -1.30372 0
M  V30 1387 H 129.536 4.4176 0.173226 0
M  V30 1388 N 128.595 0.856903 1.32268 0
M  V30 1389 C 129.872 0.382583 1.91822 0
M  V30 1390 C 130.252 -1.13407 1.78051 0
M  V30 1391 O 129.6 -1.95673 1.18001 0
M  V30 1392 C 129.81 0.849446 3.38505 0
M  V30 1393 C 131.158 0.867936 4.15634 0
M  V30 1394 O 132.182 0.794232 3.47232 0
M  V30 1395 O 131.041 0.972286 5.37781 0
M  V30 1396 H 128.135 0.112014 0.819379 0
M  V30 1397 H 130.681 0.943952 1.41024 0
M  V30 1398 H 129.453 1.89267 3.42482 0
M  V30 1399 H 129.076 0.265652 3.96712 0
M  V30 1400 N 130.073 -1.45103 0.615059 0
M  V30 1401 C 131.489 -1.57137 0.279322 0
M  V30 1402 C 131.689 -1.60523 -1.21797 0
M  V30 1403 O 130.745 -1.53956 -2.00134 0
M  V30 1404 C 132.058 -2.85062 0.957083 0
M  V30 1405 C 133.606 -2.98749 0.933706 0
M  V30 1406 C 134.081 -4.29455 1.59162 0
M  V30 1407 N 135.572 -4.36231 1.55746 0
M  V30 1408 C 136.307 -5.36051 2.0356 0
M  V30 1409 N 135.803 -6.42367 2.59494 0
M  V30 1410 N 137.596 -5.27456 1.94284 0
M  V30 1411 H 129.747 -1.41148 1.58717 0
M  V30 1412 H 132.01 -0.675331 0.665306 0
M  V30 1413 H 131.716 -2.88488 2.01166 0
M  V30 1414 H 131.59 -3.7407 0.48494 0
M  V30 1415 H 133.977 -2.94886 -0.112347 0
M  V30 1416 H 134.058 -2.11132 1.44419 0
M  V30 1417 H 133.702 -4.34077 2.63704 0
M  V30 1418 H 133.632 -5.15901 1.0561 0
M  V30 1419 H 136.123 -3.60011 1.14893 0
M  V30 1420 H 136.436 -7.14793 2.93752 0
M  V30 1421 H 134.781 -6.43097 2.63537 0
M  V30 1422 H 137.972 -4.43308 1.5032 0
M  V30 1423 H 138.145 -6.05099 2.3186 0
M  V30 1424 N 131.551 -0.354651 -1.53558 0
M  V30 1425 C 132.799 0.237972 -2.00694 0
M  V30 1426 C 133.12 1.50173 -1.24391 0
M  V30 1427 O 132.39 1.92673 -0.354135 0
M  V30 1428 H 130.97 0.0909256 -0.741446 0
M  V30 1429 H 133.632 -0.478368 -1.88938 0
M  V30 1430 H 132.728 0.47264 -3.085 0
M  V30 1431 N 133.029 1.57378 -0.0835403 0
M  V30 1432 C 134.259 1.97975 0.590713 0
M  V30 1433 C 134.667 0.961083 1.62972 0
M  V30 1434 O 134.01 -0.0590879 1.83605 0
M  V30 1435 C 134.072 3.34915 1.3066 0
M  V30 1436 C 133.736 4.55069 0.419698 0
M  V30 1437 C 134.733 5.18868 -0.32749 0
M  V30 1438 C 132.418 5.0114 0.341137 0
M  V30 1439 C 134.412 6.27098 -1.14134 0
M  V30 1440 C 132.099 6.0924 -0.476374 0
M  V30 1441 C 133.097 6.72083 -1.21627 0
M  V30 1442 O 132.785 7.781 -2.02028 0
M  V30 1443 H 132.517 0.655818 0.163947 0
M  V30 1444 H 135.071 2.04807 -0.156021 0
M  V30 1445 H 133.301 3.24733 2.09966 0
M  V30 1446 H 134.99 3.60037 1.87424 0
M  V30 1447 H 135.756 4.84211 -0.276459 0
M  V30 1448 H 131.635 4.51996 0.90668 0
M  V30 1449 H 135.179 6.7608 -1.71935 0
M  V30 1450 H 131.076 6.43329 -0.528927 0
M  V30 1451 H 131.844 7.95034 -1.94586 0
M  V30 1452 N 134.507 -0.190092 1.56449 0
M  V30 1453 C 135.737 -0.92443 1.84764 0
M  V30 1454 C 136.145 -1.77146 0.664529 0
M  V30 1455 O 135.488 -1.79812 -0.375957 0
M  V30 1456 C 135.55 -1.86651 3.07248 0
M  V30 1457 C 135.214 -1.20094 4.40938 0
M  V30 1458 C 136.211 -0.575445 5.16706 0
M  V30 1459 C 133.896 -1.2033 4.87674 0
M  V30 1460 C 135.89 0.0388111 6.37388 0
M  V30 1461 C 133.577 -0.585214 6.08291 0
M  V30 1462 C 134.575 0.0347578 6.82991 0
M  V30 1463 O 134.263 0.643147 8.01323 0
M  V30 1464 H 133.995 -0.274974 0.617548 0
M  V30 1465 H 136.549 -0.200788 2.04416 0
M  V30 1466 H 134.779 -2.62998 2.83494 0
M  V30 1467 H 136.468 -2.46907 3.22167 0
M  V30 1468 H 137.234 -0.565728 4.81689 0
M  V30 1469 H 133.113 -1.67526 4.29484 0
M  V30 1470 H 136.657 0.523329 6.95634 0
M  V30 1471 H 132.554 -0.592451 6.42775 0
M  V30 1472 H 133.322 0.540545 8.16713 0
M  V30 1473 N 135.985 -1.50799 -0.457987 0
M  V30 1474 C 137.21 -1.66496 -1.23668 0
M  V30 1475 C 137.635 -0.353288 -1.84752 0
M  V30 1476 O 136.993 0.684346 -1.67888 0
M  V30 1477 C 137.041 -2.76763 -2.3116 0
M  V30 1478 O 136.145 -2.38928 -3.36136 0
M  V30 1479 H 135.486 -0.555828 -0.363252 0
M  V30 1480 H 138.016 -1.9725 -0.543474 0
M  V30 1481 H 138.026 -3.00232 -2.76269 0
M  V30 1482 H 136.701 -3.71954 -1.86073 0
M  V30 1483 H 135.278 -2.25953 -2.96647 0
M  V30 1484 N 137.463 0.71206 -1.40597 0
M  V30 1485 C 138.709 1.47416 -1.39271 0
M  V30 1486 C 139.042 1.942 0.00388791 0
M  V30 1487 O 138.317 1.68403 0.973179 0
M  V30 1488 C 138.6 2.69774 -2.38525 0
M  V30 1489 C 138.453 2.28861 -3.87224 0
M  V30 1490 C 139.772 3.71939 -2.35264 0
M  V30 1491 H 136.891 0.534713 -0.5072 0
M  V30 1492 H 139.533 0.812375 -1.71757 0
M  V30 1493 H 137.683 3.26238 -2.10953 0
M  V30 1494 H 139.355 1.77852 -4.25636 0
M  V30 1495 H 137.598 1.60824 -4.02887 0
M  V30 1496 H 138.269 3.16584 -4.52193 0
M  V30 1497 H 140.745 3.25113 -2.59694 0
M  V30 1498 H 139.621 4.55186 -3.06753 0
M  V30 1499 H 139.882 4.20484 -1.36549 0
M  V30 1500 N 138.941 1.26152 0.944643 0
M  V30 1501 C 139.851 1.09176 2.07648 0
M  V30 1502 C 140.867 0.0261935 1.7398 0
M  V30 1503 O 142.043 0.229208 2.00091 0
M  V30 1504 C 139.108 0.722915 3.39079 0
M  V30 1505 C 138.169 1.86752 3.86552 0
M  V30 1506 C 137.402 1.51617 5.11711 0
M  V30 1507 O 137.625 0.416331 5.68879 0
M  V30 1508 O 136.559 2.34975 5.54139 0
M  V30 1509 H 140.385 2.0412 2.24875 0
M  V30 1510 H 137.97 1.05182 1.061 0
M  V30 1511 H 139.852 0.529787 4.18056 0
M  V30 1512 H 138.527 -0.197159 3.23099 0
M  V30 1513 H 137.434 2.11558 3.08535 0
M  V30 1514 H 138.767 2.76719 4.07047 0
M  V30 1515 N 140.419 -1.14872 1.07899 0
M  V30 1516 C 141.647 -1.89661 0.82683 0
M  V30 1517 C 142.062 -1.78312 -0.620519 0
M  V30 1518 O 141.419 -1.13888 -1.42604 0
M  V30 1519 C 141.47 -3.39817 1.23316 0
M  V30 1520 O 141.191 -3.50845 2.62372 0
M  V30 1521 C 142.692 -4.31615 1.0111 0
M  V30 1522 H 139.912 -0.60092 0.298557 0
M  V30 1523 H 142.456 -1.4551 1.43691 0
M  V30 1524 H 140.611 -3.8161 0.667286 0
M  V30 1525 H 141.025 -4.44076 2.79101 0
M  V30 1526 H 142.499 -5.35367 1.34486 0
M  V30 1527 H 142.976 -4.39169 -0.0522168 0
M  V30 1528 H 143.582 -3.95572 1.56215 0
M  V30 1529 N 141.898 -0.863906 -1.31812 0
M  V30 1530 C 143.144 -0.472535 -1.97218 0
M  V30 1531 C 143.477 0.971394 -1.68159 0
M  V30 1532 O 142.752 1.68309 -0.974798 0
M  V30 1533 C 143.035 -0.723054 -3.52766 0
M  V30 1534 C 142.888 -2.21608 -3.91421 0
M  V30 1535 C 144.207 -0.185522 -4.39709 0
M  V30 1536 H 141.326 -0.173158 -0.71637 0
M  V30 1537 H 143.968 -1.08403 -1.56041 0
M  V30 1538 H 142.118 -0.202577 -3.87971 0
M  V30 1539 H 143.79 -2.80334 -3.66347 0
M  V30 1540 H 142.033 -2.691 -3.40246 0
M  V30 1541 H 142.704 -2.34203 -4.99853 0
M  V30 1542 H 145.18 -0.630726 -4.11292 0
M  V30 1543 H 144.056 -0.390306 -5.47511 0
M  V30 1544 H 144.317 0.912229 -4.32586 0
M  V30 1545 N 143.376 1.44774 -0.622745 0
M  V30 1546 C 144.604 2.06487 -0.130722 0
M  V30 1547 C 145.019 1.46476 1.19123 0
M  V30 1548 O 144.376 0.584502 1.72887 0
M  V30 1549 C 144.427 3.615 -0.000807207 0
M  V30 1550 O 144.148 4.19274 -1.27048 0
M  V30 1551 C 145.649 4.40229 0.520898 0
M  V30 1552 H 142.869 0.666704 -0.0758106 0
M  V30 1553 H 145.413 1.85779 -0.854774 0
M  V30 1554 H 143.568 3.81498 0.673643 0
M  V30 1555 H 143.982 5.12622 -1.1099 0
M  V30 1556 H 145.456 5.49144 0.560838 0
M  V30 1557 H 145.933 4.1108 1.54627 0
M  V30 1558 H 146.539 4.25131 -0.120018 0
M  V30 1559 N 144.854 0.36279 1.53368 0
M  V30 1560 C 145.784 -0.476976 2.28576 0
M  V30 1561 C 146.765 -1.08631 1.30894 0
M  V30 1562 O 147.95 -1.10409 1.59761 0
M  V30 1563 C 145.08 -1.61828 3.07293 0
M  V30 1564 C 144.034 -1.13633 4.1264 0
M  V30 1565 C 143.36 -2.36766 4.79423 0
M  V30 1566 C 144.66 -0.223061 5.21823 0
M  V30 1567 H 146.354 0.150474 2.99022 0
M  V30 1568 H 143.9 0.0738103 1.43811 0
M  V30 1569 H 145.853 -2.21237 3.58653 0
M  V30 1570 H 144.577 -2.27292 2.34533 0
M  V30 1571 H 143.236 -0.564945 3.62221 0
M  V30 1572 H 142.884 -3.0068 4.03238 0
M  V30 1573 H 142.584 -2.05192 5.50609 0
M  V30 1574 H 144.108 -2.96865 5.33576 0
M  V30 1575 H 145.522 -0.724545 5.68703 0
M  V30 1576 H 143.919 0.001678 6.001 0
M  V30 1577 H 144.989 0.735553 4.79289 0
M  V30 1578 N 146.332 -1.57332 0.0918853 0
M  V30 1579 C 147.262 -2.16872 -0.865371 0
M  V30 1580 C 148.243 -1.10118 -1.29646 0
M  V30 1581 O 149.428 -1.38242 -1.36392 0
M  V30 1582 C 146.558 -2.74649 -2.12569 0
M  V30 1583 C 145.512 -3.86747 -1.83333 0
M  V30 1584 C 144.838 -4.31212 -3.16166 0
M  V30 1585 C 146.138 -5.10089 -1.1228 0
M  V30 1586 H 147.832 -2.97114 -0.369307 0
M  V30 1587 H 145.378 -1.42918 -0.176194 0
M  V30 1588 H 147.331 -3.14952 -2.7997 0
M  V30 1589 H 146.055 -1.91657 -2.64452 0
M  V30 1590 H 144.714 -3.46978 -1.18331 0
M  V30 1591 H 144.362 -3.45115 -3.6593 0
M  V30 1592 H 144.062 -5.06788 -2.97388 0
M  V30 1593 H 145.586 -4.74146 -3.84731 0
M  V30 1594 H 147 -5.47582 -1.69785 0
M  V30 1595 H 145.397 -5.91073 -1.03693 0
M  V30 1596 H 146.467 -4.84786 -0.105041 0
M  V30 1597 N 147.81 0.181792 -1.56548 0
M  V30 1598 C 149.056 0.901431 -1.81665 0
M  V30 1599 C 149.389 1.82347 -0.668075 0
M  V30 1600 O 148.664 1.91669 0.330615 0
M  V30 1601 C 148.947 1.70618 -3.17115 0
M  V30 1602 C 148.8 0.807964 -4.42484 0
M  V30 1603 C 150.119 2.67605 -3.49393 0
M  V30 1604 H 147.238 0.32627 -0.660846 0
M  V30 1605 H 149.88 0.168134 -1.89255 0
M  V30 1606 H 148.03 2.33133 -3.10775 0
M  V30 1607 H 149.702 0.19649 -4.60881 0
M  V30 1608 H 147.945 0.115411 -4.33646 0
M  V30 1609 H 148.616 1.40632 -5.33785 0
M  V30 1610 H 151.092 2.15218 -3.56118 0
M  V30 1611 H 149.968 3.20985 -4.45264 0
M  V30 1612 H 150.229 3.47298 -2.73563 0
M  V30 1613 N 149.288 1.51039 0.449983 0
M  V30 1614 C 150.251 1.70863 1.5277 0
M  V30 1615 C 151.251 0.578846 1.5002 0
M  V30 1616 O 152.441 0.846213 1.52266 0
M  V30 1617 C 149.573 1.75341 2.9235 0
M  V30 1618 H 150.766 2.67034 1.36502 0
M  V30 1619 H 148.319 1.40838 0.677812 0
M  V30 1620 H 149.054 0.809383 3.14037 0
M  V30 1621 H 148.839 2.57436 2.95752 0
M  V30 1622 H 150.329 1.92559 3.70555 0
M  V30 1623 N 150.766 -0.704594 1.40972 0
M  V30 1624 C 151.696 -1.83124 1.44872 0
M  V30 1625 C 152.677 -1.67281 0.30838 0
M  V30 1626 O 153.862 -1.87149 0.518556 0
M  V30 1627 C 150.992 -3.21181 1.32136 0
M  V30 1628 C 149.946 -3.51714 2.43888 0
M  V30 1629 C 149.272 -4.89032 2.16222 0
M  V30 1630 C 150.572 -3.516 3.86232 0
M  V30 1631 H 152.266 -1.80117 2.39161 0
M  V30 1632 H 149.812 -0.865145 1.15114 0
M  V30 1633 H 151.765 -3.99702 1.33479 0
M  V30 1634 H 150.489 -3.24791 0.343279 0
M  V30 1635 H 149.148 -2.75539 2.41813 0
M  V30 1636 H 148.796 -4.89256 1.16778 0
M  V30 1637 H 148.496 -5.10426 2.911 0
M  V30 1638 H 150.02 -5.69873 2.19265 0
M  V30 1639 H 151.434 -4.2014 3.9007 0
M  V30 1640 H 149.831 -3.84523 4.60719 0
M  V30 1641 H 150.901 -2.50757 4.15029 0
M  V30 1642 N 152.244 -1.26651 -0.937939 0
M  V30 1643 C 153.191 -1.0849 -2.03712 0
M  V30 1644 C 154.161 0.011033 -1.66096 0
M  V30 1645 O 155.346 -0.149353 -1.90215 0
M  V30 1646 C 152.486 -0.72735 -3.37348 0
M  V30 1647 C 151.599 -1.89986 -3.87981 0
M  V30 1648 C 150.734 -1.48513 -5.10017 0
M  V30 1649 C 149.773 -2.62575 -5.5292 0
M  V30 1650 N 148.91 -2.21762 -6.66158 0
M  V30 1651 H 153.75 -2.02551 -2.18579 0
M  V30 1652 H 151.287 -1.00844 -1.07093 0
M  V30 1653 H 153.245 -0.50092 -4.14182 0
M  V30 1654 H 151.875 0.176298 -3.22318 0
M  V30 1655 H 150.927 -2.23913 -3.07518 0
M  V30 1656 H 152.239 -2.75586 -4.15757 0
M  V30 1657 H 151.393 -1.21934 -5.94321 0
M  V30 1658 H 150.132 -0.60009 -4.83994 0
M  V30 1659 H 149.137 -2.8988 -4.67172 0
M  V30 1660 H 150.362 -3.51685 -5.80943 0
M  V30 1661 H 148.308 -1.35696 -6.41812 0
M  V30 1662 H 148.225 -3.00903 -6.93537 0
M  V30 1663 H 149.493 -1.98403 -7.53828 0
M  V30 1664 N 153.722 1.14298 -1.08507 0
M  V30 1665 C 154.968 1.85633 -0.816581 0
M  V30 1666 C 155.301 1.82784 0.656021 0
M  V30 1667 O 154.576 1.25926 1.48233 0
M  V30 1668 C 154.859 3.34223 -1.34041 0
M  V30 1669 C 154.712 3.45639 -2.87843 0
M  V30 1670 C 156.031 4.29356 -0.9665 0
M  V30 1671 H 153.15 0.67402 -0.298104 0
M  V30 1672 H 155.792 1.34214 -1.34487 0
M  V30 1673 H 153.942 3.78144 -0.89104 0
M  V30 1674 H 155.614 3.10498 -3.41158 0
M  V30 1675 H 153.857 2.86817 -3.25451 0
M  V30 1676 H 154.528 4.50089 -3.19569 0
M  V30 1677 H 157.004 3.93457 -1.35391 0
M  V30 1678 H 155.88 5.3178 -1.3602 0
M  V30 1679 H 156.141 4.41919 0.126362 0
M  V30 1680 N 155.201 0.870884 1.31352 0
M  V30 1681 C 156.617 0.562932 1.49343 0
M  V30 1682 C 156.817 -0.902725 1.80148 0
M  V30 1683 O 155.873 -1.68484 1.88067 0
M  V30 1684 C 157.186 1.46393 2.62659 0
M  V30 1685 C 158.734 1.46607 2.76542 0
M  V30 1686 C 159.209 2.35266 3.92955 0
M  V30 1687 N 160.7 2.33151 4.00243 0
M  V30 1688 C 161.435 2.98471 4.89594 0
M  V30 1689 N 160.931 3.72964 5.8384 0
M  V30 1690 N 162.724 2.87775 4.82848 0
M  V30 1691 H 154.875 1.81923 1.09626 0
M  V30 1692 H 157.138 0.777934 0.541777 0
M  V30 1693 H 156.844 2.50689 2.46674 0
M  V30 1694 H 156.718 1.16314 3.58819 0
M  V30 1695 H 159.105 0.43069 2.9194 0
M  V30 1696 H 159.186 1.8071 1.81046 0
M  V30 1697 H 158.83 3.38881 3.78315 0
M  V30 1698 H 158.76 1.98487 4.87761 0
M  V30 1699 H 161.251 1.79006 3.32814 0
M  V30 1700 H 161.564 4.19932 6.4875 0
M  V30 1701 H 159.909 3.77073 5.83816 0
M  V30 1702 H 163.1 2.29116 4.08195 0
M  V30 1703 H 163.273 3.38961 5.52277 0
M  V30 1704 N 156.679 -1.44442 0.630414 0
M  V30 1705 C 157.909 -2.06115 0.141465 0
M  V30 1706 C 158.317 -1.47179 -1.1889 0
M  V30 1707 O 157.66 -0.588873 -1.74006 0
M  V30 1708 C 157.722 -3.59467 -0.0484355 0
M  V30 1709 C 157.386 -4.40864 1.20366 0
M  V30 1710 C 158.383 -4.74391 2.12719 0
M  V30 1711 C 156.068 -4.8125 1.43887 0
M  V30 1712 C 158.062 -5.47186 3.26904 0
M  V30 1713 C 155.749 -5.53795 2.5837 0
M  V30 1714 C 156.747 -5.86682 3.49705 0
M  V30 1715 O 156.435 -6.57749 4.62191 0
M  V30 1716 H 156.167 -0.671648 0.0765792 0
M  V30 1717 H 158.721 -1.86312 0.864695 0
M  V30 1718 H 156.951 -3.77758 -0.826803 0
M  V30 1719 H 158.64 -4.02909 -0.491849 0
M  V30 1720 H 159.406 -4.43728 1.95781 0
M  V30 1721 H 155.285 -4.55073 0.736853 0
M  V30 1722 H 158.829 -5.72773 3.98217 0
M  V30 1723 H 154.726 -5.83872 2.75251 0
M  V30 1724 H 155.494 -6.76217 4.61164 0
M  V30 1725 N 158.157 -0.370918 -1.53173 0
M  V30 1726 C 159.573 -0.0200818 -1.59587 0
M  V30 1727 C 159.773 1.46279 -1.38581 0
M  V30 1728 O 158.829 2.22506 -1.19363 0
M  V30 1729 C 160.142 -0.4808 -2.96831 0
M  V30 1730 C 161.69 -0.435477 -3.09956 0
M  V30 1731 C 162.165 -0.872092 -4.4962 0
M  V30 1732 N 163.656 -0.827364 -4.55751 0
M  V30 1733 C 164.391 -1.13683 -5.62018 0
M  V30 1734 N 163.887 -1.51584 -6.76014 0
M  V30 1735 N 165.68 -1.05927 -5.52029 0
M  V30 1736 H 157.831 -1.33652 -1.65079 0
M  V30 1737 H 160.094 -0.546634 -0.774529 0
M  V30 1738 H 159.8 -1.51577 -3.1736 0
M  V30 1739 H 159.674 0.129796 -3.76977 0
M  V30 1740 H 162.061 0.590371 -2.89134 0
M  V30 1741 H 162.142 -1.08164 -2.31806 0
M  V30 1742 H 161.786 -1.89608 -4.71181 0
M  V30 1743 H 161.716 -0.203127 -5.26208 0
M  V30 1744 H 164.207 -0.548216 -3.73902 0
M  V30 1745 H 164.52 -1.73609 -7.53047 0
M  V30 1746 H 162.865 -1.55454 -6.77391 0
M  V30 1747 H 166.056 -0.762321 -4.61851 0
M  V30 1748 H 166.229 -1.30378 -6.34749 0
M  V30 1749 N 159.635 1.57281 -0.100228 0
M  V30 1750 C 160.545 2.17833 0.870965 0
M  V30 1751 C 161.561 1.14921 1.30649 0
M  V30 1752 O 162.737 1.47313 1.37335 0
M  V30 1753 C 159.802 2.75085 2.1102 0
M  V30 1754 C 158.863 3.9297 1.72838 0
M  V30 1755 C 158.096 4.47482 2.90854 0
M  V30 1756 O 158.319 4.00922 4.05731 0
M  V30 1757 O 157.253 5.38433 2.69023 0
M  V30 1758 H 161.079 3.0124 0.38575 0
M  V30 1759 H 158.664 1.48881 0.124397 0
M  V30 1760 H 160.546 3.11656 2.83634 0
M  V30 1761 H 159.221 1.94721 2.58584 0
M  V30 1762 H 158.128 3.61201 0.973883 0
M  V30 1763 H 159.461 4.74713 1.30033 0
M  V30 1764 N 161.113 -0.173488 1.56642 0
M  V30 1765 C 162.529 -0.525174 1.50712 0
M  V30 1766 C 162.729 -1.8476 0.804107 0
M  V30 1767 O 161.785 -2.49869 0.363574 0
M  V30 1768 C 163.098 -0.559937 2.95441 0
M  V30 1769 C 164.646 -0.647288 3.06234 0
M  V30 1770 C 165.121 -0.712963 4.52417 0
M  V30 1771 N 166.612 -0.775911 4.56655 0
M  V30 1772 C 167.347 -0.847264 5.67106 0
M  V30 1773 N 166.843 -0.879585 6.87194 0
M  V30 1774 N 168.636 -0.886117 5.55071 0
M  V30 1775 H 160.787 0.693681 2.00753 0
M  V30 1776 H 163.05 0.249841 0.914485 0
M  V30 1777 H 162.756 0.343049 3.50023 0
M  V30 1778 H 162.63 -1.40718 3.49969 0
M  V30 1779 H 165.017 -1.5407 2.51687 0
M  V30 1780 H 165.098 0.226586 2.54794 0
M  V30 1781 H 164.742 0.176183 5.07594 0
M  V30 1782 H 164.672 -1.60295 5.0161 0
M  V30 1783 H 167.163 -0.759304 3.70193 0
M  V30 1784 H 167.476 -0.935144 7.67121 0
M  V30 1785 H 165.821 -0.847898 6.89808 0
M  V30 1786 H 169.012 -0.857853 4.60172 0
M  V30 1787 H 169.185 -0.938263 6.41171 0
M  V30 1788 N 162.591 -1.51276 -0.441967 0
M  V30 1789 C 163.84 -1.6295 -1.18871 0
M  V30 1790 C 164.153 -0.349312 -1.92456 0
M  V30 1791 O 165.359 -0.345355 -2.69295 0
M  V30 1792 C 163.815 -2.87759 -2.16155 0
M  V30 1793 C 163.423 -4.22764 -1.48239 0
M  V30 1794 C 165.167 -3.08788 -2.91291 0
M  V30 1795 C 163.074 -5.38728 -2.4398 0
M  V30 1796 H 162.004 -0.606913 -0.447406 0
M  V30 1797 H 164.655 -1.77739 -0.456205 0
M  V30 1798 H 163.037 -2.66593 -2.92821 0
M  V30 1799 H 164.211 -4.54293 -0.771635 0
M  V30 1800 H 162.526 -4.07575 -0.852741 0
M  V30 1801 H 165.123 -3.92599 -3.63002 0
M  V30 1802 H 165.466 -2.21679 -3.5237 0
M  V30 1803 H 165.999 -3.30272 -2.21733 0
M  V30 1804 H 162.738 -6.28082 -1.87598 0
M  V30 1805 H 162.258 -5.1158 -3.13123 0
M  V30 1806 H 163.937 -5.70489 -3.05207 0
M  V30 1807 N 164.069 0.697108 -1.41344 0
M  V30 1808 C 165.297 1.48593 -1.43972 0
M  V30 1809 C 165.712 1.88747 -0.0445612 0
M  V30 1810 O 165.069 1.56682 0.935785 0
M  V30 1811 C 165.12 2.74946 -2.34706 0
M  V30 1812 O 164.841 2.36484 -3.68791 0
M  V30 1813 C 166.342 3.687 -2.46121 0
M  V30 1814 H 163.562 0.457964 -0.490418 0
M  V30 1815 H 166.106 0.858429 -1.8561 0
M  V30 1816 H 164.261 3.33937 -1.9638 0
M  V30 1817 H 164.675 3.17918 -4.17167 0
M  V30 1818 H 166.149 4.54145 -3.13777 0
M  V30 1819 H 166.626 4.13081 -1.49199 0
M  V30 1820 H 167.232 3.15613 -2.85076 0
M  V30 1821 N 165.547 1.27147 0.931209 0
M  V30 1822 C 166.796 1.12664 1.67302 0
M  V30 1823 C 167.109 -0.327718 1.92835 0
M  V30 1824 O 168.315 -0.593392 2.64936 0
M  V30 1825 C 166.771 1.9683 3.01307 0
M  V30 1826 C 166.379 3.46901 2.83485 0
M  V30 1827 C 168.123 1.90985 3.79111 0
M  V30 1828 C 166.03 4.23279 4.13024 0
M  V30 1829 H 164.96 0.41803 0.627509 0
M  V30 1830 H 167.611 1.51539 1.03481 0
M  V30 1831 H 165.993 1.50797 3.66164 0
M  V30 1832 H 167.167 4.00773 2.27415 0
M  V30 1833 H 165.482 3.54088 2.19113 0
M  V30 1834 H 168.079 2.45328 4.75098 0
M  V30 1835 H 168.422 0.882718 4.06834 0
M  V30 1836 H 168.955 2.34895 3.21044 0
M  V30 1837 H 165.694 5.26503 3.90481 0
M  V30 1838 H 165.214 3.74186 4.6877 0
M  V30 1839 H 166.893 4.32265 4.81411 0
M  V30 1840 N 167.025 -1.13721 1.09112 0
M  V30 1841 C 167.955 -2.21148 0.749385 0
M  V30 1842 C 168.936 -1.6792 -0.271475 0
M  V30 1843 O 170.121 -1.93693 -0.140251 0
M  V30 1844 C 167.251 -3.46905 0.165659 0
M  V30 1845 C 166.205 -4.13203 1.11567 0
M  V30 1846 C 165.531 -5.33248 0.393809 0
M  V30 1847 C 166.831 -4.60912 2.45678 0
M  V30 1848 H 168.525 -2.4999 1.64758 0
M  V30 1849 H 166.071 -1.20156 0.793626 0
M  V30 1850 H 168.024 -4.21313 -0.085466 0
M  V30 1851 H 166.748 -3.17449 -0.767714 0
M  V30 1852 H 165.407 -3.40758 1.35202 0
M  V30 1853 H 165.055 -5.00054 -0.543599 0
M  V30 1854 H 164.755 -5.78552 1.02721 0
M  V30 1855 H 166.279 -6.10413 0.150908 0
M  V30 1856 H 167.693 -5.26759 2.26269 0
M  V30 1857 H 166.09 -5.16944 3.04776 0
M  V30 1858 H 167.16 -3.75603 3.06677 0
M  V30 1859 N 168.503 -0.877838 -1.30888 0
M  V30 1860 C 169.919 -0.570844 -1.49042 0
M  V30 1861 C 170.119 0.893159 -1.80624 0
M  V30 1862 O 169.175 1.67485 -1.88958 0
M  V30 1863 C 170.488 -1.47784 -2.61878 0
M  V30 1864 C 172.036 -1.48071 -2.75761 0
M  V30 1865 C 172.511 -2.37347 -3.91702 0
M  V30 1866 N 174.002 -2.35271 -3.99001 0
M  V30 1867 C 174.737 -3.01063 -4.88004 0
M  V30 1868 N 174.233 -3.76055 -5.81854 0
M  V30 1869 N 176.026 -2.90332 -4.81315 0
M  V30 1870 H 168.177 -1.82502 -1.0866 0
M  V30 1871 H 170.44 -0.780797 -0.537644 0
M  V30 1872 H 170.146 -2.51993 -2.45341 0
M  V30 1873 H 170.02 -1.18215 -3.58197 0
M  V30 1874 H 172.407 -0.446166 -2.91708 0
M  V30 1875 H 172.488 -1.81668 -1.80085 0
M  V30 1876 H 172.132 -3.40883 -3.76512 0
M  V30 1877 H 172.062 -2.01071 -4.86701 0
M  V30 1878 H 174.553 -1.80768 -3.3186 0
M  V30 1879 H 174.866 -4.23366 -6.46514 0
M  V30 1880 H 173.211 -3.80163 -5.81808 0
M  V30 1881 H 176.402 -2.31278 -4.06974 0
M  V30 1882 H 176.575 -3.41885 -5.50471 0
M  V30 1883 N 169.982 1.44106 -0.638065 0
M  V30 1884 C 171.23 2.01579 -0.145043 0
M  V30 1885 C 171.551 1.50496 1.24 0
M  V30 1886 O 170.821 0.711374 1.82527 0
M  V30 1887 H 169.401 0.745282 -0.05063 0
M  V30 1888 H 172.063 1.76516 -0.826327 0
M  V30 1889 H 171.159 3.11877 -0.118039 0
M  V30 1890 N 171.46 0.379036 1.52974 0
M  V30 1891 C 172.408 -0.476033 2.27677 0
M  V30 1892 C 173.402 -1.0719 1.31174 0
M  V30 1893 O 174.608 -1.01355 1.48752 0
M  V30 1894 H 170.983 -0.172255 0.732006 0
M  V30 1895 H 172.954 0.175615 2.97883 0
M  V30 1896 C 171.703 -1.5967 3.0887 0
M  V30 1897 H 171.026 -1.1475 3.82978 0
M  V30 1898 H 172.466 -2.16943 3.64296 0
M  V30 1899 C 170.925 -2.54682 2.20542 0
M  V30 1900 O 171.455 -3.57836 1.82527 0
M  V30 1901 N 169.661 -2.24183 1.84907 0
M  V30 1902 H 169.208 -1.40333 2.1602 0
M  V30 1903 H 169.166 -2.88006 1.26096 0
M  V30 1904 N 172.938 -1.57226 0.108567 0
M  V30 1905 C 173.888 -2.11305 -0.856396 0
M  V30 1906 C 174.872 -1.03129 -1.23504 0
M  V30 1907 O 176.064 -1.29381 -1.20787 0
M  V30 1908 C 173.193 -2.70771 -2.11041 0
M  V30 1909 C 172.279 -3.86011 -1.7566 0
M  V30 1910 N 172.67 -4.93492 -1.10902 0
M  V30 1911 C 170.968 -3.95999 -2.05185 0
M  V30 1912 C 171.669 -5.73984 -0.944308 0
M  V30 1913 N 170.645 -5.2346 -1.46596 0
M  V30 1914 H 174.447 -2.91784 -0.352002 0
M  V30 1915 H 171.961 -1.62126 -0.0942324 0
M  V30 1916 H 173.958 -3.07851 -2.81128 0
M  V30 1917 H 172.618 -1.91751 -2.62034 0
M  V30 1918 H 173.629 -5.1208 -0.774235 0
M  V30 1919 H 170.306 -3.28007 -2.58298 0
M  V30 1920 H 171.696 -6.70479 -0.436813 0
M  V30 1921 N 174.416 0.165178 -1.56732 0
M  V30 1922 C 175.326 1.22423 -2.00125 0
M  V30 1923 C 176.342 1.48084 -0.913619 0
M  V30 1924 O 177.518 1.60112 -1.22172 0
M  V30 1925 C 174.583 2.54197 -2.35764 0
M  V30 1926 C 173.644 2.36343 -3.58386 0
M  V30 1927 C 172.877 3.61834 -3.92316 0
M  V30 1928 O 173.1 4.67267 -3.27135 0
M  V30 1929 O 172.034 3.55579 -4.85641 0
M  V30 1930 H 175.86 0.885886 -2.90492 0
M  V30 1931 H 173.445 0.372518 -1.44681 0
M  V30 1932 H 175.327 3.3192 -2.59629 0
M  V30 1933 H 174.002 2.87598 -1.48557 0
M  V30 1934 H 172.909 1.56632 -3.39731 0
M  V30 1935 H 174.242 2.07865 -4.46154 0
M  V30 1936 N 175.894 1.51508 0.433938 0
M  V30 1937 C 177.119 1.68443 1.21003 0
M  V30 1938 C 177.544 0.382636 1.84167 0
M  V30 1939 O 176.902 -0.65755 1.68956 0
M  V30 1940 C 176.95 2.80405 2.26727 0
M  V30 1941 O 176.054 2.44245 3.32292 0
M  V30 1942 H 175.395 0.561536 0.354363 0
M  V30 1943 H 177.925 1.9809 0.512024 0
M  V30 1944 H 177.935 3.0459 2.71457 0
M  V30 1945 H 176.61 3.74867 1.80132 0
M  V30 1946 H 175.187 2.30644 2.93015 0
M  V30 1947 N 177.372 -0.689602 1.41712 0
M  V30 1948 C 178.788 -1.00093 1.24312 0
M  V30 1949 C 178.988 -2.01036 0.136729 0
M  V30 1950 O 178.044 -2.47562 -0.496918 0
M  V30 1951 C 179.357 -1.51985 2.59463 0
M  V30 1952 C 180.905 -1.63838 2.66695 0
M  V30 1953 C 181.38 -2.1913 4.02177 0
M  V30 1954 N 182.871 -2.26483 4.04054 0
M  V30 1955 C 183.606 -2.70306 5.0569 0
M  V30 1956 N 183.102 -3.13691 6.17713 0
M  V30 1957 N 184.895 -2.69923 4.9305 0
M  V30 1958 H 177.046 -0.0210029 2.1239 0
M  V30 1959 H 179.309 -0.0718733 0.945272 0
M  V30 1960 H 179.015 -0.85269 3.41207 0
M  V30 1961 H 178.889 -2.50103 2.82362 0
M  V30 1962 H 181.276 -2.29664 1.85306 0
M  V30 1963 H 181.357 -0.642492 2.476 0
M  V30 1964 H 181.001 -1.53918 4.84016 0
M  V30 1965 H 180.931 -3.19482 4.18615 0
M  V30 1966 H 183.422 -1.95874 3.23174 0
M  V30 1967 H 183.735 -3.45773 6.9113 0
M  V30 1968 H 182.08 -3.11585 6.21241 0
M  V30 1969 H 185.271 -2.35382 4.04614 0
M  V30 1970 H 185.444 -3.03758 5.72394 0
M  V30 1971 N 178.85 -1.27639 -0.924453 0
M  V30 1972 C 179.782 -1.06442 -2.02985 0
M  V30 1973 C 180.795 -0.0194771 -1.62788 0
M  V30 1974 O 181.984 -0.261388 -1.76576 0
M  V30 1975 C 179.084 -0.59327 -3.33667 0
M  V30 1976 C 178.257 -1.71123 -4.02537 0
M  V30 1977 C 177.316 -1.23527 -5.11495 0
M  V30 1978 O 176.342 -1.93553 -5.35281 0
M  V30 1979 N 177.544 -0.0926678 -5.80426 0
M  V30 1980 H 180.309 -2.01633 -2.2173 0
M  V30 1981 H 177.87 -1.19248 -1.09505 0
M  V30 1982 H 179.862 -0.258686 -4.03872 0
M  V30 1983 H 178.432 0.265502 -3.1147 0
M  V30 1984 H 177.652 -2.21593 -3.26022 0
M  V30 1985 H 178.94 -2.46145 -4.45298 0
M  V30 1986 H 178.338 0.491741 -5.63559 0
M  V30 1987 H 176.895 0.182714 -6.51544 0
M  V30 1988 N 180.328 1.1314 -1.09713 0
M  V30 1989 C 181.577 1.83838 -0.829851 0
M  V30 1990 C 181.89 1.84599 0.646728 0
M  V30 1991 O 183.096 2.51218 1.02965 0
M  V30 1992 C 181.552 3.30069 -1.43466 0
M  V30 1993 C 181.16 3.37688 -2.94399 0
M  V30 1994 C 182.904 4.05788 -1.24645 0
M  V30 1995 C 180.811 4.78209 -3.47952 0
M  V30 1996 H 179.741 0.68877 -0.306777 0
M  V30 1997 H 182.392 1.27448 -1.3202 0
M  V30 1998 H 180.774 3.8628 -0.871996 0
M  V30 1999 H 181.948 2.91456 -3.56918 0
M  V30 2000 H 180.263 2.75436 -3.12289 0
M  V30 2001 H 182.86 5.09535 -1.62107 0
M  V30 2002 H 183.203 4.15878 -0.187357 0
M  V30 2003 H 183.736 3.55915 -1.77678 0
M  V30 2004 H 180.475 4.73311 -4.53495 0
M  V30 2005 H 179.995 5.24924 -2.90198 0
M  V30 2006 H 181.674 5.47133 -3.45332 0
M  V30 2007 N 181.806 0.884767 1.30421 0
M  V30 2008 C 183.034 0.518044 2.0031 0
M  V30 2009 C 183.449 -0.893408 1.66324 0
M  V30 2010 O 182.806 -1.5875 0.900262 0
M  V30 2011 C 182.857 0.682997 3.54989 0
M  V30 2012 O 182.578 2.03888 3.87764 0
M  V30 2013 C 184.079 0.31924 4.42149 0
M  V30 2014 H 181.299 0.200265 0.640418 0
M  V30 2015 H 183.843 1.19001 1.6631 0
M  V30 2016 H 181.998 0.0584052 3.87356 0
M  V30 2017 H 182.412 2.05735 4.82466 0
M  V30 2018 H 183.886 0.485555 5.4986 0
M  V30 2019 H 184.363 -0.742717 4.32875 0
M  V30 2020 H 184.969 0.920147 4.15227 0
M  V30 2021 N 183.284 -1.43765 0.645699 0
M  V30 2022 C 184.216 -2.29027 -0.0890605 0
M  V30 2023 C 185.229 -1.42093 -0.794563 0
M  V30 2024 O 186.418 -1.66104 -0.653575 0
M  V30 2025 C 183.518 -3.18831 -1.14891 0
M  V30 2026 C 182.691 -4.34261 -0.523043 0
M  V30 2027 C 181.75 -5.04994 -1.47878 0
M  V30 2028 O 180.776 -5.6052 -0.990277 0
M  V30 2029 N 181.978 -5.07795 -2.81291 0
M  V30 2030 H 184.743 -2.92727 0.64272 0
M  V30 2031 H 182.304 -1.54373 0.487924 0
M  V30 2032 H 184.296 -3.63015 -1.78892 0
M  V30 2033 H 182.866 -2.56782 -1.78275 0
M  V30 2034 H 182.086 -3.93088 0.295896 0
M  V30 2035 H 183.374 -5.08728 -0.0858147 0
M  V30 2036 H 182.772 -4.64042 -3.23546 0
M  V30 2037 H 181.329 -5.55721 -3.40614 0
M  V30 2038 N 184.763 -0.387143 -1.52771 0
M  V30 2039 C 186.009 0.196025 -2.0185 0
M  V30 2040 C 186.342 1.46641 -1.27319 0
M  V30 2041 O 185.617 1.90889 -0.373032 0
M  V30 2042 C 185.9 0.466136 -3.5707 0
M  V30 2043 C 185.753 -0.819385 -4.42274 0
M  V30 2044 C 187.072 1.25768 -4.21747 0
M  V30 2045 H 184.191 0.0697708 -0.73369 0
M  V30 2046 H 186.833 -0.516286 -1.82851 0
M  V30 2047 H 184.983 1.07293 -3.7339 0
M  V30 2048 H 186.655 -1.4563 -4.37709 0
M  V30 2049 H 184.898 -1.43517 -4.09372 0
M  V30 2050 H 185.569 -0.585065 -5.48891 0
M  V30 2051 H 188.045 0.744167 -4.09391 0
M  V30 2052 H 186.921 1.41541 -5.30337 0
M  V30 2053 H 187.182 2.27228 -3.79236 0
M  V30 2054 N 186.241 1.57166 -0.116904 0
M  V30 2055 C 187.471 1.99184 0.548586 0
M  V30 2056 C 187.879 0.995436 1.60897 0
M  V30 2057 O 187.222 -0.0201293 1.83689 0
M  V30 2058 C 187.284 3.37611 1.23526 0
M  V30 2059 C 186.948 4.55857 0.323077 0
M  V30 2060 C 187.945 5.18056 -0.437476 0
M  V30 2061 C 185.63 5.01751 0.234761 0
M  V30 2062 C 187.624 6.24536 -1.2741 0
M  V30 2063 C 185.311 6.08093 -0.605496 0
M  V30 2064 C 186.309 6.69352 -1.35856 0
M  V30 2065 O 185.997 7.7364 -2.18487 0
M  V30 2066 H 185.729 0.659148 0.149999 0
M  V30 2067 H 188.283 2.0443 -0.199428 0
M  V30 2068 H 186.513 3.29113 2.0303 0
M  V30 2069 H 188.202 3.63932 1.79745 0
M  V30 2070 H 188.968 4.83516 -0.379105 0
M  V30 2071 H 184.847 4.53817 0.810601 0
M  V30 2072 H 188.391 6.72281 -1.86237 0
M  V30 2073 H 184.288 6.42063 -0.665268 0
M  V30 2074 H 185.056 7.90727 -2.11406 0
M  V30 2075 N 187.719 -0.156864 1.56817 0
M  V30 2076 C 188.967 -0.869404 1.82444 0
M  V30 2077 C 189.288 -1.82147 0.69623 0
M  V30 2078 O 188.558 -1.93847 -0.28287 0
M  V30 2079 H 187.138 -0.324043 0.673056 0
M  V30 2080 H 189.8 -0.153224 1.94297 0
M  V30 2081 H 188.896 -1.43761 2.77019 0
M  V30 2082 N 189.197 -1.51736 -0.425897 0
M  V30 2083 C 190.444 -1.6497 -1.17436 0
M  V30 2084 C 190.772 -0.371445 -1.9092 0
M  V30 2085 O 190.027 0.644963 -1.84767 0
M  V30 2086 C 190.326 -2.81103 -2.20717 0
M  V30 2087 C 189.992 -4.19954 -1.64162 0
M  V30 2088 C 188.654 -4.57725 -1.48462 0
M  V30 2089 C 191.006 -5.06552 -1.22696 0
M  V30 2090 C 188.334 -5.79789 -0.897873 0
M  V30 2091 C 190.686 -6.29205 -0.654464 0
M  V30 2092 C 189.35 -6.6574 -0.484456 0
M  V30 2093 H 188.62 -0.603668 -0.429727 0
M  V30 2094 H 191.267 -1.85798 -0.463829 0
M  V30 2095 H 189.572 -2.54542 -2.97852 0
M  V30 2096 H 191.269 -2.8854 -2.78471 0
M  V30 2097 H 187.859 -3.90181 -1.77361 0
M  V30 2098 H 192.043 -4.77968 -1.33642 0
M  V30 2099 H 187.299 -6.06733 -0.75402 0
M  V30 2100 H 191.473 -6.95643 -0.324694 0
M  V30 2101 H 189.1 -7.60195 -0.0276833 0
M  V30 2102 N 190.675 0.682077 -1.42076 0
M  V30 2103 C 191.905 1.46844 -1.45329 0
M  V30 2104 C 192.313 1.89102 -0.0609328 0
M  V30 2105 O 191.656 1.58238 0.933082 0
M  V30 2106 C 191.718 2.75375 -2.31104 0
M  V30 2107 C 191.382 2.55238 -3.79081 0
M  V30 2108 C 192.379 2.20309 -4.70914 0
M  V30 2109 C 190.064 2.70459 -4.2327 0
M  V30 2110 C 192.058 2.00859 -6.04925 0
M  V30 2111 C 189.745 2.50624 -5.57343 0
M  V30 2112 C 190.743 2.15876 -6.47986 0
M  V30 2113 O 190.431 1.96227 -7.79583 0
M  V30 2114 H 190.163 0.4586 -0.496651 0
M  V30 2115 H 192.717 0.846131 -1.87162 0
M  V30 2116 H 190.947 3.40061 -1.84107 0
M  V30 2117 H 192.636 3.37231 -2.25898 0
M  V30 2118 H 193.402 2.08153 -4.38061 0
M  V30 2119 H 189.281 2.96485 -3.53012 0
M  V30 2120 H 192.825 1.7366 -6.75639 0
M  V30 2121 H 188.722 2.62375 -5.89771 0
M  V30 2122 H 189.49 2.10883 -7.90867 0
M  V30 2123 N 192.153 1.28127 0.917671 0
M  V30 2124 C 193.43 1.05761 1.64542 0
M  V30 2125 C 193.81 -0.404344 2.07191 0
M  V30 2126 O 193.158 -1.38963 1.81388 0
M  V30 2127 C 193.368 2.02857 2.83989 0
M  V30 2128 C 194.716 2.32786 3.551 0
M  V30 2129 O 195.74 2.0091 2.94132 0
M  V30 2130 O 194.599 2.87169 4.64969 0
M  V30 2131 H 191.693 0.403916 0.721652 0
M  V30 2132 H 194.239 1.39431 0.967322 0
M  V30 2133 H 193.011 3.01407 2.49538 0
M  V30 2134 H 192.634 1.69809 3.59514 0
M  V30 2135 N 193.631 -1.12557 1.10312 0
M  V30 2136 C 194.541 -2.21841 0.763142 0
M  V30 2137 C 195.557 -1.72354 -0.238801 0
M  V30 2138 O 196.733 -2.01249 -0.0778746 0
M  V30 2139 C 193.798 -3.46131 0.198632 0
M  V30 2140 C 192.859 -4.10464 1.25769 0
M  V30 2141 C 192.092 -5.28821 0.72002 0
M  V30 2142 O 192.315 -5.6859 -0.453993 0
M  V30 2143 O 191.249 -5.83437 1.47935 0
M  V30 2144 H 195.075 -2.53312 1.67532 0
M  V30 2145 H 192.66 -1.20867 0.878157 0
M  V30 2146 H 194.542 -4.2125 -0.112401 0
M  V30 2147 H 193.217 -3.16338 -0.686419 0
M  V30 2148 H 192.124 -3.3713 1.62156 0
M  V30 2149 H 193.457 -4.44408 2.11571 0
M  V30 2150 N 195.109 -0.891671 -1.2995 0
M  V30 2151 C 196.349 -0.520296 -1.97667 0
M  V30 2152 C 196.713 0.914797 -1.68806 0
M  V30 2153 O 197.914 1.39263 -2.29911 0
M  V30 2154 C 196.185 -0.795222 -3.48441 0
M  V30 2155 S 197.744 -0.526953 -4.35624 0
M  V30 2156 H 194.562 -0.19333 -0.684211 0
M  V30 2157 H 197.164 -1.15238 -1.57926 0
M  V30 2158 H 195.868 -1.83805 -3.66938 0
M  V30 2159 H 195.399 -0.15095 -3.9311 0
M  V30 2160 H 197.414 0.631533 -4.92165 0
M  V30 2161 N 196.587 1.43421 -0.653314 0
M  V30 2162 C 197.517 2.33487 0.0246656 0
M  V30 2163 C 198.498 1.49475 0.811863 0
M  V30 2164 O 199.683 1.78139 0.773322 0
M  V30 2165 C 196.813 3.32841 0.99166 0
M  V30 2166 C 195.767 4.26842 0.314568 0
M  V30 2167 C 195.093 5.16236 1.39302 0
M  V30 2168 C 196.393 5.16243 -0.793095 0
M  V30 2169 H 198.087 2.90427 -0.727481 0
M  V30 2170 H 195.633 1.39649 -0.351287 0
M  V30 2171 H 197.586 3.94747 1.47487 0
M  V30 2172 H 196.31 2.74158 1.77497 0
M  V30 2173 H 194.969 3.663 -0.148199 0
M  V30 2174 H 194.617 4.53891 2.16776 0
M  V30 2175 H 194.317 5.79948 0.945223 0
M  V30 2176 H 195.841 5.81015 1.87759 0
M  V30 2177 H 197.255 5.71958 -0.392039 0
M  V30 2178 H 195.652 5.88676 -1.16536 0
M  V30 2179 H 196.722 4.55927 -1.65103 0
M  V30 2180 N 198.065 0.39524 1.52563 0
M  V30 2181 C 199.481 0.0454682 1.59535 0
M  V30 2182 C 199.681 -1.44056 1.4089 0
M  V30 2183 O 198.737 -2.20579 1.22888 0
M  V30 2184 C 200.05 0.527963 2.96029 0
M  V30 2185 C 201.598 0.484733 3.09224 0
M  V30 2186 C 202.073 0.943512 4.48176 0
M  V30 2187 N 203.564 0.899765 4.54377 0
M  V30 2188 C 204.299 1.22609 5.60138 0
M  V30 2189 N 203.795 1.62319 6.73516 0
M  V30 2190 N 205.588 1.14696 5.50274 0
M  V30 2191 H 197.739 1.36261 1.62931 0
M  V30 2192 H 200.002 0.558887 0.765735 0
M  V30 2193 H 199.708 1.56607 3.14908 0
M  V30 2194 H 199.582 -0.0698056 3.77135 0
M  V30 2195 H 201.969 -0.544298 2.90037 0
M  V30 2196 H 202.05 1.11838 2.30056 0
M  V30 2197 H 201.694 1.9708 4.68104 0
M  V30 2198 H 201.624 0.286817 5.25818 0
M  V30 2199 H 204.115 0.607632 3.72983 0
M  V30 2200 H 204.428 1.85567 7.5019 0
M  V30 2201 H 202.773 1.66211 6.74833 0
M  V30 2202 H 205.964 0.835701 4.6058 0
M  V30 2203 H 206.137 1.40459 6.32594 0
M  V30 2204 N 199.544 -1.57102 0.125237 0
M  V30 2205 C 200.491 -2.15641 -0.822655 0
M  V30 2206 C 201.461 -1.08313 -1.25927 0
M  V30 2207 O 202.646 -1.36251 -1.33567 0
M  V30 2208 C 199.786 -2.76504 -2.06494 0
M  V30 2209 C 198.899 -3.98158 -1.67612 0
M  V30 2210 C 198.034 -4.47088 -2.86854 0
M  V30 2211 C 197.073 -5.6126 -2.44242 0
M  V30 2212 N 196.21 -6.04905 -3.56419 0
M  V30 2213 H 201.05 -2.96313 -0.316625 0
M  V30 2214 H 198.587 -1.46388 -0.144588 0
M  V30 2215 H 200.545 -3.09925 -2.79289 0
M  V30 2216 H 199.175 -1.98512 -2.54545 0
M  V30 2217 H 198.227 -3.70858 -0.846661 0
M  V30 2218 H 199.539 -4.80934 -1.32301 0
M  V30 2219 H 198.693 -4.82451 -3.67867 0
M  V30 2220 H 197.432 -3.63275 -3.25396 0
M  V30 2221 H 196.437 -5.25495 -1.61663 0
M  V30 2222 H 197.662 -6.46843 -2.0681 0
M  V30 2223 H 195.608 -5.24032 -3.94623 0
M  V30 2224 H 195.525 -6.82552 -3.25051 0
M  V30 2225 H 196.793 -6.44907 -4.37853 0
M  V30 2226 N 201.022 0.148545 -1.56898 0
M  V30 2227 C 202.252 0.875118 -1.8715 0
M  V30 2228 C 202.66 1.75322 -0.711262 0
M  V30 2229 O 202.003 1.80745 0.328151 0
M  V30 2230 C 202.065 1.7844 -3.12089 0
M  V30 2231 C 201.729 1.08361 -4.43967 0
M  V30 2232 C 202.726 0.438247 -5.1805 0
M  V30 2233 C 200.411 1.07358 -4.90693 0
M  V30 2234 C 202.405 -0.20779 -6.37061 0
M  V30 2235 C 200.092 0.42373 -6.09629 0
M  V30 2236 C 201.09 -0.215829 -6.82659 0
M  V30 2237 O 200.778 -0.855378 -7.99336 0
M  V30 2238 H 200.51 0.258504 -0.624621 0
M  V30 2239 H 203.064 0.14652 -2.04877 0
M  V30 2240 H 201.294 2.55389 -2.90367 0
M  V30 2241 H 202.983 2.38279 -3.286 0
M  V30 2242 H 203.749 0.437817 -4.8302 0
M  V30 2243 H 199.628 1.5608 -4.33774 0
M  V30 2244 H 203.172 -0.70758 -6.94002 0
M  V30 2245 H 199.069 0.421822 -6.4412 0
M  V30 2246 H 199.837 -0.756892 -8.14993 0
M  V30 2247 N 202.5 1.5196 0.417844 0
M  V30 2248 C 203.748 1.65263 1.16329 0
M  V30 2249 C 204.069 0.380634 1.91249 0
M  V30 2250 O 203.339 -0.604214 1.86349 0
M  V30 2251 H 201.919 0.60912 0.432414 0
M  V30 2252 H 204.581 1.88969 0.477162 0
M  V30 2253 H 203.677 2.4896 1.88217 0
M  V30 2254 N 203.978 -0.674533 1.42435 0
M  V30 2255 C 204.926 -1.80934 1.46169 0
M  V30 2256 C 205.92 -1.66006 0.3374 0
M  V30 2257 O 207.126 -1.72611 0.510425 0
M  V30 2258 H 203.501 -0.596594 0.457798 0
M  V30 2259 H 205.472 -1.74903 2.41767 0
M  V30 2260 C 204.221 -3.19088 1.38123 0
M  V30 2261 H 203.544 -3.31203 2.23931 0
M  V30 2262 H 204.984 -3.9851 1.44797 0
M  V30 2263 C 203.443 -3.36763 0.0960517 0
M  V30 2264 O 203.973 -3.92581 -0.851073 0
M  V30 2265 N 202.179 -2.90597 0.0131186 0
M  V30 2266 H 201.726 -2.45359 0.784639 0
M  V30 2267 H 201.684 -3.028 -0.846133 0
M  V30 2268 N 205.456 -1.28612 -0.910864 0
M  V30 2269 C 206.419 -1.12803 -1.9952 0
M  V30 2270 C 207.419 -0.0668264 -1.60661 0
M  V30 2271 O 208.609 -0.312847 -1.71368 0
M  V30 2272 C 205.741 -0.72254 -3.33155 0
M  V30 2273 H 206.934 -2.09109 -2.14973 0
M  V30 2274 H 204.487 -1.11639 -1.09391 0
M  V30 2275 H 205.222 0.241152 -3.23402 0
M  V30 2276 H 205.007 -1.48916 -3.62721 0
M  V30 2277 H 206.497 -0.634666 -4.12749 0
M  V30 2278 N 206.934 1.1197 -1.10907 0
M  V30 2279 C 207.882 2.19927 -0.757303 0
M  V30 2280 C 208.876 1.67564 0.248747 0
M  V30 2281 O 210.082 1.79672 0.108605 0
M  V30 2282 H 206.457 0.716925 -0.226987 0
M  V30 2283 H 208.428 2.46847 -1.67658 0
M  V30 2284 C 207.177 3.47061 -0.210671 0
M  V30 2285 H 206.5 3.87703 -0.976049 0
M  V30 2286 H 207.94 4.24 -0.0026584 0
M  V30 2287 C 206.399 3.19864 1.05777 0
M  V30 2288 O 206.929 3.40049 2.13845 0
M  V30 2289 N 205.135 2.73636 0.978349 0
M  V30 2290 H 204.682 2.5741 0.0988246 0
M  V30 2291 H 204.64 2.55815 1.82773 0
M  V30 2292 N 208.412 0.89855 1.29475 0
M  V30 2293 C 209.658 0.524658 1.95896 0
M  V30 2294 C 209.991 -0.926468 1.70676 0
M  V30 2295 O 209.266 -1.65665 1.01908 0
M  V30 2296 C 209.549 0.81633 3.50725 0
M  V30 2297 C 209.402 2.31907 3.85408 0
M  V30 2298 C 210.721 0.302038 4.39062 0
M  V30 2299 H 207.84 0.19209 0.711527 0
M  V30 2300 H 210.482 1.12502 1.53112 0
M  V30 2301 H 208.632 0.305369 3.87298 0
M  V30 2302 H 210.304 2.89949 3.58786 0
M  V30 2303 H 208.547 2.78027 3.32992 0
M  V30 2304 H 209.218 2.47373 4.93468 0
M  V30 2305 H 211.694 0.739551 4.09475 0
M  V30 2306 H 210.57 0.535331 5.46283 0
M  V30 2307 H 210.831 -0.797216 4.34853 0
M  V30 2308 N 209.89 -1.43072 0.660911 0
M  V30 2309 C 211.136 -2.02545 0.186337 0
M  V30 2310 C 211.491 -1.51253 -1.18913 0
M  V30 2311 O 210.784 -0.699167 -1.78388 0
M  V30 2312 C 210.978 -3.57103 0.145563 0
M  V30 2313 C 210.807 -4.23393 1.51554 0
M  V30 2314 C 209.577 -4.59144 2.10984 0
M  V30 2315 C 211.775 -4.51897 2.45548 0
M  V30 2316 N 209.757 -5.10545 3.40907 0
M  V30 2317 C 211.128 -5.04698 3.6011 0
M  V30 2318 C 213.183 -4.33872 2.44253 0
M  V30 2319 C 211.886 -5.41371 4.73613 0
M  V30 2320 C 213.912 -4.71612 3.56842 0
M  V30 2321 C 213.274 -5.24553 4.70131 0
M  V30 2322 H 209.373 -0.773823 0.112792 0
M  V30 2323 H 211.957 -1.74137 0.870885 0
M  V30 2324 H 210.128 -3.85059 -0.508353 0
M  V30 2325 H 211.86 -4.03264 -0.340598 0
M  V30 2326 H 208.615 -4.4444 1.63615 0
M  V30 2327 H 209.039 -5.40689 4.07411 0
M  V30 2328 H 213.681 -3.92208 1.579 0
M  V30 2329 H 211.399 -5.81975 5.60652 0
M  V30 2330 H 214.985 -4.59354 3.57051 0
M  V30 2331 H 213.865 -5.53213 5.5581 0
M  V30 2332 N 211.368 -0.403325 -1.52352 0
M  V30 2333 C 212.315 0.425011 -2.26853 0
M  V30 2334 C 213.285 1.04598 -1.29029 0
M  V30 2335 O 214.47 1.07135 -1.57882 0
M  V30 2336 C 211.61 1.53888 -3.08889 0
M  V30 2337 C 210.723 0.939396 -4.21663 0
M  V30 2338 C 209.858 2.02547 -4.91068 0
M  V30 2339 C 208.897 1.40263 -5.95813 0
M  V30 2340 N 208.034 2.4286 -6.58759 0
M  V30 2341 H 212.874 -0.21674 -2.97211 0
M  V30 2342 H 210.411 -0.118722 -1.4662 0
M  V30 2343 H 212.369 2.19558 -3.54753 0
M  V30 2344 H 210.999 2.15074 -2.40714 0
M  V30 2345 H 210.051 0.171898 -3.80011 0
M  V30 2346 H 211.363 0.44436 -4.96817 0
M  V30 2347 H 210.517 2.75958 -5.40308 0
M  V30 2348 H 209.256 2.55415 -4.15469 0
M  V30 2349 H 208.261 0.653833 -5.45898 0
M  V30 2350 H 209.486 0.881719 -6.73352 0
M  V30 2351 H 207.432 2.94871 -5.85992 0
M  V30 2352 H 207.349 1.98152 -7.2957 0
M  V30 2353 H 208.617 3.15858 -7.12639 0
M  V30 2354 N 212.846 1.57033 -0.133567 0
M  V30 2355 C 214.076 1.99754 0.527429 0
M  V30 2356 C 214.484 1.01245 1.59832 0
M  V30 2357 O 213.827 -0.000645496 1.837 0
M  V30 2358 C 213.889 3.38903 1.19939 0
M  V30 2359 C 213.553 4.56174 0.274709 0
M  V30 2360 C 214.55 5.17563 -0.492398 0
M  V30 2361 C 212.235 5.01972 0.18153 0
M  V30 2362 C 214.229 6.2315 -1.34027 0
M  V30 2363 C 211.916 6.07416 -0.669958 0
M  V30 2364 C 212.914 6.67874 -1.42947 0
M  V30 2365 O 212.602 7.71279 -2.2668 0
M  V30 2366 H 212.334 0.660702 0.142999 0
M  V30 2367 H 214.888 2.04207 -0.221099 0
M  V30 2368 H 213.118 3.31248 1.99528 0
M  V30 2369 H 214.807 3.65818 1.75875 0
M  V30 2370 H 215.573 4.83087 -0.430367 0
M  V30 2371 H 211.452 4.54652 0.762422 0
M  V30 2372 H 214.996 6.70268 -1.93357 0
M  V30 2373 H 210.893 6.41321 -0.73333 0
M  V30 2374 H 211.661 7.88441 -2.1978 0
M  V30 2375 N 214.325 -0.140222 1.56975 0
M  V30 2376 C 215.572 -0.851687 1.83719 0
M  V30 2377 C 215.9 -1.80862 0.715485 0
M  V30 2378 O 215.155 -1.93464 -0.294956 0
M  V30 2379 C 215.454 -1.65386 3.16832 0
M  V30 2380 C 215.12 -0.843112 4.42947 0
M  V30 2381 C 213.782 -0.619464 4.77196 0
M  V30 2382 C 216.134 -0.276582 5.20466 0
M  V30 2383 C 213.462 0.181312 5.8642 0
M  V30 2384 C 215.814 0.51127 6.30531 0
M  V30 2385 C 214.478 0.745432 6.63325 0
M  V30 2386 H 213.748 -0.311654 0.672274 0
M  V30 2387 H 216.395 -0.115006 1.91154 0
M  V30 2388 H 214.7 -2.46084 3.04877 0
M  V30 2389 H 216.397 -2.20793 3.34741 0
M  V30 2390 H 212.987 -1.0275 4.16101 0
M  V30 2391 H 217.171 -0.436632 4.94376 0
M  V30 2392 H 212.427 0.372165 6.10266 0
M  V30 2393 H 216.601 0.957354 6.89788 0
M  V30 2394 H 214.228 1.36778 7.47794 0
M  V30 2395 N 215.803 -1.52179 -0.40978 0
M  V30 2396 C 217.031 -1.70054 -1.17853 0
M  V30 2397 C 217.446 -0.409735 -1.843 0
M  V30 2398 O 216.803 0.614183 -1.71855 0
M  V30 2399 C 216.854 -2.83568 -2.24213 0
M  V30 2400 O 216.575 -4.0765 -1.60478 0
M  V30 2401 C 218.076 -3.12947 -3.13973 0
M  V30 2402 H 215.296 -0.569917 -0.354169 0
M  V30 2403 H 217.84 -1.98734 -0.482198 0
M  V30 2404 H 215.995 -2.57409 -2.89516 0
M  V30 2405 H 216.409 -4.70899 -2.30986 0
M  V30 2406 H 217.883 -3.95889 -3.84677 0
M  V30 2407 H 218.36 -2.26472 -3.76307 0
M  V30 2408 H 218.966 -3.40868 -2.5434 0
M  V30 2409 N 217.281 0.66697 -1.42791 0
M  V30 2410 C 218.558 1.4234 -1.34159 0
M  V30 2411 C 218.938 2.11093 0.0172729 0
M  V30 2412 O 218.286 2.03808 1.03318 0
M  V30 2413 C 218.496 2.41942 -2.51526 0
M  V30 2414 C 219.844 3.06353 -2.93995 0
M  V30 2415 O 220.868 2.52269 -2.51473 0
M  V30 2416 O 219.727 4.04376 -3.67617 0
M  V30 2417 H 216.821 0.635277 -0.529483 0
M  V30 2418 H 219.367 0.695034 -1.54814 0
M  V30 2419 H 218.139 1.89991 -3.42081 0
M  V30 2420 H 217.762 3.22249 -2.32898 0
M  V30 2421 N 218.759 1.29093 0.90403 0
M  V30 2422 C 219.689 1.16401 2.02418 0
M  V30 2423 C 220.67 0.0593085 1.69997 0
M  V30 2424 O 221.855 0.238021 1.92736 0
M  V30 2425 C 218.985 0.835233 3.37107 0
M  V30 2426 C 217.939 1.89578 3.83724 0
M  V30 2427 C 217.265 1.42041 5.15489 0
M  V30 2428 C 218.565 3.30394 4.04521 0
M  V30 2429 H 220.259 2.10109 2.13295 0
M  V30 2430 H 217.805 1.01157 1.02486 0
M  V30 2431 H 219.758 0.733169 4.14973 0
M  V30 2432 H 218.482 -0.137543 3.2631 0
M  V30 2433 H 217.141 1.98715 3.08071 0
M  V30 2434 H 216.789 0.436426 5.01103 0
M  V30 2435 H 216.489 2.12964 5.4765 0
M  V30 2436 H 218.013 1.33176 5.959 0
M  V30 2437 H 219.427 3.24123 4.72882 0
M  V30 2438 H 217.824 3.99237 4.48029 0
M  V30 2439 H 218.894 3.73692 3.09002 0
M  V30 2440 N 220.237 -1.11381 1.11499 0
M  V30 2441 C 221.484 -1.83132 0.864231 0
M  V30 2442 C 221.812 -1.84683 -0.610114 0
M  V30 2443 O 221.067 -1.29589 -1.46646 0
M  V30 2444 C 221.366 -3.30026 1.37177 0
M  V30 2445 C 221.032 -3.48634 2.85946 0
M  V30 2446 C 219.694 -3.53421 3.26569 0
M  V30 2447 C 222.046 -3.54837 3.81759 0
M  V30 2448 C 219.374 -3.61967 4.61733 0
M  V30 2449 C 221.726 -3.64915 5.1674 0
M  V30 2450 C 220.39 -3.67962 5.5692 0
M  V30 2451 H 219.66 -0.670127 0.316245 0
M  V30 2452 H 222.307 -1.31354 1.3935 0
M  V30 2453 H 220.612 -3.84304 0.762753 0
M  V30 2454 H 222.309 -3.84034 1.15408 0
M  V30 2455 H 218.899 -3.45579 2.53521 0
M  V30 2456 H 223.083 -3.50399 3.51474 0
M  V30 2457 H 218.339 -3.62603 4.92269 0
M  V30 2458 H 222.513 -3.68658 5.90816 0
M  V30 2459 H 220.14 -3.74336 6.61647 0
M  V30 2460 N 221.715 -0.905404 -1.28997 0
M  V30 2461 C 222.992 -0.453513 -1.9027 0
M  V30 2462 C 223.372 1.06721 -1.82137 0
M  V30 2463 O 222.72 1.91159 -1.25182 0
M  V30 2464 C 222.93 -0.974494 -3.35119 0
M  V30 2465 C 224.278 -1.0216 -4.12127 0
M  V30 2466 O 225.302 -0.922557 -3.44046 0
M  V30 2467 O 224.161 -1.17121 -5.33802 0
M  V30 2468 H 221.255 -0.142347 -0.814657 0
M  V30 2469 H 223.801 -0.995642 -1.37423 0
M  V30 2470 H 222.573 -2.01848 -3.35221 0
M  V30 2471 H 222.196 -0.412706 -3.95452 0
M  V30 2472 N 223.193 1.4272 -0.668489 0
M  V30 2473 C 224.423 2.05668 -0.196063 0
M  V30 2474 C 224.831 1.5028 1.14946 0
M  V30 2475 O 224.174 0.6348 1.72383 0
M  V30 2476 C 224.236 3.59469 -0.0468879 0
M  V30 2477 C 223.9 4.37518 -1.32012 0
M  V30 2478 C 224.897 4.68584 -2.25222 0
M  V30 2479 C 222.582 4.77266 -1.56596 0
M  V30 2480 C 224.576 5.38326 -3.41297 0
M  V30 2481 C 222.263 5.4675 -2.72962 0
M  V30 2482 C 223.261 5.77204 -3.65137 0
M  V30 2483 O 222.949 6.45264 -4.79468 0
M  V30 2484 H 222.681 0.669382 -0.0943599 0
M  V30 2485 H 225.235 1.83954 -0.913788 0
M  V30 2486 H 223.465 3.79817 0.726357 0
M  V30 2487 H 225.154 4.04071 0.384852 0
M  V30 2488 H 225.92 4.38382 -2.07477 0
M  V30 2489 H 221.799 4.52959 -0.857249 0
M  V30 2490 H 225.343 5.62014 -4.13263 0
M  V30 2491 H 221.24 5.76369 -2.90635 0
M  V30 2492 H 222.008 6.63753 -4.78931 0
M  V30 2493 N 224.671 0.411399 1.52136 0
M  V30 2494 C 225.601 -0.404015 2.29978 0
M  V30 2495 C 226.582 -1.04412 1.34284 0
M  V30 2496 O 227.767 -1.0527 1.63192 0
M  V30 2497 C 224.897 -1.5197 3.12286 0
M  V30 2498 C 223.851 -1.00448 4.16046 0
M  V30 2499 C 223.177 -2.21393 4.86712 0
M  V30 2500 C 224.477 -0.0569336 5.22269 0
M  V30 2501 H 226.171 0.245529 2.98392 0
M  V30 2502 H 223.717 0.119525 1.43503 0
M  V30 2503 H 225.67 -2.09715 3.6551 0
M  V30 2504 H 224.394 -2.19716 2.41646 0
M  V30 2505 H 223.053 -0.449421 3.63835 0
M  V30 2506 H 222.701 -2.87699 4.12599 0
M  V30 2507 H 222.401 -1.87571 5.56858 0
M  V30 2508 H 223.925 -2.7974 5.4275 0
M  V30 2509 H 225.339 -0.54325 5.7072 0
M  V30 2510 H 223.736 0.192594 5.99791 0
M  V30 2511 H 224.806 0.887663 4.76706 0
M  V30 2512 N 226.149 -1.5696 0.141893 0
M  V30 2513 C 227.56 -1.82797 -0.379776 0
M  V30 2514 C 227.911 -1.06033 -1.6508 0
M  V30 2515 O 227.036 -0.304011 -2.14254 0
M  V30 2516 C 227.631 -3.31578 -0.695802 0
M  V30 2517 C 226.19 -3.58014 -1.16201 0
M  V30 2518 C 225.337 -2.76699 -0.182455 0
M  V30 2519 H 228.288 -1.54406 0.366675 0
M  V30 2520 H 228.309 -3.47454 -1.55099 0
M  V30 2521 H 227.821 -3.87421 0.229449 0
M  V30 2522 H 225.922 -3.07553 -2.10338 0
M  V30 2523 H 226.035 -4.66501 -1.09151 0
M  V30 2524 H 224.399 -2.45618 -0.674072 0
M  V30 2525 H 225.182 -3.35311 0.736297 0
M  V30 2526 N 227.627 0.131896 -1.57047 0
M  V30 2527 C 228.557 1.16384 -2.02428 0
M  V30 2528 C 229.538 1.43936 -0.90644 0
M  V30 2529 O 230.723 1.54599 -1.17528 0
M  V30 2530 C 227.853 2.49328 -2.4177 0
M  V30 2531 C 226.807 2.36266 -3.56879 0
M  V30 2532 C 226.133 3.74057 -3.8208 0
M  V30 2533 C 227.433 1.834 -4.89042 0
M  V30 2534 H 229.127 0.786433 -2.88887 0
M  V30 2535 H 226.673 0.376855 -1.38981 0
M  V30 2536 H 228.626 3.21759 -2.7212 0
M  V30 2537 H 227.35 2.88934 -1.52266 0
M  V30 2538 H 226.009 1.66286 -3.26718 0
M  V30 2539 H 225.657 4.11125 -2.89803 0
M  V30 2540 H 225.357 3.66174 -4.59554 0
M  V30 2541 H 226.881 4.48012 -4.1487 0
M  V30 2542 H 228.295 2.45636 -5.18011 0
M  V30 2543 H 226.692 1.8637 -5.70426 0
M  V30 2544 H 227.762 0.790662 -4.7841 0
M  V30 2545 N 229.106 1.52395 0.401703 0
M  V30 2546 C 230.334 1.70676 1.16949 0
M  V30 2547 C 230.749 0.419503 1.8408 0
M  V30 2548 O 230.106 -0.605061 1.72178 0
M  V30 2549 C 230.157 2.84753 2.22706 0
M  V30 2550 O 229.878 4.08495 1.58314 0
M  V30 2551 C 231.379 3.14608 3.12309 0
M  V30 2552 H 228.599 0.571787 0.351142 0
M  V30 2553 H 231.143 1.98987 0.471652 0
M  V30 2554 H 229.298 2.58941 2.88147 0
M  V30 2555 H 229.712 4.72117 2.28485 0
M  V30 2556 H 231.186 3.97923 3.82572 0
M  V30 2557 H 231.663 2.28464 3.75101 0
M  V30 2558 H 232.269 3.42212 2.52529 0
M  V30 2559 N 230.584 -0.659388 1.43143 0
M  V30 2560 C 231.547 -1.75432 1.47501 0
M  V30 2561 C 232.547 -1.56707 0.360512 0
M  V30 2562 O 233.737 -1.62717 0.622002 0
M  V30 2563 C 230.869 -3.14239 1.32162 0
M  V30 2564 H 232.062 -1.7295 2.45006 0
M  V30 2565 H 229.615 -0.870469 1.29817 0
M  V30 2566 H 230.35 -3.22336 0.356401 0
M  V30 2567 H 230.135 -3.29235 2.12948 0
M  V30 2568 H 231.625 -3.94094 1.3813 0
M  V30 2569 N 232.062 -1.29571 -0.897171 0
M  V30 2570 C 232.992 -1.17473 -2.01798 0
M  V30 2571 C 233.973 -0.068323 -1.69963 0
M  V30 2572 O 235.158 -0.248239 -1.92607 0
M  V30 2573 C 232.288 -0.853099 -3.36659 0
M  V30 2574 C 231.242 -1.9161 -3.82713 0
M  V30 2575 C 230.568 -1.44773 -5.14728 0
M  V30 2576 C 231.868 -3.32535 -4.02763 0
M  V30 2577 H 233.562 -2.11237 -2.12177 0
M  V30 2578 H 231.108 -1.01699 -1.01948 0
M  V30 2579 H 233.061 -0.755165 -4.14578 0
M  V30 2580 H 231.785 0.120236 -3.26379 0
M  V30 2581 H 230.444 -2.00346 -3.07013 0
M  V30 2582 H 230.092 -0.462995 -5.00865 0
M  V30 2583 H 229.792 -2.15865 -5.46513 0
M  V30 2584 H 231.316 -1.36334 -5.95185 0
M  V30 2585 H 232.73 -3.26626 -4.71156 0
M  V30 2586 H 231.127 -4.01607 -4.45905 0
M  V30 2587 H 232.197 -3.75326 -3.07016 0
M  V30 2588 N 233.54 1.10788 -1.12088 0
M  V30 2589 C 234.786 1.82942 -0.875226 0
M  V30 2590 C 235.119 1.84779 0.597538 0
M  V30 2591 O 234.394 1.30578 1.44152 0
M  V30 2592 C 234.677 3.29789 -1.44606 0
M  V30 2593 C 234.53 3.36307 -2.98693 0
M  V30 2594 C 235.849 4.26064 -1.10261 0
M  V30 2595 H 232.968 0.664195 -0.319397 0
M  V30 2596 H 235.61 1.29867 -1.38689 0
M  V30 2597 H 233.76 3.75118 -1.01089 0
M  V30 2598 H 235.432 2.99487 -3.50864 0
M  V30 2599 H 233.675 2.76318 -3.34411 0
M  V30 2600 H 234.346 4.39694 -3.33726 0
M  V30 2601 H 236.822 3.88951 -1.4784 0
M  V30 2602 H 235.698 5.27183 -1.52869 0
M  V30 2603 H 235.959 4.42098 -0.0142953 0
M  V30 2604 N 235.018 0.912232 1.28515 0
M  V30 2605 C 236.295 0.463597 1.90027 0
M  V30 2606 C 236.675 -1.05753 1.82701 0
M  V30 2607 O 236.023 -1.90492 1.26194 0
M  V30 2608 C 236.233 0.992253 3.34597 0
M  V30 2609 C 237.581 1.04344 4.11579 0
M  V30 2610 O 238.605 0.94079 3.43551 0
M  V30 2611 O 237.464 1.1995 5.33174 0
M  V30 2612 H 234.558 0.146666 0.813891 0
M  V30 2613 H 237.104 1.00292 1.36893 0
M  V30 2614 H 235.876 2.03623 3.34146 0
M  V30 2615 H 235.499 0.433672 3.95228 0
M  V30 2616 N 236.496 -1.42363 0.676048 0
M  V30 2617 C 237.744 -2.01123 0.198437 0
M  V30 2618 C 238.065 -1.53731 -1.19966 0
M  V30 2619 O 237.335 -0.759518 -1.80577 0
M  V30 2620 H 235.915 -0.743678 0.0703721 0
M  V30 2621 H 238.577 -1.74263 0.872837 0
M  V30 2622 H 237.673 -3.11454 0.200686 0
M  V30 2623 N 237.974 -0.419461 -1.51915 0
M  V30 2624 C 238.906 0.43646 -2.25006 0
M  V30 2625 C 239.919 1.00149 -1.28351 0
M  V30 2626 O 241.108 0.898674 -1.54227 0
M  V30 2627 C 238.208 1.6206 -2.9764 0
M  V30 2628 C 237.381 1.17763 -4.21249 0
M  V30 2629 C 236.44 2.22985 -4.76617 0
M  V30 2630 O 235.466 1.83151 -5.38929 0
M  V30 2631 N 236.668 3.55271 -4.59089 0
M  V30 2632 H 239.433 -0.18989 -2.99098 0
M  V30 2633 H 236.994 -0.247386 -1.59999 0
M  V30 2634 H 238.986 2.32038 -3.31573 0
M  V30 2635 H 237.556 2.15266 -2.2667 0
M  V30 2636 H 236.776 0.305582 -3.93014 0
M  V30 2637 H 238.064 0.858781 -5.015 0
M  V30 2638 H 237.462 3.90377 -4.09417 0
M  V30 2639 H 236.019 4.21195 -4.97432 0
M  V30 2640 N 239.452 1.56882 -0.150215 0
M  V30 2641 C 240.701 1.95403 0.500071 0
M  V30 2642 C 241.014 1.03777 1.658 0
M  V30 2643 O 242.22 1.31889 2.37313 0
M  V30 2644 C 240.676 3.4738 0.941018 0
M  V30 2645 C 240.284 4.47596 -0.190158 0
M  V30 2646 C 242.028 3.9476 1.56091 0
M  V30 2647 C 239.935 5.90787 0.269237 0
M  V30 2648 H 238.865 0.729515 0.190588 0
M  V30 2649 H 241.516 1.81988 -0.235074 0
M  V30 2650 H 239.898 3.56138 1.73152 0
M  V30 2651 H 241.072 4.50536 -0.967157 0
M  V30 2652 H 239.387 4.10151 -0.718666 0
M  V30 2653 H 241.984 4.99181 1.9163 0
M  V30 2654 H 242.327 3.36494 2.45107 0
M  V30 2655 H 242.86 3.88932 0.835249 0
M  V30 2656 H 239.599 6.52879 -0.585621 0
M  V30 2657 H 239.119 5.912 1.01204 0
M  V30 2658 H 240.798 6.42979 0.720176 0
M  V30 2659 N 240.93 -0.123565 1.57115 0
M  V30 2660 C 242.177 -0.832153 1.84612 0
M  V30 2661 C 242.505 -1.80093 0.734627 0
M  V30 2662 O 241.76 -1.93766 -0.27442 0
M  V30 2663 C 242.059 -1.62016 3.18568 0
M  V30 2664 C 241.725 -0.796084 4.43817 0
M  V30 2665 C 240.387 -0.568816 4.77826 0
M  V30 2666 C 242.739 -0.221364 5.2073 0
M  V30 2667 C 240.067 0.243499 5.86194 0
M  V30 2668 C 242.419 0.578117 6.29953 0
M  V30 2669 C 241.083 0.815744 6.62497 0
M  V30 2670 H 240.353 -0.304507 0.675542 0
M  V30 2671 H 243 -0.0947248 1.91266 0
M  V30 2672 H 241.305 -2.42837 3.0747 0
M  V30 2673 H 243.002 -2.17231 3.37064 0
M  V30 2674 H 239.592 -0.983307 4.17168 0
M  V30 2675 H 243.776 -0.384173 4.94811 0
M  V30 2676 H 239.032 0.436871 6.09837 0
M  V30 2677 H 243.206 1.03046 6.88734 0
M  V30 2678 H 240.833 1.44701 7.46301 0
M  V30 2679 N 242.408 -1.52605 -0.393616 0
M  V30 2680 C 243.648 -1.6911 -1.1481 0
M  V30 2681 C 244.012 -0.41969 -1.87357 0
M  V30 2682 O 245.213 -0.461034 -2.64817 0
M  V30 2683 C 243.484 -2.88909 -2.10395 0
M  V30 2684 S 245.043 -3.25977 -2.93742 0
M  V30 2685 H 241.861 -0.595337 -0.38871 0
M  V30 2686 H 244.463 -1.90641 -0.433178 0
M  V30 2687 H 243.167 -3.79672 -1.55812 0
M  V30 2688 H 242.698 -2.69698 -2.86403 0
M  V30 2689 H 244.713 -2.75806 -4.12487 0
M  V30 2690 N 243.887 0.651787 -1.4349 0
M  V30 2691 C 244.817 1.77621 -1.51569 0
M  V30 2692 C 245.798 1.66022 -0.370253 0
M  V30 2693 O 246.983 1.85095 -0.587658 0
M  V30 2694 C 244.113 3.16056 -1.43966 0
M  V30 2695 C 243.067 3.4242 -2.56774 0
M  V30 2696 C 242.393 4.8067 -2.34223 0
M  V30 2697 C 243.693 3.37023 -3.99015 0
M  V30 2698 H 245.387 1.71117 -2.45681 0
M  V30 2699 H 242.933 0.821825 -1.18246 0
M  V30 2700 H 244.886 3.94472 -1.48221 0
M  V30 2701 H 243.61 3.23293 -0.463586 0
M  V30 2702 H 242.269 2.66375 -2.51873 0
M  V30 2703 H 241.917 4.84585 -1.34856 0
M  V30 2704 H 241.617 4.9927 -3.09844 0
M  V30 2705 H 243.141 5.61342 -2.40265 0
M  V30 2706 H 244.555 4.05374 -4.05395 0
M  V30 2707 H 242.952 3.67159 -4.74673 0
M  V30 2708 H 244.022 2.3518 -4.2405 0
M  V30 2709 N 245.365 1.30045 0.890287 0
M  V30 2710 C 246.315 1.12592 1.9826 0
M  V30 2711 C 247.299 0.0426021 1.60844 0
M  V30 2712 O 248.491 0.265346 1.75 0
M  V30 2713 C 245.62 0.814301 3.33503 0
M  V30 2714 C 244.706 1.93761 3.7725 0
M  V30 2715 N 245.097 3.18232 3.93143 0
M  V30 2716 C 243.395 1.83277 4.06602 0
M  V30 2717 C 244.096 3.9158 4.30163 0
M  V30 2718 N 243.072 3.19591 4.3973 0
M  V30 2719 H 246.874 2.07003 2.08631 0
M  V30 2720 H 244.388 1.21307 1.07974 0
M  V30 2721 H 246.385 0.67029 4.11476 0
M  V30 2722 H 245.045 -0.121797 3.24471 0
M  V30 2723 H 246.056 3.53581 3.78419 0
M  V30 2724 H 242.733 0.97001 4.06075 0
M  V30 2725 H 244.123 4.98744 4.50226 0
M  V30 2726 N 246.843 -1.10192 1.12674 0
M  V30 2727 C 248.091 -1.81845 0.881861 0
M  V30 2728 C 248.412 -1.85737 -0.593867 0
M  V30 2729 O 247.682 -1.33724 -1.4316 0
M  V30 2730 H 246.262 -0.673432 0.323261 0
M  V30 2731 H 248.924 -1.33316 1.42172 0
M  V30 2732 H 248.02 -2.85288 1.2656 0
M  V30 2733 N 248.321 -0.919034 -1.28029 0
M  V30 2734 C 249.569 -0.553838 -1.94363 0
M  V30 2735 C 249.89 0.906357 -1.72656 0
M  V30 2736 O 249.16 1.64143 -1.0693 0
M  V30 2737 H 247.74 -0.201834 -0.719216 0
M  V30 2738 H 250.402 -1.16954 -1.55909 0
M  V30 2739 H 249.498 -0.752758 -3.02886 0
M  V30 2740 N 249.799 1.42003 -0.683588 0
M  V30 2741 C 250.729 2.33487 -0.024866 0
M  V30 2742 C 251.71 1.51163 0.779975 0
M  V30 2743 O 252.895 1.79739 0.735362 0
M  V30 2744 C 250.025 3.3487 0.920836 0
M  V30 2745 C 248.979 4.27414 0.223958 0
M  V30 2746 C 248.305 5.19074 1.2832 0
M  V30 2747 C 249.605 5.14445 -0.90242 0
M  V30 2748 H 251.299 2.88819 -0.788921 0
M  V30 2749 H 248.845 1.38873 -0.38083 0
M  V30 2750 H 250.798 3.97787 1.39081 0
M  V30 2751 H 249.522 2.77861 1.71642 0
M  V30 2752 H 248.181 3.65904 -0.225864 0
M  V30 2753 H 247.829 4.58387 2.071 0
M  V30 2754 H 247.529 5.81822 0.821995 0
M  V30 2755 H 249.053 5.84867 1.75392 0
M  V30 2756 H 250.467 5.70998 -0.513272 0
M  V30 2757 H 248.864 5.86072 -1.28997 0
M  V30 2758 H 249.934 4.52322 -1.74737 0
M  V30 2759 N 251.277 0.427512 1.51691 0
M  V30 2760 C 252.502 -0.143601 2.06902 0
M  V30 2761 C 252.927 -1.36536 1.29382 0
M  V30 2762 O 252.285 -1.78289 0.329043 0
M  V30 2763 C 252.333 -0.454207 3.57728 0
M  V30 2764 O 251.437 -1.54228 3.82475 0
M  V30 2765 H 250.778 -0.00617128 0.663971 0
M  V30 2766 H 253.308 0.606014 1.95419 0
M  V30 2767 H 253.318 -0.707525 4.01818 0
M  V30 2768 H 251.993 0.438812 4.13579 0
M  V30 2769 H 250.57 -1.2797 3.50254 0
M  V30 2770 N 252.755 -1.56801 0.158532 0
M  V30 2771 C 254.166 -1.83189 -0.360366 0
M  V30 2772 C 254.517 -1.07778 -1.63946 0
M  V30 2773 O 253.642 -0.326718 -2.13919 0
M  V30 2774 C 254.237 -3.32297 -0.660595 0
M  V30 2775 C 252.796 -3.59227 -1.12398 0
M  V30 2776 C 251.943 -2.76877 -0.153097 0
M  V30 2777 H 254.894 -1.54008 0.383031 0
M  V30 2778 H 254.915 -3.4908 -1.51405 0
M  V30 2779 H 254.427 -3.87156 0.270527 0
M  V30 2780 H 252.528 -3.09766 -2.07064 0
M  V30 2781 H 252.641 -4.67632 -1.04197 0
M  V30 2782 H 251.005 -2.46319 -0.647983 0
M  V30 2783 H 251.788 -3.34511 0.77182 0
M  V30 2784 N 254.233 0.115231 -1.57178 0
M  V30 2785 C 255.458 0.840354 -1.89612 0
M  V30 2786 C 255.883 1.72464 -0.750845 0
M  V30 2787 O 255.241 1.78826 0.298478 0
M  V30 2788 C 255.289 1.64654 -3.20814 0
M  V30 2789 O 254.393 2.7538 -3.06985 0
M  V30 2790 H 253.734 0.232158 -0.622092 0
M  V30 2791 H 256.264 0.0964977 -2.04372 0
M  V30 2792 H 256.274 2.03499 -3.53627 0
M  V30 2793 H 254.949 0.997416 -4.03763 0
M  V30 2794 H 253.526 2.3971 -2.85646 0
M  V30 2795 N 255.711 1.52812 0.385517 0
M  V30 2796 C 256.96 1.67249 1.12741 0
M  V30 2797 C 257.273 0.4205 1.91027 0
M  V30 2798 O 258.479 0.445064 2.67827 0
M  V30 2799 C 256.935 2.95583 2.05326 0
M  V30 2800 C 256.543 4.27974 1.32447 0
M  V30 2801 C 258.287 3.19386 2.7963 0
M  V30 2802 C 256.194 5.47412 2.23818 0
M  V30 2803 H 255.124 0.6231 0.424573 0
M  V30 2804 H 257.775 1.79309 0.389924 0
M  V30 2805 H 256.157 2.77277 2.82725 0
M  V30 2806 H 257.331 4.56844 0.602495 0
M  V30 2807 H 255.646 4.10459 0.700885 0
M  V30 2808 H 258.243 4.05801 3.48181 0
M  V30 2809 H 258.586 2.34604 3.43899 0
M  V30 2810 H 259.119 3.38274 2.09322 0
M  V30 2811 H 255.858 6.34612 1.64157 0
M  V30 2812 H 255.378 5.22849 2.93921 0
M  V30 2813 H 257.057 5.81423 2.83824 0
M  V30 2814 N 257.189 -0.644168 1.43834 0
M  V30 2815 C 258.466 -1.40188 1.36406 0
M  V30 2816 C 258.846 -2.11094 0.0163124 0
M  V30 2817 O 258.194 -2.05426 -1.00062 0
M  V30 2818 C 258.404 -2.3791 2.55343 0
M  V30 2819 C 259.752 -3.01637 2.98832 0
M  V30 2820 O 260.776 -2.48237 2.55455 0
M  V30 2821 O 259.635 -3.98477 3.74003 0
M  V30 2822 H 256.729 -0.626773 0.539523 0
M  V30 2823 H 259.275 -0.670317 1.559 0
M  V30 2824 H 258.047 -1.84525 3.4506 0
M  V30 2825 H 257.67 -3.18503 2.37995 0
M  V30 2826 N 258.668 -1.30515 -0.883378 0
M  V30 2827 C 259.896 -1.22359 -1.66841 0
M  V30 2828 C 260.311 0.213296 -1.87591 0
M  V30 2829 O 259.668 1.14075 -1.42454 0
M  V30 2830 C 259.719 -1.95011 -3.04389 0
M  V30 2831 O 259.44 -3.3309 -2.84575 0
M  V30 2832 C 260.941 -1.93532 -3.98824 0
M  V30 2833 H 258.161 -0.423371 -0.520575 0
M  V30 2834 H 260.705 -1.72167 -1.10357 0
M  V30 2835 H 258.86 -1.48997 -3.57601 0
M  V30 2836 H 259.274 -3.69907 -3.71846 0
M  V30 2837 H 260.748 -2.48902 -4.92699 0
M  V30 2838 H 261.225 -0.914627 -4.29571 0
M  V30 2839 H 261.831 -2.39364 -3.51547 0
M  V30 2840 N 260.146 1.09593 -1.13257 0
M  V30 2841 C 261.076 2.18214 -0.830946 0
M  V30 2842 C 262.057 1.68812 0.208966 0
M  V30 2843 O 263.242 1.9408 0.0682666 0
M  V30 2844 C 260.372 3.46051 -0.294296 0
M  V30 2845 C 259.326 4.08778 -1.26826 0
M  V30 2846 C 258.652 5.31419 -0.591449 0
M  V30 2847 C 259.952 4.51476 -2.62615 0
M  V30 2848 H 261.646 2.43703 -1.73923 0
M  V30 2849 H 259.192 1.17128 -0.837675 0
M  V30 2850 H 261.145 4.2134 -0.0709606 0
M  V30 2851 H 259.869 3.20079 0.649366 0
M  V30 2852 H 258.528 3.35505 -1.47756 0
M  V30 2853 H 258.176 5.01727 0.357633 0
M  V30 2854 H 257.876 5.74341 -1.24123 0
M  V30 2855 H 259.4 6.09433 -0.377355 0
M  V30 2856 H 260.814 5.17999 -2.45663 0
M  V30 2857 H 259.211 5.05277 -3.23752 0
M  V30 2858 H 260.281 3.63962 -3.20406 0
M  V30 2859 N 261.624 0.925811 1.2754 0
M  V30 2860 C 262.901 0.483726 1.89524 0
M  V30 2861 C 263.281 -1.03809 1.83812 0
M  V30 2862 O 262.629 -1.89143 1.28207 0
M  V30 2863 C 262.839 1.02769 3.33526 0
M  V30 2864 C 264.187 1.08703 4.10449 0
M  V30 2865 O 265.211 0.977175 3.42534 0
M  V30 2866 O 264.07 1.25599 5.31871 0
M  V30 2867 H 261.164 0.15529 0.812289 0
M  V30 2868 H 263.71 1.01738 1.35822 0
M  V30 2869 H 262.482 2.07155 3.31967 0
M  V30 2870 H 262.105 0.475567 3.94746 0
M  V30 2871 N 263.102 -1.41638 0.69111 0
M  V30 2872 C 264.052 -2.28 -0.000107832 0
M  V30 2873 C 265.036 -1.41964 -0.757304 0
M  V30 2874 O 266.228 -1.65274 -0.633532 0
M  V30 2875 C 263.357 -3.30209 -0.938983 0
M  V30 2876 C 262.443 -4.23725 -0.17827 0
M  V30 2877 N 262.834 -4.99017 0.825563 0
M  V30 2878 C 261.132 -4.44071 -0.414392 0
M  V30 2879 C 261.833 -5.67431 1.28052 0
M  V30 2880 N 260.809 -5.40197 0.607304 0
M  V30 2881 H 264.611 -2.83644 0.769617 0
M  V30 2882 H 262.125 -1.53797 0.521562 0
M  V30 2883 H 264.122 -3.90898 -1.44929 0
M  V30 2884 H 262.782 -2.76126 -1.70836 0
M  V30 2885 H 263.793 -5.03671 1.20566 0
M  V30 2886 H 260.47 -4.01004 -1.162 0
M  V30 2887 H 261.86 -6.37801 2.11327 0
M  V30 2888 N 264.58 -0.43555 -1.51462 0
M  V30 2889 C 265.829 0.133007 -2.01261 0
M  V30 2890 C 266.142 1.43942 -1.32439 0
M  V30 2891 O 267.348 2.09081 -1.73198 0
M  V30 2892 C 265.804 0.287581 -3.58749 0
M  V30 2893 C 265.412 -1.00829 -4.36506 0
M  V30 2894 C 267.156 0.810004 -4.167 0
M  V30 2895 C 265.063 -0.819454 -5.85695 0
M  V30 2896 H 263.993 0.0534822 -0.752101 0
M  V30 2897 H 266.644 -0.565038 -1.74584 0
M  V30 2898 H 265.026 1.04859 -3.81865 0
M  V30 2899 H 266.2 -1.77749 -4.25138 0
M  V30 2900 H 264.515 -1.45911 -3.89999 0
M  V30 2901 H 267.112 0.967743 -5.2587 0
M  V30 2902 H 267.455 1.79196 -3.75758 0
M  V30 2903 H 267.988 0.107357 -3.97655 0
M  V30 2904 H 264.727 -1.77374 -6.31046 0
M  V30 2905 H 264.247 -0.0900208 -5.99732 0
M  V30 2906 H 265.926 -0.471949 -6.45276 0
M  V30 2907 N 266.058 1.56714 -0.166846 0
M  V30 2908 C 267.474 1.58473 0.189372 0
M  V30 2909 C 267.674 1.18201 1.63189 0
M  V30 2910 O 266.73 0.891528 2.36237 0
M  V30 2911 C 268.043 3.00573 -0.0873872 0
M  V30 2912 C 269.591 3.1299 -0.0252443 0
M  V30 2913 C 270.066 4.57174 -0.274934 0
M  V30 2914 N 271.557 4.62665 -0.222553 0
M  V30 2915 C 272.292 5.72072 -0.389985 0
M  V30 2916 N 271.788 6.90054 -0.616229 0
M  V30 2917 N 273.581 5.61153 -0.326202 0
M  V30 2918 H 265.732 1.8118 -1.10849 0
M  V30 2919 H 267.995 0.839525 -0.440342 0
M  V30 2920 H 267.701 3.34497 -1.0865 0
M  V30 2921 H 267.575 3.72019 0.623037 0
M  V30 2922 H 269.962 2.78895 0.96444 0
M  V30 2923 H 270.043 2.43989 -0.768309 0
M  V30 2924 H 269.687 4.91976 -1.26181 0
M  V30 2925 H 269.617 5.24328 0.48869 0
M  V30 2926 H 272.108 3.77863 -0.0531512 0
M  V30 2927 H 272.421 7.69311 -0.733559 0
M  V30 2928 H 270.766 6.91927 -0.652791 0
M  V30 2929 H 273.957 4.67859 -0.150072 0
M  V30 2930 H 274.13 6.46364 -0.460116 0
M  V30 2931 N 267.536 -0.106894 1.57237 0
M  V30 2932 C 268.499 -1.11466 2.0027 0
M  V30 2933 C 269.499 -1.33623 0.894519 0
M  V30 2934 O 270.689 -1.29935 1.16028 0
M  V30 2935 C 267.821 -2.46646 2.35327 0
M  V30 2936 H 269.014 -0.744516 2.90512 0
M  V30 2937 H 266.567 -0.351576 1.52295 0
M  V30 2938 H 267.302 -2.88558 1.48003 0
M  V30 2939 H 267.087 -2.31915 3.16161 0
M  V30 2940 H 268.577 -3.19151 2.69318 0
M  V30 2941 N 269.014 -1.53014 -0.377408 0
M  V30 2942 C 269.944 -1.81589 -1.46791 0
M  V30 2943 C 270.925 -0.668622 -1.56408 0
M  V30 2944 O 272.11 -0.917337 -1.71168 0
M  V30 2945 C 269.24 -1.99519 -2.8427 0
M  V30 2946 C 268.194 -3.15249 -2.89486 0
M  V30 2947 C 267.52 -3.18451 -4.29527 0
M  V30 2948 C 268.82 -4.54084 -2.58079 0
M  V30 2949 H 270.514 -2.7291 -1.23127 0
M  V30 2950 H 268.06 -1.31319 -0.590883 0
M  V30 2951 H 270.013 -2.18092 -3.60575 0
M  V30 2952 H 268.737 -1.04897 -3.09296 0
M  V30 2953 H 267.396 -2.96477 -2.15631 0
M  V30 2954 H 267.044 -2.2149 -4.5161 0
M  V30 2955 H 266.744 -3.962 -4.33934 0
M  V30 2956 H 268.268 -3.39193 -5.07721 0
M  V30 2957 H 269.682 -4.72899 -3.24098 0
M  V30 2958 H 268.079 -5.33987 -2.7382 0
M  V30 2959 H 269.149 -4.60006 -1.53372 0
M  V30 2960 N 270.492 0.636531 -1.44174 0
M  V30 2961 C 271.769 1.39463 -1.37148 0
M  V30 2962 C 272.149 2.11082 -0.027507 0
M  V30 2963 O 271.497 2.05954 0.989716 0
M  V30 2964 C 271.707 2.36552 -2.56601 0
M  V30 2965 C 273.055 3.00048 -3.00427 0
M  V30 2966 O 274.079 2.46878 -2.56767 0
M  V30 2967 O 272.938 3.96488 -3.76111 0
M  V30 2968 H 270.032 0.623903 -0.542839 0
M  V30 2969 H 272.578 0.662039 -1.56253 0
M  V30 2970 H 271.35 1.82692 -3.46034 0
M  V30 2971 H 270.973 3.17236 -2.39681 0
M  V30 2972 N 271.97 1.30982 0.876444 0
M  V30 2973 C 273.386 1.09498 1.16113 0
M  V30 2974 C 273.586 -0.13875 2.01022 0
M  V30 2975 O 272.642 -0.829935 2.38471 0
M  V30 2976 C 273.955 2.36308 1.85954 0
M  V30 2977 C 275.503 2.41856 1.98683 0
M  V30 2978 C 275.978 3.6853 2.71937 0
M  V30 2979 N 277.469 3.69387 2.79477 0
M  V30 2980 C 278.204 4.64096 3.36753 0
M  V30 2981 N 277.7 5.69155 3.95012 0
M  V30 2982 N 279.493 4.51626 3.3465 0
M  V30 2983 H 271.644 2.10118 0.310494 0
M  V30 2984 H 273.907 0.926634 0.200131 0
M  V30 2985 H 273.613 3.26388 1.31011 0
M  V30 2986 H 273.487 2.4561 2.86278 0
M  V30 2987 H 275.874 1.52249 2.52793 0
M  V30 2988 H 275.955 2.36523 0.9742 0
M  V30 2989 H 275.599 4.58499 2.18496 0
M  V30 2990 H 275.529 3.71127 3.73593 0
M  V30 2991 H 278.02 2.93438 2.38123 0
M  V30 2992 H 278.333 6.3751 4.36808 0
M  V30 2993 H 276.678 5.72937 3.93406 0
M  V30 2994 H 279.869 3.68728 2.8837 0
M  V30 2995 H 280.042 5.25614 3.7899 0
M  V30 2996 N 273.449 -1.08991 1.13837 0
M  V30 2997 C 274.379 -2.17771 0.842507 0
M  V30 2998 C 275.36 -1.6892 -0.20001 0
M  V30 2999 O 276.545 -1.94113 -0.0579731 0
M  V30 3000 C 273.675 -3.4589 0.312644 0
M  V30 3001 C 272.629 -4.08099 1.28992 0
M  V30 3002 C 271.955 -5.31098 0.619623 0
M  V30 3003 C 273.255 -4.50077 2.65005 0
M  V30 3004 H 274.949 -2.42777 1.75213 0
M  V30 3005 H 272.495 -1.16682 0.843875 0
M  V30 3006 H 274.448 -4.21297 0.0933043 0
M  V30 3007 H 273.172 -3.20419 -0.632382 0
M  V30 3008 H 271.831 -3.34717 1.49533 0
M  V30 3009 H 271.479 -5.0191 -0.33102 0
M  V30 3010 H 271.179 -5.73674 1.27167 0
M  V30 3011 H 272.703 -6.09224 0.409669 0
M  V30 3012 H 274.117 -5.16688 2.48407 0
M  V30 3013 H 272.514 -5.03553 3.26427 0
M  V30 3014 H 273.584 -3.62257 3.22332 0
M  V30 3015 N 274.927 -0.932562 -1.27047 0
M  V30 3016 C 275.859 -0.392734 -2.2581 0
M  V30 3017 C 276.872 0.479241 -1.55586 0
M  V30 3018 O 278.061 0.291078 -1.76111 0
M  V30 3019 C 275.161 0.455456 -3.35826 0
M  V30 3020 C 274.334 -0.398355 -4.35582 0
M  V30 3021 C 273.393 0.387985 -5.24768 0
M  V30 3022 O 272.419 -0.206003 -5.68827 0
M  V30 3023 N 273.621 1.68664 -5.55457 0
M  V30 3024 H 276.386 -1.24173 -2.72766 0
M  V30 3025 H 273.947 -0.800511 -1.40725 0
M  V30 3026 H 275.939 0.988692 -3.92437 0
M  V30 3027 H 274.509 1.20522 -2.88432 0
M  V30 3028 H 273.729 -1.11286 -3.78165 0
M  V30 3029 H 275.017 -0.981889 -4.99236 0
M  V30 3030 H 274.415 2.19147 -5.21528 0
M  V30 3031 H 272.972 2.1663 -6.14748 0
M  V30 3032 N 276.405 1.4127 -0.698611 0
M  V30 3033 C 277.315 2.34573 -0.0357891 0
M  V30 3034 C 278.331 1.56393 0.762701 0
M  V30 3035 O 279.507 1.8886 0.699564 0
M  V30 3036 C 276.572 3.35159 0.887089 0
M  V30 3037 C 275.633 4.29225 0.0804634 0
M  V30 3038 C 274.866 5.25006 0.959387 0
M  V30 3039 O 275.089 5.26314 2.19886 0
M  V30 3040 O 274.023 6.00519 0.407439 0
M  V30 3041 H 277.849 2.92838 -0.804957 0
M  V30 3042 H 275.434 1.42175 -0.458966 0
M  V30 3043 H 277.316 3.9689 1.41621 0
M  V30 3044 H 275.991 2.79333 1.6357 0
M  V30 3045 H 274.898 3.70833 -0.493328 0
M  V30 3046 H 276.231 4.88157 -0.629547 0
M  V30 3047 N 277.883 0.443576 1.51229 0
M  V30 3048 C 279.129 -0.120975 2.02439 0
M  V30 3049 C 279.462 -1.41815 1.32674 0
M  V30 3050 O 278.737 -1.89373 0.443622 0
M  V30 3051 C 279.02 -0.333291 3.58554 0
M  V30 3052 C 278.873 0.982968 4.38928 0
M  V30 3053 C 280.192 -1.10028 4.26124 0
M  V30 3054 H 277.311 -0.0424923 0.735774 0
M  V30 3055 H 279.953 0.583794 1.80809 0
M  V30 3056 H 278.103 -0.933614 3.77115 0
M  V30 3057 H 279.775 1.61775 4.32003 0
M  V30 3058 H 278.018 1.58611 4.03763 0
M  V30 3059 H 278.689 0.788379 5.46341 0
M  V30 3060 H 281.165 -0.591711 4.11871 0
M  V30 3061 H 280.041 -1.21761 5.35225 0
M  V30 3062 H 280.302 -2.12996 3.87408 0
M  V30 3063 N 279.361 -1.56624 0.175154 0
M  V30 3064 C 280.772 -1.83561 -0.340916 0
M  V30 3065 C 281.123 -1.09511 -1.62794 0
M  V30 3066 O 280.248 -0.349389 -2.13561 0
M  V30 3067 C 280.843 -3.32979 -0.625313 0
M  V30 3068 C 279.402 -3.60399 -1.08581 0
M  V30 3069 C 278.549 -2.77024 -0.123722 0
M  V30 3070 H 281.5 -1.53593 0.399344 0
M  V30 3071 H 281.521 -3.50666 -1.47694 0
M  V30 3072 H 281.033 -3.86847 0.311575 0
M  V30 3073 H 279.134 -3.11945 -2.03767 0
M  V30 3074 H 279.247 -4.68711 -0.992317 0
M  V30 3075 H 277.611 -2.46993 -0.621821 0
M  V30 3076 H 278.394 -3.33674 0.807256 0
M  V30 3077 N 280.839 0.0985539 -1.57292 0
M  V30 3078 C 281.789 1.1261 -1.9825 0
M  V30 3079 C 282.773 1.35961 -0.860426 0
M  V30 3080 O 283.965 1.36711 -1.12424 0
M  V30 3081 C 281.094 2.44727 -2.40757 0
M  V30 3082 C 280.18 2.24764 -3.59642 0
M  V30 3083 N 280.571 1.74661 -4.74687 0
M  V30 3084 C 278.869 2.55344 -3.65672 0
M  V30 3085 C 279.57 1.68887 -5.56644 0
M  V30 3086 N 278.546 2.13976 -4.99715 0
M  V30 3087 H 282.348 0.731604 -2.84648 0
M  V30 3088 H 279.862 0.306029 -1.59491 0
M  V30 3089 H 281.859 3.19072 -2.68326 0
M  V30 3090 H 280.519 2.84917 -1.55733 0
M  V30 3091 H 281.53 1.43908 -4.97505 0
M  V30 3092 H 278.207 2.99081 -2.91302 0
M  V30 3093 H 279.597 1.3123 -6.5896 0
M  V30 3094 N 282.317 1.53212 0.369288 0
M  V30 3095 C 283.227 1.82342 1.47609 0
M  V30 3096 C 284.243 0.711532 1.58787 0
M  V30 3097 O 285.419 1.0012 1.74751 0
M  V30 3098 C 282.484 2.00393 2.8292 0
M  V30 3099 C 281.545 3.24297 2.81301 0
M  V30 3100 C 280.778 3.41478 4.10157 0
M  V30 3101 O 281.001 2.63033 5.06132 0
M  V30 3102 O 279.935 4.34817 4.16194 0
M  V30 3103 H 283.761 2.76366 1.25918 0
M  V30 3104 H 281.346 1.38547 0.559034 0
M  V30 3105 H 283.228 2.13859 3.63101 0
M  V30 3106 H 281.903 1.09559 3.04596 0
M  V30 3107 H 280.81 3.16257 1.99831 0
M  V30 3108 H 282.143 4.15041 2.64578 0
M  V30 3109 N 283.795 -0.628877 1.44509 0
M  V30 3110 C 285.043 -1.38565 1.4712 0
M  V30 3111 C 285.364 -1.94712 0.105899 0
M  V30 3112 O 284.634 -1.75912 -0.862079 0
M  V30 3113 H 283.214 -0.514333 0.541729 0
M  V30 3114 H 285.876 -0.740018 1.80305 0
M  V30 3115 H 284.972 -2.21583 2.19789 0
M  V30 3116 N 285.273 -1.31445 -0.869486 0
M  V30 3117 C 286.684 -1.19042 -1.43826 0
M  V30 3118 C 287.035 0.202919 -1.95148 0
M  V30 3119 O 286.16 1.10071 -1.86315 0
M  V30 3120 C 286.755 -2.15499 -2.6143 0
M  V30 3121 C 285.314 -2.07028 -3.14351 0
M  V30 3122 C 284.461 -2.04701 -1.87063 0
M  V30 3123 H 287.412 -1.43489 -0.677984 0
M  V30 3124 H 287.433 -1.74488 -3.38134 0
M  V30 3125 H 286.945 -3.16899 -2.24046 0
M  V30 3126 H 285.046 -1.08825 -3.56354 0
M  V30 3127 H 285.159 -2.96157 -3.766 0
M  V30 3128 H 283.523 -1.49724 -2.06046 0
M  V30 3129 H 284.306 -3.07857 -1.51917 0
M  V30 3130 N 286.751 1.08385 -1.14413 0
M  V30 3131 C 287.684 2.14642 -0.774871 0
M  V30 3132 C 288.662 1.60761 0.243876 0
M  V30 3133 O 289.846 1.88031 0.132883 0
M  V30 3134 C 286.973 3.38366 -0.150491 0
M  V30 3135 C 286.019 4.10997 -1.13945 0
M  V30 3136 S 286.852 4.63797 -2.67679 0
M  V30 3137 C 288.008 5.90808 -2.06631 0
M  V30 3138 H 288.241 2.45633 -1.67487 0
M  V30 3139 H 285.774 1.20498 -0.96538 0
M  V30 3140 H 287.732 4.09996 0.203334 0
M  V30 3141 H 286.393 3.05572 0.72694 0
M  V30 3142 H 285.586 4.99783 -0.65059 0
M  V30 3143 H 285.188 3.4528 -1.43727 0
M  V30 3144 H 287.48 6.62411 -1.4219 0
M  V30 3145 H 288.423 6.4439 -2.93542 0
M  V30 3146 H 288.831 5.4383 -1.51357 0
M  V30 3147 N 288.23 0.939286 1.26551 0
M  V30 3148 C 289.47 0.5933 1.956 0
M  V30 3149 C 289.834 -0.851515 1.72085 0
M  V30 3150 O 291.035 -1.30634 2.34921 0
M  V30 3151 C 289.306 0.923996 3.45249 0
M  V30 3152 S 290.865 0.688269 4.33369 0
M  V30 3153 H 287.683 0.218591 0.676564 0
M  V30 3154 H 290.285 1.2102 1.5354 0
M  V30 3155 H 288.989 1.97297 3.59864 0
M  V30 3156 H 288.52 0.296746 3.92279 0
M  V30 3157 H 290.535 -0.448434 4.9417 0
M  V30 3158 N 289.708 -1.40897 0.706093 0
M  V30 3159 C 290.985 -1.94868 0.169099 0
M  V30 3160 C 291.365 -1.64485 -1.32318 0
M  V30 3161 O 290.713 -0.95744 -2.07474 0
M  V30 3162 C 290.923 -3.45798 0.471654 0
M  V30 3163 C 292.271 -4.22663 0.405127 0
M  V30 3164 O 293.295 -3.53865 0.407168 0
M  V30 3165 O 292.154 -5.45216 0.374383 0
M  V30 3166 H 289.248 -0.82673 0.0211352 0
M  V30 3167 H 291.794 -1.50558 0.782976 0
M  V30 3168 H 290.566 -3.61235 1.50416 0
M  V30 3169 H 290.189 -3.97225 -0.172666 0
M  V30 3170 N 291.186 -0.45159 -1.50991 0
M  V30 3171 C 292.116 0.342898 -2.30969 0
M  V30 3172 C 293.097 1.00815 -1.37005 0
M  V30 3173 O 294.282 1.00907 -1.65926 0
M  V30 3174 C 291.412 1.43637 -3.16205 0
M  V30 3175 C 290.366 0.893818 -4.18563 0
M  V30 3176 C 289.692 2.08411 -4.92411 0
M  V30 3177 C 290.992 -0.0815568 -5.22236 0
M  V30 3178 H 292.686 -0.324556 -2.97636 0
M  V30 3179 H 290.232 -0.157531 -1.43136 0
M  V30 3180 H 292.185 1.9995 -3.70942 0
M  V30 3181 H 290.909 2.13232 -2.47386 0
M  V30 3182 H 289.568 0.352798 -3.64898 0
M  V30 3183 H 289.216 2.76658 -4.20082 0
M  V30 3184 H 288.916 1.72741 -5.61636 0
M  V30 3185 H 290.44 2.65251 -5.49976 0
M  V30 3186 H 291.854 0.391742 -5.7196 0
M  V30 3187 H 290.251 -0.351551 -5.99069 0
M  V30 3188 H 291.321 -1.01374 -4.74185 0
M  V30 3189 N 292.664 1.56529 -0.183458 0
M  V30 3190 C 293.594 2.21549 0.737456 0
M  V30 3191 C 294.575 1.17489 1.23005 0
M  V30 3192 O 295.76 1.45959 1.281 0
M  V30 3193 C 292.89 2.86575 1.96194 0
M  V30 3194 C 291.844 3.96778 1.60473 0
M  V30 3195 C 291.17 4.48911 2.90487 0
M  V30 3196 C 292.47 5.15767 0.823497 0
M  V30 3197 H 294.164 2.98761 0.195453 0
M  V30 3198 H 291.71 1.43702 0.0925686 0
M  V30 3199 H 293.663 3.30739 2.61131 0
M  V30 3200 H 292.387 2.06749 2.52828 0
M  V30 3201 H 291.046 3.53286 0.978997 0
M  V30 3202 H 290.694 3.65862 3.45186 0
M  V30 3203 H 290.394 5.23265 2.67335 0
M  V30 3204 H 291.918 4.95771 3.56432 0
M  V30 3205 H 293.332 5.56549 1.37571 0
M  V30 3206 H 291.729 5.96114 0.690551 0
M  V30 3207 H 292.799 4.84574 -0.177782 0
M  V30 3208 N 294.142 -0.090211 1.57342 0
M  V30 3209 C 295.388 -0.788838 1.8748 0
M  V30 3210 C 295.743 -1.76105 0.7749 0
M  V30 3211 O 295.036 -1.90302 -0.222663 0
M  V30 3212 C 295.23 -1.55222 3.21933 0
M  V30 3213 C 295.059 -0.655441 4.44898 0
M  V30 3214 C 293.829 -0.299325 5.04413 0
M  V30 3215 C 296.027 0.0397458 5.14285 0
M  V30 3216 N 294.009 0.605108 6.10911 0
M  V30 3217 C 295.38 0.802061 6.1479 0
M  V30 3218 C 297.435 0.113154 4.97771 0
M  V30 3219 C 296.138 1.63093 7.00566 0
M  V30 3220 C 298.164 0.928942 5.84059 0
M  V30 3221 C 297.526 1.67936 6.84088 0
M  V30 3222 H 293.625 -0.26467 0.735849 0
M  V30 3223 H 296.209 -0.0511453 1.94633 0
M  V30 3224 H 294.38 -2.26076 3.15823 0
M  V30 3225 H 296.112 -2.19843 3.39781 0
M  V30 3226 H 292.867 -0.648079 4.69145 0
M  V30 3227 H 293.291 1.05002 6.68808 0
M  V30 3228 H 297.933 -0.452676 4.2037 0
M  V30 3229 H 295.651 2.20781 7.77355 0
M  V30 3230 H 299.237 0.988478 5.73341 0
M  V30 3231 H 298.117 2.30044 7.49699 0
M  V30 3232 N 295.62 -1.53406 -0.361157 0
M  V30 3233 C 296.845 -1.74024 -1.12829 0
M  V30 3234 C 297.27 -0.470069 -1.82132 0
M  V30 3235 O 296.628 0.57619 -1.719 0
M  V30 3236 C 296.676 -2.90903 -2.13091 0
M  V30 3237 O 295.78 -2.59821 -3.20261 0
M  V30 3238 H 295.121 -0.577804 -0.327168 0
M  V30 3239 H 297.651 -2.00307 -0.41693 0
M  V30 3240 H 297.661 -3.17194 -2.56616 0
M  V30 3241 H 296.336 -3.83034 -1.62042 0
M  V30 3242 H 294.913 -2.44362 -2.81677 0
M  V30 3243 N 297.098 0.621204 -1.44841 0
M  V30 3244 C 298.375 1.38 -1.38619 0
M  V30 3245 C 298.755 2.11041 -0.0498935 0
M  V30 3246 O 298.103 2.06992 0.967816 0
M  V30 3247 C 298.313 2.33817 -2.59096 0
M  V30 3248 C 299.661 2.96844 -3.03593 0
M  V30 3249 O 300.685 2.44141 -2.59371 0
M  V30 3250 O 299.544 3.92476 -3.80296 0
M  V30 3251 H 296.638 0.61811 -0.549426 0
M  V30 3252 H 299.184 0.645429 -1.56947 0
M  V30 3253 H 297.956 1.79012 -3.47952 0
M  V30 3254 H 297.579 3.14676 -2.43032 0
M  V30 3255 N 298.576 1.31904 0.862503 0
M  V30 3256 C 299.987 1.19803 1.43193 0
M  V30 3257 C 300.338 -0.192567 1.95253 0
M  V30 3258 O 299.463 -1.09081 1.86896 0
M  V30 3259 C 300.058 2.16883 2.60283 0
M  V30 3260 C 298.617 2.08692 3.13248 0
M  V30 3261 C 297.764 2.05691 1.85975 0
M  V30 3262 H 300.715 1.43846 0.670365 0
M  V30 3263 H 300.736 1.76278 3.37204 0
M  V30 3264 H 300.248 3.18083 2.22363 0
M  V30 3265 H 298.349 1.10713 3.55771 0
M  V30 3266 H 298.462 2.9815 3.75025 0
M  V30 3267 H 296.826 1.50814 2.05249 0
M  V30 3268 H 297.609 3.08659 1.50282 0
M  V30 3269 N 300.054 -1.07777 1.14986 0
M  V30 3270 C 301.331 -1.7699 0.832695 0
M  V30 3271 C 301.711 -2.001 -0.672561 0
M  V30 3272 O 301.059 -1.61598 -1.6155 0
M  V30 3273 C 301.269 -3.08139 1.63863 0
M  V30 3274 C 302.617 -3.8256 1.84208 0
M  V30 3275 O 303.641 -3.17939 1.60603 0
M  V30 3276 O 302.5 -4.98612 2.23714 0
M  V30 3277 H 299.594 -0.768389 0.305791 0
M  V30 3278 H 302.14 -1.14182 1.25541 0
M  V30 3279 H 300.912 -2.86909 2.6608 0
M  V30 3280 H 300.535 -3.78678 1.21197 0
M  V30 3281 N 301.532 -0.945985 -1.26051 0
M  V30 3282 C 302.809 -0.513816 -1.88731 0
M  V30 3283 C 303.189 1.00872 -1.8544 0
M  V30 3284 O 302.537 1.8708 -1.312 0
M  V30 3285 C 302.747 -1.08062 -3.31849 0
M  V30 3286 C 304.095 -1.1522 -4.08668 0
M  V30 3287 O 305.119 -1.03155 -3.40936 0
M  V30 3288 O 303.978 -1.34044 -5.29806 0
M  V30 3289 H 301.072 -0.168193 -0.809716 0
M  V30 3290 H 303.618 -1.03886 -1.34186 0
M  V30 3291 H 302.39 -2.1241 -3.2863 0
M  V30 3292 H 302.013 -0.538307 -3.93939 0
M  V30 3293 N 303.011 1.40521 -0.713556 0
M  V30 3294 C 304.427 1.54839 -0.386907 0
M  V30 3295 C 304.627 1.68532 1.1045 0
M  V30 3296 O 303.683 1.67377 1.89053 0
M  V30 3297 C 304.996 2.77792 -1.15118 0
M  V30 3298 C 306.544 2.91607 -1.13729 0
M  V30 3299 C 307.019 4.1747 -1.88368 0
M  V30 3300 N 308.51 4.24466 -1.85427 0
M  V30 3301 C 309.245 5.20755 -2.40004 0
M  V30 3302 N 308.741 6.22965 -3.03129 0
M  V30 3303 N 310.534 5.1282 -2.30158 0
M  V30 3304 H 302.685 1.29879 -1.68063 0
M  V30 3305 H 304.948 0.627896 -0.710247 0
M  V30 3306 H 304.654 2.73944 -2.20561 0
M  V30 3307 H 304.528 3.6984 -0.741477 0
M  V30 3308 H 306.915 2.94959 -0.0910608 0
M  V30 3309 H 306.996 2.00682 -1.5862 0
M  V30 3310 H 306.64 4.1488 -2.9298 0
M  V30 3311 H 306.57 5.074 -1.40898 0
M  V30 3312 H 309.061 3.51241 -1.3942 0
M  V30 3313 H 309.374 6.92859 -3.42295 0
M  V30 3314 H 307.719 6.23415 -3.07212 0
M  V30 3315 H 310.91 4.31899 -1.80501 0
M  V30 3316 H 311.083 5.87689 -2.72993 0
M  V30 3317 N 304.489 0.459591 1.5075 0
M  V30 3318 C 305.737 -0.0991532 2.01857 0
M  V30 3319 C 306.058 -1.41247 1.34441 0
M  V30 3320 O 305.328 -1.89775 0.486022 0
M  V30 3321 H 303.908 -0.039633 0.745948 0
M  V30 3322 H 306.57 0.607387 1.85194 0
M  V30 3323 H 305.666 -0.258998 3.11023 0
M  V30 3324 N 305.967 -1.56429 0.191757 0
M  V30 3325 C 307.215 -1.97095 -0.447006 0
M  V30 3326 C 307.536 -1.07967 -1.62383 0
M  V30 3327 O 306.806 -0.150248 -1.95323 0
M  V30 3328 H 305.386 -0.727832 -0.168135 0
M  V30 3329 H 308.048 -1.92911 0.27771 0
M  V30 3330 H 307.144 -3.01848 -0.793371 0
M  V30 3331 N 307.445 0.0818655 -1.57387 0
M  V30 3332 C 308.691 0.778884 -1.87896 0
M  V30 3333 C 309.046 1.75692 -0.784229 0
M  V30 3334 O 308.339 1.90417 0.212567 0
M  V30 3335 C 308.533 1.53513 -3.22752 0
M  V30 3336 C 308.362 0.631838 -4.45239 0
M  V30 3337 C 307.132 0.272571 -5.04564 0
M  V30 3338 C 309.33 -0.0670191 -5.14256 0
M  V30 3339 N 307.312 -0.637498 -6.10581 0
M  V30 3340 C 308.683 -0.834653 -6.14356 0
M  V30 3341 C 310.738 -0.139551 -4.97704 0
M  V30 3342 C 309.441 -1.66806 -6.99691 0
M  V30 3343 C 311.467 -0.959903 -5.83558 0
M  V30 3344 C 310.829 -1.71561 -6.83188 0
M  V30 3345 H 306.928 0.260764 -0.737242 0
M  V30 3346 H 309.512 0.0408227 -1.94657 0
M  V30 3347 H 307.683 2.24398 -3.17018 0
M  V30 3348 H 309.415 2.18038 -3.40942 0
M  V30 3349 H 306.17 0.62319 -4.69482 0
M  V30 3350 H 306.594 -1.08548 -6.68241 0
M  V30 3351 H 311.236 0.430376 -4.20604 0
M  V30 3352 H 308.954 -2.249 -7.76174 0
M  V30 3353 H 312.54 -1.01887 -5.72809 0
M  V30 3354 H 311.42 -2.34017 -7.48469 0
M  V30 3355 N 308.923 1.53595 0.353017 0
M  V30 3356 C 310.171 1.70049 1.09215 0
M  V30 3357 C 310.492 0.461406 1.89463 0
M  V30 3358 O 309.762 -0.524633 1.88744 0
M  V30 3359 H 308.342 0.626912 0.40619 0
M  V30 3360 H 311.004 1.90822 0.396585 0
M  V30 3361 H 310.1 2.56718 1.77488 0
M  V30 3362 N 310.401 -0.613514 1.45168 0
M  V30 3363 C 311.65 -1.36874 1.4815 0
M  V30 3364 C 311.963 -1.952 0.124982 0
M  V30 3365 O 313.169 -2.71481 0.0324176 0
M  V30 3366 C 311.625 -2.47905 2.60904 0
M  V30 3367 C 311.233 -1.96016 4.02842 0
M  V30 3368 C 312.977 -3.24965 2.73126 0
M  V30 3369 C 310.884 -3.04494 5.06988 0
M  V30 3370 H 309.814 -0.514428 0.551253 0
M  V30 3371 H 312.465 -0.658182 1.7129 0
M  V30 3372 H 310.847 -3.21618 2.31037 0
M  V30 3373 H 312.021 -1.29051 4.4236 0
M  V30 3374 H 310.336 -1.31719 3.95018 0
M  V30 3375 H 312.933 -4.05865 3.48106 0
M  V30 3376 H 313.276 -3.75588 1.79553 0
M  V30 3377 H 313.809 -2.5835 3.0249 0
M  V30 3378 H 310.548 -2.58795 6.0225 0
M  V30 3379 H 310.068 -3.70044 4.72046 0
M  V30 3380 H 311.747 -3.68976 5.31475 0
M  V30 3381 N 311.879 -1.3236 -0.855495 0
M  V30 3382 C 313.104 -1.2601 -1.64731 0
M  V30 3383 C 313.529 0.169068 -1.87339 0
M  V30 3384 O 312.887 1.12016 -1.42556 0
M  V30 3385 C 312.935 -2.02417 -2.98429 0
M  V30 3386 O 312.039 -1.3714 -3.8893 0
M  V30 3387 H 311.38 -0.434325 -0.502253 0
M  V30 3388 H 313.91 -1.74661 -1.06558 0
M  V30 3389 H 313.92 -2.12559 -3.48257 0
M  V30 3390 H 312.595 -3.06343 -2.81295 0
M  V30 3391 H 311.172 -1.3554 -3.47395 0
M  V30 3392 N 313.357 1.07166 -1.15556 0
M  V30 3393 C 314.768 1.6127 -0.940693 0
M  V30 3394 C 315.119 1.89251 0.517551 0
M  V30 3395 O 314.244 1.65937 1.38903 0
M  V30 3396 C 314.839 2.92993 -1.7012 0
M  V30 3397 C 313.398 3.43832 -1.53156 0
M  V30 3398 C 312.545 2.1786 -1.71558 0
M  V30 3399 H 315.496 0.90229 -1.30554 0
M  V30 3400 H 315.517 3.62007 -1.17181 0
M  V30 3401 H 315.029 2.72596 -2.76248 0
M  V30 3402 H 313.13 3.69307 -0.494294 0
M  V30 3403 H 313.243 4.19747 -2.30975 0
M  V30 3404 H 311.607 2.2765 -1.14225 0
M  V30 3405 H 312.39 1.99956 -2.79056 0
M  V30 3406 N 314.835 0.952656 1.25548 0
M  V30 3407 C 316.251 0.656769 1.4546 0
M  V30 3408 C 316.451 -0.78633 1.85524 0
M  V30 3409 O 315.507 -1.56183 1.98402 0
M  V30 3410 C 316.82 1.62801 2.52817 0
M  V30 3411 C 318.368 1.63897 2.66659 0
M  V30 3412 C 318.843 2.5978 3.77198 0
M  V30 3413 N 320.334 2.58133 3.84606 0
M  V30 3414 C 321.069 3.29003 4.69621 0
M  V30 3415 N 320.565 4.09339 5.58939 0
M  V30 3416 N 322.358 3.179 4.63569 0
M  V30 3417 H 314.509 1.88526 0.978344 0
M  V30 3418 H 316.772 0.810815 0.491206 0
M  V30 3419 H 316.478 2.65869 2.30232 0
M  V30 3420 H 316.352 1.38898 3.50695 0
M  V30 3421 H 318.739 0.615481 2.8861 0
M  V30 3422 H 318.82 1.91858 1.69187 0
M  V30 3423 H 318.464 3.62254 3.55997 0
M  V30 3424 H 318.394 2.29105 4.7415 0
M  V30 3425 H 320.885 1.99809 3.20757 0
M  V30 3426 H 321.198 4.6034 6.20731 0
M  V30 3427 H 319.543 4.13438 5.58654 0
M  V30 3428 H 322.734 2.54612 3.92798 0
M  V30 3429 H 322.907 3.73398 5.29602 0
M  V30 3430 N 316.313 -1.40141 0.720998 0
M  V30 3431 C 317.561 -2.0039 0.262323 0
M  V30 3432 C 317.882 -1.57469 -1.15015 0
M  V30 3433 O 317.152 -0.816582 -1.78069 0
M  V30 3434 H 315.732 -0.741063 0.093996 0
M  V30 3435 H 318.394 -1.71398 0.927835 0
M  V30 3436 H 317.49 -3.10658 0.299671 0
M  V30 3437 N 317.792 -0.46758 -1.50504 0
M  V30 3438 C 318.755 0.317059 -2.26996 0
M  V30 3439 C 319.755 0.923513 -1.31635 0
M  V30 3440 O 320.945 0.793239 -1.55091 0
M  V30 3441 C 318.077 1.45134 -3.08462 0
M  V30 3442 H 319.27 -0.353723 -2.97807 0
M  V30 3443 H 316.823 -0.221545 -1.54722 0
M  V30 3444 H 317.558 2.15728 -2.4214 0
M  V30 3445 H 317.343 1.02232 -3.78538 0
M  V30 3446 H 318.833 2.00493 -3.66323 0
M  V30 3447 N 319.27 1.56325 -0.20005 0
M  V30 3448 C 320.518 1.97329 0.436547 0
M  V30 3449 C 320.839 1.08826 1.61808 0
M  V30 3450 O 320.109 0.160604 1.95241 0
M  V30 3451 H 318.689 0.728714 0.164272 0
M  V30 3452 H 321.351 1.92761 -0.287937 0
M  V30 3453 H 320.447 3.02264 0.777353 0
M  V30 3454 N 320.748 -0.0735177 1.57428 0
M  V30 3455 C 321.978 -0.78483 1.91112 0
M  V30 3456 C 322.386 -1.71729 0.7941 0
M  V30 3457 O 321.729 -1.82105 -0.241542 0
M  V30 3458 C 321.791 -1.63346 3.20247 0
M  V30 3459 C 321.455 -0.870557 4.48632 0
M  V30 3460 C 322.452 -0.19058 5.19551 0
M  V30 3461 C 320.137 -0.838242 4.95256 0
M  V30 3462 C 322.131 0.511503 6.35344 0
M  V30 3463 C 319.818 -0.132386 6.10957 0
M  V30 3464 C 320.816 0.541288 6.80852 0
M  V30 3465 O 320.504 1.23578 7.94345 0
M  V30 3466 H 320.236 -0.228408 0.636244 0
M  V30 3467 H 322.79 -0.0486039 2.05342 0
M  V30 3468 H 321.02 -2.41245 3.02222 0
M  V30 3469 H 322.709 -2.22329 3.39595 0
M  V30 3470 H 323.475 -0.206864 4.84559 0
M  V30 3471 H 319.354 -1.35206 4.40727 0
M  V30 3472 H 322.898 1.03789 6.89836 0
M  V30 3473 H 318.795 -0.114023 6.45399 0
M  V30 3474 H 319.563 1.14487 8.10454 0
M  V30 3475 N 322.226 -1.5378 -0.344866 0
M  V30 3476 C 323.454 -1.74899 -1.10534 0
M  V30 3477 C 323.869 -0.487534 -1.82397 0
M  V30 3478 O 323.226 0.540741 -1.74305 0
M  V30 3479 C 323.277 -2.92822 -2.11984 0
M  V30 3480 O 322.998 -4.14089 -1.43044 0
M  V30 3481 C 324.499 -3.25982 -3.00417 0
M  V30 3482 H 321.719 -0.584426 -0.329678 0
M  V30 3483 H 324.263 -2.006 -0.397474 0
M  V30 3484 H 322.418 -2.69457 -2.78338 0
M  V30 3485 H 322.832 -4.80272 -2.10805 0
M  V30 3486 H 324.306 -4.11848 -3.67539 0
M  V30 3487 H 324.783 -2.42228 -3.66363 0
M  V30 3488 H 325.389 -3.51349 -2.39654 0
M  V30 3489 N 323.704 0.605807 -1.45491 0
M  V30 3490 C 324.951 1.36476 -1.49601 0
M  V30 3491 C 325.279 1.94007 -0.138452 0
M  V30 3492 O 324.534 1.75638 0.863114 0
M  V30 3493 C 324.833 2.53012 -2.52428 0
M  V30 3494 C 324.499 2.13617 -3.97087 0
M  V30 3495 C 323.161 2.02587 -4.36477 0
M  V30 3496 C 325.513 1.82899 -4.88055 0
M  V30 3497 C 322.841 1.59064 -5.64726 0
M  V30 3498 C 325.193 1.40861 -6.16718 0
M  V30 3499 C 323.857 1.28391 -6.55036 0
M  V30 3500 H 323.127 0.499402 -0.547429 0
M  V30 3501 H 325.774 0.684546 -1.78847 0
M  V30 3502 H 324.079 3.26379 -2.16758 0
M  V30 3503 H 325.776 3.1124 -2.52845 0
M  V30 3504 H 322.366 2.23129 -3.65939 0
M  V30 3505 H 326.55 1.90317 -4.58359 0
M  V30 3506 H 321.806 1.48034 -5.93208 0
M  V30 3507 H 325.98 1.16138 -6.86648 0
M  V30 3508 H 323.607 0.944403 -7.54311 0
M  V30 3509 N 325.182 1.32811 0.848464 0
M  V30 3510 C 326.43 1.23479 1.59991 0
M  V30 3511 C 326.751 -0.201853 1.93952 0
M  V30 3512 O 326.021 -1.12818 1.60153 0
M  V30 3513 H 324.601 0.454034 0.593179 0
M  V30 3514 H 327.263 1.66412 1.01455 0
M  V30 3515 H 326.359 1.82178 2.53412 0
M  V30 3516 N 326.66 -1.06551 1.16123 0
M  V30 3517 C 327.592 -2.13908 0.823171 0
M  V30 3518 C 328.605 -1.61926 -0.16843 0
M  V30 3519 O 329.794 -1.78412 0.055962 0
M  V30 3520 C 326.894 -3.38283 0.204424 0
M  V30 3521 C 326.067 -4.19589 1.23548 0
M  V30 3522 C 325.126 -5.2233 0.637011 0
M  V30 3523 O 324.152 -5.54034 1.30516 0
M  V30 3524 N 325.354 -5.77621 -0.577474 0
M  V30 3525 H 328.119 -2.43508 1.74711 0
M  V30 3526 H 325.68 -1.2253 1.05821 0
M  V30 3527 H 327.672 -4.0416 -0.208909 0
M  V30 3528 H 326.242 -3.06329 -0.623012 0
M  V30 3529 H 325.462 -3.49406 1.82507 0
M  V30 3530 H 326.75 -4.70718 1.93137 0
M  V30 3531 H 326.148 -5.54125 -1.13853 0
M  V30 3532 H 324.705 -6.45087 -0.933053 0
M  V30 3533 N 328.138 -0.959301 -1.25041 0
M  V30 3534 C 329.415 -0.533805 -1.88175 0
M  V30 3535 C 329.795 0.988994 -1.865 0
M  V30 3536 O 329.143 1.85677 -1.33177 0
M  V30 3537 C 329.353 -1.11575 -3.30684 0
M  V30 3538 C 330.701 -1.19548 -4.07423 0
M  V30 3539 O 331.725 -1.06765 -3.39823 0
M  V30 3540 O 330.584 -1.39656 -5.28354 0
M  V30 3541 H 327.678 -0.176772 -0.807887 0
M  V30 3542 H 330.224 -1.05303 -1.33076 0
M  V30 3543 H 328.996 -2.15884 -3.26358 0
M  V30 3544 H 328.619 -0.580059 -3.93346 0
M  V30 3545 N 329.616 1.39756 -0.72842 0
M  V30 3546 C 330.865 1.99879 -0.270407 0
M  V30 3547 C 331.178 1.58449 1.14688 0
M  V30 3548 O 332.384 2.11362 1.70407 0
M  V30 3549 C 330.84 3.57292 -0.43252 0
M  V30 3550 C 330.448 4.07688 -1.85727 0
M  V30 3551 C 332.192 4.24485 -0.0359507 0
M  V30 3552 C 330.099 5.5765 -1.96928 0
M  V30 3553 H 329.029 0.747689 -0.0973472 0
M  V30 3554 H 331.68 1.59837 -0.901355 0
M  V30 3555 H 330.062 3.95097 0.267219 0
M  V30 3556 H 331.236 3.81231 -2.58843 0
M  V30 3557 H 329.551 3.53135 -2.20646 0
M  V30 3558 H 332.148 5.34609 -0.0987484 0
M  V30 3559 H 332.491 4.03915 1.00787 0
M  V30 3560 H 333.024 3.9183 -0.686604 0
M  V30 3561 H 329.763 5.8309 -2.99476 0
M  V30 3562 H 329.283 5.8593 -1.28241 0
M  V30 3563 H 330.962 6.22957 -1.74737 0
M  V30 3564 N 331.094 0.475555 1.50254 0
M  V30 3565 C 332.319 -0.0777042 2.07254 0
M  V30 3566 C 332.744 -1.3235 1.3366 0
M  V30 3567 O 332.102 -1.77152 0.385597 0
M  V30 3568 C 332.15 -0.340169 3.58992 0
M  V30 3569 O 331.254 -1.41982 3.87188 0
M  V30 3570 H 330.595 0.0149556 0.663832 0
M  V30 3571 H 333.125 0.667878 1.93392 0
M  V30 3572 H 333.135 -0.579332 4.03866 0
M  V30 3573 H 331.81 0.570167 4.11973 0
M  V30 3574 H 330.387 -1.16762 3.54148 0
M  V30 3575 N 332.573 -1.56217 0.208337 0
M  V30 3576 C 333.483 -2.23316 -0.718836 0
M  V30 3577 C 334.499 -1.23648 -1.22422 0
M  V30 3578 O 335.675 -1.56423 -1.26861 0
M  V30 3579 C 332.74 -2.88968 -1.91568 0
M  V30 3580 C 331.801 -4.03943 -1.45357 0
M  V30 3581 C 331.034 -4.66455 -2.59337 0
M  V30 3582 O 331.257 -4.27919 -3.77149 0
M  V30 3583 O 330.191 -5.55686 -2.31293 0
M  V30 3584 H 334.017 -3.03182 -0.177315 0
M  V30 3585 H 331.602 -1.49384 -0.0215402 0
M  V30 3586 H 333.484 -3.30455 -2.61491 0
M  V30 3587 H 332.159 -2.12071 -2.44556 0
M  V30 3588 H 331.066 -3.67052 -0.722746 0
M  V30 3589 H 332.399 -4.82543 -0.970219 0
M  V30 3590 N 334.051 0.0651679 -1.57465 0
M  V30 3591 C 335.279 0.775808 -1.91804 0
M  V30 3592 C 335.694 1.70782 -0.804916 0
M  V30 3593 O 335.051 1.81153 0.221311 0
M  V30 3594 C 335.102 1.56381 -3.25925 0
M  V30 3595 O 334.823 0.669248 -4.32958 0
M  V30 3596 C 336.324 2.37485 -3.7432 0
M  V30 3597 H 333.544 0.2202 -0.63384 0
M  V30 3598 H 336.088 0.0334587 -2.04473 0
M  V30 3599 H 334.243 2.25837 -3.14764 0
M  V30 3600 H 334.657 1.21801 -5.10162 0
M  V30 3601 H 336.131 2.88223 -4.70778 0
M  V30 3602 H 336.608 3.17307 -3.03666 0
M  V30 3603 H 337.214 1.73173 -3.88447 0
M  V30 3604 N 335.529 1.53961 0.336706 0
M  V30 3605 C 336.776 1.71536 1.07618 0
M  V30 3606 C 337.104 0.482125 1.8843 0
M  V30 3607 O 336.359 -0.536142 1.88213 0
M  V30 3608 C 336.658 2.93493 2.03953 0
M  V30 3609 C 336.324 4.28811 1.39399 0
M  V30 3610 C 334.986 4.65602 1.21523 0
M  V30 3611 C 337.338 5.12844 0.929541 0
M  V30 3612 C 334.666 5.84037 0.558312 0
M  V30 3613 C 337.018 6.31951 0.286505 0
M  V30 3614 C 335.682 6.67432 0.0954869 0
M  V30 3615 H 334.952 0.627696 0.393801 0
M  V30 3616 H 337.599 1.88186 0.354715 0
M  V30 3617 H 335.904 2.71475 2.82504 0
M  V30 3618 H 337.601 3.04285 2.61174 0
M  V30 3619 H 334.191 3.99858 1.54311 0
M  V30 3620 H 338.375 4.84947 1.05548 0
M  V30 3621 H 333.631 6.10097 0.398995 0
M  V30 3622 H 337.805 6.96352 -0.0814376 0
M  V30 3623 H 335.432 7.59063 -0.415579 0
M  V30 3624 N 337.007 -0.598083 1.45811 0
M  V30 3625 C 337.955 -1.72932 1.55555 0
M  V30 3626 C 338.949 -1.63984 0.424921 0
M  V30 3627 O 340.155 -1.69663 0.601205 0
M  V30 3628 H 336.53 -0.571489 0.488779 0
M  V30 3629 H 338.501 -1.61842 2.50699 0
M  V30 3630 C 337.25 -3.11318 1.54843 0
M  V30 3631 H 336.573 -3.18867 2.41172 0
M  V30 3632 H 338.013 -3.90274 1.65717 0
M  V30 3633 C 336.472 -3.3578 0.274427 0
M  V30 3634 O 337.002 -3.9654 -0.641778 0
M  V30 3635 N 335.208 -2.90119 0.167139 0
M  V30 3636 H 334.755 -2.40855 0.913596 0
M  V30 3637 H 334.713 -3.0686 -0.684435 0
M  V30 3638 N 338.485 -1.33259 -0.841409 0
M  V30 3639 C 339.435 -1.19872 -1.93945 0
M  V30 3640 C 340.419 -0.102269 -1.60575 0
M  V30 3641 O 341.611 -0.330114 -1.73894 0
M  V30 3642 C 338.74 -0.937517 -3.30251 0
M  V30 3643 C 337.826 -2.07629 -3.69799 0
M  V30 3644 N 338.217 -3.32604 -3.81062 0
M  V30 3645 C 336.515 -1.98242 -3.9952 0
M  V30 3646 C 337.216 -4.07275 -4.15333 0
M  V30 3647 N 336.192 -3.35691 -4.27566 0
M  V30 3648 H 339.994 -2.14604 -2.00805 0
M  V30 3649 H 337.508 -1.2523 -1.03398 0
M  V30 3650 H 339.505 -0.822545 -4.08705 0
M  V30 3651 H 338.165 0.00128798 -3.247 0
M  V30 3652 H 339.176 -3.67382 -3.65035 0
M  V30 3653 H 335.853 -1.12005 -4.02195 0
M  V30 3654 H 337.243 -5.1511 -4.31406 0
M  V30 3655 N 339.963 1.05934 -1.16686 0
M  V30 3656 C 340.926 2.11669 -0.879144 0
M  V30 3657 C 341.926 1.60294 0.127445 0
M  V30 3658 O 343.116 1.7389 -0.103865 0
M  V30 3659 C 340.248 3.39438 -0.315425 0
M  V30 3660 H 341.441 2.38626 -1.81653 0
M  V30 3661 H 338.994 1.22058 -0.976299 0
M  V30 3662 H 339.729 3.18132 0.629468 0
M  V30 3663 H 339.514 3.78034 -1.04079 0
M  V30 3664 H 341.004 4.17391 -0.132189 0
M  V30 3665 N 341.441 0.965919 1.2453 0
M  V30 3666 C 342.389 0.486506 2.27455 0
M  V30 3667 C 343.383 -0.449041 1.6334 0
M  V30 3668 O 344.589 -0.324527 1.7705 0
M  V30 3669 H 340.964 0.138857 0.739069 0
M  V30 3670 H 342.935 1.3666 2.65267 0
M  V30 3671 C 341.684 -0.209481 3.47068 0
M  V30 3672 H 341.007 0.50129 3.96645 0
M  V30 3673 H 342.447 -0.508775 4.20936 0
M  V30 3674 C 340.906 -1.43586 3.0477 0
M  V30 3675 O 341.436 -2.53299 3.11773 0
M  V30 3676 N 339.642 -1.30126 2.59838 0
M  V30 3677 H 339.189 -0.408583 2.54339 0
M  V30 3678 H 339.147 -2.12294 2.31902 0
M  V30 3679 N 342.919 -1.39368 0.735821 0
M  V30 3680 C 344.167 -2.00101 0.283562 0
M  V30 3681 C 344.488 -1.5868 -1.13338 0
M  V30 3682 O 343.758 -0.835423 -1.77193 0
M  V30 3683 H 342.338 -0.740024 0.101851 0
M  V30 3684 H 345 -1.70404 0.945962 0
M  V30 3685 H 344.096 -3.10323 0.332604 0
M  V30 3686 N 344.397 -0.483516 -1.5 0
M  V30 3687 C 345.327 0.293829 -2.31644 0
M  V30 3688 C 346.308 0.978864 -1.39112 0
M  V30 3689 O 347.493 0.973644 -1.68029 0
M  V30 3690 C 344.623 1.36897 -3.19181 0
M  V30 3691 C 343.577 0.804833 -4.20365 0
M  V30 3692 C 342.903 1.9792 -4.96721 0
M  V30 3693 C 344.203 -0.192313 -5.21946 0
M  V30 3694 H 345.897 -0.387616 -2.9688 0
M  V30 3695 H 343.443 -0.187856 -1.42769 0
M  V30 3696 H 345.396 1.92037 -3.751 0
M  V30 3697 H 344.12 2.07936 -2.51853 0
M  V30 3698 H 342.779 0.275319 -3.65565 0
M  V30 3699 H 342.427 2.67686 -4.25856 0
M  V30 3700 H 342.127 1.60789 -5.65173 0
M  V30 3701 H 343.651 2.53526 -5.55479 0
M  V30 3702 H 345.065 0.270333 -5.72662 0
M  V30 3703 H 343.462 -0.478543 -5.98189 0
M  V30 3704 H 344.532 -1.11409 -4.71928 0
M  V30 3705 N 345.875 1.56104 -0.216619 0
M  V30 3706 C 347.103 2.02563 0.421413 0
M  V30 3707 C 347.518 1.0965 1.53695 0
M  V30 3708 O 346.875 0.10521 1.82196 0
M  V30 3709 C 346.926 3.48584 0.957665 0
M  V30 3710 O 346.647 4.37953 -0.113389 0
M  V30 3711 C 348.148 4.10664 1.66943 0
M  V30 3712 H 345.368 0.662944 0.103665 0
M  V30 3713 H 347.912 2.01793 -0.331629 0
M  V30 3714 H 346.067 3.49985 1.661 0
M  V30 3715 H 346.481 5.23704 0.288932 0
M  V30 3716 H 347.955 5.14622 1.99671 0
M  V30 3717 H 348.432 3.55373 2.58083 0
M  V30 3718 H 349.038 4.13098 1.01142 0
M  V30 3719 N 347.353 -0.0568162 1.57498 0
M  V30 3720 C 348.283 -1.06593 2.0775 0
M  V30 3721 C 349.264 -1.39448 0.974082 0
M  V30 3722 O 350.449 -1.48815 1.24771 0
M  V30 3723 C 347.579 -2.37509 2.5339 0
M  V30 3724 C 346.533 -2.1897 3.67745 0
M  V30 3725 C 345.859 -3.55402 3.99492 0
M  V30 3726 C 347.159 -1.59859 4.97235 0
M  V30 3727 H 348.853 -0.647706 2.9231 0
M  V30 3728 H 346.399 -0.310116 1.40621 0
M  V30 3729 H 348.352 -3.08409 2.87162 0
M  V30 3730 H 347.076 -2.8134 1.65878 0
M  V30 3731 H 345.735 -1.50508 3.3428 0
M  V30 3732 H 345.383 -3.9683 3.09088 0
M  V30 3733 H 345.083 -3.43831 4.76502 0
M  V30 3734 H 346.607 -4.27708 4.35773 0
M  V30 3735 H 348.021 -2.20642 5.29141 0
M  V30 3736 H 346.418 -1.58942 5.78669 0
M  V30 3737 H 347.488 -0.561506 4.81638 0
M  V30 3738 N 348.832 -1.54138 -0.328536 0
M  V30 3739 C 350.078 -1.7236 -1.06865 0
M  V30 3740 C 350.411 -0.493231 -1.87832 0
M  V30 3741 O 349.686 0.5098 -1.877 0
M  V30 3742 C 349.969 -2.99621 -1.99747 0
M  V30 3743 C 349.822 -4.32899 -1.22143 0
M  V30 3744 C 351.141 -3.22615 -2.99345 0
M  V30 3745 H 348.26 -0.627151 -0.387105 0
M  V30 3746 H 350.902 -1.86827 -0.345767 0
M  V30 3747 H 349.052 -2.87418 -2.61387 0
M  V30 3748 H 350.724 -4.56978 -0.630017 0
M  V30 3749 H 348.967 -4.30628 -0.523628 0
M  V30 3750 H 349.638 -5.18154 -1.90318 0
M  V30 3751 H 352.114 -3.34248 -2.47826 0
M  V30 3752 H 350.99 -4.13027 -3.61524 0
M  V30 3753 H 351.251 -2.3961 -3.71536 0
M  V30 3754 N 350.31 0.590341 -1.46126 0
M  V30 3755 C 351.535 1.37991 -1.54833 0
M  V30 3756 C 351.96 1.87163 -0.187506 0
M  V30 3757 O 351.318 1.61133 0.831008 0
M  V30 3758 C 351.366 2.54867 -2.55098 0
M  V30 3759 O 350.47 3.56061 -2.08073 0
M  V30 3760 H 349.811 0.411265 -0.521303 0
M  V30 3761 H 352.341 0.716819 -1.91632 0
M  V30 3762 H 352.351 3.01886 -2.74461 0
M  V30 3763 H 351.026 2.18429 -3.53923 0
M  V30 3764 H 349.603 3.15574 -1.98664 0
M  V30 3765 N 351.788 1.33704 0.83433 0
M  V30 3766 C 353.204 1.13137 1.12571 0
M  V30 3767 C 353.404 -0.0747261 2.01361 0
M  V30 3768 O 352.46 -0.753647 2.4099 0
M  V30 3769 C 353.773 2.42105 1.78342 0
M  V30 3770 C 355.321 2.48054 1.90888 0
M  V30 3771 C 355.796 3.76995 2.60075 0
M  V30 3772 N 357.287 3.78092 2.67584 0
M  V30 3773 C 358.022 4.74574 3.21818 0
M  V30 3774 N 357.518 5.81434 3.76705 0
M  V30 3775 N 359.311 4.62044 3.20112 0
M  V30 3776 H 351.462 2.11 0.243489 0
M  V30 3777 H 353.725 0.932532 0.17055 0
M  V30 3778 H 353.431 3.30391 1.20561 0
M  V30 3779 H 353.305 2.54594 2.7832 0
M  V30 3780 H 355.692 1.60215 2.47821 0
M  V30 3781 H 355.773 2.39502 0.898459 0
M  V30 3782 H 355.417 4.65219 2.03799 0
M  V30 3783 H 355.347 3.82825 3.61597 0
M  V30 3784 H 357.838 3.00865 2.28667 0
M  V30 3785 H 358.151 6.51084 4.16305 0
M  V30 3786 H 356.496 5.85163 3.7498 0
M  V30 3787 H 359.687 3.77716 2.76493 0
M  V30 3788 H 359.86 5.37406 3.62076 0
M  V30 3789 N 353.266 -1.05314 1.17247 0
M  V30 3790 C 354.229 -2.112 0.890357 0
M  V30 3791 C 355.229 -1.60359 -0.118943 0
M  V30 3792 O 356.419 -1.73833 0.113086 0
M  V30 3793 C 353.551 -3.39266 0.333422 0
M  V30 3794 H 354.744 -2.37659 1.82916 0
M  V30 3795 H 352.297 -1.21538 0.982758 0
M  V30 3796 H 353.032 -3.18462 -0.612587 0
M  V30 3797 H 352.817 -3.77477 1.06082 0
M  V30 3798 H 354.307 -4.17315 0.154322 0
M  V30 3799 N 354.744 -0.972509 -1.24016 0
M  V30 3800 C 355.694 -0.477561 -2.22942 0
M  V30 3801 C 356.678 0.44308 -1.54679 0
M  V30 3802 O 357.87 0.273219 -1.74879 0
M  V30 3803 C 354.999 0.226348 -3.42553 0
M  V30 3804 C 354.085 -0.713403 -4.18057 0
M  V30 3805 N 354.476 -1.8527 -4.70647 0
M  V30 3806 C 352.774 -0.525145 -4.42898 0
M  V30 3807 C 353.475 -2.44089 -5.28011 0
M  V30 3808 N 352.451 -1.72556 -5.15486 0
M  V30 3809 H 356.253 -1.34678 -2.61226 0
M  V30 3810 H 353.767 -0.832196 -1.39457 0
M  V30 3811 H 355.764 0.598184 -4.12586 0
M  V30 3812 H 354.424 1.09195 -3.05788 0
M  V30 3813 H 355.435 -2.2341 -4.67235 0
M  V30 3814 H 352.112 0.296096 -4.16449 0
M  V30 3815 H 353.502 -3.40259 -5.79374 0
M  V30 3816 N 356.222 1.38976 -0.743202 0
M  V30 3817 C 357.154 2.29096 -0.0689228 0
M  V30 3818 C 358.167 1.47229 0.694791 0
M  V30 3819 O 359.356 1.70212 0.537597 0
M  V30 3820 C 356.456 3.25988 0.926548 0
M  V30 3821 C 355.629 4.36833 0.222647 0
M  V30 3822 C 354.688 5.13981 1.12739 0
M  V30 3823 O 353.714 5.6601 0.601795 0
M  V30 3824 N 354.916 5.25966 2.45641 0
M  V30 3825 H 357.681 2.87604 -0.842846 0
M  V30 3826 H 355.242 1.50645 -0.593109 0
M  V30 3827 H 357.234 3.74476 1.5346 0
M  V30 3828 H 355.804 2.68453 1.60162 0
M  V30 3829 H 355.024 3.90116 -0.565983 0
M  V30 3830 H 356.312 5.0811 -0.264841 0
M  V30 3831 H 355.71 4.85228 2.9081 0
M  V30 3832 H 354.267 5.77865 3.01522 0
M  V30 3833 N 357.7 0.491464 1.49741 0
M  V30 3834 C 358.63 -0.28154 2.31796 0
M  V30 3835 C 359.611 -0.971473 1.3963 0
M  V30 3836 O 360.796 -0.964719 1.68543 0
M  V30 3837 C 357.926 -1.35203 3.19902 0
M  V30 3838 C 356.88 -0.782529 4.20786 0
M  V30 3839 C 356.206 -1.95283 4.97764 0
M  V30 3840 C 357.506 0.21999 5.21837 0
M  V30 3841 H 359.2 0.403355 2.96671 0
M  V30 3842 H 356.746 0.195425 1.42668 0
M  V30 3843 H 358.699 -1.90045 3.76113 0
M  V30 3844 H 357.423 -2.06598 2.52953 0
M  V30 3845 H 356.082 -0.255928 3.65706 0
M  V30 3846 H 355.73 -2.65423 4.2727 0
M  V30 3847 H 355.43 -1.57789 5.66018 0
M  V30 3848 H 356.954 -2.50577 5.56816 0
M  V30 3849 H 358.368 -0.23996 5.72798 0
M  V30 3850 H 356.765 0.51026 5.97927 0
M  V30 3851 H 357.835 1.13911 4.7133 0
M  V30 3852 N 359.178 -1.55987 0.224894 0
M  V30 3853 C 360.424 -1.98684 -0.406502 0
M  V30 3854 C 360.757 -1.11248 -1.59177 0
M  V30 3855 O 360.032 -0.170909 -1.93748 0
M  V30 3856 C 360.315 -3.50218 -0.837808 0
M  V30 3857 C 360.168 -4.48426 0.351332 0
M  V30 3858 C 361.487 -4.06243 -1.69278 0
M  V30 3859 H 358.606 -0.722337 -0.146283 0
M  V30 3860 H 361.248 -1.87255 0.321799 0
M  V30 3861 H 359.398 -3.60089 -1.45837 0
M  V30 3862 H 361.07 -4.50562 0.989526 0
M  V30 3863 H 359.313 -4.22159 0.998207 0
M  V30 3864 H 359.984 -5.52 0.00655905 0
M  V30 3865 H 362.46 -3.99337 -1.16914 0
M  V30 3866 H 361.336 -5.12581 -1.96346 0
M  V30 3867 H 361.597 -3.53332 -2.65723 0
M  V30 3868 N 360.656 0.0484629 -1.57525 0
M  V30 3869 C 361.589 1.08755 -2.00618 0
M  V30 3870 C 362.567 1.36272 -0.887058 0
M  V30 3871 O 363.751 1.49255 -1.15131 0
M  V30 3872 C 360.878 2.42675 -2.36277 0
M  V30 3873 C 359.924 2.31142 -3.58435 0
M  V30 3874 S 360.757 1.68326 -5.08357 0
M  V30 3875 C 361.913 3.03776 -5.47239 0
M  V30 3876 H 362.146 0.720415 -2.88439 0
M  V30 3877 H 359.679 0.257801 -1.52233 0
M  V30 3878 H 361.637 3.19699 -2.57494 0
M  V30 3879 H 360.298 2.76541 -1.48942 0
M  V30 3880 H 359.491 3.29957 -3.80978 0
M  V30 3881 H 359.093 1.62258 -3.36969 0
M  V30 3882 H 361.385 4.00106 -5.46737 0
M  V30 3883 H 362.328 2.85988 -6.47778 0
M  V30 3884 H 362.736 3.05456 -4.74718 0
M  V30 3885 N 362.134 1.5431 0.320358 0
M  V30 3886 C 363.044 1.86946 1.41734 0
M  V30 3887 C 364.06 0.761689 1.56443 0
M  V30 3888 O 365.236 1.05629 1.71477 0
M  V30 3889 C 362.301 2.09293 2.76401 0
M  V30 3890 C 361.362 3.33082 2.70841 0
M  V30 3891 C 360.595 3.54353 3.99086 0
M  V30 3892 O 360.818 2.79002 4.97508 0
M  V30 3893 O 359.752 4.47838 4.0215 0
M  V30 3894 H 363.578 2.80232 1.17062 0
M  V30 3895 H 361.163 1.40255 0.514673 0
M  V30 3896 H 363.045 2.25303 3.56113 0
M  V30 3897 H 361.72 1.19194 3.00956 0
M  V30 3898 H 360.627 3.22454 1.89668 0
M  V30 3899 H 361.96 4.23249 2.5124 0
M  V30 3900 N 363.613 -0.582584 1.46437 0
M  V30 3901 C 364.861 -1.33814 1.51453 0
M  V30 3902 C 365.182 -1.94277 0.167792 0
M  V30 3903 O 364.452 -1.78566 -0.805677 0
M  V30 3904 H 363.032 -0.496838 0.557818 0
M  V30 3905 H 365.694 -0.682281 1.82568 0
M  V30 3906 H 364.79 -2.14479 2.26728 0
M  V30 3907 N 365.091 -1.34144 -0.827227 0
M  V30 3908 C 366.321 -1.29138 -1.61267 0
M  V30 3909 C 366.729 0.137597 -1.88699 0
M  V30 3910 O 366.072 1.09379 -1.47587 0
M  V30 3911 C 366.134 -2.0097 -2.9808 0
M  V30 3912 C 365.798 -3.50242 -2.93563 0
M  V30 3913 C 366.795 -4.4523 -2.68452 0
M  V30 3914 C 364.48 -3.92592 -3.13331 0
M  V30 3915 C 366.474 -5.80542 -2.63154 0
M  V30 3916 C 364.161 -5.28005 -3.07658 0
M  V30 3917 C 365.159 -6.21792 -2.82602 0
M  V30 3918 O 364.847 -7.54723 -2.76853 0
M  V30 3919 H 364.579 -0.445851 -0.508127 0
M  V30 3920 H 367.133 -1.77263 -1.03763 0
M  V30 3921 H 365.363 -1.47451 -3.57484 0
M  V30 3922 H 367.052 -1.89309 -3.5905 0
M  V30 3923 H 367.818 -4.13832 -2.52919 0
M  V30 3924 H 363.697 -3.19994 -3.31851 0
M  V30 3925 H 367.241 -6.53717 -2.43516 0
M  V30 3926 H 363.138 -5.59023 -3.22743 0
M  V30 3927 H 363.906 -7.64409 -2.92611 0
M  V30 3928 N 366.569 1.04691 -1.17803 0
M  V30 3929 C 367.517 2.14665 -0.895635 0
M  V30 3930 C 368.511 1.68806 0.141679 0
M  V30 3931 O 369.717 1.79999 -0.00587914 0
M  V30 3932 H 366.092 0.701038 -0.272121 0
M  V30 3933 H 368.063 2.35685 -1.83017 0
M  V30 3934 C 366.812 3.45019 -0.430962 0
M  V30 3935 H 366.135 3.8071 -1.22064 0
M  V30 3936 H 367.575 4.23125 -0.272301 0
M  V30 3937 C 366.034 3.25943 0.852207 0
M  V30 3938 O 366.564 3.5296 1.91786 0
M  V30 3939 N 364.77 2.79304 0.802346 0
M  V30 3940 H 364.317 2.57518 -0.0650788 0
M  V30 3941 H 364.275 2.66921 1.66134 0
M  V30 3942 N 368.047 0.979072 1.23499 0
M  V30 3943 C 369.293 0.6578 1.9247 0
M  V30 3944 C 369.648 -0.799746 1.74991 0
M  V30 3945 O 368.941 -1.56922 1.09937 0
M  V30 3946 C 369.135 0.981932 3.43646 0
M  V30 3947 C 368.964 2.46944 3.75831 0
M  V30 3948 C 367.734 3.13119 3.96591 0
M  V30 3949 C 369.932 3.45006 3.81412 0
M  V30 3950 N 367.914 4.51489 4.15969 0
M  V30 3951 C 369.285 4.68778 4.05768 0
M  V30 3952 C 371.34 3.39505 3.64198 0
M  V30 3953 C 370.043 5.87723 4.14697 0
M  V30 3954 C 372.069 4.57814 3.7438 0
M  V30 3955 C 371.431 5.80381 3.99171 0
M  V30 3956 H 367.53 0.291746 0.72554 0
M  V30 3957 H 370.114 1.25626 1.48749 0
M  V30 3958 H 368.285 0.412179 3.86207 0
M  V30 3959 H 370.017 0.618068 3.99953 0
M  V30 3960 H 366.772 2.63619 3.93449 0
M  V30 3961 H 367.196 5.23221 4.29615 0
M  V30 3962 H 371.838 2.45773 3.44029 0
M  V30 3963 H 369.556 6.81874 4.33675 0
M  V30 3964 H 373.142 4.55132 3.62417 0
M  V30 3965 H 372.022 6.70398 4.06861 0
M  V30 3966 N 369.525 -1.3858 0.750561 0
M  V30 3967 C 370.765 -2.02032 0.310258 0
M  V30 3968 C 371.129 -1.58288 -1.08668 0
M  V30 3969 O 372.33 -2.14049 -1.62593 0
M  V30 3970 C 370.601 -3.54856 0.425647 0
M  V30 3971 S 372.16 -4.38748 0.0674797 0
M  V30 3972 H 368.978 -0.700705 0.120554 0
M  V30 3973 H 371.58 -1.69134 0.980512 0
M  V30 3974 H 370.284 -3.84182 1.44335 0
M  V30 3975 H 369.815 -3.92527 -0.261894 0
M  V30 3976 H 371.83 -4.82835 -1.14388 0
M  V30 3977 N 371.003 -0.499398 -1.49478 0
M  V30 3978 C 371.953 0.299103 -2.2603 0
M  V30 3979 C 372.937 0.936934 -1.30807 0
M  V30 3980 O 374.129 0.844798 -1.55538 0
M  V30 3981 C 371.258 1.36391 -3.15044 0
M  V30 3982 C 370.344 0.732398 -4.17728 0
M  V30 3983 N 370.735 -0.164028 -5.05534 0
M  V30 3984 C 369.033 0.993162 -4.34801 0
M  V30 3985 C 369.734 -0.525345 -5.79323 0
M  V30 3986 N 368.71 0.106348 -5.43496 0
M  V30 3987 H 372.512 -0.391003 -2.91287 0
M  V30 3988 H 370.026 -0.31537 -1.59308 0
M  V30 3989 H 372.023 1.94939 -3.68516 0
M  V30 3990 H 370.683 2.05571 -2.51338 0
M  V30 3991 H 371.694 -0.534736 -5.15132 0
M  V30 3992 H 368.371 1.67783 -3.82302 0
M  V30 3993 H 369.761 -1.25862 -6.60006 0
M  V30 3994 N 372.481 1.55866 -0.233164 0
M  V30 3995 C 373.758 1.90471 0.444988 0
M  V30 3996 C 374.138 1.15209 1.7689 0
M  V30 3997 O 373.486 0.265119 2.26957 0
M  V30 3998 C 373.696 3.4333 0.626559 0
M  V30 3999 C 375.044 4.14319 0.92871 0
M  V30 4000 O 376.068 3.48993 0.712926 0
M  V30 4001 O 374.927 5.29846 1.33887 0
M  V30 4002 H 372.021 0.792347 0.236885 0
M  V30 4003 H 374.567 1.67437 -0.276211 0
M  V30 4004 H 373.339 3.90095 -0.306822 0
M  V30 4005 H 372.962 3.72181 1.39881 0
M  V30 4006 N 373.959 -0.0401083 1.57549 0
M  V30 4007 C 375.375 -0.395556 1.54621 0
M  V30 4008 C 375.575 -1.77281 0.957799 0
M  V30 4009 O 374.631 -2.45888 0.574031 0
M  V30 4010 C 375.944 -0.307535 2.99123 0
M  V30 4011 C 377.492 -0.385425 3.10618 0
M  V30 4012 C 377.967 -0.326973 4.56831 0
M  V30 4013 N 379.458 -0.386102 4.61588 0
M  V30 4014 C 380.193 -0.363591 5.72246 0
M  V30 4015 N 379.689 -0.29402 6.92176 0
M  V30 4016 N 381.482 -0.412503 5.60584 0
M  V30 4017 H 373.633 0.861325 1.94152 0
M  V30 4018 H 375.896 0.326445 0.890021 0
M  V30 4019 H 375.602 0.638461 3.45856 0
M  V30 4020 H 375.476 -1.10552 3.60636 0
M  V30 4021 H 377.863 -1.32185 2.63839 0
M  V30 4022 H 377.944 0.44171 2.51957 0
M  V30 4023 H 377.588 0.605738 5.04275 0
M  V30 4024 H 377.518 -1.17207 5.13391 0
M  V30 4025 H 380.009 -0.442832 3.75296 0
M  V30 4026 H 380.322 -0.28164 7.72287 0
M  V30 4027 H 378.667 -0.260232 6.94513 0
M  V30 4028 H 381.858 -0.464769 4.65787 0
M  V30 4029 H 382.031 -0.391492 6.46816 0
M  V30 4030 N 375.437 -1.54477 -0.31217 0
M  V30 4031 C 376.385 -1.85395 -1.40469 0
M  V30 4032 C 377.379 -0.726749 -1.53019 0
M  V30 4033 O 378.585 -0.910582 -1.55269 0
M  V30 4034 H 374.96 -0.587845 -0.46898 0
M  V30 4035 H 376.931 -2.76736 -1.11623 0
M  V30 4036 C 375.68 -2.10811 -2.76503 0
M  V30 4037 H 375.003 -2.97014 -2.67625 0
M  V30 4038 H 376.443 -2.3639 -3.51988 0
M  V30 4039 C 374.902 -0.903165 -3.24568 0
M  V30 4040 O 375.432 -0.118085 -4.01526 0
M  V30 4041 N 373.638 -0.711634 -2.81752 0
M  V30 4042 H 373.185 -1.35171 -2.19286 0
M  V30 4043 H 373.143 0.0930473 -3.14262 0
M  V30 4044 N 376.915 0.57481 -1.46744 0
M  V30 4045 C 378.161 1.3347 -1.52688 0
M  V30 4046 C 378.494 1.93353 -0.181229 0
M  V30 4047 O 377.769 1.76912 0.808237 0
M  V30 4048 C 378.052 2.45811 -2.63152 0
M  V30 4049 C 377.905 1.90912 -4.07275 0
M  V30 4050 C 379.224 3.47822 -2.69644 0
M  V30 4051 H 376.343 0.483935 -0.555856 0
M  V30 4052 H 378.985 0.644968 -1.78718 0
M  V30 4053 H 377.135 3.04646 -2.41088 0
M  V30 4054 H 378.807 1.36473 -4.4065 0
M  V30 4055 H 377.05 1.21691 -4.16382 0
M  V30 4056 H 377.721 2.72042 -4.80309 0
M  V30 4057 H 380.197 2.9888 -2.895 0
M  V30 4058 H 379.073 4.23876 -3.48742 0
M  V30 4059 H 379.334 4.05555 -1.76005 0
M  V30 4060 N 378.394 1.34581 0.820102 0
M  V30 4061 C 379.64 1.27285 1.57881 0
M  V30 4062 C 379.973 -0.156137 1.93571 0
M  V30 4063 O 379.248 -1.10222 1.60254 0
M  V30 4064 C 379.531 2.16639 2.87645 0
M  V30 4065 C 379.384 3.68088 2.58517 0
M  V30 4066 C 380.703 2.05378 3.8924 0
M  V30 4067 H 377.822 0.463714 0.572833 0
M  V30 4068 H 380.464 1.64859 0.944539 0
M  V30 4069 H 378.614 1.84725 3.41773 0
M  V30 4070 H 380.286 4.10382 2.10676 0
M  V30 4071 H 378.529 3.89038 1.91917 0
M  V30 4072 H 379.2 4.2598 3.51063 0
M  V30 4073 H 381.676 2.33404 3.44473 0
M  V30 4074 H 380.552 2.7012 4.77835 0
M  V30 4075 H 380.813 1.0316 4.29896 0
M  V30 4076 N 379.872 -1.04064 1.18357 0
M  V30 4077 C 381.1 -1.80916 1.00384 0
M  V30 4078 C 381.515 -1.83414 -0.447738 0
M  V30 4079 O 380.872 -1.26962 -1.31099 0
M  V30 4080 C 380.923 -3.26516 1.55144 0
M  V30 4081 O 380.644 -3.2424 2.94618 0
M  V30 4082 C 382.145 -4.20013 1.41789 0
M  V30 4083 H 379.365 -0.569728 0.354474 0
M  V30 4084 H 381.909 -1.31151 1.56906 0
M  V30 4085 H 380.064 -3.73512 1.02798 0
M  V30 4086 H 380.478 -4.15452 3.20156 0
M  V30 4087 H 381.952 -5.20111 1.84901 0
M  V30 4088 H 382.429 -4.37667 0.36661 0
M  V30 4089 H 383.035 -3.78881 1.93207 0
M  V30 4090 N 381.35 -0.985608 -1.22978 0
M  V30 4091 C 382.599 -0.652881 -1.90841 0
M  V30 4092 C 382.912 0.817842 -1.77681 0
M  V30 4093 O 384.118 1.26185 -2.40395 0
M  V30 4094 C 382.574 -1.11717 -3.42122 0
M  V30 4095 C 382.182 -2.6126 -3.63933 0
M  V30 4096 C 383.926 -0.85843 -4.1573 0
M  V30 4097 C 381.833 -3.0133 -5.08876 0
M  V30 4098 H 380.763 -0.240491 -0.714619 0
M  V30 4099 H 383.414 -1.1942 -1.39324 0
M  V30 4100 H 381.796 -0.504027 -3.92779 0
M  V30 4101 H 382.97 -3.27858 -3.23799 0
M  V30 4102 H 381.285 -2.84937 -3.03644 0
M  V30 4103 H 383.882 -1.13359 -5.22546 0
M  V30 4104 H 384.225 0.205461 -4.15793 0
M  V30 4105 H 384.758 -1.43341 -3.71077 0
M  V30 4106 H 381.497 -4.06864 -5.13947 0
M  V30 4107 H 381.017 -2.3943 -5.49939 0
M  V30 4108 H 382.696 -2.92224 -5.77247 0
M  V30 4109 N 382.828 1.3818 -0.7579 0
M  V30 4110 C 384.075 2.00019 -0.315985 0
M  V30 4111 C 384.403 1.60163 1.10355 0
M  V30 4112 O 383.658 0.83264 1.77103 0
M  V30 4113 C 383.957 3.55252 -0.391218 0
M  V30 4114 C 383.623 4.14834 -1.76702 0
M  V30 4115 C 382.285 4.30821 -2.14353 0
M  V30 4116 C 384.637 4.47658 -2.66931 0
M  V30 4117 C 381.965 4.76928 -3.41696 0
M  V30 4118 C 384.317 4.95184 -3.93669 0
M  V30 4119 C 382.981 5.09377 -4.31383 0
M  V30 4120 H 382.251 0.731923 -0.115627 0
M  V30 4121 H 384.898 1.65161 -0.969223 0
M  V30 4122 H 383.203 3.90273 0.34558 0
M  V30 4123 H 384.9 4.00988 -0.030805 0
M  V30 4124 H 381.49 4.02808 -1.46435 0
M  V30 4125 H 385.674 4.34904 -2.39106 0
M  V30 4126 H 380.93 4.86103 -3.70829 0
M  V30 4127 H 385.104 5.19551 -4.63724 0
M  V30 4128 H 382.731 5.44865 -5.30119 0
M  V30 4129 N 384.306 0.507319 1.49211 0
M  V30 4130 C 385.531 -0.033725 2.07373 0
M  V30 4131 C 385.956 -1.29485 1.36437 0
M  V30 4132 O 385.314 -1.76294 0.423087 0
M  V30 4133 C 385.362 -0.263945 3.59633 0
M  V30 4134 O 384.466 -1.33737 3.90113 0
M  V30 4135 H 383.807 0.0290331 0.663365 0
M  V30 4136 H 386.337 0.708749 1.91932 0
M  V30 4137 H 386.347 -0.493536 4.05004 0
M  V30 4138 H 385.022 0.657424 4.10671 0
M  V30 4139 H 383.599 -1.09224 3.56545 0
M  V30 4140 N 385.784 -1.5574 0.241426 0
M  V30 4141 C 386.747 -2.19877 -0.647063 0
M  V30 4142 C 387.747 -1.16642 -1.10686 0
M  V30 4143 O 388.937 -1.41757 -1.01245 0
M  V30 4144 C 386.069 -2.83797 -1.88871 0
M  V30 4145 H 387.262 -2.99772 -0.087574 0
M  V30 4146 H 384.815 -1.56298 -0.00813574 0
M  V30 4147 H 385.55 -2.07824 -2.48957 0
M  V30 4148 H 385.335 -3.59414 -1.56728 0
M  V30 4149 H 386.825 -3.32898 -2.52129 0
M  V30 4150 N 387.262 0.0317525 -1.57568 0
M  V30 4151 C 388.673 0.578692 -1.77505 0
M  V30 4152 C 389.024 1.75749 -0.872164 0
M  V30 4153 O 388.149 2.16298 -0.0663106 0
M  V30 4154 C 388.744 1.05658 -3.21904 0
M  V30 4155 C 387.303 1.54906 -3.43047 0
M  V30 4156 C 386.45 0.485939 -2.73009 0
M  V30 4157 H 389.401 -0.194475 -1.57504 0
M  V30 4158 H 389.422 1.92404 -3.28269 0
M  V30 4159 H 388.934 0.198422 -3.87592 0
M  V30 4160 H 387.035 2.42915 -2.82529 0
M  V30 4161 H 387.148 1.59841 -4.5165 0
M  V30 4162 H 385.512 0.940354 -2.36705 0
M  V30 4163 H 386.295 -0.362709 -3.41379 0
M  V30 4164 N 388.74 1.54641 0.303973 0
M  V30 4165 C 389.688 1.86137 1.39484 0
M  V30 4166 C 390.682 0.734854 1.52631 0
M  V30 4167 O 391.888 0.918803 1.54784 0
M  V30 4168 H 388.263 0.590324 0.465856 0
M  V30 4169 H 390.234 2.77324 1.10154 0
M  V30 4170 C 388.983 2.12274 2.75382 0
M  V30 4171 H 388.306 2.98429 2.66046 0
M  V30 4172 H 389.746 2.38254 3.5073 0
M  V30 4173 C 388.205 0.920365 3.24085 0
M  V30 4174 O 388.735 0.139377 4.01458 0
M  V30 4175 N 386.941 0.726566 2.81371 0
M  V30 4176 H 386.488 1.36332 2.18567 0
M  V30 4177 H 386.446 -0.0763799 3.14307 0
M  V30 4178 N 390.218 -0.567019 1.47046 0
M  V30 4179 C 391.448 -1.34831 1.56538 0
M  V30 4180 C 391.856 -1.8802 0.21101 0
M  V30 4181 O 391.199 -1.65152 -0.804387 0
M  V30 4182 C 391.261 -2.56139 2.52256 0
M  V30 4183 C 390.925 -2.24307 3.98165 0
M  V30 4184 C 391.922 -1.82192 4.86931 0
M  V30 4185 C 389.607 -2.35968 4.43423 0
M  V30 4186 C 391.601 -1.52153 6.18973 0
M  V30 4187 C 389.288 -2.05542 5.75496 0
M  V30 4188 C 390.286 -1.63701 6.63092 0
M  V30 4189 O 389.974 -1.33657 7.92711 0
M  V30 4190 H 389.706 -0.417683 0.531523 0
M  V30 4191 H 392.26 -0.694726 1.93294 0
M  V30 4192 H 390.49 -3.24356 2.10548 0
M  V30 4193 H 392.179 -3.18214 2.51982 0
M  V30 4194 H 392.945 -1.72684 4.53217 0
M  V30 4195 H 388.824 -2.67495 3.75456 0
M  V30 4196 H 392.368 -1.19421 6.87302 0
M  V30 4197 H 388.265 -2.14679 6.08755 0
M  V30 4198 H 389.033 -1.4737 8.05124 0
M  V30 4199 N 391.696 -1.35014 -0.812953 0
M  V30 4200 C 392.936 -1.29289 -1.58315 0
M  V30 4201 C 393.3 0.132727 -1.91541 0
M  V30 4202 O 394.501 0.314269 -2.66957 0
M  V30 4203 C 392.772 -2.1681 -2.84127 0
M  V30 4204 S 394.331 -2.28538 -3.74588 0
M  V30 4205 H 391.149 -0.459569 -0.542511 0
M  V30 4206 H 393.751 -1.70336 -0.959467 0
M  V30 4207 H 392.455 -3.19379 -2.57731 0
M  V30 4208 H 391.986 -1.76697 -3.51485 0
M  V30 4209 H 394.001 -1.4655 -4.74065 0
M  V30 4210 N 393.175 1.03435 -1.18907 0
M  V30 4211 C 394.405 1.8012 -1.01195 0
M  V30 4212 C 394.813 1.8395 0.442613 0
M  V30 4213 O 394.156 1.27836 1.31923 0
M  V30 4214 C 394.218 3.26792 -1.49823 0
M  V30 4215 C 393.882 3.46609 -2.97844 0
M  V30 4216 C 394.879 3.37278 -3.95651 0
M  V30 4217 C 392.564 3.73001 -3.36416 0
M  V30 4218 C 394.558 3.54054 -5.30023 0
M  V30 4219 C 392.245 3.89423 -4.70949 0
M  V30 4220 C 393.243 3.79951 -5.67562 0
M  V30 4221 O 392.931 3.95895 -6.99659 0
M  V30 4222 H 392.663 0.573865 -0.357289 0
M  V30 4223 H 395.217 1.31207 -1.58031 0
M  V30 4224 H 393.447 3.76703 -0.873578 0
M  V30 4225 H 395.136 3.85055 -1.28404 0
M  V30 4226 H 395.902 3.16846 -3.67197 0
M  V30 4227 H 391.781 3.79469 -2.61772 0
M  V30 4228 H 395.325 3.46577 -6.05417 0
M  V30 4229 H 391.222 4.09351 -4.99101 0
M  V30 4230 H 391.99 4.13019 -7.06653 0
M  V30 4231 N 394.653 0.992116 1.22453 0
M  V30 4232 C 396.069 0.702713 1.43297 0
M  V30 4233 C 396.269 -0.726909 1.87932 0
M  V30 4234 O 395.325 -1.49792 2.0327 0
M  V30 4235 C 396.638 1.70762 2.47509 0
M  V30 4236 C 398.186 1.72298 2.61309 0
M  V30 4237 C 398.661 2.71649 3.68742 0
M  V30 4238 N 400.152 2.70239 3.76199 0
M  V30 4239 C 400.887 3.43778 4.58917 0
M  V30 4240 N 400.383 4.26914 5.45633 0
M  V30 4241 N 402.176 3.32487 4.5322 0
M  V30 4242 H 394.327 1.91543 0.917871 0
M  V30 4243 H 396.59 0.826031 0.465162 0
M  V30 4244 H 396.296 2.73059 2.21657 0
M  V30 4245 H 396.17 1.49985 3.46099 0
M  V30 4246 H 398.557 0.706989 2.86506 0
M  V30 4247 H 398.638 1.97143 1.62997 0
M  V30 4248 H 398.282 3.73397 3.44292 0
M  V30 4249 H 398.212 2.44074 4.66622 0
M  V30 4250 H 400.703 2.09912 3.14237 0
M  V30 4251 H 401.016 4.79855 6.05771 0
M  V30 4252 H 399.361 4.31002 5.45218 0
M  V30 4253 H 402.552 2.6698 3.84499 0
M  V30 4254 H 402.725 3.90058 5.17454 0
M  V30 4255 N 396.131 -1.37776 0.765217 0
M  V30 4256 C 397.371 -2.01691 0.331669 0
M  V30 4257 C 397.735 -1.59432 -1.06983 0
M  V30 4258 O 398.936 -2.15761 -1.60314 0
M  V30 4259 C 397.207 -3.54385 0.463261 0
M  V30 4260 S 398.766 -4.38652 0.114011 0
M  V30 4261 H 395.584 -0.699387 0.127979 0
M  V30 4262 H 398.186 -1.68084 0.998396 0
M  V30 4263 H 396.89 -3.82629 1.48401 0
M  V30 4264 H 396.421 -3.92783 -0.220246 0
M  V30 4265 H 398.436 -4.84021 -1.09261 0
M  V30 4266 N 397.609 -0.515225 -1.4894 0
M  V30 4267 C 398.857 0.0241671 -2.02086 0
M  V30 4268 C 399.178 1.3616 -1.3959 0
M  V30 4269 O 398.448 1.87841 -0.556121 0
M  V30 4270 H 397.028 0.0119203 -0.746905 0
M  V30 4271 H 399.69 -0.675702 -1.82812 0
M  V30 4272 H 398.786 0.143385 -3.1177 0
M  V30 4273 N 399.087 1.5561 -0.249682 0
M  V30 4274 C 400.035 2.22894 0.664906 0
M  V30 4275 C 401.029 1.21743 1.17792 0
M  V30 4276 O 402.235 1.39748 1.13449 0
M  V30 4277 H 398.61 0.715022 0.232912 0
M  V30 4278 H 400.581 2.98307 0.0742998 0
M  V30 4279 C 399.33 2.94424 1.84959 0
M  V30 4280 H 398.653 3.72031 1.46399 0
M  V30 4281 H 400.093 3.44862 2.4667 0
M  V30 4282 C 398.552 1.98454 2.72245 0
M  V30 4283 O 399.082 1.51939 3.71857 0
M  V30 4284 N 397.288 1.65496 2.38871 0
M  V30 4285 H 396.835 2.03517 1.57919 0
M  V30 4286 H 396.793 1.0155 2.97548 0
M  V30 4287 N 400.565 -0.0233959 1.57583 0
M  V30 4288 C 401.497 -1.04994 2.03737 0
M  V30 4289 C 402.51 -1.32125 0.951152 0
M  V30 4290 O 403.699 -1.29512 1.22837 0
M  V30 4291 C 400.799 -2.39026 2.40249 0
M  V30 4292 C 399.972 -2.31171 3.7132 0
M  V30 4293 C 399.031 -3.47698 3.94959 0
M  V30 4294 O 398.057 -3.26937 4.65941 0
M  V30 4295 N 399.259 -4.6976 3.41037 0
M  V30 4296 H 402.024 -0.656507 2.92421 0
M  V30 4297 H 399.585 -0.211235 1.60516 0
M  V30 4298 H 401.577 -3.15712 2.53196 0
M  V30 4299 H 400.147 -2.70194 1.57207 0
M  V30 4300 H 399.367 -1.39547 3.68674 0
M  V30 4301 H 400.655 -2.23071 4.57293 0
M  V30 4302 H 400.053 -4.89528 2.83512 0
M  V30 4303 H 398.61 -5.43791 3.59353 0
M  V30 4304 N 402.043 -1.548 -0.295768 0
M  V30 4305 C 403.006 -1.85363 -1.34808 0
M  V30 4306 C 404.006 -0.726817 -1.43436 0
M  V30 4307 O 405.196 -0.995088 -1.42981 0
M  V30 4308 C 402.328 -2.03859 -2.73229 0
M  V30 4309 H 403.521 -2.7941 -1.08949 0
M  V30 4310 H 401.074 -1.46942 -0.532702 0
M  V30 4311 H 401.809 -1.12117 -3.04303 0
M  V30 4312 H 401.594 -2.8588 -2.68356 0
M  V30 4313 H 403.084 -2.28857 -3.49305 0
M  V30 4314 N 403.521 0.559213 -1.47345 0
M  V30 4315 C 404.484 1.64854 -1.59235 0
M  V30 4316 C 405.484 1.53851 -0.467607 0
M  V30 4317 O 406.674 1.58045 -0.732617 0
M  V30 4318 C 403.806 3.04388 -1.53496 0
M  V30 4319 H 404.999 1.55662 -2.56339 0
M  V30 4320 H 402.552 0.778973 -1.35505 0
M  V30 4321 H 403.287 3.19115 -0.577604 0
M  V30 4322 H 403.072 3.13783 -2.35123 0
M  V30 4323 H 404.562 3.83642 -1.6495 0
M  V30 4324 N 404.999 1.35443 0.805782 0
M  V30 4325 C 406.248 1.28097 1.55801 0
M  V30 4326 C 406.561 -0.142428 1.95081 0
M  V30 4327 O 407.767 -0.33817 2.69386 0
M  V30 4328 C 406.223 2.24653 2.81174 0
M  V30 4329 C 405.831 3.72342 2.49129 0
M  V30 4330 C 407.575 2.2625 3.59181 0
M  V30 4331 C 405.482 4.60719 3.70799 0
M  V30 4332 H 404.412 0.475937 0.584808 0
M  V30 4333 H 407.063 1.60712 0.885661 0
M  V30 4334 H 405.445 1.85011 3.50124 0
M  V30 4335 H 406.619 4.20624 1.88181 0
M  V30 4336 H 404.934 3.73361 1.84366 0
M  V30 4337 H 407.531 2.89495 4.49552 0
M  V30 4338 H 407.874 1.26647 3.96568 0
M  V30 4339 H 408.407 2.64426 2.97193 0
M  V30 4340 H 405.146 5.61324 3.3852 0
M  V30 4341 H 404.666 4.17163 4.3097 0
M  V30 4342 H 406.345 4.76182 4.38018 0
M  V30 4343 N 406.477 -1.02803 1.19454 0
M  V30 4344 C 407.41 -2.107 0.876396 0
M  V30 4345 C 408.388 -1.61741 -0.166897 0
M  V30 4346 O 409.572 -1.88451 -0.0430195 0
M  V30 4347 C 406.699 -3.37262 0.311758 0
M  V30 4348 C 405.745 -4.05093 1.33424 0
M  V30 4349 S 406.578 -4.50498 2.89503 0
M  V30 4350 C 407.734 -5.80277 2.34584 0
M  V30 4351 H 407.967 -2.37362 1.79016 0
M  V30 4352 H 405.5 -1.15755 1.02177 0
M  V30 4353 H 407.458 -4.10499 -0.00748752 0
M  V30 4354 H 406.119 -3.08693 -0.58032 0
M  V30 4355 H 405.312 -4.9611 0.888302 0
M  V30 4356 H 404.914 -3.3803 1.60037 0
M  V30 4357 H 407.206 -6.54873 1.73633 0
M  V30 4358 H 408.149 -6.29651 3.23952 0
M  V30 4359 H 408.557 -5.3599 1.77131 0
M  V30 4360 N 407.956 -0.998596 -1.21925 0
M  V30 4361 C 408.866 -0.562736 -2.27751 0
M  V30 4362 C 409.882 0.391203 -1.69545 0
M  V30 4363 O 411.058 0.256625 -1.99758 0
M  V30 4364 C 408.123 0.11012 -3.46525 0
M  V30 4365 C 407.184 -0.887495 -4.20026 0
M  V30 4366 C 406.417 -0.246654 -5.3313 0
M  V30 4367 O 406.64 0.958088 -5.62296 0
M  V30 4368 O 405.574 -0.954374 -5.94286 0
M  V30 4369 H 409.4 -1.44329 -2.67213 0
M  V30 4370 H 406.985 -0.767135 -1.28201 0
M  V30 4371 H 408.867 0.486756 -4.18579 0
M  V30 4372 H 407.542 0.965154 -3.08976 0
M  V30 4373 H 406.449 -1.31517 -3.5022 0
M  V30 4374 H 407.782 -1.71191 -4.6147 0
M  V30 4375 N 409.434 1.37368 -0.772513 0
M  V30 4376 C 410.364 2.32856 -0.173304 0
M  V30 4377 C 411.345 1.55818 0.682262 0
M  V30 4378 O 412.53 1.84052 0.619566 0
M  V30 4379 C 409.66 3.40048 0.706007 0
M  V30 4380 C 408.614 4.27973 -0.0483144 0
M  V30 4381 C 407.94 5.26184 0.950491 0
M  V30 4382 C 409.24 5.07665 -1.22776 0
M  V30 4383 H 410.934 2.83217 -0.971002 0
M  V30 4384 H 408.48 1.3617 -0.468377 0
M  V30 4385 H 410.433 4.05827 1.13501 0
M  V30 4386 H 409.157 2.88214 1.53623 0
M  V30 4387 H 407.816 3.63726 -0.458107 0
M  V30 4388 H 407.464 4.7063 1.77529 0
M  V30 4389 H 407.164 5.85872 0.450314 0
M  V30 4390 H 408.688 5.94838 1.37842 0
M  V30 4391 H 410.102 5.66578 -0.875366 0
M  V30 4392 H 408.499 5.76681 -1.66007 0
M  V30 4393 H 409.569 4.40294 -2.03149 0
M  V30 4394 N 410.912 0.523116 1.48665 0
M  V30 4395 C 412.189 -0.0775449 1.95446 0
M  V30 4396 C 412.569 -1.5197 1.4652 0
M  V30 4397 O 411.917 -2.17876 0.688657 0
M  V30 4398 C 412.127 0.0326135 3.48985 0
M  V30 4399 C 413.475 -0.130141 4.24401 0
M  V30 4400 O 414.499 -0.0415142 3.56176 0
M  V30 4401 O 413.358 -0.31491 5.45592 0
M  V30 4402 H 410.452 -0.0831012 0.822814 0
M  V30 4403 H 412.998 0.587227 1.59216 0
M  V30 4404 H 411.77 1.03748 3.77296 0
M  V30 4405 H 411.393 -0.671317 3.91892 0
M  V30 4406 N 412.39 -1.55475 0.257931 0
M  V30 4407 C 413.667 -1.91155 -0.414629 0
M  V30 4408 C 414.047 -1.18008 -1.75035 0
M  V30 4409 O 413.395 -0.301193 -2.26506 0
M  V30 4410 C 413.605 -3.44283 -0.571859 0
M  V30 4411 C 414.953 -4.15744 -0.862678 0
M  V30 4412 O 415.977 -3.50083 -0.657314 0
M  V30 4413 O 414.836 -5.31909 -1.2544 0
M  V30 4414 H 411.93 -0.796016 -0.22425 0
M  V30 4415 H 414.476 -1.66976 0.302814 0
M  V30 4416 H 413.248 -3.89558 0.368844 0
M  V30 4417 H 412.871 -3.7436 -1.33943 0
M  V30 4418 N 413.868 0.0150385 -1.57593 0
M  V30 4419 C 415.096 0.714395 -1.94175 0
M  V30 4420 C 415.511 1.68135 -0.858841 0
M  V30 4421 O 414.868 1.81766 0.163567 0
M  V30 4422 C 414.919 1.45933 -3.30735 0
M  V30 4423 O 414.64 0.531167 -4.34868 0
M  V30 4424 C 416.141 2.25456 -3.81686 0
M  V30 4425 H 413.361 0.199923 -0.640525 0
M  V30 4426 H 415.905 -0.0316096 -2.04476 0
M  V30 4427 H 414.06 2.15709 -3.21789 0
M  V30 4428 H 414.474 1.05509 -5.13778 0
M  V30 4429 H 415.948 2.731 -4.79709 0
M  V30 4430 H 416.425 3.07485 -3.13607 0
M  V30 4431 H 417.031 1.60727 -3.9376 0
M  V30 4432 N 415.346 1.54954 0.287554 0
M  V30 4433 C 416.276 1.89839 1.35954 0
M  V30 4434 C 417.257 0.758675 1.52244 0
M  V30 4435 O 418.442 1.01557 1.65529 0
M  V30 4436 C 415.572 2.15753 2.72154 0
M  V30 4437 C 414.526 3.3159 2.70614 0
M  V30 4438 C 413.852 3.42952 4.10229 0
M  V30 4439 C 415.152 4.68359 2.31165 0
M  V30 4440 H 416.846 2.79625 1.07007 0
M  V30 4441 H 414.392 1.3454 0.513316 0
M  V30 4442 H 416.345 2.38743 3.47246 0
M  V30 4443 H 415.069 1.22752 3.02654 0
M  V30 4444 H 413.728 3.08545 1.97979 0
M  V30 4445 H 413.376 2.47443 4.37928 0
M  V30 4446 H 413.076 4.20826 4.10097 0
M  V30 4447 H 414.6 3.68218 4.87081 0
M  V30 4448 H 416.014 4.9099 2.95976 0
M  V30 4449 H 414.411 5.49044 2.42221 0
M  V30 4450 H 415.481 4.68165 1.26291 0
M  V30 4451 N 416.824 -0.551391 1.4764 0
M  V30 4452 C 417.771 -1.65796 1.60563 0
M  V30 4453 C 418.741 -1.59932 0.448428 0
M  V30 4454 O 419.926 -1.78679 0.669222 0
M  V30 4455 C 417.066 -3.04108 1.63133 0
M  V30 4456 C 416.179 -3.20365 2.89811 0
M  V30 4457 C 415.314 -4.49109 2.8368 0
M  V30 4458 C 414.353 -4.58819 4.05156 0
M  V30 4459 N 413.49 -5.78926 3.97227 0
M  V30 4460 H 418.33 -1.54088 2.5507 0
M  V30 4461 H 415.867 -0.75052 1.26513 0
M  V30 4462 H 417.825 -3.84207 1.62606 0
M  V30 4463 H 416.455 -3.14637 0.721341 0
M  V30 4464 H 415.507 -2.33659 3.00179 0
M  V30 4465 H 416.819 -3.23402 3.79753 0
M  V30 4466 H 415.973 -5.37475 2.81434 0
M  V30 4467 H 414.712 -4.4856 1.91431 0
M  V30 4468 H 413.717 -3.68864 4.077 0
M  V30 4469 H 414.942 -4.61124 4.98539 0
M  V30 4470 H 412.888 -5.79314 3.07785 0
M  V30 4471 H 412.805 -5.83367 4.80853 0
M  V30 4472 H 414.073 -6.69637 3.99007 0
M  V30 4473 N 418.302 -1.35869 -0.798587 0
M  V30 4474 C 419.532 -1.32529 -1.58491 0
M  V30 4475 C 419.94 0.0975405 -1.88948 0
M  V30 4476 O 419.283 1.06224 -1.49874 0
M  V30 4477 C 419.345 -2.07247 -2.9375 0
M  V30 4478 C 419.009 -3.56391 -2.86068 0
M  V30 4479 C 420.006 -4.50824 -2.58947 0
M  V30 4480 C 417.691 -3.9915 -3.04933 0
M  V30 4481 C 419.685 -5.85993 -2.5078 0
M  V30 4482 C 417.372 -5.34413 -2.96389 0
M  V30 4483 C 418.37 -6.27646 -2.69349 0
M  V30 4484 O 418.058 -7.60426 -2.60782 0
M  V30 4485 H 417.79 -0.456529 -0.498556 0
M  V30 4486 H 420.344 -1.79425 -0.999799 0
M  V30 4487 H 418.574 -1.55001 -3.54276 0
M  V30 4488 H 420.263 -1.96883 -3.54954 0
M  V30 4489 H 421.029 -4.19104 -2.44084 0
M  V30 4490 H 416.908 -3.26961 -3.24989 0
M  V30 4491 H 420.452 -6.58735 -2.29595 0
M  V30 4492 H 416.349 -5.65743 -3.10813 0
M  V30 4493 H 417.117 -7.70444 -2.76331 0
M  V30 4494 N 419.78 1.02168 -1.19998 0
M  V30 4495 C 421.005 1.79833 -1.03319 0
M  V30 4496 C 421.43 1.83504 0.413281 0
M  V30 4497 O 420.788 1.26635 1.29743 0
M  V30 4498 C 420.836 3.22396 -1.61533 0
M  V30 4499 O 419.94 4.03555 -0.849519 0
M  V30 4500 H 419.281 0.554872 -0.364709 0
M  V30 4501 H 421.811 1.28542 -1.59179 0
M  V30 4502 H 421.821 3.73124 -1.65054 0
M  V30 4503 H 420.496 3.19039 -2.66809 0
M  V30 4504 H 419.073 3.62169 -0.888129 0
M  V30 4505 N 421.258 1.00505 1.21394 0
M  V30 4506 C 422.505 0.687774 1.90462 0
M  V30 4507 C 422.833 -0.78147 1.7811 0
M  V30 4508 O 422.088 -1.58208 1.1519 0
M  V30 4509 C 422.387 1.0546 3.41486 0
M  V30 4510 C 422.053 2.51812 3.74034 0
M  V30 4511 C 420.715 2.91804 3.82628 0
M  V30 4512 C 423.067 3.46614 3.8924 0
M  V30 4513 C 420.395 4.2556 4.03876 0
M  V30 4514 C 422.747 4.80044 4.11995 0
M  V30 4515 C 421.411 5.19759 4.18816 0
M  V30 4516 H 420.681 0.251674 0.696951 0
M  V30 4517 H 423.328 1.26349 1.43903 0
M  V30 4518 H 421.633 0.397133 3.89782 0
M  V30 4519 H 423.33 0.786976 3.93202 0
M  V30 4520 H 419.92 2.1982 3.67936 0
M  V30 4521 H 424.104 3.16883 3.81967 0
M  V30 4522 H 419.36 4.55901 4.07387 0
M  V30 4523 H 423.534 5.53439 4.22704 0
M  V30 4524 H 421.161 6.23418 4.35033 0
M  V30 4525 N 422.737 -1.36956 0.779787 0
M  V30 4526 C 423.667 -2.32761 0.185651 0
M  V30 4527 C 424.648 -1.56177 -0.673989 0
M  V30 4528 O 425.833 -1.84378 -0.609797 0
M  V30 4529 C 422.963 -3.40418 -0.687964 0
M  V30 4530 C 421.917 -4.27941 0.0710102 0
M  V30 4531 C 421.243 -5.26681 -0.922573 0
M  V30 4532 C 422.543 -5.07006 1.25467 0
M  V30 4533 H 424.237 -2.82698 0.986008 0
M  V30 4534 H 421.783 -1.3592 0.475592 0
M  V30 4535 H 423.736 -4.06423 -1.11348 0
M  V30 4536 H 422.46 -2.89025 -1.52093 0
M  V30 4537 H 421.119 -3.63478 0.47739 0
M  V30 4538 H 420.767 -4.71565 -1.7503 0
M  V30 4539 H 420.467 -5.86103 -0.419237 0
M  V30 4540 H 421.991 -5.9556 -1.34686 0
M  V30 4541 H 423.405 -5.66105 0.905401 0
M  V30 4542 H 421.802 -5.75793 1.69063 0
M  V30 4543 H 422.872 -4.3921 2.05481 0
M  V30 4544 N 424.215 -0.530993 -1.48385 0
M  V30 4545 C 425.147 0.268353 -2.27624 0
M  V30 4546 C 426.16 0.903525 -1.35426 0
M  V30 4547 O 427.349 0.781796 -1.60469 0
M  V30 4548 C 424.449 1.39535 -3.08842 0
M  V30 4549 C 423.622 0.861913 -4.28824 0
M  V30 4550 C 422.681 1.87016 -4.91845 0
M  V30 4551 O 421.707 1.4267 -5.5103 0
M  V30 4552 N 422.909 3.20238 -4.84178 0
M  V30 4553 H 425.674 -0.41123 -2.96865 0
M  V30 4554 H 423.235 -0.365387 -1.57723 0
M  V30 4555 H 425.227 2.06803 -3.47871 0
M  V30 4556 H 423.797 1.97859 -2.42014 0
M  V30 4557 H 423.017 0.0132126 -3.94198 0
M  V30 4558 H 424.305 0.484415 -5.06489 0
M  V30 4559 H 423.703 3.58932 -4.37246 0
M  V30 4560 H 422.26 3.83136 -5.27305 0
M  V30 4561 N 425.693 1.55336 -0.266172 0
M  V30 4562 C 426.94 1.99397 0.353158 0
M  V30 4563 C 427.268 1.15451 1.56529 0
M  V30 4564 O 426.523 0.209974 1.9457 0
M  V30 4565 C 426.822 3.48606 0.787957 0
M  V30 4566 C 426.488 4.49773 -0.318541 0
M  V30 4567 C 425.15 4.77158 -0.62239 0
M  V30 4568 C 427.502 5.10212 -1.06459 0
M  V30 4569 C 424.83 5.62251 -1.67602 0
M  V30 4570 C 427.182 5.96449 -2.10788 0
M  V30 4571 C 425.846 6.22158 -2.41817 0
M  V30 4572 H 425.116 0.729644 0.12923 0
M  V30 4573 H 427.763 1.87732 -0.37802 0
M  V30 4574 H 426.068 3.57701 1.59866 0
M  V30 4575 H 427.765 3.80098 1.27775 0
M  V30 4576 H 424.355 4.2854 -0.0715925 0
M  V30 4577 H 428.539 4.89086 -0.843098 0
M  V30 4578 H 423.795 5.80419 -1.92155 0
M  V30 4579 H 427.969 6.42317 -2.69076 0
M  V30 4580 H 425.596 6.87888 -3.23596 0
M  V30 4581 N 427.171 -0.0066808 1.57599 0
M  V30 4582 C 428.448 -0.729586 1.81484 0
M  V30 4583 C 428.828 -1.92359 0.869558 0
M  V30 4584 O 428.176 -2.28348 -0.0832533 0
M  V30 4585 C 428.386 -1.1416 3.29801 0
M  V30 4586 C 429.734 -1.54823 3.95367 0
M  V30 4587 O 430.758 -1.23558 3.34084 0
M  V30 4588 O 429.617 -2.12937 5.03309 0
M  V30 4589 H 426.711 -0.354674 0.747085 0
M  V30 4590 H 429.257 0.0182609 1.6969 0
M  V30 4591 H 428.029 -0.290231 3.90222 0
M  V30 4592 H 427.652 -1.94876 3.46568 0
M  V30 4593 N 428.649 -1.55105 -0.279332 0
M  V30 4594 C 430.06 -1.66186 -0.850832 0
M  V30 4595 C 430.411 -0.584707 -1.87285 0
M  V30 4596 O 429.536 0.274919 -2.14647 0
M  V30 4597 C 430.131 -3.01264 -1.55001 0
M  V30 4598 C 428.69 -3.14394 -2.06963 0
M  V30 4599 C 427.837 -2.61959 -0.909536 0
M  V30 4600 H 430.788 -1.58602 -0.0558235 0
M  V30 4601 H 430.809 -2.93899 -2.41669 0
M  V30 4602 H 430.321 -3.7964 -0.805931 0
M  V30 4603 H 428.422 -2.4078 -2.84352 0
M  V30 4604 H 428.535 -4.20867 -2.28928 0
M  V30 4605 H 426.899 -2.18957 -1.30116 0
M  V30 4606 H 427.682 -3.42833 -0.179062 0
M  V30 4607 N 430.127 0.543554 -1.4793 0
M  V30 4608 C 431.09 1.63156 -1.60975 0
M  V30 4609 C 432.09 1.53346 -0.483899 0
M  V30 4610 O 433.28 1.5726 -0.749339 0
M  V30 4611 C 430.412 3.02743 -1.56716 0
M  V30 4612 H 431.605 1.52934 -2.57975 0
M  V30 4613 H 429.158 0.764557 -1.36324 0
M  V30 4614 H 429.893 3.18484 -0.611418 0
M  V30 4615 H 429.678 3.11272 -2.38438 0
M  V30 4616 H 431.168 3.81871 -1.6901 0
M  V30 4617 N 431.605 1.3629 0.791371 0
M  V30 4618 C 433.016 1.27225 1.36641 0
M  V30 4619 C 433.367 -0.0887968 1.95999 0
M  V30 4620 O 432.492 -0.990207 1.92416 0
M  V30 4621 C 433.087 2.30375 2.48421 0
M  V30 4622 C 431.646 2.25004 3.01746 0
M  V30 4623 C 430.793 2.15259 1.7481 0
M  V30 4624 H 433.744 1.47198 0.593173 0
M  V30 4625 H 433.765 1.93905 3.27385 0
M  V30 4626 H 433.277 3.29422 2.05189 0
M  V30 4627 H 431.378 1.29417 3.49403 0
M  V30 4628 H 431.491 3.1761 3.58693 0
M  V30 4629 H 429.855 1.61482 1.96966 0
M  V30 4630 H 430.638 3.16191 1.33709 0
M  V30 4631 N 433.083 -1.0153 1.20538 0
M  V30 4632 C 434.499 -1.27461 0.96051 0
M  V30 4633 C 434.699 -1.98273 -0.359193 0
M  V30 4634 O 433.755 -2.27886 -1.0874 0
M  V30 4635 C 435.068 -2.10837 2.14402 0
M  V30 4636 C 436.616 -2.24099 2.18515 0
M  V30 4637 C 437.091 -3.10852 3.36355 0
M  V30 4638 N 438.582 -3.18441 3.36377 0
M  V30 4639 C 439.317 -3.85795 4.24205 0
M  V30 4640 N 438.813 -4.55264 5.22213 0
M  V30 4641 N 440.606 -3.82331 4.12043 0
M  V30 4642 H 432.757 -0.539907 2.05423 0
M  V30 4643 H 435.02 -0.30092 0.898972 0
M  V30 4644 H 434.726 -1.66144 3.09983 0
M  V30 4645 H 434.6 -3.11576 2.12604 0
M  V30 4646 H 436.987 -2.68016 1.23497 0
M  V30 4647 H 437.068 -1.22865 2.24361 0
M  V30 4648 H 436.712 -2.6764 4.31661 0
M  V30 4649 H 436.642 -4.12177 3.27746 0
M  V30 4650 H 439.133 -2.68978 2.65442 0
M  V30 4651 H 439.446 -5.04331 5.85551 0
M  V30 4652 H 437.791 -4.54085 5.26148 0
M  V30 4653 H 440.982 -3.27207 3.34743 0
M  V30 4654 H 441.155 -4.34547 4.807 0
M  V30 4655 N 434.561 -1.01147 -1.20859 0
M  V30 4656 C 435.977 -0.725422 -1.42161 0
M  V30 4657 C 436.177 0.696919 -1.89064 0
M  V30 4658 O 435.233 1.46539 -2.05627 0
M  V30 4659 C 436.546 -1.74678 -2.44761 0
M  V30 4660 C 438.094 -1.76433 -2.58535 0
M  V30 4661 C 438.569 -2.77481 -3.64374 0
M  V30 4662 N 440.06 -2.76189 -3.71852 0
M  V30 4663 C 440.795 -3.51035 -4.53389 0
M  V30 4664 N 440.291 -4.35541 -5.38773 0
M  V30 4665 N 442.084 -3.39655 -4.47873 0
M  V30 4666 H 434.235 -1.92979 -0.887282 0
M  V30 4667 H 436.498 -0.833327 -0.451962 0
M  V30 4668 H 436.204 -2.76551 -2.17285 0
M  V30 4669 H 436.078 -1.55472 -3.43669 0
M  V30 4670 H 438.465 -0.75248 -2.85345 0
M  V30 4671 H 438.546 -1.99712 -1.5984 0
M  V30 4672 H 438.19 -3.78827 -3.38308 0
M  V30 4673 H 438.12 -2.51466 -4.6268 0
M  V30 4674 H 440.611 -2.14885 -3.10858 0
M  V30 4675 H 440.924 -4.89432 -5.98061 0
M  V30 4676 H 439.269 -4.39621 -5.38292 0
M  V30 4677 H 442.46 -2.73063 -3.80203 0
M  V30 4678 H 442.633 -3.9824 -5.11184 0
M  V30 4679 N 436.039 1.36541 -0.78704 0
M  V30 4680 C 437.287 1.98911 -0.357633 0
M  V30 4681 C 437.608 1.62778 1.07371 0
M  V30 4682 O 436.878 0.900612 1.73971 0
M  V30 4683 H 435.458 0.735734 -0.129246 0
M  V30 4684 H 438.12 1.66776 -1.00855 0
M  V30 4685 H 437.216 3.08874 -0.447549 0
M  V30 4686 N 437.518 0.538854 1.48102 0
M  V30 4687 C 438.428 -0.222648 2.33541 0
M  V30 4688 C 439.444 -0.930225 1.47047 0
M  V30 4689 O 440.62 -0.903211 1.80011 0
M  V30 4690 C 437.685 -1.25064 3.23357 0
M  V30 4691 C 436.746 -0.552469 4.2573 0
M  V30 4692 C 435.979 -1.53149 5.11254 0
M  V30 4693 O 436.202 -2.76487 4.9891 0
M  V30 4694 O 435.136 -1.06602 5.92385 0
M  V30 4695 H 438.962 0.477707 2.99919 0
M  V30 4696 H 436.547 0.299669 1.46364 0
M  V30 4697 H 438.429 -1.8445 3.78888 0
M  V30 4698 H 437.104 -1.93325 2.59629 0
M  V30 4699 H 436.011 0.082114 3.7401 0
M  V30 4700 H 437.344 0.0883526 4.92121 0
M  V30 4701 N 438.996 -1.55193 0.274407 0
M  V30 4702 C 440.407 -1.85358 -0.223488 0
M  V30 4703 C 440.758 -1.19642 -1.555 0
M  V30 4704 O 439.883 -0.484498 -2.10907 0
M  V30 4705 C 440.478 -3.36282 -0.412285 0
M  V30 4706 C 439.037 -3.66574 -0.854413 0
M  V30 4707 C 438.184 -2.7725 0.0527056 0
M  V30 4708 H 441.135 -1.50743 0.496215 0
M  V30 4709 H 441.156 -3.59349 -1.25094 0
M  V30 4710 H 440.668 -3.84083 0.556965 0
M  V30 4711 H 438.769 -3.24273 -1.83516 0
M  V30 4712 H 438.882 -4.74073 -0.692226 0
M  V30 4713 H 437.246 -2.50447 -0.463484 0
M  V30 4714 H 438.029 -3.27865 1.01783 0
M  V30 4715 N 440.474 -0.00167713 -1.576 0
M  V30 4716 C 441.424 0.997744 -2.0501 0
M  V30 4717 C 442.408 1.30214 -0.94515 0
M  V30 4718 O 443.6 1.29284 -1.20891 0
M  V30 4719 C 440.729 2.2892 -2.55833 0
M  V30 4720 C 439.815 2.01437 -3.73208 0
M  V30 4721 N 440.206 1.44119 -4.84833 0
M  V30 4722 C 438.504 2.31571 -3.8117 0
M  V30 4723 C 439.205 1.33145 -5.66257 0
M  V30 4724 N 438.181 1.81763 -5.12312 0
M  V30 4725 H 441.983 0.549098 -2.88725 0
M  V30 4726 H 439.497 0.20398 -1.61114 0
M  V30 4727 H 441.494 3.01361 -2.88075 0
M  V30 4728 H 440.154 2.74436 -1.73537 0
M  V30 4729 H 441.165 1.11978 -5.0565 0
M  V30 4730 H 437.842 2.7995 -3.09732 0
M  V30 4731 H 439.232 0.890567 -6.65972 0
M  V30 4732 N 441.952 1.55251 0.271103 0
M  V30 4733 C 443.198 1.76207 1.00394 0
M  V30 4734 C 443.531 0.562604 1.85872 0
M  V30 4735 O 442.806 -0.439785 1.89463 0
M  V30 4736 C 443.089 3.06828 1.8849 0
M  V30 4737 C 442.942 4.37134 1.05992 0
M  V30 4738 C 444.261 3.33503 2.87165 0
M  V30 4739 H 441.38 0.641086 0.363562 0
M  V30 4740 H 444.022 1.87982 0.276189 0
M  V30 4741 H 442.172 2.96921 2.5054 0
M  V30 4742 H 443.844 4.59001 0.459978 0
M  V30 4743 H 442.087 4.32275 0.363443 0
M  V30 4744 H 442.758 5.2486 1.70955 0
M  V30 4745 H 445.234 3.43215 2.3525 0
M  V30 4746 H 444.11 4.2616 3.45946 0
M  V30 4747 H 444.371 2.53235 3.62387 0
M  V30 4748 N 443.43 -0.535701 1.48216 0
M  V30 4749 C 444.658 -1.31671 1.59594 0
M  V30 4750 C 445.073 -1.87083 0.254056 0
M  V30 4751 O 444.43 -1.66112 -0.755854 0
M  V30 4752 C 444.481 -2.47158 2.63809 0
M  V30 4753 O 444.202 -1.94032 3.92789 0
M  V30 4754 C 445.703 -3.39062 2.85573 0
M  V30 4755 H 442.923 -0.400623 0.538277 0
M  V30 4756 H 445.467 -0.646827 1.94001 0
M  V30 4757 H 443.622 -3.10043 2.32276 0
M  V30 4758 H 444.036 -2.69585 4.49916 0
M  V30 4759 H 445.51 -4.16459 3.62306 0
M  V30 4760 H 445.987 -3.93941 1.94184 0
M  V30 4761 H 446.593 -2.81975 3.18387 0
M  V30 4762 N 444.908 -1.36708 -0.784132 0
M  V30 4763 C 446.324 -1.17237 -1.08294 0
M  V30 4764 C 446.524 -5.93947e-05 -2.015 0
M  V30 4765 O 445.58 0.663686 -2.43622 0
M  V30 4766 C 446.893 -2.48557 -1.69233 0
M  V30 4767 C 448.441 -2.54968 -1.8155 0
M  V30 4768 C 448.916 -3.86388 -2.45904 0
M  V30 4769 N 450.407 -3.87762 -2.53367 0
M  V30 4770 C 451.142 -4.86191 -3.03983 0
M  V30 4771 N 450.638 -5.95015 -3.54866 0
M  V30 4772 N 452.431 -4.73606 -3.02743 0
M  V30 4773 H 444.582 -2.11758 -0.16501 0
M  V30 4774 H 446.845 -0.93822 -0.135822 0
M  V30 4775 H 446.551 -3.34638 -1.08215 0
M  V30 4776 H 446.425 -2.64748 -2.68679 0
M  V30 4777 H 448.812 -1.69302 -2.41704 0
M  V30 4778 H 448.893 -2.42672 -0.80895 0
M  V30 4779 H 448.537 -4.72462 -1.86392 0
M  V30 4780 H 448.467 -3.95982 -3.4714 0
M  V30 4781 H 450.958 -3.09145 -2.17343 0
M  V30 4782 H 451.271 -6.66086 -3.91854 0
M  V30 4783 H 449.616 -5.98676 -3.53003 0
M  V30 4784 H 452.807 -3.87717 -2.62284 0
M  V30 4785 H 452.98 -5.50473 -3.41881 0
M  V30 4786 N 446.386 1.0089 -1.21074 0
M  V30 4787 C 447.802 1.2695 -0.967257 0
M  V30 4788 C 448.002 1.9846 0.348673 0
M  V30 4789 O 447.058 2.28459 1.0753 0
M  V30 4790 C 448.371 2.09697 -2.15517 0
M  V30 4791 C 449.919 2.22937 -2.197 0
M  V30 4792 C 450.394 3.09064 -3.37999 0
M  V30 4793 N 451.885 3.16653 -3.38061 0
M  V30 4794 C 452.62 3.8354 -4.26245 0
M  V30 4795 N 452.116 4.52488 -5.2462 0
M  V30 4796 N 453.909 3.80141 -4.14064 0
M  V30 4797 H 446.06 0.529005 -2.05707 0
M  V30 4798 H 448.323 0.296148 -0.900556 0
M  V30 4799 H 448.029 1.64497 -3.10859 0
M  V30 4800 H 447.903 3.10444 -2.14253 0
M  V30 4801 H 450.29 2.67357 -1.24916 0
M  V30 4802 H 450.371 1.21673 -2.2501 0
M  V30 4803 H 450.015 2.65347 -4.33074 0
M  V30 4804 H 449.945 4.10433 -3.29928 0
M  V30 4805 H 452.436 2.67566 -2.66865 0
M  V30 4806 H 452.749 5.01219 -5.88217 0
M  V30 4807 H 451.094 4.51288 -5.28549 0
M  V30 4808 H 454.285 3.25427 -3.36474 0
M  V30 4809 H 454.458 4.31992 -4.82998 0
M  V30 4810 N 447.864 1.01787 1.20321 0
M  V30 4811 C 449.092 0.727194 1.937 0
M  V30 4812 C 449.507 -0.712305 1.74848 0
M  V30 4813 O 448.864 -1.48327 1.06327 0
M  V30 4814 C 448.915 1.05497 3.45764 0
M  V30 4815 O 448.636 2.43794 3.64 0
M  V30 4816 C 450.137 0.785534 4.36285 0
M  V30 4817 H 447.357 0.266939 0.615617 0
M  V30 4818 H 449.901 1.35939 1.52777 0
M  V30 4819 H 448.056 0.468158 3.84561 0
M  V30 4820 H 448.47 2.55656 4.57974 0
M  V30 4821 H 449.944 1.06495 5.4163 0
M  V30 4822 H 450.421 -0.280273 4.38305 0
M  V30 4823 H 451.027 1.35456 4.03152 0
M  V30 4824 N 449.342 -1.36122 0.79427 0
M  V30 4825 C 450.753 -1.81646 0.431446 0
M  V30 4826 C 451.104 -1.66043 -1.04518 0
M  V30 4827 O 450.229 -1.1841 -1.8113 0
M  V30 4828 C 450.824 -3.29785 0.776341 0
M  V30 4829 C 449.383 -3.73501 0.466282 0
M  V30 4830 C 448.53 -2.58313 1.00844 0
M  V30 4831 H 451.481 -1.24274 0.986995 0
M  V30 4832 H 451.502 -3.80437 0.0692413 0
M  V30 4833 H 451.014 -3.4111 1.8511 0
M  V30 4834 H 449.115 -3.67733 -0.600245 0
M  V30 4835 H 449.228 -4.68754 0.990288 0
M  V30 4836 H 447.592 -2.5102 0.431406 0
M  V30 4837 H 448.375 -2.72421 2.08906 0
M  V30 4838 N 450.82 -0.546701 -1.47814 0
M  V30 4839 C 452.097 0.0464413 -1.95545 0
M  V30 4840 C 452.477 1.4962 -1.48919 0
M  V30 4841 O 451.825 2.16752 -0.723232 0
M  V30 4842 C 452.035 -0.0881298 -3.48889 0
M  V30 4843 C 453.383 0.0626059 -4.24554 0
M  V30 4844 O 454.407 -0.0151555 -3.56197 0
M  V30 4845 O 453.266 0.228071 -5.46024 0
M  V30 4846 H 450.36 0.0700004 -0.824032 0
M  V30 4847 H 452.906 -0.612482 -1.58262 0
M  V30 4848 H 451.678 -1.09737 -3.75597 0
M  V30 4849 H 451.301 0.608886 -3.9291 0
M  V30 4850 N 452.299 1.55045 -0.282633 0
M  V30 4851 C 453.529 2.03872 0.334635 0
M  V30 4852 C 453.937 1.16018 1.49454 0
M  V30 4853 O 453.28 0.174449 1.8287 0
M  V30 4854 C 453.342 3.48791 0.870905 0
M  V30 4855 C 453.006 4.56715 -0.161338 0
M  V30 4856 C 454.003 5.10513 -0.983466 0
M  V30 4857 C 451.688 5.01417 -0.297745 0
M  V30 4858 C 453.682 6.07538 -1.92811 0
M  V30 4859 C 451.369 5.98265 -1.24586 0
M  V30 4860 C 452.367 6.51208 -2.05954 0
M  V30 4861 O 452.055 7.46162 -2.99162 0
M  V30 4862 H 451.787 0.671324 0.0793742 0
M  V30 4863 H 454.341 2.01169 -0.41473 0
M  V30 4864 H 452.571 3.48758 1.67047 0
M  V30 4865 H 454.26 3.80916 1.40207 0
M  V30 4866 H 455.026 4.76785 -0.888856 0
M  V30 4867 H 450.905 4.59849 0.325604 0
M  V30 4868 H 454.449 6.48787 -2.56363 0
M  V30 4869 H 450.346 6.31412 -1.34126 0
M  V30 4870 H 451.114 7.63903 -2.93929 0
M  V30 4871 N 453.777 0.010035 1.57597 0
M  V30 4872 C 455.024 -0.6727 1.91 0
M  V30 4873 C 455.352 -1.73219 0.884614 0
M  V30 4874 O 454.607 -1.95395 -0.109215 0
M  V30 4875 C 454.906 -1.34434 3.31153 0
M  V30 4876 C 454.572 -0.417083 4.48967 0
M  V30 4877 C 453.234 -0.161809 4.80928 0
M  V30 4878 C 455.586 0.220753 5.20732 0
M  V30 4879 C 452.914 0.739426 5.82022 0
M  V30 4880 C 455.266 1.10993 6.22787 0
M  V30 4881 C 453.93 1.37428 6.532 0
M  V30 4882 H 453.2 -0.246158 0.698918 0
M  V30 4883 H 455.847 0.0677145 1.9138 0
M  V30 4884 H 454.152 -2.15905 3.26944 0
M  V30 4885 H 455.849 -1.87883 3.54261 0
M  V30 4886 H 452.439 -0.626217 4.24001 0
M  V30 4887 H 456.623 0.0365643 4.96287 0
M  V30 4888 H 451.879 0.952139 6.03941 0
M  V30 4889 H 456.053 1.61046 6.77523 0
M  V30 4890 H 453.68 2.0743 7.31353 0
M  V30 4891 N 455.255 -1.55392 -0.262866 0
M  V30 4892 C 456.185 -1.91978 -1.32917 0
M  V30 4893 C 457.166 -0.7828 -1.51017 0
M  V30 4894 O 458.351 -1.04178 -1.63892 0
M  V30 4895 C 455.481 -2.20055 -2.68687 0
M  V30 4896 C 454.435 -3.35854 -2.65304 0
M  V30 4897 C 453.761 -3.49435 -4.04721 0
M  V30 4898 C 455.061 -4.71977 -2.23685 0
M  V30 4899 H 456.755 -2.81292 -1.02544 0
M  V30 4900 H 454.301 -1.3534 -0.491846 0
M  V30 4901 H 456.254 -2.44237 -3.43404 0
M  V30 4902 H 454.978 -1.27551 -3.00663 0
M  V30 4903 H 453.637 -3.11655 -1.93045 0
M  V30 4904 H 453.285 -2.54379 -4.33936 0
M  V30 4905 H 452.985 -4.27297 -4.0335 0
M  V30 4906 H 454.509 -3.7592 -4.81161 0
M  V30 4907 H 455.923 -4.95637 -2.88127 0
M  V30 4908 H 454.32 -5.52828 -2.33456 0
M  V30 4909 H 455.39 -4.70115 -1.18827 0
M  V30 4910 O 456.772 0.408595 -1.56246 0
M  V30 4911 H 457.463 1.06117 -1.62046 0
M  V30 END ATOM
M  V30 BEGIN BOND
M  V30 END BOND
M  V30 END CTAB
M  END
$$$$
