drugbank_target|P67936 Tropomyosin alpha-4 chain (DB12695)
 OpenBabel12092121073D

  0  0  0     0  0            999 V3000
M  V30 BEGIN CTAB
M  V30 COUNTS 3983 3988 0 0 0
M  V30 BEGIN ATOM
M  V30 1 H -0.908 1.98254 -0.117106 0
M  V30 2 N 0 1.576 0 0
M  V30 3 C 0.933 2.03868 1.02534 0
M  V30 4 C 1.911 0.928543 1.3348 0
M  V30 5 O 3.095 1.19667 1.45644 0
M  V30 6 C 0.222 2.43627 2.35294 0
M  V30 7 C -0.732 3.65373 2.2001 0
M  V30 8 S 0.101 5.13292 1.52614 0
M  V30 9 C 1.257 5.56322 2.86805 0
M  V30 10 H 1.49 2.90518 0.631377 0
M  V30 11 H -0.977 1.52953 0.210867 0
M  V30 12 H 0.981 2.67203 3.11629 0
M  V30 13 H -0.358 1.57376 2.7183 0
M  V30 14 H -1.165 3.90944 3.18086 0
M  V30 15 H -1.563 3.418 1.51819 0
M  V30 16 H 0.729 5.58782 3.83104 0
M  V30 17 H 1.672 6.56266 2.65933 0
M  V30 18 H 2.08 4.83886 2.90714 0
M  V30 19 N 1.4781 -0.272755 1.55222 0
M  V30 20 C 2.4411 -1.32041 1.87344 0
M  V30 21 C 3.4411 -1.42342 0.74803 0
M  V30 22 O 4.6311 -1.41488 1.0162 0
M  V30 23 C 1.7631 -2.70173 2.07893 0
M  V30 24 H 2.9561 -1.04789 2.80997 0
M  V30 25 H 0.5091 -0.51083 1.47717 0
M  V30 26 H 1.2441 -3.02605 1.16622 0
M  V30 27 H 1.0291 -2.64082 2.89833 0
M  V30 28 H 2.5191 -3.45869 2.34017 0
M  V30 29 N 2.9562 -1.48159 -0.537278 0
M  V30 30 C 4.2042 -1.55497 -1.29094 0
M  V30 31 C 4.5252 -0.227454 -1.93669 0
M  V30 32 O 3.7952 0.750386 -1.80959 0
M  V30 33 H 2.3752 -0.572832 -0.47945 0
M  V30 34 H 5.0372 -1.84579 -0.625818 0
M  V30 35 H 4.1332 -2.33216 -2.07405 0
M  V30 36 N 4.4343 0.785586 -1.36625 0
M  V30 37 C 5.3643 1.91259 -1.33949 0
M  V30 38 C 6.3453 1.68795 -0.210325 0
M  V30 39 O 7.5303 1.89854 -0.408561 0
M  V30 40 C 4.6603 3.28339 -1.13186 0
M  V30 41 C 3.6143 3.65335 -2.22967 0
M  V30 42 C 2.9403 5.00806 -1.87342 0
M  V30 43 C 4.2403 3.7352 -3.65075 0
M  V30 44 H 5.9343 1.93755 -2.28253 0
M  V30 45 H 3.4803 0.930788 -1.09874 0
M  V30 46 H 5.4333 4.06804 -1.09948 0
M  V30 47 H 4.1573 3.2624 -0.153332 0
M  V30 48 H 2.8163 2.89169 -2.25337 0
M  V30 49 H 2.4643 4.95233 -0.880545 0
M  V30 50 H 2.1643 5.26529 -2.60846 0
M  V30 51 H 3.6883 5.81687 -1.85667 0
M  V30 52 H 5.1023 4.42168 -3.64911 0
M  V30 53 H 3.4993 4.10731 -4.37516 0
M  V30 54 H 4.5693 2.74527 -3.99703 0
M  V30 55 N 5.9124 1.20967 1.01018 0
M  V30 56 C 6.8604 0.961223 2.1181 0
M  V30 57 C 7.8544 -0.0897034 1.69162 0
M  V30 58 O 9.0604 0.0612271 1.79896 0
M  V30 59 H 5.4354 0.29355 0.692338 0
M  V30 60 H 7.4064 1.90178 2.29946 0
M  V30 61 C 6.1554 0.536854 3.4353 0
M  V30 62 H 5.4784 1.33713 3.76777 0
M  V30 63 H 6.9184 0.402286 4.22087 0
M  V30 64 C 5.3774 -0.751574 3.2841 0
M  V30 65 O 5.9074 -1.80841 3.58691 0
M  V30 66 N 4.1134 -0.716079 2.81639 0
M  V30 67 H 3.6604 0.144236 2.57196 0
M  V30 68 H 3.6184 -1.57847 2.71904 0
M  V30 69 N 7.3905 -1.2043 1.01659 0
M  V30 70 C 8.6155 -1.94318 0.724942 0
M  V30 71 C 9.0405 -1.74266 -0.708034 0
M  V30 72 O 8.3985 -1.03694 -1.48719 0
M  V30 73 C 8.4465 -3.44486 1.06591 0
M  V30 74 O 7.5505 -4.12017 0.177599 0
M  V30 75 H 6.8915 -0.60708 0.26898 0
M  V30 76 H 9.4215 -1.52861 1.35995 0
M  V30 77 H 9.4315 -3.95106 1.01762 0
M  V30 78 H 8.1065 -3.58404 2.10997 0
M  V30 79 H 6.6835 -3.71821 0.283421 0
M  V30 80 N 8.8686 -0.792821 -1.36206 0
M  V30 81 C 9.7986 -0.207853 -2.32573 0
M  V30 82 C 10.7796 0.659055 -1.56813 0
M  V30 83 O 11.9646 0.592176 -1.84951 0
M  V30 84 C 9.0946 0.655449 -3.41059 0
M  V30 85 C 8.0486 -0.111842 -4.27854 0
M  V30 86 C 7.3746 0.872274 -5.27537 0
M  V30 87 C 8.6746 -1.30299 -5.05786 0
M  V30 88 H 10.3686 -1.01294 -2.81744 0
M  V30 89 H 7.9146 -0.48854 -1.3546 0
M  V30 90 H 9.8676 1.07464 -4.07467 0
M  V30 91 H 8.5916 1.49328 -2.90463 0
M  V30 92 H 7.2506 -0.512053 -3.63006 0
M  V30 93 H 6.8986 1.70523 -4.73214 0
M  V30 94 H 6.5986 0.363291 -5.86476 0
M  V30 95 H 8.1226 1.28996 -5.96818 0
M  V30 96 H 9.5366 -0.959379 -5.65216 0
M  V30 97 H 7.9336 -1.7455 -5.74154 0
M  V30 98 H 9.0036 -2.09663 -4.37229 0
M  V30 99 N 10.3467 1.47872 -0.545128 0
M  V30 100 C 11.2567 2.33633 0.212746 0
M  V30 101 C 12.2727 1.4744 0.923983 0
M  V30 102 O 13.4487 1.80393 0.895572 0
M  V30 103 C 10.5137 3.23884 1.23693 0
M  V30 104 C 9.5747 4.25961 0.534417 0
M  V30 105 C 8.8077 5.11899 1.5098 0
M  V30 106 O 9.0307 5.00077 2.7437 0
M  V30 107 O 7.9647 5.92831 1.0409 0
M  V30 108 H 11.7907 2.99714 -0.490416 0
M  V30 109 H 9.3757 1.46235 -0.305871 0
M  V30 110 H 11.2577 3.79666 1.82843 0
M  V30 111 H 9.9327 2.60446 1.92222 0
M  V30 112 H 8.8397 3.73972 -0.0979679 0
M  V30 113 H 10.1727 4.92079 -0.109213 0
M  V30 114 N 11.8248 0.280983 1.55075 0
M  V30 115 C 12.7878 -0.590896 2.21452 0
M  V30 116 C 13.7878 -1.07682 1.19421 0
M  V30 117 O 14.9778 -0.97605 1.44288 0
M  V30 118 C 12.1098 -1.81587 2.88511 0
M  V30 119 H 13.3028 -0.0112554 2.99898 0
M  V30 120 H 10.8558 0.0316438 1.56268 0
M  V30 121 H 11.5908 -2.43587 2.14093 0
M  V30 122 H 11.3758 -1.4753 3.63287 0
M  V30 123 H 12.8658 -2.43575 3.39206 0
M  V30 124 N 13.3029 -1.57598 0.00835791 0
M  V30 125 C 14.5489 -1.91211 -0.675732 0
M  V30 126 C 14.8819 -0.883139 -1.72958 0
M  V30 127 O 14.1569 0.097016 -1.94258 0
M  V30 128 C 14.4399 -3.35379 -1.31123 0
M  V30 129 C 14.2929 -4.48999 -0.268356 0
M  V30 130 C 15.6119 -3.7912 -2.23508 0
M  V30 131 H 12.7309 -0.695374 -0.244179 0
M  V30 132 H 15.3729 -1.89901 0.0613655 0
M  V30 133 H 13.5229 -3.36626 -1.93946 0
M  V30 134 H 15.1949 -4.59887 0.360844 0
M  V30 135 H 13.4379 -4.31873 0.408482 0
M  V30 136 H 14.1089 -5.46851 -0.752218 0
M  V30 137 H 16.5849 -3.79477 -1.70693 0
M  V30 138 H 15.4609 -4.80729 -2.64936 0
M  V30 139 H 15.7219 -3.13455 -3.11766 0
M  V30 140 N 14.781 0.264519 -1.55364 0
M  V30 141 C 15.728 1.32717 -1.88825 0
M  V30 142 C 16.698 1.48675 -0.740605 0
M  V30 143 O 17.883 1.62945 -0.992657 0
M  V30 144 C 15.023 2.68089 -2.17307 0
M  V30 145 C 14.136 2.60284 -3.44785 0
M  V30 146 C 13.271 3.87892 -3.62924 0
M  V30 147 C 12.31 3.74631 -4.84064 0
M  V30 148 N 11.447 4.94092 -4.98816 0
M  V30 149 H 16.287 1.03481 -2.79456 0
M  V30 150 H 13.824 0.499757 -1.3835 0
M  V30 151 H 15.782 3.46864 -2.31821 0
M  V30 152 H 14.412 2.95509 -1.299 0
M  V30 153 H 13.464 1.73173 -3.38697 0
M  V30 154 H 14.776 2.46388 -4.33698 0
M  V30 155 H 13.93 4.75109 -3.77302 0
M  V30 156 H 12.669 4.04664 -2.7221 0
M  V30 157 H 11.674 2.85797 -4.69681 0
M  V30 158 H 12.899 3.5937 -5.76221 0
M  V30 159 H 10.845 5.11259 -4.11036 0
M  V30 160 H 10.762 4.8276 -5.81789 0
M  V30 161 H 12.03 5.82857 -5.17588 0
M  V30 162 N 16.2591 1.48442 0.529413 0
M  V30 163 C 17.6751 1.34575 0.858004 0
M  V30 164 C 17.8751 0.3572 1.98309 0
M  V30 165 O 16.9311 -0.221379 2.51528 0
M  V30 166 C 18.2441 2.74617 1.22499 0
M  V30 167 C 19.7921 2.83109 1.33484 0
M  V30 168 C 20.2671 4.23854 1.73526 0
M  V30 169 N 21.7581 4.2653 1.80628 0
M  V30 170 C 22.4931 5.32372 2.12997 0
M  V30 171 N 21.9891 6.48491 2.43786 0
M  V30 172 N 23.7821 5.19766 2.14008 0
M  V30 173 H 15.9331 2.1133 -0.212925 0
M  V30 174 H 18.1961 0.947439 -0.0326199 0
M  V30 175 H 17.9021 3.4852 0.471905 0
M  V30 176 H 17.7761 3.08177 2.17501 0
M  V30 177 H 20.1631 2.09462 2.0787 0
M  V30 178 H 20.2441 2.53168 0.366027 0
M  V30 179 H 19.8881 4.98018 0.997013 0
M  V30 180 H 19.8181 4.5124 2.71459 0
M  V30 181 H 22.3091 3.42772 1.59108 0
M  V30 182 H 22.6221 7.24993 2.67592 0
M  V30 183 H 20.9671 6.51765 2.41304 0
M  V30 184 H 24.1581 4.28066 1.89412 0
M  V30 185 H 24.3311 6.02354 2.38902 0
M  V30 186 N 17.7372 -0.778329 1.37039 0
M  V30 187 C 18.6842 -1.89139 1.32269 0
M  V30 188 C 19.6542 -1.65017 0.189387 0
M  V30 189 O 20.8392 -1.87024 0.377693 0
M  V30 190 C 17.9792 -3.26112 1.12894 0
M  V30 191 C 17.0922 -3.62233 2.35396 0
M  V30 192 C 16.2272 -4.8838 2.08946 0
M  V30 193 C 15.2662 -5.17212 3.2735 0
M  V30 194 N 14.4032 -6.34546 3.00492 0
M  V30 195 H 19.2432 -1.92552 2.27437 0
M  V30 196 H 16.7802 -0.941473 1.13025 0
M  V30 197 H 18.7382 -4.05116 0.996835 0
M  V30 198 H 17.3682 -3.22091 0.213758 0
M  V30 199 H 16.4202 -2.78265 2.5937 0
M  V30 200 H 17.7322 -3.79481 3.23721 0
M  V30 201 H 16.8862 -5.75274 1.92729 0
M  V30 202 H 15.6252 -4.73222 1.17949 0
M  V30 203 H 14.6302 -4.28796 3.44113 0
M  V30 204 H 15.8552 -5.34283 4.19188 0
M  V30 205 H 13.8012 -6.20759 2.12118 0
M  V30 206 H 13.7182 -6.52179 3.82358 0
M  V30 207 H 14.9862 -7.24394 2.87879 0
M  V30 208 N 19.2153 -1.21501 -1.00376 0
M  V30 209 C 20.4643 -1.02718 -1.73586 0
M  V30 210 C 20.7773 0.439589 -1.90596 0
M  V30 211 O 21.9833 0.746848 -2.61026 0
M  V30 212 C 20.4393 -1.78929 -3.1227 0
M  V30 213 C 20.0473 -3.29783 -3.03228 0
M  V30 214 C 21.7913 -1.68557 -3.89601 0
M  V30 215 C 19.6983 -3.98479 -4.36999 0
M  V30 216 H 18.6283 -0.380733 -0.650814 0
M  V30 217 H 21.2793 -1.45248 -1.1214 0
M  V30 218 H 19.6613 -1.29192 -3.74333 0
M  V30 219 H 20.8353 -3.86832 -2.50395 0
M  V30 220 H 19.1503 -3.40711 -2.39385 0
M  V30 221 H 21.7473 -2.17211 -4.88593 0
M  V30 222 H 22.0903 -0.644021 -4.11288 0
M  V30 223 H 22.6233 -2.15778 -3.34193 0
M  V30 224 H 19.3623 -5.02841 -4.20513 0
M  V30 225 H 18.8823 -3.46219 -4.89788 0
M  V30 226 H 20.5613 -4.03462 -5.05794 0
M  V30 227 N 20.6934 1.19889 -1.02296 0
M  V30 228 C 21.6254 2.22334 -0.556787 0
M  V30 229 C 22.6384 1.58674 0.364199 0
M  V30 230 O 23.8274 1.77768 0.161533 0
M  V30 231 C 20.9274 3.38257 0.208694 0
M  V30 232 C 20.1004 4.31504 -0.71577 0
M  V30 233 C 19.1594 5.262 0.00325597 0
M  V30 234 O 18.1854 5.65798 -0.621357 0
M  V30 235 N 19.3874 5.66303 1.27599 0
M  V30 236 H 22.1524 2.62957 -1.43784 0
M  V30 237 H 19.7134 1.34495 -0.901261 0
M  V30 238 H 21.7054 3.98616 0.699111 0
M  V30 239 H 20.2754 2.96472 0.991102 0
M  V30 240 H 19.4954 3.69016 -1.38638 0
M  V30 241 H 20.7834 4.9072 -1.34428 0
M  V30 242 H 20.1814 5.36155 1.80429 0
M  V30 243 H 18.7384 6.28942 1.71102 0
M  V30 244 N 22.1715 0.800033 1.35784 0
M  V30 245 C 23.1345 0.211565 2.28221 0
M  V30 246 C 24.1345 -0.59728 1.49296 0
M  V30 247 O 25.3245 -0.416721 1.69142 0
M  V30 248 C 22.4565 -0.705846 3.33513 0
M  V30 249 H 23.6495 1.02677 2.81776 0
M  V30 250 H 21.2025 0.570211 1.45528 0
M  V30 251 H 21.9375 -1.54498 2.85133 0
M  V30 252 H 21.7225 -0.127655 3.91892 0
M  V30 253 H 23.2125 -1.11211 4.02519 0
M  V30 254 N 23.6496 -1.47581 0.552962 0
M  V30 255 C 24.5796 -2.32762 -0.185451 0
M  V30 256 C 25.5606 -1.43527 -0.912905 0
M  V30 257 O 26.7456 -1.72388 -0.894201 0
M  V30 258 C 23.8756 -3.25219 -1.21859 0
M  V30 259 C 22.8296 -4.23661 -0.607864 0
M  V30 260 C 22.1556 -5.05413 -1.74533 0
M  V30 261 C 23.4556 -5.20481 0.435582 0
M  V30 262 H 25.1496 -2.94749 0.525684 0
M  V30 263 H 22.6956 -1.41738 0.254251 0
M  V30 264 H 24.6486 -3.8365 -1.7433 0
M  V30 265 H 23.3726 -2.61279 -1.95961 0
M  V30 266 H 22.0316 -3.66451 -0.104489 0
M  V30 267 H 21.6796 -4.3788 -2.47529 0
M  V30 268 H 21.3796 -5.72059 -1.34249 0
M  V30 269 H 22.9036 -5.66701 -2.27338 0
M  V30 270 H 24.3176 -5.733 -0.00290157 0
M  V30 271 H 22.7146 -5.95305 0.757067 0
M  V30 272 H 23.7846 -4.66217 1.33303 0
M  V30 273 N 25.1277 -0.289203 -1.54924 0
M  V30 274 C 26.0597 0.625583 -2.20497 0
M  V30 275 C 27.0727 1.10667 -1.19402 0
M  V30 276 O 28.2617 1.02615 -1.46056 0
M  V30 277 C 25.3617 1.86702 -2.82835 0
M  V30 278 C 24.5347 1.5304 -4.09753 0
M  V30 279 C 23.5937 2.62576 -4.56005 0
M  V30 280 O 22.6197 2.28167 -5.21468 0
M  V30 281 N 23.8217 3.92901 -4.27328 0
M  V30 282 H 26.5867 0.0642801 -2.99631 0
M  V30 283 H 24.1477 -0.110896 -1.6152 0
M  V30 284 H 26.1397 2.59304 -3.10715 0
M  V30 285 H 24.7097 2.33702 -2.07611 0
M  V30 286 H 23.9297 0.637564 -3.8901 0
M  V30 287 H 25.2177 1.28072 -4.92418 0
M  V30 288 H 24.6157 4.23671 -3.74859 0
M  V30 289 H 23.1727 4.61837 -4.59946 0
M  V30 290 N 26.6058 1.57591 -0.0167156 0
M  V30 291 C 27.5378 2.06343 0.997753 0
M  V30 292 C 28.5508 0.984469 1.29661 0
M  V30 293 O 29.7398 1.26093 1.26344 0
M  V30 294 C 26.8398 2.46255 2.32834 0
M  V30 295 C 26.0128 3.77083 2.21646 0
M  V30 296 C 25.0718 4.0368 3.37534 0
M  V30 297 O 24.0978 4.7411 3.14973 0
M  V30 298 N 25.2998 3.52881 4.60929 0
M  V30 299 H 28.0648 2.93997 0.581875 0
M  V30 300 H 25.6258 1.61002 0.170316 0
M  V30 301 H 27.6178 2.61149 3.09166 0
M  V30 302 H 26.1878 1.64032 2.66106 0
M  V30 303 H 25.4078 3.72106 1.30119 0
M  V30 304 H 26.6958 4.62822 2.11361 0
M  V30 305 H 26.0938 2.95878 4.82154 0
M  V30 306 H 24.6508 3.73076 5.34469 0
M  V30 307 N 28.0839 -0.256276 1.55502 0
M  V30 308 C 29.0159 -1.33981 1.85962 0
M  V30 309 C 30.0289 -1.44743 0.745212 0
M  V30 310 O 31.2179 -1.4626 1.02324 0
M  V30 311 C 28.3179 -2.7194 2.02242 0
M  V30 312 C 27.4909 -2.83562 3.33033 0
M  V30 313 C 26.5499 -4.02304 3.39172 0
M  V30 314 O 25.5759 -3.92273 4.12444 0
M  V30 315 N 26.7779 -5.15045 2.67784 0
M  V30 316 H 29.5429 -1.08191 2.7949 0
M  V30 317 H 27.1039 -0.446388 1.55624 0
M  V30 318 H 29.0959 -3.49697 2.03701 0
M  V30 319 H 27.6659 -2.90479 1.15502 0
M  V30 320 H 26.8859 -1.92555 3.43971 0
M  V30 321 H 28.1739 -2.88271 4.19258 0
M  V30 322 H 27.5719 -5.26085 2.07968 0
M  V30 323 H 26.1289 -5.90972 2.74947 0
M  V30 324 N 29.562 -1.4872 -0.521534 0
M  V30 325 C 30.525 -1.63379 -1.60748 0
M  V30 326 C 31.525 -0.50661 -1.52611 0
M  V30 327 O 32.715 -0.772601 -1.5613 0
M  V30 328 C 29.847 -1.61192 -3.00383 0
M  V30 329 H 31.04 -2.60217 -1.49087 0
M  V30 330 H 28.593 -1.37444 -0.744235 0
M  V30 331 H 29.328 -0.65863 -3.17541 0
M  V30 332 H 29.113 -2.43032 -3.07698 0
M  V30 333 H 30.603 -1.7466 -3.7932 0
M  V30 334 N 31.0401 0.771051 -1.3745 0
M  V30 335 C 32.3171 1.519 -1.23231 0
M  V30 336 C 32.6971 2.10383 0.173809 0
M  V30 337 O 32.0451 1.95583 1.18151 0
M  V30 338 C 32.2551 2.59933 -2.32886 0
M  V30 339 C 33.6031 3.27316 -2.70461 0
M  V30 340 O 34.6271 2.70228 -2.32068 0
M  V30 341 O 33.4861 4.30531 -3.36608 0
M  V30 342 H 30.5801 0.672803 -0.480901 0
M  V30 343 H 33.1261 0.807957 -1.49232 0
M  V30 344 H 31.8981 2.14842 -3.27045 0
M  V30 345 H 31.5211 3.38637 -2.08353 0
M  V30 346 N 32.5182 1.22032 0.997298 0
M  V30 347 C 33.4282 1.00271 2.12092 0
M  V30 348 C 34.4442 -0.047621 1.73935 0
M  V30 349 O 35.6202 0.144136 2.00884 0
M  V30 350 C 32.6852 0.578449 3.4184 0
M  V30 351 C 31.7462 1.70189 3.94125 0
M  V30 352 C 30.9792 1.29778 5.17681 0
M  V30 353 O 31.2022 0.174676 5.70132 0
M  V30 354 O 30.1362 2.11261 5.63607 0
M  V30 355 H 33.9622 1.94398 2.3333 0
M  V30 356 H 31.5472 1.00587 1.10465 0
M  V30 357 H 33.4292 0.351998 4.19927 0
M  V30 358 H 32.1042 -0.334019 3.21972 0
M  V30 359 H 31.0112 1.98282 3.1723 0
M  V30 360 H 32.3442 2.59206 4.18417 0
M  V30 361 N 33.9963 -1.19345 1.0293 0
M  V30 362 C 34.9593 -2.20793 0.615069 0
M  V30 363 C 35.9593 -1.57553 -0.321533 0
M  V30 364 O 37.1493 -1.73862 -0.108483 0
M  V30 365 C 34.2813 -3.40754 -0.0999222 0
M  V30 366 H 35.4743 -2.58955 1.51269 0
M  V30 367 H 33.0273 -1.3303 0.820534 0
M  V30 368 H 33.7623 -3.0811 -1.01187 0
M  V30 369 H 33.5473 -3.87889 0.57309 0
M  V30 370 H 35.0373 -4.15898 -0.376645 0
M  V30 371 N 35.4744 -0.807222 -1.35358 0
M  V30 372 C 36.3844 -0.219594 -2.3357 0
M  V30 373 C 37.4004 0.637734 -1.61892 0
M  V30 374 O 38.5764 0.549336 -1.93763 0
M  V30 375 C 35.6414 0.62158 -3.41083 0
M  V30 376 C 34.7024 -0.256315 -4.28534 0
M  V30 377 C 33.9354 0.544807 -5.30912 0
M  V30 378 O 34.1584 1.77944 -5.41934 0
M  V30 379 O 33.0924 -0.0646478 -6.01865 0
M  V30 380 H 36.9184 -1.03208 -2.85625 0
M  V30 381 H 34.5034 -0.569025 -1.38139 0
M  V30 382 H 36.3854 1.10067 -4.06772 0
M  V30 383 H 35.0604 1.41165 -2.91297 0
M  V30 384 H 33.9674 -0.782559 -3.65823 0
M  V30 385 H 35.3004 -1.01034 -4.81719 0
M  V30 386 N 36.9525 1.47285 -0.560781 0
M  V30 387 C 38.2295 1.9558 0.0277798 0
M  V30 388 C 38.6095 1.5034 1.48192 0
M  V30 389 O 37.9575 0.743882 2.16052 0
M  V30 390 C 38.1675 3.48789 -0.121418 0
M  V30 391 C 39.5155 4.24594 0.0220912 0
M  V30 392 O 40.5395 3.56166 -0.0491439 0
M  V30 393 O 39.3985 5.46217 0.175958 0
M  V30 394 H 36.4925 0.824663 0.0621342 0
M  V30 395 H 39.0385 1.5767 -0.627556 0
M  V30 396 H 37.8105 3.74533 -1.13316 0
M  V30 397 H 37.4335 3.93473 0.571366 0
M  V30 398 N 38.4306 0.297415 1.54768 0
M  V30 399 C 39.8466 -0.0560823 1.59501 0
M  V30 400 C 40.0466 -1.52725 1.31444 0
M  V30 401 O 39.1026 -2.27947 1.08611 0
M  V30 402 C 40.4156 0.338631 2.98787 0
M  V30 403 C 41.9636 0.287097 3.11681 0
M  V30 404 C 42.4386 0.656579 4.53269 0
M  V30 405 N 43.9296 0.608977 4.59179 0
M  V30 406 C 44.6646 0.867385 5.66802 0
M  V30 407 N 44.1606 1.19157 6.82476 0
M  V30 408 N 45.9536 0.794687 5.56454 0
M  V30 409 H 38.1046 1.25624 1.71267 0
M  V30 410 H 40.3676 0.509057 0.799728 0
M  V30 411 H 40.0736 1.36263 3.2423 0
M  V30 412 H 39.9476 -0.309508 3.75928 0
M  V30 413 H 42.3346 -0.727649 2.85988 0
M  V30 414 H 42.4156 0.969809 2.36703 0
M  V30 415 H 42.0596 1.66912 4.7969 0
M  V30 416 H 41.9896 -0.0481649 5.26578 0
M  V30 417 H 44.4806 0.369198 3.76092 0
M  V30 418 H 44.7936 1.37482 7.60473 0
M  V30 419 H 43.1386 1.22958 6.84037 0
M  V30 420 H 46.3296 0.541098 4.64962 0
M  V30 421 H 46.5026 0.999445 6.40246 0
M  V30 422 N 39.9087 -1.5758 0.0250728 0
M  V30 423 C 40.8717 -2.08896 -0.943139 0
M  V30 424 C 41.8717 -1.00321 -1.25668 0
M  V30 425 O 43.0617 -1.26495 -1.19769 0
M  V30 426 C 40.1937 -2.55143 -2.26086 0
M  V30 427 H 41.3867 -2.95723 -0.498775 0
M  V30 428 H 38.9397 -1.54703 -0.222888 0
M  V30 429 H 39.6747 -1.71633 -2.75159 0
M  V30 430 H 39.4597 -3.34461 -2.04641 0
M  V30 431 H 40.9497 -2.95083 -2.95492 0
M  V30 432 N 41.3868 0.248026 -1.55636 0
M  V30 433 C 42.3188 1.32993 -1.8667 0
M  V30 434 C 43.3318 1.44345 -0.752877 0
M  V30 435 O 44.5208 1.45715 -1.03098 0
M  V30 436 C 41.6208 2.70863 -2.03682 0
M  V30 437 C 40.7938 2.81792 -3.34532 0
M  V30 438 C 39.8528 4.005 -3.41301 0
M  V30 439 O 38.8788 3.9008 -4.14519 0
M  V30 440 N 40.0808 5.13618 -2.70512 0
M  V30 441 H 42.8458 1.06707 -2.8006 0
M  V30 442 H 40.4068 0.438129 -1.55859 0
M  V30 443 H 42.3988 3.48612 -2.05553 0
M  V30 444 H 40.9688 2.89862 -1.17041 0
M  V30 445 H 40.1888 1.90729 -3.44987 0
M  V30 446 H 41.4768 2.86043 -4.20781 0
M  V30 447 H 40.8748 5.24975 -2.10755 0
M  V30 448 H 39.4318 5.89505 -2.78077 0
M  V30 449 N 42.8649 1.48995 0.513639 0
M  V30 450 C 44.1129 1.57531 1.26604 0
M  V30 451 C 44.4339 0.258236 1.93283 0
M  V30 452 O 43.7039 -0.721502 1.8213 0
M  V30 453 H 42.2839 0.580387 0.470276 0
M  V30 454 H 44.9459 1.85552 0.596373 0
M  V30 455 H 44.0419 2.36486 2.03669 0
M  V30 456 N 44.343 -0.763751 1.37857 0
M  V30 457 C 45.273 -1.89103 1.36975 0
M  V30 458 C 46.254 -1.68439 0.237152 0
M  V30 459 O 47.439 -1.8918 0.438713 0
M  V30 460 C 44.569 -3.26496 1.18395 0
M  V30 461 C 43.523 -3.61741 2.28751 0
M  V30 462 C 42.849 -4.97762 1.95286 0
M  V30 463 C 44.149 -3.67665 3.70972 0
M  V30 464 H 45.843 -1.90099 2.31307 0
M  V30 465 H 43.389 -0.91319 1.11341 0
M  V30 466 H 45.342 -4.05003 1.16406 0
M  V30 467 H 44.066 -3.25955 0.205215 0
M  V30 468 H 42.725 -2.85547 2.29909 0
M  V30 469 H 42.373 -4.93769 0.959221 0
M  V30 470 H 42.073 -5.22313 2.69189 0
M  V30 471 H 43.597 -5.7866 1.94898 0
M  V30 472 H 45.011 -4.36307 3.719 0
M  V30 473 H 43.408 -4.03718 4.43995 0
M  V30 474 H 44.478 -2.68134 4.0402 0
M  V30 475 N 45.8211 -1.22559 -0.990812 0
M  V30 476 C 46.7531 -0.955325 -2.08342 0
M  V30 477 C 47.7661 0.0668408 -1.62663 0
M  V30 478 O 48.9551 -0.167421 -1.77713 0
M  V30 479 C 46.0551 -0.415566 -3.36342 0
M  V30 480 C 45.2281 -1.49544 -4.11042 0
M  V30 481 C 44.2871 -0.962399 -5.17324 0
M  V30 482 O 43.3131 -1.64907 -5.44788 0
M  V30 483 N 44.5151 0.215134 -5.80101 0
M  V30 484 H 47.2801 -1.89596 -2.32106 0
M  V30 485 H 44.8411 -1.13276 -1.15673 0
M  V30 486 H 46.8331 -0.0442386 -4.04676 0
M  V30 487 H 45.4031 0.430232 -3.09625 0
M  V30 488 H 44.6231 -2.04 -3.37309 0
M  V30 489 H 45.9111 -2.22195 -4.57719 0
M  V30 490 H 45.3091 0.789779 -5.6016 0
M  V30 491 H 43.8661 0.527826 -6.49659 0
M  V30 492 N 47.2992 1.18797 -1.03562 0
M  V30 493 C 48.7152 1.40671 -0.753917 0
M  V30 494 C 48.9152 1.9043 0.658686 0
M  V30 495 O 47.9712 2.08538 1.42366 0
M  V30 496 C 49.2842 2.41192 -1.79574 0
M  V30 497 C 50.8322 2.54928 -1.81606 0
M  V30 498 C 51.3072 3.58709 -2.84766 0
M  V30 499 N 52.7982 3.66212 -2.83625 0
M  V30 500 C 53.5332 4.46225 -3.60098 0
M  V30 501 N 53.0292 5.29888 -4.46308 0
M  V30 502 N 54.8222 4.40939 -3.4861 0
M  V30 503 H 46.9732 0.848221 -1.94728 0
M  V30 504 H 49.2362 0.435081 -0.842264 0
M  V30 505 H 48.9422 2.11669 -2.80872 0
M  V30 506 H 48.8162 3.40467 -1.62365 0
M  V30 507 H 51.2032 2.83771 -0.809817 0
M  V30 508 H 51.2842 1.55784 -2.02891 0
M  V30 509 H 50.9282 3.30607 -3.85566 0
M  V30 510 H 50.8582 4.57519 -2.60737 0
M  V30 511 H 53.3492 3.06466 -2.21105 0
M  V30 512 H 53.6622 5.88078 -5.01382 0
M  V30 513 H 52.0072 5.29326 -4.50377 0
M  V30 514 H 55.1982 3.74624 -2.80668 0
M  V30 515 H 55.3712 5.03056 -4.08459 0
M  V30 516 N 48.7773 0.814389 1.34928 0
M  V30 517 C 49.6873 0.231978 2.3345 0
M  V30 518 C 50.7033 -0.629139 1.62228 0
M  V30 519 O 51.8793 -0.539052 1.94052 0
M  V30 520 C 48.9443 -0.603482 3.41407 0
M  V30 521 C 48.0053 0.279037 4.28392 0
M  V30 522 C 47.2383 -0.516643 5.31193 0
M  V30 523 O 47.4613 -1.75068 5.4287 0
M  V30 524 O 46.3953 0.0965652 6.01823 0
M  V30 525 H 50.2213 1.04721 2.85074 0
M  V30 526 H 47.8063 0.576343 1.37836 0
M  V30 527 H 49.6883 -1.07908 4.0735 0
M  V30 528 H 48.3633 -1.39618 2.92042 0
M  V30 529 H 47.2703 0.801948 3.65403 0
M  V30 530 H 48.6033 1.03588 4.81176 0
M  V30 531 N 50.2554 -1.46986 0.568584 0
M  V30 532 C 51.1854 -2.32946 -0.160753 0
M  V30 533 C 52.1664 -1.44487 -0.897631 0
M  V30 534 O 53.3514 -1.73327 -0.875867 0
M  V30 535 C 50.4814 -3.26494 -1.18403 0
M  V30 536 C 49.4354 -4.24282 -0.562895 0
M  V30 537 C 48.7614 -5.07236 -1.69163 0
M  V30 538 C 50.0614 -5.19989 0.490761 0
M  V30 539 H 51.7554 -2.94175 0.556916 0
M  V30 540 H 49.3014 -1.4146 0.26927 0
M  V30 541 H 51.2544 -3.85477 -1.70251 0
M  V30 542 H 49.9784 -2.63343 -1.93179 0
M  V30 543 H 48.6374 -3.66541 -0.0656164 0
M  V30 544 H 48.2854 -4.4048 -2.42871 0
M  V30 545 H 47.9854 -5.7345 -1.28174 0
M  V30 546 H 49.5094 -5.6908 -2.21314 0
M  V30 547 H 50.9234 -5.73271 0.0579047 0
M  V30 548 H 49.3204 -5.94469 0.820165 0
M  V30 549 H 50.3904 -4.64777 1.3824 0
M  V30 550 N 51.7335 -0.305618 -1.54608 0
M  V30 551 C 53.0105 0.355652 -1.92339 0
M  V30 552 C 53.3905 1.71324 -1.23335 0
M  V30 553 O 52.7385 2.25473 -0.370702 0
M  V30 554 C 52.9485 0.46572 -3.45879 0
M  V30 555 C 54.2965 0.734426 -4.182 0
M  V30 556 O 55.3205 0.54935 -3.51938 0
M  V30 557 O 54.1795 1.09024 -5.35515 0
M  V30 558 H 51.2735 0.199666 -0.802535 0
M  V30 559 H 53.8195 -0.354017 -1.65966 0
M  V30 560 H 52.5915 -0.488461 -3.88239 0
M  V30 561 H 52.2145 1.22367 -3.78301 0
M  V30 562 N 53.2116 1.57565 -0.0334293 0
M  V30 563 C 54.4596 1.91598 0.642999 0
M  V30 564 C 54.7806 0.910847 1.7242 0
M  V30 565 O 54.0506 -0.0469931 1.95844 0
M  V30 566 H 52.6306 0.707228 0.240496 0
M  V30 567 H 55.2926 1.94726 -0.0822488 0
M  V30 568 H 54.3886 2.92336 1.09298 0
M  V30 569 N 54.6897 -0.239769 1.55765 0
M  V30 570 C 55.5997 -1.31831 1.94056 0
M  V30 571 C 56.6157 -1.52275 0.841925 0
M  V30 572 O 57.7917 -1.65759 1.14394 0
M  V30 573 C 54.8567 -2.65156 2.23368 0
M  V30 574 C 53.9177 -2.53173 3.46701 0
M  V30 575 C 53.1507 -3.8014 3.74606 0
M  V30 576 O 53.3737 -4.82343 3.04469 0
M  V30 577 O 52.3077 -3.78344 4.68123 0
M  V30 578 H 56.1337 -1.02347 2.85935 0
M  V30 579 H 53.7187 -0.441123 1.42739 0
M  V30 580 H 55.6007 -3.43929 2.43497 0
M  V30 581 H 54.2757 -2.94358 1.34666 0
M  V30 582 H 53.1827 -1.72662 3.31871 0
M  V30 583 H 54.5157 -2.28915 4.35728 0
M  V30 584 N 56.1678 -1.49265 -0.50573 0
M  V30 585 C 57.5838 -1.35923 -0.836486 0
M  V30 586 C 57.7838 -0.388704 -1.97715 0
M  V30 587 O 56.8398 0.181336 -2.51848 0
M  V30 588 C 58.1528 -2.76531 -1.18115 0
M  V30 589 C 59.7008 -2.85197 -1.28964 0
M  V30 590 C 60.1758 -4.26561 -1.66761 0
M  V30 591 N 61.6668 -4.2935 -1.73819 0
M  V30 592 C 62.4018 -5.35693 -2.045 0
M  V30 593 N 61.8978 -6.52287 -2.33438 0
M  V30 594 N 63.6908 -5.23105 -2.05711 0
M  V30 595 H 55.8418 -2.10965 0.246519 0
M  V30 596 H 58.1048 -0.9468 0.0476887 0
M  V30 597 H 57.8108 -3.49226 -0.416398 0
M  V30 598 H 57.6848 -3.11599 -2.1257 0
M  V30 599 H 60.0718 -2.12742 -2.04511 0
M  V30 600 H 60.1528 -2.53718 -0.325704 0
M  V30 601 H 59.7968 -4.99541 -0.917656 0
M  V30 602 H 59.7268 -4.55502 -2.64246 0
M  V30 603 H 62.2178 -3.4526 -1.53635 0
M  V30 604 H 62.5308 -7.29158 -2.56024 0
M  V30 605 H 60.8758 -6.55521 -2.30905 0
M  V30 606 H 64.0668 -4.31026 -1.82577 0
M  V30 607 H 64.2398 -6.06078 -2.29289 0
M  V30 608 N 57.6459 0.756429 -1.3826 0
M  V30 609 C 58.5559 1.9009 -1.37488 0
M  V30 610 C 59.5719 1.71855 -0.272366 0
M  V30 611 O 60.7479 1.94827 -0.510318 0
M  V30 612 C 57.8129 3.25421 -1.19592 0
M  V30 613 C 56.8739 3.56202 -2.39622 0
M  V30 614 C 56.1069 4.85075 -2.2257 0
M  V30 615 O 56.3299 5.57246 -1.21793 0
M  V30 616 O 55.2639 5.15269 -3.11098 0
M  V30 617 H 59.0899 1.93695 -2.33914 0
M  V30 618 H 56.6749 0.901313 -1.1915 0
M  V30 619 H 58.5569 4.06337 -1.11661 0
M  V30 620 H 57.2319 3.22634 -0.262486 0
M  V30 621 H 56.1389 2.75458 -2.53128 0
M  V30 622 H 57.4719 3.63747 -3.31586 0
M  V30 623 N 59.124 1.23083 0.984299 0
M  V30 624 C 60.54 0.992637 1.24975 0
M  V30 625 C 60.74 -0.308618 1.99123 0
M  V30 626 O 59.796 -1.02905 2.30579 0
M  V30 627 C 61.109 2.19698 2.05312 0
M  V30 628 C 62.657 2.24147 2.18465 0
M  V30 629 C 63.132 3.44157 3.02192 0
M  V30 630 N 64.623 3.44372 3.09777 0
M  V30 631 C 65.358 4.33886 3.74874 0
M  V30 632 N 64.854 5.3363 4.41827 0
M  V30 633 N 66.647 4.21639 3.71721 0
M  V30 634 H 58.798 2.06731 0.487453 0
M  V30 635 H 61.061 0.906339 0.277944 0
M  V30 636 H 60.767 3.1411 1.58201 0
M  V30 637 H 60.641 2.20465 3.06064 0
M  V30 638 H 63.028 1.30277 2.64786 0
M  V30 639 H 63.109 2.27415 1.17115 0
M  V30 640 H 62.753 4.38332 2.56568 0
M  V30 641 H 62.683 3.3813 4.03702 0
M  V30 642 H 65.174 2.72201 2.62135 0
M  V30 643 H 65.487 5.98196 4.89266 0
M  V30 644 H 63.832 5.37534 4.40548 0
M  V30 645 H 67.023 3.42962 3.18582 0
M  V30 646 H 67.196 4.91604 4.22173 0
M  V30 647 N 60.6021 -1.18246 1.0419 0
M  V30 648 C 62.0181 -1.40269 0.761366 0
M  V30 649 C 62.2181 -1.90777 -0.648578 0
M  V30 650 O 61.2741 -2.0929 -1.41258 0
M  V30 651 C 62.5871 -2.40237 1.8085 0
M  V30 652 C 64.1351 -2.53961 1.82955 0
M  V30 653 C 64.6101 -3.57194 2.86664 0
M  V30 654 N 66.1011 -3.64702 2.85563 0
M  V30 655 C 66.8361 -4.44309 3.6246 0
M  V30 656 N 66.3321 -5.27514 4.49111 0
M  V30 657 N 68.1251 -4.39084 3.50944 0
M  V30 658 H 60.2761 -0.837882 1.95175 0
M  V30 659 H 62.5391 -0.430608 0.84456 0
M  V30 660 H 62.2451 -2.10176 2.81991 0
M  V30 661 H 62.1191 -3.39601 1.64168 0
M  V30 662 H 64.5061 -2.83338 0.824855 0
M  V30 663 H 64.5871 -1.54706 2.03715 0
M  V30 664 H 64.2311 -3.28558 3.87314 0
M  V30 665 H 64.1611 -4.5613 2.6316 0
M  V30 666 H 66.6521 -3.05289 2.22727 0
M  V30 667 H 66.9651 -5.85411 5.04493 0
M  V30 668 H 65.3101 -5.2693 4.53178 0
M  V30 669 H 68.5011 -3.7313 2.82651 0
M  V30 670 H 68.6741 -5.00883 4.11121 0
M  V30 671 N 62.0802 -0.821533 -1.34494 0
M  V30 672 C 62.9902 -0.244355 -2.33324 0
M  V30 673 C 64.0062 0.620527 -1.62559 0
M  V30 674 O 65.1822 0.528754 -1.94335 0
M  V30 675 C 62.2472 0.585368 -3.41723 0
M  V30 676 C 61.3082 -0.301752 -4.28238 0
M  V30 677 C 60.5412 0.488466 -5.3146 0
M  V30 678 O 60.7642 1.72186 -5.4379 0
M  V30 679 O 59.6982 -0.12848 -6.01763 0
M  V30 680 H 63.5242 -1.06231 -2.84515 0
M  V30 681 H 61.1092 -0.583645 -1.37528 0
M  V30 682 H 62.9912 1.05747 -4.07916 0
M  V30 683 H 61.6662 1.38068 -2.92778 0
M  V30 684 H 60.5732 -0.821315 -3.64973 0
M  V30 685 H 61.9062 -1.06138 -4.8062 0
M  V30 686 N 63.5583 1.46682 -0.576371 0
M  V30 687 C 64.5053 2.30241 0.160499 0
M  V30 688 C 65.4753 1.40233 0.890162 0
M  V30 689 O 66.6603 1.69186 0.882084 0
M  V30 690 C 63.8003 3.24578 1.1723 0
M  V30 691 C 62.9133 4.29684 0.446736 0
M  V30 692 C 62.0483 5.11154 1.44551 0
M  V30 693 C 61.0873 6.08015 0.70599 0
M  V30 694 N 60.2243 6.82376 1.65251 0
M  V30 695 H 65.0643 2.92727 -0.558127 0
M  V30 696 H 62.6013 1.44272 -0.287056 0
M  V30 697 H 64.5593 3.77711 1.77172 0
M  V30 698 H 63.1893 2.63916 1.85872 0
M  V30 699 H 62.2413 3.79458 -0.267594 0
M  V30 700 H 63.5533 4.98626 -0.131686 0
M  V30 701 H 62.7073 5.68533 2.11791 0
M  V30 702 H 61.4463 4.42158 2.05786 0
M  V30 703 H 60.4513 5.49796 0.0197725 0
M  V30 704 H 61.6763 6.79028 0.09912 0
M  V30 705 H 59.6223 6.16094 2.25308 0
M  V30 706 H 59.5393 7.47556 1.12673 0
M  V30 707 H 60.8073 7.44316 2.31546 0
M  V30 708 N 65.0364 0.313813 1.54444 0
M  V30 709 C 65.9994 -0.54379 2.22656 0
M  V30 710 C 66.9994 -1.05124 1.21678 0
M  V30 711 O 68.1894 -0.945225 1.46325 0
M  V30 712 C 65.3214 -1.75427 2.92298 0
M  V30 713 H 66.5144 0.0523599 2.99854 0
M  V30 714 H 64.0674 0.0647834 1.56166 0
M  V30 715 H 64.8024 -2.38991 2.19211 0
M  V30 716 H 64.5874 -1.39791 3.66334 0
M  V30 717 H 66.0774 -2.36325 3.44297 0
M  V30 718 N 66.5145 -1.57545 0.0417849 0
M  V30 719 C 67.4245 -2.14451 -0.951213 0
M  V30 720 C 68.4405 -1.09992 -1.34825 0
M  V30 721 O 69.6165 -1.42114 -1.42708 0
M  V30 722 C 66.6815 -2.67063 -2.21084 0
M  V30 723 C 65.7425 -3.86284 -1.87304 0
M  V30 724 C 64.9755 -4.36378 -3.07261 0
M  V30 725 O 65.1985 -3.85587 -4.20332 0
M  V30 726 O 64.1325 -5.28077 -2.88822 0
M  V30 727 H 67.9585 -2.99601 -0.497287 0
M  V30 728 H 65.5435 -1.48317 -0.179567 0
M  V30 729 H 67.4255 -3.00914 -2.95006 0
M  V30 730 H 66.1005 -1.84989 -2.65633 0
M  V30 731 H 65.0075 -3.57338 -1.10727 0
M  V30 732 H 66.3405 -4.6956 -1.47562 0
M  V30 733 N 67.9926 0.231505 -1.5589 0
M  V30 734 C 69.2406 0.955461 -1.78088 0
M  V30 735 C 69.5616 1.85262 -0.608533 0
M  V30 736 O 68.8316 1.92277 0.375035 0
M  V30 737 H 67.4116 0.355787 -0.656829 0
M  V30 738 H 70.0736 0.245751 -1.93344 0
M  V30 739 H 69.1696 1.56814 -2.69844 0
M  V30 740 N 69.4707 1.49531 0.497807 0
M  V30 741 C 70.7477 1.49682 1.25915 0
M  V30 742 C 71.1277 0.226339 2.09883 0
M  V30 743 O 70.4757 -0.791189 2.14365 0
M  V30 744 C 70.6857 2.77755 2.11313 0
M  V30 745 C 72.0337 3.27371 2.70395 0
M  V30 746 O 73.0577 2.78894 2.21578 0
M  V30 747 O 71.9167 4.11808 3.59272 0
M  V30 748 H 69.0107 0.599228 0.56996 0
M  V30 749 H 71.5567 1.61798 0.511816 0
M  V30 750 H 70.3287 3.61713 1.49264 0
M  V30 751 H 69.9517 2.68515 2.93233 0
M  V30 752 N 70.9488 -0.749086 1.3866 0
M  V30 753 C 72.1948 -1.51056 1.35314 0
M  V30 754 C 72.5278 -1.94121 -0.0553751 0
M  V30 755 O 71.8028 -1.65763 -1.01749 0
M  V30 756 C 72.0858 -2.76003 2.31288 0
M  V30 757 C 71.9388 -2.39047 3.8102 0
M  V30 758 C 73.2578 -3.78046 2.2532 0
M  V30 759 H 70.3768 -0.547972 0.492844 0
M  V30 760 H 73.0188 -0.857628 1.69543 0
M  V30 761 H 71.1688 -3.31716 2.02229 0
M  V30 762 H 72.8408 -1.89074 4.20771 0
M  V30 763 H 71.0838 -1.71449 3.98482 0
M  V30 764 H 71.7548 -3.28462 4.4364 0
M  V30 765 H 74.2308 -3.31884 2.50983 0
M  V30 766 H 73.1068 -4.63159 2.94576 0
M  V30 767 H 73.3678 -4.23957 1.25352 0
M  V30 768 N 72.4269 -1.23603 -0.977757 0
M  V30 769 C 73.3899 -1.02069 -2.05218 0
M  V30 770 C 74.3899 0.0184305 -1.60789 0
M  V30 771 O 75.5799 -0.221569 -1.72785 0
M  V30 772 C 72.7119 -0.544926 -3.36517 0
M  V30 773 H 73.9049 -1.9742 -2.25755 0
M  V30 774 H 71.4579 -1.05684 -1.15155 0
M  V30 775 H 72.1929 0.412241 -3.21669 0
M  V30 776 H 71.9779 -1.2948 -3.70105 0
M  V30 777 H 73.4679 -0.414985 -4.15533 0
M  V30 778 N 73.905 1.17692 -1.04816 0
M  V30 779 C 74.868 2.19787 -0.650117 0
M  V30 780 C 75.868 1.58044 0.296427 0
M  V30 781 O 77.058 1.74012 0.0808097 0
M  V30 782 C 74.19 3.40869 0.0456987 0
M  V30 783 H 75.383 2.56516 -1.5537 0
M  V30 784 H 72.936 1.31708 -0.841594 0
M  V30 785 H 73.671 3.09681 0.962726 0
M  V30 786 H 73.456 3.86928 -0.634727 0
M  V30 787 H 74.946 4.16445 0.310432 0
M  V30 788 N 75.3831 0.828654 1.34056 0
M  V30 789 C 76.3131 0.269443 2.3194 0
M  V30 790 C 77.2941 -0.617247 1.58506 0
M  V30 791 O 78.4791 -0.542931 1.86456 0
M  V30 792 C 75.6091 -0.564793 3.42677 0
M  V30 793 C 74.5631 0.225241 4.27407 0
M  V30 794 C 73.8891 -0.7321 5.29664 0
M  V30 795 C 75.1891 1.43663 5.02154 0
M  V30 796 H 76.8831 1.08728 2.7896 0
M  V30 797 H 74.4291 0.524283 1.34117 0
M  V30 798 H 76.3821 -0.966233 4.10173 0
M  V30 799 H 75.1061 -1.41574 2.9432 0
M  V30 800 H 73.7651 0.608117 3.61521 0
M  V30 801 H 73.4131 -1.57916 4.77568 0
M  V30 802 H 73.1131 -0.20767 5.87233 0
M  V30 803 H 74.6371 -1.13128 6.00029 0
M  V30 804 H 76.0511 1.1089 5.62473 0
M  V30 805 H 74.4481 1.89711 5.69324 0
M  V30 806 H 75.5181 2.21181 4.31517 0
M  V30 807 N 76.8612 -1.46375 0.584142 0
M  V30 808 C 77.8092 -2.32042 -0.161047 0
M  V30 809 C 78.8032 -1.44569 -0.882966 0
M  V30 810 O 80.0092 -1.61186 -0.801191 0
M  V30 811 H 76.3842 -0.748659 -0.0708033 0
M  V30 812 H 78.3552 -2.92704 0.580269 0
M  V30 813 C 77.1042 -3.27762 -1.1605 0
M  V30 814 H 76.4272 -3.95051 -0.614419 0
M  V30 815 H 77.8672 -3.90481 -1.65228 0
M  V30 816 C 76.3262 -2.53218 -2.22221 0
M  V30 817 O 76.8562 -2.29628 -3.29597 0
M  V30 818 N 75.0622 -2.13756 -1.96868 0
M  V30 819 H 74.6092 -2.33142 -1.09557 0
M  V30 820 H 74.5672 -1.642 -2.68115 0
M  V30 821 N 78.3393 -0.321999 -1.54275 0
M  V30 822 C 79.7553 0.0306999 -1.5957 0
M  V30 823 C 79.9553 1.50614 -1.33857 0
M  V30 824 O 79.0113 2.2619 -1.12223 0
M  V30 825 C 80.3243 -0.386122 -2.98211 0
M  V30 826 C 81.8723 -0.336647 -3.11184 0
M  V30 827 C 82.3473 -0.728607 -4.52167 0
M  V30 828 N 83.8383 -0.681952 -4.58152 0
M  V30 829 C 84.5733 -0.957449 -5.6535 0
M  V30 830 N 84.0693 -1.3 -6.80494 0
M  V30 831 N 85.8623 -0.883113 -5.55119 0
M  V30 832 H 78.0133 -1.28332 -1.69247 0
M  V30 833 H 80.2763 -0.521716 -0.791528 0
M  V30 834 H 79.9823 -1.41404 -3.22022 0
M  V30 835 H 79.8563 0.249662 -3.76373 0
M  V30 836 H 82.2433 0.682058 -2.8711 0
M  V30 837 H 82.3243 -1.00734 -2.3513 0
M  V30 838 H 81.9683 -1.74522 -4.76974 0
M  V30 839 H 81.8983 -0.0356152 -5.26588 0
M  V30 840 H 84.3893 -0.428985 -3.75457 0
M  V30 841 H 84.7023 -1.49563 -7.58189 0
M  V30 842 H 83.0473 -1.33824 -6.81994 0
M  V30 843 H 86.2383 -0.615001 -4.64042 0
M  V30 844 H 86.4113 -1.10118 -6.38575 0
M  V30 845 N 79.8174 1.5752 -0.0501392 0
M  V30 846 C 81.2334 1.56631 0.306402 0
M  V30 847 C 81.4334 1.0577 1.71508 0
M  V30 848 O 80.4894 0.713837 2.422 0
M  V30 849 C 81.8024 3.00393 0.135811 0
M  V30 850 C 83.3504 3.12315 0.206993 0
M  V30 851 C 83.8254 4.57954 0.064944 0
M  V30 852 N 85.3164 4.63041 0.121254 0
M  V30 853 C 86.0514 5.73389 0.0354381 0
M  V30 854 N 85.5474 6.92724 -0.102666 0
M  V30 855 N 87.3404 5.62026 0.090946 0
M  V30 856 H 79.4914 1.88903 -0.971046 0
M  V30 857 H 81.7544 0.869876 -0.376855 0
M  V30 858 H 81.4604 3.41635 -0.835384 0
M  V30 859 H 81.3344 3.66373 0.897275 0
M  V30 860 H 83.7214 2.70973 1.16866 0
M  V30 861 H 83.8024 2.49016 -0.585208 0
M  V30 862 H 83.4464 4.99981 -0.893394 0
M  V30 863 H 83.3764 5.19258 0.876277 0
M  V30 864 H 85.8674 3.77216 0.227284 0
M  V30 865 H 86.1804 7.72633 -0.160882 0
M  V30 866 H 84.5254 6.94864 -0.137737 0
M  V30 867 H 87.7164 4.67684 0.197388 0
M  V30 868 H 87.8894 6.47997 0.0206089 0
M  V30 869 N 81.2955 -0.223234 1.56011 0
M  V30 870 C 82.5445 -0.945912 1.78144 0
M  V30 871 C 82.8575 -1.85567 0.618396 0
M  V30 872 O 84.0635 -2.61688 0.723318 0
M  V30 873 C 82.5195 -1.73216 3.15475 0
M  V30 874 C 82.1275 -0.868619 4.39499 0
M  V30 875 C 83.8715 -2.44615 3.46935 0
M  V30 876 C 81.7785 -1.65212 5.67855 0
M  V30 877 H 80.7085 -0.356929 0.664167 0
M  V30 878 H 83.3595 -0.199845 1.82409 0
M  V30 879 H 81.7415 -2.52107 3.05382 0
M  V30 880 H 82.9155 -0.120366 4.60643 0
M  V30 881 H 81.2305 -0.26683 4.15544 0
M  V30 882 H 83.8275 -3.03732 4.40058 0
M  V30 883 H 84.1705 -3.17417 2.69355 0
M  V30 884 H 84.7035 -1.72715 3.58349 0
M  V30 885 H 81.4425 -0.967407 6.48322 0
M  V30 886 H 80.9625 -2.37503 5.50774 0
M  V30 887 H 82.6415 -2.21322 6.07968 0
M  V30 888 N 82.7736 -1.49793 -0.48987 0
M  V30 889 C 83.7056 -1.63413 -1.60713 0
M  V30 890 C 84.7186 -0.516329 -1.54395 0
M  V30 891 O 85.9076 -0.788812 -1.60125 0
M  V30 892 C 83.0076 -1.58516 -2.99543 0
M  V30 893 C 82.1806 -2.86016 -3.30928 0
M  V30 894 C 81.2396 -2.74018 -4.49222 0
M  V30 895 O 80.2656 -3.47964 -4.50455 0
M  V30 896 N 81.4676 -1.86309 -5.4979 0
M  V30 897 H 84.2326 -2.59777 -1.49452 0
M  V30 898 H 81.7936 -1.47022 -0.677955 0
M  V30 899 H 83.7856 -1.48128 -3.76617 0
M  V30 900 H 82.3556 -0.69965 -3.0467 0
M  V30 901 H 81.5756 -3.10672 -2.42645 0
M  V30 902 H 82.8636 -3.70521 -3.487 0
M  V30 903 H 82.2616 -1.2551 -5.51601 0
M  V30 904 H 80.8186 -1.81837 -6.25922 0
M  V30 905 N 84.2517 0.741722 -1.39055 0
M  V30 906 C 85.1817 1.869 -1.39966 0
M  V30 907 C 86.1627 1.6804 -0.26392 0
M  V30 908 O 87.3477 1.88458 -0.468755 0
M  V30 909 C 84.4777 3.24572 -1.23574 0
M  V30 910 C 83.4317 3.58056 -2.34477 0
M  V30 911 C 82.7577 4.94593 -2.0318 0
M  V30 912 C 84.0577 3.61716 -3.76774 0
M  V30 913 H 85.7517 1.86395 -2.34302 0
M  V30 914 H 83.2977 0.895361 -1.1278 0
M  V30 915 H 85.2507 4.031 -1.22834 0
M  V30 916 H 83.9747 3.25587 -0.257045 0
M  V30 917 H 82.6337 2.81854 -2.34423 0
M  V30 918 H 82.2817 4.92181 -1.03765 0
M  V30 919 H 81.9817 5.17964 -2.77465 0
M  V30 920 H 83.5057 5.75486 -2.04079 0
M  V30 921 H 84.9197 4.30335 -3.78794 0
M  V30 922 H 83.3167 3.96603 -4.50362 0
M  V30 923 H 84.3867 2.61672 -4.08235 0
M  V30 924 N 85.7298 1.2412 0.971189 0
M  V30 925 C 86.9758 1.08041 1.71625 0
M  V30 926 C 87.3088 -0.380407 1.90438 0
M  V30 927 O 86.5838 -1.28127 1.46334 0
M  V30 928 C 86.8668 1.81682 3.10908 0
M  V30 929 C 86.7198 3.35493 2.99608 0
M  V30 930 C 88.0388 1.58671 4.10501 0
M  V30 931 H 85.1578 0.39388 0.622919 0
M  V30 932 H 87.7998 1.52743 1.13003 0
M  V30 933 H 85.9498 1.43684 3.60953 0
M  V30 934 H 87.6218 3.83068 2.57015 0
M  V30 935 H 85.8648 3.64052 2.35899 0
M  V30 936 H 86.5358 3.82217 3.98264 0
M  V30 937 H 89.0118 1.91719 3.69301 0
M  V30 938 H 87.8878 2.1266 5.06031 0
M  V30 939 H 88.1488 0.524161 4.38982 0
M  V30 940 N 87.2079 -1.17134 1.05439 0
M  V30 941 C 88.1179 -2.24878 0.668365 0
M  V30 942 C 89.1339 -1.71186 -0.311687 0
M  V30 943 O 90.3099 -2.00738 -0.163161 0
M  V30 944 C 87.3749 -3.46662 0.051648 0
M  V30 945 C 86.4359 -4.15429 1.08246 0
M  V30 946 C 85.6689 -5.31399 0.495082 0
M  V30 947 O 85.8919 -5.66153 -0.694743 0
M  V30 948 O 84.8259 -5.89187 1.23056 0
M  V30 949 H 88.6519 -2.60189 1.56637 0
M  V30 950 H 86.2369 -1.24482 0.826104 0
M  V30 951 H 88.1189 -4.20394 -0.290966 0
M  V30 952 H 86.7939 -3.13142 -0.819971 0
M  V30 953 H 85.7009 -3.43704 1.47711 0
M  V30 954 H 87.0339 -4.52982 1.92532 0
M  V30 955 N 88.686 -0.835752 -1.33615 0
M  V30 956 C 89.596 -0.269088 -2.33052 0
M  V30 957 C 90.612 0.603251 -1.63208 0
M  V30 958 O 91.788 0.508112 -1.94885 0
M  V30 959 C 88.853 0.549091 -3.42324 0
M  V30 960 C 87.914 -0.347156 -4.27894 0
M  V30 961 C 87.147 0.43207 -5.31948 0
M  V30 962 O 87.37 1.66409 -5.45586 0
M  V30 963 O 86.304 -0.192298 -6.01593 0
M  V30 964 H 90.13 -1.09243 -2.83372 0
M  V30 965 H 87.715 -0.598198 -1.36901 0
M  V30 966 H 89.597 1.01414 -4.09015 0
M  V30 967 H 88.272 1.34955 -2.94226 0
M  V30 968 H 87.179 -0.859979 -3.64081 0
M  V30 969 H 88.512 -1.1123 -4.79467 0
M  V30 970 N 90.1641 1.46063 -0.591896 0
M  V30 971 C 91.0741 2.34192 0.13831 0
M  V30 972 C 92.0901 1.50305 0.876608 0
M  V30 973 O 93.2661 1.8315 0.837728 0
M  V30 974 C 90.3311 3.27656 1.13326 0
M  V30 975 C 89.3921 4.27445 0.39863 0
M  V30 976 C 88.6251 5.16443 1.34618 0
M  V30 977 O 88.8481 5.08553 2.58321 0
M  V30 978 O 87.7821 5.95843 0.851768 0
M  V30 979 H 91.6081 2.98002 -0.58552 0
M  V30 980 H 89.1931 1.45188 -0.352239 0
M  V30 981 H 91.0751 3.85291 1.70671 0
M  V30 982 H 89.7501 2.6643 1.83839 0
M  V30 983 H 88.6571 3.73471 -0.216895 0
M  V30 984 H 89.9901 4.91482 -0.265709 0
M  V30 985 N 91.6422 0.330177 1.54103 0
M  V30 986 C 92.5722 -0.525353 2.27513 0
M  V30 987 C 93.5532 -1.11383 1.2856 0
M  V30 988 O 94.7382 -1.13773 1.57383 0
M  V30 989 C 91.8682 -1.6831 3.03791 0
M  V30 990 C 90.8222 -1.2236 4.10137 0
M  V30 991 C 90.1482 -2.46882 4.74293 0
M  V30 992 C 91.4482 -0.333697 5.21233 0
M  V30 993 H 93.1422 0.087013 2.99274 0
M  V30 994 H 90.6882 0.0432893 1.43935 0
M  V30 995 H 92.6412 -2.28795 3.5388 0
M  V30 996 H 91.3652 -2.32216 2.29659 0
M  V30 997 H 90.0242 -0.64165 3.60941 0
M  V30 998 H 89.6722 -3.09165 3.96769 0
M  V30 999 H 89.3722 -2.16825 5.46133 0
M  V30 1000 H 90.8962 -3.08117 5.27159 0
M  V30 1001 H 92.3102 -0.845013 5.67038 0
M  V30 1002 H 90.7072 -0.125612 5.99969 0
M  V30 1003 H 91.7772 0.633724 4.80741 0
M  V30 1004 N 93.1203 -1.57491 0.0584922 0
M  V30 1005 C 94.3973 -1.84346 -0.653918 0
M  V30 1006 C 94.7773 -0.948355 -1.88599 0
M  V30 1007 O 94.1253 -0.0112403 -2.28497 0
M  V30 1008 C 94.3353 -3.34239 -1.00425 0
M  V30 1009 C 95.6833 -4.01431 -1.38342 0
M  V30 1010 O 96.7073 -3.38907 -1.09637 0
M  V30 1011 O 95.5663 -5.11683 -1.91943 0
M  V30 1012 H 92.6603 -0.761112 -0.323478 0
M  V30 1013 H 95.2063 -1.6947 0.0884125 0
M  V30 1014 H 93.9783 -3.91089 -0.128625 0
M  V30 1015 H 93.6013 -3.54329 -1.80378 0
M  V30 1016 N 94.5984 0.214957 -1.56127 0
M  V30 1017 C 96.0144 0.564948 -1.49267 0
M  V30 1018 C 96.2144 1.86827 -0.754838 0
M  V30 1019 O 95.2704 2.50745 -0.297198 0
M  V30 1020 C 96.5834 0.638071 -2.93852 0
M  V30 1021 C 98.1314 0.728253 -3.0441 0
M  V30 1022 C 98.6064 0.832663 -4.50367 0
M  V30 1023 N 100.097 0.896712 -4.54437 0
M  V30 1024 C 100.832 0.997324 -5.6466 0
M  V30 1025 N 100.328 1.06147 -6.8462 0
M  V30 1026 N 102.121 1.03297 -5.52527 0
M  V30 1027 H 94.2724 -0.640211 -2.02522 0
M  V30 1028 H 96.5354 -0.225507 -0.920788 0
M  V30 1029 H 96.2414 -0.250126 -3.50809 0
M  V30 1030 H 96.1154 1.49947 -3.46115 0
M  V30 1031 H 98.5024 1.60689 -2.47514 0
M  V30 1032 H 98.5834 -0.158952 -2.55306 0
M  V30 1033 H 98.2274 -0.0415417 -5.07883 0
M  V30 1034 H 98.1574 1.73538 -4.97184 0
M  V30 1035 H 100.648 0.857188 -3.6805 0
M  V30 1036 H 100.961 1.1382 -7.64372 0
M  V30 1037 H 99.3064 1.03049 -6.87318 0
M  V30 1038 H 102.497 0.979558 -4.57736 0
M  V30 1039 H 102.67 1.10793 -6.38458 0
M  V30 1040 N 96.0765 1.50051 0.48192 0
M  V30 1041 C 97.0395 1.67584 1.5636 0
M  V30 1042 C 98.0395 0.546894 1.51214 0
M  V30 1043 O 99.2295 0.813725 1.54026 0
M  V30 1044 C 96.3615 1.691 2.96003 0
M  V30 1045 H 97.5545 2.64078 1.42136 0
M  V30 1046 H 95.1075 1.39369 0.707533 0
M  V30 1047 H 95.8425 0.742589 3.15684 0
M  V30 1048 H 95.6275 2.51105 3.01146 0
M  V30 1049 H 97.1175 1.84656 3.74556 0
M  V30 1050 N 97.5546 -0.734337 1.39446 0
M  V30 1051 C 98.4866 -1.85861 1.34121 0
M  V30 1052 C 99.4996 -1.60871 0.249864 0
M  V30 1053 O 100.689 -1.71093 0.508865 0
M  V30 1054 C 97.7886 -3.21899 1.05991 0
M  V30 1055 C 96.9616 -3.74239 2.26415 0
M  V30 1056 C 96.0206 -4.88841 1.94733 0
M  V30 1057 O 95.0466 -5.02468 2.67422 0
M  V30 1058 N 96.2486 -5.73261 0.913884 0
M  V30 1059 H 99.0136 -1.90934 2.31007 0
M  V30 1060 H 96.5746 -0.915102 1.33557 0
M  V30 1061 H 98.5666 -3.96136 0.828147 0
M  V30 1062 H 97.1366 -3.12091 0.178361 0
M  V30 1063 H 96.3566 -2.91347 2.65539 0
M  V30 1064 H 97.6446 -4.05942 3.06738 0
M  V30 1065 H 97.0426 -5.64842 0.311476 0
M  V30 1066 H 95.5996 -6.47563 0.742015 0
M  V30 1067 N 99.0327 -1.24633 -0.964593 0
M  V30 1068 C 99.9427 -1.05859 -2.09359 0
M  V30 1069 C 100.959 0.00148855 -1.74 0
M  V30 1070 O 102.135 -0.197346 -2.00431 0
M  V30 1071 C 99.1997 -0.668879 -3.40187 0
M  V30 1072 C 98.2607 -1.80578 -3.89474 0
M  V30 1073 C 97.4937 -1.43457 -5.14058 0
M  V30 1074 O 97.7167 -0.325775 -5.69469 0
M  V30 1075 O 96.6507 -2.2613 -5.57807 0
M  V30 1076 H 100.477 -2.00516 -2.28094 0
M  V30 1077 H 98.0617 -1.03481 -1.0776 0
M  V30 1078 H 99.9437 -0.463211 -4.18846 0
M  V30 1079 H 98.6187 0.248536 -3.22744 0
M  V30 1080 H 97.5257 -2.06623 -3.11862 0
M  V30 1081 H 98.8587 -2.70208 -4.11398 0
M  V30 1082 N 100.511 1.16574 -1.06058 0
M  V30 1083 C 101.927 1.3904 -0.783585 0
M  V30 1084 C 102.127 1.91784 0.618145 0
M  V30 1085 O 101.183 2.11511 1.37911 0
M  V30 1086 C 102.496 2.37329 -1.84649 0
M  V30 1087 C 104.044 2.51018 -1.86973 0
M  V30 1088 C 104.519 3.52588 -2.92311 0
M  V30 1089 N 106.01 3.60113 -2.91329 0
M  V30 1090 C 106.745 4.38486 -3.69482 0
M  V30 1091 N 106.241 5.20302 -4.57447 0
M  V30 1092 N 108.034 4.33446 -3.57885 0
M  V30 1093 H 100.185 0.806725 -1.96483 0
M  V30 1094 H 102.448 0.417117 -0.851303 0
M  V30 1095 H 102.154 2.05663 -2.85299 0
M  V30 1096 H 102.028 3.36946 -1.6955 0
M  V30 1097 H 104.415 2.81989 -0.869827 0
M  V30 1098 H 104.496 1.51445 -2.0615 0
M  V30 1099 H 104.14 3.22354 -3.92492 0
M  V30 1100 H 104.07 4.51886 -2.70383 0
M  V30 1101 H 106.561 3.01707 -2.27555 0
M  V30 1102 H 106.874 5.77311 -5.13743 0
M  V30 1103 H 105.219 5.19653 -4.61503 0
M  V30 1104 H 108.41 3.68586 -2.88551 0
M  V30 1105 H 108.583 4.94279 -4.19037 0
M  V30 1106 N 101.989 0.842826 1.3317 0
M  V30 1107 C 102.919 0.294028 2.31641 0
M  V30 1108 C 103.9 -0.600401 1.59151 0
M  V30 1109 O 105.085 -0.523124 1.87022 0
M  V30 1110 C 102.215 -0.528416 3.43257 0
M  V30 1111 C 101.169 0.27056 4.27144 0
M  V30 1112 C 100.495 -0.675881 5.30411 0
M  V30 1113 C 101.795 1.48981 5.00602 0
M  V30 1114 H 103.489 1.11681 2.77791 0
M  V30 1115 H 101.035 0.538478 1.33553 0
M  V30 1116 H 102.988 -0.922674 4.11175 0
M  V30 1117 H 101.712 -1.38445 2.95805 0
M  V30 1118 H 100.371 0.646427 3.60856 0
M  V30 1119 H 100.019 -1.52842 4.79216 0
M  V30 1120 H 99.7189 -0.145374 5.8742 0
M  V30 1121 H 101.243 -1.06757 6.01195 0
M  V30 1122 H 102.657 1.16849 5.61266 0
M  V30 1123 H 101.054 1.95739 5.6728 0
M  V30 1124 H 102.124 2.25746 4.29147 0
M  V30 1125 N 103.467 -1.45747 0.599634 0
M  V30 1126 C 104.43 -2.28917 -0.113835 0
M  V30 1127 C 105.43 -1.3933 -0.802729 0
M  V30 1128 O 106.62 -1.61534 -0.652103 0
M  V30 1129 C 103.752 -3.20152 -1.17114 0
M  V30 1130 H 104.945 -2.93478 0.617289 0
M  V30 1131 H 102.498 -1.52137 0.358327 0
M  V30 1132 H 103.233 -2.60374 -1.93329 0
M  V30 1133 H 103.018 -3.86133 -0.681468 0
M  V30 1134 H 104.508 -3.82708 -1.67105 0
M  V30 1135 N 104.945 -0.338344 -1.53925 0
M  V30 1136 C 106.173 0.261298 -2.05243 0
M  V30 1137 C 106.588 1.44625 -1.21363 0
M  V30 1138 O 105.945 1.80811 -0.247736 0
M  V30 1139 C 105.996 0.681412 -3.5502 0
M  V30 1140 O 105.717 -0.456414 -4.35716 0
M  V30 1141 C 107.218 1.34232 -4.22489 0
M  V30 1142 H 104.438 0.0513685 -0.669031 0
M  V30 1143 H 106.982 -0.488822 -1.98572 0
M  V30 1144 H 105.137 1.38148 -3.61931 0
M  V30 1145 H 105.551 -0.122564 -5.24357 0
M  V30 1146 H 107.025 1.58708 -5.28693 0
M  V30 1147 H 107.502 2.29426 -3.74514 0
M  V30 1148 H 108.108 0.684424 -4.19757 0
M  V30 1149 N 106.423 1.57458 -0.0668435 0
M  V30 1150 C 107.386 2.11323 0.887422 0
M  V30 1151 C 108.386 1.03618 1.22964 0
M  V30 1152 O 109.576 1.29626 1.16373 0
M  V30 1153 C 106.708 2.61048 2.19242 0
M  V30 1154 H 107.901 2.96942 0.420194 0
M  V30 1155 H 105.454 1.55239 0.181793 0
M  V30 1156 H 106.189 1.78868 2.70512 0
M  V30 1157 H 105.974 3.39769 1.95702 0
M  V30 1158 H 107.464 3.02814 2.87565 0
M  V30 1159 N 107.901 -0.206675 1.56239 0
M  V30 1160 C 108.831 -1.25909 1.96645 0
M  V30 1161 C 109.812 -1.48097 0.836734 0
M  V30 1162 O 110.997 -1.6003 1.10019 0
M  V30 1163 C 108.127 -2.6058 2.29599 0
M  V30 1164 C 107.081 -2.53024 3.452 0
M  V30 1165 C 106.407 -3.91861 3.63798 0
M  V30 1166 C 107.707 -2.06524 4.79734 0
M  V30 1167 H 109.401 -0.923369 2.84806 0
M  V30 1168 H 106.947 -0.442735 1.37025 0
M  V30 1169 H 108.9 -3.34375 2.56459 0
M  V30 1170 H 107.624 -2.95869 1.38307 0
M  V30 1171 H 106.283 -1.81684 3.18412 0
M  V30 1172 H 105.931 -4.24483 2.69857 0
M  V30 1173 H 105.631 -3.87683 4.4156 0
M  V30 1174 H 107.155 -4.67296 3.93022 0
M  V30 1175 H 108.569 -2.70072 5.05702 0
M  V30 1176 H 106.966 -2.13374 5.60885 0
M  V30 1177 H 108.036 -1.01802 4.74093 0
M  V30 1178 N 109.379 -1.50304 -0.473955 0
M  V30 1179 C 110.311 -1.65109 -1.58971 0
M  V30 1180 C 111.324 -0.532676 -1.53839 0
M  V30 1181 O 112.513 -0.805751 -1.59279 0
M  V30 1182 C 109.613 -1.61684 -2.97845 0
M  V30 1183 C 108.786 -2.8951 -3.27876 0
M  V30 1184 C 107.845 -2.78768 -4.4629 0
M  V30 1185 O 106.871 -3.52722 -4.46739 0
M  V30 1186 N 108.073 -1.9213 -5.47783 0
M  V30 1187 H 110.838 -2.61347 -1.46689 0
M  V30 1188 H 108.399 -1.47732 -0.662324 0
M  V30 1189 H 110.391 -1.52114 -3.75024 0
M  V30 1190 H 108.961 -0.731925 -3.03911 0
M  V30 1191 H 108.181 -3.13228 -2.39336 0
M  V30 1192 H 109.469 -3.74199 -3.4475 0
M  V30 1193 H 108.867 -1.31353 -5.50239 0
M  V30 1194 H 107.424 -1.88466 -6.23958 0
M  V30 1195 N 110.857 0.726932 -1.39834 0
M  V30 1196 C 111.804 1.841 -1.39197 0
M  V30 1197 C 112.774 1.642 -0.250502 0
M  V30 1198 O 113.959 1.85494 -0.446846 0
M  V30 1199 C 111.099 3.21697 -1.24919 0
M  V30 1200 C 110.212 3.53247 -2.48678 0
M  V30 1201 C 109.347 4.80289 -2.26928 0
M  V30 1202 C 108.386 5.04707 -3.4632 0
M  V30 1203 N 107.523 6.22956 -3.23836 0
M  V30 1204 H 112.363 1.83979 -2.34427 0
M  V30 1205 H 109.9 0.898876 -1.16442 0
M  V30 1206 H 111.858 4.01137 -1.1465 0
M  V30 1207 H 110.488 3.21076 -0.333153 0
M  V30 1208 H 109.54 2.68447 -2.69519 0
M  V30 1209 H 110.852 3.67205 -3.37582 0
M  V30 1210 H 110.006 5.67725 -2.13947 0
M  V30 1211 H 108.745 4.68519 -1.35431 0
M  V30 1212 H 107.75 4.1573 -3.5979 0
M  V30 1213 H 108.975 5.18357 -4.38729 0
M  V30 1214 H 106.921 6.12459 -2.35011 0
M  V30 1215 H 106.838 6.37539 -4.063 0
M  V30 1216 H 108.106 7.1321 -3.14566 0
M  V30 1217 N 112.336 1.25143 0.95797 0
M  V30 1218 C 113.266 1.07711 2.07173 0
M  V30 1219 C 114.247 -0.0128462 1.70095 0
M  V30 1220 O 115.432 0.156061 1.93572 0
M  V30 1221 C 112.562 0.691503 3.40346 0
M  V30 1222 C 111.516 1.73132 3.9142 0
M  V30 1223 C 110.842 1.20049 5.21049 0
M  V30 1224 C 112.142 3.1294 4.1817 0
M  V30 1225 H 113.836 2.00873 2.22014 0
M  V30 1226 H 111.382 0.967191 1.06684 0
M  V30 1227 H 113.335 0.556505 4.17709 0
M  V30 1228 H 112.059 -0.275819 3.25433 0
M  V30 1229 H 110.718 1.8547 3.16222 0
M  V30 1230 H 110.366 0.223499 5.02503 0
M  V30 1231 H 110.066 1.89545 5.56189 0
M  V30 1232 H 111.59 1.07782 6.01012 0
M  V30 1233 H 113.004 3.03775 4.86203 0
M  V30 1234 H 111.401 3.79875 4.64559 0
M  V30 1235 H 112.471 3.6025 3.24573 0
M  V30 1236 N 113.814 -1.1601 1.06675 0
M  V30 1237 C 114.724 -2.24156 0.692179 0
M  V30 1238 C 115.74 -1.71507 -0.293513 0
M  V30 1239 O 116.916 -2.009 -0.141861 0
M  V30 1240 C 113.981 -3.46587 0.0884131 0
M  V30 1241 C 113.042 -4.14257 1.12646 0
M  V30 1242 C 112.275 -5.30844 0.551416 0
M  V30 1243 O 112.498 -5.66858 -0.634656 0
M  V30 1244 O 111.432 -5.87848 1.29298 0
M  V30 1245 H 115.258 -2.58513 1.59388 0
M  V30 1246 H 112.843 -1.23599 0.83926 0
M  V30 1247 H 114.725 -4.20679 -0.246361 0
M  V30 1248 H 113.4 -3.13994 -0.786712 0
M  V30 1249 H 112.307 -3.42118 1.51348 0
M  V30 1250 H 113.64 -4.50914 1.97325 0
M  V30 1251 N 115.292 -0.849877 -1.32721 0
M  V30 1252 C 116.202 -0.293791 -2.32753 0
M  V30 1253 C 117.218 0.585906 -1.63839 0
M  V30 1254 O 118.394 0.487413 -1.95413 0
M  V30 1255 C 115.459 0.512752 -3.42887 0
M  V30 1256 C 114.52 -0.39252 -4.27502 0
M  V30 1257 C 113.753 0.375625 -5.32377 0
M  V30 1258 O 113.976 1.60613 -5.4732 0
M  V30 1259 O 112.91 -0.256094 -6.01355 0
M  V30 1260 H 116.736 -1.12242 -2.82197 0
M  V30 1261 H 114.321 -0.612685 -1.36259 0
M  V30 1262 H 116.203 0.970704 -4.10067 0
M  V30 1263 H 114.878 1.31826 -2.95641 0
M  V30 1264 H 113.785 -0.898547 -3.63149 0
M  V30 1265 H 115.118 -1.16309 -4.7826 0
M  V30 1266 N 116.77 1.45427 -0.607355 0
M  V30 1267 C 117.733 2.28974 0.101693 0
M  V30 1268 C 118.733 1.39754 0.795329 0
M  V30 1269 O 119.923 1.61878 0.643527 0
M  V30 1270 C 117.055 3.20768 1.15414 0
M  V30 1271 H 118.248 2.93147 -0.632844 0
M  V30 1272 H 115.801 1.51945 -0.366391 0
M  V30 1273 H 116.536 2.61395 1.91945 0
M  V30 1274 H 116.321 3.86489 0.66098 0
M  V30 1275 H 117.811 3.83589 1.65073 0
M  V30 1276 N 118.248 0.346503 1.53744 0
M  V30 1277 C 119.158 -0.517293 2.28826 0
M  V30 1278 C 120.174 -1.10935 1.3405 0
M  V30 1279 O 121.35 -1.1244 1.6709 0
M  V30 1280 C 118.415 -1.65098 3.04866 0
M  V30 1281 C 117.476 -1.0884 4.15274 0
M  V30 1282 C 116.709 -2.16806 4.87679 0
M  V30 1283 O 116.932 -3.3758 4.59778 0
M  V30 1284 O 115.866 -1.80934 5.74061 0
M  V30 1285 H 119.692 0.0931396 3.03557 0
M  V30 1286 H 117.277 0.111458 1.48984 0
M  V30 1287 H 119.159 -2.31053 3.5241 0
M  V30 1288 H 117.834 -2.24717 2.32989 0
M  V30 1289 H 116.741 -0.3933 3.72027 0
M  V30 1290 H 118.074 -0.537036 4.89261 0
M  V30 1291 N 119.726 -1.57421 0.075193 0
M  V30 1292 C 120.673 -2.12915 -0.890843 0
M  V30 1293 C 121.643 -1.04252 -1.29309 0
M  V30 1294 O 122.828 -1.31933 -1.37834 0
M  V30 1295 C 119.968 -2.69795 -2.15186 0
M  V30 1296 C 119.081 -3.92624 -1.80194 0
M  V30 1297 C 118.216 -4.37736 -3.00933 0
M  V30 1298 C 117.255 -5.53205 -2.61974 0
M  V30 1299 N 116.392 -5.9326 -3.75483 0
M  V30 1300 H 121.232 -2.95156 -0.410735 0
M  V30 1301 H 118.769 -1.45854 -0.191086 0
M  V30 1302 H 120.727 -3.00883 -2.89008 0
M  V30 1303 H 119.357 -1.90313 -2.60731 0
M  V30 1304 H 118.409 -3.67977 -0.964218 0
M  V30 1305 H 119.721 -4.76482 -1.47534 0
M  V30 1306 H 118.875 -4.70503 -3.8303 0
M  V30 1307 H 117.614 -3.52739 -3.36789 0
M  V30 1308 H 116.619 -5.20086 -1.783 0
M  V30 1309 H 117.844 -6.39936 -2.27284 0
M  V30 1310 H 115.79 -5.11212 -4.11094 0
M  V30 1311 H 115.707 -6.71865 -3.46602 0
M  V30 1312 H 116.975 -6.30651 -4.58148 0
M  V30 1313 N 121.204 0.198386 -1.56346 0
M  V30 1314 C 122.167 1.22952 -1.93431 0
M  V30 1315 C 123.167 1.38611 -0.815092 0
M  V30 1316 O 124.357 1.36479 -1.08255 0
M  V30 1317 C 121.489 2.59946 -2.20546 0
M  V30 1318 H 122.682 0.912626 -2.85677 0
M  V30 1319 H 120.235 0.43977 -1.49986 0
M  V30 1320 H 120.97 2.96696 -1.30927 0
M  V30 1321 H 120.755 2.49953 -3.02102 0
M  V30 1322 H 122.245 3.3431 -2.50253 0
M  V30 1323 N 122.682 1.50554 0.465978 0
M  V30 1324 C 123.645 1.69233 1.54574 0
M  V30 1325 C 124.645 0.562901 1.50626 0
M  V30 1326 O 125.835 0.830016 1.53155 0
M  V30 1327 C 122.967 1.7223 2.94193 0
M  V30 1328 H 124.16 2.65571 1.39327 0
M  V30 1329 H 121.713 1.40111 0.692711 0
M  V30 1330 H 122.448 0.77603 3.14878 0
M  V30 1331 H 122.233 2.54285 2.98466 0
M  V30 1332 H 123.723 1.88618 3.72576 0
M  V30 1333 N 124.16 -0.719506 1.40217 0
M  V30 1334 C 125.437 -1.47221 1.28784 0
M  V30 1335 C 125.817 -2.10883 -0.0956067 0
M  V30 1336 O 125.165 -1.99833 -1.10811 0
M  V30 1337 C 125.375 -2.5111 2.42373 0
M  V30 1338 C 126.723 -3.17053 2.82423 0
M  V30 1339 O 127.747 -2.61429 2.41937 0
M  V30 1340 O 126.606 -4.17742 3.52355 0
M  V30 1341 H 123.7 -0.654491 0.50554 0
M  V30 1342 H 126.246 -0.752014 1.52128 0
M  V30 1343 H 125.018 -2.02556 3.34793 0
M  V30 1344 H 124.641 -3.3067 2.20778 0
M  V30 1345 N 125.638 -1.25649 -0.95132 0
M  V30 1346 C 126.548 -1.08073 -2.08224 0
M  V30 1347 C 127.564 -0.0169666 -1.73992 0
M  V30 1348 O 128.74 -0.218593 -2.0021 0
M  V30 1349 C 125.805 -0.704922 -3.39458 0
M  V30 1350 C 124.866 -1.84699 -3.87537 0
M  V30 1351 C 124.099 -1.48902 -5.12508 0
M  V30 1352 O 124.322 -0.386156 -5.69091 0
M  V30 1353 O 123.256 -2.32033 -5.55378 0
M  V30 1354 H 127.082 -2.02924 -2.25954 0
M  V30 1355 H 124.667 -1.04618 -1.06656 0
M  V30 1356 H 126.549 -0.507609 -4.18332 0
M  V30 1357 H 125.224 0.214291 -3.2299 0
M  V30 1358 H 124.131 -2.09919 -3.09653 0
M  V30 1359 H 125.464 -2.74557 -4.08509 0
M  V30 1360 N 127.117 1.15442 -1.07289 0
M  V30 1361 C 128.342 1.90638 -0.816828 0
M  V30 1362 C 128.767 1.77445 0.624083 0
M  V30 1363 O 128.125 1.10671 1.43602 0
M  V30 1364 C 128.173 3.39008 -1.22906 0
M  V30 1365 O 127.277 4.10701 -0.373975 0
M  V30 1366 H 126.618 0.593555 -0.297638 0
M  V30 1367 H 129.148 1.46198 -1.43134 0
M  V30 1368 H 129.158 3.89801 -1.20497 0
M  V30 1369 H 127.833 3.47929 -2.27856 0
M  V30 1370 H 126.41 3.70046 -0.460499 0
M  V30 1371 N 128.595 0.856903 1.32268 0
M  V30 1372 C 129.505 0.306131 2.32594 0
M  V30 1373 C 130.521 -0.577209 1.64147 0
M  V30 1374 O 131.697 -0.477043 1.95669 0
M  V30 1375 C 128.762 -0.494561 3.43154 0
M  V30 1376 C 127.823 0.415186 4.27288 0
M  V30 1377 C 127.056 -0.347387 5.32568 0
M  V30 1378 O 127.279 -1.57708 5.48165 0
M  V30 1379 O 126.213 0.287982 6.01211 0
M  V30 1380 H 130.039 1.13737 2.81598 0
M  V30 1381 H 127.624 0.619902 1.35932 0
M  V30 1382 H 129.506 -0.948944 4.10576 0
M  V30 1383 H 128.181 -1.30257 2.96336 0
M  V30 1384 H 127.088 0.917793 3.62667 0
M  V30 1385 H 128.421 1.18844 4.77637 0
M  V30 1386 N 130.073 -1.45103 0.615059 0
M  V30 1387 C 131.489 -1.57137 0.279322 0
M  V30 1388 C 131.689 -1.60523 -1.21797 0
M  V30 1389 O 130.745 -1.53956 -2.00134 0
M  V30 1390 C 132.058 -2.85062 0.957083 0
M  V30 1391 C 133.606 -2.98749 0.933706 0
M  V30 1392 C 134.081 -4.29455 1.59162 0
M  V30 1393 N 135.572 -4.36231 1.55746 0
M  V30 1394 C 136.307 -5.36051 2.0356 0
M  V30 1395 N 135.803 -6.42367 2.59494 0
M  V30 1396 N 137.596 -5.27456 1.94284 0
M  V30 1397 H 129.747 -1.41148 1.58717 0
M  V30 1398 H 132.01 -0.675331 0.665306 0
M  V30 1399 H 131.716 -2.88488 2.01166 0
M  V30 1400 H 131.59 -3.7407 0.48494 0
M  V30 1401 H 133.977 -2.94886 -0.112347 0
M  V30 1402 H 134.058 -2.11132 1.44419 0
M  V30 1403 H 133.702 -4.34077 2.63704 0
M  V30 1404 H 133.632 -5.15901 1.0561 0
M  V30 1405 H 136.123 -3.60011 1.14893 0
M  V30 1406 H 136.436 -7.14793 2.93752 0
M  V30 1407 H 134.781 -6.43097 2.63537 0
M  V30 1408 H 137.972 -4.43308 1.5032 0
M  V30 1409 H 138.145 -6.05099 2.3186 0
M  V30 1410 N 131.551 -0.354651 -1.53558 0
M  V30 1411 C 132.799 0.237972 -2.00694 0
M  V30 1412 C 133.12 1.50173 -1.24391 0
M  V30 1413 O 132.39 1.92673 -0.354135 0
M  V30 1414 H 130.97 0.0909256 -0.741446 0
M  V30 1415 H 133.632 -0.478368 -1.88938 0
M  V30 1416 H 132.728 0.47264 -3.085 0
M  V30 1417 N 133.029 1.57378 -0.0835403 0
M  V30 1418 C 133.962 2.09016 0.915833 0
M  V30 1419 C 134.94 0.997993 1.2837 0
M  V30 1420 O 136.124 1.27219 1.39096 0
M  V30 1421 C 133.251 2.55757 2.22049 0
M  V30 1422 C 132.297 3.76522 2.00333 0
M  V30 1423 S 133.13 5.20661 1.25191 0
M  V30 1424 C 134.286 5.70743 2.56912 0
M  V30 1425 H 134.519 2.93457 0.476492 0
M  V30 1426 H 132.052 1.53856 0.129493 0
M  V30 1427 H 134.01 2.83346 2.97027 0
M  V30 1428 H 132.671 1.71564 2.63106 0
M  V30 1429 H 131.864 4.07256 2.96916 0
M  V30 1430 H 131.466 3.49367 1.33488 0
M  V30 1431 H 133.758 5.78304 3.52946 0
M  V30 1432 H 134.701 6.6944 2.30772 0
M  V30 1433 H 135.109 4.98616 2.64655 0
M  V30 1434 N 134.507 -0.190092 1.56449 0
M  V30 1435 C 135.454 -1.23557 1.94942 0
M  V30 1436 C 136.424 -1.44972 0.810696 0
M  V30 1437 O 137.609 -1.58023 1.06927 0
M  V30 1438 C 134.749 -2.57416 2.2985 0
M  V30 1439 C 133.862 -2.43537 3.5681 0
M  V30 1440 C 132.997 -3.70134 3.81017 0
M  V30 1441 C 132.036 -3.51109 5.01387 0
M  V30 1442 N 131.173 -4.6973 5.21822 0
M  V30 1443 H 136.013 -0.900304 2.84075 0
M  V30 1444 H 133.55 -0.43318 1.40577 0
M  V30 1445 H 135.508 -3.35409 2.48106 0
M  V30 1446 H 134.138 -2.88975 1.43852 0
M  V30 1447 H 133.19 -1.56816 3.46573 0
M  V30 1448 H 134.502 -2.25415 4.4496 0
M  V30 1449 H 133.656 -4.56566 3.9954 0
M  V30 1450 H 132.395 -3.91215 2.91207 0
M  V30 1451 H 131.4 -2.63063 4.82782 0
M  V30 1452 H 132.625 -3.31468 5.9271 0
M  V30 1453 H 130.571 -4.91065 4.34961 0
M  V30 1454 H 130.488 -4.54452 6.0416 0
M  V30 1455 H 131.756 -5.57499 5.44808 0
M  V30 1456 N 135.985 -1.50799 -0.457987 0
M  V30 1457 C 137.231 -1.62683 -1.21088 0
M  V30 1458 C 137.564 -0.332268 -1.91336 0
M  V30 1459 O 136.839 0.667043 -1.82704 0
M  V30 1460 C 137.122 -2.81615 -2.24422 0
M  V30 1461 C 136.975 -4.20989 -1.58392 0
M  V30 1462 C 138.294 -2.96085 -3.2561 0
M  V30 1463 H 135.413 -0.592087 -0.438864 0
M  V30 1464 H 138.055 -1.83225 -0.50286 0
M  V30 1465 H 136.205 -2.64231 -2.84806 0
M  V30 1466 H 137.877 -4.49994 -1.01504 0
M  V30 1467 H 136.12 -4.24641 -0.886704 0
M  V30 1468 H 136.791 -5.0016 -2.33547 0
M  V30 1469 H 139.267 -3.12042 -2.75262 0
M  V30 1470 H 138.143 -3.80902 -3.95228 0
M  V30 1471 H 138.404 -2.0726 -3.90507 0
M  V30 1472 N 137.463 0.71206 -1.40597 0
M  V30 1473 C 138.712 1.46754 -1.38369 0
M  V30 1474 C 139.025 1.95598 0.0097839 0
M  V30 1475 O 140.231 2.71059 0.154677 0
M  V30 1476 C 138.687 2.65289 -2.43207 0
M  V30 1477 C 138.295 2.23301 -3.88382 0
M  V30 1478 C 140.039 3.43008 -2.50091 0
M  V30 1479 C 137.946 3.38696 -4.84808 0
M  V30 1480 H 136.876 0.55118 -0.514506 0
M  V30 1481 H 139.527 0.774616 -1.66349 0
M  V30 1482 H 137.909 3.36769 -2.08332 0
M  V30 1483 H 139.083 1.59218 -4.32419 0
M  V30 1484 H 137.398 1.58618 -3.85006 0
M  V30 1485 H 139.995 4.28881 -3.1932 0
M  V30 1486 H 140.338 3.87065 -1.53253 0
M  V30 1487 H 140.871 2.78574 -2.83974 0
M  V30 1488 H 137.61 2.99668 -5.82992 0
M  V30 1489 H 137.13 4.01683 -4.45433 0
M  V30 1490 H 138.809 4.04712 -5.04794 0
M  V30 1491 N 138.941 1.26152 0.944643 0
M  V30 1492 C 139.851 1.09176 2.07648 0
M  V30 1493 C 140.867 0.0261935 1.7398 0
M  V30 1494 O 142.043 0.229208 2.00091 0
M  V30 1495 C 139.108 0.722915 3.39079 0
M  V30 1496 C 138.169 1.86752 3.86552 0
M  V30 1497 C 137.402 1.51617 5.11711 0
M  V30 1498 O 137.625 0.416331 5.68879 0
M  V30 1499 O 136.559 2.34975 5.54139 0
M  V30 1500 H 140.385 2.0412 2.24875 0
M  V30 1501 H 137.97 1.05182 1.061 0
M  V30 1502 H 139.852 0.529787 4.18056 0
M  V30 1503 H 138.527 -0.197159 3.23099 0
M  V30 1504 H 137.434 2.11558 3.08535 0
M  V30 1505 H 138.767 2.76719 4.07047 0
M  V30 1506 N 140.419 -1.14872 1.07899 0
M  V30 1507 C 141.367 -2.21857 0.698727 0
M  V30 1508 C 142.361 -1.66845 -0.293086 0
M  V30 1509 O 143.567 -1.79321 -0.156204 0
M  V30 1510 H 139.942 -0.722691 0.207899 0
M  V30 1511 H 141.913 -2.51205 1.61054 0
M  V30 1512 C 140.662 -3.47498 0.11858 0
M  V30 1513 H 139.985 -3.90154 0.872914 0
M  V30 1514 H 141.425 -4.23858 -0.109759 0
M  V30 1515 C 139.884 -3.16947 -1.1422 0
M  V30 1516 O 140.414 -3.3426 -2.22785 0
M  V30 1517 N 138.62 -2.70946 -1.05055 0
M  V30 1518 H 138.167 -2.57058 -0.167038 0
M  V30 1519 H 138.125 -2.50879 -1.89491 0
M  V30 1520 N 141.898 -0.863906 -1.31812 0
M  V30 1521 C 143.314 -0.555004 -1.49639 0
M  V30 1522 C 143.514 0.912266 -1.79666 0
M  V30 1523 O 142.57 1.69479 -1.87171 0
M  V30 1524 C 143.883 -1.44998 -2.63431 0
M  V30 1525 C 145.431 -1.45138 -2.77316 0
M  V30 1526 C 145.906 -2.33179 -3.94197 0
M  V30 1527 N 147.397 -2.31025 -4.01474 0
M  V30 1528 C 148.132 -2.95871 -4.9117 0
M  V30 1529 N 147.628 -3.69863 -5.8581 0
M  V30 1530 N 149.421 -2.85211 -4.84367 0
M  V30 1531 H 141.572 -1.81339 -1.10589 0
M  V30 1532 H 143.835 -0.77505 -0.545895 0
M  V30 1533 H 143.541 -2.49377 -2.48 0
M  V30 1534 H 143.415 -1.14409 -3.59431 0
M  V30 1535 H 145.802 -0.415201 -2.92164 0
M  V30 1536 H 145.883 -1.79747 -1.82001 0
M  V30 1537 H 145.527 -3.3687 -3.80107 0
M  V30 1538 H 145.457 -1.95897 -4.88807 0
M  V30 1539 H 147.948 -1.77238 -3.33759 0
M  V30 1540 H 148.261 -4.16486 -6.50968 0
M  V30 1541 H 146.606 -3.73971 -5.85808 0
M  V30 1542 H 149.797 -2.26948 -4.09405 0
M  V30 1543 H 149.97 -3.36027 -5.54066 0
M  V30 1544 N 143.376 1.44774 -0.622745 0
M  V30 1545 C 144.339 2.29069 0.0774015 0
M  V30 1546 C 145.339 1.4059 0.780461 0
M  V30 1547 O 146.529 1.62551 0.626322 0
M  V30 1548 C 143.661 3.21974 1.12006 0
M  V30 1549 H 144.854 2.92459 -0.663901 0
M  V30 1550 H 142.407 1.51548 -0.382486 0
M  V30 1551 H 143.142 2.63417 1.89162 0
M  V30 1552 H 142.927 3.87168 0.619951 0
M  V30 1553 H 144.417 3.85318 1.60995 0
M  V30 1554 N 144.854 0.36279 1.53368 0
M  V30 1555 C 145.787 -0.528507 2.21996 0
M  V30 1556 C 146.765 -1.0852 1.21087 0
M  V30 1557 O 147.949 -1.14186 1.4998 0
M  V30 1558 C 145.076 -1.72893 2.91249 0
M  V30 1559 C 144.122 -1.29994 4.06207 0
M  V30 1560 S 144.955 -0.303575 5.34639 0
M  V30 1561 C 146.111 -1.51039 6.07403 0
M  V30 1562 H 146.344 0.0543423 2.9725 0
M  V30 1563 H 143.877 0.146889 1.537 0
M  V30 1564 H 145.835 -2.41751 3.31763 0
M  V30 1565 H 144.496 -2.28303 2.15724 0
M  V30 1566 H 143.689 -2.19549 4.53667 0
M  V30 1567 H 143.291 -0.690608 3.67569 0
M  V30 1568 H 145.583 -2.44186 6.31965 0
M  V30 1569 H 146.526 -1.07721 6.99858 0
M  V30 1570 H 146.934 -1.71518 5.37812 0
M  V30 1571 N 146.332 -1.57332 0.0918853 0
M  V30 1572 C 147.279 -2.13847 -0.868211 0
M  V30 1573 C 148.249 -1.05618 -1.28196 0
M  V30 1574 O 149.434 -1.33387 -1.36427 0
M  V30 1575 C 146.574 -2.72062 -2.12312 0
M  V30 1576 C 145.687 -3.94514 -1.7602 0
M  V30 1577 C 144.822 -4.40903 -2.96273 0
M  V30 1578 C 143.861 -5.55953 -2.56092 0
M  V30 1579 N 142.998 -5.97209 -3.69169 0
M  V30 1580 H 147.838 -2.95575 -0.379406 0
M  V30 1581 H 145.375 -1.46048 -0.175606 0
M  V30 1582 H 147.333 -3.03931 -2.858 0
M  V30 1583 H 145.963 -1.93068 -2.58698 0
M  V30 1584 H 145.015 -3.68979 -0.925135 0
M  V30 1585 H 146.327 -4.7802 -1.42472 0
M  V30 1586 H 145.481 -4.74539 -3.78018 0
M  V30 1587 H 144.22 -3.56291 -3.33029 0
M  V30 1588 H 143.225 -5.21948 -1.72773 0
M  V30 1589 H 144.45 -6.42311 -2.20484 0
M  V30 1590 H 142.396 -5.15543 -4.05649 0
M  V30 1591 H 142.313 -6.75504 -3.39456 0
M  V30 1592 H 143.581 -6.35475 -4.51434 0
M  V30 1593 N 147.81 0.181792 -1.56548 0
M  V30 1594 C 149.087 0.926765 -1.72251 0
M  V30 1595 C 149.467 2.00831 -0.650386 0
M  V30 1596 O 148.815 2.26008 0.336521 0
M  V30 1597 C 149.025 1.50106 -3.1507 0
M  V30 1598 C 150.373 1.97805 -3.75711 0
M  V30 1599 O 151.397 1.59922 -3.18282 0
M  V30 1600 O 150.256 2.67555 -4.76525 0
M  V30 1601 H 147.35 0.435506 -0.703039 0
M  V30 1602 H 149.896 0.170443 -1.68842 0
M  V30 1603 H 148.668 0.72212 -3.84579 0
M  V30 1604 H 148.291 2.32186 -3.22763 0
M  V30 1605 N 149.288 1.51039 0.449983 0
M  V30 1606 C 150.198 1.74261 1.57067 0
M  V30 1607 C 151.214 0.626363 1.62335 0
M  V30 1608 O 152.39 0.907162 1.79812 0
M  V30 1609 C 149.455 1.85114 2.93144 0
M  V30 1610 C 148.516 3.0893 2.98095 0
M  V30 1611 C 147.749 3.19256 4.27681 0
M  V30 1612 O 147.972 2.35835 5.19363 0
M  V30 1613 O 146.906 4.12144 4.38658 0
M  V30 1614 H 150.732 2.69303 1.40391 0
M  V30 1615 H 148.317 1.35389 0.631688 0
M  V30 1616 H 150.199 1.94311 3.73926 0
M  V30 1617 H 148.874 0.932588 3.09975 0
M  V30 1618 H 147.781 3.0522 2.16314 0
M  V30 1619 H 149.114 4.00433 2.86206 0
M  V30 1620 N 150.766 -0.704594 1.40972 0
M  V30 1621 C 151.676 -1.84856 1.44448 0
M  V30 1622 C 152.692 -1.70726 0.335961 0
M  V30 1623 O 153.868 -1.92799 0.582276 0
M  V30 1624 C 150.933 -3.20758 1.31587 0
M  V30 1625 C 149.994 -3.47063 2.52677 0
M  V30 1626 C 149.227 -4.76481 2.4042 0
M  V30 1627 O 149.45 -5.52341 1.42391 0
M  V30 1628 O 148.384 -5.03367 3.30007 0
M  V30 1629 H 152.21 -1.8488 2.40942 0
M  V30 1630 H 149.795 -0.85647 1.22413 0
M  V30 1631 H 151.677 -4.01913 1.26665 0
M  V30 1632 H 150.352 -3.21438 0.382049 0
M  V30 1633 H 149.259 -2.65873 2.63177 0
M  V30 1634 H 150.592 -3.5119 3.44858 0
M  V30 1635 N 152.244 -1.26651 -0.937939 0
M  V30 1636 C 153.191 -1.0849 -2.03712 0
M  V30 1637 C 154.161 0.011033 -1.66096 0
M  V30 1638 O 155.346 -0.149353 -1.90215 0
M  V30 1639 C 152.486 -0.72735 -3.37348 0
M  V30 1640 C 151.599 -1.89986 -3.87981 0
M  V30 1641 C 150.734 -1.48513 -5.10017 0
M  V30 1642 C 149.773 -2.62575 -5.5292 0
M  V30 1643 N 148.91 -2.21762 -6.66158 0
M  V30 1644 H 153.75 -2.02551 -2.18579 0
M  V30 1645 H 151.287 -1.00844 -1.07093 0
M  V30 1646 H 153.245 -0.50092 -4.14182 0
M  V30 1647 H 151.875 0.176298 -3.22318 0
M  V30 1648 H 150.927 -2.23913 -3.07518 0
M  V30 1649 H 152.239 -2.75586 -4.15757 0
M  V30 1650 H 151.393 -1.21934 -5.94321 0
M  V30 1651 H 150.132 -0.60009 -4.83994 0
M  V30 1652 H 149.137 -2.8988 -4.67172 0
M  V30 1653 H 150.362 -3.51685 -5.80943 0
M  V30 1654 H 148.308 -1.35696 -6.41812 0
M  V30 1655 H 148.225 -3.00903 -6.93537 0
M  V30 1656 H 149.493 -1.98403 -7.53828 0
M  V30 1657 N 153.722 1.14298 -1.08507 0
M  V30 1658 C 154.655 2.18447 -0.660004 0
M  V30 1659 C 155.633 1.59242 0.328749 0
M  V30 1660 O 156.817 1.87062 0.232367 0
M  V30 1661 C 153.944 3.38688 0.0290807 0
M  V30 1662 C 152.99 4.1646 -0.919982 0
M  V30 1663 S 153.823 4.77334 -2.42718 0
M  V30 1664 C 154.979 6.00931 -1.75024 0
M  V30 1665 H 155.212 2.54166 -1.54231 0
M  V30 1666 H 152.745 1.25446 -0.900149 0
M  V30 1667 H 154.703 4.08342 0.420378 0
M  V30 1668 H 153.364 3.01289 0.887895 0
M  V30 1669 H 152.557 5.02529 -0.384751 0
M  V30 1670 H 152.159 3.52414 -1.25223 0
M  V30 1671 H 154.451 6.69017 -1.06877 0
M  V30 1672 H 155.394 6.59044 -2.58971 0
M  V30 1673 H 155.802 5.51089 -1.22317 0
M  V30 1674 N 155.201 0.870884 1.31352 0
M  V30 1675 C 156.111 0.330783 2.32256 0
M  V30 1676 C 157.127 -0.559767 1.6475 0
M  V30 1677 O 158.303 -0.456263 1.96164 0
M  V30 1678 C 155.368 -0.458137 3.4366 0
M  V30 1679 C 154.429 0.460482 4.26823 0
M  V30 1680 C 153.662 -0.290881 5.32907 0
M  V30 1681 O 153.885 -1.51885 5.49806 0
M  V30 1682 O 152.819 0.351732 6.00871 0
M  V30 1683 H 156.645 1.16718 2.80376 0
M  V30 1684 H 154.23 0.634285 1.35267 0
M  V30 1685 H 156.112 -0.905343 4.1156 0
M  V30 1686 H 154.787 -1.27106 2.97701 0
M  V30 1687 H 153.694 0.956207 3.61673 0
M  V30 1688 H 155.027 1.23903 4.7635 0
M  V30 1689 N 156.679 -1.44442 0.630414 0
M  V30 1690 C 157.928 -2.01267 0.132073 0
M  V30 1691 C 158.241 -1.50172 -1.25331 0
M  V30 1692 O 159.447 -1.9912 -1.84562 0
M  V30 1693 C 157.903 -3.59422 0.185362 0
M  V30 1694 C 157.511 -4.19514 1.57201 0
M  V30 1695 C 159.255 -4.23724 -0.256553 0
M  V30 1696 C 157.162 -5.69891 1.58045 0
M  V30 1697 H 156.092 -0.752619 0.0456092 0
M  V30 1698 H 158.743 -1.65666 0.789106 0
M  V30 1699 H 157.125 -3.92318 -0.538759 0
M  V30 1700 H 158.299 -3.98156 2.31966 0
M  V30 1701 H 156.614 -3.67496 1.95795 0
M  V30 1702 H 159.211 -5.34019 -0.269767 0
M  V30 1703 H 159.554 -3.96013 -1.28372 0
M  V30 1704 H 160.087 -3.95629 0.41505 0
M  V30 1705 H 156.826 -6.02336 2.58597 0
M  V30 1706 H 156.346 -5.93373 0.875725 0
M  V30 1707 H 158.025 -6.33515 1.31408 0
M  V30 1708 N 158.157 -0.370918 -1.53173 0
M  V30 1709 C 159.089 0.507823 -2.23503 0
M  V30 1710 C 160.102 1.04182 -1.251 0
M  V30 1711 O 161.291 0.947286 -1.5129 0
M  V30 1712 C 158.391 1.71447 -2.92334 0
M  V30 1713 C 157.564 1.31105 -4.17289 0
M  V30 1714 C 156.623 2.38035 -4.69282 0
M  V30 1715 O 155.649 2.00204 -5.32829 0
M  V30 1716 N 156.851 3.69697 -4.47554 0
M  V30 1717 H 159.616 -0.0946382 -2.99551 0
M  V30 1718 H 157.177 -0.196358 -1.60705 0
M  V30 1719 H 159.169 2.42469 -3.24023 0
M  V30 1720 H 157.739 2.22368 -2.19707 0
M  V30 1721 H 156.959 0.430462 -3.91843 0
M  V30 1722 H 158.247 1.0179 -4.98514 0
M  V30 1723 H 157.645 4.03205 -3.9679 0
M  V30 1724 H 156.202 4.36807 -4.8378 0
M  V30 1725 N 159.635 1.57281 -0.100228 0
M  V30 1726 C 160.545 2.17833 0.870965 0
M  V30 1727 C 161.561 1.14921 1.30649 0
M  V30 1728 O 162.737 1.47313 1.37335 0
M  V30 1729 C 159.802 2.75085 2.1102 0
M  V30 1730 C 158.863 3.9297 1.72838 0
M  V30 1731 C 158.096 4.47482 2.90854 0
M  V30 1732 O 158.319 4.00922 4.05731 0
M  V30 1733 O 157.253 5.38433 2.69023 0
M  V30 1734 H 161.079 3.0124 0.38575 0
M  V30 1735 H 158.664 1.48881 0.124397 0
M  V30 1736 H 160.546 3.11656 2.83634 0
M  V30 1737 H 159.221 1.94721 2.58584 0
M  V30 1738 H 158.128 3.61201 0.973883 0
M  V30 1739 H 159.461 4.74713 1.30033 0
M  V30 1740 N 161.113 -0.173488 1.56642 0
M  V30 1741 C 162.046 -1.24353 1.91342 0
M  V30 1742 C 163.024 -1.4289 0.775965 0
M  V30 1743 O 164.208 -1.57932 1.02907 0
M  V30 1744 C 161.335 -2.60683 2.16245 0
M  V30 1745 C 160.381 -2.58894 3.38934 0
M  V30 1746 S 161.214 -2.0819 4.93373 0
M  V30 1747 C 162.37 -3.46302 5.21369 0
M  V30 1748 H 162.603 -0.947345 2.81803 0
M  V30 1749 H 160.136 -0.377958 1.49703 0
M  V30 1750 H 162.094 -3.39149 2.31275 0
M  V30 1751 H 160.755 -2.87502 1.26496 0
M  V30 1752 H 159.948 -3.59188 3.53553 0
M  V30 1753 H 159.55 -1.88522 3.2301 0
M  V30 1754 H 161.842 -4.42287 5.13214 0
M  V30 1755 H 162.785 -3.3656 6.23003 0
M  V30 1756 H 163.193 -3.42214 4.48943 0
M  V30 1757 N 162.591 -1.51276 -0.441967 0
M  V30 1758 C 163.523 -1.68444 -1.55433 0
M  V30 1759 C 164.536 -0.565187 -1.52674 0
M  V30 1760 O 165.725 -0.839356 -1.57534 0
M  V30 1761 C 162.825 -1.67966 -2.94348 0
M  V30 1762 C 161.998 -2.964 -3.21661 0
M  V30 1763 C 161.057 -2.88171 -4.40277 0
M  V30 1764 O 160.083 -3.62119 -4.39157 0
M  V30 1765 N 161.285 -2.03706 -5.43584 0
M  V30 1766 H 164.05 -2.644 -1.41112 0
M  V30 1767 H 161.611 -1.49104 -0.630838 0
M  V30 1768 H 163.603 -1.60035 -3.71713 0
M  V30 1769 H 162.173 -0.796225 -3.0229 0
M  V30 1770 H 161.393 -3.18234 -2.32638 0
M  V30 1771 H 162.681 -3.81427 -3.36736 0
M  V30 1772 H 162.079 -1.42995 -5.47329 0
M  V30 1773 H 160.636 -2.01658 -6.1982 0
M  V30 1774 N 164.069 0.697108 -1.41344 0
M  V30 1775 C 164.999 1.82353 -1.45841 0
M  V30 1776 C 165.98 1.67115 -0.317247 0
M  V30 1777 O 167.165 1.86871 -0.528474 0
M  V30 1778 C 164.295 3.20476 -1.33838 0
M  V30 1779 C 163.249 3.50415 -2.4575 0
M  V30 1780 C 162.575 4.87878 -2.18813 0
M  V30 1781 C 163.875 3.49546 -3.88091 0
M  V30 1782 H 165.569 1.78846 -2.40113 0
M  V30 1783 H 163.115 0.859028 -1.15571 0
M  V30 1784 H 165.068 3.98988 -1.35596 0
M  V30 1785 H 163.792 3.24604 -0.360498 0
M  V30 1786 H 162.451 2.74253 -2.43271 0
M  V30 1787 H 162.099 4.8863 -1.19371 0
M  V30 1788 H 161.799 5.08875 -2.93803 0
M  V30 1789 H 163.323 5.68702 -2.22284 0
M  V30 1790 H 164.737 4.18066 -3.92293 0
M  V30 1791 H 163.134 3.82075 -4.62751 0
M  V30 1792 H 164.204 2.48552 -4.16353 0
M  V30 1793 N 165.547 1.27147 0.931209 0
M  V30 1794 C 166.494 1.09568 2.03134 0
M  V30 1795 C 167.464 -0.00222433 1.661 0
M  V30 1796 O 168.649 0.159439 1.90133 0
M  V30 1797 C 165.789 0.745231 3.36957 0
M  V30 1798 C 164.902 1.92041 3.86968 0
M  V30 1799 C 164.037 1.51216 5.09222 0
M  V30 1800 C 163.076 2.65504 5.5152 0
M  V30 1801 N 162.213 2.25291 6.64972 0
M  V30 1802 H 167.053 2.03708 2.17502 0
M  V30 1803 H 164.59 1.01411 1.06556 0
M  V30 1804 H 166.548 0.522878 4.1391 0
M  V30 1805 H 165.178 -0.159202 3.22407 0
M  V30 1806 H 164.23 2.25541 3.06326 0
M  V30 1807 H 165.542 2.77787 4.1429 0
M  V30 1808 H 164.696 1.25084 5.93666 0
M  V30 1809 H 163.435 0.625749 4.83669 0
M  V30 1810 H 162.44 2.92354 4.65628 0
M  V30 1811 H 163.665 3.54761 5.7907 0
M  V30 1812 H 161.611 1.39098 6.41083 0
M  V30 1813 H 161.528 3.04577 6.91931 0
M  V30 1814 H 162.796 2.02398 7.52765 0
M  V30 1815 N 167.025 -1.13721 1.09112 0
M  V30 1816 C 167.935 -2.22638 0.73957 0
M  V30 1817 C 168.951 -1.72091 -0.257068 0
M  V30 1818 O 170.127 -2.01155 -0.0992154 0
M  V30 1819 C 167.192 -3.46322 0.16191 0
M  V30 1820 C 166.253 -4.11775 1.21408 0
M  V30 1821 C 165.486 -5.29555 0.663891 0
M  V30 1822 O 165.709 -5.68077 -0.514274 0
M  V30 1823 O 164.643 -5.84973 1.41738 0
M  V30 1824 H 168.469 -2.55074 1.64836 0
M  V30 1825 H 166.054 -1.21791 0.865289 0
M  V30 1826 H 167.936 -4.21107 -0.157073 0
M  V30 1827 H 166.611 -3.15593 -0.719932 0
M  V30 1828 H 165.518 -3.3883 1.58571 0
M  V30 1829 H 166.851 -4.46627 2.06845 0
M  V30 1830 N 168.503 -0.877838 -1.30888 0
M  V30 1831 C 169.466 -0.344265 -2.266 0
M  V30 1832 C 170.466 0.50922 -1.52524 0
M  V30 1833 O 171.656 0.317398 -1.71284 0
M  V30 1834 C 168.788 0.510198 -3.37061 0
M  V30 1835 H 169.981 -1.1893 -2.7531 0
M  V30 1836 H 167.534 -0.654088 -1.41956 0
M  V30 1837 H 168.269 1.37612 -2.93655 0
M  V30 1838 H 168.054 -0.101047 -3.9197 0
M  V30 1839 H 169.544 0.875537 -4.08319 0
M  V30 1840 N 169.982 1.44106 -0.638065 0
M  V30 1841 C 170.929 2.30715 0.062701 0
M  V30 1842 C 171.899 1.43882 0.829883 0
M  V30 1843 O 173.084 1.72775 0.809532 0
M  V30 1844 C 170.224 3.29258 1.03358 0
M  V30 1845 C 169.337 4.31192 0.26409 0
M  V30 1846 C 168.472 5.16825 1.22741 0
M  V30 1847 C 167.511 6.10462 0.447475 0
M  V30 1848 N 166.648 6.8877 1.36161 0
M  V30 1849 H 171.488 2.90096 -0.681781 0
M  V30 1850 H 169.025 1.42925 -0.347988 0
M  V30 1851 H 170.983 3.84886 1.60992 0
M  V30 1852 H 169.613 2.71562 1.74511 0
M  V30 1853 H 168.665 3.77981 -0.428295 0
M  V30 1854 H 169.977 4.97619 -0.343052 0
M  V30 1855 H 169.131 5.77004 1.87487 0
M  V30 1856 H 167.87 4.50488 1.86847 0
M  V30 1857 H 166.875 5.49386 -0.213433 0
M  V30 1858 H 168.1 6.78837 -0.188968 0
M  V30 1859 H 166.046 6.25096 1.98975 0
M  V30 1860 H 165.963 7.51663 0.808656 0
M  V30 1861 H 167.231 7.53467 1.99769 0
M  V30 1862 N 171.46 0.379036 1.52974 0
M  V30 1863 C 172.41 -0.477772 2.22938 0
M  V30 1864 C 173.394 -1.03792 1.22948 0
M  V30 1865 O 174.586 -0.965725 1.48333 0
M  V30 1866 C 171.715 -1.60994 3.03209 0
M  V30 1867 C 170.801 -1.06203 4.10587 0
M  V30 1868 N 171.192 -0.238214 5.05239 0
M  V30 1869 C 169.49 -1.33554 4.25534 0
M  V30 1870 C 170.191 0.0633235 5.81666 0
M  V30 1871 N 169.167 -0.537901 5.40932 0
M  V30 1872 H 172.969 0.158295 2.93473 0
M  V30 1873 H 170.483 0.187778 1.61311 0
M  V30 1874 H 172.48 -2.23607 3.5186 0
M  V30 1875 H 171.14 -2.24893 2.34207 0
M  V30 1876 H 172.151 0.123695 5.17752 0
M  V30 1877 H 168.828 -1.97632 3.6776 0
M  V30 1878 H 170.218 0.730161 6.67921 0
M  V30 1879 N 172.938 -1.57226 0.108567 0
M  V30 1880 C 174.187 -1.94008 -0.551703 0
M  V30 1881 C 174.5 -0.993442 -1.68494 0
M  V30 1882 O 175.706 -1.25551 -2.40726 0
M  V30 1883 C 174.162 -3.44763 -1.03279 0
M  V30 1884 C 173.77 -4.47943 0.0714193 0
M  V30 1885 C 175.514 -3.90483 -1.66503 0
M  V30 1886 C 173.421 -5.89865 -0.425779 0
M  V30 1887 H 172.351 -0.724206 -0.209863 0
M  V30 1888 H 175.002 -1.82547 0.186741 0
M  V30 1889 H 173.384 -3.51422 -1.82533 0
M  V30 1890 H 174.558 -4.52942 0.847365 0
M  V30 1891 H 172.873 -4.11913 0.609669 0
M  V30 1892 H 175.47 -4.93925 -2.04798 0
M  V30 1893 H 175.813 -3.29877 -2.53942 0
M  V30 1894 H 176.346 -3.86581 -0.938074 0
M  V30 1895 H 173.085 -6.54202 0.412316 0
M  V30 1896 H 172.605 -5.88309 -1.16843 0
M  V30 1897 H 174.284 -6.40844 -0.890397 0
M  V30 1898 N 174.416 0.165178 -1.56732 0
M  V30 1899 C 175.379 1.18822 -1.95995 0
M  V30 1900 C 176.379 1.3685 -0.84431 0
M  V30 1901 O 177.569 1.34152 -1.11126 0
M  V30 1902 C 174.701 2.5521 -2.26011 0
M  V30 1903 H 175.894 0.851825 -2.87548 0
M  V30 1904 H 173.447 0.407857 -1.50885 0
M  V30 1905 H 174.182 2.93852 -1.37191 0
M  V30 1906 H 173.967 2.43489 -3.07336 0
M  V30 1907 H 175.457 3.28927 -2.57288 0
M  V30 1908 N 175.894 1.51508 0.433938 0
M  V30 1909 C 176.804 1.75917 1.5521 0
M  V30 1910 C 177.82 0.643545 1.61662 0
M  V30 1911 O 178.996 0.926183 1.7884 0
M  V30 1912 C 176.061 1.88213 2.91164 0
M  V30 1913 C 175.122 3.12074 2.94802 0
M  V30 1914 C 174.355 3.23774 4.24271 0
M  V30 1915 O 174.578 2.4133 5.16833 0
M  V30 1916 O 173.512 4.16774 4.34262 0
M  V30 1917 H 177.338 2.70777 1.37527 0
M  V30 1918 H 174.923 1.36051 0.617293 0
M  V30 1919 H 176.805 1.98267 3.71845 0
M  V30 1920 H 175.48 0.965413 3.08968 0
M  V30 1921 H 174.387 3.07497 2.13065 0
M  V30 1922 H 175.72 4.03446 2.81943 0
M  V30 1923 N 177.372 -0.689602 1.41712 0
M  V30 1924 C 178.282 -1.83314 1.46401 0
M  V30 1925 C 179.298 -1.7036 0.35405 0
M  V30 1926 O 180.474 -1.92171 0.602692 0
M  V30 1927 C 177.539 -3.19344 1.34982 0
M  V30 1928 C 176.6 -3.44363 2.56344 0
M  V30 1929 C 175.833 -4.73904 2.45461 0
M  V30 1930 O 176.056 -5.508 1.48241 0
M  V30 1931 O 174.99 -4.99839 3.35328 0
M  V30 1932 H 178.816 -1.82314 2.42889 0
M  V30 1933 H 176.401 -0.843438 1.23315 0
M  V30 1934 H 178.283 -4.00547 1.3092 0
M  V30 1935 H 176.958 -3.21014 0.41612 0
M  V30 1936 H 175.865 -2.63067 2.65982 0
M  V30 1937 H 177.198 -3.47512 3.48563 0
M  V30 1938 N 178.85 -1.27639 -0.924453 0
M  V30 1939 C 179.813 -1.10681 -2.00705 0
M  V30 1940 C 180.813 -0.0497823 -1.60723 0
M  V30 1941 O 182.003 -0.294654 -1.7169 0
M  V30 1942 C 179.135 -0.687164 -3.33902 0
M  V30 1943 H 180.328 -2.06817 -2.17179 0
M  V30 1944 H 177.881 -1.10473 -1.10569 0
M  V30 1945 H 178.616 0.275439 -3.23128 0
M  V30 1946 H 178.401 -1.45061 -3.6428 0
M  V30 1947 H 179.891 -0.590853 -4.13399 0
M  V30 1948 N 180.328 1.1314 -1.09713 0
M  V30 1949 C 181.605 1.80762 -0.747302 0
M  V30 1950 C 181.985 1.96663 0.767265 0
M  V30 1951 O 181.333 1.53706 1.69076 0
M  V30 1952 C 181.543 3.15606 -1.48975 0
M  V30 1953 C 182.891 3.90914 -1.65746 0
M  V30 1954 O 183.915 3.25239 -1.45251 0
M  V30 1955 O 182.774 5.08718 -1.9967 0
M  V30 1956 H 179.868 0.782103 -0.268782 0
M  V30 1957 H 182.414 1.20041 -1.19951 0
M  V30 1958 H 181.186 2.99278 -2.52088 0
M  V30 1959 H 180.809 3.84029 -1.02991 0
M  V30 1960 N 181.806 0.884767 1.30421 0
M  V30 1961 C 183.222 0.57874 1.48737 0
M  V30 1962 C 183.422 -0.883567 1.81095 0
M  V30 1963 O 182.478 -1.6648 1.89844 0
M  V30 1964 C 183.791 1.49171 2.61091 0
M  V30 1965 C 185.339 1.49532 2.74971 0
M  V30 1966 C 185.814 2.39421 3.90438 0
M  V30 1967 N 187.305 2.37383 3.97748 0
M  V30 1968 C 188.04 3.03647 4.86401 0
M  V30 1969 N 187.536 3.79136 5.79852 0
M  V30 1970 N 189.329 2.9288 4.79768 0
M  V30 1971 H 181.48 1.83075 1.0769 0
M  V30 1972 H 183.743 0.783637 0.533495 0
M  V30 1973 H 183.449 2.53291 2.44001 0
M  V30 1974 H 183.323 1.20113 3.57565 0
M  V30 1975 H 185.71 0.46163 2.91467 0
M  V30 1976 H 185.791 1.8262 1.79119 0
M  V30 1977 H 185.435 3.42874 3.74699 0
M  V30 1978 H 185.365 2.03649 4.85628 0
M  V30 1979 H 187.856 1.82525 3.30897 0
M  V30 1980 H 188.169 4.26789 6.4426 0
M  V30 1981 H 186.514 3.83243 5.79784 0
M  V30 1982 H 189.705 2.33433 4.05742 0
M  V30 1983 H 189.878 3.448 5.4865 0
M  V30 1984 N 183.284 -1.43765 0.645699 0
M  V30 1985 C 184.231 -2.30745 -0.0504648 0
M  V30 1986 C 185.201 -1.4432 -0.822241 0
M  V30 1987 O 186.386 -1.73202 -0.800358 0
M  V30 1988 C 183.526 -3.29802 -1.0161 0
M  V30 1989 C 182.639 -4.31326 -0.241219 0
M  V30 1990 C 181.774 -5.17469 -1.19998 0
M  V30 1991 C 180.813 -6.10691 -0.415094 0
M  V30 1992 N 179.95 -6.89483 -1.32506 0
M  V30 1993 H 184.79 -2.8973 0.697155 0
M  V30 1994 H 182.327 -1.42738 0.355563 0
M  V30 1995 H 184.285 -3.85734 -1.58949 0
M  V30 1996 H 182.915 -2.72483 -1.73069 0
M  V30 1997 H 181.967 -3.77749 0.448334 0
M  V30 1998 H 183.279 -4.9743 0.369437 0
M  V30 1999 H 182.433 -5.7799 -1.84424 0
M  V30 2000 H 181.172 -4.51473 -1.84455 0
M  V30 2001 H 180.177 -5.49265 0.242565 0
M  V30 2002 H 181.402 -6.78727 0.224966 0
M  V30 2003 H 179.348 -6.26142 -1.95657 0
M  V30 2004 H 179.265 -7.52081 -0.768783 0
M  V30 2005 H 180.533 -7.54516 -1.9577 0
M  V30 2006 N 184.763 -0.387143 -1.52771 0
M  V30 2007 C 185.993 0.195585 -2.05672 0
M  V30 2008 C 186.401 1.41241 -1.25887 0
M  V30 2009 O 185.744 1.81265 -0.298081 0
M  V30 2010 C 185.806 0.632327 -3.53895 0
M  V30 2011 C 185.47 -0.470739 -4.54569 0
M  V30 2012 C 186.467 -1.32746 -5.02667 0
M  V30 2013 C 184.152 -0.637151 -4.98243 0
M  V30 2014 C 186.146 -2.33574 -5.93061 0
M  V30 2015 C 183.833 -1.64877 -5.88438 0
M  V30 2016 C 184.831 -2.49649 -6.35739 0
M  V30 2017 O 184.519 -3.49082 -7.24153 0
M  V30 2018 H 184.251 0.033658 -0.675162 0
M  V30 2019 H 186.805 -0.550221 -1.97893 0
M  V30 2020 H 185.035 1.43008 -3.59285 0
M  V30 2021 H 186.724 1.14048 -3.89548 0
M  V30 2022 H 187.49 -1.21019 -4.69659 0
M  V30 2023 H 183.369 0.0129567 -4.60998 0
M  V30 2024 H 186.913 -2.99777 -6.29904 0
M  V30 2025 H 182.81 -1.76643 -6.2086 0
M  V30 2026 H 183.578 -3.45065 -7.42208 0
M  V30 2027 N 186.241 1.57166 -0.116904 0
M  V30 2028 C 187.151 2.18745 0.847812 0
M  V30 2029 C 188.167 1.163 1.29423 0
M  V30 2030 O 189.343 1.48761 1.35765 0
M  V30 2031 C 186.408 2.77307 2.0809 0
M  V30 2032 C 185.469 3.94781 1.68661 0
M  V30 2033 C 184.702 4.50541 2.86091 0
M  V30 2034 O 184.925 4.05202 4.01456 0
M  V30 2035 O 183.859 5.41256 2.63298 0
M  V30 2036 H 187.685 3.01632 0.353778 0
M  V30 2037 H 185.27 1.49005 0.108599 0
M  V30 2038 H 187.152 3.14647 2.80313 0
M  V30 2039 H 185.827 1.97452 2.56504 0
M  V30 2040 H 184.734 3.62214 0.935518 0
M  V30 2041 H 186.067 4.76065 1.24991 0
M  V30 2042 N 187.719 -0.156864 1.56817 0
M  V30 2043 C 188.629 -1.2136 2.00771 0
M  V30 2044 C 189.645 -1.47598 0.921459 0
M  V30 2045 O 190.821 -1.59462 1.2302 0
M  V30 2046 C 187.886 -2.52943 2.37109 0
M  V30 2047 C 186.947 -2.34439 3.59634 0
M  V30 2048 C 186.18 -3.59748 3.94229 0
M  V30 2049 O 186.403 -4.65526 3.29609 0
M  V30 2050 O 185.337 -3.52998 4.8752 0
M  V30 2051 H 189.163 -0.870468 2.90958 0
M  V30 2052 H 186.748 -0.36484 1.44877 0
M  V30 2053 H 188.63 -3.30538 2.61386 0
M  V30 2054 H 187.305 -2.86806 1.5008 0
M  V30 2055 H 186.212 -1.54828 3.40557 0
M  V30 2056 H 187.545 -2.05496 4.4725 0
M  V30 2057 N 189.197 -1.51736 -0.425897 0
M  V30 2058 C 190.443 -1.65214 -1.1761 0
M  V30 2059 C 190.776 -0.372778 -1.90589 0
M  V30 2060 O 190.051 0.628139 -1.84078 0
M  V30 2061 C 190.334 -2.86312 -2.18398 0
M  V30 2062 C 190.187 -4.24254 -1.49426 0
M  V30 2063 C 191.506 -3.02925 -3.19256 0
M  V30 2064 H 188.625 -0.601263 -0.426206 0
M  V30 2065 H 191.267 -1.8425 -0.463882 0
M  V30 2066 H 189.417 -2.70213 -2.79137 0
M  V30 2067 H 191.089 -4.52046 -0.919362 0
M  V30 2068 H 189.332 -4.26426 -0.796432 0
M  V30 2069 H 190.003 -5.05001 -2.22885 0
M  V30 2070 H 192.479 -3.1781 -2.68581 0
M  V30 2071 H 191.355 -3.89199 -3.8706 0
M  V30 2072 H 191.616 -2.15497 -3.86023 0
M  V30 2073 N 190.675 0.682077 -1.42076 0
M  V30 2074 C 191.638 1.77756 -1.44691 0
M  V30 2075 C 192.638 1.5726 -0.335535 0
M  V30 2076 O 193.828 1.63686 -0.596037 0
M  V30 2077 C 190.96 3.16301 -1.27146 0
M  V30 2078 H 192.153 1.76826 -2.42224 0
M  V30 2079 H 189.706 0.891012 -1.28416 0
M  V30 2080 H 190.441 3.22862 -0.305075 0
M  V30 2081 H 190.226 3.32581 -2.07683 0
M  V30 2082 H 191.716 3.96241 -1.31843 0
M  V30 2083 N 192.153 1.28127 0.917671 0
M  V30 2084 C 193.569 1.05749 1.19538 0
M  V30 2085 C 193.769 -0.202633 2.00479 0
M  V30 2086 O 192.825 -0.905382 2.3571 0
M  V30 2087 C 194.138 2.30273 1.93378 0
M  V30 2088 C 195.686 2.35412 2.06277 0
M  V30 2089 C 196.161 3.59692 2.83524 0
M  V30 2090 N 197.652 3.60309 2.91087 0
M  V30 2091 C 198.387 4.53147 3.51348 0
M  V30 2092 N 197.883 5.563 4.12919 0
M  V30 2093 N 199.676 4.40751 3.48849 0
M  V30 2094 H 191.827 2.09024 0.377184 0
M  V30 2095 H 194.09 0.919798 0.22951 0
M  V30 2096 H 193.796 3.22055 1.41328 0
M  V30 2097 H 193.67 2.36378 2.93947 0
M  V30 2098 H 196.057 1.4413 2.57508 0
M  V30 2099 H 196.138 2.33304 1.04895 0
M  V30 2100 H 195.782 4.51316 2.32973 0
M  V30 2101 H 195.712 3.59054 3.85211 0
M  V30 2102 H 198.203 2.85714 2.47338 0
M  V30 2103 H 198.516 6.2329 4.56869 0
M  V30 2104 H 196.861 5.60131 4.11435 0
M  V30 2105 H 200.052 3.59367 2.99955 0
M  V30 2106 H 200.225 5.13291 3.9552 0
M  V30 2107 N 193.631 -1.12557 1.10312 0
M  V30 2108 C 194.578 -2.18247 0.750781 0
M  V30 2109 C 195.548 -1.63853 -0.272293 0
M  V30 2110 O 196.733 -1.90195 -0.151862 0
M  V30 2111 C 193.873 -3.44591 0.187379 0
M  V30 2112 C 192.986 -4.13046 1.2656 0
M  V30 2113 C 192.121 -5.27034 0.663978 0
M  V30 2114 C 191.16 -5.87353 1.72287 0
M  V30 2115 N 190.297 -6.92757 1.1416 0
M  V30 2116 H 195.137 -2.47732 1.65628 0
M  V30 2117 H 192.674 -1.21629 0.827337 0
M  V30 2118 H 194.632 -4.16904 -0.157148 0
M  V30 2119 H 193.262 -3.15527 -0.681355 0
M  V30 2120 H 192.314 -3.38924 1.72727 0
M  V30 2121 H 193.626 -4.53947 2.06721 0
M  V30 2122 H 192.78 -6.06104 0.268824 0
M  V30 2123 H 191.519 -4.87407 -0.169082 0
M  V30 2124 H 190.524 -5.06971 2.12746 0
M  V30 2125 H 191.749 -6.29051 2.55875 0
M  V30 2126 H 189.695 -6.5517 0.329984 0
M  V30 2127 H 189.612 -7.3225 1.88007 0
M  V30 2128 H 190.88 -7.75658 0.772956 0
M  V30 2129 N 195.109 -0.891671 -1.2995 0
M  V30 2130 C 196.039 -0.379797 -2.30391 0
M  V30 2131 C 197.02 0.540919 -1.6127 0
M  V30 2132 O 198.205 0.453352 -1.88834 0
M  V30 2133 C 195.335 0.400654 -3.44981 0
M  V30 2134 C 194.289 -0.428905 -4.25846 0
M  V30 2135 C 193.615 0.478557 -5.32554 0
M  V30 2136 C 194.915 -1.67458 -4.94727 0
M  V30 2137 H 196.609 -1.21914 -2.73454 0
M  V30 2138 H 194.155 -0.587675 -1.31462 0
M  V30 2139 H 196.108 0.769434 -4.14316 0
M  V30 2140 H 194.832 1.27371 -3.0074 0
M  V30 2141 H 193.491 -0.779911 -3.58208 0
M  V30 2142 H 193.139 1.34951 -4.84559 0
M  V30 2143 H 192.839 -0.0727433 -5.87555 0
M  V30 2144 H 194.363 0.843705 -6.04743 0
M  V30 2145 H 195.777 -1.376 -5.56542 0
M  V30 2146 H 194.174 -2.16659 -5.59624 0
M  V30 2147 H 195.244 -2.41518 -4.20473 0
M  V30 2148 N 196.587 1.43421 -0.653314 0
M  V30 2149 C 197.833 2.02111 -0.166992 0
M  V30 2150 C 198.166 1.51423 1.21592 0
M  V30 2151 O 197.441 0.707389 1.8118 0
M  V30 2152 C 197.724 3.5966 -0.177948 0
M  V30 2153 C 197.577 4.20579 -1.59478 0
M  V30 2154 C 198.896 4.37413 0.4856 0
M  V30 2155 H 196.015 0.734374 -0.0621557 0
M  V30 2156 H 198.657 1.70717 -0.834016 0
M  V30 2157 H 196.807 3.86537 0.390032 0
M  V30 2158 H 198.479 4.04732 -2.21336 0
M  V30 2159 H 196.722 3.77226 -2.14204 0
M  V30 2160 H 197.393 5.29665 -1.5543 0
M  V30 2161 H 199.869 4.161 0.00234528 0
M  V30 2162 H 198.745 5.47075 0.447207 0
M  V30 2163 H 199.006 4.13672 1.55974 0
M  V30 2164 N 198.065 0.39524 1.52563 0
M  V30 2165 C 199.314 -0.186321 2.00838 0
M  V30 2166 C 199.627 -1.47402 1.28577 0
M  V30 2167 O 200.833 -2.13599 1.67593 0
M  V30 2168 C 199.289 -0.382595 3.57861 0
M  V30 2169 C 198.897 0.892202 4.39026 0
M  V30 2170 C 200.641 -0.9202 4.14406 0
M  V30 2171 C 198.548 0.66388 5.87662 0
M  V30 2172 H 197.478 -0.0734041 0.750418 0
M  V30 2173 H 200.129 0.518552 1.76021 0
M  V30 2174 H 198.511 -1.14946 3.7895 0
M  V30 2175 H 199.685 1.66414 4.29701 0
M  V30 2176 H 198 1.35519 3.9373 0
M  V30 2177 H 200.597 -1.10683 5.23119 0
M  V30 2178 H 200.94 -1.89096 3.70875 0
M  V30 2179 H 201.473 -0.212751 3.97231 0
M  V30 2180 H 198.212 1.6058 6.35527 0
M  V30 2181 H 197.732 -0.0690193 5.9976 0
M  V30 2182 H 199.411 0.300699 6.46301 0
M  V30 2183 N 199.544 -1.57102 0.125237 0
M  V30 2184 C 200.474 -2.18659 -0.819174 0
M  V30 2185 C 201.455 -1.12843 -1.27281 0
M  V30 2186 O 202.64 -1.41104 -1.33429 0
M  V30 2187 C 199.77 -2.79096 -2.06695 0
M  V30 2188 C 198.724 -3.90548 -1.75088 0
M  V30 2189 C 198.05 -4.37821 -3.06948 0
M  V30 2190 C 199.35 -5.12356 -1.01435 0
M  V30 2191 H 201.044 -2.9783 -0.306202 0
M  V30 2192 H 198.59 -1.4326 -0.145839 0
M  V30 2193 H 200.543 -3.2082 -2.73226 0
M  V30 2194 H 199.267 -1.97223 -2.60328 0
M  V30 2195 H 197.926 -3.49409 -1.10944 0
M  V30 2196 H 197.574 -3.52799 -3.58527 0
M  V30 2197 H 197.274 -5.12982 -2.86571 0
M  V30 2198 H 198.798 -4.822 -3.74587 0
M  V30 2199 H 200.212 -5.5106 -1.58132 0
M  V30 2200 H 198.609 -5.9314 -0.911319 0
M  V30 2201 H 199.679 -4.849 -0.00218681 0
M  V30 2202 N 201.022 0.148545 -1.56898 0
M  V30 2203 C 201.932 1.20293 -2.01412 0
M  V30 2204 C 202.948 1.47107 -0.929273 0
M  V30 2205 O 204.124 1.58807 -1.23863 0
M  V30 2206 C 201.189 2.51682 -2.38447 0
M  V30 2207 C 200.25 2.32529 -3.60872 0
M  V30 2208 C 199.483 3.57653 -3.96132 0
M  V30 2209 O 199.706 4.63771 -3.32073 0
M  V30 2210 O 198.64 3.50408 -4.89385 0
M  V30 2211 H 202.466 0.855025 -2.91416 0
M  V30 2212 H 200.051 0.357151 -1.45068 0
M  V30 2213 H 201.933 3.29147 -2.63135 0
M  V30 2214 H 200.608 2.86006 -1.51599 0
M  V30 2215 H 199.515 1.53019 -3.41373 0
M  V30 2216 H 200.848 2.03121 -4.48333 0
M  V30 2217 N 202.5 1.5196 0.417844 0
M  V30 2218 C 203.748 1.65263 1.16329 0
M  V30 2219 C 204.069 0.380634 1.91249 0
M  V30 2220 O 203.339 -0.604214 1.86349 0
M  V30 2221 H 201.919 0.60912 0.432414 0
M  V30 2222 H 204.581 1.88969 0.477162 0
M  V30 2223 H 203.677 2.4896 1.88217 0
M  V30 2224 N 203.978 -0.674533 1.42435 0
M  V30 2225 C 204.888 -1.81751 1.48337 0
M  V30 2226 C 205.904 -1.69975 0.372099 0
M  V30 2227 O 207.08 -1.91521 0.62304 0
M  V30 2228 C 204.145 -3.17895 1.38361 0
M  V30 2229 C 203.206 -3.41625 2.59982 0
M  V30 2230 C 202.439 -4.71274 2.50473 0
M  V30 2231 O 202.662 -5.49197 1.54075 0
M  V30 2232 O 201.596 -4.96254 3.4061 0
M  V30 2233 H 205.422 -1.79728 2.44809 0
M  V30 2234 H 203.007 -0.830312 1.24202 0
M  V30 2235 H 204.889 -3.99136 1.35161 0
M  V30 2236 H 203.564 -3.20555 0.450144 0
M  V30 2237 H 202.471 -2.60231 2.68757 0
M  V30 2238 H 203.804 -3.43796 3.52229 0
M  V30 2239 N 205.456 -1.28612 -0.910864 0
M  V30 2240 C 206.386 -1.15326 -2.03032 0
M  V30 2241 C 207.367 -0.0502924 -1.70026 0
M  V30 2242 O 208.552 -0.227797 -1.92859 0
M  V30 2243 C 205.682 -0.817343 -3.37545 0
M  V30 2244 C 204.636 -1.8754 -3.84724 0
M  V30 2245 C 203.962 -1.39305 -5.16235 0
M  V30 2246 C 205.262 -3.28244 -4.06267 0
M  V30 2247 H 206.956 -2.08975 -2.14406 0
M  V30 2248 H 204.502 -1.00612 -1.03021 0
M  V30 2249 H 206.455 -0.711151 -4.15356 0
M  V30 2250 H 205.179 0.154846 -3.26233 0
M  V30 2251 H 203.838 -1.97079 -3.09121 0
M  V30 2252 H 203.486 -0.409846 -5.01328 0
M  V30 2253 H 203.186 -2.10057 -5.48771 0
M  V30 2254 H 204.71 -1.30014 -5.96598 0
M  V30 2255 H 206.124 -3.21611 -4.74594 0
M  V30 2256 H 204.521 -3.96855 -4.5014 0
M  V30 2257 H 205.591 -3.72048 -3.10979 0
M  V30 2258 N 206.934 1.1197 -1.10907 0
M  V30 2259 C 207.844 2.21433 -0.774896 0
M  V30 2260 C 208.86 1.72478 0.229657 0
M  V30 2261 O 210.036 2.01288 0.0672008 0
M  V30 2262 C 207.101 3.4602 -0.216986 0
M  V30 2263 C 206.162 4.09791 -1.27944 0
M  V30 2264 C 205.395 5.28431 -0.748055 0
M  V30 2265 O 205.618 5.68823 0.423833 0
M  V30 2266 O 204.552 5.82644 -1.51027 0
M  V30 2267 H 208.378 2.5242 -1.68873 0
M  V30 2268 H 205.963 1.20399 -0.884555 0
M  V30 2269 H 207.845 4.21304 0.090059 0
M  V30 2270 H 206.52 3.16698 0.669633 0
M  V30 2271 H 205.427 3.36265 -1.63941 0
M  V30 2272 H 206.76 4.4328 -2.13925 0
M  V30 2273 N 208.412 0.89855 1.29475 0
M  V30 2274 C 209.828 0.594483 1.48115 0
M  V30 2275 C 210.028 -0.86431 1.82022 0
M  V30 2276 O 209.084 -1.64457 1.91599 0
M  V30 2277 C 210.397 1.51932 2.59494 0
M  V30 2278 C 211.945 1.5244 2.7337 0
M  V30 2279 C 212.42 2.43548 3.87877 0
M  V30 2280 N 213.911 2.41589 3.95208 0
M  V30 2281 C 214.646 3.08789 4.83153 0
M  V30 2282 N 214.142 3.85265 5.75798 0
M  V30 2283 N 215.935 2.97952 4.76635 0
M  V30 2284 H 208.086 1.84207 1.05742 0
M  V30 2285 H 210.349 0.789251 0.525154 0
M  V30 2286 H 210.055 2.55865 2.41301 0
M  V30 2287 H 209.929 1.23899 3.56271 0
M  V30 2288 H 212.316 0.492518 2.90961 0
M  V30 2289 H 212.397 1.8451 1.77172 0
M  V30 2290 H 212.041 3.46829 3.71041 0
M  V30 2291 H 211.971 2.08788 4.83441 0
M  V30 2292 H 214.462 1.86025 3.28943 0
M  V30 2293 H 214.775 4.33598 6.39697 0
M  V30 2294 H 213.12 3.89371 5.75687 0
M  V30 2295 H 216.311 2.37723 4.03244 0
M  V30 2296 H 216.484 3.50599 5.44962 0
M  V30 2297 N 209.89 -1.43072 0.660911 0
M  V30 2298 C 210.853 -2.29194 -0.0166406 0
M  V30 2299 C 211.853 -1.42609 -0.742912 0
M  V30 2300 O 213.043 -1.64155 -0.583004 0
M  V30 2301 C 210.175 -3.24831 -1.0343 0
M  V30 2302 H 211.368 -2.90596 0.741208 0
M  V30 2303 H 208.921 -1.5048 0.422532 0
M  V30 2304 H 209.656 -2.68339 -1.82111 0
M  V30 2305 H 209.441 -3.88676 -0.517082 0
M  V30 2306 H 210.931 -3.89451 -1.50723 0
M  V30 2307 N 211.368 -0.403325 -1.52352 0
M  V30 2308 C 212.278 0.432009 -2.30588 0
M  V30 2309 C 213.294 1.05884 -1.38075 0
M  V30 2310 O 214.47 1.06161 -1.71148 0
M  V30 2311 C 211.535 1.53669 -3.10784 0
M  V30 2312 C 210.596 0.933525 -4.19027 0
M  V30 2313 C 209.829 1.98557 -4.9539 0
M  V30 2314 O 210.052 3.20283 -4.71991 0
M  V30 2315 O 208.986 1.59504 -5.80381 0
M  V30 2316 H 212.812 -0.205739 -3.03002 0
M  V30 2317 H 210.397 -0.166675 -1.48467 0
M  V30 2318 H 212.279 2.17814 -3.60742 0
M  V30 2319 H 210.954 2.15915 -2.41169 0
M  V30 2320 H 209.861 0.254954 -3.7323 0
M  V30 2321 H 211.194 0.35508 -4.90918 0
M  V30 2322 N 212.846 1.57033 -0.133567 0
M  V30 2323 C 213.756 2.19632 0.824564 0
M  V30 2324 C 214.772 1.17666 1.28182 0
M  V30 2325 O 215.948 1.50193 1.3418 0
M  V30 2326 C 213.013 2.79499 2.05137 0
M  V30 2327 C 212.074 3.96548 1.64464 0
M  V30 2328 C 211.307 4.5355 2.81297 0
M  V30 2329 O 211.53 4.09438 3.97136 0
M  V30 2330 O 210.464 5.44018 2.57542 0
M  V30 2331 H 214.29 3.01991 0.321766 0
M  V30 2332 H 211.875 1.49112 0.0927889 0
M  V30 2333 H 213.757 3.17602 2.7696 0
M  V30 2334 H 212.432 2.00162 2.54395 0
M  V30 2335 H 211.339 3.63186 0.897048 0
M  V30 2336 H 212.672 4.77364 1.19934 0
M  V30 2337 N 214.325 -0.140222 1.56975 0
M  V30 2338 C 215.741 -0.493088 1.51792 0
M  V30 2339 C 215.941 -1.83013 0.843116 0
M  V30 2340 O 214.997 -2.49041 0.416493 0
M  V30 2341 C 216.31 -0.497144 2.96562 0
M  V30 2342 C 217.858 -0.582186 3.07538 0
M  V30 2343 C 218.333 -0.616838 4.53827 0
M  V30 2344 N 219.824 -0.678873 4.58198 0
M  V30 2345 C 220.559 -0.726782 5.68775 0
M  V30 2346 N 220.055 -0.733623 6.88905 0
M  V30 2347 N 221.848 -0.768179 5.56826 0
M  V30 2348 H 213.999 0.736108 1.99237 0
M  V30 2349 H 216.262 0.269182 0.90898 0
M  V30 2350 H 215.968 0.417217 3.49217 0
M  V30 2351 H 215.842 -1.33263 3.52875 0
M  V30 2352 H 218.229 -1.48697 2.54899 0
M  V30 2353 H 218.31 0.280581 2.54257 0
M  V30 2354 H 217.954 0.283812 5.07106 0
M  V30 2355 H 217.884 -1.49619 5.04898 0
M  V30 2356 H 220.375 -0.68061 3.7172 0
M  V30 2357 H 220.688 -0.772215 7.68932 0
M  V30 2358 H 219.033 -0.701389 6.91452 0
M  V30 2359 H 222.224 -0.760051 4.61888 0
M  V30 2360 H 222.397 -0.80205 6.43017 0
M  V30 2361 N 215.803 -1.52179 -0.40978 0
M  V30 2362 C 216.766 -1.74853 -1.48186 0
M  V30 2363 C 217.766 -0.618417 -1.48433 0
M  V30 2364 O 218.956 -0.886286 -1.49969 0
M  V30 2365 C 216.088 -1.8303 -2.87598 0
M  V30 2366 H 217.281 -2.70559 -1.29374 0
M  V30 2367 H 214.834 -1.42586 -0.640233 0
M  V30 2368 H 215.569 -0.89236 -3.11781 0
M  V30 2369 H 215.354 -2.65187 -2.88822 0
M  V30 2370 H 216.844 -2.02316 -3.65319 0
M  V30 2371 N 217.281 0.66697 -1.42791 0
M  V30 2372 C 218.191 1.80962 -1.49299 0
M  V30 2373 C 219.207 1.69775 -0.381108 0
M  V30 2374 O 220.383 1.91188 -0.633188 0
M  V30 2375 C 217.448 3.17156 -1.40045 0
M  V30 2376 C 216.509 3.40242 -2.6179 0
M  V30 2377 C 215.742 4.69939 -2.52969 0
M  V30 2378 O 215.965 5.48372 -1.56985 0
M  V30 2379 O 214.899 4.94441 -3.43237 0
M  V30 2380 H 218.725 1.78427 -2.45759 0
M  V30 2381 H 216.31 0.823713 -1.24641 0
M  V30 2382 H 218.192 3.98413 -1.37276 0
M  V30 2383 H 216.867 3.20312 -0.467138 0
M  V30 2384 H 215.774 2.58802 -2.70134 0
M  V30 2385 H 217.107 3.41923 -3.54047 0
M  V30 2386 N 218.759 1.29093 0.90403 0
M  V30 2387 C 220.005 1.16986 1.65656 0
M  V30 2388 C 220.338 -0.278925 1.92186 0
M  V30 2389 O 219.613 -1.2019 1.5292 0
M  V30 2390 C 219.896 1.97908 3.0084 0
M  V30 2391 C 219.749 3.50903 2.81403 0
M  V30 2392 C 221.068 1.80208 4.01513 0
M  V30 2393 H 218.187 0.426346 0.601164 0
M  V30 2394 H 220.829 1.58518 1.04747 0
M  V30 2395 H 218.979 1.62616 3.52829 0
M  V30 2396 H 220.651 3.96153 2.36348 0
M  V30 2397 H 218.894 3.76045 2.1627 0
M  V30 2398 H 219.565 4.02791 3.77443 0
M  V30 2399 H 222.041 2.11025 3.58619 0
M  V30 2400 H 220.917 2.39184 4.94047 0
M  V30 2401 H 221.178 0.756119 4.35586 0
M  V30 2402 N 220.237 -1.11381 1.11499 0
M  V30 2403 C 221.462 -1.87475 0.887019 0
M  V30 2404 C 221.887 -1.79639 -0.557796 0
M  V30 2405 O 221.245 -1.15924 -1.39396 0
M  V30 2406 C 221.293 -3.34213 1.35403 0
M  V30 2407 O 220.397 -4.0903 0.526146 0
M  V30 2408 H 219.738 -0.582099 0.319463 0
M  V30 2409 H 222.268 -1.40785 1.48461 0
M  V30 2410 H 222.278 -3.8506 1.34881 0
M  V30 2411 H 220.953 -3.39232 2.40612 0
M  V30 2412 H 219.53 -3.68082 0.597522 0
M  V30 2413 N 221.715 -0.905404 -1.28997 0
M  V30 2414 C 222.625 -0.392246 -2.31298 0
M  V30 2415 C 223.641 0.515889 -1.66176 0
M  V30 2416 O 224.817 0.404093 -1.97304 0
M  V30 2417 C 221.882 0.36686 -3.44754 0
M  V30 2418 C 220.943 -0.573485 -4.25452 0
M  V30 2419 C 220.176 0.149488 -5.33491 0
M  V30 2420 O 220.399 1.37255 -5.5364 0
M  V30 2421 O 219.333 -0.510919 -5.99728 0
M  V30 2422 H 223.159 -1.2411 -2.77183 0
M  V30 2423 H 220.744 -0.669926 -1.33538 0
M  V30 2424 H 222.626 0.795907 -4.13816 0
M  V30 2425 H 221.301 1.19169 -3.00966 0
M  V30 2426 H 220.208 -1.05176 -3.59011 0
M  V30 2427 H 221.541 -1.36489 -4.72897 0
M  V30 2428 N 223.193 1.4272 -0.668489 0
M  V30 2429 C 224.123 2.335 -0.000100175 0
M  V30 2430 C 225.104 1.50328 0.795964 0
M  V30 2431 O 226.289 1.78949 0.754385 0
M  V30 2432 C 223.419 3.33874 0.956302 0
M  V30 2433 C 222.373 4.27152 0.269278 0
M  V30 2434 C 221.699 5.17684 1.33818 0
M  V30 2435 C 222.999 5.15373 -0.847805 0
M  V30 2436 H 224.693 2.89639 -0.758244 0
M  V30 2437 H 222.239 1.39269 -0.366079 0
M  V30 2438 H 224.192 3.9629 1.43292 0
M  V30 2439 H 222.916 2.76025 1.74579 0
M  V30 2440 H 221.575 3.66123 -0.187042 0
M  V30 2441 H 221.223 4.56165 2.1195 0
M  V30 2442 H 220.923 5.80918 0.883659 0
M  V30 2443 H 222.447 5.82974 1.81586 0
M  V30 2444 H 223.861 5.7151 -0.452681 0
M  V30 2445 H 222.258 5.87407 -1.22773 0
M  V30 2446 H 223.328 4.5415 -1.69929 0
M  V30 2447 N 224.671 0.411399 1.52136 0
M  V30 2448 C 225.618 -0.412975 2.27075 0
M  V30 2449 C 226.588 -1.03912 1.29582 0
M  V30 2450 O 227.773 -1.06296 1.58448 0
M  V30 2451 C 224.913 -1.52247 3.09701 0
M  V30 2452 C 224.026 -0.917021 4.22155 0
M  V30 2453 C 223.161 -1.9994 4.92135 0
M  V30 2454 C 222.2 -1.37101 5.96548 0
M  V30 2455 N 221.337 -2.39364 6.60038 0
M  V30 2456 H 226.177 0.232499 2.97092 0
M  V30 2457 H 223.714 0.126496 1.46555 0
M  V30 2458 H 225.672 -2.17674 3.55913 0
M  V30 2459 H 224.302 -2.13794 2.41851 0
M  V30 2460 H 223.354 -0.151742 3.80097 0
M  V30 2461 H 224.666 -0.418006 4.97045 0
M  V30 2462 H 223.82 -2.73088 5.41763 0
M  V30 2463 H 222.559 -2.53208 4.16818 0
M  V30 2464 H 221.564 -0.624873 5.46237 0
M  V30 2465 H 222.789 -0.845998 6.7381 0
M  V30 2466 H 220.735 -2.91759 5.87548 0
M  V30 2467 H 220.652 -1.9428 7.3061 0
M  V30 2468 H 221.92 -3.12074 7.14304 0
M  V30 2469 N 226.149 -1.5696 0.141893 0
M  V30 2470 C 227.389 -1.9785 -0.513304 0
M  V30 2471 C 227.753 -1.02467 -1.62371 0
M  V30 2472 O 228.954 -1.32382 -2.33941 0
M  V30 2473 C 227.225 -3.42797 -1.01118 0
M  V30 2474 S 228.784 -4.05709 -1.67169 0
M  V30 2475 H 225.602 -0.691318 -0.166135 0
M  V30 2476 H 228.204 -1.94114 0.232398 0
M  V30 2477 H 226.908 -4.0995 -0.192179 0
M  V30 2478 H 226.439 -3.50235 -1.79162 0
M  V30 2479 H 228.454 -3.98342 -2.95868 0
M  V30 2480 N 227.627 0.131896 -1.57047 0
M  V30 2481 C 228.875 0.840269 -1.83804 0
M  V30 2482 C 229.196 1.81017 -0.72512 0
M  V30 2483 O 228.466 1.94272 0.251995 0
M  V30 2484 H 227.046 0.313294 -0.678127 0
M  V30 2485 H 229.708 0.122294 -1.94516 0
M  V30 2486 H 228.804 1.39335 -2.79271 0
M  V30 2487 N 229.106 1.52395 0.401703 0
M  V30 2488 C 230.383 1.57387 1.16141 0
M  V30 2489 C 230.763 0.359359 2.08019 0
M  V30 2490 O 230.111 -0.65326 2.18963 0
M  V30 2491 C 230.321 2.90631 1.93221 0
M  V30 2492 C 231.669 3.43904 2.49028 0
M  V30 2493 O 232.693 2.92421 2.03393 0
M  V30 2494 O 231.552 4.33823 3.32356 0
M  V30 2495 H 228.646 0.634262 0.530698 0
M  V30 2496 H 231.192 1.64725 0.407883 0
M  V30 2497 H 229.964 3.70473 1.25958 0
M  V30 2498 H 229.587 2.8662 2.75563 0
M  V30 2499 N 230.584 -0.659388 1.43143 0
M  V30 2500 C 231.514 -1.78422 1.50625 0
M  V30 2501 C 232.495 -1.66216 0.361443 0
M  V30 2502 O 233.68 -1.85404 0.577834 0
M  V30 2503 C 230.81 -3.16815 1.42287 0
M  V30 2504 C 229.764 -3.43777 2.54954 0
M  V30 2505 C 229.09 -4.81905 2.31671 0
M  V30 2506 C 230.39 -3.39134 3.97222 0
M  V30 2507 H 232.084 -1.72417 2.44771 0
M  V30 2508 H 229.63 -0.828084 1.17808 0
M  V30 2509 H 231.583 -3.95253 1.46127 0
M  V30 2510 H 230.307 -3.23534 0.446435 0
M  V30 2511 H 228.966 -2.67707 2.50457 0
M  V30 2512 H 228.614 -4.85294 1.32284 0
M  V30 2513 H 228.314 -5.00906 3.07192 0
M  V30 2514 H 229.838 -5.62609 2.37284 0
M  V30 2515 H 231.252 -4.07518 4.03239 0
M  V30 2516 H 229.649 -3.69671 4.72719 0
M  V30 2517 H 230.719 -2.37426 4.22797 0
M  V30 2518 N 232.062 -1.29571 -0.897171 0
M  V30 2519 C 232.972 -1.16808 -2.03453 0
M  V30 2520 C 233.988 -0.0907471 -1.73763 0
M  V30 2521 O 235.164 -0.303312 -1.99103 0
M  V30 2522 C 232.229 -0.848264 -3.36163 0
M  V30 2523 C 231.29 -2.0097 -3.79354 0
M  V30 2524 C 230.523 -1.70505 -5.05731 0
M  V30 2525 O 230.746 -0.62718 -5.66941 0
M  V30 2526 O 229.68 -2.5538 -5.45036 0
M  V30 2527 H 233.506 -2.12325 -2.17144 0
M  V30 2528 H 231.091 -1.09047 -1.02123 0
M  V30 2529 H 232.973 -0.684581 -4.15802 0
M  V30 2530 H 231.648 0.0771071 -3.23608 0
M  V30 2531 H 230.555 -2.22863 -3.00471 0
M  V30 2532 H 231.888 -2.91636 -3.96496 0
M  V30 2533 N 233.54 1.10788 -1.12088 0
M  V30 2534 C 234.45 2.20599 -0.798338 0
M  V30 2535 C 235.466 1.72712 0.21135 0
M  V30 2536 O 236.642 2.01348 0.0458477 0
M  V30 2537 C 233.707 3.45771 -0.253674 0
M  V30 2538 C 232.768 4.08411 -1.32283 0
M  V30 2539 C 232.001 5.27608 -0.80406 0
M  V30 2540 O 232.224 5.69241 0.363478 0
M  V30 2541 O 231.158 5.8101 -1.57198 0
M  V30 2542 H 234.984 2.50614 -1.7154 0
M  V30 2543 H 232.569 1.19454 -0.897275 0
M  V30 2544 H 234.451 4.21376 0.0453691 0
M  V30 2545 H 233.126 3.1739 0.636005 0
M  V30 2546 H 232.033 3.34507 -1.67499 0
M  V30 2547 H 233.366 4.40986 -2.18614 0
M  V30 2548 N 235.018 0.912232 1.28515 0
M  V30 2549 C 235.928 0.404506 2.31086 0
M  V30 2550 C 236.944 -0.50707 1.66448 0
M  V30 2551 O 238.12 -0.393624 1.97516 0
M  V30 2552 C 235.185 -0.348572 3.44943 0
M  V30 2553 C 234.246 0.59604 4.25142 0
M  V30 2554 C 233.479 -0.121194 5.33562 0
M  V30 2555 O 233.702 -1.34317 5.5436 0
M  V30 2556 O 232.636 0.542716 5.99448 0
M  V30 2557 H 236.462 1.25579 2.76521 0
M  V30 2558 H 234.047 0.676998 1.33181 0
M  V30 2559 H 235.929 -0.77395 4.14232 0
M  V30 2560 H 234.604 -1.17571 3.01594 0
M  V30 2561 H 233.511 1.07079 3.58448 0
M  V30 2562 H 234.844 1.38995 4.72167 0
M  V30 2563 N 236.496 -1.42363 0.676048 0
M  V30 2564 C 237.426 -2.33497 0.0124832 0
M  V30 2565 C 238.407 -1.50748 -0.787981 0
M  V30 2566 O 239.592 -1.79346 -0.744884 0
M  V30 2567 C 236.722 -3.34377 -0.938582 0
M  V30 2568 C 235.676 -4.27289 -0.246622 0
M  V30 2569 C 235.002 -5.18386 -1.31071 0
M  V30 2570 C 236.302 -5.14916 0.875125 0
M  V30 2571 H 237.996 -2.89233 0.773593 0
M  V30 2572 H 235.542 -1.39073 0.37346 0
M  V30 2573 H 237.495 -3.97044 -1.41188 0
M  V30 2574 H 236.219 -2.76947 -1.73113 0
M  V30 2575 H 234.878 -3.66018 0.206456 0
M  V30 2576 H 234.526 -4.57282 -2.09528 0
M  V30 2577 H 234.226 -5.81378 -0.852839 0
M  V30 2578 H 235.75 -5.83929 -1.78492 0
M  V30 2579 H 237.164 -5.71262 0.482983 0
M  V30 2580 H 235.561 -5.86747 1.25887 0
M  V30 2581 H 236.631 -4.53242 1.72335 0
M  V30 2582 N 237.974 -0.419461 -1.51915 0
M  V30 2583 C 238.921 0.400927 -2.27291 0
M  V30 2584 C 239.891 1.03224 -1.30131 0
M  V30 2585 O 241.076 1.05455 -1.59009 0
M  V30 2586 C 238.216 1.50603 -3.10504 0
M  V30 2587 C 237.329 0.89462 -4.22635 0
M  V30 2588 C 236.464 1.97328 -4.93189 0
M  V30 2589 C 235.503 1.33935 -5.97267 0
M  V30 2590 N 234.64 2.3586 -6.61298 0
M  V30 2591 H 239.48 -0.248251 -2.96964 0
M  V30 2592 H 237.017 -0.134266 -1.46486 0
M  V30 2593 H 238.975 2.15783 -3.57062 0
M  V30 2594 H 237.605 2.12509 -2.42981 0
M  V30 2595 H 236.657 0.131583 -3.80172 0
M  V30 2596 H 237.969 0.391641 -4.9726 0
M  V30 2597 H 237.123 2.70211 -5.43204 0
M  V30 2598 H 235.862 2.50994 -4.18155 0
M  V30 2599 H 234.867 0.595896 -5.46561 0
M  V30 2600 H 236.092 0.810252 -6.74249 0
M  V30 2601 H 234.038 2.88639 -5.89087 0
M  V30 2602 H 233.955 1.90403 -7.3163 0
M  V30 2603 H 235.223 3.08282 -7.15949 0
M  V30 2604 N 239.452 1.56882 -0.150215 0
M  V30 2605 C 240.4 2.18214 0.805313 0
M  V30 2606 C 241.394 1.14006 1.25296 0
M  V30 2607 O 242.6 1.3225 1.22107 0
M  V30 2608 H 238.975 0.698762 0.277913 0
M  V30 2609 H 240.946 2.97231 0.263862 0
M  V30 2610 C 239.695 2.82065 2.03309 0
M  V30 2611 H 239.018 3.61968 1.69763 0
M  V30 2612 H 240.458 3.28477 2.68103 0
M  V30 2613 C 238.917 1.80739 2.84315 0
M  V30 2614 O 239.447 1.27983 3.80767 0
M  V30 2615 N 237.653 1.4997 2.48913 0
M  V30 2616 H 237.2 1.93062 1.70542 0
M  V30 2617 H 237.158 0.824217 3.03404 0
M  V30 2618 N 240.93 -0.123565 1.57115 0
M  V30 2619 C 242.176 -0.833386 1.84885 0
M  V30 2620 C 242.509 -1.79742 0.735292 0
M  V30 2621 O 241.784 -1.92764 -0.25925 0
M  V30 2622 C 242.067 -1.5873 3.23228 0
M  V30 2623 C 241.92 -0.643183 4.45178 0
M  V30 2624 C 243.239 -2.54453 3.59085 0
M  V30 2625 H 240.358 -0.301518 0.6725 0
M  V30 2626 H 243 -0.097778 1.89748 0
M  V30 2627 H 241.15 -2.21438 3.19214 0
M  V30 2628 H 242.822 -0.0253015 4.61293 0
M  V30 2629 H 241.065 0.0456139 4.33776 0
M  V30 2630 H 241.736 -1.20724 5.38637 0
M  V30 2631 H 244.212 -2.01853 3.63861 0
M  V30 2632 H 243.088 -3.04238 4.5687 0
M  V30 2633 H 243.349 -3.36906 2.86264 0
M  V30 2634 N 242.408 -1.52605 -0.393616 0
M  V30 2635 C 243.636 -1.71294 -1.16043 0
M  V30 2636 C 244.051 -0.429259 -1.83855 0
M  V30 2637 O 243.408 0.595921 -1.72496 0
M  V30 2638 C 243.459 -2.8593 -2.21193 0
M  V30 2639 O 243.18 -4.09329 -1.56146 0
M  V30 2640 C 244.681 -3.16259 -3.10636 0
M  V30 2641 H 241.901 -0.573641 -0.348104 0
M  V30 2642 H 244.445 -1.99234 -0.461092 0
M  V30 2643 H 242.6 -2.60465 -2.86769 0
M  V30 2644 H 243.014 -4.73323 -2.25978 0
M  V30 2645 H 244.488 -3.99946 -3.80456 0
M  V30 2646 H 244.965 -2.3045 -3.73884 0
M  V30 2647 H 245.571 -3.43547 -2.50711 0
M  V30 2648 N 243.887 0.651787 -1.4349 0
M  V30 2649 C 244.835 1.78586 -1.49029 0
M  V30 2650 C 245.829 1.65448 -0.363767 0
M  V30 2651 O 247.035 1.71777 -0.537821 0
M  V30 2652 H 243.41 0.589236 -0.467231 0
M  V30 2653 H 245.381 1.71035 -2.44519 0
M  V30 2654 C 244.13 3.16851 -1.43181 0
M  V30 2655 H 243.453 3.27598 -2.29171 0
M  V30 2656 H 244.893 3.96156 -1.51118 0
M  V30 2657 C 243.352 3.36568 -0.149616 0
M  V30 2658 O 243.882 3.93885 0.788509 0
M  V30 2659 N 242.088 2.90539 -0.0593484 0
M  V30 2660 H 241.635 2.4408 -0.823575 0
M  V30 2661 H 241.593 3.04108 0.797853 0
M  V30 2662 N 245.365 1.30045 0.890287 0
M  V30 2663 C 246.313 1.15873 2.01683 0
M  V30 2664 C 247.307 0.0719403 1.69247 0
M  V30 2665 O 248.513 0.232414 1.78493 0
M  V30 2666 H 244.888 0.358203 0.661207 0
M  V30 2667 H 246.859 2.11229 2.10772 0
M  V30 2668 C 245.608 0.861842 3.36849 0
M  V30 2669 H 244.931 1.69016 3.62317 0
M  V30 2670 H 246.371 0.802762 4.16331 0
M  V30 2671 C 244.83 -0.435132 3.34078 0
M  V30 2672 O 245.36 -1.4583 3.74295 0
M  V30 2673 N 243.566 -0.444377 2.87182 0
M  V30 2674 H 243.113 0.388723 2.5465 0
M  V30 2675 H 243.071 -1.31213 2.85711 0
M  V30 2676 N 246.843 -1.10192 1.12674 0
M  V30 2677 C 247.773 -2.18652 0.819362 0
M  V30 2678 C 248.754 -1.68698 -0.217915 0
M  V30 2679 O 249.939 -1.94041 -0.0785581 0
M  V30 2680 C 247.069 -3.46202 0.27594 0
M  V30 2681 C 246.023 -4.09444 1.24656 0
M  V30 2682 C 245.349 -5.31725 0.563258 0
M  V30 2683 C 246.649 -4.52863 2.60217 0
M  V30 2684 H 248.343 -2.44622 1.72628 0
M  V30 2685 H 245.889 -1.17571 0.831451 0
M  V30 2686 H 247.842 -4.21372 0.0486149 0
M  V30 2687 H 246.566 -3.1973 -0.666331 0
M  V30 2688 H 245.225 -3.36284 1.45974 0
M  V30 2689 H 244.873 -5.0153 -0.384235 0
M  V30 2690 H 244.573 -5.74991 1.21075 0
M  V30 2691 H 246.097 -6.09624 0.34503 0
M  V30 2692 H 247.511 -5.19294 2.42913 0
M  V30 2693 H 245.908 -5.06986 3.21068 0
M  V30 2694 H 246.978 -3.65656 3.18471 0
M  V30 2695 N 248.321 -0.919034 -1.28029 0
M  V30 2696 C 249.268 -0.410005 -2.27129 0
M  V30 2697 C 250.238 0.518405 -1.57803 0
M  V30 2698 O 251.423 0.439451 -1.8567 0
M  V30 2699 C 248.563 0.339054 -3.4343 0
M  V30 2700 C 247.676 -0.622468 -4.27492 0
M  V30 2701 C 246.811 0.145567 -5.31001 0
M  V30 2702 C 245.85 -0.809226 -6.06727 0
M  V30 2703 N 244.987 -0.0743728 -7.02061 0
M  V30 2704 H 249.827 -1.26011 -2.70047 0
M  V30 2705 H 247.364 -0.632663 -1.328 0
M  V30 2706 H 249.322 0.789586 -4.0966 0
M  V30 2707 H 247.952 1.15346 -3.01488 0
M  V30 2708 H 247.004 -1.19153 -3.61257 0
M  V30 2709 H 248.316 -1.35252 -4.80113 0
M  V30 2710 H 247.47 0.656417 -6.03139 0
M  V30 2711 H 246.209 0.908643 -4.79161 0
M  V30 2712 H 245.214 -1.3314 -5.33436 0
M  V30 2713 H 246.439 -1.57194 -6.60656 0
M  V30 2714 H 244.385 0.670616 -6.52563 0
M  V30 2715 H 244.302 -0.744157 -7.52329 0
M  V30 2716 H 245.57 0.416109 -7.78389 0
M  V30 2717 N 249.799 1.42003 -0.683588 0
M  V30 2718 C 251.024 2.06265 -0.216647 0
M  V30 2719 C 251.449 1.51059 1.12083 0
M  V30 2720 O 250.807 0.632638 1.69904 0
M  V30 2721 C 250.855 3.60191 -0.171759 0
M  V30 2722 O 249.959 4.03396 0.857069 0
M  V30 2723 H 249.3 0.65502 -0.108834 0
M  V30 2724 H 251.83 1.81982 -0.935077 0
M  V30 2725 H 251.84 4.08 0.0014303 0
M  V30 2726 H 250.515 3.99743 -1.14796 0
M  V30 2727 H 249.092 3.67117 0.654208 0
M  V30 2728 N 251.277 0.427512 1.51691 0
M  V30 2729 C 252.207 -0.3796 2.30394 0
M  V30 2730 C 253.188 -1.02982 1.35384 0
M  V30 2731 O 254.373 -1.03534 1.643 0
M  V30 2732 C 251.503 -1.48649 3.1388 0
M  V30 2733 C 250.457 -0.960294 4.17088 0
M  V30 2734 C 249.783 -2.16219 4.89033 0
M  V30 2735 C 251.083 -0.00153679 5.223 0
M  V30 2736 H 252.777 0.277164 2.98114 0
M  V30 2737 H 250.323 0.134739 1.43368 0
M  V30 2738 H 252.276 -2.05826 3.67714 0
M  V30 2739 H 251 -2.1714 2.43962 0
M  V30 2740 H 249.659 -0.410806 3.64291 0
M  V30 2741 H 249.307 -2.83307 4.15628 0
M  V30 2742 H 249.007 -1.81654 5.58816 0
M  V30 2743 H 250.531 -2.73968 5.45687 0
M  V30 2744 H 251.945 -0.482687 5.71264 0
M  V30 2745 H 250.342 0.256199 5.99553 0
M  V30 2746 H 251.412 0.938174 4.75738 0
M  V30 2747 N 252.755 -1.56801 0.158532 0
M  V30 2748 C 253.665 -2.20916 -0.789518 0
M  V30 2749 C 254.681 -1.1969 -1.26294 0
M  V30 2750 O 255.857 -1.52308 -1.31773 0
M  V30 2751 C 252.922 -2.82727 -2.00665 0
M  V30 2752 C 251.983 -3.99114 -1.58134 0
M  V30 2753 C 251.216 -4.57968 -2.74045 0
M  V30 2754 O 251.439 -4.15704 -3.90572 0
M  V30 2755 O 250.373 -5.48047 -2.48855 0
M  V30 2756 H 254.199 -3.02464 -0.273681 0
M  V30 2757 H 251.784 -1.4924 -0.0690548 0
M  V30 2758 H 253.666 -3.21968 -2.71872 0
M  V30 2759 H 252.341 -2.04184 -2.51179 0
M  V30 2760 H 251.248 -3.64567 -0.839155 0
M  V30 2761 H 252.581 -4.79212 -1.12325 0
M  V30 2762 N 254.233 0.115231 -1.57178 0
M  V30 2763 C 255.196 1.12526 -1.99676 0
M  V30 2764 C 256.196 1.34095 -0.88742 0
M  V30 2765 O 257.386 1.30548 -1.15337 0
M  V30 2766 C 254.518 2.4789 -2.34015 0
M  V30 2767 H 255.711 0.759912 -2.90113 0
M  V30 2768 H 253.264 0.359648 -1.52106 0
M  V30 2769 H 253.999 2.89339 -1.4647 0
M  V30 2770 H 253.784 2.33588 -3.14927 0
M  V30 2771 H 255.274 3.20575 -2.67622 0
M  V30 2772 N 255.711 1.52812 0.385517 0
M  V30 2773 C 256.674 1.77188 1.45386 0
M  V30 2774 C 257.674 0.641953 1.4743 0
M  V30 2775 O 258.864 0.910033 1.4854 0
M  V30 2776 C 255.996 1.87582 2.8465 0
M  V30 2777 H 257.189 2.72583 1.25054 0
M  V30 2778 H 254.742 1.43586 0.617467 0
M  V30 2779 H 255.477 0.941849 3.10322 0
M  V30 2780 H 255.262 2.69748 2.84567 0
M  V30 2781 H 256.752 2.08102 3.62054 0
M  V30 2782 N 257.189 -0.644168 1.43834 0
M  V30 2783 C 258.414 -1.43642 1.49605 0
M  V30 2784 C 258.839 -1.8773 0.117913 0
M  V30 2785 O 258.197 -1.57938 -0.890239 0
M  V30 2786 C 258.245 -2.6416 2.45463 0
M  V30 2787 O 257.349 -3.63538 1.94714 0
M  V30 2788 H 256.69 -0.430329 0.50568 0
M  V30 2789 H 259.22 -0.787448 1.8884 0
M  V30 2790 H 259.23 -3.11864 2.63068 0
M  V30 2791 H 257.905 -2.31414 3.45572 0
M  V30 2792 H 256.482 -3.2273 1.86814 0
M  V30 2793 N 258.668 -1.30515 -0.883378 0
M  V30 2794 C 259.578 -1.18959 -2.02203 0
M  V30 2795 C 260.594 -0.109172 -1.73657 0
M  V30 2796 O 261.77 -0.324413 -1.9877 0
M  V30 2797 C 258.835 -0.883871 -3.35244 0
M  V30 2798 C 257.896 -2.04982 -3.77201 0
M  V30 2799 C 257.129 -1.75859 -5.03894 0
M  V30 2800 O 257.352 -0.687276 -5.66244 0
M  V30 2801 O 256.286 -2.61146 -5.42297 0
M  V30 2802 H 260.112 -2.14616 -2.1488 0
M  V30 2803 H 257.697 -1.10124 -1.0096 0
M  V30 2804 H 259.579 -0.728644 -4.15053 0
M  V30 2805 H 258.254 0.0427798 -3.23672 0
M  V30 2806 H 257.161 -2.26038 -2.9809 0
M  V30 2807 H 258.494 -2.95825 -3.93381 0
M  V30 2808 N 260.146 1.09593 -1.13257 0
M  V30 2809 C 261.093 2.1618 -0.808381 0
M  V30 2810 C 262.063 1.64517 0.228754 0
M  V30 2811 O 263.248 1.9053 0.101381 0
M  V30 2812 C 260.388 3.43973 -0.278675 0
M  V30 2813 C 259.501 4.09545 -1.37466 0
M  V30 2814 C 258.636 5.25088 -0.803479 0
M  V30 2815 C 257.675 5.82579 -1.87799 0
M  V30 2816 N 256.812 6.89486 -1.32488 0
M  V30 2817 H 261.652 2.43254 -1.72138 0
M  V30 2818 H 259.189 1.19392 -0.859294 0
M  V30 2819 H 261.147 4.17174 0.0465583 0
M  V30 2820 H 259.777 3.17223 0.597459 0
M  V30 2821 H 258.829 3.34226 -1.81652 0
M  V30 2822 H 260.141 4.48307 -2.18684 0
M  V30 2823 H 259.295 6.05178 -0.429427 0
M  V30 2824 H 258.034 4.87684 0.0397956 0
M  V30 2825 H 257.039 5.01152 -2.26113 0
M  V30 2826 H 258.264 6.22045 -2.72463 0
M  V30 2827 H 256.21 6.54064 -0.503575 0
M  V30 2828 H 256.127 7.27007 -2.07355 0
M  V30 2829 H 257.395 7.73336 -0.978336 0
M  V30 2830 N 261.624 0.925811 1.2754 0
M  V30 2831 C 262.854 0.580666 1.98272 0
M  V30 2832 C 263.262 -0.845207 1.69272 0
M  V30 2833 O 262.605 -1.57306 0.948707 0
M  V30 2834 C 262.667 0.724418 3.52126 0
M  V30 2835 C 262.331 2.12206 4.04744 0
M  V30 2836 C 263.328 3.09604 4.17662 0
M  V30 2837 C 261.013 2.4385 4.39138 0
M  V30 2838 C 263.007 4.36755 4.64246 0
M  V30 2839 C 260.694 3.71237 4.85414 0
M  V30 2840 C 261.692 4.67503 4.97926 0
M  V30 2841 O 261.38 5.92624 5.43187 0
M  V30 2842 H 261.112 0.218987 0.639547 0
M  V30 2843 H 263.666 1.24452 1.63404 0
M  V30 2844 H 261.896 0.0034663 3.867 0
M  V30 2845 H 263.585 0.384607 4.04074 0
M  V30 2846 H 264.351 2.86478 3.91351 0
M  V30 2847 H 260.23 1.69665 4.28643 0
M  V30 2848 H 263.774 5.11898 4.73927 0
M  V30 2849 H 259.671 3.94182 5.11166 0
M  V30 2850 H 260.439 5.95585 5.61445 0
M  V30 2851 N 263.102 -1.41638 0.69111 0
M  V30 2852 C 264.327 -2.06148 0.227583 0
M  V30 2853 C 264.752 -1.51652 -1.11281 0
M  V30 2854 O 264.11 -0.64164 -1.69566 0
M  V30 2855 C 264.158 -3.60095 0.190858 0
M  V30 2856 O 263.262 -4.03845 -0.835664 0
M  V30 2857 H 262.603 -0.654434 0.112306 0
M  V30 2858 H 265.133 -1.81484 0.944714 0
M  V30 2859 H 265.143 -4.07995 0.020207 0
M  V30 2860 H 263.818 -3.99129 1.16915 0
M  V30 2861 H 262.395 -3.67458 -0.63473 0
M  V30 2862 N 264.58 -0.43555 -1.51462 0
M  V30 2863 C 265.49 0.383001 -2.31453 0
M  V30 2864 C 266.506 1.02931 -1.4029 0
M  V30 2865 O 267.682 1.02507 -1.73362 0
M  V30 2866 C 264.747 1.47043 -3.13973 0
M  V30 2867 C 263.808 0.844433 -4.20913 0
M  V30 2868 C 263.041 1.88004 -4.9949 0
M  V30 2869 O 263.264 3.10199 -4.78678 0
M  V30 2870 O 262.198 1.47157 -5.83634 0
M  V30 2871 H 266.024 -0.269964 -3.02498 0
M  V30 2872 H 263.609 -0.19813 -1.4808 0
M  V30 2873 H 265.491 2.10113 -3.65281 0
M  V30 2874 H 264.166 2.10751 -2.45695 0
M  V30 2875 H 263.073 0.175729 -3.73687 0
M  V30 2876 H 264.406 0.250869 -4.9156 0
M  V30 2877 N 266.058 1.56714 -0.166846 0
M  V30 2878 C 267.005 2.17746 0.765193 0
M  V30 2879 C 267.975 1.11614 1.23011 0
M  V30 2880 O 269.16 1.39745 1.29908 0
M  V30 2881 C 266.3 2.81882 1.9909 0
M  V30 2882 C 265.413 4.02462 1.56997 0
M  V30 2883 C 264.548 4.54537 2.749 0
M  V30 2884 C 263.587 5.67538 2.29275 0
M  V30 2885 N 262.724 6.14142 3.40255 0
M  V30 2886 H 267.564 2.97048 0.237952 0
M  V30 2887 H 265.101 1.4672 0.105725 0
M  V30 2888 H 267.059 3.17221 2.70974 0
M  V30 2889 H 265.689 2.05191 2.49192 0
M  V30 2890 H 264.741 3.72973 0.748037 0
M  V30 2891 H 266.053 4.84273 1.19503 0
M  V30 2892 H 265.207 4.92035 3.54946 0
M  V30 2893 H 263.946 3.71774 3.1565 0
M  V30 2894 H 262.951 5.29597 1.47674 0
M  V30 2895 H 264.176 6.52099 1.89588 0
M  V30 2896 H 262.122 5.3431 3.8059 0
M  V30 2897 H 262.039 6.9093 3.06841 0
M  V30 2898 H 263.307 6.56289 4.206 0
M  V30 2899 N 267.536 -0.106894 1.57237 0
M  V30 2900 C 268.446 -1.14911 2.0453 0
M  V30 2901 C 269.462 -1.44592 0.96795 0
M  V30 2902 O 270.638 -1.55468 1.2803 0
M  V30 2903 C 267.703 -2.45272 2.45036 0
M  V30 2904 C 266.764 -2.22879 3.66911 0
M  V30 2905 C 265.997 -3.47024 4.05475 0
M  V30 2906 O 266.22 -4.54804 3.44252 0
M  V30 2907 O 265.154 -3.3731 4.98504 0
M  V30 2908 H 268.98 -0.777461 2.9358 0
M  V30 2909 H 266.565 -0.318563 1.45964 0
M  V30 2910 H 268.447 -3.22055 2.71769 0
M  V30 2911 H 267.122 -2.81886 1.59129 0
M  V30 2912 H 266.029 -1.43915 3.45311 0
M  V30 2913 H 267.362 -1.91163 4.53561 0
M  V30 2914 N 269.014 -1.53014 -0.377408 0
M  V30 2915 C 270.291 -1.59215 -1.13622 0
M  V30 2916 C 270.671 -0.392407 -2.07421 0
M  V30 2917 O 270.019 0.618342 -2.19975 0
M  V30 2918 C 270.229 -2.93669 -1.88573 0
M  V30 2919 C 271.577 -3.47822 -2.43526 0
M  V30 2920 O 272.601 -2.9562 -1.98715 0
M  V30 2921 O 271.46 -4.39055 -3.25412 0
M  V30 2922 H 268.554 -0.642625 -0.52054 0
M  V30 2923 H 271.1 -1.65353 -0.381625 0
M  V30 2924 H 269.872 -3.7243 -1.20048 0
M  V30 2925 H 269.495 -2.90968 -2.70968 0
M  V30 2926 N 270.492 0.636531 -1.44174 0
M  V30 2927 C 271.439 1.74875 -1.50624 0
M  V30 2928 C 272.409 1.62275 -0.35442 0
M  V30 2929 O 273.594 1.82276 -0.563908 0
M  V30 2930 C 270.734 3.13102 -1.45125 0
M  V30 2931 C 269.847 3.36717 -2.7064 0
M  V30 2932 C 268.982 4.64885 -2.57013 0
M  V30 2933 C 268.021 4.8166 -3.77717 0
M  V30 2934 N 267.158 6.01101 -3.62798 0
M  V30 2935 H 271.998 1.68697 -2.45653 0
M  V30 2936 H 269.535 0.823004 -1.21922 0
M  V30 2937 H 271.493 3.93034 -1.39929 0
M  V30 2938 H 270.123 3.18308 -0.536671 0
M  V30 2939 H 269.175 2.50763 -2.86046 0
M  V30 2940 H 270.487 3.44993 -3.60252 0
M  V30 2941 H 269.641 5.52969 -2.49619 0
M  V30 2942 H 268.38 4.58957 -1.64953 0
M  V30 2943 H 267.385 3.92007 -3.85501 0
M  V30 2944 H 268.61 4.89406 -4.70807 0
M  V30 2945 H 266.556 5.96273 -2.73486 0
M  V30 2946 H 266.473 6.10409 -4.46023 0
M  V30 2947 H 267.741 6.91761 -3.59286 0
M  V30 2948 N 271.97 1.30982 0.876444 0
M  V30 2949 C 273.2 1.23063 1.65949 0
M  V30 2950 C 273.608 -0.207537 1.88058 0
M  V30 2951 O 272.951 -1.14781 1.43426 0
M  V30 2952 C 273.013 1.89768 3.05333 0
M  V30 2953 C 272.677 3.39106 3.0636 0
M  V30 2954 C 273.674 4.3496 2.84791 0
M  V30 2955 C 271.359 3.80693 3.27686 0
M  V30 2956 C 273.353 5.70375 2.84519 0
M  V30 2957 C 271.04 5.16223 3.27043 0
M  V30 2958 C 272.038 6.10875 3.05485 0
M  V30 2959 O 271.726 7.43928 3.04674 0
M  V30 2960 H 271.458 0.426685 0.524324 0
M  V30 2961 H 274.012 1.7329 1.10271 0
M  V30 2962 H 272.242 1.34082 3.6271 0
M  V30 2963 H 273.931 1.75853 3.65829 0
M  V30 2964 H 274.697 4.0416 2.68103 0
M  V30 2965 H 270.576 3.07457 3.43499 0
M  V30 2966 H 274.12 6.44228 2.67611 0
M  V30 2967 H 270.017 5.4666 3.43269 0
M  V30 2968 H 270.785 7.53022 3.2078 0
M  V30 2969 N 273.449 -1.08991 1.13837 0
M  V30 2970 C 274.359 -2.19301 0.833333 0
M  V30 2971 C 275.375 -1.73026 -0.183847 0
M  V30 2972 O 276.551 -2.01395 -0.0138092 0
M  V30 2973 C 273.616 -3.45323 0.308651 0
M  V30 2974 C 272.677 -4.06255 1.38764 0
M  V30 2975 C 271.91 -5.26262 0.887896 0
M  V30 2976 O 272.133 -5.69747 -0.27287 0
M  V30 2977 O 271.067 -5.78435 1.66421 0
M  V30 2978 H 274.893 -2.47854 1.75506 0
M  V30 2979 H 272.478 -1.18012 0.916166 0
M  V30 2980 H 274.36 -4.21394 0.0216739 0
M  V30 2981 H 273.035 -3.18362 -0.585431 0
M  V30 2982 H 271.942 -3.318 1.72799 0
M  V30 2983 H 273.275 -4.37452 2.25602 0
M  V30 2984 N 274.927 -0.932562 -1.27047 0
M  V30 2985 C 275.837 -0.441219 -2.30414 0
M  V30 2986 C 276.853 0.480525 -1.67233 0
M  V30 2987 O 278.029 0.362151 -1.98117 0
M  V30 2988 C 275.094 0.293651 -3.45454 0
M  V30 2989 C 274.155 -0.663601 -4.2414 0
M  V30 2990 C 273.388 0.0362932 -5.33688 0
M  V30 2991 O 273.611 1.2548 -5.56427 0
M  V30 2992 O 272.545 -0.638015 -5.98509 0
M  V30 2993 H 276.371 -1.29962 -2.74488 0
M  V30 2994 H 273.956 -0.6981 -1.32087 0
M  V30 2995 H 275.838 0.707951 -4.15411 0
M  V30 2996 H 274.513 1.12758 -3.03426 0
M  V30 2997 H 273.42 -1.12768 -3.56699 0
M  V30 2998 H 274.753 -1.46489 -4.69896 0
M  V30 2999 N 276.405 1.4127 -0.698611 0
M  V30 3000 C 277.315 2.34573 -0.0357891 0
M  V30 3001 C 278.331 1.56393 0.762701 0
M  V30 3002 O 279.507 1.8886 0.699564 0
M  V30 3003 C 276.572 3.35159 0.887089 0
M  V30 3004 C 275.633 4.29225 0.0804634 0
M  V30 3005 C 274.866 5.25006 0.959387 0
M  V30 3006 O 275.089 5.26314 2.19886 0
M  V30 3007 O 274.023 6.00519 0.407439 0
M  V30 3008 H 277.849 2.92838 -0.804957 0
M  V30 3009 H 275.434 1.42175 -0.458966 0
M  V30 3010 H 277.316 3.9689 1.41621 0
M  V30 3011 H 275.991 2.79333 1.6357 0
M  V30 3012 H 274.898 3.70833 -0.493328 0
M  V30 3013 H 276.231 4.88157 -0.629547 0
M  V30 3014 N 277.883 0.443576 1.51229 0
M  V30 3015 C 279.132 -0.122332 2.01329 0
M  V30 3016 C 279.445 -1.43237 1.33201 0
M  V30 3017 O 280.651 -2.0816 1.74304 0
M  V30 3018 C 279.107 -0.268551 3.58897 0
M  V30 3019 C 278.715 1.03142 4.35965 0
M  V30 3020 C 280.459 -0.787894 4.17124 0
M  V30 3021 C 278.366 0.850504 5.85252 0
M  V30 3022 H 277.296 -0.0494929 0.752374 0
M  V30 3023 H 279.947 0.574289 1.74282 0
M  V30 3024 H 278.329 -1.02832 3.82415 0
M  V30 3025 H 279.503 1.80001 4.24189 0
M  V30 3026 H 277.818 1.47977 3.89219 0
M  V30 3027 H 280.415 -0.939841 5.26375 0
M  V30 3028 H 280.758 -1.77201 3.76703 0
M  V30 3029 H 281.291 -0.0862669 3.97706 0
M  V30 3030 H 278.03 1.80718 6.30096 0
M  V30 3031 H 277.55 0.121825 5.99676 0
M  V30 3032 H 279.229 0.506163 6.45017 0
M  V30 3033 N 279.361 -1.56624 0.175154 0
M  V30 3034 C 280.308 -2.18149 -0.753634 0
M  V30 3035 C 281.278 -1.12265 -1.22417 0
M  V30 3036 O 282.463 -1.40432 -1.29165 0
M  V30 3037 C 279.603 -2.82933 -1.97592 0
M  V30 3038 C 278.716 -4.03289 -1.5486 0
M  V30 3039 C 277.851 -4.55988 -2.72485 0
M  V30 3040 C 276.89 -5.68746 -2.26262 0
M  V30 3041 N 276.027 -6.15938 -3.36994 0
M  V30 3042 H 280.867 -2.9717 -0.222195 0
M  V30 3043 H 278.404 -1.46774 -0.0979422 0
M  V30 3044 H 280.362 -3.18653 -2.69288 0
M  V30 3045 H 278.992 -2.06509 -2.481 0
M  V30 3046 H 278.044 -3.73364 -0.728246 0
M  V30 3047 H 279.356 -4.849 -1.16933 0
M  V30 3048 H 278.51 -4.9391 -3.52332 0
M  V30 3049 H 277.249 -3.73443 -3.13674 0
M  V30 3050 H 276.254 -5.30372 -1.44863 0
M  V30 3051 H 277.479 -6.53095 -1.86127 0
M  V30 3052 H 275.425 -5.36321 -3.77751 0
M  V30 3053 H 275.342 -6.92548 -3.03172 0
M  V30 3054 H 276.61 -6.58511 -4.17114 0
M  V30 3055 N 280.839 0.0985539 -1.57292 0
M  V30 3056 C 281.769 1.12064 -2.04851 0
M  V30 3057 C 282.75 1.41981 -0.936767 0
M  V30 3058 O 283.935 1.52071 -1.20781 0
M  V30 3059 C 281.065 2.44144 -2.47004 0
M  V30 3060 C 280.019 2.28643 -3.6181 0
M  V30 3061 C 279.345 3.65869 -3.89929 0
M  V30 3062 C 280.645 1.72986 -4.92822 0
M  V30 3063 H 282.339 0.724979 -2.9049 0
M  V30 3064 H 279.885 0.34729 -1.39749 0
M  V30 3065 H 281.838 3.15914 -2.78884 0
M  V30 3066 H 280.562 2.85639 -1.5836 0
M  V30 3067 H 279.221 1.59318 -3.30172 0
M  V30 3068 H 278.869 4.04885 -2.98458 0
M  V30 3069 H 278.569 3.56344 -4.67218 0
M  V30 3070 H 280.093 4.39112 -4.2428 0
M  V30 3071 H 281.507 2.34593 -5.23105 0
M  V30 3072 H 279.904 1.74229 -5.74251 0
M  V30 3073 H 280.974 0.689007 -4.7998 0
M  V30 3074 N 282.317 1.53212 0.369288 0
M  V30 3075 C 283.247 1.82365 1.45826 0
M  V30 3076 C 284.228 0.676907 1.56051 0
M  V30 3077 O 285.413 0.926401 1.70679 0
M  V30 3078 C 282.543 2.01023 2.83208 0
M  V30 3079 C 281.497 3.1678 2.8781 0
M  V30 3080 C 280.823 3.20724 4.27832 0
M  V30 3081 C 282.123 4.55447 2.55667 0
M  V30 3082 H 283.817 2.73559 1.21678 0
M  V30 3083 H 281.363 1.3163 0.583911 0
M  V30 3084 H 283.316 2.20001 3.59413 0
M  V30 3085 H 282.04 1.06536 3.08736 0
M  V30 3086 H 280.699 2.97616 2.14056 0
M  V30 3087 H 280.347 2.23882 4.50429 0
M  V30 3088 H 280.047 3.98496 4.31827 0
M  V30 3089 H 281.571 3.41881 5.05915 0
M  V30 3090 H 282.985 4.74611 3.21586 0
M  V30 3091 H 281.382 5.35432 2.70984 0
M  V30 3092 H 282.452 4.60812 1.5093 0
M  V30 3093 N 283.795 -0.628877 1.44509 0
M  V30 3094 C 285.02 -1.42048 1.5112 0
M  V30 3095 C 285.445 -1.87594 0.137818 0
M  V30 3096 O 284.803 -1.58873 -0.873437 0
M  V30 3097 C 284.851 -2.61541 2.48251 0
M  V30 3098 O 283.955 -3.61453 1.98559 0
M  V30 3099 H 283.296 -0.424942 0.510216 0
M  V30 3100 H 285.826 -0.767374 1.89664 0
M  V30 3101 H 285.836 -3.09057 2.66361 0
M  V30 3102 H 284.511 -2.27736 3.48007 0
M  V30 3103 H 283.088 -3.20731 1.90227 0
M  V30 3104 N 285.273 -1.31445 -0.869486 0
M  V30 3105 C 286.55 -1.11795 -1.60503 0
M  V30 3106 C 286.93 0.327168 -2.08549 0
M  V30 3107 O 286.278 1.32135 -1.8642 0
M  V30 3108 C 286.488 -2.13258 -2.76265 0
M  V30 3109 C 287.836 -2.45805 -3.46215 0
M  V30 3110 O 288.86 -2.11688 -2.86473 0
M  V30 3111 O 287.719 -3.04228 -4.5399 0
M  V30 3112 H 284.813 -0.430421 -0.706163 0
M  V30 3113 H 287.359 -1.42925 -0.914907 0
M  V30 3114 H 286.131 -3.10461 -2.3818 0
M  V30 3115 H 285.754 -1.83035 -3.52964 0
M  V30 3116 N 286.751 1.08385 -1.14413 0
M  V30 3117 C 287.698 2.15311 -0.831265 0
M  V30 3118 C 288.668 1.64751 0.211292 0
M  V30 3119 O 289.853 1.90627 0.0811674 0
M  V30 3120 C 286.993 3.43658 -0.315143 0
M  V30 3121 C 286.106 4.08064 -1.41802 0
M  V30 3122 C 285.241 5.24207 -0.859126 0
M  V30 3123 C 284.28 5.80554 -1.93967 0
M  V30 3124 N 283.417 6.88042 -1.39793 0
M  V30 3125 H 288.257 2.41415 -1.74708 0
M  V30 3126 H 285.794 1.18474 -0.871909 0
M  V30 3127 H 287.752 4.172 0.00230884 0
M  V30 3128 H 286.382 3.17839 0.56378 0
M  V30 3129 H 285.434 3.3228 -1.85187 0
M  V30 3130 H 286.746 4.45962 -2.23427 0
M  V30 3131 H 285.9 6.04689 -0.49359 0
M  V30 3132 H 284.639 4.87699 -0.011932 0
M  V30 3133 H 283.644 4.98725 -2.31415 0
M  V30 3134 H 284.869 6.19121 -2.79046 0
M  V30 3135 H 282.815 6.53493 -0.572919 0
M  V30 3136 H 282.732 7.24767 -2.15054 0
M  V30 3137 H 284 7.72255 -1.0603 0
M  V30 3138 N 288.23 0.939286 1.26551 0
M  V30 3139 C 289.16 0.465044 2.28822 0
M  V30 3140 C 290.141 -0.480692 1.63167 0
M  V30 3141 O 291.326 -0.382955 1.90387 0
M  V30 3142 C 288.456 -0.27234 3.46231 0
M  V30 3143 C 287.41 0.58666 4.2396 0
M  V30 3144 C 286.736 -0.280573 5.33963 0
M  V30 3145 C 288.036 1.85704 4.88171 0
M  V30 3146 H 289.73 1.31979 2.68741 0
M  V30 3147 H 287.276 0.636061 1.29191 0
M  V30 3148 H 289.229 -0.615133 4.16886 0
M  V30 3149 H 287.953 -1.16121 3.0526 0
M  V30 3150 H 286.612 0.91232 3.55067 0
M  V30 3151 H 286.26 -1.16874 4.89234 0
M  V30 3152 H 285.96 0.29076 5.8688 0
M  V30 3153 H 287.484 -0.618678 6.07458 0
M  V30 3154 H 288.898 1.58161 5.51052 0
M  V30 3155 H 287.295 2.37279 5.51197 0
M  V30 3156 H 288.365 2.56957 4.11219 0
M  V30 3157 N 289.708 -1.40897 0.706093 0
M  V30 3158 C 290.655 -2.30751 0.0474474 0
M  V30 3159 C 291.625 -1.47678 -0.76029 0
M  V30 3160 O 292.81 -1.76441 -0.726177 0
M  V30 3161 C 289.95 -3.33815 -0.875309 0
M  V30 3162 C 289.063 -4.31961 -0.0580623 0
M  V30 3163 C 288.198 -5.22093 -0.979425 0
M  V30 3164 C 287.237 -6.11902 -0.155706 0
M  V30 3165 N 286.374 -6.94482 -1.03144 0
M  V30 3166 H 291.214 -2.86513 0.819413 0
M  V30 3167 H 288.751 -1.41102 0.415783 0
M  V30 3168 H 290.709 -3.92129 -1.42446 0
M  V30 3169 H 289.339 -2.79579 -1.61356 0
M  V30 3170 H 288.391 -3.75507 0.608147 0
M  V30 3171 H 289.703 -4.95415 0.580082 0
M  V30 3172 H 288.857 -5.85292 -1.59744 0
M  V30 3173 H 287.596 -4.5889 -1.65141 0
M  V30 3174 H 286.601 -5.47742 0.475309 0
M  V30 3175 H 287.826 -6.77162 0.512635 0
M  V30 3176 H 285.772 -6.33877 -1.68924 0
M  V30 3177 H 285.689 -7.54665 -0.449108 0
M  V30 3178 H 286.957 -7.6214 -1.63593 0
M  V30 3179 N 291.186 -0.45159 -1.50991 0
M  V30 3180 C 292.096 0.358431 -2.31846 0
M  V30 3181 C 293.112 1.01438 -1.41373 0
M  V30 3182 O 294.288 1.00663 -1.74439 0
M  V30 3183 C 291.353 1.43704 -3.15515 0
M  V30 3184 C 290.414 0.799742 -4.21785 0
M  V30 3185 C 289.647 1.82696 -5.01456 0
M  V30 3186 O 289.87 3.05105 -4.81941 0
M  V30 3187 O 288.804 1.40958 -5.85162 0
M  V30 3188 H 292.63 -0.302032 -3.02194 0
M  V30 3189 H 290.215 -0.213825 -1.47862 0
M  V30 3190 H 292.097 2.06227 -3.67489 0
M  V30 3191 H 290.772 2.08133 -2.47916 0
M  V30 3192 H 289.679 0.136084 -3.73852 0
M  V30 3193 H 291.012 0.198718 -4.91799 0
M  V30 3194 N 292.664 1.56529 -0.183458 0
M  V30 3195 C 293.627 2.17324 0.728223 0
M  V30 3196 C 294.627 1.12453 1.14939 0
M  V30 3197 O 295.817 1.37902 1.06437 0
M  V30 3198 C 292.949 2.76591 1.99274 0
M  V30 3199 H 294.142 2.99241 0.198772 0
M  V30 3200 H 291.695 1.5616 0.0661391 0
M  V30 3201 H 292.43 1.98441 2.56499 0
M  V30 3202 H 292.215 3.5335 1.69959 0
M  V30 3203 H 293.705 3.23311 2.6431 0
M  V30 3204 N 294.142 -0.090211 1.57342 0
M  V30 3205 C 295.052 -1.12735 2.05738 0
M  V30 3206 C 296.068 -1.43557 0.983231 0
M  V30 3207 O 297.244 -1.54101 1.29672 0
M  V30 3208 C 294.309 -2.42659 2.47624 0
M  V30 3209 C 293.37 -2.18975 3.69254 0
M  V30 3210 C 292.603 -3.42704 4.09133 0
M  V30 3211 O 292.826 -4.51127 3.49057 0
M  V30 3212 O 291.76 -3.32003 5.02053 0
M  V30 3213 H 295.586 -0.746279 2.94388 0
M  V30 3214 H 293.171 -0.303064 1.46294 0
M  V30 3215 H 295.053 -3.19155 2.7517 0
M  V30 3216 H 293.728 -2.80182 1.62109 0
M  V30 3217 H 292.635 -1.40244 3.46818 0
M  V30 3218 H 293.968 -1.86342 4.55563 0
M  V30 3219 N 295.62 -1.53406 -0.361157 0
M  V30 3220 C 296.848 -1.73717 -1.12383 0
M  V30 3221 C 297.263 -0.468161 -1.82904 0
M  V30 3222 O 296.62 0.559198 -1.73722 0
M  V30 3223 C 296.671 -2.90558 -2.15078 0
M  V30 3224 O 296.392 -4.12549 -1.47428 0
M  V30 3225 C 297.893 -3.22777 -3.03858 0
M  V30 3226 H 295.113 -0.580896 -0.335858 0
M  V30 3227 H 297.657 -2.00167 -0.418728 0
M  V30 3228 H 295.812 -2.66489 -2.8118 0
M  V30 3229 H 296.226 -4.78009 -2.15887 0
M  V30 3230 H 297.7 -4.07927 -3.71887 0
M  V30 3231 H 298.177 -2.38329 -3.68912 0
M  V30 3232 H 298.783 -3.48787 -2.43367 0
M  V30 3233 N 297.098 0.621204 -1.44841 0
M  V30 3234 C 298.514 0.94048 -1.28946 0
M  V30 3235 C 298.714 2.00154 -0.23249 0
M  V30 3236 O 297.77 2.49651 0.378237 0
M  V30 3237 C 299.083 1.39433 -2.66419 0
M  V30 3238 C 300.631 1.50927 -2.74208 0
M  V30 3239 C 301.106 1.99692 -4.12174 0
M  V30 3240 N 302.597 2.06947 -4.144 0
M  V30 3241 C 303.332 2.45871 -5.1801 0
M  V30 3242 N 302.828 2.83862 -6.31977 0
M  V30 3243 N 304.621 2.46092 -5.05366 0
M  V30 3244 H 296.772 -0.0803548 -2.12248 0
M  V30 3245 H 299.035 0.0266913 -0.947624 0
M  V30 3246 H 298.741 0.688925 -3.44887 0
M  V30 3247 H 298.615 2.36347 -2.93973 0
M  V30 3248 H 301.002 2.20561 -1.96053 0
M  V30 3249 H 301.083 0.523627 -2.50383 0
M  V30 3250 H 300.727 1.30649 -4.90809 0
M  V30 3251 H 300.657 2.99146 -4.33381 0
M  V30 3252 H 303.148 1.80232 -3.32152 0
M  V30 3253 H 303.461 3.12405 -7.0684 0
M  V30 3254 H 301.806 2.8159 -6.35399 0
M  V30 3255 H 304.997 2.1581 -4.15384 0
M  V30 3256 H 305.17 2.76102 -5.86235 0
M  V30 3257 N 298.576 1.31904 0.862503 0
M  V30 3258 C 299.539 1.20131 1.95195 0
M  V30 3259 C 300.539 0.126409 1.60302 0
M  V30 3260 O 301.729 0.376234 1.70089 0
M  V30 3261 C 298.861 0.845691 3.30244 0
M  V30 3262 H 300.054 2.16943 2.07064 0
M  V30 3263 H 297.607 1.15622 1.05172 0
M  V30 3264 H 298.342 -0.120957 3.24074 0
M  V30 3265 H 298.127 1.62276 3.56944 0
M  V30 3266 H 299.617 0.787418 4.10109 0
M  V30 3267 N 300.054 -1.07777 1.14986 0
M  V30 3268 C 300.964 -2.18404 0.856546 0
M  V30 3269 C 301.98 -1.73211 -0.165485 0
M  V30 3270 O 303.156 -2.01399 0.00755219 0
M  V30 3271 C 300.221 -3.44977 0.34526 0
M  V30 3272 C 299.282 -4.0476 1.43065 0
M  V30 3273 C 298.515 -5.25291 0.943663 0
M  V30 3274 O 298.738 -5.70004 -0.212426 0
M  V30 3275 O 297.672 -5.76638 1.72547 0
M  V30 3276 H 301.498 -2.45978 1.78125 0
M  V30 3277 H 299.083 -1.17033 0.928631 0
M  V30 3278 H 300.965 -4.21348 0.0663671 0
M  V30 3279 H 299.64 -3.18965 -0.551631 0
M  V30 3280 H 298.547 -3.29949 1.76309 0
M  V30 3281 H 299.88 -4.35035 2.30229 0
M  V30 3282 N 301.532 -0.945985 -1.26051 0
M  V30 3283 C 302.779 -0.596118 -1.93527 0
M  V30 3284 C 303.107 0.865559 -1.74179 0
M  V30 3285 O 302.362 1.63524 -1.0751 0
M  V30 3286 C 302.661 -0.890475 -3.46129 0
M  V30 3287 C 302.327 -2.3368 -3.85622 0
M  V30 3288 C 300.989 -2.73216 -3.96114 0
M  V30 3289 C 303.341 -3.27648 -4.05334 0
M  V30 3290 C 300.669 -4.05806 -4.2372 0
M  V30 3291 C 303.021 -4.59841 -4.3443 0
M  V30 3292 C 301.685 -4.99185 -4.43137 0
M  V30 3293 H 300.955 -0.218135 -0.708165 0
M  V30 3294 H 303.602 -1.1934 -1.49768 0
M  V30 3295 H 301.907 -0.210711 -3.91233 0
M  V30 3296 H 303.604 -0.598478 -3.96509 0
M  V30 3297 H 300.194 -2.02015 -3.78005 0
M  V30 3298 H 304.378 -2.98298 -3.96651 0
M  V30 3299 H 299.634 -4.35945 -4.28675 0
M  V30 3300 H 303.808 -5.32641 -4.48628 0
M  V30 3301 H 301.435 -6.01952 -4.64282 0
M  V30 3302 N 303.011 1.40521 -0.713556 0
M  V30 3303 C 303.974 2.29098 -0.0684347 0
M  V30 3304 C 304.974 1.45268 0.689472 0
M  V30 3305 O 306.164 1.66205 0.521677 0
M  V30 3306 C 303.296 3.28446 0.913024 0
M  V30 3307 H 304.489 2.87645 -0.84855 0
M  V30 3308 H 302.042 1.48809 -0.47809 0
M  V30 3309 H 302.777 2.74913 1.72027 0
M  V30 3310 H 302.562 3.90327 0.372472 0
M  V30 3311 H 304.052 3.94777 1.36165 0
M  V30 3312 N 304.489 0.459591 1.5075 0
M  V30 3313 C 305.399 -0.34613 2.32033 0
M  V30 3314 C 306.415 -1.00686 1.41909 0
M  V30 3315 O 307.591 -0.997361 1.7497 0
M  V30 3316 C 304.656 -1.42029 3.16273 0
M  V30 3317 C 303.717 -0.777362 4.22203 0
M  V30 3318 C 302.95 -1.80034 5.02418 0
M  V30 3319 O 303.173 -3.02544 4.83553 0
M  V30 3320 O 302.107 -1.37853 5.85901 0
M  V30 3321 H 305.933 0.318054 3.0203 0
M  V30 3322 H 303.518 0.221663 1.47746 0
M  V30 3323 H 305.4 -2.04275 3.68578 0
M  V30 3324 H 304.075 -2.06815 2.49016 0
M  V30 3325 H 302.982 -0.116256 3.73919 0
M  V30 3326 H 304.315 -0.172634 4.91897 0
M  V30 3327 N 305.967 -1.56429 0.191757 0
M  V30 3328 C 307.383 -1.58754 -0.164137 0
M  V30 3329 C 307.583 -1.20782 -1.61288 0
M  V30 3330 O 306.639 -0.928999 -2.34789 0
M  V30 3331 C 307.952 -3.00396 0.135195 0
M  V30 3332 C 309.5 -3.1291 0.0750351 0
M  V30 3333 C 309.975 -4.56679 0.347632 0
M  V30 3334 N 311.466 -4.62252 0.296131 0
M  V30 3335 C 312.201 -5.71379 0.480948 0
M  V30 3336 N 311.697 -6.88986 0.725933 0
M  V30 3337 N 313.49 -5.60563 0.415435 0
M  V30 3338 H 305.641 -1.79393 1.13718 0
M  V30 3339 H 307.904 -0.832414 0.453643 0
M  V30 3340 H 307.61 -3.32726 1.13958 0
M  V30 3341 H 307.484 -3.72963 -0.563773 0
M  V30 3342 H 309.871 -2.80394 -0.919948 0
M  V30 3343 H 309.952 -2.42736 0.807029 0
M  V30 3344 H 309.596 -4.89907 1.33992 0
M  V30 3345 H 309.526 -5.25039 -0.405212 0
M  V30 3346 H 312.017 -3.7773 0.113259 0
M  V30 3347 H 312.33 -7.68046 0.855857 0
M  V30 3348 H 310.675 -6.90801 0.762788 0
M  V30 3349 H 313.866 -4.67561 0.224486 0
M  V30 3350 H 314.039 -6.45551 0.562889 0
M  V30 3351 N 307.445 0.0818655 -1.57387 0
M  V30 3352 C 308.673 0.796108 -1.9097 0
M  V30 3353 C 309.088 1.71626 -0.786757 0
M  V30 3354 O 308.445 1.80908 0.240513 0
M  V30 3355 C 308.496 1.59829 -3.24248 0
M  V30 3356 O 308.217 0.715131 -4.32224 0
M  V30 3357 C 309.718 2.41442 -3.7178 0
M  V30 3358 H 306.938 0.22691 -0.631469 0
M  V30 3359 H 309.482 0.0551439 -2.04426 0
M  V30 3360 H 307.637 2.29163 -3.12351 0
M  V30 3361 H 308.051 1.27205 -5.08841 0
M  V30 3362 H 309.525 2.932 -4.67694 0
M  V30 3363 H 310.002 3.2051 -3.00283 0
M  V30 3364 H 310.608 1.77283 -3.86589 0
M  V30 3365 N 308.923 1.53595 0.353017 0
M  V30 3366 C 310.169 1.70638 1.09593 0
M  V30 3367 C 310.502 0.463286 1.88593 0
M  V30 3368 O 309.777 -0.539597 1.86865 0
M  V30 3369 C 310.06 2.96406 2.04489 0
M  V30 3370 C 309.913 4.30901 1.29014 0
M  V30 3371 C 311.232 3.17812 3.0444 0
M  V30 3372 H 308.351 0.620913 0.397034 0
M  V30 3373 H 310.993 1.86254 0.375446 0
M  V30 3374 H 309.143 2.83223 2.65927 0
M  V30 3375 H 310.815 4.55917 0.702638 0
M  V30 3376 H 309.058 4.29741 0.592071 0
M  V30 3377 H 309.729 5.1506 1.98537 0
M  V30 3378 H 312.205 3.30263 2.53112 0
M  V30 3379 H 311.081 4.07223 3.6805 0
M  V30 3380 H 311.342 2.33669 3.75301 0
M  V30 3381 N 310.401 -0.613514 1.45168 0
M  V30 3382 C 311.364 -1.7065 1.53007 0
M  V30 3383 C 312.364 -1.5548 0.410184 0
M  V30 3384 O 313.554 -1.60656 0.673455 0
M  V30 3385 C 310.686 -3.09875 1.42093 0
M  V30 3386 H 311.879 -1.65068 2.50385 0
M  V30 3387 H 309.432 -0.828728 1.32521 0
M  V30 3388 H 310.167 -3.21039 0.458769 0
M  V30 3389 H 309.952 -3.22293 2.23315 0
M  V30 3390 H 311.442 -3.895 1.50598 0
M  V30 3391 N 311.879 -1.3236 -0.855495 0
M  V30 3392 C 312.826 -1.21225 -1.964 0
M  V30 3393 C 313.796 -0.0946204 -1.6583 0
M  V30 3394 O 314.981 -0.27002 -1.8888 0
M  V30 3395 C 312.121 -0.940419 -3.32039 0
M  V30 3396 C 311.234 -2.14276 -3.75113 0
M  V30 3397 C 310.369 -1.80648 -4.9954 0
M  V30 3398 C 309.408 -2.97208 -5.35102 0
M  V30 3399 N 308.545 -2.63678 -6.50706 0
M  V30 3400 H 313.385 -2.16042 -2.05255 0
M  V30 3401 H 310.922 -1.07451 -1.00463 0
M  V30 3402 H 312.88 -0.763311 -4.10158 0
M  V30 3403 H 311.51 -0.0290413 -3.22787 0
M  V30 3404 H 310.562 -2.43017 -2.92655 0
M  V30 3405 H 311.874 -3.01468 -3.97389 0
M  V30 3406 H 311.028 -1.59484 -5.85363 0
M  V30 3407 H 309.767 -0.906678 -4.79198 0
M  V30 3408 H 308.772 -3.19004 -4.47791 0
M  V30 3409 H 309.997 -3.87918 -5.57401 0
M  V30 3410 H 307.943 -1.76238 -6.31883 0
M  V30 3411 H 307.86 -3.444 -6.72997 0
M  V30 3412 H 309.128 -2.45942 -7.39684 0
M  V30 3413 N 313.357 1.07166 -1.15556 0
M  V30 3414 C 314.287 2.16403 -0.877046 0
M  V30 3415 C 315.268 1.69217 0.173111 0
M  V30 3416 O 316.453 1.94181 0.027084 0
M  V30 3417 C 313.583 3.45349 -0.367632 0
M  V30 3418 C 312.537 4.05995 -1.35468 0
M  V30 3419 C 311.863 5.30045 -0.704038 0
M  V30 3420 C 313.163 4.45804 -2.72132 0
M  V30 3421 H 314.857 2.39959 -1.79053 0
M  V30 3422 H 312.403 1.15325 -0.862331 0
M  V30 3423 H 314.356 4.21095 -0.160317 0
M  V30 3424 H 313.08 3.21385 0.581326 0
M  V30 3425 H 311.739 3.32296 -1.54839 0
M  V30 3426 H 311.387 5.02373 0.251128 0
M  V30 3427 H 311.087 5.71579 -1.36277 0
M  V30 3428 H 312.611 6.08495 -0.50654 0
M  V30 3429 H 314.025 5.12671 -2.56595 0
M  V30 3430 H 312.422 4.98296 -3.34397 0
M  V30 3431 H 313.492 3.57083 -3.28054 0
M  V30 3432 N 314.835 0.952656 1.25548 0
M  V30 3433 C 315.745 0.47782 2.29682 0
M  V30 3434 C 316.761 -0.453859 1.67977 0
M  V30 3435 O 317.937 -0.330587 1.98668 0
M  V30 3436 C 315.002 -0.238655 3.45878 0
M  V30 3437 C 314.063 0.730994 4.23031 0
M  V30 3438 C 313.296 0.0486165 5.33678 0
M  V30 3439 O 313.519 -1.16612 5.58353 0
M  V30 3440 O 312.453 0.733152 5.97418 0
M  V30 3441 H 316.279 1.34312 2.72386 0
M  V30 3442 H 313.864 0.719026 1.30959 0
M  V30 3443 H 315.746 -0.641774 4.16484 0
M  V30 3444 H 314.421 -1.07916 3.05181 0
M  V30 3445 H 313.328 1.18428 3.5486 0
M  V30 3446 H 314.661 1.53946 4.67506 0
M  V30 3447 N 316.313 -1.40141 0.720998 0
M  V30 3448 C 317.26 -2.30688 0.071919 0
M  V30 3449 C 318.23 -1.48476 -0.744584 0
M  V30 3450 O 319.415 -1.77201 -0.707423 0
M  V30 3451 C 316.555 -3.34724 -0.839855 0
M  V30 3452 C 315.668 -4.31998 -0.0122438 0
M  V30 3453 C 314.803 -5.23102 -0.923995 0
M  V30 3454 C 313.842 -6.12033 -0.0907969 0
M  V30 3455 N 312.979 -6.95537 -0.957718 0
M  V30 3456 H 317.819 -2.85628 0.849755 0
M  V30 3457 H 315.356 -1.40653 0.430726 0
M  V30 3458 H 317.314 -3.93618 -1.38279 0
M  V30 3459 H 315.944 -2.81274 -1.58381 0
M  V30 3460 H 314.996 -3.74841 0.64794 0
M  V30 3461 H 316.308 -4.94772 0.632595 0
M  V30 3462 H 315.462 -5.86953 -1.53527 0
M  V30 3463 H 314.201 -4.60615 -1.60264 0
M  V30 3464 H 313.206 -5.47207 0.533377 0
M  V30 3465 H 314.431 -6.76581 0.584428 0
M  V30 3466 H 312.377 -6.35633 -1.62192 0
M  V30 3467 H 312.294 -7.55099 -0.36904 0
M  V30 3468 H 313.562 -7.63832 -1.555 0
M  V30 3469 N 317.792 -0.46758 -1.50504 0
M  V30 3470 C 319.02 0.0864133 -2.06719 0
M  V30 3471 C 319.435 1.33819 -1.33184 0
M  V30 3472 O 318.792 1.78061 -0.400083 0
M  V30 3473 C 318.843 0.378079 -3.59517 0
M  V30 3474 O 318.564 -0.824044 -4.3028 0
M  V30 3475 C 320.065 0.979426 -4.32345 0
M  V30 3476 H 317.285 -0.00551697 -0.670977 0
M  V30 3477 H 319.829 -0.655354 -1.93715 0
M  V30 3478 H 317.984 1.06977 -3.72337 0
M  V30 3479 H 318.398 -0.566518 -5.21432 0
M  V30 3480 H 319.872 1.1333 -5.40241 0
M  V30 3481 H 320.349 1.9686 -3.9261 0
M  V30 3482 H 320.955 0.326216 -4.24047 0
M  V30 3483 N 319.27 1.56325 -0.20005 0
M  V30 3484 C 320.519 1.96895 0.437652 0
M  V30 3485 C 320.832 1.08999 1.62415 0
M  V30 3486 O 322.038 1.39372 2.32997 0
M  V30 3487 C 320.494 3.50198 0.830025 0
M  V30 3488 C 320.102 4.46765 -0.332461 0
M  V30 3489 C 321.846 3.99526 1.43453 0
M  V30 3490 C 319.753 5.91344 0.0811468 0
M  V30 3491 H 318.683 0.735209 0.167282 0
M  V30 3492 H 321.334 1.81148 -0.292853 0
M  V30 3493 H 319.716 3.61467 1.61734 0
M  V30 3494 H 320.89 4.47231 -1.11 0
M  V30 3495 H 319.205 4.07657 -0.848789 0
M  V30 3496 H 321.802 5.05025 1.75652 0
M  V30 3497 H 322.145 3.44122 2.34277 0
M  V30 3498 H 322.678 3.91393 0.71109 0
M  V30 3499 H 319.417 6.50685 -0.793033 0
M  V30 3500 H 318.937 5.94121 0.823445 0
M  V30 3501 H 320.616 6.44945 0.515252 0
M  V30 3502 N 320.748 -0.0735177 1.57428 0
M  V30 3503 C 322.025 -0.805903 1.78226 0
M  V30 3504 C 322.405 -1.95874 0.787189 0
M  V30 3505 O 321.753 -2.2779 -0.180029 0
M  V30 3506 C 321.963 -1.28045 3.24662 0
M  V30 3507 C 323.311 -1.71453 3.88444 0
M  V30 3508 O 324.335 -1.37616 3.28543 0
M  V30 3509 O 323.194 -2.34093 4.93825 0
M  V30 3510 H 320.288 -0.386041 0.73137 0
M  V30 3511 H 322.834 -0.0537269 1.69615 0
M  V30 3512 H 321.606 -0.455476 3.8864 0
M  V30 3513 H 321.229 -2.094 3.37991 0
M  V30 3514 N 322.226 -1.5378 -0.344866 0
M  V30 3515 C 323.503 -1.61589 -1.10219 0
M  V30 3516 C 323.883 -0.436316 -2.06542 0
M  V30 3517 O 323.231 0.571543 -2.21237 0
M  V30 3518 C 323.441 -2.97602 -1.82301 0
M  V30 3519 C 324.789 -3.5291 -2.36093 0
M  V30 3520 O 325.813 -2.99768 -1.924 0
M  V30 3521 O 324.672 -4.45859 -3.16026 0
M  V30 3522 H 321.766 -0.653522 -0.506792 0
M  V30 3523 H 324.312 -1.66126 -0.346465 0
M  V30 3524 H 323.084 -3.74893 -1.12121 0
M  V30 3525 H 322.707 -2.9665 -2.64735 0
M  V30 3526 N 323.704 0.605807 -1.45491 0
M  V30 3527 C 324.634 1.72709 -1.57143 0
M  V30 3528 C 325.615 1.6476 -0.422884 0
M  V30 3529 O 326.8 1.83132 -0.646247 0
M  V30 3530 C 323.93 3.11316 -1.53948 0
M  V30 3531 C 322.884 3.34077 -2.67537 0
M  V30 3532 C 322.21 4.72975 -2.49397 0
M  V30 3533 C 323.51 3.24158 -4.09535 0
M  V30 3534 H 325.204 1.63214 -2.51001 0
M  V30 3535 H 322.75 0.78379 -1.208 0
M  V30 3536 H 324.703 3.89557 -1.60696 0
M  V30 3537 H 323.427 3.21655 -0.566205 0
M  V30 3538 H 322.086 2.58227 -2.6022 0
M  V30 3539 H 321.734 4.8005 -1.50205 0
M  V30 3540 H 321.434 4.8916 -3.25571 0
M  V30 3541 H 322.958 5.53414 -2.58002 0
M  V30 3542 H 324.372 3.92271 -4.18086 0
M  V30 3543 H 322.769 3.51872 -4.86113 0
M  V30 3544 H 323.839 2.2157 -4.31317 0
M  V30 3545 N 325.182 1.32811 0.848464 0
M  V30 3546 C 326.092 1.24278 1.98978 0
M  V30 3547 C 327.108 0.155176 1.73307 0
M  V30 3548 O 328.284 0.376999 1.9784 0
M  V30 3549 C 325.349 0.972444 3.32783 0
M  V30 3550 C 324.41 2.14911 3.71634 0
M  V30 3551 C 323.643 1.89157 4.99054 0
M  V30 3552 O 323.866 0.837165 5.64223 0
M  V30 3553 O 322.8 2.75433 5.35183 0
M  V30 3554 H 326.626 2.20238 2.09115 0
M  V30 3555 H 324.211 1.12762 0.980052 0
M  V30 3556 H 326.093 0.838432 4.12975 0
M  V30 3557 H 324.768 0.043051 3.23671 0
M  V30 3558 H 323.675 2.33862 2.91992 0
M  V30 3559 H 325.008 3.06151 3.85399 0
M  V30 3560 N 326.66 -1.06551 1.16123 0
M  V30 3561 C 327.57 -2.17484 0.879662 0
M  V30 3562 C 328.586 -1.73377 -0.147104 0
M  V30 3563 O 329.762 -2.01379 0.0289128 0
M  V30 3564 C 326.827 -3.44591 0.381829 0
M  V30 3565 C 325.888 -4.0322 1.4735 0
M  V30 3566 C 325.121 -5.24261 0.999324 0
M  V30 3567 O 325.344 -5.70198 -0.151957 0
M  V30 3568 O 324.278 -5.74775 1.78653 0
M  V30 3569 H 328.104 -2.44075 1.80724 0
M  V30 3570 H 325.689 -1.16042 0.940992 0
M  V30 3571 H 327.571 -4.21254 0.111053 0
M  V30 3572 H 326.246 -3.19532 -0.51777 0
M  V30 3573 H 325.153 -3.2806 1.79798 0
M  V30 3574 H 326.486 -4.32568 2.34831 0
M  V30 3575 N 328.138 -0.959301 -1.25041 0
M  V30 3576 C 329.085 -0.482057 -2.2571 0
M  V30 3577 C 330.055 0.467939 -1.59372 0
M  V30 3578 O 331.24 0.380159 -1.86974 0
M  V30 3579 C 328.38 0.229623 -3.44335 0
M  V30 3580 C 327.493 -0.758156 -4.25295 0
M  V30 3581 C 326.628 -0.0234403 -5.31195 0
M  V30 3582 C 325.667 -1.00184 -6.03846 0
M  V30 3583 N 324.804 -0.29769 -7.01469 0
M  V30 3584 H 329.644 -1.34538 -2.65901 0
M  V30 3585 H 327.181 -0.674592 -1.3072 0
M  V30 3586 H 329.139 0.658856 -4.11965 0
M  V30 3587 H 327.769 1.05696 -3.05005 0
M  V30 3588 H 326.821 -1.30586 -3.57284 0
M  V30 3589 H 328.133 -1.50458 -4.75567 0
M  V30 3590 H 327.287 0.464201 -6.04922 0
M  V30 3591 H 326.026 0.755741 -4.81809 0
M  V30 3592 H 325.031 -1.50044 -5.2893 0
M  V30 3593 H 326.256 -1.78133 -6.55321 0
M  V30 3594 H 324.202 0.462668 -6.54366 0
M  V30 3595 H 324.119 -0.983128 -7.4958 0
M  V30 3596 H 325.387 0.16826 -7.79318 0
M  V30 3597 N 329.616 1.39756 -0.72842 0
M  V30 3598 C 330.546 2.33289 -0.0991354 0
M  V30 3599 C 331.527 1.53568 0.731489 0
M  V30 3600 O 332.712 1.81987 0.677807 0
M  V30 3601 C 329.842 3.3763 0.813834 0
M  V30 3602 C 328.796 4.2791 0.0878663 0
M  V30 3603 C 328.122 5.22894 1.11741 0
M  V30 3604 C 329.422 5.11314 -1.06563 0
M  V30 3605 H 331.116 2.86163 -0.880408 0
M  V30 3606 H 328.662 1.37591 -0.424819 0
M  V30 3607 H 330.615 4.0201 1.26355 0
M  V30 3608 H 329.339 2.83181 1.62715 0
M  V30 3609 H 327.998 3.65 -0.342159 0
M  V30 3610 H 327.646 4.64744 1.92412 0
M  V30 3611 H 327.346 5.84143 0.636477 0
M  V30 3612 H 328.87 5.90151 1.56697 0
M  V30 3613 H 330.284 5.69076 -0.694671 0
M  V30 3614 H 328.681 5.81671 -1.47577 0
M  V30 3615 H 329.751 4.46534 -1.89038 0
M  V30 3616 N 331.094 0.475555 1.50254 0
M  V30 3617 C 332.057 -0.305016 2.27161 0
M  V30 3618 C 333.057 -0.916519 1.32123 0
M  V30 3619 O 334.247 -0.785003 1.5551 0
M  V30 3620 C 331.379 -1.43496 3.09227 0
M  V30 3621 H 332.572 0.369511 2.97615 0
M  V30 3622 H 330.125 0.229747 1.54602 0
M  V30 3623 H 330.86 -2.14441 2.43281 0
M  V30 3624 H 330.645 -1.00223 3.79075 0
M  V30 3625 H 332.135 -1.98548 3.67381 0
M  V30 3626 N 332.573 -1.56217 0.208337 0
M  V30 3627 C 333.505 -2.1695 -0.739276 0
M  V30 3628 C 334.518 -1.13492 -1.1672 0
M  V30 3629 O 335.707 -1.40529 -1.10063 0
M  V30 3630 C 332.807 -2.72755 -2.01142 0
M  V30 3631 C 331.98 -4.0125 -1.74118 0
M  V30 3632 C 331.039 -4.41749 -2.85909 0
M  V30 3633 O 330.065 -5.08912 -2.54946 0
M  V30 3634 N 331.267 -4.06342 -4.14568 0
M  V30 3635 H 334.032 -2.98893 -0.219837 0
M  V30 3636 H 331.593 -1.61878 0.0268445 0
M  V30 3637 H 333.585 -2.96826 -2.75094 0
M  V30 3638 H 332.155 -1.95191 -2.4417 0
M  V30 3639 H 331.375 -3.85173 -0.838775 0
M  V30 3640 H 332.663 -4.851 -1.53477 0
M  V30 3641 H 332.061 -3.52345 -4.42571 0
M  V30 3642 H 330.618 -4.35335 -4.85105 0
M  V30 3643 N 334.051 0.0651679 -1.57465 0
M  V30 3644 C 335.014 1.06117 -2.03155 0
M  V30 3645 C 336.014 1.31204 -0.929632 0
M  V30 3646 O 337.204 1.26813 -1.19432 0
M  V30 3647 C 334.336 2.4032 -2.41783 0
M  V30 3648 H 335.529 0.667231 -2.92383 0
M  V30 3649 H 333.082 0.311075 -1.53173 0
M  V30 3650 H 333.817 2.84532 -1.55601 0
M  V30 3651 H 333.602 2.23451 -3.22199 0
M  V30 3652 H 335.092 3.11898 -2.77685 0
M  V30 3653 N 335.529 1.53961 0.336706 0
M  V30 3654 C 336.476 1.82428 1.41381 0
M  V30 3655 C 337.446 0.670444 1.51968 0
M  V30 3656 O 338.631 0.915565 1.67398 0
M  V30 3657 C 335.771 2.04564 2.77934 0
M  V30 3658 C 334.884 3.32267 2.76084 0
M  V30 3659 C 334.019 3.44434 4.04399 0
M  V30 3660 C 333.058 4.66061 3.96804 0
M  V30 3661 N 332.195 4.75224 5.16823 0
M  V30 3662 H 337.035 2.74324 1.16405 0
M  V30 3663 H 334.572 1.35869 0.563752 0
M  V30 3664 H 336.53 2.15388 3.57301 0
M  V30 3665 H 335.16 1.15974 3.01247 0
M  V30 3666 H 334.212 3.3025 1.88784 0
M  V30 3667 H 335.524 4.21733 2.66351 0
M  V30 3668 H 334.678 3.54728 4.92192 0
M  V30 3669 H 333.417 2.53037 4.16921 0
M  V30 3670 H 332.422 4.55838 3.07396 0
M  V30 3671 H 333.647 5.58829 3.85858 0
M  V30 3672 H 331.593 3.86739 5.29876 0
M  V30 3673 H 331.51 5.58636 5.09374 0
M  V30 3674 H 332.778 4.89835 6.06367 0
M  V30 3675 N 337.007 -0.598083 1.45811 0
M  V30 3676 C 337.917 -1.73632 1.57763 0
M  V30 3677 C 338.933 -1.67763 0.461676 0
M  V30 3678 O 340.109 -1.87949 0.723685 0
M  V30 3679 C 337.174 -3.10114 1.55018 0
M  V30 3680 C 336.235 -3.27364 2.77726 0
M  V30 3681 C 335.468 -4.57334 2.75102 0
M  V30 3682 O 335.691 -5.40258 1.8297 0
M  V30 3683 O 334.625 -4.77502 3.66437 0
M  V30 3684 H 338.451 -1.66498 2.53992 0
M  V30 3685 H 336.036 -0.763308 1.28429 0
M  V30 3686 H 337.918 -3.9141 1.56129 0
M  V30 3687 H 336.593 -3.17718 0.619431 0
M  V30 3688 H 335.5 -2.45619 2.82174 0
M  V30 3689 H 336.833 -3.24641 3.69958 0
M  V30 3690 N 338.485 -1.33259 -0.841409 0
M  V30 3691 C 339.395 -1.25332 -1.98316 0
M  V30 3692 C 340.411 -0.164364 -1.73222 0
M  V30 3693 O 341.587 -0.387486 -1.97637 0
M  V30 3694 C 338.652 -0.990078 -3.32262 0
M  V30 3695 C 337.713 -2.16879 -3.70489 0
M  V30 3696 C 336.946 -1.91801 -4.98044 0
M  V30 3697 O 337.169 -0.867075 -5.63771 0
M  V30 3698 O 336.103 -2.78267 -5.33714 0
M  V30 3699 H 339.929 -2.21344 -2.07944 0
M  V30 3700 H 337.514 -1.1328 -0.974058 0
M  V30 3701 H 339.396 -0.860321 -4.12524 0
M  V30 3702 H 338.071 -0.0602155 -3.23644 0
M  V30 3703 H 336.978 -2.35407 -2.90748 0
M  V30 3704 H 338.311 -3.0819 -3.8377 0
M  V30 3705 N 339.963 1.05934 -1.16686 0
M  V30 3706 C 340.911 2.15603 -0.872817 0
M  V30 3707 C 341.905 1.68647 0.159576 0
M  V30 3708 O 343.111 1.79995 0.0132125 0
M  V30 3709 H 339.486 0.703885 -0.264671 0
M  V30 3710 H 341.457 2.37613 -1.80507 0
M  V30 3711 C 340.206 3.45457 -0.394344 0
M  V30 3712 H 339.529 3.81984 -1.18019 0
M  V30 3713 H 340.969 4.2339 -0.227408 0
M  V30 3714 C 339.428 3.25021 0.88673 0
M  V30 3715 O 339.958 3.50906 1.95519 0
M  V30 3716 N 338.164 2.78437 0.831925 0
M  V30 3717 H 337.711 2.57572 -0.0377619 0
M  V30 3718 H 337.669 2.65144 1.68956 0
M  V30 3719 N 341.441 0.965919 1.2453 0
M  V30 3720 C 342.687 0.62776 1.92839 0
M  V30 3721 C 343.02 -0.834694 1.75347 0
M  V30 3722 O 342.295 -1.60031 1.10546 0
M  V30 3723 C 342.578 1.00109 3.45905 0
M  V30 3724 C 342.431 2.52011 3.72573 0
M  V30 3725 C 343.75 0.53435 4.36844 0
M  V30 3726 H 340.869 0.229537 0.700344 0
M  V30 3727 H 343.511 1.2046 1.46933 0
M  V30 3728 H 341.661 0.510238 3.85135 0
M  V30 3729 H 343.333 3.08559 3.42912 0
M  V30 3730 H 341.576 2.95287 3.17786 0
M  V30 3731 H 342.247 2.73183 4.79661 0
M  V30 3732 H 344.723 0.955565 4.04979 0
M  V30 3733 H 343.599 0.824152 5.42678 0
M  V30 3734 H 343.86 -0.565589 4.38467 0
M  V30 3735 N 342.919 -1.39368 0.735821 0
M  V30 3736 C 344.167 -2.00101 0.283562 0
M  V30 3737 C 344.488 -1.5868 -1.13338 0
M  V30 3738 O 343.758 -0.835423 -1.77193 0
M  V30 3739 H 342.338 -0.740024 0.101851 0
M  V30 3740 H 345 -1.70404 0.945962 0
M  V30 3741 H 344.096 -3.10323 0.332604 0
M  V30 3742 N 344.397 -0.483516 -1.5 0
M  V30 3743 C 345.327 0.293829 -2.31644 0
M  V30 3744 C 346.308 0.978864 -1.39112 0
M  V30 3745 O 347.493 0.973644 -1.68029 0
M  V30 3746 C 344.623 1.36897 -3.19181 0
M  V30 3747 C 343.577 0.804833 -4.20365 0
M  V30 3748 C 342.903 1.9792 -4.96721 0
M  V30 3749 C 344.203 -0.192313 -5.21946 0
M  V30 3750 H 345.897 -0.387616 -2.9688 0
M  V30 3751 H 343.443 -0.187856 -1.42769 0
M  V30 3752 H 345.396 1.92037 -3.751 0
M  V30 3753 H 344.12 2.07936 -2.51853 0
M  V30 3754 H 342.779 0.275319 -3.65565 0
M  V30 3755 H 342.427 2.67686 -4.25856 0
M  V30 3756 H 342.127 1.60789 -5.65173 0
M  V30 3757 H 343.651 2.53526 -5.55479 0
M  V30 3758 H 345.065 0.270333 -5.72662 0
M  V30 3759 H 343.462 -0.478543 -5.98189 0
M  V30 3760 H 344.532 -1.11409 -4.71928 0
M  V30 3761 N 345.875 1.56104 -0.216619 0
M  V30 3762 C 346.825 2.16703 0.708798 0
M  V30 3763 C 347.809 1.11392 1.16106 0
M  V30 3764 O 349.001 1.37395 1.11587 0
M  V30 3765 C 346.13 2.84666 1.91886 0
M  V30 3766 C 345.216 3.97195 1.48651 0
M  V30 3767 N 345.607 4.99959 0.766434 0
M  V30 3768 C 343.905 4.09193 1.77418 0
M  V30 3769 C 344.606 5.79126 0.546659 0
M  V30 3770 N 343.582 5.32315 1.10188 0
M  V30 3771 H 347.384 2.93516 0.150162 0
M  V30 3772 H 344.898 1.6239 -0.0176768 0
M  V30 3773 H 346.895 3.26486 2.59253 0
M  V30 3774 H 345.555 2.09347 2.48202 0
M  V30 3775 H 346.566 5.16197 0.419634 0
M  V30 3776 H 343.243 3.45021 2.35088 0
M  V30 3777 H 344.633 6.71895 -0.026103 0
M  V30 3778 N 347.353 -0.0568162 1.57498 0
M  V30 3779 C 348.285 -1.09292 2.01464 0
M  V30 3780 C 349.298 -1.34112 0.922913 0
M  V30 3781 O 350.487 -1.32089 1.20062 0
M  V30 3782 C 347.587 -2.44068 2.35125 0
M  V30 3783 C 346.76 -2.38995 3.66333 0
M  V30 3784 C 345.819 -3.55997 3.87495 0
M  V30 3785 O 344.845 -3.36746 4.58901 0
M  V30 3786 N 346.047 -4.76888 3.30996 0
M  V30 3787 H 348.812 -0.718386 2.90963 0
M  V30 3788 H 346.373 -0.245235 1.60032 0
M  V30 3789 H 348.365 -3.21011 2.46443 0
M  V30 3790 H 346.935 -2.73468 1.5144 0
M  V30 3791 H 346.155 -1.47336 3.65631 0
M  V30 3792 H 347.443 -2.3272 4.52458 0
M  V30 3793 H 346.841 -4.95431 2.73065 0
M  V30 3794 H 345.398 -5.51291 3.47738 0
M  V30 3795 N 348.832 -1.54138 -0.328536 0
M  V30 3796 C 350.06 -1.76062 -1.08673 0
M  V30 3797 C 350.475 -0.506852 -1.81869 0
M  V30 3798 O 349.832 0.522223 -1.74869 0
M  V30 3799 C 349.883 -2.95054 -2.08866 0
M  V30 3800 O 349.604 -4.15583 -1.38644 0
M  V30 3801 C 351.105 -3.2915 -2.96943 0
M  V30 3802 H 348.325 -0.587889 -0.323461 0
M  V30 3803 H 350.869 -2.0101 -0.376175 0
M  V30 3804 H 349.024 -2.72394 -2.75464 0
M  V30 3805 H 349.438 -4.82481 -2.05699 0
M  V30 3806 H 350.912 -4.15723 -3.63151 0
M  V30 3807 H 351.389 -2.461 -3.63774 0
M  V30 3808 H 351.995 -3.53871 -2.35914 0
M  V30 3809 N 350.31 0.590341 -1.46126 0
M  V30 3810 C 351.24 1.71032 -1.58966 0
M  V30 3811 C 352.221 1.64302 -0.440335 0
M  V30 3812 O 353.406 1.82436 -0.665634 0
M  V30 3813 C 350.536 3.09665 -1.57241 0
M  V30 3814 C 349.49 3.31221 -2.71066 0
M  V30 3815 C 348.816 4.70303 -2.54399 0
M  V30 3816 C 350.116 3.19796 -4.1295 0
M  V30 3817 H 351.81 1.60543 -2.52718 0
M  V30 3818 H 349.356 0.770933 -1.21625 0
M  V30 3819 H 351.309 3.87831 -1.64819 0
M  V30 3820 H 350.033 3.21036 -0.600289 0
M  V30 3821 H 348.692 2.55452 -2.62944 0
M  V30 3822 H 348.34 4.78429 -1.55288 0
M  V30 3823 H 348.04 4.85679 -3.30741 0
M  V30 3824 H 349.564 5.50647 -2.63857 0
M  V30 3825 H 350.978 3.87815 -4.22223 0
M  V30 3826 H 349.375 3.46696 -4.89818 0
M  V30 3827 H 350.445 2.16983 -4.33643 0
M  V30 3828 N 351.788 1.33704 0.83433 0
M  V30 3829 C 353.065 1.16011 1.57483 0
M  V30 3830 C 353.445 -0.27176 2.09343 0
M  V30 3831 O 352.793 -1.27146 1.89858 0
M  V30 3832 C 353.003 2.20507 2.70514 0
M  V30 3833 C 354.351 2.54898 3.39577 0
M  V30 3834 O 355.375 2.19209 2.80759 0
M  V30 3835 O 354.234 3.16158 4.45765 0
M  V30 3836 H 351.328 0.448992 0.694503 0
M  V30 3837 H 353.874 1.453 0.876691 0
M  V30 3838 H 352.646 3.16667 2.29865 0
M  V30 3839 H 352.269 1.92329 3.47987 0
M  V30 3840 N 353.266 -1.05314 1.17247 0
M  V30 3841 C 354.198 -2.13023 0.845812 0
M  V30 3842 C 355.211 -1.62096 -0.151246 0
M  V30 3843 O 356.4 -1.78343 0.0748818 0
M  V30 3844 C 353.5 -3.38047 0.240292 0
M  V30 3845 C 352.673 -4.18255 1.27991 0
M  V30 3846 C 351.732 -5.21625 0.692375 0
M  V30 3847 O 350.758 -5.52619 1.36385 0
M  V30 3848 N 351.96 -5.78201 -0.516178 0
M  V30 3849 H 354.725 -2.41642 1.77283 0
M  V30 3850 H 352.286 -1.21401 1.07115 0
M  V30 3851 H 354.278 -4.04359 -0.16603 0
M  V30 3852 H 352.848 -3.06972 -0.590487 0
M  V30 3853 H 352.068 -3.47451 1.86203 0
M  V30 3854 H 353.356 -4.68643 1.98119 0
M  V30 3855 H 352.754 -5.55301 -1.07969 0
M  V30 3856 H 351.311 -6.4604 -0.86458 0
M  V30 3857 N 354.744 -0.972509 -1.24016 0
M  V30 3858 C 355.972 -0.654803 -1.96265 0
M  V30 3859 C 356.387 0.776708 -1.72083 0
M  V30 3860 O 355.744 1.52171 -1.00748 0
M  V30 3861 C 355.795 -0.92592 -3.49441 0
M  V30 3862 O 355.516 -2.30116 -3.72798 0
M  V30 3863 C 357.017 -0.623068 -4.38899 0
M  V30 3864 H 354.237 -0.243907 -0.6251 0
M  V30 3865 H 356.781 -1.30175 -1.57717 0
M  V30 3866 H 354.936 -0.325108 -3.86033 0
M  V30 3867 H 355.35 -2.38483 -4.67147 0
M  V30 3868 H 356.824 -0.863189 -5.45209 0
M  V30 3869 H 357.301 0.442754 -4.36963 0
M  V30 3870 H 357.907 -1.204 -4.07902 0
M  V30 3871 N 356.222 1.38976 -0.743202 0
M  V30 3872 C 357.152 2.33171 -0.123873 0
M  V30 3873 C 358.133 1.54336 0.71516 0
M  V30 3874 O 359.318 1.82696 0.658467 0
M  V30 3875 C 356.448 3.38474 0.777978 0
M  V30 3876 C 355.402 4.27979 0.0424758 0
M  V30 3877 C 354.728 5.2405 1.06189 0
M  V30 3878 C 356.028 5.10155 -1.1198 0
M  V30 3879 H 357.722 2.85213 -0.910709 0
M  V30 3880 H 355.268 1.37133 -0.439388 0
M  V30 3881 H 357.221 4.03328 1.22084 0
M  V30 3882 H 355.945 2.84891 1.59702 0
M  V30 3883 H 354.604 3.64616 -0.380853 0
M  V30 3884 H 354.252 4.66758 1.87472 0
M  V30 3885 H 353.952 5.84785 0.574485 0
M  V30 3886 H 355.476 5.9178 1.50428 0
M  V30 3887 H 356.89 5.68307 -0.75499 0
M  V30 3888 H 355.287 5.80073 -1.53738 0
M  V30 3889 H 356.357 4.44504 -1.93764 0
M  V30 3890 N 357.7 0.491464 1.49741 0
M  V30 3891 C 358.648 -0.305837 2.30581 0
M  V30 3892 C 359.642 -0.971642 1.38764 0
M  V30 3893 O 360.848 -0.90042 1.5586 0
M  V30 3894 H 357.223 -0.117482 0.742767 0
M  V30 3895 H 359.194 0.396093 2.95759 0
M  V30 3896 C 357.943 -1.36319 3.19863 0
M  V30 3897 H 357.266 -0.860258 3.90435 0
M  V30 3898 H 358.706 -1.89323 3.79385 0
M  V30 3899 C 357.165 -2.37621 2.38826 0
M  V30 3900 O 357.695 -3.43311 2.08567 0
M  V30 3901 N 355.901 -2.09849 2.01026 0
M  V30 3902 H 355.448 -1.23922 2.25834 0
M  V30 3903 H 355.406 -2.77859 1.47112 0
M  V30 3904 N 359.178 -1.55987 0.224894 0
M  V30 3905 C 360.088 -2.24066 -0.69511 0
M  V30 3906 C 361.104 -1.24939 -1.21104 0
M  V30 3907 O 362.28 -1.5776 -1.25195 0
M  V30 3908 C 359.345 -2.90983 -1.88493 0
M  V30 3909 C 358.406 -4.05462 -1.41064 0
M  V30 3910 C 357.639 -4.69179 -2.54375 0
M  V30 3911 O 357.862 -4.31895 -3.72589 0
M  V30 3912 O 356.796 -5.58108 -2.25386 0
M  V30 3913 H 360.622 -3.03353 -0.145149 0
M  V30 3914 H 358.207 -1.49399 -0.00569476 0
M  V30 3915 H 360.089 -3.33209 -2.57972 0
M  V30 3916 H 358.764 -2.14653 -2.42293 0
M  V30 3917 H 357.671 -3.67798 -0.683774 0
M  V30 3918 H 359.004 -4.83545 -0.918985 0
M  V30 3919 N 360.656 0.0484629 -1.57525 0
M  V30 3920 C 361.586 1.0549 -2.08313 0
M  V30 3921 C 362.567 1.38929 -0.981463 0
M  V30 3922 O 363.752 1.48151 -1.25558 0
M  V30 3923 C 360.882 2.36162 -2.54646 0
M  V30 3924 C 359.836 2.17016 -3.68901 0
M  V30 3925 C 359.162 3.53278 -4.01371 0
M  V30 3926 C 360.462 1.57219 -4.98076 0
M  V30 3927 H 362.156 0.632195 -2.92649 0
M  V30 3928 H 359.702 0.302654 -1.40784 0
M  V30 3929 H 361.655 3.06882 -2.88793 0
M  V30 3930 H 360.379 2.80456 -1.67368 0
M  V30 3931 H 359.038 1.48733 -3.35073 0
M  V30 3932 H 358.686 3.95185 -3.11188 0
M  V30 3933 H 358.386 3.41299 -4.78318 0
M  V30 3934 H 359.91 4.25391 -4.38035 0
M  V30 3935 H 361.324 2.17832 -5.30304 0
M  V30 3936 H 359.721 1.55871 -5.79503 0
M  V30 3937 H 360.791 0.535956 -4.81929 0
M  V30 3938 N 362.134 1.5431 0.320358 0
M  V30 3939 C 363.082 1.84647 1.4145 0
M  V30 3940 C 364.076 0.718624 1.53402 0
M  V30 3941 O 365.282 0.902335 1.5575 0
M  V30 3942 H 361.657 0.585349 0.472091 0
M  V30 3943 H 363.628 2.7614 1.13089 0
M  V30 3944 C 362.377 2.09341 2.77617 0
M  V30 3945 H 361.7 2.9559 2.69196 0
M  V30 3946 H 363.14 2.3452 3.53237 0
M  V30 3947 C 361.599 0.885939 3.25043 0
M  V30 3948 O 362.129 0.0967891 4.01583 0
M  V30 3949 N 360.335 0.696682 2.82125 0
M  V30 3950 H 359.882 1.34006 2.2 0
M  V30 3951 H 359.84 -0.109712 3.14209 0
M  V30 3952 N 363.613 -0.582584 1.46437 0
M  V30 3953 C 364.853 -1.35184 1.53312 0
M  V30 3954 C 365.217 -1.9115 0.180508 0
M  V30 3955 O 366.418 -2.68514 0.124017 0
M  V30 3956 C 364.689 -2.45089 2.60127 0
M  V30 3957 S 366.248 -3.32439 2.86408 0
M  V30 3958 H 363.066 -0.460559 0.54167 0
M  V30 3959 H 365.668 -0.669709 1.83671 0
M  V30 3960 H 364.372 -2.02366 3.57038 0
M  V30 3961 H 363.903 -3.18074 2.315 0
M  V30 3962 H 365.918 -4.43924 2.21688 0
M  V30 3963 N 365.091 -1.34144 -0.827227 0
M  V30 3964 C 366.34 -1.25602 -1.5782 0
M  V30 3965 C 366.653 0.173445 -1.94829 0
M  V30 3966 O 367.859 0.380984 -2.68814 0
M  V30 3967 C 366.315 -2.20151 -2.84713 0
M  V30 3968 C 365.923 -3.68331 -2.55021 0
M  V30 3969 C 367.667 -2.20508 -3.62735 0
M  V30 3970 C 365.574 -4.54762 -3.78082 0
M  V30 3971 H 364.504 -0.466573 -0.592306 0
M  V30 3972 H 367.155 -1.59283 -0.911116 0
M  V30 3973 H 365.537 -1.79417 -3.53023 0
M  V30 3974 H 366.711 -4.17577 -1.94849 0
M  V30 3975 H 365.026 -3.7038 -1.90283 0
M  V30 3976 H 367.623 -2.82306 -4.54101 0
M  V30 3977 H 367.966 -1.20322 -3.98533 0
M  V30 3978 H 368.499 -2.59664 -3.01362 0
M  V30 3979 H 365.238 -5.55867 -3.47407 0
M  V30 3980 H 364.758 -4.10254 -4.37552 0
M  V30 3981 H 366.437 -4.69153 -4.45538 0
M  V30 3982 O 366.608 0.965494 -1.29462 0
M  V30 3983 H 367.299 1.59208 -1.10329 0
M  V30 END ATOM
M  V30 BEGIN BOND
M  V30 END BOND
M  V30 END CTAB
M  END
$$$$
