drugbank_target|P68104 Elongation factor 1-alpha 1 (DB01593; DB04315; DB09130; DB11638; DB14487; DB14533; DB14548)
 OpenBabel12092120543D

  0  0  0     0  0            999 V3000
M  V30 BEGIN CTAB
M  V30 COUNTS 7123 7193 0 0 0
M  V30 BEGIN ATOM
M  V30 1 H -0.908 1.98254 -0.117106 0
M  V30 2 N 0 1.576 0 0
M  V30 3 C 0.933 2.03868 1.02534 0
M  V30 4 C 1.911 0.928543 1.3348 0
M  V30 5 O 3.095 1.19667 1.45644 0
M  V30 6 C 0.222 2.43627 2.35294 0
M  V30 7 C -0.732 3.65373 2.2001 0
M  V30 8 S 0.101 5.13292 1.52614 0
M  V30 9 C 1.257 5.56322 2.86805 0
M  V30 10 H 1.49 2.90518 0.631377 0
M  V30 11 H -0.977 1.52953 0.210867 0
M  V30 12 H 0.981 2.67203 3.11629 0
M  V30 13 H -0.358 1.57376 2.7183 0
M  V30 14 H -1.165 3.90944 3.18086 0
M  V30 15 H -1.563 3.418 1.51819 0
M  V30 16 H 0.729 5.58782 3.83104 0
M  V30 17 H 1.672 6.56266 2.65933 0
M  V30 18 H 2.08 4.83886 2.90714 0
M  V30 19 N 1.4781 -0.272755 1.55222 0
M  V30 20 C 2.7261 -1.00234 1.75492 0
M  V30 21 C 3.0471 -1.8681 0.5592 0
M  V30 22 O 2.3171 -1.91215 -0.425882 0
M  V30 23 H 0.8971 -0.373076 0.647166 0
M  V30 24 H 3.5591 -0.296926 1.92625 0
M  V30 25 H 2.6551 -1.63913 2.65592 0
M  V30 26 N 2.9562 -1.48159 -0.537278 0
M  V30 27 C 3.9032 -1.62138 -1.64256 0
M  V30 28 C 4.8732 -0.463668 -1.59497 0
M  V30 29 O 6.0582 -0.686241 -1.78032 0
M  V30 30 C 3.1982 -1.66028 -3.02537 0
M  V30 31 C 2.3112 -2.92855 -3.17585 0
M  V30 32 C 1.4462 -2.87952 -4.46382 0
M  V30 33 C 0.4852 -4.09516 -4.54932 0
M  V30 34 N -0.3778 -4.02733 -5.75109 0
M  V30 35 H 4.4622 -2.56529 -1.51647 0
M  V30 36 H 1.9992 -1.27224 -0.738414 0
M  V30 37 H 3.9572 -1.66265 -3.82638 0
M  V30 38 H 2.5872 -0.751331 -3.13934 0
M  V30 39 H 1.6392 -3.02395 -2.30784 0
M  V30 40 H 2.9512 -3.82822 -3.19764 0
M  V30 41 H 2.1052 -2.8655 -5.34765 0
M  V30 42 H 0.8442 -1.95702 -4.46712 0
M  V30 43 H -0.1508 -4.11201 -3.64957 0
M  V30 44 H 1.0742 -5.02917 -4.56346 0
M  V30 45 H -0.9798 -3.13299 -5.76351 0
M  V30 46 H -1.0628 -4.86397 -5.78752 0
M  V30 47 H 0.2052 -4.05379 -6.65799 0
M  V30 48 N 4.4343 0.785586 -1.36625 0
M  V30 49 C 5.3443 1.92964 -1.33425 0
M  V30 50 C 6.3603 1.72394 -0.235851 0
M  V30 51 O 7.5363 1.95866 -0.468878 0
M  V30 52 C 4.6013 3.27884 -1.12662 0
M  V30 53 C 3.6623 3.61204 -2.32013 0
M  V30 54 C 2.8953 4.89687 -2.12231 0
M  V30 55 O 3.1183 5.59704 -1.09945 0
M  V30 56 O 2.0523 5.21752 -3.00098 0
M  V30 57 H 5.8783 1.98613 -2.29753 0
M  V30 58 H 3.4633 0.926384 -1.17211 0
M  V30 59 H 5.3453 4.08614 -1.03016 0
M  V30 60 H 4.0203 3.23118 -0.193991 0
M  V30 61 H 2.9273 2.80765 -2.47228 0
M  V30 62 H 4.2603 3.70698 -3.23796 0
M  V30 63 N 5.9124 1.20967 1.01018 0
M  V30 64 C 6.8594 0.964281 2.09691 0
M  V30 65 C 7.8294 -0.107853 1.65749 0
M  V30 66 O 9.0144 0.0381987 1.90762 0
M  V30 67 C 6.1544 0.52943 3.41015 0
M  V30 68 C 5.2674 1.67043 3.98398 0
M  V30 69 C 4.4024 1.18525 5.17808 0
M  V30 70 C 3.4414 2.29892 5.67288 0
M  V30 71 N 2.5784 1.82546 6.77954 0
M  V30 72 H 7.4184 1.89463 2.30017 0
M  V30 73 H 4.9554 0.944289 1.1279 0
M  V30 74 H 6.9134 0.258588 4.16398 0
M  V30 75 H 5.5434 -0.363919 3.20742 0
M  V30 76 H 4.5954 2.05603 3.20049 0
M  V30 77 H 5.9074 2.50877 4.31117 0
M  V30 78 H 5.0614 0.870762 6.00419 0
M  V30 79 H 3.8004 0.316887 4.86669 0
M  V30 80 H 2.8054 2.6215 4.83278 0
M  V30 81 H 4.0304 3.17216 6.00459 0
M  V30 82 H 1.9764 0.980454 6.48632 0
M  V30 83 H 1.8934 2.59956 7.09901 0
M  V30 84 H 3.1614 1.54115 7.64113 0
M  V30 85 N 7.3905 -1.2043 1.01659 0
M  V30 86 C 8.6185 -1.93777 0.725132 0
M  V30 87 C 9.0335 -1.74772 -0.714166 0
M  V30 88 O 8.3905 -1.06169 -1.4844 0
M  V30 89 C 8.4415 -3.45876 1.05129 0
M  V30 90 O 8.1625 -3.6426 2.43406 0
M  V30 91 C 9.6635 -4.36368 0.780891 0
M  V30 92 H 6.8835 -0.615901 0.266284 0
M  V30 93 H 9.4275 -1.52922 1.35776 0
M  V30 94 H 7.5825 -3.8461 0.464065 0
M  V30 95 H 7.9965 -4.58246 2.55169 0
M  V30 96 H 9.4705 -5.41743 1.05918 0
M  V30 97 H 9.9475 -4.38275 -0.284937 0
M  V30 98 H 10.5535 -4.03296 1.35027 0
M  V30 99 N 8.8686 -0.792821 -1.36206 0
M  V30 100 C 9.8186 -0.166598 -2.27391 0
M  V30 101 C 10.8026 0.651479 -1.47121 0
M  V30 102 O 11.9946 0.510994 -1.69463 0
M  V30 103 C 9.1236 0.695033 -3.36191 0
M  V30 104 C 8.2096 -0.132019 -4.23894 0
M  V30 105 N 8.6006 -1.18822 -4.91645 0
M  V30 106 C 6.8986 0.0885952 -4.45912 0
M  V30 107 C 7.5996 -1.69198 -5.56549 0
M  V30 108 N 6.5756 -1.00065 -5.34311 0
M  V30 109 H 10.3776 -0.974947 -2.77258 0
M  V30 110 H 7.8916 -0.632616 -1.49572 0
M  V30 111 H 9.8886 1.1596 -4.00448 0
M  V30 112 H 8.5486 1.50189 -2.87877 0
M  V30 113 H 9.5596 -1.57069 -4.93507 0
M  V30 114 H 6.2366 0.865688 -4.08426 0
M  V30 115 H 7.6266 -2.57395 -6.20643 0
M  V30 116 N 10.3467 1.47872 -0.545128 0
M  V30 117 C 11.5957 2.01695 -0.0145033 0
M  V30 118 C 11.9087 1.42609 1.33873 0
M  V30 119 O 13.1147 1.88021 1.95858 0
M  V30 120 C 11.5707 3.59892 0.0245068 0
M  V30 121 C 11.1787 4.27966 -1.32475 0
M  V30 122 C 12.9227 4.21507 0.50316 0
M  V30 123 C 10.8297 5.78136 -1.2455 0
M  V30 124 H 9.7597 0.753998 -0.00165172 0
M  V30 125 H 12.4107 1.69985 -0.691175 0
M  V30 126 H 10.7927 3.88509 0.766575 0
M  V30 127 H 11.9667 4.11003 -2.08357 0
M  V30 128 H 10.2817 3.78286 -1.74036 0
M  V30 129 H 12.8787 5.31538 0.580656 0
M  V30 130 H 13.2217 3.87855 1.51243 0
M  V30 131 H 13.7547 3.97376 -0.183681 0
M  V30 132 H 10.4937 6.16388 -2.23039 0
M  V30 133 H 10.0137 5.97469 -0.528282 0
M  V30 134 H 11.6927 6.40099 -0.942488 0
M  V30 135 N 11.8248 0.280983 1.55075 0
M  V30 136 C 12.7728 -0.619864 2.24188 0
M  V30 137 C 13.7668 -1.15315 1.24092 0
M  V30 138 O 14.9728 -1.1061 1.42005 0
M  V30 139 H 11.3478 -0.218459 0.719569 0
M  V30 140 H 13.3188 -0.0141831 2.98397 0
M  V30 141 C 12.0678 -1.7899 2.98091 0
M  V30 142 H 11.3908 -1.38874 3.74905 0
M  V30 143 H 12.8308 -2.39672 3.49762 0
M  V30 144 C 11.2898 -2.68192 2.03899 0
M  V30 145 O 11.8198 -3.6872 1.594 0
M  V30 146 N 10.0258 -2.35488 1.70275 0
M  V30 147 H 9.5728 -1.53787 2.06658 0
M  V30 148 H 9.5308 -2.95442 1.07524 0
M  V30 149 N 13.3029 -1.57598 0.00835791 0
M  V30 150 C 14.5519 -1.90107 -0.673968 0
M  V30 151 C 14.8649 -0.884275 -1.7447 0
M  V30 152 O 16.0709 -1.09987 -2.48224 0
M  V30 153 C 14.5269 -3.37497 -1.24995 0
M  V30 154 C 14.1349 -4.47491 -0.2136 0
M  V30 155 C 15.8789 -3.79104 -1.90999 0
M  V30 156 C 13.7859 -5.85963 -0.80005 0
M  V30 157 H 12.7159 -0.709393 -0.255495 0
M  V30 158 H 15.3669 -1.83365 0.0702693 0
M  V30 159 H 13.7489 -3.39102 -2.04513 0
M  V30 160 H 14.9229 -4.57414 0.557596 0
M  V30 161 H 13.2379 -4.14956 0.346474 0
M  V30 162 H 15.8349 -4.79901 -2.35795 0
M  V30 163 H 16.1779 -3.1306 -2.74407 0
M  V30 164 H 16.7109 -3.79833 -1.18203 0
M  V30 165 H 13.4499 -6.555 -0.00456708 0
M  V30 166 H 12.9699 -5.79687 -1.54021 0
M  V30 167 H 14.6489 -6.33884 -1.29615 0
M  V30 168 N 14.781 0.264519 -1.55364 0
M  V30 169 C 16.027 0.99646 -1.76631 0
M  V30 170 C 16.36 1.85632 -0.570478 0
M  V30 171 O 15.635 1.89647 0.43175 0
M  V30 172 C 15.918 1.87187 -3.07625 0
M  V30 173 C 15.771 1.04138 -4.37579 0
M  V30 174 C 17.09 2.85749 -3.34717 0
M  V30 175 H 14.209 0.360841 -0.642622 0
M  V30 176 H 16.851 0.268218 -1.88097 0
M  V30 177 H 15.001 2.49279 -2.9798 0
M  V30 178 H 16.673 0.440517 -4.59192 0
M  V30 179 H 14.916 0.345115 -4.32425 0
M  V30 180 H 15.587 1.68729 -5.2558 0
M  V30 181 H 18.063 2.33793 -3.4421 0
M  V30 182 H 16.939 3.44136 -4.27623 0
M  V30 183 H 17.2 3.61311 -2.54768 0
M  V30 184 N 16.2591 1.48442 0.529413 0
M  V30 185 C 17.5051 1.5672 1.28711 0
M  V30 186 C 17.8381 0.2406 1.92704 0
M  V30 187 O 17.1131 -0.753454 1.79313 0
M  V30 188 C 17.3961 2.70587 2.37603 0
M  V30 189 C 17.2491 4.12953 1.78297 0
M  V30 190 C 18.5681 2.80212 3.39366 0
M  V30 191 H 15.6871 0.570474 0.466613 0
M  V30 192 H 18.3291 1.80617 0.589706 0
M  V30 193 H 16.4791 2.50342 2.97088 0
M  V30 194 H 18.1511 4.44639 1.22858 0
M  V30 195 H 16.3941 4.19927 1.0883 0
M  V30 196 H 17.0651 4.88448 2.57144 0
M  V30 197 H 19.5411 2.98553 2.89836 0
M  V30 198 H 18.4171 3.61611 4.12951 0
M  V30 199 H 18.6781 1.88393 3.99951 0
M  V30 200 N 17.7372 -0.778329 1.37039 0
M  V30 201 C 18.9862 -1.53189 1.3121 0
M  V30 202 C 19.2992 -1.95328 -0.103095 0
M  V30 203 O 20.5052 -2.70012 -0.283826 0
M  V30 204 C 18.9612 -2.76591 2.30272 0
M  V30 205 C 18.5692 -2.41577 3.77286 0
M  V30 206 C 20.3132 -3.5455 2.33441 0
M  V30 207 C 18.2202 -3.61441 4.68096 0
M  V30 208 H 17.1502 -0.5751 0.487622 0
M  V30 209 H 19.8012 -0.853101 1.62464 0
M  V30 210 H 18.1832 -3.46326 1.92027 0
M  V30 211 H 19.3572 -1.79668 4.2433 0
M  V30 212 H 17.6722 -1.76806 3.76999 0
M  V30 213 H 20.2692 -4.43628 2.98493 0
M  V30 214 H 20.6122 -3.93936 1.34611 0
M  V30 215 H 21.1452 -2.91805 2.7036 0
M  V30 216 H 17.8842 -3.27142 5.6803 0
M  V30 217 H 17.4042 -4.22478 4.25761 0
M  V30 218 H 19.0832 -4.28335 4.8491 0
M  V30 219 N 19.2153 -1.21501 -1.00376 0
M  V30 220 C 20.4633 -1.03095 -1.73827 0
M  V30 221 C 20.7843 0.436341 -1.90055 0
M  V30 222 O 20.0543 1.31466 -1.45236 0
M  V30 223 H 18.6343 -0.378487 -0.644016 0
M  V30 224 H 21.2963 -1.52831 -1.20949 0
M  V30 225 H 20.3923 -1.49991 -2.73695 0
M  V30 226 N 20.6934 1.19889 -1.02296 0
M  V30 227 C 21.6434 2.20777 -0.56934 0
M  V30 228 C 22.6274 1.56379 0.378741 0
M  V30 229 O 23.8194 1.75859 0.200673 0
M  V30 230 C 20.9484 3.43196 0.0845077 0
M  V30 231 C 20.0344 4.14749 -0.88566 0
M  V30 232 N 20.4254 4.62584 -2.04573 0
M  V30 233 C 18.7234 4.40347 -0.707835 0
M  V30 234 C 19.4244 5.17466 -2.65714 0
M  V30 235 N 18.4004 5.0791 -1.93723 0
M  V30 236 H 22.2024 2.55434 -1.45365 0
M  V30 237 H 19.7164 1.35897 -0.88915 0
M  V30 238 H 21.7134 4.14707 0.427067 0
M  V30 239 H 20.3734 3.10042 0.964574 0
M  V30 240 H 21.3844 4.57597 -2.4254 0
M  V30 241 H 18.0614 4.17317 0.12364 0
M  V30 242 H 19.4514 5.64808 -3.63925 0
M  V30 243 N 22.1715 0.800033 1.35784 0
M  V30 244 C 23.4175 0.377901 1.99248 0
M  V30 245 C 23.7505 -1.05052 1.63333 0
M  V30 246 O 23.0255 -1.72768 0.893385 0
M  V30 247 C 23.3085 0.553922 3.55814 0
M  V30 248 C 23.1615 2.0268 4.01548 0
M  V30 249 C 24.4805 -0.0244802 4.40093 0
M  V30 250 H 21.5995 0.138782 0.723815 0
M  V30 251 H 24.2415 1.00835 1.61035 0
M  V30 252 H 22.3915 0.0172398 3.88496 0
M  V30 253 H 24.0635 2.62536 3.79305 0
M  V30 254 H 22.3065 2.5256 3.52698 0
M  V30 255 H 22.9775 2.10087 5.10458 0
M  V30 256 H 25.4535 0.433775 4.13833 0
M  V30 257 H 24.3295 0.128637 5.48749 0
M  V30 258 H 24.5905 -1.11758 4.27741 0
M  V30 259 N 23.6496 -1.47581 0.552962 0
M  V30 260 C 24.9266 -1.95563 -0.0381515 0
M  V30 261 C 25.3066 -1.49552 -1.48988 0
M  V30 262 O 24.6546 -0.732414 -2.16444 0
M  V30 263 C 24.8646 -3.48848 0.102919 0
M  V30 264 C 26.2126 -4.24577 -0.0446082 0
M  V30 265 O 27.2366 -3.56187 0.0302548 0
M  V30 266 O 26.0956 -5.46116 -0.204923 0
M  V30 267 H 23.1896 -0.824321 -0.0665067 0
M  V30 268 H 25.7356 -1.58001 0.619186 0
M  V30 269 H 24.5076 -3.75129 1.11328 0
M  V30 270 H 24.1306 -3.93165 -0.592224 0
M  V30 271 N 25.1277 -0.289203 -1.54924 0
M  V30 272 C 26.3527 0.329299 -2.04769 0
M  V30 273 C 26.7777 1.4763 -1.16564 0
M  V30 274 O 26.1357 1.80527 -0.167186 0
M  V30 275 C 26.1837 0.774438 -3.52186 0
M  V30 276 O 25.2877 1.88038 -3.67036 0
M  V30 277 H 24.6287 0.0659259 -0.660719 0
M  V30 278 H 27.1587 -0.42761 -2.00082 0
M  V30 279 H 27.1687 1.06642 -3.93816 0
M  V30 280 H 25.8437 -0.0646707 -4.1585 0
M  V30 281 H 24.4207 1.58985 -3.3731 0
M  V30 282 N 26.6058 1.57591 -0.0167156 0
M  V30 283 C 27.8538 1.90906 0.663285 0
M  V30 284 C 28.1748 0.892509 1.73376 0
M  V30 285 O 27.4448 -0.0677623 1.95783 0
M  V30 286 H 26.0248 0.704637 0.247983 0
M  V30 287 H 28.6868 1.94803 -0.0615909 0
M  V30 288 H 27.7828 2.9116 1.12393 0
M  V30 289 N 28.0839 -0.256276 1.55502 0
M  V30 290 C 29.0309 -1.31714 1.89526 0
M  V30 291 C 30.0009 -1.4828 0.748479 0
M  V30 292 O 31.1859 -1.62416 1.00128 0
M  V30 293 C 28.3259 -2.66933 2.18725 0
M  V30 294 C 27.4389 -2.58452 3.4616 0
M  V30 295 C 26.5739 -3.85961 3.64976 0
M  V30 296 C 25.6129 -3.72059 4.86044 0
M  V30 297 N 24.7499 -4.9144 5.01429 0
M  V30 298 H 29.5899 -1.01998 2.80001 0
M  V30 299 H 27.1269 -0.492413 1.38613 0
M  V30 300 H 29.0849 -3.4563 2.33657 0
M  V30 301 H 27.7149 -2.94816 1.31466 0
M  V30 302 H 26.7669 -1.71374 3.3961 0
M  V30 303 H 28.0789 -2.44085 4.34999 0
M  V30 304 H 27.2329 -4.73101 3.79816 0
M  V30 305 H 25.9719 -4.03215 2.74353 0
M  V30 306 H 24.9769 -2.83302 4.7119 0
M  V30 307 H 26.2019 -3.56309 5.78118 0
M  V30 308 H 24.1479 -5.09072 4.13741 0
M  V30 309 H 24.0649 -4.79668 5.84341 0
M  V30 310 H 25.3329 -5.80104 5.20672 0
M  V30 311 N 29.562 -1.4872 -0.521534 0
M  V30 312 C 30.787 -1.61101 -1.30618 0
M  V30 313 C 31.212 -0.274611 -1.86085 0
M  V30 314 O 30.57 0.754937 -1.64834 0
M  V30 315 C 30.618 -2.66709 -2.4269 0
M  V30 316 O 29.722 -2.24456 -3.45967 0
M  V30 317 H 29.063 -0.539921 -0.386499 0
M  V30 318 H 31.593 -1.94767 -0.626645 0
M  V30 319 H 31.603 -2.88245 -2.88754 0
M  V30 320 H 30.278 -3.63727 -2.01682 0
M  V30 321 H 28.855 -2.13168 -3.05964 0
M  V30 322 N 31.0401 0.771051 -1.3745 0
M  V30 323 C 32.2681 1.56015 -1.35893 0
M  V30 324 C 32.6831 1.88718 0.0555523 0
M  V30 325 O 32.0401 1.51502 1.01752 0
M  V30 326 C 32.0911 2.87001 -2.19801 0
M  V30 327 O 31.8121 2.557 -3.55738 0
M  V30 328 C 33.3131 3.81228 -2.26231 0
M  V30 329 H 30.5331 0.483317 -0.465453 0
M  V30 330 H 33.0771 0.955611 -1.80799 0
M  V30 331 H 31.2321 3.43877 -1.78402 0
M  V30 332 H 31.6461 3.39584 -3.99729 0
M  V30 333 H 33.1201 4.70139 -2.89263 0
M  V30 334 H 33.5971 4.20409 -1.27093 0
M  V30 335 H 34.2031 3.30281 -2.67945 0
M  V30 336 N 32.5182 1.22032 0.997298 0
M  V30 337 C 33.7462 1.06841 1.7718 0
M  V30 338 C 34.1612 -0.381325 1.84909 0
M  V30 339 O 33.5182 -1.26437 1.31605 0
M  V30 340 C 33.5692 1.66814 3.20711 0
M  V30 341 O 33.2902 3.06116 3.13408 0
M  V30 342 C 34.7912 1.56838 4.14628 0
M  V30 343 H 32.0112 0.374782 0.556578 0
M  V30 344 H 34.5552 1.61532 1.2541 0
M  V30 345 H 32.7102 1.16196 3.69564 0
M  V30 346 H 33.1242 3.34926 4.0364 0
M  V30 347 H 34.5982 2.03532 5.13107 0
M  V30 348 H 35.0752 0.524155 4.36061 0
M  V30 349 H 35.6812 2.06741 3.7167 0
M  V30 350 N 33.9963 -1.19345 1.0293 0
M  V30 351 C 35.2243 -1.92997 0.745644 0
M  V30 352 C 35.6393 -1.75519 -0.695589 0
M  V30 353 O 34.9963 -1.07737 -1.47306 0
M  V30 354 C 35.0473 -3.44741 1.08792 0
M  V30 355 O 34.7683 -3.61658 2.47256 0
M  V30 356 C 36.2693 -4.35515 0.827129 0
M  V30 357 H 33.4893 -0.613042 0.272801 0
M  V30 358 H 36.0333 -1.51473 1.3739 0
M  V30 359 H 34.1883 -3.84097 0.504832 0
M  V30 360 H 34.6023 -4.55514 2.60015 0
M  V30 361 H 36.0763 -5.40589 1.11658 0
M  V30 362 H 36.5533 -4.38552 -0.238436 0
M  V30 363 H 37.1593 -4.01841 1.39297 0
M  V30 364 N 35.4744 -0.807222 -1.35358 0
M  V30 365 C 36.7224 -0.387122 -1.98358 0
M  V30 366 C 37.0434 1.04942 -1.64354 0
M  V30 367 O 36.3134 1.72615 -0.926339 0
M  V30 368 H 34.8934 -0.140154 -0.733734 0
M  V30 369 H 37.5554 -1.0332 -1.6526 0
M  V30 370 H 36.6514 -0.493352 -3.08176 0
M  V30 371 N 36.9525 1.47285 -0.560781 0
M  V30 372 C 37.9025 2.27073 0.205384 0
M  V30 373 C 38.8865 1.34569 0.882044 0
M  V30 374 O 40.0785 1.58899 0.77976 0
M  V30 375 C 37.2075 3.20414 1.23247 0
M  V30 376 C 36.2935 4.20399 0.559041 0
M  V30 377 N 36.6845 5.04423 -0.372927 0
M  V30 378 C 34.9825 4.38536 0.812522 0
M  V30 379 C 35.6835 5.76655 -0.764446 0
M  V30 380 N 34.6595 5.43471 -0.11848 0
M  V30 381 H 38.4615 2.89422 -0.511117 0
M  V30 382 H 35.9755 1.57868 -0.380975 0
M  V30 383 H 37.9725 3.76262 1.79534 0
M  V30 384 H 36.6325 2.59623 1.95002 0
M  V30 385 H 37.6435 5.1248 -0.747287 0
M  V30 386 H 34.3205 3.88913 1.51832 0
M  V30 387 H 35.7105 6.54238 -1.53045 0
M  V30 388 N 38.4306 0.297415 1.54768 0
M  V30 389 C 39.3606 -0.573494 2.26348 0
M  V30 390 C 40.3416 -1.14085 1.26169 0
M  V30 391 O 41.5266 -1.17086 1.54934 0
M  V30 392 C 38.6566 -1.74716 3.00153 0
M  V30 393 C 37.6106 -1.31032 4.07449 0
M  V30 394 C 36.9366 -2.56887 4.68949 0
M  V30 395 C 38.2366 -0.444183 5.20408 0
M  V30 396 H 39.9306 0.0235131 2.99391 0
M  V30 397 H 37.4766 0.0127488 1.43994 0
M  V30 398 H 39.4296 -2.3625 3.48947 0
M  V30 399 H 38.1536 -2.37035 2.24682 0
M  V30 400 H 36.8126 -0.718066 3.59499 0
M  V30 401 H 36.4606 -3.17512 3.90122 0
M  V30 402 H 36.1606 -2.2836 5.41411 0
M  V30 403 H 37.6846 -3.19229 5.20505 0
M  V30 404 H 39.0986 -0.9651 5.65118 0
M  V30 405 H 37.4956 -0.252846 5.99567 0
M  V30 406 H 38.5656 0.531609 4.81977 0
M  V30 407 N 39.9087 -1.5758 0.0250728 0
M  V30 408 C 41.1577 -1.90811 -0.653767 0
M  V30 409 C 41.4707 -0.90273 -1.73523 0
M  V30 410 O 42.6767 -1.12614 -2.47043 0
M  V30 411 C 41.1327 -3.38804 -1.21409 0
M  V30 412 C 40.7407 -4.47692 -0.166126 0
M  V30 413 C 42.4847 -3.81108 -1.86967 0
M  V30 414 C 40.3917 -5.86779 -0.737856 0
M  V30 415 H 39.3217 -0.712063 -0.247956 0
M  V30 416 H 41.9727 -1.83281 0.0897137 0
M  V30 417 H 40.3547 -3.41252 -2.00905 0
M  V30 418 H 41.5287 -4.56797 0.606079 0
M  V30 419 H 39.8437 -4.14565 0.390466 0
M  V30 420 H 42.4407 -4.82375 -2.30692 0
M  V30 421 H 42.7837 -3.15953 -2.71071 0
M  V30 422 H 43.3167 -3.81065 -1.14167 0
M  V30 423 H 40.0557 -6.55468 0.0649577 0
M  V30 424 H 39.5757 -5.81288 -1.47864 0
M  V30 425 H 41.2547 -6.35223 -1.22884 0
M  V30 426 N 41.3868 0.248026 -1.55636 0
M  V30 427 C 42.6168 0.992367 -1.81206 0
M  V30 428 C 43.0248 1.7949 -0.598324 0
M  V30 429 O 42.3678 1.78292 0.442434 0
M  V30 430 C 42.4298 1.97926 -3.00109 0
M  V30 431 C 42.0938 1.36377 -4.36177 0
M  V30 432 C 43.0908 0.76682 -5.14214 0
M  V30 433 C 40.7758 1.38347 -4.82872 0
M  V30 434 C 42.7698 0.197778 -6.37093 0
M  V30 435 C 40.4568 0.810574 -6.057 0
M  V30 436 C 41.4548 0.218754 -6.8265 0
M  V30 437 O 41.1428 -0.345298 -8.03158 0
M  V30 438 H 40.8748 0.297704 -0.606917 0
M  V30 439 H 43.4288 0.276517 -2.0353 0
M  V30 440 H 41.6588 2.73339 -2.73538 0
M  V30 441 H 43.3478 2.58694 -3.12781 0
M  V30 442 H 44.1138 0.744114 -4.79258 0
M  V30 443 H 39.9928 1.8335 -4.2297 0
M  V30 444 H 43.5368 -0.264788 -6.97097 0
M  V30 445 H 39.4338 0.830604 -6.40134 0
M  V30 446 H 40.2018 -0.237055 -8.18157 0
M  V30 447 N 42.8649 1.48995 0.513639 0
M  V30 448 C 43.8119 1.6473 1.61656 0
M  V30 449 C 44.7819 0.488984 1.58739 0
M  V30 450 O 45.9669 0.714478 1.76918 0
M  V30 451 C 43.1069 1.7082 2.99858 0
M  V30 452 C 42.2199 2.9787 3.12885 0
M  V30 453 C 41.3549 2.95017 4.41744 0
M  V30 454 C 40.3939 4.16702 4.48359 0
M  V30 455 N 39.5309 4.11832 5.68629 0
M  V30 456 H 44.3709 2.58909 1.47547 0
M  V30 457 H 41.9079 1.28382 0.71808 0
M  V30 458 H 43.8659 1.72331 3.79944 0
M  V30 459 H 42.4959 0.801181 3.12699 0
M  V30 460 H 41.5479 3.06029 2.25944 0
M  V30 461 H 42.8599 3.8786 3.13633 0
M  V30 462 H 42.0139 2.95021 5.30139 0
M  V30 463 H 40.7529 2.02784 4.43542 0
M  V30 464 H 39.7579 4.16955 3.58369 0
M  V30 465 H 40.9829 5.10113 4.48287 0
M  V30 466 H 38.9289 3.22428 5.71293 0
M  V30 467 H 38.8459 4.95543 5.7094 0
M  V30 468 H 40.1139 4.1592 6.59266 0
M  V30 469 N 44.343 -0.763751 1.37857 0
M  V30 470 C 45.583 -1.53551 1.34913 0
M  V30 471 C 45.947 -1.91895 -0.0635882 0
M  V30 472 O 47.148 -2.67916 -0.217825 0
M  V30 473 C 45.419 -2.76126 2.26912 0
M  V30 474 S 46.978 -3.66105 2.41893 0
M  V30 475 H 43.796 -0.52559 0.478828 0
M  V30 476 H 46.398 -0.897435 1.73685 0
M  V30 477 H 45.102 -2.4605 3.28463 0
M  V30 478 H 44.633 -3.44887 1.89253 0
M  V30 479 H 46.648 -4.68473 1.63545 0
M  V30 480 N 45.8211 -1.22559 -0.990812 0
M  V30 481 C 47.0691 -1.04933 -1.72724 0
M  V30 482 C 47.3901 0.416158 -1.90508 0
M  V30 483 O 46.6601 1.29918 -1.46622 0
M  V30 484 H 45.2401 -0.385296 -0.639965 0
M  V30 485 H 47.9021 -1.54105 -1.19322 0
M  V30 486 H 46.9981 -1.52886 -2.72089 0
M  V30 487 N 47.2992 1.18797 -1.03562 0
M  V30 488 C 48.5472 1.88278 -0.734569 0
M  V30 489 C 48.8682 1.8043 0.739586 0
M  V30 490 O 48.1382 1.21925 1.53333 0
M  V30 491 H 46.7182 0.696991 -0.268725 0
M  V30 492 H 49.3802 1.44192 -1.31129 0
M  V30 493 H 48.4762 2.94443 -1.03489 0
M  V30 494 N 48.7773 0.814389 1.34928 0
M  V30 495 C 50.0263 0.394871 1.97797 0
M  V30 496 C 50.3393 -1.04555 1.65311 0
M  V30 497 O 51.5453 -1.56856 2.21604 0
M  V30 498 C 50.0013 0.655103 3.53888 0
M  V30 499 C 49.6093 2.10858 3.95276 0
M  V30 500 C 51.3533 0.301329 4.23429 0
M  V30 501 C 49.2603 2.31415 5.44244 0
M  V30 502 H 48.1903 0.143913 0.740139 0
M  V30 503 H 50.8413 0.999544 1.53888 0
M  V30 504 H 49.2233 -0.0196253 3.95995 0
M  V30 505 H 50.3973 2.82176 3.64298 0
M  V30 506 H 48.7123 2.42297 3.38646 0
M  V30 507 H 51.3093 0.432869 5.32945 0
M  V30 508 H 51.6523 -0.75331 4.09428 0
M  V30 509 H 52.1853 0.930288 3.86769 0
M  V30 510 H 48.9243 3.35353 5.63222 0
M  V30 511 H 48.4443 1.6463 5.76764 0
M  V30 512 H 50.1233 2.13352 6.10811 0
M  V30 513 N 50.2554 -1.46986 0.568584 0
M  V30 514 C 51.5324 -1.95592 -0.0174074 0
M  V30 515 C 51.9124 -1.51124 -1.47393 0
M  V30 516 O 51.2604 -0.755329 -2.15655 0
M  V30 517 C 51.4704 -3.48719 0.139913 0
M  V30 518 C 52.8184 -4.246 0.000426376 0
M  V30 519 O 53.8424 -3.56135 0.0680316 0
M  V30 520 O 52.7014 -5.46302 -0.146988 0
M  V30 521 H 49.7954 -0.82498 -0.0577599 0
M  V30 522 H 52.3414 -1.57335 0.635909 0
M  V30 523 H 51.1134 -3.73927 1.15301 0
M  V30 524 H 50.7364 -3.93771 -0.550491 0
M  V30 525 N 51.7335 -0.305618 -1.54608 0
M  V30 526 C 52.6805 0.568421 -2.23691 0
M  V30 527 C 53.6505 1.12592 -1.22116 0
M  V30 528 O 54.8355 1.16959 -1.50749 0
M  V30 529 C 51.9755 1.7322 -2.98477 0
M  V30 530 C 51.0885 1.20566 -4.14835 0
M  V30 531 C 50.2235 2.33368 -4.77193 0
M  V30 532 C 49.2625 1.7787 -5.85686 0
M  V30 533 N 48.3995 2.84263 -6.4198 0
M  V30 534 H 53.2395 -0.0272867 -2.97988 0
M  V30 535 H 50.7765 -0.0252363 -1.47078 0
M  V30 536 H 52.7345 2.41675 -3.40072 0
M  V30 537 H 51.3645 2.29947 -2.26548 0
M  V30 538 H 50.4165 0.413223 -3.78149 0
M  V30 539 H 51.7285 0.759417 -4.92985 0
M  V30 540 H 50.8825 3.09761 -5.21664 0
M  V30 541 H 49.6215 2.8132 -3.98385 0
M  V30 542 H 48.6265 0.99968 -5.40635 0
M  V30 543 H 49.8515 1.30816 -6.66381 0
M  V30 544 H 47.7975 3.31541 -5.66053 0
M  V30 545 H 47.7145 2.44149 -7.15491 0
M  V30 546 H 48.9825 3.6054 -6.91109 0
M  V30 547 N 53.2116 1.57565 -0.0334293 0
M  V30 548 C 54.6276 1.56297 0.322997 0
M  V30 549 C 54.8276 1.03945 1.7262 0
M  V30 550 O 53.8836 0.688109 2.42943 0
M  V30 551 C 55.1966 3.00232 0.167664 0
M  V30 552 C 56.7446 3.12078 0.240107 0
M  V30 553 C 57.2196 4.57859 0.113513 0
M  V30 554 N 58.7106 4.62887 0.170359 0
M  V30 555 C 59.4456 5.73319 0.0962517 0
M  V30 556 N 58.9416 6.92794 -0.0291881 0
M  V30 557 N 60.7346 5.61898 0.150551 0
M  V30 558 H 52.8856 1.89923 -0.950956 0
M  V30 559 H 55.1486 0.873824 -0.367608 0
M  V30 560 H 54.8546 3.42501 -0.799102 0
M  V30 561 H 54.7286 3.654 0.936083 0
M  V30 562 H 57.1156 2.69718 1.19733 0
M  V30 563 H 57.1966 2.49623 -0.558763 0
M  V30 564 H 56.8406 5.009 -0.840314 0
M  V30 565 H 56.7706 5.18299 0.931302 0
M  V30 566 H 59.2616 3.76954 0.26728 0
M  V30 567 H 59.5746 7.7276 -0.0789252 0
M  V30 568 H 57.9196 6.94971 -0.0640299 0
M  V30 569 H 61.1106 4.67448 0.246981 0
M  V30 570 H 61.2836 6.47938 0.0893365 0
M  V30 571 N 54.6897 -0.239769 1.55765 0
M  V30 572 C 55.9177 -0.98417 1.81994 0
M  V30 573 C 56.3327 -1.7867 0.610124 0
M  V30 574 O 55.6897 -1.77571 -0.421271 0
M  V30 575 C 55.7407 -1.91635 3.06526 0
M  V30 576 O 55.4617 -1.14629 4.22838 0
M  V30 577 C 56.9627 -2.77616 3.45607 0
M  V30 578 H 54.1827 -0.28928 0.605441 0
M  V30 579 H 56.7267 -0.260499 2.02834 0
M  V30 580 H 54.8817 -2.5942 2.87715 0
M  V30 581 H 55.2957 -1.77745 4.93464 0
M  V30 582 H 56.7697 -3.38759 4.35828 0
M  V30 583 H 57.2467 -3.4909 2.6652 0
M  V30 584 H 57.8527 -2.15271 3.66795 0
M  V30 585 N 56.1678 -1.49265 -0.50573 0
M  V30 586 C 57.4168 -1.57761 -1.25675 0
M  V30 587 C 57.7298 -0.267371 -1.93764 0
M  V30 588 O 58.9358 -0.230827 -2.70517 0
M  V30 589 C 57.3918 -2.78332 -2.28165 0
M  V30 590 C 56.9998 -4.16096 -1.66037 0
M  V30 591 C 58.7438 -2.96155 -3.04125 0
M  V30 592 C 56.6508 -5.27895 -2.6661 0
M  V30 593 H 55.5808 -0.587391 -0.472745 0
M  V30 594 H 58.2318 -1.75644 -0.53118 0
M  V30 595 H 56.6138 -2.53934 -3.03865 0
M  V30 596 H 57.7878 -4.50612 -0.963622 0
M  V30 597 H 56.1028 -4.03591 -1.02484 0
M  V30 598 H 58.6998 -3.76849 -3.79327 0
M  V30 599 H 59.0428 -2.06534 -3.61455 0
M  V30 600 H 59.5758 -3.2057 -2.35541 0
M  V30 601 H 56.3148 -6.1956 -2.14068 0
M  V30 602 H 55.8348 -4.97839 -3.34539 0
M  V30 603 H 57.5138 -5.57031 -3.29129 0
M  V30 604 N 57.6459 0.756429 -1.3826 0
M  V30 605 C 58.5559 1.9009 -1.37488 0
M  V30 606 C 59.5719 1.71855 -0.272366 0
M  V30 607 O 60.7479 1.94827 -0.510318 0
M  V30 608 C 57.8129 3.25421 -1.19592 0
M  V30 609 C 56.8739 3.56202 -2.39622 0
M  V30 610 C 56.1069 4.85075 -2.2257 0
M  V30 611 O 56.3299 5.57246 -1.21793 0
M  V30 612 O 55.2639 5.15269 -3.11098 0
M  V30 613 H 59.0899 1.93695 -2.33914 0
M  V30 614 H 56.6749 0.901313 -1.1915 0
M  V30 615 H 58.5569 4.06337 -1.11661 0
M  V30 616 H 57.2319 3.22634 -0.262486 0
M  V30 617 H 56.1389 2.75458 -2.53128 0
M  V30 618 H 57.4719 3.63747 -3.31586 0
M  V30 619 N 59.124 1.23083 0.984299 0
M  V30 620 C 60.071 1.00854 2.07598 0
M  V30 621 C 61.041 -0.0726709 1.65941 0
M  V30 622 O 62.226 0.0786535 1.90638 0
M  V30 623 C 59.366 0.601645 3.39815 0
M  V30 624 C 58.479 1.75456 3.94765 0
M  V30 625 C 57.614 1.29482 5.15177 0
M  V30 626 C 56.653 2.41873 5.62284 0
M  V30 627 N 55.79 1.96885 6.73929 0
M  V30 628 H 60.63 1.943 2.25946 0
M  V30 629 H 58.167 0.968001 1.10762 0
M  V30 630 H 60.125 0.346854 4.15756 0
M  V30 631 H 58.755 -0.295803 3.21442 0
M  V30 632 H 57.807 2.12346 3.15616 0
M  V30 633 H 59.119 2.59965 4.25699 0
M  V30 634 H 58.273 0.997923 5.98437 0
M  V30 635 H 57.012 0.420046 4.85888 0
M  V30 636 H 56.017 2.72342 4.77608 0
M  V30 637 H 57.242 3.29881 5.93595 0
M  V30 638 H 55.188 1.11782 6.46406 0
M  V30 639 H 55.105 2.74956 7.04227 0
M  V30 640 H 56.373 1.70289 7.60672 0
M  V30 641 N 60.6021 -1.18246 1.0419 0
M  V30 642 C 61.8491 -1.88257 0.746017 0
M  V30 643 C 62.1771 -1.80429 -0.726331 0
M  V30 644 O 61.4321 -1.2 -1.54591 0
M  V30 645 C 61.7311 -3.38082 1.15911 0
M  V30 646 C 61.3971 -3.66114 2.63195 0
M  V30 647 C 60.0591 -3.73474 3.03432 0
M  V30 648 C 62.4111 -3.78398 3.5842 0
M  V30 649 C 59.7391 -3.90599 4.37778 0
M  V30 650 C 62.0911 -3.97039 4.92487 0
M  V30 651 C 60.7551 -4.02635 5.32392 0
M  V30 652 H 60.0251 -0.688883 0.272987 0
M  V30 653 H 62.6721 -1.3995 1.30715 0
M  V30 654 H 60.9771 -3.88377 0.516806 0
M  V30 655 H 62.6741 -3.90596 0.907516 0
M  V30 656 H 59.2641 -3.61003 2.3103 0
M  V30 657 H 63.4481 -3.72042 3.28479 0
M  V30 658 H 58.7041 -3.93175 4.68213 0
M  V30 659 H 62.8781 -4.05486 5.66175 0
M  V30 660 H 60.5051 -4.15657 6.36501 0
M  V30 661 N 62.0802 -0.821533 -1.34494 0
M  V30 662 C 62.9902 -0.244355 -2.33324 0
M  V30 663 C 64.0062 0.620527 -1.62559 0
M  V30 664 O 65.1822 0.528754 -1.94335 0
M  V30 665 C 62.2472 0.585368 -3.41723 0
M  V30 666 C 61.3082 -0.301752 -4.28238 0
M  V30 667 C 60.5412 0.488466 -5.3146 0
M  V30 668 O 60.7642 1.72186 -5.4379 0
M  V30 669 O 59.6982 -0.12848 -6.01763 0
M  V30 670 H 63.5242 -1.06231 -2.84515 0
M  V30 671 H 61.1092 -0.583645 -1.37528 0
M  V30 672 H 62.9912 1.05747 -4.07916 0
M  V30 673 H 61.6662 1.38068 -2.92778 0
M  V30 674 H 60.5732 -0.821315 -3.64973 0
M  V30 675 H 61.9062 -1.06138 -4.8062 0
M  V30 676 N 63.5583 1.46682 -0.576371 0
M  V30 677 C 64.5053 2.30241 0.160499 0
M  V30 678 C 65.4753 1.40233 0.890162 0
M  V30 679 O 66.6603 1.69186 0.882084 0
M  V30 680 C 63.8003 3.24578 1.1723 0
M  V30 681 C 62.9133 4.29684 0.446736 0
M  V30 682 C 62.0483 5.11154 1.44551 0
M  V30 683 C 61.0873 6.08015 0.70599 0
M  V30 684 N 60.2243 6.82376 1.65251 0
M  V30 685 H 65.0643 2.92727 -0.558127 0
M  V30 686 H 62.6013 1.44272 -0.287056 0
M  V30 687 H 64.5593 3.77711 1.77172 0
M  V30 688 H 63.1893 2.63916 1.85872 0
M  V30 689 H 62.2413 3.79458 -0.267594 0
M  V30 690 H 63.5533 4.98626 -0.131686 0
M  V30 691 H 62.7073 5.68533 2.11791 0
M  V30 692 H 61.4463 4.42158 2.05786 0
M  V30 693 H 60.4513 5.49796 0.0197725 0
M  V30 694 H 61.6763 6.79028 0.09912 0
M  V30 695 H 59.6223 6.16094 2.25308 0
M  V30 696 H 59.5393 7.47556 1.12673 0
M  V30 697 H 60.8073 7.44316 2.31546 0
M  V30 698 N 65.0364 0.313813 1.54444 0
M  V30 699 C 65.9464 -0.565714 2.27677 0
M  V30 700 C 66.9624 -1.13754 1.31666 0
M  V30 701 O 68.1384 -1.15959 1.64668 0
M  V30 702 C 65.2034 -1.71528 3.01296 0
M  V30 703 C 64.2644 -1.17624 4.12872 0
M  V30 704 C 63.4974 -2.27102 4.8297 0
M  V30 705 O 63.7204 -3.47256 4.52514 0
M  V30 706 O 62.6544 -1.9307 5.70094 0
M  V30 707 H 66.4804 0.0287296 3.03686 0
M  V30 708 H 64.0654 0.0798312 1.49187 0
M  V30 709 H 65.9474 -2.38476 3.4743 0
M  V30 710 H 64.6224 -2.29608 2.2817 0
M  V30 711 H 63.5294 -0.472124 3.71109 0
M  V30 712 H 64.8624 -0.640695 4.88012 0
M  V30 713 N 66.5145 -1.57545 0.0417849 0
M  V30 714 C 67.4775 -2.09885 -0.92093 0
M  V30 715 C 68.4775 -1.01648 -1.24596 0
M  V30 716 O 69.6675 -1.27759 -1.1842 0
M  V30 717 C 66.7995 -2.57527 -2.23367 0
M  V30 718 H 67.9925 -2.96236 -0.467382 0
M  V30 719 H 65.5455 -1.5493 -0.206467 0
M  V30 720 H 66.2805 -1.74542 -2.73323 0
M  V30 721 H 66.0655 -3.36613 -2.01083 0
M  V30 722 H 67.5555 -2.98201 -2.92346 0
M  V30 723 N 67.9926 0.231505 -1.5589 0
M  V30 724 C 68.9556 1.27028 -1.90779 0
M  V30 725 C 69.9556 1.40308 -0.785507 0
M  V30 726 O 71.1456 1.38744 -1.05336 0
M  V30 727 C 68.2776 2.64566 -2.14983 0
M  V30 728 H 69.4706 0.973017 -2.83677 0
M  V30 729 H 67.0236 0.471486 -1.49019 0
M  V30 730 H 67.7586 2.99406 -1.24604 0
M  V30 731 H 67.5436 2.56305 -2.96732 0
M  V30 732 H 69.0336 3.39543 -2.43105 0
M  V30 733 N 69.4707 1.49531 0.497807 0
M  V30 734 C 70.3807 1.69176 1.62532 0
M  V30 735 C 71.3967 0.5744 1.64246 0
M  V30 736 O 72.5727 0.849497 1.82608 0
M  V30 737 C 69.6377 1.75695 2.98885 0
M  V30 738 C 68.6987 2.9929 3.07773 0
M  V30 739 C 67.9317 3.05488 4.37622 0
M  V30 740 O 68.1547 2.19192 5.26603 0
M  V30 741 O 67.0887 3.9798 4.51548 0
M  V30 742 H 70.9147 2.647 1.48887 0
M  V30 743 H 68.4997 1.3331 0.674441 0
M  V30 744 H 70.3817 1.82317 3.79919 0
M  V30 745 H 69.0567 0.8335 3.12785 0
M  V30 746 H 67.9637 2.98183 2.25915 0
M  V30 747 H 69.2967 3.91125 2.98801 0
M  V30 748 N 70.9488 -0.749086 1.3866 0
M  V30 749 C 71.8818 -1.87111 1.30631 0
M  V30 750 C 72.8598 -1.61572 0.18251 0
M  V30 751 O 74.0438 -1.85019 0.360592 0
M  V30 752 C 71.1708 -3.22815 1.02511 0
M  V30 753 C 70.2168 -3.67234 2.1689 0
M  V30 754 S 71.0498 -3.78245 3.79066 0
M  V30 755 C 72.2058 -5.16761 3.53142 0
M  V30 756 H 72.4388 -1.93636 2.25594 0
M  V30 757 H 69.9718 -0.912525 1.24549 0
M  V30 758 H 71.9298 -4.01181 0.869701 0
M  V30 759 H 70.5908 -3.13964 0.0925884 0
M  V30 760 H 69.7838 -4.65677 1.92771 0
M  V30 761 H 69.3858 -2.96034 2.28561 0
M  V30 762 H 71.6778 -6.02656 3.09534 0
M  V30 763 H 72.6208 -5.45902 4.50995 0
M  V30 764 H 73.0288 -4.85771 2.87554 0
M  V30 765 N 72.4269 -1.23603 -0.977757 0
M  V30 766 C 73.6749 -1.06759 -1.71601 0
M  V30 767 C 73.9959 0.395929 -1.90938 0
M  V30 768 O 73.2659 1.28356 -1.47992 0
M  V30 769 H 71.8459 -0.392062 -0.635843 0
M  V30 770 H 74.5079 -1.55362 -1.1768 0
M  V30 771 H 73.6039 -1.55763 -2.70452 0
M  V30 772 N 73.905 1.17692 -1.04816 0
M  V30 773 C 74.852 2.21581 -0.645797 0
M  V30 774 C 75.822 1.62367 0.350159 0
M  V30 775 O 77.007 1.89254 0.242433 0
M  V30 776 C 74.147 3.45092 -0.0227568 0
M  V30 777 C 73.26 4.18613 -1.06709 0
M  V30 778 C 72.395 5.29602 -0.411767 0
M  V30 779 C 71.434 5.94904 -1.44067 0
M  V30 780 N 70.571 6.97414 -0.809781 0
M  V30 781 H 75.411 2.55353 -1.5362 0
M  V30 782 H 72.948 1.25438 -0.768364 0
M  V30 783 H 74.906 4.15679 0.35588 0
M  V30 784 H 73.536 3.11917 0.831122 0
M  V30 785 H 72.588 3.46779 -1.5636 0
M  V30 786 H 73.9 4.63293 -1.84827 0
M  V30 787 H 73.054 6.06696 0.0206623 0
M  V30 788 H 71.793 4.86045 0.401438 0
M  V30 789 H 70.798 5.16544 -1.88316 0
M  V30 790 H 72.023 6.40542 -2.25571 0
M  V30 791 H 69.969 6.55998 -0.0170186 0
M  V30 792 H 69.886 7.40386 -1.52856 0
M  V30 793 H 71.154 7.78463 -0.401999 0
M  V30 794 N 75.3831 0.828654 1.34056 0
M  V30 795 C 76.6311 0.41863 1.97717 0
M  V30 796 C 76.9521 -1.02314 1.66002 0
M  V30 797 O 76.2221 -1.71119 0.953683 0
M  V30 798 H 74.8021 0.151809 0.731412 0
M  V30 799 H 77.4641 1.05936 1.63596 0
M  V30 800 H 76.5601 0.542318 3.07352 0
M  V30 801 N 76.8612 -1.46375 0.584142 0
M  V30 802 C 78.0862 -2.07268 0.0740405 0
M  V30 803 C 78.5112 -1.42979 -1.22223 0
M  V30 804 O 77.8692 -0.514092 -1.73859 0
M  V30 805 C 77.9172 -3.60518 -0.0767769 0
M  V30 806 O 77.0212 -3.96533 -1.13292 0
M  V30 807 H 76.3622 -0.660961 0.0634524 0
M  V30 808 H 78.8922 -1.87991 0.807492 0
M  V30 809 H 78.9022 -4.07021 -0.282489 0
M  V30 810 H 77.5772 -4.06702 0.86986 0
M  V30 811 H 76.1542 -3.61738 -0.905553 0
M  V30 812 N 78.3393 -0.321999 -1.54275 0
M  V30 813 C 79.5863 0.281044 -2.0054 0
M  V30 814 C 79.9143 1.52265 -1.21019 0
M  V30 815 O 79.1693 1.93687 -0.279982 0
M  V30 816 C 79.4683 0.661769 -3.5122 0
M  V30 817 C 79.1343 -0.480482 -4.48333 0
M  V30 818 C 77.7963 -0.794005 -4.74604 0
M  V30 819 C 80.1483 -1.24783 -5.06042 0
M  V30 820 C 77.4763 -1.87763 -5.55844 0
M  V30 821 C 79.8283 -2.32153 -5.88462 0
M  V30 822 C 78.4923 -2.64089 -6.13036 0
M  V30 823 H 77.7623 0.102841 -0.733829 0
M  V30 824 H 80.4093 -0.445453 -1.86247 0
M  V30 825 H 78.7143 1.46867 -3.63232 0
M  V30 826 H 80.4113 1.13989 -3.84457 0
M  V30 827 H 77.0013 -0.226039 -4.28004 0
M  V30 828 H 81.1853 -1.01887 -4.85729 0
M  V30 829 H 76.4413 -2.12954 -5.73115 0
M  V30 830 H 80.6153 -2.92057 -6.32199 0
M  V30 831 H 78.2423 -3.48185 -6.75775 0
M  V30 832 N 79.8174 1.5752 -0.0501392 0
M  V30 833 C 80.7644 2.1147 0.924603 0
M  V30 834 C 81.7344 1.02182 1.30951 0
M  V30 835 O 82.9194 1.29723 1.39916 0
M  V30 836 C 80.0594 2.66337 2.19451 0
M  V30 837 C 79.1724 3.89708 1.86418 0
M  V30 838 C 78.3074 4.32893 3.07859 0
M  V30 839 C 77.3464 5.48967 2.70742 0
M  V30 840 N 76.4834 5.87211 3.84874 0
M  V30 841 H 81.3234 2.94465 0.457639 0
M  V30 842 H 78.8604 1.45531 0.214266 0
M  V30 843 H 80.8184 2.96247 2.93758 0
M  V30 844 H 79.4484 1.86141 2.63726 0
M  V30 845 H 78.5004 3.66396 1.02264 0
M  V30 846 H 79.8124 4.74074 1.55096 0
M  V30 847 H 78.9664 4.6435 3.90466 0
M  V30 848 H 77.7054 3.47336 3.42358 0
M  V30 849 H 76.7104 5.17183 1.86551 0
M  V30 850 H 77.9354 6.3624 2.37436 0
M  V30 851 H 75.8814 5.04607 4.19175 0
M  V30 852 H 75.7984 6.66266 3.57247 0
M  V30 853 H 77.0664 6.23282 4.68123 0
M  V30 854 N 81.2955 -0.223234 1.56011 0
M  V30 855 C 82.5255 -0.963413 1.82762 0
M  V30 856 C 82.9335 -1.78516 0.626804 0
M  V30 857 O 82.2765 -1.78974 -0.414014 0
M  V30 858 C 82.3385 -1.93126 3.0322 0
M  V30 859 C 82.0025 -1.2942 4.38291 0
M  V30 860 C 82.9995 -0.684916 5.15369 0
M  V30 861 C 80.6845 -1.30647 4.85012 0
M  V30 862 C 82.6785 -0.0963971 6.37327 0
M  V30 863 C 80.3655 -0.71411 6.06913 0
M  V30 864 C 81.3635 -0.110123 6.82911 0
M  V30 865 O 81.0515 0.47303 8.02507 0
M  V30 866 H 80.7835 -0.288011 0.611576 0
M  V30 867 H 83.3375 -0.244103 2.03944 0
M  V30 868 H 81.5675 -2.68952 2.77852 0
M  V30 869 H 83.2565 -2.53685 3.16857 0
M  V30 870 H 84.0225 -0.667774 4.80381 0
M  V30 871 H 79.9015 -1.76598 4.25833 0
M  V30 872 H 83.4455 0.375657 6.96588 0
M  V30 873 H 79.3425 -0.728659 6.41374 0
M  V30 874 H 80.1105 0.367186 8.17676 0
M  V30 875 N 82.7736 -1.49793 -0.48987 0
M  V30 876 C 83.7366 -1.66752 -1.57246 0
M  V30 877 C 84.7366 -0.538867 -1.51502 0
M  V30 878 O 85.9266 -0.805545 -1.54456 0
M  V30 879 C 83.0586 -1.67528 -2.96896 0
M  V30 880 H 84.2516 -2.63321 -1.43534 0
M  V30 881 H 81.8046 -1.38992 -0.714914 0
M  V30 882 H 82.5396 -0.725837 -3.16073 0
M  V30 883 H 82.3246 -2.49504 -3.02473 0
M  V30 884 H 83.8146 -1.82667 -3.7553 0
M  V30 885 N 84.2517 0.741722 -1.39055 0
M  V30 886 C 85.4977 1.50234 -1.37118 0
M  V30 887 C 85.8527 1.92368 0.0350439 0
M  V30 888 O 85.1457 1.63422 1.00019 0
M  V30 889 C 85.3397 2.7592 -2.27163 0
M  V30 890 C 85.1687 2.46074 -3.76401 0
M  V30 891 C 83.9387 2.38704 -4.45364 0
M  V30 892 C 86.1367 2.12062 -4.68545 0
M  V30 893 N 84.1187 2.01258 -5.79973 0
M  V30 894 C 85.4897 1.85005 -5.91754 0
M  V30 895 C 87.5447 1.98473 -4.56632 0
M  V30 896 C 86.2477 1.4573 -7.04383 0
M  V30 897 C 88.2737 1.60599 -5.69176 0
M  V30 898 C 87.6357 1.34423 -6.91455 0
M  V30 899 H 83.7347 0.548858 -0.557027 0
M  V30 900 H 86.3187 0.862642 -1.74547 0
M  V30 901 H 84.4897 3.3768 -1.91904 0
M  V30 902 H 86.2217 3.42068 -2.16267 0
M  V30 903 H 82.9767 2.55574 -3.98721 0
M  V30 904 H 83.4007 1.85147 -6.51191 0
M  V30 905 H 88.0427 2.17381 -3.62637 0
M  V30 906 H 85.7607 1.25562 -7.98286 0
M  V30 907 H 89.3467 1.507 -5.61944 0
M  V30 908 H 88.2267 1.05555 -7.77064 0
M  V30 909 N 85.7298 1.2412 0.971189 0
M  V30 910 C 86.9758 1.08041 1.71625 0
M  V30 911 C 87.3088 -0.380407 1.90438 0
M  V30 912 O 86.5838 -1.28127 1.46334 0
M  V30 913 C 86.8668 1.81682 3.10908 0
M  V30 914 C 86.7198 3.35493 2.99608 0
M  V30 915 C 88.0388 1.58671 4.10501 0
M  V30 916 H 85.1578 0.39388 0.622919 0
M  V30 917 H 87.7998 1.52743 1.13003 0
M  V30 918 H 85.9498 1.43684 3.60953 0
M  V30 919 H 87.6218 3.83068 2.57015 0
M  V30 920 H 85.8648 3.64052 2.35899 0
M  V30 921 H 86.5358 3.82217 3.98264 0
M  V30 922 H 89.0118 1.91719 3.69301 0
M  V30 923 H 87.8878 2.1266 5.06031 0
M  V30 924 H 88.1488 0.524161 4.38982 0
M  V30 925 N 87.2079 -1.17134 1.05439 0
M  V30 926 C 88.1379 -2.2342 0.678649 0
M  V30 927 C 89.1189 -1.66971 -0.32476 0
M  V30 928 O 90.3039 -1.93149 -0.201802 0
M  V30 929 C 87.4339 -3.47256 0.0552099 0
M  V30 930 C 86.3879 -4.16543 0.98365 0
M  V30 931 C 85.7139 -5.34231 0.223961 0
M  V30 932 C 87.0139 -4.68495 2.3089 0
M  V30 933 H 88.7079 -2.55105 1.56722 0
M  V30 934 H 86.2539 -1.2262 0.754998 0
M  V30 935 H 88.2069 -4.20828 -0.21946 0
M  V30 936 H 86.9309 -3.14846 -0.868319 0
M  V30 937 H 85.5899 -3.44887 1.24293 0
M  V30 938 H 85.2379 -4.98071 -0.702412 0
M  V30 939 H 84.9379 -5.81527 0.842627 0
M  V30 940 H 86.4619 -6.10585 -0.0433671 0
M  V30 941 H 87.8759 -5.33691 2.09396 0
M  V30 942 H 86.2729 -5.26379 2.88176 0
M  V30 943 H 87.3429 -3.85169 2.94572 0
M  V30 944 N 88.686 -0.835752 -1.33615 0
M  V30 945 C 89.963 -0.352017 -1.92406 0
M  V30 946 C 90.343 1.16225 -1.76224 0
M  V30 947 O 89.691 1.97526 -1.14873 0
M  V30 948 C 89.901 -0.795485 -3.39813 0
M  V30 949 C 91.249 -0.801703 -4.16963 0
M  V30 950 O 92.273 -0.738889 -3.48452 0
M  V30 951 O 91.132 -0.886607 -5.3926 0
M  V30 952 H 88.226 -0.0989641 -0.821057 0
M  V30 953 H 90.772 -0.921397 -1.42507 0
M  V30 954 H 89.544 -1.83795 -3.45449 0
M  V30 955 H 89.167 -0.202505 -3.97084 0
M  V30 956 N 90.1641 1.46063 -0.591896 0
M  V30 957 C 91.1111 2.30399 0.136069 0
M  V30 958 C 92.0811 1.41169 0.875238 0
M  V30 959 O 93.2661 1.70112 0.86409 0
M  V30 960 C 90.4061 3.25804 1.13781 0
M  V30 961 C 89.5191 4.30134 0.401137 0
M  V30 962 C 88.6541 5.12659 1.39121 0
M  V30 963 C 87.6931 6.0873 0.641462 0
M  V30 964 N 86.8301 6.8409 1.58004 0
M  V30 965 H 91.6701 2.92118 -0.589144 0
M  V30 966 H 89.2071 1.43959 -0.302342 0
M  V30 967 H 91.1651 3.79569 1.73156 0
M  V30 968 H 89.7951 2.65872 1.83062 0
M  V30 969 H 88.8471 3.79152 -0.307826 0
M  V30 970 H 90.1591 4.98458 -0.184565 0
M  V30 971 H 89.3131 5.70747 2.05749 0
M  V30 972 H 88.0521 4.44316 2.01084 0
M  V30 973 H 87.0571 5.49786 -0.0385419 0
M  V30 974 H 88.2821 6.79095 0.0270945 0
M  V30 975 H 86.2281 6.18449 2.18761 0
M  V30 976 H 86.1451 7.48709 1.04738 0
M  V30 977 H 87.4131 7.4673 2.23639 0
M  V30 978 N 91.6422 0.330177 1.54103 0
M  V30 979 C 92.5722 -0.525353 2.27513 0
M  V30 980 C 93.5532 -1.11383 1.2856 0
M  V30 981 O 94.7382 -1.13773 1.57383 0
M  V30 982 C 91.8682 -1.6831 3.03791 0
M  V30 983 C 90.8222 -1.2236 4.10137 0
M  V30 984 C 90.1482 -2.46882 4.74293 0
M  V30 985 C 91.4482 -0.333697 5.21233 0
M  V30 986 H 93.1422 0.087013 2.99274 0
M  V30 987 H 90.6882 0.0432893 1.43935 0
M  V30 988 H 92.6412 -2.28795 3.5388 0
M  V30 989 H 91.3652 -2.32216 2.29659 0
M  V30 990 H 90.0242 -0.64165 3.60941 0
M  V30 991 H 89.6722 -3.09165 3.96769 0
M  V30 992 H 89.3722 -2.16825 5.46133 0
M  V30 993 H 90.8962 -3.08117 5.27159 0
M  V30 994 H 92.3102 -0.845013 5.67038 0
M  V30 995 H 90.7072 -0.125612 5.99969 0
M  V30 996 H 91.7772 0.633724 4.80741 0
M  V30 997 N 93.1203 -1.57491 0.0584922 0
M  V30 998 C 94.0673 -2.11958 -0.913376 0
M  V30 999 C 95.0373 -1.02875 -1.30407 0
M  V30 1000 O 96.2223 -1.30464 -1.39226 0
M  V30 1001 C 93.3623 -2.67497 -2.18035 0
M  V30 1002 C 92.4753 -3.90691 -1.84349 0
M  V30 1003 C 91.6103 -4.3452 -3.05559 0
M  V30 1004 C 90.6493 -5.50395 -2.67827 0
M  V30 1005 N 89.7863 -5.89244 -3.81754 0
M  V30 1006 H 94.6263 -2.94704 -0.442017 0
M  V30 1007 H 92.1633 -1.45643 -0.206545 0
M  V30 1008 H 94.1213 -2.978 -2.92183 0
M  V30 1009 H 92.7513 -1.87537 -2.62735 0
M  V30 1010 H 91.8033 -3.66934 -1.00319 0
M  V30 1011 H 93.1153 -4.7489 -1.5258 0
M  V30 1012 H 92.2693 -4.66414 -3.87998 0
M  V30 1013 H 91.0083 -3.49147 -3.40511 0
M  V30 1014 H 90.0133 -5.18165 -1.83806 0
M  V30 1015 H 91.2383 -6.3749 -2.34059 0
M  V30 1016 H 89.1843 -5.06823 -4.16493 0
M  V30 1017 H 89.1013 -6.68151 -3.53708 0
M  V30 1018 H 90.3693 -6.25756 -4.64811 0
M  V30 1019 N 94.5984 0.214957 -1.56127 0
M  V30 1020 C 95.5614 1.24997 -1.92116 0
M  V30 1021 C 96.5614 1.39467 -0.800344 0
M  V30 1022 O 97.7514 1.37619 -1.06802 0
M  V30 1023 C 94.8834 2.62271 -2.17777 0
M  V30 1024 H 96.0764 0.942875 -2.84693 0
M  V30 1025 H 93.6294 0.455654 -1.49511 0
M  V30 1026 H 94.3644 2.98068 -1.27773 0
M  V30 1027 H 94.1494 2.53143 -2.99434 0
M  V30 1028 H 95.6394 3.36946 -2.46693 0
M  V30 1029 N 96.0765 1.50051 0.48192 0
M  V30 1030 C 96.9865 1.7089 1.60728 0
M  V30 1031 C 98.0025 0.591788 1.63627 0
M  V30 1032 O 99.1785 0.868817 1.81696 0
M  V30 1033 C 96.2435 1.78855 2.97005 0
M  V30 1034 C 95.3045 3.02537 3.04581 0
M  V30 1035 C 94.5375 3.10112 4.34357 0
M  V30 1036 O 94.7605 2.24765 5.24249 0
M  V30 1037 O 93.6945 4.02747 4.47301 0
M  V30 1038 H 97.5205 2.66264 1.46072 0
M  V30 1039 H 95.1055 1.34018 0.660264 0
M  V30 1040 H 96.9875 1.86336 3.77964 0
M  V30 1041 H 95.6625 0.866628 3.11883 0
M  V30 1042 H 94.5695 3.00563 2.22739 0
M  V30 1043 H 95.9025 3.94272 2.94636 0
M  V30 1044 N 97.5546 -0.734337 1.39446 0
M  V30 1045 C 98.9706 -1.03997 1.21065 0
M  V30 1046 C 99.1706 -2.01369 0.0727019 0
M  V30 1047 O 98.2266 -2.45856 -0.575426 0
M  V30 1048 C 99.5396 -1.60163 2.54496 0
M  V30 1049 C 101.088 -1.7224 2.61347 0
M  V30 1050 C 101.563 -2.31814 3.95002 0
M  V30 1051 N 103.054 -2.39223 3.96644 0
M  V30 1052 C 103.789 -2.86258 4.96834 0
M  V30 1053 N 103.285 -3.33184 6.07421 0
M  V30 1054 N 105.078 -2.85473 4.84213 0
M  V30 1055 H 97.2286 -0.0885624 2.12215 0
M  V30 1056 H 99.4916 -0.10191 0.942506 0
M  V30 1057 H 99.1976 -0.960811 3.38321 0
M  V30 1058 H 99.0716 -2.5896 2.74262 0
M  V30 1059 H 101.459 -2.35443 1.77906 0
M  V30 1060 H 101.54 -0.720939 2.4543 0
M  V30 1061 H 101.184 -1.69238 4.78875 0
M  V30 1062 H 101.114 -3.32638 4.08239 0
M  V30 1063 H 103.605 -2.06057 3.16779 0
M  V30 1064 H 103.918 -3.67586 6.7978 0
M  V30 1065 H 102.263 -3.31191 6.11013 0
M  V30 1066 H 105.454 -2.48136 3.96921 0
M  V30 1067 H 105.627 -3.21814 5.62441 0
M  V30 1068 N 99.0327 -1.24633 -0.964593 0
M  V30 1069 C 99.9427 -1.05859 -2.09359 0
M  V30 1070 C 100.959 0.00148855 -1.74 0
M  V30 1071 O 102.135 -0.197346 -2.00431 0
M  V30 1072 C 99.1997 -0.668879 -3.40187 0
M  V30 1073 C 98.2607 -1.80578 -3.89474 0
M  V30 1074 C 97.4937 -1.43457 -5.14058 0
M  V30 1075 O 97.7167 -0.325775 -5.69469 0
M  V30 1076 O 96.6507 -2.2613 -5.57807 0
M  V30 1077 H 100.477 -2.00516 -2.28094 0
M  V30 1078 H 98.0617 -1.03481 -1.0776 0
M  V30 1079 H 99.9437 -0.463211 -4.18846 0
M  V30 1080 H 98.6187 0.248536 -3.22744 0
M  V30 1081 H 97.5257 -2.06623 -3.11862 0
M  V30 1082 H 98.8587 -2.70208 -4.11398 0
M  V30 1083 N 100.511 1.16574 -1.06058 0
M  V30 1084 C 101.927 1.3904 -0.783585 0
M  V30 1085 C 102.127 1.91784 0.618145 0
M  V30 1086 O 101.183 2.11511 1.37911 0
M  V30 1087 C 102.496 2.37329 -1.84649 0
M  V30 1088 C 104.044 2.51018 -1.86973 0
M  V30 1089 C 104.519 3.52588 -2.92311 0
M  V30 1090 N 106.01 3.60113 -2.91329 0
M  V30 1091 C 106.745 4.38486 -3.69482 0
M  V30 1092 N 106.241 5.20302 -4.57447 0
M  V30 1093 N 108.034 4.33446 -3.57885 0
M  V30 1094 H 100.185 0.806725 -1.96483 0
M  V30 1095 H 102.448 0.417117 -0.851303 0
M  V30 1096 H 102.154 2.05663 -2.85299 0
M  V30 1097 H 102.028 3.36946 -1.6955 0
M  V30 1098 H 104.415 2.81989 -0.869827 0
M  V30 1099 H 104.496 1.51445 -2.0615 0
M  V30 1100 H 104.14 3.22354 -3.92492 0
M  V30 1101 H 104.07 4.51886 -2.70383 0
M  V30 1102 H 106.561 3.01707 -2.27555 0
M  V30 1103 H 106.874 5.77311 -5.13743 0
M  V30 1104 H 105.219 5.19653 -4.61503 0
M  V30 1105 H 108.41 3.68586 -2.88551 0
M  V30 1106 H 108.583 4.94279 -4.19037 0
M  V30 1107 N 101.989 0.842826 1.3317 0
M  V30 1108 C 103.237 0.439577 1.97262 0
M  V30 1109 C 103.558 -1.00548 1.67078 0
M  V30 1110 O 102.828 -1.70098 0.971779 0
M  V30 1111 H 101.408 0.159558 0.72976 0
M  V30 1112 H 104.07 1.07665 1.62463 0
M  V30 1113 H 103.166 0.574886 3.0676 0
M  V30 1114 N 103.467 -1.45747 0.599634 0
M  V30 1115 C 104.716 -2.01502 0.0893511 0
M  V30 1116 C 105.029 -1.4748 -1.28488 0
M  V30 1117 O 106.235 -1.95161 -1.88745 0
M  V30 1118 C 104.691 -3.59735 0.109082 0
M  V30 1119 C 104.299 -4.22754 1.48267 0
M  V30 1120 C 106.043 -4.23085 -0.346374 0
M  V30 1121 C 103.95 -5.73115 1.45921 0
M  V30 1122 H 102.88 -0.753417 0.0296347 0
M  V30 1123 H 105.531 -1.67303 0.753788 0
M  V30 1124 H 103.913 -3.91087 -0.621854 0
M  V30 1125 H 105.087 -4.02987 2.23468 0
M  V30 1126 H 103.402 -3.71567 1.87955 0
M  V30 1127 H 105.999 -5.33327 -0.38298 0
M  V30 1128 H 106.342 -3.93201 -1.36743 0
M  V30 1129 H 106.875 -3.9642 0.331038 0
M  V30 1130 H 103.614 -6.07685 2.45762 0
M  V30 1131 H 103.134 -5.95097 0.749665 0
M  V30 1132 H 104.813 -6.3616 1.17941 0
M  V30 1133 N 104.945 -0.338344 -1.53925 0
M  V30 1134 C 106.173 0.261298 -2.05243 0
M  V30 1135 C 106.588 1.44625 -1.21363 0
M  V30 1136 O 105.945 1.80811 -0.247736 0
M  V30 1137 C 105.996 0.681412 -3.5502 0
M  V30 1138 O 105.717 -0.456414 -4.35716 0
M  V30 1139 C 107.218 1.34232 -4.22489 0
M  V30 1140 H 104.438 0.0513685 -0.669031 0
M  V30 1141 H 106.982 -0.488822 -1.98572 0
M  V30 1142 H 105.137 1.38148 -3.61931 0
M  V30 1143 H 105.551 -0.122564 -5.24357 0
M  V30 1144 H 107.025 1.58708 -5.28693 0
M  V30 1145 H 107.502 2.29426 -3.74514 0
M  V30 1146 H 108.108 0.684424 -4.19757 0
M  V30 1147 N 106.423 1.57458 -0.0668435 0
M  V30 1148 C 107.672 1.92477 0.602947 0
M  V30 1149 C 107.985 0.948419 1.71068 0
M  V30 1150 O 109.191 1.19124 2.43971 0
M  V30 1151 C 107.647 3.41903 1.12383 0
M  V30 1152 C 107.255 4.47975 0.04737 0
M  V30 1153 C 108.999 3.85931 1.76797 0
M  V30 1154 C 106.906 5.88529 0.582022 0
M  V30 1155 H 105.836 0.718387 0.22899 0
M  V30 1156 H 108.487 1.82978 -0.138276 0
M  V30 1157 H 106.869 3.46459 1.91787 0
M  V30 1158 H 108.043 4.55029 -0.726978 0
M  V30 1159 H 106.358 4.13384 -0.500243 0
M  V30 1160 H 108.955 4.88322 2.17821 0
M  V30 1161 H 109.298 3.23029 2.62599 0
M  V30 1162 H 109.831 3.83958 1.04024 0
M  V30 1163 H 106.57 6.55065 -0.238721 0
M  V30 1164 H 106.09 5.85004 1.324 0
M  V30 1165 H 107.769 6.38258 1.05999 0
M  V30 1166 N 107.901 -0.206675 1.56239 0
M  V30 1167 C 109.178 -0.954051 1.70755 0
M  V30 1168 C 109.558 -2.01841 0.618353 0
M  V30 1169 O 108.906 -2.25444 -0.372434 0
M  V30 1170 C 109.116 -1.551 3.12642 0
M  V30 1171 C 110.464 -2.03757 3.72516 0
M  V30 1172 O 111.488 -1.64965 3.15698 0
M  V30 1173 O 110.347 -2.75103 4.72208 0
M  V30 1174 H 107.441 -0.446636 0.696021 0
M  V30 1175 H 109.987 -0.197283 1.68549 0
M  V30 1176 H 108.759 -0.783212 3.83382 0
M  V30 1177 H 108.382 -2.37291 3.19028 0
M  V30 1178 N 109.379 -1.50304 -0.473955 0
M  V30 1179 C 110.628 -1.60392 -1.22301 0
M  V30 1180 C 110.941 -0.308411 -1.93153 0
M  V30 1181 O 112.147 -0.288156 -2.69966 0
M  V30 1182 C 110.603 -2.83109 -2.2221 0
M  V30 1183 C 110.211 -4.19524 -1.57173 0
M  V30 1184 C 111.955 -3.0254 -2.97775 0
M  V30 1185 C 109.862 -5.33431 -2.55353 0
M  V30 1186 H 108.792 -0.597286 -0.460179 0
M  V30 1187 H 111.443 -1.76731 -0.493803 0
M  V30 1188 H 109.825 -2.60322 -2.9841 0
M  V30 1189 H 110.999 -4.52554 -0.867824 0
M  V30 1190 H 109.314 -4.05674 -0.939002 0
M  V30 1191 H 111.911 -3.84811 -3.71248 0
M  V30 1192 H 112.254 -2.14154 -3.56992 0
M  V30 1193 H 112.787 -3.25494 -2.28688 0
M  V30 1194 H 109.526 -6.23962 -2.00878 0
M  V30 1195 H 109.046 -5.04823 -3.23904 0
M  V30 1196 H 110.725 -5.63887 -3.17239 0
M  V30 1197 N 110.857 0.726932 -1.39834 0
M  V30 1198 C 112.082 1.52121 -1.40976 0
M  V30 1199 C 112.507 1.88098 -0.00826029 0
M  V30 1200 O 111.865 1.52479 0.980807 0
M  V30 1201 C 111.913 2.78021 -2.29644 0
M  V30 1202 O 111.017 3.74272 -1.73188 0
M  V30 1203 H 110.358 0.45908 -0.479731 0
M  V30 1204 H 112.888 0.896207 -1.83927 0
M  V30 1205 H 112.898 3.26671 -2.44438 0
M  V30 1206 H 111.573 2.51169 -3.31492 0
M  V30 1207 H 110.15 3.33073 -1.6768 0
M  V30 1208 N 112.336 1.25143 0.95797 0
M  V30 1209 C 113.266 1.07711 2.07173 0
M  V30 1210 C 114.247 -0.0128462 1.70095 0
M  V30 1211 O 115.432 0.156061 1.93572 0
M  V30 1212 C 112.562 0.691503 3.40346 0
M  V30 1213 C 111.516 1.73132 3.9142 0
M  V30 1214 C 110.842 1.20049 5.21049 0
M  V30 1215 C 112.142 3.1294 4.1817 0
M  V30 1216 H 113.836 2.00873 2.22014 0
M  V30 1217 H 111.382 0.967191 1.06684 0
M  V30 1218 H 113.335 0.556505 4.17709 0
M  V30 1219 H 112.059 -0.275819 3.25433 0
M  V30 1220 H 110.718 1.8547 3.16222 0
M  V30 1221 H 110.366 0.223499 5.02503 0
M  V30 1222 H 110.066 1.89545 5.56189 0
M  V30 1223 H 111.59 1.07782 6.01012 0
M  V30 1224 H 113.004 3.03775 4.86203 0
M  V30 1225 H 111.401 3.79875 4.64559 0
M  V30 1226 H 112.471 3.6025 3.24573 0
M  V30 1227 N 113.814 -1.1601 1.06675 0
M  V30 1228 C 115.06 -1.87145 0.796766 0
M  V30 1229 C 115.415 -1.8037 -0.669658 0
M  V30 1230 O 114.708 -1.21116 -1.48463 0
M  V30 1231 C 114.902 -3.35547 1.23057 0
M  V30 1232 C 114.731 -3.56769 2.73762 0
M  V30 1233 C 113.501 -3.72635 3.41279 0
M  V30 1234 C 115.699 -3.55166 3.7197 0
M  V30 1235 N 113.681 -3.81845 4.80695 0
M  V30 1236 C 115.052 -3.70406 4.97191 0
M  V30 1237 C 117.107 -3.384 3.65226 0
M  V30 1238 C 115.81 -3.70615 6.16471 0
M  V30 1239 C 117.836 -3.39904 4.83962 0
M  V30 1240 C 117.198 -3.55667 6.08013 0
M  V30 1241 H 113.297 -0.702267 0.344014 0
M  V30 1242 H 115.881 -1.39165 1.36166 0
M  V30 1243 H 114.052 -3.82159 0.693456 0
M  V30 1244 H 115.784 -3.94363 0.908844 0
M  V30 1245 H 112.539 -3.73121 2.91681 0
M  V30 1246 H 112.963 -3.90209 5.53232 0
M  V30 1247 H 117.605 -3.25138 2.70269 0
M  V30 1248 H 115.323 -3.82658 7.11757 0
M  V30 1249 H 118.909 -3.28169 4.80413 0
M  V30 1250 H 117.789 -3.56755 6.98352 0
M  V30 1251 N 115.292 -0.849877 -1.32721 0
M  V30 1252 C 116.239 -0.289033 -2.28983 0
M  V30 1253 C 117.209 0.601324 -1.54833 0
M  V30 1254 O 118.394 0.537253 -1.8308 0
M  V30 1255 C 115.534 0.520623 -3.4115 0
M  V30 1256 C 114.647 -0.394989 -4.3019 0
M  V30 1257 C 113.782 0.426834 -5.29482 0
M  V30 1258 C 112.821 -0.486476 -6.10164 0
M  V30 1259 N 111.958 0.297879 -7.01468 0
M  V30 1260 H 116.798 -1.11519 -2.76347 0
M  V30 1261 H 114.335 -0.56138 -1.35967 0
M  V30 1262 H 116.293 1.00563 -4.04899 0
M  V30 1263 H 114.923 1.31165 -2.9495 0
M  V30 1264 H 113.975 -0.99836 -3.67065 0
M  V30 1265 H 115.287 -1.09612 -4.86607 0
M  V30 1266 H 114.441 0.975205 -5.98811 0
M  V30 1267 H 113.18 1.16136 -4.73671 0
M  V30 1268 H 112.185 -1.04677 -5.39743 0
M  V30 1269 H 113.41 -1.21953 -6.6806 0
M  V30 1270 H 111.356 1.01558 -6.48091 0
M  V30 1271 H 111.273 -0.344318 -7.55216 0
M  V30 1272 H 112.541 0.828131 -7.75089 0
M  V30 1273 N 116.77 1.45427 -0.607355 0
M  V30 1274 C 118.017 2.02241 -0.102455 0
M  V30 1275 C 118.345 1.4758 1.26691 0
M  V30 1276 O 117.6 0.640468 1.84923 0
M  V30 1277 C 117.899 3.57398 -0.0129263 0
M  V30 1278 C 117.565 4.3121 -1.31792 0
M  V30 1279 C 116.227 4.51092 -1.67539 0
M  V30 1280 C 118.579 4.73401 -2.18039 0
M  V30 1281 C 115.907 5.10422 -2.89285 0
M  V30 1282 C 118.259 5.34078 -3.39034 0
M  V30 1283 C 116.923 5.52184 -3.75033 0
M  V30 1284 H 116.193 0.740051 -0.037491 0
M  V30 1285 H 118.84 1.74494 -0.788926 0
M  V30 1286 H 117.145 3.84421 0.756806 0
M  V30 1287 H 118.842 3.99061 0.393881 0
M  V30 1288 H 115.432 4.16047 -1.02968 0
M  V30 1289 H 119.616 4.57774 -1.91721 0
M  V30 1290 H 114.872 5.22629 -3.17283 0
M  V30 1291 H 119.046 5.65724 -4.06115 0
M  V30 1292 H 116.673 5.97925 -4.69457 0
M  V30 1293 N 118.248 0.346503 1.53744 0
M  V30 1294 C 119.158 -0.517293 2.28826 0
M  V30 1295 C 120.174 -1.10935 1.3405 0
M  V30 1296 O 121.35 -1.1244 1.6709 0
M  V30 1297 C 118.415 -1.65098 3.04866 0
M  V30 1298 C 117.476 -1.0884 4.15274 0
M  V30 1299 C 116.709 -2.16806 4.87679 0
M  V30 1300 O 116.932 -3.3758 4.59778 0
M  V30 1301 O 115.866 -1.80934 5.74061 0
M  V30 1302 H 119.692 0.0931396 3.03557 0
M  V30 1303 H 117.277 0.111458 1.48984 0
M  V30 1304 H 119.159 -2.31053 3.5241 0
M  V30 1305 H 117.834 -2.24717 2.32989 0
M  V30 1306 H 116.741 -0.3933 3.72027 0
M  V30 1307 H 118.074 -0.537036 4.89261 0
M  V30 1308 N 119.726 -1.57421 0.075193 0
M  V30 1309 C 120.954 -1.97946 -0.602076 0
M  V30 1310 C 121.369 -0.953674 -1.62943 0
M  V30 1311 O 120.726 0.0592551 -1.82404 0
M  V30 1312 C 120.777 -3.38546 -1.26762 0
M  V30 1313 O 120.498 -4.37195 -0.281376 0
M  V30 1314 C 121.999 -3.93966 -2.03239 0
M  V30 1315 H 119.219 -0.650918 -0.162931 0
M  V30 1316 H 121.763 -2.03959 0.148601 0
M  V30 1317 H 119.918 -3.33609 -1.96936 0
M  V30 1318 H 120.332 -5.18975 -0.759267 0
M  V30 1319 H 121.806 -4.94555 -2.45193 0
M  V30 1320 H 122.283 -3.30693 -2.8903 0
M  V30 1321 H 122.889 -4.02315 -1.37924 0
M  V30 1322 N 121.204 0.198386 -1.56346 0
M  V30 1323 C 122.429 0.939682 -1.84891 0
M  V30 1324 C 122.854 1.76202 -0.658369 0
M  V30 1325 O 122.212 1.76993 0.392851 0
M  V30 1326 C 122.26 1.81428 -3.11635 0
M  V30 1327 O 121.364 2.91265 -2.91956 0
M  V30 1328 H 120.705 0.264807 -0.608912 0
M  V30 1329 H 123.235 0.204695 -2.03573 0
M  V30 1330 H 123.245 2.21958 -3.42343 0
M  V30 1331 H 121.92 1.21004 -3.97908 0
M  V30 1332 H 120.497 2.54514 -2.72538 0
M  V30 1333 N 122.682 1.50554 0.465978 0
M  V30 1334 C 123.629 1.6979 1.56333 0
M  V30 1335 C 124.599 0.539239 1.57103 0
M  V30 1336 O 125.784 0.770401 1.74555 0
M  V30 1337 C 122.924 1.80273 2.94271 0
M  V30 1338 C 122.037 3.07674 3.0325 0
M  V30 1339 C 121.172 3.08922 4.32135 0
M  V30 1340 C 120.211 4.30755 4.34875 0
M  V30 1341 N 119.348 4.29714 5.55239 0
M  V30 1342 H 124.188 2.63472 1.39235 0
M  V30 1343 H 121.725 1.30602 0.676873 0
M  V30 1344 H 123.683 1.84332 3.74269 0
M  V30 1345 H 122.313 0.900258 3.09992 0
M  V30 1346 H 121.365 3.13062 2.16094 0
M  V30 1347 H 122.677 3.97642 3.01135 0
M  V30 1348 H 121.831 3.11738 5.20485 0
M  V30 1349 H 120.57 2.16792 4.36866 0
M  V30 1350 H 119.575 4.28146 3.44922 0
M  V30 1351 H 120.8 5.24117 4.31831 0
M  V30 1352 H 118.746 3.4044 5.60746 0
M  V30 1353 H 118.663 5.13456 5.54886 0
M  V30 1354 H 119.931 4.36683 6.457 0
M  V30 1355 N 124.16 -0.719506 1.40217 0
M  V30 1356 C 125.39 -1.50646 1.41384 0
M  V30 1357 C 125.798 -1.89197 0.0107743 0
M  V30 1358 O 125.141 -1.55709 -0.974708 0
M  V30 1359 C 125.203 -2.81405 2.23722 0
M  V30 1360 C 124.867 -2.65199 3.72181 0
M  V30 1361 C 125.864 -2.32717 4.64907 0
M  V30 1362 C 123.549 -2.81586 4.1595 0
M  V30 1363 C 125.543 -2.16827 5.99387 0
M  V30 1364 C 123.23 -2.65313 5.50502 0
M  V30 1365 C 124.228 -2.32981 6.42035 0
M  V30 1366 O 123.916 -2.16827 7.74107 0
M  V30 1367 H 123.648 -0.471606 0.484318 0
M  V30 1368 H 126.202 -0.895456 1.84853 0
M  V30 1369 H 124.432 -3.44823 1.75026 0
M  V30 1370 H 126.121 -3.43102 2.16878 0
M  V30 1371 H 126.887 -2.19694 4.32388 0
M  V30 1372 H 122.766 -3.0574 3.45027 0
M  V30 1373 H 126.31 -1.91513 6.70797 0
M  V30 1374 H 122.207 -2.7792 5.82607 0
M  V30 1375 H 122.975 -2.31778 7.84998 0
M  V30 1376 N 125.638 -1.25649 -0.95132 0
M  V30 1377 C 126.868 -1.13179 -1.72841 0
M  V30 1378 C 127.276 0.316827 -1.86528 0
M  V30 1379 O 126.619 1.22948 -1.3649 0
M  V30 1380 C 126.681 -1.71644 -3.15878 0
M  V30 1381 C 126.345 -3.20667 -3.25609 0
M  V30 1382 C 127.342 -4.17616 -3.09666 0
M  V30 1383 C 125.027 -3.6094 -3.49324 0
M  V30 1384 C 127.021 -5.52817 -3.17289 0
M  V30 1385 C 124.708 -4.96278 -3.56584 0
M  V30 1386 C 125.706 -5.92025 -3.40581 0
M  V30 1387 O 125.394 -7.24899 -3.47528 0
M  V30 1388 H 125.126 -0.395389 -0.54831 0
M  V30 1389 H 127.68 -1.66566 -1.20187 0
M  V30 1390 H 125.91 -1.12707 -3.69911 0
M  V30 1391 H 127.599 -1.54225 -3.75459 0
M  V30 1392 H 128.365 -3.87842 -2.91211 0
M  V30 1393 H 124.244 -2.86907 -3.6084 0
M  V30 1394 H 127.788 -6.2753 -3.04716 0
M  V30 1395 H 123.685 -5.25716 -3.74556 0
M  V30 1396 H 124.453 -7.33039 -3.64138 0
M  V30 1397 N 127.117 1.15442 -1.07289 0
M  V30 1398 C 128.363 1.86489 -0.796846 0
M  V30 1399 C 128.696 1.82078 0.675371 0
M  V30 1400 O 127.971 1.24346 1.4956 0
M  V30 1401 C 128.254 3.35626 -1.30489 0
M  V30 1402 C 128.107 3.48673 -2.84161 0
M  V30 1403 C 129.426 4.30357 -0.920907 0
M  V30 1404 H 126.545 0.677144 -0.290939 0
M  V30 1405 H 129.187 1.35633 -1.33056 0
M  V30 1406 H 127.337 3.79068 -0.850883 0
M  V30 1407 H 129.009 3.14099 -3.37846 0
M  V30 1408 H 127.252 2.90253 -3.22391 0
M  V30 1409 H 127.923 4.53453 -3.14777 0
M  V30 1410 H 130.399 3.94871 -1.3121 0
M  V30 1411 H 129.275 5.33193 -1.30372 0
M  V30 1412 H 129.536 4.4176 0.173226 0
M  V30 1413 N 128.595 0.856903 1.32268 0
M  V30 1414 C 129.823 0.475439 2.01363 0
M  V30 1415 C 130.238 -0.928486 1.64392 0
M  V30 1416 O 129.595 -1.60624 0.866387 0
M  V30 1417 C 129.646 0.607545 3.56358 0
M  V30 1418 O 129.367 1.95617 3.92002 0
M  V30 1419 C 130.868 0.225382 4.42727 0
M  V30 1420 H 128.088 0.186636 0.644521 0
M  V30 1421 H 130.632 1.15446 1.68797 0
M  V30 1422 H 128.787 -0.0237719 3.87393 0
M  V30 1423 H 129.201 1.95455 4.86721 0
M  V30 1424 H 130.675 0.368813 5.50767 0
M  V30 1425 H 131.152 -0.834369 4.31202 0
M  V30 1426 H 131.758 0.831864 4.17085 0
M  V30 1427 N 130.073 -1.45103 0.615059 0
M  V30 1428 C 131.322 -2.01396 0.110718 0
M  V30 1429 C 131.635 -1.48834 -1.26916 0
M  V30 1430 O 132.841 -1.97152 -1.86664 0
M  V30 1431 C 131.297 -3.59599 0.14723 0
M  V30 1432 C 130.905 -4.21158 1.52743 0
M  V30 1433 C 132.649 -4.23428 -0.30148 0
M  V30 1434 C 130.556 -5.71535 1.51992 0
M  V30 1435 H 129.486 -0.753061 0.0376241 0
M  V30 1436 H 132.137 -1.66494 0.77149 0
M  V30 1437 H 130.519 -3.91724 -0.580339 0
M  V30 1438 H 131.693 -4.00594 2.2773 0
M  V30 1439 H 130.008 -3.69552 1.91886 0
M  V30 1440 H 132.605 -5.33703 -0.326392 0
M  V30 1441 H 132.948 -3.94629 -1.32565 0
M  V30 1442 H 133.481 -3.96047 0.373065 0
M  V30 1443 H 130.22 -6.05044 2.52193 0
M  V30 1444 H 129.74 -5.94268 0.81274 0
M  V30 1445 H 131.419 -6.34873 1.24681 0
M  V30 1446 N 131.551 -0.354651 -1.53558 0
M  V30 1447 C 132.8 0.239504 -2.00273 0
M  V30 1448 C 133.113 1.50759 -1.24623 0
M  V30 1449 O 134.319 2.17968 -1.61871 0
M  V30 1450 C 132.775 0.477341 -3.5672 0
M  V30 1451 C 132.383 -0.775488 -4.41237 0
M  V30 1452 C 134.127 1.02975 -4.11821 0
M  V30 1453 C 132.034 -0.507838 -5.89216 0
M  V30 1454 H 130.964 0.0932743 -0.748208 0
M  V30 1455 H 133.615 -0.471701 -1.77334 0
M  V30 1456 H 131.997 1.24953 -3.7577 0
M  V30 1457 H 133.171 -1.54963 -4.33962 0
M  V30 1458 H 131.486 -1.25033 -3.97185 0
M  V30 1459 H 134.083 1.24513 -5.2 0
M  V30 1460 H 134.426 1.98862 -3.65731 0
M  V30 1461 H 134.959 0.317994 -3.96527 0
M  V30 1462 H 131.698 -1.43674 -6.39561 0
M  V30 1463 H 131.218 0.228011 -5.99366 0
M  V30 1464 H 132.897 -0.129238 -6.46871 0
M  V30 1465 N 133.029 1.57378 -0.0835403 0
M  V30 1466 C 134.306 1.85363 0.624507 0
M  V30 1467 C 134.686 0.978239 1.87066 0
M  V30 1468 O 134.034 0.0475908 2.2845 0
M  V30 1469 C 134.244 3.35795 0.950947 0
M  V30 1470 C 135.592 4.03581 1.31939 0
M  V30 1471 O 136.616 3.40609 1.04232 0
M  V30 1472 O 135.475 5.14672 1.83779 0
M  V30 1473 H 132.569 0.766162 0.311329 0
M  V30 1474 H 135.115 1.69307 -0.115362 0
M  V30 1475 H 133.887 3.91244 0.0663899 0
M  V30 1476 H 133.51 3.57154 1.74719 0
M  V30 1477 N 134.507 -0.190092 1.56449 0
M  V30 1478 C 135.47 -1.21925 1.9408 0
M  V30 1479 C 136.47 -1.38176 0.822431 0
M  V30 1480 O 137.66 -1.35903 1.08977 0
M  V30 1481 C 134.792 -2.58773 2.21922 0
M  V30 1482 H 135.985 -0.897464 2.86157 0
M  V30 1483 H 133.538 -0.43181 1.50217 0
M  V30 1484 H 134.273 -2.95998 1.32499 0
M  V30 1485 H 134.058 -2.48348 3.03424 0
M  V30 1486 H 135.548 -3.32978 2.52022 0
M  V30 1487 N 135.985 -1.50799 -0.457987 0
M  V30 1488 C 137.396 -1.55152 -1.0385 0
M  V30 1489 C 137.747 -0.362719 -1.92818 0
M  V30 1490 O 136.872 0.522915 -2.09987 0
M  V30 1491 C 137.467 -2.81173 -1.89017 0
M  V30 1492 C 136.026 -2.88164 -2.42154 0
M  V30 1493 C 135.173 -2.49591 -1.20829 0
M  V30 1494 H 138.124 -1.56874 -0.240068 0
M  V30 1495 H 138.145 -2.63769 -2.74238 0
M  V30 1496 H 137.657 -3.67677 -1.24238 0
M  V30 1497 H 135.758 -2.06042 -3.10447 0
M  V30 1498 H 135.871 -3.91356 -2.76364 0
M  V30 1499 H 134.235 -2.02322 -1.54719 0
M  V30 1500 H 135.018 -3.38418 -0.576927 0
M  V30 1501 N 137.463 0.71206 -1.40597 0
M  V30 1502 C 138.711 1.46907 -1.38791 0
M  V30 1503 C 139.032 1.94998 0.00780391 0
M  V30 1504 O 138.302 1.70587 0.963174 0
M  V30 1505 H 136.882 0.545043 -0.51082 0
M  V30 1506 H 139.544 0.843882 -1.75683 0
M  V30 1507 H 138.64 2.34021 -2.06496 0
M  V30 1508 N 138.941 1.26152 0.944643 0
M  V30 1509 C 139.891 1.04081 2.02857 0
M  V30 1510 C 140.875 -0.0256555 1.6088 0
M  V30 1511 O 142.067 0.190884 1.75968 0
M  V30 1512 C 139.196 0.672118 3.36656 0
M  V30 1513 C 138.282 1.77586 3.85128 0
M  V30 1514 N 138.673 3.01272 4.06287 0
M  V30 1515 C 136.971 1.65867 4.1401 0
M  V30 1516 C 137.672 3.72983 4.46384 0
M  V30 1517 N 136.648 3.00653 4.52889 0
M  V30 1518 H 140.45 1.97968 2.17223 0
M  V30 1519 H 137.964 1.16618 1.13022 0
M  V30 1520 H 139.961 0.495166 4.13949 0
M  V30 1521 H 138.621 -0.259307 3.23663 0
M  V30 1522 H 139.632 3.37213 3.93075 0
M  V30 1523 H 136.309 0.796907 4.09824 0
M  V30 1524 H 137.699 4.792 4.70975 0
M  V30 1525 N 140.419 -1.14872 1.07899 0
M  V30 1526 C 141.835 -1.37776 0.805606 0
M  V30 1527 C 142.035 -1.92743 -0.587555 0
M  V30 1528 O 141.091 -2.13678 -1.34528 0
M  V30 1529 C 142.404 -2.34361 1.88402 0
M  V30 1530 C 143.952 -2.48012 1.90942 0
M  V30 1531 C 144.427 -3.47893 2.97883 0
M  V30 1532 N 145.918 -3.55433 2.97021 0
M  V30 1533 C 146.653 -4.32553 3.76412 0
M  V30 1534 N 146.149 -5.12959 4.65666 0
M  V30 1535 N 147.942 -4.27697 3.64735 0
M  V30 1536 H 140.093 -0.775365 1.97742 0
M  V30 1537 H 142.356 -0.403521 0.857831 0
M  V30 1538 H 142.062 -2.01098 2.88535 0
M  V30 1539 H 141.936 -3.34206 1.74889 0
M  V30 1540 H 144.323 -2.8057 0.914579 0
M  V30 1541 H 144.404 -1.48147 2.08534 0
M  V30 1542 H 144.048 -3.16069 3.97571 0
M  V30 1543 H 143.978 -4.47527 2.77538 0
M  V30 1544 H 146.469 -2.98048 2.32326 0
M  V30 1545 H 146.782 -5.69065 5.22862 0
M  V30 1546 H 145.127 -5.12245 4.69712 0
M  V30 1547 H 148.318 -3.63949 2.94378 0
M  V30 1548 H 148.491 -4.8755 4.26848 0
M  V30 1549 N 141.898 -0.863906 -1.31812 0
M  V30 1550 C 143.175 -0.39275 -1.91616 0
M  V30 1551 C 143.555 1.12461 -1.7865 0
M  V30 1552 O 142.903 1.95045 -1.19037 0
M  V30 1553 C 143.113 -0.867385 -3.38049 0
M  V30 1554 C 144.461 -0.889966 -4.15168 0
M  V30 1555 O 145.485 -0.812635 -3.46806 0
M  V30 1556 O 144.344 -1.00079 -5.37258 0
M  V30 1557 H 141.438 -0.116358 -0.818773 0
M  V30 1558 H 143.984 -0.951418 -1.40521 0
M  V30 1559 H 142.756 -1.91081 -3.41473 0
M  V30 1560 H 142.379 -0.286687 -3.96565 0
M  V30 1561 N 143.376 1.44774 -0.622745 0
M  V30 1562 C 144.623 2.02121 -0.1239 0
M  V30 1563 C 144.951 1.48915 1.25118 0
M  V30 1564 O 144.206 0.660045 1.84233 0
M  V30 1565 C 144.505 3.57364 -0.0508323 0
M  V30 1566 C 144.171 4.29787 -1.36358 0
M  V30 1567 C 142.833 4.4929 -1.72314 0
M  V30 1568 C 145.185 4.71062 -2.23048 0
M  V30 1569 C 142.513 5.07325 -2.94682 0
M  V30 1570 C 144.865 5.30452 -3.44679 0
M  V30 1571 C 143.529 5.48175 -3.80868 0
M  V30 1572 H 142.799 0.739612 -0.0453381 0
M  V30 1573 H 145.446 1.73648 -0.807389 0
M  V30 1574 H 143.751 3.85202 0.715991 0
M  V30 1575 H 145.448 3.99456 0.351533 0
M  V30 1576 H 142.038 4.14932 -1.07375 0
M  V30 1577 H 146.222 4.55715 -1.96565 0
M  V30 1578 H 141.478 5.19235 -3.22809 0
M  V30 1579 H 145.652 5.61385 -4.12092 0
M  V30 1580 H 143.279 5.92912 -4.75773 0
M  V30 1581 N 144.854 0.36279 1.53368 0
M  V30 1582 C 146.103 -0.22888 2.00397 0
M  V30 1583 C 146.416 -1.50096 1.25421 0
M  V30 1584 O 147.622 -2.17106 1.63025 0
M  V30 1585 C 146.078 -0.458417 3.56969 0
M  V30 1586 C 145.686 0.798877 4.4082 0
M  V30 1587 C 147.43 -1.00789 4.12361 0
M  V30 1588 C 145.337 0.539078 5.88938 0
M  V30 1589 H 144.267 -0.089305 0.748693 0
M  V30 1590 H 146.918 0.481099 1.77081 0
M  V30 1591 H 145.3 -1.22959 3.76427 0
M  V30 1592 H 146.474 1.57262 4.33134 0
M  V30 1593 H 144.789 1.27137 3.96516 0
M  V30 1594 H 147.386 -1.21754 5.20653 0
M  V30 1595 H 147.729 -1.9692 3.66781 0
M  V30 1596 H 148.262 -0.296961 3.9669 0
M  V30 1597 H 145.001 1.47064 6.3879 0
M  V30 1598 H 144.521 -0.196222 5.99479 0
M  V30 1599 H 146.2 0.163542 6.46793 0
M  V30 1600 N 146.332 -1.57332 0.0918853 0
M  V30 1601 C 147.279 -2.13847 -0.868211 0
M  V30 1602 C 148.249 -1.05618 -1.28196 0
M  V30 1603 O 149.434 -1.33387 -1.36427 0
M  V30 1604 C 146.574 -2.72062 -2.12312 0
M  V30 1605 C 145.687 -3.94514 -1.7602 0
M  V30 1606 C 144.822 -4.40903 -2.96273 0
M  V30 1607 C 143.861 -5.55953 -2.56092 0
M  V30 1608 N 142.998 -5.97209 -3.69169 0
M  V30 1609 H 147.838 -2.95575 -0.379406 0
M  V30 1610 H 145.375 -1.46048 -0.175606 0
M  V30 1611 H 147.333 -3.03931 -2.858 0
M  V30 1612 H 145.963 -1.93068 -2.58698 0
M  V30 1613 H 145.015 -3.68979 -0.925135 0
M  V30 1614 H 146.327 -4.7802 -1.42472 0
M  V30 1615 H 145.481 -4.74539 -3.78018 0
M  V30 1616 H 144.22 -3.56291 -3.33029 0
M  V30 1617 H 143.225 -5.21948 -1.72773 0
M  V30 1618 H 144.45 -6.42311 -2.20484 0
M  V30 1619 H 142.396 -5.15543 -4.05649 0
M  V30 1620 H 142.313 -6.75504 -3.39456 0
M  V30 1621 H 143.581 -6.35475 -4.51434 0
M  V30 1622 N 147.81 0.181792 -1.56548 0
M  V30 1623 C 148.758 1.24461 -1.965 0
M  V30 1624 C 149.752 1.464 -0.852261 0
M  V30 1625 O 150.958 1.47103 -1.03733 0
M  V30 1626 H 147.333 0.418138 -0.625031 0
M  V30 1627 H 149.304 0.880714 -2.85107 0
M  V30 1628 C 148.053 2.57891 -2.33212 0
M  V30 1629 H 147.376 2.41829 -3.18369 0
M  V30 1630 H 148.816 3.3097 -2.65019 0
M  V30 1631 C 147.275 3.15871 -1.17163 0
M  V30 1632 O 147.805 3.9913 -0.453708 0
M  V30 1633 N 146.011 2.74808 -0.944936 0
M  V30 1634 H 145.558 2.07205 -1.53049 0
M  V30 1635 H 145.516 3.13939 -0.170286 0
M  V30 1636 N 149.288 1.51039 0.449983 0
M  V30 1637 C 150.221 1.66105 1.56474 0
M  V30 1638 C 151.199 0.508776 1.54435 0
M  V30 1639 O 152.383 0.731005 1.73749 0
M  V30 1640 C 149.51 1.66304 2.9506 0
M  V30 1641 C 148.556 2.87346 3.15174 0
M  V30 1642 S 149.389 4.4835 2.92818 0
M  V30 1643 C 150.545 4.51274 4.33708 0
M  V30 1644 H 150.778 2.60397 1.43459 0
M  V30 1645 H 148.311 1.40565 0.638805 0
M  V30 1646 H 150.269 1.67103 3.74949 0
M  V30 1647 H 148.93 0.732108 3.05449 0
M  V30 1648 H 148.123 2.83849 4.16468 0
M  V30 1649 H 147.725 2.84223 2.43091 0
M  V30 1650 H 150.017 4.26136 5.26701 0
M  V30 1651 H 150.96 5.53017 4.42242 0
M  V30 1652 H 151.368 3.80738 4.16772 0
M  V30 1653 N 150.766 -0.704594 1.40972 0
M  V30 1654 C 152.015 -1.46018 1.39146 0
M  V30 1655 C 152.328 -1.956 0.000589254 0
M  V30 1656 O 153.534 -2.71137 -0.1403 0
M  V30 1657 C 151.99 -2.63996 2.4461 0
M  V30 1658 C 151.598 -2.21238 3.89561 0
M  V30 1659 C 153.342 -3.41677 2.51907 0
M  V30 1660 C 151.249 -3.3612 4.86598 0
M  V30 1661 H 150.179 -0.548444 0.517422 0
M  V30 1662 H 152.83 -0.765784 1.66757 0
M  V30 1663 H 151.212 -3.3566 2.10115 0
M  V30 1664 H 152.386 -1.56923 4.33257 0
M  V30 1665 H 150.701 -1.56574 3.85841 0
M  V30 1666 H 153.298 -4.27182 3.2159 0
M  V30 1667 H 153.641 -3.86247 1.55303 0
M  V30 1668 H 154.174 -2.77064 2.85448 0
M  V30 1669 H 150.913 -2.96572 5.84573 0
M  V30 1670 H 150.433 -3.99315 4.47557 0
M  V30 1671 H 152.112 -4.02029 5.06934 0
M  V30 1672 N 152.244 -1.26651 -0.937939 0
M  V30 1673 C 153.472 -1.15173 -1.7188 0
M  V30 1674 C 153.887 0.292668 -1.86518 0
M  V30 1675 O 153.244 1.20014 -1.37488 0
M  V30 1676 C 153.295 -1.81925 -3.12387 0
M  V30 1677 O 153.016 -3.2072 -2.98446 0
M  V30 1678 C 154.517 -1.76442 -4.06673 0
M  V30 1679 H 151.737 -0.400911 -0.538063 0
M  V30 1680 H 154.281 -1.67332 -1.1756 0
M  V30 1681 H 152.436 -1.33696 -3.63599 0
M  V30 1682 H 152.85 -3.53802 -3.872 0
M  V30 1683 H 154.324 -2.27781 -5.02812 0
M  V30 1684 H 154.801 -0.731608 -4.33064 0
M  V30 1685 H 155.407 -2.24238 -3.61382 0
M  V30 1686 N 153.722 1.14298 -1.08507 0
M  V30 1687 C 154.97 1.84993 -0.813763 0
M  V30 1688 C 155.291 1.83405 0.662393 0
M  V30 1689 O 154.561 1.28319 1.48024 0
M  V30 1690 H 153.141 0.684966 -0.298045 0
M  V30 1691 H 155.803 1.385 -1.37126 0
M  V30 1692 H 154.899 2.89788 -1.15884 0
M  V30 1693 N 155.201 0.870884 1.31352 0
M  V30 1694 C 156.429 0.49677 2.00848 0
M  V30 1695 C 156.844 -0.910998 1.65367 0
M  V30 1696 O 156.201 -1.59696 0.883374 0
M  V30 1697 C 156.252 0.645308 3.55694 0
M  V30 1698 O 155.973 1.99764 3.89905 0
M  V30 1699 C 157.474 0.272326 4.42463 0
M  V30 1700 H 154.694 0.193462 0.642506 0
M  V30 1701 H 157.238 1.1723 1.67563 0
M  V30 1702 H 155.393 0.0173176 3.87396 0
M  V30 1703 H 155.807 2.00607 4.84621 0
M  V30 1704 H 157.281 0.427208 5.50344 0
M  V30 1705 H 157.758 -0.788587 4.32062 0
M  V30 1706 H 158.364 0.876054 4.1618 0
M  V30 1707 N 156.679 -1.44442 0.630414 0
M  V30 1708 C 157.904 -2.06927 0.139944 0
M  V30 1709 C 158.329 -1.46795 -1.17613 0
M  V30 1710 O 157.687 -0.569144 -1.72135 0
M  V30 1711 C 157.735 -3.6058 0.0379581 0
M  V30 1712 O 156.839 -3.99937 -1.0062 0
M  V30 1713 H 156.18 -0.658608 0.0844483 0
M  V30 1714 H 158.71 -1.85327 0.866891 0
M  V30 1715 H 158.72 -4.07714 -0.152856 0
M  V30 1716 H 157.395 -4.03728 0.998809 0
M  V30 1717 H 155.972 -3.64436 -0.79001 0
M  V30 1718 N 158.157 -0.370918 -1.53173 0
M  V30 1719 C 159.089 0.507823 -2.23503 0
M  V30 1720 C 160.102 1.04182 -1.251 0
M  V30 1721 O 161.291 0.947286 -1.5129 0
M  V30 1722 C 158.391 1.71447 -2.92334 0
M  V30 1723 C 157.564 1.31105 -4.17289 0
M  V30 1724 C 156.623 2.38035 -4.69282 0
M  V30 1725 O 155.649 2.00204 -5.32829 0
M  V30 1726 N 156.851 3.69697 -4.47554 0
M  V30 1727 H 159.616 -0.0946382 -2.99551 0
M  V30 1728 H 157.177 -0.196358 -1.60705 0
M  V30 1729 H 159.169 2.42469 -3.24023 0
M  V30 1730 H 157.739 2.22368 -2.19707 0
M  V30 1731 H 156.959 0.430462 -3.91843 0
M  V30 1732 H 158.247 1.0179 -4.98514 0
M  V30 1733 H 157.645 4.03205 -3.9679 0
M  V30 1734 H 156.202 4.36807 -4.8378 0
M  V30 1735 N 159.635 1.57281 -0.100228 0
M  V30 1736 C 160.598 2.13158 0.842398 0
M  V30 1737 C 161.598 1.06202 1.20738 0
M  V30 1738 O 162.788 1.32066 1.13597 0
M  V30 1739 C 159.92 2.65639 2.13655 0
M  V30 1740 H 161.113 2.97766 0.357114 0
M  V30 1741 H 158.666 1.5559 0.148823 0
M  V30 1742 H 159.401 1.84566 2.66657 0
M  V30 1743 H 159.186 3.43844 1.88451 0
M  V30 1744 H 160.676 3.08846 2.81077 0
M  V30 1745 N 161.113 -0.173488 1.56642 0
M  V30 1746 C 162.39 -0.917617 1.7274 0
M  V30 1747 C 162.77 -2.00484 0.661027 0
M  V30 1748 O 162.118 -2.26184 -0.32453 0
M  V30 1749 C 162.328 -1.48433 3.15862 0
M  V30 1750 C 163.676 -1.95809 3.76754 0
M  V30 1751 O 164.7 -1.58231 3.19126 0
M  V30 1752 O 163.559 -2.65024 4.77938 0
M  V30 1753 H 160.653 -0.431772 0.705338 0
M  V30 1754 H 163.199 -0.161487 1.6893 0
M  V30 1755 H 161.971 -0.701715 3.84957 0
M  V30 1756 H 161.594 -2.30471 3.23989 0
M  V30 1757 N 162.591 -1.51276 -0.441967 0
M  V30 1758 C 163.831 -1.65372 -1.20132 0
M  V30 1759 C 164.195 -0.359871 -1.88597 0
M  V30 1760 O 165.396 -0.376551 -2.66149 0
M  V30 1761 C 163.667 -2.8207 -2.1948 0
M  V30 1762 S 165.226 -3.16467 -3.03964 0
M  V30 1763 H 162.044 -0.582669 -0.407453 0
M  V30 1764 H 164.646 -1.89166 -0.493609 0
M  V30 1765 H 163.35 -3.74523 -1.67812 0
M  V30 1766 H 162.881 -2.6045 -2.94838 0
M  V30 1767 H 164.896 -2.62543 -4.21053 0
M  V30 1768 N 164.069 0.697108 -1.41344 0
M  V30 1769 C 165.032 1.79281 -1.42797 0
M  V30 1770 C 166.032 1.57607 -0.318837 0
M  V30 1771 O 167.222 1.64309 -0.578642 0
M  V30 1772 C 164.354 3.17632 -1.23785 0
M  V30 1773 H 165.547 1.79385 -2.40335 0
M  V30 1774 H 163.1 0.904582 -1.27464 0
M  V30 1775 H 163.835 3.23167 -0.270814 0
M  V30 1776 H 163.62 3.34765 -2.04144 0
M  V30 1777 H 165.11 3.97617 -1.27633 0
M  V30 1778 N 165.547 1.27147 0.931209 0
M  V30 1779 C 166.793 1.13446 1.68101 0
M  V30 1780 C 167.126 -0.319628 1.91552 0
M  V30 1781 O 166.401 -1.23407 1.50336 0
M  V30 1782 C 166.684 1.91482 3.0497 0
M  V30 1783 C 166.537 3.44855 2.88782 0
M  V30 1784 C 167.856 1.71651 4.05246 0
M  V30 1785 H 164.975 0.413498 0.610072 0
M  V30 1786 H 167.617 1.56261 1.08086 0
M  V30 1787 H 165.767 1.55095 3.56199 0
M  V30 1788 H 167.439 3.9105 2.44698 0
M  V30 1789 H 165.682 3.71373 2.24198 0
M  V30 1790 H 166.353 3.94694 3.85902 0
M  V30 1791 H 168.829 2.0337 3.63015 0
M  V30 1792 H 167.705 2.28651 4.99009 0
M  V30 1793 H 167.966 0.663555 4.37092 0
M  V30 1794 N 167.025 -1.13721 1.09112 0
M  V30 1795 C 167.955 -2.21148 0.749385 0
M  V30 1796 C 168.936 -1.6792 -0.271475 0
M  V30 1797 O 170.121 -1.93693 -0.140251 0
M  V30 1798 C 167.251 -3.46905 0.165659 0
M  V30 1799 C 166.205 -4.13203 1.11567 0
M  V30 1800 C 165.531 -5.33248 0.393809 0
M  V30 1801 C 166.831 -4.60912 2.45678 0
M  V30 1802 H 168.525 -2.4999 1.64758 0
M  V30 1803 H 166.071 -1.20156 0.793626 0
M  V30 1804 H 168.024 -4.21313 -0.085466 0
M  V30 1805 H 166.748 -3.17449 -0.767714 0
M  V30 1806 H 165.407 -3.40758 1.35202 0
M  V30 1807 H 165.055 -5.00054 -0.543599 0
M  V30 1808 H 164.755 -5.78552 1.02721 0
M  V30 1809 H 166.279 -6.10413 0.150908 0
M  V30 1810 H 167.693 -5.26759 2.26269 0
M  V30 1811 H 166.09 -5.16944 3.04776 0
M  V30 1812 H 167.16 -3.75603 3.06677 0
M  V30 1813 N 168.503 -0.877838 -1.30888 0
M  V30 1814 C 169.752 -0.488793 -1.95688 0
M  V30 1815 C 170.065 0.965485 -1.70111 0
M  V30 1816 O 171.271 1.46104 -2.28836 0
M  V30 1817 C 169.727 -0.823201 -3.50359 0
M  V30 1818 C 169.335 -2.29477 -3.84765 0
M  V30 1819 C 171.079 -0.503009 -4.21509 0
M  V30 1820 C 168.986 -2.57118 -5.32583 0
M  V30 1821 H 167.916 -0.179062 -0.732429 0
M  V30 1822 H 170.567 -1.07183 -1.48943 0
M  V30 1823 H 168.949 -0.169331 -3.95638 0
M  V30 1824 H 170.123 -2.99236 -3.5042 0
M  V30 1825 H 168.438 -2.58178 -3.267 0
M  V30 1826 H 171.035 -0.68665 -5.30273 0
M  V30 1827 H 171.378 0.557109 -4.12555 0
M  V30 1828 H 171.911 -1.11376 -3.8189 0
M  V30 1829 H 168.65 -3.61843 -5.4658 0
M  V30 1830 H 168.17 -1.91961 -5.68253 0
M  V30 1831 H 169.849 -2.42251 -5.99936 0
M  V30 1832 N 169.982 1.44106 -0.638065 0
M  V30 1833 C 171.228 2.02277 -0.145546 0
M  V30 1834 C 171.561 1.50125 1.23191 0
M  V30 1835 O 170.836 0.688133 1.8192 0
M  V30 1836 C 171.119 3.59829 -0.139791 0
M  V30 1837 C 170.972 4.22247 -1.55008 0
M  V30 1838 C 172.291 4.36873 0.531966 0
M  V30 1839 H 169.41 0.734992 -0.0543632 0
M  V30 1840 H 172.052 1.71592 -0.815863 0
M  V30 1841 H 170.202 3.86102 0.431007 0
M  V30 1842 H 171.874 4.07057 -2.1703 0
M  V30 1843 H 170.117 3.79476 -2.10191 0
M  V30 1844 H 170.788 5.31284 -1.49804 0
M  V30 1845 H 173.264 4.16074 0.0464781 0
M  V30 1846 H 172.14 5.4657 0.505206 0
M  V30 1847 H 172.401 4.11995 1.60352 0
M  V30 1848 N 171.46 0.379036 1.52974 0
M  V30 1849 C 172.423 -0.448865 2.24762 0
M  V30 1850 C 173.423 -0.998689 1.26027 0
M  V30 1851 O 174.613 -0.882313 1.50203 0
M  V30 1852 C 171.745 -1.62872 2.99476 0
M  V30 1853 H 172.938 0.179491 2.99362 0
M  V30 1854 H 170.491 0.13096 1.5575 0
M  V30 1855 H 171.226 -2.29479 2.29151 0
M  V30 1856 H 171.011 -1.24128 3.71934 0
M  V30 1857 H 172.501 -2.2151 3.5401 0
M  V30 1858 N 172.938 -1.57226 0.108567 0
M  V30 1859 C 173.901 -2.13602 -0.831082 0
M  V30 1860 C 174.901 -1.06841 -1.20173 0
M  V30 1861 O 176.091 -1.32666 -1.12895 0
M  V30 1862 C 173.223 -2.66769 -2.12243 0
M  V30 1863 H 174.416 -2.97951 -0.341317 0
M  V30 1864 H 171.969 -1.55667 -0.14057 0
M  V30 1865 H 172.704 -1.85977 -2.65675 0
M  V30 1866 H 172.489 -3.44839 -1.86625 0
M  V30 1867 H 173.979 -3.10332 -2.79435 0
M  V30 1868 N 174.416 0.165178 -1.56732 0
M  V30 1869 C 175.664 0.879068 -1.8198 0
M  V30 1870 C 175.985 1.82514 -0.686561 0
M  V30 1871 O 175.255 1.93694 0.293146 0
M  V30 1872 H 173.835 0.327608 -0.671329 0
M  V30 1873 H 176.497 0.163526 -1.94213 0
M  V30 1874 H 175.593 1.45228 -2.76252 0
M  V30 1875 N 175.894 1.51508 0.433938 0
M  V30 1876 C 177.14 1.64588 1.18484 0
M  V30 1877 C 177.473 0.362666 1.90784 0
M  V30 1878 O 176.748 -0.637892 1.83742 0
M  V30 1879 C 177.031 2.85149 2.19913 0
M  V30 1880 C 176.884 4.23456 1.51674 0
M  V30 1881 C 178.203 3.01227 3.20858 0
M  V30 1882 H 175.322 0.598994 0.429389 0
M  V30 1883 H 177.964 1.84002 0.473647 0
M  V30 1884 H 176.114 2.68729 2.80566 0
M  V30 1885 H 177.786 4.51552 0.943322 0
M  V30 1886 H 176.029 4.25998 0.819035 0
M  V30 1887 H 176.7 5.03812 2.2556 0
M  V30 1888 H 179.176 3.16382 2.70263 0
M  V30 1889 H 178.052 3.87141 3.89118 0
M  V30 1890 H 178.313 2.13447 3.8716 0
M  V30 1891 N 177.372 -0.689602 1.41712 0
M  V30 1892 C 178.62 -1.4468 1.4111 0
M  V30 1893 C 178.941 -1.94986 0.0232196 0
M  V30 1894 O 178.211 -1.72097 -0.935913 0
M  V30 1895 H 176.791 -0.536847 0.519427 0
M  V30 1896 H 179.453 -0.815825 1.77004 0
M  V30 1897 H 178.549 -2.30706 2.10193 0
M  V30 1898 N 178.85 -1.27639 -0.924453 0
M  V30 1899 C 179.76 -1.12466 -2.05885 0
M  V30 1900 C 180.776 -0.053869 -1.73917 0
M  V30 1901 O 181.952 -0.261012 -1.99702 0
M  V30 1902 C 179.017 -0.776768 -3.37886 0
M  V30 1903 C 178.078 -1.92878 -3.83532 0
M  V30 1904 C 177.311 -1.59739 -5.09234 0
M  V30 1905 O 177.534 -0.506782 -5.68144 0
M  V30 1906 O 176.468 -2.43761 -5.50331 0
M  V30 1907 H 180.294 -2.07671 -2.21599 0
M  V30 1908 H 177.879 -1.06857 -1.04413 0
M  V30 1909 H 179.761 -0.596229 -4.17161 0
M  V30 1910 H 178.436 0.145732 -3.23372 0
M  V30 1911 H 177.343 -2.1644 -3.0513 0
M  V30 1912 H 178.676 -2.8316 -4.02593 0
M  V30 1913 N 180.328 1.1314 -1.09713 0
M  V30 1914 C 181.575 1.84484 -0.834987 0
M  V30 1915 C 181.903 1.83689 0.639418 0
M  V30 1916 O 181.158 1.2724 1.4869 0
M  V30 1917 C 181.457 3.32167 -1.3191 0
M  V30 1918 C 181.123 3.53139 -2.80363 0
M  V30 1919 C 179.785 3.58571 -3.20905 0
M  V30 1920 C 182.137 3.60866 -3.76065 0
M  V30 1921 C 179.465 3.69267 -4.55916 0
M  V30 1922 C 181.817 3.73089 -5.10869 0
M  V30 1923 C 180.481 3.76775 -5.50996 0
M  V30 1924 H 179.751 0.675073 -0.305544 0
M  V30 1925 H 182.398 1.33554 -1.37243 0
M  V30 1926 H 180.703 3.85469 -0.701517 0
M  V30 1927 H 182.4 3.85821 -1.09284 0
M  V30 1928 H 178.99 3.49569 -2.47991 0
M  V30 1929 H 183.174 3.55946 -3.45855 0
M  V30 1930 H 178.43 3.70388 -4.86438 0
M  V30 1931 H 182.604 3.78011 -5.84877 0
M  V30 1932 H 180.231 3.84815 -6.55608 0
M  V30 1933 N 181.806 0.884767 1.30421 0
M  V30 1934 C 182.716 0.355398 2.31892 0
M  V30 1935 C 183.732 -0.542261 1.65335 0
M  V30 1936 O 184.908 -0.435432 1.96637 0
M  V30 1937 C 181.973 -0.421661 3.44126 0
M  V30 1938 C 181.034 0.505727 4.26311 0
M  V30 1939 C 180.267 -0.234343 5.33185 0
M  V30 1940 O 180.49 -1.46045 5.51386 0
M  V30 1941 O 179.424 0.415443 6.00465 0
M  V30 1942 H 183.25 1.19685 2.79122 0
M  V30 1943 H 180.835 0.648596 1.34587 0
M  V30 1944 H 182.717 -0.861641 4.12497 0
M  V30 1945 H 181.392 -1.23942 2.99032 0
M  V30 1946 H 180.299 0.994513 3.60639 0
M  V30 1947 H 181.632 1.28948 4.75009 0
M  V30 1948 N 183.284 -1.43765 0.645699 0
M  V30 1949 C 184.247 -2.29163 -0.0409488 0
M  V30 1950 C 185.247 -1.41813 -0.757996 0
M  V30 1951 O 186.437 -1.63527 -0.600382 0
M  V30 1952 C 183.569 -3.23716 -1.06869 0
M  V30 1953 H 184.762 -2.91366 0.710345 0
M  V30 1954 H 182.315 -1.5092 0.406547 0
M  V30 1955 H 183.05 -2.66393 -1.84947 0
M  V30 1956 H 182.835 -3.88105 -0.558277 0
M  V30 1957 H 184.325 -3.87831 -1.54845 0
M  V30 1958 N 184.763 -0.387143 -1.52771 0
M  V30 1959 C 186.011 0.195349 -2.01154 0
M  V30 1960 C 186.332 1.475 -1.27549 0
M  V30 1961 O 185.602 1.91878 -0.394924 0
M  V30 1962 H 184.182 0.075178 -0.743207 0
M  V30 1963 H 186.844 -0.518337 -1.87881 0
M  V30 1964 H 185.94 0.407096 -3.09434 0
M  V30 1965 N 186.241 1.57166 -0.116904 0
M  V30 1966 C 187.49 1.94298 0.541407 0
M  V30 1967 C 187.803 1.00236 1.67964 0
M  V30 1968 O 189.009 1.26826 2.40057 0
M  V30 1969 C 187.465 3.45306 1.01449 0
M  V30 1970 C 187.073 4.47899 -0.0951738 0
M  V30 1971 C 188.817 3.91361 1.6443 0
M  V30 1972 C 186.724 5.90083 0.394491 0
M  V30 1973 H 185.654 0.725308 0.206019 0
M  V30 1974 H 188.305 1.82446 -0.196419 0
M  V30 1975 H 186.687 3.52385 1.80667 0
M  V30 1976 H 187.861 4.52486 -0.871374 0
M  V30 1977 H 186.176 4.11583 -0.631505 0
M  V30 1978 H 188.773 4.95004 2.02176 0
M  V30 1979 H 189.116 3.3122 2.52189 0
M  V30 1980 H 189.649 3.87073 0.917559 0
M  V30 1981 H 186.388 6.53974 -0.447004 0
M  V30 1982 H 185.908 5.88921 1.13722 0
M  V30 1983 H 187.587 6.41307 0.856399 0
M  V30 1984 N 187.719 -0.156864 1.56817 0
M  V30 1985 C 188.944 -0.890331 1.87318 0
M  V30 1986 C 189.369 -1.74394 0.704855 0
M  V30 1987 O 188.727 -1.77972 -0.345786 0
M  V30 1988 C 188.775 -1.73102 3.16336 0
M  V30 1989 O 187.879 -2.83422 2.99576 0
M  V30 1990 H 187.22 -0.24857 0.615718 0
M  V30 1991 H 189.75 -0.150649 2.04045 0
M  V30 1992 H 189.76 -2.12803 3.48107 0
M  V30 1993 H 188.435 -1.10412 4.00976 0
M  V30 1994 H 187.012 -2.47199 2.7919 0
M  V30 1995 N 189.197 -1.51736 -0.425897 0
M  V30 1996 C 190.144 -1.73875 -1.51776 0
M  V30 1997 C 191.114 -0.580702 -1.55618 0
M  V30 1998 O 192.299 -0.81641 -1.72451 0
M  V30 1999 C 189.439 -1.88012 -2.89388 0
M  V30 2000 C 188.552 -3.15606 -2.94986 0
M  V30 2001 C 187.687 -3.20271 -4.23793 0
M  V30 2002 C 186.726 -4.42134 -4.23302 0
M  V30 2003 N 185.863 -4.44284 -5.43651 0
M  V30 2004 H 190.703 -2.67071 -1.32201 0
M  V30 2005 H 188.24 -1.32351 -0.642008 0
M  V30 2006 H 190.198 -1.9419 -3.69251 0
M  V30 2007 H 188.828 -0.98213 -3.07496 0
M  V30 2008 H 187.88 -3.18681 -2.07717 0
M  V30 2009 H 189.192 -4.05486 -2.90486 0
M  V30 2010 H 188.346 -3.25428 -5.12036 0
M  V30 2011 H 187.085 -2.28299 -4.30965 0
M  V30 2012 H 186.09 -4.3714 -3.3345 0
M  V30 2013 H 187.315 -5.35382 -4.17783 0
M  V30 2014 H 185.261 -3.55188 -5.51523 0
M  V30 2015 H 185.178 -5.27988 -5.41078 0
M  V30 2016 H 186.446 -4.53649 -6.33895 0
M  V30 2017 N 190.675 0.682077 -1.42076 0
M  V30 2018 C 191.623 1.81707 -1.45208 0
M  V30 2019 C 192.617 1.66183 -0.328591 0
M  V30 2020 O 193.823 1.7288 -0.501264 0
M  V30 2021 H 190.198 0.599014 -0.454628 0
M  V30 2022 H 192.169 1.76183 -2.40836 0
M  V30 2023 C 190.918 3.19816 -1.36428 0
M  V30 2024 H 190.241 3.32385 -2.22171 0
M  V30 2025 H 191.681 3.99272 -1.42681 0
M  V30 2026 C 190.14 3.36809 -0.078191 0
M  V30 2027 O 190.67 3.92124 0.87188 0
M  V30 2028 N 188.876 2.906 0.00229266 0
M  V30 2029 H 188.423 2.45772 -0.771616 0
M  V30 2030 H 188.381 3.02347 0.862179 0
M  V30 2031 N 192.153 1.28127 0.917671 0
M  V30 2032 C 193.401 1.14825 1.66312 0
M  V30 2033 C 193.722 -0.304379 1.9261 0
M  V30 2034 O 192.992 -1.21149 1.53947 0
M  V30 2035 H 191.572 0.421953 0.616413 0
M  V30 2036 H 194.234 1.608 1.10134 0
M  V30 2037 H 193.33 1.68489 2.62712 0
M  V30 2038 N 193.631 -1.12557 1.10312 0
M  V30 2039 C 194.563 -2.17971 0.708625 0
M  V30 2040 C 195.576 -1.60806 -0.254027 0
M  V30 2041 O 196.765 -1.78458 -0.0386891 0
M  V30 2042 C 193.865 -3.38891 0.0248198 0
M  V30 2043 C 193.038 -4.25548 1.01132 0
M  V30 2044 C 192.097 -5.24972 0.35924 0
M  V30 2045 O 191.123 -5.60174 1.00965 0
M  V30 2046 N 192.325 -5.73747 -0.882847 0
M  V30 2047 H 195.09 -2.52427 1.61557 0
M  V30 2048 H 192.651 -1.27967 0.991771 0
M  V30 2049 H 194.643 -4.02485 -0.422852 0
M  V30 2050 H 193.213 -3.02596 -0.784514 0
M  V30 2051 H 192.433 -3.58589 1.6373 0
M  V30 2052 H 193.721 -4.80294 1.67914 0
M  V30 2053 H 193.119 -5.4731 -1.43065 0
M  V30 2054 H 191.676 -6.39234 -1.27369 0
M  V30 2055 N 195.109 -0.891671 -1.2995 0
M  V30 2056 C 196.337 -0.52866 -2.00032 0
M  V30 2057 C 196.752 0.884574 -1.66795 0
M  V30 2058 O 196.109 1.5827 -0.908669 0
M  V30 2059 C 196.16 -0.701814 -3.54622 0
M  V30 2060 O 195.881 -2.05942 -3.86678 0
M  V30 2061 C 197.382 -0.342683 -4.41973 0
M  V30 2062 H 194.602 -0.203659 -0.639347 0
M  V30 2063 H 197.146 -1.19881 -1.65677 0
M  V30 2064 H 195.301 -0.0789468 -3.8732 0
M  V30 2065 H 195.715 -2.08291 -4.81368 0
M  V30 2066 H 197.189 -0.514709 -5.49595 0
M  V30 2067 H 197.666 0.71975 -4.33262 0
M  V30 2068 H 198.272 -0.942154 -4.14733 0
M  V30 2069 N 196.587 1.43421 -0.653314 0
M  V30 2070 C 198.003 1.56341 -0.320886 0
M  V30 2071 C 198.203 1.63696 1.17499 0
M  V30 2072 O 197.259 1.59208 1.95982 0
M  V30 2073 C 198.572 2.82424 -1.03233 0
M  V30 2074 C 200.12 2.96168 -1.01259 0
M  V30 2075 C 200.595 4.25084 -1.70492 0
M  V30 2076 N 202.086 4.31948 -1.67257 0
M  V30 2077 C 202.821 5.30466 -2.17701 0
M  V30 2078 N 202.317 6.35261 -2.76434 0
M  V30 2079 N 204.11 5.2212 -2.082 0
M  V30 2080 H 196.261 1.3689 -1.62403 0
M  V30 2081 H 198.524 0.657455 -0.682977 0
M  V30 2082 H 198.23 2.83053 -2.08744 0
M  V30 2083 H 198.104 3.72653 -0.583948 0
M  V30 2084 H 200.491 2.9508 0.0341235 0
M  V30 2085 H 200.572 2.07229 -1.49966 0
M  V30 2086 H 200.216 4.26932 -2.7512 0
M  V30 2087 H 200.146 5.1292 -1.19251 0
M  V30 2088 H 202.637 3.56838 -1.24398 0
M  V30 2089 H 202.95 7.06754 -3.12601 0
M  V30 2090 H 201.295 6.35884 -2.80495 0
M  V30 2091 H 204.486 4.39166 -1.62021 0
M  V30 2092 H 204.659 5.98739 -2.47822 0
M  V30 2093 N 198.065 0.39524 1.52563 0
M  V30 2094 C 198.975 -0.444232 2.30356 0
M  V30 2095 C 199.991 -1.06615 1.37511 0
M  V30 2096 O 201.167 -1.07067 1.70583 0
M  V30 2097 C 198.232 -1.55315 3.09964 0
M  V30 2098 C 197.293 -0.955734 4.18526 0
M  V30 2099 C 196.526 -2.01181 4.9433 0
M  V30 2100 O 196.749 -3.22781 4.70285 0
M  V30 2101 O 195.683 -1.62579 5.79527 0
M  V30 2102 H 199.509 0.189667 3.03107 0
M  V30 2103 H 197.094 0.1588 1.48554 0
M  V30 2104 H 198.976 -2.19724 3.59582 0
M  V30 2105 H 197.651 -2.17191 2.4002 0
M  V30 2106 H 196.558 -0.274743 3.7309 0
M  V30 2107 H 197.891 -0.381109 4.90722 0
M  V30 2108 N 199.544 -1.57102 0.125237 0
M  V30 2109 C 200.494 -2.12202 -0.833936 0
M  V30 2110 C 201.478 -1.04433 -1.22403 0
M  V30 2111 O 202.67 -1.30655 -1.19408 0
M  V30 2112 C 199.799 -2.72994 -2.08157 0
M  V30 2113 C 198.885 -3.87852 -1.71556 0
M  V30 2114 N 199.276 -4.9464 -1.05662 0
M  V30 2115 C 197.574 -3.98153 -2.00973 0
M  V30 2116 C 198.275 -5.74953 -0.883376 0
M  V30 2117 N 197.251 -5.24985 -1.41036 0
M  V30 2118 H 201.053 -2.92141 -0.321035 0
M  V30 2119 H 198.567 -1.62217 -0.0770315 0
M  V30 2120 H 200.564 -3.10816 -2.77847 0
M  V30 2121 H 199.224 -1.9452 -2.59985 0
M  V30 2122 H 200.235 -5.12872 -0.719878 0
M  V30 2123 H 196.912 -3.30728 -2.54804 0
M  V30 2124 H 198.302 -6.70904 -0.365675 0
M  V30 2125 N 201.022 0.148545 -1.56898 0
M  V30 2126 C 201.985 1.16736 -1.97244 0
M  V30 2127 C 202.985 1.35947 -0.858777 0
M  V30 2128 O 204.175 1.32966 -1.12542 0
M  V30 2129 C 201.307 2.52798 -2.28705 0
M  V30 2130 H 202.5 0.821279 -2.88435 0
M  V30 2131 H 200.053 0.391831 -1.51309 0
M  V30 2132 H 200.788 2.92381 -1.403 0
M  V30 2133 H 200.573 2.40216 -3.09901 0
M  V30 2134 H 202.063 3.26179 -2.60762 0
M  V30 2135 N 202.5 1.5196 0.417844 0
M  V30 2136 C 203.43 1.77634 1.51554 0
M  V30 2137 C 204.411 0.626918 1.58126 0
M  V30 2138 O 205.596 0.871632 1.7354 0
M  V30 2139 C 202.726 1.91911 2.8946 0
M  V30 2140 C 201.68 3.07463 2.97743 0
M  V30 2141 C 201.006 3.06951 4.37819 0
M  V30 2142 C 202.306 4.47082 2.70027 0
M  V30 2143 H 204 2.6955 1.3032 0
M  V30 2144 H 201.546 1.29706 0.625492 0
M  V30 2145 H 203.499 2.08455 3.6623 0
M  V30 2146 H 202.223 0.966598 3.11969 0
M  V30 2147 H 200.882 2.90656 2.23416 0
M  V30 2148 H 200.53 2.09438 4.57323 0
M  V30 2149 H 200.23 3.84556 4.44286 0
M  V30 2150 H 201.754 3.25613 5.16535 0
M  V30 2151 H 203.168 4.6414 3.36522 0
M  V30 2152 H 201.565 5.2654 2.87881 0
M  V30 2153 H 202.635 4.55777 1.65514 0
M  V30 2154 N 203.978 -0.674533 1.42435 0
M  V30 2155 C 204.908 -1.80009 1.48724 0
M  V30 2156 C 205.889 -1.6659 0.343793 0
M  V30 2157 O 207.074 -1.86007 0.558137 0
M  V30 2158 C 204.204 -3.18306 1.38919 0
M  V30 2159 C 203.158 -3.46461 2.51294 0
M  V30 2160 C 202.484 -4.84335 2.26547 0
M  V30 2161 C 203.784 -3.43328 3.93603 0
M  V30 2162 H 205.478 -1.75004 2.42928 0
M  V30 2163 H 203.024 -0.840533 1.16923 0
M  V30 2164 H 204.977 -3.9678 1.41927 0
M  V30 2165 H 203.701 -3.2399 0.412094 0
M  V30 2166 H 202.36 -2.70348 2.47604 0
M  V30 2167 H 202.008 -4.86669 1.2713 0
M  V30 2168 H 201.708 -5.04136 3.01861 0
M  V30 2169 H 203.232 -5.65094 2.31304 0
M  V30 2170 H 204.646 -4.11772 3.98894 0
M  V30 2171 H 203.043 -3.74664 4.68771 0
M  V30 2172 H 204.113 -2.41897 4.20255 0
M  V30 2173 N 205.456 -1.28612 -0.910864 0
M  V30 2174 C 206.419 -1.12803 -1.9952 0
M  V30 2175 C 207.419 -0.0668264 -1.60661 0
M  V30 2176 O 208.609 -0.312847 -1.71368 0
M  V30 2177 C 205.741 -0.72254 -3.33155 0
M  V30 2178 H 206.934 -2.09109 -2.14973 0
M  V30 2179 H 204.487 -1.11639 -1.09391 0
M  V30 2180 H 205.222 0.241152 -3.23402 0
M  V30 2181 H 205.007 -1.48916 -3.62721 0
M  V30 2182 H 206.497 -0.634666 -4.12749 0
M  V30 2183 N 206.934 1.1197 -1.10907 0
M  V30 2184 C 208.164 1.8713 -0.875553 0
M  V30 2185 C 208.572 1.8016 0.577843 0
M  V30 2186 O 207.915 1.17699 1.41042 0
M  V30 2187 C 207.977 3.37005 -1.2517 0
M  V30 2188 C 207.641 3.67748 -2.71313 0
M  V30 2189 C 208.638 3.65698 -3.69542 0
M  V30 2190 C 206.323 3.96928 -3.07821 0
M  V30 2191 C 208.317 3.92395 -5.023 0
M  V30 2192 C 206.004 4.23284 -4.40765 0
M  V30 2193 C 207.002 4.21005 -5.37814 0
M  V30 2194 O 206.69 4.46704 -6.68364 0
M  V30 2195 H 206.422 0.598786 -0.313737 0
M  V30 2196 H 208.976 1.42568 -1.47863 0
M  V30 2197 H 207.206 3.82146 -0.591741 0
M  V30 2198 H 208.895 3.93519 -0.994877 0
M  V30 2199 H 209.661 3.43211 -3.42682 0
M  V30 2200 H 205.54 3.97841 -2.32902 0
M  V30 2201 H 209.084 3.90531 -5.78041 0
M  V30 2202 H 204.981 4.45246 -4.67361 0
M  V30 2203 H 205.749 4.64299 -6.74069 0
M  V30 2204 N 208.412 0.89855 1.29475 0
M  V30 2205 C 209.64 0.539261 1.99749 0
M  V30 2206 C 210.055 -0.875716 1.67262 0
M  V30 2207 O 209.412 -1.57786 0.917049 0
M  V30 2208 C 209.463 0.72061 3.54245 0
M  V30 2209 O 209.184 2.07989 3.8558 0
M  V30 2210 C 210.685 0.366118 4.41786 0
M  V30 2211 H 207.905 0.207047 0.638258 0
M  V30 2212 H 210.449 1.20758 1.65039 0
M  V30 2213 H 208.604 0.0994862 3.87272 0
M  V30 2214 H 209.018 2.10841 4.80257 0
M  V30 2215 H 210.492 0.543848 5.49314 0
M  V30 2216 H 210.969 -0.696763 4.33638 0
M  V30 2217 H 211.575 0.964135 4.14228 0
M  V30 2218 N 209.89 -1.43072 0.660911 0
M  V30 2219 C 210.82 -2.33497 -0.0122829 0
M  V30 2220 C 211.801 -1.49903 -0.803925 0
M  V30 2221 O 212.986 -1.78546 -0.763864 0
M  V30 2222 C 210.116 -3.33363 -0.973994 0
M  V30 2223 C 209.07 -4.27003 -0.291928 0
M  V30 2224 C 208.396 -5.16967 -1.36562 0
M  V30 2225 C 209.696 -5.15816 0.820462 0
M  V30 2226 H 211.39 -2.90038 0.742873 0
M  V30 2227 H 208.936 -1.39461 0.358688 0
M  V30 2228 H 210.889 -3.95524 -1.45392 0
M  V30 2229 H 209.613 -2.75095 -1.7604 0
M  V30 2230 H 208.272 -3.66217 0.167623 0
M  V30 2231 H 207.92 -4.55034 -2.14366 0
M  V30 2232 H 207.62 -5.80441 -0.914454 0
M  V30 2233 H 209.144 -5.82003 -1.84675 0
M  V30 2234 H 210.558 -5.71742 0.422366 0
M  V30 2235 H 208.955 -5.8805 1.19656 0
M  V30 2236 H 210.025 -4.55045 1.67518 0
M  V30 2237 N 211.368 -0.403325 -1.52352 0
M  V30 2238 C 212.616 0.174003 -2.0135 0
M  V30 2239 C 212.937 1.46139 -1.29106 0
M  V30 2240 O 212.207 1.91448 -0.415253 0
M  V30 2241 H 210.787 0.0672911 -0.743963 0
M  V30 2242 H 213.449 -0.538235 -1.87321 0
M  V30 2243 H 212.545 0.374254 -3.09848 0
M  V30 2244 N 212.846 1.57033 -0.133567 0
M  V30 2245 C 214.092 1.95976 0.521649 0
M  V30 2246 C 214.425 1.01779 1.65393 0
M  V30 2247 O 213.7 0.0576581 1.94415 0
M  V30 2248 C 213.983 3.44738 1.04057 0
M  V30 2249 C 213.836 4.49711 -0.0892897 0
M  V30 2250 C 215.155 3.95682 1.92675 0
M  V30 2251 H 212.274 0.712579 0.188149 0
M  V30 2252 H 214.916 1.88813 -0.212076 0
M  V30 2253 H 213.066 3.50973 1.66583 0
M  V30 2254 H 214.738 4.55565 -0.725152 0
M  V30 2255 H 212.981 4.27261 -0.750378 0
M  V30 2256 H 213.652 5.51099 0.315284 0
M  V30 2257 H 216.128 3.91841 1.39998 0
M  V30 2258 H 215.004 5.00262 2.25897 0
M  V30 2259 H 215.265 3.37239 2.85872 0
M  V30 2260 N 214.325 -0.140222 1.56975 0
M  V30 2261 C 215.272 -1.17292 1.98774 0
M  V30 2262 C 216.242 -1.4232 0.856408 0
M  V30 2263 O 217.427 -1.54541 1.119 0
M  V30 2264 C 214.567 -2.49973 2.37923 0
M  V30 2265 C 213.68 -2.32062 3.64378 0
M  V30 2266 C 212.815 -3.57825 3.926 0
M  V30 2267 C 211.854 -3.3498 5.12303 0
M  V30 2268 N 210.991 -4.52891 5.36502 0
M  V30 2269 H 215.831 -0.809472 2.86795 0
M  V30 2270 H 213.368 -0.388237 1.41884 0
M  V30 2271 H 215.326 -3.27346 2.58652 0
M  V30 2272 H 213.956 -2.84252 1.52972 0
M  V30 2273 H 213.008 -1.45711 3.51387 0
M  V30 2274 H 214.32 -2.11145 4.51906 0
M  V30 2275 H 213.474 -4.43624 4.13863 0
M  V30 2276 H 212.213 -3.81753 3.03506 0
M  V30 2277 H 211.218 -2.4757 4.90906 0
M  V30 2278 H 212.443 -3.12444 6.02956 0
M  V30 2279 H 210.389 -4.76979 4.50363 0
M  V30 2280 H 210.306 -4.35001 6.18312 0
M  V30 2281 H 211.574 -5.39884 5.62268 0
M  V30 2282 N 215.803 -1.52179 -0.40978 0
M  V30 2283 C 216.735 -1.71703 -1.51825 0
M  V30 2284 C 217.748 -0.597445 -1.51441 0
M  V30 2285 O 218.937 -0.872582 -1.55719 0
M  V30 2286 C 216.037 -1.74171 -2.90719 0
M  V30 2287 C 215.21 -3.03156 -3.15302 0
M  V30 2288 C 214.269 -2.97445 -4.34065 0
M  V30 2289 O 213.295 -3.71352 -4.31377 0
M  V30 2290 N 214.497 -2.15191 -5.39141 0
M  V30 2291 H 217.262 -2.67334 -1.35472 0
M  V30 2292 H 214.823 -1.50409 -0.599069 0
M  V30 2293 H 216.815 -1.67884 -3.68235 0
M  V30 2294 H 215.385 -0.860166 -3.00533 0
M  V30 2295 H 214.605 -3.23097 -2.25836 0
M  V30 2296 H 215.893 -3.88484 -3.28569 0
M  V30 2297 H 215.291 -1.54573 -5.44173 0
M  V30 2298 H 213.848 -2.1476 -6.15403 0
M  V30 2299 N 217.281 0.66697 -1.42791 0
M  V30 2300 C 218.211 1.79218 -1.49677 0
M  V30 2301 C 219.192 1.66405 -0.352623 0
M  V30 2302 O 220.377 1.85708 -0.567993 0
M  V30 2303 C 217.507 3.17565 -1.40605 0
M  V30 2304 C 216.461 3.45124 -2.53127 0
M  V30 2305 C 215.787 4.83127 -2.29112 0
M  V30 2306 C 217.087 3.41236 -3.95418 0
M  V30 2307 H 218.781 1.73713 -2.43853 0
M  V30 2308 H 216.327 0.83432 -1.17367 0
M  V30 2309 H 218.28 3.96022 -1.44029 0
M  V30 2310 H 217.004 3.23767 -0.429271 0
M  V30 2311 H 215.663 2.69031 -2.49034 0
M  V30 2312 H 215.311 4.85988 -1.29709 0
M  V30 2313 H 215.011 5.02528 -3.04531 0
M  V30 2314 H 216.535 5.63859 -2.34297 0
M  V30 2315 H 217.949 4.09651 -4.01073 0
M  V30 2316 H 216.346 3.72173 -4.70752 0
M  V30 2317 H 217.416 2.39665 -4.21532 0
M  V30 2318 N 218.759 1.29093 0.90403 0
M  V30 2319 C 220.008 1.16187 1.64874 0
M  V30 2320 C 220.321 -0.286742 1.93487 0
M  V30 2321 O 221.527 -0.537062 2.66135 0
M  V30 2322 C 219.983 2.03177 2.97064 0
M  V30 2323 C 219.591 3.52836 2.76062 0
M  V30 2324 C 221.335 1.98984 3.74974 0
M  V30 2325 C 219.242 4.31945 4.03952 0
M  V30 2326 H 218.172 0.431246 0.618501 0
M  V30 2327 H 220.823 1.53699 1.00243 0
M  V30 2328 H 219.205 1.5853 3.62883 0
M  V30 2329 H 220.379 4.05507 2.18863 0
M  V30 2330 H 218.694 3.58656 2.11553 0
M  V30 2331 H 221.291 2.55351 4.69787 0
M  V30 2332 H 221.634 0.968815 4.0487 0
M  V30 2333 H 222.167 2.41652 3.15989 0
M  V30 2334 H 218.906 5.34667 3.79225 0
M  V30 2335 H 218.426 3.84045 4.60727 0
M  V30 2336 H 220.105 4.42379 4.72133 0
M  V30 2337 N 220.237 -1.11381 1.11499 0
M  V30 2338 C 221.483 -1.83403 0.865512 0
M  V30 2339 C 221.816 -1.84459 -0.607329 0
M  V30 2340 O 221.091 -1.29811 -1.44842 0
M  V30 2341 C 221.374 -3.30552 1.42855 0
M  V30 2342 C 221.227 -3.37886 2.96906 0
M  V30 2343 C 222.546 -4.26643 1.08 0
M  V30 2344 H 219.665 -0.665879 0.31587 0
M  V30 2345 H 222.307 -1.30601 1.37998 0
M  V30 2346 H 220.457 -3.75648 0.990985 0
M  V30 2347 H 222.129 -3.01343 3.49271 0
M  V30 2348 H 220.372 -2.78088 3.32941 0
M  V30 2349 H 221.043 -4.41458 3.31389 0
M  V30 2350 H 223.519 -3.89729 1.45775 0
M  V30 2351 H 222.395 -5.27986 1.50072 0
M  V30 2352 H 222.656 -4.42099 -0.00915037 0
M  V30 2353 N 221.715 -0.905404 -1.28997 0
M  V30 2354 C 222.963 -0.533192 -1.9494 0
M  V30 2355 C 223.284 0.924618 -1.71685 0
M  V30 2356 O 222.554 1.65268 -1.05183 0
M  V30 2357 H 221.134 -0.194194 -0.721317 0
M  V30 2358 H 223.796 -1.15294 -1.57141 0
M  V30 2359 H 222.892 -0.72059 -3.03667 0
M  V30 2360 N 223.193 1.4272 -0.668489 0
M  V30 2361 C 224.439 2.01923 -0.188419 0
M  V30 2362 C 224.772 1.52704 1.19979 0
M  V30 2363 O 224.047 0.726566 1.8042 0
M  V30 2364 C 224.33 3.59451 -0.216085 0
M  V30 2365 C 224.183 4.18864 -1.6393 0
M  V30 2366 C 225.502 4.37903 0.439179 0
M  V30 2367 H 222.621 0.733674 -0.0699412 0
M  V30 2368 H 225.263 1.69822 -0.852076 0
M  V30 2369 H 223.413 3.86929 0.349012 0
M  V30 2370 H 225.085 4.02362 -2.25616 0
M  V30 2371 H 223.328 3.74933 -2.18193 0
M  V30 2372 H 223.999 5.27987 -1.61039 0
M  V30 2373 H 226.475 4.16079 -0.0417878 0
M  V30 2374 H 225.351 5.47519 0.389157 0
M  V30 2375 H 225.612 4.15303 1.51577 0
M  V30 2376 N 224.671 0.411399 1.52136 0
M  V30 2377 C 225.619 -0.427633 2.28635 0
M  V30 2378 C 226.613 -1.04383 1.33419 0
M  V30 2379 O 227.819 -0.981772 1.50868 0
M  V30 2380 H 224.194 -0.156689 0.735495 0
M  V30 2381 H 226.165 0.238761 2.97443 0
M  V30 2382 C 224.914 -1.53082 3.12188 0
M  V30 2383 H 224.237 -1.06601 3.85326 0
M  V30 2384 H 225.677 -2.09167 3.68816 0
M  V30 2385 C 224.136 -2.49946 2.25895 0
M  V30 2386 O 224.666 -3.53884 1.90076 0
M  V30 2387 N 222.872 -2.2021 1.8962 0
M  V30 2388 H 222.419 -1.35719 2.18948 0
M  V30 2389 H 222.377 -2.85266 1.32176 0
M  V30 2390 N 226.149 -1.5696 0.141893 0
M  V30 2391 C 227.096 -2.16501 -0.799737 0
M  V30 2392 C 228.066 -1.09643 -1.24771 0
M  V30 2393 O 229.251 -1.3766 -1.32115 0
M  V30 2394 C 226.391 -2.78679 -2.03549 0
M  V30 2395 C 225.504 -3.99914 -1.6338 0
M  V30 2396 C 224.639 -4.50106 -2.82096 0
M  V30 2397 C 223.678 -5.63819 -2.38275 0
M  V30 2398 N 222.815 -6.08651 -3.49983 0
M  V30 2399 H 227.655 -2.96632 -0.285179 0
M  V30 2400 H 225.192 -1.46533 -0.129053 0
M  V30 2401 H 227.15 -3.1287 -2.75986 0
M  V30 2402 H 225.78 -2.012 -2.52425 0
M  V30 2403 H 224.832 -3.71735 -0.807279 0
M  V30 2404 H 226.144 -4.82311 -1.27192 0
M  V30 2405 H 225.298 -4.86325 -3.62729 0
M  V30 2406 H 224.037 -3.66706 -3.21525 0
M  V30 2407 H 223.042 -5.2718 -1.56081 0
M  V30 2408 H 224.267 -6.49 -1.99938 0
M  V30 2409 H 222.213 -5.28188 -3.89042 0
M  V30 2410 H 222.13 -6.85961 -3.17794 0
M  V30 2411 H 223.398 -6.49515 -4.30988 0
M  V30 2412 N 227.627 0.131896 -1.57047 0
M  V30 2413 C 228.56 1.19236 -1.94571 0
M  V30 2414 C 229.538 1.40782 -0.813576 0
M  V30 2415 O 230.722 1.55148 -1.07058 0
M  V30 2416 C 227.849 2.54858 -2.23081 0
M  V30 2417 C 226.895 2.49817 -3.45679 0
M  V30 2418 S 227.728 1.95036 -4.98719 0
M  V30 2419 C 228.884 3.32357 -5.30367 0
M  V30 2420 H 229.117 0.872297 -2.84215 0
M  V30 2421 H 226.65 0.338134 -1.50652 0
M  V30 2422 H 228.608 3.32898 -2.40185 0
M  V30 2423 H 227.269 2.84047 -1.34074 0
M  V30 2424 H 226.462 3.49688 -3.62952 0
M  V30 2425 H 226.064 1.79892 -3.27895 0
M  V30 2426 H 228.356 4.28525 -5.2476 0
M  V30 2427 H 229.299 3.19923 -6.31708 0
M  V30 2428 H 229.707 3.3019 -4.57859 0
M  V30 2429 N 229.106 1.52395 0.401703 0
M  V30 2430 C 230.383 1.57387 1.16141 0
M  V30 2431 C 230.763 0.359359 2.08019 0
M  V30 2432 O 230.111 -0.65326 2.18963 0
M  V30 2433 C 230.321 2.90631 1.93221 0
M  V30 2434 C 231.669 3.43904 2.49028 0
M  V30 2435 O 232.693 2.92421 2.03393 0
M  V30 2436 O 231.552 4.33823 3.32356 0
M  V30 2437 H 228.646 0.634262 0.530698 0
M  V30 2438 H 231.192 1.64725 0.407883 0
M  V30 2439 H 229.964 3.70473 1.25958 0
M  V30 2440 H 229.587 2.8662 2.75563 0
M  V30 2441 N 230.584 -0.659388 1.43143 0
M  V30 2442 C 231.809 -1.45221 1.48073 0
M  V30 2443 C 232.234 -1.87845 0.097995 0
M  V30 2444 O 231.592 -1.56985 -0.90694 0
M  V30 2445 C 231.64 -2.66748 2.42647 0
M  V30 2446 O 230.744 -3.65583 1.90848 0
M  V30 2447 H 230.085 -0.435669 0.501088 0
M  V30 2448 H 232.615 -0.807432 1.87994 0
M  V30 2449 H 232.625 -3.14637 2.59745 0
M  V30 2450 H 231.3 -2.35067 3.43098 0
M  V30 2451 H 229.877 -3.24693 1.83381 0
M  V30 2452 N 232.062 -1.29571 -0.897171 0
M  V30 2453 C 233.29 -1.20583 -1.68129 0
M  V30 2454 C 233.705 0.233181 -1.87354 0
M  V30 2455 O 233.062 1.15579 -1.41236 0
M  V30 2456 C 233.113 -1.91772 -3.06441 0
M  V30 2457 O 232.834 -3.30053 -2.88091 0
M  V30 2458 C 234.335 -1.89291 -4.00854 0
M  V30 2459 H 231.555 -0.417826 -0.525036 0
M  V30 2460 H 234.099 -1.70987 -1.12177 0
M  V30 2461 H 232.254 -1.45196 -3.59161 0
M  V30 2462 H 232.668 -3.65942 -3.75748 0
M  V30 2463 H 234.142 -2.43662 -4.95311 0
M  V30 2464 H 234.619 -0.869014 -4.30517 0
M  V30 2465 H 235.225 -2.35622 -3.54066 0
M  V30 2466 N 233.54 1.10788 -1.12088 0
M  V30 2467 C 234.45 2.20599 -0.798338 0
M  V30 2468 C 235.466 1.72712 0.21135 0
M  V30 2469 O 236.642 2.01348 0.0458477 0
M  V30 2470 C 233.707 3.45771 -0.253674 0
M  V30 2471 C 232.768 4.08411 -1.32283 0
M  V30 2472 C 232.001 5.27608 -0.80406 0
M  V30 2473 O 232.224 5.69241 0.363478 0
M  V30 2474 O 231.158 5.8101 -1.57198 0
M  V30 2475 H 234.984 2.50614 -1.7154 0
M  V30 2476 H 232.569 1.19454 -0.897275 0
M  V30 2477 H 234.451 4.21376 0.0453691 0
M  V30 2478 H 233.126 3.1739 0.636005 0
M  V30 2479 H 232.033 3.34507 -1.67499 0
M  V30 2480 H 233.366 4.40986 -2.18614 0
M  V30 2481 N 235.018 0.912232 1.28515 0
M  V30 2482 C 236.429 0.591352 1.77087 0
M  V30 2483 C 236.78 -0.8933 1.74684 0
M  V30 2484 O 235.905 -1.69876 1.34056 0
M  V30 2485 C 236.5 1.06668 3.2157 0
M  V30 2486 C 235.059 0.79675 3.67871 0
M  V30 2487 C 234.206 1.23427 2.48316 0
M  V30 2488 H 237.157 1.09365 1.15 0
M  V30 2489 H 237.178 0.407455 3.78312 0
M  V30 2490 H 236.69 2.14726 3.23287 0
M  V30 2491 H 234.791 -0.270679 3.71616 0
M  V30 2492 H 234.904 1.40343 4.58084 0
M  V30 2493 H 233.268 0.653036 2.46186 0
M  V30 2494 H 234.051 2.32316 2.52753 0
M  V30 2495 N 236.496 -1.42363 0.676048 0
M  V30 2496 C 237.907 -1.84649 0.275948 0
M  V30 2497 C 238.258 -1.56588 -1.18214 0
M  V30 2498 O 237.383 -1.02634 -1.90513 0
M  V30 2499 C 237.978 -3.35178 0.494053 0
M  V30 2500 C 236.537 -3.76109 0.148061 0
M  V30 2501 C 235.684 -2.65931 0.785891 0
M  V30 2502 H 238.635 -1.32192 0.878121 0
M  V30 2503 H 238.656 -3.79655 -0.25343 0
M  V30 2504 H 238.168 -3.55571 1.55535 0
M  V30 2505 H 236.269 -3.61323 -0.909742 0
M  V30 2506 H 236.382 -4.7546 0.589454 0
M  V30 2507 H 234.746 -2.53773 0.217113 0
M  V30 2508 H 235.529 -2.89146 1.85067 0
M  V30 2509 N 237.974 -0.419461 -1.51915 0
M  V30 2510 C 239.204 0.151915 -2.06041 0
M  V30 2511 C 239.612 1.38539 -1.28855 0
M  V30 2512 O 238.955 1.80592 -0.336463 0
M  V30 2513 C 239.017 0.557119 -3.55157 0
M  V30 2514 C 238.681 -0.567054 -4.53468 0
M  V30 2515 C 239.678 -1.43379 -4.99738 0
M  V30 2516 C 237.363 -0.742693 -4.96779 0
M  V30 2517 C 239.357 -2.46102 -5.87973 0
M  V30 2518 C 237.044 -1.77322 -5.84808 0
M  V30 2519 C 238.042 -2.63078 -6.30301 0
M  V30 2520 O 237.73 -3.64364 -7.16585 0
M  V30 2521 H 237.462 0.0193293 -0.675724 0
M  V30 2522 H 240.016 -0.592073 -1.96682 0
M  V30 2523 H 238.246 1.35355 -3.62238 0
M  V30 2524 H 239.935 1.05759 -3.9188 0
M  V30 2525 H 240.701 -1.30954 -4.66986 0
M  V30 2526 H 236.58 -0.0848307 -4.60922 0
M  V30 2527 H 240.124 -3.13071 -6.23404 0
M  V30 2528 H 236.021 -1.89773 -6.16974 0
M  V30 2529 H 236.789 -3.60731 -7.34721 0
M  V30 2530 N 239.452 1.56882 -0.150215 0
M  V30 2531 C 240.677 2.01027 0.510184 0
M  V30 2532 C 241.102 1.02966 1.57415 0
M  V30 2533 O 240.46 0.00590158 1.81299 0
M  V30 2534 C 240.508 3.43899 1.08472 0
M  V30 2535 O 239.612 3.4885 2.19948 0
M  V30 2536 H 238.953 0.652233 0.124451 0
M  V30 2537 H 241.483 2.03093 -0.247894 0
M  V30 2538 H 241.493 3.82766 1.41259 0
M  V30 2539 H 240.168 4.14776 0.305582 0
M  V30 2540 H 238.745 3.21827 1.88366 0
M  V30 2541 N 240.93 -0.123565 1.57115 0
M  V30 2542 C 241.862 -1.17739 1.96648 0
M  V30 2543 C 242.875 -1.37906 0.865201 0
M  V30 2544 O 244.064 -1.37062 1.14351 0
M  V30 2545 C 241.164 -2.53821 2.24562 0
M  V30 2546 C 240.337 -2.54317 3.55867 0
M  V30 2547 C 239.396 -3.72112 3.72047 0
M  V30 2548 O 238.422 -3.55907 4.44206 0
M  V30 2549 N 239.624 -4.90498 3.10471 0
M  V30 2550 H 242.389 -0.841147 2.87654 0
M  V30 2551 H 239.95 -0.31289 1.58848 0
M  V30 2552 H 241.942 -3.31175 2.32606 0
M  V30 2553 H 240.512 -2.79645 1.39705 0
M  V30 2554 H 239.732 -1.62711 3.59053 0
M  V30 2555 H 241.02 -2.51701 4.42181 0
M  V30 2556 H 240.418 -5.06567 2.51806 0
M  V30 2557 H 238.975 -5.65544 3.24043 0
M  V30 2558 N 242.408 -1.52605 -0.393616 0
M  V30 2559 C 243.355 -1.77055 -1.48054 0
M  V30 2560 C 244.325 -0.61358 -1.54352 0
M  V30 2561 O 245.51 -0.852806 -1.70681 0
M  V30 2562 C 242.65 -1.94108 -2.85335 0
M  V30 2563 C 241.763 -3.21792 -2.88226 0
M  V30 2564 C 240.898 -3.29188 -4.16904 0
M  V30 2565 C 239.937 -4.51013 -4.13828 0
M  V30 2566 N 239.074 -4.55716 -5.34105 0
M  V30 2567 H 243.914 -2.69815 -1.26506 0
M  V30 2568 H 241.451 -1.33683 -0.61379 0
M  V30 2569 H 243.409 -2.01979 -3.65049 0
M  V30 2570 H 242.039 -1.04713 -3.05344 0
M  V30 2571 H 241.091 -3.23015 -2.00911 0
M  V30 2572 H 242.403 -4.11557 -2.8182 0
M  V30 2573 H 241.557 -3.36216 -5.05018 0
M  V30 2574 H 240.296 -2.37389 -4.26026 0
M  V30 2575 H 239.301 -4.44115 -3.24102 0
M  V30 2576 H 240.526 -5.44123 -4.06333 0
M  V30 2577 H 238.472 -3.66807 -5.43865 0
M  V30 2578 H 238.389 -5.39346 -5.29756 0
M  V30 2579 H 239.657 -4.66993 -6.2413 0
M  V30 2580 N 243.887 0.651787 -1.4349 0
M  V30 2581 C 245.303 0.96762 -1.26922 0
M  V30 2582 C 245.503 2.00602 -0.189982 0
M  V30 2583 O 244.559 2.48793 0.431107 0
M  V30 2584 C 245.872 1.45052 -2.63401 0
M  V30 2585 C 247.42 1.5671 -2.70945 0
M  V30 2586 C 247.895 2.0839 -4.07845 0
M  V30 2587 N 249.386 2.1569 -4.09917 0
M  V30 2588 C 250.121 2.56804 -5.12679 0
M  V30 2589 N 249.617 2.97203 -6.25813 0
M  V30 2590 N 251.41 2.56756 -5.00033 0
M  V30 2591 H 243.561 -0.0353158 -2.12371 0
M  V30 2592 H 245.824 0.0467858 -0.946845 0
M  V30 2593 H 245.53 0.761926 -3.43348 0
M  V30 2594 H 245.404 2.42529 -2.88894 0
M  V30 2595 H 247.791 2.2467 -1.9133 0
M  V30 2596 H 247.872 0.57662 -2.49216 0
M  V30 2597 H 247.516 1.41031 -4.87927 0
M  V30 2598 H 247.446 3.08271 -4.26938 0
M  V30 2599 H 249.937 1.87237 -3.28254 0
M  V30 2600 H 250.25 3.27328 -7.00055 0
M  V30 2601 H 248.595 2.95004 -6.29283 0
M  V30 2602 H 251.786 2.24572 -4.10713 0
M  V30 2603 H 251.959 2.88475 -5.80247 0
M  V30 2604 N 245.365 1.30045 0.890287 0
M  V30 2605 C 246.595 1.21296 1.67245 0
M  V30 2606 C 247.003 -0.227471 1.87828 0
M  V30 2607 O 246.346 -1.16296 1.422 0
M  V30 2608 C 246.408 1.86519 3.07329 0
M  V30 2609 C 246.072 3.35837 3.09939 0
M  V30 2610 C 247.069 4.31915 2.89389 0
M  V30 2611 C 244.754 3.77196 3.31706 0
M  V30 2612 C 246.748 5.67325 2.90552 0
M  V30 2613 C 244.435 5.12725 3.32499 0
M  V30 2614 C 245.433 6.076 3.11947 0
M  V30 2615 O 245.121 7.40655 3.12547 0
M  V30 2616 H 244.853 0.4211 0.528821 0
M  V30 2617 H 247.407 1.72111 1.12103 0
M  V30 2618 H 245.637 1.30228 3.64112 0
M  V30 2619 H 247.326 1.71963 3.67673 0
M  V30 2620 H 248.092 4.01294 2.72375 0
M  V30 2621 H 243.971 3.03796 3.4674 0
M  V30 2622 H 247.515 6.41354 2.74429 0
M  V30 2623 H 243.412 5.42988 3.49047 0
M  V30 2624 H 244.18 7.49577 3.28749 0
M  V30 2625 N 246.843 -1.10192 1.12674 0
M  V30 2626 C 247.753 -2.20172 0.810026 0
M  V30 2627 C 248.769 -1.72821 -0.202188 0
M  V30 2628 O 249.945 -2.01369 -0.0351691 0
M  V30 2629 C 247.01 -3.45631 0.272007 0
M  V30 2630 C 246.071 -4.07704 1.34447 0
M  V30 2631 C 245.304 -5.27175 0.832029 0
M  V30 2632 O 245.527 -5.69425 -0.333284 0
M  V30 2633 O 244.461 -5.80168 1.60277 0
M  V30 2634 H 248.287 -2.49701 1.72867 0
M  V30 2635 H 245.872 -1.18977 0.903597 0
M  V30 2636 H 247.754 -4.21394 -0.0230219 0
M  V30 2637 H 246.429 -3.17723 -0.619164 0
M  V30 2638 H 245.336 -3.33614 1.6927 0
M  V30 2639 H 246.669 -4.3982 2.2095 0
M  V30 2640 N 248.321 -0.919034 -1.28029 0
M  V30 2641 C 249.231 -0.416756 -2.30869 0
M  V30 2642 C 250.247 0.498235 -1.66714 0
M  V30 2643 O 251.423 0.383144 -1.97722 0
M  V30 2644 C 248.488 0.330274 -3.45123 0
M  V30 2645 C 247.549 -0.618578 -4.2482 0
M  V30 2646 C 246.782 0.0928959 -5.33619 0
M  V30 2647 O 247.005 1.31375 -5.55065 0
M  V30 2648 O 245.939 -0.574499 -5.99152 0
M  V30 2649 H 249.765 -1.27043 -2.75851 0
M  V30 2650 H 247.35 -0.684052 -1.3282 0
M  V30 2651 H 249.232 0.751972 -4.14636 0
M  V30 2652 H 247.907 1.1597 -3.02213 0
M  V30 2653 H 246.814 -1.08978 -3.57875 0
M  V30 2654 H 248.147 -1.41497 -4.71423 0
M  V30 2655 N 249.799 1.42003 -0.683588 0
M  V30 2656 C 251.048 2.00638 -0.206681 0
M  V30 2657 C 251.361 1.5472 1.19671 0
M  V30 2658 O 252.567 2.05833 1.77045 0
M  V30 2659 C 251.023 3.58487 -0.318632 0
M  V30 2660 C 250.631 4.1339 -1.72663 0
M  V30 2661 C 252.375 4.24384 0.0991141 0
M  V30 2662 C 250.282 5.63633 -1.79087 0
M  V30 2663 H 249.212 0.750408 -0.0735107 0
M  V30 2664 H 251.863 1.62624 -0.850048 0
M  V30 2665 H 250.245 3.94047 0.392781 0
M  V30 2666 H 251.419 3.89273 -2.46583 0
M  V30 2667 H 249.734 3.59976 -2.09299 0
M  V30 2668 H 252.331 5.34652 0.0713833 0
M  V30 2669 H 252.674 4.00505 1.13586 0
M  V30 2670 H 253.207 3.93816 -0.561599 0
M  V30 2671 H 249.946 5.92323 -2.80774 0
M  V30 2672 H 249.466 5.89714 -1.09535 0
M  V30 2673 H 251.145 6.28201 -1.5483 0
M  V30 2674 N 251.277 0.427512 1.51691 0
M  V30 2675 C 252.523 -0.142439 2.02299 0
M  V30 2676 C 252.856 -1.43214 1.31162 0
M  V30 2677 O 252.131 -1.89833 0.423511 0
M  V30 2678 C 252.414 -0.371301 3.58181 0
M  V30 2679 C 252.267 0.936358 4.39946 0
M  V30 2680 C 253.586 -1.14542 4.24933 0
M  V30 2681 H 250.705 -0.0502937 0.735282 0
M  V30 2682 H 253.347 0.564584 1.81418 0
M  V30 2683 H 251.497 -0.973559 3.76104 0
M  V30 2684 H 253.169 1.57184 4.33694 0
M  V30 2685 H 251.412 1.5432 4.05423 0
M  V30 2686 H 252.083 0.730388 5.47147 0
M  V30 2687 H 254.559 -0.635362 4.11221 0
M  V30 2688 H 253.435 -1.27431 5.33903 0
M  V30 2689 H 253.696 -2.17093 3.85127 0
M  V30 2690 N 252.755 -1.56801 0.158532 0
M  V30 2691 C 253.702 -2.17337 -0.776729 0
M  V30 2692 C 254.672 -1.1096 -1.23601 0
M  V30 2693 O 255.857 -1.39054 -1.30647 0
M  V30 2694 C 252.997 -2.80822 -2.00582 0
M  V30 2695 C 252.11 -4.01624 -1.59129 0
M  V30 2696 C 251.245 -4.53072 -2.77306 0
M  V30 2697 C 250.284 -5.66314 -2.32282 0
M  V30 2698 N 249.421 -6.12329 -3.43508 0
M  V30 2699 H 254.261 -2.96918 -0.253701 0
M  V30 2700 H 251.798 -1.46661 -0.113504 0
M  V30 2701 H 253.756 -3.15779 -2.72652 0
M  V30 2702 H 252.386 -2.03866 -2.50277 0
M  V30 2703 H 251.438 -3.72571 -0.767806 0
M  V30 2704 H 252.75 -4.83633 -1.2207 0
M  V30 2705 H 251.904 -4.90145 -3.57551 0
M  V30 2706 H 250.643 -3.70095 -3.17617 0
M  V30 2707 H 249.648 -5.28806 -1.5048 0
M  V30 2708 H 250.873 -6.51085 -1.93043 0
M  V30 2709 H 248.819 -5.32284 -3.83418 0
M  V30 2710 H 248.736 -6.89293 -3.105 0
M  V30 2711 H 250.004 -6.5405 -4.24075 0
M  V30 2712 N 254.233 0.115231 -1.57178 0
M  V30 2713 C 255.143 1.15994 -2.03918 0
M  V30 2714 C 256.159 1.45103 -0.960268 0
M  V30 2715 O 257.335 1.56144 -1.27204 0
M  V30 2716 C 254.4 2.46568 -2.43732 0
M  V30 2717 C 253.461 2.24822 -3.65723 0
M  V30 2718 C 252.694 3.4917 -4.03629 0
M  V30 2719 O 252.917 4.56623 -3.41835 0
M  V30 2720 O 251.851 3.39949 -4.96708 0
M  V30 2721 H 255.677 0.793019 -2.93164 0
M  V30 2722 H 253.262 0.3263 -1.45793 0
M  V30 2723 H 255.144 3.23492 -2.70057 0
M  V30 2724 H 253.819 2.82726 -1.57631 0
M  V30 2725 H 252.726 1.45744 -3.44542 0
M  V30 2726 H 254.059 1.93566 -4.52541 0
M  V30 2727 N 255.711 1.52812 0.385517 0
M  V30 2728 C 256.957 1.68275 1.13188 0
M  V30 2729 C 257.29 0.423179 1.89533 0
M  V30 2730 O 256.565 -0.579113 1.85679 0
M  V30 2731 C 256.848 2.92001 2.1073 0
M  V30 2732 C 256.701 4.28067 1.38125 0
M  V30 2733 C 258.02 3.11283 3.11113 0
M  V30 2734 H 255.139 0.612352 0.410115 0
M  V30 2735 H 257.781 1.85415 0.414869 0
M  V30 2736 H 255.931 2.77519 2.71874 0
M  V30 2737 H 257.603 4.54324 0.799187 0
M  V30 2738 H 255.846 4.28388 0.683092 0
M  V30 2739 H 256.517 5.10733 2.09417 0
M  V30 2740 H 258.993 3.2482 2.6006 0
M  V30 2741 H 257.869 3.99325 3.76605 0
M  V30 2742 H 258.13 2.25656 3.80173 0
M  V30 2743 N 257.189 -0.644168 1.43834 0
M  V30 2744 C 258.414 -1.43642 1.49605 0
M  V30 2745 C 258.839 -1.8773 0.117913 0
M  V30 2746 O 258.197 -1.57938 -0.890239 0
M  V30 2747 C 258.245 -2.6416 2.45463 0
M  V30 2748 O 257.349 -3.63538 1.94714 0
M  V30 2749 H 256.69 -0.430329 0.50568 0
M  V30 2750 H 259.22 -0.787448 1.8884 0
M  V30 2751 H 259.23 -3.11864 2.63068 0
M  V30 2752 H 257.905 -2.31414 3.45572 0
M  V30 2753 H 256.482 -3.2273 1.86814 0
M  V30 2754 N 258.668 -1.30515 -0.883378 0
M  V30 2755 C 259.896 -1.22359 -1.66841 0
M  V30 2756 C 260.311 0.213296 -1.87591 0
M  V30 2757 O 259.668 1.14075 -1.42454 0
M  V30 2758 C 259.719 -1.95011 -3.04389 0
M  V30 2759 O 259.44 -3.3309 -2.84575 0
M  V30 2760 C 260.941 -1.93532 -3.98824 0
M  V30 2761 H 258.161 -0.423371 -0.520575 0
M  V30 2762 H 260.705 -1.72167 -1.10357 0
M  V30 2763 H 258.86 -1.48997 -3.57601 0
M  V30 2764 H 259.274 -3.69907 -3.71846 0
M  V30 2765 H 260.748 -2.48902 -4.92699 0
M  V30 2766 H 261.225 -0.914627 -4.29571 0
M  V30 2767 H 261.831 -2.39364 -3.51547 0
M  V30 2768 N 260.146 1.09593 -1.13257 0
M  V30 2769 C 261.376 1.85231 -0.915049 0
M  V30 2770 C 261.784 1.81345 0.539498 0
M  V30 2771 O 261.127 1.20664 1.38513 0
M  V30 2772 C 261.189 3.34275 -1.3229 0
M  V30 2773 C 260.853 3.6191 -2.79052 0
M  V30 2774 C 261.85 3.57777 -3.77216 0
M  V30 2775 C 259.535 3.90309 -3.16171 0
M  V30 2776 C 261.529 3.81652 -5.1051 0
M  V30 2777 C 259.216 4.13839 -4.49644 0
M  V30 2778 C 260.214 4.09502 -5.46623 0
M  V30 2779 O 259.902 4.32426 -6.77689 0
M  V30 2780 H 259.634 0.591997 -0.326367 0
M  V30 2781 H 262.188 1.394 -1.50854 0
M  V30 2782 H 260.418 3.80805 -0.672667 0
M  V30 2783 H 262.107 3.9132 -1.07812 0
M  V30 2784 H 262.873 3.35865 -3.49885 0
M  V30 2785 H 258.752 3.92811 -2.41289 0
M  V30 2786 H 262.296 3.78182 -5.86195 0
M  V30 2787 H 258.193 4.35232 -4.767 0
M  V30 2788 H 258.961 4.49896 -6.83766 0
M  V30 2789 N 261.624 0.925811 1.2754 0
M  V30 2790 C 262.873 0.561084 1.93739 0
M  V30 2791 C 263.186 -0.901685 1.73577 0
M  V30 2792 O 264.392 -1.37511 2.34101 0
M  V30 2793 C 262.848 0.952668 3.47062 0
M  V30 2794 C 262.456 2.43599 3.75983 0
M  V30 2795 C 264.2 0.659103 4.19352 0
M  V30 2796 C 262.107 2.76707 5.22673 0
M  V30 2797 H 261.037 0.206122 0.725279 0
M  V30 2798 H 263.688 1.12637 1.44863 0
M  V30 2799 H 262.07 0.316053 3.94737 0
M  V30 2800 H 263.244 3.12035 3.39073 0
M  V30 2801 H 261.559 2.70125 3.16893 0
M  V30 2802 H 264.156 0.882985 5.27359 0
M  V30 2803 H 264.499 -0.403607 4.14339 0
M  V30 2804 H 265.032 1.25473 3.77494 0
M  V30 2805 H 261.771 3.8188 5.32774 0
M  V30 2806 H 261.291 2.12919 5.60737 0
M  V30 2807 H 262.97 2.6435 5.90532 0
M  V30 2808 N 263.102 -1.41638 0.69111 0
M  V30 2809 C 264.049 -2.30789 0.0229705 0
M  V30 2810 C 265.019 -1.46863 -0.775911 0
M  V30 2811 O 266.204 -1.75661 -0.74485 0
M  V30 2812 C 263.344 -3.32868 -0.910666 0
M  V30 2813 C 262.457 -4.31875 -0.103874 0
M  V30 2814 C 261.592 -5.21024 -1.03475 0
M  V30 2815 C 260.631 -6.11702 -0.220598 0
M  V30 2816 N 259.768 -6.93349 -1.10504 0
M  V30 2817 H 264.608 -2.87366 0.788978 0
M  V30 2818 H 262.145 -1.41535 0.400794 0
M  V30 2819 H 264.103 -3.90596 -1.46597 0
M  V30 2820 H 262.733 -2.77851 -1.64312 0
M  V30 2821 H 261.785 -3.76131 0.568285 0
M  V30 2822 H 263.097 -4.96003 0.527504 0
M  V30 2823 H 262.251 -5.83565 -1.65943 0
M  V30 2824 H 260.99 -4.57112 -1.69999 0
M  V30 2825 H 259.995 -5.48215 0.417187 0
M  V30 2826 H 261.22 -6.77668 0.440784 0
M  V30 2827 H 259.166 -6.3205 -1.75638 0
M  V30 2828 H 259.083 -7.54146 -0.529125 0
M  V30 2829 H 260.351 -7.60362 -1.71667 0
M  V30 2830 N 264.58 -0.43555 -1.51462 0
M  V30 2831 C 265.527 0.376797 -2.27703 0
M  V30 2832 C 266.497 1.01838 -1.31219 0
M  V30 2833 O 267.682 1.03762 -1.60119 0
M  V30 2834 C 264.822 1.47301 -3.12084 0
M  V30 2835 C 263.935 0.849744 -4.2356 0
M  V30 2836 C 263.07 1.92086 -4.95254 0
M  V30 2837 C 262.109 1.27593 -5.98654 0
M  V30 2838 N 261.246 2.28833 -6.63762 0
M  V30 2839 H 266.086 -0.279734 -2.96684 0
M  V30 2840 H 263.623 -0.149795 -1.46335 0
M  V30 2841 H 265.581 2.11984 -3.59331 0
M  V30 2842 H 264.211 2.0992 -2.45221 0
M  V30 2843 H 263.263 0.0912529 -3.80291 0
M  V30 2844 H 264.575 0.338878 -4.97648 0
M  V30 2845 H 263.729 2.64435 -5.46039 0
M  V30 2846 H 262.468 2.46545 -4.20793 0
M  V30 2847 H 261.473 0.537893 -5.47162 0
M  V30 2848 H 262.698 0.738693 -6.7507 0
M  V30 2849 H 260.644 2.82375 -5.92115 0
M  V30 2850 H 260.561 1.82632 -7.33608 0
M  V30 2851 H 261.829 3.00671 -7.19178 0
M  V30 2852 N 266.058 1.56714 -0.166846 0
M  V30 2853 C 267.307 1.95922 0.479318 0
M  V30 2854 C 267.62 1.05529 1.6469 0
M  V30 2855 O 268.826 1.34399 2.35901 0
M  V30 2856 C 267.282 3.48359 0.90412 0
M  V30 2857 C 266.89 4.47369 -0.237621 0
M  V30 2858 C 268.634 3.96394 1.51896 0
M  V30 2859 C 266.541 5.91039 0.206561 0
M  V30 2860 H 265.471 0.731495 0.18284 0
M  V30 2861 H 268.122 1.81728 -0.254363 0
M  V30 2862 H 266.504 3.57955 1.69365 0
M  V30 2863 H 267.678 4.49485 -1.01489 0
M  V30 2864 H 265.993 4.09366 -0.762128 0
M  V30 2865 H 268.59 5.01186 1.86325 0
M  V30 2866 H 268.933 3.39075 2.41524 0
M  V30 2867 H 269.466 3.89796 0.79395 0
M  V30 2868 H 266.205 6.52221 -0.654834 0
M  V30 2869 H 265.725 5.9224 0.949282 0
M  V30 2870 H 267.404 6.43707 0.651939 0
M  V30 2871 N 267.536 -0.106894 1.57237 0
M  V30 2872 C 268.784 -0.810921 1.85117 0
M  V30 2873 C 269.105 -1.7984 0.753827 0
M  V30 2874 O 268.375 -1.94649 -0.221056 0
M  V30 2875 H 266.955 -0.302466 0.683025 0
M  V30 2876 H 269.617 -0.0913324 1.94686 0
M  V30 2877 H 268.713 -1.34875 2.81452 0
M  V30 2878 N 269.014 -1.53014 -0.377408 0
M  V30 2879 C 270.244 -1.72265 -1.14054 0
M  V30 2880 C 270.652 -0.44601 -1.83868 0
M  V30 2881 O 269.995 0.590095 -1.73964 0
M  V30 2882 C 270.057 -2.82492 -2.22348 0
M  V30 2883 C 269.721 -4.23233 -1.72402 0
M  V30 2884 C 270.718 -5.05992 -1.19448 0
M  V30 2885 C 268.403 -4.696 -1.78273 0
M  V30 2886 C 270.397 -6.33203 -0.730268 0
M  V30 2887 C 268.084 -5.96792 -1.31464 0
M  V30 2888 C 269.082 -6.78424 -0.789297 0
M  V30 2889 O 268.77 -8.0323 -0.328077 0
M  V30 2890 H 268.502 -0.579873 -0.347453 0
M  V30 2891 H 271.056 -2.00502 -0.445882 0
M  V30 2892 H 269.286 -2.49702 -2.95272 0
M  V30 2893 H 270.975 -2.90034 -2.83963 0
M  V30 2894 H 271.741 -4.71349 -1.14259 0
M  V30 2895 H 267.62 -4.06142 -2.18106 0
M  V30 2896 H 271.164 -6.96868 -0.319542 0
M  V30 2897 H 267.061 -6.30937 -1.36342 0
M  V30 2898 H 267.829 -8.1727 -0.448493 0
M  V30 2899 N 270.492 0.636531 -1.44174 0
M  V30 2900 C 271.44 1.76995 -1.50915 0
M  V30 2901 C 272.434 1.65053 -0.381295 0
M  V30 2902 O 273.64 1.71197 -0.55601 0
M  V30 2903 H 270.015 0.584247 -0.473455 0
M  V30 2904 H 271.986 1.68432 -2.4632 0
M  V30 2905 C 270.735 3.15314 -1.46534 0
M  V30 2906 H 270.058 3.25149 -2.32633 0
M  V30 2907 H 271.498 3.9453 -1.55312 0
M  V30 2908 C 269.957 3.3639 -0.185305 0
M  V30 2909 O 270.487 3.94699 0.746688 0
M  V30 2910 N 268.693 2.9046 -0.0901606 0
M  V30 2911 H 268.24 2.43193 -0.849416 0
M  V30 2912 H 268.198 3.04937 0.765553 0
M  V30 2913 N 271.97 1.30982 0.876444 0
M  V30 2914 C 273.381 1.18277 1.44456 0
M  V30 2915 C 273.732 -0.213265 1.95037 0
M  V30 2916 O 272.857 -1.11057 1.85729 0
M  V30 2917 C 273.452 2.1411 2.62569 0
M  V30 2918 C 272.011 2.05358 3.15444 0
M  V30 2919 C 271.158 2.03706 1.88146 0
M  V30 2920 H 274.109 1.43127 0.685584 0
M  V30 2921 H 274.13 1.72692 3.39054 0
M  V30 2922 H 273.642 3.15706 2.25724 0
M  V30 2923 H 271.743 1.06934 3.56926 0
M  V30 2924 H 271.856 2.94156 3.78166 0
M  V30 2925 H 270.22 1.48629 2.06837 0
M  V30 2926 H 271.003 3.07047 1.53547 0
M  V30 2927 N 273.449 -1.08991 1.13837 0
M  V30 2928 C 274.726 -1.77863 0.813876 0
M  V30 2929 C 275.106 -1.99375 -0.693746 0
M  V30 2930 O 274.454 -1.59875 -1.63255 0
M  V30 2931 C 274.664 -3.0986 1.60586 0
M  V30 2932 C 276.012 -3.84493 1.8014 0
M  V30 2933 O 277.036 -3.19624 1.57222 0
M  V30 2934 O 275.895 -5.00957 2.18413 0
M  V30 2935 H 272.989 -0.771589 0.297624 0
M  V30 2936 H 275.535 -1.15507 1.24323 0
M  V30 2937 H 274.307 -2.89715 2.63022 0
M  V30 2938 H 273.93 -3.79942 1.17173 0
M  V30 2939 N 274.927 -0.932562 -1.27047 0
M  V30 2940 C 276.155 -0.592031 -1.98249 0
M  V30 2941 C 276.57 0.831062 -1.69525 0
M  V30 2942 O 275.927 1.55299 -0.958561 0
M  V30 2943 C 275.978 -0.814279 -3.5221 0
M  V30 2944 O 275.699 -2.18139 -3.7993 0
M  V30 2945 C 277.2 -0.483121 -4.4066 0
M  V30 2946 H 274.42 -0.223896 -0.632544 0
M  V30 2947 H 276.964 -1.25091 -1.61779 0
M  V30 2948 H 275.119 -0.20213 -3.86872 0
M  V30 2949 H 275.533 -2.235 -4.74498 0
M  V30 2950 H 277.007 -0.689298 -5.47679 0
M  V30 2951 H 277.484 0.581546 -4.35333 0
M  V30 2952 H 278.09 -1.07362 -4.11526 0
M  V30 2953 N 276.405 1.4127 -0.698611 0
M  V30 2954 C 277.651 2.01478 -0.231207 0
M  V30 2955 C 277.984 1.55215 1.16713 0
M  V30 2956 O 277.259 0.764672 1.78838 0
M  V30 2957 C 277.542 3.58912 -0.292281 0
M  V30 2958 C 277.395 4.15293 -1.72778 0
M  V30 2959 C 278.714 4.38736 0.346194 0
M  V30 2960 H 275.833 0.732025 -0.0854878 0
M  V30 2961 H 278.475 1.67977 -0.887906 0
M  V30 2962 H 276.625 3.87582 0.26686 0
M  V30 2963 H 278.297 3.97486 -2.341 0
M  V30 2964 H 276.54 3.7022 -2.26096 0
M  V30 2965 H 277.211 5.24452 -1.72202 0
M  V30 2966 H 279.687 4.15897 -0.130035 0
M  V30 2967 H 278.563 5.48221 0.272932 0
M  V30 2968 H 278.824 4.18425 1.42734 0
M  V30 2969 N 277.883 0.443576 1.51229 0
M  V30 2970 C 278.846 -0.353132 2.26463 0
M  V30 2971 C 279.846 -0.944338 1.3015 0
M  V30 2972 O 281.036 -0.817813 1.5381 0
M  V30 2973 C 278.168 -1.50023 3.06114 0
M  V30 2974 H 279.361 0.3063 2.98332 0
M  V30 2975 H 276.914 0.196902 1.55055 0
M  V30 2976 H 277.649 -2.19553 2.38677 0
M  V30 2977 H 277.434 -1.08241 3.76864 0
M  V30 2978 H 278.924 -2.06296 3.63087 0
M  V30 2979 N 279.361 -1.56624 0.175154 0
M  V30 2980 C 280.608 -1.96999 -0.468811 0
M  V30 2981 C 280.936 -1.06129 -1.62994 0
M  V30 2982 O 280.191 -0.0961771 -1.95464 0
M  V30 2983 C 280.49 -3.43419 -0.989864 0
M  V30 2984 C 280.156 -4.50866 0.0557687 0
M  V30 2985 C 278.818 -4.79975 0.343134 0
M  V30 2986 C 281.17 -5.15551 0.765308 0
M  V30 2987 C 278.498 -5.71066 1.34536 0
M  V30 2988 C 280.85 -6.07724 1.75654 0
M  V30 2989 C 279.514 -6.35199 2.05132 0
M  V30 2990 H 278.784 -0.720869 -0.17155 0
M  V30 2991 H 281.431 -1.89616 0.267924 0
M  V30 2992 H 279.736 -3.47772 -1.80449 0
M  V30 2993 H 281.433 -3.72002 -1.49719 0
M  V30 2994 H 278.023 -4.28229 -0.178381 0
M  V30 2995 H 282.207 -4.9317 0.556513 0
M  V30 2996 H 277.463 -5.90635 1.57988 0
M  V30 2997 H 281.637 -6.56912 2.31169 0
M  V30 2998 H 279.264 -7.05584 2.8294 0
M  V30 2999 N 280.839 0.0985539 -1.57292 0
M  V30 3000 C 282.085 0.803867 -1.86188 0
M  V30 3001 C 282.418 1.78549 -0.763794 0
M  V30 3002 O 281.693 1.93153 0.22855 0
M  V30 3003 C 281.976 1.53568 -3.25713 0
M  V30 3004 C 281.829 0.572277 -4.46145 0
M  V30 3005 C 283.148 2.48708 -3.63087 0
M  V30 3006 H 280.267 0.290781 -0.677211 0
M  V30 3007 H 282.909 0.0675783 -1.8988 0
M  V30 3008 H 281.059 2.16332 -3.22696 0
M  V30 3009 H 282.731 -0.0480894 -4.61275 0
M  V30 3010 H 280.974 -0.114618 -4.33649 0
M  V30 3011 H 281.645 1.12139 -5.40489 0
M  V30 3012 H 284.121 1.96039 -3.67026 0
M  V30 3013 H 282.997 2.96932 -4.61652 0
M  V30 3014 H 283.258 3.32309 -2.91588 0
M  V30 3015 N 282.317 1.53212 0.369288 0
M  V30 3016 C 283.728 1.60943 0.946276 0
M  V30 3017 C 284.079 0.47452 1.90375 0
M  V30 3018 O 283.204 -0.399597 2.12679 0
M  V30 3019 C 283.799 2.91715 1.72302 0
M  V30 3020 C 282.358 3.01792 2.24941 0
M  V30 3021 C 281.505 2.56211 1.06072 0
M  V30 3022 H 284.456 1.58007 0.148198 0
M  V30 3023 H 284.477 2.79309 2.58393 0
M  V30 3024 H 283.989 3.74295 1.0259 0
M  V30 3025 H 282.09 2.23791 2.97906 0
M  V30 3026 H 282.203 4.06803 2.53077 0
M  V30 3027 H 280.567 2.10998 1.4266 0
M  V30 3028 H 281.35 3.41206 0.378639 0
M  V30 3029 N 283.795 -0.628877 1.44509 0
M  V30 3030 C 285.044 -1.38437 1.4669 0
M  V30 3031 C 285.357 -1.95322 0.104272 0
M  V30 3032 O 286.563 -2.715 0.00362163 0
M  V30 3033 C 285.019 -2.50659 2.5826 0
M  V30 3034 C 284.627 -2.00277 4.0074 0
M  V30 3035 C 286.371 -3.27844 2.69664 0
M  V30 3036 C 284.278 -3.09854 5.0373 0
M  V30 3037 H 283.208 -0.520245 0.545766 0
M  V30 3038 H 285.859 -0.676313 1.70582 0
M  V30 3039 H 284.241 -3.2405 2.27612 0
M  V30 3040 H 285.415 -1.33736 4.40966 0
M  V30 3041 H 283.73 -1.35901 3.93599 0
M  V30 3042 H 286.327 -4.09534 3.43781 0
M  V30 3043 H 286.67 -3.77471 1.75559 0
M  V30 3044 H 287.203 -2.61543 2.99733 0
M  V30 3045 H 283.942 -2.65168 5.99472 0
M  V30 3046 H 283.462 -3.7503 4.68095 0
M  V30 3047 H 285.141 -3.74592 5.27532 0
M  V30 3048 N 285.273 -1.31445 -0.869486 0
M  V30 3049 C 286.498 -1.24256 -1.66058 0
M  V30 3050 C 286.923 0.188928 -1.87149 0
M  V30 3051 O 286.281 1.13522 -1.4136 0
M  V30 3052 C 286.329 -1.9924 -3.00559 0
M  V30 3053 O 285.433 -1.33007 -3.90362 0
M  V30 3054 H 284.774 -0.428973 -0.506831 0
M  V30 3055 H 287.304 -1.73521 -1.08404 0
M  V30 3056 H 287.314 -2.08854 -3.50491 0
M  V30 3057 H 285.989 -3.03342 -2.84528 0
M  V30 3058 H 284.566 -1.31848 -3.48813 0
M  V30 3059 N 286.751 1.08385 -1.14413 0
M  V30 3060 C 287.999 1.80419 -0.910679 0
M  V30 3061 C 288.32 1.86658 0.564243 0
M  V30 3062 O 287.59 1.35985 1.41014 0
M  V30 3063 H 286.17 0.668204 -0.333934 0
M  V30 3064 H 288.832 1.31037 -1.44275 0
M  V30 3065 H 287.928 2.83238 -1.31082 0
M  V30 3066 N 288.23 0.939286 1.26551 0
M  V30 3067 C 289.476 0.596234 1.94465 0
M  V30 3068 C 289.831 -0.855013 1.72358 0
M  V30 3069 O 289.124 -1.6034 1.04889 0
M  V30 3070 C 289.318 0.872106 3.46596 0
M  V30 3071 C 289.147 2.34862 3.83497 0
M  V30 3072 C 287.917 3.00344 4.06352 0
M  V30 3073 C 290.115 3.32697 3.92195 0
M  V30 3074 N 288.097 4.38027 4.30123 0
M  V30 3075 C 289.468 4.55631 4.20476 0
M  V30 3076 C 291.523 3.27747 3.74815 0
M  V30 3077 C 290.226 5.74233 4.33185 0
M  V30 3078 C 292.252 4.45672 3.88755 0
M  V30 3079 C 291.614 5.67388 4.17433 0
M  V30 3080 H 287.713 0.268515 0.734455 0
M  V30 3081 H 290.297 1.2083 1.5267 0
M  V30 3082 H 288.468 0.289102 3.87323 0
M  V30 3083 H 290.2 0.490513 4.01716 0
M  V30 3084 H 286.955 2.50969 4.01636 0
M  V30 3085 H 287.379 5.09288 4.46044 0
M  V30 3086 H 292.021 2.34703 3.51673 0
M  V30 3087 H 289.739 6.67731 4.55149 0
M  V30 3088 H 293.325 4.43372 3.76713 0
M  V30 3089 H 292.205 6.57115 4.27983 0
M  V30 3090 N 289.708 -1.40897 0.706093 0
M  V30 3091 C 290.656 -2.32572 0.0361893 0
M  V30 3092 C 291.65 -1.51532 -0.757266 0
M  V30 3093 O 292.856 -1.67396 -0.661703 0
M  V30 3094 H 289.231 -0.751966 -0.00709935 0
M  V30 3095 H 291.202 -2.86733 0.826249 0
M  V30 3096 C 289.951 -3.36418 -0.87854 0
M  V30 3097 H 289.274 -3.98836 -0.277401 0
M  V30 3098 H 290.714 -4.0308 -1.3154 0
M  V30 3099 C 289.173 -2.71141 -1.99961 0
M  V30 3100 O 289.703 -2.56735 -3.0895 0
M  V30 3101 N 287.909 -2.29671 -1.78043 0
M  V30 3102 H 287.456 -2.41588 -0.894042 0
M  V30 3103 H 287.414 -1.86332 -2.53235 0
M  V30 3104 N 291.186 -0.45159 -1.50991 0
M  V30 3105 C 292.434 0.109857 -2.01801 0
M  V30 3106 C 292.755 1.41958 -1.3369 0
M  V30 3107 O 292.025 1.9003 -0.475951 0
M  V30 3108 H 290.605 0.0435884 -0.745727 0
M  V30 3109 H 293.267 -0.597557 -1.85514 0
M  V30 3110 H 292.363 0.275489 -3.10882 0
M  V30 3111 N 292.664 1.56529 -0.183458 0
M  V30 3112 C 293.941 1.88959 0.50536 0
M  V30 3113 C 294.321 1.09523 1.80466 0
M  V30 3114 O 293.669 0.19278 2.27685 0
M  V30 3115 C 293.879 3.41162 0.73547 0
M  V30 3116 C 295.227 4.11155 1.06005 0
M  V30 3117 O 296.251 3.46548 0.823594 0
M  V30 3118 O 295.11 5.25318 1.50675 0
M  V30 3119 H 292.204 0.78441 0.261973 0
M  V30 3120 H 294.75 1.68231 -0.222802 0
M  V30 3121 H 293.522 3.90874 -0.182561 0
M  V30 3122 H 293.145 3.67543 1.51651 0
M  V30 3123 N 294.142 -0.090211 1.57342 0
M  V30 3124 C 295.09 -1.12792 2.03422 0
M  V30 3125 C 296.084 -1.41182 0.936166 0
M  V30 3126 O 297.29 -1.40805 1.12133 0
M  V30 3127 H 293.665 -0.380986 0.648347 0
M  V30 3128 H 295.636 -0.71299 2.89757 0
M  V30 3129 C 294.385 -2.43855 2.47851 0
M  V30 3130 H 293.708 -2.22855 3.31927 0
M  V30 3131 H 295.148 -3.14955 2.83865 0
M  V30 3132 C 293.607 -3.08503 1.3538 0
M  V30 3133 O 294.137 -3.95805 0.685641 0
M  V30 3134 N 292.343 -2.68831 1.10355 0
M  V30 3135 H 291.89 -1.97929 1.64869 0
M  V30 3136 H 291.848 -3.12412 0.353031 0
M  V30 3137 N 295.62 -1.53406 -0.361157 0
M  V30 3138 C 296.553 -1.74946 -1.46524 0
M  V30 3139 C 297.531 -0.59795 -1.51206 0
M  V30 3140 O 298.715 -0.831062 -1.69191 0
M  V30 3141 C 295.842 -1.83224 -2.84863 0
M  V30 3142 C 294.888 -3.05233 -2.97885 0
M  V30 3143 S 295.721 -4.6466 -2.66179 0
M  V30 3144 C 296.877 -4.75793 -4.06659 0
M  V30 3145 H 297.11 -2.68319 -1.28033 0
M  V30 3146 H 294.643 -1.44051 -0.555764 0
M  V30 3147 H 296.601 -1.88679 -3.64569 0
M  V30 3148 H 295.262 -0.908948 -3.00661 0
M  V30 3149 H 294.455 -3.07648 -3.9921 0
M  V30 3150 H 294.057 -2.97913 -2.26106 0
M  V30 3151 H 296.349 -4.5612 -5.0096 0
M  V30 3152 H 297.292 -5.7786 -4.09247 0
M  V30 3153 H 297.7 -4.04389 -3.93865 0
M  V30 3154 N 297.098 0.621204 -1.44841 0
M  V30 3155 C 298.028 1.74366 -1.55303 0
M  V30 3156 C 299.009 1.65199 -0.405385 0
M  V30 3157 O 300.194 1.83807 -0.626787 0
M  V30 3158 C 297.324 3.12931 -1.50637 0
M  V30 3159 C 296.278 3.36896 -2.63979 0
M  V30 3160 C 295.604 4.75594 -2.44366 0
M  V30 3161 C 296.904 3.28483 -4.06074 0
M  V30 3162 H 298.598 1.65867 -2.49256 0
M  V30 3163 H 296.144 0.796558 -1.19962 0
M  V30 3164 H 298.097 3.9124 -1.56555 0
M  V30 3165 H 296.821 3.22237 -0.532057 0
M  V30 3166 H 295.48 2.60972 -2.57467 0
M  V30 3167 H 295.128 4.81616 -1.45105 0
M  V30 3168 H 294.828 4.92586 -3.20364 0
M  V30 3169 H 296.352 5.5612 -2.52117 0
M  V30 3170 H 297.766 3.96684 -4.13902 0
M  V30 3171 H 296.163 3.57008 -4.82354 0
M  V30 3172 H 297.233 2.26133 -4.28943 0
M  V30 3173 N 298.576 1.31904 0.862503 0
M  V30 3174 C 299.486 1.22161 2.00285 0
M  V30 3175 C 300.502 0.136785 1.73462 0
M  V30 3176 O 301.678 0.355994 1.98229 0
M  V30 3177 C 298.743 0.937093 3.33796 0
M  V30 3178 C 297.804 2.10957 3.73893 0
M  V30 3179 C 297.037 1.83853 5.01033 0
M  V30 3180 O 297.26 0.777274 5.65079 0
M  V30 3181 O 296.194 2.69741 5.38074 0
M  V30 3182 H 300.02 2.18008 2.11439 0
M  V30 3183 H 297.605 1.11716 0.991957 0
M  V30 3184 H 299.487 0.794583 4.13841 0
M  V30 3185 H 298.162 0.00871894 3.23699 0
M  V30 3186 H 297.069 2.30752 2.94456 0
M  V30 3187 H 298.402 3.02046 3.88625 0
M  V30 3188 N 300.054 -1.07777 1.14986 0
M  V30 3189 C 301.465 -1.61766 0.932127 0
M  V30 3190 C 301.816 -1.88974 -0.527581 0
M  V30 3191 O 300.941 -1.65198 -1.39781 0
M  V30 3192 C 301.536 -2.93891 1.68563 0
M  V30 3193 C 300.095 -3.44639 1.5133 0
M  V30 3194 C 299.242 -2.18767 1.704 0
M  V30 3195 H 302.193 -0.909201 1.30074 0
M  V30 3196 H 302.214 -3.62623 1.15259 0
M  V30 3197 H 301.726 -2.74057 2.74799 0
M  V30 3198 H 299.827 -3.69564 0.474702 0
M  V30 3199 H 299.94 -4.20966 2.28746 0
M  V30 3200 H 298.304 -2.28253 1.13016 0
M  V30 3201 H 299.087 -2.01433 2.77992 0
M  V30 3202 N 301.532 -0.945985 -1.26051 0
M  V30 3203 C 302.757 -0.612525 -1.98149 0
M  V30 3204 C 303.182 0.806623 -1.69927 0
M  V30 3205 O 302.54 1.54411 -0.950108 0
M  V30 3206 C 302.588 -0.866981 -3.50023 0
M  V30 3207 O 301.692 0.0585333 -4.12358 0
M  V30 3208 H 301.033 -0.23379 -0.621481 0
M  V30 3209 H 303.563 -1.27023 -1.60395 0
M  V30 3210 H 303.573 -0.789792 -4.00283 0
M  V30 3211 H 302.248 -1.90135 -3.69894 0
M  V30 3212 H 300.825 -0.0701241 -3.72834 0
M  V30 3213 N 303.011 1.40521 -0.713556 0
M  V30 3214 C 303.974 2.29098 -0.0684347 0
M  V30 3215 C 304.974 1.45268 0.689472 0
M  V30 3216 O 306.164 1.66205 0.521677 0
M  V30 3217 C 303.296 3.28446 0.913024 0
M  V30 3218 H 304.489 2.87645 -0.84855 0
M  V30 3219 H 302.042 1.48809 -0.47809 0
M  V30 3220 H 302.777 2.74913 1.72027 0
M  V30 3221 H 302.562 3.90327 0.372472 0
M  V30 3222 H 304.052 3.94777 1.36165 0
M  V30 3223 N 304.489 0.459591 1.5075 0
M  V30 3224 C 305.437 -0.354678 2.2988 0
M  V30 3225 C 306.431 -1.00086 1.36672 0
M  V30 3226 O 307.637 -0.933277 1.53915 0
M  V30 3227 H 304.012 -0.13321 0.740107 0
M  V30 3228 H 305.983 0.333269 2.96533 0
M  V30 3229 C 304.732 -1.43073 3.169 0
M  V30 3230 H 304.055 -0.942882 3.88523 0
M  V30 3231 H 305.495 -1.97328 3.75284 0
M  V30 3232 C 303.954 -2.42633 2.33732 0
M  V30 3233 O 304.484 -3.47658 2.01238 0
M  V30 3234 N 302.69 -2.14066 1.9653 0
M  V30 3235 H 302.237 -1.28685 2.23155 0
M  V30 3236 H 302.195 -2.80917 1.41185 0
M  V30 3237 N 305.967 -1.56429 0.191757 0
M  V30 3238 C 306.9 -2.14829 -0.76967 0
M  V30 3239 C 307.878 -1.08405 -1.2119 0
M  V30 3240 O 309.062 -1.36498 -1.30002 0
M  V30 3241 C 306.189 -2.70446 -2.03903 0
M  V30 3242 C 305.235 -3.89428 -1.7392 0
M  V30 3243 S 306.068 -5.28048 -0.890265 0
M  V30 3244 C 307.224 -5.87085 -2.16984 0
M  V30 3245 H 307.457 -2.96042 -0.273204 0
M  V30 3246 H 304.99 -1.54383 -0.0231975 0
M  V30 3247 H 306.948 -3.03134 -2.76803 0
M  V30 3248 H 305.609 -1.89281 -2.50662 0
M  V30 3249 H 304.802 -4.26742 -2.68155 0
M  V30 3250 H 304.404 -3.57732 -1.09103 0
M  V30 3251 H 306.696 -6.01244 -3.12269 0
M  V30 3252 H 307.639 -6.83747 -1.84108 0
M  V30 3253 H 308.047 -5.15663 -2.29678 0
M  V30 3254 N 307.445 0.0818655 -1.57387 0
M  V30 3255 C 308.856 0.634871 -1.75574 0
M  V30 3256 C 309.207 1.78435 -0.815809 0
M  V30 3257 O 308.332 2.164 0.0025366 0
M  V30 3258 C 308.927 1.15845 -3.18379 0
M  V30 3259 C 307.486 1.65741 -3.37945 0
M  V30 3260 C 306.633 0.572549 -2.71325 0
M  V30 3261 H 309.584 -0.144268 -1.58043 0
M  V30 3262 H 309.605 2.02751 -3.21982 0
M  V30 3263 H 309.117 0.321631 -3.86765 0
M  V30 3264 H 307.218 2.51781 -2.74658 0
M  V30 3265 H 307.331 1.74129 -4.46336 0
M  V30 3266 H 305.695 1.01518 -2.33594 0
M  V30 3267 H 306.478 -0.253918 -3.4236 0
M  V30 3268 N 308.923 1.53595 0.353017 0
M  V30 3269 C 310.169 1.71581 1.09232 0
M  V30 3270 C 310.524 0.468328 1.86613 0
M  V30 3271 O 309.817 -0.538911 1.83865 0
M  V30 3272 C 310.011 2.91313 2.07054 0
M  V30 3273 C 309.84 4.27585 1.39287 0
M  V30 3274 C 308.61 4.92233 1.1417 0
M  V30 3275 C 310.808 5.07656 0.824005 0
M  V30 3276 N 308.79 6.124 0.428841 0
M  V30 3277 C 310.161 6.19531 0.241195 0
M  V30 3278 C 312.216 4.92609 0.723922 0
M  V30 3279 C 310.919 7.18002 -0.431952 0
M  V30 3280 C 312.945 5.91365 0.0645334 0
M  V30 3281 C 312.307 7.02571 -0.507347 0
M  V30 3282 H 308.406 0.680987 0.384422 0
M  V30 3283 H 310.99 1.91013 0.377096 0
M  V30 3284 H 309.161 2.73398 2.75877 0
M  V30 3285 H 310.893 2.98062 2.73753 0
M  V30 3286 H 307.648 4.51612 1.42631 0
M  V30 3287 H 308.072 6.76944 0.0874131 0
M  V30 3288 H 312.714 4.06808 1.15181 0
M  V30 3289 H 310.432 8.03384 -0.871758 0
M  V30 3290 H 314.018 5.81799 -0.0121469 0
M  V30 3291 H 312.898 7.77675 -1.0095 0
M  V30 3292 N 310.401 -0.613514 1.45168 0
M  V30 3293 C 311.648 -1.37268 1.48875 0
M  V30 3294 C 311.976 -1.94077 0.128161 0
M  V30 3295 O 311.231 -1.75178 -0.872416 0
M  V30 3296 C 311.53 -2.54347 2.51083 0
M  V30 3297 C 311.196 -2.1572 3.95949 0
M  V30 3298 C 309.858 -2.04899 4.35396 0
M  V30 3299 C 312.21 -1.85485 4.87078 0
M  V30 3300 C 309.538 -1.62057 5.63875 0
M  V30 3301 C 311.89 -1.4413 6.15962 0
M  V30 3302 C 310.554 -1.31863 6.54346 0
M  V30 3303 H 309.824 -0.502299 0.544773 0
M  V30 3304 H 312.471 -0.694021 1.78481 0
M  V30 3305 H 310.776 -3.27524 2.15024 0
M  V30 3306 H 312.473 -3.12577 2.51191 0
M  V30 3307 H 309.063 -2.25066 3.64751 0
M  V30 3308 H 313.247 -1.92745 4.57343 0
M  V30 3309 H 308.503 -1.51177 5.92415 0
M  V30 3310 H 312.677 -1.19778 6.86022 0
M  V30 3311 H 310.304 -0.984392 7.538 0
M  V30 3312 N 311.879 -1.3236 -0.855495 0
M  V30 3313 C 312.826 -1.21225 -1.964 0
M  V30 3314 C 313.796 -0.0946204 -1.6583 0
M  V30 3315 O 314.981 -0.27002 -1.8888 0
M  V30 3316 C 312.121 -0.940419 -3.32039 0
M  V30 3317 C 311.234 -2.14276 -3.75113 0
M  V30 3318 C 310.369 -1.80648 -4.9954 0
M  V30 3319 C 309.408 -2.97208 -5.35102 0
M  V30 3320 N 308.545 -2.63678 -6.50706 0
M  V30 3321 H 313.385 -2.16042 -2.05255 0
M  V30 3322 H 310.922 -1.07451 -1.00463 0
M  V30 3323 H 312.88 -0.763311 -4.10158 0
M  V30 3324 H 311.51 -0.0290413 -3.22787 0
M  V30 3325 H 310.562 -2.43017 -2.92655 0
M  V30 3326 H 311.874 -3.01468 -3.97389 0
M  V30 3327 H 311.028 -1.59484 -5.85363 0
M  V30 3328 H 309.767 -0.906678 -4.79198 0
M  V30 3329 H 308.772 -3.19004 -4.47791 0
M  V30 3330 H 309.997 -3.87918 -5.57401 0
M  V30 3331 H 307.943 -1.76238 -6.31883 0
M  V30 3332 H 307.86 -3.444 -6.72997 0
M  V30 3333 H 309.128 -2.45942 -7.39684 0
M  V30 3334 N 313.357 1.07166 -1.15556 0
M  V30 3335 C 314.605 1.79443 -0.929764 0
M  V30 3336 C 314.926 1.87246 0.544414 0
M  V30 3337 O 314.196 1.37473 1.39564 0
M  V30 3338 H 312.776 0.664625 -0.341003 0
M  V30 3339 H 315.438 1.29499 -1.45657 0
M  V30 3340 H 314.534 2.81832 -1.34079 0
M  V30 3341 N 314.835 0.952656 1.25548 0
M  V30 3342 C 316.081 0.616826 1.93822 0
M  V30 3343 C 316.436 -0.836684 1.73255 0
M  V30 3344 O 315.729 -1.59218 1.06584 0
M  V30 3345 C 315.923 0.908818 3.45652 0
M  V30 3346 C 315.752 2.38916 3.80984 0
M  V30 3347 C 314.522 3.04637 4.03143 0
M  V30 3348 C 316.72 3.36838 3.88645 0
M  V30 3349 N 314.702 4.42565 4.25453 0
M  V30 3350 C 316.073 4.60065 4.1562 0
M  V30 3351 C 318.128 3.31704 3.71318 0
M  V30 3352 C 316.831 5.78795 4.2707 0
M  V30 3353 C 318.857 4.4977 3.84006 0
M  V30 3354 C 318.219 5.71783 4.11392 0
M  V30 3355 H 314.318 0.27629 0.731565 0
M  V30 3356 H 316.902 1.22443 1.5138 0
M  V30 3357 H 315.073 0.330166 3.86994 0
M  V30 3358 H 316.805 0.533093 4.01174 0
M  V30 3359 H 313.56 2.55215 3.98952 0
M  V30 3360 H 313.984 5.1399 4.40617 0
M  V30 3361 H 318.626 2.3842 3.49164 0
M  V30 3362 H 316.344 6.72521 4.48041 0
M  V30 3363 H 319.93 4.47342 3.71989 0
M  V30 3364 H 318.81 6.61617 4.2099 0
M  V30 3365 N 316.313 -1.40141 0.720998 0
M  V30 3366 C 317.26 -2.30688 0.071919 0
M  V30 3367 C 318.23 -1.48476 -0.744584 0
M  V30 3368 O 319.415 -1.77201 -0.707423 0
M  V30 3369 C 316.555 -3.34724 -0.839855 0
M  V30 3370 C 315.668 -4.31998 -0.0122438 0
M  V30 3371 C 314.803 -5.23102 -0.923995 0
M  V30 3372 C 313.842 -6.12033 -0.0907969 0
M  V30 3373 N 312.979 -6.95537 -0.957718 0
M  V30 3374 H 317.819 -2.85628 0.849755 0
M  V30 3375 H 315.356 -1.40653 0.430726 0
M  V30 3376 H 317.314 -3.93618 -1.38279 0
M  V30 3377 H 315.944 -2.81274 -1.58381 0
M  V30 3378 H 314.996 -3.74841 0.64794 0
M  V30 3379 H 316.308 -4.94772 0.632595 0
M  V30 3380 H 315.462 -5.86953 -1.53527 0
M  V30 3381 H 314.201 -4.60615 -1.60264 0
M  V30 3382 H 313.206 -5.47207 0.533377 0
M  V30 3383 H 314.431 -6.76581 0.584428 0
M  V30 3384 H 312.377 -6.35633 -1.62192 0
M  V30 3385 H 312.294 -7.55099 -0.36904 0
M  V30 3386 H 313.562 -7.63832 -1.555 0
M  V30 3387 N 317.792 -0.46758 -1.50504 0
M  V30 3388 C 319.038 0.0887532 -2.02606 0
M  V30 3389 C 319.371 1.39686 -1.34913 0
M  V30 3390 O 318.646 1.88644 -0.473694 0
M  V30 3391 C 318.929 0.276206 -3.59039 0
M  V30 3392 C 318.782 -1.05267 -4.37309 0
M  V30 3393 C 320.101 1.03235 -4.27821 0
M  V30 3394 H 317.22 0.0307814 -0.736357 0
M  V30 3395 H 319.862 -0.612485 -1.79857 0
M  V30 3396 H 318.012 0.8735 -3.78553 0
M  V30 3397 H 319.684 -1.68628 -4.29374 0
M  V30 3398 H 317.927 -1.65015 -4.01189 0
M  V30 3399 H 318.598 -0.875197 -5.45018 0
M  V30 3400 H 321.074 0.526111 -4.12761 0
M  V30 3401 H 319.95 1.1323 -5.37094 0
M  V30 3402 H 320.211 2.06806 -3.90748 0
M  V30 3403 N 319.27 1.56325 -0.20005 0
M  V30 3404 C 320.498 2.02105 0.442874 0
M  V30 3405 C 320.913 1.08014 1.5485 0
M  V30 3406 O 320.27 0.0858797 1.82298 0
M  V30 3407 C 320.321 3.47549 0.994583 0
M  V30 3408 O 320.042 4.38049 -0.0669322 0
M  V30 3409 C 321.543 4.0887 1.7129 0
M  V30 3410 H 318.763 0.661807 0.110691 0
M  V30 3411 H 321.307 2.02134 -0.310207 0
M  V30 3412 H 319.462 3.48204 1.69803 0
M  V30 3413 H 319.876 5.23368 0.344462 0
M  V30 3414 H 321.35 5.12475 2.05118 0
M  V30 3415 H 321.827 3.52615 2.61838 0
M  V30 3416 H 322.433 4.12002 1.05518 0
M  V30 3417 N 320.748 -0.0735177 1.57428 0
M  V30 3418 C 322.164 -0.428264 1.53747 0
M  V30 3419 C 322.364 -1.79272 0.91998 0
M  V30 3420 O 321.42 -2.47051 0.521745 0
M  V30 3421 C 322.733 -0.370914 2.98404 0
M  V30 3422 C 324.281 -0.451224 3.0973 0
M  V30 3423 C 324.756 -0.4238 4.56035 0
M  V30 3424 N 326.247 -0.483925 4.60665 0
M  V30 3425 C 326.982 -0.484891 5.71346 0
M  V30 3426 N 326.478 -0.440775 6.91396 0
M  V30 3427 N 328.271 -0.531319 5.59583 0
M  V30 3428 H 320.422 0.819949 1.95935 0
M  V30 3429 H 322.685 0.307493 0.896745 0
M  V30 3430 H 322.391 0.564956 3.47133 0
M  V30 3431 H 322.265 -1.18176 3.5821 0
M  V30 3432 H 324.652 -1.37752 2.60976 0
M  V30 3433 H 324.733 0.388167 2.52838 0
M  V30 3434 H 324.377 0.498638 5.05446 0
M  V30 3435 H 324.307 -1.2807 5.10789 0
M  V30 3436 H 326.798 -0.522338 3.74273 0
M  V30 3437 H 327.111 -0.44539 7.71515 0
M  V30 3438 H 325.456 -0.40749 6.93804 0
M  V30 3439 H 328.647 -0.563464 4.64696 0
M  V30 3440 H 328.82 -0.528603 6.4584 0
M  V30 3441 N 322.226 -1.5378 -0.344866 0
M  V30 3442 C 323.173 -1.81676 -1.42346 0
M  V30 3443 C 324.143 -0.662376 -1.52321 0
M  V30 3444 O 325.328 -0.906675 -1.67881 0
M  V30 3445 C 322.468 -2.03087 -2.79015 0
M  V30 3446 C 321.581 -3.30799 -2.77842 0
M  V30 3447 C 320.716 -3.42285 -4.0622 0
M  V30 3448 C 319.755 -4.6395 -3.9927 0
M  V30 3449 N 318.892 -4.72477 -5.19336 0
M  V30 3450 H 323.732 -2.73703 -1.17858 0
M  V30 3451 H 321.269 -1.35568 -0.570949 0
M  V30 3452 H 323.227 -2.1349 -3.58438 0
M  V30 3453 H 321.857 -1.14375 -3.01858 0
M  V30 3454 H 320.909 -3.29244 -1.90533 0
M  V30 3455 H 322.221 -4.20314 -2.68584 0
M  V30 3456 H 321.375 -3.52113 -4.94066 0
M  V30 3457 H 320.114 -2.50823 -4.18258 0
M  V30 3458 H 319.119 -4.54201 -3.09809 0
M  V30 3459 H 320.344 -5.56775 -3.88817 0
M  V30 3460 H 318.29 -3.83924 -5.3192 0
M  V30 3461 H 318.207 -5.55927 -5.12329 0
M  V30 3462 H 319.475 -4.86613 -6.08957 0
M  V30 3463 N 323.704 0.605807 -1.45491 0
M  V30 3464 C 324.981 1.36522 -1.40075 0
M  V30 3465 C 325.361 2.10976 -0.0722744 0
M  V30 3466 O 324.709 2.08007 0.945808 0
M  V30 3467 C 324.919 2.31056 -2.61561 0
M  V30 3468 C 326.267 2.93608 -3.06724 0
M  V30 3469 O 327.291 2.41376 -2.61946 0
M  V30 3470 O 326.15 3.88421 -3.84437 0
M  V30 3471 H 323.244 0.612248 -0.555951 0
M  V30 3472 H 325.79 0.628747 -1.57623 0
M  V30 3473 H 324.562 1.75311 -3.49831 0
M  V30 3474 H 324.185 3.12081 -2.46356 0
M  V30 3475 N 325.182 1.32811 0.848464 0
M  V30 3476 C 326.43 1.23479 1.59991 0
M  V30 3477 C 326.751 -0.201853 1.93952 0
M  V30 3478 O 326.021 -1.12818 1.60153 0
M  V30 3479 H 324.601 0.454034 0.593179 0
M  V30 3480 H 327.263 1.66412 1.01455 0
M  V30 3481 H 326.359 1.82178 2.53412 0
M  V30 3482 N 326.66 -1.06551 1.16123 0
M  V30 3483 C 327.608 -2.16063 0.861371 0
M  V30 3484 C 328.602 -1.6856 -0.168517 0
M  V30 3485 O 329.808 -1.79986 -0.0227579 0
M  V30 3486 H 326.183 -0.705278 0.260934 0
M  V30 3487 H 328.154 -2.38567 1.79244 0
M  V30 3488 C 326.903 -3.45661 0.376018 0
M  V30 3489 H 326.226 -3.82604 1.15992 0
M  V30 3490 H 327.666 -4.23504 0.204951 0
M  V30 3491 C 326.125 -3.24546 -0.903954 0
M  V30 3492 O 326.655 -3.49865 -1.97377 0
M  V30 3493 N 324.861 -2.77992 -0.846679 0
M  V30 3494 H 324.408 -2.57589 0.0241017 0
M  V30 3495 H 324.366 -2.64244 -1.70359 0
M  V30 3496 N 328.138 -0.959301 -1.25041 0
M  V30 3497 C 329.101 -0.487677 -2.23952 0
M  V30 3498 C 330.101 0.41119 -1.55454 0
M  V30 3499 O 331.291 0.207825 -1.72956 0
M  V30 3500 C 328.423 0.294807 -3.39623 0
M  V30 3501 H 329.616 -1.36198 -2.67189 0
M  V30 3502 H 327.169 -0.743042 -1.37508 0
M  V30 3503 H 327.904 1.18658 -3.01813 0
M  V30 3504 H 327.689 -0.35012 -3.90534 0
M  V30 3505 H 329.179 0.614089 -4.1306 0
M  V30 3506 N 329.616 1.39756 -0.72842 0
M  V30 3507 C 330.841 2.05472 -0.282159 0
M  V30 3508 C 331.266 1.54549 1.07221 0
M  V30 3509 O 330.624 0.686372 1.67805 0
M  V30 3510 C 330.672 3.59462 -0.286264 0
M  V30 3511 O 329.776 4.05918 0.728298 0
M  V30 3512 H 329.117 0.651226 -0.129618 0
M  V30 3513 H 331.647 1.78915 -0.992499 0
M  V30 3514 H 331.657 4.07798 -0.128373 0
M  V30 3515 H 330.332 3.95889 -1.27456 0
M  V30 3516 H 328.909 3.69012 0.537081 0
M  V30 3517 N 331.094 0.475555 1.50254 0
M  V30 3518 C 332.342 -0.077738 2.0195 0
M  V30 3519 C 332.663 -1.39813 1.35931 0
M  V30 3520 O 331.933 -1.89249 0.506123 0
M  V30 3521 H 330.513 -0.031719 0.746326 0
M  V30 3522 H 333.175 0.626995 1.84539 0
M  V30 3523 H 332.271 -0.225995 3.11281 0
M  V30 3524 N 332.573 -1.56217 0.208337 0
M  V30 3525 C 333.801 -2.02337 -0.43215 0
M  V30 3526 C 334.216 -1.08834 -1.54275 0
M  V30 3527 O 333.573 -0.0955462 -1.8225 0
M  V30 3528 C 333.624 -3.48072 -0.976138 0
M  V30 3529 O 333.345 -4.38007 0.0901621 0
M  V30 3530 C 334.846 -4.09773 -1.69119 0
M  V30 3531 H 332.066 -0.662385 -0.10718 0
M  V30 3532 H 334.61 -2.01966 0.320923 0
M  V30 3533 H 332.765 -3.49099 -1.67954 0
M  V30 3534 H 333.179 -5.23543 -0.316701 0
M  V30 3535 H 334.653 -5.13556 -2.02397 0
M  V30 3536 H 335.13 -3.53999 -2.59964 0
M  V30 3537 H 335.736 -4.12556 -1.03332 0
M  V30 3538 N 334.051 0.0651679 -1.57465 0
M  V30 3539 C 335.279 0.775808 -1.91804 0
M  V30 3540 C 335.694 1.70782 -0.804916 0
M  V30 3541 O 335.051 1.81153 0.221311 0
M  V30 3542 C 335.102 1.56381 -3.25925 0
M  V30 3543 O 334.823 0.669248 -4.32958 0
M  V30 3544 C 336.324 2.37485 -3.7432 0
M  V30 3545 H 333.544 0.2202 -0.63384 0
M  V30 3546 H 336.088 0.0334587 -2.04473 0
M  V30 3547 H 334.243 2.25837 -3.14764 0
M  V30 3548 H 334.657 1.21801 -5.10162 0
M  V30 3549 H 336.131 2.88223 -4.70778 0
M  V30 3550 H 336.608 3.17307 -3.03666 0
M  V30 3551 H 337.214 1.73173 -3.88447 0
M  V30 3552 N 335.529 1.53961 0.336706 0
M  V30 3553 C 336.459 1.85417 1.41925 0
M  V30 3554 C 337.44 0.709856 1.5458 0
M  V30 3555 O 338.625 0.962396 1.68676 0
M  V30 3556 C 335.755 2.06985 2.78881 0
M  V30 3557 C 334.709 3.22813 2.81026 0
M  V30 3558 C 334.035 3.29727 4.20932 0
M  V30 3559 C 335.335 4.60767 2.45949 0
M  V30 3560 H 337.029 2.76079 1.15848 0
M  V30 3561 H 334.575 1.32839 0.555859 0
M  V30 3562 H 336.528 2.27575 3.54665 0
M  V30 3563 H 335.252 1.13061 3.06406 0
M  V30 3564 H 333.911 3.0209 2.07695 0
M  V30 3565 H 333.559 2.33385 4.45579 0
M  V30 3566 H 333.259 4.07566 4.23277 0
M  V30 3567 H 334.783 3.52536 4.98549 0
M  V30 3568 H 336.197 4.81325 3.11446 0
M  V30 3569 H 334.594 5.4106 2.59566 0
M  V30 3570 H 335.664 4.6391 1.41122 0
M  V30 3571 N 337.007 -0.598083 1.45811 0
M  V30 3572 C 337.937 -1.71873 1.58057 0
M  V30 3573 C 338.918 -1.64533 0.431615 0
M  V30 3574 O 340.103 -1.82787 0.65595 0
M  V30 3575 C 337.233 -3.10495 1.55597 0
M  V30 3576 C 336.187 -3.32654 2.69305 0
M  V30 3577 C 335.513 -4.71646 2.51902 0
M  V30 3578 C 336.813 -3.21981 4.11248 0
M  V30 3579 H 338.507 -1.61881 2.51863 0
M  V30 3580 H 336.053 -0.777372 1.21214 0
M  V30 3581 H 338.006 -3.88699 1.6276 0
M  V30 3582 H 336.73 -3.2135 0.583255 0
M  V30 3583 H 335.389 -2.56843 2.61586 0
M  V30 3584 H 335.037 -4.79246 1.52748 0
M  V30 3585 H 334.737 -4.87426 3.2816 0
M  V30 3586 H 336.261 -5.52038 2.60933 0
M  V30 3587 H 337.675 -3.90049 4.20161 0
M  V30 3588 H 336.072 -3.49289 4.87972 0
M  V30 3589 H 337.142 -2.1928 4.32486 0
M  V30 3590 N 338.485 -1.33259 -0.841409 0
M  V30 3591 C 339.395 -1.25332 -1.98316 0
M  V30 3592 C 340.411 -0.164364 -1.73222 0
M  V30 3593 O 341.587 -0.387486 -1.97637 0
M  V30 3594 C 338.652 -0.990078 -3.32262 0
M  V30 3595 C 337.713 -2.16879 -3.70489 0
M  V30 3596 C 336.946 -1.91801 -4.98044 0
M  V30 3597 O 337.169 -0.867075 -5.63771 0
M  V30 3598 O 336.103 -2.78267 -5.33714 0
M  V30 3599 H 339.929 -2.21344 -2.07944 0
M  V30 3600 H 337.514 -1.1328 -0.974058 0
M  V30 3601 H 339.396 -0.860321 -4.12524 0
M  V30 3602 H 338.071 -0.0602155 -3.23644 0
M  V30 3603 H 336.978 -2.35407 -2.90748 0
M  V30 3604 H 338.311 -3.0819 -3.8377 0
M  V30 3605 N 339.963 1.05934 -1.16686 0
M  V30 3606 C 340.926 2.11669 -0.879144 0
M  V30 3607 C 341.926 1.60294 0.127445 0
M  V30 3608 O 343.116 1.7389 -0.103865 0
M  V30 3609 C 340.248 3.39438 -0.315425 0
M  V30 3610 H 341.441 2.38626 -1.81653 0
M  V30 3611 H 338.994 1.22058 -0.976299 0
M  V30 3612 H 339.729 3.18132 0.629468 0
M  V30 3613 H 339.514 3.78034 -1.04079 0
M  V30 3614 H 341.004 4.17391 -0.132189 0
M  V30 3615 N 341.441 0.965919 1.2453 0
M  V30 3616 C 342.371 0.513476 2.27784 0
M  V30 3617 C 343.352 -0.445974 1.6415 0
M  V30 3618 O 344.537 -0.342485 1.91156 0
M  V30 3619 C 341.667 -0.198839 3.4673 0
M  V30 3620 C 340.621 0.676456 4.2262 0
M  V30 3621 C 339.947 -0.167248 5.34438 0
M  V30 3622 C 341.247 1.96017 4.84123 0
M  V30 3623 H 342.941 1.3765 2.65881 0
M  V30 3624 H 340.487 0.663321 1.27813 0
M  V30 3625 H 342.44 -0.526567 4.18097 0
M  V30 3626 H 341.164 -1.0962 3.07654 0
M  V30 3627 H 339.823 0.98743 3.53052 0
M  V30 3628 H 339.471 -1.0647 4.91603 0
M  V30 3629 H 339.171 0.415181 5.86131 0
M  V30 3630 H 340.695 -0.489688 6.08633 0
M  V30 3631 H 342.109 1.69814 5.47573 0
M  V30 3632 H 340.506 2.48918 5.4604 0
M  V30 3633 H 341.576 2.65622 4.05676 0
M  V30 3634 N 342.919 -1.39368 0.735821 0
M  V30 3635 C 344.196 -1.94465 0.210395 0
M  V30 3636 C 344.576 -1.67254 -1.28799 0
M  V30 3637 O 343.924 -1.00123 -2.05396 0
M  V30 3638 C 344.134 -3.4472 0.544897 0
M  V30 3639 C 345.482 -4.21708 0.494689 0
M  V30 3640 O 346.506 -3.52922 0.482136 0
M  V30 3641 O 345.365 -5.44299 0.489947 0
M  V30 3642 H 342.459 -0.826096 0.0386666 0
M  V30 3643 H 345.005 -1.48863 0.814735 0
M  V30 3644 H 343.777 -3.57963 1.58045 0
M  V30 3645 H 343.4 -3.97502 -0.08837 0
M  V30 3646 N 344.397 -0.483516 -1.5 0
M  V30 3647 C 345.637 0.0657469 -2.04294 0
M  V30 3648 C 346.001 1.35869 -1.35659 0
M  V30 3649 O 347.202 1.99111 -1.80578 0
M  V30 3650 C 345.473 0.232758 -3.56641 0
M  V30 3651 S 347.032 0.738788 -4.32536 0
M  V30 3652 H 343.85 0.0100755 -0.710929 0
M  V30 3653 H 346.452 -0.653494 -1.84254 0
M  V30 3654 H 345.156 -0.713847 -4.04144 0
M  V30 3655 H 344.687 0.977751 -3.81056 0
M  V30 3656 H 346.702 2.01048 -4.53645 0
M  V30 3657 N 345.875 1.56104 -0.216619 0
M  V30 3658 C 347.124 1.97348 0.416744 0
M  V30 3659 C 347.437 1.10715 1.6125 0
M  V30 3660 O 348.643 1.41836 2.31506 0
M  V30 3661 C 347.099 3.51059 0.792835 0
M  V30 3662 C 346.707 4.46387 -0.379828 0
M  V30 3663 C 348.451 4.01026 1.39208 0
M  V30 3664 C 346.358 5.91397 0.0184223 0
M  V30 3665 H 345.288 0.736942 0.159475 0
M  V30 3666 H 347.939 1.80827 -0.31205 0
M  V30 3667 H 346.321 3.63162 1.57891 0
M  V30 3668 H 347.495 4.46029 -1.15737 0
M  V30 3669 H 345.81 4.06734 -0.891979 0
M  V30 3670 H 348.407 5.0686 1.70286 0
M  V30 3671 H 348.75 3.46587 2.30614 0
M  V30 3672 H 349.283 3.92125 0.669537 0
M  V30 3673 H 346.022 6.49807 -0.862002 0
M  V30 3674 H 345.542 5.94961 0.760384 0
M  V30 3675 H 347.221 6.45455 0.446818 0
M  V30 3676 N 347.353 -0.0568162 1.57498 0
M  V30 3677 C 348.283 -1.06593 2.0775 0
M  V30 3678 C 349.264 -1.39448 0.974082 0
M  V30 3679 O 350.449 -1.48815 1.24771 0
M  V30 3680 C 347.579 -2.37509 2.5339 0
M  V30 3681 C 346.533 -2.1897 3.67745 0
M  V30 3682 C 345.859 -3.55402 3.99492 0
M  V30 3683 C 347.159 -1.59859 4.97235 0
M  V30 3684 H 348.853 -0.647706 2.9231 0
M  V30 3685 H 346.399 -0.310116 1.40621 0
M  V30 3686 H 348.352 -3.08409 2.87162 0
M  V30 3687 H 347.076 -2.8134 1.65878 0
M  V30 3688 H 345.735 -1.50508 3.3428 0
M  V30 3689 H 345.383 -3.9683 3.09088 0
M  V30 3690 H 345.083 -3.43831 4.76502 0
M  V30 3691 H 346.607 -4.27708 4.35773 0
M  V30 3692 H 348.021 -2.20642 5.29141 0
M  V30 3693 H 346.418 -1.58942 5.78669 0
M  V30 3694 H 347.488 -0.561506 4.81638 0
M  V30 3695 N 348.832 -1.54138 -0.328536 0
M  V30 3696 C 350.243 -1.63395 -0.903272 0
M  V30 3697 C 350.594 -0.524828 -1.8905 0
M  V30 3698 O 349.719 0.343068 -2.13663 0
M  V30 3699 C 350.314 -2.9618 -1.64507 0
M  V30 3700 C 348.873 -3.0765 -2.1686 0
M  V30 3701 C 348.02 -2.58933 -0.992416 0
M  V30 3702 H 350.971 -1.58344 -0.106253 0
M  V30 3703 H 350.992 -2.86061 -2.50897 0
M  V30 3704 H 350.504 -3.76884 -0.926302 0
M  V30 3705 H 348.605 -2.31611 -2.91868 0
M  V30 3706 H 348.718 -4.1337 -2.42202 0
M  V30 3707 H 347.082 -2.14706 -1.37016 0
M  V30 3708 H 347.865 -3.42089 -0.288041 0
M  V30 3709 N 350.31 0.590341 -1.46126 0
M  V30 3710 C 351.721 1.17243 -1.45296 0
M  V30 3711 C 352.072 1.95281 -0.189723 0
M  V30 3712 O 351.197 2.04502 0.707674 0
M  V30 3713 C 351.792 2.13284 -2.6324 0
M  V30 3714 C 350.351 2.66832 -2.65476 0
M  V30 3715 C 349.498 1.42557 -2.3785 0
M  V30 3716 H 352.449 0.378692 -1.54116 0
M  V30 3717 H 352.47 2.96619 -2.38323 0
M  V30 3718 H 351.982 1.56459 -3.55165 0
M  V30 3719 H 350.083 3.27548 -1.77603 0
M  V30 3720 H 350.196 3.10088 -3.65215 0
M  V30 3721 H 348.56 1.72107 -1.87753 0
M  V30 3722 H 349.343 0.875741 -3.31942 0
M  V30 3723 N 351.788 1.33704 0.83433 0
M  V30 3724 C 353.016 1.28467 1.62185 0
M  V30 3725 C 353.431 -0.143526 1.88254 0
M  V30 3726 O 352.788 -1.08709 1.4659 0
M  V30 3727 C 352.839 2.06174 2.96942 0
M  V30 3728 O 352.56 3.43422 2.72016 0
M  V30 3729 C 354.061 2.08201 3.91366 0
M  V30 3730 H 351.281 0.4424 0.504503 0
M  V30 3731 H 353.825 1.76145 1.03891 0
M  V30 3732 H 351.98 1.62167 3.51825 0
M  V30 3733 H 352.394 3.83453 3.57861 0
M  V30 3734 H 353.868 2.67017 4.83121 0
M  V30 3735 H 354.345 1.07343 4.2588 0
M  V30 3736 H 354.951 2.52246 3.42421 0
M  V30 3737 N 353.266 -1.05314 1.17247 0
M  V30 3738 C 354.682 -1.30452 0.919473 0
M  V30 3739 C 354.882 -1.9703 -0.42209 0
M  V30 3740 O 353.938 -2.24311 -1.15935 0
M  V30 3741 C 355.251 -2.17551 2.07586 0
M  V30 3742 C 356.799 -2.30937 2.11275 0
M  V30 3743 C 357.274 -3.21396 3.26296 0
M  V30 3744 N 358.765 -3.28981 3.26076 0
M  V30 3745 C 359.5 -3.99095 4.11716 0
M  V30 3746 N 358.996 -4.71648 5.07465 0
M  V30 3747 N 360.789 -3.95247 3.9967 0
M  V30 3748 H 352.94 -0.604988 2.03602 0
M  V30 3749 H 355.203 -0.329368 0.888944 0
M  V30 3750 H 354.909 -1.75921 3.0454 0
M  V30 3751 H 354.783 -3.18182 2.02584 0
M  V30 3752 H 357.17 -2.71809 1.14907 0
M  V30 3753 H 357.251 -1.2994 2.20339 0
M  V30 3754 H 356.895 -2.81238 4.22927 0
M  V30 3755 H 356.825 -4.22395 3.14467 0
M  V30 3756 H 359.316 -2.77286 2.5675 0
M  V30 3757 H 359.629 -5.22705 5.6921 0
M  V30 3758 H 357.974 -4.70594 5.11435 0
M  V30 3759 H 361.165 -3.37691 3.24164 0
M  V30 3760 H 361.338 -4.4962 4.66632 0
M  V30 3761 N 354.744 -0.972509 -1.24016 0
M  V30 3762 C 356.155 -0.67517 -1.74064 0
M  V30 3763 C 356.506 0.808939 -1.78747 0
M  V30 3764 O 355.631 1.63286 -1.42009 0
M  V30 3765 C 356.226 -1.21889 -3.16115 0
M  V30 3766 C 354.785 -0.971358 -3.6365 0
M  V30 3767 C 353.932 -1.35134 -2.42145 0
M  V30 3768 H 356.883 -1.14727 -1.09651 0
M  V30 3769 H 356.904 -0.587489 -3.75937 0
M  V30 3770 H 356.416 -2.29906 -3.12674 0
M  V30 3771 H 354.517 0.0930686 -3.72484 0
M  V30 3772 H 354.63 -1.62039 -4.50866 0
M  V30 3773 H 352.994 -0.769751 -2.4279 0
M  V30 3774 H 353.777 -2.4411 -2.41381 0
M  V30 3775 N 356.222 1.38976 -0.743202 0
M  V30 3776 C 357.45 2.04636 -0.30525 0
M  V30 3777 C 357.865 1.56044 1.06281 0
M  V30 3778 O 357.222 0.728921 1.67311 0
M  V30 3779 C 357.273 3.60193 -0.307177 0
M  V30 3780 O 356.994 4.06998 -1.62124 0
M  V30 3781 C 358.495 4.4306 0.145928 0
M  V30 3782 H 355.715 0.65788 -0.132041 0
M  V30 3783 H 358.259 1.77866 -1.00915 0
M  V30 3784 H 356.414 3.85835 0.347898 0
M  V30 3785 H 356.828 5.01371 -1.54036 0
M  V30 3786 H 358.302 5.51921 0.0934183 0
M  V30 3787 H 358.779 4.22706 1.19231 0
M  V30 3788 H 359.385 4.22584 -0.479886 0
M  V30 3789 N 357.7 0.491464 1.49741 0
M  V30 3790 C 358.977 -0.118984 1.95238 0
M  V30 3791 C 359.357 -1.55044 1.43264 0
M  V30 3792 O 358.705 -2.19287 0.642287 0
M  V30 3793 C 358.915 -0.0414187 3.48975 0
M  V30 3794 C 360.263 -0.220133 4.24029 0
M  V30 3795 O 361.287 -0.117055 3.56008 0
M  V30 3796 O 360.146 -0.430567 5.44801 0
M  V30 3797 H 357.24 -0.100536 0.820866 0
M  V30 3798 H 359.786 0.553322 1.60426 0
M  V30 3799 H 358.558 0.957214 3.79412 0
M  V30 3800 H 358.181 -0.754292 3.9038 0
M  V30 3801 N 359.178 -1.55987 0.224894 0
M  V30 3802 C 360.125 -2.20436 -0.68385 0
M  V30 3803 C 361.095 -1.16102 -1.18783 0
M  V30 3804 O 362.28 -1.4447 -1.24632 0
M  V30 3805 C 359.42 -2.89076 -1.88491 0
M  V30 3806 C 358.533 -4.08012 -1.41951 0
M  V30 3807 C 357.668 -4.64426 -2.5784 0
M  V30 3808 C 356.707 -5.75656 -2.08053 0
M  V30 3809 N 355.844 -6.26347 -3.17227 0
M  V30 3810 H 360.684 -2.97727 -0.12754 0
M  V30 3811 H 358.221 -1.47011 -0.0511978 0
M  V30 3812 H 360.179 -3.27059 -2.59014 0
M  V30 3813 H 358.809 -2.14298 -2.41405 0
M  V30 3814 H 357.861 -3.75492 -0.609095 0
M  V30 3815 H 359.173 -4.88375 -1.01447 0
M  V30 3816 H 358.327 -5.04869 -3.3644 0
M  V30 3817 H 357.066 -3.83233 -3.01635 0
M  V30 3818 H 356.071 -5.34712 -1.27916 0
M  V30 3819 H 357.296 -6.58686 -1.65255 0
M  V30 3820 H 355.242 -5.48067 -3.60497 0
M  V30 3821 H 355.159 -7.01843 -2.80986 0
M  V30 3822 H 356.427 -6.71447 -3.95953 0
M  V30 3823 N 360.656 0.0484629 -1.57525 0
M  V30 3824 C 362.067 0.597486 -1.76881 0
M  V30 3825 C 362.418 1.76664 -0.853475 0
M  V30 3826 O 361.543 2.16357 -0.0433656 0
M  V30 3827 C 362.138 1.09066 -3.20765 0
M  V30 3828 C 360.697 1.58535 -3.41385 0
M  V30 3829 C 359.844 0.514868 -2.72478 0
M  V30 3830 H 362.795 -0.177758 -1.57701 0
M  V30 3831 H 362.816 1.95875 -3.2621 0
M  V30 3832 H 362.328 0.239521 -3.8736 0
M  V30 3833 H 360.429 2.45898 -2.79937 0
M  V30 3834 H 360.542 1.64622 -4.49929 0
M  V30 3835 H 358.906 0.965407 -2.35695 0
M  V30 3836 H 359.689 -0.32648 -3.41744 0
M  V30 3837 N 362.134 1.5431 0.320358 0
M  V30 3838 C 363.064 1.86912 1.3995 0
M  V30 3839 C 364.045 0.726211 1.53819 0
M  V30 3840 O 365.23 0.980233 1.67646 0
M  V30 3841 C 362.36 2.09932 2.7667 0
M  V30 3842 C 361.314 3.25776 2.77586 0
M  V30 3843 C 360.64 3.34173 4.17412 0
M  V30 3844 C 361.94 4.6335 2.41048 0
M  V30 3845 H 363.634 2.77292 1.12914 0
M  V30 3846 H 361.18 1.33421 0.541738 0
M  V30 3847 H 363.133 2.31324 3.52232 0
M  V30 3848 H 361.857 1.16304 3.0519 0
M  V30 3849 H 360.516 3.04276 2.04479 0
M  V30 3850 H 360.164 2.38098 4.43078 0
M  V30 3851 H 359.864 4.12033 4.18931 0
M  V30 3852 H 361.388 3.57803 4.94782 0
M  V30 3853 H 362.802 4.84602 3.06324 0
M  V30 3854 H 361.199 5.43782 2.53813 0
M  V30 3855 H 362.269 4.65381 1.36193 0
M  V30 3856 N 363.613 -0.582584 1.46437 0
M  V30 3857 C 365.029 -0.905962 1.31394 0
M  V30 3858 C 365.229 -1.99468 0.285476 0
M  V30 3859 O 364.285 -2.50566 -0.311914 0
M  V30 3860 C 365.598 -1.3232 2.70022 0
M  V30 3861 C 367.146 -1.43604 2.78113 0
M  V30 3862 C 367.621 -1.88694 4.17323 0
M  V30 3863 N 369.112 -1.95887 4.19741 0
M  V30 3864 C 369.847 -2.32051 5.24347 0
M  V30 3865 N 369.343 -2.67006 6.39281 0
M  V30 3866 N 371.136 -2.32606 5.11713 0
M  V30 3867 H 363.287 0.1366 2.1196 0
M  V30 3868 H 365.55 -0.00155736 0.947999 0
M  V30 3869 H 365.256 -0.597242 3.46592 0
M  V30 3870 H 365.13 -2.28469 3.00136 0
M  V30 3871 H 367.517 -2.15286 2.01832 0
M  V30 3872 H 367.598 -0.457059 2.51684 0
M  V30 3873 H 367.242 -1.1759 4.941 0
M  V30 3874 H 367.172 -2.8755 4.4116 0
M  V30 3875 H 369.663 -1.71362 3.36814 0
M  V30 3876 H 369.976 -2.93554 7.14875 0
M  V30 3877 H 368.321 -2.64644 6.42642 0
M  V30 3878 H 371.512 -2.04721 4.2096 0
M  V30 3879 H 371.685 -2.60462 5.93349 0
M  V30 3880 N 365.091 -1.34144 -0.827227 0
M  V30 3881 C 366.021 -1.28005 -1.95287 0
M  V30 3882 C 367.002 -0.158321 -1.69362 0
M  V30 3883 O 368.187 -0.349987 -1.9102 0
M  V30 3884 C 365.317 -1.03036 -3.31664 0
M  V30 3885 C 364.271 -2.11628 -3.72019 0
M  V30 3886 C 363.597 -1.71854 -5.0633 0
M  V30 3887 C 364.897 -3.53417 -3.8457 0
M  V30 3888 H 366.591 -2.22187 -2.00682 0
M  V30 3889 H 364.137 -1.0696 -0.964135 0
M  V30 3890 H 366.09 -0.973863 -4.09993 0
M  V30 3891 H 364.814 -0.0529391 -3.26557 0
M  V30 3892 H 363.473 -2.16339 -2.95961 0
M  V30 3893 H 363.121 -0.727841 -4.97706 0
M  V30 3894 H 362.821 -2.44531 -5.34302 0
M  V30 3895 H 364.345 -1.67692 -5.87122 0
M  V30 3896 H 365.759 -3.51142 -4.5318 0
M  V30 3897 H 364.156 -4.24679 -4.2399 0
M  V30 3898 H 365.226 -3.91072 -2.86689 0
M  V30 3899 N 366.569 1.04691 -1.17803 0
M  V30 3900 C 367.98 1.59238 -0.974689 0
M  V30 3901 C 368.331 1.90306 0.477292 0
M  V30 3902 O 367.456 1.68846 1.35352 0
M  V30 3903 C 368.051 2.89318 -1.76296 0
M  V30 3904 C 366.61 3.40506 -1.60414 0
M  V30 3905 C 365.757 2.14172 -1.76141 0
M  V30 3906 H 368.708 0.874395 -1.32439 0
M  V30 3907 H 368.729 3.5944 -1.24833 0
M  V30 3908 H 368.241 2.66675 -2.81968 0
M  V30 3909 H 366.342 3.68175 -0.572519 0
M  V30 3910 H 366.455 4.14753 -2.39827 0
M  V30 3911 H 364.819 2.25176 -1.19028 0
M  V30 3912 H 365.602 1.93992 -2.83235 0
M  V30 3913 N 368.047 0.979072 1.23499 0
M  V30 3914 C 368.977 0.537606 2.27227 0
M  V30 3915 C 369.958 -0.428539 1.64613 0
M  V30 3916 O 371.143 -0.322191 1.91509 0
M  V30 3917 C 368.273 -0.162052 3.46922 0
M  V30 3918 C 367.227 0.721242 4.21879 0
M  V30 3919 C 366.553 -0.110555 5.34586 0
M  V30 3920 C 367.853 2.01141 4.82016 0
M  V30 3921 H 369.547 1.40462 2.64406 0
M  V30 3922 H 367.093 0.67684 1.27102 0
M  V30 3923 H 369.046 -0.482192 4.18632 0
M  V30 3924 H 367.77 -1.06351 3.08799 0
M  V30 3925 H 366.429 1.02482 3.51984 0
M  V30 3926 H 366.077 -1.0125 4.92704 0
M  V30 3927 H 365.777 0.477325 5.85658 0
M  V30 3928 H 367.301 -0.425107 6.09118 0
M  V30 3929 H 368.715 1.75612 5.45741 0
M  V30 3930 H 367.112 2.54695 5.43369 0
M  V30 3931 H 368.182 2.69909 4.02836 0
M  V30 3932 N 369.525 -1.3858 0.750561 0
M  V30 3933 C 370.457 -2.29057 0.0810714 0
M  V30 3934 C 371.47 -1.47596 -0.686973 0
M  V30 3935 O 372.659 -1.70495 -0.528563 0
M  V30 3936 C 369.759 -3.26475 -0.909247 0
M  V30 3937 C 368.932 -4.36945 -0.199478 0
M  V30 3938 C 367.991 -5.14572 -1.10011 0
M  V30 3939 O 367.017 -5.66321 -0.57177 0
M  V30 3940 N 368.219 -5.27262 -2.42849 0
M  V30 3941 H 370.984 -2.87153 0.858087 0
M  V30 3942 H 368.545 -1.50328 0.60109 0
M  V30 3943 H 370.537 -3.75285 -1.51471 0
M  V30 3944 H 369.107 -2.69298 -1.58736 0
M  V30 3945 H 368.327 -3.8981 0.586664 0
M  V30 3946 H 369.615 -5.07963 0.291783 0
M  V30 3947 H 369.013 -4.86763 -2.88233 0
M  V30 3948 H 367.57 -5.79456 -2.98453 0
M  V30 3949 N 371.003 -0.499398 -1.49478 0
M  V30 3950 C 372.28 0.108629 -1.95298 0
M  V30 3951 C 372.66 1.54282 -1.44084 0
M  V30 3952 O 372.008 2.18944 -0.653908 0
M  V30 3953 C 372.218 0.0229111 -3.48992 0
M  V30 3954 C 373.566 0.197643 -4.2414 0
M  V30 3955 O 374.59 0.0981735 -3.56065 0
M  V30 3956 O 373.449 0.401669 -5.45022 0
M  V30 3957 H 370.543 0.096181 -0.821388 0
M  V30 3958 H 373.089 -0.561822 -1.6013 0
M  V30 3959 H 371.861 -0.977321 -3.78899 0
M  V30 3960 H 371.484 0.733579 -3.90774 0
M  V30 3961 N 372.481 1.55866 -0.233164 0
M  V30 3962 C 373.727 1.98897 0.395959 0
M  V30 3963 C 374.06 1.12091 1.58585 0
M  V30 3964 O 373.335 0.181182 1.93654 0
M  V30 3965 C 373.618 3.50658 0.819224 0
M  V30 3966 C 373.471 4.48233 -0.375109 0
M  V30 3967 C 374.79 4.07135 1.67121 0
M  V30 3968 H 371.909 0.723102 0.142451 0
M  V30 3969 H 374.551 1.87082 -0.331725 0
M  V30 3970 H 372.701 3.60857 1.43925 0
M  V30 3971 H 374.373 4.50031 -1.01341 0
M  V30 3972 H 372.616 4.21624 -1.02058 0
M  V30 3973 H 373.287 5.51988 -0.0358328 0
M  V30 3974 H 375.763 3.99952 1.14795 0
M  V30 3975 H 374.639 5.13615 1.93625 0
M  V30 3976 H 374.9 3.54736 2.63846 0
M  V30 3977 N 373.959 -0.0401083 1.57549 0
M  V30 3978 C 375.189 -0.744115 1.92734 0
M  V30 3979 C 375.597 -1.70005 0.830348 0
M  V30 3980 O 374.94 -1.82576 -0.20286 0
M  V30 3981 C 375.002 -1.56516 3.2364 0
M  V30 3982 C 374.666 -0.7752 4.50377 0
M  V30 3983 C 375.663 -0.0803326 5.19838 0
M  V30 3984 C 373.348 -0.733002 4.96923 0
M  V30 3985 C 375.342 0.646154 6.34116 0
M  V30 3986 C 373.029 -0.00276321 6.111 0
M  V30 3987 C 374.027 0.685585 6.7955 0
M  V30 3988 O 373.715 1.40399 7.91545 0
M  V30 3989 H 373.447 -0.214861 0.640945 0
M  V30 3990 H 376.001 -0.00503675 2.05399 0
M  V30 3991 H 374.231 -2.3478 3.07271 0
M  V30 3992 H 375.92 -2.15076 3.44234 0
M  V30 3993 H 376.686 -0.104035 4.84888 0
M  V30 3994 H 372.565 -1.25827 4.43496 0
M  V30 3995 H 376.109 1.18398 6.87479 0
M  V30 3996 H 372.006 0.0229012 6.45496 0
M  V30 3997 H 372.774 1.31653 8.07843 0
M  V30 3998 N 375.437 -1.54477 -0.31217 0
M  V30 3999 C 376.384 -1.84655 -1.38461 0
M  V30 4000 C 377.354 -0.694536 -1.50882 0
M  V30 4001 O 378.539 -0.942081 -1.6592 0
M  V30 4002 C 375.679 -2.0896 -2.74645 0
M  V30 4003 C 374.792 -3.36618 -2.70763 0
M  V30 4004 C 373.927 -3.50824 -3.98868 0
M  V30 4005 C 372.966 -4.72315 -3.89339 0
M  V30 4006 N 372.103 -4.83387 -5.09197 0
M  V30 4007 H 376.943 -2.76142 -1.12026 0
M  V30 4008 H 374.48 -1.36748 -0.542065 0
M  V30 4009 H 376.438 -2.21045 -3.53829 0
M  V30 4010 H 375.068 -1.20752 -2.99364 0
M  V30 4011 H 374.12 -3.33211 -1.83506 0
M  V30 4012 H 375.432 -4.25917 -2.59608 0
M  V30 4013 H 374.586 -3.62513 -4.86486 0
M  V30 4014 H 373.325 -2.59638 -4.12843 0
M  V30 4015 H 372.33 -4.6067 -3.00105 0
M  V30 4016 H 373.555 -5.64897 -3.76919 0
M  V30 4017 H 371.501 -3.9512 -5.23657 0
M  V30 4018 H 371.418 -5.66669 -5.00422 0
M  V30 4019 H 372.686 -4.9942 -5.98498 0
M  V30 4020 N 376.915 0.57481 -1.46744 0
M  V30 4021 C 378.164 1.32898 -1.51727 0
M  V30 4022 C 378.477 1.948 -0.176692 0
M  V30 4023 O 379.683 2.71299 -0.104385 0
M  V30 4024 C 378.139 2.40901 -2.67385 0
M  V30 4025 C 377.747 1.85266 -4.07898 0
M  V30 4026 C 379.491 3.17609 -2.81646 0
M  V30 4027 C 377.398 2.90945 -5.14883 0
M  V30 4028 H 376.328 0.499631 -0.564699 0
M  V30 4029 H 378.979 0.612536 -1.72975 0
M  V30 4030 H 377.361 3.15379 -2.39483 0
M  V30 4031 H 378.535 1.17278 -4.45626 0
M  V30 4032 H 376.85 1.21199 -3.98371 0
M  V30 4033 H 379.447 3.96493 -3.58744 0
M  V30 4034 H 379.79 3.70696 -1.89448 0
M  V30 4035 H 380.323 2.50239 -3.09233 0
M  V30 4036 H 377.062 2.42736 -6.089 0
M  V30 4037 H 376.582 3.57398 -4.81691 0
M  V30 4038 H 378.261 3.54755 -5.41071 0
M  V30 4039 N 378.394 1.34581 0.820102 0
M  V30 4040 C 379.642 1.26845 1.57336 0
M  V30 4041 C 379.963 -0.160667 1.94337 0
M  V30 4042 O 379.233 -1.09396 1.6251 0
M  V30 4043 H 377.813 0.466514 0.583415 0
M  V30 4044 H 380.475 1.68526 0.979027 0
M  V30 4045 H 379.571 1.87513 2.4949 0
M  V30 4046 N 379.872 -1.04064 1.18357 0
M  V30 4047 C 381.12 -1.76915 0.977013 0
M  V30 4048 C 381.441 -1.88624 -0.494577 0
M  V30 4049 O 380.711 -1.41125 -1.3587 0
M  V30 4050 H 379.291 -0.65535 0.358504 0
M  V30 4051 H 381.953 -1.25592 1.49039 0
M  V30 4052 H 381.049 -2.78178 1.41504 0
M  V30 4053 N 381.35 -0.985608 -1.22978 0
M  V30 4054 C 382.599 -0.652881 -1.90841 0
M  V30 4055 C 382.912 0.817842 -1.77681 0
M  V30 4056 O 384.118 1.26185 -2.40395 0
M  V30 4057 C 382.574 -1.11717 -3.42122 0
M  V30 4058 C 382.182 -2.6126 -3.63933 0
M  V30 4059 C 383.926 -0.85843 -4.1573 0
M  V30 4060 C 381.833 -3.0133 -5.08876 0
M  V30 4061 H 380.763 -0.240491 -0.714619 0
M  V30 4062 H 383.414 -1.1942 -1.39324 0
M  V30 4063 H 381.796 -0.504027 -3.92779 0
M  V30 4064 H 382.97 -3.27858 -3.23799 0
M  V30 4065 H 381.285 -2.84937 -3.03644 0
M  V30 4066 H 383.882 -1.13359 -5.22546 0
M  V30 4067 H 384.225 0.205461 -4.15793 0
M  V30 4068 H 384.758 -1.43341 -3.71077 0
M  V30 4069 H 381.497 -4.06864 -5.13947 0
M  V30 4070 H 381.017 -2.3943 -5.49939 0
M  V30 4071 H 382.696 -2.92224 -5.77247 0
M  V30 4072 N 382.828 1.3818 -0.7579 0
M  V30 4073 C 384.076 1.99624 -0.315361 0
M  V30 4074 C 384.397 1.60464 1.10799 0
M  V30 4075 O 383.667 0.863507 1.75842 0
M  V30 4076 H 382.247 0.73831 -0.113611 0
M  V30 4077 H 384.909 1.68878 -0.972952 0
M  V30 4078 H 384.005 3.09754 -0.381931 0
M  V30 4079 N 384.306 0.507319 1.49211 0
M  V30 4080 C 385.534 -0.0315749 2.06876 0
M  V30 4081 C 385.949 -1.30241 1.36685 0
M  V30 4082 O 385.306 -1.76937 0.447152 0
M  V30 4083 C 385.357 -0.282627 3.60393 0
M  V30 4084 O 385.078 0.937835 4.27944 0
M  V30 4085 C 386.579 -0.864453 4.3479 0
M  V30 4086 H 383.799 0.0233048 0.670595 0
M  V30 4087 H 386.343 0.706484 1.91909 0
M  V30 4088 H 384.498 -0.97068 3.75042 0
M  V30 4089 H 384.912 0.704567 5.19746 0
M  V30 4090 H 386.386 -0.989664 5.43056 0
M  V30 4091 H 386.863 -1.86382 3.97692 0
M  V30 4092 H 387.469 -0.213672 4.24763 0
M  V30 4093 N 385.784 -1.5574 0.241426 0
M  V30 4094 C 387.03 -1.99104 -0.385406 0
M  V30 4095 C 387.363 -1.1293 -1.57988 0
M  V30 4096 O 386.638 -0.191449 -1.93555 0
M  V30 4097 C 386.921 -3.51087 -0.800616 0
M  V30 4098 C 386.774 -4.48028 0.398874 0
M  V30 4099 C 388.093 -4.08015 -1.64959 0
M  V30 4100 H 385.212 -0.723848 -0.138614 0
M  V30 4101 H 387.854 -1.86903 0.341642 0
M  V30 4102 H 386.004 -3.61615 -1.4201 0
M  V30 4103 H 387.676 -4.49487 1.03726 0
M  V30 4104 H 385.919 -4.21077 1.04293 0
M  V30 4105 H 386.59 -5.51962 0.0651056 0
M  V30 4106 H 389.066 -4.00555 -1.12672 0
M  V30 4107 H 387.942 -5.14635 -1.90898 0
M  V30 4108 H 388.203 -3.56131 -2.61961 0
M  V30 4109 N 387.262 0.0317525 -1.57568 0
M  V30 4110 C 388.673 0.578692 -1.77505 0
M  V30 4111 C 389.024 1.75749 -0.872164 0
M  V30 4112 O 388.149 2.16298 -0.0663106 0
M  V30 4113 C 388.744 1.05658 -3.21904 0
M  V30 4114 C 387.303 1.54906 -3.43047 0
M  V30 4115 C 386.45 0.485939 -2.73009 0
M  V30 4116 H 389.401 -0.194475 -1.57504 0
M  V30 4117 H 389.422 1.92404 -3.28269 0
M  V30 4118 H 388.934 0.198422 -3.87592 0
M  V30 4119 H 387.035 2.42915 -2.82529 0
M  V30 4120 H 387.148 1.59841 -4.5165 0
M  V30 4121 H 385.512 0.940354 -2.36705 0
M  V30 4122 H 386.295 -0.362709 -3.41379 0
M  V30 4123 N 388.74 1.54641 0.303973 0
M  V30 4124 C 389.986 1.74038 1.04109 0
M  V30 4125 C 390.319 0.523051 1.87024 0
M  V30 4126 O 389.594 -0.479874 1.88487 0
M  V30 4127 C 389.877 3.02761 1.94955 0
M  V30 4128 C 389.73 4.34787 1.1524 0
M  V30 4129 C 391.049 3.27336 2.94175 0
M  V30 4130 H 388.168 0.63323 0.377079 0
M  V30 4131 H 390.81 1.87354 0.316001 0
M  V30 4132 H 388.96 2.9154 2.56782 0
M  V30 4133 H 390.632 4.57922 0.557236 0
M  V30 4134 H 388.875 4.31407 0.455053 0
M  V30 4135 H 389.546 5.21116 1.8205 0
M  V30 4136 H 392.022 3.38148 2.42477 0
M  V30 4137 H 390.898 4.18726 3.54908 0
M  V30 4138 H 391.159 2.45491 3.67677 0
M  V30 4139 N 390.218 -0.567019 1.47046 0
M  V30 4140 C 391.466 -1.322 1.52864 0
M  V30 4141 C 391.787 -1.94088 0.188388 0
M  V30 4142 O 391.057 -1.7941 -0.786693 0
M  V30 4143 H 389.637 -0.490894 0.563056 0
M  V30 4144 H 392.299 -0.662879 1.83281 0
M  V30 4145 H 391.395 -2.12062 2.2899 0
M  V30 4146 N 391.696 -1.35014 -0.812953 0
M  V30 4147 C 393.112 -1.14914 -1.10757 0
M  V30 4148 C 393.312 0.0426818 -2.01455 0
M  V30 4149 O 392.368 0.715212 -2.42159 0
M  V30 4150 C 393.681 -2.44911 -1.74468 0
M  V30 4151 C 395.229 -2.5106 -1.86917 0
M  V30 4152 C 395.704 -3.81085 -2.54044 0
M  V30 4153 N 397.195 -3.82301 -2.61535 0
M  V30 4154 C 397.93 -4.79634 -3.14227 0
M  V30 4155 N 397.426 -5.87353 -3.67407 0
M  V30 4156 N 399.219 -4.67078 -3.12721 0
M  V30 4157 H 391.37 -2.1136 -0.20989 0
M  V30 4158 H 393.633 -0.935128 -0.155692 0
M  V30 4159 H 393.339 -3.32267 -1.15289 0
M  V30 4160 H 393.213 -2.58989 -2.74234 0
M  V30 4161 H 395.6 -1.64137 -2.45241 0
M  V30 4162 H 395.681 -2.40901 -0.860242 0
M  V30 4163 H 395.325 -4.68402 -1.96372 0
M  V30 4164 H 395.255 -3.88529 -3.55461 0
M  V30 4165 H 397.746 -3.04465 -2.23851 0
M  V30 4166 H 398.059 -6.57624 -4.05894 0
M  V30 4167 H 396.404 -5.91054 -3.65623 0
M  V30 4168 H 399.595 -3.82067 -2.70449 0
M  V30 4169 H 399.768 -5.43098 -3.53481 0
M  V30 4170 N 393.175 1.03435 -1.18907 0
M  V30 4171 C 394.421 1.77005 -0.989798 0
M  V30 4172 C 394.754 1.88205 0.478816 0
M  V30 4173 O 394.029 1.39481 1.35556 0
M  V30 4174 C 394.312 3.19925 -1.65287 0
M  V30 4175 C 394.165 3.1663 -3.19477 0
M  V30 4176 C 395.484 4.18189 -1.37134 0
M  V30 4177 H 392.603 0.642538 -0.360991 0
M  V30 4178 H 395.245 1.20784 -1.46667 0
M  V30 4179 H 393.395 3.67929 -1.24741 0
M  V30 4180 H 395.067 2.76567 -3.692 0
M  V30 4181 H 393.31 2.54491 -3.51307 0
M  V30 4182 H 393.981 4.1758 -3.61013 0
M  V30 4183 H 396.457 3.78761 -1.72276 0
M  V30 4184 H 395.333 5.16394 -1.86087 0
M  V30 4185 H 395.594 4.41112 -0.295424 0
M  V30 4186 N 394.653 0.992116 1.22453 0
M  V30 4187 C 395.563 0.55065 2.28046 0
M  V30 4188 C 396.579 -0.400189 1.69335 0
M  V30 4189 O 397.755 -0.267215 1.99619 0
M  V30 4190 C 394.82 -0.128496 3.46462 0
M  V30 4191 C 393.881 0.865208 4.20491 0
M  V30 4192 C 393.114 0.218377 5.33253 0
M  V30 4193 O 393.337 -0.987894 5.6178 0
M  V30 4194 O 392.271 0.922845 5.94783 0
M  V30 4195 H 396.097 1.4291 2.67975 0
M  V30 4196 H 393.682 0.760326 1.28606 0
M  V30 4197 H 395.564 -0.508947 4.18315 0
M  V30 4198 H 394.239 -0.981526 3.0846 0
M  V30 4199 H 393.146 1.29658 3.50913 0
M  V30 4200 H 394.479 1.68741 4.62371 0
M  V30 4201 N 396.131 -1.37776 0.765217 0
M  V30 4202 C 397.359 -2.04124 0.337767 0
M  V30 4203 C 397.774 -1.57715 -1.03785 0
M  V30 4204 O 397.131 -0.755447 -1.6613 0
M  V30 4205 C 397.182 -3.59658 0.364442 0
M  V30 4206 O 396.903 -4.04367 1.68579 0
M  V30 4207 C 398.404 -4.43236 -0.0754221 0
M  V30 4208 H 395.624 -0.655696 0.142491 0
M  V30 4209 H 398.168 -1.76238 1.03732 0
M  V30 4210 H 396.323 -3.86339 -0.286471 0
M  V30 4211 H 396.737 -4.98857 1.61993 0
M  V30 4212 H 398.211 -5.52 -0.00560067 0
M  V30 4213 H 398.688 -4.2455 -1.12491 0
M  V30 4214 H 399.294 -4.21767 0.547055 0
M  V30 4215 N 397.609 -0.515225 -1.4894 0
M  V30 4216 C 398.857 0.0241671 -2.02086 0
M  V30 4217 C 399.178 1.3616 -1.3959 0
M  V30 4218 O 398.448 1.87841 -0.556121 0
M  V30 4219 H 397.028 0.0119203 -0.746905 0
M  V30 4220 H 399.69 -0.675702 -1.82812 0
M  V30 4221 H 398.786 0.143385 -3.1177 0
M  V30 4222 N 399.087 1.5561 -0.249682 0
M  V30 4223 C 400.333 1.99306 0.374841 0
M  V30 4224 C 400.666 1.13767 1.57387 0
M  V30 4225 O 399.941 0.201711 1.93451 0
M  V30 4226 C 400.224 3.51507 0.781986 0
M  V30 4227 C 400.077 4.4781 -0.422629 0
M  V30 4228 C 401.396 4.08884 1.62793 0
M  V30 4229 H 398.515 0.724572 0.134773 0
M  V30 4230 H 401.157 1.86719 -0.351549 0
M  V30 4231 H 399.307 3.62363 1.4009 0
M  V30 4232 H 400.979 4.48931 -1.06108 0
M  V30 4233 H 399.222 4.20518 -1.06524 0
M  V30 4234 H 399.893 5.51919 -0.0943766 0
M  V30 4235 H 402.369 4.01147 1.10547 0
M  V30 4236 H 401.245 5.1564 1.88166 0
M  V30 4237 H 401.506 3.57515 2.60068 0
M  V30 4238 N 400.565 -0.0233959 1.57583 0
M  V30 4239 C 401.495 -1.02162 2.09965 0
M  V30 4240 C 402.476 -1.3735 1.00344 0
M  V30 4241 O 403.661 -1.46135 1.27899 0
M  V30 4242 C 400.791 -2.32081 2.58371 0
M  V30 4243 C 399.745 -2.1112 3.72307 0
M  V30 4244 C 399.071 -3.46848 4.06941 0
M  V30 4245 C 400.371 -1.49276 5.00514 0
M  V30 4246 H 402.065 -0.585557 2.93618 0
M  V30 4247 H 399.611 -0.280218 1.41247 0
M  V30 4248 H 401.564 -3.02249 2.93639 0
M  V30 4249 H 400.288 -2.77758 1.71808 0
M  V30 4250 H 398.947 -1.43384 3.37397 0
M  V30 4251 H 398.595 -3.90184 3.17436 0
M  V30 4252 H 398.295 -3.33646 4.83688 0
M  V30 4253 H 399.819 -4.18369 4.44747 0
M  V30 4254 H 401.233 -2.09368 5.33702 0
M  V30 4255 H 399.63 -1.46632 5.8191 0
M  V30 4256 H 400.7 -0.459217 4.82721 0
M  V30 4257 N 402.043 -1.548 -0.295768 0
M  V30 4258 C 402.99 -1.86113 -1.36494 0
M  V30 4259 C 403.96 -0.7105 -1.50137 0
M  V30 4260 O 405.145 -0.959626 -1.64912 0
M  V30 4261 C 402.285 -2.11861 -2.72413 0
M  V30 4262 C 401.398 -3.39471 -2.67177 0
M  V30 4263 C 400.533 -3.55035 -3.95125 0
M  V30 4264 C 399.572 -4.76418 -3.84308 0
M  V30 4265 N 398.709 -4.8876 -5.04042 0
M  V30 4266 H 403.549 -2.77314 -1.09091 0
M  V30 4267 H 401.086 -1.37315 -0.52753 0
M  V30 4268 H 403.044 -2.24786 -3.51464 0
M  V30 4269 H 401.674 -1.2392 -2.98066 0
M  V30 4270 H 400.726 -3.35139 -1.79962 0
M  V30 4271 H 402.038 -4.28646 -2.55076 0
M  V30 4272 H 401.192 -3.67653 -4.82614 0
M  V30 4273 H 399.931 -2.64002 -4.10066 0
M  V30 4274 H 398.936 -4.63827 -2.95202 0
M  V30 4275 H 400.161 -5.68863 -3.70906 0
M  V30 4276 H 398.107 -4.00652 -5.19436 0
M  V30 4277 H 398.024 -5.71945 -4.94384 0
M  V30 4278 H 399.292 -5.0574 -5.93167 0
M  V30 4279 N 403.521 0.559213 -1.47345 0
M  V30 4280 C 404.932 1.14134 -1.47751 0
M  V30 4281 C 405.283 1.94834 -0.231103 0
M  V30 4282 O 404.408 2.05957 0.664137 0
M  V30 4283 C 405.003 2.07653 -2.67705 0
M  V30 4284 C 403.562 2.61141 -2.71076 0
M  V30 4285 C 402.709 1.3748 -2.40821 0
M  V30 4286 H 405.66 0.345917 -1.54884 0
M  V30 4287 H 405.681 2.91497 -2.44561 0
M  V30 4288 H 405.193 1.4889 -3.58404 0
M  V30 4289 H 403.294 3.23707 -1.84511 0
M  V30 4290 H 403.407 3.02272 -3.7171 0
M  V30 4291 H 401.771 1.68086 -1.91362 0
M  V30 4292 H 402.554 0.805135 -3.33725 0
M  V30 4293 N 404.999 1.35443 0.805782 0
M  V30 4294 C 406.247 1.28507 1.55982 0
M  V30 4295 C 406.568 -0.140046 1.94496 0
M  V30 4296 O 405.838 -1.07666 1.63661 0
M  V30 4297 H 404.418 0.472676 0.578434 0
M  V30 4298 H 407.08 1.69555 0.961098 0
M  V30 4299 H 406.176 1.90148 2.47488 0
M  V30 4300 N 406.477 -1.02803 1.19454 0
M  V30 4301 C 407.41 -2.107 0.876396 0
M  V30 4302 C 408.388 -1.61741 -0.166897 0
M  V30 4303 O 409.572 -1.88451 -0.0430195 0
M  V30 4304 C 406.699 -3.37262 0.311758 0
M  V30 4305 C 405.745 -4.05093 1.33424 0
M  V30 4306 S 406.578 -4.50498 2.89503 0
M  V30 4307 C 407.734 -5.80277 2.34584 0
M  V30 4308 H 407.967 -2.37362 1.79016 0
M  V30 4309 H 405.5 -1.15755 1.02177 0
M  V30 4310 H 407.458 -4.10499 -0.00748752 0
M  V30 4311 H 406.119 -3.08693 -0.58032 0
M  V30 4312 H 405.312 -4.9611 0.888302 0
M  V30 4313 H 404.914 -3.3803 1.60037 0
M  V30 4314 H 407.206 -6.54873 1.73633 0
M  V30 4315 H 408.149 -6.29651 3.23952 0
M  V30 4316 H 408.557 -5.3599 1.77131 0
M  V30 4317 N 407.956 -0.998596 -1.21925 0
M  V30 4318 C 409.202 -0.678667 -1.91107 0
M  V30 4319 C 409.535 0.78791 -1.77498 0
M  V30 4320 O 408.81 1.57043 -1.1475 0
M  V30 4321 C 409.093 -1.09245 -3.43129 0
M  V30 4322 C 408.946 -2.61801 -3.6576 0
M  V30 4323 C 410.265 -0.649984 -4.35274 0
M  V30 4324 H 407.384 -0.248025 -0.694012 0
M  V30 4325 H 410.026 -1.24314 -1.43688 0
M  V30 4326 H 408.176 -0.612171 -3.83647 0
M  V30 4327 H 409.848 -3.17543 -3.34611 0
M  V30 4328 H 408.091 -3.03609 -3.09845 0
M  V30 4329 H 408.762 -2.85804 -4.7225 0
M  V30 4330 H 411.238 -1.0626 -4.02303 0
M  V30 4331 H 410.114 -0.967743 -5.40302 0
M  V30 4332 H 410.375 0.449139 -4.39813 0
M  V30 4333 N 409.434 1.37368 -0.772513 0
M  V30 4334 C 410.68 1.99969 -0.337681 0
M  V30 4335 C 411.013 1.61184 1.08321 0
M  V30 4336 O 410.288 0.858395 1.74533 0
M  V30 4337 C 410.571 3.56858 -0.482121 0
M  V30 4338 C 410.424 4.0555 -1.94549 0
M  V30 4339 C 411.743 4.39955 0.113143 0
M  V30 4340 H 408.862 0.726464 -0.124171 0
M  V30 4341 H 411.504 1.63034 -0.975699 0
M  V30 4342 H 409.654 3.88452 0.0610361 0
M  V30 4343 H 411.326 3.84518 -2.54841 0
M  V30 4344 H 409.569 3.57715 -2.45403 0
M  V30 4345 H 410.24 5.14587 -1.9976 0
M  V30 4346 H 412.716 4.14623 -0.35031 0
M  V30 4347 H 411.592 5.48897 -0.0180514 0
M  V30 4348 H 411.853 4.25403 1.20354 0
M  V30 4349 N 410.912 0.523116 1.48665 0
M  V30 4350 C 412.14 -0.0096312 2.06898 0
M  V30 4351 C 412.555 -1.28784 1.38059 0
M  V30 4352 O 411.912 -1.76453 0.465893 0
M  V30 4353 C 411.963 -0.244386 3.60673 0
M  V30 4354 O 411.684 0.983172 4.26925 0
M  V30 4355 C 413.185 -0.818289 4.35682 0
M  V30 4356 H 410.405 0.0304161 0.67031 0
M  V30 4357 H 412.949 0.726799 1.91149 0
M  V30 4358 H 411.104 -0.930847 3.76051 0
M  V30 4359 H 411.518 0.759653 5.1897 0
M  V30 4360 H 412.992 -0.93201 5.44075 0
M  V30 4361 H 413.469 -1.82153 3.99646 0
M  V30 4362 H 414.075 -0.168609 4.24966 0
M  V30 4363 N 412.39 -1.55475 0.257931 0
M  V30 4364 C 413.637 -1.99207 -0.363728 0
M  V30 4365 C 413.965 -1.1462 -1.57139 0
M  V30 4366 O 413.22 -0.199653 -1.94679 0
M  V30 4367 C 413.519 -3.48183 -0.806433 0
M  V30 4368 C 413.185 -4.49936 0.294684 0
M  V30 4369 C 411.847 -4.77481 0.597076 0
M  V30 4370 C 414.199 -5.10769 1.03751 0
M  V30 4371 C 411.527 -5.63132 1.64618 0
M  V30 4372 C 413.879 -5.97558 2.07622 0
M  V30 4373 C 412.543 -6.23432 2.38514 0
M  V30 4374 H 411.813 -0.728949 -0.133097 0
M  V30 4375 H 414.46 -1.8793 0.368059 0
M  V30 4376 H 412.765 -3.56848 -1.61761 0
M  V30 4377 H 414.462 -3.79415 -1.29789 0
M  V30 4378 H 411.052 -4.28572 0.0488649 0
M  V30 4379 H 415.236 -4.89527 0.817149 0
M  V30 4380 H 410.492 -5.8143 1.89074 0
M  V30 4381 H 414.666 -6.43735 2.65666 0
M  V30 4382 H 412.293 -6.89594 3.19943 0
M  V30 4383 N 413.868 0.0150385 -1.57593 0
M  V30 4384 C 414.831 0.995996 -2.06428 0
M  V30 4385 C 415.831 1.2818 -0.970903 0
M  V30 4386 O 417.021 1.22949 -1.23406 0
M  V30 4387 C 414.153 2.32506 -2.49307 0
M  V30 4388 H 415.346 0.573873 -2.94358 0
M  V30 4389 H 412.899 0.262186 -1.54085 0
M  V30 4390 H 413.634 2.79438 -1.64575 0
M  V30 4391 H 413.419 2.13087 -3.29145 0
M  V30 4392 H 414.909 3.02906 -2.87468 0
M  V30 4393 N 415.346 1.54954 0.287554 0
M  V30 4394 C 416.757 1.65732 0.859634 0
M  V30 4395 C 417.108 0.574767 1.87592 0
M  V30 4396 O 416.233 -0.286299 2.14498 0
M  V30 4397 C 416.828 3.00438 1.56597 0
M  V30 4398 C 415.387 3.13292 2.08627 0
M  V30 4399 C 414.534 2.61473 0.923416 0
M  V30 4400 H 417.485 1.5857 0.0642338 0
M  V30 4401 H 417.506 2.92613 2.43224 0
M  V30 4402 H 417.018 3.79207 0.826053 0
M  V30 4403 H 415.119 2.39268 2.85625 0
M  V30 4404 H 415.232 4.19647 2.31157 0
M  V30 4405 H 413.596 2.18264 1.31275 0
M  V30 4406 H 414.379 3.42733 0.197241 0
M  V30 4407 N 416.824 -0.551391 1.4764 0
M  V30 4408 C 418.07 -1.31024 1.54792 0
M  V30 4409 C 418.403 -1.9304 0.211967 0
M  V30 4410 O 417.678 -1.78175 -0.77999 0
M  V30 4411 C 417.961 -2.41593 2.67029 0
M  V30 4412 C 417.814 -1.84408 4.10261 0
M  V30 4413 C 419.133 -3.43488 2.75143 0
M  V30 4414 H 416.252 -0.475031 0.563485 0
M  V30 4415 H 418.894 -0.616454 1.79722 0
M  V30 4416 H 417.044 -3.00772 2.45904 0
M  V30 4417 H 418.716 -1.29445 4.42766 0
M  V30 4418 H 416.959 -1.15051 4.18265 0
M  V30 4419 H 417.63 -2.64367 4.84576 0
M  V30 4420 H 420.106 -2.94236 2.94218 0
M  V30 4421 H 418.982 -4.18274 3.55441 0
M  V30 4422 H 419.243 -4.02703 1.82435 0
M  V30 4423 N 418.302 -1.35869 -0.798587 0
M  V30 4424 C 419.25 -1.29491 -1.93222 0
M  V30 4425 C 420.244 -0.18836 -1.6835 0
M  V30 4426 O 421.45 -0.354822 -1.76468 0
M  V30 4427 H 417.825 -0.402901 -0.63496 0
M  V30 4428 H 419.796 -2.25247 -1.9572 0
M  V30 4429 C 418.545 -1.09184 -3.30112 0
M  V30 4430 H 417.868 -1.93574 -3.49813 0
M  V30 4431 H 419.308 -1.08766 -4.09812 0
M  V30 4432 C 417.767 0.203959 -3.36282 0
M  V30 4433 O 418.297 1.19699 -3.83451 0
M  V30 4434 N 416.503 0.245488 -2.89561 0
M  V30 4435 H 416.05 -0.563223 -2.51367 0
M  V30 4436 H 416.008 1.11219 -2.94071 0
M  V30 4437 N 419.78 1.02168 -1.19998 0
M  V30 4438 C 421.026 1.75945 -1.00852 0
M  V30 4439 C 421.359 1.88702 0.458828 0
M  V30 4440 O 420.634 1.40911 1.34069 0
M  V30 4441 C 420.917 3.18154 -1.68671 0
M  V30 4442 C 420.77 3.13224 -3.22817 0
M  V30 4443 C 422.089 4.16711 -1.41561 0
M  V30 4444 H 419.208 0.638673 -0.367785 0
M  V30 4445 H 421.85 1.19222 -1.4794 0
M  V30 4446 H 420 3.66586 -1.28636 0
M  V30 4447 H 421.672 2.72635 -3.72112 0
M  V30 4448 H 419.915 2.50751 -3.53986 0
M  V30 4449 H 420.586 4.13728 -3.65422 0
M  V30 4450 H 423.062 3.76913 -1.76284 0
M  V30 4451 H 421.938 5.14391 -1.91553 0
M  V30 4452 H 422.199 4.40774 -0.342193 0
M  V30 4453 N 421.258 1.00505 1.21394 0
M  V30 4454 C 422.486 0.706609 1.9446 0
M  V30 4455 C 422.901 -0.73081 1.74082 0
M  V30 4456 O 422.258 -1.49446 1.04747 0
M  V30 4457 C 422.309 1.01824 3.46863 0
M  V30 4458 O 422.03 2.39919 3.66566 0
M  V30 4459 C 423.531 0.739216 4.37093 0
M  V30 4460 H 420.751 0.260394 0.618414 0
M  V30 4461 H 423.295 1.34311 1.54211 0
M  V30 4462 H 421.45 0.427343 3.85036 0
M  V30 4463 H 421.864 2.50784 4.6066 0
M  V30 4464 H 423.338 1.00744 5.42729 0
M  V30 4465 H 423.815 -0.326746 4.37983 0
M  V30 4466 H 424.421 1.31173 4.04566 0
M  V30 4467 N 422.737 -1.36956 0.779787 0
M  V30 4468 C 423.965 -2.03755 0.359398 0
M  V30 4469 C 424.38 -1.58807 -1.02106 0
M  V30 4470 O 423.737 -0.773024 -1.6532 0
M  V30 4471 C 423.788 -3.59251 0.402568 0
M  V30 4472 O 423.509 -4.02557 1.72858 0
M  V30 4473 C 425.01 -4.43291 -0.0284068 0
M  V30 4474 H 422.23 -0.654148 0.149437 0
M  V30 4475 H 424.774 -1.75128 1.05595 0
M  V30 4476 H 422.929 -3.86621 -0.245478 0
M  V30 4477 H 423.343 -4.97111 1.67275 0
M  V30 4478 H 424.817 -5.51975 0.0529466 0
M  V30 4479 H 425.294 -4.25719 -1.07982 0
M  V30 4480 H 425.9 -4.21163 0.591758 0
M  V30 4481 N 424.215 -0.530993 -1.48385 0
M  V30 4482 C 425.125 0.23503 -2.3342 0
M  V30 4483 C 426.141 0.93801 -1.46552 0
M  V30 4484 O 427.317 0.912745 -1.7953 0
M  V30 4485 C 424.382 1.26778 -3.22689 0
M  V30 4486 C 423.443 0.575038 -4.25431 0
M  V30 4487 C 422.676 1.55858 -5.10435 0
M  V30 4488 O 422.899 2.79129 -4.97437 0
M  V30 4489 O 421.833 1.09742 -5.91811 0
M  V30 4490 H 425.659 -0.461794 -3.00169 0
M  V30 4491 H 423.244 -0.291903 -1.46521 0
M  V30 4492 H 425.126 1.86457 -3.77904 0
M  V30 4493 H 423.801 1.94699 -2.586 0
M  V30 4494 H 422.708 -0.0622782 -3.74048 0
M  V30 4495 H 424.041 -0.062253 -4.92161 0
M  V30 4496 N 425.693 1.55336 -0.266172 0
M  V30 4497 C 426.939 1.99692 0.353681 0
M  V30 4498 C 427.272 1.1543 1.56172 0
M  V30 4499 O 426.547 0.222218 1.93226 0
M  V30 4500 C 426.83 3.52316 0.74466 0
M  V30 4501 C 426.683 4.47337 -0.470101 0
M  V30 4502 C 428.002 4.10588 1.58447 0
M  V30 4503 H 425.121 0.725961 0.12708 0
M  V30 4504 H 427.763 1.86336 -0.371333 0
M  V30 4505 H 425.913 3.63829 1.36239 0
M  V30 4506 H 427.585 4.4778 -1.10864 0
M  V30 4507 H 425.828 4.19364 -1.10978 0
M  V30 4508 H 426.499 5.51788 -0.15291 0
M  V30 4509 H 428.975 4.02297 1.06286 0
M  V30 4510 H 427.851 5.17607 1.82686 0
M  V30 4511 H 428.112 3.60253 2.56262 0
M  V30 4512 N 427.171 -0.0066808 1.57599 0
M  V30 4513 C 428.118 -1.00024 2.08 0
M  V30 4514 C 429.088 -1.34549 0.973943 0
M  V30 4515 O 430.273 -1.44502 1.24595 0
M  V30 4516 C 427.413 -2.2891 2.58252 0
M  V30 4517 C 426.526 -2.00346 3.82734 0
M  V30 4518 C 425.661 -3.23265 4.21513 0
M  V30 4519 C 424.7 -2.90357 5.3885 0
M  V30 4520 N 423.837 -4.05793 5.72954 0
M  V30 4521 H 428.677 -0.563499 2.92624 0
M  V30 4522 H 426.214 -0.266592 1.44664 0
M  V30 4523 H 428.172 -3.04247 2.85464 0
M  V30 4524 H 426.802 -2.70265 1.76512 0
M  V30 4525 H 425.854 -1.15406 3.62471 0
M  V30 4526 H 427.166 -1.72086 4.68175 0
M  V30 4527 H 426.32 -4.06953 4.49971 0
M  V30 4528 H 425.059 -3.54657 3.34768 0
M  V30 4529 H 424.064 -2.05075 5.10122 0
M  V30 4530 H 425.289 -2.60219 6.27266 0
M  V30 4531 H 423.235 -4.37094 4.89167 0
M  V30 4532 H 423.152 -3.81034 6.52954 0
M  V30 4533 H 424.42 -4.90289 6.06001 0
M  V30 4534 N 428.649 -1.55105 -0.279332 0
M  V30 4535 C 429.874 -1.7976 -1.03446 0
M  V30 4536 C 430.299 -0.565952 -1.79384 0
M  V30 4537 O 429.657 0.484259 -1.74713 0
M  V30 4538 C 429.705 -3.0179 -1.97371 0
M  V30 4539 O 428.809 -2.76432 -3.06038 0
M  V30 4540 H 428.15 -0.594334 -0.29608 0
M  V30 4541 H 430.68 -2.02235 -0.310165 0
M  V30 4542 H 430.69 -3.30351 -2.39441 0
M  V30 4543 H 429.365 -3.91085 -1.4151 0
M  V30 4544 H 427.942 -2.58949 -2.68328 0
M  V30 4545 N 430.127 0.543554 -1.4793 0
M  V30 4546 C 431.373 1.30201 -1.55485 0
M  V30 4547 C 431.706 1.92925 -0.222201 0
M  V30 4548 O 430.981 1.78586 0.77053 0
M  V30 4549 C 431.264 2.40174 -2.68307 0
M  V30 4550 C 431.117 1.8223 -4.11233 0
M  V30 4551 C 432.436 3.42024 -2.76961 0
M  V30 4552 H 429.555 0.472036 -0.565996 0
M  V30 4553 H 432.197 0.606914 -1.80046 0
M  V30 4554 H 430.347 2.99463 -2.47495 0
M  V30 4555 H 432.019 1.27096 -4.43446 0
M  V30 4556 H 430.262 1.12832 -4.18869 0
M  V30 4557 H 430.933 2.61793 -4.85972 0
M  V30 4558 H 433.409 2.92672 -2.95774 0
M  V30 4559 H 432.285 4.16383 -3.57654 0
M  V30 4560 H 432.546 4.0173 -1.84568 0
M  V30 4561 N 431.605 1.3629 0.791371 0
M  V30 4562 C 432.515 1.32606 1.93527 0
M  V30 4563 C 433.531 0.228541 1.72493 0
M  V30 4564 O 434.707 0.460571 1.96063 0
M  V30 4565 C 431.772 1.11271 3.28359 0
M  V30 4566 C 430.833 2.3048 3.62185 0
M  V30 4567 C 430.066 2.10154 4.90583 0
M  V30 4568 O 430.289 1.07572 5.60165 0
M  V30 4569 O 429.223 2.97884 5.23019 0
M  V30 4570 H 433.049 2.28909 1.99585 0
M  V30 4571 H 430.634 1.16818 0.931344 0
M  V30 4572 H 432.516 1.01283 4.09047 0
M  V30 4573 H 431.191 0.180292 3.23198 0
M  V30 4574 H 430.098 2.46036 2.81811 0
M  V30 4575 H 431.431 3.22221 3.72068 0
M  V30 4576 N 433.083 -1.0153 1.20538 0
M  V30 4577 C 434.016 -2.09759 0.898695 0
M  V30 4578 C 434.994 -1.61909 -0.149733 0
M  V30 4579 O 436.178 -1.88486 -0.0230293 0
M  V30 4580 C 433.305 -3.36913 0.347512 0
M  V30 4581 C 432.351 -4.03655 1.37713 0
M  V30 4582 S 433.184 -4.47402 2.94265 0
M  V30 4583 C 434.34 -5.77756 2.40726 0
M  V30 4584 H 434.573 -2.3545 1.81523 0
M  V30 4585 H 432.106 -1.14665 1.03399 0
M  V30 4586 H 434.064 -4.10484 0.0360518 0
M  V30 4587 H 432.725 -3.09291 -0.547546 0
M  V30 4588 H 431.918 -4.9514 0.940872 0
M  V30 4589 H 431.52 -3.36313 1.63614 0
M  V30 4590 H 433.812 -6.52994 1.80569 0
M  V30 4591 H 434.755 -6.2618 3.30612 0
M  V30 4592 H 435.163 -5.34081 1.82806 0
M  V30 4593 N 434.561 -1.01147 -1.20859 0
M  V30 4594 C 435.511 -0.548247 -2.2131 0
M  V30 4595 C 436.495 0.393646 -1.5601 0
M  V30 4596 O 437.687 0.217445 -1.75659 0
M  V30 4597 C 434.816 0.117252 -3.431 0
M  V30 4598 C 433.902 -0.846043 -4.15575 0
M  V30 4599 N 434.293 -2.00149 -4.64515 0
M  V30 4600 C 432.591 -0.665783 -4.41003 0
M  V30 4601 C 433.292 -2.60764 -5.19978 0
M  V30 4602 N 432.268 -1.88868 -5.09735 0
M  V30 4603 H 436.07 -1.42921 -2.56809 0
M  V30 4604 H 433.584 -0.876142 -1.36739 0
M  V30 4605 H 435.581 0.46662 -4.1428 0
M  V30 4606 H 434.241 0.994115 -3.09107 0
M  V30 4607 H 435.252 -2.38162 -4.5989 0
M  V30 4608 H 431.929 0.163456 -4.1718 0
M  V30 4609 H 433.319 -3.58519 -5.68255 0
M  V30 4610 N 436.039 1.36541 -0.78704 0
M  V30 4611 C 436.989 2.27459 -0.156957 0
M  V30 4612 C 437.973 1.46843 0.657709 0
M  V30 4613 O 439.165 1.69245 0.518173 0
M  V30 4614 C 436.294 3.35893 0.709278 0
M  V30 4615 C 435.38 4.23947 -0.114049 0
M  V30 4616 N 435.771 4.92145 -1.16736 0
M  V30 4617 C 434.069 4.4587 0.107497 0
M  V30 4618 C 434.77 5.57261 -1.66837 0
M  V30 4619 N 433.746 5.3473 -0.977992 0
M  V30 4620 H 437.548 2.77669 -0.963185 0
M  V30 4621 H 435.062 1.49839 -0.62627 0
M  V30 4622 H 437.059 3.99953 1.17656 0
M  V30 4623 H 435.719 2.87238 1.51408 0
M  V30 4624 H 436.73 4.94169 -1.54976 0
M  V30 4625 H 433.407 4.08056 0.882994 0
M  V30 4626 H 434.797 6.21728 -2.54762 0
M  V30 4627 N 437.518 0.538854 1.48102 0
M  V30 4628 C 438.428 -0.222648 2.33541 0
M  V30 4629 C 439.444 -0.930225 1.47047 0
M  V30 4630 O 440.62 -0.903211 1.80011 0
M  V30 4631 C 437.685 -1.25064 3.23357 0
M  V30 4632 C 436.746 -0.552469 4.2573 0
M  V30 4633 C 435.979 -1.53149 5.11254 0
M  V30 4634 O 436.202 -2.76487 4.9891 0
M  V30 4635 O 435.136 -1.06602 5.92385 0
M  V30 4636 H 438.962 0.477707 2.99919 0
M  V30 4637 H 436.547 0.299669 1.46364 0
M  V30 4638 H 438.429 -1.8445 3.78888 0
M  V30 4639 H 437.104 -1.93325 2.59629 0
M  V30 4640 H 436.011 0.082114 3.7401 0
M  V30 4641 H 437.344 0.0883526 4.92121 0
M  V30 4642 N 438.996 -1.55193 0.274407 0
M  V30 4643 C 439.959 -2.212 -0.600279 0
M  V30 4644 C 440.959 -1.18963 -1.08187 0
M  V30 4645 O 442.149 -1.43873 -0.982158 0
M  V30 4646 C 439.281 -2.87739 -1.82809 0
M  V30 4647 H 440.474 -2.9989 -0.0239682 0
M  V30 4648 H 438.027 -1.5628 0.0250192 0
M  V30 4649 H 438.762 -2.13058 -2.44493 0
M  V30 4650 H 438.547 -3.62658 -1.49069 0
M  V30 4651 H 440.037 -3.38171 -2.45011 0
M  V30 4652 N 440.474 -0.00167713 -1.576 0
M  V30 4653 C 441.404 0.988091 -2.11563 0
M  V30 4654 C 442.385 1.35736 -1.02517 0
M  V30 4655 O 443.57 1.44082 -1.30208 0
M  V30 4656 C 440.7 2.27941 -2.62031 0
M  V30 4657 C 439.654 2.0517 -3.75619 0
M  V30 4658 C 438.98 3.4033 -4.12407 0
M  V30 4659 C 440.28 1.41294 -5.02825 0
M  V30 4660 H 441.974 0.538771 -2.94513 0
M  V30 4661 H 439.52 0.257712 -1.41675 0
M  V30 4662 H 441.473 2.97539 -2.9841 0
M  V30 4663 H 440.197 2.74989 -1.76205 0
M  V30 4664 H 438.856 1.37998 -3.39635 0
M  V30 4665 H 438.504 3.85085 -3.23603 0
M  V30 4666 H 438.204 3.25909 -4.88935 0
M  V30 4667 H 439.728 4.1124 -4.51347 0
M  V30 4668 H 441.142 2.00851 -5.36965 0
M  V30 4669 H 439.539 1.37356 -5.84169 0
M  V30 4670 H 440.609 0.382362 -4.8339 0
M  V30 4671 N 441.952 1.55251 0.271103 0
M  V30 4672 C 443.177 1.80306 1.02491 0
M  V30 4673 C 443.602 0.575457 1.79081 0
M  V30 4674 O 442.96 -0.474987 1.74967 0
M  V30 4675 C 443.008 3.02832 1.95768 0
M  V30 4676 O 442.112 2.78051 3.04568 0
M  V30 4677 H 441.453 0.595896 0.292923 0
M  V30 4678 H 443.983 2.02397 0.299436 0
M  V30 4679 H 443.993 3.31616 2.37686 0
M  V30 4680 H 442.668 3.9183 1.39434 0
M  V30 4681 H 441.245 2.60369 2.66951 0
M  V30 4682 N 443.43 -0.535701 1.48216 0
M  V30 4683 C 444.34 -1.66785 1.64985 0
M  V30 4684 C 445.356 -1.65654 0.532414 0
M  V30 4685 O 446.532 -1.8471 0.80275 0
M  V30 4686 C 443.597 -3.0326 1.68031 0
M  V30 4687 C 442.658 -3.1529 2.9136 0
M  V30 4688 C 441.891 -4.45255 2.94252 0
M  V30 4689 O 442.114 -5.32011 2.05719 0
M  V30 4690 O 441.048 -4.6153 3.86359 0
M  V30 4691 H 444.874 -1.55576 2.60825 0
M  V30 4692 H 442.459 -0.70815 1.31551 0
M  V30 4693 H 444.341 -3.84436 1.72589 0
M  V30 4694 H 443.016 -3.14805 0.753628 0
M  V30 4695 H 441.923 -2.3343 2.92337 0
M  V30 4696 H 443.256 -3.08658 3.83394 0
M  V30 4697 N 444.908 -1.36708 -0.784132 0
M  V30 4698 C 445.871 -1.31307 -1.87859 0
M  V30 4699 C 446.871 -0.219654 -1.59293 0
M  V30 4700 O 448.061 -0.47476 -1.67606 0
M  V30 4701 C 445.193 -1.03679 -3.24751 0
M  V30 4702 H 446.386 -2.28647 -1.94064 0
M  V30 4703 H 443.939 -1.21558 -0.98252 0
M  V30 4704 H 444.674 -0.0681936 -3.24228 0
M  V30 4705 H 444.459 -1.82811 -3.46876 0
M  V30 4706 H 445.949 -1.02518 -4.04821 0
M  V30 4707 N 446.386 1.0089 -1.21074 0
M  V30 4708 C 447.316 2.1145 -0.990523 0
M  V30 4709 C 448.297 1.69897 0.0831699 0
M  V30 4710 O 449.482 1.94052 -0.0758853 0
M  V30 4711 C 446.612 3.42914 -0.550177 0
M  V30 4712 C 445.566 3.98244 -1.56799 0
M  V30 4713 C 444.892 5.25568 -0.984013 0
M  V30 4714 C 446.192 4.30752 -2.95381 0
M  V30 4715 H 447.886 2.3013 -1.91521 0
M  V30 4716 H 445.432 1.10592 -0.92225 0
M  V30 4717 H 447.385 4.19653 -0.383305 0
M  V30 4718 H 446.109 3.24014 0.41015 0
M  V30 4719 H 444.768 3.23621 -1.72236 0
M  V30 4720 H 444.416 5.02998 -0.0155216 0
M  V30 4721 H 444.116 5.63551 -1.66384 0
M  V30 4722 H 445.64 6.04955 -0.828378 0
M  V30 4723 H 447.054 4.98349 -2.8341 0
M  V30 4724 H 445.451 4.79869 -3.60341 0
M  V30 4725 H 446.521 3.39192 -3.46521 0
M  V30 4726 N 447.864 1.01787 1.20321 0
M  V30 4727 C 449.275 0.739307 1.71438 0
M  V30 4728 C 449.626 -0.742041 1.81627 0
M  V30 4729 O 448.751 -1.57903 1.47971 0
M  V30 4730 C 449.346 1.33538 3.11373 0
M  V30 4731 C 447.905 1.10566 3.59795 0
M  V30 4732 C 447.052 1.44028 2.36962 0
M  V30 4733 H 450.003 1.18718 1.05317 0
M  V30 4734 H 450.024 0.726611 3.73498 0
M  V30 4735 H 449.536 2.41352 3.03926 0
M  V30 4736 H 447.637 0.0452405 3.72573 0
M  V30 4737 H 447.75 1.78661 4.44542 0
M  V30 4738 H 446.114 0.85933 2.39766 0
M  V30 4739 H 446.897 2.52901 2.32155 0
M  V30 4740 N 449.342 -1.36122 0.79427 0
M  V30 4741 C 450.59 -1.98718 0.368177 0
M  V30 4742 C 450.911 -1.63345 -1.06506 0
M  V30 4743 O 450.181 -0.909825 -1.73491 0
M  V30 4744 H 448.761 -0.735038 0.133146 0
M  V30 4745 H 451.423 -1.66239 1.01739 0
M  V30 4746 H 450.519 -3.08633 0.463923 0
M  V30 4747 N 450.82 -0.546701 -1.47814 0
M  V30 4748 C 452.097 0.0464413 -1.95545 0
M  V30 4749 C 452.477 1.4962 -1.48919 0
M  V30 4750 O 451.825 2.16752 -0.723232 0
M  V30 4751 C 452.035 -0.0881298 -3.48889 0
M  V30 4752 C 453.383 0.0626059 -4.24554 0
M  V30 4753 O 454.407 -0.0151555 -3.56197 0
M  V30 4754 O 453.266 0.228071 -5.46024 0
M  V30 4755 H 450.36 0.0700004 -0.824032 0
M  V30 4756 H 452.906 -0.612482 -1.58262 0
M  V30 4757 H 451.678 -1.09737 -3.75597 0
M  V30 4758 H 451.301 0.608886 -3.9291 0
M  V30 4759 N 452.299 1.55045 -0.282633 0
M  V30 4760 C 453.247 2.24254 0.617478 0
M  V30 4761 C 454.241 1.24215 1.15183 0
M  V30 4762 O 455.447 1.42123 1.10459 0
M  V30 4763 H 451.822 0.719801 0.217693 0
M  V30 4764 H 453.793 2.98398 0.0110076 0
M  V30 4765 C 452.542 2.98281 1.78672 0
M  V30 4766 H 451.865 3.75053 1.38475 0
M  V30 4767 H 453.305 3.50017 2.393 0
M  V30 4768 C 451.764 2.04184 2.67975 0
M  V30 4769 O 452.294 1.59792 3.6855 0
M  V30 4770 N 450.5 1.70526 2.35307 0
M  V30 4771 H 450.047 2.06821 1.53567 0
M  V30 4772 H 450.005 1.07839 2.95327 0
M  V30 4773 N 453.777 0.010035 1.57597 0
M  V30 4774 C 455.023 -0.673697 1.91283 0
M  V30 4775 C 455.356 -1.72863 0.884979 0
M  V30 4776 O 454.631 -1.94268 -0.0949487 0
M  V30 4777 C 454.914 -1.30766 3.35518 0
M  V30 4778 C 454.767 -0.263578 4.49027 0
M  V30 4779 C 456.086 -2.23105 3.79358 0
M  V30 4780 H 453.205 -0.243439 0.695634 0
M  V30 4781 H 455.847 0.0633864 1.89894 0
M  V30 4782 H 453.997 -1.93588 3.36832 0
M  V30 4783 H 455.669 0.365738 4.59848 0
M  V30 4784 H 453.912 0.413077 4.31829 0
M  V30 4785 H 454.583 -0.746398 5.4693 0
M  V30 4786 H 457.059 -1.70289 3.79659 0
M  V30 4787 H 455.935 -2.64424 4.81011 0
M  V30 4788 H 456.196 -3.11433 3.13787 0
M  V30 4789 N 455.255 -1.55392 -0.262866 0
M  V30 4790 C 456.503 -1.76127 -0.991147 0
M  V30 4791 C 456.824 -0.571083 -1.8645 0
M  V30 4792 O 456.094 0.413698 -1.91482 0
M  V30 4793 H 454.674 -0.649528 -0.368948 0
M  V30 4794 H 457.336 -1.9281 -0.284655 0
M  V30 4795 H 456.432 -2.6663 -1.62219 0
M  V30 4796 N 456.733 0.527833 -1.48498 0
M  V30 4797 C 457.98 1.28354 -1.56625 0
M  V30 4798 C 458.308 1.93 -0.241096 0
M  V30 4799 O 457.563 1.79967 0.768798 0
M  V30 4800 C 457.862 2.39275 -2.65485 0
M  V30 4801 C 457.528 1.92268 -4.07853 0
M  V30 4802 C 456.19 1.79166 -4.46602 0
M  V30 4803 C 458.542 1.56771 -4.97064 0
M  V30 4804 C 455.87 1.28905 -5.72364 0
M  V30 4805 C 458.222 1.07972 -6.23318 0
M  V30 4806 C 456.886 0.934887 -6.60921 0
M  V30 4807 H 456.156 0.469682 -0.573131 0
M  V30 4808 H 458.803 0.588781 -1.82224 0
M  V30 4809 H 457.108 3.1443 -2.33754 0
M  V30 4810 H 458.805 2.974 -2.68988 0
M  V30 4811 H 455.395 2.03417 -3.77252 0
M  V30 4812 H 459.579 1.65753 -4.67803 0
M  V30 4813 H 454.835 1.16381 -6.00221 0
M  V30 4814 H 459.009 0.795775 -6.91838 0
M  V30 4815 H 456.636 0.543231 -7.58257 0
M  V30 4816 N 458.211 1.37122 0.776871 0
M  V30 4817 C 459.159 1.32549 1.91138 0
M  V30 4818 C 460.153 0.215119 1.68029 0
M  V30 4819 O 461.359 0.382852 1.75881 0
M  V30 4820 H 457.734 0.412952 0.62847 0
M  V30 4821 H 459.705 2.28332 1.92112 0
M  V30 4822 C 458.454 1.14422 3.28333 0
M  V30 4823 H 457.777 1.99115 3.46689 0
M  V30 4824 H 459.217 1.15272 4.0803 0
M  V30 4825 C 457.676 -0.150434 3.36564 0
M  V30 4826 O 458.206 -1.13584 3.85307 0
M  V30 4827 N 456.412 -0.19939 2.89915 0
M  V30 4828 H 455.959 0.603142 2.5044 0
M  V30 4829 H 455.917 -1.06526 2.95803 0
M  V30 4830 N 459.689 -1.00246 1.21608 0
M  V30 4831 C 460.935 -1.74319 1.03638 0
M  V30 4832 C 461.268 -1.89408 -0.428749 0
M  V30 4833 O 460.543 -1.43026 -1.3181 0
M  V30 4834 C 460.826 -3.15431 1.73711 0
M  V30 4835 C 460.679 -3.08049 3.27759 0
M  V30 4836 C 461.998 -4.14407 1.48173 0
M  V30 4837 H 459.117 -0.632741 0.377899 0
M  V30 4838 H 461.759 -1.16853 1.49818 0
M  V30 4839 H 459.909 -3.64493 1.34452 0
M  V30 4840 H 461.581 -2.66681 3.76403 0
M  V30 4841 H 459.824 -2.45088 3.57931 0
M  V30 4842 H 460.495 -4.07862 3.71958 0
M  V30 4843 H 462.971 -3.74061 1.82258 0
M  V30 4844 H 461.847 -5.11279 1.99713 0
M  V30 4845 H 462.108 -4.40174 0.412273 0
M  V30 4846 N 461.167 -1.02423 -1.1978 0
M  V30 4847 C 462.114 -0.601023 -2.22837 0
M  V30 4848 C 463.084 0.382801 -1.61629 0
M  V30 4849 O 464.269 0.280514 -1.88727 0
M  V30 4850 C 461.409 0.0467755 -3.45068 0
M  V30 4851 C 460.522 -0.98253 -4.20678 0
M  V30 4852 C 459.657 -0.304982 -5.30324 0
M  V30 4853 C 458.696 -1.32052 -5.97686 0
M  V30 4854 N 457.833 -0.669105 -6.98904 0
M  V30 4855 H 462.673 -1.48444 -2.58396 0
M  V30 4856 H 460.21 -0.742936 -1.2696 0
M  V30 4857 H 462.168 0.439556 -4.14878 0
M  V30 4858 H 460.798 0.893796 -3.10179 0
M  V30 4859 H 459.85 -1.49341 -3.49859 0
M  V30 4860 H 461.162 -1.75455 -4.66923 0
M  V30 4861 H 460.316 0.142893 -6.06532 0
M  V30 4862 H 459.055 0.499283 -4.85138 0
M  V30 4863 H 458.06 -1.7787 -5.20233 0
M  V30 4864 H 459.285 -2.1262 -6.44957 0
M  V30 4865 H 457.231 0.115152 -6.55899 0
M  V30 4866 H 457.148 -1.37908 -7.43315 0
M  V30 4867 H 458.416 -0.245076 -7.79115 0
M  V30 4868 N 462.645 1.35699 -0.801477 0
M  V30 4869 C 463.593 2.3177 -0.196317 0
M  V30 4870 C 464.587 1.56388 0.651081 0
M  V30 4871 O 465.793 1.71557 0.544815 0
M  V30 4872 H 462.168 0.750669 -0.0447189 0
M  V30 4873 H 464.139 2.8036 -1.02181 0
M  V30 4874 C 462.888 3.41671 0.644702 0
M  V30 4875 H 462.211 3.998 0.0019921 0
M  V30 4876 H 463.651 4.11184 1.0346 0
M  V30 4877 C 462.11 2.84271 1.80808 0
M  V30 4878 O 462.64 2.77408 2.9053 0
M  V30 4879 N 460.846 2.41391 1.61799 0
M  V30 4880 H 460.393 2.47173 0.725493 0
M  V30 4881 H 460.351 2.03334 2.39797 0
M  V30 4882 N 464.123 0.554532 1.47522 0
M  V30 4883 C 465.369 0.0295227 2.02779 0
M  V30 4884 C 465.702 -1.31582 1.42828 0
M  V30 4885 O 464.977 -1.85561 0.582872 0
M  V30 4886 C 465.26 -0.0664057 3.60039 0
M  V30 4887 C 465.113 1.30585 4.30427 0
M  V30 4888 C 466.432 -0.781162 4.33112 0
M  V30 4889 H 463.551 0.0122027 0.736899 0
M  V30 4890 H 466.193 0.716305 1.7598 0
M  V30 4891 H 464.343 -0.651307 3.83002 0
M  V30 4892 H 466.015 1.93374 4.18813 0
M  V30 4893 H 464.258 1.88125 3.90886 0
M  V30 4894 H 464.929 1.19147 5.38988 0
M  V30 4895 H 467.405 -0.284565 4.15126 0
M  V30 4896 H 466.281 -0.817237 5.42782 0
M  V30 4897 H 466.542 -1.83672 4.0214 0
M  V30 4898 N 465.601 -1.54893 0.290851 0
M  V30 4899 C 466.826 -2.04804 -0.32712 0
M  V30 4900 C 467.251 -1.16721 -1.47506 0
M  V30 4901 O 466.609 -0.169107 -1.8051 0
M  V30 4902 C 466.657 -3.52268 -0.770689 0
M  V30 4903 O 465.761 -3.67236 -1.87647 0
M  V30 4904 H 465.102 -0.660789 -0.0652227 0
M  V30 4905 H 467.632 -2.00036 0.429739 0
M  V30 4906 H 467.642 -3.9393 -1.06223 0
M  V30 4907 H 466.317 -4.15843 0.069096 0
M  V30 4908 H 464.894 -3.37479 -1.58626 0
M  V30 4909 N 467.08 -0.0183926 -1.57589 0
M  V30 4910 C 468.326 0.663543 -1.91638 0
M  V30 4911 C 468.659 1.72392 -0.894134 0
M  V30 4912 O 467.934 1.94316 0.0846449 0
M  V30 4913 C 468.217 1.28984 -3.36207 0
M  V30 4914 C 468.07 0.239761 -4.49161 0
M  V30 4915 C 469.389 2.2109 -3.80536 0
M  V30 4916 H 466.508 0.239746 -0.696915 0
M  V30 4917 H 469.15 -0.073456 -1.89858 0
M  V30 4918 H 467.3 1.91799 -3.37854 0
M  V30 4919 H 468.972 -0.390119 -4.59647 0
M  V30 4920 H 467.215 -0.435972 -4.31604 0
M  V30 4921 H 467.886 0.717383 -5.47319 0
M  V30 4922 H 470.362 1.68273 -3.80557 0
M  V30 4923 H 469.238 2.61869 -4.82406 0
M  V30 4924 H 469.499 3.09764 -3.15434 0
M  V30 4925 N 468.558 1.5553 0.254621 0
M  V30 4926 C 469.505 1.89666 1.31512 0
M  V30 4927 C 470.475 0.750057 1.482 0
M  V30 4928 O 471.66 1.00301 1.62309 0
M  V30 4929 C 468.8 2.19009 2.667 0
M  V30 4930 C 467.913 3.46435 2.58083 0
M  V30 4931 C 467.048 3.65386 3.85573 0
M  V30 4932 C 466.087 4.8644 3.71541 0
M  V30 4933 N 465.224 5.01952 4.90906 0
M  V30 4934 H 470.064 2.80109 1.017 0
M  V30 4935 H 467.601 1.38666 0.490938 0
M  V30 4936 H 469.559 2.34025 3.45381 0
M  V30 4937 H 468.189 1.31779 2.94676 0
M  V30 4938 H 467.241 3.39792 1.71013 0
M  V30 4939 H 468.553 4.35258 2.43622 0
M  V30 4940 H 467.707 3.80319 4.72697 0
M  V30 4941 H 466.446 2.74781 4.02922 0
M  V30 4942 H 465.451 4.71491 2.82801 0
M  V30 4943 H 466.676 5.78497 3.55694 0
M  V30 4944 H 464.622 4.14283 5.08631 0
M  V30 4945 H 464.539 5.84851 4.79046 0
M  V30 4946 H 465.807 5.21289 5.7955 0
M  V30 4947 N 470.036 -0.519951 1.48776 0
M  V30 4948 C 471.313 -1.28123 1.47797 0
M  V30 4949 C 471.693 -2.10196 0.195157 0
M  V30 4950 O 471.041 -2.13167 -0.822925 0
M  V30 4951 C 471.251 -2.15413 2.74587 0
M  V30 4952 C 472.599 -2.75225 3.23321 0
M  V30 4953 O 473.623 -2.25694 2.75574 0
M  V30 4954 O 472.482 -3.65346 4.06429 0
M  V30 4955 H 469.576 -0.578793 0.590701 0
M  V30 4956 H 472.122 -0.535779 1.6102 0
M  V30 4957 H 470.894 -1.54617 3.59457 0
M  V30 4958 H 470.517 -2.97186 2.64132 0
M  V30 4959 N 471.514 -1.37532 -0.769588 0
M  V30 4960 C 472.76 -1.33057 -1.53048 0
M  V30 4961 C 473.093 0.0841865 -1.94017 0
M  V30 4962 O 472.368 1.04198 -1.64235 0
M  V30 4963 C 472.651 -2.27166 -2.79406 0
M  V30 4964 C 472.504 -3.77429 -2.44677 0
M  V30 4965 C 473.823 -2.19683 -3.81349 0
M  V30 4966 H 470.942 -0.484655 -0.555228 0
M  V30 4967 H 473.584 -1.68251 -0.882702 0
M  V30 4968 H 471.734 -1.97283 -3.34682 0
M  V30 4969 H 473.406 -4.17918 -1.953 0
M  V30 4970 H 471.649 -3.95892 -1.77346 0
M  V30 4971 H 472.32 -4.38716 -3.35011 0
M  V30 4972 H 474.796 -2.46029 -3.35573 0
M  V30 4973 H 473.672 -2.87668 -4.67481 0
M  V30 4974 H 473.933 -1.19045 -4.25771 0
M  V30 4975 N 472.992 0.995999 -1.22138 0
M  V30 4976 C 474.408 1.25917 -0.980667 0
M  V30 4977 C 474.608 1.98819 0.327604 0
M  V30 4978 O 473.664 2.29587 1.05101 0
M  V30 4979 C 474.977 2.07399 -2.17729 0
M  V30 4980 C 476.525 2.20594 -2.22052 0
M  V30 4981 C 477 3.05462 -3.41258 0
M  V30 4982 N 478.491 3.13049 -3.41401 0
M  V30 4983 C 479.226 3.78997 -4.30289 0
M  V30 4984 N 478.722 4.46899 -5.2939 0
M  V30 4985 N 480.515 3.75728 -4.18073 0
M  V30 4986 H 472.666 0.507158 -2.06256 0
M  V30 4987 H 474.929 0.28658 -0.903646 0
M  V30 4988 H 474.635 1.61191 -3.12586 0
M  V30 4989 H 474.509 3.08154 -2.17534 0
M  V30 4990 H 476.896 2.66017 -1.27745 0
M  V30 4991 H 476.977 1.1928 -2.26287 0
M  V30 4992 H 476.621 2.60739 -4.35864 0
M  V30 4993 H 476.551 4.06911 -3.34262 0
M  V30 4994 H 479.042 2.64721 -2.69688 0
M  V30 4995 H 479.355 4.94952 -5.935 0
M  V30 4996 H 477.7 4.45657 -5.33306 0
M  V30 4997 H 480.891 3.2184 -3.39907 0
M  V30 4998 H 481.064 4.26845 -4.87553 0
M  V30 4999 N 474.47 1.03057 1.19235 0
M  V30 5000 C 475.886 0.747947 1.40989 0
M  V30 5001 C 476.086 -0.666752 1.90149 0
M  V30 5002 O 475.142 -1.43249 2.07933 0
M  V30 5003 C 476.455 1.7855 2.41951 0
M  V30 5004 C 478.003 1.80524 2.55695 0
M  V30 5005 C 478.478 2.83243 3.59913 0
M  V30 5006 N 479.969 2.8207 3.67411 0
M  V30 5007 C 480.704 3.58204 4.47747 0
M  V30 5008 N 480.2 4.44057 5.31775 0
M  V30 5009 N 481.993 3.46738 4.42413 0
M  V30 5010 H 474.144 1.94367 0.856468 0
M  V30 5011 H 476.407 0.840412 0.438647 0
M  V30 5012 H 476.113 2.79973 2.12857 0
M  V30 5013 H 475.987 1.6092 3.41152 0
M  V30 5014 H 478.374 0.79778 2.84112 0
M  V30 5015 H 478.455 2.02229 1.56643 0
M  V30 5016 H 478.099 3.84161 3.32239 0
M  V30 5017 H 478.029 2.58795 4.5862 0
M  V30 5018 H 480.52 2.19803 3.074 0
M  V30 5019 H 480.833 4.98884 5.90199 0
M  V30 5020 H 479.178 4.48129 5.3123 0
M  V30 5021 H 482.369 2.79077 3.75811 0
M  V30 5022 H 482.542 4.06322 5.04783 0
M  V30 5023 N 475.948 -1.35272 0.808662 0
M  V30 5024 C 477.196 -1.98316 0.389233 0
M  V30 5025 C 477.517 -1.64465 -1.04767 0
M  V30 5026 O 476.787 -0.928175 -1.72516 0
M  V30 5027 H 475.367 -0.733585 0.140935 0
M  V30 5028 H 478.029 -1.6515 1.03496 0
M  V30 5029 H 477.125 -3.08123 0.496631 0
M  V30 5030 N 477.426 -0.562348 -1.47226 0
M  V30 5031 C 478.374 0.195476 -2.31777 0
M  V30 5032 C 479.368 0.90433 -1.43242 0
M  V30 5033 O 480.574 0.825031 -1.59979 0
M  V30 5034 H 476.949 0.0819095 -0.747526 0
M  V30 5035 H 478.92 -0.536753 -2.93533 0
M  V30 5036 C 477.669 1.20902 -3.26003 0
M  V30 5037 H 476.992 0.672997 -3.94095 0
M  V30 5038 H 478.432 1.71006 -3.87986 0
M  V30 5039 C 476.891 2.25955 -2.49891 0
M  V30 5040 O 477.421 3.32969 -2.2471 0
M  V30 5041 N 475.627 2.00019 -2.1081 0
M  V30 5042 H 475.174 1.13006 -2.31489 0
M  V30 5043 H 475.132 2.70523 -1.60201 0
M  V30 5044 N 478.904 1.54736 -0.299062 0
M  V30 5045 C 480.15 2.00397 0.311244 0
M  V30 5046 C 480.483 1.18716 1.53688 0
M  V30 5047 O 479.758 0.263154 1.92712 0
M  V30 5048 C 480.041 3.53817 0.669761 0
M  V30 5049 C 479.894 4.46239 -0.564882 0
M  V30 5050 C 481.213 4.13856 1.49702 0
M  V30 5051 H 478.332 0.728493 0.111653 0
M  V30 5052 H 480.974 1.85506 -0.410774 0
M  V30 5053 H 479.124 3.66637 1.28491 0
M  V30 5054 H 480.796 4.45328 -1.20337 0
M  V30 5055 H 479.039 4.16916 -1.19849 0
M  V30 5056 H 479.71 5.5134 -0.269918 0
M  V30 5057 H 482.186 4.04461 0.977284 0
M  V30 5058 H 481.062 5.21365 1.71666 0
M  V30 5059 H 481.323 3.65608 2.48563 0
M  V30 5060 N 480.382 0.0267497 1.57577 0
M  V30 5061 C 481.345 -0.940916 2.08996 0
M  V30 5062 C 482.345 -1.25561 1.00455 0
M  V30 5063 O 483.535 -1.19634 1.26623 0
M  V30 5064 C 480.667 -2.25814 2.55384 0
M  V30 5065 H 481.86 -0.495628 2.95776 0
M  V30 5066 H 479.413 -0.221241 1.54726 0
M  V30 5067 H 480.148 -2.74976 1.71926 0
M  V30 5068 H 479.933 -2.04285 3.34679 0
M  V30 5069 H 481.423 -2.95178 2.95398 0
M  V30 5070 N 481.861 -1.55662 -0.24637 0
M  V30 5071 C 483.109 -1.77168 -0.972411 0
M  V30 5072 C 483.43 -0.590827 -1.85834 0
M  V30 5073 O 482.7 0.393365 -1.9191 0
M  V30 5074 H 481.28 -0.653405 -0.362038 0
M  V30 5075 H 483.942 -1.93101 -0.264189 0
M  V30 5076 H 483.038 -2.68335 -1.59382 0
M  V30 5077 N 483.339 0.512053 -1.4905 0
M  V30 5078 C 484.616 1.27337 -1.48474 0
M  V30 5079 C 484.996 2.1009 -0.206301 0
M  V30 5080 O 484.344 2.136 0.811609 0
M  V30 5081 C 484.554 2.13954 -2.75726 0
M  V30 5082 C 485.902 2.73507 -3.24776 0
M  V30 5083 O 486.926 2.24229 -2.76767 0
M  V30 5084 O 485.785 3.63186 -4.08361 0
M  V30 5085 H 482.879 0.575652 -0.593762 0
M  V30 5086 H 485.425 0.527232 -1.61302 0
M  V30 5087 H 484.197 1.52709 -3.60272 0
M  V30 5088 H 483.82 2.95782 -2.65705 0
M  V30 5089 N 484.817 1.37938 0.762283 0
M  V30 5090 C 486.042 1.37059 1.55659 0
M  V30 5091 C 486.467 -0.0396123 1.88058 0
M  V30 5092 O 485.825 -1.01929 1.49934 0
M  V30 5093 C 485.873 2.22494 2.83776 0
M  V30 5094 O 484.977 1.63607 3.78559 0
M  V30 5095 H 484.318 0.467892 0.47114 0
M  V30 5096 H 486.848 1.81587 0.942725 0
M  V30 5097 H 486.858 2.36045 3.32786 0
M  V30 5098 H 485.533 3.24993 2.59524 0
M  V30 5099 H 484.11 1.5915 3.37233 0
M  V30 5100 N 486.295 -0.989507 1.22664 0
M  V30 5101 C 487.242 -2.08024 0.999733 0
M  V30 5102 C 488.212 -1.65909 -0.0797047 0
M  V30 5103 O 489.397 -1.90669 0.0705715 0
M  V30 5104 C 486.537 -3.40067 0.587234 0
M  V30 5105 C 485.65 -3.95505 1.73781 0
M  V30 5106 C 484.785 -5.15722 1.27297 0
M  V30 5107 C 483.824 -5.63305 2.39488 0
M  V30 5108 N 482.961 -6.74758 1.94026 0
M  V30 5109 H 487.801 -2.26768 1.9334 0
M  V30 5110 H 485.338 -1.11171 0.963297 0
M  V30 5111 H 487.296 -4.15899 0.329227 0
M  V30 5112 H 485.926 -3.21314 -0.309426 0
M  V30 5113 H 484.978 -3.16513 2.11006 0
M  V30 5114 H 486.29 -4.26797 2.58158 0
M  V30 5115 H 485.444 -5.98854 0.972546 0
M  V30 5116 H 484.183 -4.86061 0.399445 0
M  V30 5117 H 483.188 -4.78759 2.70315 0
M  V30 5118 H 484.413 -5.94988 3.27362 0
M  V30 5119 H 482.359 -6.46874 1.09041 0
M  V30 5120 H 482.276 -7.05386 2.71968 0
M  V30 5121 H 483.544 -7.61387 1.67062 0
M  V30 5122 N 487.773 -1.03688 -1.18687 0
M  V30 5123 C 488.721 -0.618292 -2.24232 0
M  V30 5124 C 489.715 0.353045 -1.6568 0
M  V30 5125 O 490.921 0.220749 -1.78641 0
M  V30 5126 H 487.296 -0.181711 -0.729716 0
M  V30 5127 H 489.267 -1.51893 -2.56848 0
M  V30 5128 C 488.016 0.00677342 -3.47699 0
M  V30 5129 H 487.339 -0.731692 -3.93047 0
M  V30 5130 H 488.779 0.262492 -4.23187 0
M  V30 5131 C 487.238 1.25572 -3.12623 0
M  V30 5132 O 487.768 2.34691 -3.26011 0
M  V30 5133 N 485.974 1.14755 -2.66982 0
M  V30 5134 H 485.521 0.259601 -2.56289 0
M  V30 5135 H 485.479 1.98412 -2.43885 0
M  V30 5136 N 489.251 1.34841 -0.815825 0
M  V30 5137 C 490.528 1.92908 -0.323416 0
M  V30 5138 C 490.908 1.74479 1.18828 0
M  V30 5139 O 490.256 1.11928 1.99209 0
M  V30 5140 C 490.466 3.40957 -0.744952 0
M  V30 5141 C 491.814 4.18107 -0.739716 0
M  V30 5142 O 492.838 3.49511 -0.68708 0
M  V30 5143 O 491.697 5.40517 -0.806456 0
M  V30 5144 H 488.791 0.822436 -0.0867646 0
M  V30 5145 H 491.337 1.4386 -0.90014 0
M  V30 5146 H 490.109 3.4814 -1.78646 0
M  V30 5147 H 489.732 3.97341 -0.143535 0
M  V30 5148 N 490.729 0.570148 1.46925 0
M  V30 5149 C 492.14 0.1402 1.86173 0
M  V30 5150 C 492.491 -1.29347 1.47526 0
M  V30 5151 O 491.616 -1.97508 0.884292 0
M  V30 5152 C 492.211 0.247661 3.37894 0
M  V30 5153 C 490.77 -0.127332 3.76185 0
M  V30 5154 C 489.917 0.589349 2.70965 0
M  V30 5155 H 492.868 0.779117 1.38259 0
M  V30 5156 H 492.889 -0.530341 3.76786 0
M  V30 5157 H 492.401 1.29121 3.65991 0
M  V30 5158 H 490.502 -1.17149 3.53704 0
M  V30 5159 H 490.615 0.240238 4.78497 0
M  V30 5160 H 488.979 0.0309824 2.54681 0
M  V30 5161 H 489.762 1.6343 3.01903 0
M  V30 5162 N 492.207 -1.54576 0.307264 0
M  V30 5163 C 493.618 -1.8579 -0.184121 0
M  V30 5164 C 493.969 -1.22914 -1.52927 0
M  V30 5165 O 493.094 -0.529126 -2.09831 0
M  V30 5166 C 493.689 -3.37081 -0.340862 0
M  V30 5167 C 492.248 -3.68304 -0.776465 0
M  V30 5168 C 491.395 -2.77076 0.111503 0
M  V30 5169 H 494.346 -1.49656 0.528078 0
M  V30 5170 H 494.367 -3.61922 -1.17443 0
M  V30 5171 H 493.879 -3.82815 0.638309 0
M  V30 5172 H 491.98 -3.28092 -1.76596 0
M  V30 5173 H 492.093 -4.75434 -0.591512 0
M  V30 5174 H 490.457 -2.51374 -0.410256 0
M  V30 5175 H 491.24 -3.25632 1.08714 0
M  V30 5176 N 493.685 -0.035106 -1.57561 0
M  V30 5177 C 494.618 0.979673 -2.06101 0
M  V30 5178 C 495.596 1.31378 -0.958046 0
M  V30 5179 O 496.78 1.42942 -1.22881 0
M  V30 5180 C 493.907 2.29809 -2.48808 0
M  V30 5181 C 492.953 2.11817 -3.70184 0
M  V30 5182 S 493.786 1.41143 -5.16565 0
M  V30 5183 C 494.942 2.74341 -5.62572 0
M  V30 5184 H 495.175 0.566506 -2.91853 0
M  V30 5185 H 492.708 0.176744 -1.53385 0
M  V30 5186 H 494.666 3.056 -2.74078 0
M  V30 5187 H 493.327 2.68257 -1.63392 0
M  V30 5188 H 492.52 3.09299 -3.97933 0
M  V30 5189 H 492.122 1.44168 -3.45097 0
M  V30 5190 H 494.414 3.70562 -5.67177 0
M  V30 5191 H 495.357 2.51249 -6.62027 0
M  V30 5192 H 495.765 2.79863 -4.90242 0
M  V30 5193 N 495.163 1.55791 0.238111 0
M  V30 5194 C 496.073 1.94196 1.31625 0
M  V30 5195 C 497.089 0.843545 1.52185 0
M  V30 5196 O 498.265 1.1457 1.65637 0
M  V30 5197 C 495.33 2.2365 2.64918 0
M  V30 5198 C 494.391 3.46971 2.52804 0
M  V30 5199 C 493.624 3.7501 3.79741 0
M  V30 5200 O 493.847 3.04982 4.82019 0
M  V30 5201 O 492.781 4.68525 3.77846 0
M  V30 5202 H 496.607 2.86044 1.02043 0
M  V30 5203 H 494.192 1.42786 0.439603 0
M  V30 5204 H 496.074 2.43863 3.4367 0
M  V30 5205 H 494.749 1.34979 2.94215 0
M  V30 5206 H 493.656 3.32055 1.72309 0
M  V30 5207 H 494.989 4.35971 2.28451 0
M  V30 5208 N 496.642 -0.504142 1.49319 0
M  V30 5209 C 497.605 -1.5883 1.65244 0
M  V30 5210 C 498.605 -1.52009 0.524386 0
M  V30 5211 O 499.795 -1.55218 0.79077 0
M  V30 5212 C 496.927 -2.98481 1.64687 0
M  V30 5213 H 498.12 -1.4604 2.61939 0
M  V30 5214 H 495.673 -0.728144 1.38303 0
M  V30 5215 H 496.408 -3.16751 0.695644 0
M  V30 5216 H 496.193 -3.0484 2.46607 0
M  V30 5217 H 497.683 -3.77256 1.79075 0
M  V30 5218 N 498.12 -1.38341 -0.754957 0
M  V30 5219 C 499.083 -1.35262 -1.85032 0
M  V30 5220 C 500.083 -0.253393 -1.58791 0
M  V30 5221 O 501.273 -0.510205 -1.66561 0
M  V30 5222 C 498.405 -1.10544 -3.22479 0
M  V30 5223 H 499.598 -2.32712 -1.8917 0
M  V30 5224 H 497.151 -1.23614 -0.956515 0
M  V30 5225 H 497.886 -0.136952 -3.24011 0
M  V30 5226 H 497.671 -1.90127 -3.4292 0
M  V30 5227 H 499.161 -1.11082 -4.02555 0
M  V30 5228 N 499.598 0.982988 -1.23187 0
M  V30 5229 C 500.846 1.72052 -1.06031 0
M  V30 5230 C 501.167 1.90769 0.404019 0
M  V30 5231 O 500.437 1.47446 1.28982 0
M  V30 5232 H 499.017 0.637499 -0.389363 0
M  V30 5233 H 501.679 1.18338 -1.54862 0
M  V30 5234 H 500.775 2.7111 -1.54615 0
M  V30 5235 N 501.076 1.04316 1.18135 0
M  V30 5236 C 502.323 0.74802 1.88178 0
M  V30 5237 C 502.651 -0.72441 1.80506 0
M  V30 5238 O 501.906 -1.54463 1.20165 0
M  V30 5239 C 502.205 1.16271 3.37958 0
M  V30 5240 C 501.871 2.63585 3.65833 0
M  V30 5241 C 500.533 3.03829 3.73151 0
M  V30 5242 C 502.885 3.58822 3.78016 0
M  V30 5243 C 500.213 4.38194 3.90132 0
M  V30 5244 C 502.565 4.92909 3.96514 0
M  V30 5245 C 501.229 5.3282 4.02068 0
M  V30 5246 H 500.499 0.27372 0.688592 0
M  V30 5247 H 503.146 1.30863 1.39811 0
M  V30 5248 H 501.451 0.520938 3.88321 0
M  V30 5249 H 503.148 0.911672 3.90499 0
M  V30 5250 H 499.738 2.31414 3.60757 0
M  V30 5251 H 503.922 3.28875 3.71692 0
M  V30 5252 H 499.178 4.68631 3.92677 0
M  V30 5253 H 503.352 5.66606 4.04883 0
M  V30 5254 H 500.979 6.36943 4.14979 0
M  V30 5255 N 502.554 -1.34406 0.822964 0
M  V30 5256 C 503.782 -2.02508 0.424039 0
M  V30 5257 C 504.197 -1.61975 -0.970022 0
M  V30 5258 O 503.554 -0.825228 -1.62777 0
M  V30 5259 C 503.605 -3.57789 0.516657 0
M  V30 5260 O 503.326 -3.96853 1.85577 0
M  V30 5261 C 504.827 -4.43157 0.112637 0
M  V30 5262 H 502.047 -0.649063 0.170173 0
M  V30 5263 H 504.591 -1.7168 1.11113 0
M  V30 5264 H 502.746 -3.87207 -0.122353 0
M  V30 5265 H 503.16 -4.91538 1.83005 0
M  V30 5266 H 504.634 -5.51527 0.228526 0
M  V30 5267 H 505.111 -4.28939 -0.943837 0
M  V30 5268 H 505.717 -4.19067 0.725449 0
M  V30 5269 N 504.032 -0.577932 -1.46621 0
M  V30 5270 C 504.995 0.147805 -2.28723 0
M  V30 5271 C 505.995 0.823325 -1.38123 0
M  V30 5272 O 507.185 0.676011 -1.60548 0
M  V30 5273 C 504.317 1.21853 -3.18378 0
M  V30 5274 H 505.51 -0.573654 -2.94362 0
M  V30 5275 H 503.063 -0.335703 -1.52652 0
M  V30 5276 H 503.798 1.97173 -2.57475 0
M  V30 5277 H 503.583 0.738714 -3.85078 0
M  V30 5278 H 505.073 1.72768 -3.80186 0
M  V30 5279 N 505.51 1.54411 -0.315457 0
M  V30 5280 C 506.442 2.21527 0.588067 0
M  V30 5281 C 507.455 1.21263 1.08624 0
M  V30 5282 O 508.644 1.47777 1.00121 0
M  V30 5283 C 505.744 2.85963 1.81875 0
M  V30 5284 C 504.917 4.12291 1.46063 0
M  V30 5285 C 503.976 4.60396 2.54799 0
M  V30 5286 O 503.002 5.25265 2.19283 0
M  V30 5287 N 504.204 4.33935 3.85591 0
M  V30 5288 H 506.969 2.99697 0.013414 0
M  V30 5289 H 504.53 1.61308 -0.138295 0
M  V30 5290 H 506.522 3.15071 2.53993 0
M  V30 5291 H 505.092 2.11548 2.30144 0
M  V30 5292 H 504.312 3.90036 0.571445 0
M  V30 5293 H 505.6 4.9452 1.19695 0
M  V30 5294 H 504.998 3.81996 4.17248 0
M  V30 5295 H 503.555 4.67718 4.53964 0
M  V30 5296 N 506.988 0.0434614 1.5754 0
M  V30 5297 C 508.234 -0.632971 1.92669 0
M  V30 5298 C 508.567 -1.70947 0.921446 0
M  V30 5299 O 507.842 -1.94426 -0.0537202 0
M  V30 5300 C 508.125 -1.23619 3.38216 0
M  V30 5301 C 507.978 -0.168274 4.49485 0
M  V30 5302 C 509.297 -2.15008 3.84005 0
M  V30 5303 H 506.416 -0.228629 0.700641 0
M  V30 5304 H 509.058 0.103651 1.89717 0
M  V30 5305 H 507.208 -1.864 3.40863 0
M  V30 5306 H 508.88 0.463196 4.58969 0
M  V30 5307 H 507.123 0.504581 4.30855 0
M  V30 5308 H 507.794 -0.630218 5.48391 0
M  V30 5309 H 510.27 -1.62198 3.83185 0
M  V30 5310 H 509.146 -2.54161 4.86511 0
M  V30 5311 H 509.407 -3.04707 3.20322 0
M  V30 5312 N 508.466 -1.55915 -0.229846 0
M  V30 5313 C 509.715 -1.77742 -0.953455 0
M  V30 5314 C 510.028 -0.610524 -1.85828 0
M  V30 5315 O 511.234 -0.712219 -2.61992 0
M  V30 5316 C 509.69 -3.14738 -1.74551 0
M  V30 5317 C 509.298 -4.39126 -0.887242 0
M  V30 5318 C 511.042 -3.45895 -2.46084 0
M  V30 5319 C 508.949 -5.67149 -1.67617 0
M  V30 5320 H 507.879 -0.662648 -0.359741 0
M  V30 5321 H 510.53 -1.82322 -0.207576 0
M  V30 5322 H 508.912 -3.04311 -2.53399 0
M  V30 5323 H 510.086 -4.60588 -0.139892 0
M  V30 5324 H 508.401 -4.15427 -0.284443 0
M  V30 5325 H 510.998 -4.38767 -3.05594 0
M  V30 5326 H 511.341 -2.68007 -3.18556 0
M  V30 5327 H 511.874 -3.57614 -1.74233 0
M  V30 5328 H 508.613 -6.47906 -0.994881 0
M  V30 5329 H 508.133 -5.49763 -2.39836 0
M  V30 5330 H 509.812 -6.07025 -2.23898 0
M  V30 5331 N 509.944 0.496216 -1.49584 0
M  V30 5332 C 511.193 1.24668 -1.58558 0
M  V30 5333 C 511.506 1.9359 -0.279703 0
M  V30 5334 O 512.712 2.70365 -0.248048 0
M  V30 5335 C 511.168 2.26388 -2.79779 0
M  V30 5336 C 510.776 1.63384 -4.17145 0
M  V30 5337 C 512.52 3.02233 -2.98086 0
M  V30 5338 C 510.427 2.63243 -5.29582 0
M  V30 5339 H 509.357 0.468995 -0.590389 0
M  V30 5340 H 512.008 0.519985 -1.75978 0
M  V30 5341 H 510.39 3.02241 -2.55863 0
M  V30 5342 H 511.564 0.93491 -4.51216 0
M  V30 5343 H 509.879 0.999121 -4.04236 0
M  V30 5344 H 512.476 3.76919 -3.79257 0
M  V30 5345 H 512.819 3.60132 -2.08831 0
M  V30 5346 H 513.352 2.33495 -3.22063 0
M  V30 5347 H 510.091 2.10119 -6.20911 0
M  V30 5348 H 509.611 3.31363 -4.99959 0
M  V30 5349 H 511.29 3.25575 -5.59115 0
M  V30 5350 N 511.423 1.38739 0.74761 0
M  V30 5351 C 512.353 1.39173 1.87492 0
M  V30 5352 C 513.334 0.256794 1.6815 0
M  V30 5353 O 514.519 0.460762 1.88655 0
M  V30 5354 C 511.649 1.22197 3.25093 0
M  V30 5355 C 510.603 2.32957 3.59047 0
M  V30 5356 C 509.929 2.01082 4.95449 0
M  V30 5357 C 511.229 3.75237 3.6331 0
M  V30 5358 H 512.923 2.3351 1.87386 0
M  V30 5359 H 510.469 1.12399 0.900134 0
M  V30 5360 H 512.422 1.21124 4.03617 0
M  V30 5361 H 511.146 0.243241 3.25693 0
M  V30 5362 H 509.805 2.33226 2.82845 0
M  V30 5363 H 509.453 1.01678 4.92616 0
M  V30 5364 H 509.153 2.75267 5.19136 0
M  V30 5365 H 510.677 2.01638 5.76346 0
M  V30 5366 H 512.091 3.76966 4.31937 0
M  V30 5367 H 510.488 4.48677 3.98509 0
M  V30 5368 H 511.558 4.07122 2.634 0
M  V30 5369 N 512.901 -0.976442 1.23707 0
M  V30 5370 C 513.849 -2.09078 1.01927 0
M  V30 5371 C 514.843 -1.69345 -0.0430193 0
M  V30 5372 O 516.049 -1.79659 0.110814 0
M  V30 5373 H 512.424 -0.68398 0.312531 0
M  V30 5374 H 514.395 -2.24614 1.96447 0
M  V30 5375 C 513.144 -3.41919 0.631385 0
M  V30 5376 H 512.467 -3.72946 1.44053 0
M  V30 5377 H 513.907 -4.20817 0.518532 0
M  V30 5378 C 512.366 -3.30357 -0.660723 0
M  V30 5379 O 512.896 -3.63542 -1.70881 0
M  V30 5380 N 511.102 -2.83507 -0.638139 0
M  V30 5381 H 510.649 -2.567 0.215108 0
M  V30 5382 H 510.607 -2.76153 -1.50289 0
M  V30 5383 N 514.379 -1.04941 -1.1758 0
M  V30 5384 C 515.329 -0.618378 -2.19454 0
M  V30 5385 C 516.313 0.343813 -1.57184 0
M  V30 5386 O 517.505 0.16145 -1.76262 0
M  V30 5387 C 514.634 0.00803847 -3.43299 0
M  V30 5388 C 513.72 -0.977827 -4.12673 0
M  V30 5389 N 514.111 -2.14826 -4.57912 0
M  V30 5390 C 512.409 -0.805748 -4.38661 0
M  V30 5391 C 513.11 -2.77174 -5.11419 0
M  V30 5392 N 512.086 -2.04989 -5.03468 0
M  V30 5393 H 515.888 -1.51018 -2.52132 0
M  V30 5394 H 513.402 -0.919201 -1.33882 0
M  V30 5395 H 515.399 0.334584 -4.15555 0
M  V30 5396 H 514.059 0.895272 -3.12114 0
M  V30 5397 H 515.07 -2.52673 -4.52081 0
M  V30 5398 H 511.747 0.0306506 -4.17489 0
M  V30 5399 H 513.137 -3.76416 -5.56562 0
M  V30 5400 N 515.857 1.33968 -0.830081 0
M  V30 5401 C 517.268 1.80439 -0.479455 0
M  V30 5402 C 517.619 1.68756 1.00079 0
M  V30 5403 O 516.744 1.23171 1.77927 0
M  V30 5404 C 517.339 3.27611 -0.863505 0
M  V30 5405 C 515.898 3.72133 -0.565145 0
M  V30 5406 C 515.045 2.55549 -1.07657 0
M  V30 5407 H 517.996 1.21614 -1.0196 0
M  V30 5408 H 518.017 3.8012 -0.170083 0
M  V30 5409 H 517.529 3.36082 -1.94089 0
M  V30 5410 H 515.63 3.69196 0.502536 0
M  V30 5411 H 515.743 4.65963 -1.11422 0
M  V30 5412 H 514.107 2.49788 -0.497807 0
M  V30 5413 H 514.89 2.66786 -2.16055 0
M  V30 5414 N 517.335 0.585699 1.46312 0
M  V30 5415 C 518.583 0.072278 2.01971 0
M  V30 5416 C 518.904 -1.29345 1.45928 0
M  V30 5417 O 518.174 -1.84973 0.645109 0
M  V30 5418 H 516.754 0.023729 0.746623 0
M  V30 5419 H 519.416 0.762155 1.7938 0
M  V30 5420 H 518.512 0.00552767 3.121 0
M  V30 5421 N 518.813 -1.54241 0.323641 0
M  V30 5422 C 519.745 -2.21836 -0.576311 0
M  V30 5423 C 520.758 -1.21837 -1.07979 0
M  V30 5424 O 521.947 -1.48306 -0.99336 0
M  V30 5425 C 519.047 -2.86923 -1.80356 0
M  V30 5426 C 518.22 -4.1306 -1.43875 0
M  V30 5427 C 517.279 -4.6174 -2.52353 0
M  V30 5428 O 516.305 -5.26421 -2.16494 0
M  V30 5429 N 517.507 -4.35974 -3.83284 0
M  V30 5430 H 520.272 -2.997 0.00247987 0
M  V30 5431 H 517.833 -1.61233 0.146848 0
M  V30 5432 H 519.825 -3.16414 -2.52318 0
M  V30 5433 H 518.395 -2.12765 -2.29019 0
M  V30 5434 H 517.615 -3.90334 -0.550752 0
M  V30 5435 H 518.903 -4.95148 -1.17071 0
M  V30 5436 H 518.301 -3.84203 -4.15216 0
M  V30 5437 H 516.858 -4.70119 -4.51477 0
M  V30 5438 N 520.291 -0.0518155 -1.57515 0
M  V30 5439 C 521.54 0.621286 -1.91893 0
M  V30 5440 C 521.853 1.71966 -0.932052 0
M  V30 5441 O 523.059 2.45096 -1.16791 0
M  V30 5442 C 521.515 1.15641 -3.40816 0
M  V30 5443 C 521.123 0.0901146 -4.47909 0
M  V30 5444 C 522.867 1.80472 -3.84227 0
M  V30 5445 C 520.774 0.638154 -5.87947 0
M  V30 5446 H 519.704 0.235835 -0.716169 0
M  V30 5447 H 522.355 -0.120809 -1.83102 0
M  V30 5448 H 520.737 1.95084 -3.44613 0
M  V30 5449 H 521.911 -0.683525 -4.55702 0
M  V30 5450 H 520.226 -0.460774 -4.13843 0
M  V30 5451 H 522.823 2.22471 -4.86221 0
M  V30 5452 H 523.166 2.65669 -3.20508 0
M  V30 5453 H 523.699 1.07683 -3.82948 0
M  V30 5454 H 520.438 -0.176202 -6.55263 0
M  V30 5455 H 519.958 1.37976 -5.83714 0
M  V30 5456 H 521.637 1.12085 -6.37217 0
M  V30 5457 N 521.769 1.56035 0.221574 0
M  V30 5458 C 522.994 1.83476 0.967026 0
M  V30 5459 C 523.419 0.632139 1.7716 0
M  V30 5460 O 522.777 -0.419082 1.7639 0
M  V30 5461 C 522.825 3.08907 1.86034 0
M  V30 5462 O 521.929 2.876 2.95567 0
M  V30 5463 H 521.27 0.604913 0.273817 0
M  V30 5464 H 523.8 2.03247 0.234893 0
M  V30 5465 H 523.81 3.3901 2.27016 0
M  V30 5466 H 522.485 3.96068 1.26898 0
M  V30 5467 H 521.062 2.6873 2.58532 0
M  V30 5468 N 523.247 -0.488276 1.49845 0
M  V30 5469 C 524.21 -1.57069 1.66919 0
M  V30 5470 C 525.21 -1.51445 0.540479 0
M  V30 5471 O 526.4 -1.5437 0.807188 0
M  V30 5472 C 523.532 -2.96718 1.67844 0
M  V30 5473 H 524.725 -1.43254 2.63474 0
M  V30 5474 H 522.278 -0.713435 1.39068 0
M  V30 5475 H 523.013 -3.15996 0.7292 0
M  V30 5476 H 522.798 -3.02208 2.49826 0
M  V30 5477 H 524.288 -3.75335 1.83066 0
M  V30 5478 N 524.725 -1.39134 -0.740242 0
M  V30 5479 C 525.973 -1.35803 -1.49673 0
M  V30 5480 C 526.294 0.0470897 -1.94943 0
M  V30 5481 O 525.564 0.997347 -1.68611 0
M  V30 5482 H 524.144 -0.499736 -0.555224 0
M  V30 5483 H 526.806 -1.73947 -0.879107 0
M  V30 5484 H 525.902 -2.0174 -2.38133 0
M  V30 5485 N 526.204 0.969867 -1.24223 0
M  V30 5486 C 527.434 1.74502 -1.106 0
M  V30 5487 C 527.842 1.86038 0.344483 0
M  V30 5488 O 527.185 1.3465 1.24961 0
M  V30 5489 C 527.247 3.18391 -1.66935 0
M  V30 5490 C 526.911 3.30334 -3.15798 0
M  V30 5491 C 527.908 3.15832 -4.12973 0
M  V30 5492 C 525.593 3.54644 -3.55715 0
M  V30 5493 C 527.587 3.25461 -5.48045 0
M  V30 5494 C 525.274 3.63912 -4.90929 0
M  V30 5495 C 526.272 3.49332 -5.86904 0
M  V30 5496 O 525.96 3.58251 -7.1966 0
M  V30 5497 H 525.692 0.554119 -0.387206 0
M  V30 5498 H 528.246 1.22646 -1.64764 0
M  V30 5499 H 526.476 3.71543 -1.07203 0
M  V30 5500 H 528.165 3.77707 -1.48634 0
M  V30 5501 H 528.931 2.96937 -3.83476 0
M  V30 5502 H 524.81 3.65059 -2.81519 0
M  V30 5503 H 528.354 3.13998 -6.22937 0
M  V30 5504 H 524.251 3.82319 -5.20098 0
M  V30 5505 H 525.019 3.7498 -7.27552 0
M  V30 5506 N 527.682 1.05563 1.17022 0
M  V30 5507 C 528.645 0.664098 2.19368 0
M  V30 5508 C 529.645 -0.286358 1.5823 0
M  V30 5509 O 530.835 -0.069728 1.7406 0
M  V30 5510 C 527.967 -0.0239932 3.40892 0
M  V30 5511 H 529.16 1.57 2.55521 0
M  V30 5512 H 526.713 0.849964 1.31169 0
M  V30 5513 H 527.448 -0.942988 3.10287 0
M  V30 5514 H 527.233 0.659351 3.86516 0
M  V30 5515 H 528.723 -0.283909 4.16634 0
M  V30 5516 N 529.16 -1.33526 0.837174 0
M  V30 5517 C 530.571 -1.80182 0.489017 0
M  V30 5518 C 530.922 -1.69285 -0.991826 0
M  V30 5519 O 530.047 -1.24113 -1.77271 0
M  V30 5520 C 530.642 -3.27149 0.880866 0
M  V30 5521 C 529.201 -3.71828 0.584872 0
M  V30 5522 C 528.348 -2.54974 1.09011 0
M  V30 5523 H 531.299 -1.21071 1.02603 0
M  V30 5524 H 531.32 -3.80024 0.190239 0
M  V30 5525 H 530.832 -3.35048 1.95869 0
M  V30 5526 H 528.933 -3.69457 -0.48295 0
M  V30 5527 H 529.046 -4.65366 1.13892 0
M  V30 5528 H 527.41 -2.4952 0.511047 0
M  V30 5529 H 528.193 -2.65637 2.17467 0
M  V30 5530 N 530.638 -0.59345 -1.46 0
M  V30 5531 C 531.884 -0.0832754 -2.02629 0
M  V30 5532 C 532.217 1.27749 -1.46266 0
M  V30 5533 O 531.492 1.8395 -0.631866 0
M  V30 5534 C 531.775 -0.0290756 -3.60088 0
M  V30 5535 C 531.628 -1.41951 -4.26814 0
M  V30 5536 C 532.947 0.666055 -4.35031 0
M  V30 5537 H 530.066 -0.031736 -0.736316 0
M  V30 5538 H 532.708 -0.762711 -1.74019 0
M  V30 5539 H 530.858 0.549532 -3.84594 0
M  V30 5540 H 532.53 -2.04411 -4.13538 0
M  V30 5541 H 530.773 -1.98422 -3.8576 0
M  V30 5542 H 531.444 -1.33395 -5.3564 0
M  V30 5543 H 533.92 0.174401 -4.15734 0
M  V30 5544 H 532.796 0.673041 -5.44758 0
M  V30 5545 H 533.057 1.72946 -4.06869 0
M  V30 5546 N 532.116 1.54067 -0.331816 0
M  V30 5547 C 533.046 2.27569 0.522932 0
M  V30 5548 C 534.027 1.28679 1.11247 0
M  V30 5549 O 535.212 1.57504 1.13605 0
M  V30 5550 C 532.342 3.0397 1.67987 0
M  V30 5551 C 531.296 4.10267 1.21924 0
M  V30 5552 C 530.622 4.74555 2.46377 0
M  V30 5553 C 531.922 5.21268 0.32815 0
M  V30 5554 H 533.616 2.99264 -0.0901977 0
M  V30 5555 H 531.162 1.4393 -0.044821 0
M  V30 5556 H 533.115 3.54123 2.28418 0
M  V30 5557 H 531.839 2.29906 2.31971 0
M  V30 5558 H 530.498 3.61009 0.637809 0
M  V30 5559 H 530.146 3.97098 3.08743 0
M  V30 5560 H 529.846 5.46363 2.16243 0
M  V30 5561 H 531.37 5.27487 3.07555 0
M  V30 5562 H 532.784 5.67128 0.838978 0
M  V30 5563 H 531.181 5.99982 0.119228 0
M  V30 5564 H 532.251 4.80673 -0.638839 0
M  V30 5565 N 533.594 0.0601682 1.57485 0
M  V30 5566 C 534.871 -0.651956 1.84415 0
M  V30 5567 C 535.251 -1.88498 0.950361 0
M  V30 5568 O 534.599 -2.28496 0.0136719 0
M  V30 5569 C 534.809 -1.00069 3.34346 0
M  V30 5570 C 536.157 -1.37915 4.01578 0
M  V30 5571 O 537.181 -1.09277 3.39024 0
M  V30 5572 O 536.04 -1.91399 5.11887 0
M  V30 5573 H 533.134 -0.322668 0.761455 0
M  V30 5574 H 535.68 0.0902159 1.6946 0
M  V30 5575 H 534.452 -0.124463 3.91102 0
M  V30 5576 H 534.075 -1.80001 3.54521 0
M  V30 5577 N 535.072 -1.5615 -0.213296 0
M  V30 5578 C 536.312 -1.81325 -0.943435 0
M  V30 5579 C 536.676 -0.634934 -1.81198 0
M  V30 5580 O 537.877 -0.766166 -2.5765 0
M  V30 5581 C 536.148 -3.11437 -1.75334 0
M  V30 5582 S 537.707 -3.57955 -2.53799 0
M  V30 5583 H 534.525 -0.636538 -0.316766 0
M  V30 5584 H 537.127 -1.94387 -0.208313 0
M  V30 5585 H 535.831 -3.95228 -1.10556 0
M  V30 5586 H 535.362 -3.01204 -2.53061 0
M  V30 5587 H 537.377 -3.21947 -3.77577 0
M  V30 5588 N 536.55 0.480323 -1.50102 0
M  V30 5589 C 537.5 1.57685 -1.6468 0
M  V30 5590 C 538.484 1.52878 -0.5017 0
M  V30 5591 O 539.676 1.60058 -0.755668 0
M  V30 5592 C 536.805 2.96185 -1.73578 0
M  V30 5593 C 535.891 3.0591 -2.93734 0
M  V30 5594 N 536.282 2.85471 -4.1754 0
M  V30 5595 C 534.58 3.37036 -2.92101 0
M  V30 5596 C 535.281 2.99921 -4.9842 0
M  V30 5597 N 534.257 3.29715 -4.32191 0
M  V30 5598 H 538.059 1.40568 -2.58104 0
M  V30 5599 H 535.573 0.686874 -1.47159 0
M  V30 5600 H 537.57 3.75015 -1.82124 0
M  V30 5601 H 536.23 3.14356 -0.813057 0
M  V30 5602 H 537.241 2.61235 -4.47188 0
M  V30 5603 H 533.918 3.61253 -2.09291 0
M  V30 5604 H 535.308 2.88436 -6.06839 0
M  V30 5605 N 538.028 1.39524 0.732853 0
M  V30 5606 C 539.256 1.40143 1.52209 0
M  V30 5607 C 539.671 -0.00348836 1.888 0
M  V30 5608 O 539.028 -0.975357 1.5425 0
M  V30 5609 C 539.079 2.27632 2.8083 0
M  V30 5610 O 538.8 3.62654 2.45792 0
M  V30 5611 C 540.301 2.36658 3.74844 0
M  V30 5612 H 537.521 0.478604 0.470297 0
M  V30 5613 H 540.065 1.83366 0.905388 0
M  V30 5614 H 538.22 1.87818 3.38826 0
M  V30 5615 H 538.634 4.08941 3.28431 0
M  V30 5616 H 540.108 3.02118 4.61984 0
M  V30 5617 H 540.585 1.38638 4.16745 0
M  V30 5618 H 541.191 2.76951 3.22766 0
M  V30 5619 N 539.506 -0.963266 1.24736 0
M  V30 5620 C 540.469 -2.04013 1.04457 0
M  V30 5621 C 541.469 -1.608 0.000335555 0
M  V30 5622 O 542.659 -1.72515 0.241719 0
M  V30 5623 C 539.791 -3.35858 0.584162 0
M  V30 5624 H 540.984 -2.23436 2.00041 0
M  V30 5625 H 538.537 -1.13914 1.07021 0
M  V30 5626 H 539.272 -3.22128 -0.374673 0
M  V30 5627 H 539.057 -3.68568 1.3379 0
M  V30 5628 H 540.547 -4.1502 0.463451 0
M  V30 5629 N 540.985 -1.06182 -1.16461 0
M  V30 5630 C 541.935 -0.641619 -2.18786 0
M  V30 5631 C 542.919 0.327122 -1.5754 0
M  V30 5632 O 544.111 0.142746 -1.76423 0
M  V30 5633 C 541.24 -0.0283734 -3.43288 0
M  V30 5634 C 540.326 -1.02154 -4.11613 0
M  V30 5635 N 540.717 -2.19671 -4.55608 0
M  V30 5636 C 539.015 -0.852229 -4.37782 0
M  V30 5637 C 539.716 -2.82583 -5.0845 0
M  V30 5638 N 538.692 -2.10318 -5.01266 0
M  V30 5639 H 542.494 -1.53684 -2.50516 0
M  V30 5640 H 540.008 -0.933349 -1.329 0
M  V30 5641 H 542.005 0.29049 -4.15887 0
M  V30 5642 H 540.665 0.862118 -3.13046 0
M  V30 5643 H 541.676 -2.57453 -4.49375 0
M  V30 5644 H 538.353 -0.0136314 -4.17498 0
M  V30 5645 H 539.743 -3.82298 -5.52538 0
M  V30 5646 N 542.463 1.3308 -0.844243 0
M  V30 5647 C 543.712 1.96868 -0.438833 0
M  V30 5648 C 544.025 1.67599 1.00846 0
M  V30 5649 O 545.231 2.25043 1.51881 0
M  V30 5650 C 543.687 3.5234 -0.73377 0
M  V30 5651 C 543.295 3.90481 -2.1961 0
M  V30 5652 C 545.039 4.22653 -0.395574 0
M  V30 5653 C 542.946 5.38954 -2.43481 0
M  V30 5654 H 541.876 0.736749 -0.160364 0
M  V30 5655 H 544.527 1.51623 -1.03358 0
M  V30 5656 H 542.909 3.95941 -0.068589 0
M  V30 5657 H 544.083 3.57922 -2.90221 0
M  V30 5658 H 542.398 3.33165 -2.4978 0
M  V30 5659 H 544.995 5.31848 -0.551477 0
M  V30 5660 H 545.338 4.11004 0.661921 0
M  V30 5661 H 545.871 3.84601 -1.01621 0
M  V30 5662 H 542.61 5.55612 -3.47816 0
M  V30 5663 H 542.13 5.72954 -1.77437 0
M  V30 5664 H 543.809 6.05907 -2.26905 0
M  V30 5665 N 543.941 0.601185 1.45683 0
M  V30 5666 C 544.904 -0.111398 2.28929 0
M  V30 5667 C 545.904 -0.801246 1.39416 0
M  V30 5668 O 547.094 -0.650383 1.61603 0
M  V30 5669 C 544.226 -1.16773 3.20276 0
M  V30 5670 H 545.419 0.620412 2.93413 0
M  V30 5671 H 542.972 0.359946 1.52099 0
M  V30 5672 H 543.707 -1.93051 2.60579 0
M  V30 5673 H 543.492 -0.677358 3.86205 0
M  V30 5674 H 544.982 -1.66698 3.82886 0
M  V30 5675 N 545.419 -1.53889 0.339982 0
M  V30 5676 C 546.659 -2.02765 -0.258011 0
M  V30 5677 C 547.023 -1.22249 -1.48051 0
M  V30 5678 O 548.224 -1.61007 -2.15245 0
M  V30 5679 C 546.495 -3.5286 -0.567872 0
M  V30 5680 S 548.054 -4.23647 -1.14318 0
M  V30 5681 H 544.872 -0.706814 -0.0770389 0
M  V30 5682 H 547.474 -1.89594 0.476917 0
M  V30 5683 H 546.178 -4.09073 0.329745 0
M  V30 5684 H 545.709 -3.70144 -1.33256 0
M  V30 5685 H 547.724 -4.32676 -2.42911 0
M  V30 5686 N 546.897 -0.0685191 -1.57451 0
M  V30 5687 C 547.844 0.899861 -2.12535 0
M  V30 5688 C 548.814 1.29749 -1.03703 0
M  V30 5689 O 549.999 1.38392 -1.31348 0
M  V30 5690 C 547.139 2.16328 -2.6888 0
M  V30 5691 C 546.252 1.81857 -3.91857 0
M  V30 5692 C 545.387 3.02786 -4.36457 0
M  V30 5693 C 544.426 2.64317 -5.5209 0
M  V30 5694 N 543.563 3.77994 -5.91663 0
M  V30 5695 H 548.403 0.423243 -2.94979 0
M  V30 5696 H 545.94 0.197268 -1.45771 0
M  V30 5697 H 547.898 2.90281 -2.99655 0
M  V30 5698 H 546.528 2.61536 -1.89206 0
M  V30 5699 H 545.58 0.979808 -3.67565 0
M  V30 5700 H 546.892 1.49553 -4.75852 0
M  V30 5701 H 546.046 3.85021 -4.68875 0
M  V30 5702 H 544.785 3.38281 -3.51308 0
M  V30 5703 H 543.79 1.80503 -5.19325 0
M  V30 5704 H 545.015 2.29995 -6.38967 0
M  V30 5705 H 542.961 4.13258 -5.09464 0
M  V30 5706 H 542.878 3.49447 -6.7039 0
M  V30 5707 H 544.146 4.60818 -6.28703 0
M  V30 5708 N 548.375 1.56261 0.205012 0
M  V30 5709 C 549.622 1.8004 0.926927 0
M  V30 5710 C 549.95 0.640086 1.83666 0
M  V30 5711 O 549.205 -0.374702 1.92079 0
M  V30 5712 C 549.504 3.09722 1.78345 0
M  V30 5713 C 549.17 4.39082 1.02555 0
M  V30 5714 C 547.832 4.74226 0.816256 0
M  V30 5715 C 550.184 5.18877 0.491559 0
M  V30 5716 C 547.512 5.86668 0.0613287 0
M  V30 5717 C 549.864 6.32105 -0.250107 0
M  V30 5718 C 548.528 6.6584 -0.470508 0
M  V30 5719 H 547.798 0.658812 0.339187 0
M  V30 5720 H 550.445 1.90515 0.19395 0
M  V30 5721 H 548.75 2.9444 2.5848 0
M  V30 5722 H 550.447 3.25324 2.34446 0
M  V30 5723 H 547.037 4.11497 1.19868 0
M  V30 5724 H 551.221 4.92147 0.640684 0
M  V30 5725 H 546.477 6.11283 -0.119501 0
M  V30 5726 H 550.651 6.93157 -0.671307 0
M  V30 5727 H 548.278 7.5281 -1.05739 0
M  V30 5728 N 549.853 -0.472356 1.50355 0
M  V30 5729 C 550.816 -1.5529 1.68576 0
M  V30 5730 C 551.816 -1.50863 0.556511 0
M  V30 5731 O 553.006 -1.53505 0.823516 0
M  V30 5732 C 550.138 -2.94921 1.70981 0
M  V30 5733 H 551.331 -1.40451 2.64978 0
M  V30 5734 H 548.884 -0.698645 1.39816 0
M  V30 5735 H 549.619 -3.15204 0.762675 0
M  V30 5736 H 549.404 -2.99541 2.53017 0
M  V30 5737 H 550.894 -3.73372 1.87037 0
M  V30 5738 N 551.331 -1.39911 -0.725443 0
M  V30 5739 C 552.241 -1.41688 -1.8698 0
M  V30 5740 C 553.257 -0.310579 -1.71206 0
M  V30 5741 O 554.433 -0.55359 -1.93642 0
M  V30 5742 C 551.498 -1.26811 -3.22676 0
M  V30 5743 C 550.559 -2.47497 -3.50776 0
M  V30 5744 C 549.792 -2.3332 -4.79997 0
M  V30 5745 O 550.015 -1.34175 -5.54394 0
M  V30 5746 O 548.949 -3.22498 -5.08211 0
M  V30 5747 H 552.775 -2.38171 -1.88436 0
M  V30 5748 H 550.36 -1.21128 -0.874548 0
M  V30 5749 H 552.242 -1.20684 -4.03749 0
M  V30 5750 H 550.917 -0.334289 -3.21969 0
M  V30 5751 H 549.824 -2.59201 -2.69751 0
M  V30 5752 H 551.157 -3.39606 -3.5627 0
M  V30 5753 N 552.809 0.956637 -1.25245 0
M  V30 5754 C 553.739 2.07058 -1.07931 0
M  V30 5755 C 554.72 1.70096 0.0110361 0
M  V30 5756 O 555.905 1.93555 -0.158121 0
M  V30 5757 C 553.035 3.40272 -0.695124 0
M  V30 5758 C 551.989 3.91235 -1.73549 0
M  V30 5759 C 551.315 5.20921 -1.20604 0
M  V30 5760 C 552.615 4.17837 -3.13385 0
M  V30 5761 H 554.309 2.218 -2.01109 0
M  V30 5762 H 551.855 1.06581 -0.968326 0
M  V30 5763 H 553.808 4.1765 -0.560949 0
M  V30 5764 H 552.532 3.25462 0.272355 0
M  V30 5765 H 551.191 3.16025 -1.85807 0
M  V30 5766 H 550.839 5.02479 -0.228846 0
M  V30 5767 H 550.539 5.55987 -1.90136 0
M  V30 5768 H 552.063 6.00897 -1.08421 0
M  V30 5769 H 553.477 4.8588 -3.04292 0
M  V30 5770 H 551.874 4.64154 -3.80369 0
M  V30 5771 H 552.944 3.2419 -3.60595 0
M  V30 5772 N 554.287 1.06798 1.15896 0
M  V30 5773 C 555.234 0.683314 2.20453 0
M  V30 5774 C 556.204 -0.32255 1.62938 0
M  V30 5775 O 557.389 -0.210276 1.89638 0
M  V30 5776 C 554.529 0.0813266 3.45004 0
M  V30 5777 C 553.642 1.13799 4.16742 0
M  V30 5778 C 552.777 0.501598 5.28826 0
M  V30 5779 C 551.816 1.54144 5.92373 0
M  V30 5780 N 550.953 0.928038 6.9594 0
M  V30 5781 H 555.793 1.57932 2.52708 0
M  V30 5782 H 553.33 0.789544 1.24115 0
M  V30 5783 H 555.288 -0.285274 4.16224 0
M  V30 5784 H 553.918 -0.77806 3.13283 0
M  V30 5785 H 552.97 1.62223 3.44075 0
M  V30 5786 H 554.282 1.92664 4.60089 0
M  V30 5787 H 553.436 0.0823162 6.06644 0
M  V30 5788 H 552.175 -0.318883 4.86656 0
M  V30 5789 H 551.18 1.97056 5.13273 0
M  V30 5790 H 552.405 2.3641 6.36621 0
M  V30 5791 H 550.351 0.12836 6.55874 0
M  V30 5792 H 550.268 1.65401 7.37685 0
M  V30 5793 H 551.536 0.534071 7.77668 0
M  V30 5794 N 555.766 -1.3263 0.851289 0
M  V30 5795 C 556.676 -2.32722 0.296268 0
M  V30 5796 C 557.692 -1.63901 -0.584162 0
M  V30 5797 O 558.868 -1.95465 -0.485334 0
M  V30 5798 C 555.933 -3.42942 -0.509103 0
M  V30 5799 C 554.994 -4.2746 0.397069 0
M  V30 5800 C 554.227 -5.32416 -0.36996 0
M  V30 5801 O 554.45 -5.47491 -1.6003 0
M  V30 5802 O 553.384 -6.01327 0.262493 0
M  V30 5803 H 557.21 -2.82078 1.12543 0
M  V30 5804 H 554.795 -1.36194 0.614135 0
M  V30 5805 H 556.677 -4.1017 -0.96634 0
M  V30 5806 H 555.352 -2.95781 -1.31512 0
M  V30 5807 H 554.259 -3.63053 0.902411 0
M  V30 5808 H 555.592 -4.78136 1.16818 0
M  V30 5809 N 557.244 -0.608902 -1.45362 0
M  V30 5810 C 558.191 0.109172 -2.30542 0
M  V30 5811 C 559.161 0.858704 -1.42181 0
M  V30 5812 O 560.346 0.844178 -1.71109 0
M  V30 5813 C 557.486 1.09971 -3.27109 0
M  V30 5814 C 556.599 0.350911 -4.30572 0
M  V30 5815 C 555.734 1.33129 -5.14247 0
M  V30 5816 C 554.773 0.570377 -6.09437 0
M  V30 5817 N 553.91 1.5001 -6.85887 0
M  V30 5818 H 558.75 -0.623195 -2.91411 0
M  V30 5819 H 556.287 -0.319122 -1.43597 0
M  V30 5820 H 558.245 1.68714 -3.81564 0
M  V30 5821 H 556.875 1.79947 -2.67991 0
M  V30 5822 H 555.927 -0.352054 -3.78767 0
M  V30 5823 H 557.239 -0.242725 -4.98209 0
M  V30 5824 H 556.393 1.99074 -5.73109 0
M  V30 5825 H 555.132 1.95885 -4.46632 0
M  V30 5826 H 554.137 -0.102702 -5.49704 0
M  V30 5827 H 555.362 -0.0521607 -6.7908 0
M  V30 5828 H 553.308 2.11529 -6.2096 0
M  V30 5829 H 553.225 0.959934 -7.49881 0
M  V30 5830 H 554.493 2.14909 -7.49289 0
M  V30 5831 N 558.722 1.53707 -0.348139 0
M  V30 5832 C 559.971 2.0017 0.247992 0
M  V30 5833 C 560.284 1.23983 1.51286 0
M  V30 5834 O 561.49 1.60946 2.18652 0
M  V30 5835 C 559.946 3.56515 0.492459 0
M  V30 5836 C 559.554 4.41562 -0.756777 0
M  V30 5837 C 561.298 4.11381 1.0472 0
M  V30 5838 C 559.205 5.89426 -0.482856 0
M  V30 5839 H 558.135 0.747806 0.0964452 0
M  V30 5840 H 560.786 1.77532 -0.464179 0
M  V30 5841 H 559.168 3.75236 1.26545 0
M  V30 5842 H 560.342 4.34615 -1.53122 0
M  V30 5843 H 558.657 3.97711 -1.23348 0
M  V30 5844 H 561.254 5.19468 1.26717 0
M  V30 5845 H 561.597 3.64885 2.00411 0
M  V30 5846 H 562.13 3.96389 0.334801 0
M  V30 5847 H 558.869 6.40164 -1.40962 0
M  V30 5848 H 558.389 5.99264 0.253416 0
M  V30 5849 H 560.068 6.4692 -0.101816 0
M  V30 5850 N 560.2 0.0768682 1.57412 0
M  V30 5851 C 561.477 -0.632359 1.85096 0
M  V30 5852 C 561.857 -1.87479 0.9703 0
M  V30 5853 O 561.205 -2.28469 0.0379062 0
M  V30 5854 C 561.415 -0.965174 3.35388 0
M  V30 5855 C 562.763 -1.33648 4.03018 0
M  V30 5856 O 563.787 -1.05675 3.40164 0
M  V30 5857 O 562.646 -1.85959 5.13889 0
M  V30 5858 H 559.74 -0.314574 0.764835 0
M  V30 5859 H 562.286 0.108184 1.69355 0
M  V30 5860 H 561.058 -0.0829745 3.91212 0
M  V30 5861 H 560.681 -1.76231 3.5641 0
M  V30 5862 N 561.678 -1.56367 -0.196722 0
M  V30 5863 C 563.094 -1.49916 -0.54749 0
M  V30 5864 C 563.294 -0.77659 -1.85934 0
M  V30 5865 O 562.35 -0.32644 -2.50381 0
M  V30 5866 C 563.663 -2.94577 -0.603734 0
M  V30 5867 C 565.211 -3.05239 -0.692677 0
M  V30 5868 C 565.686 -4.51308 -0.780046 0
M  V30 5869 N 567.177 -4.55453 -0.843616 0
M  V30 5870 C 567.912 -5.65786 -0.931358 0
M  V30 5871 N 567.408 -6.85812 -0.981503 0
M  V30 5872 N 569.201 -5.53695 -0.968421 0
M  V30 5873 H 561.352 -2.01761 0.663803 0
M  V30 5874 H 563.615 -0.918094 0.236238 0
M  V30 5875 H 563.321 -3.50494 0.29105 0
M  V30 5876 H 563.195 -3.47841 -1.45898 0
M  V30 5877 H 565.582 -2.49372 -1.57789 0
M  V30 5878 H 565.663 -2.55103 0.188736 0
M  V30 5879 H 565.307 -5.078 0.100811 0
M  V30 5880 H 565.237 -4.99176 -1.67724 0
M  V30 5881 H 567.728 -3.69025 -0.814176 0
M  V30 5882 H 568.041 -7.65648 -1.04892 0
M  V30 5883 H 566.386 -6.88474 -0.950208 0
M  V30 5884 H 569.577 -4.58848 -0.926072 0
M  V30 5885 H 569.75 -6.39708 -1.03334 0
M  V30 5886 N 563.156 0.464375 -1.50603 0
M  V30 5887 C 564.572 0.798684 -1.38178 0
M  V30 5888 C 564.772 1.96568 -0.44308 0
M  V30 5889 O 563.828 2.52252 0.111814 0
M  V30 5890 C 565.141 1.10444 -2.79683 0
M  V30 5891 C 566.689 1.2105 -2.88645 0
M  V30 5892 C 567.164 1.54934 -4.30998 0
M  V30 5893 N 568.655 1.61913 -4.3398 0
M  V30 5894 C 569.39 1.8965 -5.41129 0
M  V30 5895 N 568.886 2.15361 -6.58477 0
M  V30 5896 N 570.679 1.91207 -5.28579 0
M  V30 5897 H 562.83 -0.304603 -2.10204 0
M  V30 5898 H 565.093 -0.0737804 -0.945125 0
M  V30 5899 H 564.799 0.319934 -3.50242 0
M  V30 5900 H 564.673 2.03896 -3.17342 0
M  V30 5901 H 567.06 1.98567 -2.18301 0
M  V30 5902 H 567.141 0.255613 -2.5452 0
M  V30 5903 H 566.785 0.779549 -5.01882 0
M  V30 5904 H 566.715 2.51584 -4.62615 0
M  V30 5905 H 569.206 1.44055 -3.49366 0
M  V30 5906 H 569.519 2.35818 -7.35941 0
M  V30 5907 H 567.864 2.1274 -6.6164 0
M  V30 5908 H 571.055 1.70622 -4.35897 0
M  V30 5909 H 571.228 2.12488 -6.12171 0
M  V30 5910 N 564.634 1.40294 0.718013 0
M  V30 5911 C 565.859 1.41941 1.5122 0
M  V30 5912 C 566.284 0.0202371 1.88089 0
M  V30 5913 O 565.642 -0.971078 1.53101 0
M  V30 5914 C 565.69 2.3141 2.76554 0
M  V30 5915 O 564.794 1.75567 3.73162 0
M  V30 5916 H 564.135 0.482644 0.456016 0
M  V30 5917 H 566.665 1.84494 0.884478 0
M  V30 5918 H 566.675 2.46513 3.25108 0
M  V30 5919 H 565.35 3.33085 2.49053 0
M  V30 5920 H 563.927 1.69798 3.31999 0
M  V30 5921 N 566.112 -0.949982 1.2575 0
M  V30 5922 C 567.36 -1.6918 1.10555 0
M  V30 5923 C 567.681 -1.91773 -0.353298 0
M  V30 5924 O 566.951 -1.50814 -1.25027 0
M  V30 5925 H 565.531 -0.626952 0.406129 0
M  V30 5926 H 568.193 -1.1419 1.57945 0
M  V30 5927 H 567.289 -2.66915 1.61749 0
M  V30 5928 N 567.59 -1.07411 -1.15328 0
M  V30 5929 C 568.537 -0.694995 -2.20087 0
M  V30 5930 C 569.507 0.313904 -1.63107 0
M  V30 5931 O 570.692 0.200216 -1.89747 0
M  V30 5932 C 567.832 -0.0996218 -3.44956 0
M  V30 5933 C 566.945 -1.16007 -4.16133 0
M  V30 5934 C 566.08 -0.529636 -5.28553 0
M  V30 5935 C 565.119 -1.57283 -5.91548 0
M  V30 5936 N 564.256 -0.964932 -6.95438 0
M  V30 5937 H 569.096 -1.5927 -2.51867 0
M  V30 5938 H 566.633 -0.796115 -1.23695 0
M  V30 5939 H 568.591 0.263197 -4.16369 0
M  V30 5940 H 567.221 0.761435 -3.13691 0
M  V30 5941 H 566.273 -1.64045 -3.4321 0
M  V30 5942 H 567.585 -1.95101 -4.59061 0
M  V30 5943 H 566.739 -0.114487 -6.06592 0
M  V30 5944 H 565.478 0.29307 -4.86819 0
M  V30 5945 H 564.483 -1.99775 -5.12221 0
M  V30 5946 H 565.708 -2.39783 -6.35359 0
M  V30 5947 H 563.654 -0.16314 -6.55797 0
M  V30 5948 H 563.571 -1.69311 -7.36797 0
M  V30 5949 H 564.839 -0.575305 -7.77374 0
M  V30 5950 N 569.068 1.32177 -0.85831 0
M  V30 5951 C 570.015 2.28794 -0.303607 0
M  V30 5952 C 570.985 1.55213 0.591453 0
M  V30 5953 O 572.17 1.83418 0.525585 0
M  V30 5954 C 569.31 3.41475 0.49889 0
M  V30 5955 C 568.423 4.2993 -0.422373 0
M  V30 5956 C 567.558 5.29743 0.393111 0
M  V30 5957 C 566.597 6.09842 -0.525317 0
M  V30 5958 N 565.734 7.01643 0.253208 0
M  V30 5959 H 570.574 2.75631 -1.13276 0
M  V30 5960 H 568.111 1.35606 -0.570026 0
M  V30 5961 H 570.069 4.05531 0.979826 0
M  V30 5962 H 568.699 2.95779 1.29284 0
M  V30 5963 H 567.751 3.66422 -1.02171 0
M  V30 5964 H 569.063 4.85899 -1.12709 0
M  V30 5965 H 568.217 5.9942 0.937056 0
M  V30 5966 H 566.956 4.744 1.13117 0
M  V30 5967 H 565.961 5.39066 -1.08112 0
M  V30 5968 H 567.186 6.6727 -1.26205 0
M  V30 5969 H 565.132 6.48725 0.974295 0
M  V30 5970 H 565.049 7.54981 -0.392398 0
M  V30 5971 H 566.317 7.756 0.778761 0
M  V30 5972 N 570.547 0.616602 1.45037 0
M  V30 5973 C 571.477 -0.0840787 2.33349 0
M  V30 5974 C 572.458 -0.849641 1.4736 0
M  V30 5975 O 573.643 -0.818407 1.76113 0
M  V30 5976 C 570.773 -1.07604 3.3021 0
M  V30 5977 C 569.727 -0.423096 4.25904 0
M  V30 5978 C 569.053 -1.52394 5.12523 0
M  V30 5979 C 570.353 0.661457 5.18095 0
M  V30 5980 H 572.047 0.653333 2.92185 0
M  V30 5981 H 569.593 0.315634 1.40498 0
M  V30 5982 H 571.546 -1.57485 3.90866 0
M  V30 5983 H 570.27 -1.84416 2.69552 0
M  V30 5984 H 568.929 0.05493 3.66559 0
M  V30 5985 H 568.577 -2.28257 4.48227 0
M  V30 5986 H 568.277 -1.09251 5.77354 0
M  V30 5987 H 569.801 -2.02485 5.76049 0
M  V30 5988 H 571.215 0.246353 5.7277 0
M  V30 5989 H 569.612 1.01517 5.91451 0
M  V30 5990 H 570.682 1.53446 4.59981 0
M  V30 5991 N 572.025 -1.5352 0.356285 0
M  V30 5992 C 572.935 -2.29151 -0.502712 0
M  V30 5993 C 573.951 -1.34753 -1.1008 0
M  V30 5994 O 575.127 -1.67803 -1.11374 0
M  V30 5995 C 572.192 -3.05911 -1.63154 0
M  V30 5996 C 571.253 -4.15958 -1.06194 0
M  V30 5997 C 570.486 -4.8905 -2.13696 0
M  V30 5998 O 570.709 -4.61919 -3.34645 0
M  V30 5999 O 569.643 -5.75202 -1.77275 0
M  V30 6000 H 573.469 -3.03492 0.112466 0
M  V30 6001 H 571.054 -1.4891 0.120942 0
M  V30 6002 H 572.936 -3.53874 -2.28804 0
M  V30 6003 H 571.611 -2.34415 -2.23229 0
M  V30 6004 H 570.518 -3.7227 -0.369603 0
M  V30 6005 H 571.851 -4.89593 -0.505872 0
M  V30 6006 N 573.503 -0.0852151 -1.57369 0
M  V30 6007 C 574.78 0.622534 -1.85429 0
M  V30 6008 C 575.16 1.86962 -0.980229 0
M  V30 6009 O 574.508 2.28445 -0.0500219 0
M  V30 6010 C 574.718 0.947374 -3.35896 0
M  V30 6011 C 576.066 1.31509 -4.03721 0
M  V30 6012 O 577.09 1.03869 -3.40719 0
M  V30 6013 O 575.949 1.83231 -5.14868 0
M  V30 6014 H 573.043 0.310513 -0.766492 0
M  V30 6015 H 575.589 -0.117164 -1.69295 0
M  V30 6016 H 574.361 0.0622264 -3.91251 0
M  V30 6017 H 573.984 1.74338 -3.5734 0
M  V30 6018 N 574.981 1.5647 0.188427 0
M  V30 6019 C 576.229 1.80655 0.905986 0
M  V30 6020 C 576.55 0.659391 1.83513 0
M  V30 6021 O 575.82 -0.321868 1.93238 0
M  V30 6022 H 574.4 0.666391 0.337538 0
M  V30 6023 H 577.062 1.93949 0.192339 0
M  V30 6024 H 576.158 2.74066 1.49313 0
M  V30 6025 N 576.459 -0.456382 1.50847 0
M  V30 6026 C 577.87 -1.03685 1.55262 0
M  V30 6027 C 578.221 -1.92779 0.364771 0
M  V30 6028 O 577.346 -2.10043 -0.52068 0
M  V30 6029 C 577.941 -1.88718 2.81374 0
M  V30 6030 C 576.5 -2.41847 2.88422 0
M  V30 6031 C 575.647 -1.20564 2.49719 0
M  V30 6032 H 578.598 -0.238399 1.56899 0
M  V30 6033 H 578.619 -2.73957 2.6406 0
M  V30 6034 H 578.131 -1.23847 3.67809 0
M  V30 6035 H 576.232 -3.10228 2.06372 0
M  V30 6036 H 576.345 -2.75947 3.9165 0
M  V30 6037 H 574.709 -1.54504 2.02486 0
M  V30 6038 H 575.492 -0.573326 3.38479 0
M  V30 6039 N 577.937 -1.40673 -0.710563 0
M  V30 6040 C 578.884 -1.41336 -1.82463 0
M  V30 6041 C 579.854 -0.269648 -1.63897 0
M  V30 6042 O 581.039 -0.468463 -1.8496 0
M  V30 6043 C 578.179 -1.28665 -3.20218 0
M  V30 6044 C 577.292 -2.52784 -3.5032 0
M  V30 6045 C 576.427 -2.32517 -4.77608 0
M  V30 6046 C 575.466 -3.52187 -5.0063 0
M  V30 6047 N 574.603 -3.31084 -6.19135 0
M  V30 6048 H 579.443 -2.36558 -1.8123 0
M  V30 6049 H 576.98 -1.17483 -0.885226 0
M  V30 6050 H 578.938 -1.19324 -3.99772 0
M  V30 6051 H 577.568 -0.370602 -3.20666 0
M  V30 6052 H 576.62 -2.72634 -2.65283 0
M  V30 6053 H 577.932 -3.41845 -3.63241 0
M  V30 6054 H 577.086 -2.20558 -5.65189 0
M  V30 6055 H 575.825 -1.40889 -4.66906 0
M  V30 6056 H 574.83 -3.64617 -4.11502 0
M  V30 6057 H 576.055 -4.44749 -5.13201 0
M  V30 6058 H 574.001 -2.42143 -6.09674 0
M  V30 6059 H 573.918 -4.13713 -6.32754 0
M  V30 6060 H 575.186 -3.22868 -7.0949 0
M  V30 6061 N 579.415 0.9433 -1.26252 0
M  V30 6062 C 580.662 1.68925 -1.11672 0
M  V30 6063 C 580.99 1.91499 0.340329 0
M  V30 6064 O 580.245 1.49189 1.26653 0
M  V30 6065 C 580.544 3.07073 -1.82868 0
M  V30 6066 C 580.21 3.04262 -3.32769 0
M  V30 6067 C 578.872 3.03203 -3.7366 0
M  V30 6068 C 581.224 2.96729 -4.28487 0
M  V30 6069 C 578.552 2.92373 -5.0866 0
M  V30 6070 C 580.904 2.87442 -5.63525 0
M  V30 6071 C 579.568 2.84724 -6.03729 0
M  V30 6072 H 578.838 0.618141 -0.408635 0
M  V30 6073 H 581.485 1.10124 -1.56668 0
M  V30 6074 H 579.79 3.69486 -1.30335 0
M  V30 6075 H 581.487 3.63635 -1.69029 0
M  V30 6076 H 578.077 3.05865 -3.00241 0
M  V30 6077 H 582.261 2.96658 -3.97879 0
M  V30 6078 H 577.517 2.88645 -5.38975 0
M  V30 6079 H 581.691 2.80576 -6.37377 0
M  V30 6080 H 579.318 2.76089 -7.08293 0
M  V30 6081 N 580.893 1.08022 1.14757 0
M  V30 6082 C 581.823 0.728248 2.21853 0
M  V30 6083 C 582.804 -0.287486 1.67653 0
M  V30 6084 O 583.989 -0.158727 1.9355 0
M  V30 6085 C 581.119 0.132549 3.47047 0
M  V30 6086 C 580.073 1.07619 4.14249 0
M  V30 6087 C 579.399 0.342907 5.33599 0
M  V30 6088 C 580.699 2.41268 4.63235 0
M  V30 6089 H 582.393 1.62365 2.51551 0
M  V30 6090 H 579.939 0.782125 1.20908 0
M  V30 6091 H 581.892 -0.125665 4.21213 0
M  V30 6092 H 580.616 -0.797971 3.16702 0
M  V30 6093 H 579.275 1.31944 3.42033 0
M  V30 6094 H 578.923 -0.59129 4.99513 0
M  V30 6095 H 578.623 0.971955 5.79506 0
M  V30 6096 H 580.147 0.0926538 6.1053 0
M  V30 6097 H 581.561 2.21232 5.28894 0
M  V30 6098 H 579.958 2.9983 5.19829 0
M  V30 6099 H 581.028 3.03079 3.78512 0
M  V30 6100 N 582.371 -1.3172 0.865308 0
M  V30 6101 C 583.318 -2.2863 0.315736 0
M  V30 6102 C 584.288 -1.55524 -0.583213 0
M  V30 6103 O 585.473 -1.83694 -0.51585 0
M  V30 6104 C 582.613 -3.41735 -0.480773 0
M  V30 6105 C 581.726 -4.297 0.445167 0
M  V30 6106 C 580.861 -5.29944 -0.365012 0
M  V30 6107 C 579.9 -6.09554 0.557651 0
M  V30 6108 N 579.037 -7.01768 -0.215994 0
M  V30 6109 H 583.877 -2.75026 1.14736 0
M  V30 6110 H 581.414 -1.35302 0.577209 0
M  V30 6111 H 583.372 -4.06045 -0.958306 0
M  V30 6112 H 582.002 -2.96461 -1.27714 0
M  V30 6113 H 581.054 -3.65875 1.04113 0
M  V30 6114 H 582.366 -4.85295 1.15284 0
M  V30 6115 H 581.52 -5.99908 -0.905255 0
M  V30 6116 H 580.259 -4.74994 -1.106 0
M  V30 6117 H 579.264 -5.38485 1.10969 0
M  V30 6118 H 580.489 -6.66591 1.29742 0
M  V30 6119 H 578.435 -6.49232 -0.939878 0
M  V30 6120 H 578.352 -7.54762 0.432431 0
M  V30 6121 H 579.62 -7.76002 -0.737618 0
M  V30 6122 N 583.85 -0.624285 -1.44708 0
M  V30 6123 C 585.075 -0.131171 -2.06985 0
M  V30 6124 C 585.5 1.18234 -1.46295 0
M  V30 6125 O 584.858 1.72375 -0.561842 0
M  V30 6126 C 584.906 -0.0226724 -3.60593 0
M  V30 6127 O 584.01 1.02314 -3.99507 0
M  V30 6128 H 583.351 -0.0816556 -0.65896 0
M  V30 6129 H 585.88 -0.859027 -1.85693 0
M  V30 6130 H 585.891 0.170138 -4.07645 0
M  V30 6131 H 584.566 -0.981685 -4.04148 0
M  V30 6132 H 583.143 0.805452 -3.64097 0
M  V30 6133 N 585.328 1.53329 -0.364422 0
M  V30 6134 C 586.576 2.00842 0.225189 0
M  V30 6135 C 586.897 1.25345 1.49378 0
M  V30 6136 O 586.167 0.366396 1.92443 0
M  V30 6137 H 584.747 0.742009 0.0862027 0
M  V30 6138 H 587.409 1.8863 -0.490389 0
M  V30 6139 H 586.505 3.08795 0.452987 0
M  V30 6140 N 586.806 0.0935595 1.57322 0
M  V30 6141 C 588.083 -0.612692 1.85756 0
M  V30 6142 C 588.463 -1.86439 0.99013 0
M  V30 6143 O 587.811 -2.28416 0.0621362 0
M  V30 6144 C 588.021 -0.929547 3.36393 0
M  V30 6145 C 589.369 -1.29366 4.04413 0
M  V30 6146 O 590.393 -1.02061 3.41265 0
M  V30 6147 O 589.252 -1.80498 5.15832 0
M  V30 6148 H 586.346 -0.306444 0.768128 0
M  V30 6149 H 588.892 0.126141 1.69231 0
M  V30 6150 H 587.664 -0.0414766 3.91278 0
M  V30 6151 H 587.287 -1.72441 3.5826 0
M  V30 6152 N 588.284 -1.56567 -0.180126 0
M  V30 6153 C 589.247 -1.94852 -1.20686 0
M  V30 6154 C 590.247 -0.831212 -1.3765 0
M  V30 6155 O 591.437 -1.09841 -1.35206 0
M  V30 6156 C 588.569 -2.23565 -2.57355 0
M  V30 6157 H 589.762 -2.86722 -0.879225 0
M  V30 6158 H 587.315 -1.50489 -0.422237 0
M  V30 6159 H 588.05 -1.34381 -2.95148 0
M  V30 6160 H 587.835 -3.04999 -2.46411 0
M  V30 6161 H 589.325 -2.54137 -3.31367 0
M  V30 6162 N 589.762 0.448376 -1.51087 0
M  V30 6163 C 590.725 1.52588 -1.71025 0
M  V30 6164 C 591.725 1.49958 -0.580442 0
M  V30 6165 O 592.915 1.52176 -0.847833 0
M  V30 6166 C 590.047 2.92163 -1.75652 0
M  V30 6167 H 591.24 1.36218 -2.67179 0
M  V30 6168 H 588.793 0.676313 -1.4091 0
M  V30 6169 H 589.528 3.13951 -0.812724 0
M  V30 6170 H 589.313 2.95478 -2.57751 0
M  V30 6171 H 590.803 3.70349 -1.92953 0
M  V30 6172 N 591.24 1.41047 0.703093 0
M  V30 6173 C 592.489 1.39301 1.4587 0
M  V30 6174 C 592.802 0.00267077 1.956 0
M  V30 6175 O 594.008 -0.137414 2.71152 0
M  V30 6176 C 592.464 2.44891 2.63735 0
M  V30 6177 C 592.072 3.89796 2.20824 0
M  V30 6178 C 593.816 2.5227 3.41409 0
M  V30 6179 C 591.723 4.86955 3.35602 0
M  V30 6180 H 590.653 0.518005 0.547893 0
M  V30 6181 H 593.304 1.66839 0.764009 0
M  V30 6182 H 591.686 2.10472 3.35436 0
M  V30 6183 H 592.86 4.33424 1.56461 0
M  V30 6184 H 591.175 3.86008 1.56163 0
M  V30 6185 H 593.772 3.22044 4.26839 0
M  V30 6186 H 594.115 1.55714 3.86081 0
M  V30 6187 H 594.648 2.85742 2.7676 0
M  V30 6188 H 591.387 5.84888 2.9595 0
M  V30 6189 H 590.907 4.47982 3.98839 0
M  V30 6190 H 592.586 5.07361 4.01489 0
M  V30 6191 N 592.718 -0.936591 1.26751 0
M  V30 6192 C 593.964 -1.6858 1.12733 0
M  V30 6193 C 594.297 -1.91414 -0.327745 0
M  V30 6194 O 593.572 -1.49812 -1.24043 0
M  V30 6195 C 593.855 -3.05779 1.90187 0
M  V30 6196 C 593.708 -2.90242 3.43627 0
M  V30 6197 C 595.027 -4.0597 1.69931 0
M  V30 6198 H 592.146 -0.61182 0.410908 0
M  V30 6199 H 594.788 -1.08747 1.55801 0
M  V30 6200 H 592.938 -3.56853 1.53584 0
M  V30 6201 H 594.61 -2.46354 3.9001 0
M  V30 6202 H 592.853 -2.2577 3.70419 0
M  V30 6203 H 593.524 -3.87572 3.93055 0
M  V30 6204 H 596 -3.63874 2.0183 0
M  V30 6205 H 594.876 -4.99974 2.26534 0
M  V30 6206 H 595.137 -4.37369 0.64502 0
M  V30 6207 N 594.196 -1.08629 -1.14182 0
M  V30 6208 C 595.473 -0.73002 -1.81466 0
M  V30 6209 C 595.853 0.785996 -1.95922 0
M  V30 6210 O 595.201 1.70535 -1.52086 0
M  V30 6211 C 595.411 -1.45957 -3.17014 0
M  V30 6212 C 596.759 -1.62008 -3.92477 0
M  V30 6213 O 597.783 -1.42141 -3.26611 0
M  V30 6214 O 596.642 -1.94806 -5.106 0
M  V30 6215 H 593.736 -0.261307 -0.784632 0
M  V30 6216 H 596.282 -1.188 -1.2118 0
M  V30 6217 H 595.054 -2.49221 -3.01669 0
M  V30 6218 H 594.677 -0.993222 -3.84995 0
M  V30 6219 N 595.674 1.31259 -0.872281 0
M  V30 6220 C 596.607 2.26544 -0.274394 0
M  V30 6221 C 597.585 1.51213 0.597776 0
M  V30 6222 O 598.769 1.80277 0.550687 0
M  V30 6223 C 595.896 3.33139 0.611256 0
M  V30 6224 C 594.942 4.26077 -0.189876 0
M  V30 6225 S 595.775 5.11971 -1.56989 0
M  V30 6226 C 596.931 6.2208 -0.690427 0
M  V30 6227 H 597.164 2.76908 -1.0821 0
M  V30 6228 H 594.697 1.3906 -0.670939 0
M  V30 6229 H 596.655 3.95024 1.11654 0
M  V30 6230 H 595.316 2.81525 1.39294 0
M  V30 6231 H 594.509 5.01657 0.485433 0
M  V30 6232 H 594.111 3.68701 -0.627339 0
M  V30 6233 H 596.403 6.77429 0.098001 0
M  V30 6234 H 597.346 6.93768 -1.41742 0
M  V30 6235 H 597.754 5.63915 -0.256953 0
M  V30 6236 N 597.152 0.631951 1.44375 0
M  V30 6237 C 598.398 0.13697 2.02337 0
M  V30 6238 C 598.731 -1.23826 1.49602 0
M  V30 6239 O 598.006 -1.8221 0.680415 0
M  V30 6240 C 598.289 0.124536 3.59885 0
M  V30 6241 C 598.142 1.53217 4.229 0
M  V30 6242 C 599.461 -0.550481 4.36644 0
M  V30 6243 H 596.58 0.051247 0.735216 0
M  V30 6244 H 599.222 0.808581 1.71936 0
M  V30 6245 H 597.372 -0.44737 3.85916 0
M  V30 6246 H 599.044 2.15303 4.07973 0
M  V30 6247 H 597.287 2.0858 3.80364 0
M  V30 6248 H 597.958 1.4755 5.31914 0
M  V30 6249 H 600.434 -0.0641154 4.16051 0
M  V30 6250 H 599.31 -0.528371 5.46351 0
M  V30 6251 H 599.571 -1.62097 4.11311 0
M  V30 6252 N 598.631 -1.53133 0.372548 0
M  V30 6253 C 600.042 -1.86404 -0.105155 0
M  V30 6254 C 600.393 -1.29289 -1.47576 0
M  V30 6255 O 599.518 -0.617646 -2.07398 0
M  V30 6256 C 600.113 -3.38223 -0.197588 0
M  V30 6257 C 598.672 -3.71266 -0.619556 0
M  V30 6258 C 597.819 -2.76353 0.228919 0
M  V30 6259 H 600.77 -1.47282 0.591077 0
M  V30 6260 H 600.791 -3.66577 -1.01987 0
M  V30 6261 H 600.303 -3.79763 0.800099 0
M  V30 6262 H 598.404 -3.35287 -1.62522 0
M  V30 6263 H 598.517 -4.77515 -0.389332 0
M  V30 6264 H 596.881 -2.52888 -0.303271 0
M  V30 6265 H 597.664 -3.20728 1.22428 0
M  V30 6266 N 600.109 -0.101901 -1.5727 0
M  V30 6267 C 601.357 0.559091 -1.94213 0
M  V30 6268 C 601.678 1.68297 -0.984948 0
M  V30 6269 O 600.948 1.95863 -0.0381975 0
M  V30 6270 H 599.528 0.20952 -0.717015 0
M  V30 6271 H 602.19 -0.166831 -1.94185 0
M  V30 6272 H 601.286 0.96485 -2.96811 0
M  V30 6273 N 601.587 1.56661 0.17182 0
M  V30 6274 C 602.534 1.96371 1.21273 0
M  V30 6275 C 603.504 0.82756 1.44016 0
M  V30 6276 O 604.689 1.08764 1.56764 0
M  V30 6277 C 601.829 2.32838 2.54716 0
M  V30 6278 C 600.942 3.59628 2.39356 0
M  V30 6279 C 600.077 3.85311 3.65662 0
M  V30 6280 C 599.116 5.0545 3.45234 0
M  V30 6281 N 598.253 5.27268 4.63608 0
M  V30 6282 H 603.093 2.85106 0.86709 0
M  V30 6283 H 600.63 1.41073 0.416744 0
M  V30 6284 H 602.588 2.52004 3.3249 0
M  V30 6285 H 601.218 1.47214 2.87277 0
M  V30 6286 H 600.27 3.4838 1.52761 0
M  V30 6287 H 601.582 4.4756 2.20207 0
M  V30 6288 H 600.736 4.04841 4.51872 0
M  V30 6289 H 599.475 2.95753 3.8779 0
M  V30 6290 H 598.48 4.85819 2.5741 0
M  V30 6291 H 599.705 5.96538 3.24529 0
M  V30 6292 H 597.651 4.40662 4.85956 0
M  V30 6293 H 597.568 6.09422 4.4737 0
M  V30 6294 H 598.836 5.51277 5.51103 0
M  V30 6295 N 603.065 -0.440357 1.51323 0
M  V30 6296 C 604.476 -1.02032 1.56353 0
M  V30 6297 C 604.827 -1.92382 0.385197 0
M  V30 6298 O 603.952 -2.10583 -0.498373 0
M  V30 6299 C 604.547 -1.85723 2.83359 0
M  V30 6300 C 603.106 -2.38774 2.90971 0
M  V30 6301 C 602.253 -1.17908 2.50984 0
M  V30 6302 H 605.204 -0.221744 1.57143 0
M  V30 6303 H 605.225 -2.71141 2.66951 0
M  V30 6304 H 604.737 -1.19939 3.69102 0
M  V30 6305 H 602.838 -3.08021 2.09651 0
M  V30 6306 H 602.951 -2.71778 3.94555 0
M  V30 6307 H 601.315 -1.52347 2.04114 0
M  V30 6308 H 602.098 -0.537393 3.39068 0
M  V30 6309 N 604.543 -1.41418 -0.695603 0
M  V30 6310 C 605.476 -1.3768 -1.81988 0
M  V30 6311 C 606.454 -0.244061 -1.60758 0
M  V30 6312 O 607.638 -0.430965 -1.83507 0
M  V30 6313 C 604.765 -1.1476 -3.18666 0
M  V30 6314 C 603.811 -2.30752 -3.58686 0
M  V30 6315 S 604.644 -3.9323 -3.63498 0
M  V30 6316 C 605.8 -3.72613 -5.02902 0
M  V30 6317 H 606.033 -2.32822 -1.84882 0
M  V30 6318 H 603.566 -1.27942 -0.86431 0
M  V30 6319 H 605.524 -1.02223 -3.97569 0
M  V30 6320 H 604.185 -0.212385 -3.13381 0
M  V30 6321 H 603.378 -2.10409 -4.57978 0
M  V30 6322 H 602.98 -2.39696 -2.87092 0
M  V30 6323 H 605.272 -3.32317 -5.904 0
M  V30 6324 H 606.215 -4.71507 -5.28286 0
M  V30 6325 H 606.623 -3.0589 -4.74438 0
M  V30 6326 N 606.021 0.929856 -1.27246 0
M  V30 6327 C 607.261 1.6919 -1.14691 0
M  V30 6328 C 607.625 1.896 0.302621 0
M  V30 6329 O 608.826 2.63102 0.550543 0
M  V30 6330 C 607.097 3.02291 -1.9067 0
M  V30 6331 S 608.656 3.93436 -1.94303 0
M  V30 6332 H 605.474 0.581248 -0.409477 0
M  V30 6333 H 608.076 1.10722 -1.61124 0
M  V30 6334 H 606.78 2.85125 -2.95181 0
M  V30 6335 H 606.311 3.65813 -1.44723 0
M  V30 6336 H 608.326 4.85224 -1.0379 0
M  V30 6337 N 607.499 1.09233 1.13605 0
M  V30 6338 C 608.745 0.828385 1.8511 0
M  V30 6339 C 609.078 -0.64437 1.83198 0
M  V30 6340 O 608.353 -1.47428 1.26867 0
M  V30 6341 C 608.636 1.36167 3.33363 0
M  V30 6342 C 608.489 2.90038 3.438 0
M  V30 6343 C 609.808 0.993819 4.28732 0
M  V30 6344 H 606.927 0.30239 0.672108 0
M  V30 6345 H 609.569 1.35339 1.33355 0
M  V30 6346 H 607.719 0.9151 3.77569 0
M  V30 6347 H 609.391 3.43128 3.08319 0
M  V30 6348 H 607.634 3.27271 2.84739 0
M  V30 6349 H 608.305 3.22428 4.48045 0
M  V30 6350 H 610.781 1.37893 3.92587 0
M  V30 6351 H 609.657 1.39403 5.30903 0
M  V30 6352 H 609.918 -0.0982206 4.41991 0
M  V30 6353 N 608.977 -1.30795 0.87923 0
M  V30 6354 C 609.887 -2.32041 0.345565 0
M  V30 6355 C 610.903 -1.65103 -0.549265 0
M  V30 6356 O 612.079 -1.9645 -0.443763 0
M  V30 6357 C 609.144 -3.43944 -0.436245 0
M  V30 6358 C 608.205 -4.26521 0.48765 0
M  V30 6359 C 607.438 -5.33081 -0.256943 0
M  V30 6360 O 607.661 -5.50762 -1.48381 0
M  V30 6361 O 606.595 -6.00635 0.389985 0
M  V30 6362 H 610.421 -2.79627 1.18501 0
M  V30 6363 H 608.006 -1.3486 0.642885 0
M  V30 6364 H 609.888 -4.12128 -0.879119 0
M  V30 6365 H 608.563 -2.98504 -1.25208 0
M  V30 6366 H 607.47 -3.61057 0.979216 0
M  V30 6367 H 608.803 -4.75551 1.26933 0
M  V30 6368 N 610.455 -0.639598 -1.44038 0
M  V30 6369 C 611.68 -0.153117 -2.06834 0
M  V30 6370 C 612.105 1.16676 -1.47541 0
M  V30 6371 O 611.463 1.71769 -0.580093 0
M  V30 6372 C 611.511 -0.0609169 -3.60549 0
M  V30 6373 O 610.615 0.98071 -4.00569 0
M  V30 6374 H 609.956 -0.0886402 -0.658057 0
M  V30 6375 H 612.486 -0.878674 -1.84771 0
M  V30 6376 H 612.496 0.126892 -4.07803 0
M  V30 6377 H 611.171 -1.0245 -4.03084 0
M  V30 6378 H 609.748 0.766789 -3.64931 0
M  V30 6379 N 611.933 1.52934 -0.380664 0
M  V30 6380 C 613.18 2.01467 0.204278 0
M  V30 6381 C 613.508 1.26744 1.47533 0
M  V30 6382 O 612.763 0.353723 1.92477 0
M  V30 6383 C 613.062 3.5349 0.527199 0
M  V30 6384 C 612.728 4.46171 -0.651295 0
M  V30 6385 C 611.39 4.71227 -0.974619 0
M  V30 6386 C 613.742 5.00909 -1.44012 0
M  V30 6387 C 611.07 5.4827 -2.08847 0
M  V30 6388 C 613.422 5.7917 -2.5445 0
M  V30 6389 C 612.086 6.02507 -2.87301 0
M  V30 6390 H 611.356 0.73722 0.0747504 0
M  V30 6391 H 614.003 1.84411 -0.516234 0
M  V30 6392 H 612.308 3.68574 1.32892 0
M  V30 6393 H 614.005 3.88529 0.992283 0
M  V30 6394 H 610.595 4.26829 -0.389276 0
M  V30 6395 H 614.779 4.81485 -1.20357 0
M  V30 6396 H 610.035 5.64567 -2.34679 0
M  V30 6397 H 614.209 6.20588 -3.1598 0
M  V30 6398 H 611.836 6.61989 -3.7373 0
M  V30 6399 N 613.412 0.11024 1.57214 0
M  V30 6400 C 614.637 -0.561179 1.99664 0
M  V30 6401 C 615.062 -1.59985 0.989266 0
M  V30 6402 O 614.42 -1.81255 -0.0402399 0
M  V30 6403 C 614.468 -1.17189 3.41027 0
M  V30 6404 O 613.572 -2.28755 3.4314 0
M  V30 6405 H 612.913 -0.14101 0.648855 0
M  V30 6406 H 615.443 0.196128 2.03658 0
M  V30 6407 H 615.453 -1.50954 3.79047 0
M  V30 6408 H 614.128 -0.411041 4.13864 0
M  V30 6409 H 612.705 -1.96495 3.16929 0
M  V30 6410 N 614.89 -1.56749 -0.16351 0
M  V30 6411 C 616.167 -1.73321 -0.906599 0
M  V30 6412 C 616.547 -0.673779 -2.00059 0
M  V30 6413 O 615.895 0.310121 -2.26386 0
M  V30 6414 C 616.105 -3.168 -1.46419 0
M  V30 6415 C 617.453 -3.77993 -1.93407 0
M  V30 6416 O 618.477 -3.20127 -1.56196 0
M  V30 6417 O 617.336 -4.79615 -2.61976 0
M  V30 6418 H 614.43 -0.708073 -0.427272 0
M  V30 6419 H 616.976 -1.69029 -0.150727 0
M  V30 6420 H 615.748 -3.85396 -0.677189 0
M  V30 6421 H 615.371 -3.2545 -2.28403 0
M  V30 6422 N 616.368 0.432326 -1.51554 0
M  V30 6423 C 617.598 1.2019 -1.68042 0
M  V30 6424 C 618.006 1.85356 -0.379434 0
M  V30 6425 O 617.349 1.71724 0.652427 0
M  V30 6426 C 617.411 2.32387 -2.74292 0
M  V30 6427 C 617.075 1.87548 -4.16743 0
M  V30 6428 C 618.072 1.37611 -5.01357 0
M  V30 6429 C 615.757 1.95087 -4.62868 0
M  V30 6430 C 617.751 0.958069 -6.30159 0
M  V30 6431 C 615.438 1.52894 -5.91664 0
M  V30 6432 C 616.436 1.03336 -6.75137 0
M  V30 6433 O 616.124 0.617435 -8.01525 0
M  V30 6434 H 615.856 0.368132 -0.56697 0
M  V30 6435 H 618.41 0.517875 -1.98764 0
M  V30 6436 H 616.64 3.04082 -2.38895 0
M  V30 6437 H 618.329 2.94235 -2.79608 0
M  V30 6438 H 619.095 1.31178 -4.66923 0
M  V30 6439 H 614.974 2.32606 -3.98015 0
M  V30 6440 H 618.518 0.570562 -6.95263 0
M  V30 6441 H 614.415 1.58999 -6.25611 0
M  V30 6442 H 615.183 0.742835 -8.15122 0
M  V30 6443 N 617.846 1.41785 0.688094 0
M  V30 6444 C 619.257 1.3701 1.26828 0
M  V30 6445 C 619.608 0.056835 1.96118 0
M  V30 6446 O 618.733 -0.84475 1.99231 0
M  V30 6447 C 619.328 2.48168 2.30648 0
M  V30 6448 C 617.887 2.46766 2.84224 0
M  V30 6449 C 617.034 2.27633 1.58361 0
M  V30 6450 H 619.985 1.51192 0.482351 0
M  V30 6451 H 620.006 2.17655 3.121 0
M  V30 6452 H 619.518 3.43735 1.80188 0
M  V30 6453 H 617.619 1.54978 3.3884 0
M  V30 6454 H 617.732 3.43342 3.34145 0
M  V30 6455 H 616.096 1.75648 1.84445 0
M  V30 6456 H 616.879 3.25238 1.09887 0
M  V30 6457 N 619.324 -0.923095 1.27737 0
M  V30 6458 C 620.735 -1.48626 1.12993 0
M  V30 6459 C 621.086 -1.94142 -0.283439 0
M  V30 6460 O 620.211 -1.81605 -1.17681 0
M  V30 6461 C 620.806 -2.70117 2.04505 0
M  V30 6462 C 619.365 -3.22642 1.93853 0
M  V30 6463 C 618.512 -1.95368 1.96791 0
M  V30 6464 H 621.463 -0.736737 1.40563 0
M  V30 6465 H 621.484 -3.4506 1.60356 0
M  V30 6466 H 620.996 -2.36959 3.07363 0
M  V30 6467 H 619.097 -3.60549 0.939968 0
M  V30 6468 H 619.21 -3.88525 2.80331 0
M  V30 6469 H 617.574 -2.12061 1.41076 0
M  V30 6470 H 618.357 -1.64517 3.01312 0
M  V30 6471 N 620.802 -1.09834 -1.13024 0
M  V30 6472 C 621.732 -0.763451 -2.20666 0
M  V30 6473 C 622.713 0.260778 -1.68089 0
M  V30 6474 O 623.898 0.127915 -1.93778 0
M  V30 6475 C 621.028 -0.187744 -3.46792 0
M  V30 6476 C 619.982 -1.14196 -4.12484 0
M  V30 6477 C 619.308 -0.427755 -5.32986 0
M  V30 6478 C 620.608 -2.48607 -4.59338 0
M  V30 6479 H 622.302 -1.66347 -2.48936 0
M  V30 6480 H 619.848 -0.801261 -1.19649 0
M  V30 6481 H 621.801 0.0586375 -4.21359 0
M  V30 6482 H 620.525 0.747485 -3.17931 0
M  V30 6483 H 619.184 -1.37369 -3.3989 0
M  V30 6484 H 618.832 0.511747 -5.0039 0
M  V30 6485 H 618.532 -1.06403 -5.77886 0
M  V30 6486 H 620.056 -0.189772 -6.10305 0
M  V30 6487 H 621.47 -2.29618 -5.25308 0
M  V30 6488 H 619.867 -3.08062 -5.14993 0
M  V30 6489 H 620.937 -3.09062 -3.73642 0
M  V30 6490 N 622.28 1.30327 -0.886154 0
M  V30 6491 C 623.528 1.9571 -0.504195 0
M  V30 6492 C 623.849 1.70294 0.950003 0
M  V30 6493 O 623.119 1.02718 1.66811 0
M  V30 6494 H 621.699 0.72412 -0.183465 0
M  V30 6495 H 624.361 1.58835 -1.12949 0
M  V30 6496 H 623.457 3.04704 -0.675431 0
M  V30 6497 N 623.758 0.647228 1.43697 0
M  V30 6498 C 625.174 0.314256 1.56476 0
M  V30 6499 C 625.374 -1.18191 1.63196 0
M  V30 6500 O 624.43 -1.96655 1.58376 0
M  V30 6501 C 625.743 1.02034 2.82859 0
M  V30 6502 C 627.291 1.00002 2.96595 0
M  V30 6503 C 627.766 1.68689 4.25803 0
M  V30 6504 N 629.257 1.65424 4.32654 0
M  V30 6505 C 629.992 2.1545 5.31384 0
M  V30 6506 N 629.488 2.73738 6.36427 0
M  V30 6507 N 631.281 2.05985 5.22998 0
M  V30 6508 H 623.432 1.61821 1.37578 0
M  V30 6509 H 625.695 0.680184 0.660344 0
M  V30 6510 H 625.401 2.07542 2.83935 0
M  V30 6511 H 625.275 0.568146 3.72897 0
M  V30 6512 H 627.662 -0.0466319 2.95063 0
M  V30 6513 H 627.743 1.49086 2.07863 0
M  V30 6514 H 627.387 2.73308 4.28095 0
M  V30 6515 H 627.317 1.17076 5.13421 0
M  V30 6516 H 629.808 1.22884 3.57363 0
M  V30 6517 H 630.121 3.09602 7.08072 0
M  V30 6518 H 628.466 2.77796 6.37067 0
M  V30 6519 H 631.657 1.60157 4.39849 0
M  V30 6520 H 631.83 2.45281 5.99784 0
M  V30 6521 N 625.236 -1.5273 0.388769 0
M  V30 6522 C 626.483 -2.01573 -0.19359 0
M  V30 6523 C 626.811 -1.27525 -1.46859 0
M  V30 6524 O 626.066 -0.363926 -1.92286 0
M  V30 6525 C 626.365 -3.53765 -0.508445 0
M  V30 6526 C 626.031 -4.4582 0.674947 0
M  V30 6527 C 624.693 -4.70703 0.999596 0
M  V30 6528 C 627.045 -5.00138 1.46666 0
M  V30 6529 C 624.373 -5.47155 2.11751 0
M  V30 6530 C 626.725 -5.77812 2.57518 0
M  V30 6531 C 625.389 -6.00975 2.90492 0
M  V30 6532 H 624.659 -0.737606 -0.0708397 0
M  V30 6533 H 627.306 -1.84134 0.526006 0
M  V30 6534 H 625.611 -3.69274 -1.30936 0
M  V30 6535 H 627.308 -3.8905 -0.971664 0
M  V30 6536 H 623.898 -4.26616 0.411906 0
M  V30 6537 H 628.082 -4.8084 1.22909 0
M  V30 6538 H 623.338 -5.63314 2.3767 0
M  V30 6539 H 627.512 -6.18904 3.19267 0
M  V30 6540 H 625.139 -6.59998 3.77236 0
M  V30 6541 N 626.714 -0.118576 -1.57153 0
M  V30 6542 C 627.677 0.817464 -2.14127 0
M  V30 6543 C 628.677 1.1949 -1.07604 0
M  V30 6544 O 629.867 1.12048 -1.33382 0
M  V30 6545 C 626.999 2.10541 -2.68115 0
M  V30 6546 H 628.192 0.322339 -2.98163 0
M  V30 6547 H 625.745 0.130655 -1.55753 0
M  V30 6548 H 626.48 2.64485 -1.87665 0
M  V30 6549 H 626.265 1.84425 -3.4602 0
M  V30 6550 H 627.755 2.77453 -3.12105 0
M  V30 6551 N 628.193 1.56834 0.155195 0
M  V30 6552 C 629.439 1.83169 0.870467 0
M  V30 6553 C 629.772 0.698929 1.81187 0
M  V30 6554 O 629.047 -0.298035 1.92203 0
M  V30 6555 C 629.33 3.19965 1.65211 0
M  V30 6556 C 629.183 4.43792 0.732744 0
M  V30 6557 C 630.502 3.53885 2.61636 0
M  V30 6558 H 627.621 0.666288 0.315006 0
M  V30 6559 H 630.263 1.89513 0.135988 0
M  V30 6560 H 628.413 3.14687 2.27825 0
M  V30 6561 H 630.085 4.61148 0.118236 0
M  V30 6562 H 628.328 4.3378 0.0417906 0
M  V30 6563 H 628.999 5.36095 1.31552 0
M  V30 6564 H 631.475 3.5972 2.09143 0
M  V30 6565 H 630.351 4.50648 3.13381 0
M  V30 6566 H 630.612 2.79418 3.42605 0
M  V30 6567 N 629.671 -0.424282 1.51781 0
M  V30 6568 C 631.087 -0.761768 1.40247 0
M  V30 6569 C 631.287 -1.95324 0.495041 0
M  V30 6570 O 630.343 -2.5246 -0.0448949 0
M  V30 6571 C 631.656 -1.0299 2.82513 0
M  V30 6572 C 633.204 -1.13354 2.91753 0
M  V30 6573 C 633.679 -1.43453 4.34954 0
M  V30 6574 N 635.17 -1.5035 4.3812 0
M  V30 6575 C 635.905 -1.75236 5.45967 0
M  V30 6576 N 635.401 -1.97827 6.63955 0
M  V30 6577 N 637.194 -1.77126 5.33463 0
M  V30 6578 H 629.345 0.360228 2.09323 0
M  V30 6579 H 631.608 0.0988128 0.942836 0
M  V30 6580 H 631.314 -0.226961 3.50967 0
M  V30 6581 H 631.188 -1.95411 3.22637 0
M  V30 6582 H 633.575 -1.92709 2.23489 0
M  V30 6583 H 633.656 -0.188041 2.55108 0
M  V30 6584 H 633.3 -0.646209 5.03772 0
M  V30 6585 H 633.23 -2.3923 4.69123 0
M  V30 6586 H 635.721 -1.34742 3.53062 0
M  V30 6587 H 636.034 -2.16223 7.41935 0
M  V30 6588 H 634.379 -1.95123 6.67047 0
M  V30 6589 H 637.57 -1.59005 4.40267 0
M  V30 6590 H 637.743 -1.96182 6.17589 0
M  V30 6591 N 631.149 -1.42148 -0.680565 0
M  V30 6592 C 632.426 -1.32795 -1.43614 0
M  V30 6593 C 632.806 0.037415 -2.11067 0
M  V30 6594 O 632.154 1.05258 -2.02813 0
M  V30 6595 C 632.364 -2.49206 -2.44331 0
M  V30 6596 C 633.712 -2.91059 -3.09144 0
M  V30 6597 O 634.736 -2.49054 -2.54657 0
M  V30 6598 O 633.595 -3.63741 -4.07866 0
M  V30 6599 H 630.689 -0.523397 -0.640301 0
M  V30 6600 H 633.235 -1.54144 -0.709775 0
M  V30 6601 H 632.007 -3.40252 -1.93247 0
M  V30 6602 H 631.63 -2.29813 -3.24456 0
M  V30 6603 N 632.627 0.916307 -1.28225 0
M  V30 6604 C 633.56 2.01954 -1.06254 0
M  V30 6605 C 634.538 1.62587 0.0205983 0
M  V30 6606 O 635.722 1.88073 -0.126824 0
M  V30 6607 C 632.849 3.33086 -0.614141 0
M  V30 6608 C 631.895 3.91435 -1.69354 0
M  V30 6609 S 632.728 4.22603 -3.28887 0
M  V30 6610 C 633.884 5.568 -2.85876 0
M  V30 6611 H 634.117 2.20281 -1.99659 0
M  V30 6612 H 631.65 1.06085 -1.12184 0
M  V30 6613 H 633.608 4.089 -0.36213 0
M  V30 6614 H 632.269 3.12664 0.300036 0
M  V30 6615 H 631.462 4.86098 -1.33136 0
M  V30 6616 H 631.064 3.22248 -1.89821 0
M  V30 6617 H 633.356 6.3658 -2.31888 0
M  V30 6618 H 634.299 5.97927 -3.79326 0
M  V30 6619 H 634.707 5.17865 -2.24669 0
M  V30 6620 N 634.105 1.10431 1.1244 0
M  V30 6621 C 635.521 0.836096 1.35947 0
M  V30 6622 C 635.721 -0.544475 1.94004 0
M  V30 6623 O 634.777 -1.29735 2.16622 0
M  V30 6624 C 636.09 1.93575 2.30107 0
M  V30 6625 C 637.638 1.9642 2.43697 0
M  V30 6626 C 638.113 3.05559 3.41171 0
M  V30 6627 N 639.604 3.04865 3.48728 0
M  V30 6628 C 640.339 3.85954 4.24061 0
M  V30 6629 N 639.835 4.76977 5.02458 0
M  V30 6630 N 641.628 3.74172 4.19466 0
M  V30 6631 H 633.779 1.9942 0.731124 0
M  V30 6632 H 636.042 0.866607 0.384312 0
M  V30 6633 H 635.748 2.92943 1.94621 0
M  V30 6634 H 635.622 1.8229 3.30227 0
M  V30 6635 H 638.009 0.97685 2.78463 0
M  V30 6636 H 638.09 2.11782 1.43465 0
M  V30 6637 H 637.734 4.04513 3.07135 0
M  V30 6638 H 637.664 2.87438 4.41234 0
M  V30 6639 H 640.155 2.38908 2.92799 0
M  V30 6640 H 640.468 5.35409 5.57277 0
M  V30 6641 H 638.813 4.81006 5.01655 0
M  V30 6642 H 642.004 3.02412 3.57302 0
M  V30 6643 H 642.177 4.37602 4.77921 0
M  V30 6644 N 635.583 -1.29855 0.893053 0
M  V30 6645 C 636.515 -2.26911 0.32311 0
M  V30 6646 C 637.528 -1.54039 -0.526858 0
M  V30 6647 O 638.717 -1.75132 -0.345095 0
M  V30 6648 C 635.817 -3.34266 -0.558509 0
M  V30 6649 C 634.99 -4.36601 0.264222 0
M  V30 6650 C 634.049 -5.23326 -0.549171 0
M  V30 6651 O 633.075 -5.69192 0.0309883 0
M  V30 6652 N 634.277 -5.50008 -1.85664 0
M  V30 6653 H 637.042 -2.76455 1.15726 0
M  V30 6654 H 634.603 -1.4312 0.756859 0
M  V30 6655 H 636.595 -3.89211 -1.1089 0
M  V30 6656 H 635.165 -2.8459 -1.29334 0
M  V30 6657 H 634.385 -3.81409 0.996046 0
M  V30 6658 H 635.673 -5.02019 0.827906 0
M  V30 6659 H 635.071 -5.14542 -2.35081 0
M  V30 6660 H 633.628 -6.07796 -2.35431 0
M  V30 6661 N 637.061 -0.65484 -1.43351 0
M  V30 6662 C 638.289 -0.176685 -2.06144 0
M  V30 6663 C 638.704 1.15831 -1.49093 0
M  V30 6664 O 638.061 1.71542 -0.622868 0
M  V30 6665 C 638.112 -0.0813326 -3.61408 0
M  V30 6666 O 637.833 -1.36355 -4.1634 0
M  V30 6667 C 639.334 0.422706 -4.4128 0
M  V30 6668 H 636.554 -0.0906429 -0.66485 0
M  V30 6669 H 639.098 -0.895945 -1.83829 0
M  V30 6670 H 637.253 0.588496 -3.82904 0
M  V30 6671 H 637.667 -1.22381 -5.10023 0
M  V30 6672 H 639.141 0.438375 -5.50257 0
M  V30 6673 H 639.618 1.45432 -4.14423 0
M  V30 6674 H 640.224 -0.214687 -4.24758 0
M  V30 6675 N 638.539 1.52521 -0.396863 0
M  V30 6676 C 639.785 2.01971 0.183169 0
M  V30 6677 C 640.118 1.2825 1.45827 0
M  V30 6678 O 639.393 0.385179 1.90648 0
M  V30 6679 C 639.676 3.5736 0.443391 0
M  V30 6680 C 639.529 4.41743 -0.84753 0
M  V30 6681 C 640.848 4.22539 1.2308 0
M  V30 6682 H 637.967 0.734119 0.0650976 0
M  V30 6683 H 640.609 1.82519 -0.527918 0
M  V30 6684 H 638.759 3.74066 1.04914 0
M  V30 6685 H 640.431 4.36773 -1.48414 0
M  V30 6686 H 638.674 4.0845 -1.4612 0
M  V30 6687 H 639.345 5.48507 -0.620003 0
M  V30 6688 H 641.821 4.09857 0.718084 0
M  V30 6689 H 640.697 5.31227 1.38162 0
M  V30 6690 H 640.958 3.80675 2.24808 0
M  V30 6691 N 640.017 0.126909 1.57088 0
M  V30 6692 C 640.98 -0.806097 2.14557 0
M  V30 6693 C 641.98 -1.18918 1.08236 0
M  V30 6694 O 643.17 -1.11339 1.33975 0
M  V30 6695 C 640.302 -2.09116 2.69227 0
M  V30 6696 H 641.495 -0.306522 2.98329 0
M  V30 6697 H 639.048 -0.122393 1.5582 0
M  V30 6698 H 639.783 -2.63486 1.89065 0
M  V30 6699 H 639.568 -1.82588 3.46993 0
M  V30 6700 H 641.058 -2.75794 3.13572 0
M  V30 6701 N 641.495 -1.56914 -0.146875 0
M  V30 6702 C 642.741 -1.83628 -0.860741 0
M  V30 6703 C 643.074 -0.708528 -1.80813 0
M  V30 6704 O 642.349 0.287838 -1.92358 0
M  V30 6705 C 642.632 -3.20836 -1.63511 0
M  V30 6706 C 642.485 -4.44174 -0.709199 0
M  V30 6707 C 643.804 -3.55268 -2.59756 0
M  V30 6708 H 640.923 -0.667949 -0.311468 0
M  V30 6709 H 643.565 -1.89582 -0.125936 0
M  V30 6710 H 641.715 -3.15891 -2.26153 0
M  V30 6711 H 643.387 -4.61205 -0.0937781 0
M  V30 6712 H 641.63 -4.33796 -0.0187856 0
M  V30 6713 H 642.301 -5.36785 -1.28707 0
M  V30 6714 H 644.777 -3.60824 -2.07232 0
M  V30 6715 H 643.653 -4.52303 -3.10987 0
M  V30 6716 H 643.914 -2.81231 -3.41118 0
M  V30 6717 N 642.974 0.416227 -1.52004 0
M  V30 6718 C 644.222 1.16153 -1.65387 0
M  V30 6719 C 644.543 1.91208 -0.382669 0
M  V30 6720 O 643.813 1.86413 0.602231 0
M  V30 6721 H 642.393 0.431765 -0.60958 0
M  V30 6722 H 645.055 0.475151 -1.89019 0
M  V30 6723 H 644.151 1.87952 -2.4916 0
M  V30 6724 N 644.452 1.42507 0.673017 0
M  V30 6725 C 645.698 1.43284 1.43519 0
M  V30 6726 C 646.031 0.049668 1.94136 0
M  V30 6727 O 645.306 -0.926369 1.71022 0
M  V30 6728 C 645.589 2.45874 2.63093 0
M  V30 6729 C 645.442 3.93388 2.18096 0
M  V30 6730 C 646.761 2.45431 3.6531 0
M  V30 6731 H 643.88 0.521752 0.520522 0
M  V30 6732 H 646.522 1.73932 0.764701 0
M  V30 6733 H 644.672 2.19869 3.20296 0
M  V30 6734 H 646.344 4.30379 1.66046 0
M  V30 6735 H 644.587 4.07169 1.49652 0
M  V30 6736 H 645.258 4.60752 3.03993 0
M  V30 6737 H 647.734 2.68561 3.17827 0
M  V30 6738 H 646.61 3.19189 4.46553 0
M  V30 6739 H 646.871 1.48092 4.16559 0
M  V30 6740 N 645.93 -0.909495 1.28709 0
M  V30 6741 C 647.179 -1.65365 1.15487 0
M  V30 6742 C 647.492 -1.93364 -0.294941 0
M  V30 6743 O 648.698 -2.65905 -0.548338 0
M  V30 6744 C 647.154 -2.97923 2.01916 0
M  V30 6745 C 646.762 -2.77556 3.51663 0
M  V30 6746 C 648.506 -3.75814 1.97393 0
M  V30 6747 C 646.413 -4.0578 4.30229 0
M  V30 6748 H 645.343 -0.620323 0.42862 0
M  V30 6749 H 647.994 -1.00894 1.53273 0
M  V30 6750 H 646.376 -3.63552 1.5699 0
M  V30 6751 H 647.55 -2.2058 4.04575 0
M  V30 6752 H 645.865 -2.13072 3.57756 0
M  V30 6753 H 648.462 -4.70866 2.53357 0
M  V30 6754 H 648.805 -4.05277 0.951643 0
M  V30 6755 H 649.338 -3.1701 2.40311 0
M  V30 6756 H 646.077 -3.81488 5.33055 0
M  V30 6757 H 645.597 -4.62351 3.82089 0
M  V30 6758 H 647.276 -4.74004 4.40374 0
M  V30 6759 N 647.408 -1.11026 -1.11852 0
M  V30 6760 C 648.355 -0.764662 -2.17765 0
M  V30 6761 C 649.325 0.261854 -1.64023 0
M  V30 6762 O 650.51 0.139748 -1.90288 0
M  V30 6763 C 647.65 -0.209317 -3.44465 0
M  V30 6764 C 646.763 -1.29187 -4.12231 0
M  V30 6765 C 645.898 -0.697523 -5.266 0
M  V30 6766 C 644.937 -1.76023 -5.86244 0
M  V30 6767 N 644.074 -1.18569 -6.92016 0
M  V30 6768 H 648.914 -1.67202 -2.46673 0
M  V30 6769 H 646.451 -0.835065 -1.21099 0
M  V30 6770 H 648.409 0.130599 -4.16996 0
M  V30 6771 H 647.039 0.661251 -3.15955 0
M  V30 6772 H 646.091 -1.74881 -3.37818 0
M  V30 6773 H 647.403 -2.09607 -4.52622 0
M  V30 6774 H 646.557 -0.307412 -6.05921 0
M  V30 6775 H 645.296 0.138044 -4.87505 0
M  V30 6776 H 644.301 -2.1597 -5.05606 0
M  V30 6777 H 645.526 -2.59875 -6.27409 0
M  V30 6778 H 643.472 -0.371695 -6.54946 0
M  V30 6779 H 643.389 -1.92666 -7.31038 0
M  V30 6780 H 644.657 -0.82233 -7.7515 0
M  V30 6781 N 648.886 1.2938 -0.899927 0
M  V30 6782 C 649.849 2.25983 -0.382677 0
M  V30 6783 C 650.849 1.53366 0.483259 0
M  V30 6784 O 652.039 1.71798 0.28828 0
M  V30 6785 C 649.171 3.37878 0.452915 0
M  V30 6786 H 650.364 2.73252 -1.23586 0
M  V30 6787 H 647.917 1.40825 -0.678088 0
M  V30 6788 H 648.652 2.95949 1.32608 0
M  V30 6789 H 648.437 3.91742 -0.167562 0
M  V30 6790 H 649.927 4.09746 0.806107 0
M  V30 6791 N 650.364 0.662433 1.43002 0
M  V30 6792 C 651.61 0.179857 2.02001 0
M  V30 6793 C 651.943 -1.20625 1.52195 0
M  V30 6794 O 651.218 -1.80726 0.718911 0
M  V30 6795 C 651.501 0.200845 3.59539 0
M  V30 6796 C 651.354 1.62153 4.19555 0
M  V30 6797 C 652.673 -0.457738 4.37713 0
M  V30 6798 H 649.792 0.0668305 0.733964 0
M  V30 6799 H 652.434 0.84487 1.70182 0
M  V30 6800 H 650.584 -0.365411 3.86778 0
M  V30 6801 H 652.256 2.23908 4.03315 0
M  V30 6802 H 650.499 2.16601 3.75854 0
M  V30 6803 H 651.17 1.58799 5.28665 0
M  V30 6804 H 653.646 0.0241495 4.16093 0
M  V30 6805 H 652.522 -0.412363 5.47349 0
M  V30 6806 H 652.783 -1.53336 4.14657 0
M  V30 6807 N 651.842 -1.52309 0.404946 0
M  V30 6808 C 653.119 -1.94237 -0.230544 0
M  V30 6809 C 653.499 -1.34154 -1.6299 0
M  V30 6810 O 652.847 -0.515713 -2.22604 0
M  V30 6811 C 653.057 -3.48166 -0.241106 0
M  V30 6812 C 654.405 -4.22074 -0.462488 0
M  V30 6813 O 655.429 -3.54754 -0.320644 0
M  V30 6814 O 654.288 -5.41443 -0.741708 0
M  V30 6815 H 651.382 -0.813766 -0.147358 0
M  V30 6816 H 653.928 -1.6333 0.460587 0
M  V30 6817 H 652.7 -3.84269 0.738467 0
M  V30 6818 H 652.323 -3.85422 -0.97651 0
M  V30 6819 N 653.32 -0.135238 -1.57019 0
M  V30 6820 C 654.267 0.808908 -2.1616 0
M  V30 6821 C 655.237 1.25234 -1.09113 0
M  V30 6822 O 656.422 1.32697 -1.37099 0
M  V30 6823 C 653.562 2.04729 -2.77813 0
M  V30 6824 C 652.675 1.65074 -3.99218 0
M  V30 6825 C 651.81 2.84002 -4.48906 0
M  V30 6826 C 650.849 2.40663 -5.62803 0
M  V30 6827 N 649.986 3.5256 -6.07162 0
M  V30 6828 H 654.826 0.297751 -2.96509 0
M  V30 6829 H 652.363 0.135264 -1.46477 0
M  V30 6830 H 654.321 2.7731 -3.11697 0
M  V30 6831 H 652.951 2.53275 -2.00128 0
M  V30 6832 H 652.003 0.823029 -3.7139 0
M  V30 6833 H 653.315 1.29236 -4.81767 0
M  V30 6834 H 652.469 3.64788 -4.84783 0
M  V30 6835 H 651.208 3.23076 -3.65339 0
M  V30 6836 H 650.213 1.58314 -5.26514 0
M  V30 6837 H 651.438 2.02687 -6.48147 0
M  V30 6838 H 649.384 3.91278 -5.26534 0
M  V30 6839 H 649.301 3.20699 -6.84608 0
M  V30 6840 H 650.569 4.33738 -6.47682 0
M  V30 6841 N 654.798 1.5699 0.138552 0
M  V30 6842 C 655.745 1.98899 1.17081 0
M  V30 6843 C 656.715 0.857922 1.42228 0
M  V30 6844 O 657.9 1.12065 1.54422 0
M  V30 6845 C 655.04 2.38189 2.4972 0
M  V30 6846 C 654.153 3.64624 2.31674 0
M  V30 6847 C 653.288 3.9298 3.57407 0
M  V30 6848 C 652.327 5.1266 3.34435 0
M  V30 6849 N 651.464 5.36983 4.5232 0
M  V30 6850 H 656.304 2.86881 0.80642 0
M  V30 6851 H 653.841 1.41925 0.386727 0
M  V30 6852 H 655.799 2.59 3.2707 0
M  V30 6853 H 654.429 1.53275 2.84089 0
M  V30 6854 H 653.481 3.51542 1.45337 0
M  V30 6855 H 654.793 4.52131 2.10664 0
M  V30 6856 H 653.947 4.14335 4.43183 0
M  V30 6857 H 652.686 3.03912 3.8143 0
M  V30 6858 H 651.691 4.9117 2.47048 0
M  V30 6859 H 652.916 6.03288 3.11802 0
M  V30 6860 H 650.862 4.50871 4.76499 0
M  V30 6861 H 650.779 6.18775 4.34343 0
M  V30 6862 H 652.047 5.62842 5.39285 0
M  V30 6863 N 656.276 -0.40816 1.52223 0
M  V30 6864 C 657.239 -1.48 1.7501 0
M  V30 6865 C 658.239 -1.48367 0.619996 0
M  V30 6866 O 659.429 -1.49874 0.887881 0
M  V30 6867 C 656.561 -2.87403 1.83336 0
M  V30 6868 H 657.754 -1.29086 2.70697 0
M  V30 6869 H 655.307 -0.638715 1.42654 0
M  V30 6870 H 656.042 -3.11686 0.895677 0
M  V30 6871 H 655.827 -2.8854 2.65494 0
M  V30 6872 H 657.317 -3.65103 2.02705 0
M  V30 6873 N 657.755 -1.42862 -0.66545 0
M  V30 6874 C 658.718 -1.46756 -1.76055 0
M  V30 6875 C 659.718 -0.353866 -1.56858 0
M  V30 6876 O 660.908 -0.615099 -1.62979 0
M  V30 6877 C 658.04 -1.30829 -3.14796 0
M  V30 6878 H 659.233 -2.44271 -1.73987 0
M  V30 6879 H 656.786 -1.29447 -0.875965 0
M  V30 6880 H 657.521 -0.342733 -3.22484 0
M  V30 6881 H 657.306 -2.11551 -3.30134 0
M  V30 6882 H 658.796 -1.36458 -3.94676 0
M  V30 6883 N 659.233 0.902656 -1.29189 0
M  V30 6884 C 660.481 1.6496 -1.16758 0
M  V30 6885 C 660.802 1.92952 0.28188 0
M  V30 6886 O 660.072 1.55351 1.19344 0
M  V30 6887 H 658.652 0.611447 -0.429118 0
M  V30 6888 H 661.314 1.0825 -1.62074 0
M  V30 6889 H 660.41 2.60728 -1.71544 0
M  V30 6890 N 660.711 1.11618 1.11262 0
M  V30 6891 C 661.674 0.779447 2.15539 0
M  V30 6892 C 662.674 -0.202081 1.59525 0
M  V30 6893 O 663.864 0.0226356 1.74185 0
M  V30 6894 C 660.996 0.15674 3.40539 0
M  V30 6895 H 662.189 1.70324 2.4684 0
M  V30 6896 H 659.742 0.918298 1.26479 0
M  V30 6897 H 660.477 -0.777186 3.1485 0
M  V30 6898 H 660.262 0.863308 3.82478 0
M  V30 6899 H 661.752 -0.062661 4.17553 0
M  V30 6900 N 662.189 -1.289 0.906776 0
M  V30 6901 C 663.437 -1.94883 0.535266 0
M  V30 6902 C 663.758 -1.71784 -0.922791 0
M  V30 6903 O 663.028 -1.05359 -1.65156 0
M  V30 6904 H 661.608 -0.721109 0.194962 0
M  V30 6905 H 664.27 -1.57018 1.15461 0
M  V30 6906 H 663.366 -3.03591 0.723821 0
M  V30 6907 N 663.667 -0.670007 -1.42649 0
M  V30 6908 C 664.614 0.0112928 -2.30797 0
M  V30 6909 C 665.584 0.797627 -1.45695 0
M  V30 6910 O 666.769 0.770845 -1.74535 0
M  V30 6911 C 663.909 0.95998 -3.31479 0
M  V30 6912 C 663.022 0.167975 -4.31673 0
M  V30 6913 C 662.157 1.11198 -5.19431 0
M  V30 6914 C 661.196 0.311381 -6.11307 0
M  V30 6915 N 660.333 1.20784 -6.91633 0
M  V30 6916 H 665.173 -0.746231 -2.88505 0
M  V30 6917 H 662.71 -0.379739 -1.42114 0
M  V30 6918 H 664.668 1.52379 -3.88377 0
M  V30 6919 H 663.298 1.68419 -2.75382 0
M  V30 6920 H 662.35 -0.512385 -3.76933 0
M  V30 6921 H 663.662 -0.453814 -4.96731 0
M  V30 6922 H 662.816 1.74587 -5.81037 0
M  V30 6923 H 661.555 1.76766 -4.54538 0
M  V30 6924 H 660.56 -0.335758 -5.48774 0
M  V30 6925 H 661.785 -0.340135 -6.78248 0
M  V30 6926 H 659.731 1.85001 -6.29373 0
M  V30 6927 H 659.648 0.64102 -7.53277 0
M  V30 6928 H 660.916 1.82936 -7.5773 0
M  V30 6929 N 665.145 1.52092 -0.413018 0
M  V30 6930 C 666.391 2.02154 0.161737 0
M  V30 6931 C 666.724 1.29789 1.44459 0
M  V30 6932 O 665.999 0.405378 1.90229 0
M  V30 6933 C 666.282 3.5781 0.405463 0
M  V30 6934 C 666.135 4.40819 -0.894335 0
M  V30 6935 C 667.454 4.23821 1.18591 0
M  V30 6936 H 664.573 0.734769 0.0573077 0
M  V30 6937 H 667.215 1.81948 -0.547247 0
M  V30 6938 H 665.365 3.75158 1.0094 0
M  V30 6939 H 667.037 4.35175 -1.53039 0
M  V30 6940 H 665.28 4.06877 -1.50444 0
M  V30 6941 H 665.951 5.47819 -0.678144 0
M  V30 6942 H 668.427 4.10596 0.674573 0
M  V30 6943 H 667.303 5.32663 1.3252 0
M  V30 6944 H 667.564 3.83038 2.20758 0
M  V30 6945 N 666.623 0.143563 1.56945 0
M  V30 6946 C 667.851 -0.515447 2.00377 0
M  V30 6947 C 668.266 -1.58643 1.02361 0
M  V30 6948 O 667.623 -1.82489 0.0201039 0
M  V30 6949 C 667.674 -1.11923 3.43737 0
M  V30 6950 O 667.395 -0.0910318 4.38005 0
M  V30 6951 C 668.896 -1.85918 4.02429 0
M  V30 6952 H 666.116 -0.134478 0.657386 0
M  V30 6953 H 668.66 0.237135 2.0312 0
M  V30 6954 H 666.815 -1.82245 3.41856 0
M  V30 6955 H 667.229 -0.532916 5.21786 0
M  V30 6956 H 668.703 -2.2346 5.04747 0
M  V30 6957 H 669.18 -2.7438 3.42947 0
M  V30 6958 H 669.786 -1.20303 4.07931 0
M  V30 6959 N 668.101 -1.57061 -0.130224 0
M  V30 6960 C 669.048 -1.99517 -1.16024 0
M  V30 6961 C 670.018 -0.865452 -1.41771 0
M  V30 6962 O 671.203 -1.12882 -1.53826 0
M  V30 6963 C 668.343 -2.3951 -2.48453 0
M  V30 6964 C 667.456 -3.65848 -2.29737 0
M  V30 6965 C 666.591 -3.9487 -3.55318 0
M  V30 6966 C 665.63 -5.14426 -3.31711 0
M  V30 6967 N 664.767 -5.39375 -4.49466 0
M  V30 6968 H 669.607 -2.87305 -0.791194 0
M  V30 6969 H 667.144 -1.42129 -0.379195 0
M  V30 6970 H 669.102 -2.60731 -3.25692 0
M  V30 6971 H 667.732 -1.54779 -2.83272 0
M  V30 6972 H 666.784 -3.52307 -1.4347 0
M  V30 6973 H 668.096 -4.53241 -2.08263 0
M  V30 6974 H 667.25 -4.16679 -4.4098 0
M  V30 6975 H 665.989 -3.05931 -3.79813 0
M  V30 6976 H 664.994 -4.92473 -2.44439 0
M  V30 6977 H 666.219 -6.04933 -3.08598 0
M  V30 6978 H 664.165 -4.53391 -4.74102 0
M  V30 6979 H 664.082 -6.21069 -4.31055 0
M  V30 6980 H 665.35 -5.65694 -5.36293 0
M  V30 6981 N 669.579 0.400081 -1.52437 0
M  V30 6982 C 670.804 1.17221 -1.71096 0
M  V30 6983 C 671.229 1.83269 -0.423565 0
M  V30 6984 O 670.587 1.70378 0.619751 0
M  V30 6985 C 670.635 2.20425 -2.85386 0
M  V30 6986 O 669.739 3.26769 -2.51586 0
M  V30 6987 H 669.08 0.341766 -0.569291 0
M  V30 6988 H 671.61 0.467772 -1.99181 0
M  V30 6989 H 671.62 2.64605 -3.10561 0
M  V30 6990 H 670.295 1.71737 -3.78786 0
M  V30 6991 H 668.872 2.87804 -2.37114 0
M  V30 6992 N 671.057 1.43213 0.657864 0
M  V30 6993 C 672.02 1.47687 1.75275 0
M  V30 6994 C 673.02 0.362179 1.56668 0
M  V30 6995 O 674.21 0.623734 1.62651 0
M  V30 6996 C 671.342 1.32497 3.14098 0
M  V30 6997 H 672.535 2.4519 1.7269 0
M  V30 6998 H 670.088 1.2991 0.869087 0
M  V30 6999 H 670.823 0.359831 3.22298 0
M  V30 7000 H 670.608 2.13299 3.29008 0
M  V30 7001 H 672.098 1.38549 3.93946 0
M  V30 7002 N 672.536 -0.895792 1.29666 0
M  V30 7003 C 673.468 -2.00563 1.10937 0
M  V30 7004 C 674.481 -1.62705 0.055734 0
M  V30 7005 O 675.67 -1.7595 0.300656 0
M  V30 7006 C 672.77 -3.32262 0.667448 0
M  V30 7007 C 671.943 -3.98625 1.80047 0
M  V30 7008 C 671.002 -5.08617 1.3489 0
M  V30 7009 O 670.028 -5.30837 2.05429 0
M  V30 7010 N 671.23 -5.80076 0.221937 0
M  V30 7011 H 673.995 -2.17184 2.06522 0
M  V30 7012 H 671.556 -1.06822 1.21658 0
M  V30 7013 H 673.548 -4.03196 0.348586 0
M  V30 7014 H 672.118 -3.11985 -0.196055 0
M  V30 7015 H 671.338 -3.21005 2.28801 0
M  V30 7016 H 672.626 -4.39704 2.56003 0
M  V30 7017 H 672.024 -5.64514 -0.366084 0
M  V30 7018 H 670.581 -6.51789 -0.0375346 0
M  V30 7019 N 674.014 -1.12206 -1.10668 0
M  V30 7020 C 674.961 -0.787716 -2.16942 0
M  V30 7021 C 675.931 0.244442 -1.64291 0
M  V30 7022 O 677.116 0.119558 -1.90425 0
M  V30 7023 C 674.256 -0.24584 -3.44223 0
M  V30 7024 C 673.369 -1.33552 -4.10838 0
M  V30 7025 C 672.504 -0.753337 -5.25831 0
M  V30 7026 C 671.543 -1.82231 -5.84344 0
M  V30 7027 N 670.68 -1.25902 -6.90719 0
M  V30 7028 H 675.52 -1.69809 -2.44885 0
M  V30 7029 H 673.057 -0.847862 -1.20207 0
M  V30 7030 H 675.015 0.0863639 -4.17111 0
M  V30 7031 H 673.645 0.627702 -3.16638 0
M  V30 7032 H 672.697 -1.78454 -3.35944 0
M  V30 7033 H 674.009 -2.14396 -4.50373 0
M  V30 7034 H 673.163 -0.37166 -6.05561 0
M  V30 7035 H 671.902 0.0863297 -4.87624 0
M  V30 7036 H 670.907 -2.2132 -5.03287 0
M  V30 7037 H 672.132 -2.66515 -6.24617 0
M  V30 7038 H 670.078 -0.44114 -6.54515 0
M  V30 7039 H 669.995 -2.00408 -7.28953 0
M  V30 7040 H 671.263 -0.904498 -7.74235 0
M  V30 7041 N 675.492 1.28418 -0.913599 0
M  V30 7042 C 676.455 2.25564 -0.406624 0
M  V30 7043 C 677.455 1.5387 0.466965 0
M  V30 7044 O 678.645 1.72094 0.270042 0
M  V30 7045 C 675.777 3.38339 0.417053 0
M  V30 7046 H 676.97 2.71926 -1.26477 0
M  V30 7047 H 674.523 1.40098 -0.692986 0
M  V30 7048 H 675.258 2.97339 1.29461 0
M  V30 7049 H 675.043 3.91542 -0.209102 0
M  V30 7050 H 676.533 4.10578 0.762602 0
M  V30 7051 N 676.97 0.677563 1.42291 0
M  V30 7052 C 677.902 -0.0380218 2.29168 0
M  V30 7053 C 678.915 -0.762714 1.43828 0
M  V30 7054 O 680.104 -0.616413 1.67519 0
M  V30 7055 C 677.204 -1.07761 3.21311 0
M  V30 7056 C 676.377 -0.42618 4.35319 0
M  V30 7057 C 675.436 -1.36592 5.08162 0
M  V30 7058 O 674.462 -0.865174 5.62586 0
M  V30 7059 N 675.664 -2.69909 5.13935 0
M  V30 7060 H 678.429 0.707766 2.91223 0
M  V30 7061 H 675.99 0.52219 1.53247 0
M  V30 7062 H 677.982 -1.70761 3.6691 0
M  V30 7063 H 676.552 -1.72511 2.60689 0
M  V30 7064 H 675.772 0.383385 3.92331 0
M  V30 7065 H 677.06 0.0275277 5.08793 0
M  V30 7066 H 676.458 -3.13129 4.71134 0
M  V30 7067 H 675.015 -3.2815 5.6317 0
M  V30 7068 N 678.448 -1.51871 0.421078 0
M  V30 7069 C 679.395 -2.27334 -0.398508 0
M  V30 7070 C 680.365 -1.30241 -1.03085 0
M  V30 7071 O 681.55 -1.59121 -1.05285 0
M  V30 7072 C 678.69 -3.10664 -1.50272 0
M  V30 7073 C 677.803 -4.2273 -0.890122 0
M  V30 7074 C 676.938 -4.93399 -1.96803 0
M  V30 7075 C 675.977 -5.97409 -1.333 0
M  V30 7076 N 675.114 -6.61548 -2.35156 0
M  V30 7077 H 679.954 -2.96938 0.251411 0
M  V30 7078 H 677.491 -1.46472 0.135825 0
M  V30 7079 H 679.449 -3.57292 -2.15403 0
M  V30 7080 H 678.079 -2.43207 -2.1225 0
M  V30 7081 H 677.131 -3.80186 -0.127537 0
M  V30 7082 H 678.443 -4.97302 -0.386349 0
M  V30 7083 H 677.597 -5.43491 -2.69633 0
M  V30 7084 H 676.336 -4.18421 -2.50549 0
M  V30 7085 H 675.341 -5.46624 -0.59008 0
M  V30 7086 H 676.566 -6.74335 -0.803076 0
M  V30 7087 H 674.512 -5.89394 -2.88012 0
M  V30 7088 H 674.429 -7.31832 -1.89624 0
M  V30 7089 H 675.697 -7.16276 -3.0752 0
M  V30 7090 N 679.926 -0.151884 -1.56866 0
M  V30 7091 C 680.889 0.771861 -2.15812 0
M  V30 7092 C 681.889 1.17181 -1.10115 0
M  V30 7093 O 683.079 1.09194 -1.35729 0
M  V30 7094 C 680.211 2.04806 -2.7252 0
M  V30 7095 H 681.404 0.259021 -2.98779 0
M  V30 7096 H 678.957 0.097588 -1.55995 0
M  V30 7097 H 679.692 2.60445 -1.93233 0
M  V30 7098 H 679.477 1.77044 -3.49854 0
M  V30 7099 H 680.967 2.70771 -3.1792 0
M  V30 7100 N 681.404 1.57128 0.121893 0
M  V30 7101 C 682.351 2.0013 1.14964 0
M  V30 7102 C 683.321 0.872959 1.4131 0
M  V30 7103 O 684.506 1.13696 1.53225 0
M  V30 7104 C 681.646 2.40824 2.4718 0
M  V30 7105 C 680.759 3.67061 2.27794 0
M  V30 7106 C 679.894 3.96749 3.53219 0
M  V30 7107 C 678.933 5.16178 3.28978 0
M  V30 7108 N 678.07 5.41751 4.46599 0
M  V30 7109 H 682.91 2.8772 0.775947 0
M  V30 7110 H 680.447 1.42328 0.371652 0
M  V30 7111 H 682.405 2.62454 3.24305 0
M  V30 7112 H 681.035 1.56279 2.82448 0
M  V30 7113 H 680.087 3.53063 1.416 0
M  V30 7114 H 681.399 4.5434 2.05857 0
M  V30 7115 H 680.553 4.19012 4.38764 0
M  V30 7116 H 679.292 3.07941 3.78185 0
M  V30 7117 H 678.297 4.93762 2.41824 0
M  V30 7118 H 679.522 6.06561 3.05386 0
M  V30 7119 H 677.468 4.55899 4.71691 0
M  V30 7120 H 677.385 6.23347 4.27756 0
M  V30 7121 H 678.653 5.68531 5.33285 0
M  V30 7122 O 682.921 -0.266262 1.5929 0
M  V30 7123 H 683.612 -0.91096 1.70942 0
M  V30 END ATOM
M  V30 BEGIN BOND
M  V30 END BOND
M  V30 END CTAB
M  END
$$$$
