drugbank_target|P68133 Actin, alpha skeletal muscle (DB02621; DB02772; DB03021; DB03616; DB03850; DB03903; DB04151; DB04395; DB04629; DB04774; DB04775; DB04783; DB08080)
 OpenBabel12092120043D

  0  0  0     0  0            999 V3000
M  V30 BEGIN CTAB
M  V30 COUNTS 5855 5918 0 0 0
M  V30 BEGIN ATOM
M  V30 1 H -0.908 1.98254 -0.117106 0
M  V30 2 N 0 1.576 0 0
M  V30 3 C 0.933 2.03868 1.02534 0
M  V30 4 C 1.911 0.928543 1.3348 0
M  V30 5 O 3.095 1.19667 1.45644 0
M  V30 6 C 0.222 2.43627 2.35294 0
M  V30 7 C -0.732 3.65373 2.2001 0
M  V30 8 S 0.101 5.13292 1.52614 0
M  V30 9 C 1.257 5.56322 2.86805 0
M  V30 10 H 1.49 2.90518 0.631377 0
M  V30 11 H -0.977 1.52953 0.210867 0
M  V30 12 H 0.981 2.67203 3.11629 0
M  V30 13 H -0.358 1.57376 2.7183 0
M  V30 14 H -1.165 3.90944 3.18086 0
M  V30 15 H -1.563 3.418 1.51819 0
M  V30 16 H 0.729 5.58782 3.83104 0
M  V30 17 H 1.672 6.56266 2.65933 0
M  V30 18 H 2.08 4.83886 2.90714 0
M  V30 19 N 1.4781 -0.272755 1.55222 0
M  V30 20 C 2.7181 -1.01197 1.77591 0
M  V30 21 C 3.0821 -1.8349 0.565294 0
M  V30 22 O 4.2831 -2.60387 0.667242 0
M  V30 23 C 2.5541 -1.87096 3.04516 0
M  V30 24 S 4.1131 -2.67279 3.48004 0
M  V30 25 H 0.9311 -0.340836 0.62398 0
M  V30 26 H 3.5331 -0.282374 1.9345 0
M  V30 27 H 2.2371 -1.25565 3.90719 0
M  V30 28 H 1.7681 -2.64376 2.91323 0
M  V30 29 H 3.7831 -3.89593 3.07297 0
M  V30 30 N 2.9562 -1.48159 -0.537278 0
M  V30 31 C 4.2332 -1.46291 -1.29839 0
M  V30 32 C 4.6132 -0.170613 -2.10409 0
M  V30 33 O 3.9612 0.847746 -2.12192 0
M  V30 34 C 4.1712 -2.72055 -2.18603 0
M  V30 35 C 5.5192 -3.20087 -2.7898 0
M  V30 36 O 6.5432 -2.72921 -2.28894 0
M  V30 37 O 5.4022 -4.02138 -3.70064 0
M  V30 38 H 2.4962 -0.583906 -0.585647 0
M  V30 39 H 5.0422 -1.60384 -0.554534 0
M  V30 40 H 3.8142 -3.57628 -1.58801 0
M  V30 41 H 3.4372 -2.60646 -3.00249 0
M  V30 42 N 4.4343 0.785586 -1.36625 0
M  V30 43 C 5.3443 1.92964 -1.33425 0
M  V30 44 C 6.3603 1.72394 -0.235851 0
M  V30 45 O 7.5363 1.95866 -0.468878 0
M  V30 46 C 4.6013 3.27884 -1.12662 0
M  V30 47 C 3.6623 3.61204 -2.32013 0
M  V30 48 C 2.8953 4.89687 -2.12231 0
M  V30 49 O 3.1183 5.59704 -1.09945 0
M  V30 50 O 2.0523 5.21752 -3.00098 0
M  V30 51 H 5.8783 1.98613 -2.29753 0
M  V30 52 H 3.4633 0.926384 -1.17211 0
M  V30 53 H 5.3453 4.08614 -1.03016 0
M  V30 54 H 4.0203 3.23118 -0.193991 0
M  V30 55 H 2.9273 2.80765 -2.47228 0
M  V30 56 H 4.2603 3.70698 -3.23796 0
M  V30 57 N 5.9124 1.20967 1.01018 0
M  V30 58 C 7.1894 0.93264 1.71934 0
M  V30 59 C 7.5694 -0.55692 2.03621 0
M  V30 60 O 6.9174 -1.52035 1.7058 0
M  V30 61 C 7.1274 1.81233 2.98254 0
M  V30 62 C 8.4754 2.05804 3.71389 0
M  V30 63 O 9.4994 1.78539 3.08225 0
M  V30 64 O 8.3584 2.51888 4.84989 0
M  V30 65 H 5.4524 0.349272 0.749625 0
M  V30 66 H 7.9984 1.31871 1.06808 0
M  V30 67 H 6.7704 2.82067 2.71208 0
M  V30 68 H 6.3934 1.42674 3.7112 0
M  V30 69 N 7.3905 -1.2043 1.01659 0
M  V30 70 C 8.3005 -2.2689 0.596484 0
M  V30 71 C 9.3165 -1.70107 -0.36599 0
M  V30 72 O 10.4925 -2.00117 -0.226942 0
M  V30 73 C 7.5575 -3.4665 -0.0586659 0
M  V30 74 C 6.6185 -4.18662 0.949751 0
M  V30 75 C 5.8515 -5.32705 0.32577 0
M  V30 76 O 6.0745 -5.63656 -0.874509 0
M  V30 77 O 5.0085 -5.92803 1.04249 0
M  V30 78 H 8.8345 -2.65041 1.4828 0
M  V30 79 H 6.4195 -1.27048 0.786082 0
M  V30 80 H 8.3015 -4.19256 -0.424564 0
M  V30 81 H 6.9765 -3.10375 -0.91918 0
M  V30 82 H 5.8835 -3.48229 1.36702 0
M  V30 83 H 7.2165 -4.58878 1.78023 0
M  V30 84 N 8.8686 -0.792821 -1.36206 0
M  V30 85 C 10.0966 -0.378825 -2.03402 0
M  V30 86 C 10.5116 1.00586 -1.59774 0
M  V30 87 O 9.8686 1.64574 -0.788764 0
M  V30 88 C 9.9196 -0.43683 -3.58851 0
M  V30 89 O 9.6406 -1.76691 -4.00889 0
M  V30 90 C 11.1416 -0.0138943 -4.43298 0
M  V30 91 H 8.3616 -0.155673 -0.652692 0
M  V30 92 H 10.9056 -1.07261 -1.74113 0
M  V30 93 H 9.0606 0.208575 -3.86838 0
M  V30 94 H 9.4746 -1.72011 -4.95492 0
M  V30 95 H 10.9486 -0.105615 -5.51899 0
M  V30 96 H 11.4256 1.03915 -4.2673 0
M  V30 97 H 12.0316 -0.63192 -4.20579 0
M  V30 98 N 10.3467 1.47872 -0.545128 0
M  V30 99 C 11.5747 2.06889 -0.021084 0
M  V30 100 C 11.9897 1.39955 1.2672 0
M  V30 101 O 11.3467 0.492036 1.75742 0
M  V30 102 C 11.3977 3.60996 0.190817 0
M  V30 103 O 11.1187 4.25419 -1.04644 0
M  V30 104 C 12.6197 4.36849 0.753521 0
M  V30 105 H 9.8397 0.669785 -0.0403635 0
M  V30 106 H 12.3837 1.90049 -0.755095 0
M  V30 107 H 10.5387 3.77391 0.87492 0
M  V30 108 H 10.9527 5.17785 -0.836611 0
M  V30 109 H 12.4267 5.45399 0.851139 0
M  V30 110 H 12.9037 4.02306 1.762 0
M  V30 111 H 13.5097 4.25169 0.105503 0
M  V30 112 N 11.8248 0.280983 1.55075 0
M  V30 113 C 12.7878 -0.590896 2.21452 0
M  V30 114 C 13.7878 -1.07682 1.19421 0
M  V30 115 O 14.9778 -0.97605 1.44288 0
M  V30 116 C 12.1098 -1.81587 2.88511 0
M  V30 117 H 13.3028 -0.0112554 2.99898 0
M  V30 118 H 10.8558 0.0316438 1.56268 0
M  V30 119 H 11.5908 -2.43587 2.14093 0
M  V30 120 H 11.3758 -1.4753 3.63287 0
M  V30 121 H 12.8658 -2.43575 3.39206 0
M  V30 122 N 13.3029 -1.57598 0.00835791 0
M  V30 123 C 14.2329 -2.1198 -0.979113 0
M  V30 124 C 15.2139 -1.03091 -1.35301 0
M  V30 125 O 16.3989 -1.30818 -1.43528 0
M  V30 126 C 13.5289 -2.62995 -2.26828 0
M  V30 127 C 12.4829 -3.76485 -2.03576 0
M  V30 128 C 11.8089 -4.13846 -3.38579 0
M  V30 129 C 13.1089 -5.0342 -1.39161 0
M  V30 130 H 14.8029 -2.94738 -0.526281 0
M  V30 131 H 12.3489 -1.41783 -0.251704 0
M  V30 132 H 14.3019 -2.99669 -2.96271 0
M  V30 133 H 13.0259 -1.7737 -2.7424 0
M  V30 134 H 11.6849 -3.40217 -1.36557 0
M  V30 135 H 11.3329 -3.25232 -3.83709 0
M  V30 136 H 11.0329 -4.90312 -3.23834 0
M  V30 137 H 12.5569 -4.53086 -4.09323 0
M  V30 138 H 13.9709 -5.37812 -1.98573 0
M  V30 139 H 12.3679 -5.84746 -1.34878 0
M  V30 140 H 13.4379 -4.83548 -0.361868 0
M  V30 141 N 14.781 0.264519 -1.55364 0
M  V30 142 C 16.027 0.99646 -1.76631 0
M  V30 143 C 16.36 1.85632 -0.570478 0
M  V30 144 O 15.635 1.89647 0.43175 0
M  V30 145 C 15.918 1.87187 -3.07625 0
M  V30 146 C 15.771 1.04138 -4.37579 0
M  V30 147 C 17.09 2.85749 -3.34717 0
M  V30 148 H 14.209 0.360841 -0.642622 0
M  V30 149 H 16.851 0.268218 -1.88097 0
M  V30 150 H 15.001 2.49279 -2.9798 0
M  V30 151 H 16.673 0.440517 -4.59192 0
M  V30 152 H 14.916 0.345115 -4.32425 0
M  V30 153 H 15.587 1.68729 -5.2558 0
M  V30 154 H 18.063 2.33793 -3.4421 0
M  V30 155 H 16.939 3.44136 -4.27623 0
M  V30 156 H 17.2 3.61311 -2.54768 0
M  V30 157 N 16.2591 1.48442 0.529413 0
M  V30 158 C 17.4991 1.58086 1.29569 0
M  V30 159 C 17.8631 0.249302 1.90375 0
M  V30 160 O 19.0641 0.220738 2.67892 0
M  V30 161 C 17.3351 2.68793 2.35552 0
M  V30 162 S 18.8941 2.98207 3.21898 0
M  V30 163 H 15.7121 0.557922 0.440732 0
M  V30 164 H 18.3141 1.85966 0.603059 0
M  V30 165 H 17.0181 3.64102 1.89363 0
M  V30 166 H 16.5491 2.42817 3.09522 0
M  V30 167 H 18.5641 2.37548 4.35644 0
M  V30 168 N 17.7372 -0.778329 1.37039 0
M  V30 169 C 19.0142 -1.52551 1.22424 0
M  V30 170 C 19.3942 -2.10288 -0.184964 0
M  V30 171 O 18.7422 -1.94953 -1.19187 0
M  V30 172 C 18.9522 -2.61164 2.31504 0
M  V30 173 C 20.3002 -3.28746 2.68721 0
M  V30 174 O 21.3242 -2.71455 2.30631 0
M  V30 175 O 20.1832 -4.3231 3.3432 0
M  V30 176 H 17.2772 -0.675343 0.477326 0
M  V30 177 H 19.8232 -0.815859 1.48801 0
M  V30 178 H 18.5952 -2.16574 3.25901 0
M  V30 179 H 18.2182 -3.39737 2.06554 0
M  V30 180 N 19.2153 -1.21501 -1.00376 0
M  V30 181 C 20.1633 -0.972442 -2.11297 0
M  V30 182 C 21.1573 0.080731 -1.69208 0
M  V30 183 O 22.3633 -0.0707666 -1.79861 0
M  V30 184 H 18.7383 -0.297218 -0.690772 0
M  V30 185 H 20.7093 -1.91394 -2.28934 0
M  V30 186 C 19.4583 -0.555065 -3.43241 0
M  V30 187 H 18.7813 -1.35709 -3.76062 0
M  V30 188 H 20.2213 -0.424664 -4.21868 0
M  V30 189 C 18.6803 0.734147 -3.28804 0
M  V30 190 O 19.2103 1.78937 -3.59645 0
M  V30 191 N 17.4163 0.701133 -2.82015 0
M  V30 192 H 16.9633 -0.157874 -2.57116 0
M  V30 193 H 16.9213 1.56403 -2.72737 0
M  V30 194 N 20.6934 1.19889 -1.02296 0
M  V30 195 C 21.9414 1.89046 -0.714558 0
M  V30 196 C 22.2624 1.79636 0.758681 0
M  V30 197 O 21.5324 1.20292 1.54618 0
M  V30 198 H 20.1124 0.699802 -0.261317 0
M  V30 199 H 22.7744 1.45574 -1.29592 0
M  V30 200 H 21.8704 2.95524 -1.0036 0
M  V30 201 N 22.1715 0.800033 1.35784 0
M  V30 202 C 23.3965 0.388511 2.03729 0
M  V30 203 C 23.8215 -0.990481 1.5991 0
M  V30 204 O 23.1795 -1.64013 0.772612 0
M  V30 205 C 23.2275 0.4726 3.5749 0
M  V30 206 O 22.3315 -0.51646 4.09153 0
M  V30 207 H 21.6725 0.163271 0.643614 0
M  V30 208 H 24.2025 1.0841 1.73518 0
M  V30 209 H 24.2125 0.34003 4.06581 0
M  V30 210 H 22.8875 1.47848 3.88734 0
M  V30 211 H 21.4645 -0.344673 3.71304 0
M  V30 212 N 23.6496 -1.47581 0.552962 0
M  V30 213 C 24.8976 -2.02082 0.0272703 0
M  V30 214 C 25.2186 -1.4301 -1.32563 0
M  V30 215 O 24.4886 -0.603745 -1.86365 0
M  V30 216 H 23.0686 -0.746966 0.00709182 0
M  V30 217 H 25.7306 -1.81033 0.722008 0
M  V30 218 H 24.8266 -3.12034 -0.0639951 0
M  V30 219 N 25.1277 -0.289203 -1.54924 0
M  V30 220 C 26.0577 0.58549 -2.2604 0
M  V30 221 C 27.0387 1.14753 -1.25562 0
M  V30 222 O 28.2237 1.17906 -1.54311 0
M  V30 223 C 25.3537 1.76305 -2.99222 0
M  V30 224 C 24.3077 1.33191 -4.06748 0
M  V30 225 C 23.6337 2.5937 -4.6758 0
M  V30 226 C 24.9337 0.471775 -5.20165 0
M  V30 227 H 26.6277 -0.00763532 -2.99399 0
M  V30 228 H 24.1737 -0.00511229 -1.43999 0
M  V30 229 H 26.1267 2.38097 -3.47689 0
M  V30 230 H 24.8507 2.38223 -2.23422 0
M  V30 231 H 23.5097 0.737121 -3.59113 0
M  V30 232 H 23.1577 3.19576 -3.88433 0
M  V30 233 H 22.8577 2.31228 -5.40192 0
M  V30 234 H 24.3817 3.21985 -5.18804 0
M  V30 235 H 25.7957 0.995056 -5.64599 0
M  V30 236 H 24.1927 0.284639 -5.99425 0
M  V30 237 H 25.2627 -0.506041 -4.82252 0
M  V30 238 N 26.6058 1.57591 -0.0167156 0
M  V30 239 C 27.8518 1.91567 0.665582 0
M  V30 240 C 28.1848 0.892298 1.72487 0
M  V30 241 O 27.4598 -0.0867127 1.94307 0
M  V30 242 C 27.7428 3.36069 1.29342 0
M  V30 243 C 27.5958 4.49135 0.244541 0
M  V30 244 C 28.9148 3.803 2.21495 0
M  V30 245 H 26.0338 0.69666 0.240488 0
M  V30 246 H 28.6758 1.89866 -0.0714356 0
M  V30 247 H 26.8258 3.3765 1.92158 0
M  V30 248 H 28.4978 4.59689 -0.385228 0
M  V30 249 H 26.7408 4.3165 -0.431379 0
M  V30 250 H 27.4118 5.47242 0.723207 0
M  V30 251 H 29.8878 3.80377 1.68678 0
M  V30 252 H 28.7638 4.82127 2.62382 0
M  V30 253 H 29.0248 3.15104 3.101 0
M  V30 254 N 28.0839 -0.256276 1.55502 0
M  V30 255 C 29.0309 -1.31714 1.89526 0
M  V30 256 C 30.0009 -1.4828 0.748479 0
M  V30 257 O 31.1859 -1.62416 1.00128 0
M  V30 258 C 28.3259 -2.66933 2.18725 0
M  V30 259 C 27.4389 -2.58452 3.4616 0
M  V30 260 C 26.5739 -3.85961 3.64976 0
M  V30 261 C 25.6129 -3.72059 4.86044 0
M  V30 262 N 24.7499 -4.9144 5.01429 0
M  V30 263 H 29.5899 -1.01998 2.80001 0
M  V30 264 H 27.1269 -0.492413 1.38613 0
M  V30 265 H 29.0849 -3.4563 2.33657 0
M  V30 266 H 27.7149 -2.94816 1.31466 0
M  V30 267 H 26.7669 -1.71374 3.3961 0
M  V30 268 H 28.0789 -2.44085 4.34999 0
M  V30 269 H 27.2329 -4.73101 3.79816 0
M  V30 270 H 25.9719 -4.03215 2.74353 0
M  V30 271 H 24.9769 -2.83302 4.7119 0
M  V30 272 H 26.2019 -3.56309 5.78118 0
M  V30 273 H 24.1479 -5.09072 4.13741 0
M  V30 274 H 24.0649 -4.79668 5.84341 0
M  V30 275 H 25.3329 -5.80104 5.20672 0
M  V30 276 N 29.562 -1.4872 -0.521534 0
M  V30 277 C 30.525 -1.63379 -1.60748 0
M  V30 278 C 31.525 -0.50661 -1.52611 0
M  V30 279 O 32.715 -0.772601 -1.5613 0
M  V30 280 C 29.847 -1.61192 -3.00383 0
M  V30 281 H 31.04 -2.60217 -1.49087 0
M  V30 282 H 28.593 -1.37444 -0.744235 0
M  V30 283 H 29.328 -0.65863 -3.17541 0
M  V30 284 H 29.113 -2.43032 -3.07698 0
M  V30 285 H 30.603 -1.7466 -3.7932 0
M  V30 286 N 31.0401 0.771051 -1.3745 0
M  V30 287 C 32.2881 1.52661 -1.32435 0
M  V30 288 C 32.6091 1.9479 0.0905024 0
M  V30 289 O 31.8791 1.66348 1.03466 0
M  V30 290 H 30.4591 0.566218 -0.487244 0
M  V30 291 H 33.1211 0.917636 -1.71946 0
M  V30 292 H 32.2171 2.42568 -1.96385 0
M  V30 293 N 32.5182 1.22032 0.997298 0
M  V30 294 C 33.7652 1.04222 1.73621 0
M  V30 295 C 34.0932 -0.423264 1.89839 0
M  V30 296 O 33.3482 -1.3302 1.43542 0
M  V30 297 C 33.6472 1.69345 3.14733 0
M  V30 298 C 33.3132 3.19226 3.18442 0
M  V30 299 C 31.9752 3.60124 3.19161 0
M  V30 300 C 34.3272 4.15181 3.15078 0
M  V30 301 C 31.6552 4.95467 3.14212 0
M  V30 302 C 34.0072 5.50495 3.1167 0
M  V30 303 C 32.6712 5.90779 3.10703 0
M  V30 304 H 31.9412 0.381374 0.635323 0
M  V30 305 H 34.5882 1.51732 1.16831 0
M  V30 306 H 32.8932 1.14147 3.74803 0
M  V30 307 H 34.5902 1.53059 3.7064 0
M  V30 308 H 31.1802 2.86659 3.18629 0
M  V30 309 H 35.3642 3.84605 3.13676 0
M  V30 310 H 30.6202 5.25916 3.11805 0
M  V30 311 H 34.7942 6.24576 3.08022 0
M  V30 312 H 32.4212 6.9562 3.06622 0
M  V30 313 N 33.9963 -1.19345 1.0293 0
M  V30 314 C 34.9593 -2.20793 0.615069 0
M  V30 315 C 35.9593 -1.57553 -0.321533 0
M  V30 316 O 37.1493 -1.73862 -0.108483 0
M  V30 317 C 34.2813 -3.40754 -0.0999222 0
M  V30 318 H 35.4743 -2.58955 1.51269 0
M  V30 319 H 33.0273 -1.3303 0.820534 0
M  V30 320 H 33.7623 -3.0811 -1.01187 0
M  V30 321 H 33.5473 -3.87889 0.57309 0
M  V30 322 H 35.0373 -4.15898 -0.376645 0
M  V30 323 N 35.4744 -0.807222 -1.35358 0
M  V30 324 C 36.7224 -0.387122 -1.98358 0
M  V30 325 C 37.0434 1.04942 -1.64354 0
M  V30 326 O 36.3134 1.72615 -0.926339 0
M  V30 327 H 34.8934 -0.140154 -0.733734 0
M  V30 328 H 37.5554 -1.0332 -1.6526 0
M  V30 329 H 36.6514 -0.493352 -3.08176 0
M  V30 330 N 36.9525 1.47285 -0.560781 0
M  V30 331 C 38.2295 1.9558 0.0277798 0
M  V30 332 C 38.6095 1.5034 1.48192 0
M  V30 333 O 37.9575 0.743882 2.16052 0
M  V30 334 C 38.1675 3.48789 -0.121418 0
M  V30 335 C 39.5155 4.24594 0.0220912 0
M  V30 336 O 40.5395 3.56166 -0.0491439 0
M  V30 337 O 39.3985 5.46217 0.175958 0
M  V30 338 H 36.4925 0.824663 0.0621342 0
M  V30 339 H 39.0385 1.5767 -0.627556 0
M  V30 340 H 37.8105 3.74533 -1.13316 0
M  V30 341 H 37.4335 3.93473 0.571366 0
M  V30 342 N 38.4306 0.297415 1.54768 0
M  V30 343 C 39.7076 -0.365847 1.92148 0
M  V30 344 C 40.0876 -1.71975 1.22424 0
M  V30 345 O 39.4356 -2.25666 0.358739 0
M  V30 346 C 39.6456 -0.484056 3.45627 0
M  V30 347 C 40.9936 -0.756594 4.17805 0
M  V30 348 O 42.0176 -0.568007 3.51642 0
M  V30 349 O 40.8766 -1.11863 5.34929 0
M  V30 350 H 37.9706 -0.203919 0.801465 0
M  V30 351 H 40.5166 0.34521 1.66152 0
M  V30 352 H 39.2886 0.467865 3.88493 0
M  V30 353 H 38.9116 -1.24372 3.77647 0
M  V30 354 N 39.9087 -1.5758 0.0250728 0
M  V30 355 C 40.8717 -2.08896 -0.943139 0
M  V30 356 C 41.8717 -1.00321 -1.25668 0
M  V30 357 O 43.0617 -1.26495 -1.19769 0
M  V30 358 C 40.1937 -2.55143 -2.26086 0
M  V30 359 H 41.3867 -2.95723 -0.498775 0
M  V30 360 H 38.9397 -1.54703 -0.222888 0
M  V30 361 H 39.6747 -1.71633 -2.75159 0
M  V30 362 H 39.4597 -3.34461 -2.04641 0
M  V30 363 H 40.9497 -2.95083 -2.95492 0
M  V30 364 N 41.3868 0.248026 -1.55636 0
M  V30 365 C 42.7978 0.817177 -1.67866 0
M  V30 366 C 43.1488 1.86069 -0.622322 0
M  V30 367 O 42.2738 2.15157 0.231618 0
M  V30 368 C 42.8688 1.489 -3.04326 0
M  V30 369 C 41.4278 2.00587 -3.185 0
M  V30 370 C 40.5748 0.856573 -2.63739 0
M  V30 371 H 43.5258 0.0238579 -1.58682 0
M  V30 372 H 43.5468 2.35698 -2.98708 0
M  V30 373 H 43.0588 0.729279 -3.81186 0
M  V30 374 H 41.1598 2.79443 -2.4646 0
M  V30 375 H 41.2728 2.20402 -4.25393 0
M  V30 376 H 39.6368 1.25678 -2.21534 0
M  V30 377 H 40.4198 0.109953 -3.43124 0
M  V30 378 N 42.8649 1.48995 0.513639 0
M  V30 379 C 44.2809 1.35478 0.843682 0
M  V30 380 C 44.4809 0.378213 1.97919 0
M  V30 381 O 43.5369 -0.194689 2.51748 0
M  V30 382 C 44.8499 2.75901 1.1958 0
M  V30 383 C 46.3979 2.84509 1.30474 0
M  V30 384 C 46.8729 4.25671 1.69021 0
M  V30 385 N 48.3639 4.28422 1.76094 0
M  V30 386 C 49.0989 5.34601 2.07338 0
M  V30 387 N 48.5949 6.5104 2.36894 0
M  V30 388 N 50.3879 5.22007 2.08483 0
M  V30 389 H 42.5389 2.11092 -0.235328 0
M  V30 390 H 44.8019 0.947039 -0.0426669 0
M  V30 391 H 44.5079 3.49001 0.434913 0
M  V30 392 H 44.3819 3.10467 2.1422 0
M  V30 393 H 46.7689 2.11655 2.05637 0
M  V30 394 H 46.8499 2.53542 0.339155 0
M  V30 395 H 46.4939 4.99048 0.944135 0
M  V30 396 H 46.4239 4.54094 2.66658 0
M  V30 397 H 48.9149 3.44441 1.55464 0
M  V30 398 H 49.2279 7.2779 2.59887 0
M  V30 399 H 47.5729 6.54287 2.34378 0
M  V30 400 H 50.7639 4.30051 1.84861 0
M  V30 401 H 50.9369 6.04854 2.325 0
M  V30 402 N 44.343 -0.763751 1.37857 0
M  V30 403 C 45.306 -1.85889 1.34081 0
M  V30 404 C 46.306 -1.58949 0.243277 0
M  V30 405 O 47.496 -1.66882 0.499589 0
M  V30 406 C 44.628 -3.23176 1.08489 0
M  V30 407 H 45.821 -1.90648 2.31502 0
M  V30 408 H 43.374 -0.964367 1.23003 0
M  V30 409 H 44.109 -3.24091 0.116318 0
M  V30 410 H 43.894 -3.44124 1.8794 0
M  V30 411 H 45.384 -4.03254 1.08517 0
M  V30 412 N 45.8211 -1.22559 -0.990812 0
M  V30 413 C 47.0671 -1.05297 -1.73322 0
M  V30 414 C 47.4001 0.410655 -1.89808 0
M  V30 415 O 46.6751 1.30439 -1.44277 0
M  V30 416 C 46.9581 -1.76713 -3.13759 0
M  V30 417 C 46.8111 -3.30684 -3.04907 0
M  V30 418 C 48.1301 -1.52121 -4.12974 0
M  V30 419 H 45.2491 -0.38392 -0.629106 0
M  V30 420 H 47.8911 -1.50926 -1.15418 0
M  V30 421 H 46.0411 -1.37924 -3.63193 0
M  V30 422 H 47.7131 -3.7893 -2.63077 0
M  V30 423 H 45.9561 -3.60253 -2.41661 0
M  V30 424 H 46.6271 -3.75833 -4.04294 0
M  V30 425 H 49.1031 -1.85819 -3.72304 0
M  V30 426 H 47.9791 -2.04582 -5.0935 0
M  V30 427 H 48.2401 -0.454257 -4.3976 0
M  V30 428 N 47.2992 1.18797 -1.03562 0
M  V30 429 C 48.5462 1.8865 -0.736023 0
M  V30 430 C 48.8742 1.80041 0.735889 0
M  V30 431 O 48.1292 1.19179 1.55225 0
M  V30 432 C 48.4282 3.38692 -1.14117 0
M  V30 433 C 48.0942 3.67504 -2.6125 0
M  V30 434 C 46.7562 3.75078 -3.01447 0
M  V30 435 C 49.1082 3.80293 -3.56408 0
M  V30 436 C 46.4362 3.92915 -4.35701 0
M  V30 437 C 48.7882 3.99645 -4.90374 0
M  V30 438 C 47.4522 4.05453 -5.30249 0
M  V30 439 H 46.7222 0.690321 -0.26933 0
M  V30 440 H 49.3692 1.40641 -1.29971 0
M  V30 441 H 47.6742 3.88645 -0.496202 0
M  V30 442 H 49.3712 3.91072 -0.886789 0
M  V30 443 H 45.9612 3.62223 -2.29113 0
M  V30 444 H 50.1452 3.73779 -3.26501 0
M  V30 445 H 45.4012 3.95653 -4.66121 0
M  V30 446 H 49.5752 4.08482 -5.64017 0
M  V30 447 H 47.2022 4.19027 -6.34288 0
M  V30 448 N 48.7773 0.814389 1.34928 0
M  V30 449 C 50.1883 0.458364 1.80986 0
M  V30 450 C 50.5393 -1.02042 1.67577 0
M  V30 451 O 49.6643 -1.79352 1.21086 0
M  V30 452 C 50.2593 0.825212 3.28597 0
M  V30 453 C 48.8183 0.521677 3.72767 0
M  V30 454 C 47.9653 1.04668 2.56788 0
M  V30 455 H 50.9163 1.00533 1.22795 0
M  V30 456 H 50.9373 0.12571 3.80292 0
M  V30 457 H 50.4493 1.90154 3.38324 0
M  V30 458 H 48.5503 -0.545589 3.68584 0
M  V30 459 H 48.6633 1.05977 4.67232 0
M  V30 460 H 47.0273 0.468622 2.50352 0
M  V30 461 H 47.8103 2.12927 2.6929 0
M  V30 462 N 50.2554 -1.46986 0.568584 0
M  V30 463 C 51.4804 -2.07335 0.0520528 0
M  V30 464 C 51.9054 -1.41675 -1.23733 0
M  V30 465 O 51.2634 -0.495623 -1.74394 0
M  V30 466 C 51.3114 -3.60417 -0.11501 0
M  V30 467 O 50.4154 -3.95309 -1.17492 0
M  V30 468 H 49.7564 -0.661597 0.0564385 0
M  V30 469 H 52.2864 -1.88837 0.787507 0
M  V30 470 H 52.2964 -4.06698 -0.325644 0
M  V30 471 H 50.9714 -4.07601 0.826675 0
M  V30 472 H 49.5484 -3.60757 -0.943869 0
M  V30 473 N 51.7335 -0.305618 -1.54608 0
M  V30 474 C 52.9825 0.303098 -1.9941 0
M  V30 475 C 53.2955 1.54648 -1.19764 0
M  V30 476 O 54.5015 2.23007 -1.54855 0
M  V30 477 C 52.9575 0.590588 -3.55021 0
M  V30 478 C 52.5655 -0.634719 -4.43481 0
M  V30 479 C 54.3095 1.16025 -4.08336 0
M  V30 480 C 52.2165 -0.320126 -5.90533 0
M  V30 481 H 51.1465 0.117031 -0.744862 0
M  V30 482 H 53.7975 -0.415045 -1.78745 0
M  V30 483 H 52.1795 1.36845 -3.71604 0
M  V30 484 H 53.3535 -1.41079 -4.38672 0
M  V30 485 H 51.6685 -1.12333 -4.00962 0
M  V30 486 H 54.2655 1.40994 -5.15776 0
M  V30 487 H 54.6085 2.10397 -3.5922 0
M  V30 488 H 55.1415 0.443985 -3.95315 0
M  V30 489 H 51.8805 -1.23254 -6.43808 0
M  V30 490 H 51.4005 0.418579 -5.98338 0
M  V30 491 H 53.0795 0.0766241 -6.46955 0
M  V30 492 N 53.2116 1.57565 -0.0334293 0
M  V30 493 C 54.4576 1.92262 0.645226 0
M  V30 494 C 54.7906 0.910543 1.71531 0
M  V30 495 O 54.0656 -0.066099 1.94388 0
M  V30 496 C 54.3486 3.37422 1.2577 0
M  V30 497 C 54.2016 4.49369 0.196891 0
M  V30 498 C 55.5206 3.82628 2.17449 0
M  V30 499 H 52.6396 0.699171 0.233085 0
M  V30 500 H 55.2816 1.89779 -0.0915694 0
M  V30 501 H 53.4316 3.39669 1.88566 0
M  V30 502 H 55.1036 4.59254 -0.433962 0
M  V30 503 H 53.3466 4.31168 -0.477137 0
M  V30 504 H 54.0176 5.47978 0.665124 0
M  V30 505 H 56.4936 3.82145 1.64634 0
M  V30 506 H 55.3696 4.84883 2.57254 0
M  V30 507 H 55.6306 3.18376 3.0674 0
M  V30 508 N 54.6897 -0.239769 1.55765 0
M  V30 509 C 55.9377 -0.964892 1.77579 0
M  V30 510 C 56.2587 -1.85582 0.598699 0
M  V30 511 O 55.5287 -1.92075 -0.385226 0
M  V30 512 H 54.1087 -0.359265 0.654933 0
M  V30 513 H 56.7707 -0.256001 1.93211 0
M  V30 514 H 55.8667 -1.58243 2.69009 0
M  V30 515 N 56.1678 -1.49265 -0.50573 0
M  V30 516 C 57.5838 -1.35923 -0.836486 0
M  V30 517 C 57.7838 -0.388704 -1.97715 0
M  V30 518 O 56.8398 0.181336 -2.51848 0
M  V30 519 C 58.1528 -2.76531 -1.18115 0
M  V30 520 C 59.7008 -2.85197 -1.28964 0
M  V30 521 C 60.1758 -4.26561 -1.66761 0
M  V30 522 N 61.6668 -4.2935 -1.73819 0
M  V30 523 C 62.4018 -5.35693 -2.045 0
M  V30 524 N 61.8978 -6.52287 -2.33438 0
M  V30 525 N 63.6908 -5.23105 -2.05711 0
M  V30 526 H 55.8418 -2.10965 0.246519 0
M  V30 527 H 58.1048 -0.9468 0.0476887 0
M  V30 528 H 57.8108 -3.49226 -0.416398 0
M  V30 529 H 57.6848 -3.11599 -2.1257 0
M  V30 530 H 60.0718 -2.12742 -2.04511 0
M  V30 531 H 60.1528 -2.53718 -0.325704 0
M  V30 532 H 59.7968 -4.99541 -0.917656 0
M  V30 533 H 59.7268 -4.55502 -2.64246 0
M  V30 534 H 62.2178 -3.4526 -1.53635 0
M  V30 535 H 62.5308 -7.29158 -2.56024 0
M  V30 536 H 60.8758 -6.55521 -2.30905 0
M  V30 537 H 64.0668 -4.31026 -1.82577 0
M  V30 538 H 64.2398 -6.06078 -2.29289 0
M  V30 539 N 57.6459 0.756429 -1.3826 0
M  V30 540 C 59.0569 1.33359 -1.30661 0
M  V30 541 C 59.4079 1.96161 0.0388875 0
M  V30 542 O 58.5329 1.94874 0.940918 0
M  V30 543 C 59.1279 2.42477 -2.36622 0
M  V30 544 C 57.6869 2.95922 -2.3261 0
M  V30 545 C 56.8339 1.69275 -2.19639 0
M  V30 546 H 59.7849 0.55552 -1.4866 0
M  V30 547 H 59.8059 3.22345 -2.02174 0
M  V30 548 H 59.3179 1.96739 -3.34538 0
M  V30 549 H 57.4189 3.45996 -1.38267 0
M  V30 550 H 57.5319 3.50494 -3.26636 0
M  V30 551 H 55.8959 1.92793 -1.66442 0
M  V30 552 H 56.6789 1.25619 -3.19491 0
M  V30 553 N 59.124 1.23083 0.984299 0
M  V30 554 C 60.54 0.992637 1.24975 0
M  V30 555 C 60.74 -0.308618 1.99123 0
M  V30 556 O 59.796 -1.02905 2.30579 0
M  V30 557 C 61.109 2.19698 2.05312 0
M  V30 558 C 62.657 2.24147 2.18465 0
M  V30 559 C 63.132 3.44157 3.02192 0
M  V30 560 N 64.623 3.44372 3.09777 0
M  V30 561 C 65.358 4.33886 3.74874 0
M  V30 562 N 64.854 5.3363 4.41827 0
M  V30 563 N 66.647 4.21639 3.71721 0
M  V30 564 H 58.798 2.06731 0.487453 0
M  V30 565 H 61.061 0.906339 0.277944 0
M  V30 566 H 60.767 3.1411 1.58201 0
M  V30 567 H 60.641 2.20465 3.06064 0
M  V30 568 H 63.028 1.30277 2.64786 0
M  V30 569 H 63.109 2.27415 1.17115 0
M  V30 570 H 62.753 4.38332 2.56568 0
M  V30 571 H 62.683 3.3813 4.03702 0
M  V30 572 H 65.174 2.72201 2.62135 0
M  V30 573 H 65.487 5.98196 4.89266 0
M  V30 574 H 63.832 5.37534 4.40548 0
M  V30 575 H 67.023 3.42962 3.18582 0
M  V30 576 H 67.196 4.91604 4.22173 0
M  V30 577 N 60.6021 -1.18246 1.0419 0
M  V30 578 C 61.5521 -2.19843 0.604392 0
M  V30 579 C 62.5361 -1.56962 -0.353814 0
M  V30 580 O 63.7281 -1.76156 -0.17267 0
M  V30 581 C 60.8571 -3.43287 -0.0298975 0
M  V30 582 C 59.9431 -4.13288 0.951531 0
M  V30 583 N 60.3341 -4.59271 2.11906 0
M  V30 584 C 58.6321 -4.39165 0.7778 0
M  V30 585 C 59.3331 -5.13173 2.73912 0
M  V30 586 N 58.3091 -5.04763 2.01779 0
M  V30 587 H 62.1111 -2.53089 1.4941 0
M  V30 588 H 59.6251 -1.34465 0.910658 0
M  V30 589 H 61.6221 -4.15334 -0.361037 0
M  V30 590 H 60.2821 -3.11537 -0.915127 0
M  V30 591 H 61.2931 -4.5368 2.49789 0
M  V30 592 H 57.9701 -4.17461 -0.0572331 0
M  V30 593 H 59.3601 -5.58947 3.72864 0
M  V30 594 N 62.0802 -0.821533 -1.34494 0
M  V30 595 C 63.0122 -0.199946 -2.28326 0
M  V30 596 C 64.0252 0.609377 -1.50965 0
M  V30 597 O 65.2142 0.439285 -1.7301 0
M  V30 598 C 62.3142 0.738431 -3.30757 0
M  V30 599 C 61.4872 -0.0277632 -4.37391 0
M  V30 600 C 60.5462 0.831332 -5.19591 0
M  V30 601 O 59.5722 0.276822 -5.68526 0
M  V30 602 N 60.7742 2.15132 -5.39165 0
M  V30 603 H 63.5392 -1.00609 -2.82308 0
M  V30 604 H 61.1002 -0.678366 -1.47003 0
M  V30 605 H 63.0922 1.31773 -3.82646 0
M  V30 606 H 61.6622 1.44533 -2.7718 0
M  V30 607 H 60.8822 -0.788359 -3.86236 0
M  V30 608 H 62.1702 -0.555251 -5.05761 0
M  V30 609 H 61.5682 2.62559 -5.01078 0
M  V30 610 H 60.1252 2.6795 -5.94177 0
M  V30 611 N 63.5583 1.46682 -0.576371 0
M  V30 612 C 64.8063 2.02013 -0.0594163 0
M  V30 613 C 65.1273 1.45101 1.30271 0
M  V30 614 O 64.3973 0.633317 1.8538 0
M  V30 615 H 62.9773 0.746759 -0.0189745 0
M  V30 616 H 65.6393 1.79862 -0.750717 0
M  V30 617 H 64.7353 3.12097 0.014345 0
M  V30 618 N 65.0364 0.313813 1.54444 0
M  V30 619 C 66.2824 -0.292108 2.00685 0
M  V30 620 C 66.6154 -1.52548 1.20177 0
M  V30 621 O 65.8904 -1.92452 0.281531 0
M  V30 622 C 66.1734 -0.635968 3.5444 0
M  V30 623 C 66.0264 0.607437 4.4568 0
M  V30 624 C 67.3454 -1.45747 4.15266 0
M  V30 625 H 64.4644 -0.104697 0.729526 0
M  V30 626 H 67.1064 0.428457 1.85106 0
M  V30 627 H 65.2564 -1.24986 3.67846 0
M  V30 628 H 66.9284 1.24581 4.44159 0
M  V30 629 H 65.1714 1.23822 4.15753 0
M  V30 630 H 65.8424 0.322515 5.51057 0
M  V30 631 H 68.3184 -0.938645 4.05375 0
M  V30 632 H 67.1944 -1.66683 5.2298 0
M  V30 633 H 67.4554 -2.45063 3.67963 0
M  V30 634 N 66.5145 -1.57545 0.0417849 0
M  V30 635 C 67.4475 -2.06514 -0.970928 0
M  V30 636 C 68.4255 -0.963607 -1.30971 0
M  V30 637 O 69.6095 -1.23486 -1.4242 0
M  V30 638 C 66.7365 -2.4978 -2.28752 0
M  V30 639 C 65.7825 -3.71078 -2.10246 0
M  V30 640 S 66.6155 -5.17158 -1.38952 0
M  V30 641 C 67.7715 -5.6373 -2.71954 0
M  V30 642 H 68.0045 -2.9209 -0.554129 0
M  V30 643 H 65.5375 -1.53459 -0.17024 0
M  V30 644 H 67.4955 -2.75371 -3.04435 0
M  V30 645 H 66.1565 -1.64527 -2.67562 0
M  V30 646 H 65.3495 -3.9924 -3.07609 0
M  V30 647 H 64.9515 -3.45705 -1.42704 0
M  V30 648 H 67.2435 -5.68743 -3.68154 0
M  V30 649 H 68.1865 -6.63086 -2.4844 0
M  V30 650 H 68.5945 -4.91424 -2.77782 0
M  V30 651 N 67.9926 0.231505 -1.5589 0
M  V30 652 C 69.2386 0.95877 -1.78705 0
M  V30 653 C 69.5716 1.8438 -0.609725 0
M  V30 654 O 68.8466 1.90521 0.391426 0
M  V30 655 C 69.1296 1.8062 -3.11526 0
M  V30 656 C 68.9826 0.948328 -4.39689 0
M  V30 657 C 70.3016 2.78585 -3.40703 0
M  V30 658 H 67.4206 0.347129 -0.650131 0
M  V30 659 H 70.0626 0.228259 -1.88624 0
M  V30 660 H 68.2126 2.42902 -3.03201 0
M  V30 661 H 69.8846 0.343016 -4.60023 0
M  V30 662 H 68.1276 0.253314 -4.3306 0
M  V30 663 H 68.7986 1.57543 -5.29041 0
M  V30 664 H 71.2746 2.26439 -3.49091 0
M  V30 665 H 70.1506 3.34988 -4.34826 0
M  V30 666 H 70.4116 3.55825 -2.62375 0
M  V30 667 N 69.4707 1.49531 0.497807 0
M  V30 668 C 70.7187 1.58865 1.24926 0
M  V30 669 C 71.0397 0.278721 1.92998 0
M  V30 670 O 70.3097 -0.702144 1.82885 0
M  V30 671 H 68.8897 0.585343 0.464094 0
M  V30 672 H 71.5517 1.86174 0.57666 0
M  V30 673 H 70.6477 2.38633 2.01149 0
M  V30 674 N 70.9488 -0.749086 1.3866 0
M  V30 675 C 71.8818 -1.87111 1.30631 0
M  V30 676 C 72.8598 -1.61572 0.18251 0
M  V30 677 O 74.0438 -1.85019 0.360592 0
M  V30 678 C 71.1708 -3.22815 1.02511 0
M  V30 679 C 70.2168 -3.67234 2.1689 0
M  V30 680 S 71.0498 -3.78245 3.79066 0
M  V30 681 C 72.2058 -5.16761 3.53142 0
M  V30 682 H 72.4388 -1.93636 2.25594 0
M  V30 683 H 69.9718 -0.912525 1.24549 0
M  V30 684 H 71.9298 -4.01181 0.869701 0
M  V30 685 H 70.5908 -3.13964 0.0925884 0
M  V30 686 H 69.7838 -4.65677 1.92771 0
M  V30 687 H 69.3858 -2.96034 2.28561 0
M  V30 688 H 71.6778 -6.02656 3.09534 0
M  V30 689 H 72.6208 -5.45902 4.50995 0
M  V30 690 H 73.0288 -4.85771 2.87554 0
M  V30 691 N 72.4269 -1.23603 -0.977757 0
M  V30 692 C 73.6749 -1.06759 -1.71601 0
M  V30 693 C 73.9959 0.395929 -1.90938 0
M  V30 694 O 73.2659 1.28356 -1.47992 0
M  V30 695 H 71.8459 -0.392062 -0.635843 0
M  V30 696 H 74.5079 -1.55362 -1.1768 0
M  V30 697 H 73.6039 -1.55763 -2.70452 0
M  V30 698 N 73.905 1.17692 -1.04816 0
M  V30 699 C 74.837 2.21103 -0.603822 0
M  V30 700 C 75.85 1.59411 0.33046 0
M  V30 701 O 77.039 1.7807 0.12379 0
M  V30 702 C 74.139 3.38623 0.136898 0
M  V30 703 C 73.312 4.29888 -0.807137 0
M  V30 704 C 72.371 5.26088 -0.10836 0
M  V30 705 O 71.397 5.64353 -0.741232 0
M  V30 706 N 72.599 5.68882 1.15558 0
M  V30 707 H 75.364 2.59848 -1.49329 0
M  V30 708 H 72.925 1.32553 -0.929587 0
M  V30 709 H 74.917 4.00009 0.614401 0
M  V30 710 H 73.487 2.98508 0.927993 0
M  V30 711 H 72.707 3.65993 -1.46434 0
M  V30 712 H 73.995 4.87759 -1.44807 0
M  V30 713 H 73.393 5.39861 1.69015 0
M  V30 714 H 71.95 6.32429 1.57722 0
M  V30 715 N 75.3831 0.828654 1.34056 0
M  V30 716 C 76.3301 0.252567 2.29414 0
M  V30 717 C 77.3001 -0.62588 1.53857 0
M  V30 718 O 78.4851 -0.566312 1.82202 0
M  V30 719 C 75.6251 -0.574831 3.40279 0
M  V30 720 C 74.7381 0.326499 4.30764 0
M  V30 721 C 73.8731 -0.511016 5.28736 0
M  V30 722 C 72.9121 0.389342 6.1086 0
M  V30 723 N 72.0491 -0.409439 7.00905 0
M  V30 724 H 76.8891 1.07108 2.78086 0
M  V30 725 H 74.4261 0.539677 1.36843 0
M  V30 726 H 76.3841 -1.06992 4.03248 0
M  V30 727 H 75.0141 -1.35841 2.92826 0
M  V30 728 H 74.0661 0.939837 3.68607 0
M  V30 729 H 75.3781 1.01857 4.88289 0
M  V30 730 H 74.5321 -1.07035 5.97184 0
M  V30 731 H 73.2711 -1.23657 4.71763 0
M  V30 732 H 72.2761 0.960769 5.4134 0
M  V30 733 H 73.5011 1.1131 6.69916 0
M  V30 734 H 71.4471 -1.11856 6.46393 0
M  V30 735 H 71.3641 0.224126 7.55668 0
M  V30 736 H 72.6321 -0.951336 7.73673 0
M  V30 737 N 76.8612 -1.46375 0.584142 0
M  V30 738 C 78.1382 -1.956 0.0033388 0
M  V30 739 C 78.5182 -1.52679 -1.45782 0
M  V30 740 O 77.8662 -0.77816 -2.14842 0
M  V30 741 C 78.0762 -3.48551 0.176891 0
M  V30 742 C 79.4242 -4.24576 0.0454609 0
M  V30 743 O 80.4482 -3.56043 0.105801 0
M  V30 744 O 79.3072 -5.46427 -0.0890376 0
M  V30 745 H 76.4012 -0.825547 -0.0490066 0
M  V30 746 H 78.9472 -1.56652 0.65256 0
M  V30 747 H 77.7192 -3.72683 1.1926 0
M  V30 748 H 77.3422 -3.94332 -0.508695 0
M  V30 749 N 78.3393 -0.321999 -1.54275 0
M  V30 750 C 79.5643 0.285791 -2.05422 0
M  V30 751 C 79.9893 1.45124 -1.19669 0
M  V30 752 O 79.3473 1.80132 -0.205441 0
M  V30 753 C 79.3953 0.69956 -3.53749 0
M  V30 754 O 78.4993 1.8021 -3.70942 0
M  V30 755 H 77.8403 0.0518962 -0.661969 0
M  V30 756 H 80.3703 -0.469954 -1.9913 0
M  V30 757 H 80.3803 0.982649 -3.9599 0
M  V30 758 H 79.0553 -0.152864 -4.15619 0
M  V30 759 H 77.6323 1.51794 -3.40607 0
M  V30 760 N 79.8174 1.5752 -0.0501392 0
M  V30 761 C 81.0474 1.96678 0.632573 0
M  V30 762 C 81.4554 0.926298 1.64974 0
M  V30 763 O 80.7984 -0.09802 1.83438 0
M  V30 764 C 80.8604 3.32068 1.37735 0
M  V30 765 C 80.5244 4.54076 0.516131 0
M  V30 766 C 81.5214 5.19445 -0.217357 0
M  V30 767 C 79.2064 5.00304 0.44736 0
M  V30 768 C 81.2004 6.29378 -1.00807 0
M  V30 769 C 78.8874 6.10114 -0.347038 0
M  V30 770 C 79.8854 6.74512 -1.07344 0
M  V30 771 O 79.5734 7.82211 -1.85477 0
M  V30 772 H 79.3054 0.652193 0.177821 0
M  V30 773 H 81.8594 2.05091 -0.112543 0
M  V30 774 H 80.0894 3.20206 2.16807 0
M  V30 775 H 81.7784 3.55981 1.95019 0
M  V30 776 H 82.5444 4.84689 -0.173688 0
M  V30 777 H 78.4234 4.49971 1.00235 0
M  V30 778 H 81.9674 6.79575 -1.57556 0
M  V30 779 H 77.8644 6.44307 -0.392349 0
M  V30 780 H 78.6324 7.98982 -1.77678 0
M  V30 781 N 81.2955 -0.223234 1.56011 0
M  V30 782 C 82.5415 -0.949279 1.79211 0
M  V30 783 C 82.8745 -1.84054 0.619494 0
M  V30 784 O 82.1495 -1.90726 -0.381317 0
M  V30 785 C 82.4325 -1.78965 3.12479 0
M  V30 786 C 82.2855 -0.924997 4.40186 0
M  V30 787 C 83.6045 -2.76774 3.42175 0
M  V30 788 H 80.7235 -0.343676 0.651963 0
M  V30 789 H 83.3655 -0.218253 1.88742 0
M  V30 790 H 81.5155 -2.41291 3.04485 0
M  V30 791 H 83.1875 -0.318615 4.60198 0
M  V30 792 H 81.4305 -0.230344 4.33188 0
M  V30 793 H 82.1015 -1.54735 5.29869 0
M  V30 794 H 84.5775 -2.24584 3.50287 0
M  V30 795 H 83.4535 -3.32678 4.36597 0
M  V30 796 H 83.7145 -3.54429 2.64258 0
M  V30 797 N 82.7736 -1.49793 -0.48987 0
M  V30 798 C 84.0216 -1.59525 -1.24081 0
M  V30 799 C 84.3426 -0.288953 -1.92847 0
M  V30 800 O 83.6126 0.692436 -1.83254 0
M  V30 801 H 82.1926 -0.587796 -0.460983 0
M  V30 802 H 84.8546 -1.86477 -0.566778 0
M  V30 803 H 83.9506 -2.39696 -1.99881 0
M  V30 804 N 84.2517 0.741722 -1.39055 0
M  V30 805 C 85.5287 1.49252 -1.26425 0
M  V30 806 C 85.9087 2.10705 0.129144 0
M  V30 807 O 85.2567 1.98045 1.13976 0
M  V30 808 C 85.4667 2.54934 -2.38347 0
M  V30 809 C 86.8147 3.21506 -2.77343 0
M  V30 810 O 87.8387 2.65245 -2.37747 0
M  V30 811 O 86.6977 4.23294 -3.45665 0
M  V30 812 H 83.7917 0.662451 -0.495064 0
M  V30 813 H 86.3377 0.776121 -1.50912 0
M  V30 814 H 85.1097 2.07857 -3.31529 0
M  V30 815 H 84.7327 3.34141 -2.15489 0
M  V30 816 N 85.7298 1.2412 0.971189 0
M  V30 817 C 86.6398 1.04747 2.09917 0
M  V30 818 C 87.6558 -0.0107162 1.73997 0
M  V30 819 O 88.8318 0.186714 2.00533 0
M  V30 820 C 85.8968 0.650828 3.40537 0
M  V30 821 C 84.9578 1.7851 3.90426 0
M  V30 822 C 84.1908 1.40729 5.14812 0
M  V30 823 O 84.4138 0.29557 5.69634 0
M  V30 824 O 83.3478 2.23168 5.58999 0
M  V30 825 H 87.1738 1.99304 2.29154 0
M  V30 826 H 84.7588 1.02908 1.08307 0
M  V30 827 H 86.6408 0.440992 4.19086 0
M  V30 828 H 85.3158 -0.265649 3.22608 0
M  V30 829 H 84.2228 2.04966 3.12953 0
M  V30 830 H 85.5558 2.68023 4.12825 0
M  V30 831 N 87.2079 -1.17134 1.05439 0
M  V30 832 C 88.1709 -2.19439 0.661764 0
M  V30 833 C 89.1709 -1.58199 -0.288042 0
M  V30 834 O 90.3609 -1.74053 -0.0715803 0
M  V30 835 C 87.4929 -3.40889 -0.0276209 0
M  V30 836 H 88.6859 -2.55688 1.56728 0
M  V30 837 H 86.2389 -1.31259 0.848567 0
M  V30 838 H 86.9739 -3.10187 -0.94629 0
M  V30 839 H 86.7589 -3.86586 0.655238 0
M  V30 840 H 88.2489 -4.16603 -0.288342 0
M  V30 841 N 88.686 -0.835752 -1.33615 0
M  V30 842 C 89.618 -0.224151 -2.28101 0
M  V30 843 C 90.631 0.593331 -1.51603 0
M  V30 844 O 91.82 0.420911 -1.73466 0
M  V30 845 C 88.92 0.703309 -3.31522 0
M  V30 846 C 88.093 -0.0741528 -4.37337 0
M  V30 847 C 87.152 0.776176 -5.20444 0
M  V30 848 O 86.178 0.216506 -5.68788 0
M  V30 849 N 87.38 2.09401 -5.41416 0
M  V30 850 H 90.145 -1.03598 -2.81225 0
M  V30 851 H 87.706 -0.69392 -1.46275 0
M  V30 852 H 89.698 1.27707 -3.84022 0
M  V30 853 H 88.268 1.41585 -2.78698 0
M  V30 854 H 87.488 -0.82928 -3.85378 0
M  V30 855 H 88.776 -0.608863 -5.05144 0
M  V30 856 H 88.174 2.57229 -5.03835 0
M  V30 857 H 86.731 2.61633 -5.96985 0
M  V30 858 N 90.1641 1.46063 -0.591896 0
M  V30 859 C 91.3891 2.07226 -0.0850314 0
M  V30 860 C 91.8141 1.43625 1.21463 0
M  V30 861 O 91.1721 0.523305 1.73583 0
M  V30 862 C 91.2201 3.60554 0.0576567 0
M  V30 863 O 90.3241 3.97128 1.11188 0
M  V30 864 H 89.6651 0.660615 -0.0669568 0
M  V30 865 H 92.1951 1.8756 -0.81745 0
M  V30 866 H 92.2051 4.07165 0.2609 0
M  V30 867 H 90.8801 4.06235 -0.891416 0
M  V30 868 H 89.4571 3.62213 0.886356 0
M  V30 869 N 91.6422 0.330177 1.54103 0
M  V30 870 C 92.5892 -0.532762 2.24567 0
M  V30 871 C 93.5592 -1.10635 1.23892 0
M  V30 872 O 94.7442 -1.14546 1.5259 0
M  V30 873 C 91.8842 -1.6845 3.01195 0
M  V30 874 C 90.9972 -1.13951 4.167 0
M  V30 875 C 90.1322 -2.25746 4.80845 0
M  V30 876 C 89.1712 -1.6853 5.88442 0
M  V30 877 N 88.3082 -2.74014 6.46421 0
M  V30 878 H 93.1482 0.0746905 2.97906 0
M  V30 879 H 90.6852 0.048632 1.4702 0
M  V30 880 H 92.6432 -2.36234 3.43874 0
M  V30 881 H 91.2732 -2.26314 2.30178 0
M  V30 882 H 90.3252 -0.35301 3.78758 0
M  V30 883 H 91.6372 -0.680892 4.94131 0
M  V30 884 H 90.7912 -3.01422 5.26526 0
M  V30 885 H 89.5302 -2.74947 4.0281 0
M  V30 886 H 88.5352 -0.913543 5.42157 0
M  V30 887 H 89.7602 -1.20198 6.68378 0
M  V30 888 H 87.7062 -3.22494 5.71256 0
M  V30 889 H 87.6232 -2.32735 7.19285 0
M  V30 890 H 88.8912 -3.49499 6.96757 0
M  V30 891 N 93.1203 -1.57491 0.0584922 0
M  V30 892 C 94.5363 -1.56792 -0.298091 0
M  V30 893 C 94.7363 -1.06679 -1.70944 0
M  V30 894 O 93.7923 -0.726672 -2.41818 0
M  V30 895 C 95.1053 -3.00461 -0.119879 0
M  V30 896 C 96.6533 -3.1242 -0.190428 0
M  V30 897 C 97.1283 -4.57982 -0.0406567 0
M  V30 898 N 98.6193 -4.63099 -0.0966958 0
M  V30 899 C 99.3543 -5.734 -0.00502943 0
M  V30 900 N 98.8503 -6.9266 0.139402 0
M  V30 901 N 100.643 -5.62067 -0.0611391 0
M  V30 902 H 92.7943 -1.88386 0.98105 0
M  V30 903 H 95.0573 -0.867865 0.381463 0
M  V30 904 H 94.7633 -3.41187 0.85349 0
M  V30 905 H 94.6373 -3.66843 -0.877833 0
M  V30 906 H 97.0243 -2.71589 -1.15427 0
M  V30 907 H 97.1053 -2.48702 0.598405 0
M  V30 908 H 96.7493 -4.995 0.919897 0
M  V30 909 H 96.6793 -5.19715 -0.848727 0
M  V30 910 H 99.1703 -3.77331 -0.207277 0
M  V30 911 H 99.4833 -7.72536 0.201855 0
M  V30 912 H 97.8283 -6.94781 0.174586 0
M  V30 913 H 101.019 -4.67782 -0.172583 0
M  V30 914 H 101.192 -6.47999 0.0137562 0
M  V30 915 N 94.5984 0.214957 -1.56127 0
M  V30 916 C 95.8464 0.936518 -1.79091 0
M  V30 917 C 96.1674 1.84606 -0.628148 0
M  V30 918 O 95.4374 1.92664 0.35462 0
M  V30 919 H 94.0174 0.3488 -0.660566 0
M  V30 920 H 96.6794 0.22523 -1.93594 0
M  V30 921 H 95.7754 1.53943 -2.71492 0
M  V30 922 N 96.0765 1.50051 0.48192 0
M  V30 923 C 97.3255 1.59741 1.23149 0
M  V30 924 C 97.6385 0.298163 1.93314 0
M  V30 925 O 98.8445 0.273835 2.70116 0
M  V30 926 C 97.3005 2.81926 2.23708 0
M  V30 927 C 96.9085 4.18685 1.59396 0
M  V30 928 C 98.6525 3.00956 2.99375 0
M  V30 929 C 96.5595 5.3207 2.58178 0
M  V30 930 H 95.4895 0.594838 0.46334 0
M  V30 931 H 98.1405 1.76467 0.503169 0
M  V30 932 H 96.5225 2.58736 2.99786 0
M  V30 933 H 97.6965 4.52088 0.891811 0
M  V30 934 H 96.0115 4.05171 0.960503 0
M  V30 935 H 98.6085 3.82836 3.73283 0
M  V30 936 H 98.9515 2.12258 3.58123 0
M  V30 937 H 99.4845 3.24277 2.30411 0
M  V30 938 H 96.2235 6.22888 2.04184 0
M  V30 939 H 95.7435 5.03098 3.26577 0
M  V30 940 H 97.4225 5.62196 3.20225 0
M  V30 941 N 97.5546 -0.734337 1.39446 0
M  V30 942 C 98.4846 -1.86155 1.40955 0
M  V30 943 C 99.4656 -1.67898 0.272827 0
M  V30 944 O 100.651 -1.88207 0.478743 0
M  V30 945 C 97.7806 -3.23912 1.25294 0
M  V30 946 C 96.7346 -3.56808 2.36373 0
M  V30 947 C 96.0606 -4.93508 2.058 0
M  V30 948 C 97.3606 -3.59713 3.78687 0
M  V30 949 H 99.0546 -1.8515 2.35287 0
M  V30 950 H 96.6006 -0.889367 1.13253 0
M  V30 951 H 98.5536 -4.02443 1.2497 0
M  V30 952 H 97.2776 -3.25446 0.274308 0
M  V30 953 H 95.9366 -2.80606 2.35914 0
M  V30 954 H 95.5846 -4.91623 1.06374 0
M  V30 955 H 95.2846 -5.16486 2.80208 0
M  V30 956 H 96.8086 -5.74396 2.07128 0
M  V30 957 H 98.2226 -4.2832 3.81071 0
M  V30 958 H 96.6196 -3.94209 4.52459 0
M  V30 959 H 97.6896 -2.59504 4.09617 0
M  V30 960 N 99.0327 -1.24633 -0.964593 0
M  V30 961 C 100.261 -1.11501 -1.74285 0
M  V30 962 C 100.676 0.332165 -1.85855 0
M  V30 963 O 100.033 1.22903 -1.34911 0
M  V30 964 C 100.084 -1.75258 -3.16175 0
M  V30 965 O 99.8047 -3.14318 -3.05182 0
M  V30 966 C 101.306 -1.67776 -4.10324 0
M  V30 967 H 98.5257 -0.389407 -0.546446 0
M  V30 968 H 101.07 -1.64801 -1.21083 0
M  V30 969 H 99.2247 -1.25954 -3.66353 0
M  V30 970 H 99.6387 -3.4551 -3.94618 0
M  V30 971 H 101.113 -2.17064 -5.0753 0
M  V30 972 H 101.59 -0.639584 -4.34518 0
M  V30 973 H 102.196 -2.16522 -3.66058 0
M  V30 974 N 100.511 1.16574 -1.06058 0
M  V30 975 C 101.441 2.23057 -0.690488 0
M  V30 976 C 102.422 1.67141 0.315901 0
M  V30 977 O 103.607 1.93253 0.191556 0
M  V30 978 C 100.737 3.47222 -0.073625 0
M  V30 979 C 99.6908 4.16016 -1.00573 0
M  V30 980 C 99.0168 5.34104 -0.252289 0
M  V30 981 C 100.317 4.67264 -2.33371 0
M  V30 982 H 102.011 2.54271 -1.58072 0
M  V30 983 H 99.5568 1.22218 -0.76149 0
M  V30 984 H 101.51 4.20939 0.19714 0
M  V30 985 H 100.234 3.15302 0.85161 0
M  V30 986 H 98.8928 3.44223 -1.2612 0
M  V30 987 H 98.5408 4.98437 0.675988 0
M  V30 988 H 98.2408 5.81072 -0.873455 0
M  V30 989 H 99.7648 6.10599 0.0109857 0
M  V30 990 H 101.179 5.32573 -2.12223 0
M  V30 991 H 99.5758 5.24843 -2.90963 0
M  V30 992 H 100.646 3.83602 -2.96611 0
M  V30 993 N 101.989 0.842826 1.3317 0
M  V30 994 C 102.936 0.276885 2.29133 0
M  V30 995 C 103.906 -0.609527 1.54512 0
M  V30 996 O 105.091 -0.546955 1.82792 0
M  V30 997 C 102.231 -0.538707 3.40869 0
M  V30 998 C 101.344 0.372169 4.30394 0
M  V30 999 C 100.479 -0.454908 5.29249 0
M  V30 1000 C 99.5179 0.45411 6.10413 0
M  V30 1001 N 98.6549 -0.335075 7.013 0
M  V30 1002 H 103.495 1.10052 2.76934 0
M  V30 1003 H 101.032 0.554161 1.36262 0
M  V30 1004 H 102.99 -1.02709 4.0436 0
M  V30 1005 H 101.62 -1.32727 2.9425 0
M  V30 1006 H 100.672 0.97888 3.6759 0
M  V30 1007 H 101.984 1.0703 4.87182 0
M  V30 1008 H 101.138 -1.00695 5.98285 0
M  V30 1009 H 99.8769 -1.18646 4.73048 0
M  V30 1010 H 98.8819 1.01813 5.40291 0
M  V30 1011 H 100.107 1.18409 6.68697 0
M  V30 1012 H 98.0529 -1.04994 6.47543 0
M  V30 1013 H 97.9699 0.304262 7.55387 0
M  V30 1014 H 99.2379 -0.869224 7.74638 0
M  V30 1015 N 103.467 -1.45747 0.599634 0
M  V30 1016 C 104.697 -2.06369 0.0977132 0
M  V30 1017 C 105.105 -1.44624 -1.21985 0
M  V30 1018 O 104.448 -0.551831 -1.75216 0
M  V30 1019 C 104.51 -3.59284 -0.124673 0
M  V30 1020 C 104.174 -4.43318 1.10987 0
M  V30 1021 C 105.171 -4.78796 2.02609 0
M  V30 1022 C 102.856 -4.84194 1.33647 0
M  V30 1023 C 104.85 -5.53997 3.15224 0
M  V30 1024 C 102.537 -5.5915 2.46565 0
M  V30 1025 C 103.535 -5.93968 3.37182 0
M  V30 1026 O 103.223 -6.67405 4.48136 0
M  V30 1027 H 102.955 -0.673122 0.0623153 0
M  V30 1028 H 105.509 -1.88104 0.824981 0
M  V30 1029 H 103.739 -3.75919 -0.906745 0
M  V30 1030 H 105.428 -4.01775 -0.577201 0
M  V30 1031 H 106.194 -4.47781 1.86325 0
M  V30 1032 H 102.073 -4.56534 0.64016 0
M  V30 1033 H 105.617 -5.81091 3.85978 0
M  V30 1034 H 101.514 -5.89579 2.62805 0
M  V30 1035 H 102.282 -6.85847 4.46717 0
M  V30 1036 N 104.945 -0.338344 -1.53925 0
M  V30 1037 C 106.356 0.146651 -1.86123 0
M  V30 1038 C 106.707 1.5042 -1.2597 0
M  V30 1039 O 105.832 2.08723 -0.571294 0
M  V30 1040 C 106.427 0.272879 -3.37699 0
M  V30 1041 C 104.986 0.702103 -3.69794 0
M  V30 1042 C 104.133 -0.167304 -2.76795 0
M  V30 1043 H 107.084 -0.558123 -1.48562 0
M  V30 1044 H 107.105 1.10128 -3.64214 0
M  V30 1045 H 106.617 -0.715307 -3.81451 0
M  V30 1046 H 104.718 1.6995 -3.31584 0
M  V30 1047 H 104.831 0.495604 -4.7653 0
M  V30 1048 H 103.195 0.359527 -2.5215 0
M  V30 1049 H 103.978 -1.15253 -3.23375 0
M  V30 1050 N 106.423 1.57458 -0.0668435 0
M  V30 1051 C 107.672 1.92477 0.602947 0
M  V30 1052 C 107.985 0.948419 1.71068 0
M  V30 1053 O 109.191 1.19124 2.43971 0
M  V30 1054 C 107.647 3.41903 1.12383 0
M  V30 1055 C 107.255 4.47975 0.04737 0
M  V30 1056 C 108.999 3.85931 1.76797 0
M  V30 1057 C 106.906 5.88529 0.582022 0
M  V30 1058 H 105.836 0.718387 0.22899 0
M  V30 1059 H 108.487 1.82978 -0.138276 0
M  V30 1060 H 106.869 3.46459 1.91787 0
M  V30 1061 H 108.043 4.55029 -0.726978 0
M  V30 1062 H 106.358 4.13384 -0.500243 0
M  V30 1063 H 108.955 4.88322 2.17821 0
M  V30 1064 H 109.298 3.23029 2.62599 0
M  V30 1065 H 109.831 3.83958 1.04024 0
M  V30 1066 H 106.57 6.55065 -0.238721 0
M  V30 1067 H 106.09 5.85004 1.324 0
M  V30 1068 H 107.769 6.38258 1.05999 0
M  V30 1069 N 107.901 -0.206675 1.56239 0
M  V30 1070 C 108.811 -1.27686 1.96808 0
M  V30 1071 C 109.827 -1.50455 0.874035 0
M  V30 1072 O 111.003 -1.63295 1.17884 0
M  V30 1073 C 108.068 -2.60358 2.28942 0
M  V30 1074 C 107.129 -2.45762 3.51994 0
M  V30 1075 C 106.362 -3.72108 3.82585 0
M  V30 1076 O 106.585 -4.75776 3.14631 0
M  V30 1077 O 105.519 -3.6833 4.76043 0
M  V30 1078 H 109.345 -0.962593 2.88041 0
M  V30 1079 H 106.93 -0.410746 1.43643 0
M  V30 1080 H 108.812 -3.38687 2.50737 0
M  V30 1081 H 107.487 -2.91435 1.4088 0
M  V30 1082 H 106.394 -1.65584 3.35459 0
M  V30 1083 H 107.727 -2.19621 4.40486 0
M  V30 1084 N 109.379 -1.50304 -0.473955 0
M  V30 1085 C 110.329 -1.65347 -1.56985 0
M  V30 1086 C 111.313 -0.508176 -1.52664 0
M  V30 1087 O 112.505 -0.762446 -1.59737 0
M  V30 1088 C 109.634 -1.74832 -2.95447 0
M  V30 1089 C 108.72 -2.95028 -3.04662 0
M  V30 1090 N 109.111 -4.18747 -2.83698 0
M  V30 1091 C 107.409 -2.93527 -3.35795 0
M  V30 1092 C 108.11 -4.99687 -2.97805 0
M  V30 1093 N 107.086 -4.33585 -3.2788 0
M  V30 1094 H 110.888 -2.58698 -1.39472 0
M  V30 1095 H 108.402 -1.47449 -0.680629 0
M  V30 1096 H 110.399 -1.83712 -3.7424 0
M  V30 1097 H 109.059 -0.826376 -3.14008 0
M  V30 1098 H 110.07 -4.48291 -2.59337 0
M  V30 1099 H 106.747 -2.10821 -3.60362 0
M  V30 1100 H 108.137 -6.08057 -2.85861 0
M  V30 1101 N 110.857 0.726932 -1.39834 0
M  V30 1102 C 112.105 1.4837 -1.37225 0
M  V30 1103 C 112.426 1.94979 0.0284857 0
M  V30 1104 O 111.696 1.69555 0.981213 0
M  V30 1105 H 110.276 0.55043 -0.505011 0
M  V30 1106 H 112.938 0.862468 -1.74778 0
M  V30 1107 H 112.034 2.36198 -2.04003 0
M  V30 1108 N 112.336 1.25143 0.95797 0
M  V30 1109 C 113.585 1.0909 1.69654 0
M  V30 1110 C 113.898 -0.368548 1.92097 0
M  V30 1111 O 115.104 -0.649455 2.63618 0
M  V30 1112 C 113.56 1.90395 3.05414 0
M  V30 1113 C 113.168 3.4081 2.90779 0
M  V30 1114 C 114.912 1.82901 3.83076 0
M  V30 1115 C 112.819 4.14423 4.21909 0
M  V30 1116 H 111.749 0.404625 0.636235 0
M  V30 1117 H 114.4 1.4931 1.06672 0
M  V30 1118 H 112.782 1.42996 3.69281 0
M  V30 1119 H 113.956 3.95859 2.35865 0
M  V30 1120 H 112.271 3.49361 2.26575 0
M  V30 1121 H 114.868 2.35196 4.80195 0
M  V30 1122 H 115.211 0.796224 4.08615 0
M  V30 1123 H 115.744 2.28033 3.25954 0
M  V30 1124 H 112.483 5.18102 4.01561 0
M  V30 1125 H 112.003 3.64159 4.76601 0
M  V30 1126 H 113.682 4.21956 4.90471 0
M  V30 1127 N 113.814 -1.1601 1.06675 0
M  V30 1128 C 115.063 -1.85973 0.780818 0
M  V30 1129 C 115.376 -1.82819 -0.695444 0
M  V30 1130 O 116.582 -2.484 -1.09589 0
M  V30 1131 C 115.038 -3.33757 1.34665 0
M  V30 1132 C 114.646 -3.45374 2.85343 0
M  V30 1133 C 116.39 -4.0895 1.13843 0
M  V30 1134 C 114.297 -4.87266 3.35151 0
M  V30 1135 H 113.227 -0.696661 0.288407 0
M  V30 1136 H 115.878 -1.30903 1.28595 0
M  V30 1137 H 114.26 -3.88456 0.769274 0
M  V30 1138 H 115.434 -3.00816 3.49065 0
M  V30 1139 H 113.749 -2.83619 3.04876 0
M  V30 1140 H 116.346 -5.13654 1.4854 0
M  V30 1141 H 116.689 -4.16229 0.0770282 0
M  V30 1142 H 117.222 -3.605 1.68179 0
M  V30 1143 H 113.961 -4.85168 4.40786 0
M  V30 1144 H 113.481 -5.32433 2.76179 0
M  V30 1145 H 115.16 -5.56097 3.30704 0
M  V30 1146 N 115.292 -0.849877 -1.32721 0
M  V30 1147 C 116.52 -0.464754 -2.01613 0
M  V30 1148 C 116.935 0.937191 -1.63897 0
M  V30 1149 O 116.292 1.61081 -0.857856 0
M  V30 1150 C 116.343 -0.588638 -3.56675 0
M  V30 1151 O 116.064 -1.93535 -3.93034 0
M  V30 1152 C 117.565 -0.2019 -4.4284 0
M  V30 1153 H 114.785 -0.183215 -0.645502 0
M  V30 1154 H 117.329 -1.1455 -1.69407 0
M  V30 1155 H 115.484 0.0443159 -3.87375 0
M  V30 1156 H 115.898 -1.92871 -4.87751 0
M  V30 1157 H 117.372 -0.339599 -5.50954 0
M  V30 1158 H 117.849 0.857224 -4.30753 0
M  V30 1159 H 118.455 -0.809733 -4.17521 0
M  V30 1160 N 116.77 1.45427 -0.607355 0
M  V30 1161 C 117.718 2.32269 0.12411 0
M  V30 1162 C 118.712 1.45955 0.859854 0
M  V30 1163 O 119.918 1.6244 0.775447 0
M  V30 1164 H 116.293 0.749691 0.0588839 0
M  V30 1165 H 118.264 2.91743 -0.626762 0
M  V30 1166 C 117.013 3.29567 1.1082 0
M  V30 1167 H 116.336 3.95978 0.551492 0
M  V30 1168 H 117.776 3.93061 1.58995 0
M  V30 1169 C 116.235 2.56722 2.18164 0
M  V30 1170 O 116.765 2.34842 3.25902 0
M  V30 1171 N 114.971 2.16861 1.93442 0
M  V30 1172 H 114.518 2.34855 1.05834 0
M  V30 1173 H 114.476 1.68444 2.65469 0
M  V30 1174 N 118.248 0.346503 1.53744 0
M  V30 1175 C 119.494 -0.242135 2.01954 0
M  V30 1176 C 119.849 -1.47962 1.22984 0
M  V30 1177 O 119.142 -1.89077 0.309924 0
M  V30 1178 C 119.336 -0.605809 3.52228 0
M  V30 1179 C 119.165 0.594882 4.45748 0
M  V30 1180 C 117.935 1.1011 4.93157 0
M  V30 1181 C 120.133 1.45425 4.93311 0
M  V30 1182 N 118.115 2.26381 5.70636 0
M  V30 1183 C 119.486 2.46383 5.68942 0
M  V30 1184 C 121.541 1.47935 4.75415 0
M  V30 1185 C 120.244 3.49684 6.28581 0
M  V30 1186 C 122.27 2.50119 5.35905 0
M  V30 1187 C 121.632 3.49803 6.11406 0
M  V30 1188 H 117.731 -0.0518296 0.780281 0
M  V30 1189 H 120.315 0.486736 1.88518 0
M  V30 1190 H 118.486 -1.30378 3.65864 0
M  V30 1191 H 120.218 -1.17789 3.87179 0
M  V30 1192 H 116.973 0.668721 4.68855 0
M  V30 1193 H 117.397 2.85094 6.14044 0
M  V30 1194 H 122.039 0.722274 4.16585 0
M  V30 1195 H 119.757 4.26285 6.86518 0
M  V30 1196 H 123.343 2.52892 5.23963 0
M  V30 1197 H 122.223 4.27576 6.5738 0
M  V30 1198 N 119.726 -1.57421 0.075193 0
M  V30 1199 C 121.003 -1.85029 -0.634329 0
M  V30 1200 C 121.383 -0.968305 -1.87582 0
M  V30 1201 O 120.731 -0.0354749 -2.28472 0
M  V30 1202 C 120.941 -3.35286 -0.968742 0
M  V30 1203 C 122.289 -4.02875 -1.34077 0
M  V30 1204 O 123.313 -3.40051 -1.06037 0
M  V30 1205 O 122.172 -5.13691 -1.86506 0
M  V30 1206 H 119.266 -0.7645 -0.315387 0
M  V30 1207 H 121.812 -1.69366 0.106382 0
M  V30 1208 H 120.584 -3.91203 -0.0871376 0
M  V30 1209 H 120.207 -3.56223 -1.7661 0
M  V30 1210 N 121.204 0.198386 -1.56346 0
M  V30 1211 C 122.481 0.944982 -1.71258 0
M  V30 1212 C 122.861 2.0151 -0.629048 0
M  V30 1213 O 122.209 2.25639 0.360473 0
M  V30 1214 C 122.419 1.5344 -3.1346 0
M  V30 1215 C 123.767 2.01778 -3.73591 0
M  V30 1216 O 124.791 1.63288 -3.16568 0
M  V30 1217 O 123.65 2.72594 -4.73661 0
M  V30 1218 H 120.744 0.442939 -0.69838 0
M  V30 1219 H 123.29 0.188342 -1.68652 0
M  V30 1220 H 122.062 0.762869 -3.83792 0
M  V30 1221 H 121.685 2.35596 -3.20282 0
M  V30 1222 N 122.682 1.50554 0.465978 0
M  V30 1223 C 123.615 1.64436 1.58227 0
M  V30 1224 C 124.593 0.492367 1.54966 0
M  V30 1225 O 125.777 0.712536 1.74514 0
M  V30 1226 C 122.904 1.63165 2.96808 0
M  V30 1227 C 121.95 2.83987 3.18204 0
M  V30 1228 S 122.783 4.45219 2.97557 0
M  V30 1229 C 123.939 4.46649 4.3847 0
M  V30 1230 H 124.172 2.58861 1.46213 0
M  V30 1231 H 121.705 1.3988 0.653678 0
M  V30 1232 H 123.663 1.63116 3.76701 0
M  V30 1233 H 122.324 0.69967 3.06208 0
M  V30 1234 H 121.517 2.79416 4.19455 0
M  V30 1235 H 121.119 2.81629 2.46092 0
M  V30 1236 H 123.411 4.20526 5.31191 0
M  V30 1237 H 124.354 5.48295 4.48082 0
M  V30 1238 H 124.762 3.76296 4.20787 0
M  V30 1239 N 124.16 -0.719506 1.40217 0
M  V30 1240 C 125.07 -1.86378 1.42479 0
M  V30 1241 C 126.086 -1.71073 0.317834 0
M  V30 1242 O 127.262 -1.93406 0.561794 0
M  V30 1243 C 124.327 -3.22136 1.28178 0
M  V30 1244 C 123.388 -3.49723 2.48982 0
M  V30 1245 C 122.621 -4.79004 2.35353 0
M  V30 1246 O 122.844 -5.53821 1.36524 0
M  V30 1247 O 121.778 -5.06839 3.2465 0
M  V30 1248 H 125.604 -1.87425 2.38968 0
M  V30 1249 H 123.189 -0.869405 1.21498 0
M  V30 1250 H 125.071 -4.03234 1.22395 0
M  V30 1251 H 123.746 -3.21825 0.347934 0
M  V30 1252 H 122.653 -2.6865 2.60342 0
M  V30 1253 H 123.986 -3.54828 3.41113 0
M  V30 1254 N 125.638 -1.25649 -0.95132 0
M  V30 1255 C 126.585 -1.06323 -2.04851 0
M  V30 1256 C 127.555 0.0286491 -1.66075 0
M  V30 1257 O 128.74 -0.12917 -1.90362 0
M  V30 1258 C 125.88 -0.691529 -3.381 0
M  V30 1259 C 124.993 -1.85861 -3.89974 0
M  V30 1260 C 124.128 -1.43096 -5.11563 0
M  V30 1261 C 123.167 -2.56696 -5.55674 0
M  V30 1262 N 122.304 -2.14684 -6.68472 0
M  V30 1263 H 127.144 -2.00222 -2.20715 0
M  V30 1264 H 124.681 -0.997027 -1.08156 0
M  V30 1265 H 126.639 -0.456963 -4.1469 0
M  V30 1266 H 125.269 0.210474 -3.22113 0
M  V30 1267 H 124.321 -2.20639 -3.09875 0
M  V30 1268 H 125.633 -2.71161 -4.18657 0
M  V30 1269 H 124.787 -1.15624 -5.9558 0
M  V30 1270 H 123.526 -0.548722 -4.84603 0
M  V30 1271 H 122.531 -2.84909 -4.7022 0
M  V30 1272 H 123.756 -3.45503 -5.8464 0
M  V30 1273 H 121.702 -1.28881 -6.43215 0
M  V30 1274 H 121.619 -2.9353 -6.96689 0
M  V30 1275 H 122.887 -1.90397 -7.5589 0
M  V30 1276 N 127.117 1.15442 -1.07289 0
M  V30 1277 C 128.366 1.85557 -0.790669 0
M  V30 1278 C 128.679 1.83186 0.685739 0
M  V30 1279 O 129.885 2.48977 1.0827 0
M  V30 1280 C 128.341 3.33038 -1.36433 0
M  V30 1281 C 127.949 3.43856 -2.8717 0
M  V30 1282 C 129.693 4.0834 -1.1601 0
M  V30 1283 C 127.6 4.85482 -3.3773 0
M  V30 1284 H 126.53 0.695122 -0.292098 0
M  V30 1285 H 129.181 1.30219 -1.29287 0
M  V30 1286 H 127.563 3.88043 -0.789864 0
M  V30 1287 H 128.737 2.98961 -3.50655 0
M  V30 1288 H 127.052 2.81998 -3.06376 0
M  V30 1289 H 129.649 5.12859 -1.51262 0
M  V30 1290 H 129.992 4.16182 -0.0991007 0
M  V30 1291 H 130.525 3.59603 -1.70089 0
M  V30 1292 H 127.264 4.82823 -4.43353 0
M  V30 1293 H 126.784 5.30961 -2.78999 0
M  V30 1294 H 128.463 5.54335 -3.33648 0
M  V30 1295 N 128.595 0.856903 1.32268 0
M  V30 1296 C 129.841 0.471355 1.97863 0
M  V30 1297 C 130.196 -0.962896 1.66572 0
M  V30 1298 O 129.489 -1.66686 0.944797 0
M  V30 1299 C 129.683 0.649919 3.51441 0
M  V30 1300 C 129.512 2.09997 3.97657 0
M  V30 1301 C 128.282 2.73893 4.2463 0
M  V30 1302 C 130.48 3.07081 4.1256 0
M  V30 1303 N 128.462 4.09786 4.57109 0
M  V30 1304 C 129.833 4.27968 4.48602 0
M  V30 1305 C 131.888 3.03247 3.949 0
M  V30 1306 C 130.591 5.45521 4.68827 0
M  V30 1307 C 132.617 4.20046 4.16311 0
M  V30 1308 C 131.979 5.39692 4.52672 0
M  V30 1309 H 128.078 0.221263 0.750044 0
M  V30 1310 H 130.662 1.10876 1.60045 0
M  V30 1311 H 128.833 0.0421938 3.88377 0
M  V30 1312 H 130.565 0.234044 4.04023 0
M  V30 1313 H 127.32 2.24918 4.16784 0
M  V30 1314 H 127.744 4.7989 4.7753 0
M  V30 1315 H 132.386 2.11863 3.65888 0
M  V30 1316 H 130.104 6.37434 4.96693 0
M  V30 1317 H 133.69 4.18517 4.04147 0
M  V30 1318 H 132.57 6.28566 4.68907 0
M  V30 1319 N 130.073 -1.45103 0.615059 0
M  V30 1320 C 131.023 -2.27679 -0.120966 0
M  V30 1321 C 132.007 -1.3775 -0.831491 0
M  V30 1322 O 133.199 -1.61683 -0.720249 0
M  V30 1323 C 130.328 -3.24767 -1.1127 0
M  V30 1324 C 129.414 -4.22184 -0.402627 0
M  V30 1325 N 129.805 -5.02692 0.559884 0
M  V30 1326 C 128.103 -4.4125 -0.649202 0
M  V30 1327 C 128.804 -5.73421 0.977942 0
M  V30 1328 N 127.78 -5.42657 0.320104 0
M  V30 1329 H 131.582 -2.87325 0.618181 0
M  V30 1330 H 129.096 -1.56345 0.439304 0
M  V30 1331 H 131.093 -3.82666 -1.65446 0
M  V30 1332 H 129.753 -2.66682 -1.85232 0
M  V30 1333 H 130.764 -5.09354 0.936976 0
M  V30 1334 H 127.441 -3.9428 -1.37293 0
M  V30 1335 H 128.831 -6.48107 1.77222 0
M  V30 1336 N 131.551 -0.354651 -1.53558 0
M  V30 1337 C 132.501 0.513179 -2.2215 0
M  V30 1338 C 133.485 1.05734 -1.21281 0
M  V30 1339 O 134.677 0.989202 -1.46778 0
M  V30 1340 C 131.806 1.65798 -3.00609 0
M  V30 1341 C 130.892 1.12722 -4.08845 0
M  V30 1342 N 131.283 0.318563 -5.04796 0
M  V30 1343 C 129.581 1.40307 -4.23356 0
M  V30 1344 C 130.282 0.0292224 -5.81693 0
M  V30 1345 N 129.258 0.623891 -5.40008 0
M  V30 1346 H 133.06 -0.111586 -2.93688 0
M  V30 1347 H 130.574 -0.162091 -1.61589 0
M  V30 1348 H 132.571 2.29176 -3.48258 0
M  V30 1349 H 131.231 2.28591 -2.306 0
M  V30 1350 H 132.242 -0.0413091 -5.17884 0
M  V30 1351 H 128.919 2.03458 -3.6457 0
M  V30 1352 H 130.309 -0.623808 -6.68998 0
M  V30 1353 N 133.029 1.57378 -0.0835403 0
M  V30 1354 C 134.257 1.98263 0.59157 0
M  V30 1355 C 134.672 0.962302 1.62435 0
M  V30 1356 O 134.029 -0.049581 1.82433 0
M  V30 1357 C 134.08 3.39214 1.24965 0
M  V30 1358 O 133.801 4.37339 0.258186 0
M  V30 1359 C 135.302 3.95038 2.01147 0
M  V30 1360 H 132.522 0.651773 0.159477 0
M  V30 1361 H 135.066 2.03878 -0.159415 0
M  V30 1362 H 133.221 3.34649 1.95164 0
M  V30 1363 H 133.635 5.19371 0.731734 0
M  V30 1364 H 135.109 4.95848 2.42567 0
M  V30 1365 H 135.586 3.32222 2.87272 0
M  V30 1366 H 136.192 4.0304 1.35789 0
M  V30 1367 N 134.507 -0.190092 1.56449 0
M  V30 1368 C 135.754 -0.909705 1.80916 0
M  V30 1369 C 136.082 -1.83047 0.657583 0
M  V30 1370 O 135.337 -1.92428 -0.356356 0
M  V30 1371 C 135.636 -1.75382 3.1141 0
M  V30 1372 C 135.302 -0.983606 4.40041 0
M  V30 1373 C 133.964 -0.770967 4.74984 0
M  V30 1374 C 136.316 -0.442024 5.19322 0
M  V30 1375 C 133.644 -0.0053448 5.867 0
M  V30 1376 C 135.996 0.310412 6.31838 0
M  V30 1377 C 134.66 0.534023 6.6536 0
M  V30 1378 H 133.93 -0.332885 0.662019 0
M  V30 1379 H 136.577 -0.175762 1.90692 0
M  V30 1380 H 134.882 -2.55659 2.96893 0
M  V30 1381 H 136.579 -2.31331 3.27547 0
M  V30 1382 H 133.169 -1.15936 4.12622 0
M  V30 1383 H 137.353 -0.593693 4.92736 0
M  V30 1384 H 132.609 0.177825 6.11141 0
M  V30 1385 H 136.783 0.737419 6.92485 0
M  V30 1386 H 134.41 1.12918 7.51767 0
M  V30 1387 N 135.985 -1.50799 -0.457987 0
M  V30 1388 C 137.215 -1.65977 -1.23025 0
M  V30 1389 C 137.623 -0.347918 -1.85974 0
M  V30 1390 O 136.966 0.68148 -1.70592 0
M  V30 1391 C 137.028 -2.70309 -2.3701 0
M  V30 1392 C 136.692 -4.135 -1.94594 0
M  V30 1393 C 137.689 -4.98949 -1.46101 0
M  V30 1394 C 135.374 -4.5949 -2.02915 0
M  V30 1395 C 137.368 -6.28442 -1.06489 0
M  V30 1396 C 135.055 -5.88984 -1.62914 0
M  V30 1397 C 136.053 -6.73286 -1.1478 0
M  V30 1398 O 135.741 -8.00362 -0.75339 0
M  V30 1399 H 135.473 -0.56064 -0.377702 0
M  V30 1400 H 138.027 -1.97857 -0.551537 0
M  V30 1401 H 136.257 -2.337 -3.08093 0
M  V30 1402 H 137.946 -2.74574 -2.98938 0
M  V30 1403 H 138.712 -4.6463 -1.39084 0
M  V30 1404 H 134.591 -3.94009 -2.39328 0
M  V30 1405 H 138.135 -6.94194 -0.688488 0
M  V30 1406 H 134.032 -6.22822 -1.69595 0
M  V30 1407 H 134.8 -8.13744 -0.88108 0
M  V30 1408 N 137.463 0.71206 -1.40597 0
M  V30 1409 C 138.411 1.84746 -1.41321 0
M  V30 1410 C 139.405 1.66842 -0.293268 0
M  V30 1411 O 140.611 1.73904 -0.464481 0
M  V30 1412 H 136.986 0.608522 -0.441819 0
M  V30 1413 H 138.957 1.81252 -2.37045 0
M  V30 1414 C 137.706 3.22638 -1.29614 0
M  V30 1415 H 137.029 3.37023 -2.15071 0
M  V30 1416 H 138.469 4.02209 -1.3418 0
M  V30 1417 C 136.928 3.36899 -0.00673121 0
M  V30 1418 O 137.458 3.90186 0.954859 0
M  V30 1419 N 135.664 2.9053 0.0639327 0
M  V30 1420 H 135.211 2.47353 -0.719311 0
M  V30 1421 H 135.169 3.0045 0.926118 0
M  V30 1422 N 138.941 1.26152 0.944643 0
M  V30 1423 C 139.851 1.09176 2.07648 0
M  V30 1424 C 140.867 0.0261935 1.7398 0
M  V30 1425 O 142.043 0.229208 2.00091 0
M  V30 1426 C 139.108 0.722915 3.39079 0
M  V30 1427 C 138.169 1.86752 3.86552 0
M  V30 1428 C 137.402 1.51617 5.11711 0
M  V30 1429 O 137.625 0.416331 5.68879 0
M  V30 1430 O 136.559 2.34975 5.54139 0
M  V30 1431 H 140.385 2.0412 2.24875 0
M  V30 1432 H 137.97 1.05182 1.061 0
M  V30 1433 H 139.852 0.529787 4.18056 0
M  V30 1434 H 138.527 -0.197159 3.23099 0
M  V30 1435 H 137.434 2.11558 3.08535 0
M  V30 1436 H 138.767 2.76719 4.07047 0
M  V30 1437 N 140.419 -1.14872 1.07899 0
M  V30 1438 C 141.349 -2.2193 0.725887 0
M  V30 1439 C 142.33 -1.67622 -0.28927 0
M  V30 1440 O 143.515 -1.93533 -0.160787 0
M  V30 1441 C 140.645 -3.47061 0.128856 0
M  V30 1442 C 139.599 -4.14363 1.07178 0
M  V30 1443 C 138.925 -5.33636 0.337229 0
M  V30 1444 C 140.225 -4.63492 2.40775 0
M  V30 1445 H 141.919 -2.51724 1.62097 0
M  V30 1446 H 139.465 -1.20991 0.780838 0
M  V30 1447 H 141.418 -4.21199 -0.130147 0
M  V30 1448 H 140.142 -3.16617 -0.80134 0
M  V30 1449 H 138.801 -3.42173 1.3158 0
M  V30 1450 H 138.449 -4.99449 -0.596606 0
M  V30 1451 H 138.149 -5.79609 0.965788 0
M  V30 1452 H 139.673 -6.10539 0.0861567 0
M  V30 1453 H 141.087 -5.2913 2.20669 0
M  V30 1454 H 139.484 -5.20148 2.99276 0
M  V30 1455 H 140.554 -3.78834 3.02676 0
M  V30 1456 N 141.898 -0.863906 -1.31812 0
M  V30 1457 C 143.314 -0.555004 -1.49639 0
M  V30 1458 C 143.514 0.912266 -1.79666 0
M  V30 1459 O 142.57 1.69479 -1.87171 0
M  V30 1460 C 143.883 -1.44998 -2.63431 0
M  V30 1461 C 145.431 -1.45138 -2.77316 0
M  V30 1462 C 145.906 -2.33179 -3.94197 0
M  V30 1463 N 147.397 -2.31025 -4.01474 0
M  V30 1464 C 148.132 -2.95871 -4.9117 0
M  V30 1465 N 147.628 -3.69863 -5.8581 0
M  V30 1466 N 149.421 -2.85211 -4.84367 0
M  V30 1467 H 141.572 -1.81339 -1.10589 0
M  V30 1468 H 143.835 -0.77505 -0.545895 0
M  V30 1469 H 143.541 -2.49377 -2.48 0
M  V30 1470 H 143.415 -1.14409 -3.59431 0
M  V30 1471 H 145.802 -0.415201 -2.92164 0
M  V30 1472 H 145.883 -1.79747 -1.82001 0
M  V30 1473 H 145.527 -3.3687 -3.80107 0
M  V30 1474 H 145.457 -1.95897 -4.88807 0
M  V30 1475 H 147.948 -1.77238 -3.33759 0
M  V30 1476 H 148.261 -4.16486 -6.50968 0
M  V30 1477 H 146.606 -3.73971 -5.85808 0
M  V30 1478 H 149.797 -2.26948 -4.09405 0
M  V30 1479 H 149.97 -3.36027 -5.54066 0
M  V30 1480 N 143.376 1.44774 -0.622745 0
M  V30 1481 C 144.622 2.0242 -0.124083 0
M  V30 1482 C 144.955 1.4881 1.24777 0
M  V30 1483 O 144.23 0.668799 1.8264 0
M  V30 1484 C 144.513 3.59957 -0.101619 0
M  V30 1485 C 144.366 4.23867 -1.50521 0
M  V30 1486 C 145.685 4.36284 0.578272 0
M  V30 1487 H 142.804 0.735528 -0.0465645 0
M  V30 1488 H 145.446 1.72447 -0.797617 0
M  V30 1489 H 143.596 3.85623 0.471934 0
M  V30 1490 H 145.268 4.09336 -2.12701 0
M  V30 1491 H 143.511 3.81684 -2.06154 0
M  V30 1492 H 144.182 5.32843 -1.4416 0
M  V30 1493 H 146.658 4.16001 0.0906057 0
M  V30 1494 H 145.534 5.46004 0.563149 0
M  V30 1495 H 145.795 4.10271 1.64713 0
M  V30 1496 N 144.854 0.36279 1.53368 0
M  V30 1497 C 145.817 -0.472679 2.24273 0
M  V30 1498 C 146.817 -1.012 1.24961 0
M  V30 1499 O 148.007 -0.898194 1.49259 0
M  V30 1500 C 145.139 -1.66039 2.97731 0
M  V30 1501 H 146.332 0.14773 2.99536 0
M  V30 1502 H 143.885 0.114434 1.55881 0
M  V30 1503 H 144.62 -2.31896 2.26704 0
M  V30 1504 H 144.405 -1.28066 3.70596 0
M  V30 1505 H 145.895 -2.25252 3.51641 0
M  V30 1506 N 146.332 -1.57332 0.0918853 0
M  V30 1507 C 147.743 -1.81496 -0.437739 0
M  V30 1508 C 148.094 -1.00727 -1.6837 0
M  V30 1509 O 147.219 -0.235694 -2.15113 0
M  V30 1510 C 147.814 -3.29197 -0.800939 0
M  V30 1511 C 146.373 -3.54136 -1.27532 0
M  V30 1512 C 145.52 -2.75979 -0.270392 0
M  V30 1513 H 148.471 -1.55494 0.317366 0
M  V30 1514 H 148.492 -3.42344 -1.66074 0
M  V30 1515 H 148.004 -3.87955 0.106078 0
M  V30 1516 H 146.105 -3.00705 -2.20016 0
M  V30 1517 H 146.218 -4.62792 -1.23938 0
M  V30 1518 H 144.582 -2.43349 -0.751872 0
M  V30 1519 H 145.365 -3.37484 0.629248 0
M  V30 1520 N 147.81 0.181792 -1.56548 0
M  V30 1521 C 148.72 1.24538 -1.98815 0
M  V30 1522 C 149.736 1.49045 -0.897861 0
M  V30 1523 O 150.912 1.61399 -1.20467 0
M  V30 1524 C 147.977 2.56683 -2.33055 0
M  V30 1525 C 147.038 2.40131 -3.55859 0
M  V30 1526 C 146.271 3.65975 -3.88456 0
M  V30 1527 O 146.494 4.70711 -3.22161 0
M  V30 1528 O 145.428 3.6071 -4.81842 0
M  V30 1529 H 149.254 0.916647 -2.89536 0
M  V30 1530 H 146.839 0.387842 -1.44278 0
M  V30 1531 H 148.721 3.34655 -2.56094 0
M  V30 1532 H 147.396 2.89157 -1.45498 0
M  V30 1533 H 146.303 1.60226 -3.38051 0
M  V30 1534 H 147.636 2.12585 -4.43924 0
M  V30 1535 N 149.288 1.51039 0.449983 0
M  V30 1536 C 150.198 1.74261 1.57067 0
M  V30 1537 C 151.214 0.626363 1.62335 0
M  V30 1538 O 152.39 0.907162 1.79812 0
M  V30 1539 C 149.455 1.85114 2.93144 0
M  V30 1540 C 148.516 3.0893 2.98095 0
M  V30 1541 C 147.749 3.19256 4.27681 0
M  V30 1542 O 147.972 2.35835 5.19363 0
M  V30 1543 O 146.906 4.12144 4.38658 0
M  V30 1544 H 150.732 2.69303 1.40391 0
M  V30 1545 H 148.317 1.35389 0.631688 0
M  V30 1546 H 150.199 1.94311 3.73926 0
M  V30 1547 H 148.874 0.932588 3.09975 0
M  V30 1548 H 147.781 3.0522 2.16314 0
M  V30 1549 H 149.114 4.00433 2.86206 0
M  V30 1550 N 150.766 -0.704594 1.40972 0
M  V30 1551 C 151.716 -1.81051 1.38581 0
M  V30 1552 C 152.7 -1.58759 0.261585 0
M  V30 1553 O 153.892 -1.69745 0.501556 0
M  V30 1554 C 151.021 -3.19279 1.26157 0
M  V30 1555 C 150.107 -3.47296 2.43405 0
M  V30 1556 N 150.498 -3.46064 3.68881 0
M  V30 1557 C 148.796 -3.77804 2.37023 0
M  V30 1558 C 149.497 -3.72733 4.46592 0
M  V30 1559 N 148.473 -3.9203 3.76581 0
M  V30 1560 H 152.275 -1.78448 2.33525 0
M  V30 1561 H 149.789 -0.904198 1.349 0
M  V30 1562 H 151.786 -3.98488 1.22526 0
M  V30 1563 H 150.446 -3.231 0.321902 0
M  V30 1564 H 151.457 -3.26656 4.01891 0
M  V30 1565 H 148.134 -3.8905 1.51481 0
M  V30 1566 H 149.524 -3.77993 5.55492 0
M  V30 1567 N 152.244 -1.26651 -0.937939 0
M  V30 1568 C 153.655 -1.1125 -1.49934 0
M  V30 1569 C 154.006 0.306077 -1.93798 0
M  V30 1570 O 153.131 1.19792 -1.80219 0
M  V30 1571 C 153.726 -2.01339 -2.72485 0
M  V30 1572 C 152.285 -1.90074 -3.24883 0
M  V30 1573 C 151.432 -1.94498 -1.97651 0
M  V30 1574 H 154.383 -1.39693 -0.753091 0
M  V30 1575 H 154.404 -1.56319 -3.46907 0
M  V30 1576 H 153.916 -3.04577 -2.40529 0
M  V30 1577 H 152.017 -0.897827 -3.61621 0
M  V30 1578 H 152.13 -2.75778 -3.9177 0
M  V30 1579 H 150.494 -1.38591 -2.13693 0
M  V30 1580 H 151.277 -2.99372 -1.68022 0
M  V30 1581 N 153.722 1.14298 -1.08507 0
M  V30 1582 C 154.95 1.89219 -0.836876 0
M  V30 1583 C 155.365 1.78638 0.611054 0
M  V30 1584 O 154.722 1.14643 1.41998 0
M  V30 1585 C 154.773 3.39158 -1.25116 0
M  V30 1586 O 154.494 3.49449 -2.64229 0
M  V30 1587 C 155.995 4.31073 -1.03398 0
M  V30 1588 H 153.215 0.599328 -0.301739 0
M  V30 1589 H 155.759 1.44746 -1.44461 0
M  V30 1590 H 153.914 3.81251 -0.687514 0
M  V30 1591 H 154.328 4.42589 -2.81452 0
M  V30 1592 H 155.802 5.34646 -1.37323 0
M  V30 1593 H 156.279 4.3919 0.0289259 0
M  V30 1594 H 156.885 3.94738 -1.58311 0
M  V30 1595 N 155.201 0.870884 1.31352 0
M  V30 1596 C 156.131 0.343096 2.30966 0
M  V30 1597 C 157.112 -0.566507 1.60389 0
M  V30 1598 O 158.297 -0.483336 1.88089 0
M  V30 1599 C 155.427 -0.455487 3.443 0
M  V30 1600 C 154.381 0.361103 4.26474 0
M  V30 1601 C 153.707 -0.563221 5.31725 0
M  V30 1602 C 155.007 1.59566 4.97329 0
M  V30 1603 H 156.701 1.17548 2.75359 0
M  V30 1604 H 154.247 0.566686 1.32381 0
M  V30 1605 H 156.2 -0.83525 4.13039 0
M  V30 1606 H 154.924 -1.32139 2.98675 0
M  V30 1607 H 153.583 0.722825 3.59403 0
M  V30 1608 H 153.231 -1.42643 4.82351 0
M  V30 1609 H 152.931 -0.0207409 5.87596 0
M  V30 1610 H 154.455 -0.939808 6.03324 0
M  V30 1611 H 155.869 1.28728 5.58661 0
M  V30 1612 H 154.266 2.07728 5.63 0
M  V30 1613 H 155.336 2.34798 4.24262 0
M  V30 1614 N 156.679 -1.44442 0.630414 0
M  V30 1615 C 157.609 -2.33418 -0.0618083 0
M  V30 1616 C 158.59 -1.48165 -0.835541 0
M  V30 1617 O 159.775 -1.76886 -0.801564 0
M  V30 1618 C 156.905 -3.31222 -1.04449 0
M  V30 1619 C 155.859 -4.26288 -0.382436 0
M  V30 1620 C 155.185 -5.13954 -1.47497 0
M  V30 1621 C 156.485 -5.1744 0.710865 0
M  V30 1622 H 158.179 -2.91548 0.681184 0
M  V30 1623 H 155.725 -1.40191 0.329026 0
M  V30 1624 H 157.678 -3.92351 -1.53748 0
M  V30 1625 H 156.402 -2.71299 -1.81836 0
M  V30 1626 H 155.061 -3.6649 0.0899054 0
M  V30 1627 H 154.709 -4.50385 -2.2397 0
M  V30 1628 H 154.409 -5.7837 -1.03737 0
M  V30 1629 H 155.933 -5.77955 -1.96979 0
M  V30 1630 H 157.347 -5.72509 0.300996 0
M  V30 1631 H 155.744 -5.90455 1.07156 0
M  V30 1632 H 156.814 -4.58496 1.57829 0
M  V30 1633 N 158.157 -0.370918 -1.53173 0
M  V30 1634 C 159.385 0.217704 -2.05751 0
M  V30 1635 C 159.8 1.42018 -1.24404 0
M  V30 1636 O 159.157 1.80245 -0.286033 0
M  V30 1637 C 159.208 0.605954 -3.56385 0
M  V30 1638 O 158.929 -0.548734 -4.3465 0
M  V30 1639 C 160.43 1.2524 -4.25241 0
M  V30 1640 H 157.65 0.0371659 -0.66997 0
M  V30 1641 H 160.194 -0.530832 -1.9749 0
M  V30 1642 H 158.349 1.3044 -3.6478 0
M  V30 1643 H 158.763 -0.23376 -5.23979 0
M  V30 1644 H 160.237 1.47458 -5.3194 0
M  V30 1645 H 160.714 2.2143 -3.79296 0
M  V30 1646 H 161.32 0.595233 -4.21114 0
M  V30 1647 N 159.635 1.57281 -0.100228 0
M  V30 1648 C 160.545 2.17833 0.870965 0
M  V30 1649 C 161.561 1.14921 1.30649 0
M  V30 1650 O 162.737 1.47313 1.37335 0
M  V30 1651 C 159.802 2.75085 2.1102 0
M  V30 1652 C 158.863 3.9297 1.72838 0
M  V30 1653 C 158.096 4.47482 2.90854 0
M  V30 1654 O 158.319 4.00922 4.05731 0
M  V30 1655 O 157.253 5.38433 2.69023 0
M  V30 1656 H 161.079 3.0124 0.38575 0
M  V30 1657 H 158.664 1.48881 0.124397 0
M  V30 1658 H 160.546 3.11656 2.83634 0
M  V30 1659 H 159.221 1.94721 2.58584 0
M  V30 1660 H 158.128 3.61201 0.973883 0
M  V30 1661 H 159.461 4.74713 1.30033 0
M  V30 1662 N 161.113 -0.173488 1.56642 0
M  V30 1663 C 162.076 -1.19859 1.95362 0
M  V30 1664 C 163.076 -1.37296 0.83704 0
M  V30 1665 O 164.266 -1.34739 1.10413 0
M  V30 1666 C 161.398 -2.56405 2.24654 0
M  V30 1667 H 162.591 -0.867062 2.87092 0
M  V30 1668 H 160.144 -0.415853 1.50666 0
M  V30 1669 H 160.879 -2.94576 1.35631 0
M  V30 1670 H 160.664 -2.45115 3.06041 0
M  V30 1671 H 162.154 -3.30287 2.5554 0
M  V30 1672 N 162.591 -1.51276 -0.441967 0
M  V30 1673 C 164.002 -1.56244 -1.02199 0
M  V30 1674 C 164.353 -0.383149 -1.92422 0
M  V30 1675 O 163.478 0.500613 -2.1053 0
M  V30 1676 C 164.073 -2.83162 -1.86024 0
M  V30 1677 C 162.632 -2.90716 -2.39084 0
M  V30 1678 C 161.779 -2.50858 -1.18175 0
M  V30 1679 H 164.73 -1.5712 -0.223416 0
M  V30 1680 H 164.751 -2.66663 -2.71425 0
M  V30 1681 H 164.263 -3.68974 -1.20331 0
M  V30 1682 H 162.364 -2.09323 -3.08244 0
M  V30 1683 H 162.477 -3.94266 -2.72198 0
M  V30 1684 H 160.841 -2.03951 -1.52565 0
M  V30 1685 H 161.624 -3.3901 -0.541001 0
M  V30 1686 N 164.069 0.697108 -1.41344 0
M  V30 1687 C 164.999 1.82353 -1.45841 0
M  V30 1688 C 165.98 1.67115 -0.317247 0
M  V30 1689 O 167.165 1.86871 -0.528474 0
M  V30 1690 C 164.295 3.20476 -1.33838 0
M  V30 1691 C 163.249 3.50415 -2.4575 0
M  V30 1692 C 162.575 4.87878 -2.18813 0
M  V30 1693 C 163.875 3.49546 -3.88091 0
M  V30 1694 H 165.569 1.78846 -2.40113 0
M  V30 1695 H 163.115 0.859028 -1.15571 0
M  V30 1696 H 165.068 3.98988 -1.35596 0
M  V30 1697 H 163.792 3.24604 -0.360498 0
M  V30 1698 H 162.451 2.74253 -2.43271 0
M  V30 1699 H 162.099 4.8863 -1.19371 0
M  V30 1700 H 161.799 5.08875 -2.93803 0
M  V30 1701 H 163.323 5.68702 -2.22284 0
M  V30 1702 H 164.737 4.18066 -3.92293 0
M  V30 1703 H 163.134 3.82075 -4.62751 0
M  V30 1704 H 164.204 2.48552 -4.16353 0
M  V30 1705 N 165.547 1.27147 0.931209 0
M  V30 1706 C 166.495 1.09398 2.05268 0
M  V30 1707 C 167.489 0.0180591 1.6939 0
M  V30 1708 O 168.695 0.17551 1.79142 0
M  V30 1709 H 165.07 0.336986 0.672268 0
M  V30 1710 H 167.041 2.04416 2.17386 0
M  V30 1711 C 165.79 0.75424 3.39421 0
M  V30 1712 H 165.113 1.57404 3.67511 0
M  V30 1713 H 166.553 0.669903 4.18674 0
M  V30 1714 C 165.012 -0.541197 3.32525 0
M  V30 1715 O 165.542 -1.57664 3.69466 0
M  V30 1716 N 163.748 -0.535517 2.85623 0
M  V30 1717 H 163.295 0.307511 2.55758 0
M  V30 1718 H 163.253 -1.40236 2.81392 0
M  V30 1719 N 167.025 -1.13721 1.09112 0
M  V30 1720 C 168.436 -1.6648 0.845068 0
M  V30 1721 C 168.787 -1.85911 -0.62701 0
M  V30 1722 O 167.912 -1.57556 -1.48341 0
M  V30 1723 C 168.507 -3.02413 1.52748 0
M  V30 1724 C 167.066 -3.52176 1.32849 0
M  V30 1725 C 166.213 -2.27492 1.58564 0
M  V30 1726 H 169.164 -0.976872 1.25072 0
M  V30 1727 H 169.185 -3.68223 0.958752 0
M  V30 1728 H 168.697 -2.88238 2.59885 0
M  V30 1729 H 166.798 -3.7156 0.278137 0
M  V30 1730 H 166.911 -4.32499 2.0611 0
M  V30 1731 H 165.275 -2.33923 1.00758 0
M  V30 1732 H 166.058 -2.15886 2.66924 0
M  V30 1733 N 168.503 -0.877838 -1.30888 0
M  V30 1734 C 169.45 -0.337538 -2.28318 0
M  V30 1735 C 170.42 0.568346 -1.56074 0
M  V30 1736 O 171.605 0.498298 -1.84178 0
M  V30 1737 C 168.745 0.448142 -3.42178 0
M  V30 1738 C 167.858 -0.48615 -4.29256 0
M  V30 1739 C 166.993 0.314427 -5.30269 0
M  V30 1740 C 166.032 -0.615791 -6.08995 0
M  V30 1741 N 165.169 0.14902 -7.01942 0
M  V30 1742 H 170.009 -1.17356 -2.73919 0
M  V30 1743 H 167.546 -0.590094 -1.34745 0
M  V30 1744 H 169.504 0.919517 -4.06941 0
M  V30 1745 H 168.134 1.24879 -2.97666 0
M  V30 1746 H 167.186 -1.076 -3.64865 0
M  V30 1747 H 168.498 -1.19909 -4.84173 0
M  V30 1748 H 167.652 0.847969 -6.00745 0
M  V30 1749 H 166.391 1.06062 -4.76027 0
M  V30 1750 H 165.396 -1.16102 -5.37401 0
M  V30 1751 H 166.621 -1.36097 -6.65323 0
M  V30 1752 H 164.567 0.877884 -6.50099 0
M  V30 1753 H 164.484 -0.504433 -7.54315 0
M  V30 1754 H 165.752 0.663537 -7.76671 0
M  V30 1755 N 169.982 1.44106 -0.638065 0
M  V30 1756 C 170.945 2.29138 0.0531013 0
M  V30 1757 C 171.945 1.41409 0.765506 0
M  V30 1758 O 173.135 1.63206 0.609046 0
M  V30 1759 C 170.267 3.23144 1.08584 0
M  V30 1760 H 171.46 2.91739 -0.694883 0
M  V30 1761 H 169.013 1.51134 -0.398538 0
M  V30 1762 H 169.748 2.65408 1.86357 0
M  V30 1763 H 169.533 3.87804 0.578852 0
M  V30 1764 H 171.023 3.87004 1.56899 0
M  V30 1765 N 171.46 0.379036 1.52974 0
M  V30 1766 C 172.408 -0.476033 2.27677 0
M  V30 1767 C 173.402 -1.0719 1.31174 0
M  V30 1768 O 174.608 -1.01355 1.48752 0
M  V30 1769 H 170.983 -0.172255 0.732006 0
M  V30 1770 H 172.954 0.175615 2.97883 0
M  V30 1771 C 171.703 -1.5967 3.0887 0
M  V30 1772 H 171.026 -1.1475 3.82978 0
M  V30 1773 H 172.466 -2.16943 3.64296 0
M  V30 1774 C 170.925 -2.54682 2.20542 0
M  V30 1775 O 171.455 -3.57836 1.82527 0
M  V30 1776 N 169.661 -2.24183 1.84907 0
M  V30 1777 H 169.208 -1.40333 2.1602 0
M  V30 1778 H 169.166 -2.88006 1.26096 0
M  V30 1779 N 172.938 -1.57226 0.108567 0
M  V30 1780 C 174.354 -1.5766 -0.248058 0
M  V30 1781 C 174.554 -1.12063 -1.67464 0
M  V30 1782 O 173.61 -0.803236 -2.39383 0
M  V30 1783 C 174.923 -3.0069 -0.0242287 0
M  V30 1784 C 176.471 -3.12868 -0.0909372 0
M  V30 1785 C 176.946 -4.57879 0.105067 0
M  V30 1786 N 178.437 -4.63172 0.0506846 0
M  V30 1787 C 179.172 -5.73126 0.177396 0
M  V30 1788 N 178.668 -6.91866 0.359696 0
M  V30 1789 N 180.461 -5.61977 0.117709 0
M  V30 1790 H 172.612 -1.85169 1.04049 0
M  V30 1791 H 174.875 -0.85529 0.40888 0
M  V30 1792 H 174.581 -3.38299 0.961604 0
M  V30 1793 H 174.455 -3.6945 -0.76068 0
M  V30 1794 H 176.842 -2.75124 -1.06729 0
M  V30 1795 H 176.923 -2.46672 0.677225 0
M  V30 1796 H 176.567 -4.96321 1.07834 0
M  V30 1797 H 176.497 -5.22153 -0.682954 0
M  V30 1798 H 178.988 -3.778 -0.0871266 0
M  V30 1799 H 179.301 -7.71503 0.447529 0
M  V30 1800 H 177.646 -6.93874 0.395536 0
M  V30 1801 H 180.837 -4.68094 -0.0236741 0
M  V30 1802 H 181.01 -6.47627 0.219905 0
M  V30 1803 N 174.416 0.165178 -1.56732 0
M  V30 1804 C 175.326 1.22423 -2.00125 0
M  V30 1805 C 176.342 1.48084 -0.913619 0
M  V30 1806 O 177.518 1.60112 -1.22172 0
M  V30 1807 C 174.583 2.54197 -2.35764 0
M  V30 1808 C 173.644 2.36343 -3.58386 0
M  V30 1809 C 172.877 3.61834 -3.92316 0
M  V30 1810 O 173.1 4.67267 -3.27135 0
M  V30 1811 O 172.034 3.55579 -4.85641 0
M  V30 1812 H 175.86 0.885886 -2.90492 0
M  V30 1813 H 173.445 0.372518 -1.44681 0
M  V30 1814 H 175.327 3.3192 -2.59629 0
M  V30 1815 H 174.002 2.87598 -1.48557 0
M  V30 1816 H 172.909 1.56632 -3.39731 0
M  V30 1817 H 174.242 2.07865 -4.46154 0
M  V30 1818 N 175.894 1.51508 0.433938 0
M  V30 1819 C 176.841 1.73068 1.52696 0
M  V30 1820 C 177.811 0.572441 1.55924 0
M  V30 1821 O 178.996 0.807253 1.72882 0
M  V30 1822 C 176.136 1.86474 2.90381 0
M  V30 1823 C 175.249 3.14037 2.96656 0
M  V30 1824 C 174.384 3.18019 4.25485 0
M  V30 1825 C 173.423 4.39882 4.2564 0
M  V30 1826 N 172.56 4.41394 5.45999 0
M  V30 1827 H 177.4 2.66366 1.33615 0
M  V30 1828 H 174.937 1.32008 0.649018 0
M  V30 1829 H 176.895 1.92229 3.70275 0
M  V30 1830 H 175.525 0.965809 3.08013 0
M  V30 1831 H 174.577 3.17575 2.09404 0
M  V30 1832 H 175.889 4.0394 2.92633 0
M  V30 1833 H 175.043 3.22708 5.13755 0
M  V30 1834 H 173.782 2.2601 4.3217 0
M  V30 1835 H 172.787 4.35366 3.35763 0
M  V30 1836 H 174.012 5.33159 4.20617 0
M  V30 1837 H 171.958 3.52258 5.53399 0
M  V30 1838 H 171.875 5.25111 5.4387 0
M  V30 1839 H 173.143 4.50281 6.36292 0
M  V30 1840 N 177.372 -0.689602 1.41712 0
M  V30 1841 C 178.305 -1.81403 1.3845 0
M  V30 1842 C 179.283 -1.60653 0.250874 0
M  V30 1843 O 180.467 -1.83323 0.43874 0
M  V30 1844 C 177.594 -3.18176 1.1611 0
M  V30 1845 C 176.64 -3.57705 2.3227 0
M  V30 1846 S 177.473 -3.61827 3.94767 0
M  V30 1847 C 178.629 -5.01318 3.74742 0
M  V30 1848 H 178.862 -1.83893 2.33603 0
M  V30 1849 H 176.395 -0.858878 1.28307 0
M  V30 1850 H 178.353 -3.97132 1.03907 0
M  V30 1851 H 177.014 -3.13288 0.225668 0
M  V30 1852 H 176.207 -4.57082 2.12349 0
M  V30 1853 H 175.809 -2.86073 2.40911 0
M  V30 1854 H 178.101 -5.88986 3.34817 0
M  V30 1855 H 179.044 -5.26283 4.73743 0
M  V30 1856 H 179.452 -4.73138 3.07898 0
M  V30 1857 N 178.85 -1.27639 -0.924453 0
M  V30 1858 C 180.078 -1.16989 -1.70649 0
M  V30 1859 C 180.493 0.272869 -1.86818 0
M  V30 1860 O 179.85 1.18549 -1.38753 0
M  V30 1861 C 179.901 -1.85229 -3.10439 0
M  V30 1862 O 179.622 -3.23868 -2.95028 0
M  V30 1863 C 181.123 -1.80746 -4.04779 0
M  V30 1864 H 178.343 -0.406595 -0.53378 0
M  V30 1865 H 180.887 -1.68569 -1.15778 0
M  V30 1866 H 179.042 -1.37545 -3.6216 0
M  V30 1867 H 179.456 -3.57889 -3.83426 0
M  V30 1868 H 180.93 -2.33101 -5.00368 0
M  V30 1869 H 181.407 -0.777499 -4.32263 0
M  V30 1870 H 182.013 -2.28059 -3.58984 0
M  V30 1871 N 180.328 1.1314 -1.09713 0
M  V30 1872 C 181.26 2.18343 -0.697056 0
M  V30 1873 C 182.273 1.60669 0.262551 0
M  V30 1874 O 183.462 1.78435 0.0481527 0
M  V30 1875 C 180.562 3.38899 -0.00684728 0
M  V30 1876 C 179.735 4.26078 -0.988741 0
M  V30 1877 C 178.794 5.25155 -0.331394 0
M  V30 1878 O 177.82 5.60701 -0.979926 0
M  V30 1879 N 179.022 5.73271 0.913261 0
M  V30 1880 H 181.787 2.5328 -1.60216 0
M  V30 1881 H 179.348 1.28491 -0.984971 0
M  V30 1882 H 181.34 4.02255 0.444191 0
M  V30 1883 H 179.91 3.02175 0.800551 0
M  V30 1884 H 179.13 3.59453 -1.61826 0
M  V30 1885 H 180.418 4.81178 -1.65364 0
M  V30 1886 H 179.816 5.46544 1.45966 0
M  V30 1887 H 178.373 6.3855 1.30757 0
M  V30 1888 N 181.806 0.884767 1.30421 0
M  V30 1889 C 183.055 0.499164 1.95426 0
M  V30 1890 C 183.368 -0.95645 1.70621 0
M  V30 1891 O 184.574 -1.44889 2.29607 0
M  V30 1892 C 183.03 0.84177 3.49917 0
M  V30 1893 C 182.638 2.31514 3.83543 0
M  V30 1894 C 184.382 0.525355 4.21237 0
M  V30 1895 C 182.289 2.59939 5.31212 0
M  V30 1896 H 181.219 0.182944 0.73147 0
M  V30 1897 H 183.87 1.07971 1.48373 0
M  V30 1898 H 182.252 0.190311 3.95542 0
M  V30 1899 H 183.426 3.0109 3.48829 0
M  V30 1900 H 181.741 2.59907 3.25326 0
M  V30 1901 H 184.338 0.714762 5.29901 0
M  V30 1902 H 184.681 -0.535222 4.12845 0
M  V30 1903 H 185.214 1.134 3.81294 0
M  V30 1904 H 181.953 3.64736 5.44654 0
M  V30 1905 H 181.473 1.94972 5.67227 0
M  V30 1906 H 183.152 2.45429 5.98643 0
M  V30 1907 N 183.284 -1.43765 0.645699 0
M  V30 1908 C 184.217 -2.2798 -0.100072 0
M  V30 1909 C 185.195 -1.39391 -0.837194 0
M  V30 1910 O 186.379 -1.68833 -0.838306 0
M  V30 1911 C 183.506 -3.18643 -1.14823 0
M  V30 1912 C 182.552 -4.2344 -0.510009 0
M  V30 1913 S 183.385 -5.30761 0.710824 0
M  V30 1914 C 184.541 -6.24992 -0.33699 0
M  V30 1915 H 184.774 -2.90884 0.614322 0
M  V30 1916 H 182.307 -1.48166 0.434304 0
M  V30 1917 H 184.265 -3.71424 -1.74799 0
M  V30 1918 H 182.926 -2.54932 -1.8349 0
M  V30 1919 H 182.119 -4.86948 -1.29991 0
M  V30 1920 H 181.721 -3.73997 0.0154577 0
M  V30 1921 H 184.013 -6.66691 -1.20537 0
M  V30 1922 H 184.956 -7.07612 0.262879 0
M  V30 1923 H 185.364 -5.60517 -0.669425 0
M  V30 1924 N 184.763 -0.387143 -1.52771 0
M  V30 1925 C 186.01 0.195735 -2.01552 0
M  V30 1926 C 186.338 1.46995 -1.27369 0
M  V30 1927 O 185.593 1.92325 -0.361879 0
M  V30 1928 C 185.892 0.512209 -3.53711 0
M  V30 1929 C 185.558 -0.670202 -4.45891 0
M  V30 1930 C 184.22 -0.994586 -4.70809 0
M  V30 1931 C 186.572 -1.46134 -5.00294 0
M  V30 1932 C 183.9 -2.11169 -5.4738 0
M  V30 1933 C 186.252 -2.56903 -5.78086 0
M  V30 1934 C 184.916 -2.89852 -6.01284 0
M  V30 1935 H 184.186 0.0716246 -0.73753 0
M  V30 1936 H 186.833 -0.524046 -1.8419 0
M  V30 1937 H 185.138 1.31329 -3.69134 0
M  V30 1938 H 186.835 0.975804 -3.88946 0
M  V30 1939 H 183.425 -0.407366 -4.2666 0
M  V30 1940 H 187.609 -1.22397 -4.80971 0
M  V30 1941 H 182.865 -2.3707 -5.63567 0
M  V30 1942 H 187.039 -3.18608 -6.19243 0
M  V30 1943 H 184.666 -3.76533 -6.60399 0
M  V30 1944 N 186.241 1.57166 -0.116904 0
M  V30 1945 C 187.151 2.18745 0.847812 0
M  V30 1946 C 188.167 1.163 1.29423 0
M  V30 1947 O 189.343 1.48761 1.35765 0
M  V30 1948 C 186.408 2.77307 2.0809 0
M  V30 1949 C 185.469 3.94781 1.68661 0
M  V30 1950 C 184.702 4.50541 2.86091 0
M  V30 1951 O 184.925 4.05202 4.01456 0
M  V30 1952 O 183.859 5.41256 2.63298 0
M  V30 1953 H 187.685 3.01632 0.353778 0
M  V30 1954 H 185.27 1.49005 0.108599 0
M  V30 1955 H 187.152 3.14647 2.80313 0
M  V30 1956 H 185.827 1.97452 2.56504 0
M  V30 1957 H 184.734 3.62214 0.935518 0
M  V30 1958 H 186.067 4.76065 1.24991 0
M  V30 1959 N 187.719 -0.156864 1.56817 0
M  V30 1960 C 188.947 -0.886316 1.86955 0
M  V30 1961 C 189.362 -1.75185 0.703975 0
M  V30 1962 O 188.719 -1.79555 -0.326552 0
M  V30 1963 C 188.77 -1.75117 3.16253 0
M  V30 1964 O 188.491 -0.920537 4.2832 0
M  V30 1965 C 189.992 -2.58905 3.59837 0
M  V30 1966 H 187.212 -0.25678 0.619923 0
M  V30 1967 H 189.756 -0.152615 2.0393 0
M  V30 1968 H 187.911 -2.43805 3.01062 0
M  V30 1969 H 188.325 -1.51337 5.02192 0
M  V30 1970 H 189.799 -3.1518 4.53172 0
M  V30 1971 H 190.276 -3.34472 2.84649 0
M  V30 1972 H 190.882 -1.95526 3.7769 0
M  V30 1973 N 189.197 -1.51736 -0.425897 0
M  V30 1974 C 190.444 -1.6497 -1.17436 0
M  V30 1975 C 190.772 -0.371445 -1.9092 0
M  V30 1976 O 190.027 0.644963 -1.84767 0
M  V30 1977 C 190.326 -2.81103 -2.20717 0
M  V30 1978 C 189.992 -4.19954 -1.64162 0
M  V30 1979 C 188.654 -4.57725 -1.48462 0
M  V30 1980 C 191.006 -5.06552 -1.22696 0
M  V30 1981 C 188.334 -5.79789 -0.897873 0
M  V30 1982 C 190.686 -6.29205 -0.654464 0
M  V30 1983 C 189.35 -6.6574 -0.484456 0
M  V30 1984 H 188.62 -0.603668 -0.429727 0
M  V30 1985 H 191.267 -1.85798 -0.463829 0
M  V30 1986 H 189.572 -2.54542 -2.97852 0
M  V30 1987 H 191.269 -2.8854 -2.78471 0
M  V30 1988 H 187.859 -3.90181 -1.77361 0
M  V30 1989 H 192.043 -4.77968 -1.33642 0
M  V30 1990 H 187.299 -6.06733 -0.75402 0
M  V30 1991 H 191.473 -6.95643 -0.324694 0
M  V30 1992 H 189.1 -7.60195 -0.0276833 0
M  V30 1993 N 190.675 0.682077 -1.42076 0
M  V30 1994 C 191.623 1.81707 -1.45208 0
M  V30 1995 C 192.617 1.66183 -0.328591 0
M  V30 1996 O 193.823 1.7288 -0.501264 0
M  V30 1997 H 190.198 0.599014 -0.454628 0
M  V30 1998 H 192.169 1.76183 -2.40836 0
M  V30 1999 C 190.918 3.19816 -1.36428 0
M  V30 2000 H 190.241 3.32385 -2.22171 0
M  V30 2001 H 191.681 3.99272 -1.42681 0
M  V30 2002 C 190.14 3.36809 -0.078191 0
M  V30 2003 O 190.67 3.92124 0.87188 0
M  V30 2004 N 188.876 2.906 0.00229266 0
M  V30 2005 H 188.423 2.45772 -0.771616 0
M  V30 2006 H 188.381 3.02347 0.862179 0
M  V30 2007 N 192.153 1.28127 0.917671 0
M  V30 2008 C 193.399 1.15223 1.66888 0
M  V30 2009 C 193.732 -0.299293 1.9188 0
M  V30 2010 O 193.007 -1.21805 1.51637 0
M  V30 2011 C 193.29 1.94706 3.02922 0
M  V30 2012 C 193.143 3.47898 2.85109 0
M  V30 2013 C 194.462 1.75939 4.03402 0
M  V30 2014 H 191.581 0.419946 0.605652 0
M  V30 2015 H 194.223 1.57398 1.06423 0
M  V30 2016 H 192.373 1.58864 3.54534 0
M  V30 2017 H 194.045 3.93624 2.40537 0
M  V30 2018 H 192.288 3.7373 2.20246 0
M  V30 2019 H 192.959 3.98765 3.81694 0
M  V30 2020 H 195.435 2.07209 3.60837 0
M  V30 2021 H 194.311 2.33931 4.96556 0
M  V30 2022 H 194.572 0.709877 4.36364 0
M  V30 2023 N 193.631 -1.12557 1.10312 0
M  V30 2024 C 195.042 -1.65574 0.862678 0
M  V30 2025 C 195.393 -1.86566 -0.607256 0
M  V30 2026 O 194.518 -1.59121 -1.46662 0
M  V30 2027 C 195.113 -3.00776 1.55947 0
M  V30 2028 C 193.672 -3.50748 1.36576 0
M  V30 2029 C 192.819 -2.25797 1.60968 0
M  V30 2030 H 195.77 -0.963552 1.26101 0
M  V30 2031 H 195.791 -3.67185 0.997753 0
M  V30 2032 H 195.303 -2.85465 2.62928 0
M  V30 2033 H 193.404 -3.71245 0.317531 0
M  V30 2034 H 193.517 -4.30289 2.10686 0
M  V30 2035 H 191.881 -2.32841 1.03234 0
M  V30 2036 H 192.664 -2.13043 2.69198 0
M  V30 2037 N 195.109 -0.891671 -1.2995 0
M  V30 2038 C 196.072 -0.36828 -2.26222 0
M  V30 2039 C 197.072 0.493014 -1.53056 0
M  V30 2040 O 198.262 0.299213 -1.71611 0
M  V30 2041 C 195.394 0.47442 -3.37583 0
M  V30 2042 H 196.587 -1.21844 -2.74033 0
M  V30 2043 H 194.14 -0.669107 -1.41254 0
M  V30 2044 H 194.875 1.34489 -2.95099 0
M  V30 2045 H 194.66 -0.142615 -3.91841 0
M  V30 2046 H 196.15 0.83218 -4.09224 0
M  V30 2047 N 196.587 1.43421 -0.653314 0
M  V30 2048 C 197.52 2.2803 0.0879804 0
M  V30 2049 C 198.498 1.39833 0.82979 0
M  V30 2050 O 199.682 1.69275 0.829341 0
M  V30 2051 C 196.809 3.19247 1.13132 0
M  V30 2052 C 195.855 4.23704 0.487546 0
M  V30 2053 S 196.688 5.30377 -0.738961 0
M  V30 2054 C 197.844 6.25162 0.30384 0
M  V30 2055 H 198.077 2.90554 -0.629739 0
M  V30 2056 H 195.61 1.47934 -0.442156 0
M  V30 2057 H 197.568 3.72346 1.72827 0
M  V30 2058 H 196.229 2.55901 1.82136 0
M  V30 2059 H 195.422 4.87631 1.27407 0
M  V30 2060 H 195.024 3.73983 -0.0352915 0
M  V30 2061 H 197.316 6.67321 1.17 0
M  V30 2062 H 198.259 7.07463 -0.300402 0
M  V30 2063 H 198.667 5.60864 0.63969 0
M  V30 2064 N 198.065 0.39524 1.52563 0
M  V30 2065 C 199.295 -0.184675 2.05773 0
M  V30 2066 C 199.703 -1.40571 1.26635 0
M  V30 2067 O 199.046 -1.81105 0.30769 0
M  V30 2068 C 199.108 -0.613551 3.54226 0
M  V30 2069 C 198.772 0.49484 4.54313 0
M  V30 2070 C 199.769 1.3541 5.01956 0
M  V30 2071 C 197.454 0.663565 4.97898 0
M  V30 2072 C 199.448 2.36716 5.91814 0
M  V30 2073 C 197.135 1.67996 5.87555 0
M  V30 2074 C 198.133 2.53017 6.34406 0
M  V30 2075 O 197.821 3.52917 7.22291 0
M  V30 2076 H 197.553 -0.030077 0.675331 0
M  V30 2077 H 200.107 0.560708 1.97599 0
M  V30 2078 H 198.337 -1.411 3.60038 0
M  V30 2079 H 200.026 -1.11981 3.90148 0
M  V30 2080 H 200.792 1.23509 4.6901 0
M  V30 2081 H 196.671 0.0114913 4.60999 0
M  V30 2082 H 200.215 3.03113 6.28306 0
M  V30 2083 H 196.112 1.79933 6.19915 0
M  V30 2084 H 196.88 3.48996 7.40367 0
M  V30 2085 N 199.544 -1.57102 0.125237 0
M  V30 2086 C 200.79 -1.95697 -0.532035 0
M  V30 2087 C 201.123 -1.009 -1.6593 0
M  V30 2088 O 200.398 -0.047347 -1.94442 0
M  V30 2089 C 200.681 -3.44181 -1.05884 0
M  V30 2090 C 200.534 -4.49752 0.0654392 0
M  V30 2091 C 201.853 -3.94655 -1.9477 0
M  V30 2092 H 198.972 -0.711571 -0.191925 0
M  V30 2093 H 201.614 -1.88923 0.20206 0
M  V30 2094 H 199.764 -3.50085 -1.68442 0
M  V30 2095 H 201.436 -4.55943 0.700982 0
M  V30 2096 H 199.679 -4.27653 0.727709 0
M  V30 2097 H 200.35 -5.50924 -0.344505 0
M  V30 2098 H 202.826 -3.91094 -1.42074 0
M  V30 2099 H 201.702 -4.99057 -2.28546 0
M  V30 2100 H 201.963 -3.35718 -2.87656 0
M  V30 2101 N 201.022 0.148545 -1.56898 0
M  V30 2102 C 201.985 1.16736 -1.97244 0
M  V30 2103 C 202.985 1.35947 -0.858777 0
M  V30 2104 O 204.175 1.32966 -1.12542 0
M  V30 2105 C 201.307 2.52798 -2.28705 0
M  V30 2106 H 202.5 0.821279 -2.88435 0
M  V30 2107 H 200.053 0.391831 -1.51309 0
M  V30 2108 H 200.788 2.92381 -1.403 0
M  V30 2109 H 200.573 2.40216 -3.09901 0
M  V30 2110 H 202.063 3.26179 -2.60762 0
M  V30 2111 N 202.5 1.5196 0.417844 0
M  V30 2112 C 203.749 1.6482 1.16264 0
M  V30 2113 C 204.062 0.379886 1.91876 0
M  V30 2114 O 205.268 0.388154 2.68711 0
M  V30 2115 C 203.724 2.91161 2.1155 0
M  V30 2116 C 203.332 4.25068 1.41495 0
M  V30 2117 C 205.076 3.13383 2.86341 0
M  V30 2118 C 202.983 5.42541 2.35379 0
M  V30 2119 H 201.913 0.613954 0.437694 0
M  V30 2120 H 204.564 1.78442 0.427871 0
M  V30 2121 H 202.946 2.71218 2.88543 0
M  V30 2122 H 204.12 4.55463 0.699263 0
M  V30 2123 H 202.435 4.0888 0.787792 0
M  V30 2124 H 205.032 3.98324 3.5671 0
M  V30 2125 H 205.375 2.27256 3.48798 0
M  V30 2126 H 205.908 3.33757 2.1645 0
M  V30 2127 H 202.647 6.30987 1.77582 0
M  V30 2128 H 202.167 5.16497 3.04945 0
M  V30 2129 H 203.846 5.75272 2.96093 0
M  V30 2130 N 203.978 -0.674533 1.42435 0
M  V30 2131 C 204.91 -1.80005 1.41883 0
M  V30 2132 C 205.923 -1.59667 0.31787 0
M  V30 2133 O 207.112 -1.68781 0.580973 0
M  V30 2134 C 204.212 -3.17114 1.19549 0
M  V30 2135 C 203.385 -3.64299 2.42084 0
M  V30 2136 C 202.444 -4.80142 2.15291 0
M  V30 2137 O 201.47 -4.90673 2.88493 0
M  V30 2138 N 202.672 -5.68869 1.1562 0
M  V30 2139 H 205.437 -1.80964 2.38898 0
M  V30 2140 H 202.998 -0.857633 1.37318 0
M  V30 2141 H 204.99 -3.92267 0.995417 0
M  V30 2142 H 203.56 -3.11053 0.310569 0
M  V30 2143 H 202.78 -2.79822 2.77657 0
M  V30 2144 H 204.068 -3.92567 3.23679 0
M  V30 2145 H 203.466 -5.63012 0.550765 0
M  V30 2146 H 202.023 -6.43833 1.016 0
M  V30 2147 N 205.456 -1.28612 -0.910864 0
M  V30 2148 C 206.419 -1.12803 -1.9952 0
M  V30 2149 C 207.419 -0.0668264 -1.60661 0
M  V30 2150 O 208.609 -0.312847 -1.71368 0
M  V30 2151 C 205.741 -0.72254 -3.33155 0
M  V30 2152 H 206.934 -2.09109 -2.14973 0
M  V30 2153 H 204.487 -1.11639 -1.09391 0
M  V30 2154 H 205.222 0.241152 -3.23402 0
M  V30 2155 H 205.007 -1.48916 -3.62721 0
M  V30 2156 H 206.497 -0.634666 -4.12749 0
M  V30 2157 N 206.934 1.1197 -1.10907 0
M  V30 2158 C 208.18 1.8386 -0.855773 0
M  V30 2159 C 208.513 1.84134 0.617103 0
M  V30 2160 O 207.788 1.29041 1.45529 0
M  V30 2161 C 208.071 3.31305 -1.411 0
M  V30 2162 C 207.924 3.39456 -2.9511 0
M  V30 2163 C 209.243 4.2721 -1.05736 0
M  V30 2164 H 206.362 0.667545 -0.312334 0
M  V30 2165 H 209.004 1.31331 -1.37303 0
M  V30 2166 H 207.154 3.76169 -0.97105 0
M  V30 2167 H 208.826 3.03191 -3.47668 0
M  V30 2168 H 207.069 2.79849 -3.31462 0
M  V30 2169 H 207.74 4.43209 -3.29044 0
M  V30 2170 H 210.216 3.90497 -1.43706 0
M  V30 2171 H 209.092 5.28775 -1.47269 0
M  V30 2172 H 209.353 4.42088 0.0325958 0
M  V30 2173 N 208.412 0.89855 1.29475 0
M  V30 2174 C 209.342 0.39201 2.30186 0
M  V30 2175 C 210.323 -0.532359 1.61555 0
M  V30 2176 O 211.508 -0.443331 1.89072 0
M  V30 2177 C 208.638 -0.382353 3.45189 0
M  V30 2178 C 207.592 0.451483 4.25612 0
M  V30 2179 C 206.918 -0.450307 5.328 0
M  V30 2180 C 208.218 1.70079 4.93832 0
M  V30 2181 H 209.912 1.23362 2.72804 0
M  V30 2182 H 207.458 0.594638 1.31149 0
M  V30 2183 H 209.411 -0.747451 4.14718 0
M  V30 2184 H 208.135 -1.25774 3.01411 0
M  V30 2185 H 206.794 0.798897 3.57789 0
M  V30 2186 H 206.442 -1.32379 4.85268 0
M  V30 2187 H 206.142 0.103902 5.87508 0
M  V30 2188 H 207.666 -0.811623 6.05182 0
M  V30 2189 H 209.08 1.40549 5.55805 0
M  V30 2190 H 207.477 2.19623 5.58467 0
M  V30 2191 H 208.547 2.43744 4.19186 0
M  V30 2192 N 209.89 -1.43072 0.660911 0
M  V30 2193 C 211.115 -2.06584 0.183805 0
M  V30 2194 C 211.54 -1.49257 -1.14472 0
M  V30 2195 O 210.898 -0.605528 -1.70889 0
M  V30 2196 C 210.946 -3.60418 0.114434 0
M  V30 2197 O 210.05 -4.01981 -0.921137 0
M  V30 2198 H 209.391 -0.656669 0.0983994 0
M  V30 2199 H 211.921 -1.83447 0.906006 0
M  V30 2200 H 211.931 -4.07946 -0.0663394 0
M  V30 2201 H 210.606 -4.01519 1.08422 0
M  V30 2202 H 209.183 -3.66029 -0.71253 0
M  V30 2203 N 211.368 -0.403325 -1.52352 0
M  V30 2204 C 212.298 0.416205 -2.29761 0
M  V30 2205 C 213.279 1.05123 -1.33728 0
M  V30 2206 O 214.464 1.06134 -1.62632 0
M  V30 2207 C 211.594 1.53624 -3.11475 0
M  V30 2208 C 210.548 1.02653 -4.15507 0
M  V30 2209 C 209.874 2.23971 -4.85532 0
M  V30 2210 C 211.174 0.08463 -5.22231 0
M  V30 2211 H 212.868 -0.229701 -2.98518 0
M  V30 2212 H 210.414 -0.111913 -1.43564 0
M  V30 2213 H 212.367 2.1165 -3.64393 0
M  V30 2214 H 211.091 2.20994 -2.40477 0
M  V30 2215 H 209.75 0.46871 -3.63591 0
M  V30 2216 H 209.398 2.89883 -4.11068 0
M  V30 2217 H 209.098 1.90521 -5.55856 0
M  V30 2218 H 210.622 2.82614 -5.41259 0
M  V30 2219 H 212.036 0.573509 -5.70424 0
M  V30 2220 H 210.433 -0.160783 -5.99885 0
M  V30 2221 H 211.503 -0.86237 -4.7717 0
M  V30 2222 N 212.846 1.57033 -0.133567 0
M  V30 2223 C 214.076 1.99754 0.527429 0
M  V30 2224 C 214.484 1.01245 1.59832 0
M  V30 2225 O 213.827 -0.000645496 1.837 0
M  V30 2226 C 213.889 3.38903 1.19939 0
M  V30 2227 C 213.553 4.56174 0.274709 0
M  V30 2228 C 214.55 5.17563 -0.492398 0
M  V30 2229 C 212.235 5.01972 0.18153 0
M  V30 2230 C 214.229 6.2315 -1.34027 0
M  V30 2231 C 211.916 6.07416 -0.669958 0
M  V30 2232 C 212.914 6.67874 -1.42947 0
M  V30 2233 O 212.602 7.71279 -2.2668 0
M  V30 2234 H 212.334 0.660702 0.142999 0
M  V30 2235 H 214.888 2.04207 -0.221099 0
M  V30 2236 H 213.118 3.31248 1.99528 0
M  V30 2237 H 214.807 3.65818 1.75875 0
M  V30 2238 H 215.573 4.83087 -0.430367 0
M  V30 2239 H 211.452 4.54652 0.762422 0
M  V30 2240 H 214.996 6.70268 -1.93357 0
M  V30 2241 H 210.893 6.41321 -0.73333 0
M  V30 2242 H 211.661 7.88441 -2.1978 0
M  V30 2243 N 214.325 -0.140222 1.56975 0
M  V30 2244 C 215.288 -1.15689 1.97861 0
M  V30 2245 C 216.288 -1.3549 0.865974 0
M  V30 2246 O 217.478 -1.32367 1.13246 0
M  V30 2247 C 214.61 -2.51582 2.30042 0
M  V30 2248 H 215.803 -0.805971 2.88867 0
M  V30 2249 H 213.356 -0.383801 1.51515 0
M  V30 2250 H 214.091 -2.91632 1.41849 0
M  V30 2251 H 213.876 -2.38569 3.11171 0
M  V30 2252 H 215.366 -3.24792 2.62488 0
M  V30 2253 N 215.803 -1.52179 -0.40978 0
M  V30 2254 C 217.028 -1.70347 -1.18308 0
M  V30 2255 C 217.453 -0.411887 -1.83535 0
M  V30 2256 O 216.811 0.630587 -1.6998 0
M  V30 2257 C 216.859 -2.83977 -2.22238 0
M  V30 2258 O 215.963 -2.495 -3.28365 0
M  V30 2259 H 215.304 -0.567103 -0.345384 0
M  V30 2260 H 217.834 -1.98879 -0.480445 0
M  V30 2261 H 217.844 -3.0887 -2.66577 0
M  V30 2262 H 216.519 -3.77685 -1.74146 0
M  V30 2263 H 215.096 -2.35277 -2.89308 0
M  V30 2264 N 217.281 0.66697 -1.42791 0
M  V30 2265 C 218.529 1.42417 -1.43394 0
M  V30 2266 C 218.85 1.94925 -0.0542373 0
M  V30 2267 O 218.12 1.73564 0.908415 0
M  V30 2268 H 216.7 0.528515 -0.527902 0
M  V30 2269 H 219.362 0.787562 -1.78279 0
M  V30 2270 H 218.458 2.27333 -2.13837 0
M  V30 2271 N 218.759 1.29093 0.90403 0
M  V30 2272 C 220.175 1.07011 1.1841 0
M  V30 2273 C 220.375 -0.181358 2.00682 0
M  V30 2274 O 219.431 -0.880331 2.36657 0
M  V30 2275 C 220.744 2.32311 1.90924 0
M  V30 2276 C 222.292 2.37587 2.03768 0
M  V30 2277 C 222.767 3.62679 2.79693 0
M  V30 2278 N 224.258 3.63376 2.87249 0
M  V30 2279 C 224.993 4.56848 3.46522 0
M  V30 2280 N 224.489 5.60648 4.06996 0
M  V30 2281 N 226.282 4.44426 3.44154 0
M  V30 2282 H 218.433 2.09412 0.354993 0
M  V30 2283 H 220.696 0.922181 0.219742 0
M  V30 2284 H 220.402 3.23536 1.37905 0
M  V30 2285 H 220.276 2.39483 2.91424 0
M  V30 2286 H 222.663 1.46853 2.55965 0
M  V30 2287 H 222.744 2.34403 1.02415 0
M  V30 2288 H 222.388 4.53762 2.28173 0
M  V30 2289 H 222.318 3.63119 3.81381 0
M  V30 2290 H 224.809 2.88321 2.44293 0
M  V30 2291 H 225.122 6.28101 4.50232 0
M  V30 2292 H 223.467 5.64463 4.05471 0
M  V30 2293 H 226.658 3.62529 2.96126 0
M  V30 2294 H 226.831 5.17457 3.90054 0
M  V30 2295 N 220.237 -1.11381 1.11499 0
M  V30 2296 C 221.465 -1.86934 0.88675 0
M  V30 2297 C 221.88 -1.80195 -0.563476 0
M  V30 2298 O 221.237 -1.18367 -1.38908 0
M  V30 2299 C 221.288 -3.35722 1.34064 0
M  V30 2300 O 221.009 -3.4232 2.73401 0
M  V30 2301 C 222.51 -4.2818 1.14791 0
M  V30 2302 H 219.73 -0.591117 0.317523 0
M  V30 2303 H 222.274 -1.40865 1.48248 0
M  V30 2304 H 220.429 -3.79294 0.788355 0
M  V30 2305 H 220.843 -4.34971 2.93087 0
M  V30 2306 H 222.317 -5.30817 1.5145 0
M  V30 2307 H 222.794 -4.39113 0.0875279 0
M  V30 2308 H 223.4 -3.90402 1.68721 0
M  V30 2309 N 221.715 -0.905404 -1.28997 0
M  V30 2310 C 222.943 -0.549846 -1.9946 0
M  V30 2311 C 223.358 0.866834 -1.67724 0
M  V30 2312 O 222.715 1.57298 -0.925404 0
M  V30 2313 C 222.766 -0.739387 -3.53858 0
M  V30 2314 O 222.487 -2.10031 -3.84472 0
M  V30 2315 C 223.988 -0.389541 -4.41585 0
M  V30 2316 H 221.208 -0.210429 -0.637151 0
M  V30 2317 H 223.752 -1.21632 -1.64396 0
M  V30 2318 H 221.907 -0.120023 -3.87214 0
M  V30 2319 H 222.321 -2.13385 -4.79132 0
M  V30 2320 H 223.795 -0.572972 -5.49018 0
M  V30 2321 H 224.272 0.673756 -4.34001 0
M  V30 2322 H 224.878 -0.986089 -4.1371 0
M  V30 2323 N 223.193 1.4272 -0.668489 0
M  V30 2324 C 224.441 2.01226 -0.187769 0
M  V30 2325 C 224.762 1.53092 1.2078 0
M  V30 2326 O 224.032 0.74993 1.80977 0
M  V30 2327 H 222.612 0.744041 -0.0664272 0
M  V30 2328 H 225.274 1.74723 -0.863583 0
M  V30 2329 H 224.37 3.11556 -0.184166 0
M  V30 2330 N 224.671 0.411399 1.52136 0
M  V30 2331 C 225.92 -0.165009 2.01024 0
M  V30 2332 C 226.233 -1.4603 1.30133 0
M  V30 2333 O 227.439 -2.1181 1.69849 0
M  V30 2334 C 225.895 -0.344618 3.58246 0
M  V30 2335 C 225.503 0.938716 4.38055 0
M  V30 2336 C 227.247 -0.876195 4.15359 0
M  V30 2337 C 225.154 0.726172 5.86925 0
M  V30 2338 H 224.084 -0.0654407 0.751155 0
M  V30 2339 H 226.735 0.537192 1.75461 0
M  V30 2340 H 225.117 -1.10921 3.80148 0
M  V30 2341 H 226.291 1.70963 4.27912 0
M  V30 2342 H 224.606 1.39688 3.92271 0
M  V30 2343 H 227.203 -1.05128 5.24263 0
M  V30 2344 H 227.546 -1.85152 3.7286 0
M  V30 2345 H 228.079 -0.170607 3.97434 0
M  V30 2346 H 224.818 1.67312 6.33788 0
M  V30 2347 H 224.338 -0.00540283 5.998 0
M  V30 2348 H 226.017 0.369231 6.45946 0
M  V30 2349 N 226.149 -1.5696 0.141893 0
M  V30 2350 C 227.395 -1.9625 -0.511248 0
M  V30 2351 C 227.728 -1.02654 -1.64851 0
M  V30 2352 O 227.003 -0.0679676 -1.94381 0
M  V30 2353 C 227.286 -3.45285 -1.02227 0
M  V30 2354 C 227.139 -4.49658 0.113138 0
M  V30 2355 C 228.458 -3.96698 -1.90574 0
M  V30 2356 H 225.577 -0.713567 -0.184367 0
M  V30 2357 H 228.219 -1.88698 0.222087 0
M  V30 2358 H 226.369 -3.51852 -1.64719 0
M  V30 2359 H 228.041 -4.55174 0.749302 0
M  V30 2360 H 226.284 -4.26857 0.773026 0
M  V30 2361 H 226.955 -5.51258 -0.286053 0
M  V30 2362 H 229.431 -3.92578 -1.37918 0
M  V30 2363 H 228.307 -5.01453 -2.2324 0
M  V30 2364 H 228.568 -3.3875 -2.84079 0
M  V30 2365 N 227.627 0.131896 -1.57047 0
M  V30 2366 C 228.557 1.16384 -2.02428 0
M  V30 2367 C 229.538 1.43936 -0.90644 0
M  V30 2368 O 230.723 1.54599 -1.17528 0
M  V30 2369 C 227.853 2.49328 -2.4177 0
M  V30 2370 C 226.807 2.36266 -3.56879 0
M  V30 2371 C 226.133 3.74057 -3.8208 0
M  V30 2372 C 227.433 1.834 -4.89042 0
M  V30 2373 H 229.127 0.786433 -2.88887 0
M  V30 2374 H 226.673 0.376855 -1.38981 0
M  V30 2375 H 228.626 3.21759 -2.7212 0
M  V30 2376 H 227.35 2.88934 -1.52266 0
M  V30 2377 H 226.009 1.66286 -3.26718 0
M  V30 2378 H 225.657 4.11125 -2.89803 0
M  V30 2379 H 225.357 3.66174 -4.59554 0
M  V30 2380 H 226.881 4.48012 -4.1487 0
M  V30 2381 H 228.295 2.45636 -5.18011 0
M  V30 2382 H 226.692 1.8637 -5.70426 0
M  V30 2383 H 227.762 0.790662 -4.7841 0
M  V30 2384 N 229.106 1.52395 0.401703 0
M  V30 2385 C 230.383 1.57387 1.16141 0
M  V30 2386 C 230.763 0.359359 2.08019 0
M  V30 2387 O 230.111 -0.65326 2.18963 0
M  V30 2388 C 230.321 2.90631 1.93221 0
M  V30 2389 C 231.669 3.43904 2.49028 0
M  V30 2390 O 232.693 2.92421 2.03393 0
M  V30 2391 O 231.552 4.33823 3.32356 0
M  V30 2392 H 228.646 0.634262 0.530698 0
M  V30 2393 H 231.192 1.64725 0.407883 0
M  V30 2394 H 229.964 3.70473 1.25958 0
M  V30 2395 H 229.587 2.8662 2.75563 0
M  V30 2396 N 230.584 -0.659388 1.43143 0
M  V30 2397 C 231.809 -1.45221 1.48073 0
M  V30 2398 C 232.234 -1.87845 0.097995 0
M  V30 2399 O 231.592 -1.56985 -0.90694 0
M  V30 2400 C 231.64 -2.66748 2.42647 0
M  V30 2401 O 230.744 -3.65583 1.90848 0
M  V30 2402 H 230.085 -0.435669 0.501088 0
M  V30 2403 H 232.615 -0.807432 1.87994 0
M  V30 2404 H 232.625 -3.14637 2.59745 0
M  V30 2405 H 231.3 -2.35067 3.43098 0
M  V30 2406 H 229.877 -3.24693 1.83381 0
M  V30 2407 N 232.062 -1.29571 -0.897171 0
M  V30 2408 C 233.31 -1.17456 -1.64464 0
M  V30 2409 C 233.631 0.273698 -1.9307 0
M  V30 2410 O 232.901 1.18684 -1.55855 0
M  V30 2411 H 231.481 -0.431706 -0.609622 0
M  V30 2412 H 234.143 -1.62531 -1.07562 0
M  V30 2413 H 233.239 -1.72648 -2.59998 0
M  V30 2414 N 233.54 1.10788 -1.12088 0
M  V30 2415 C 234.817 1.79136 -0.785476 0
M  V30 2416 C 235.197 1.98246 0.725377 0
M  V30 2417 O 234.545 1.57258 1.65778 0
M  V30 2418 C 234.755 3.12375 -1.55636 0
M  V30 2419 C 236.103 3.8731 -1.74001 0
M  V30 2420 O 237.127 3.22085 -1.52117 0
M  V30 2421 O 235.986 5.04369 -2.10415 0
M  V30 2422 H 233.08 0.776226 -0.285311 0
M  V30 2423 H 235.626 1.1747 -1.2247 0
M  V30 2424 H 234.398 2.93863 -2.5838 0
M  V30 2425 H 234.021 3.81758 -1.11114 0
M  V30 2426 N 235.018 0.912232 1.28515 0
M  V30 2427 C 236.266 0.543523 1.94654 0
M  V30 2428 C 236.587 -0.9155 1.72173 0
M  V30 2429 O 235.857 -1.64708 1.06058 0
M  V30 2430 H 234.437 0.198017 0.720277 0
M  V30 2431 H 237.099 1.16126 1.56527 0
M  V30 2432 H 236.195 0.736684 3.03281 0
M  V30 2433 N 236.496 -1.42363 0.676048 0
M  V30 2434 C 237.742 -2.0182 0.199125 0
M  V30 2435 C 238.075 -1.53339 -1.19168 0
M  V30 2436 O 237.35 -0.736124 -1.80032 0
M  V30 2437 C 237.633 -3.59331 0.235144 0
M  V30 2438 C 237.486 -4.17989 1.66149 0
M  V30 2439 C 238.805 -4.3813 -0.41595 0
M  V30 2440 H 235.924 -0.733293 0.0738311 0
M  V30 2441 H 238.566 -1.69368 0.86107 0
M  V30 2442 H 236.716 -3.87109 -0.328487 0
M  V30 2443 H 238.388 -4.0116 2.27747 0
M  V30 2444 H 236.631 -3.7377 2.20178 0
M  V30 2445 H 237.302 -5.27126 1.63837 0
M  V30 2446 H 239.778 -4.16051 0.0638529 0
M  V30 2447 H 238.654 -5.47717 -0.360115 0
M  V30 2448 H 238.915 -4.16101 -1.49373 0
M  V30 2449 N 237.974 -0.419461 -1.51915 0
M  V30 2450 C 239.202 0.152136 -2.0634 0
M  V30 2451 C 239.617 1.37988 -1.28859 0
M  V30 2452 O 238.974 1.79243 -0.343232 0
M  V30 2453 C 239.025 0.492266 -3.58133 0
M  V30 2454 O 238.746 -0.686736 -4.32684 0
M  V30 2455 C 240.247 1.11648 -4.2901 0
M  V30 2456 H 237.467 0.0158325 -0.670813 0
M  V30 2457 H 240.011 -0.593394 -1.95702 0
M  V30 2458 H 238.166 1.18769 -3.68745 0
M  V30 2459 H 238.58 -0.400341 -5.2297 0
M  V30 2460 H 240.054 1.3046 -5.36362 0
M  V30 2461 H 240.531 2.09251 -3.86148 0
M  V30 2462 H 241.137 0.460958 -4.22795 0
M  V30 2463 N 239.452 1.56882 -0.150215 0
M  V30 2464 C 240.402 2.13501 0.800071 0
M  V30 2465 C 241.386 1.06368 1.20726 0
M  V30 2466 O 242.578 1.32538 1.17314 0
M  V30 2467 C 239.707 2.76271 2.03787 0
M  V30 2468 C 238.793 3.90533 1.65364 0
M  V30 2469 N 239.184 4.96259 0.977794 0
M  V30 2470 C 237.482 4.013 1.94613 0
M  V30 2471 C 238.183 5.76286 0.791794 0
M  V30 2472 N 237.159 5.27163 1.32666 0
M  V30 2473 H 240.961 2.92615 0.274517 0
M  V30 2474 H 238.475 1.62319 0.0512144 0
M  V30 2475 H 240.472 3.15197 2.72867 0
M  V30 2476 H 239.132 1.98631 2.56857 0
M  V30 2477 H 240.143 5.13953 0.638193 0
M  V30 2478 H 236.82 3.3474 2.4951 0
M  V30 2479 H 238.21 6.71401 0.258894 0
M  V30 2480 N 240.93 -0.123565 1.57115 0
M  V30 2481 C 241.878 -1.17082 2.00984 0
M  V30 2482 C 242.872 -1.43136 0.906009 0
M  V30 2483 O 244.078 -1.43152 1.09121 0
M  V30 2484 H 240.453 -0.394653 0.64012 0
M  V30 2485 H 242.424 -0.774292 2.88179 0
M  V30 2486 C 241.173 -2.49057 2.42623 0
M  V30 2487 H 240.496 -2.29846 3.27125 0
M  V30 2488 H 241.936 -3.20906 2.7712 0
M  V30 2489 C 240.395 -3.11305 1.28805 0
M  V30 2490 O 240.925 -3.97171 0.60153 0
M  V30 2491 N 239.131 -2.71111 1.04628 0
M  V30 2492 H 238.678 -2.01382 1.60634 0
M  V30 2493 H 238.636 -3.1309 0.286685 0
M  V30 2494 N 242.408 -1.52605 -0.393616 0
M  V30 2495 C 243.654 -1.67672 -1.14079 0
M  V30 2496 C 243.987 -0.413121 -1.89755 0
M  V30 2497 O 243.262 0.588952 -1.85369 0
M  V30 2498 C 243.545 -2.9088 -2.12276 0
M  V30 2499 C 243.398 -4.27329 -1.40394 0
M  V30 2500 C 244.717 -3.09628 -3.12759 0
M  V30 2501 H 241.836 -0.610168 -0.413356 0
M  V30 2502 H 244.478 -1.85193 -0.424696 0
M  V30 2503 H 242.628 -2.76073 -2.73342 0
M  V30 2504 H 244.3 -4.53894 -0.82327 0
M  V30 2505 H 242.543 -4.2802 -0.705801 0
M  V30 2506 H 243.214 -5.09615 -2.12123 0
M  V30 2507 H 245.69 -3.23436 -2.61779 0
M  V30 2508 H 244.566 -3.97322 -3.78717 0
M  V30 2509 H 244.827 -2.23637 -3.81365 0
M  V30 2510 N 243.887 0.651787 -1.4349 0
M  V30 2511 C 245.298 1.233 -1.40193 0
M  V30 2512 C 245.649 1.9591 -0.106727 0
M  V30 2513 O 244.774 2.01316 0.793773 0
M  V30 2514 C 245.369 2.24257 -2.53957 0
M  V30 2515 C 243.928 2.77852 -2.5392 0
M  V30 2516 C 243.075 1.52517 -2.3159 0
M  V30 2517 H 246.026 0.443717 -1.52371 0
M  V30 2518 H 246.047 3.0646 -2.25528 0
M  V30 2519 H 245.559 1.71382 -3.4821 0
M  V30 2520 H 243.66 3.34786 -1.63551 0
M  V30 2521 H 243.773 3.25299 -3.51735 0
M  V30 2522 H 242.137 1.79915 -1.80285 0
M  V30 2523 H 242.92 1.01574 -3.27929 0
M  V30 2524 N 245.365 1.30045 0.890287 0
M  V30 2525 C 246.614 1.17929 1.63633 0
M  V30 2526 C 246.927 -0.266204 1.9378 0
M  V30 2527 O 248.133 -0.508804 2.6669 0
M  V30 2528 C 246.589 2.06317 2.94892 0
M  V30 2529 C 246.197 3.55745 2.72305 0
M  V30 2530 C 247.941 2.0295 3.72843 0
M  V30 2531 C 245.848 4.36205 3.99348 0
M  V30 2532 H 244.778 0.437782 0.613892 0
M  V30 2533 H 247.429 1.54754 0.986075 0
M  V30 2534 H 245.811 1.6237 3.61182 0
M  V30 2535 H 246.985 4.07805 2.1455 0
M  V30 2536 H 245.3 3.6088 2.07737 0
M  V30 2537 H 247.897 2.60319 4.67053 0
M  V30 2538 H 248.24 1.0117 4.0382 0
M  V30 2539 H 248.773 2.4499 3.13408 0
M  V30 2540 H 245.512 5.38659 3.73533 0
M  V30 2541 H 245.032 3.8891 4.56628 0
M  V30 2542 H 246.711 4.47362 4.67415 0
M  V30 2543 N 246.843 -1.10192 1.12674 0
M  V30 2544 C 248.073 -1.85713 0.905213 0
M  V30 2545 C 248.481 -1.81056 -0.549108 0
M  V30 2546 O 247.824 -1.19927 -1.39151 0
M  V30 2547 C 247.886 -3.34972 1.30516 0
M  V30 2548 C 247.55 -3.63385 2.77129 0
M  V30 2549 C 248.547 -3.59772 3.75313 0
M  V30 2550 C 246.232 -3.91981 3.14096 0
M  V30 2551 C 248.226 -3.84354 5.08479 0
M  V30 2552 C 245.913 -4.16218 4.47443 0
M  V30 2553 C 246.911 -4.12395 5.44444 0
M  V30 2554 O 246.599 -4.36014 6.75387 0
M  V30 2555 H 246.331 -0.593719 0.323223 0
M  V30 2556 H 248.885 -1.40198 1.50112 0
M  V30 2557 H 247.115 -3.81156 0.652463 0
M  V30 2558 H 248.804 -3.91886 1.05736 0
M  V30 2559 H 249.57 -3.37716 3.48099 0
M  V30 2560 H 245.449 -3.94085 2.39202 0
M  V30 2561 H 248.993 -3.81285 5.84181 0
M  V30 2562 H 244.89 -4.37754 4.74386 0
M  V30 2563 H 245.658 -4.53516 6.8137 0
M  V30 2564 N 248.321 -0.919034 -1.28029 0
M  V30 2565 C 249.231 -0.416756 -2.30869 0
M  V30 2566 C 250.247 0.498235 -1.66714 0
M  V30 2567 O 251.423 0.383144 -1.97722 0
M  V30 2568 C 248.488 0.330274 -3.45123 0
M  V30 2569 C 247.549 -0.618578 -4.2482 0
M  V30 2570 C 246.782 0.0928959 -5.33619 0
M  V30 2571 O 247.005 1.31375 -5.55065 0
M  V30 2572 O 245.939 -0.574499 -5.99152 0
M  V30 2573 H 249.765 -1.27043 -2.75851 0
M  V30 2574 H 247.35 -0.684052 -1.3282 0
M  V30 2575 H 249.232 0.751972 -4.14636 0
M  V30 2576 H 247.907 1.1597 -3.02213 0
M  V30 2577 H 246.814 -1.08978 -3.57875 0
M  V30 2578 H 248.147 -1.41497 -4.71423 0
M  V30 2579 N 249.799 1.42003 -0.683588 0
M  V30 2580 C 251.047 2.01015 -0.209101 0
M  V30 2581 C 251.368 1.54365 1.19149 0
M  V30 2582 O 250.638 0.769083 1.80172 0
M  V30 2583 H 249.218 0.743294 -0.074315 0
M  V30 2584 H 251.88 1.73798 -0.882066 0
M  V30 2585 H 250.976 3.11343 -0.2172 0
M  V30 2586 N 251.277 0.427512 1.51691 0
M  V30 2587 C 252.507 -0.140986 2.06118 0
M  V30 2588 C 252.915 -1.37854 1.29588 0
M  V30 2589 O 252.258 -1.80411 0.346036 0
M  V30 2590 C 252.32 -0.538276 3.55447 0
M  V30 2591 C 251.984 0.591095 4.53161 0
M  V30 2592 C 252.981 1.46027 4.98971 0
M  V30 2593 C 250.666 0.769028 4.96378 0
M  V30 2594 C 252.66 2.49216 5.8666 0
M  V30 2595 C 250.347 1.80421 5.83859 0
M  V30 2596 C 251.345 2.66417 6.28897 0
M  V30 2597 O 251.033 3.68159 7.14643 0
M  V30 2598 H 250.765 -0.0157455 0.675817 0
M  V30 2599 H 253.319 0.602495 1.96365 0
M  V30 2600 H 251.549 -1.33432 3.6295 0
M  V30 2601 H 253.238 -1.0368 3.92435 0
M  V30 2602 H 254.004 1.33429 4.66285 0
M  V30 2603 H 249.883 0.109273 4.6087 0
M  V30 2604 H 253.427 3.16372 6.21735 0
M  V30 2605 H 249.324 1.93042 6.15959 0
M  V30 2606 H 250.092 3.64622 7.32798 0
M  V30 2607 N 252.755 -1.56801 0.158532 0
M  V30 2608 C 253.718 -2.16138 -0.762705 0
M  V30 2609 C 254.718 -1.1061 -1.16713 0
M  V30 2610 O 255.908 -1.36191 -1.08617 0
M  V30 2611 C 253.04 -2.73386 -2.03649 0
M  V30 2612 H 254.233 -2.98886 -0.246354 0
M  V30 2613 H 251.786 -1.56035 -0.0909744 0
M  V30 2614 H 252.521 -1.94335 -2.59623 0
M  V30 2615 H 252.306 -3.50601 -1.75559 0
M  V30 2616 H 253.796 -3.19065 -2.6942 0
M  V30 2617 N 254.233 0.115231 -1.57178 0
M  V30 2618 C 255.163 1.1423 -2.03651 0
M  V30 2619 C 256.144 1.42967 -0.921655 0
M  V30 2620 O 257.329 1.53343 -1.19162 0
M  V30 2621 C 254.459 2.4675 -2.44401 0
M  V30 2622 C 253.413 2.32467 -3.59365 0
M  V30 2623 C 252.739 3.69984 -3.86026 0
M  V30 2624 C 254.039 1.78203 -4.90959 0
M  V30 2625 H 255.733 0.755749 -2.89705 0
M  V30 2626 H 253.279 0.362093 -1.39373 0
M  V30 2627 H 255.232 3.18854 -2.75517 0
M  V30 2628 H 253.956 2.87302 -1.55322 0
M  V30 2629 H 252.615 1.62811 -3.28463 0
M  V30 2630 H 252.263 4.08028 -2.94147 0
M  V30 2631 H 251.963 3.61279 -4.63412 0
M  V30 2632 H 253.487 4.43587 -4.19599 0
M  V30 2633 H 254.901 2.40128 -5.20587 0
M  V30 2634 H 253.298 1.8031 -5.72371 0
M  V30 2635 H 254.368 0.739876 -4.79222 0
M  V30 2636 N 255.711 1.52812 0.385517 0
M  V30 2637 C 257.122 1.5993 0.963293 0
M  V30 2638 C 257.473 0.454302 1.90868 0
M  V30 2639 O 256.598 -0.422132 2.12243 0
M  V30 2640 C 257.193 2.89871 1.75387 0
M  V30 2641 C 255.752 2.99389 2.28129 0
M  V30 2642 C 254.899 2.55071 1.08783 0
M  V30 2643 H 257.85 1.5784 0.164948 0
M  V30 2644 H 257.871 2.76553 2.61341 0
M  V30 2645 H 257.383 3.73186 1.06554 0
M  V30 2646 H 255.484 2.20619 3.00263 0
M  V30 2647 H 255.597 4.04096 2.57377 0
M  V30 2648 H 253.961 2.09473 1.4489 0
M  V30 2649 H 254.744 3.40785 0.414807 0
M  V30 2650 N 257.189 -0.644168 1.43834 0
M  V30 2651 C 258.139 -1.7501 1.46135 0
M  V30 2652 C 259.123 -1.57507 0.328685 0
M  V30 2653 O 260.315 -1.67465 0.5731 0
M  V30 2654 C 257.444 -3.13641 1.39585 0
M  V30 2655 C 256.53 -3.3666 2.57916 0
M  V30 2656 N 256.921 -3.30107 3.83227 0
M  V30 2657 C 255.219 -3.67411 2.52834 0
M  V30 2658 C 255.92 -3.53456 4.61999 0
M  V30 2659 N 254.896 -3.75705 3.9287 0
M  V30 2660 H 258.698 -1.68382 2.40883 0
M  V30 2661 H 256.212 -0.846169 1.38614 0
M  V30 2662 H 258.209 -3.92933 1.39317 0
M  V30 2663 H 256.869 -3.21444 0.45865 0
M  V30 2664 H 257.88 -3.09316 4.15384 0
M  V30 2665 H 254.557 -3.82275 1.67845 0
M  V30 2666 H 255.947 -3.54093 5.71024 0
M  V30 2667 N 258.668 -1.30515 -0.883378 0
M  V30 2668 C 259.631 -1.1701 -1.97082 0
M  V30 2669 C 260.631 -0.10089 -1.60483 0
M  V30 2670 O 261.821 -0.349127 -1.70666 0
M  V30 2671 C 258.953 -0.793045 -3.31547 0
M  V30 2672 H 260.146 -2.13622 -2.10489 0
M  V30 2673 H 257.699 -1.13935 -1.06998 0
M  V30 2674 H 258.434 0.172499 -3.23841 0
M  V30 2675 H 258.219 -1.56576 -3.5948 0
M  V30 2676 H 259.709 -0.722073 -4.1131 0
M  V30 2677 N 260.146 1.09593 -1.13257 0
M  V30 2678 C 261.395 1.81105 -0.887917 0
M  V30 2679 C 261.708 1.86563 0.587672 0
M  V30 2680 O 262.914 2.54367 0.949204 0
M  V30 2681 C 261.37 3.25338 -1.53895 0
M  V30 2682 C 260.978 3.28151 -3.04994 0
M  V30 2683 C 262.722 4.01617 -1.37492 0
M  V30 2684 C 260.629 4.66897 -3.6299 0
M  V30 2685 H 259.559 0.678661 -0.328534 0
M  V30 2686 H 262.21 1.23183 -1.36008 0
M  V30 2687 H 260.592 3.8331 -0.994446 0
M  V30 2688 H 261.766 2.79953 -3.66009 0
M  V30 2689 H 260.081 2.65361 -3.20893 0
M  V30 2690 H 262.678 5.04119 -1.78235 0
M  V30 2691 H 263.021 4.15072 -0.31957 0
M  V30 2692 H 263.554 3.50082 -1.88912 0
M  V30 2693 H 260.293 4.58643 -4.68323 0
M  V30 2694 H 259.813 5.15426 -3.06752 0
M  V30 2695 H 261.492 5.3587 -3.62563 0
M  V30 2696 N 261.624 0.925811 1.2754 0
M  V30 2697 C 262.557 0.367836 2.25216 0
M  V30 2698 C 263.535 -0.534738 1.53556 0
M  V30 2699 O 264.719 -0.475672 1.824 0
M  V30 2700 C 261.846 -0.47298 3.35381 0
M  V30 2701 C 260.892 0.365898 4.24928 0
M  V30 2702 S 261.725 1.78025 5.05042 0
M  V30 2703 C 262.881 0.947068 6.18693 0
M  V30 2704 H 263.114 1.19568 2.72196 0
M  V30 2705 H 260.647 0.727867 1.36167 0
M  V30 2706 H 262.605 -0.952242 3.99303 0
M  V30 2707 H 261.266 -1.27533 2.87044 0
M  V30 2708 H 260.459 -0.277582 5.03235 0
M  V30 2709 H 260.061 0.779261 3.65792 0
M  V30 2710 H 262.353 0.182201 6.77255 0
M  V30 2711 H 263.296 1.70309 6.87314 0
M  V30 2712 H 263.704 0.489913 5.6237 0
M  V30 2713 N 263.102 -1.41638 0.69111 0
M  V30 2714 C 264.518 -1.55435 0.362224 0
M  V30 2715 C 264.718 -1.66754 -1.13117 0
M  V30 2716 O 263.774 -1.64348 -1.91692 0
M  V30 2717 C 265.087 -2.79588 1.10684 0
M  V30 2718 C 266.635 -2.9338 1.09075 0
M  V30 2719 C 267.11 -4.20414 1.81703 0
M  V30 2720 N 268.601 -4.27362 1.7865 0
M  V30 2721 C 269.336 -5.24507 2.31689 0
M  V30 2722 N 268.832 -6.27708 2.93179 0
M  V30 2723 N 270.625 -5.16416 2.2197 0
M  V30 2724 H 262.776 -1.32536 1.65976 0
M  V30 2725 H 265.039 -0.639115 0.700168 0
M  V30 2726 H 264.745 -2.77419 2.16175 0
M  V30 2727 H 264.619 -3.70973 0.682545 0
M  V30 2728 H 267.006 -2.95067 0.0441238 0
M  V30 2729 H 267.087 -2.0318 1.55407 0
M  V30 2730 H 266.731 -4.19488 2.86343 0
M  V30 2731 H 266.661 -5.09578 1.32808 0
M  V30 2732 H 269.152 -3.53415 1.33815 0
M  V30 2733 H 269.465 -6.98217 3.31229 0
M  V30 2734 H 267.81 -6.28223 2.97255 0
M  V30 2735 H 271.001 -4.34716 1.73607 0
M  V30 2736 H 271.174 -5.91958 2.63609 0
M  V30 2737 N 264.58 -0.43555 -1.51462 0
M  V30 2738 C 265.51 0.367376 -2.30592 0
M  V30 2739 C 266.491 1.02263 -1.35928 0
M  V30 2740 O 267.676 1.02661 -1.64847 0
M  V30 2741 C 264.806 1.46983 -3.14664 0
M  V30 2742 C 263.76 0.938161 -4.17591 0
M  V30 2743 C 263.086 2.13622 -4.90173 0
M  V30 2744 C 264.386 -0.0261621 -5.22293 0
M  V30 2745 H 266.08 -0.292969 -2.97963 0
M  V30 2746 H 263.626 -0.14234 -1.43295 0
M  V30 2747 H 265.579 2.03873 -3.688 0
M  V30 2748 H 264.303 2.15843 -2.4511 0
M  V30 2749 H 262.962 0.391481 -3.64504 0
M  V30 2750 H 262.61 2.81098 -4.17124 0
M  V30 2751 H 262.31 1.78688 -5.59772 0
M  V30 2752 H 263.834 2.7107 -5.47132 0
M  V30 2753 H 265.248 0.452384 -5.71512 0
M  V30 2754 H 263.645 -0.287992 -5.99409 0
M  V30 2755 H 264.715 -0.963391 -4.75233 0
M  V30 2756 N 266.058 1.56714 -0.166846 0
M  V30 2757 C 267.335 1.88412 0.525373 0
M  V30 2758 C 267.715 1.07602 1.81618 0
M  V30 2759 O 267.063 0.168621 2.27877 0
M  V30 2760 C 267.273 3.40363 0.771613 0
M  V30 2761 C 268.621 4.10007 1.1036 0
M  V30 2762 O 269.645 3.45655 0.860304 0
M  V30 2763 O 268.504 5.2369 1.56239 0
M  V30 2764 H 265.598 0.781587 0.270278 0
M  V30 2765 H 268.144 1.68458 -0.204946 0
M  V30 2766 H 266.916 3.91046 -0.141093 0
M  V30 2767 H 266.539 3.65914 1.55541 0
M  V30 2768 N 267.536 -0.106894 1.57237 0
M  V30 2769 C 268.466 -1.13148 2.04254 0
M  V30 2770 C 269.447 -1.42476 0.929224 0
M  V30 2771 O 270.632 -1.52709 1.19973 0
M  V30 2772 C 267.762 -2.4545 2.45706 0
M  V30 2773 C 266.716 -2.30558 3.60592 0
M  V30 2774 C 266.042 -3.67931 3.87983 0
M  V30 2775 C 267.342 -1.75597 4.91897 0
M  V30 2776 H 269.036 -0.740374 2.90101 0
M  V30 2777 H 266.582 -0.354696 1.39563 0
M  V30 2778 H 268.535 -3.17389 2.77205 0
M  V30 2779 H 267.259 -2.86475 1.56843 0
M  V30 2780 H 265.918 -1.61067 3.29322 0
M  V30 2781 H 265.566 -4.06462 2.96306 0
M  V30 2782 H 265.266 -3.58817 4.65322 0
M  V30 2783 H 266.79 -4.41356 4.21945 0
M  V30 2784 H 268.204 -2.37364 5.21854 0
M  V30 2785 H 266.601 -1.77272 5.73319 0
M  V30 2786 H 267.671 -0.714451 4.79608 0
M  V30 2787 N 269.014 -1.53014 -0.377408 0
M  V30 2788 C 269.977 -1.77957 -1.44444 0
M  V30 2789 C 270.977 -0.649763 -1.47087 0
M  V30 2790 O 272.167 -0.917897 -1.48055 0
M  V30 2791 C 269.299 -1.89089 -2.83651 0
M  V30 2792 H 270.492 -2.73243 -1.23606 0
M  V30 2793 H 268.045 -1.43912 -0.609844 0
M  V30 2794 H 268.78 -0.958293 -3.09818 0
M  V30 2795 H 268.565 -2.71254 -2.83132 0
M  V30 2796 H 270.055 -2.1002 -3.60945 0
M  V30 2797 N 270.492 0.636531 -1.44174 0
M  V30 2798 C 271.74 1.39343 -1.46383 0
M  V30 2799 C 272.061 1.94766 -0.0955715 0
M  V30 2800 O 271.331 1.75452 0.871395 0
M  V30 2801 H 269.911 0.517199 -0.538994 0
M  V30 2802 H 272.573 0.74957 -1.7991 0
M  V30 2803 H 271.669 2.22746 -2.18611 0
M  V30 2804 N 271.97 1.30982 0.876444 0
M  V30 2805 C 273.386 1.09498 1.16113 0
M  V30 2806 C 273.586 -0.13875 2.01022 0
M  V30 2807 O 272.642 -0.829935 2.38471 0
M  V30 2808 C 273.955 2.36308 1.85954 0
M  V30 2809 C 275.503 2.41856 1.98683 0
M  V30 2810 C 275.978 3.6853 2.71937 0
M  V30 2811 N 277.469 3.69387 2.79477 0
M  V30 2812 C 278.204 4.64096 3.36753 0
M  V30 2813 N 277.7 5.69155 3.95012 0
M  V30 2814 N 279.493 4.51626 3.3465 0
M  V30 2815 H 271.644 2.10118 0.310494 0
M  V30 2816 H 273.907 0.926634 0.200131 0
M  V30 2817 H 273.613 3.26388 1.31011 0
M  V30 2818 H 273.487 2.4561 2.86278 0
M  V30 2819 H 275.874 1.52249 2.52793 0
M  V30 2820 H 275.955 2.36523 0.9742 0
M  V30 2821 H 275.599 4.58499 2.18496 0
M  V30 2822 H 275.529 3.71127 3.73593 0
M  V30 2823 H 278.02 2.93438 2.38123 0
M  V30 2824 H 278.333 6.3751 4.36808 0
M  V30 2825 H 276.678 5.72937 3.93406 0
M  V30 2826 H 279.869 3.68728 2.8837 0
M  V30 2827 H 280.042 5.25614 3.7899 0
M  V30 2828 N 273.449 -1.08991 1.13837 0
M  V30 2829 C 274.726 -1.77863 0.813876 0
M  V30 2830 C 275.106 -1.99375 -0.693746 0
M  V30 2831 O 274.454 -1.59875 -1.63255 0
M  V30 2832 C 274.664 -3.0986 1.60586 0
M  V30 2833 C 276.012 -3.84493 1.8014 0
M  V30 2834 O 277.036 -3.19624 1.57222 0
M  V30 2835 O 275.895 -5.00957 2.18413 0
M  V30 2836 H 272.989 -0.771589 0.297624 0
M  V30 2837 H 275.535 -1.15507 1.24323 0
M  V30 2838 H 274.307 -2.89715 2.63022 0
M  V30 2839 H 273.93 -3.79942 1.17173 0
M  V30 2840 N 274.927 -0.932562 -1.27047 0
M  V30 2841 C 275.857 -0.452902 -2.29066 0
M  V30 2842 C 276.838 0.489338 -1.62909 0
M  V30 2843 O 278.023 0.393046 -1.90181 0
M  V30 2844 C 275.153 0.290698 -3.46081 0
M  V30 2845 C 274.107 -0.564168 -4.24265 0
M  V30 2846 C 273.433 0.308886 -5.33807 0
M  V30 2847 C 274.733 -1.83112 -4.89149 0
M  V30 2848 H 276.427 -1.30552 -2.69437 0
M  V30 2849 H 273.973 -0.629201 -1.29526 0
M  V30 2850 H 275.926 0.637233 -4.16554 0
M  V30 2851 H 274.65 1.17738 -3.0464 0
M  V30 2852 H 273.309 -0.893477 -3.55545 0
M  V30 2853 H 272.957 1.19467 -4.88607 0
M  V30 2854 H 272.657 -0.259633 -5.87026 0
M  V30 2855 H 274.181 0.650884 -6.07121 0
M  V30 2856 H 275.595 -1.55236 -5.51883 0
M  V30 2857 H 273.992 -2.34353 -5.52448 0
M  V30 2858 H 275.062 -2.54772 -4.12576 0
M  V30 2859 N 276.405 1.4127 -0.698611 0
M  V30 2860 C 277.633 2.05503 -0.239992 0
M  V30 2861 C 278.048 1.52584 1.11191 0
M  V30 2862 O 277.405 0.675323 1.69545 0
M  V30 2863 C 277.456 3.60987 -0.192429 0
M  V30 2864 O 277.177 4.1195 -1.49094 0
M  V30 2865 C 278.678 4.42371 0.28681 0
M  V30 2866 H 275.898 0.661748 -0.111045 0
M  V30 2867 H 278.442 1.80987 -0.95205 0
M  V30 2868 H 276.597 3.84533 0.470472 0
M  V30 2869 H 277.011 5.06018 -1.38007 0
M  V30 2870 H 278.485 5.51344 0.26896 0
M  V30 2871 H 278.962 4.18699 1.32619 0
M  V30 2872 H 279.568 4.23897 -0.345201 0
M  V30 2873 N 277.883 0.443576 1.51229 0
M  V30 2874 C 279.16 -0.181038 1.9476 0
M  V30 2875 C 279.54 -1.59523 1.38259 0
M  V30 2876 O 278.888 -2.2122 0.572198 0
M  V30 2877 C 279.098 -0.152422 3.48667 0
M  V30 2878 C 280.446 -0.354923 4.23114 0
M  V30 2879 O 281.47 -0.230257 3.55455 0
M  V30 2880 O 280.329 -0.603674 5.43156 0
M  V30 2881 H 277.423 -0.1266 0.817252 0
M  V30 2882 H 279.969 0.502004 1.62105 0
M  V30 2883 H 278.741 0.836022 3.82265 0
M  V30 2884 H 278.364 -0.878107 3.87782 0
M  V30 2885 N 279.361 -1.56624 0.175154 0
M  V30 2886 C 280.591 -2.01082 -0.474283 0
M  V30 2887 C 280.999 -1.05447 -1.57091 0
M  V30 2888 O 280.342 -0.0480595 -1.83637 0
M  V30 2889 C 280.404 -3.41963 -1.10911 0
M  V30 2890 C 280.068 -4.56742 -0.153666 0
M  V30 2891 C 281.065 -5.16076 0.629448 0
M  V30 2892 C 278.75 -5.02277 -0.0483776 0
M  V30 2893 C 280.744 -6.19377 1.50501 0
M  V30 2894 C 278.431 -6.05427 0.830768 0
M  V30 2895 C 279.429 -6.63849 1.60605 0
M  V30 2896 O 279.117 -7.64998 2.47049 0
M  V30 2897 H 278.849 -0.664261 -0.125432 0
M  V30 2898 H 281.403 -2.03549 0.275163 0
M  V30 2899 H 279.633 -3.36422 -1.90676 0
M  V30 2900 H 281.322 -3.70352 -1.66114 0
M  V30 2901 H 282.088 -4.81776 0.558297 0
M  V30 2902 H 277.967 -4.56513 -0.641611 0
M  V30 2903 H 281.511 -6.64906 2.1106 0
M  V30 2904 H 277.408 -6.39151 0.903107 0
M  V30 2905 H 278.176 -7.82336 2.40607 0
M  V30 2906 N 280.839 0.0985539 -1.57292 0
M  V30 2907 C 281.769 1.12064 -2.04851 0
M  V30 2908 C 282.75 1.41981 -0.936767 0
M  V30 2909 O 283.935 1.52071 -1.20781 0
M  V30 2910 C 281.065 2.44144 -2.47004 0
M  V30 2911 C 280.019 2.28643 -3.6181 0
M  V30 2912 C 279.345 3.65869 -3.89929 0
M  V30 2913 C 280.645 1.72986 -4.92822 0
M  V30 2914 H 282.339 0.724979 -2.9049 0
M  V30 2915 H 279.885 0.34729 -1.39749 0
M  V30 2916 H 281.838 3.15914 -2.78884 0
M  V30 2917 H 280.562 2.85639 -1.5836 0
M  V30 2918 H 279.221 1.59318 -3.30172 0
M  V30 2919 H 278.869 4.04885 -2.98458 0
M  V30 2920 H 278.569 3.56344 -4.67218 0
M  V30 2921 H 280.093 4.39112 -4.2428 0
M  V30 2922 H 281.507 2.34593 -5.23105 0
M  V30 2923 H 279.904 1.74229 -5.74251 0
M  V30 2924 H 280.974 0.689007 -4.7998 0
M  V30 2925 N 282.317 1.53212 0.369288 0
M  V30 2926 C 283.25 1.74166 1.4745 0
M  V30 2927 C 284.228 0.589923 1.51521 0
M  V30 2928 O 285.412 0.822078 1.69629 0
M  V30 2929 C 282.539 1.81711 2.8583 0
M  V30 2930 C 281.585 3.03649 2.99499 0
M  V30 2931 S 282.418 4.63242 2.6864 0
M  V30 2932 C 283.574 4.7363 4.09177 0
M  V30 2933 H 283.807 2.67636 1.29454 0
M  V30 2934 H 281.34 1.43754 0.563396 0
M  V30 2935 H 283.298 1.86743 3.65564 0
M  V30 2936 H 281.959 0.89299 3.01139 0
M  V30 2937 H 281.152 3.05526 4.00836 0
M  V30 2938 H 280.754 2.9671 2.27683 0
M  V30 2939 H 283.046 4.53456 5.03372 0
M  V30 2940 H 283.989 5.75682 4.12306 0
M  V30 2941 H 284.397 4.02295 3.96004 0
M  V30 2942 N 283.795 -0.628877 1.44509 0
M  V30 2943 C 284.742 -1.74074 1.51549 0
M  V30 2944 C 285.712 -1.62084 0.363021 0
M  V30 2945 O 286.897 -1.81975 0.573567 0
M  V30 2946 C 284.037 -3.12328 1.46784 0
M  V30 2947 C 283.15 -3.35277 2.72422 0
M  V30 2948 C 282.285 -4.63515 2.59475 0
M  V30 2949 C 281.324 -4.7965 3.80266 0
M  V30 2950 N 280.461 -5.99168 3.65981 0
M  V30 2951 H 285.301 -1.67392 2.46544 0
M  V30 2952 H 282.838 -0.816527 1.22357 0
M  V30 2953 H 284.796 -3.92286 1.42012 0
M  V30 2954 H 283.426 -3.18018 0.553544 0
M  V30 2955 H 282.478 -2.49242 2.87372 0
M  V30 2956 H 283.79 -3.43078 3.62076 0
M  V30 2957 H 282.944 -5.51638 2.52548 0
M  V30 2958 H 281.683 -4.58076 1.67384 0
M  V30 2959 H 280.688 -3.89957 3.87574 0
M  V30 2960 H 281.913 -4.86902 4.73395 0
M  V30 2961 H 279.859 -5.94814 2.76644 0
M  V30 2962 H 279.776 -6.08035 4.49254 0
M  V30 2963 H 281.044 -6.89846 3.6295 0
M  V30 2964 N 285.273 -1.31445 -0.869486 0
M  V30 2965 C 286.522 -1.20517 -1.61736 0
M  V30 2966 C 286.835 0.235341 -1.94179 0
M  V30 2967 O 288.041 0.466312 -2.67465 0
M  V30 2968 C 286.497 -2.10982 -2.91573 0
M  V30 2969 C 286.105 -3.60032 -2.66611 0
M  V30 2970 C 287.849 -2.08856 -3.69567 0
M  V30 2971 C 285.756 -4.42503 -3.92358 0
M  V30 2972 H 284.686 -0.447493 -0.606849 0
M  V30 2973 H 287.337 -1.56303 -0.96133 0
M  V30 2974 H 285.719 -1.68095 -3.58553 0
M  V30 2975 H 286.893 -4.11167 -2.08035 0
M  V30 2976 H 285.208 -3.64139 -2.0197 0
M  V30 2977 H 287.805 -2.67716 -4.62852 0
M  V30 2978 H 288.148 -1.07582 -4.02159 0
M  V30 2979 H 288.681 -2.49945 -3.09471 0
M  V30 2980 H 285.42 -5.44533 -3.64916 0
M  V30 2981 H 284.94 -3.96125 -4.50383 0
M  V30 2982 H 286.619 -4.54741 -4.60238 0
M  V30 2983 N 286.751 1.08385 -1.14413 0
M  V30 2984 C 287.681 2.17321 -0.854044 0
M  V30 2985 C 288.662 1.69024 0.191049 0
M  V30 2986 O 289.847 1.94141 0.0476779 0
M  V30 2987 C 286.977 3.45719 -0.330983 0
M  V30 2988 C 285.931 4.07409 -1.31155 0
M  V30 2989 C 285.257 5.30762 -0.64778 0
M  V30 2990 C 286.557 4.48665 -2.67388 0
M  V30 2991 H 288.251 2.41845 -1.76498 0
M  V30 2992 H 285.797 1.16233 -0.850051 0
M  V30 2993 H 287.75 4.21241 -0.115645 0
M  V30 2994 H 286.474 3.2075 0.615381 0
M  V30 2995 H 285.133 3.33919 -1.51306 0
M  V30 2996 H 284.781 5.02078 0.304398 0
M  V30 2997 H 284.481 5.72992 -1.30207 0
M  V30 2998 H 286.005 6.08998 -0.441972 0
M  V30 2999 H 287.419 5.15364 -2.51143 0
M  V30 3000 H 285.816 5.01814 -3.29093 0
M  V30 3001 H 286.886 3.60543 -3.24248 0
M  V30 3002 N 288.23 0.939286 1.26551 0
M  V30 3003 C 289.458 0.602536 1.97932 0
M  V30 3004 C 289.873 -0.82206 1.69964 0
M  V30 3005 O 289.23 -1.54789 0.966784 0
M  V30 3006 C 289.281 0.832946 3.51773 0
M  V30 3007 O 289.002 2.20151 3.78768 0
M  V30 3008 C 290.503 0.506483 4.40397 0
M  V30 3009 H 287.723 0.227248 0.631347 0
M  V30 3010 H 290.267 1.25948 1.61113 0
M  V30 3011 H 288.422 0.222644 3.8676 0
M  V30 3012 H 288.836 2.26013 4.73306 0
M  V30 3013 H 290.31 0.718333 5.47306 0
M  V30 3014 H 290.787 -0.558451 4.35635 0
M  V30 3015 H 291.393 1.09543 4.10951 0
M  V30 3016 N 289.708 -1.40897 0.706093 0
M  V30 3017 C 290.618 -2.3455 0.0482286 0
M  V30 3018 C 291.634 -1.56796 -0.754396 0
M  V30 3019 O 292.81 -1.89228 -0.689538 0
M  V30 3020 C 289.875 -3.35625 -0.869303 0
M  V30 3021 C 288.936 -4.29261 -0.0576994 0
M  V30 3022 C 288.169 -5.25508 -0.931531 0
M  V30 3023 O 288.392 -5.27472 -2.17092 0
M  V30 3024 O 287.326 -6.00727 -0.375587 0
M  V30 3025 H 291.152 -2.92407 0.820476 0
M  V30 3026 H 288.737 -1.4193 0.4665 0
M  V30 3027 H 290.619 -3.97635 -1.39514 0
M  V30 3028 H 289.294 -2.80196 -1.62086 0
M  V30 3029 H 288.201 -3.70566 0.512988 0
M  V30 3030 H 289.534 -4.87817 0.655426 0
M  V30 3031 N 291.186 -0.45159 -1.50991 0
M  V30 3032 C 292.602 -0.104647 -1.59257 0
M  V30 3033 C 292.802 1.38728 -1.4614 0
M  V30 3034 O 291.858 2.15866 -1.30989 0
M  V30 3035 C 293.171 -0.637468 -2.93865 0
M  V30 3036 C 294.719 -0.599166 -3.07212 0
M  V30 3037 C 295.194 -1.1092 -4.44366 0
M  V30 3038 N 296.685 -1.06778 -4.50725 0
M  V30 3039 C 297.42 -1.43314 -5.55201 0
M  V30 3040 N 296.916 -1.87204 -6.67028 0
M  V30 3041 N 298.709 -1.3504 -5.45638 0
M  V30 3042 H 290.86 -1.42214 -1.57762 0
M  V30 3043 H 293.123 -0.586921 -0.744465 0
M  V30 3044 H 292.829 -1.68187 -3.08879 0
M  V30 3045 H 292.703 -0.0702139 -3.77135 0
M  V30 3046 H 295.09 0.436277 -2.91857 0
M  V30 3047 H 295.171 -1.20299 -2.25747 0
M  V30 3048 H 294.815 -2.14318 -4.60467 0
M  V30 3049 H 294.745 -0.481773 -5.24392 0
M  V30 3050 H 297.236 -0.745643 -3.70471 0
M  V30 3051 H 297.549 -2.13282 -7.42786 0
M  V30 3052 H 295.894 -1.91142 -6.68199 0
M  V30 3053 H 299.085 -1.00607 -4.57161 0
M  V30 3054 H 299.258 -1.63841 -6.26945 0
M  V30 3055 N 292.664 1.56529 -0.183458 0
M  V30 3056 C 293.912 1.96855 0.457452 0
M  V30 3057 C 294.233 1.07104 1.62953 0
M  V30 3058 O 293.503 0.139887 1.954 0
M  V30 3059 H 292.083 0.72693 0.171992 0
M  V30 3060 H 294.745 1.93056 -0.267476 0
M  V30 3061 H 293.841 3.01423 0.809368 0
M  V30 3062 N 294.142 -0.090211 1.57342 0
M  V30 3063 C 295.372 -0.805055 1.90269 0
M  V30 3064 C 295.78 -1.72561 0.775842 0
M  V30 3065 O 295.123 -1.81839 -0.260843 0
M  V30 3066 C 295.185 -1.66734 3.18497 0
M  V30 3067 C 294.849 -0.918092 4.47683 0
M  V30 3068 C 295.846 -0.245674 5.19319 0
M  V30 3069 C 293.531 -0.890724 4.94339 0
M  V30 3070 C 295.525 0.444088 6.35851 0
M  V30 3071 C 293.212 -0.197179 6.10782 0
M  V30 3072 C 294.21 0.469044 6.81388 0
M  V30 3073 O 293.898 1.15146 7.95611 0
M  V30 3074 H 293.63 -0.235143 0.633785 0
M  V30 3075 H 296.184 -0.0703805 2.05279 0
M  V30 3076 H 294.414 -2.44437 2.99646 0
M  V30 3077 H 296.103 -2.25919 3.37217 0
M  V30 3078 H 296.869 -0.258246 4.84312 0
M  V30 3079 H 292.748 -1.39873 4.39268 0
M  V30 3080 H 296.292 0.964667 6.90898 0
M  V30 3081 H 292.189 -0.18247 6.45242 0
M  V30 3082 H 292.957 1.05885 8.11622 0
M  V30 3083 N 295.62 -1.53406 -0.361157 0
M  V30 3084 C 296.845 -1.74024 -1.12829 0
M  V30 3085 C 297.27 -0.470069 -1.82132 0
M  V30 3086 O 296.628 0.57619 -1.719 0
M  V30 3087 C 296.676 -2.90903 -2.13091 0
M  V30 3088 O 295.78 -2.59821 -3.20261 0
M  V30 3089 H 295.121 -0.577804 -0.327168 0
M  V30 3090 H 297.651 -2.00307 -0.41693 0
M  V30 3091 H 297.661 -3.17194 -2.56616 0
M  V30 3092 H 296.336 -3.83034 -1.62042 0
M  V30 3093 H 294.913 -2.44362 -2.81677 0
M  V30 3094 N 297.098 0.621204 -1.44841 0
M  V30 3095 C 298.345 1.38055 -1.48145 0
M  V30 3096 C 298.673 1.94143 -0.117867 0
M  V30 3097 O 297.928 1.74713 0.881694 0
M  V30 3098 C 298.227 2.55675 -2.4973 0
M  V30 3099 C 297.893 2.17817 -3.94799 0
M  V30 3100 C 296.555 2.07205 -4.34303 0
M  V30 3101 C 298.907 1.88065 -4.86087 0
M  V30 3102 C 296.235 1.65045 -5.63007 0
M  V30 3103 C 298.587 1.47394 -6.15189 0
M  V30 3104 C 297.251 1.35331 -6.53637 0
M  V30 3105 H 296.521 0.505181 -0.542101 0
M  V30 3106 H 299.168 0.703477 -1.78111 0
M  V30 3107 H 297.473 3.2866 -2.13284 0
M  V30 3108 H 299.17 3.13904 -2.4953 0
M  V30 3109 H 295.76 2.26998 -3.63552 0
M  V30 3110 H 299.944 1.95168 -4.56315 0
M  V30 3111 H 295.2 1.54317 -5.91605 0
M  V30 3112 H 299.374 1.23415 -6.85377 0
M  V30 3113 H 297.001 1.02435 -7.53267 0
M  V30 3114 N 298.576 1.31904 0.862503 0
M  V30 3115 C 299.822 1.22197 1.61851 0
M  V30 3116 C 300.155 -0.217641 1.92977 0
M  V30 3117 O 299.43 -1.15264 1.56666 0
M  V30 3118 C 299.713 2.07378 2.94391 0
M  V30 3119 C 299.566 3.59678 2.70096 0
M  V30 3120 C 300.885 1.92891 3.95577 0
M  V30 3121 H 298.004 0.445255 0.587296 0
M  V30 3122 H 300.646 1.6177 0.99651 0
M  V30 3123 H 298.796 1.73758 3.47477 0
M  V30 3124 H 300.468 4.03472 2.23625 0
M  V30 3125 H 298.711 3.82735 2.04197 0
M  V30 3126 H 299.382 4.14595 3.64438 0
M  V30 3127 H 301.858 2.22327 3.51724 0
M  V30 3128 H 300.734 2.54781 4.86187 0
M  V30 3129 H 300.995 0.894315 4.3296 0
M  V30 3130 N 300.054 -1.07777 1.14986 0
M  V30 3131 C 301.282 -1.84018 0.945773 0
M  V30 3132 C 301.697 -1.81897 -0.505863 0
M  V30 3133 O 301.054 -1.22726 -1.35072 0
M  V30 3134 C 301.105 -3.31287 1.44677 0
M  V30 3135 O 300.826 -3.33449 2.84154 0
M  V30 3136 C 302.327 -4.24311 1.28355 0
M  V30 3137 H 299.547 -0.580716 0.336169 0
M  V30 3138 H 302.091 -1.36077 1.52654 0
M  V30 3139 H 300.246 -3.76594 0.908625 0
M  V30 3140 H 300.66 -4.25427 3.06777 0
M  V30 3141 H 302.134 -5.2573 1.68261 0
M  V30 3142 H 302.611 -4.38612 0.227184 0
M  V30 3143 H 303.217 -3.84836 1.81056 0
M  V30 3144 N 301.532 -0.945985 -1.26051 0
M  V30 3145 C 302.76 -0.613025 -1.9761 0
M  V30 3146 C 303.175 0.813035 -1.70397 0
M  V30 3147 O 302.532 1.54274 -0.974979 0
M  V30 3148 C 302.583 -0.85159 -3.51326 0
M  V30 3149 O 302.304 -2.22157 -3.77595 0
M  V30 3150 C 303.805 -0.529831 -4.40122 0
M  V30 3151 H 301.025 -0.230593 -0.630133 0
M  V30 3152 H 303.569 -1.268 -1.60443 0
M  V30 3153 H 301.724 -0.243151 -3.86636 0
M  V30 3154 H 302.138 -2.2852 -4.721 0
M  V30 3155 H 303.612 -0.747348 -5.46917 0
M  V30 3156 H 304.089 0.535341 -4.35925 0
M  V30 3157 H 304.695 -1.11721 -4.10364 0
M  V30 3158 N 303.011 1.40521 -0.713556 0
M  V30 3159 C 303.974 2.29098 -0.0684347 0
M  V30 3160 C 304.974 1.45268 0.689472 0
M  V30 3161 O 306.164 1.66205 0.521677 0
M  V30 3162 C 303.296 3.28446 0.913024 0
M  V30 3163 H 304.489 2.87645 -0.84855 0
M  V30 3164 H 302.042 1.48809 -0.47809 0
M  V30 3165 H 302.777 2.74913 1.72027 0
M  V30 3166 H 302.562 3.90327 0.372472 0
M  V30 3167 H 304.052 3.94777 1.36165 0
M  V30 3168 N 304.489 0.459591 1.5075 0
M  V30 3169 C 305.399 -0.34613 2.32033 0
M  V30 3170 C 306.415 -1.00686 1.41909 0
M  V30 3171 O 307.591 -0.997361 1.7497 0
M  V30 3172 C 304.656 -1.42029 3.16273 0
M  V30 3173 C 303.717 -0.777362 4.22203 0
M  V30 3174 C 302.95 -1.80034 5.02418 0
M  V30 3175 O 303.173 -3.02544 4.83553 0
M  V30 3176 O 302.107 -1.37853 5.85901 0
M  V30 3177 H 305.933 0.318054 3.0203 0
M  V30 3178 H 303.518 0.221663 1.47746 0
M  V30 3179 H 305.4 -2.04275 3.68578 0
M  V30 3180 H 304.075 -2.06815 2.49016 0
M  V30 3181 H 302.982 -0.116256 3.73919 0
M  V30 3182 H 304.315 -0.172634 4.91897 0
M  V30 3183 N 305.967 -1.56429 0.191757 0
M  V30 3184 C 307.383 -1.58754 -0.164137 0
M  V30 3185 C 307.583 -1.20782 -1.61288 0
M  V30 3186 O 306.639 -0.928999 -2.34789 0
M  V30 3187 C 307.952 -3.00396 0.135195 0
M  V30 3188 C 309.5 -3.1291 0.0750351 0
M  V30 3189 C 309.975 -4.56679 0.347632 0
M  V30 3190 N 311.466 -4.62252 0.296131 0
M  V30 3191 C 312.201 -5.71379 0.480948 0
M  V30 3192 N 311.697 -6.88986 0.725933 0
M  V30 3193 N 313.49 -5.60563 0.415435 0
M  V30 3194 H 305.641 -1.79393 1.13718 0
M  V30 3195 H 307.904 -0.832414 0.453643 0
M  V30 3196 H 307.61 -3.32726 1.13958 0
M  V30 3197 H 307.484 -3.72963 -0.563773 0
M  V30 3198 H 309.871 -2.80394 -0.919948 0
M  V30 3199 H 309.952 -2.42736 0.807029 0
M  V30 3200 H 309.596 -4.89907 1.33992 0
M  V30 3201 H 309.526 -5.25039 -0.405212 0
M  V30 3202 H 312.017 -3.7773 0.113259 0
M  V30 3203 H 312.33 -7.68046 0.855857 0
M  V30 3204 H 310.675 -6.90801 0.762788 0
M  V30 3205 H 313.866 -4.67561 0.224486 0
M  V30 3206 H 314.039 -6.45551 0.562889 0
M  V30 3207 N 307.445 0.0818655 -1.57387 0
M  V30 3208 C 308.355 1.11642 -2.06333 0
M  V30 3209 C 309.371 1.43033 -0.99083 0
M  V30 3210 O 310.547 1.53411 -1.30488 0
M  V30 3211 C 307.612 2.41342 -2.48907 0
M  V30 3212 C 306.673 2.17014 -3.7041 0
M  V30 3213 C 305.906 3.4053 -4.10944 0
M  V30 3214 O 306.129 4.4927 -3.51444 0
M  V30 3215 O 305.063 3.29336 -5.03807 0
M  V30 3216 H 308.889 0.730657 -2.9478 0
M  V30 3217 H 306.474 0.295301 -1.46452 0
M  V30 3218 H 308.356 3.17691 -2.76858 0
M  V30 3219 H 307.031 2.79319 -1.63593 0
M  V30 3220 H 305.938 1.38403 -3.47556 0
M  V30 3221 H 307.271 1.83923 -4.56545 0
M  V30 3222 N 308.923 1.53595 0.353017 0
M  V30 3223 C 310.172 1.69603 1.09168 0
M  V30 3224 C 310.485 0.460925 1.90092 0
M  V30 3225 O 311.691 0.501774 2.66823 0
M  V30 3226 C 310.147 2.99872 1.9901 0
M  V30 3227 C 309.755 4.30687 1.23339 0
M  V30 3228 C 311.499 3.25246 2.72792 0
M  V30 3229 C 309.406 5.52036 2.12156 0
M  V30 3230 H 308.336 0.631966 0.411261 0
M  V30 3231 H 310.987 1.80096 0.351802 0
M  V30 3232 H 309.369 2.83212 2.7678 0
M  V30 3233 H 310.543 4.58019 0.505456 0
M  V30 3234 H 308.858 4.11853 0.613663 0
M  V30 3235 H 311.455 4.13095 3.39495 0
M  V30 3236 H 311.798 2.41846 3.38846 0
M  V30 3237 H 312.331 3.42638 2.021 0
M  V30 3238 H 309.07 6.37951 1.50659 0
M  V30 3239 H 308.59 5.28966 2.82764 0
M  V30 3240 H 310.269 5.87313 2.71427 0
M  V30 3241 N 310.401 -0.613514 1.45168 0
M  V30 3242 C 311.647 -1.37471 1.49096 0
M  V30 3243 C 311.98 -1.93765 0.129901 0
M  V30 3244 O 311.255 -1.74707 -0.854858 0
M  V30 3245 C 311.538 -2.52701 2.56542 0
M  V30 3246 C 311.391 -2.01643 4.0207 0
M  V30 3247 C 312.71 -3.54849 2.60327 0
M  V30 3248 H 309.829 -0.498502 0.54283 0
M  V30 3249 H 312.471 -0.692125 1.76945 0
M  V30 3250 H 310.621 -3.10931 2.32926 0
M  V30 3251 H 312.293 -1.48108 4.36877 0
M  V30 3252 H 310.536 -1.32688 4.13009 0
M  V30 3253 H 311.207 -2.84681 4.72928 0
M  V30 3254 H 313.683 -3.0645 2.81474 0
M  V30 3255 H 312.559 -4.32973 3.37381 0
M  V30 3256 H 312.82 -4.10079 1.6519 0
M  V30 3257 N 311.879 -1.3236 -0.855495 0
M  V30 3258 C 313.295 -1.11332 -1.14356 0
M  V30 3259 C 313.495 0.106751 -2.01217 0
M  V30 3260 O 312.551 0.791891 -2.39761 0
M  V30 3261 C 313.864 -2.39237 -1.82171 0
M  V30 3262 C 315.412 -2.44986 -1.9481 0
M  V30 3263 C 315.887 -3.7281 -2.66039 0
M  V30 3264 N 317.378 -3.73787 -2.73565 0
M  V30 3265 C 318.113 -4.69394 -3.29327 0
M  V30 3266 N 317.609 -5.75367 -3.85907 0
M  V30 3267 N 319.402 -4.56893 -3.27423 0
M  V30 3268 H 311.553 -2.10586 -0.277027 0
M  V30 3269 H 313.816 -0.929701 -0.185364 0
M  V30 3270 H 313.522 -3.28431 -1.25802 0
M  V30 3271 H 313.396 -2.50134 -2.82335 0
M  V30 3272 H 315.783 -1.56252 -2.50338 0
M  V30 3273 H 315.864 -2.38043 -0.936448 0
M  V30 3274 H 315.508 -4.61918 -2.11174 0
M  V30 3275 H 315.438 -3.77024 -3.67642 0
M  V30 3276 H 317.929 -2.97189 -2.33424 0
M  V30 3277 H 318.242 -6.44378 -4.26611 0
M  V30 3278 H 316.587 -5.79123 -3.84242 0
M  V30 3279 H 319.778 -3.73269 -2.82467 0
M  V30 3280 H 319.951 -5.31577 -3.7058 0
M  V30 3281 N 313.357 1.07166 -1.15556 0
M  V30 3282 C 314.634 1.76546 -0.842069 0
M  V30 3283 C 315.014 2.00453 0.661939 0
M  V30 3284 O 314.362 1.62452 1.60691 0
M  V30 3285 C 314.572 3.07266 -1.65495 0
M  V30 3286 C 315.92 3.81578 -1.86234 0
M  V30 3287 O 316.944 3.17083 -1.62287 0
M  V30 3288 O 315.803 4.97419 -2.26355 0
M  V30 3289 H 312.897 0.766756 -0.309862 0
M  V30 3290 H 315.443 1.13514 -1.26145 0
M  V30 3291 H 314.215 2.85494 -2.67598 0
M  V30 3292 H 313.838 3.7803 -1.23203 0
M  V30 3293 N 314.835 0.952656 1.25548 0
M  V30 3294 C 316.084 0.602053 1.92505 0
M  V30 3295 C 316.397 -0.864663 1.75451 0
M  V30 3296 O 317.603 -1.32514 2.36965 0
M  V30 3297 C 316.059 1.02607 3.44963 0
M  V30 3298 C 315.667 2.51519 3.70732 0
M  V30 3299 C 317.411 0.747905 4.1786 0
M  V30 3300 C 315.318 2.87732 5.16686 0
M  V30 3301 H 314.248 0.22146 0.720744 0
M  V30 3302 H 316.899 1.15684 1.42441 0
M  V30 3303 H 315.281 0.399712 3.93978 0
M  V30 3304 H 316.455 3.19157 3.32378 0
M  V30 3305 H 314.77 2.76786 3.11092 0
M  V30 3306 H 317.367 0.994647 5.25367 0
M  V30 3307 H 317.71 -0.315629 4.15102 0
M  V30 3308 H 318.243 1.33452 3.74747 0
M  V30 3309 H 314.982 3.93095 5.24554 0
M  V30 3310 H 314.502 2.24765 5.56094 0
M  V30 3311 H 316.181 2.76817 5.84792 0
M  V30 3312 N 316.313 -1.40141 0.720998 0
M  V30 3313 C 317.26 -2.30688 0.071919 0
M  V30 3314 C 318.23 -1.48476 -0.744584 0
M  V30 3315 O 319.415 -1.77201 -0.707423 0
M  V30 3316 C 316.555 -3.34724 -0.839855 0
M  V30 3317 C 315.668 -4.31998 -0.0122438 0
M  V30 3318 C 314.803 -5.23102 -0.923995 0
M  V30 3319 C 313.842 -6.12033 -0.0907969 0
M  V30 3320 N 312.979 -6.95537 -0.957718 0
M  V30 3321 H 317.819 -2.85628 0.849755 0
M  V30 3322 H 315.356 -1.40653 0.430726 0
M  V30 3323 H 317.314 -3.93618 -1.38279 0
M  V30 3324 H 315.944 -2.81274 -1.58381 0
M  V30 3325 H 314.996 -3.74841 0.64794 0
M  V30 3326 H 316.308 -4.94772 0.632595 0
M  V30 3327 H 315.462 -5.86953 -1.53527 0
M  V30 3328 H 314.201 -4.60615 -1.60264 0
M  V30 3329 H 313.206 -5.47207 0.533377 0
M  V30 3330 H 314.431 -6.76581 0.584428 0
M  V30 3331 H 312.377 -6.35633 -1.62192 0
M  V30 3332 H 312.294 -7.55099 -0.36904 0
M  V30 3333 H 313.562 -7.63832 -1.555 0
M  V30 3334 N 317.792 -0.46758 -1.50504 0
M  V30 3335 C 318.702 0.33382 -2.32213 0
M  V30 3336 C 319.718 0.999323 -1.42441 0
M  V30 3337 O 320.894 0.988068 -1.75497 0
M  V30 3338 C 317.959 1.4035 -3.17022 0
M  V30 3339 C 317.02 0.754961 -4.2261 0
M  V30 3340 C 316.253 1.77367 -5.03365 0
M  V30 3341 O 316.476 2.99976 -4.8515 0
M  V30 3342 O 315.41 1.34744 -5.86624 0
M  V30 3343 H 319.236 -0.334067 -3.01857 0
M  V30 3344 H 316.821 -0.229496 -1.47627 0
M  V30 3345 H 318.703 2.02318 -3.69656 0
M  V30 3346 H 317.378 2.05492 -2.5011 0
M  V30 3347 H 316.285 0.0964244 -3.73976 0
M  V30 3348 H 317.618 0.146545 -4.91982 0
M  V30 3349 N 319.27 1.56325 -0.20005 0
M  V30 3350 C 320.217 2.1932 0.718833 0
M  V30 3351 C 321.187 1.14198 1.20615 0
M  V30 3352 O 322.372 1.42469 1.26914 0
M  V30 3353 C 319.512 2.86041 1.93066 0
M  V30 3354 C 318.625 4.05702 1.48425 0
M  V30 3355 C 317.76 4.60266 2.65196 0
M  V30 3356 C 316.799 5.72273 2.17185 0
M  V30 3357 N 315.936 6.21221 3.27152 0
M  V30 3358 H 320.776 2.97486 0.17489 0
M  V30 3359 H 318.313 1.46911 0.0745794 0
M  V30 3360 H 320.271 3.22897 2.64184 0
M  V30 3361 H 318.901 2.1043 2.44783 0
M  V30 3362 H 317.953 3.74475 0.668755 0
M  V30 3363 H 319.265 4.86699 1.09204 0
M  V30 3364 H 318.419 4.99453 3.4443 0
M  V30 3365 H 317.158 3.78386 3.07693 0
M  V30 3366 H 316.163 5.3261 1.36407 0
M  V30 3367 H 317.388 6.55974 1.75713 0
M  V30 3368 H 315.334 5.42263 3.69171 0
M  V30 3369 H 315.251 6.97284 2.92116 0
M  V30 3370 H 316.519 6.65063 4.06585 0
M  V30 3371 N 320.748 -0.0735177 1.57428 0
M  V30 3372 C 321.678 -1.0879 2.06608 0
M  V30 3373 C 322.659 -1.40473 0.959237 0
M  V30 3374 O 323.844 -1.5013 1.23185 0
M  V30 3375 C 320.974 -2.40183 2.50857 0
M  V30 3376 C 319.928 -2.22858 3.65402 0
M  V30 3377 C 319.254 -3.59619 3.957 0
M  V30 3378 C 320.554 -1.65123 4.95511 0
M  V30 3379 H 322.248 -0.678673 2.91607 0
M  V30 3380 H 319.794 -0.325013 1.40284 0
M  V30 3381 H 321.747 -3.11437 2.83874 0
M  V30 3382 H 320.471 -2.83083 1.62885 0
M  V30 3383 H 319.13 -1.54045 3.32664 0
M  V30 3384 H 318.778 -4.00086 3.04861 0
M  V30 3385 H 318.478 -3.48866 4.72828 0
M  V30 3386 H 320.002 -4.32306 4.31212 0
M  V30 3387 H 321.416 -2.26241 5.26771 0
M  V30 3388 H 319.813 -1.65071 5.7695 0
M  V30 3389 H 320.883 -0.612559 4.81015 0
M  V30 3390 N 322.226 -1.5378 -0.344866 0
M  V30 3391 C 323.466 -1.72677 -1.09371 0
M  V30 3392 C 323.83 -0.479084 -1.85927 0
M  V30 3393 O 325.031 -0.54505 -2.63216 0
M  V30 3394 C 323.302 -2.95457 -2.01097 0
M  V30 3395 S 324.861 -3.35158 -2.83222 0
M  V30 3396 H 321.679 -0.607402 -0.369573 0
M  V30 3397 H 324.281 -1.91922 -0.372307 0
M  V30 3398 H 322.985 -3.84437 -1.43655 0
M  V30 3399 H 322.516 -2.78673 -2.77678 0
M  V30 3400 H 324.531 -2.88789 -4.03504 0
M  V30 3401 N 323.704 0.605807 -1.45491 0
M  V30 3402 C 324.934 1.38934 -1.52908 0
M  V30 3403 C 325.342 1.88513 -0.161086 0
M  V30 3404 O 324.685 1.62962 0.847891 0
M  V30 3405 C 324.747 2.62737 -2.45376 0
M  V30 3406 C 324.411 2.34785 -3.92078 0
M  V30 3407 C 325.408 1.95038 -4.8193 0
M  V30 3408 C 323.093 2.47642 -4.37011 0
M  V30 3409 C 325.087 1.68511 -6.14722 0
M  V30 3410 C 322.774 2.20728 -5.69844 0
M  V30 3411 C 323.772 1.81225 -6.58519 0
M  V30 3412 O 323.46 1.54627 -7.88889 0
M  V30 3413 H 323.192 0.431629 -0.520262 0
M  V30 3414 H 325.746 0.74573 -1.91384 0
M  V30 3415 H 323.976 3.29824 -2.01874 0
M  V30 3416 H 325.665 3.24783 -2.43456 0
M  V30 3417 H 326.431 1.84639 -4.48479 0
M  V30 3418 H 322.31 2.77356 -3.68232 0
M  V30 3419 H 325.854 1.37602 -6.83894 0
M  V30 3420 H 321.751 2.30744 -6.02849 0
M  V30 3421 H 322.519 1.68665 -8.00933 0
M  V30 3422 N 325.182 1.32811 0.848464 0
M  V30 3423 C 326.428 1.23907 1.60546 0
M  V30 3424 C 326.761 -0.197161 1.93197 0
M  V30 3425 O 326.036 -1.13596 1.5788 0
M  V30 3426 C 326.319 2.10489 2.92175 0
M  V30 3427 C 326.172 3.62522 2.66266 0
M  V30 3428 C 327.491 1.97075 3.93509 0
M  V30 3429 H 324.61 0.451459 0.58254 0
M  V30 3430 H 327.252 1.62818 0.979296 0
M  V30 3431 H 325.402 1.77434 3.45614 0
M  V30 3432 H 327.074 4.05821 2.19334 0
M  V30 3433 H 325.317 3.84879 2.00126 0
M  V30 3434 H 325.988 4.18437 3.6002 0
M  V30 3435 H 328.464 2.26045 3.49346 0
M  V30 3436 H 327.34 2.59923 4.83457 0
M  V30 3437 H 327.601 0.940186 4.31987 0
M  V30 3438 N 326.66 -1.06551 1.16123 0
M  V30 3439 C 327.623 -2.12132 0.867906 0
M  V30 3440 C 328.623 -1.60224 -0.135944 0
M  V30 3441 O 329.813 -1.73943 0.0946422 0
M  V30 3442 C 326.945 -3.396 0.297419 0
M  V30 3443 H 328.138 -2.39586 1.80385 0
M  V30 3444 H 325.691 -1.22574 0.969812 0
M  V30 3445 H 326.426 -3.17794 -0.64633 0
M  V30 3446 H 326.211 -3.78581 1.02073 0
M  V30 3447 H 327.701 -4.17455 0.110052 0
M  V30 3448 N 328.138 -0.959301 -1.25041 0
M  V30 3449 C 329.068 -0.501388 -2.28053 0
M  V30 3450 C 330.049 0.454673 -1.63911 0
M  V30 3451 O 331.234 0.352618 -1.90972 0
M  V30 3452 C 328.364 0.217224 -3.4662 0
M  V30 3453 C 327.318 -0.654034 -4.22973 0
M  V30 3454 C 326.644 0.195589 -5.34342 0
M  V30 3455 C 327.944 -1.93447 -4.85155 0
M  V30 3456 H 329.638 -1.36238 -2.66608 0
M  V30 3457 H 327.184 -0.656534 -1.28163 0
M  V30 3458 H 329.137 0.548732 -4.17812 0
M  V30 3459 H 327.861 1.1125 -3.07068 0
M  V30 3460 H 326.52 -0.968693 -3.5357 0
M  V30 3461 H 326.168 1.09076 -4.91031 0
M  V30 3462 H 325.868 -0.384091 -5.86343 0
M  V30 3463 H 327.392 0.521958 -6.08365 0
M  V30 3464 H 328.806 -1.66908 -5.48466 0
M  V30 3465 H 327.203 -2.46018 -5.47353 0
M  V30 3466 H 328.273 -2.63466 -4.07079 0
M  V30 3467 N 329.616 1.39756 -0.72842 0
M  V30 3468 C 330.893 1.94574 -0.200079 0
M  V30 3469 C 331.273 1.66569 1.29684 0
M  V30 3470 O 330.621 0.990326 2.05924 0
M  V30 3471 C 330.831 3.45004 -0.526608 0
M  V30 3472 C 332.179 4.21965 -0.472318 0
M  V30 3473 O 333.203 3.53173 -0.463413 0
M  V30 3474 O 332.062 5.44552 -0.461075 0
M  V30 3475 H 329.156 0.826289 -0.0342851 0
M  V30 3476 H 331.702 1.49293 -0.806829 0
M  V30 3477 H 330.474 3.58796 -1.56144 0
M  V30 3478 H 330.097 3.97449 0.109449 0
M  V30 3479 N 331.094 0.475555 1.50254 0
M  V30 3480 C 332.341 -0.0778919 2.0235 0
M  V30 3481 C 332.669 -1.39319 1.35722 0
M  V30 3482 O 331.924 -1.89888 0.473395 0
M  V30 3483 C 332.223 -0.305114 3.56095 0
M  V30 3484 C 331.889 0.92903 4.41225 0
M  V30 3485 C 330.551 1.26739 4.6421 0
M  V30 3486 C 332.903 1.75054 4.90923 0
M  V30 3487 C 330.231 2.42724 5.34137 0
M  V30 3488 C 332.583 2.9017 5.62125 0
M  V30 3489 C 331.247 3.24416 5.83362 0
M  V30 3490 H 330.517 -0.0285027 0.740452 0
M  V30 3491 H 333.164 0.630543 1.80821 0
M  V30 3492 H 331.469 -1.09584 3.76163 0
M  V30 3493 H 333.166 -0.747377 3.93974 0
M  V30 3494 H 329.756 0.655428 4.23559 0
M  V30 3495 H 333.94 1.50231 4.73016 0
M  V30 3496 H 329.196 2.69525 5.48786 0
M  V30 3497 H 333.37 3.54169 5.99614 0
M  V30 3498 H 330.997 4.14396 6.37323 0
M  V30 3499 N 332.573 -1.56217 0.208337 0
M  V30 3500 C 333.483 -2.23316 -0.718836 0
M  V30 3501 C 334.499 -1.23648 -1.22422 0
M  V30 3502 O 335.675 -1.56423 -1.26861 0
M  V30 3503 C 332.74 -2.88968 -1.91568 0
M  V30 3504 C 331.801 -4.03943 -1.45357 0
M  V30 3505 C 331.034 -4.66455 -2.59337 0
M  V30 3506 O 331.257 -4.27919 -3.77149 0
M  V30 3507 O 330.191 -5.55686 -2.31293 0
M  V30 3508 H 334.017 -3.03182 -0.177315 0
M  V30 3509 H 331.602 -1.49384 -0.0215402 0
M  V30 3510 H 333.484 -3.30455 -2.61491 0
M  V30 3511 H 332.159 -2.12071 -2.44556 0
M  V30 3512 H 331.066 -3.67052 -0.722746 0
M  V30 3513 H 332.399 -4.82543 -0.970219 0
M  V30 3514 N 334.051 0.0651679 -1.57465 0
M  V30 3515 C 334.999 1.09542 -2.05191 0
M  V30 3516 C 335.993 1.39675 -0.958509 0
M  V30 3517 O 337.199 1.39003 -1.14359 0
M  V30 3518 H 333.574 0.370623 -0.654326 0
M  V30 3519 H 335.545 0.666802 -2.90854 0
M  V30 3520 C 334.294 2.39881 -2.51699 0
M  V30 3521 H 333.617 2.17547 -3.3543 0
M  V30 3522 H 335.057 3.104 -2.88839 0
M  V30 3523 C 333.516 3.0631 -1.40271 0
M  V30 3524 O 334.046 3.94664 -0.748523 0
M  V30 3525 N 332.252 2.67041 -1.14618 0
M  V30 3526 H 331.799 1.95281 -1.67997 0
M  V30 3527 H 331.757 3.1181 -0.402688 0
M  V30 3528 N 335.529 1.53961 0.336706 0
M  V30 3529 C 336.439 1.85432 1.43708 0
M  V30 3530 C 337.455 0.745053 1.57242 0
M  V30 3531 O 338.631 1.03804 1.72588 0
M  V30 3532 C 335.696 2.06349 2.78605 0
M  V30 3533 C 334.757 3.30191 2.74358 0
M  V30 3534 C 333.99 3.50101 4.02822 0
M  V30 3535 O 334.213 2.7371 5.00439 0
M  V30 3536 O 333.147 4.43547 4.06878 0
M  V30 3537 H 336.973 2.78975 1.20028 0
M  V30 3538 H 334.558 1.39701 0.52952 0
M  V30 3539 H 336.44 2.21513 3.58483 0
M  V30 3540 H 335.115 1.15995 3.02203 0
M  V30 3541 H 334.022 3.20425 1.93078 0
M  V30 3542 H 335.355 4.2056 2.55715 0
M  V30 3543 N 337.007 -0.598083 1.45811 0
M  V30 3544 C 337.94 -1.7223 1.49706 0
M  V30 3545 C 338.918 -1.58732 0.352535 0
M  V30 3546 O 340.102 -1.80162 0.554438 0
M  V30 3547 C 337.229 -3.10148 1.3611 0
M  V30 3548 C 336.275 -3.42209 2.54549 0
M  V30 3549 S 337.108 -3.35989 4.16979 0
M  V30 3550 C 338.264 -4.76471 4.05865 0
M  V30 3551 H 338.497 -1.68665 2.44826 0
M  V30 3552 H 336.03 -0.775541 1.33509 0
M  V30 3553 H 337.988 -3.8972 1.28953 0
M  V30 3554 H 336.649 -3.11219 0.424451 0
M  V30 3555 H 335.842 -4.42652 2.40988 0
M  V30 3556 H 335.444 -2.70173 2.58617 0
M  V30 3557 H 337.736 -5.665 3.71596 0
M  V30 3558 H 338.679 -4.95089 5.06253 0
M  V30 3559 H 339.087 -4.52599 3.37364 0
M  V30 3560 N 338.485 -1.33259 -0.841409 0
M  V30 3561 C 339.448 -1.23221 -1.9326 0
M  V30 3562 C 340.448 -0.151895 -1.60081 0
M  V30 3563 O 341.638 -0.403246 -1.69468 0
M  V30 3564 C 338.77 -0.898123 -3.28856 0
M  V30 3565 H 339.963 -2.2021 -2.03587 0
M  V30 3566 H 337.516 -1.17281 -1.03319 0
M  V30 3567 H 338.251 0.0693841 -3.24226 0
M  V30 3568 H 338.036 -1.67934 -3.54317 0
M  V30 3569 H 339.526 -0.852563 -4.08805 0
M  V30 3570 N 339.963 1.05934 -1.16686 0
M  V30 3571 C 341.191 1.8249 -0.974929 0
M  V30 3572 C 341.606 1.82679 0.476861 0
M  V30 3573 O 340.963 1.2486 1.33103 0
M  V30 3574 C 341.014 3.28943 -1.49929 0
M  V30 3575 O 340.735 3.28886 -2.89423 0
M  V30 3576 C 342.236 4.22215 -1.35089 0
M  V30 3577 H 339.456 0.575295 -0.345365 0
M  V30 3578 H 342 1.33631 -1.548 0
M  V30 3579 H 340.155 3.751 -0.968423 0
M  V30 3580 H 340.569 4.20493 -3.13506 0
M  V30 3581 H 342.043 5.22987 -1.76603 0
M  V30 3582 H 342.52 4.38195 -0.296935 0
M  V30 3583 H 343.126 3.81907 -1.87155 0
M  V30 3584 N 341.441 0.965919 1.2453 0
M  V30 3585 C 342.404 0.499547 2.2369 0
M  V30 3586 C 343.404 -0.40294 1.5567 0
M  V30 3587 O 344.594 -0.19865 1.73064 0
M  V30 3588 C 341.726 -0.276792 3.39774 0
M  V30 3589 H 342.919 1.37613 2.66463 0
M  V30 3590 H 340.472 0.750324 1.37112 0
M  V30 3591 H 341.207 -1.17055 3.02438 0
M  V30 3592 H 340.992 0.370826 3.90343 0
M  V30 3593 H 342.482 -0.592175 4.1338 0
M  V30 3594 N 342.919 -1.39368 0.735821 0
M  V30 3595 C 343.882 -2.2896 0.104874 0
M  V30 3596 C 344.882 -1.46347 -0.666274 0
M  V30 3597 O 346.072 -1.67014 -0.49517 0
M  V30 3598 C 343.204 -3.29857 -0.860656 0
M  V30 3599 H 344.397 -2.86259 0.894205 0
M  V30 3600 H 341.95 -1.48029 0.501704 0
M  V30 3601 H 342.685 -2.77615 -1.67631 0
M  V30 3602 H 342.47 -3.9087 -0.310327 0
M  V30 3603 H 343.96 -3.96893 -1.29867 0
M  V30 3604 N 344.397 -0.483516 -1.5 0
M  V30 3605 C 345.622 0.0667119 -2.07293 0
M  V30 3606 C 346.047 1.3164 -1.3436 0
M  V30 3607 O 345.405 1.76945 -0.394987 0
M  V30 3608 C 345.453 0.321126 -3.59167 0
M  V30 3609 O 344.557 1.39927 -3.87936 0
M  V30 3610 H 343.898 -0.0184758 -0.663743 0
M  V30 3611 H 346.428 -0.678125 -1.93035 0
M  V30 3612 H 346.438 0.557906 -4.04168 0
M  V30 3613 H 345.113 -0.592007 -4.11665 0
M  V30 3614 H 343.69 1.14882 -3.54763 0
M  V30 3615 N 345.875 1.56104 -0.216619 0
M  V30 3616 C 347.1 2.0301 0.424462 0
M  V30 3617 C 347.525 1.0955 1.52907 0
M  V30 3618 O 346.883 0.0827914 1.81111 0
M  V30 3619 C 346.931 3.4819 0.937883 0
M  V30 3620 O 346.035 3.57865 2.04955 0
M  V30 3621 H 345.376 0.656925 0.0966755 0
M  V30 3622 H 347.906 2.01859 -0.33381 0
M  V30 3623 H 347.916 3.88413 1.24897 0
M  V30 3624 H 346.591 4.15699 0.129387 0
M  V30 3625 H 345.168 3.29527 1.74546 0
M  V30 3626 N 347.353 -0.0568162 1.57498 0
M  V30 3627 C 348.578 -0.769402 1.92601 0
M  V30 3628 C 349.003 -1.69559 0.814336 0
M  V30 3629 O 348.361 -1.79811 -0.231903 0
M  V30 3630 C 348.409 -1.52634 3.26704 0
M  V30 3631 O 347.513 -2.63797 3.16994 0
M  V30 3632 H 346.854 -0.208909 0.63028 0
M  V30 3633 H 349.384 -0.0205798 2.0459 0
M  V30 3634 H 349.394 -1.90234 3.60936 0
M  V30 3635 H 348.069 -0.846875 4.07186 0
M  V30 3636 H 346.646 -2.28943 2.94346 0
M  V30 3637 N 348.832 -1.54138 -0.328536 0
M  V30 3638 C 350.057 -1.76378 -1.09112 0
M  V30 3639 C 350.482 -0.508596 -1.81094 0
M  V30 3640 O 349.84 0.539598 -1.73084 0
M  V30 3641 C 349.888 -2.95358 -2.06872 0
M  V30 3642 O 348.992 -2.66556 -3.14677 0
M  V30 3643 H 348.333 -0.584614 -0.314838 0
M  V30 3644 H 350.863 -2.01146 -0.374348 0
M  V30 3645 H 350.873 -3.22566 -2.4983 0
M  V30 3646 H 349.548 -3.86385 -1.5388 0
M  V30 3647 H 348.125 -2.50282 -2.7643 0
M  V30 3648 N 350.31 0.590341 -1.46126 0
M  V30 3649 C 351.24 1.71032 -1.58966 0
M  V30 3650 C 352.221 1.64302 -0.440335 0
M  V30 3651 O 353.406 1.82436 -0.665634 0
M  V30 3652 C 350.536 3.09665 -1.57241 0
M  V30 3653 C 349.49 3.31221 -2.71066 0
M  V30 3654 C 348.816 4.70303 -2.54399 0
M  V30 3655 C 350.116 3.19796 -4.1295 0
M  V30 3656 H 351.81 1.60543 -2.52718 0
M  V30 3657 H 349.356 0.770933 -1.21625 0
M  V30 3658 H 351.309 3.87831 -1.64819 0
M  V30 3659 H 350.033 3.21036 -0.600289 0
M  V30 3660 H 348.692 2.55452 -2.62944 0
M  V30 3661 H 348.34 4.78429 -1.55288 0
M  V30 3662 H 348.04 4.85679 -3.30741 0
M  V30 3663 H 349.564 5.50647 -2.63857 0
M  V30 3664 H 350.978 3.87815 -4.22223 0
M  V30 3665 H 349.375 3.46696 -4.89818 0
M  V30 3666 H 350.445 2.16983 -4.33643 0
M  V30 3667 N 351.788 1.33704 0.83433 0
M  V30 3668 C 352.698 1.26382 1.97648 0
M  V30 3669 C 353.714 0.173548 1.73132 0
M  V30 3670 O 354.89 0.397962 1.97429 0
M  V30 3671 C 351.955 1.00769 3.31733 0
M  V30 3672 C 351.016 2.1884 3.69334 0
M  V30 3673 C 350.249 1.9444 4.9702 0
M  V30 3674 O 350.472 0.896961 5.63303 0
M  V30 3675 O 349.406 2.81093 5.32231 0
M  V30 3676 H 353.232 2.22444 2.06767 0
M  V30 3677 H 350.817 1.13795 0.968037 0
M  V30 3678 H 352.699 0.882186 4.12062 0
M  V30 3679 H 351.374 0.0773783 3.23608 0
M  V30 3680 H 350.281 2.36946 2.89495 0
M  V30 3681 H 351.614 3.10221 3.82131 0
M  V30 3682 N 353.266 -1.05314 1.17247 0
M  V30 3683 C 354.213 -2.13031 0.888058 0
M  V30 3684 C 355.183 -1.65253 -0.167537 0
M  V30 3685 O 356.368 -1.90775 -0.0305974 0
M  V30 3686 C 353.508 -3.42702 0.406147 0
M  V30 3687 C 352.621 -4.04161 1.52572 0
M  V30 3688 C 351.756 -5.21744 0.997808 0
M  V30 3689 C 350.795 -5.75207 2.09291 0
M  V30 3690 N 349.932 -6.84094 1.57986 0
M  V30 3691 H 354.772 -2.36698 1.81048 0
M  V30 3692 H 352.309 -1.16121 0.903013 0
M  V30 3693 H 354.267 -4.17059 0.108305 0
M  V30 3694 H 352.897 -3.19222 -0.479313 0
M  V30 3695 H 351.949 -3.27253 1.93931 0
M  V30 3696 H 353.261 -4.39881 2.35172 0
M  V30 3697 H 352.415 -6.03168 0.653739 0
M  V30 3698 H 351.154 -4.87495 0.141232 0
M  V30 3699 H 350.159 -4.92414 2.44557 0
M  V30 3700 H 351.384 -6.11505 2.95362 0
M  V30 3701 H 349.33 -6.51745 0.74598 0
M  V30 3702 H 349.247 -7.18811 2.34195 0
M  V30 3703 H 350.515 -7.69172 1.26468 0
M  V30 3704 N 354.744 -0.972509 -1.24016 0
M  V30 3705 C 355.969 -0.654417 -1.96805 0
M  V30 3706 C 356.394 0.770398 -1.716 0
M  V30 3707 O 355.752 1.52361 -0.982647 0
M  V30 3708 C 355.8 -0.941031 -3.48105 0
M  V30 3709 O 354.904 -0.0289472 -4.1239 0
M  V30 3710 H 354.245 -0.24692 -0.616382 0
M  V30 3711 H 356.775 -1.30396 -1.57664 0
M  V30 3712 H 356.785 -0.87452 -3.98517 0
M  V30 3713 H 355.46 -1.97939 -3.65777 0
M  V30 3714 H 354.037 -0.149192 -3.72601 0
M  V30 3715 N 356.222 1.38976 -0.743202 0
M  V30 3716 C 357.452 2.04339 -0.304807 0
M  V30 3717 C 357.86 1.56162 1.06819 0
M  V30 3718 O 357.203 0.725284 1.68776 0
M  V30 3719 C 357.265 3.58716 -0.237369 0
M  V30 3720 C 356.929 4.29905 -1.55018 0
M  V30 3721 C 357.926 4.55987 -2.49744 0
M  V30 3722 C 355.611 4.68294 -1.81675 0
M  V30 3723 C 357.605 5.19478 -3.69353 0
M  V30 3724 C 355.292 5.31512 -3.0156 0
M  V30 3725 C 356.29 5.57037 -3.9522 0
M  V30 3726 O 355.978 6.18941 -5.12998 0
M  V30 3727 H 355.71 0.663439 -0.12971 0
M  V30 3728 H 358.264 1.78852 -1.01001 0
M  V30 3729 H 356.494 3.83133 0.524003 0
M  V30 3730 H 358.183 4.05543 0.170121 0
M  V30 3731 H 358.949 4.26767 -2.30423 0
M  V30 3732 H 354.828 4.47779 -1.09615 0
M  V30 3733 H 358.372 5.39318 -4.42473 0
M  V30 3734 H 354.269 5.60153 -3.20778 0
M  V30 3735 H 355.037 6.37433 -5.13441 0
M  V30 3736 N 357.7 0.491464 1.49741 0
M  V30 3737 C 358.61 -0.296835 2.32715 0
M  V30 3738 C 359.626 -0.976536 1.44013 0
M  V30 3739 O 360.802 -0.960023 1.77047 0
M  V30 3740 C 357.867 -1.35288 3.19215 0
M  V30 3741 C 356.928 -0.687632 4.23757 0
M  V30 3742 C 356.161 -1.69336 5.06123 0
M  V30 3743 O 356.384 -2.92219 4.89861 0
M  V30 3744 O 355.318 -1.25394 5.88693 0
M  V30 3745 H 359.144 0.382048 3.01287 0
M  V30 3746 H 356.729 0.252953 1.47243 0
M  V30 3747 H 358.611 -1.96411 3.72828 0
M  V30 3748 H 357.286 -2.01487 2.53347 0
M  V30 3749 H 356.193 -0.0369159 3.74082 0
M  V30 3750 H 357.526 -0.0682566 4.92153 0
M  V30 3751 N 359.178 -1.55987 0.224894 0
M  V30 3752 C 360.108 -2.23426 -0.678457 0
M  V30 3753 C 361.089 -1.20709 -1.19847 0
M  V30 3754 O 362.274 -1.49304 -1.24186 0
M  V30 3755 C 359.404 -2.91676 -1.88527 0
M  V30 3756 C 358.358 -4.00893 -1.49896 0
M  V30 3757 C 357.684 -4.56455 -2.78483 0
M  V30 3758 C 358.984 -5.17769 -0.686461 0
M  V30 3759 H 360.678 -2.99175 -0.116173 0
M  V30 3760 H 358.224 -1.43897 -0.054436 0
M  V30 3761 H 360.177 -3.37547 -2.5227 0
M  V30 3762 H 358.901 -2.1338 -2.47258 0
M  V30 3763 H 357.56 -3.55758 -0.884985 0
M  V30 3764 H 357.208 -3.74886 -3.35365 0
M  V30 3765 H 356.908 -5.30169 -2.53368 0
M  V30 3766 H 358.432 -5.05047 -3.43162 0
M  V30 3767 H 359.846 -5.60001 -1.22767 0
M  V30 3768 H 358.243 -5.97735 -0.532259 0
M  V30 3769 H 359.313 -4.83932 0.306196 0
M  V30 3770 N 360.656 0.0484629 -1.57525 0
M  V30 3771 C 362.067 0.597486 -1.76881 0
M  V30 3772 C 362.418 1.76664 -0.853475 0
M  V30 3773 O 361.543 2.16357 -0.0433656 0
M  V30 3774 C 362.138 1.09066 -3.20765 0
M  V30 3775 C 360.697 1.58535 -3.41385 0
M  V30 3776 C 359.844 0.514868 -2.72478 0
M  V30 3777 H 362.795 -0.177758 -1.57701 0
M  V30 3778 H 362.816 1.95875 -3.2621 0
M  V30 3779 H 362.328 0.239521 -3.8736 0
M  V30 3780 H 360.429 2.45898 -2.79937 0
M  V30 3781 H 360.542 1.64622 -4.49929 0
M  V30 3782 H 358.906 0.965407 -2.35695 0
M  V30 3783 H 359.689 -0.32648 -3.41744 0
M  V30 3784 N 362.134 1.5431 0.320358 0
M  V30 3785 C 363.411 1.63322 1.07635 0
M  V30 3786 C 363.791 0.46912 2.05821 0
M  V30 3787 O 363.139 -0.536274 2.22118 0
M  V30 3788 C 363.349 3.00465 1.77544 0
M  V30 3789 C 364.697 3.56621 2.30449 0
M  V30 3790 O 365.721 3.02791 1.87606 0
M  V30 3791 O 364.58 4.5083 3.08892 0
M  V30 3792 H 361.674 0.661502 0.496331 0
M  V30 3793 H 364.22 1.66656 0.319992 0
M  V30 3794 H 362.992 3.76629 1.06143 0
M  V30 3795 H 362.615 3.00824 2.59982 0
M  V30 3796 N 363.613 -0.582584 1.46437 0
M  V30 3797 C 364.861 -1.33814 1.51453 0
M  V30 3798 C 365.182 -1.94277 0.167792 0
M  V30 3799 O 364.452 -1.78566 -0.805677 0
M  V30 3800 H 363.032 -0.496838 0.557818 0
M  V30 3801 H 365.694 -0.682281 1.82568 0
M  V30 3802 H 364.79 -2.14479 2.26728 0
M  V30 3803 N 365.091 -1.34144 -0.827227 0
M  V30 3804 C 366.023 -1.21206 -1.9453 0
M  V30 3805 C 367.036 -0.140176 -1.62195 0
M  V30 3806 O 368.225 -0.391647 -1.7415 0
M  V30 3807 C 365.325 -0.839141 -3.28347 0
M  V30 3808 C 364.498 -2.0051 -3.88734 0
M  V30 3809 C 363.557 -1.61128 -5.00923 0
M  V30 3810 O 362.583 -2.32726 -5.19449 0
M  V30 3811 N 363.785 -0.522958 -5.7814 0
M  V30 3812 H 366.55 -2.17525 -2.06162 0
M  V30 3813 H 364.111 -1.27043 -1.00358 0
M  V30 3814 H 366.103 -0.557556 -4.00841 0
M  V30 3815 H 364.673 0.0337293 -3.12582 0
M  V30 3816 H 363.893 -2.45166 -3.08686 0
M  V30 3817 H 365.181 -2.78498 -4.25812 0
M  V30 3818 H 364.579 0.0723518 -5.65654 0
M  V30 3819 H 363.136 -0.301089 -6.51104 0
M  V30 3820 N 366.569 1.04691 -1.17803 0
M  V30 3821 C 367.815 1.78045 -0.970969 0
M  V30 3822 C 368.148 1.87686 0.498751 0
M  V30 3823 O 367.423 1.38035 1.37027 0
M  V30 3824 C 367.706 3.2166 -1.61884 0
M  V30 3825 C 367.559 3.20001 -3.161 0
M  V30 3826 C 368.878 4.1962 -1.3269 0
M  V30 3827 H 365.997 0.64633 -0.354155 0
M  V30 3828 H 368.639 1.22333 -1.45378 0
M  V30 3829 H 366.789 3.69232 -1.20831 0
M  V30 3830 H 368.461 2.80467 -3.66246 0
M  V30 3831 H 366.704 2.58203 -3.48588 0
M  V30 3832 H 367.375 4.21386 -3.56564 0
M  V30 3833 H 369.851 3.80567 -1.68249 0
M  V30 3834 H 368.727 5.18339 -1.80599 0
M  V30 3835 H 368.988 4.414 -0.248622 0
M  V30 3836 N 368.047 0.979072 1.23499 0
M  V30 3837 C 369.296 0.642751 1.91185 0
M  V30 3838 C 369.609 -0.827253 1.77245 0
M  V30 3839 O 370.815 -1.27458 2.39722 0
M  V30 3840 C 369.271 1.09901 3.42709 0
M  V30 3841 C 368.879 2.59327 3.65313 0
M  V30 3842 C 370.623 0.836371 4.16179 0
M  V30 3843 C 368.53 2.98627 5.10467 0
M  V30 3844 H 367.46 0.236698 0.715884 0
M  V30 3845 H 370.111 1.1868 1.39955 0
M  V30 3846 H 368.493 0.48319 3.93041 0
M  V30 3847 H 369.667 3.26136 3.25533 0
M  V30 3848 H 367.982 2.83323 3.05151 0
M  V30 3849 H 370.579 1.10586 5.23139 0
M  V30 3850 H 370.922 -0.227509 4.15678 0
M  V30 3851 H 371.455 1.41371 3.71832 0
M  V30 3852 H 368.194 4.04133 5.16098 0
M  V30 3853 H 367.714 2.3651 5.51201 0
M  V30 3854 H 369.393 2.89159 5.78788 0
M  V30 3855 N 369.525 -1.3858 0.750561 0
M  V30 3856 C 370.753 -2.04471 0.316098 0
M  V30 3857 C 371.168 -1.56606 -1.05452 0
M  V30 3858 O 370.525 -0.737784 -1.66922 0
M  V30 3859 C 370.576 -3.60025 0.326275 0
M  V30 3860 O 370.297 -4.06133 1.6428 0
M  V30 3861 C 371.798 -4.43131 -0.122429 0
M  V30 3862 H 369.018 -0.65717 0.135528 0
M  V30 3863 H 371.562 -1.77329 1.01857 0
M  V30 3864 H 369.717 -3.86014 -0.327431 0
M  V30 3865 H 370.131 -5.00547 1.56693 0
M  V30 3866 H 371.605 -5.51963 -0.0641473 0
M  V30 3867 H 372.082 -4.23333 -1.16988 0
M  V30 3868 H 372.688 -4.22323 0.50229 0
M  V30 3869 N 371.003 -0.499398 -1.49478 0
M  V30 3870 C 372.252 0.0475259 -2.01644 0
M  V30 3871 C 372.565 1.38195 -1.38425 0
M  V30 3872 O 373.771 2.01547 -1.8191 0
M  V30 3873 C 372.227 0.135164 -3.59646 0
M  V30 3874 C 371.835 -1.19252 -4.31837 0
M  V30 3875 C 373.579 0.632538 -4.19761 0
M  V30 3876 C 371.486 -1.06713 -5.81693 0
M  V30 3877 H 370.416 0.0215349 -0.753692 0
M  V30 3878 H 373.067 -0.638577 -1.7203 0
M  V30 3879 H 371.449 0.885681 -3.85969 0
M  V30 3880 H 372.623 -1.9562 -4.17216 0
M  V30 3881 H 370.938 -1.62321 -3.83459 0
M  V30 3882 H 373.535 0.743833 -5.29501 0
M  V30 3883 H 373.878 1.63098 -3.83021 0
M  V30 3884 H 374.411 -0.0613987 -3.97753 0
M  V30 3885 H 371.15 -2.03979 -6.22955 0
M  V30 3886 H 370.67 -0.344307 -5.98811 0
M  V30 3887 H 372.349 -0.745208 -6.42694 0
M  V30 3888 N 372.481 1.55866 -0.233164 0
M  V30 3889 C 373.729 1.9821 0.394593 0
M  V30 3890 C 374.05 1.12234 1.59463 0
M  V30 3891 O 373.32 0.201981 1.94856 0
M  V30 3892 H 371.9 0.732034 0.148778 0
M  V30 3893 H 374.562 1.92107 -0.32876 0
M  V30 3894 H 373.658 3.03845 0.713063 0
M  V30 3895 N 373.959 -0.0401083 1.57549 0
M  V30 3896 C 374.907 -1.06264 2.06908 0
M  V30 3897 C 375.901 -1.38132 0.980608 0
M  V30 3898 O 377.107 -1.37167 1.16556 0
M  V30 3899 H 373.482 -0.360166 0.660139 0
M  V30 3900 H 375.453 -0.620445 2.91878 0
M  V30 3901 C 374.202 -2.35846 2.55483 0
M  V30 3902 H 373.525 -2.12183 3.38849 0
M  V30 3903 H 374.965 -3.05765 2.93741 0
M  V30 3904 C 373.424 -3.0404 1.45126 0
M  V30 3905 O 373.954 -3.93424 0.811216 0
M  V30 3906 N 372.16 -2.65184 1.18852 0
M  V30 3907 H 371.707 -1.92584 1.71083 0
M  V30 3908 H 371.665 -3.1113 0.452244 0
M  V30 3909 N 375.437 -1.54477 -0.31217 0
M  V30 3910 C 376.347 -1.87695 -1.4074 0
M  V30 3911 C 377.363 -0.769975 -1.56036 0
M  V30 3912 O 378.539 -1.06537 -1.70915 0
M  V30 3913 C 375.604 -2.10755 -2.75287 0
M  V30 3914 C 374.665 -3.34514 -2.69071 0
M  V30 3915 C 373.898 -3.56465 -3.97201 0
M  V30 3916 O 374.121 -2.81637 -4.96021 0
M  V30 3917 O 373.055 -4.49964 -3.9977 0
M  V30 3918 H 376.881 -2.80849 -1.15574 0
M  V30 3919 H 374.466 -1.40526 -0.507228 0
M  V30 3920 H 376.348 -2.27188 -3.54913 0
M  V30 3921 H 375.023 -1.20788 -3.0032 0
M  V30 3922 H 373.93 -3.23456 -1.87955 0
M  V30 3923 H 375.263 -4.24575 -2.48992 0
M  V30 3924 N 376.915 0.57481 -1.46744 0
M  V30 3925 C 378.331 0.898981 -1.31873 0
M  V30 3926 C 378.531 1.99313 -0.29605 0
M  V30 3927 O 377.587 2.50728 0.298621 0
M  V30 3928 C 378.9 1.30886 -2.7072 0
M  V30 3929 C 380.448 1.42127 -2.78871 0
M  V30 3930 C 380.923 1.86478 -4.18318 0
M  V30 3931 N 382.414 1.93658 -4.20774 0
M  V30 3932 C 383.149 2.29267 -5.2557 0
M  V30 3933 N 382.645 2.63612 -6.40688 0
M  V30 3934 N 384.438 2.29889 -5.1294 0
M  V30 3935 H 376.589 -0.147839 -2.11885 0
M  V30 3936 H 378.852 -0.00347013 -0.947994 0
M  V30 3937 H 378.558 0.578853 -3.46904 0
M  V30 3938 H 378.432 2.26874 -3.01343 0
M  V30 3939 H 380.819 2.14213 -2.0297 0
M  V30 3940 H 380.9 0.443705 -2.51922 0
M  V30 3941 H 380.544 1.14968 -4.94717 0
M  V30 3942 H 380.474 2.85207 -4.42679 0
M  V30 3943 H 382.965 1.69574 -3.37718 0
M  V30 3944 H 383.278 2.89759 -7.16421 0
M  V30 3945 H 381.623 2.61232 -6.44036 0
M  V30 3946 H 384.814 2.02485 -4.22039 0
M  V30 3947 H 384.987 2.57312 -5.94722 0
M  V30 3948 N 378.394 1.34581 0.820102 0
M  V30 3949 C 379.641 1.27096 1.57648 0
M  V30 3950 C 379.969 -0.158317 1.93855 0
M  V30 3951 O 379.224 -1.12028 1.60463 0
M  V30 3952 C 379.523 2.10997 2.8847 0
M  V30 3953 C 379.189 3.59966 2.71543 0
M  V30 3954 C 377.851 4.00575 2.66634 0
M  V30 3955 C 380.203 4.54548 2.55021 0
M  V30 3956 C 377.531 5.33953 2.43128 0
M  V30 3957 C 379.883 5.88109 2.33047 0
M  V30 3958 C 378.547 6.27878 2.26552 0
M  V30 3959 H 377.817 0.465078 0.576874 0
M  V30 3960 H 380.464 1.6635 0.948671 0
M  V30 3961 H 378.769 1.6458 3.55557 0
M  V30 3962 H 380.466 2.0255 3.46084 0
M  V30 3963 H 377.056 3.27733 2.76205 0
M  V30 3964 H 381.24 4.24069 2.57835 0
M  V30 3965 H 376.496 5.63781 2.3656 0
M  V30 3966 H 380.67 6.60985 2.19251 0
M  V30 3967 H 378.297 7.31162 2.081 0
M  V30 3968 N 379.872 -1.04064 1.18357 0
M  V30 3969 C 381.288 -1.2947 0.933258 0
M  V30 3970 C 381.488 -1.97466 -0.401169 0
M  V30 3971 O 380.544 -2.25528 -1.13549 0
M  V30 3972 C 381.857 -2.15337 2.09882 0
M  V30 3973 C 383.405 -2.28683 2.13712 0
M  V30 3974 C 383.88 -3.17917 3.29686 0
M  V30 3975 N 385.371 -3.25504 3.29547 0
M  V30 3976 C 386.106 -3.94706 4.15926 0
M  V30 3977 N 385.602 -4.66239 5.12439 0
M  V30 3978 N 387.395 -3.90986 4.0384 0
M  V30 3979 H 379.546 -0.583359 2.04232 0
M  V30 3980 H 381.809 -0.319921 0.892387 0
M  V30 3981 H 381.515 -1.72682 3.06389 0
M  V30 3982 H 381.389 -3.16015 2.05947 0
M  V30 3983 H 383.776 -2.70575 1.17784 0
M  V30 3984 H 383.857 -1.27596 2.21705 0
M  V30 3985 H 383.501 -2.76736 4.25887 0
M  V30 3986 H 383.431 -4.19036 3.1893 0
M  V30 3987 H 385.922 -2.74547 2.59677 0
M  V30 3988 H 386.235 -5.16638 5.74722 0
M  V30 3989 H 384.58 -4.65143 5.16398 0
M  V30 3990 H 387.771 -3.34234 3.27727 0
M  V30 3991 H 387.944 -4.44646 4.71375 0
M  V30 3992 N 381.35 -0.985608 -1.22978 0
M  V30 3993 C 382.59 -0.665487 -1.93263 0
M  V30 3994 C 382.954 0.78706 -1.75127 0
M  V30 3995 O 384.155 1.21826 -2.39608 0
M  V30 3996 C 382.426 -1.0515 -3.41582 0
M  V30 3997 S 383.985 -0.848637 -4.30516 0
M  V30 3998 H 380.803 -0.24355 -0.667985 0
M  V30 3999 H 383.405 -1.26635 -1.48942 0
M  V30 4000 H 382.109 -2.10517 -3.52293 0
M  V30 4001 H 381.64 -0.442134 -3.90908 0
M  V30 4002 H 383.655 0.264717 -4.95493 0
M  V30 4003 N 382.828 1.3818 -0.7579 0
M  V30 4004 C 384.239 1.82726 -0.383134 0
M  V30 4005 C 384.59 1.63214 1.08884 0
M  V30 4006 O 383.715 1.13566 1.84205 0
M  V30 4007 C 384.31 3.31728 -0.688631 0
M  V30 4008 C 382.869 3.74606 -0.367091 0
M  V30 4009 C 382.016 2.60896 -0.939599 0
M  V30 4010 H 384.967 1.26847 -0.953699 0
M  V30 4011 H 384.988 3.80487 0.0316492 0
M  V30 4012 H 384.5 3.45898 -1.76001 0
M  V30 4013 H 382.601 3.66013 0.697532 0
M  V30 4014 H 382.714 4.71215 -0.865658 0
M  V30 4015 H 381.078 2.52075 -0.3647 0
M  V30 4016 H 381.861 2.77864 -2.0161 0
M  V30 4017 N 384.306 0.507319 1.49211 0
M  V30 4018 C 385.216 -0.272136 2.33016 0
M  V30 4019 C 386.232 -0.961206 1.45041 0
M  V30 4020 O 387.408 -0.941191 1.78055 0
M  V30 4021 C 384.473 -1.31895 3.20631 0
M  V30 4022 C 383.534 -0.642648 4.24463 0
M  V30 4023 C 382.767 -1.63959 5.07891 0
M  V30 4024 O 382.99 -2.87007 4.92933 0
M  V30 4025 O 381.924 -1.19143 5.8999 0
M  V30 4026 H 385.75 0.413982 3.00865 0
M  V30 4027 H 383.335 0.268556 1.46966 0
M  V30 4028 H 385.217 -1.92446 3.7489 0
M  V30 4029 H 383.892 -1.98788 2.5547 0
M  V30 4030 H 382.799 0.00276252 3.741 0
M  V30 4031 H 384.132 -0.0160534 4.92197 0
M  V30 4032 N 385.784 -1.5574 0.241426 0
M  V30 4033 C 387.012 -2.03208 -0.389134 0
M  V30 4034 C 387.427 -1.12082 -1.51931 0
M  V30 4035 O 386.784 -0.134183 -1.82006 0
M  V30 4036 C 386.835 -3.50064 -0.902087 0
M  V30 4037 O 386.556 -4.37717 0.18305 0
M  V30 4038 C 388.057 -4.13268 -1.60389 0
M  V30 4039 H 385.277 -0.664509 -0.0931053 0
M  V30 4040 H 387.821 -2.0124 0.36369 0
M  V30 4041 H 385.976 -3.52583 -1.60511 0
M  V30 4042 H 386.39 -5.24097 -0.205579 0
M  V30 4043 H 387.864 -5.17733 -1.91458 0
M  V30 4044 H 388.341 -3.59434 -2.52397 0
M  V30 4045 H 388.947 -4.14655 -0.945576 0
M  V30 4046 N 387.262 0.0317525 -1.57568 0
M  V30 4047 C 388.192 1.03274 -2.0942 0
M  V30 4048 C 389.173 1.3788 -0.996143 0
M  V30 4049 O 390.358 1.46811 -1.27122 0
M  V30 4050 C 387.488 2.33448 -2.57137 0
M  V30 4051 C 386.442 2.13091 -3.71182 0
M  V30 4052 C 385.768 3.49001 -4.05095 0
M  V30 4053 C 387.068 1.51928 -4.99715 0
M  V30 4054 H 388.762 0.60112 -2.93303 0
M  V30 4055 H 386.308 0.287705 -1.41097 0
M  V30 4056 H 388.261 3.03802 -2.92032 0
M  V30 4057 H 386.985 2.78665 -1.70333 0
M  V30 4058 H 385.644 1.45171 -3.36632 0
M  V30 4059 H 385.292 3.91862 -3.15362 0
M  V30 4060 H 384.992 3.36207 -4.81911 0
M  V30 4061 H 386.516 4.20721 -4.42522 0
M  V30 4062 H 387.93 2.12196 -5.32584 0
M  V30 4063 H 386.327 1.49716 -5.81124 0
M  V30 4064 H 387.397 0.484811 -4.8247 0
M  V30 4065 N 388.74 1.54641 0.303973 0
M  V30 4066 C 389.987 1.7378 1.03955 0
M  V30 4067 C 390.315 0.521986 1.87365 0
M  V30 4068 O 389.57 -0.496099 1.89308 0
M  V30 4069 C 389.869 2.97753 1.97681 0
M  V30 4070 C 389.535 4.31671 1.30271 0
M  V30 4071 C 388.197 4.68075 1.11619 0
M  V30 4072 C 390.549 5.147 0.82055 0
M  V30 4073 C 387.877 5.8509 0.434304 0
M  V30 4074 C 390.229 6.32416 0.152395 0
M  V30 4075 C 388.893 6.67484 -0.0461067 0
M  V30 4076 H 388.163 0.635908 0.380398 0
M  V30 4077 H 390.81 1.88896 0.314718 0
M  V30 4078 H 389.115 2.77406 2.76682 0
M  V30 4079 H 390.812 3.09756 2.54661 0
M  V30 4080 H 387.402 4.03041 1.45795 0
M  V30 4081 H 391.586 4.87077 0.952374 0
M  V30 4082 H 386.842 6.10806 0.269495 0
M  V30 4083 H 391.016 6.96023 -0.229126 0
M  V30 4084 H 388.643 7.58011 -0.576494 0
M  V30 4085 N 390.218 -0.567019 1.47046 0
M  V30 4086 C 391.15 -1.68985 1.54844 0
M  V30 4087 C 392.163 -1.56869 0.435431 0
M  V30 4088 O 393.352 -1.64006 0.70457 0
M  V30 4089 C 390.452 -3.07373 1.42742 0
M  V30 4090 C 389.625 -3.45339 2.6844 0
M  V30 4091 C 388.684 -4.62849 2.50314 0
M  V30 4092 O 387.71 -4.67922 3.24095 0
M  V30 4093 N 388.912 -5.58726 1.57499 0
M  V30 4094 H 391.677 -1.62745 2.51663 0
M  V30 4095 H 389.238 -0.753411 1.43302 0
M  V30 4096 H 391.23 -3.83803 1.28365 0
M  V30 4097 H 389.8 -3.07893 0.540445 0
M  V30 4098 H 389.02 -2.58455 2.97648 0
M  V30 4099 H 390.308 -3.67476 3.51907 0
M  V30 4100 H 389.706 -5.57376 0.966876 0
M  V30 4101 H 388.263 -6.34523 1.49078 0
M  V30 4102 N 391.696 -1.35014 -0.812953 0
M  V30 4103 C 393.107 -1.25035 -1.38648 0
M  V30 4104 C 393.458 0.119967 -1.95833 0
M  V30 4105 O 392.583 1.02069 -1.90816 0
M  V30 4106 C 393.178 -2.26394 -2.52054 0
M  V30 4107 C 391.737 -2.20175 -3.05287 0
M  V30 4108 C 390.884 -2.12451 -1.78213 0
M  V30 4109 H 393.835 -1.46235 -0.616516 0
M  V30 4110 H 393.856 -1.88672 -3.30429 0
M  V30 4111 H 393.368 -3.26116 -2.10404 0
M  V30 4112 H 391.469 -1.23841 -3.51417 0
M  V30 4113 H 391.582 -3.11863 -3.63701 0
M  V30 4114 H 389.946 -1.58328 -1.9951 0
M  V30 4115 H 390.729 -3.14024 -1.38723 0
M  V30 4116 N 393.175 1.03435 -1.18907 0
M  V30 4117 C 394.4 1.80919 -1.01406 0
M  V30 4118 C 394.825 1.83055 0.432721 0
M  V30 4119 O 394.183 1.25252 1.31079 0
M  V30 4120 C 394.231 3.24091 -1.58105 0
M  V30 4121 O 393.335 4.04434 -0.806669 0
M  V30 4122 H 392.676 0.558709 -0.358803 0
M  V30 4123 H 395.206 1.30223 -1.57807 0
M  V30 4124 H 395.216 3.74853 -1.61087 0
M  V30 4125 H 393.891 3.21851 -2.6341 0
M  V30 4126 H 392.468 3.63091 -0.849666 0
M  V30 4127 N 394.653 0.992116 1.22453 0
M  V30 4128 C 395.9 0.667534 1.91181 0
M  V30 4129 C 396.228 -0.800317 1.77271 0
M  V30 4130 O 395.483 -1.59421 1.13505 0
M  V30 4131 C 395.782 1.01832 3.42586 0
M  V30 4132 C 395.448 2.47831 3.76684 0
M  V30 4133 C 394.11 2.87729 3.85701 0
M  V30 4134 C 396.462 3.42466 3.92895 0
M  V30 4135 C 393.79 4.21252 4.08367 0
M  V30 4136 C 396.142 4.75648 4.17064 0
M  V30 4137 C 394.806 5.15288 4.24305 0
M  V30 4138 H 394.076 0.244268 0.699581 0
M  V30 4139 H 396.723 1.24816 1.45235 0
M  V30 4140 H 395.028 0.355769 3.90181 0
M  V30 4141 H 396.725 0.745228 3.94014 0
M  V30 4142 H 393.315 2.15905 3.70247 0
M  V30 4143 H 397.499 3.12814 3.85307 0
M  V30 4144 H 392.755 4.51554 4.122 0
M  V30 4145 H 396.929 5.48924 4.2855 0
M  V30 4146 H 394.556 6.18769 4.41621 0
M  V30 4147 N 396.131 -1.37776 0.765217 0
M  V30 4148 C 397.38 -1.99092 0.323307 0
M  V30 4149 C 397.693 -1.61434 -1.10446 0
M  V30 4150 O 398.899 -2.15805 -1.64743 0
M  V30 4151 C 397.355 -3.56019 0.527098 0
M  V30 4152 C 396.963 -4.0262 1.96471 0
M  V30 4153 C 398.707 -4.2424 0.148483 0
M  V30 4154 C 396.614 -5.52233 2.11644 0
M  V30 4155 H 395.544 -0.744846 0.117137 0
M  V30 4156 H 398.195 -1.57391 0.943417 0
M  V30 4157 H 396.577 -3.95667 -0.162372 0
M  V30 4158 H 397.751 -3.74234 2.68859 0
M  V30 4159 H 396.066 -3.47161 2.29931 0
M  V30 4160 H 398.663 -5.34159 0.240456 0
M  V30 4161 H 399.006 -4.06446 -0.900422 0
M  V30 4162 H 399.539 -3.89872 0.79025 0
M  V30 4163 H 396.278 -5.74945 3.1483 0
M  V30 4164 H 395.798 -5.82324 1.4373 0
M  V30 4165 H 397.477 -6.18106 1.91193 0
M  V30 4166 N 397.609 -0.515225 -1.4894 0
M  V30 4167 C 398.857 0.0241671 -2.02086 0
M  V30 4168 C 399.178 1.3616 -1.3959 0
M  V30 4169 O 398.448 1.87841 -0.556121 0
M  V30 4170 H 397.028 0.0119203 -0.746905 0
M  V30 4171 H 399.69 -0.675702 -1.82812 0
M  V30 4172 H 398.786 0.143385 -3.1177 0
M  V30 4173 N 399.087 1.5561 -0.249682 0
M  V30 4174 C 400.02 2.17537 0.689408 0
M  V30 4175 C 400.998 1.12829 1.17083 0
M  V30 4176 O 402.182 1.41229 1.24846 0
M  V30 4177 C 399.309 2.77828 1.93725 0
M  V30 4178 C 398.355 3.95615 1.59346 0
M  V30 4179 S 399.188 5.30988 0.69367 0
M  V30 4180 C 400.344 5.94734 1.95046 0
M  V30 4181 H 400.577 2.96852 0.163142 0
M  V30 4182 H 398.11 1.54362 -0.0341166 0
M  V30 4183 H 400.068 3.13199 2.65361 0
M  V30 4184 H 398.729 1.98454 2.43465 0
M  V30 4185 H 397.922 4.364 2.52132 0
M  V30 4186 H 397.524 3.61535 0.957512 0
M  V30 4187 H 399.816 6.12419 2.89739 0
M  V30 4188 H 400.759 6.90109 1.58604 0
M  V30 4189 H 401.167 5.23832 2.10381 0
M  V30 4190 N 400.565 -0.0233959 1.57583 0
M  V30 4191 C 401.475 -1.03907 2.10334 0
M  V30 4192 C 402.491 -1.39257 1.04323 0
M  V30 4193 O 403.667 -1.48462 1.36091 0
M  V30 4194 C 400.732 -2.31938 2.57693 0
M  V30 4195 C 399.793 -2.03117 3.78209 0
M  V30 4196 C 399.026 -3.25043 4.233 0
M  V30 4197 O 399.249 -4.35916 3.67876 0
M  V30 4198 O 398.183 -3.10411 5.15683 0
M  V30 4199 H 402.009 -0.620748 2.97288 0
M  V30 4200 H 399.594 -0.240743 1.47448 0
M  V30 4201 H 401.476 -3.07196 2.88458 0
M  V30 4202 H 400.151 -2.73055 1.73847 0
M  V30 4203 H 399.058 -1.25408 3.52454 0
M  V30 4204 H 400.391 -1.66852 4.63056 0
M  V30 4205 N 402.043 -1.548 -0.295768 0
M  V30 4206 C 403.268 -1.78653 -1.05346 0
M  V30 4207 C 403.693 -0.546894 -1.79974 0
M  V30 4208 O 403.051 0.502763 -1.7419 0
M  V30 4209 C 403.099 -2.99679 -2.00561 0
M  V30 4210 O 402.203 -2.7317 -3.08953 0
M  V30 4211 H 401.544 -0.59116 -0.302367 0
M  V30 4212 H 404.074 -2.01895 -0.331598 0
M  V30 4213 H 404.084 -3.27793 -2.42932 0
M  V30 4214 H 402.759 -3.89562 -1.4565 0
M  V30 4215 H 401.336 -2.56089 -2.71059 0
M  V30 4216 N 403.521 0.559213 -1.47345 0
M  V30 4217 C 404.484 1.64854 -1.59235 0
M  V30 4218 C 405.484 1.53851 -0.467607 0
M  V30 4219 O 406.674 1.58045 -0.732617 0
M  V30 4220 C 403.806 3.04388 -1.53496 0
M  V30 4221 H 404.999 1.55662 -2.56339 0
M  V30 4222 H 402.552 0.778973 -1.35505 0
M  V30 4223 H 403.287 3.19115 -0.577604 0
M  V30 4224 H 403.072 3.13783 -2.35123 0
M  V30 4225 H 404.562 3.83642 -1.6495 0
M  V30 4226 N 404.999 1.35443 0.805782 0
M  V30 4227 C 406.247 1.28507 1.55982 0
M  V30 4228 C 406.568 -0.140046 1.94496 0
M  V30 4229 O 405.838 -1.07666 1.63661 0
M  V30 4230 H 404.418 0.472676 0.578434 0
M  V30 4231 H 407.08 1.69555 0.961098 0
M  V30 4232 H 406.176 1.90148 2.47488 0
M  V30 4233 N 406.477 -1.02803 1.19454 0
M  V30 4234 C 407.726 -1.7562 0.991996 0
M  V30 4235 C 408.039 -1.89672 -0.477901 0
M  V30 4236 O 409.245 -2.59468 -0.799287 0
M  V30 4237 C 407.701 -3.15812 1.72601 0
M  V30 4238 C 407.309 -3.0981 3.23607 0
M  V30 4239 C 409.053 -3.92918 1.60674 0
M  V30 4240 C 406.96 -4.44939 3.89594 0
M  V30 4241 H 405.89 -0.658352 0.367543 0
M  V30 4242 H 408.541 -1.15044 1.42959 0
M  V30 4243 H 406.923 -3.7686 1.21624 0
M  V30 4244 H 408.097 -2.58138 3.81709 0
M  V30 4245 H 406.412 -2.46201 3.35819 0
M  V30 4246 H 409.009 -4.9287 2.07323 0
M  V30 4247 H 409.352 -4.12502 0.561025 0
M  V30 4248 H 409.885 -3.38472 2.09001 0
M  V30 4249 H 406.624 -4.30559 4.94267 0
M  V30 4250 H 406.144 -4.96664 3.36281 0
M  V30 4251 H 407.823 -5.1382 3.93189 0
M  V30 4252 N 407.956 -0.998596 -1.21925 0
M  V30 4253 C 408.906 -0.524743 -2.21879 0
M  V30 4254 C 409.89 0.41017 -1.55584 0
M  V30 4255 O 411.082 0.236063 -1.75419 0
M  V30 4256 C 408.211 0.153636 -3.42956 0
M  V30 4257 C 407.297 -0.801918 -4.16449 0
M  V30 4258 N 407.688 -1.95211 -4.66611 0
M  V30 4259 C 405.986 -0.618972 -4.41684 0
M  V30 4260 C 406.687 -2.55234 -5.22715 0
M  V30 4261 N 405.663 -1.83451 -5.1171 0
M  V30 4262 H 409.465 -1.40189 -2.58311 0
M  V30 4263 H 406.979 -0.86159 -1.3766 0
M  V30 4264 H 408.976 0.510534 -4.13762 0
M  V30 4265 H 407.636 1.02684 -3.08036 0
M  V30 4266 H 408.647 -2.33271 -4.62391 0
M  V30 4267 H 405.324 0.207694 -4.16983 0
M  V30 4268 H 406.714 -3.52471 -5.72026 0
M  V30 4269 N 409.434 1.37368 -0.772513 0
M  V30 4270 C 410.344 2.34053 -0.160081 0
M  V30 4271 C 411.36 1.60216 0.678728 0
M  V30 4272 O 412.536 1.92303 0.59847 0
M  V30 4273 C 409.601 3.3939 0.708182 0
M  V30 4274 C 408.662 4.29048 -0.147172 0
M  V30 4275 C 407.895 5.29354 0.679744 0
M  V30 4276 O 408.118 5.3723 1.91678 0
M  V30 4277 O 407.052 6.01835 0.0885444 0
M  V30 4278 H 410.878 2.88159 -0.959053 0
M  V30 4279 H 408.463 1.39543 -0.533685 0
M  V30 4280 H 410.345 4.03839 1.20384 0
M  V30 4281 H 409.02 2.8761 1.48533 0
M  V30 4282 H 407.927 3.67697 -0.689205 0
M  V30 4283 H 409.26 4.84134 -0.887423 0
M  V30 4284 N 410.912 0.523116 1.48665 0
M  V30 4285 C 412.14 -0.0096312 2.06898 0
M  V30 4286 C 412.555 -1.28784 1.38059 0
M  V30 4287 O 411.912 -1.76453 0.465893 0
M  V30 4288 C 411.963 -0.244386 3.60673 0
M  V30 4289 O 411.684 0.983172 4.26925 0
M  V30 4290 C 413.185 -0.818289 4.35682 0
M  V30 4291 H 410.405 0.0304161 0.67031 0
M  V30 4292 H 412.949 0.726799 1.91149 0
M  V30 4293 H 411.104 -0.930847 3.76051 0
M  V30 4294 H 411.518 0.759653 5.1897 0
M  V30 4295 H 412.992 -0.93201 5.44075 0
M  V30 4296 H 413.469 -1.82153 3.99646 0
M  V30 4297 H 414.075 -0.168609 4.24966 0
M  V30 4298 N 412.39 -1.55475 0.257931 0
M  V30 4299 C 413.618 -2.03609 -0.367559 0
M  V30 4300 C 414.033 -1.13687 -1.50734 0
M  V30 4301 O 413.39 -0.153479 -1.81853 0
M  V30 4302 C 413.441 -3.51001 -0.864908 0
M  V30 4303 O 413.162 -4.37499 0.229465 0
M  V30 4304 C 414.663 -4.14946 -1.55997 0
M  V30 4305 H 411.883 -0.665459 -0.0860521 0
M  V30 4306 H 414.427 -2.00843 0.385014 0
M  V30 4307 H 412.582 -3.54266 -1.56762 0
M  V30 4308 H 412.996 -5.24286 -0.14998 0
M  V30 4309 H 414.47 -5.19735 -1.85956 0
M  V30 4310 H 414.947 -3.6209 -2.4857 0
M  V30 4311 H 415.553 -4.15635 -0.901543 0
M  V30 4312 N 413.868 0.0150385 -1.57593 0
M  V30 4313 C 415.098 0.713359 -1.93894 0
M  V30 4314 C 415.506 1.68663 -0.857289 0
M  V30 4315 O 414.849 1.82876 0.173788 0
M  V30 4316 C 414.911 1.51348 -3.26089 0
M  V30 4317 C 414.575 0.703451 -4.51554 0
M  V30 4318 C 415.572 -0.00237924 -5.199 0
M  V30 4319 C 413.257 0.653854 -4.98026 0
M  V30 4320 C 415.251 -0.746955 -6.33008 0
M  V30 4321 C 412.938 -0.0944578 -6.11027 0
M  V30 4322 C 413.936 -0.793609 -6.78374 0
M  V30 4323 O 413.624 -1.52974 -7.89211 0
M  V30 4324 H 413.356 0.204637 -0.644282 0
M  V30 4325 H 415.91 -0.0276411 -2.05381 0
M  V30 4326 H 414.14 2.29862 -3.10967 0
M  V30 4327 H 415.829 2.09572 -3.47612 0
M  V30 4328 H 416.595 0.0268803 -4.84993 0
M  V30 4329 H 412.474 1.18756 -4.45441 0
M  V30 4330 H 416.018 -1.2932 -6.85509 0
M  V30 4331 H 411.915 -0.125591 -6.45378 0
M  V30 4332 H 412.683 -1.44488 -8.05646 0
M  V30 4333 N 415.346 1.54954 0.287554 0
M  V30 4334 C 416.294 1.87606 1.37502 0
M  V30 4335 C 417.288 0.751001 1.51843 0
M  V30 4336 O 418.494 0.935169 1.53801 0
M  V30 4337 H 414.869 0.595231 0.459569 0
M  V30 4338 H 416.84 2.78477 1.07206 0
M  V30 4339 C 415.589 2.15183 2.73115 0
M  V30 4340 H 414.912 3.01234 2.62866 0
M  V30 4341 H 416.352 2.4196 3.48183 0
M  V30 4342 C 414.811 0.954686 3.2309 0
M  V30 4343 O 415.341 0.181949 4.01288 0
M  V30 4344 N 413.547 0.756368 2.80584 0
M  V30 4345 H 413.094 1.38643 2.17108 0
M  V30 4346 H 413.052 -0.0430391 3.14371 0
M  V30 4347 N 416.824 -0.551391 1.4764 0
M  V30 4348 C 418.049 -1.33837 1.58437 0
M  V30 4349 C 418.474 -1.866 0.237063 0
M  V30 4350 O 417.832 -1.6328 -0.787994 0
M  V30 4351 C 417.88 -2.48014 2.61766 0
M  V30 4352 O 416.984 -3.50419 2.1744 0
M  V30 4353 H 416.325 -0.397299 0.532024 0
M  V30 4354 H 418.855 -0.665759 1.93465 0
M  V30 4355 H 418.865 -2.94503 2.82369 0
M  V30 4356 H 417.54 -2.08969 3.5959 0
M  V30 4357 H 416.117 -3.10196 2.06961 0
M  V30 4358 N 418.302 -1.35869 -0.798587 0
M  V30 4359 C 419.551 -1.28921 -1.5512 0
M  V30 4360 C 419.864 0.13208 -1.95154 0
M  V30 4361 O 421.07 0.323879 -2.69561 0
M  V30 4362 C 419.526 -2.26141 -2.79979 0
M  V30 4363 C 419.134 -3.73658 -2.47151 0
M  V30 4364 C 420.878 -2.28152 -3.57976 0
M  V30 4365 C 418.785 -4.62679 -3.6835 0
M  V30 4366 H 417.715 -0.479031 -0.582276 0
M  V30 4367 H 420.366 -1.61179 -0.877125 0
M  V30 4368 H 418.748 -1.86865 -3.49138 0
M  V30 4369 H 419.922 -4.21616 -1.85947 0
M  V30 4370 H 418.237 -3.74333 -1.82383 0
M  V30 4371 H 420.834 -2.91875 -4.4801 0
M  V30 4372 H 421.177 -1.28748 -3.95891 0
M  V30 4373 H 421.71 -2.65998 -2.95787 0
M  V30 4374 H 418.449 -5.63111 -3.35538 0
M  V30 4375 H 417.969 -4.19442 -4.28752 0
M  V30 4376 H 419.648 -4.78498 -4.35487 0
M  V30 4377 N 419.78 1.02168 -1.19998 0
M  V30 4378 C 420.713 2.10232 -0.887558 0
M  V30 4379 C 421.691 1.61827 0.158317 0
M  V30 4380 O 422.875 1.88471 0.0330249 0
M  V30 4381 C 420.002 3.37092 -0.32964 0
M  V30 4382 C 419.048 4.0438 -1.3557 0
M  V30 4383 S 419.881 4.48956 -2.91888 0
M  V30 4384 C 421.037 5.79024 -2.37658 0
M  V30 4385 H 421.27 2.36409 -1.80272 0
M  V30 4386 H 418.803 1.15211 -1.0279 0
M  V30 4387 H 420.761 4.10498 -0.0142824 0
M  V30 4388 H 419.422 3.08996 0.563941 0
M  V30 4389 H 418.615 4.95632 -0.9146 0
M  V30 4390 H 418.217 3.37176 -1.61828 0
M  V30 4391 H 420.509 6.53942 -1.77103 0
M  V30 4392 H 421.452 6.27924 -3.27287 0
M  V30 4393 H 421.86 5.35043 -1.79971 0
M  V30 4394 N 421.258 1.00505 1.21394 0
M  V30 4395 C 422.205 0.565496 2.23765 0
M  V30 4396 C 423.175 -0.408466 1.60999 0
M  V30 4397 O 424.36 -0.310503 1.88257 0
M  V30 4398 C 421.5 -0.101667 3.4495 0
M  V30 4399 C 420.613 0.915479 4.22188 0
M  V30 4400 C 419.748 0.220574 5.30742 0
M  V30 4401 C 418.787 1.22527 5.99711 0
M  V30 4402 N 417.924 0.557831 6.9988 0
M  V30 4403 H 422.764 1.44314 2.60725 0
M  V30 4404 H 420.301 0.722643 1.28126 0
M  V30 4405 H 422.259 -0.505504 4.14126 0
M  V30 4406 H 420.889 -0.94303 3.08718 0
M  V30 4407 H 419.941 1.43756 3.52191 0
M  V30 4408 H 421.253 1.68005 4.69655 0
M  V30 4409 H 420.407 -0.239368 6.06228 0
M  V30 4410 H 419.146 -0.576401 4.84282 0
M  V30 4411 H 418.151 1.69571 5.22997 0
M  V30 4412 H 419.376 2.02332 6.48258 0
M  V30 4413 H 417.322 -0.219486 6.55633 0
M  V30 4414 H 417.239 1.26065 7.45415 0
M  V30 4415 H 418.507 0.121095 7.79406 0
M  V30 4416 N 422.737 -1.36956 0.779787 0
M  V30 4417 C 423.977 -2.01328 0.353043 0
M  V30 4418 C 424.341 -1.60558 -1.05286 0
M  V30 4419 O 425.542 -2.1745 -1.58016 0
M  V30 4420 C 423.813 -3.53874 0.500822 0
M  V30 4421 S 425.372 -4.38506 0.16053 0
M  V30 4422 H 422.19 -0.69799 0.13539 0
M  V30 4423 H 424.792 -1.67016 1.01617 0
M  V30 4424 H 423.496 -3.81034 1.52451 0
M  V30 4425 H 423.027 -3.92994 -0.178574 0
M  V30 4426 H 425.042 -4.85153 -1.04121 0
M  V30 4427 N 424.215 -0.530993 -1.48385 0
M  V30 4428 C 425.492 0.0671788 -1.95485 0
M  V30 4429 C 425.872 1.51191 -1.47324 0
M  V30 4430 O 425.22 2.17507 -0.700202 0
M  V30 4431 C 425.43 -0.0511206 -3.48963 0
M  V30 4432 C 426.778 0.107632 -4.24464 0
M  V30 4433 O 427.802 0.0226248 -3.56193 0
M  V30 4434 O 426.661 0.285972 -5.45751 0
M  V30 4435 H 423.755 0.0787365 -0.823243 0
M  V30 4436 H 426.301 -0.595662 -1.58902 0
M  V30 4437 H 425.073 -1.05747 -3.7674 0
M  V30 4438 H 424.696 0.650525 -3.92242 0
M  V30 4439 N 425.693 1.55336 -0.266172 0
M  V30 4440 C 426.942 1.98574 0.353749 0
M  V30 4441 C 427.255 1.15789 1.57646 0
M  V30 4442 O 428.461 1.49129 2.26876 0
M  V30 4443 C 426.917 3.53403 0.680747 0
M  V30 4444 C 426.525 4.44953 -0.52165 0
M  V30 4445 C 428.269 4.05251 1.26379 0
M  V30 4446 C 426.176 5.91156 -0.169736 0
M  V30 4447 H 425.106 0.741643 0.135949 0
M  V30 4448 H 427.757 1.79743 -0.369421 0
M  V30 4449 H 426.139 3.68001 1.46257 0
M  V30 4450 H 427.313 4.42121 -1.29869 0
M  V30 4451 H 425.628 4.03691 -1.02093 0
M  V30 4452 H 428.225 5.12021 1.54074 0
M  V30 4453 H 428.568 3.53749 2.19471 0
M  V30 4454 H 429.101 3.94057 0.544447 0
M  V30 4455 H 425.84 6.46736 -1.0683 0
M  V30 4456 H 425.36 5.97079 0.570717 0
M  V30 4457 H 427.039 6.4655 0.241245 0
M  V30 4458 N 427.171 -0.0066808 1.57599 0
M  V30 4459 C 428.448 -0.729586 1.81484 0
M  V30 4460 C 428.828 -1.92359 0.869558 0
M  V30 4461 O 428.176 -2.28348 -0.0832533 0
M  V30 4462 C 428.386 -1.1416 3.29801 0
M  V30 4463 C 429.734 -1.54823 3.95367 0
M  V30 4464 O 430.758 -1.23558 3.34084 0
M  V30 4465 O 429.617 -2.12937 5.03309 0
M  V30 4466 H 426.711 -0.354674 0.747085 0
M  V30 4467 H 429.257 0.0182609 1.6969 0
M  V30 4468 H 428.029 -0.290231 3.90222 0
M  V30 4469 H 427.652 -1.94876 3.46568 0
M  V30 4470 N 428.649 -1.55105 -0.279332 0
M  V30 4471 C 429.898 -1.74618 -1.00952 0
M  V30 4472 C 430.211 -0.551096 -1.87676 0
M  V30 4473 O 431.417 -0.628507 -2.64125 0
M  V30 4474 C 429.873 -3.09025 -1.84476 0
M  V30 4475 C 429.481 -4.36081 -1.0265 0
M  V30 4476 C 431.225 -3.37891 -2.56963 0
M  V30 4477 C 429.132 -5.6153 -1.85576 0
M  V30 4478 H 428.062 -0.650868 -0.38064 0
M  V30 4479 H 430.713 -1.81569 -0.265475 0
M  V30 4480 H 429.095 -2.96095 -2.62952 0
M  V30 4481 H 430.269 -4.59909 -0.286354 0
M  V30 4482 H 428.584 -4.14312 -0.416464 0
M  V30 4483 H 431.181 -4.28822 -3.19399 0
M  V30 4484 H 431.524 -2.57737 -3.26921 0
M  V30 4485 H 432.057 -3.5189 -1.85522 0
M  V30 4486 H 428.796 -6.44413 -1.2005 0
M  V30 4487 H 428.316 -5.41854 -2.57204 0
M  V30 4488 H 429.995 -5.99594 -2.43096 0
M  V30 4489 N 430.127 0.543554 -1.4793 0
M  V30 4490 C 431.543 0.870806 -1.3375 0
M  V30 4491 C 431.743 1.9864 -0.338261 0
M  V30 4492 O 430.799 2.51305 0.245371 0
M  V30 4493 C 432.112 1.25114 -2.73435 0
M  V30 4494 C 433.66 1.3618 -2.81823 0
M  V30 4495 C 434.135 1.77563 -4.22179 0
M  V30 4496 N 435.626 1.8469 -4.24787 0
M  V30 4497 C 436.361 2.18067 -5.30315 0
M  V30 4498 N 435.857 2.49963 -6.46135 0
M  V30 4499 N 437.65 2.18958 -5.17701 0
M  V30 4500 H 429.801 -0.19275 -2.11524 0
M  V30 4501 H 432.064 -0.0235777 -0.947707 0
M  V30 4502 H 431.77 0.50514 -3.48053 0
M  V30 4503 H 431.644 2.20431 -3.06088 0
M  V30 4504 H 434.031 2.09859 -2.07468 0
M  V30 4505 H 434.112 0.390169 -2.52807 0
M  V30 4506 H 433.756 1.04449 -4.97044 0
M  V30 4507 H 433.686 2.75753 -4.48629 0
M  V30 4508 H 436.177 1.62372 -3.41239 0
M  V30 4509 H 436.49 2.74497 -7.22406 0
M  V30 4510 H 434.835 2.47513 -6.49432 0
M  V30 4511 H 438.026 1.93488 -4.2624 0
M  V30 4512 H 438.199 2.44639 -6.00047 0
M  V30 4513 N 431.605 1.3629 0.791371 0
M  V30 4514 C 432.552 1.30458 1.90393 0
M  V30 4515 C 433.522 0.173632 1.6519 0
M  V30 4516 O 434.707 0.35983 1.87376 0
M  V30 4517 C 431.847 1.09777 3.27174 0
M  V30 4518 C 430.96 2.31929 3.64462 0
M  V30 4519 C 430.095 2.04276 4.90352 0
M  V30 4520 C 429.134 3.224 5.20312 0
M  V30 4521 N 428.271 2.94424 6.37385 0
M  V30 4522 H 433.111 2.25589 1.94714 0
M  V30 4523 H 430.648 1.12122 0.952216 0
M  V30 4524 H 432.606 0.958133 4.06049 0
M  V30 4525 H 431.236 0.183014 3.22281 0
M  V30 4526 H 430.288 2.56703 2.80727 0
M  V30 4527 H 431.6 3.20085 3.82553 0
M  V30 4528 H 430.754 1.87231 5.77087 0
M  V30 4529 H 429.493 1.13428 4.74326 0
M  V30 4530 H 428.498 3.40005 4.32061 0
M  V30 4531 H 429.723 4.14071 5.38258 0
M  V30 4532 H 427.669 2.06185 6.22755 0
M  V30 4533 H 427.586 3.76118 6.55798 0
M  V30 4534 H 428.854 2.80953 7.27108 0
M  V30 4535 N 433.083 -1.0153 1.20538 0
M  V30 4536 C 434.36 -1.72327 0.925343 0
M  V30 4537 C 434.74 -2.03383 -0.565547 0
M  V30 4538 O 434.088 -1.69934 -1.52757 0
M  V30 4539 C 434.298 -2.9902 1.79967 0
M  V30 4540 C 435.646 -3.72258 2.04228 0
M  V30 4541 O 436.67 -3.08979 1.77231 0
M  V30 4542 O 435.529 -4.86053 2.4983 0
M  V30 4543 H 432.623 -0.751099 0.346092 0
M  V30 4544 H 435.169 -1.07366 1.31417 0
M  V30 4545 H 433.941 -2.72402 2.80915 0
M  V30 4546 H 433.564 -3.71721 1.41099 0
M  V30 4547 N 434.561 -1.01147 -1.20859 0
M  V30 4548 C 435.491 -0.597663 -2.25722 0
M  V30 4549 C 436.472 0.384744 -1.65692 0
M  V30 4550 O 437.657 0.271303 -1.92296 0
M  V30 4551 C 434.787 0.0700149 -3.47229 0
M  V30 4552 C 433.741 -0.832843 -4.19819 0
M  V30 4553 C 433.067 -0.0312202 -5.34691 0
M  V30 4554 C 434.367 -2.1385 -4.76514 0
M  V30 4555 H 436.061 -1.47423 -2.60589 0
M  V30 4556 H 433.607 -0.710301 -1.25263 0
M  V30 4557 H 435.56 0.37103 -4.19763 0
M  V30 4558 H 434.284 0.981259 -3.11511 0
M  V30 4559 H 432.943 -1.11778 -3.49144 0
M  V30 4560 H 432.591 0.881515 -4.95215 0
M  V30 4561 H 432.291 -0.632434 -5.84187 0
M  V30 4562 H 433.815 0.26346 -6.10031 0
M  V30 4563 H 435.229 -1.9002 -5.40893 0
M  V30 4564 H 433.626 -2.69012 -5.36426 0
M  V30 4565 H 434.696 -2.80495 -3.95538 0
M  V30 4566 N 436.039 1.36541 -0.78704 0
M  V30 4567 C 437.269 2.03266 -0.369662 0
M  V30 4568 C 437.677 1.59481 1.01796 0
M  V30 4569 O 437.02 0.778612 1.66383 0
M  V30 4570 C 437.082 3.57779 -0.351371 0
M  V30 4571 C 436.746 4.24756 -1.68617 0
M  V30 4572 C 437.743 4.47811 -2.64124 0
M  V30 4573 C 435.428 4.62277 -1.96481 0
M  V30 4574 C 437.422 5.07464 -3.85693 0
M  V30 4575 C 435.109 5.21649 -3.18317 0
M  V30 4576 C 436.107 5.44182 -4.12741 0
M  V30 4577 O 435.795 6.02307 -5.32429 0
M  V30 4578 H 435.527 0.658977 -0.150751 0
M  V30 4579 H 438.081 1.75548 -1.0664 0
M  V30 4580 H 436.311 3.84606 0.401847 0
M  V30 4581 H 438 4.05879 0.0410147 0
M  V30 4582 H 438.766 4.19221 -2.43883 0
M  V30 4583 H 434.645 4.44065 -1.23805 0
M  V30 4584 H 438.189 5.24968 -4.59407 0
M  V30 4585 H 434.086 5.49664 -3.38437 0
M  V30 4586 H 434.854 6.20775 -5.33461 0
M  V30 4587 N 437.518 0.538854 1.48102 0
M  V30 4588 C 438.481 -0.208395 2.28251 0
M  V30 4589 C 439.481 -0.859656 1.35892 0
M  V30 4590 O 440.671 -0.71834 1.58699 0
M  V30 4591 C 437.803 -1.30252 3.15035 0
M  V30 4592 H 438.996 0.495407 2.9578 0
M  V30 4593 H 436.549 0.295112 1.53489 0
M  V30 4594 H 437.284 -2.0393 2.52157 0
M  V30 4595 H 437.069 -0.840551 3.82985 0
M  V30 4596 H 438.559 -1.82787 3.75471 0
M  V30 4597 N 438.996 -1.55193 0.274407 0
M  V30 4598 C 439.944 -2.23924 -0.629362 0
M  V30 4599 C 440.938 -1.23602 -1.1584 0
M  V30 4600 O 442.144 -1.41535 -1.11211 0
M  V30 4601 H 438.519 -0.718637 -0.221507 0
M  V30 4602 H 440.49 -2.98388 -0.0268322 0
M  V30 4603 C 439.239 -2.97329 -1.80252 0
M  V30 4604 H 438.562 -3.74313 -1.40462 0
M  V30 4605 H 440.002 -3.48743 -2.41152 0
M  V30 4606 C 438.461 -2.0276 -2.69054 0
M  V30 4607 O 438.991 -1.57836 -3.69392 0
M  V30 4608 N 437.197 -1.69275 -2.36208 0
M  V30 4609 H 436.744 -2.06004 -1.54661 0
M  V30 4610 H 436.702 -1.06271 -2.95895 0
M  V30 4611 N 440.474 -0.00167713 -1.576 0
M  V30 4612 C 441.422 1.0074 -2.09652 0
M  V30 4613 C 442.416 1.35483 -1.01689 0
M  V30 4614 O 443.622 1.34028 -1.20152 0
M  V30 4615 H 439.997 0.342537 -0.669457 0
M  V30 4616 H 441.968 0.542841 -2.93421 0
M  V30 4617 C 440.717 2.2899 -2.61647 0
M  V30 4618 H 440.04 2.03124 -3.44355 0
M  V30 4619 H 441.48 2.9787 -3.01744 0
M  V30 4620 C 439.939 3.00085 -1.53136 0
M  V30 4621 O 440.469 3.91135 -0.91524 0
M  V30 4622 N 438.675 2.6194 -1.25841 0
M  V30 4623 H 438.222 1.8798 -1.76129 0
M  V30 4624 H 438.18 3.09822 -0.534576 0
M  V30 4625 N 441.952 1.55251 0.271103 0
M  V30 4626 C 443.198 1.76207 1.00394 0
M  V30 4627 C 443.531 0.562604 1.85872 0
M  V30 4628 O 442.806 -0.439785 1.89463 0
M  V30 4629 C 443.089 3.06828 1.8849 0
M  V30 4630 C 442.942 4.37134 1.05992 0
M  V30 4631 C 444.261 3.33503 2.87165 0
M  V30 4632 H 441.38 0.641086 0.363562 0
M  V30 4633 H 444.022 1.87982 0.276189 0
M  V30 4634 H 442.172 2.96921 2.5054 0
M  V30 4635 H 443.844 4.59001 0.459978 0
M  V30 4636 H 442.087 4.32275 0.363443 0
M  V30 4637 H 442.758 5.2486 1.70955 0
M  V30 4638 H 445.234 3.43215 2.3525 0
M  V30 4639 H 444.11 4.2616 3.45946 0
M  V30 4640 H 444.371 2.53235 3.62387 0
M  V30 4641 N 443.43 -0.535701 1.48216 0
M  V30 4642 C 444.363 -1.65726 1.56876 0
M  V30 4643 C 445.341 -1.57094 0.419542 0
M  V30 4644 O 446.525 -1.77648 0.630352 0
M  V30 4645 C 443.652 -3.04096 1.49142 0
M  V30 4646 C 442.698 -3.31105 2.68834 0
M  V30 4647 S 443.531 -3.18001 4.30854 0
M  V30 4648 C 444.687 -4.58828 4.25709 0
M  V30 4649 H 444.92 -1.58129 2.51759 0
M  V30 4650 H 442.453 -0.718218 1.36678 0
M  V30 4651 H 444.411 -3.839 1.45366 0
M  V30 4652 H 443.072 -3.09139 0.556067 0
M  V30 4653 H 442.265 -4.32033 2.59545 0
M  V30 4654 H 441.867 -2.58961 2.69843 0
M  V30 4655 H 444.159 -5.5023 3.95289 0
M  V30 4656 H 445.102 -4.73172 5.26796 0
M  V30 4657 H 445.51 -4.37883 3.56257 0
M  V30 4658 N 444.908 -1.36708 -0.784132 0
M  V30 4659 C 446.133 -1.34565 -1.5782 0
M  V30 4660 C 446.558 0.0695257 -1.87971 0
M  V30 4661 O 445.916 1.04302 -1.48293 0
M  V30 4662 C 445.964 -2.17952 -2.87279 0
M  V30 4663 O 445.068 -1.57563 -3.81114 0
M  V30 4664 H 444.409 -0.460337 -0.478524 0
M  V30 4665 H 446.939 -1.80064 -0.971495 0
M  V30 4666 H 446.949 -2.30721 -3.365 0
M  V30 4667 H 445.624 -3.20823 -2.64661 0
M  V30 4668 H 444.201 -1.53764 -3.39722 0
M  V30 4669 N 446.386 1.0089 -1.21074 0
M  V30 4670 C 447.634 1.74262 -1.02358 0
M  V30 4671 C 447.955 1.89869 0.444393 0
M  V30 4672 O 447.225 1.44677 1.32081 0
M  V30 4673 H 445.805 0.645615 -0.375754 0
M  V30 4674 H 448.467 1.21596 -1.52317 0
M  V30 4675 H 447.563 2.74328 -1.4883 0
M  V30 4676 N 447.864 1.01787 1.20321 0
M  V30 4677 C 449.112 0.706538 1.89347 0
M  V30 4678 C 449.433 -0.766289 1.79313 0
M  V30 4679 O 448.703 -1.55126 1.19635 0
M  V30 4680 H 447.283 0.258348 0.700903 0
M  V30 4681 H 449.945 1.28974 1.46122 0
M  V30 4682 H 449.041 0.991066 2.95946 0
M  V30 4683 N 449.342 -1.36122 0.79427 0
M  V30 4684 C 450.57 -2.03362 0.380989 0
M  V30 4685 C 450.985 -1.59881 -1.00416 0
M  V30 4686 O 450.342 -0.790515 -1.6449 0
M  V30 4687 C 450.393 -3.58804 0.440649 0
M  V30 4688 O 450.114 -4.007 1.77118 0
M  V30 4689 C 451.615 -4.43296 0.0186117 0
M  V30 4690 H 448.835 -0.652526 0.156367 0
M  V30 4691 H 451.379 -1.73998 1.07447 0
M  V30 4692 H 449.534 -3.8686 -0.204458 0
M  V30 4693 H 449.948 -4.95309 1.72538 0
M  V30 4694 H 451.422 -5.51887 0.111488 0
M  V30 4695 H 451.899 -4.2684 -1.03461 0
M  V30 4696 H 452.505 -4.20512 0.636395 0
M  V30 4697 N 450.82 -0.546701 -1.47814 0
M  V30 4698 C 452.048 -0.0232857 -2.06887 0
M  V30 4699 C 452.463 1.26571 -1.4009 0
M  V30 4700 O 451.82 1.7569 -0.493906 0
M  V30 4701 C 451.871 0.186975 -3.61016 0
M  V30 4702 O 451.592 -1.05097 -4.25307 0
M  V30 4703 C 453.093 0.748872 -4.36929 0
M  V30 4704 H 450.313 -0.0410763 -0.669742 0
M  V30 4705 H 452.857 -0.757117 -1.89968 0
M  V30 4706 H 451.012 0.870903 -3.77484 0
M  V30 4707 H 451.426 -0.842121 -5.17695 0
M  V30 4708 H 452.9 0.845334 -5.45489 0
M  V30 4709 H 453.377 1.75772 -4.02493 0
M  V30 4710 H 453.983 0.100979 -4.2518 0
M  V30 4711 N 452.299 1.55045 -0.282633 0
M  V30 4712 C 453.232 2.18951 0.64311 0
M  V30 4713 C 454.21 1.15287 1.14664 0
M  V30 4714 O 455.394 1.43846 1.21822 0
M  V30 4715 C 452.521 2.81874 1.87789 0
M  V30 4716 C 451.567 3.98906 1.50919 0
M  V30 4717 S 452.4 5.3234 0.580884 0
M  V30 4718 C 453.556 5.98737 1.82387 0
M  V30 4719 H 453.789 2.97131 0.100138 0
M  V30 4720 H 451.322 1.54255 -0.0668514 0
M  V30 4721 H 453.28 3.18757 2.58658 0
M  V30 4722 H 451.941 2.03573 2.392 0
M  V30 4723 H 451.134 4.4165 2.42819 0
M  V30 4724 H 450.736 3.63485 0.88061 0
M  V30 4725 H 453.028 6.18427 2.76684 0
M  V30 4726 H 453.971 6.93318 1.4393 0
M  V30 4727 H 454.379 5.28177 1.99223 0
M  V30 4728 N 453.777 0.010035 1.57597 0
M  V30 4729 C 455.007 -0.682422 1.95004 0
M  V30 4730 C 455.415 -1.67278 0.884014 0
M  V30 4731 O 454.758 -1.83129 -0.144672 0
M  V30 4732 C 454.82 -1.46141 3.28456 0
M  V30 4733 C 454.484 -0.631523 4.52615 0
M  V30 4734 C 455.481 0.0850905 5.1983 0
M  V30 4735 C 453.166 -0.574539 4.99003 0
M  V30 4736 C 455.16 0.847566 6.3174 0
M  V30 4737 C 452.847 0.191655 6.10799 0
M  V30 4738 C 453.845 0.901432 6.77025 0
M  V30 4739 O 453.533 1.65511 7.86677 0
M  V30 4740 H 453.265 -0.194361 0.647456 0
M  V30 4741 H 455.819 0.060312 2.05311 0
M  V30 4742 H 454.049 -2.24885 3.14585 0
M  V30 4743 H 455.738 -2.04016 3.50902 0
M  V30 4744 H 456.504 0.0502812 4.84974 0
M  V30 4745 H 452.383 -1.11654 4.47274 0
M  V30 4746 H 455.927 1.4021 6.83364 0
M  V30 4747 H 451.824 0.228249 6.45096 0
M  V30 4748 H 452.592 1.57287 8.03245 0
M  V30 4749 N 455.255 -1.55392 -0.262866 0
M  V30 4750 C 456.666 -1.67079 -0.833158 0
M  V30 4751 C 457.017 -0.604539 -1.86654 0
M  V30 4752 O 456.142 0.252138 -2.14926 0
M  V30 4753 C 456.737 -3.02891 -1.51797 0
M  V30 4754 C 455.296 -3.16571 -2.03617 0
M  V30 4755 C 454.443 -2.62909 -0.881701 0
M  V30 4756 H 457.394 -1.58652 -0.0389986 0
M  V30 4757 H 457.415 -2.96445 -2.38538 0
M  V30 4758 H 456.927 -3.80473 -0.765619 0
M  V30 4759 H 455.028 -2.43782 -2.81782 0
M  V30 4760 H 455.141 -4.23271 -2.24452 0
M  V30 4761 H 453.505 -2.20324 -1.27786 0
M  V30 4762 H 454.288 -3.43003 -0.14269 0
M  V30 4763 N 456.733 0.527833 -1.48498 0
M  V30 4764 C 457.981 1.28101 -1.56316 0
M  V30 4765 C 458.302 1.9352 -0.239781 0
M  V30 4766 O 457.572 1.81433 0.738849 0
M  V30 4767 H 456.152 0.475793 -0.575873 0
M  V30 4768 H 458.814 0.614052 -1.84974 0
M  V30 4769 H 457.91 2.05916 -2.34532 0
M  V30 4770 N 458.211 1.37122 0.776871 0
M  V30 4771 C 459.46 1.31373 1.53049 0
M  V30 4772 C 459.773 -0.101016 1.95339 0
M  V30 4773 O 460.979 -0.280953 2.70042 0
M  V30 4774 C 459.435 2.30567 2.76346 0
M  V30 4775 C 459.043 3.77543 2.41175 0
M  V30 4776 C 460.787 2.33818 3.54301 0
M  V30 4777 C 458.694 4.68481 3.60943 0
M  V30 4778 H 457.624 0.488234 0.574581 0
M  V30 4779 H 460.275 1.62554 0.851372 0
M  V30 4780 H 458.657 1.92396 3.46121 0
M  V30 4781 H 459.831 4.24521 1.79216 0
M  V30 4782 H 458.146 3.77187 1.76405 0
M  V30 4783 H 460.743 2.98965 4.4331 0
M  V30 4784 H 461.086 1.3503 3.93793 0
M  V30 4785 H 461.619 2.7067 2.91518 0
M  V30 4786 H 458.358 5.68378 3.26537 0
M  V30 4787 H 457.878 4.2621 4.22025 0
M  V30 4788 H 459.557 4.85366 4.27819 0
M  V30 4789 N 459.689 -1.00246 1.21608 0
M  V30 4790 C 460.652 -2.07233 0.979133 0
M  V30 4791 C 461.652 -1.6072 -0.0508219 0
M  V30 4792 O 462.842 -1.73196 0.186712 0
M  V30 4793 C 459.974 -3.37546 0.477016 0
M  V30 4794 H 461.167 -2.29687 1.92831 0
M  V30 4795 H 458.72 -1.17261 1.03342 0
M  V30 4796 H 459.455 -3.20773 -0.476966 0
M  V30 4797 H 459.24 -3.72638 1.21997 0
M  V30 4798 H 460.73 -4.16285 0.331181 0
M  V30 4799 N 461.167 -1.02423 -1.1978 0
M  V30 4800 C 462.444 -0.632802 -1.85081 0
M  V30 4801 C 462.824 0.888745 -1.9148 0
M  V30 4802 O 462.172 1.78357 -1.42832 0
M  V30 4803 C 462.382 -1.28947 -3.24305 0
M  V30 4804 C 463.73 -1.40976 -4.00513 0
M  V30 4805 O 464.754 -1.24628 -3.33686 0
M  V30 4806 O 463.613 -1.67467 -5.20209 0
M  V30 4807 H 460.707 -0.219348 -0.79738 0
M  V30 4808 H 463.253 -1.12209 -1.27307 0
M  V30 4809 H 462.025 -2.3288 -3.14456 0
M  V30 4810 H 461.648 -0.787748 -3.89718 0
M  V30 4811 N 462.645 1.35699 -0.801477 0
M  V30 4812 C 464.061 1.52065 -0.484596 0
M  V30 4813 C 464.261 1.75215 0.995084 0
M  V30 4814 O 463.317 1.79061 1.78026 0
M  V30 4815 C 464.63 2.69908 -1.32552 0
M  V30 4816 C 466.178 2.83784 -1.32044 0
M  V30 4817 C 466.653 4.04646 -2.14536 0
M  V30 4818 N 468.144 4.11814 -2.12046 0
M  V30 4819 C 468.879 5.04437 -2.72636 0
M  V30 4820 N 468.375 6.02426 -3.42133 0
M  V30 4821 N 470.168 4.97144 -2.62305 0
M  V30 4822 H 462.319 1.18928 -1.75983 0
M  V30 4823 H 464.582 0.581455 -0.748741 0
M  V30 4824 H 464.288 2.59363 -2.37537 0
M  V30 4825 H 464.162 3.64376 -0.975181 0
M  V30 4826 H 466.549 2.93783 -0.27846 0
M  V30 4827 H 466.63 1.90188 -1.71062 0
M  V30 4828 H 466.274 3.95407 -3.18772 0
M  V30 4829 H 466.204 4.97413 -1.72882 0
M  V30 4830 H 468.695 3.41664 -1.61476 0
M  V30 4831 H 469.008 6.69688 -3.85666 0
M  V30 4832 H 467.353 6.02615 -3.46237 0
M  V30 4833 H 470.544 4.19546 -2.07603 0
M  V30 4834 H 470.717 5.69138 -3.09815 0
M  V30 4835 N 464.123 0.554532 1.47522 0
M  V30 4836 C 465.056 -0.242442 2.26908 0
M  V30 4837 C 466.034 -0.922722 1.33883 0
M  V30 4838 O 467.218 -0.942244 1.63261 0
M  V30 4839 C 464.345 -1.34525 3.10839 0
M  V30 4840 C 463.391 -0.773805 4.19422 0
M  V30 4841 S 464.224 0.377525 5.34168 0
M  V30 4842 C 465.38 -0.727164 6.21662 0
M  V30 4843 H 465.613 0.431218 2.94156 0
M  V30 4844 H 463.146 0.3408 1.50592 0
M  V30 4845 H 465.104 -1.97683 3.59766 0
M  V30 4846 H 463.765 -1.99073 2.42958 0
M  V30 4847 H 462.958 -1.60187 4.77866 0
M  V30 4848 H 462.56 -0.218448 3.73361 0
M  V30 4849 H 464.852 -1.61992 6.57849 0
M  V30 4850 H 465.795 -0.180135 7.07871 0
M  V30 4851 H 466.203 -1.01863 5.55233 0
M  V30 4852 N 465.601 -1.54893 0.290851 0
M  V30 4853 C 466.533 -2.20564 -0.623236 0
M  V30 4854 C 467.546 -1.19519 -1.1054 0
M  V30 4855 O 468.735 -1.46165 -1.02459 0
M  V30 4856 C 465.835 -2.83033 -1.86401 0
M  V30 4857 C 465.008 -4.09916 -1.52604 0
M  V30 4858 C 464.067 -4.56284 -2.62091 0
M  V30 4859 O 463.093 -5.2171 -2.27612 0
M  V30 4860 N 464.295 -4.27746 -3.92446 0
M  V30 4861 H 467.06 -2.99638 -0.0610915 0
M  V30 4862 H 464.621 -1.61508 0.112615 0
M  V30 4863 H 466.613 -3.1099 -2.58973 0
M  V30 4864 H 465.183 -2.0786 -2.33481 0
M  V30 4865 H 464.403 -3.89078 -0.633424 0
M  V30 4866 H 465.691 -4.92554 -1.27547 0
M  V30 4867 H 465.089 -3.7531 -4.23272 0
M  V30 4868 H 463.646 -4.60437 -4.61347 0
M  V30 4869 N 467.08 -0.0183926 -1.57589 0
M  V30 4870 C 468.027 0.967022 -2.09565 0
M  V30 4871 C 468.997 1.32983 -0.995225 0
M  V30 4872 O 470.182 1.42501 -1.26878 0
M  V30 4873 C 467.322 2.24772 -2.61861 0
M  V30 4874 C 466.435 1.94232 -3.85873 0
M  V30 4875 C 465.57 3.16518 -4.26603 0
M  V30 4876 C 464.609 2.81748 -5.43401 0
M  V30 4877 N 463.746 3.96626 -5.79338 0
M  V30 4878 H 468.586 0.516874 -2.93483 0
M  V30 4879 H 466.123 0.243544 -1.4507 0
M  V30 4880 H 468.081 2.99667 -2.90268 0
M  V30 4881 H 466.711 2.67423 -1.8079 0
M  V30 4882 H 465.763 1.09625 -3.64262 0
M  V30 4883 H 467.075 1.64616 -4.70853 0
M  V30 4884 H 466.229 3.99743 -4.56389 0
M  V30 4885 H 464.968 3.49286 -3.40368 0
M  V30 4886 H 463.973 1.96933 -5.1332 0
M  V30 4887 H 465.198 2.50207 -6.31327 0
M  V30 4888 H 463.144 4.29257 -4.96059 0
M  V30 4889 H 463.061 3.70598 -6.58933 0
M  V30 4890 H 464.329 4.80586 -6.13724 0
M  V30 4891 N 468.558 1.5553 0.254621 0
M  V30 4892 C 469.468 1.92789 1.33677 0
M  V30 4893 C 470.484 0.827356 1.53071 0
M  V30 4894 O 471.66 1.12807 1.66843 0
M  V30 4895 C 468.725 2.20827 2.67275 0
M  V30 4896 C 467.786 3.4427 2.5647 0
M  V30 4897 C 467.019 3.70961 3.83697 0
M  V30 4898 O 467.242 2.99852 4.85227 0
M  V30 4899 O 466.176 4.64491 3.82794 0
M  V30 4900 H 470.002 2.84945 1.05071 0
M  V30 4901 H 467.587 1.42312 0.454723 0
M  V30 4902 H 469.469 2.40204 3.46237 0
M  V30 4903 H 468.144 1.31851 2.9563 0
M  V30 4904 H 467.051 3.30209 1.75821 0
M  V30 4905 H 468.384 4.33524 2.33062 0
M  V30 4906 N 470.036 -0.519951 1.48776 0
M  V30 4907 C 471.285 -1.27175 1.56555 0
M  V30 4908 C 471.598 -1.9401 0.248869 0
M  V30 4909 O 472.804 -2.70725 0.205004 0
M  V30 4910 C 471.26 -2.30811 2.76142 0
M  V30 4911 C 470.868 -1.7 4.14493 0
M  V30 4912 C 472.612 -3.06937 2.9324 0
M  V30 4913 C 470.519 -2.71635 5.25327 0
M  V30 4914 H 469.449 -0.478329 0.582853 0
M  V30 4915 H 472.1 -0.547916 1.75129 0
M  V30 4916 H 470.482 -3.06274 2.51023 0
M  V30 4917 H 471.656 -1.00658 4.49672 0
M  V30 4918 H 469.971 -1.06331 4.02595 0
M  V30 4919 H 472.568 -3.82905 3.73213 0
M  V30 4920 H 472.911 -3.63409 2.03075 0
M  V30 4921 H 473.444 -2.38589 3.18308 0
M  V30 4922 H 470.183 -2.1997 6.1749 0
M  V30 4923 H 469.703 -3.39275 4.94624 0
M  V30 4924 H 471.382 -3.34429 5.53865 0
M  V30 4925 N 471.514 -1.37532 -0.769588 0
M  V30 4926 C 472.742 -1.36059 -1.55871 0
M  V30 4927 C 473.157 0.053544 -1.88724 0
M  V30 4928 O 472.514 1.01591 -1.5161 0
M  V30 4929 C 472.565 -2.20107 -2.86767 0
M  V30 4930 O 472.286 -3.56009 -2.55321 0
M  V30 4931 C 473.787 -2.26636 -3.80987 0
M  V30 4932 H 471.007 -0.465967 -0.482821 0
M  V30 4933 H 473.551 -1.80901 -0.953686 0
M  V30 4934 H 471.706 -1.78768 -3.43687 0
M  V30 4935 H 472.12 -4.0009 -3.39158 0
M  V30 4936 H 473.594 -2.89763 -4.69831 0
M  V30 4937 H 474.071 -1.2754 -4.20274 0
M  V30 4938 H 474.677 -2.68296 -3.29996 0
M  V30 4939 N 472.992 0.995999 -1.22138 0
M  V30 4940 C 473.955 2.06711 -0.990109 0
M  V30 4941 C 474.955 1.60744 0.0422978 0
M  V30 4942 O 476.145 1.73095 -0.195895 0
M  V30 4943 C 473.277 3.37288 -0.49491 0
M  V30 4944 H 474.47 2.28661 -1.94047 0
M  V30 4945 H 472.023 1.16711 -1.03963 0
M  V30 4946 H 472.758 3.21022 0.459948 0
M  V30 4947 H 472.543 3.71986 -1.23971 0
M  V30 4948 H 474.033 4.16103 -0.353253 0
M  V30 4949 N 474.47 1.03057 1.19235 0
M  V30 4950 C 475.4 0.633497 2.24742 0
M  V30 4951 C 476.381 -0.358335 1.66283 0
M  V30 4952 O 477.566 -0.240676 1.92703 0
M  V30 4953 C 474.696 -0.0147648 3.47297 0
M  V30 4954 C 473.65 0.899527 4.18441 0
M  V30 4955 C 472.976 0.116281 5.34574 0
M  V30 4956 C 474.276 2.21404 4.73051 0
M  V30 4957 H 475.97 1.5155 2.58211 0
M  V30 4958 H 473.516 0.73014 1.24117 0
M  V30 4959 H 475.469 -0.304202 4.20301 0
M  V30 4960 H 474.193 -0.931577 3.13032 0
M  V30 4961 H 472.852 1.17319 3.47321 0
M  V30 4962 H 472.5 -0.802619 4.96555 0
M  V30 4963 H 472.2 0.725293 5.83107 0
M  V30 4964 H 473.724 -0.166376 6.10373 0
M  V30 4965 H 475.138 1.98601 5.37802 0
M  V30 4966 H 473.535 2.77512 5.32078 0
M  V30 4967 H 474.605 2.86752 3.91026 0
M  V30 4968 N 475.948 -1.35272 0.808662 0
M  V30 4969 C 476.911 -2.28082 0.226093 0
M  V30 4970 C 477.911 -1.49673 -0.587762 0
M  V30 4971 O 479.101 -1.69404 -0.405943 0
M  V30 4972 C 476.233 -3.33955 -0.684596 0
M  V30 4973 H 477.426 -2.81116 1.04469 0
M  V30 4974 H 474.979 -1.45162 0.579466 0
M  V30 4975 H 475.714 -2.86111 -1.5268 0
M  V30 4976 H 475.499 -3.91965 -0.102699 0
M  V30 4977 H 476.989 -4.03219 -1.08646 0
M  V30 4978 N 477.426 -0.562348 -1.47226 0
M  V30 4979 C 478.837 -0.130325 -1.86245 0
M  V30 4980 C 479.188 1.30128 -1.46838 0
M  V30 4981 O 478.313 1.97974 -0.873805 0
M  V30 4982 C 478.908 -0.229738 -3.3802 0
M  V30 4983 C 477.467 0.14728 -3.76112 0
M  V30 4984 C 476.614 -0.574971 -2.71274 0
M  V30 4985 H 479.565 -0.771773 -1.3867 0
M  V30 4986 H 479.586 0.550316 -3.76499 0
M  V30 4987 H 479.098 -1.27178 -3.66671 0
M  V30 4988 H 477.199 1.19023 -3.53078 0
M  V30 4989 H 477.312 -0.214858 -4.78618 0
M  V30 4990 H 475.676 -0.0174756 -2.54694 0
M  V30 4991 H 476.459 -1.61827 -3.02766 0
M  V30 4992 N 478.904 1.54736 -0.299062 0
M  V30 4993 C 480.129 2.04975 0.316254 0
M  V30 4994 C 480.554 1.17501 1.46885 0
M  V30 4995 O 479.912 0.178678 1.80417 0
M  V30 4996 C 479.96 3.52672 0.751997 0
M  V30 4997 O 479.064 3.68226 1.85697 0
M  V30 4998 H 478.405 0.661126 0.0617175 0
M  V30 4999 H 480.935 1.99805 -0.440341 0
M  V30 5000 H 480.945 3.94488 1.04133 0
M  V30 5001 H 479.62 4.158 -0.0911482 0
M  V30 5002 H 478.197 3.38316 1.56834 0
M  V30 5003 N 480.382 0.0267497 1.57577 0
M  V30 5004 C 481.61 -0.662661 1.96001 0
M  V30 5005 C 482.025 -1.65799 0.903117 0
M  V30 5006 O 481.382 -1.82135 -0.115317 0
M  V30 5007 C 481.433 -1.37112 3.34488 0
M  V30 5008 O 481.154 -0.415683 4.36123 0
M  V30 5009 C 482.655 -2.15257 3.8753 0
M  V30 5010 H 479.875 -0.18287 0.6456 0
M  V30 5011 H 482.419 0.0858116 2.0432 0
M  V30 5012 H 480.574 -2.07101 3.27395 0
M  V30 5013 H 480.988 -0.918496 5.16395 0
M  V30 5014 H 482.462 -2.60285 4.86781 0
M  V30 5015 H 482.939 -2.99063 3.21649 0
M  V30 5016 H 483.545 -1.50231 3.97883 0
M  V30 5017 N 481.861 -1.55662 -0.24637 0
M  V30 5018 C 482.794 -1.85332 -1.33143 0
M  V30 5019 C 483.772 -0.708464 -1.46354 0
M  V30 5020 O 484.956 -0.954274 -1.6256 0
M  V30 5021 C 482.083 -2.0385 -2.70487 0
M  V30 5022 C 481.129 -3.26488 -2.74423 0
M  V30 5023 S 481.962 -4.83124 -2.30979 0
M  V30 5024 C 483.118 -5.04647 -3.70246 0
M  V30 5025 H 483.351 -2.77077 -1.07777 0
M  V30 5026 H 480.884 -1.47776 -0.44738 0
M  V30 5027 H 482.842 -2.15202 -3.49569 0
M  V30 5028 H 481.503 -1.12947 -2.9309 0
M  V30 5029 H 480.696 -3.36413 -3.7529 0
M  V30 5030 H 480.298 -3.13864 -2.03385 0
M  V30 5031 H 482.59 -4.92023 -4.65746 0
M  V30 5032 H 483.533 -6.06625 -3.65255 0
M  V30 5033 H 483.941 -4.32491 -3.62784 0
M  V30 5034 N 483.339 0.512053 -1.4905 0
M  V30 5035 C 484.286 1.6148 -1.64902 0
M  V30 5036 C 485.256 1.58687 -0.490673 0
M  V30 5037 O 486.441 1.76842 -0.71636 0
M  V30 5038 C 483.581 2.99676 -1.71139 0
M  V30 5039 C 482.694 3.12568 -2.98203 0
M  V30 5040 C 481.829 4.4143 -2.95487 0
M  V30 5041 C 480.868 4.47916 -4.17179 0
M  V30 5042 N 480.005 5.68191 -4.12437 0
M  V30 5043 H 484.845 1.47271 -2.59066 0
M  V30 5044 H 482.382 0.716713 -1.28459 0
M  V30 5045 H 484.34 3.79761 -1.72736 0
M  V30 5046 H 482.97 3.12614 -0.804508 0
M  V30 5047 H 482.022 2.25618 -3.06269 0
M  V30 5048 H 483.334 3.1322 -3.88194 0
M  V30 5049 H 482.488 5.29825 -2.95585 0
M  V30 5050 H 481.227 4.43326 -2.03256 0
M  V30 5051 H 480.232 3.57925 -4.17337 0
M  V30 5052 H 481.457 4.47744 -5.1059 0
M  V30 5053 H 479.403 5.7095 -3.23036 0
M  V30 5054 H 479.32 5.70413 -4.96151 0
M  V30 5055 H 480.588 6.58823 -4.16621 0
M  V30 5056 N 484.817 1.37938 0.762283 0
M  V30 5057 C 486.066 1.32989 1.51647 0
M  V30 5058 C 486.379 -0.0802922 1.95435 0
M  V30 5059 O 487.585 -0.252295 2.70325 0
M  V30 5060 C 486.041 2.33485 2.73885 0
M  V30 5061 C 485.649 3.80079 2.37157 0
M  V30 5062 C 487.393 2.37563 3.51801 0
M  V30 5063 C 485.3 4.72283 3.55954 0
M  V30 5064 H 484.23 0.494301 0.56937 0
M  V30 5065 H 486.881 1.63448 0.834083 0
M  V30 5066 H 485.263 1.96056 3.44061 0
M  V30 5067 H 486.437 4.26398 1.74704 0
M  V30 5068 H 484.752 3.79037 1.72395 0
M  V30 5069 H 487.349 3.0365 4.40114 0
M  V30 5070 H 487.692 1.39199 3.92338 0
M  V30 5071 H 488.225 2.73747 2.8863 0
M  V30 5072 H 484.964 5.7181 3.2049 0
M  V30 5073 H 484.484 4.30663 4.1748 0
M  V30 5074 H 486.163 4.89876 4.22647 0
M  V30 5075 N 486.295 -0.989507 1.22664 0
M  V30 5076 C 487.242 -2.08024 0.999733 0
M  V30 5077 C 488.212 -1.65909 -0.0797047 0
M  V30 5078 O 489.397 -1.90669 0.0705715 0
M  V30 5079 C 486.537 -3.40067 0.587234 0
M  V30 5080 C 485.65 -3.95505 1.73781 0
M  V30 5081 C 484.785 -5.15722 1.27297 0
M  V30 5082 C 483.824 -5.63305 2.39488 0
M  V30 5083 N 482.961 -6.74758 1.94026 0
M  V30 5084 H 487.801 -2.26768 1.9334 0
M  V30 5085 H 485.338 -1.11171 0.963297 0
M  V30 5086 H 487.296 -4.15899 0.329227 0
M  V30 5087 H 485.926 -3.21314 -0.309426 0
M  V30 5088 H 484.978 -3.16513 2.11006 0
M  V30 5089 H 486.29 -4.26797 2.58158 0
M  V30 5090 H 485.444 -5.98854 0.972546 0
M  V30 5091 H 484.183 -4.86061 0.399445 0
M  V30 5092 H 483.188 -4.78759 2.70315 0
M  V30 5093 H 484.413 -5.94988 3.27362 0
M  V30 5094 H 482.359 -6.46874 1.09041 0
M  V30 5095 H 482.276 -7.05386 2.71968 0
M  V30 5096 H 483.544 -7.61387 1.67062 0
M  V30 5097 N 487.773 -1.03688 -1.18687 0
M  V30 5098 C 489.022 -0.733235 -1.879 0
M  V30 5099 C 489.335 0.741745 -1.8099 0
M  V30 5100 O 490.541 1.15875 -2.4553 0
M  V30 5101 C 488.997 -1.26127 -3.37076 0
M  V30 5102 C 488.605 -2.76461 -3.52524 0
M  V30 5103 C 490.349 -1.03398 -4.11715 0
M  V30 5104 C 488.256 -3.22642 -4.95637 0
M  V30 5105 H 487.186 -0.270584 -0.703776 0
M  V30 5106 H 489.837 -1.25222 -1.34133 0
M  V30 5107 H 488.219 -0.670165 -3.90288 0
M  V30 5108 H 489.393 -3.41296 -3.09602 0
M  V30 5109 H 487.708 -2.97559 -2.91286 0
M  V30 5110 H 490.305 -1.3542 -5.17267 0
M  V30 5111 H 490.648 0.0289246 -4.1629 0
M  V30 5112 H 491.181 -1.5895 -3.64664 0
M  V30 5113 H 487.92 -4.28296 -4.96228 0
M  V30 5114 H 487.44 -2.62539 -5.39289 0
M  V30 5115 H 489.119 -3.16444 -5.64333 0
M  V30 5116 N 489.251 1.34841 -0.815825 0
M  V30 5117 C 490.5 1.97755 -0.396976 0
M  V30 5118 C 490.813 1.65422 1.04379 0
M  V30 5119 O 492.019 2.21771 1.5662 0
M  V30 5120 C 490.475 3.53818 -0.658869 0
M  V30 5121 C 490.083 3.95051 -2.11278 0
M  V30 5122 C 491.827 4.23397 -0.305834 0
M  V30 5123 C 489.734 5.43997 -2.31994 0
M  V30 5124 H 488.664 0.739985 -0.1447 0
M  V30 5125 H 491.315 1.53781 -1.00118 0
M  V30 5126 H 489.697 3.95997 0.0154112 0
M  V30 5127 H 490.871 3.63998 -2.82564 0
M  V30 5128 H 489.186 3.38388 -2.42657 0
M  V30 5129 H 491.783 5.32899 -0.43854 0
M  V30 5130 H 492.126 4.09508 0.748952 0
M  V30 5131 H 492.659 3.8667 -0.934403 0
M  V30 5132 H 489.398 5.62865 -3.35952 0
M  V30 5133 H 488.918 5.76589 -1.65244 0
M  V30 5134 H 490.597 6.10584 -2.14001 0
M  V30 5135 N 490.729 0.570148 1.46925 0
M  V30 5136 C 491.692 -0.159933 2.28641 0
M  V30 5137 C 492.692 -0.830638 1.37685 0
M  V30 5138 O 493.882 -0.684516 1.60187 0
M  V30 5139 C 491.014 -1.2354 3.17727 0
M  V30 5140 H 492.207 0.558035 2.94662 0
M  V30 5141 H 489.76 0.327603 1.52828 0
M  V30 5142 H 490.495 -1.98535 2.56426 0
M  V30 5143 H 490.28 -0.759125 3.84681 0
M  V30 5144 H 491.77 -1.74782 3.79264 0
M  V30 5145 N 492.207 -1.54576 0.307264 0
M  V30 5146 C 493.618 -1.8579 -0.184121 0
M  V30 5147 C 493.969 -1.22914 -1.52927 0
M  V30 5148 O 493.094 -0.529126 -2.09831 0
M  V30 5149 C 493.689 -3.37081 -0.340862 0
M  V30 5150 C 492.248 -3.68304 -0.776465 0
M  V30 5151 C 491.395 -2.77076 0.111503 0
M  V30 5152 H 494.346 -1.49656 0.528078 0
M  V30 5153 H 494.367 -3.61922 -1.17443 0
M  V30 5154 H 493.879 -3.82815 0.638309 0
M  V30 5155 H 491.98 -3.28092 -1.76596 0
M  V30 5156 H 492.093 -4.75434 -0.591512 0
M  V30 5157 H 490.457 -2.51374 -0.410256 0
M  V30 5158 H 491.24 -3.25632 1.08714 0
M  V30 5159 N 493.685 -0.035106 -1.57561 0
M  V30 5160 C 495.096 0.502885 -1.798 0
M  V30 5161 C 495.447 1.71892 -0.945921 0
M  V30 5162 O 494.572 2.15822 -0.157991 0
M  V30 5163 C 495.167 0.919097 -3.26095 0
M  V30 5164 C 493.726 1.40216 -3.49308 0
M  V30 5165 C 492.873 0.369709 -2.74824 0
M  V30 5166 H 495.824 -0.261102 -1.56537 0
M  V30 5167 H 495.845 1.78308 -3.36135 0
M  V30 5168 H 495.357 0.0338526 -3.88085 0
M  V30 5169 H 493.458 2.30714 -2.92578 0
M  V30 5170 H 493.571 1.40541 -4.58023 0
M  V30 5171 H 491.935 0.839113 -2.40481 0
M  V30 5172 H 492.718 -0.507173 -3.39533 0
M  V30 5173 N 495.163 1.55791 0.238111 0
M  V30 5174 C 496.073 1.94196 1.31625 0
M  V30 5175 C 497.089 0.843545 1.52185 0
M  V30 5176 O 498.265 1.1457 1.65637 0
M  V30 5177 C 495.33 2.2365 2.64918 0
M  V30 5178 C 494.391 3.46971 2.52804 0
M  V30 5179 C 493.624 3.7501 3.79741 0
M  V30 5180 O 493.847 3.04982 4.82019 0
M  V30 5181 O 492.781 4.68525 3.77846 0
M  V30 5182 H 496.607 2.86044 1.02043 0
M  V30 5183 H 494.192 1.42786 0.439603 0
M  V30 5184 H 496.074 2.43863 3.4367 0
M  V30 5185 H 494.749 1.34979 2.94215 0
M  V30 5186 H 493.656 3.32055 1.72309 0
M  V30 5187 H 494.989 4.35971 2.28451 0
M  V30 5188 N 496.642 -0.504142 1.49319 0
M  V30 5189 C 498.058 -0.835039 1.36012 0
M  V30 5190 C 498.258 -1.97674 0.390808 0
M  V30 5191 O 497.314 -2.51867 -0.178655 0
M  V30 5192 C 498.627 -1.17821 2.76656 0
M  V30 5193 C 500.175 -1.2866 2.85334 0
M  V30 5194 C 500.65 -1.66307 4.26739 0
M  V30 5195 N 502.141 -1.73362 4.29534 0
M  V30 5196 C 502.876 -2.0393 5.35911 0
M  V30 5197 N 502.372 -2.32744 6.52535 0
M  V30 5198 N 504.165 -2.05155 5.23324 0
M  V30 5199 H 496.316 0.248764 2.10938 0
M  V30 5200 H 498.579 0.0486962 0.946748 0
M  V30 5201 H 498.285 -0.412682 3.4927 0
M  V30 5202 H 498.159 -2.12239 3.11825 0
M  V30 5203 H 500.546 -2.04285 2.1296 0
M  V30 5204 H 500.627 -0.323004 2.53752 0
M  V30 5205 H 500.271 -0.91234 4.99639 0
M  V30 5206 H 500.201 -2.63761 4.55782 0
M  V30 5207 H 502.692 -1.53268 3.45424 0
M  V30 5208 H 503.005 -2.55248 7.2943 0
M  V30 5209 H 501.35 -2.30207 6.55767 0
M  V30 5210 H 504.541 -1.82119 4.3122 0
M  V30 5211 H 504.714 -2.28644 6.06322 0
M  V30 5212 N 498.12 -1.38341 -0.754957 0
M  V30 5213 C 499.067 -1.3546 -1.86867 0
M  V30 5214 C 500.037 -0.217369 -1.64672 0
M  V30 5215 O 501.222 -0.409383 -1.86356 0
M  V30 5216 C 498.362 -1.18413 -3.24149 0
M  V30 5217 C 497.475 -2.41511 -3.58185 0
M  V30 5218 C 496.61 -2.17205 -4.84763 0
M  V30 5219 C 495.649 -3.36081 -5.11582 0
M  V30 5220 N 494.786 -3.11219 -6.29354 0
M  V30 5221 H 499.626 -2.30672 -1.88664 0
M  V30 5222 H 497.163 -1.14607 -0.922154 0
M  V30 5223 H 499.121 -1.06545 -4.03366 0
M  V30 5224 H 497.751 -0.268397 -3.21682 0
M  V30 5225 H 496.803 -2.64056 -2.73822 0
M  V30 5226 H 498.115 -3.30115 -3.73932 0
M  V30 5227 H 497.269 -2.02465 -5.7192 0
M  V30 5228 H 496.008 -1.25964 -4.71152 0
M  V30 5229 H 495.013 -3.51341 -4.22894 0
M  V30 5230 H 496.238 -4.28196 -5.27091 0
M  V30 5231 H 494.184 -2.22624 -6.17069 0
M  V30 5232 H 494.101 -3.93373 -6.45596 0
M  V30 5233 H 495.369 -3.00132 -7.19403 0
M  V30 5234 N 499.598 0.982988 -1.23187 0
M  V30 5235 C 500.828 1.75666 -1.08743 0
M  V30 5236 C 501.236 1.85662 0.364195 0
M  V30 5237 O 500.579 1.33317 1.26382 0
M  V30 5238 C 500.641 3.20144 -1.63549 0
M  V30 5239 C 500.305 3.33665 -3.12277 0
M  V30 5240 C 501.302 3.20194 -4.096 0
M  V30 5241 C 498.987 3.58397 -3.51933 0
M  V30 5242 C 500.981 3.31256 -5.44563 0
M  V30 5243 C 498.668 3.69098 -4.87042 0
M  V30 5244 C 499.666 3.55537 -5.83166 0
M  V30 5245 O 499.354 3.65864 -7.1582 0
M  V30 5246 H 499.086 0.558194 -0.381307 0
M  V30 5247 H 501.64 1.24387 -1.63454 0
M  V30 5248 H 499.87 3.72659 -1.03256 0
M  V30 5249 H 501.559 3.79262 -1.4462 0
M  V30 5250 H 502.325 3.00987 -3.80305 0
M  V30 5251 H 498.204 3.68025 -2.77631 0
M  V30 5252 H 501.748 3.20588 -6.19572 0
M  V30 5253 H 497.645 3.87814 -5.16014 0
M  V30 5254 H 498.413 3.82675 -7.23534 0
M  V30 5255 N 501.076 1.04316 1.18135 0
M  V30 5256 C 502.301 0.768047 1.92655 0
M  V30 5257 C 502.726 -0.66904 1.758 0
M  V30 5258 O 502.084 -1.46372 1.06981 0
M  V30 5259 C 502.132 1.14239 3.42026 0
M  V30 5260 O 501.236 0.269333 4.1152 0
M  V30 5261 H 500.577 0.282436 0.600937 0
M  V30 5262 H 503.107 1.39367 1.49793 0
M  V30 5263 H 503.117 1.10538 3.92741 0
M  V30 5264 H 501.792 2.18928 3.53615 0
M  V30 5265 H 500.369 0.366175 3.71098 0
M  V30 5266 N 502.554 -1.34406 0.822964 0
M  V30 5267 C 503.8 -1.98578 0.411666 0
M  V30 5268 C 504.133 -1.65093 -1.02264 0
M  V30 5269 O 503.408 -0.92258 -1.71227 0
M  V30 5270 C 503.691 -3.54823 0.614235 0
M  V30 5271 C 503.544 -3.9805 2.09466 0
M  V30 5272 C 504.863 -4.40071 0.050221 0
M  V30 5273 H 501.982 -0.721355 0.151047 0
M  V30 5274 H 504.624 -1.59301 1.03554 0
M  V30 5275 H 502.774 -3.88411 0.0831774 0
M  V30 5276 H 504.446 -3.74795 2.68936 0
M  V30 5277 H 502.689 -3.4836 2.5851 0
M  V30 5278 H 503.36 -5.06819 2.18721 0
M  V30 5279 H 505.836 -4.13037 0.503953 0
M  V30 5280 H 504.712 -5.48452 0.221759 0
M  V30 5281 H 504.973 -4.29576 -1.04482 0
M  V30 5282 N 504.032 -0.577932 -1.46621 0
M  V30 5283 C 505.278 -0.0700937 -2.03279 0
M  V30 5284 C 505.633 1.27376 -1.44198 0
M  V30 5285 O 504.926 1.82097 -0.595911 0
M  V30 5286 C 505.12 0.0590832 -3.57351 0
M  V30 5287 C 504.949 -1.2707 -4.31374 0
M  V30 5288 C 503.719 -1.84357 -4.70469 0
M  V30 5289 C 505.917 -2.19278 -4.65211 0
M  V30 5290 N 503.899 -3.11124 -5.29221 0
M  V30 5291 C 505.27 -3.30631 -5.24484 0
M  V30 5292 C 507.325 -2.19018 -4.47142 0
M  V30 5293 C 506.028 -4.41849 -5.67593 0
M  V30 5294 C 508.054 -3.29262 -4.91264 0
M  V30 5295 C 507.416 -4.39335 -5.50604 0
M  V30 5296 H 503.515 -0.0683127 -0.779011 0
M  V30 5297 H 506.099 -0.76978 -1.78836 0
M  V30 5298 H 504.27 0.727929 -3.81518 0
M  V30 5299 H 506.002 0.57087 -4.00653 0
M  V30 5300 H 502.757 -1.37906 -4.53077 0
M  V30 5301 H 503.181 -3.75794 -5.63123 0
M  V30 5302 H 507.823 -1.35191 -4.00604 0
M  V30 5303 H 505.541 -5.26421 -6.13112 0
M  V30 5304 H 509.127 -3.30172 -4.79038 0
M  V30 5305 H 508.007 -5.23233 -5.84121 0
M  V30 5306 N 505.51 1.54411 -0.315457 0
M  V30 5307 C 506.759 1.99599 0.290395 0
M  V30 5308 C 507.072 1.20746 1.53882 0
M  V30 5309 O 508.278 1.56272 2.22017 0
M  V30 5310 C 506.734 3.5539 0.56797 0
M  V30 5311 C 506.342 4.43068 -0.662945 0
M  V30 5312 C 508.086 4.09067 1.13422 0
M  V30 5313 C 505.993 5.90317 -0.357722 0
M  V30 5314 H 504.923 0.745592 0.112286 0
M  V30 5315 H 507.574 1.78477 -0.426418 0
M  V30 5316 H 505.956 3.72468 1.34476 0
M  V30 5317 H 507.13 4.37765 -1.43869 0
M  V30 5318 H 505.445 4.00238 -1.14884 0
M  V30 5319 H 508.042 5.16663 1.37707 0
M  V30 5320 H 508.385 3.60552 2.08106 0
M  V30 5321 H 508.918 3.95589 0.418805 0
M  V30 5322 H 505.657 6.4301 -1.27351 0
M  V30 5323 H 505.177 5.98592 0.380472 0
M  V30 5324 H 506.856 6.4699 0.0354284 0
M  V30 5325 N 506.988 0.0434614 1.5754 0
M  V30 5326 C 508.236 -0.630786 1.92004 0
M  V30 5327 C 508.557 -1.71836 0.921807 0
M  V30 5328 O 507.827 -1.9587 -0.034522 0
M  V30 5329 H 506.407 -0.235988 0.708745 0
M  V30 5330 H 509.069 0.0946462 1.9467 0
M  V30 5331 H 508.165 -1.07434 2.93026 0
M  V30 5332 N 508.466 -1.55915 -0.229846 0
M  V30 5333 C 509.714 -1.7819 -0.953565 0
M  V30 5334 C 510.035 -0.610504 -1.85197 0
M  V30 5335 O 509.305 0.372988 -1.92316 0
M  V30 5336 H 507.885 -0.657208 -0.355087 0
M  V30 5337 H 510.547 -1.9337 -0.243693 0
M  V30 5338 H 509.643 -2.70011 -1.56527 0
M  V30 5339 N 509.944 0.496216 -1.49584 0
M  V30 5340 C 511.169 1.27865 -1.63295 0
M  V30 5341 C 511.594 1.85592 -0.306156 0
M  V30 5342 O 510.952 1.66092 0.726851 0
M  V30 5343 C 511 2.38128 -2.7079 0
M  V30 5344 O 510.104 3.42108 -2.30296 0
M  V30 5345 H 509.445 0.377279 -0.546403 0
M  V30 5346 H 511.975 0.593497 -1.95803 0
M  V30 5347 H 511.985 2.8382 -2.93104 0
M  V30 5348 H 510.66 1.95479 -3.67098 0
M  V30 5349 H 509.237 3.02301 -2.18331 0
M  V30 5350 N 511.423 1.38739 0.74761 0
M  V30 5351 C 512.672 1.3459 1.50228 0
M  V30 5352 C 512.985 -0.0595592 1.95509 0
M  V30 5353 O 514.191 -0.22361 2.70578 0
M  V30 5354 C 512.647 2.36377 2.71393 0
M  V30 5355 C 512.255 3.82573 2.33113 0
M  V30 5356 C 513.999 2.41281 3.49262 0
M  V30 5357 C 511.906 4.76032 3.50924 0
M  V30 5358 H 510.836 0.500312 0.564096 0
M  V30 5359 H 513.487 1.64324 0.8167 0
M  V30 5360 H 511.869 1.99694 3.41962 0
M  V30 5361 H 513.043 4.28227 1.70171 0
M  V30 5362 H 511.358 3.80844 1.68365 0
M  V30 5363 H 513.955 3.08301 4.36869 0
M  V30 5364 H 514.298 1.43353 3.9084 0
M  V30 5365 H 514.831 2.76793 2.85711 0
M  V30 5366 H 511.57 5.75177 3.14408 0
M  V30 5367 H 511.09 4.35066 4.12889 0
M  V30 5368 H 512.769 4.94331 4.17427 0
M  V30 5369 N 512.901 -0.976442 1.23707 0
M  V30 5370 C 513.831 -2.08749 1.04624 0
M  V30 5371 C 514.812 -1.70057 -0.0380956 0
M  V30 5372 O 515.997 -1.93782 0.127308 0
M  V30 5373 C 513.127 -3.41335 0.640902 0
M  V30 5374 C 512.081 -3.93947 1.67302 0
M  V30 5375 C 511.407 -5.22774 1.12301 0
M  V30 5376 C 512.707 -4.22769 3.06697 0
M  V30 5377 H 514.401 -2.24972 1.97555 0
M  V30 5378 H 511.947 -1.08108 0.951247 0
M  V30 5379 H 513.9 -4.18489 0.494434 0
M  V30 5380 H 512.624 -3.24988 -0.324099 0
M  V30 5381 H 511.283 -3.18941 1.80755 0
M  V30 5382 H 510.931 -5.0278 0.148877 0
M  V30 5383 H 510.631 -5.58942 1.81267 0
M  V30 5384 H 512.155 -6.02546 0.988479 0
M  V30 5385 H 513.569 -4.90659 2.96524 0
M  V30 5386 H 511.966 -4.70147 3.72937 0
M  V30 5387 H 513.036 -3.29885 3.55392 0
M  V30 5388 N 514.379 -1.04941 -1.1758 0
M  V30 5389 C 515.342 -0.652456 -2.19717 0
M  V30 5390 C 516.342 0.294745 -1.58076 0
M  V30 5391 O 517.532 0.0789579 -1.74021 0
M  V30 5392 C 514.664 0.0420712 -3.40874 0
M  V30 5393 H 515.857 -1.55642 -2.5635 0
M  V30 5394 H 513.41 -0.842995 -1.31618 0
M  V30 5395 H 514.145 0.95943 -3.09783 0
M  V30 5396 H 513.93 -0.638844 -3.86861 0
M  V30 5397 H 515.42 0.306 -4.16477 0
M  V30 5398 N 515.857 1.33968 -0.830081 0
M  V30 5399 C 517.082 2.02813 -0.433796 0
M  V30 5400 C 517.507 1.62076 0.954614 0
M  V30 5401 O 516.865 0.808955 1.62252 0
M  V30 5402 C 516.913 3.56348 -0.552115 0
M  V30 5403 O 516.017 4.10202 0.425191 0
M  V30 5404 H 515.358 0.639817 -0.177567 0
M  V30 5405 H 517.888 1.7106 -1.12248 0
M  V30 5406 H 517.898 4.05722 -0.430513 0
M  V30 5407 H 516.573 3.85344 -1.56471 0
M  V30 5408 H 515.15 3.71979 0.261878 0
M  V30 5409 N 517.335 0.585699 1.46312 0
M  V30 5410 C 518.265 -0.133556 2.33118 0
M  V30 5411 C 519.246 -0.880707 1.45525 0
M  V30 5412 O 520.431 -0.855579 1.74337 0
M  V30 5413 C 517.561 -1.14585 3.27853 0
M  V30 5414 C 516.515 -0.513341 4.2491 0
M  V30 5415 C 515.841 -1.63231 5.09175 0
M  V30 5416 C 517.141 0.551413 5.19381 0
M  V30 5417 H 518.835 0.59121 2.93505 0
M  V30 5418 H 516.381 0.285761 1.41136 0
M  V30 5419 H 518.334 -1.65741 3.87438 0
M  V30 5420 H 517.058 -1.90093 2.65579 0
M  V30 5421 H 515.717 -0.0228349 3.66593 0
M  V30 5422 H 515.365 -2.37713 4.43285 0
M  V30 5423 H 515.065 -1.21473 5.74907 0
M  V30 5424 H 516.589 -2.14658 5.71624 0
M  V30 5425 H 518.003 0.124804 5.73164 0
M  V30 5426 H 516.4 0.889486 5.93471 0
M  V30 5427 H 517.47 1.43655 4.63132 0
M  V30 5428 N 518.813 -1.54241 0.323641 0
M  V30 5429 C 520.038 -2.05452 -0.283605 0
M  V30 5430 C 520.463 -1.19823 -1.44997 0
M  V30 5431 O 519.821 -0.207358 -1.8011 0
M  V30 5432 C 519.869 -3.53823 -0.695795 0
M  V30 5433 O 518.973 -3.71134 -1.79815 0
M  V30 5434 H 518.314 -0.662024 -0.0511917 0
M  V30 5435 H 520.844 -1.99079 0.472073 0
M  V30 5436 H 520.854 -3.96094 -0.978434 0
M  V30 5437 H 519.529 -4.15602 0.157287 0
M  V30 5438 H 518.106 -3.40768 -1.51431 0
M  V30 5439 N 520.291 -0.0518155 -1.57515 0
M  V30 5440 C 521.519 0.631395 -1.9703 0
M  V30 5441 C 521.934 1.64341 -0.92938 0
M  V30 5442 O 521.291 1.82296 0.0863266 0
M  V30 5443 C 521.342 1.31774 -3.36627 0
M  V30 5444 O 521.063 0.346247 -4.3673 0
M  V30 5445 C 522.564 2.09065 -3.90905 0
M  V30 5446 H 519.784 0.172576 -0.648428 0
M  V30 5447 H 522.328 -0.118306 -2.04158 0
M  V30 5448 H 520.483 2.01867 -3.30649 0
M  V30 5449 H 520.897 0.836226 -5.17791 0
M  V30 5450 H 522.371 2.52508 -4.9086 0
M  V30 5451 H 522.848 2.93908 -3.26366 0
M  V30 5452 H 523.454 1.43882 -4.00223 0
M  V30 5453 N 521.769 1.56035 0.221574 0
M  V30 5454 C 523.016 1.79047 0.94597 0
M  V30 5455 C 523.344 0.62057 1.84334 0
M  V30 5456 O 522.599 -0.395053 1.91671 0
M  V30 5457 C 522.898 3.07813 1.8162 0
M  V30 5458 C 522.564 4.3797 1.07206 0
M  V30 5459 C 521.226 4.73334 0.866508 0
M  V30 5460 C 523.578 5.18326 0.546565 0
M  V30 5461 C 520.906 5.8657 0.123549 0
M  V30 5462 C 523.258 6.32335 -0.18305 0
M  V30 5463 C 521.922 6.66301 -0.399861 0
M  V30 5464 H 521.192 0.655178 0.346155 0
M  V30 5465 H 523.839 1.90299 0.214146 0
M  V30 5466 H 522.144 2.91682 2.61589 0
M  V30 5467 H 523.841 3.2282 2.37884 0
M  V30 5468 H 520.431 4.10202 1.24226 0
M  V30 5469 H 524.615 4.9144 0.692847 0
M  V30 5470 H 519.871 6.11376 -0.0546591 0
M  V30 5471 H 524.045 6.9383 -0.59775 0
M  V30 5472 H 521.672 7.53889 -0.977489 0
M  V30 5473 N 523.247 -0.488276 1.49845 0
M  V30 5474 C 524.179 -1.60539 1.63584 0
M  V30 5475 C 525.192 -1.5434 0.517972 0
M  V30 5476 O 526.381 -1.60041 0.790516 0
M  V30 5477 C 523.481 -2.99374 1.58835 0
M  V30 5478 C 522.654 -3.30624 2.86368 0
M  V30 5479 C 521.713 -4.4893 2.74496 0
M  V30 5480 O 520.739 -4.50085 3.48443 0
M  V30 5481 N 521.941 -5.49591 1.86894 0
M  V30 5482 H 524.706 -1.49176 2.59936 0
M  V30 5483 H 522.267 -0.67639 1.47094 0
M  V30 5484 H 524.259 -3.76459 1.48529 0
M  V30 5485 H 522.829 -3.04595 0.702892 0
M  V30 5486 H 522.049 -2.42314 3.1093 0
M  V30 5487 H 523.337 -3.48305 3.70892 0
M  V30 5488 H 522.735 -5.51467 1.26097 0
M  V30 5489 H 521.292 -6.25728 1.82503 0
M  V30 5490 N 524.725 -1.39134 -0.740242 0
M  V30 5491 C 525.657 -1.33332 -1.86428 0
M  V30 5492 C 526.67 -0.243042 -1.60976 0
M  V30 5493 O 527.859 -0.501608 -1.71307 0
M  V30 5494 C 524.959 -1.04626 -3.22346 0
M  V30 5495 C 524.132 -2.24826 -3.75196 0
M  V30 5496 C 523.191 -1.92659 -4.89662 0
M  V30 5497 O 522.217 -2.6529 -5.03597 0
M  V30 5498 N 523.419 -0.889575 -5.73643 0
M  V30 5499 H 526.184 -2.30196 -1.91911 0
M  V30 5500 H 523.745 -1.33168 -0.920756 0
M  V30 5501 H 525.737 -0.811347 -3.96484 0
M  V30 5502 H 524.307 -0.165129 -3.12164 0
M  V30 5503 H 523.527 -2.64301 -2.9247 0
M  V30 5504 H 524.815 -3.05015 -4.07239 0
M  V30 5505 H 524.213 -0.287529 -5.64969 0
M  V30 5506 H 522.77 -0.714557 -6.47871 0
M  V30 5507 N 526.204 0.969867 -1.24223 0
M  V30 5508 C 527.137 2.06279 -0.975926 0
M  V30 5509 C 528.115 1.62353 0.0895385 0
M  V30 5510 O 529.299 1.88442 -0.0469418 0
M  V30 5511 C 526.426 3.35391 -0.472315 0
M  V30 5512 C 525.472 3.98266 -1.526 0
M  V30 5513 S 526.305 4.36172 -3.10667 0
M  V30 5514 C 527.461 5.68423 -2.62003 0
M  V30 5515 H 527.694 2.28551 -1.90137 0
M  V30 5516 H 525.227 1.10748 -1.07584 0
M  V30 5517 H 527.185 4.10068 -0.188376 0
M  V30 5518 H 525.846 3.1111 0.432378 0
M  V30 5519 H 525.039 4.91307 -1.12399 0
M  V30 5520 H 524.641 3.30009 -1.75983 0
M  V30 5521 H 526.933 6.45842 -2.0468 0
M  V30 5522 H 527.876 6.13478 -3.53625 0
M  V30 5523 H 528.284 5.26928 -2.02502 0
M  V30 5524 N 527.682 1.05563 1.17022 0
M  V30 5525 C 528.928 0.778872 1.87897 0
M  V30 5526 C 529.283 -0.686839 1.79723 0
M  V30 5527 O 528.576 -1.49612 1.19694 0
M  V30 5528 C 528.77 1.19849 3.36706 0
M  V30 5529 C 528.599 2.70345 3.59366 0
M  V30 5530 C 527.369 3.37707 3.75875 0
M  V30 5531 C 529.567 3.68564 3.58699 0
M  V30 5532 N 527.549 4.7703 3.86414 0
M  V30 5533 C 528.92 4.93634 3.75134 0
M  V30 5534 C 530.975 3.6198 3.4187 0
M  V30 5535 C 529.678 6.12907 3.76481 0
M  V30 5536 C 531.704 4.80697 3.44507 0
M  V30 5537 C 531.066 6.04592 3.61453 0
M  V30 5538 H 527.165 0.337297 0.705517 0
M  V30 5539 H 529.749 1.34832 1.40458 0
M  V30 5540 H 527.92 0.656958 3.82804 0
M  V30 5541 H 529.652 0.871172 3.95212 0
M  V30 5542 H 526.407 2.88108 3.75887 0
M  V30 5543 H 526.831 5.49483 3.95471 0
M  V30 5544 H 531.473 2.67154 3.27702 0
M  V30 5545 H 529.191 7.08073 3.89432 0
M  V30 5546 H 532.777 4.77259 3.32738 0
M  V30 5547 H 531.657 6.94916 3.63403 0
M  V30 5548 N 529.16 -1.33526 0.837174 0
M  V30 5549 C 530.409 -1.97098 0.428387 0
M  V30 5550 C 530.722 -1.67062 -1.01734 0
M  V30 5551 O 531.928 -2.24235 -1.53072 0
M  V30 5552 C 530.384 -3.52725 0.715075 0
M  V30 5553 C 529.992 -3.9164 2.17537 0
M  V30 5554 C 531.736 -4.22857 0.373154 0
M  V30 5555 C 529.643 -5.40237 2.40619 0
M  V30 5556 H 528.573 -0.737589 0.156455 0
M  V30 5557 H 531.224 -1.52169 1.02552 0
M  V30 5558 H 529.606 -3.95971 0.0475904 0
M  V30 5559 H 530.78 -3.59456 2.88319 0
M  V30 5560 H 529.095 -3.34485 2.4801 0
M  V30 5561 H 531.692 -5.32133 0.523264 0
M  V30 5562 H 532.035 -4.10647 -0.683708 0
M  V30 5563 H 532.568 -3.85135 0.995801 0
M  V30 5564 H 529.307 -5.57449 3.44864 0
M  V30 5565 H 528.827 -5.73887 1.74396 0
M  V30 5566 H 530.506 -6.07102 2.23688 0
M  V30 5567 N 530.638 -0.59345 -1.46 0
M  V30 5568 C 531.866 -0.0890934 -2.06708 0
M  V30 5569 C 532.281 1.2205 -1.44046 0
M  V30 5570 O 531.638 1.74029 -0.549551 0
M  V30 5571 C 531.689 0.0720263 -3.61428 0
M  V30 5572 O 531.41 -1.18574 -4.21748 0
M  V30 5573 C 532.911 0.609487 -4.3909 0
M  V30 5574 H 530.131 -0.0623628 -0.668096 0
M  V30 5575 H 532.675 -0.817171 -1.87464 0
M  V30 5576 H 530.83 0.750369 -3.80063 0
M  V30 5577 H 531.244 -1.0064 -5.14754 0
M  V30 5578 H 532.718 0.671363 -5.47902 0
M  V30 5579 H 533.195 1.62878 -4.07882 0
M  V30 5580 H 533.801 -0.03434 -4.25286 0
M  V30 5581 N 532.116 1.54067 -0.331816 0
M  V30 5582 C 533.063 2.24623 0.530372 0
M  V30 5583 C 534.033 1.24009 1.10503 0
M  V30 5584 O 535.218 1.52712 1.14384 0
M  V30 5585 C 532.358 3.01374 1.68129 0
M  V30 5586 C 531.471 4.16821 1.13507 0
M  V30 5587 C 530.606 4.81085 2.25234 0
M  V30 5588 C 529.645 5.88621 1.67903 0
M  V30 5589 N 528.782 6.46713 2.73326 0
M  V30 5590 H 533.622 2.97898 -0.0778607 0
M  V30 5591 H 531.159 1.47014 -0.0501965 0
M  V30 5592 H 533.117 3.44125 2.35868 0
M  V30 5593 H 531.747 2.30419 2.26069 0
M  V30 5594 H 530.799 3.78796 0.348979 0
M  V30 5595 H 532.111 4.94203 0.675633 0
M  V30 5596 H 531.265 5.26846 3.00862 0
M  V30 5597 H 530.004 4.03102 2.74518 0
M  V30 5598 H 529.009 5.42254 0.907773 0
M  V30 5599 H 530.234 6.68506 1.19487 0
M  V30 5600 H 528.18 5.71599 3.21886 0
M  V30 5601 H 528.097 7.19532 2.3197 0
M  V30 5602 H 529.365 6.97129 3.48758 0
M  V30 5603 N 533.594 0.0601682 1.57485 0
M  V30 5604 C 534.526 -0.94047 2.09016 0
M  V30 5605 C 535.539 -1.26897 1.01985 0
M  V30 5606 O 536.728 -1.22819 1.29529 0
M  V30 5607 C 533.828 -2.25955 2.52582 0
M  V30 5608 C 533.001 -2.11163 3.83052 0
M  V30 5609 C 532.06 -3.26273 4.12835 0
M  V30 5610 O 531.086 -3.01779 4.82616 0
M  V30 5611 N 532.288 -4.51022 3.65458 0
M  V30 5612 H 535.053 -0.500578 2.9549 0
M  V30 5613 H 532.614 -0.125852 1.6141 0
M  V30 5614 H 534.606 -3.01846 2.69575 0
M  V30 5615 H 533.176 -2.61481 1.71308 0
M  V30 5616 H 532.396 -1.19808 3.75552 0
M  V30 5617 H 533.684 -1.98517 4.68475 0
M  V30 5618 H 533.082 -4.73811 3.09062 0
M  V30 5619 H 531.639 -5.23978 3.87673 0
M  V30 5620 N 535.072 -1.5615 -0.213296 0
M  V30 5621 C 535.982 -1.96265 -1.28519 0
M  V30 5622 C 536.998 -0.86765 -1.50824 0
M  V30 5623 O 538.174 -1.17191 -1.63793 0
M  V30 5624 C 535.239 -2.27836 -2.61327 0
M  V30 5625 C 534.3 -3.50949 -2.47252 0
M  V30 5626 C 533.533 -3.81004 -3.73727 0
M  V30 5627 O 533.756 -3.12612 -4.77106 0
M  V30 5628 O 532.69 -4.74477 -3.70344 0
M  V30 5629 H 536.516 -2.87631 -0.974795 0
M  V30 5630 H 534.101 -1.43467 -0.416832 0
M  V30 5631 H 535.983 -2.49299 -3.39747 0
M  V30 5632 H 534.658 -1.39643 -2.9203 0
M  V30 5633 H 533.565 -3.34754 -1.67004 0
M  V30 5634 H 534.898 -4.39551 -2.21486 0
M  V30 5635 N 536.55 0.480323 -1.50102 0
M  V30 5636 C 537.78 1.25475 -1.64133 0
M  V30 5637 C 538.188 1.8647 -0.320272 0
M  V30 5638 O 537.531 1.69561 0.70673 0
M  V30 5639 C 537.593 2.40996 -2.6676 0
M  V30 5640 C 537.257 2.00711 -4.10565 0
M  V30 5641 C 538.254 1.53492 -4.96725 0
M  V30 5642 C 535.939 2.09714 -4.56427 0
M  V30 5643 C 537.933 1.15806 -6.26792 0
M  V30 5644 C 535.62 1.7164 -5.86501 0
M  V30 5645 C 536.618 1.24763 -6.71508 0
M  V30 5646 O 536.306 0.872122 -7.99155 0
M  V30 5647 H 536.038 0.385983 -0.554971 0
M  V30 5648 H 538.592 0.580848 -1.97016 0
M  V30 5649 H 536.822 3.11528 -2.291 0
M  V30 5650 H 538.511 3.02981 -2.70106 0
M  V30 5651 H 539.277 1.45966 -4.62514 0
M  V30 5652 H 535.156 2.4515 -3.90413 0
M  V30 5653 H 538.7 0.791465 -6.93096 0
M  V30 5654 H 534.597 1.78822 -6.20236 0
M  V30 5655 H 535.365 1.00178 -8.12346 0
M  V30 5656 N 538.028 1.39524 0.732853 0
M  V30 5657 C 539.305 1.27373 1.48444 0
M  V30 5658 C 539.685 -0.115725 2.10783 0
M  V30 5659 O 539.033 -1.12713 1.98766 0
M  V30 5660 C 539.243 2.39966 2.53412 0
M  V30 5661 C 540.591 2.79384 3.19733 0
M  V30 5662 O 541.615 2.39431 2.63725 0
M  V30 5663 O 540.474 3.48353 4.21085 0
M  V30 5664 H 537.568 0.499272 0.659285 0
M  V30 5665 H 540.114 1.51403 0.766496 0
M  V30 5666 H 538.886 3.32845 2.05742 0
M  V30 5667 H 538.509 2.17612 3.32762 0
M  V30 5668 N 539.506 -0.963266 1.24736 0
M  V30 5669 C 540.416 -2.09246 1.06082 0
M  V30 5670 C 541.432 -1.74 0.000363101 0
M  V30 5671 O 542.608 -2.0041 0.199479 0
M  V30 5672 C 539.673 -3.40115 0.672498 0
M  V30 5673 C 538.734 -3.89282 1.80993 0
M  V30 5674 C 537.967 -5.13905 1.44004 0
M  V30 5675 O 538.19 -5.69434 0.331835 0
M  V30 5676 O 537.124 -5.57566 2.26723 0
M  V30 5677 H 540.95 -2.27881 2.00759 0
M  V30 5678 H 538.535 -1.07649 1.03595 0
M  V30 5679 H 540.417 -4.18797 0.467668 0
M  V30 5680 H 539.092 -3.22771 -0.245102 0
M  V30 5681 H 537.999 -3.11642 2.06955 0
M  V30 5682 H 539.332 -4.1111 2.70646 0
M  V30 5683 N 540.985 -1.06182 -1.16461 0
M  V30 5684 C 541.948 -0.675723 -2.19013 0
M  V30 5685 C 542.948 0.277963 -1.58379 0
M  V30 5686 O 544.138 0.0604962 -1.74095 0
M  V30 5687 C 541.27 0.00591459 -3.40899 0
M  V30 5688 H 542.463 -1.58353 -2.54685 0
M  V30 5689 H 540.016 -0.856908 -1.30716 0
M  V30 5690 H 540.751 0.92652 -3.10783 0
M  V30 5691 H 540.536 -0.67984 -3.86161 0
M  V30 5692 H 542.026 0.26181 -4.16778 0
M  V30 5693 N 542.463 1.3308 -0.844243 0
M  V30 5694 C 543.711 1.97215 -0.441676 0
M  V30 5695 C 544.032 1.67185 1.0037 0
M  V30 5696 O 543.302 0.973588 1.69994 0
M  V30 5697 H 541.882 0.72959 -0.160335 0
M  V30 5698 H 544.544 1.62348 -1.07838 0
M  V30 5699 H 543.64 3.06698 -0.57815 0
M  V30 5700 N 543.941 0.601185 1.45683 0
M  V30 5701 C 545.352 0.179659 1.85834 0
M  V30 5702 C 545.703 -1.26189 1.50236 0
M  V30 5703 O 544.828 -1.95587 0.925987 0
M  V30 5704 C 545.423 0.319277 3.37292 0
M  V30 5705 C 543.982 -0.0475092 3.7637 0
M  V30 5706 C 543.129 0.646692 2.69654 0
M  V30 5707 H 546.08 0.808268 1.36575 0
M  V30 5708 H 546.101 -0.4503 3.77826 0
M  V30 5709 H 545.613 1.36855 3.6317 0
M  V30 5710 H 543.714 -1.0962 3.5611 0
M  V30 5711 H 543.827 0.34168 4.7788 0
M  V30 5712 H 542.191 0.0849971 2.54558 0
M  V30 5713 H 542.974 1.69797 2.98369 0
M  V30 5714 N 545.419 -1.53889 0.339982 0
M  V30 5715 C 546.644 -2.05741 -0.261798 0
M  V30 5716 C 547.069 -1.21354 -1.43718 0
M  V30 5717 O 546.427 -0.22645 -1.7988 0
M  V30 5718 C 546.475 -3.54542 -0.658228 0
M  V30 5719 O 545.579 -3.7302 -1.75869 0
M  V30 5720 H 544.92 -0.662529 -0.0441672 0
M  V30 5721 H 547.45 -1.98568 0.493161 0
M  V30 5722 H 547.46 -3.9711 -0.936368 0
M  V30 5723 H 546.135 -4.15412 0.201358 0
M  V30 5724 H 544.712 -3.42355 -1.47809 0
M  V30 5725 N 546.897 -0.0685191 -1.57451 0
M  V30 5726 C 548.146 0.600898 -1.92541 0
M  V30 5727 C 548.459 1.70967 -0.950239 0
M  V30 5728 O 549.665 2.43844 -1.19384 0
M  V30 5729 C 548.121 1.12019 -3.42023 0
M  V30 5730 C 547.729 0.0426028 -4.4798 0
M  V30 5731 C 549.473 1.76386 -3.86119 0
M  V30 5732 C 547.38 0.575759 -5.88591 0
M  V30 5733 H 546.31 0.228225 -0.71863 0
M  V30 5734 H 548.961 -0.140223 -1.82963 0
M  V30 5735 H 547.343 1.91418 -3.46663 0
M  V30 5736 H 548.517 -0.73182 -4.54952 0
M  V30 5737 H 546.832 -0.504642 -4.13331 0
M  V30 5738 H 549.429 2.17302 -4.88553 0
M  V30 5739 H 549.772 2.62255 -3.23308 0
M  V30 5740 H 550.305 1.03615 -3.84069 0
M  V30 5741 H 547.044 -0.245691 -6.55039 0
M  V30 5742 H 546.564 1.31778 -5.85145 0
M  V30 5743 H 548.243 1.0532 -6.3837 0
M  V30 5744 N 548.375 1.56261 0.205012 0
M  V30 5745 C 549.621 1.80306 0.9283 0
M  V30 5746 C 549.954 0.640932 1.83319 0
M  V30 5747 O 549.229 -0.359032 1.91158 0
M  V30 5748 C 549.512 3.14547 1.75306 0
M  V30 5749 C 549.365 4.41236 0.873562 0
M  V30 5750 C 550.684 3.45382 2.72762 0
M  V30 5751 H 547.803 0.655929 0.336044 0
M  V30 5752 H 550.445 1.88984 0.196211 0
M  V30 5753 H 548.595 3.0728 2.37721 0
M  V30 5754 H 550.267 4.60539 0.264887 0
M  V30 5755 H 548.51 4.33427 0.179773 0
M  V30 5756 H 549.181 5.31639 1.48541 0
M  V30 5757 H 551.657 3.52884 2.20481 0
M  V30 5758 H 550.533 4.40449 3.2756 0
M  V30 5759 H 550.794 2.68377 3.51321 0
M  V30 5760 N 549.853 -0.472356 1.50355 0
M  V30 5761 C 550.803 -1.56809 1.65514 0
M  V30 5762 C 551.787 -1.5261 0.509801 0
M  V30 5763 O 552.979 -1.59655 0.764145 0
M  V30 5764 C 550.108 -2.9526 1.75146 0
M  V30 5765 C 549.194 -3.04348 2.95353 0
M  V30 5766 N 549.585 -2.83253 4.19048 0
M  V30 5767 C 547.883 -3.35482 2.93884 0
M  V30 5768 C 548.584 -2.97273 5.00003 0
M  V30 5769 N 547.56 -3.27418 4.33934 0
M  V30 5770 H 551.362 -1.39197 2.58846 0
M  V30 5771 H 548.876 -0.67906 1.47521 0
M  V30 5772 H 550.873 -3.74044 1.8411 0
M  V30 5773 H 549.533 -3.1392 0.829717 0
M  V30 5774 H 550.544 -2.5886 4.48567 0
M  V30 5775 H 547.221 -3.60138 2.11204 0
M  V30 5776 H 548.611 -2.85214 6.08361 0
M  V30 5777 N 551.331 -1.39911 -0.725443 0
M  V30 5778 C 552.747 -1.21725 -1.03224 0
M  V30 5779 C 552.947 -0.0855224 -2.01318 0
M  V30 5780 O 552.003 0.55976 -2.46217 0
M  V30 5781 C 553.316 -2.55511 -1.58539 0
M  V30 5782 C 554.864 -2.62439 -1.70572 0
M  V30 5783 C 555.339 -3.9647 -2.29294 0
M  V30 5784 N 556.83 -3.98159 -2.36692 0
M  V30 5785 C 557.565 -4.98647 -2.83088 0
M  V30 5786 N 557.061 -6.0953 -3.2931 0
M  V30 5787 N 558.854 -4.8602 -2.82384 0
M  V30 5788 H 551.005 -2.12267 -0.075048 0
M  V30 5789 H 553.268 -0.943136 -0.0959066 0
M  V30 5790 H 552.974 -3.38926 -0.939249 0
M  V30 5791 H 552.848 -2.75905 -2.57208 0
M  V30 5792 H 555.235 -1.79401 -2.34306 0
M  V30 5793 H 555.316 -2.45885 -0.705297 0
M  V30 5794 H 554.96 -4.79942 -1.66186 0
M  V30 5795 H 554.89 -4.10349 -3.30032 0
M  V30 5796 H 557.381 -3.18085 -2.04035 0
M  V30 5797 H 557.694 -6.82106 -3.6325 0
M  V30 5798 H 556.039 -6.1311 -3.27294 0
M  V30 5799 H 559.23 -3.98493 -2.45603 0
M  V30 5800 H 559.403 -5.64478 -3.18226 0
M  V30 5801 N 552.809 0.956637 -1.25245 0
M  V30 5802 C 553.756 2.053 -1.05454 0
M  V30 5803 C 554.726 1.66062 0.0356889 0
M  V30 5804 O 555.911 1.90415 -0.121099 0
M  V30 5805 C 553.051 3.38391 -0.677191 0
M  V30 5806 C 552.164 3.90758 -1.84206 0
M  V30 5807 C 551.299 5.12165 -1.40926 0
M  V30 5808 C 550.338 5.56757 -2.54338 0
M  V30 5809 N 549.475 6.69376 -2.11848 0
M  V30 5810 H 554.315 2.21562 -1.99284 0
M  V30 5811 H 551.852 1.08578 -0.992434 0
M  V30 5812 H 553.81 4.1488 -0.43938 0
M  V30 5813 H 552.44 3.22021 0.224127 0
M  V30 5814 H 551.492 3.10808 -2.19323 0
M  V30 5815 H 552.804 4.19802 -2.69383 0
M  V30 5816 H 551.958 5.96065 -1.13098 0
M  V30 5817 H 550.697 4.84832 -0.528175 0
M  V30 5818 H 549.702 4.71423 -2.82913 0
M  V30 5819 H 550.927 5.861 -3.43022 0
M  V30 5820 H 548.873 6.43756 -1.26153 0
M  V30 5821 H 548.79 6.97927 -2.90574 0
M  V30 5822 H 550.058 7.5669 -1.87191 0
M  V30 5823 N 554.287 1.06798 1.15896 0
M  V30 5824 C 555.527 0.797041 1.8822 0
M  V30 5825 C 555.891 -0.664549 1.80133 0
M  V30 5826 O 557.092 -1.0503 2.47431 0
M  V30 5827 C 555.363 1.28431 3.33527 0
M  V30 5828 S 556.922 1.14319 4.23647 0
M  V30 5829 H 553.74 0.288988 0.649621 0
M  V30 5830 H 556.342 1.36594 1.39865 0
M  V30 5831 H 555.046 2.34286 3.36954 0
M  V30 5832 H 554.577 0.710371 3.86933 0
M  V30 5833 H 556.592 0.0772467 4.9614 0
M  V30 5834 N 555.766 -1.3263 0.851289 0
M  V30 5835 C 557.013 -1.97368 0.453023 0
M  V30 5836 C 557.341 -1.67384 -0.990596 0
M  V30 5837 O 556.596 -0.952665 -1.70947 0
M  V30 5838 C 556.895 -3.51713 0.635015 0
M  V30 5839 C 556.561 -4.01676 2.04859 0
M  V30 5840 C 555.223 -4.15031 2.43522 0
M  V30 5841 C 557.575 -4.28206 2.97135 0
M  V30 5842 C 554.903 -4.52257 3.73739 0
M  V30 5843 C 557.255 -4.66889 4.26846 0
M  V30 5844 C 555.919 -4.7845 4.65448 0
M  V30 5845 H 555.189 -0.722219 0.165773 0
M  V30 5846 H 557.836 -1.58092 1.0807 0
M  V30 5847 H 556.141 -3.91726 -0.0759081 0
M  V30 5848 H 557.838 -3.99823 0.306964 0
M  V30 5849 H 554.428 -3.91764 1.73836 0
M  V30 5850 H 558.612 -4.174 2.68498 0
M  V30 5851 H 553.868 -4.59402 4.03435 0
M  V30 5852 H 558.042 -4.86372 4.98413 0
M  V30 5853 H 555.669 -5.07052 5.66395 0
M  V30 5854 O 557.283 -0.749239 -1.43069 0
M  V30 5855 H 557.974 -0.305579 -1.91274 0
M  V30 END ATOM
M  V30 BEGIN BOND
M  V30 END BOND
M  V30 END CTAB
M  END
$$$$
